0:0:0
     RDKit          3D

 12 13  0  0  1  0  0  0  0  0999 V2000
    2.5615   -9.0301    1.8482 C   0  0  0  0  0  0  0  0  0  0  0  0
    2.0043  -10.1657    2.4944 C   0  0  0  0  0  0  0  0  0  0  0  0
    0.7662  -10.2230    2.9895 N   0  0  0  0  0  0  0  0  0  0  0  0
    0.1152   -9.0423    2.7926 N   0  0  0  0  0  0  0  0  0  0  0  0
   -1.1501   -8.7143    3.1613 C   0  0  0  0  0  0  0  0  0  0  0  0
   -1.4199   -7.4570    2.8006 N   0  0  0  0  0  0  0  0  0  0  0  0
   -0.3002   -6.9364    2.1600 N   0  0  0  0  0  0  0  0  0  0  0  0
    0.6351   -7.8933    2.1591 C   0  0  0  0  0  0  0  0  0  0  0  0
    1.8929   -7.8917    1.6812 N   0  0  0  0  0  0  0  0  0  0  0  0
    3.5765   -9.0668    1.4658 H   0  0  0  0  0  0  0  0  0  0  0  0
    2.6041  -11.0655    2.5943 H   0  0  0  0  0  0  0  0  0  0  0  0
   -1.8316   -9.3758    3.6804 H   0  0  0  0  0  0  0  0  0  0  0  0
  1  9  2  0
  1  2  1  0
  1 10  1  0
  2  3  2  0
  2 11  1  0
  3  4  1  0
  4  8  1  0
  4  5  1  0
  5  6  2  0
  5 12  1  0
  6  7  1  0
  7  8  2  0
  8  9  1  0
M  END
>  <i_m_ct_stereo_status>  (1) 
1

>  <s_m_source_file>  (1) 
/var/tmp/pbs.5076255.sched01/tmpgq1_80gb/0xrgip9rw.sdf

>  <i_m_source_file_index>  (1) 
1

>  <i_lp_mmshare_version>  (1) 
48012

>  <i_f3d_flags>  (1) 
0

>  <s_epik_input>  (1) 
bjFbY0hdW2NIXW5jKG4xMilubltjSF0y

>  <s_epik_cmdline>  (1) 
J2VwaWtfcHl0aG9uJywgJy1waHQnLCAnMi4wJywgJy1waCcsICc3LjAnLCAnLXRuJywgJzgnLCAnLW1hJywgJzIwMCcsICctaW1hZScsICc8aW5maWxlLm1hZT4nLCAnLW9tYWUnLCAnPG91dGZpbGUubWFlPic=

>  <r_lp_tautomer_probability>  (1) 
1

>  <r_epik_Ionization_Penalty>  (1) 
4.91311e-10

>  <r_epik_Ionization_Penalty_Charging>  (1) 
0

>  <r_epik_Ionization_Penalty_Neutral>  (1) 
4.91311e-10

>  <r_epik_State_Penalty>  (1) 
-0

>  <r_epik_Charging_Adjusted_Penalty>  (1) 
0

>  <i_epik_Tot_Q>  (1) 
0

>  <i_epik_Tot_abs_Q>  (1) 
0

>  <s_lp_Force_Field>  (1) 
OPLS3e

>  <r_lp_Energy>  (1) 
15.6361

>  <b_lp_Chiralities_Consistent>  (1) 
1

>  <s_lp_Variant>  (1) 
0:0-1

>  <s_i_glide_gridfile>  (1) 
pfpi4k_grid

>  <i_i_glide_lignum>  (1) 
1

>  <i_i_glide_rotatable_bonds>  (1) 
0

>  <r_i_docking_score>  (1) 
-4.20476

>  <r_i_glide_ligand_efficiency>  (1) 
-0.467195

>  <r_i_glide_ligand_efficiency_sa>  (1) 
-0.971805

>  <r_i_glide_ligand_efficiency_ln>  (1) 
-1.31513

>  <r_i_glide_gscore>  (1) 
-4.20476

>  <r_i_glide_lipo>  (1) 
-0.0868803

>  <r_i_glide_hbond>  (1) 
0

>  <r_i_glide_metal>  (1) 
-0

>  <r_i_glide_rewards>  (1) 
-2.25

>  <r_i_glide_evdw>  (1) 
-15.599

>  <r_i_glide_ecoul>  (1) 
-5.15362

>  <r_i_glide_erotb>  (1) 
0

>  <r_i_glide_esite>  (1) 
-0.31488

>  <r_i_glide_emodel>  (1) 
-27.671

>  <r_i_glide_energy>  (1) 
-20.7527

>  <r_i_glide_einternal>  (1) 
0

>  <r_i_glide_intrahb_reward>  (1) 
-0

>  <i_i_glide_confnum>  (1) 
2

>  <i_i_glide_posenum>  (1) 
17

>  <r_i_glide_eff_state_penalty>  (1) 
0

>  <ligand_id>  (1) 
0

>  <original_smiles>  (1) 
c1cnn2cnnc2n1

>  <smiles>  (1) 
[H]c1nc2nnc([H])n2nc1[H]

$$$$
0:0:1
     RDKit          3D

 12 13  0  0  1  0  0  0  0  0999 V2000
    1.8474   -6.9014    1.2834 C   0  0  0  0  0  0  0  0  0  0  0  0
    2.3429   -8.1242    1.8122 C   0  0  0  0  0  0  0  0  0  0  0  0
    1.6525   -8.9350    2.6170 N   0  0  0  0  0  0  0  0  0  0  0  0
    0.4097   -8.4313    2.8559 N   0  0  0  0  0  0  0  0  0  0  0  0
   -0.5764   -8.9564    3.6256 C   0  0  0  0  0  0  0  0  0  0  0  0
   -1.6433   -8.1508    3.6144 N   0  0  0  0  0  0  0  0  0  0  0  0
   -1.3504   -7.0559    2.8160 N   0  0  0  0  0  0  0  0  0  0  0  0
   -0.1129   -7.2268    2.3471 C   0  0  0  0  0  0  0  0  0  0  0  0
    0.6249   -6.4437    1.5384 N   0  0  0  0  0  0  0  0  0  0  0  0
    2.4730   -6.2982    0.6329 H   0  0  0  0  0  0  0  0  0  0  0  0
    3.3472   -8.4482    1.5581 H   0  0  0  0  0  0  0  0  0  0  0  0
   -0.5141   -9.8860    4.1719 H   0  0  0  0  0  0  0  0  0  0  0  0
  1  9  2  0
  1  2  1  0
  1 10  1  0
  2  3  2  0
  2 11  1  0
  3  4  1  0
  4  8  1  0
  4  5  1  0
  5  6  2  0
  5 12  1  0
  6  7  1  0
  7  8  2  0
  8  9  1  0
M  END
>  <i_m_ct_stereo_status>  (2) 
1

>  <s_m_source_file>  (2) 
/var/tmp/pbs.5076255.sched01/tmpgq1_80gb/0xrgip9rw.sdf

>  <i_m_source_file_index>  (2) 
1

>  <i_lp_mmshare_version>  (2) 
48012

>  <i_f3d_flags>  (2) 
0

>  <s_epik_input>  (2) 
bjFbY0hdW2NIXW5jKG4xMilubltjSF0y

>  <s_epik_cmdline>  (2) 
J2VwaWtfcHl0aG9uJywgJy1waHQnLCAnMi4wJywgJy1waCcsICc3LjAnLCAnLXRuJywgJzgnLCAnLW1hJywgJzIwMCcsICctaW1hZScsICc8aW5maWxlLm1hZT4nLCAnLW9tYWUnLCAnPG91dGZpbGUubWFlPic=

>  <r_lp_tautomer_probability>  (2) 
1

>  <r_epik_Ionization_Penalty>  (2) 
4.91311e-10

>  <r_epik_Ionization_Penalty_Charging>  (2) 
0

>  <r_epik_Ionization_Penalty_Neutral>  (2) 
4.91311e-10

>  <r_epik_State_Penalty>  (2) 
-0

>  <r_epik_Charging_Adjusted_Penalty>  (2) 
0

>  <i_epik_Tot_Q>  (2) 
0

>  <i_epik_Tot_abs_Q>  (2) 
0

>  <s_lp_Force_Field>  (2) 
OPLS3e

>  <r_lp_Energy>  (2) 
15.6361

>  <b_lp_Chiralities_Consistent>  (2) 
1

>  <s_lp_Variant>  (2) 
0:0-1

>  <s_i_glide_gridfile>  (2) 
pfpi4k_grid

>  <i_i_glide_lignum>  (2) 
1

>  <i_i_glide_rotatable_bonds>  (2) 
0

>  <r_i_docking_score>  (2) 
-4.13417

>  <r_i_glide_ligand_efficiency>  (2) 
-0.459352

>  <r_i_glide_ligand_efficiency_sa>  (2) 
-0.955491

>  <r_i_glide_ligand_efficiency_ln>  (2) 
-1.29305

>  <r_i_glide_gscore>  (2) 
-4.13417

>  <r_i_glide_lipo>  (2) 
0

>  <r_i_glide_hbond>  (2) 
-0.13784

>  <r_i_glide_metal>  (2) 
-0

>  <r_i_glide_rewards>  (2) 
-2.25

>  <r_i_glide_evdw>  (2) 
-13.3877

>  <r_i_glide_ecoul>  (2) 
-4.76844

>  <r_i_glide_erotb>  (2) 
0

>  <r_i_glide_esite>  (2) 
-0.361678

>  <r_i_glide_emodel>  (2) 
-24.9576

>  <r_i_glide_energy>  (2) 
-18.1561

>  <r_i_glide_einternal>  (2) 
0

>  <r_i_glide_intrahb_reward>  (2) 
-0

>  <i_i_glide_confnum>  (2) 
1

>  <i_i_glide_posenum>  (2) 
4

>  <r_i_glide_eff_state_penalty>  (2) 
0

>  <ligand_id>  (2) 
0

>  <original_smiles>  (2) 
c1cnn2cnnc2n1

>  <smiles>  (2) 
[H]c1nc2nnc([H])n2nc1[H]

$$$$
0:0:2
     RDKit          3D

 12 13  0  0  1  0  0  0  0  0999 V2000
   -1.2993    2.5886    3.3002 C   0  0  0  0  0  0  0  0  0  0  0  0
   -0.4886    1.7510    2.4892 C   0  0  0  0  0  0  0  0  0  0  0  0
   -0.1269    0.5091    2.8132 N   0  0  0  0  0  0  0  0  0  0  0  0
   -0.6546    0.1532    4.0168 N   0  0  0  0  0  0  0  0  0  0  0  0
   -0.5170   -1.0314    4.6650 C   0  0  0  0  0  0  0  0  0  0  0  0
   -1.1888   -1.0017    5.8169 N   0  0  0  0  0  0  0  0  0  0  0  0
   -1.7863    0.2482    5.9411 N   0  0  0  0  0  0  0  0  0  0  0  0
   -1.4652    0.9522    4.8489 C   0  0  0  0  0  0  0  0  0  0  0  0
   -1.7866    2.2059    4.4781 N   0  0  0  0  0  0  0  0  0  0  0  0
   -1.5376    3.5944    2.9699 H   0  0  0  0  0  0  0  0  0  0  0  0
   -0.1156    2.1329    1.5428 H   0  0  0  0  0  0  0  0  0  0  0  0
    0.0492   -1.8766    4.3021 H   0  0  0  0  0  0  0  0  0  0  0  0
  1  9  2  0
  1  2  1  0
  1 10  1  0
  2  3  2  0
  2 11  1  0
  3  4  1  0
  4  8  1  0
  4  5  1  0
  5  6  2  0
  5 12  1  0
  6  7  1  0
  7  8  2  0
  8  9  1  0
M  END
>  <i_m_ct_stereo_status>  (3) 
1

>  <s_m_source_file>  (3) 
/var/tmp/pbs.5076255.sched01/tmpgq1_80gb/0xrgip9rw.sdf

>  <i_m_source_file_index>  (3) 
1

>  <i_lp_mmshare_version>  (3) 
48012

>  <i_f3d_flags>  (3) 
0

>  <s_epik_input>  (3) 
bjFbY0hdW2NIXW5jKG4xMilubltjSF0y

>  <s_epik_cmdline>  (3) 
J2VwaWtfcHl0aG9uJywgJy1waHQnLCAnMi4wJywgJy1waCcsICc3LjAnLCAnLXRuJywgJzgnLCAnLW1hJywgJzIwMCcsICctaW1hZScsICc8aW5maWxlLm1hZT4nLCAnLW9tYWUnLCAnPG91dGZpbGUubWFlPic=

>  <r_lp_tautomer_probability>  (3) 
1

>  <r_epik_Ionization_Penalty>  (3) 
4.91311e-10

>  <r_epik_Ionization_Penalty_Charging>  (3) 
0

>  <r_epik_Ionization_Penalty_Neutral>  (3) 
4.91311e-10

>  <r_epik_State_Penalty>  (3) 
-0

>  <r_epik_Charging_Adjusted_Penalty>  (3) 
0

>  <i_epik_Tot_Q>  (3) 
0

>  <i_epik_Tot_abs_Q>  (3) 
0

>  <s_lp_Force_Field>  (3) 
OPLS3e

>  <r_lp_Energy>  (3) 
15.6361

>  <b_lp_Chiralities_Consistent>  (3) 
1

>  <s_lp_Variant>  (3) 
0:0-1

>  <s_i_glide_gridfile>  (3) 
pfpi4k_grid

>  <i_i_glide_lignum>  (3) 
1

>  <i_i_glide_rotatable_bonds>  (3) 
0

>  <r_i_docking_score>  (3) 
-3.94915

>  <r_i_glide_ligand_efficiency>  (3) 
-0.438795

>  <r_i_glide_ligand_efficiency_sa>  (3) 
-0.91273

>  <r_i_glide_ligand_efficiency_ln>  (3) 
-1.23518

>  <r_i_glide_gscore>  (3) 
-3.94915

>  <r_i_glide_lipo>  (3) 
0

>  <r_i_glide_hbond>  (3) 
0

>  <r_i_glide_metal>  (3) 
-0

>  <r_i_glide_rewards>  (3) 
-2.25

>  <r_i_glide_evdw>  (3) 
-12.7334

>  <r_i_glide_ecoul>  (3) 
-5.62038

>  <r_i_glide_erotb>  (3) 
0

>  <r_i_glide_esite>  (3) 
-0.219426

>  <r_i_glide_emodel>  (3) 
-24.851

>  <r_i_glide_energy>  (3) 
-18.3538

>  <r_i_glide_einternal>  (3) 
0

>  <r_i_glide_intrahb_reward>  (3) 
-0

>  <i_i_glide_confnum>  (3) 
2

>  <i_i_glide_posenum>  (3) 
37

>  <r_i_glide_eff_state_penalty>  (3) 
0

>  <ligand_id>  (3) 
0

>  <original_smiles>  (3) 
c1cnn2cnnc2n1

>  <smiles>  (3) 
[H]c1nc2nnc([H])n2nc1[H]

$$$$
1:1:0
     RDKit          3D

 60 64  0  0  1  0  0  0  0  0999 V2000
    6.3980   -5.7824    3.7065 C   0  0  0  0  0  0  0  0  0  0  0  0
    5.5511   -4.7838    3.1595 O   0  0  0  0  0  0  0  0  0  0  0  0
    4.7344   -4.0675    4.0755 C   0  0  2  0  0  0  0  0  0  0  0  0
    3.6600   -4.9579    4.7531 C   0  0  0  0  0  0  0  0  0  0  0  0
    2.5136   -5.3674    3.8054 C   0  0  1  0  0  0  0  0  0  0  0  0
    1.5252   -6.3250    4.4949 C   0  0  0  0  0  0  0  0  0  0  0  0
    1.8229   -4.1323    3.1640 C   0  0  1  0  0  0  0  0  0  0  0  0
    1.1168   -3.4491    4.1764 O   0  0  0  0  0  0  0  0  0  0  0  0
    2.8604   -3.2623    2.3804 C   0  0  2  0  0  0  0  0  0  0  0  0
    2.3305   -1.9299    1.6983 C   0  0  1  0  0  0  0  0  0  0  0  0
    1.6449   -0.8621    2.5784 C   0  0  0  0  0  0  0  0  0  0  0  0
    3.5108   -1.2998    0.8971 C   0  0  1  0  0  0  0  0  0  0  0  0
    4.9078   -1.8011    1.2829 C   0  0  1  0  0  0  0  0  0  0  0  0
    5.3961   -1.1000    0.0330 C   0  0  1  0  0  0  0  0  0  0  0  0
    6.5866   -1.5515   -0.5738 O   0  0  0  0  0  0  0  0  0  0  0  0
    4.0086   -1.6053   -0.5507 C   0  0  1  0  0  0  0  0  0  0  0  0
    3.7482   -3.0584   -1.1634 C   0  0  0  0  0  0  0  0  0  0  0  0
    3.0337   -2.8885   -2.5265 C   0  0  0  0  0  0  0  0  0  0  0  0
    5.0115   -3.8926   -1.4630 C   0  0  0  0  0  0  0  0  0  0  0  0
    2.7973   -3.7928   -0.2146 C   0  0  1  0  0  0  0  0  0  0  0  0
    2.6351   -5.1890    0.2593 C   0  0  0  0  0  0  0  0  0  0  0  0
    3.3188   -4.1946    1.1886 C   0  0  2  0  0  0  0  0  0  0  0  0
    5.1864   -1.8472    2.7591 C   0  0  1  0  0  0  0  0  0  0  0  0
    5.1342   -0.5228    3.2632 O   0  0  0  0  0  0  0  0  0  0  0  0
    4.0888   -2.8376    3.3732 C   0  0  2  0  0  0  0  0  0  0  0  0
    3.5536   -2.1527    4.4988 O   0  0  0  0  0  0  0  0  0  0  0  0
    7.0296   -6.1822    2.9134 H   0  0  0  0  0  0  0  0  0  0  0  0
    5.8318   -6.6195    4.1122 H   0  0  0  0  0  0  0  0  0  0  0  0
    7.0466   -5.3796    4.4857 H   0  0  0  0  0  0  0  0  0  0  0  0
    5.4067   -3.6981    4.8551 H   0  0  0  0  0  0  0  0  0  0  0  0
    4.1093   -5.8490    5.1845 H   0  0  0  0  0  0  0  0  0  0  0  0
    3.2449   -4.4223    5.6087 H   0  0  0  0  0  0  0  0  0  0  0  0
    2.9638   -5.9647    3.0171 H   0  0  0  0  0  0  0  0  0  0  0  0
    1.0524   -5.8663    5.3640 H   0  0  0  0  0  0  0  0  0  0  0  0
    2.0396   -7.2271    4.8355 H   0  0  0  0  0  0  0  0  0  0  0  0
    0.7400   -6.6411    3.8065 H   0  0  0  0  0  0  0  0  0  0  0  0
    1.0563   -4.4898    2.4802 H   0  0  0  0  0  0  0  0  0  0  0  0
    1.7645   -3.0937    4.7751 H   0  0  0  0  0  0  0  0  0  0  0  0
    1.4858   -2.1502    1.0540 H   0  0  0  0  0  0  0  0  0  0  0  0
    2.2902   -0.3904    3.3166 H   0  0  0  0  0  0  0  0  0  0  0  0
    0.7732   -1.2618    3.0863 H   0  0  0  0  0  0  0  0  0  0  0  0
    1.2690   -0.0515    1.9534 H   0  0  0  0  0  0  0  0  0  0  0  0
    3.4490   -0.2170    0.9942 H   0  0  0  0  0  0  0  0  0  0  0  0
    5.2033   -2.7869    1.0007 H   0  0  0  0  0  0  0  0  0  0  0  0
    5.4309   -0.0167    0.1378 H   0  0  0  0  0  0  0  0  0  0  0  0
    6.5122   -2.4938   -0.6345 H   0  0  0  0  0  0  0  0  0  0  0  0
    3.6207   -0.8277   -1.2038 H   0  0  0  0  0  0  0  0  0  0  0  0
    2.7587   -3.8483   -2.9601 H   0  0  0  0  0  0  0  0  0  0  0  0
    3.6720   -2.3728   -3.2457 H   0  0  0  0  0  0  0  0  0  0  0  0
    2.1148   -2.3036   -2.4314 H   0  0  0  0  0  0  0  0  0  0  0  0
    4.7376   -4.8490   -1.9069 H   0  0  0  0  0  0  0  0  0  0  0  0
    5.6062   -4.1353   -0.5862 H   0  0  0  0  0  0  0  0  0  0  0  0
    5.6513   -3.3946   -2.1887 H   0  0  0  0  0  0  0  0  0  0  0  0
    1.7943   -3.4436   -0.4042 H   0  0  0  0  0  0  0  0  0  0  0  0
    1.6405   -5.5177    0.5392 H   0  0  0  0  0  0  0  0  0  0  0  0
    3.2576   -5.9421   -0.2147 H   0  0  0  0  0  0  0  0  0  0  0  0
    4.3207   -4.5705    1.2916 H   0  0  0  0  0  0  0  0  0  0  0  0
    6.1965   -2.2271    2.9229 H   0  0  0  0  0  0  0  0  0  0  0  0
    4.3645   -0.0934    2.9153 H   0  0  0  0  0  0  0  0  0  0  0  0
    3.2288   -1.3184    4.1947 H   0  0  0  0  0  0  0  0  0  0  0  0
  1  2  1  0
  1 27  1  0
  1 28  1  0
  1 29  1  0
  2  3  1  0
  3 25  1  0
  3  4  1  0
  3 30  1  1
  4  5  1  0
  4 31  1  0
  4 32  1  0
  5  6  1  0
  5  7  1  0
  5 33  1  6
  6 34  1  0
  6 35  1  0
  6 36  1  0
  7  8  1  0
  7  9  1  0
  7 37  1  6
  8 38  1  0
  9 22  1  0
  9 25  1  1
  9 10  1  0
 10 11  1  0
 10 12  1  0
 10 39  1  6
 11 40  1  0
 11 41  1  0
 11 42  1  0
 12 16  1  0
 12 13  1  0
 12 43  1  6
 13 14  1  0
 13 23  1  0
 13 44  1  6
 14 15  1  0
 14 16  1  0
 14 45  1  1
 15 46  1  0
 16 17  1  0
 16 47  1  6
 17 18  1  0
 17 19  1  0
 17 20  1  0
 18 48  1  0
 18 49  1  0
 18 50  1  0
 19 51  1  0
 19 52  1  0
 19 53  1  0
 20 22  1  0
 20 21  1  0
 20 54  1  1
 21 22  1  0
 21 55  1  0
 21 56  1  0
 22 57  1  6
 23 24  1  0
 23 25  1  0
 23 58  1  6
 24 59  1  0
 25 26  1  1
 26 60  1  0
M  END
>  <i_m_ct_stereo_status>  (4) 
1

>  <s_m_source_file>  (4) 
/var/tmp/pbs.5076255.sched01/tmpgq1_80gb/0xrgip9rw.sdf

>  <i_m_source_file_index>  (4) 
3

>  <i_lp_mmshare_version>  (4) 
48012

>  <i_f3d_flags>  (4) 
0

>  <s_epik_input>  (4) 
W09IXVtDQEBIXTFbQ0BIXShbQ0gzXSlbQ0gyXVtDQEBIXShPW0NIM10pW0NAQF0yKFtPSF0pW0NASF0oW09IXSlbQ0hdKFtDQEhdM1tPSF0pW0NAQEhdKFtDQEBIXTRbQ0gzXSlbQ0BASF0zQyhbQ0gzXSkoW0NIM10pW0NAQEhdKFtDSDJdNSlbQ0BIXTVbQ0BAXTEyNA==

>  <s_epik_cmdline>  (4) 
J2VwaWtfcHl0aG9uJywgJy1waHQnLCAnMi4wJywgJy1waCcsICc3LjAnLCAnLXRuJywgJzgnLCAnLW1hJywgJzIwMCcsICctaW1hZScsICc8aW5maWxlLm1hZT4nLCAnLW9tYWUnLCAnPG91dGZpbGUubWFlPic=

>  <r_lp_tautomer_probability>  (4) 
1

>  <r_epik_Ionization_Penalty>  (4) 
3.25235e-06

>  <r_epik_Ionization_Penalty_Charging>  (4) 
0

>  <r_epik_Ionization_Penalty_Neutral>  (4) 
3.25235e-06

>  <r_epik_State_Penalty>  (4) 
-0

>  <r_epik_Charging_Adjusted_Penalty>  (4) 
0

>  <i_epik_Tot_Q>  (4) 
0

>  <i_epik_Tot_abs_Q>  (4) 
0

>  <s_lp_Force_Field>  (4) 
OPLS3e

>  <r_lp_Energy>  (4) 
134.282

>  <b_lp_Chiralities_Consistent>  (4) 
1

>  <s_lp_Variant>  (4) 
1:0-2

>  <s_i_glide_gridfile>  (4) 
pfpi4k_grid

>  <i_i_glide_lignum>  (4) 
3

>  <i_i_glide_rotatable_bonds>  (4) 
5

>  <r_i_docking_score>  (4) 
-2.97442

>  <r_i_glide_ligand_efficiency>  (4) 
-0.114401

>  <r_i_glide_ligand_efficiency_sa>  (4) 
-0.338912

>  <r_i_glide_ligand_efficiency_ln>  (4) 
-0.698532

>  <r_i_glide_gscore>  (4) 
-2.97442

>  <r_i_glide_lipo>  (4) 
-0.151567

>  <r_i_glide_hbond>  (4) 
-0.130534

>  <r_i_glide_metal>  (4) 
-0

>  <r_i_glide_rewards>  (4) 
-1.41028

>  <r_i_glide_evdw>  (4) 
-17.437

>  <r_i_glide_ecoul>  (4) 
-2.73455

>  <r_i_glide_erotb>  (4) 
0

>  <r_i_glide_esite>  (4) 
0

>  <r_i_glide_emodel>  (4) 
-29.7743

>  <r_i_glide_energy>  (4) 
-20.1716

>  <r_i_glide_einternal>  (4) 
0.113618

>  <r_i_glide_intrahb_reward>  (4) 
-0.5

>  <i_i_glide_confnum>  (4) 
1

>  <i_i_glide_posenum>  (4) 
2

>  <r_i_glide_eff_state_penalty>  (4) 
0

>  <ligand_id>  (4) 
1

>  <original_smiles>  (4) 
COC1CC(C)C(O)C23C(C)C4C(C(O)C4C(C)(C)C4CC42)C(O)C13O

>  <smiles>  (4) 
[H]OC1([H])C2([H])C([H])(O[H])C3(O[H])C([H])(OC([H])([H])[H])C([H])([H])C([H])(C([H])([H])[H])C([H])(O[H])C34C([H])(C([H])([H])[H])C2([H])C1([H])C(C([H])([H])[H])(C([H])([H])[H])C1([H])C([H])([H])C14[H]

$$$$
1:1:1
     RDKit          3D

 60 64  0  0  1  0  0  0  0  0999 V2000
   -1.1703    1.2959    7.7710 C   0  0  0  0  0  0  0  0  0  0  0  0
   -1.3072    1.6709    6.3993 O   0  0  0  0  0  0  0  0  0  0  0  0
   -1.2895    3.0740    6.1210 C   0  0  2  0  0  0  0  0  0  0  0  0
   -2.5016    3.4327    5.2163 C   0  0  0  0  0  0  0  0  0  0  0  0
   -2.3755    3.0209    3.7328 C   0  0  1  0  0  0  0  0  0  0  0  0
   -3.6082    3.3973    2.8795 C   0  0  0  0  0  0  0  0  0  0  0  0
   -1.0810    3.5884    3.1159 C   0  0  1  0  0  0  0  0  0  0  0  0
   -1.2377    4.9845    2.9339 O   0  0  0  0  0  0  0  0  0  0  0  0
    0.1914    3.1392    3.9248 C   0  0  2  0  0  0  0  0  0  0  0  0
    1.6097    3.6438    3.4245 C   0  0  1  0  0  0  0  0  0  0  0  0
    1.8547    5.1698    3.3369 C   0  0  0  0  0  0  0  0  0  0  0  0
    2.6934    2.9662    4.3228 C   0  0  1  0  0  0  0  0  0  0  0  0
    2.1783    2.3805    5.6543 C   0  0  1  0  0  0  0  0  0  0  0  0
    3.5334    1.7000    5.7643 C   0  0  1  0  0  0  0  0  0  0  0  0
    3.6573    0.5378    6.5550 O   0  0  0  0  0  0  0  0  0  0  0  0
    3.3704    1.5592    4.1864 C   0  0  1  0  0  0  0  0  0  0  0  0
    2.5678    0.4006    3.4420 C   0  0  0  0  0  0  0  0  0  0  0  0
    3.4673   -0.1725    2.3280 C   0  0  0  0  0  0  0  0  0  0  0  0
    2.1825   -0.8177    4.3202 C   0  0  0  0  0  0  0  0  0  0  0  0
    1.3340    1.0309    2.7818 C   0  0  1  0  0  0  0  0  0  0  0  0
   -0.0732    0.6217    2.5657 C   0  0  0  0  0  0  0  0  0  0  0  0
    0.2179    1.5754    3.7153 C   0  0  2  0  0  0  0  0  0  0  0  0
    1.3185    3.3191    6.4357 C   0  0  1  0  0  0  0  0  0  0  0  0
    2.0700    4.4693    6.7927 O   0  0  0  0  0  0  0  0  0  0  0  0
    0.0452    3.5855    5.4976 C   0  0  2  0  0  0  0  0  0  0  0  0
   -0.1607    4.9908    5.5843 O   0  0  0  0  0  0  0  0  0  0  0  0
   -1.0664    0.2133    7.8086 H   0  0  0  0  0  0  0  0  0  0  0  0
   -2.0503    1.5907    8.3447 H   0  0  0  0  0  0  0  0  0  0  0  0
   -0.2899    1.6925    8.2765 H   0  0  0  0  0  0  0  0  0  0  0  0
   -1.4683    3.6087    7.0598 H   0  0  0  0  0  0  0  0  0  0  0  0
   -3.4192    3.0257    5.6433 H   0  0  0  0  0  0  0  0  0  0  0  0
   -2.5830    4.5150    5.2308 H   0  0  0  0  0  0  0  0  0  0  0  0
   -2.3333    1.9295    3.7125 H   0  0  0  0  0  0  0  0  0  0  0  0
   -3.7533    4.4745    2.8140 H   0  0  0  0  0  0  0  0  0  0  0  0
   -4.5098    2.9634    3.2979 H   0  0  0  0  0  0  0  0  0  0  0  0
   -3.5089    3.0178    1.8630 H   0  0  0  0  0  0  0  0  0  0  0  0
   -1.0255    3.1726    2.1129 H   0  0  0  0  0  0  0  0  0  0  0  0
   -0.6686    5.1868    2.1948 H   0  0  0  0  0  0  0  0  0  0  0  0
    1.7672    3.4176    2.3747 H   0  0  0  0  0  0  0  0  0  0  0  0
    1.8265    5.6932    4.2896 H   0  0  0  0  0  0  0  0  0  0  0  0
    1.1557    5.6543    2.6583 H   0  0  0  0  0  0  0  0  0  0  0  0
    2.8454    5.3646    2.9207 H   0  0  0  0  0  0  0  0  0  0  0  0
    3.4870    3.6966    4.5111 H   0  0  0  0  0  0  0  0  0  0  0  0
    1.5722    1.4885    5.6338 H   0  0  0  0  0  0  0  0  0  0  0  0
    4.3250    2.3997    6.0470 H   0  0  0  0  0  0  0  0  0  0  0  0
    3.0511   -0.1023    6.2050 H   0  0  0  0  0  0  0  0  0  0  0  0
    4.3558    1.6900    3.7416 H   0  0  0  0  0  0  0  0  0  0  0  0
    2.9451   -0.9275    1.7400 H   0  0  0  0  0  0  0  0  0  0  0  0
    4.3608   -0.6367    2.7424 H   0  0  0  0  0  0  0  0  0  0  0  0
    3.7997    0.6036    1.6379 H   0  0  0  0  0  0  0  0  0  0  0  0
    1.6749   -1.5770    3.7218 H   0  0  0  0  0  0  0  0  0  0  0  0
    1.5127   -0.5813    5.1446 H   0  0  0  0  0  0  0  0  0  0  0  0
    3.0710   -1.2971    4.7314 H   0  0  0  0  0  0  0  0  0  0  0  0
    1.6236    1.5157    1.8495 H   0  0  0  0  0  0  0  0  0  0  0  0
   -0.5788    1.0132    1.6833 H   0  0  0  0  0  0  0  0  0  0  0  0
   -0.3200   -0.4034    2.8265 H   0  0  0  0  0  0  0  0  0  0  0  0
   -0.0789    1.0263    4.5971 H   0  0  0  0  0  0  0  0  0  0  0  0
    1.0514    2.8708    7.3818 H   0  0  0  0  0  0  0  0  0  0  0  0
    2.4924    4.8309    6.0242 H   0  0  0  0  0  0  0  0  0  0  0  0
    0.5793    5.4098    5.1705 H   0  0  0  0  0  0  0  0  0  0  0  0
  1  2  1  0
  1 27  1  0
  1 28  1  0
  1 29  1  0
  2  3  1  0
  3 25  1  0
  3  4  1  0
  3 30  1  1
  4  5  1  0
  4 31  1  0
  4 32  1  0
  5  6  1  0
  5  7  1  0
  5 33  1  1
  6 34  1  0
  6 35  1  0
  6 36  1  0
  7  8  1  0
  7  9  1  0
  7 37  1  6
  8 38  1  0
  9 22  1  0
  9 25  1  1
  9 10  1  0
 10 11  1  0
 10 12  1  0
 10 39  1  6
 11 40  1  0
 11 41  1  0
 11 42  1  0
 12 16  1  0
 12 13  1  0
 12 43  1  1
 13 14  1  0
 13 23  1  0
 13 44  1  6
 14 15  1  0
 14 16  1  0
 14 45  1  6
 15 46  1  0
 16 17  1  0
 16 47  1  6
 17 18  1  0
 17 19  1  0
 17 20  1  0
 18 48  1  0
 18 49  1  0
 18 50  1  0
 19 51  1  0
 19 52  1  0
 19 53  1  0
 20 22  1  0
 20 21  1  0
 20 54  1  6
 21 22  1  0
 21 55  1  0
 21 56  1  0
 22 57  1  1
 23 24  1  0
 23 25  1  0
 23 58  1  1
 24 59  1  0
 25 26  1  6
 26 60  1  0
M  END
>  <i_m_ct_stereo_status>  (5) 
1

>  <s_m_source_file>  (5) 
/var/tmp/pbs.5076255.sched01/tmpgq1_80gb/0xrgip9rw.sdf

>  <i_m_source_file_index>  (5) 
3

>  <i_lp_mmshare_version>  (5) 
48012

>  <i_f3d_flags>  (5) 
0

>  <s_epik_input>  (5) 
W09IXVtDQEBIXTFbQ0BIXShbQ0gzXSlbQ0gyXVtDQEBIXShPW0NIM10pW0NAQF0yKFtPSF0pW0NASF0oW09IXSlbQ0hdKFtDQEhdM1tPSF0pW0NAQEhdKFtDQEBIXTRbQ0gzXSlbQ0BASF0zQyhbQ0gzXSkoW0NIM10pW0NAQEhdKFtDSDJdNSlbQ0BIXTVbQ0BAXTEyNA==

>  <s_epik_cmdline>  (5) 
J2VwaWtfcHl0aG9uJywgJy1waHQnLCAnMi4wJywgJy1waCcsICc3LjAnLCAnLXRuJywgJzgnLCAnLW1hJywgJzIwMCcsICctaW1hZScsICc8aW5maWxlLm1hZT4nLCAnLW9tYWUnLCAnPG91dGZpbGUubWFlPic=

>  <r_lp_tautomer_probability>  (5) 
1

>  <r_epik_Ionization_Penalty>  (5) 
3.25235e-06

>  <r_epik_Ionization_Penalty_Charging>  (5) 
0

>  <r_epik_Ionization_Penalty_Neutral>  (5) 
3.25235e-06

>  <r_epik_State_Penalty>  (5) 
-0

>  <r_epik_Charging_Adjusted_Penalty>  (5) 
0

>  <i_epik_Tot_Q>  (5) 
0

>  <i_epik_Tot_abs_Q>  (5) 
0

>  <s_lp_Force_Field>  (5) 
OPLS3e

>  <r_lp_Energy>  (5) 
134.282

>  <b_lp_Chiralities_Consistent>  (5) 
1

>  <s_lp_Variant>  (5) 
1:0-2

>  <s_i_glide_gridfile>  (5) 
pfpi4k_grid

>  <i_i_glide_lignum>  (5) 
3

>  <i_i_glide_rotatable_bonds>  (5) 
5

>  <r_i_docking_score>  (5) 
-2.8502

>  <r_i_glide_ligand_efficiency>  (5) 
-0.109623

>  <r_i_glide_ligand_efficiency_sa>  (5) 
-0.324758

>  <r_i_glide_ligand_efficiency_ln>  (5) 
-0.66936

>  <r_i_glide_gscore>  (5) 
-2.8502

>  <r_i_glide_lipo>  (5) 
-0.0422912

>  <r_i_glide_hbond>  (5) 
0

>  <r_i_glide_metal>  (5) 
-0

>  <r_i_glide_rewards>  (5) 
-0.910284

>  <r_i_glide_evdw>  (5) 
-14.3757

>  <r_i_glide_ecoul>  (5) 
-7.85892

>  <r_i_glide_erotb>  (5) 
0

>  <r_i_glide_esite>  (5) 
0

>  <r_i_glide_emodel>  (5) 
-24.6534

>  <r_i_glide_energy>  (5) 
-22.2347

>  <r_i_glide_einternal>  (5) 
2.79149

>  <r_i_glide_intrahb_reward>  (5) 
-0

>  <i_i_glide_confnum>  (5) 
2

>  <i_i_glide_posenum>  (5) 
40

>  <r_i_glide_eff_state_penalty>  (5) 
0

>  <ligand_id>  (5) 
1

>  <original_smiles>  (5) 
COC1CC(C)C(O)C23C(C)C4C(C(O)C4C(C)(C)C4CC42)C(O)C13O

>  <smiles>  (5) 
[H]OC1([H])C2([H])C([H])(O[H])C3(O[H])C([H])(OC([H])([H])[H])C([H])([H])C([H])(C([H])([H])[H])C([H])(O[H])C34C([H])(C([H])([H])[H])C2([H])C1([H])C(C([H])([H])[H])(C([H])([H])[H])C1([H])C([H])([H])C14[H]

$$$$
1:1:2
     RDKit          3D

 60 64  0  0  1  0  0  0  0  0999 V2000
   -0.4430    0.9682    8.1432 C   0  0  0  0  0  0  0  0  0  0  0  0
   -0.4454    1.3158    6.7668 O   0  0  0  0  0  0  0  0  0  0  0  0
   -0.3341    2.7127    6.4901 C   0  0  2  0  0  0  0  0  0  0  0  0
   -1.5968    3.1671    5.7122 C   0  0  0  0  0  0  0  0  0  0  0  0
   -1.6243    2.7219    4.2340 C   0  0  1  0  0  0  0  0  0  0  0  0
   -2.9064    3.1544    3.5139 C   0  0  0  0  0  0  0  0  0  0  0  0
   -0.3481    3.1885    3.4768 C   0  0  1  0  0  0  0  0  0  0  0  0
   -0.3934    4.5845    3.2846 O   0  0  0  0  0  0  0  0  0  0  0  0
    0.9406    2.6254    4.1687 C   0  0  2  0  0  0  0  0  0  0  0  0
    2.3386    3.0140    3.5286 C   0  0  1  0  0  0  0  0  0  0  0  0
    2.6963    4.5154    3.4015 C   0  0  0  0  0  0  0  0  0  0  0  0
    3.4398    2.2555    4.3343 C   0  0  1  0  0  0  0  0  0  0  0  0
    3.0166    1.7015    5.7054 C   0  0  1  0  0  0  0  0  0  0  0  0
    4.3277    0.9311    5.6908 C   0  0  1  0  0  0  0  0  0  0  0  0
    4.4220   -0.2490    6.4588 O   0  0  0  0  0  0  0  0  0  0  0  0
    3.9915    0.8055    4.1381 C   0  0  1  0  0  0  0  0  0  0  0  0
    3.0396   -0.2976    3.4873 C   0  0  0  0  0  0  0  0  0  0  0  0
    3.7780   -0.9368    2.2966 C   0  0  0  0  0  0  0  0  0  0  0  0
    2.6473   -1.4765    4.4118 C   0  0  0  0  0  0  0  0  0  0  0  0
    1.7975    0.4308    2.9463 C   0  0  1  0  0  0  0  0  0  0  0  0
    0.3446    0.1333    2.8665 C   0  0  0  0  0  0  0  0  0  0  0  0
    0.8192    1.0627    3.9757 C   0  0  2  0  0  0  0  0  0  0  0  0
    2.2868    2.6781    6.5680 C   0  0  1  0  0  0  0  0  0  0  0  0
    3.1802    3.7354    6.8716 O   0  0  0  0  0  0  0  0  0  0  0  0
    0.9807    3.0832    5.7373 C   0  0  2  0  0  0  0  0  0  0  0  0
    0.9194    4.4946    5.8343 O   0  0  0  0  0  0  0  0  0  0  0  0
   -0.3774   -0.1157    8.2396 H   0  0  0  0  0  0  0  0  0  0  0  0
   -1.3623    1.3097    8.6169 H   0  0  0  0  0  0  0  0  0  0  0  0
    0.4008    1.3841    8.6922 H   0  0  0  0  0  0  0  0  0  0  0  0
   -0.3475    3.2631    7.4355 H   0  0  0  0  0  0  0  0  0  0  0  0
   -2.4828    2.7969    6.2327 H   0  0  0  0  0  0  0  0  0  0  0  0
   -1.6485    4.2574    5.7512 H   0  0  0  0  0  0  0  0  0  0  0  0
   -1.6619    1.6326    4.2358 H   0  0  0  0  0  0  0  0  0  0  0  0
   -2.9584    4.2391    3.4735 H   0  0  0  0  0  0  0  0  0  0  0  0
   -3.7856    2.7713    4.0313 H   0  0  0  0  0  0  0  0  0  0  0  0
   -2.9375    2.7774    2.4912 H   0  0  0  0  0  0  0  0  0  0  0  0
   -0.4054    2.7795    2.4711 H   0  0  0  0  0  0  0  0  0  0  0  0
   -0.1894    4.7016    2.3383 H   0  0  0  0  0  0  0  0  0  0  0  0
    2.3773    2.7678    2.4707 H   0  0  0  0  0  0  0  0  0  0  0  0
    2.8054    5.0453    4.3446 H   0  0  0  0  0  0  0  0  0  0  0  0
    1.9766    5.0458    2.7836 H   0  0  0  0  0  0  0  0  0  0  0  0
    3.6498    4.6296    2.8813 H   0  0  0  0  0  0  0  0  0  0  0  0
    4.2986    2.9250    4.4526 H   0  0  0  0  0  0  0  0  0  0  0  0
    2.3609    0.8507    5.7463 H   0  0  0  0  0  0  0  0  0  0  0  0
    5.2060    1.5579    5.8847 H   0  0  0  0  0  0  0  0  0  0  0  0
    5.0029   -0.8255    5.9845 H   0  0  0  0  0  0  0  0  0  0  0  0
    4.9399    0.8773    3.6120 H   0  0  0  0  0  0  0  0  0  0  0  0
    3.1430   -1.6475    1.7779 H   0  0  0  0  0  0  0  0  0  0  0  0
    4.6662   -1.4695    2.6262 H   0  0  0  0  0  0  0  0  0  0  0  0
    4.0987   -0.1946    1.5700 H   0  0  0  0  0  0  0  0  0  0  0  0
    2.0253   -2.1911    3.8756 H   0  0  0  0  0  0  0  0  0  0  0  0
    2.0939   -1.1795    5.2992 H   0  0  0  0  0  0  0  0  0  0  0  0
    3.5326   -2.0175    4.7377 H   0  0  0  0  0  0  0  0  0  0  0  0
    2.0296    0.8850    1.9859 H   0  0  0  0  0  0  0  0  0  0  0  0
   -0.2061    0.5738    2.0374 H   0  0  0  0  0  0  0  0  0  0  0  0
    0.0412   -0.8697    3.1502 H   0  0  0  0  0  0  0  0  0  0  0  0
    0.5847    0.5373    4.8891 H   0  0  0  0  0  0  0  0  0  0  0  0
    2.0308    2.2184    7.5182 H   0  0  0  0  0  0  0  0  0  0  0  0
    3.6463    3.9674    6.0819 H   0  0  0  0  0  0  0  0  0  0  0  0
    1.3924    4.8517    5.0997 H   0  0  0  0  0  0  0  0  0  0  0  0
  1  2  1  0
  1 27  1  0
  1 28  1  0
  1 29  1  0
  2  3  1  0
  3 25  1  0
  3  4  1  0
  3 30  1  1
  4  5  1  0
  4 31  1  0
  4 32  1  0
  5  6  1  0
  5  7  1  0
  5 33  1  1
  6 34  1  0
  6 35  1  0
  6 36  1  0
  7  8  1  0
  7  9  1  0
  7 37  1  6
  8 38  1  0
  9 22  1  0
  9 25  1  1
  9 10  1  0
 10 11  1  0
 10 12  1  0
 10 39  1  6
 11 40  1  0
 11 41  1  0
 11 42  1  0
 12 16  1  0
 12 13  1  0
 12 43  1  1
 13 14  1  0
 13 23  1  0
 13 44  1  6
 14 15  1  0
 14 16  1  0
 14 45  1  6
 15 46  1  0
 16 17  1  0
 16 47  1  6
 17 18  1  0
 17 19  1  0
 17 20  1  0
 18 48  1  0
 18 49  1  0
 18 50  1  0
 19 51  1  0
 19 52  1  0
 19 53  1  0
 20 22  1  0
 20 21  1  0
 20 54  1  6
 21 22  1  0
 21 55  1  0
 21 56  1  0
 22 57  1  1
 23 24  1  0
 23 25  1  0
 23 58  1  1
 24 59  1  0
 25 26  1  6
 26 60  1  0
M  END
>  <i_m_ct_stereo_status>  (6) 
1

>  <s_m_source_file>  (6) 
/var/tmp/pbs.5076255.sched01/tmpgq1_80gb/0xrgip9rw.sdf

>  <i_m_source_file_index>  (6) 
3

>  <i_lp_mmshare_version>  (6) 
48012

>  <i_f3d_flags>  (6) 
0

>  <s_epik_input>  (6) 
W09IXVtDQEBIXTFbQ0BIXShbQ0gzXSlbQ0gyXVtDQEBIXShPW0NIM10pW0NAQF0yKFtPSF0pW0NASF0oW09IXSlbQ0hdKFtDQEhdM1tPSF0pW0NAQEhdKFtDQEBIXTRbQ0gzXSlbQ0BASF0zQyhbQ0gzXSkoW0NIM10pW0NAQEhdKFtDSDJdNSlbQ0BIXTVbQ0BAXTEyNA==

>  <s_epik_cmdline>  (6) 
J2VwaWtfcHl0aG9uJywgJy1waHQnLCAnMi4wJywgJy1waCcsICc3LjAnLCAnLXRuJywgJzgnLCAnLW1hJywgJzIwMCcsICctaW1hZScsICc8aW5maWxlLm1hZT4nLCAnLW9tYWUnLCAnPG91dGZpbGUubWFlPic=

>  <r_lp_tautomer_probability>  (6) 
1

>  <r_epik_Ionization_Penalty>  (6) 
3.25235e-06

>  <r_epik_Ionization_Penalty_Charging>  (6) 
0

>  <r_epik_Ionization_Penalty_Neutral>  (6) 
3.25235e-06

>  <r_epik_State_Penalty>  (6) 
-0

>  <r_epik_Charging_Adjusted_Penalty>  (6) 
0

>  <i_epik_Tot_Q>  (6) 
0

>  <i_epik_Tot_abs_Q>  (6) 
0

>  <s_lp_Force_Field>  (6) 
OPLS3e

>  <r_lp_Energy>  (6) 
134.282

>  <b_lp_Chiralities_Consistent>  (6) 
1

>  <s_lp_Variant>  (6) 
1:0-2

>  <s_i_glide_gridfile>  (6) 
pfpi4k_grid

>  <i_i_glide_lignum>  (6) 
3

>  <i_i_glide_rotatable_bonds>  (6) 
5

>  <r_i_docking_score>  (6) 
-2.76416

>  <r_i_glide_ligand_efficiency>  (6) 
-0.106314

>  <r_i_glide_ligand_efficiency_sa>  (6) 
-0.314955

>  <r_i_glide_ligand_efficiency_ln>  (6) 
-0.649155

>  <r_i_glide_gscore>  (6) 
-2.76416

>  <r_i_glide_lipo>  (6) 
-0.0209556

>  <r_i_glide_hbond>  (6) 
0

>  <r_i_glide_metal>  (6) 
-0

>  <r_i_glide_rewards>  (6) 
-0.910284

>  <r_i_glide_evdw>  (6) 
-15.6453

>  <r_i_glide_ecoul>  (6) 
-7.00439

>  <r_i_glide_erotb>  (6) 
0

>  <r_i_glide_esite>  (6) 
0

>  <r_i_glide_emodel>  (6) 
-24.0718

>  <r_i_glide_energy>  (6) 
-22.6497

>  <r_i_glide_einternal>  (6) 
4.94559

>  <r_i_glide_intrahb_reward>  (6) 
-0

>  <i_i_glide_confnum>  (6) 
2

>  <i_i_glide_posenum>  (6) 
35

>  <r_i_glide_eff_state_penalty>  (6) 
0

>  <ligand_id>  (6) 
1

>  <original_smiles>  (6) 
COC1CC(C)C(O)C23C(C)C4C(C(O)C4C(C)(C)C4CC42)C(O)C13O

>  <smiles>  (6) 
[H]OC1([H])C2([H])C([H])(O[H])C3(O[H])C([H])(OC([H])([H])[H])C([H])([H])C([H])(C([H])([H])[H])C([H])(O[H])C34C([H])(C([H])([H])[H])C2([H])C1([H])C(C([H])([H])[H])(C([H])([H])[H])C1([H])C([H])([H])C14[H]

$$$$
2:0:0
     RDKit          3D

 68 74  0  0  1  0  0  0  0  0999 V2000
    5.4059   -0.3312    2.3695 C   0  0  0  0  0  0  0  0  0  0  0  0
    5.6171   -1.7434    1.8049 C   0  0  2  0  0  0  0  0  0  0  0  0
    6.7857   -1.7836    0.8139 C   0  0  0  0  0  0  0  0  0  0  0  0
    7.1165   -3.2423    0.4724 C   0  0  0  0  0  0  0  0  0  0  0  0
    5.8819   -3.9678   -0.1163 C   0  0  2  0  0  0  0  0  0  0  0  0
    5.7844   -3.2721   -1.3376 O   0  0  0  0  0  0  0  0  0  0  0  0
    4.6287   -3.7947   -2.1613 O   0  0  0  0  0  0  0  0  0  0  0  0
    3.4561   -3.0907   -1.7761 C   0  0  2  0  0  0  0  0  0  0  0  0
    2.5189   -3.0535   -3.0005 C   0  0  0  0  0  0  0  0  0  0  0  0
    3.7355   -1.6703   -1.2474 C   0  0  0  0  0  0  0  0  0  0  0  0
    3.5226   -1.5363    0.2708 C   0  0  0  0  0  0  0  0  0  0  0  0
    4.3317   -2.4315    1.2507 C   0  0  1  0  0  0  0  0  0  0  0  0
    4.6203   -3.9277    0.8274 C   0  0  1  0  0  0  0  0  0  0  0  0
    3.4221   -4.6141    0.0550 C   0  0  1  0  0  0  0  0  0  0  0  0
    2.5395   -5.1763    0.9624 O   0  0  0  0  0  0  0  0  0  0  0  0
    3.0152   -6.3774    1.5339 C   0  0  0  0  0  0  0  0  0  0  0  0
    4.5208   -6.3314    1.8798 C   0  0  2  0  0  0  0  0  0  0  0  0
    5.1793   -7.6304    1.5741 C   0  0  0  0  0  0  0  0  0  0  0  0
    5.3043   -7.1242    2.9753 C   0  0  1  0  0  0  0  0  0  0  0  0
    6.8026   -7.1126    3.3921 C   0  0  1  0  0  0  0  0  0  0  0  0
    7.3133   -5.8932    3.9072 O   0  0  0  0  0  0  0  0  0  0  0  0
    7.1251   -8.1991    4.4208 C   0  0  0  0  0  0  0  0  0  0  0  0
    6.2744   -8.0238    5.6835 C   0  0  0  0  0  0  0  0  0  0  0  0
    4.7831   -8.0555    5.3378 C   0  0  1  0  0  0  0  0  0  0  0  0
    3.9120   -7.9248    6.6014 C   0  0  0  0  0  0  0  0  0  0  0  0
    4.4087   -7.0491    4.2198 C   0  0  1  0  0  0  0  0  0  0  0  0
    4.3564   -5.5438    4.6301 C   0  0  0  0  0  0  0  0  0  0  0  0
    4.1878   -4.5080    3.4621 C   0  0  0  0  0  0  0  0  0  0  0  0
    4.8858   -4.8636    2.0914 C   0  0  2  0  0  0  0  0  0  0  0  0
    2.7104   -3.7798   -0.7941 O   0  0  0  0  0  0  0  0  0  0  0  0
    5.2835    0.3974    1.5655 H   0  0  0  0  0  0  0  0  0  0  0  0
    6.2577   -0.0206    2.9676 H   0  0  0  0  0  0  0  0  0  0  0  0
    4.5243   -0.2831    3.0108 H   0  0  0  0  0  0  0  0  0  0  0  0
    5.9411   -2.3271    2.6646 H   0  0  0  0  0  0  0  0  0  0  0  0
    6.5470   -1.2262   -0.0824 H   0  0  0  0  0  0  0  0  0  0  0  0
    7.6584   -1.3001    1.2508 H   0  0  0  0  0  0  0  0  0  0  0  0
    7.9488   -3.2713   -0.2362 H   0  0  0  0  0  0  0  0  0  0  0  0
    7.4921   -3.7573    1.3687 H   0  0  0  0  0  0  0  0  0  0  0  0
    6.1539   -4.9911   -0.3392 H   0  0  0  0  0  0  0  0  0  0  0  0
    2.2994   -4.0506   -3.3890 H   0  0  0  0  0  0  0  0  0  0  0  0
    2.9226   -2.4578   -3.8234 H   0  0  0  0  0  0  0  0  0  0  0  0
    1.5540   -2.6250   -2.7221 H   0  0  0  0  0  0  0  0  0  0  0  0
    4.6808   -1.2464   -1.5800 H   0  0  0  0  0  0  0  0  0  0  0  0
    3.0004   -1.0062   -1.6964 H   0  0  0  0  0  0  0  0  0  0  0  0
    3.6090   -0.4834    0.5281 H   0  0  0  0  0  0  0  0  0  0  0  0
    2.4671   -1.7357    0.4759 H   0  0  0  0  0  0  0  0  0  0  0  0
    3.6486   -2.4696    2.0903 H   0  0  0  0  0  0  0  0  0  0  0  0
    3.8032   -5.4239   -0.5818 H   0  0  0  0  0  0  0  0  0  0  0  0
    2.3929   -6.5456    2.4101 H   0  0  0  0  0  0  0  0  0  0  0  0
    2.8216   -7.2124    0.8588 H   0  0  0  0  0  0  0  0  0  0  0  0
    4.5758   -8.5275    1.4508 H   0  0  0  0  0  0  0  0  0  0  0  0
    6.0228   -7.5706    0.8870 H   0  0  0  0  0  0  0  0  0  0  0  0
    7.4157   -7.3185    2.5096 H   0  0  0  0  0  0  0  0  0  0  0  0
    8.2439   -5.9686    3.9713 H   0  0  0  0  0  0  0  0  0  0  0  0
    6.9275   -9.1805    3.9850 H   0  0  0  0  0  0  0  0  0  0  0  0
    8.1835   -8.1857    4.6805 H   0  0  0  0  0  0  0  0  0  0  0  0
    6.5091   -8.8178    6.3981 H   0  0  0  0  0  0  0  0  0  0  0  0
    6.5236   -7.0804    6.1713 H   0  0  0  0  0  0  0  0  0  0  0  0
    4.5785   -9.0520    4.9398 H   0  0  0  0  0  0  0  0  0  0  0  0
    4.0911   -6.9825    7.1194 H   0  0  0  0  0  0  0  0  0  0  0  0
    4.1301   -8.7299    7.3046 H   0  0  0  0  0  0  0  0  0  0  0  0
    2.8485   -7.9848    6.3659 H   0  0  0  0  0  0  0  0  0  0  0  0
    3.4062   -7.3661    3.9477 H   0  0  0  0  0  0  0  0  0  0  0  0
    3.5333   -5.3974    5.3275 H   0  0  0  0  0  0  0  0  0  0  0  0
    5.2433   -5.2930    5.2005 H   0  0  0  0  0  0  0  0  0  0  0  0
    3.1201   -4.3528    3.2962 H   0  0  0  0  0  0  0  0  0  0  0  0
    4.5551   -3.5559    3.8337 H   0  0  0  0  0  0  0  0  0  0  0  0
    5.9447   -4.8155    2.2780 H   0  0  0  0  0  0  0  0  0  0  0  0
  1  2  1  0
  1 31  1  0
  1 32  1  0
  1 33  1  0
  2 12  1  0
  2  3  1  0
  2 34  1  1
  3  4  1  0
  3 35  1  0
  3 36  1  0
  4  5  1  0
  4 37  1  0
  4 38  1  0
 13  5  1  6
  5  6  1  0
  5 39  1  6
  6  7  1  0
  7  8  1  0
  8 30  1  0
  8  9  1  6
  8 10  1  0
  9 40  1  0
  9 41  1  0
  9 42  1  0
 10 11  1  0
 10 43  1  0
 10 44  1  0
 11 12  1  0
 11 45  1  0
 11 46  1  0
 12 13  1  0
 12 47  1  1
 13 29  1  0
 13 14  1  0
 14 15  1  0
 14 30  1  0
 14 48  1  6
 15 16  1  0
 17 16  1  1
 16 49  1  0
 16 50  1  0
 17 19  1  0
 17 29  1  0
 17 18  1  0
 19 18  1  6
 18 51  1  0
 18 52  1  0
 19 26  1  0
 19 20  1  0
 20 21  1  0
 20 22  1  0
 20 53  1  6
 21 54  1  0
 22 23  1  0
 22 55  1  0
 22 56  1  0
 23 24  1  0
 23 57  1  0
 23 58  1  0
 24 25  1  0
 24 26  1  0
 24 59  1  6
 25 60  1  0
 25 61  1  0
 25 62  1  0
 26 27  1  0
 26 63  1  6
 27 28  1  0
 27 64  1  0
 27 65  1  0
 28 29  1  0
 28 66  1  0
 28 67  1  0
 29 68  1  1
M  END
>  <i_m_ct_stereo_status>  (7) 
1

>  <s_m_source_file>  (7) 
/var/tmp/pbs.5076255.sched01/tmpgq1_80gb/0xrgip9rw.sdf

>  <i_m_source_file_index>  (7) 
4

>  <i_lp_mmshare_version>  (7) 
48012

>  <i_f3d_flags>  (7) 
0

>  <s_epik_input>  (7) 
W0NAXTEyM1tDQEBIXTRbQ0gyXVtDSDJdW0NAQEhdKFtDSDNdKVtDQEhdMVtDSDJdW0NIMl1bQ0BdKE9PNCkoW0NIM10pT1tDQEBIXTJPW0NIMl1bQ0BAXTU2W0NAXTcoW0NIMl01KVtDQEhdKFtDSDJdW0NIMl1bQ0BIXTM2KVtDQEhdKFtDSDNdKVtDSDJdW0NIMl1bQ0BASF03W09IXQ==

>  <s_epik_cmdline>  (7) 
J2VwaWtfcHl0aG9uJywgJy1waHQnLCAnMi4wJywgJy1waCcsICc3LjAnLCAnLXRuJywgJzgnLCAnLW1hJywgJzIwMCcsICctaW1hZScsICc8aW5maWxlLm1hZT4nLCAnLW9tYWUnLCAnPG91dGZpbGUubWFlPic=

>  <r_lp_tautomer_probability>  (7) 
1

>  <r_epik_Ionization_Penalty>  (7) 
1.66847e-06

>  <r_epik_Ionization_Penalty_Charging>  (7) 
0

>  <r_epik_Ionization_Penalty_Neutral>  (7) 
1.66847e-06

>  <r_epik_State_Penalty>  (7) 
-0

>  <r_epik_Charging_Adjusted_Penalty>  (7) 
0

>  <i_epik_Tot_Q>  (7) 
0

>  <i_epik_Tot_abs_Q>  (7) 
0

>  <s_epik_Chemistry_Notes>  (7) 
This compound contains an acetal/aminal-like group ( X-CH(R)-Y where X, Y are N, S, or O) that may be acid/base labile, releasing an aldehyde.

>  <s_lp_Force_Field>  (7) 
OPLS3e

>  <r_lp_Energy>  (7) 
114.654

>  <b_lp_Chiralities_Consistent>  (7) 
1

>  <s_lp_Variant>  (7) 
2:0-1

>  <s_i_glide_gridfile>  (7) 
pfpi4k_grid

>  <i_i_glide_lignum>  (7) 
4

>  <i_i_glide_rotatable_bonds>  (7) 
1

>  <r_i_docking_score>  (7) 
-2.78091

>  <r_i_glide_ligand_efficiency>  (7) 
-0.0926969

>  <r_i_glide_ligand_efficiency_sa>  (7) 
-0.288031

>  <r_i_glide_ligand_efficiency_ln>  (7) 
-0.631852

>  <r_i_glide_gscore>  (7) 
-2.78091

>  <r_i_glide_lipo>  (7) 
-0.718732

>  <r_i_glide_hbond>  (7) 
0

>  <r_i_glide_metal>  (7) 
-0

>  <r_i_glide_rewards>  (7) 
-0.55523

>  <r_i_glide_evdw>  (7) 
-27.1518

>  <r_i_glide_ecoul>  (7) 
-0.810152

>  <r_i_glide_erotb>  (7) 
0

>  <r_i_glide_esite>  (7) 
-0.0278285

>  <r_i_glide_emodel>  (7) 
-32.6867

>  <r_i_glide_energy>  (7) 
-27.962

>  <r_i_glide_einternal>  (7) 
0.341674

>  <r_i_glide_intrahb_reward>  (7) 
-0

>  <i_i_glide_confnum>  (7) 
2

>  <i_i_glide_posenum>  (7) 
18

>  <r_i_glide_eff_state_penalty>  (7) 
0

>  <ligand_id>  (7) 
2

>  <original_smiles>  (7) 
CC1CCC2OOC3(C)CCC1C21C(OCC24CC25C(O)CCC(C)C5CCC14)O3

>  <smiles>  (7) 
[H]OC1([H])C([H])([H])C([H])([H])C([H])(C([H])([H])[H])C2([H])C([H])([H])C([H])([H])C3([H])C45C([H])(OC([H])([H])C36C([H])([H])C126)OC1(C([H])([H])[H])OOC4([H])C([H])([H])C([H])([H])C([H])(C([H])([H])[H])C5([H])C([H])([H])C1([H])[H]

$$$$
2:0:1
     RDKit          3D

 68 74  0  0  1  0  0  0  0  0999 V2000
    4.8068   -8.6248    5.0775 C   0  0  0  0  0  0  0  0  0  0  0  0
    3.9987   -7.3843    4.6420 C   0  0  2  0  0  0  0  0  0  0  0  0
    3.2512   -6.7530    5.8214 C   0  0  0  0  0  0  0  0  0  0  0  0
    2.6713   -5.3963    5.3999 C   0  0  0  0  0  0  0  0  0  0  0  0
    1.7246   -5.5419    4.1790 C   0  0  2  0  0  0  0  0  0  0  0  0
    0.6596   -6.2598    4.8029 O   0  0  0  0  0  0  0  0  0  0  0  0
   -0.4445   -6.5483    3.7943 O   0  0  0  0  0  0  0  0  0  0  0  0
   -0.1081   -7.7628    3.1240 C   0  0  2  0  0  0  0  0  0  0  0  0
   -1.4399   -8.4166    2.7037 C   0  0  0  0  0  0  0  0  0  0  0  0
    0.7506   -8.7544    3.9419 C   0  0  0  0  0  0  0  0  0  0  0  0
    2.2001   -8.8610    3.4447 C   0  0  0  0  0  0  0  0  0  0  0  0
    3.0915   -7.5850    3.3790 C   0  0  1  0  0  0  0  0  0  0  0  0
    2.4255   -6.2203    2.9329 C   0  0  1  0  0  0  0  0  0  0  0  0
    1.3194   -6.3758    1.8195 C   0  0  1  0  0  0  0  0  0  0  0  0
    1.8961   -6.3139    0.5718 O   0  0  0  0  0  0  0  0  0  0  0  0
    2.3135   -5.0355    0.1594 C   0  0  0  0  0  0  0  0  0  0  0  0
    2.9227   -4.2182    1.3069 C   0  0  2  0  0  0  0  0  0  0  0  0
    2.4891   -2.7947    1.2386 C   0  0  0  0  0  0  0  0  0  0  0  0
    3.9535   -3.0417    1.2339 C   0  0  1  0  0  0  0  0  0  0  0  0
    4.6028   -2.1656    2.3298 C   0  0  1  0  0  0  0  0  0  0  0  0
    5.4094   -2.8504    3.2561 O   0  0  0  0  0  0  0  0  0  0  0  0
    5.4322   -1.0199    1.7401 C   0  0  0  0  0  0  0  0  0  0  0  0
    6.5254   -1.5469    0.8068 C   0  0  0  0  0  0  0  0  0  0  0  0
    5.9244   -2.3885   -0.3180 C   0  0  1  0  0  0  0  0  0  0  0  0
    7.0148   -2.8984   -1.2799 C   0  0  0  0  0  0  0  0  0  0  0  0
    4.9963   -3.5132    0.2191 C   0  0  1  0  0  0  0  0  0  0  0  0
    5.7035   -4.7537    0.8564 C   0  0  0  0  0  0  0  0  0  0  0  0
    4.7686   -5.7882    1.5832 C   0  0  0  0  0  0  0  0  0  0  0  0
    3.4992   -5.2013    2.3158 C   0  0  2  0  0  0  0  0  0  0  0  0
    0.5374   -7.5209    1.8944 O   0  0  0  0  0  0  0  0  0  0  0  0
    4.1845   -9.3630    5.5904 H   0  0  0  0  0  0  0  0  0  0  0  0
    5.5982   -8.3443    5.7738 H   0  0  0  0  0  0  0  0  0  0  0  0
    5.2805   -9.1088    4.2229 H   0  0  0  0  0  0  0  0  0  0  0  0
    4.7642   -6.6580    4.3673 H   0  0  0  0  0  0  0  0  0  0  0  0
    2.4633   -7.4151    6.1707 H   0  0  0  0  0  0  0  0  0  0  0  0
    3.9322   -6.6141    6.6656 H   0  0  0  0  0  0  0  0  0  0  0  0
    2.1398   -4.9571    6.2441 H   0  0  0  0  0  0  0  0  0  0  0  0
    3.4958   -4.7015    5.2032 H   0  0  0  0  0  0  0  0  0  0  0  0
    1.3664   -4.5486    3.9117 H   0  0  0  0  0  0  0  0  0  0  0  0
   -2.0525   -7.7404    2.1049 H   0  0  0  0  0  0  0  0  0  0  0  0
   -2.0371   -8.7337    3.5618 H   0  0  0  0  0  0  0  0  0  0  0  0
   -1.2645   -9.3028    2.0887 H   0  0  0  0  0  0  0  0  0  0  0  0
    0.6866   -8.5813    5.0157 H   0  0  0  0  0  0  0  0  0  0  0  0
    0.3249   -9.7531    3.8213 H   0  0  0  0  0  0  0  0  0  0  0  0
    2.6823   -9.6451    4.0182 H   0  0  0  0  0  0  0  0  0  0  0  0
    2.1648   -9.2822    2.4379 H   0  0  0  0  0  0  0  0  0  0  0  0
    3.7768   -7.8729    2.5918 H   0  0  0  0  0  0  0  0  0  0  0  0
    0.6240   -5.5402    1.8935 H   0  0  0  0  0  0  0  0  0  0  0  0
    3.0145   -5.1894   -0.6502 H   0  0  0  0  0  0  0  0  0  0  0  0
    1.4692   -4.5146   -0.2904 H   0  0  0  0  0  0  0  0  0  0  0  0
    2.0939   -2.4144    0.3076 H   0  0  0  0  0  0  0  0  0  0  0  0
    1.9837   -2.4254    2.1249 H   0  0  0  0  0  0  0  0  0  0  0  0
    3.8211   -1.7086    2.9403 H   0  0  0  0  0  0  0  0  0  0  0  0
    6.0875   -3.2977    2.7757 H   0  0  0  0  0  0  0  0  0  0  0  0
    4.7725   -0.3494    1.1826 H   0  0  0  0  0  0  0  0  0  0  0  0
    5.8731   -0.4202    2.5382 H   0  0  0  0  0  0  0  0  0  0  0  0
    7.0907   -0.7045    0.4066 H   0  0  0  0  0  0  0  0  0  0  0  0
    7.2354   -2.1550    1.3585 H   0  0  0  0  0  0  0  0  0  0  0  0
    5.2938   -1.7175   -0.9046 H   0  0  0  0  0  0  0  0  0  0  0  0
    7.7397   -3.5354   -0.7709 H   0  0  0  0  0  0  0  0  0  0  0  0
    7.5767   -2.0788   -1.7236 H   0  0  0  0  0  0  0  0  0  0  0  0
    6.5888   -3.4663   -2.1084 H   0  0  0  0  0  0  0  0  0  0  0  0
    4.4986   -3.8388   -0.6905 H   0  0  0  0  0  0  0  0  0  0  0  0
    6.2586   -5.2917    0.0862 H   0  0  0  0  0  0  0  0  0  0  0  0
    6.4670   -4.4211    1.5513 H   0  0  0  0  0  0  0  0  0  0  0  0
    4.4447   -6.5256    0.8471 H   0  0  0  0  0  0  0  0  0  0  0  0
    5.3893   -6.3427    2.2818 H   0  0  0  0  0  0  0  0  0  0  0  0
    3.8711   -4.6412    3.1573 H   0  0  0  0  0  0  0  0  0  0  0  0
  1  2  1  0
  1 31  1  0
  1 32  1  0
  1 33  1  0
  2 12  1  0
  2  3  1  0
  2 34  1  6
  3  4  1  0
  3 35  1  0
  3 36  1  0
  4  5  1  0
  4 37  1  0
  4 38  1  0
 13  5  1  1
  5  6  1  0
  5 39  1  6
  6  7  1  0
  7  8  1  0
  8 30  1  0
  8  9  1  6
  8 10  1  0
  9 40  1  0
  9 41  1  0
  9 42  1  0
 10 11  1  0
 10 43  1  0
 10 44  1  0
 11 12  1  0
 11 45  1  0
 11 46  1  0
 12 13  1  0
 12 47  1  6
 13 29  1  0
 13 14  1  0
 14 15  1  0
 14 30  1  0
 14 48  1  6
 15 16  1  0
 17 16  1  6
 16 49  1  0
 16 50  1  0
 17 19  1  0
 17 29  1  0
 17 18  1  0
 19 18  1  6
 18 51  1  0
 18 52  1  0
 19 26  1  0
 19 20  1  0
 20 21  1  0
 20 22  1  0
 20 53  1  1
 21 54  1  0
 22 23  1  0
 22 55  1  0
 22 56  1  0
 23 24  1  0
 23 57  1  0
 23 58  1  0
 24 25  1  0
 24 26  1  0
 24 59  1  6
 25 60  1  0
 25 61  1  0
 25 62  1  0
 26 27  1  0
 26 63  1  6
 27 28  1  0
 27 64  1  0
 27 65  1  0
 28 29  1  0
 28 66  1  0
 28 67  1  0
 29 68  1  1
M  END
>  <i_m_ct_stereo_status>  (8) 
1

>  <s_m_source_file>  (8) 
/var/tmp/pbs.5076255.sched01/tmpgq1_80gb/0xrgip9rw.sdf

>  <i_m_source_file_index>  (8) 
4

>  <i_lp_mmshare_version>  (8) 
48012

>  <i_f3d_flags>  (8) 
0

>  <s_epik_input>  (8) 
W0NAXTEyM1tDQEBIXTRbQ0gyXVtDSDJdW0NAQEhdKFtDSDNdKVtDQEhdMVtDSDJdW0NIMl1bQ0BdKE9PNCkoW0NIM10pT1tDQEBIXTJPW0NIMl1bQ0BAXTU2W0NAXTcoW0NIMl01KVtDQEhdKFtDSDJdW0NIMl1bQ0BIXTM2KVtDQEhdKFtDSDNdKVtDSDJdW0NIMl1bQ0BASF03W09IXQ==

>  <s_epik_cmdline>  (8) 
J2VwaWtfcHl0aG9uJywgJy1waHQnLCAnMi4wJywgJy1waCcsICc3LjAnLCAnLXRuJywgJzgnLCAnLW1hJywgJzIwMCcsICctaW1hZScsICc8aW5maWxlLm1hZT4nLCAnLW9tYWUnLCAnPG91dGZpbGUubWFlPic=

>  <r_lp_tautomer_probability>  (8) 
1

>  <r_epik_Ionization_Penalty>  (8) 
1.66847e-06

>  <r_epik_Ionization_Penalty_Charging>  (8) 
0

>  <r_epik_Ionization_Penalty_Neutral>  (8) 
1.66847e-06

>  <r_epik_State_Penalty>  (8) 
-0

>  <r_epik_Charging_Adjusted_Penalty>  (8) 
0

>  <i_epik_Tot_Q>  (8) 
0

>  <i_epik_Tot_abs_Q>  (8) 
0

>  <s_epik_Chemistry_Notes>  (8) 
This compound contains an acetal/aminal-like group ( X-CH(R)-Y where X, Y are N, S, or O) that may be acid/base labile, releasing an aldehyde.

>  <s_lp_Force_Field>  (8) 
OPLS3e

>  <r_lp_Energy>  (8) 
114.654

>  <b_lp_Chiralities_Consistent>  (8) 
1

>  <s_lp_Variant>  (8) 
2:0-1

>  <s_i_glide_gridfile>  (8) 
pfpi4k_grid

>  <i_i_glide_lignum>  (8) 
4

>  <i_i_glide_rotatable_bonds>  (8) 
1

>  <r_i_docking_score>  (8) 
-2.57531

>  <r_i_glide_ligand_efficiency>  (8) 
-0.0858436

>  <r_i_glide_ligand_efficiency_sa>  (8) 
-0.266736

>  <r_i_glide_ligand_efficiency_ln>  (8) 
-0.585138

>  <r_i_glide_gscore>  (8) 
-2.57531

>  <r_i_glide_lipo>  (8) 
-0.370585

>  <r_i_glide_hbond>  (8) 
-0.0675568

>  <r_i_glide_metal>  (8) 
-0

>  <r_i_glide_rewards>  (8) 
-0.55523

>  <r_i_glide_evdw>  (8) 
-26.9247

>  <r_i_glide_ecoul>  (8) 
-0.882593

>  <r_i_glide_erotb>  (8) 
0

>  <r_i_glide_esite>  (8) 
-0.103312

>  <r_i_glide_emodel>  (8) 
-32.248

>  <r_i_glide_energy>  (8) 
-27.8073

>  <r_i_glide_einternal>  (8) 
0.0250418

>  <r_i_glide_intrahb_reward>  (8) 
-0

>  <i_i_glide_confnum>  (8) 
2

>  <i_i_glide_posenum>  (8) 
8

>  <r_i_glide_eff_state_penalty>  (8) 
0

>  <ligand_id>  (8) 
2

>  <original_smiles>  (8) 
CC1CCC2OOC3(C)CCC1C21C(OCC24CC25C(O)CCC(C)C5CCC14)O3

>  <smiles>  (8) 
[H]OC1([H])C([H])([H])C([H])([H])C([H])(C([H])([H])[H])C2([H])C([H])([H])C([H])([H])C3([H])C45C([H])(OC([H])([H])C36C([H])([H])C126)OC1(C([H])([H])[H])OOC4([H])C([H])([H])C([H])([H])C([H])(C([H])([H])[H])C5([H])C([H])([H])C1([H])[H]

$$$$
2:0:2
     RDKit          3D

 68 74  0  0  1  0  0  0  0  0999 V2000
    5.0413   -7.6580    5.9306 C   0  0  0  0  0  0  0  0  0  0  0  0
    4.1916   -6.5754    5.2391 C   0  0  2  0  0  0  0  0  0  0  0  0
    3.3301   -5.8047    6.2451 C   0  0  0  0  0  0  0  0  0  0  0  0
    2.6937   -4.5881    5.5507 C   0  0  0  0  0  0  0  0  0  0  0  0
    1.8424   -5.0122    4.3362 C   0  0  2  0  0  0  0  0  0  0  0  0
    0.7905   -5.6985    5.0158 O   0  0  0  0  0  0  0  0  0  0  0  0
   -0.2190   -6.2217    4.0086 O   0  0  0  0  0  0  0  0  0  0  0  0
    0.2255   -7.5086    3.5859 C   0  0  2  0  0  0  0  0  0  0  0  0
   -1.0305   -8.3143    3.2149 C   0  0  0  0  0  0  0  0  0  0  0  0
    1.0918   -8.2802    4.6145 C   0  0  0  0  0  0  0  0  0  0  0  0
    2.5741   -8.3604    4.2227 C   0  0  0  0  0  0  0  0  0  0  0  0
    3.3853   -7.0544    3.9863 C   0  0  1  0  0  0  0  0  0  0  0  0
    2.6651   -5.8444    3.2614 C   0  0  1  0  0  0  0  0  0  0  0  0
    1.6534   -6.2762    2.1380 C   0  0  1  0  0  0  0  0  0  0  0  0
    2.3248   -6.4006    0.9428 O   0  0  0  0  0  0  0  0  0  0  0  0
    2.6622   -5.1705    0.3353 C   0  0  0  0  0  0  0  0  0  0  0  0
    3.1400   -4.1233    1.3452 C   0  0  2  0  0  0  0  0  0  0  0  0
    2.6110   -2.7722    0.9918 C   0  0  0  0  0  0  0  0  0  0  0  0
    4.0994   -2.9022    1.1146 C   0  0  1  0  0  0  0  0  0  0  0  0
    4.6182   -1.8069    2.0821 C   0  0  1  0  0  0  0  0  0  0  0  0
    5.4122   -2.2489    3.1527 O   0  0  0  0  0  0  0  0  0  0  0  0
    5.4141   -0.7210    1.3422 C   0  0  0  0  0  0  0  0  0  0  0  0
    6.6008   -1.3198    0.5886 C   0  0  0  0  0  0  0  0  0  0  0  0
    6.1297   -2.3810   -0.4052 C   0  0  1  0  0  0  0  0  0  0  0  0
    7.3137   -2.9687   -1.2043 C   0  0  0  0  0  0  0  0  0  0  0  0
    5.2334   -3.4602    0.2672 C   0  0  1  0  0  0  0  0  0  0  0  0
    5.9775   -4.5171    1.1491 C   0  0  0  0  0  0  0  0  0  0  0  0
    5.0627   -5.4753    1.9938 C   0  0  0  0  0  0  0  0  0  0  0  0
    3.7099   -4.8656    2.5389 C   0  0  2  0  0  0  0  0  0  0  0  0
    0.9379   -7.4464    2.3724 O   0  0  0  0  0  0  0  0  0  0  0  0
    4.4363   -8.3393    6.5307 H   0  0  0  0  0  0  0  0  0  0  0  0
    5.7665   -7.2033    6.6107 H   0  0  0  0  0  0  0  0  0  0  0  0
    5.6025   -8.2459    5.2043 H   0  0  0  0  0  0  0  0  0  0  0  0
    4.9251   -5.8533    4.8833 H   0  0  0  0  0  0  0  0  0  0  0  0
    2.5599   -6.4518    6.6618 H   0  0  0  0  0  0  0  0  0  0  0  0
    3.9407   -5.4705    7.0870 H   0  0  0  0  0  0  0  0  0  0  0  0
    2.0780   -4.0514    6.2816 H   0  0  0  0  0  0  0  0  0  0  0  0
    3.4819   -3.8779    5.2871 H   0  0  0  0  0  0  0  0  0  0  0  0
    1.4374   -4.1091    3.8724 H   0  0  0  0  0  0  0  0  0  0  0  0
   -1.6447   -7.7975    2.4686 H   0  0  0  0  0  0  0  0  0  0  0  0
   -1.6656   -8.5257    4.0808 H   0  0  0  0  0  0  0  0  0  0  0  0
   -0.7627   -9.2812    2.7764 H   0  0  0  0  0  0  0  0  0  0  0  0
    0.9422   -7.9327    5.6340 H   0  0  0  0  0  0  0  0  0  0  0  0
    0.7378   -9.3140    4.6413 H   0  0  0  0  0  0  0  0  0  0  0  0
    3.0655   -9.0003    4.9511 H   0  0  0  0  0  0  0  0  0  0  0  0
    2.6321   -8.9504    3.3058 H   0  0  0  0  0  0  0  0  0  0  0  0
    4.1388   -7.4225    3.2994 H   0  0  0  0  0  0  0  0  0  0  0  0
    0.9006   -5.4982    2.0068 H   0  0  0  0  0  0  0  0  0  0  0  0
    3.4287   -5.4193   -0.3851 H   0  0  0  0  0  0  0  0  0  0  0  0
    1.8119   -4.7968   -0.2251 H   0  0  0  0  0  0  0  0  0  0  0  0
    2.2541   -2.5934   -0.0150 H   0  0  0  0  0  0  0  0  0  0  0  0
    2.0393   -2.2840    1.7730 H   0  0  0  0  0  0  0  0  0  0  0  0
    3.7736   -1.3111    2.5530 H   0  0  0  0  0  0  0  0  0  0  0  0
    6.1699   -2.6904    2.7935 H   0  0  0  0  0  0  0  0  0  0  0  0
    4.7565   -0.2046    0.6404 H   0  0  0  0  0  0  0  0  0  0  0  0
    5.7607    0.0354    2.0486 H   0  0  0  0  0  0  0  0  0  0  0  0
    7.1286   -0.5194    0.0777 H   0  0  0  0  0  0  0  0  0  0  0  0
    7.3143   -1.7611    1.2799 H   0  0  0  0  0  0  0  0  0  0  0  0
    5.5011   -1.8703   -1.1358 H   0  0  0  0  0  0  0  0  0  0  0  0
    8.0400   -3.4576   -0.5543 H   0  0  0  0  0  0  0  0  0  0  0  0
    7.8579   -2.2045   -1.7589 H   0  0  0  0  0  0  0  0  0  0  0  0
    6.9691   -3.6901   -1.9451 H   0  0  0  0  0  0  0  0  0  0  0  0
    4.8230   -3.9768   -0.5970 H   0  0  0  0  0  0  0  0  0  0  0  0
    6.6140   -5.1364    0.5182 H   0  0  0  0  0  0  0  0  0  0  0  0
    6.6707   -4.0121    1.8172 H   0  0  0  0  0  0  0  0  0  0  0  0
    4.8369   -6.3532    1.3832 H   0  0  0  0  0  0  0  0  0  0  0  0
    5.6696   -5.8529    2.8138 H   0  0  0  0  0  0  0  0  0  0  0  0
    3.9923   -4.1417    3.2862 H   0  0  0  0  0  0  0  0  0  0  0  0
  1  2  1  0
  1 31  1  0
  1 32  1  0
  1 33  1  0
  2 12  1  0
  2  3  1  0
  2 34  1  6
  3  4  1  0
  3 35  1  0
  3 36  1  0
  4  5  1  0
  4 37  1  0
  4 38  1  0
 13  5  1  1
  5  6  1  0
  5 39  1  6
  6  7  1  0
  7  8  1  0
  8 30  1  0
  8  9  1  6
  8 10  1  0
  9 40  1  0
  9 41  1  0
  9 42  1  0
 10 11  1  0
 10 43  1  0
 10 44  1  0
 11 12  1  0
 11 45  1  0
 11 46  1  0
 12 13  1  0
 12 47  1  6
 13 29  1  0
 13 14  1  0
 14 15  1  0
 14 30  1  0
 14 48  1  6
 15 16  1  0
 17 16  1  6
 16 49  1  0
 16 50  1  0
 17 19  1  0
 17 29  1  0
 17 18  1  0
 19 18  1  6
 18 51  1  0
 18 52  1  0
 19 26  1  0
 19 20  1  0
 20 21  1  0
 20 22  1  0
 20 53  1  1
 21 54  1  0
 22 23  1  0
 22 55  1  0
 22 56  1  0
 23 24  1  0
 23 57  1  0
 23 58  1  0
 24 25  1  0
 24 26  1  0
 24 59  1  6
 25 60  1  0
 25 61  1  0
 25 62  1  0
 26 27  1  0
 26 63  1  6
 27 28  1  0
 27 64  1  0
 27 65  1  0
 28 29  1  0
 28 66  1  0
 28 67  1  0
 29 68  1  1
M  END
>  <i_m_ct_stereo_status>  (9) 
1

>  <s_m_source_file>  (9) 
/var/tmp/pbs.5076255.sched01/tmpgq1_80gb/0xrgip9rw.sdf

>  <i_m_source_file_index>  (9) 
4

>  <i_lp_mmshare_version>  (9) 
48012

>  <i_f3d_flags>  (9) 
0

>  <s_epik_input>  (9) 
W0NAXTEyM1tDQEBIXTRbQ0gyXVtDSDJdW0NAQEhdKFtDSDNdKVtDQEhdMVtDSDJdW0NIMl1bQ0BdKE9PNCkoW0NIM10pT1tDQEBIXTJPW0NIMl1bQ0BAXTU2W0NAXTcoW0NIMl01KVtDQEhdKFtDSDJdW0NIMl1bQ0BIXTM2KVtDQEhdKFtDSDNdKVtDSDJdW0NIMl1bQ0BASF03W09IXQ==

>  <s_epik_cmdline>  (9) 
J2VwaWtfcHl0aG9uJywgJy1waHQnLCAnMi4wJywgJy1waCcsICc3LjAnLCAnLXRuJywgJzgnLCAnLW1hJywgJzIwMCcsICctaW1hZScsICc8aW5maWxlLm1hZT4nLCAnLW9tYWUnLCAnPG91dGZpbGUubWFlPic=

>  <r_lp_tautomer_probability>  (9) 
1

>  <r_epik_Ionization_Penalty>  (9) 
1.66847e-06

>  <r_epik_Ionization_Penalty_Charging>  (9) 
0

>  <r_epik_Ionization_Penalty_Neutral>  (9) 
1.66847e-06

>  <r_epik_State_Penalty>  (9) 
-0

>  <r_epik_Charging_Adjusted_Penalty>  (9) 
0

>  <i_epik_Tot_Q>  (9) 
0

>  <i_epik_Tot_abs_Q>  (9) 
0

>  <s_epik_Chemistry_Notes>  (9) 
This compound contains an acetal/aminal-like group ( X-CH(R)-Y where X, Y are N, S, or O) that may be acid/base labile, releasing an aldehyde.

>  <s_lp_Force_Field>  (9) 
OPLS3e

>  <r_lp_Energy>  (9) 
114.654

>  <b_lp_Chiralities_Consistent>  (9) 
1

>  <s_lp_Variant>  (9) 
2:0-1

>  <s_i_glide_gridfile>  (9) 
pfpi4k_grid

>  <i_i_glide_lignum>  (9) 
4

>  <i_i_glide_rotatable_bonds>  (9) 
1

>  <r_i_docking_score>  (9) 
-2.43502

>  <r_i_glide_ligand_efficiency>  (9) 
-0.0811672

>  <r_i_glide_ligand_efficiency_sa>  (9) 
-0.252205

>  <r_i_glide_ligand_efficiency_ln>  (9) 
-0.553262

>  <r_i_glide_gscore>  (9) 
-2.43502

>  <r_i_glide_lipo>  (9) 
-0.306508

>  <r_i_glide_hbond>  (9) 
-0.0338176

>  <r_i_glide_metal>  (9) 
-0

>  <r_i_glide_rewards>  (9) 
-0.55523

>  <r_i_glide_evdw>  (9) 
-26.9778

>  <r_i_glide_ecoul>  (9) 
-0.805774

>  <r_i_glide_erotb>  (9) 
0

>  <r_i_glide_esite>  (9) 
-0.0697041

>  <r_i_glide_emodel>  (9) 
-32.0314

>  <r_i_glide_energy>  (9) 
-27.7836

>  <r_i_glide_einternal>  (9) 
0.00511397

>  <r_i_glide_intrahb_reward>  (9) 
-0

>  <i_i_glide_confnum>  (9) 
1

>  <i_i_glide_posenum>  (9) 
3

>  <r_i_glide_eff_state_penalty>  (9) 
0

>  <ligand_id>  (9) 
2

>  <original_smiles>  (9) 
CC1CCC2OOC3(C)CCC1C21C(OCC24CC25C(O)CCC(C)C5CCC14)O3

>  <smiles>  (9) 
[H]OC1([H])C([H])([H])C([H])([H])C([H])(C([H])([H])[H])C2([H])C([H])([H])C([H])([H])C3([H])C45C([H])(OC([H])([H])C36C([H])([H])C126)OC1(C([H])([H])[H])OOC4([H])C([H])([H])C([H])([H])C([H])(C([H])([H])[H])C5([H])C([H])([H])C1([H])[H]

$$$$
4:0:0
     RDKit          3D

 71 76  0  0  1  0  0  0  0  0999 V2000
    0.1756    0.1412    4.8399 C   0  0  0  0  0  0  0  0  0  0  0  0
    1.0053   -0.8274    4.4259 C   0  0  0  0  0  0  0  0  0  0  0  0
    0.5824   -2.2227    4.0937 C   0  0  2  0  0  0  0  0  0  0  0  0
    0.8619   -3.1512    5.2873 C   0  0  0  0  0  0  0  0  0  0  0  0
    2.3369   -3.0488    5.7434 C   0  0  1  0  0  0  0  0  0  0  0  0
    2.5747   -3.9607    6.7947 O   0  0  0  0  0  0  0  0  0  0  0  0
    3.3708   -3.0860    4.5581 C   0  0  1  0  0  0  0  0  0  0  0  0
    3.8506   -4.5796    4.1969 C   0  0  1  0  0  0  0  0  0  0  0  0
    2.6680   -5.6067    4.1472 C   0  0  0  0  0  0  0  0  0  0  0  0
    4.7417   -4.7071    2.9104 C   0  0  1  0  0  0  0  0  0  0  0  0
    5.4614   -6.0458    3.0214 C   0  0  1  0  0  0  0  0  0  0  0  0
    6.9789   -6.1321    2.9721 C   0  0  0  0  0  0  0  0  0  0  0  0
    7.0588   -6.0960    4.4182 O   0  0  0  0  0  0  0  0  0  0  0  0
    5.6212   -6.3094    4.5096 C   0  0  2  0  0  0  0  0  0  0  0  0
    5.2175   -7.5912    4.9401 O   0  0  0  0  0  0  0  0  0  0  0  0
    4.8470   -5.2058    5.2547 C   0  0  1  0  0  0  0  0  0  0  0  0
    5.7537   -4.2408    5.7575 O   0  0  0  0  0  0  0  0  0  0  0  0
    4.1640   -4.4087    1.5067 C   0  0  1  0  0  0  0  0  0  0  0  0
    2.9174   -5.0422    1.2792 O   0  0  0  0  0  0  0  0  0  0  0  0
    4.2146   -2.8983    1.0953 C   0  0  2  0  0  0  0  0  0  0  0  0
    3.2250   -2.6563   -0.0780 C   0  0  0  0  0  0  0  0  0  0  0  0
    5.7042   -2.5970    0.6582 C   0  0  1  0  0  0  0  0  0  0  0  0
    6.0761   -2.6450   -0.8529 C   0  0  2  0  0  0  0  0  0  0  0  0
    7.5810   -2.8303   -1.0957 C   0  0  0  0  0  0  0  0  0  0  0  0
    5.6966   -1.4580   -1.5247 O   0  0  0  0  0  0  0  0  0  0  0  0
    6.1614   -1.3351    1.3927 C   0  0  0  0  0  0  0  0  0  0  0  0
    5.3490   -1.3240    2.6780 C   0  0  1  0  0  0  0  0  0  0  0  0
    5.3941   -0.0383    3.2593 O   0  0  0  0  0  0  0  0  0  0  0  0
    3.9546   -1.8401    2.2407 C   0  0  2  0  0  0  0  0  0  0  0  0
    2.8994   -2.0799    3.4037 C   0  0  1  0  0  0  0  0  0  0  0  0
    1.5045   -2.5214    2.9073 C   0  0  0  0  0  0  0  0  0  0  0  0
    2.4751   -0.6898    4.0627 C   0  0  1  0  0  0  0  0  0  0  0  0
    2.6179    0.4675    3.2564 O   0  0  0  0  0  0  0  0  0  0  0  0
    0.5405    1.1450    5.0109 H   0  0  0  0  0  0  0  0  0  0  0  0
   -0.8750   -0.0665    5.0107 H   0  0  0  0  0  0  0  0  0  0  0  0
   -0.4714   -2.2538    3.8110 H   0  0  0  0  0  0  0  0  0  0  0  0
    0.2168   -2.8720    6.1205 H   0  0  0  0  0  0  0  0  0  0  0  0
    0.5845   -4.1709    5.0358 H   0  0  0  0  0  0  0  0  0  0  0  0
    2.4564   -2.0987    6.2637 H   0  0  0  0  0  0  0  0  0  0  0  0
    3.4706   -3.8568    7.0821 H   0  0  0  0  0  0  0  0  0  0  0  0
    4.2462   -2.5806    4.9558 H   0  0  0  0  0  0  0  0  0  0  0  0
    2.9779   -6.5739    3.7411 H   0  0  0  0  0  0  0  0  0  0  0  0
    1.8209   -5.2940    3.5492 H   0  0  0  0  0  0  0  0  0  0  0  0
    2.2827   -5.8333    5.1386 H   0  0  0  0  0  0  0  0  0  0  0  0
    5.5313   -3.9827    3.0505 H   0  0  0  0  0  0  0  0  0  0  0  0
    4.9756   -6.8938    2.5347 H   0  0  0  0  0  0  0  0  0  0  0  0
    7.3222   -7.0866    2.5704 H   0  0  0  0  0  0  0  0  0  0  0  0
    7.4512   -5.2885    2.4696 H   0  0  0  0  0  0  0  0  0  0  0  0
    5.7904   -8.2254    4.5228 H   0  0  0  0  0  0  0  0  0  0  0  0
    4.3286   -5.6263    6.1178 H   0  0  0  0  0  0  0  0  0  0  0  0
    6.3427   -4.0167    5.0551 H   0  0  0  0  0  0  0  0  0  0  0  0
    4.7958   -4.9329    0.7886 H   0  0  0  0  0  0  0  0  0  0  0  0
    3.0308   -5.9739    1.3908 H   0  0  0  0  0  0  0  0  0  0  0  0
    3.2768   -1.6389   -0.4634 H   0  0  0  0  0  0  0  0  0  0  0  0
    2.1920   -2.8086    0.2321 H   0  0  0  0  0  0  0  0  0  0  0  0
    3.3926   -3.3435   -0.9117 H   0  0  0  0  0  0  0  0  0  0  0  0
    6.3212   -3.3780    1.1006 H   0  0  0  0  0  0  0  0  0  0  0  0
    5.5736   -3.4874   -1.3291 H   0  0  0  0  0  0  0  0  0  0  0  0
    7.9418   -3.7566   -0.6515 H   0  0  0  0  0  0  0  0  0  0  0  0
    8.1651   -2.0094   -0.6803 H   0  0  0  0  0  0  0  0  0  0  0  0
    7.7896   -2.8804   -2.1664 H   0  0  0  0  0  0  0  0  0  0  0  0
    4.7550   -1.3655   -1.4427 H   0  0  0  0  0  0  0  0  0  0  0  0
    7.2291   -1.3463    1.5954 H   0  0  0  0  0  0  0  0  0  0  0  0
    5.9566   -0.4362    0.8143 H   0  0  0  0  0  0  0  0  0  0  0  0
    5.8106   -1.9846    3.4013 H   0  0  0  0  0  0  0  0  0  0  0  0
    4.6892    0.4820    2.8963 H   0  0  0  0  0  0  0  0  0  0  0  0
    3.5522   -1.0110    1.6638 H   0  0  0  0  0  0  0  0  0  0  0  0
    1.4288   -3.5417    2.5645 H   0  0  0  0  0  0  0  0  0  0  0  0
    1.1964   -1.8998    2.0684 H   0  0  0  0  0  0  0  0  0  0  0  0
    3.0552   -0.4807    4.9625 H   0  0  0  0  0  0  0  0  0  0  0  0
    2.0974    0.3610    2.4737 H   0  0  0  0  0  0  0  0  0  0  0  0
  1  2  2  0
  1 34  1  0
  1 35  1  0
  2 32  1  0
  2  3  1  0
  3 31  1  0
  3  4  1  0
  3 36  1  6
  4  5  1  0
  4 37  1  0
  4 38  1  0
  5  6  1  0
  5  7  1  0
  5 39  1  1
  6 40  1  0
  7 30  1  0
  7  8  1  0
  7 41  1  1
  8 16  1  0
  8  9  1  6
  8 10  1  0
  9 42  1  0
  9 43  1  0
  9 44  1  0
 10 11  1  0
 10 18  1  0
 10 45  1  1
 11 14  1  0
 11 12  1  0
 11 46  1  6
 12 13  1  0
 12 47  1  0
 12 48  1  0
 13 14  1  0
 14 15  1  6
 14 16  1  0
 15 49  1  0
 16 17  1  0
 16 50  1  1
 17 51  1  0
 18 19  1  0
 18 20  1  0
 18 52  1  6
 19 53  1  0
 20 29  1  0
 20 21  1  6
 20 22  1  0
 21 54  1  0
 21 55  1  0
 21 56  1  0
 22 23  1  0
 22 26  1  0
 22 57  1  1
 23 24  1  0
 23 25  1  0
 23 58  1  6
 24 59  1  0
 24 60  1  0
 24 61  1  0
 25 62  1  0
 26 27  1  0
 26 63  1  0
 26 64  1  0
 27 28  1  0
 27 29  1  0
 27 65  1  1
 28 66  1  0
 29 30  1  0
 29 67  1  6
 30 31  1  6
 30 32  1  0
 31 68  1  0
 31 69  1  0
 32 33  1  0
 32 70  1  1
 33 71  1  0
M  END
>  <i_m_ct_stereo_status>  (10) 
1

>  <s_m_source_file>  (10) 
/var/tmp/pbs.5076255.sched01/tmpgq1_80gb/0xrgip9rw.sdf

>  <i_m_source_file_index>  (10) 
6

>  <i_lp_mmshare_version>  (10) 
48012

>  <i_f3d_flags>  (10) 
0

>  <s_epik_input>  (10) 
W09IXVtDQEhdMUMoPVtDSDJdKVtDQEBIXShbQ0gyXTIpW0NIMl1bQ0BASF0oW09IXSlbQ0BIXShbQ0BdMTIzKVtDQEBdNChbQ0gzXSlbQ0BASF0oW0NAQEhdNVtDQEBdKFtPSF0pKE9bQ0gyXTUpW0NASF00W09IXSlbQ0BASF0oW09IXSlbQ0BAXTYoW0NIM10pW0NAQEhdM1tDQEhdKFtPSF0pW0NIMl1bQ0BASF02W0NASF0oW0NIM10pW09IXQ==

>  <s_epik_cmdline>  (10) 
J2VwaWtfcHl0aG9uJywgJy1waHQnLCAnMi4wJywgJy1waCcsICc3LjAnLCAnLXRuJywgJzgnLCAnLW1hJywgJzIwMCcsICctaW1hZScsICc8aW5maWxlLm1hZT4nLCAnLW9tYWUnLCAnPG91dGZpbGUubWFlPic=

>  <r_lp_tautomer_probability>  (10) 
1

>  <r_epik_Ionization_Penalty>  (10) 
1.68691e-06

>  <r_epik_Ionization_Penalty_Charging>  (10) 
0

>  <r_epik_Ionization_Penalty_Neutral>  (10) 
1.68691e-06

>  <r_epik_State_Penalty>  (10) 
-0

>  <r_epik_Charging_Adjusted_Penalty>  (10) 
0

>  <i_epik_Tot_Q>  (10) 
0

>  <i_epik_Tot_abs_Q>  (10) 
0

>  <s_lp_Force_Field>  (10) 
OPLS3e

>  <r_lp_Energy>  (10) 
89.9299

>  <b_lp_Chiralities_Consistent>  (10) 
1

>  <s_lp_Variant>  (10) 
4:0-1

>  <s_i_glide_gridfile>  (10) 
pfpi4k_grid

>  <i_i_glide_lignum>  (10) 
6

>  <i_i_glide_rotatable_bonds>  (10) 
8

>  <r_i_docking_score>  (10) 
-2.90779

>  <r_i_glide_ligand_efficiency>  (10) 
-0.088115

>  <r_i_glide_ligand_efficiency_sa>  (10) 
-0.282632

>  <r_i_glide_ligand_efficiency_ln>  (10) 
-0.646678

>  <r_i_glide_gscore>  (10) 
-2.90779

>  <r_i_glide_lipo>  (10) 
-0.452066

>  <r_i_glide_hbond>  (10) 
-0.0486251

>  <r_i_glide_metal>  (10) 
-0

>  <r_i_glide_rewards>  (10) 
-0.72797

>  <r_i_glide_evdw>  (10) 
-25.7269

>  <r_i_glide_ecoul>  (10) 
-3.23647

>  <r_i_glide_erotb>  (10) 
0.0926841

>  <r_i_glide_esite>  (10) 
0

>  <r_i_glide_emodel>  (10) 
-38.8002

>  <r_i_glide_energy>  (10) 
-28.9634

>  <r_i_glide_einternal>  (10) 
2.33085

>  <r_i_glide_intrahb_reward>  (10) 
-0.5

>  <i_i_glide_confnum>  (10) 
3

>  <i_i_glide_posenum>  (10) 
21

>  <r_i_glide_eff_state_penalty>  (10) 
0

>  <ligand_id>  (10) 
4

>  <original_smiles>  (10) 
C=C1C2CC(O)C3C4(C)C(C5COC5(O)C4O)C(O)C4(C)C(C(C)O)CC(O)C4C3(C2)C1O

>  <smiles>  (10) 
[H]OC1([H])C(=C([H])[H])C2([H])C([H])([H])C([H])(O[H])C3([H])C1(C2([H])[H])C1([H])C([H])(O[H])C([H])([H])C([H])(C([H])(O[H])C([H])([H])[H])C1(C([H])([H])[H])C([H])(O[H])C1([H])C2([H])C([H])([H])OC2(O[H])C([H])(O[H])C13C([H])([H])[H]

$$$$
4:0:1
     RDKit          3D

 71 76  0  0  1  0  0  0  0  0999 V2000
    0.2280    0.1554    4.8610 C   0  0  0  0  0  0  0  0  0  0  0  0
    1.0445   -0.8236    4.4362 C   0  0  0  0  0  0  0  0  0  0  0  0
    0.6071   -2.2108    4.0894 C   0  0  2  0  0  0  0  0  0  0  0  0
    0.8815   -3.1506    5.2763 C   0  0  0  0  0  0  0  0  0  0  0  0
    2.3586   -3.0729    5.7303 C   0  0  1  0  0  0  0  0  0  0  0  0
    2.5879   -3.9935    6.7760 O   0  0  0  0  0  0  0  0  0  0  0  0
    3.3900   -3.1148    4.5424 C   0  0  1  0  0  0  0  0  0  0  0  0
    3.8476   -4.6106    4.1701 C   0  0  1  0  0  0  0  0  0  0  0  0
    2.6528   -5.6198    4.1121 C   0  0  0  0  0  0  0  0  0  0  0  0
    4.7346   -4.7382    2.8824 C   0  0  1  0  0  0  0  0  0  0  0  0
    5.4358   -6.0893    2.9805 C   0  0  1  0  0  0  0  0  0  0  0  0
    6.9529   -6.1953    2.9276 C   0  0  0  0  0  0  0  0  0  0  0  0
    7.0367   -6.1902    4.3758 O   0  0  0  0  0  0  0  0  0  0  0  0
    5.5968   -6.3682    4.4642 C   0  0  2  0  0  0  0  0  0  0  0  0
    5.1808   -7.6491    4.8964 O   0  0  0  0  0  0  0  0  0  0  0  0
    4.8379   -5.2600    5.2181 C   0  0  1  0  0  0  0  0  0  0  0  0
    5.7693   -4.3236    5.7315 O   0  0  0  0  0  0  0  0  0  0  0  0
    4.1532   -4.4173    1.4840 C   0  0  1  0  0  0  0  0  0  0  0  0
    2.9025   -5.0359    1.2407 O   0  0  0  0  0  0  0  0  0  0  0  0
    4.2262   -2.9057    1.0768 C   0  0  2  0  0  0  0  0  0  0  0  0
    3.2391   -2.6399   -0.0935 C   0  0  0  0  0  0  0  0  0  0  0  0
    5.7202   -2.6240    0.6398 C   0  0  1  0  0  0  0  0  0  0  0  0
    6.0895   -2.6589   -0.8706 C   0  0  2  0  0  0  0  0  0  0  0  0
    7.5894   -2.8749   -1.1189 C   0  0  0  0  0  0  0  0  0  0  0  0
    5.7323   -1.4609   -1.5202 O   0  0  0  0  0  0  0  0  0  0  0  0
    6.2001   -1.3816    1.3879 C   0  0  0  0  0  0  0  0  0  0  0  0
    5.3848   -1.3710    2.6715 C   0  0  1  0  0  0  0  0  0  0  0  0
    5.4623   -0.0815    3.2348 O   0  0  0  0  0  0  0  0  0  0  0  0
    3.9812   -1.8525    2.2316 C   0  0  2  0  0  0  0  0  0  0  0  0
    2.9265   -2.0901    3.3971 C   0  0  1  0  0  0  0  0  0  0  0  0
    1.5248   -2.5081    2.8992 C   0  0  0  0  0  0  0  0  0  0  0  0
    2.5139   -0.7038    4.0758 C   0  0  1  0  0  0  0  0  0  0  0  0
    2.6698    0.4716    3.3036 O   0  0  0  0  0  0  0  0  0  0  0  0
    0.6091    1.1519    5.0361 H   0  0  0  0  0  0  0  0  0  0  0  0
   -0.8242   -0.0341    5.0317 H   0  0  0  0  0  0  0  0  0  0  0  0
   -0.4470   -2.2334    3.8074 H   0  0  0  0  0  0  0  0  0  0  0  0
    0.2426   -2.8660    6.1137 H   0  0  0  0  0  0  0  0  0  0  0  0
    0.5878   -4.1647    5.0199 H   0  0  0  0  0  0  0  0  0  0  0  0
    2.4923   -2.1293    6.2581 H   0  0  0  0  0  0  0  0  0  0  0  0
    3.4805   -3.8950    7.0669 H   0  0  0  0  0  0  0  0  0  0  0  0
    4.2776   -2.6322    4.9426 H   0  0  0  0  0  0  0  0  0  0  0  0
    2.9480   -6.5854    3.6923 H   0  0  0  0  0  0  0  0  0  0  0  0
    1.8123   -5.2882    3.5160 H   0  0  0  0  0  0  0  0  0  0  0  0
    2.2631   -5.8513    5.1018 H   0  0  0  0  0  0  0  0  0  0  0  0
    5.5391   -4.0306    3.0320 H   0  0  0  0  0  0  0  0  0  0  0  0
    4.9316   -6.9185    2.4788 H   0  0  0  0  0  0  0  0  0  0  0  0
    7.2897   -7.1431    2.5044 H   0  0  0  0  0  0  0  0  0  0  0  0
    7.4390   -5.3453    2.4476 H   0  0  0  0  0  0  0  0  0  0  0  0
    5.7293   -8.2829    4.4567 H   0  0  0  0  0  0  0  0  0  0  0  0
    4.3184   -5.6821    6.0805 H   0  0  0  0  0  0  0  0  0  0  0  0
    6.3818   -4.8076    6.2626 H   0  0  0  0  0  0  0  0  0  0  0  0
    4.7828   -4.9488    0.7679 H   0  0  0  0  0  0  0  0  0  0  0  0
    2.7819   -5.0879    0.3058 H   0  0  0  0  0  0  0  0  0  0  0  0
    3.3056   -1.6171   -0.4693 H   0  0  0  0  0  0  0  0  0  0  0  0
    2.2041   -2.7731    0.2158 H   0  0  0  0  0  0  0  0  0  0  0  0
    3.3952   -3.3153   -0.9363 H   0  0  0  0  0  0  0  0  0  0  0  0
    6.3278   -3.4161    1.0722 H   0  0  0  0  0  0  0  0  0  0  0  0
    5.5692   -3.4843   -1.3575 H   0  0  0  0  0  0  0  0  0  0  0  0
    7.9289   -3.8138   -0.6847 H   0  0  0  0  0  0  0  0  0  0  0  0
    8.1930   -2.0719   -0.6984 H   0  0  0  0  0  0  0  0  0  0  0  0
    7.7947   -2.9213   -2.1903 H   0  0  0  0  0  0  0  0  0  0  0  0
    4.7929   -1.3411   -1.4430 H   0  0  0  0  0  0  0  0  0  0  0  0
    7.2691   -1.4037    1.5848 H   0  0  0  0  0  0  0  0  0  0  0  0
    6.0030   -0.4713    0.8238 H   0  0  0  0  0  0  0  0  0  0  0  0
    5.8142   -2.0450    3.4031 H   0  0  0  0  0  0  0  0  0  0  0  0
    4.8522   -0.0204    3.9533 H   0  0  0  0  0  0  0  0  0  0  0  0
    3.5954   -1.0034    1.6718 H   0  0  0  0  0  0  0  0  0  0  0  0
    1.4365   -3.5242    2.5476 H   0  0  0  0  0  0  0  0  0  0  0  0
    1.2238   -1.8744    2.0635 H   0  0  0  0  0  0  0  0  0  0  0  0
    3.0943   -0.5151    4.9793 H   0  0  0  0  0  0  0  0  0  0  0  0
    2.1952    0.3761    2.4944 H   0  0  0  0  0  0  0  0  0  0  0  0
  1  2  2  0
  1 34  1  0
  1 35  1  0
  2 32  1  0
  2  3  1  0
  3 31  1  0
  3  4  1  0
  3 36  1  6
  4  5  1  0
  4 37  1  0
  4 38  1  0
  5  6  1  0
  5  7  1  0
  5 39  1  1
  6 40  1  0
  7 30  1  0
  7  8  1  0
  7 41  1  1
  8 16  1  0
  8  9  1  6
  8 10  1  0
  9 42  1  0
  9 43  1  0
  9 44  1  0
 10 11  1  0
 10 18  1  0
 10 45  1  1
 11 14  1  0
 11 12  1  0
 11 46  1  6
 12 13  1  0
 12 47  1  0
 12 48  1  0
 13 14  1  0
 14 15  1  6
 14 16  1  0
 15 49  1  0
 16 17  1  0
 16 50  1  1
 17 51  1  0
 18 19  1  0
 18 20  1  0
 18 52  1  6
 19 53  1  0
 20 29  1  0
 20 21  1  6
 20 22  1  0
 21 54  1  0
 21 55  1  0
 21 56  1  0
 22 23  1  0
 22 26  1  0
 22 57  1  1
 23 24  1  0
 23 25  1  0
 23 58  1  6
 24 59  1  0
 24 60  1  0
 24 61  1  0
 25 62  1  0
 26 27  1  0
 26 63  1  0
 26 64  1  0
 27 28  1  0
 27 29  1  0
 27 65  1  1
 28 66  1  0
 29 30  1  0
 29 67  1  6
 30 31  1  6
 30 32  1  0
 31 68  1  0
 31 69  1  0
 32 33  1  0
 32 70  1  1
 33 71  1  0
M  END
>  <i_m_ct_stereo_status>  (11) 
1

>  <s_m_source_file>  (11) 
/var/tmp/pbs.5076255.sched01/tmpgq1_80gb/0xrgip9rw.sdf

>  <i_m_source_file_index>  (11) 
6

>  <i_lp_mmshare_version>  (11) 
48012

>  <i_f3d_flags>  (11) 
0

>  <s_epik_input>  (11) 
W09IXVtDQEhdMUMoPVtDSDJdKVtDQEBIXShbQ0gyXTIpW0NIMl1bQ0BASF0oW09IXSlbQ0BIXShbQ0BdMTIzKVtDQEBdNChbQ0gzXSlbQ0BASF0oW0NAQEhdNVtDQEBdKFtPSF0pKE9bQ0gyXTUpW0NASF00W09IXSlbQ0BASF0oW09IXSlbQ0BAXTYoW0NIM10pW0NAQEhdM1tDQEhdKFtPSF0pW0NIMl1bQ0BASF02W0NASF0oW0NIM10pW09IXQ==

>  <s_epik_cmdline>  (11) 
J2VwaWtfcHl0aG9uJywgJy1waHQnLCAnMi4wJywgJy1waCcsICc3LjAnLCAnLXRuJywgJzgnLCAnLW1hJywgJzIwMCcsICctaW1hZScsICc8aW5maWxlLm1hZT4nLCAnLW9tYWUnLCAnPG91dGZpbGUubWFlPic=

>  <r_lp_tautomer_probability>  (11) 
1

>  <r_epik_Ionization_Penalty>  (11) 
1.68691e-06

>  <r_epik_Ionization_Penalty_Charging>  (11) 
0

>  <r_epik_Ionization_Penalty_Neutral>  (11) 
1.68691e-06

>  <r_epik_State_Penalty>  (11) 
-0

>  <r_epik_Charging_Adjusted_Penalty>  (11) 
0

>  <i_epik_Tot_Q>  (11) 
0

>  <i_epik_Tot_abs_Q>  (11) 
0

>  <s_lp_Force_Field>  (11) 
OPLS3e

>  <r_lp_Energy>  (11) 
89.9299

>  <b_lp_Chiralities_Consistent>  (11) 
1

>  <s_lp_Variant>  (11) 
4:0-1

>  <s_i_glide_gridfile>  (11) 
pfpi4k_grid

>  <i_i_glide_lignum>  (11) 
6

>  <i_i_glide_rotatable_bonds>  (11) 
8

>  <r_i_docking_score>  (11) 
-2.53863

>  <r_i_glide_ligand_efficiency>  (11) 
-0.0769283

>  <r_i_glide_ligand_efficiency_sa>  (11) 
-0.24675

>  <r_i_glide_ligand_efficiency_ln>  (11) 
-0.564579

>  <r_i_glide_gscore>  (11) 
-2.53863

>  <r_i_glide_lipo>  (11) 
-0.441803

>  <r_i_glide_hbond>  (11) 
-0.0567079

>  <r_i_glide_metal>  (11) 
-0

>  <r_i_glide_rewards>  (11) 
-0.22797

>  <r_i_glide_evdw>  (11) 
-25.6602

>  <r_i_glide_ecoul>  (11) 
-4.14551

>  <r_i_glide_erotb>  (11) 
0.0926841

>  <r_i_glide_esite>  (11) 
0

>  <r_i_glide_emodel>  (11) 
-33.8364

>  <r_i_glide_energy>  (11) 
-29.8057

>  <r_i_glide_einternal>  (11) 
2.70476

>  <r_i_glide_intrahb_reward>  (11) 
-0

>  <i_i_glide_confnum>  (11) 
3

>  <i_i_glide_posenum>  (11) 
31

>  <r_i_glide_eff_state_penalty>  (11) 
0

>  <ligand_id>  (11) 
4

>  <original_smiles>  (11) 
C=C1C2CC(O)C3C4(C)C(C5COC5(O)C4O)C(O)C4(C)C(C(C)O)CC(O)C4C3(C2)C1O

>  <smiles>  (11) 
[H]OC1([H])C(=C([H])[H])C2([H])C([H])([H])C([H])(O[H])C3([H])C1(C2([H])[H])C1([H])C([H])(O[H])C([H])([H])C([H])(C([H])(O[H])C([H])([H])[H])C1(C([H])([H])[H])C([H])(O[H])C1([H])C2([H])C([H])([H])OC2(O[H])C([H])(O[H])C13C([H])([H])[H]

$$$$
4:0:2
     RDKit          3D

 71 76  0  0  1  0  0  0  0  0999 V2000
    0.2268    0.1642    4.8590 C   0  0  0  0  0  0  0  0  0  0  0  0
    1.0417   -0.8152    4.4359 C   0  0  0  0  0  0  0  0  0  0  0  0
    0.6034   -2.2024    4.0892 C   0  0  2  0  0  0  0  0  0  0  0  0
    0.8755   -3.1419    5.2769 C   0  0  0  0  0  0  0  0  0  0  0  0
    2.3522   -3.0643    5.7322 C   0  0  1  0  0  0  0  0  0  0  0  0
    2.5803   -3.9851    6.7773 O   0  0  0  0  0  0  0  0  0  0  0  0
    3.3821   -3.1053    4.5425 C   0  0  1  0  0  0  0  0  0  0  0  0
    3.8420   -4.6012    4.1710 C   0  0  1  0  0  0  0  0  0  0  0  0
    2.6470   -5.6118    4.1139 C   0  0  0  0  0  0  0  0  0  0  0  0
    4.7278   -4.7314    2.8824 C   0  0  1  0  0  0  0  0  0  0  0  0
    5.4300   -6.0807    2.9818 C   0  0  1  0  0  0  0  0  0  0  0  0
    6.9461   -6.1875    2.9287 C   0  0  0  0  0  0  0  0  0  0  0  0
    7.0303   -6.1634    4.3752 O   0  0  0  0  0  0  0  0  0  0  0  0
    5.5917   -6.3558    4.4675 C   0  0  2  0  0  0  0  0  0  0  0  0
    5.1753   -7.6361    4.8964 O   0  0  0  0  0  0  0  0  0  0  0  0
    4.8334   -5.2464    5.2221 C   0  0  1  0  0  0  0  0  0  0  0  0
    5.7559   -4.2960    5.7296 O   0  0  0  0  0  0  0  0  0  0  0  0
    4.1496   -4.4126    1.4827 C   0  0  1  0  0  0  0  0  0  0  0  0
    2.8987   -5.0287    1.2425 O   0  0  0  0  0  0  0  0  0  0  0  0
    4.2249   -2.9009    1.0794 C   0  0  2  0  0  0  0  0  0  0  0  0
    3.2396   -2.6346   -0.0920 C   0  0  0  0  0  0  0  0  0  0  0  0
    5.7201   -2.6201    0.6433 C   0  0  1  0  0  0  0  0  0  0  0  0
    6.0909   -2.6584   -0.8659 C   0  0  2  0  0  0  0  0  0  0  0  0
    7.5917   -2.8670   -1.1130 C   0  0  0  0  0  0  0  0  0  0  0  0
    5.7280   -1.4566   -1.5206 O   0  0  0  0  0  0  0  0  0  0  0  0
    6.1988   -1.3781    1.3926 C   0  0  0  0  0  0  0  0  0  0  0  0
    5.3836   -1.3668    2.6755 C   0  0  1  0  0  0  0  0  0  0  0  0
    5.4642   -0.0787    3.2402 O   0  0  0  0  0  0  0  0  0  0  0  0
    3.9797   -1.8473    2.2335 C   0  0  2  0  0  0  0  0  0  0  0  0
    2.9218   -2.0823    3.3976 C   0  0  1  0  0  0  0  0  0  0  0  0
    1.5208   -2.5011    2.8996 C   0  0  0  0  0  0  0  0  0  0  0  0
    2.5119   -0.6960    4.0764 C   0  0  1  0  0  0  0  0  0  0  0  0
    2.6711    0.4774    3.3050 O   0  0  0  0  0  0  0  0  0  0  0  0
    0.6091    1.1604    5.0341 H   0  0  0  0  0  0  0  0  0  0  0  0
   -0.8262   -0.0246    5.0283 H   0  0  0  0  0  0  0  0  0  0  0  0
   -0.4508   -2.2232    3.8066 H   0  0  0  0  0  0  0  0  0  0  0  0
    0.2362   -2.8570    6.1137 H   0  0  0  0  0  0  0  0  0  0  0  0
    0.5825   -4.1559    5.0196 H   0  0  0  0  0  0  0  0  0  0  0  0
    2.4864   -2.1205    6.2597 H   0  0  0  0  0  0  0  0  0  0  0  0
    3.4775   -3.8968    7.0640 H   0  0  0  0  0  0  0  0  0  0  0  0
    4.2652   -2.6159    4.9433 H   0  0  0  0  0  0  0  0  0  0  0  0
    2.9419   -6.5783    3.6956 H   0  0  0  0  0  0  0  0  0  0  0  0
    1.8051   -5.2825    3.5172 H   0  0  0  0  0  0  0  0  0  0  0  0
    2.2576   -5.8426    5.1039 H   0  0  0  0  0  0  0  0  0  0  0  0
    5.5320   -4.0236    3.0275 H   0  0  0  0  0  0  0  0  0  0  0  0
    4.9268   -6.9141    2.4855 H   0  0  0  0  0  0  0  0  0  0  0  0
    7.2814   -7.1413    2.5171 H   0  0  0  0  0  0  0  0  0  0  0  0
    7.4334   -5.3439    2.4381 H   0  0  0  0  0  0  0  0  0  0  0  0
    5.7293   -8.2738    4.4643 H   0  0  0  0  0  0  0  0  0  0  0  0
    4.3120   -5.6657    6.0839 H   0  0  0  0  0  0  0  0  0  0  0  0
    6.3512   -4.0818    5.0298 H   0  0  0  0  0  0  0  0  0  0  0  0
    4.7808   -4.9453    0.7683 H   0  0  0  0  0  0  0  0  0  0  0  0
    2.7758   -5.0786    0.3065 H   0  0  0  0  0  0  0  0  0  0  0  0
    3.3073   -1.6117   -0.4669 H   0  0  0  0  0  0  0  0  0  0  0  0
    2.2045   -2.7674    0.2174 H   0  0  0  0  0  0  0  0  0  0  0  0
    3.3967   -3.3106   -0.9339 H   0  0  0  0  0  0  0  0  0  0  0  0
    6.3270   -3.4133    1.0780 H   0  0  0  0  0  0  0  0  0  0  0  0
    5.5735   -3.4854   -1.3515 H   0  0  0  0  0  0  0  0  0  0  0  0
    7.9353   -3.8048   -0.6760 H   0  0  0  0  0  0  0  0  0  0  0  0
    8.1914   -2.0617   -0.6918 H   0  0  0  0  0  0  0  0  0  0  0  0
    7.7981   -2.9139   -2.1837 H   0  0  0  0  0  0  0  0  0  0  0  0
    4.7946   -1.3455   -1.4415 H   0  0  0  0  0  0  0  0  0  0  0  0
    7.2681   -1.3991    1.5893 H   0  0  0  0  0  0  0  0  0  0  0  0
    6.0020   -0.4677    0.8277 H   0  0  0  0  0  0  0  0  0  0  0  0
    5.8164   -2.0422    3.4066 H   0  0  0  0  0  0  0  0  0  0  0  0
    4.8456   -0.0113    3.9520 H   0  0  0  0  0  0  0  0  0  0  0  0
    3.5959   -0.9984    1.6732 H   0  0  0  0  0  0  0  0  0  0  0  0
    1.4331   -3.5180    2.5492 H   0  0  0  0  0  0  0  0  0  0  0  0
    1.2214   -1.8678    2.0630 H   0  0  0  0  0  0  0  0  0  0  0  0
    3.0911   -0.5079    4.9811 H   0  0  0  0  0  0  0  0  0  0  0  0
    2.1983    0.3804    2.4927 H   0  0  0  0  0  0  0  0  0  0  0  0
  1  2  2  0
  1 34  1  0
  1 35  1  0
  2 32  1  0
  2  3  1  0
  3 31  1  0
  3  4  1  0
  3 36  1  6
  4  5  1  0
  4 37  1  0
  4 38  1  0
  5  6  1  0
  5  7  1  0
  5 39  1  1
  6 40  1  0
  7 30  1  0
  7  8  1  0
  7 41  1  1
  8 16  1  0
  8  9  1  6
  8 10  1  0
  9 42  1  0
  9 43  1  0
  9 44  1  0
 10 11  1  0
 10 18  1  0
 10 45  1  1
 11 14  1  0
 11 12  1  0
 11 46  1  6
 12 13  1  0
 12 47  1  0
 12 48  1  0
 13 14  1  0
 14 15  1  6
 14 16  1  0
 15 49  1  0
 16 17  1  0
 16 50  1  1
 17 51  1  0
 18 19  1  0
 18 20  1  0
 18 52  1  6
 19 53  1  0
 20 29  1  0
 20 21  1  6
 20 22  1  0
 21 54  1  0
 21 55  1  0
 21 56  1  0
 22 23  1  0
 22 26  1  0
 22 57  1  1
 23 24  1  0
 23 25  1  0
 23 58  1  6
 24 59  1  0
 24 60  1  0
 24 61  1  0
 25 62  1  0
 26 27  1  0
 26 63  1  0
 26 64  1  0
 27 28  1  0
 27 29  1  0
 27 65  1  1
 28 66  1  0
 29 30  1  0
 29 67  1  6
 30 31  1  6
 30 32  1  0
 31 68  1  0
 31 69  1  0
 32 33  1  0
 32 70  1  1
 33 71  1  0
M  END
>  <i_m_ct_stereo_status>  (12) 
1

>  <s_m_source_file>  (12) 
/var/tmp/pbs.5076255.sched01/tmpgq1_80gb/0xrgip9rw.sdf

>  <i_m_source_file_index>  (12) 
6

>  <i_lp_mmshare_version>  (12) 
48012

>  <i_f3d_flags>  (12) 
0

>  <s_epik_input>  (12) 
W09IXVtDQEhdMUMoPVtDSDJdKVtDQEBIXShbQ0gyXTIpW0NIMl1bQ0BASF0oW09IXSlbQ0BIXShbQ0BdMTIzKVtDQEBdNChbQ0gzXSlbQ0BASF0oW0NAQEhdNVtDQEBdKFtPSF0pKE9bQ0gyXTUpW0NASF00W09IXSlbQ0BASF0oW09IXSlbQ0BAXTYoW0NIM10pW0NAQEhdM1tDQEhdKFtPSF0pW0NIMl1bQ0BASF02W0NASF0oW0NIM10pW09IXQ==

>  <s_epik_cmdline>  (12) 
J2VwaWtfcHl0aG9uJywgJy1waHQnLCAnMi4wJywgJy1waCcsICc3LjAnLCAnLXRuJywgJzgnLCAnLW1hJywgJzIwMCcsICctaW1hZScsICc8aW5maWxlLm1hZT4nLCAnLW9tYWUnLCAnPG91dGZpbGUubWFlPic=

>  <r_lp_tautomer_probability>  (12) 
1

>  <r_epik_Ionization_Penalty>  (12) 
1.68691e-06

>  <r_epik_Ionization_Penalty_Charging>  (12) 
0

>  <r_epik_Ionization_Penalty_Neutral>  (12) 
1.68691e-06

>  <r_epik_State_Penalty>  (12) 
-0

>  <r_epik_Charging_Adjusted_Penalty>  (12) 
0

>  <i_epik_Tot_Q>  (12) 
0

>  <i_epik_Tot_abs_Q>  (12) 
0

>  <s_lp_Force_Field>  (12) 
OPLS3e

>  <r_lp_Energy>  (12) 
89.9299

>  <b_lp_Chiralities_Consistent>  (12) 
1

>  <s_lp_Variant>  (12) 
4:0-1

>  <s_i_glide_gridfile>  (12) 
pfpi4k_grid

>  <i_i_glide_lignum>  (12) 
6

>  <i_i_glide_rotatable_bonds>  (12) 
8

>  <r_i_docking_score>  (12) 
-2.50774

>  <r_i_glide_ligand_efficiency>  (12) 
-0.075992

>  <r_i_glide_ligand_efficiency_sa>  (12) 
-0.243747

>  <r_i_glide_ligand_efficiency_ln>  (12) 
-0.557708

>  <r_i_glide_gscore>  (12) 
-2.50774

>  <r_i_glide_lipo>  (12) 
-0.441751

>  <r_i_glide_hbond>  (12) 
-0.0559218

>  <r_i_glide_metal>  (12) 
-0

>  <r_i_glide_rewards>  (12) 
-0.22797

>  <r_i_glide_evdw>  (12) 
-25.6503

>  <r_i_glide_ecoul>  (12) 
-3.9484

>  <r_i_glide_erotb>  (12) 
0.0926841

>  <r_i_glide_esite>  (12) 
0

>  <r_i_glide_emodel>  (12) 
-33.6745

>  <r_i_glide_energy>  (12) 
-29.5987

>  <r_i_glide_einternal>  (12) 
2.36175

>  <r_i_glide_intrahb_reward>  (12) 
-0

>  <i_i_glide_confnum>  (12) 
3

>  <i_i_glide_posenum>  (12) 
2

>  <r_i_glide_eff_state_penalty>  (12) 
0

>  <ligand_id>  (12) 
4

>  <original_smiles>  (12) 
C=C1C2CC(O)C3C4(C)C(C5COC5(O)C4O)C(O)C4(C)C(C(C)O)CC(O)C4C3(C2)C1O

>  <smiles>  (12) 
[H]OC1([H])C(=C([H])[H])C2([H])C([H])([H])C([H])(O[H])C3([H])C1(C2([H])[H])C1([H])C([H])(O[H])C([H])([H])C([H])(C([H])(O[H])C([H])([H])[H])C1(C([H])([H])[H])C([H])(O[H])C1([H])C2([H])C([H])([H])OC2(O[H])C([H])(O[H])C13C([H])([H])[H]

$$$$
5:0:0
     RDKit          3D

 76 80  0  0  1  0  0  0  0  0999 V2000
    4.3963   -4.0672    5.4200 C   0  0  0  0  0  0  0  0  0  0  0  0
    3.5224   -3.0647    4.6731 C   0  0  0  0  0  0  0  0  0  0  0  0
    3.3341   -3.0140    3.3224 C   0  0  0  0  0  0  0  0  0  0  0  0
    3.8971   -4.0974    2.4274 C   0  0  0  0  0  0  0  0  0  0  0  0
    4.3304   -3.8989    1.2954 O   0  0  0  0  0  0  0  0  0  0  0  0
    3.8984   -5.3400    3.0069 O   0  0  0  0  0  0  0  0  0  0  0  0
    4.4008   -6.5142    2.3527 C   0  0  1  0  0  0  0  0  0  0  0  0
    5.7935   -6.3940    1.7301 C   0  0  0  0  0  0  0  0  0  0  0  0
    4.0884   -7.8301    3.0434 C   0  0  1  0  0  0  0  0  0  0  0  0
    3.5196   -7.9412    4.4527 C   0  0  0  0  0  0  0  0  0  0  0  0
    2.0123   -8.1720    4.5926 C   0  0  1  0  0  0  0  0  0  0  0  0
    1.0513   -7.0420    4.2493 C   0  0  1  0  0  0  0  0  0  0  0  0
    1.5010   -5.7158    4.3450 O   0  0  0  0  0  0  0  0  0  0  0  0
    0.8587   -7.6813    2.8653 C   0  0  1  0  0  0  0  0  0  0  0  0
   -0.5805   -7.5962    2.3252 C   0  0  0  0  0  0  0  0  0  0  0  0
    1.7997   -7.2164    1.7064 C   0  0  1  0  0  0  0  0  0  0  0  0
    1.5111   -5.9020    1.2533 O   0  0  0  0  0  0  0  0  0  0  0  0
    3.3297   -7.4337    1.7797 C   0  0  1  0  0  0  0  0  0  0  0  0
    1.2070   -9.0356    3.5906 C   0  0  0  0  0  0  0  0  0  0  0  0
    1.9178  -10.1582    2.8088 C   0  0  0  0  0  0  0  0  0  0  0  0
    0.0359   -9.7941    4.2463 C   0  0  0  0  0  0  0  0  0  0  0  0
    2.4395   -1.8949    2.6744 C   0  0  1  0  0  0  0  0  0  0  0  0
    2.2136   -2.1748    1.2885 O   0  0  0  0  0  0  0  0  0  0  0  0
    0.9723   -1.9817    3.2502 C   0  0  0  0  0  0  0  0  0  0  0  0
    0.6353   -1.5158    4.7030 C   0  0  1  0  0  0  0  0  0  0  0  0
   -0.7263   -1.7845    4.9702 O   0  0  0  0  0  0  0  0  0  0  0  0
    1.4695   -2.1498    5.8318 C   0  0  0  0  0  0  0  0  0  0  0  0
    2.9201   -2.0196    5.4662 C   0  0  0  0  0  0  0  0  0  0  0  0
    3.5388   -0.8294    5.5833 C   0  0  0  0  0  0  0  0  0  0  0  0
    4.7879   -0.4904    4.8037 C   0  0  0  0  0  0  0  0  0  0  0  0
    4.4880   -0.1560    3.3097 C   0  0  1  0  0  0  0  0  0  0  0  0
    5.6029   -0.6828    2.3870 C   0  0  0  0  0  0  0  0  0  0  0  0
    3.0234   -0.4061    2.7759 C   0  0  1  0  0  0  0  0  0  0  0  0
    2.7479    0.4644    1.5246 C   0  0  0  0  0  0  0  0  0  0  0  0
    4.6952   -3.6924    6.3984 H   0  0  0  0  0  0  0  0  0  0  0  0
    5.3119   -4.2949    4.8714 H   0  0  0  0  0  0  0  0  0  0  0  0
    3.8412   -4.9847    5.5939 H   0  0  0  0  0  0  0  0  0  0  0  0
    6.1910   -7.3712    1.4565 H   0  0  0  0  0  0  0  0  0  0  0  0
    6.4954   -5.9327    2.4235 H   0  0  0  0  0  0  0  0  0  0  0  0
    5.7787   -5.8091    0.8124 H   0  0  0  0  0  0  0  0  0  0  0  0
    4.8255   -8.6121    2.8824 H   0  0  0  0  0  0  0  0  0  0  0  0
    4.0267   -8.7860    4.9234 H   0  0  0  0  0  0  0  0  0  0  0  0
    3.8428   -7.0857    5.0443 H   0  0  0  0  0  0  0  0  0  0  0  0
    1.7844   -8.5057    5.6060 H   0  0  0  0  0  0  0  0  0  0  0  0
    0.1466   -7.1196    4.8488 H   0  0  0  0  0  0  0  0  0  0  0  0
    2.3275   -5.6806    3.8799 H   0  0  0  0  0  0  0  0  0  0  0  0
   -0.7427   -8.2972    1.5088 H   0  0  0  0  0  0  0  0  0  0  0  0
   -0.8260   -6.6020    1.9630 H   0  0  0  0  0  0  0  0  0  0  0  0
   -1.3132   -7.8268    3.0977 H   0  0  0  0  0  0  0  0  0  0  0  0
    1.5008   -7.8412    0.8678 H   0  0  0  0  0  0  0  0  0  0  0  0
    2.2148   -5.6313    0.6793 H   0  0  0  0  0  0  0  0  0  0  0  0
    3.6673   -7.9357    0.8783 H   0  0  0  0  0  0  0  0  0  0  0  0
    1.2312  -10.6471    2.1150 H   0  0  0  0  0  0  0  0  0  0  0  0
    2.3059  -10.9271    3.4802 H   0  0  0  0  0  0  0  0  0  0  0  0
    2.7577   -9.8309    2.2098 H   0  0  0  0  0  0  0  0  0  0  0  0
   -0.6243  -10.2284    3.4947 H   0  0  0  0  0  0  0  0  0  0  0  0
   -0.5844   -9.1660    4.8884 H   0  0  0  0  0  0  0  0  0  0  0  0
    0.3784  -10.6179    4.8781 H   0  0  0  0  0  0  0  0  0  0  0  0
    1.7655   -1.4487    0.8597 H   0  0  0  0  0  0  0  0  0  0  0  0
    0.3390   -1.3733    2.6066 H   0  0  0  0  0  0  0  0  0  0  0  0
    0.6238   -3.0096    3.1296 H   0  0  0  0  0  0  0  0  0  0  0  0
    0.7356   -0.4325    4.7682 H   0  0  0  0  0  0  0  0  0  0  0  0
   -0.8554   -2.7167    4.8757 H   0  0  0  0  0  0  0  0  0  0  0  0
    1.2726   -1.6463    6.7785 H   0  0  0  0  0  0  0  0  0  0  0  0
    1.2166   -3.2042    5.9690 H   0  0  0  0  0  0  0  0  0  0  0  0
    3.0346   -0.0057    6.0629 H   0  0  0  0  0  0  0  0  0  0  0  0
    5.2834    0.3510    5.2905 H   0  0  0  0  0  0  0  0  0  0  0  0
    5.4933   -1.3194    4.8747 H   0  0  0  0  0  0  0  0  0  0  0  0
    4.5915    0.9299    3.2844 H   0  0  0  0  0  0  0  0  0  0  0  0
    5.6909   -1.7672    2.4324 H   0  0  0  0  0  0  0  0  0  0  0  0
    6.5671   -0.2701    2.6865 H   0  0  0  0  0  0  0  0  0  0  0  0
    5.4391   -0.4055    1.3461 H   0  0  0  0  0  0  0  0  0  0  0  0
    2.4097    0.1166    3.5046 H   0  0  0  0  0  0  0  0  0  0  0  0
    3.3088    0.1280    0.6529 H   0  0  0  0  0  0  0  0  0  0  0  0
    3.0185    1.5058    1.6979 H   0  0  0  0  0  0  0  0  0  0  0  0
    1.6903    0.4668    1.2594 H   0  0  0  0  0  0  0  0  0  0  0  0
  1  2  1  0
  1 35  1  0
  1 36  1  0
  1 37  1  0
  2 28  1  0
  2  3  2  0
  3  4  1  0
  3 22  1  0
  4  5  2  0
  4  6  1  0
  7  6  1  1
  7 18  1  0
  7  8  1  0
  7  9  1  0
  8 38  1  0
  8 39  1  0
  8 40  1  0
  9 18  1  0
  9 10  1  0
  9 41  1  6
 10 11  1  0
 10 42  1  0
 10 43  1  0
 11 19  1  0
 11 12  1  0
 11 44  1  1
 12 13  1  0
 12 14  1  0
 12 45  1  1
 13 46  1  0
 14 15  1  6
 14 16  1  0
 14 19  1  0
 15 47  1  0
 15 48  1  0
 15 49  1  0
 16 17  1  0
 16 18  1  0
 16 50  1  6
 17 51  1  0
 18 52  1  6
 19 20  1  0
 19 21  1  0
 20 53  1  0
 20 54  1  0
 20 55  1  0
 21 56  1  0
 21 57  1  0
 21 58  1  0
 22 33  1  0
 22 23  1  6
 22 24  1  0
 23 59  1  0
 24 25  1  0
 24 60  1  0
 24 61  1  0
 25 26  1  0
 25 27  1  0
 25 62  1  6
 26 63  1  0
 27 28  1  0
 27 64  1  0
 27 65  1  0
 28 29  2  3
 29 30  1  0
 29 66  1  0
 30 31  1  0
 30 67  1  0
 30 68  1  0
 31 32  1  0
 31 33  1  0
 31 69  1  1
 32 70  1  0
 32 71  1  0
 32 72  1  0
 33 34  1  0
 33 73  1  1
 34 74  1  0
 34 75  1  0
 34 76  1  0
M  END
>  <i_m_ct_stereo_status>  (13) 
1

>  <s_m_source_file>  (13) 
/var/tmp/pbs.5076255.sched01/tmpgq1_80gb/0xrgip9rw.sdf

>  <i_m_source_file_index>  (13) 
7

>  <i_lp_mmshare_version>  (13) 
48012

>  <i_f3d_flags>  (13) 
0

>  <s_epik_input>  (13) 
W0NIM11bQ0BASF0xW0NASF0oW0NIM10pW0NIMl0vW0NIXT1DKFtDSDJdW0NAQEhdKFtDSDJdMilbT0hdKVxDKFtDSDNdKT1DKFtDQF0xMltPSF0pQyg9TylPW0NAXTMoW0NIM10pW0NASF0oW0NAQEhdNFtPSF0pW0NAQEhdM1tDSDJdW0NASF0oQzUoW0NIM10pW0NIM10pW0NAQEhdKFtPSF0pW0NAQF00NVtDSDNd

>  <s_epik_cmdline>  (13) 
J2VwaWtfcHl0aG9uJywgJy1waHQnLCAnMi4wJywgJy1waCcsICc3LjAnLCAnLXRuJywgJzgnLCAnLW1hJywgJzIwMCcsICctaW1hZScsICc8aW5maWxlLm1hZT4nLCAnLW9tYWUnLCAnPG91dGZpbGUubWFlPic=

>  <r_lp_tautomer_probability>  (13) 
1

>  <r_epik_Ionization_Penalty>  (13) 
1.97379e-06

>  <r_epik_Ionization_Penalty_Charging>  (13) 
0

>  <r_epik_Ionization_Penalty_Neutral>  (13) 
1.97379e-06

>  <r_epik_State_Penalty>  (13) 
-0

>  <r_epik_Charging_Adjusted_Penalty>  (13) 
0

>  <i_epik_Tot_Q>  (13) 
0

>  <i_epik_Tot_abs_Q>  (13) 
0

>  <s_epik_Chemistry_Notes>  (13) 
This compound has an ester and may undergo hydrolysis at high or low pH.

>  <s_lp_Force_Field>  (13) 
OPLS3e

>  <r_lp_Energy>  (13) 
91.8216

>  <b_lp_Chiralities_Consistent>  (13) 
1

>  <s_lp_Variant>  (13) 
5:0-1

>  <s_i_glide_gridfile>  (13) 
pfpi4k_grid

>  <i_i_glide_lignum>  (13) 
7

>  <i_i_glide_rotatable_bonds>  (13) 
7

>  <r_i_docking_score>  (13) 
-2.71127

>  <r_i_glide_ligand_efficiency>  (13) 
-0.0797433

>  <r_i_glide_ligand_efficiency_sa>  (13) 
-0.258337

>  <r_i_glide_ligand_efficiency_ln>  (13) 
-0.598996

>  <r_i_glide_gscore>  (13) 
-2.71127

>  <r_i_glide_lipo>  (13) 
-0.398384

>  <r_i_glide_hbond>  (13) 
0

>  <r_i_glide_metal>  (13) 
-0

>  <r_i_glide_rewards>  (13) 
-0.673716

>  <r_i_glide_evdw>  (13) 
-23.3265

>  <r_i_glide_ecoul>  (13) 
-4.94893

>  <r_i_glide_erotb>  (13) 
0.269491

>  <r_i_glide_esite>  (13) 
0

>  <r_i_glide_emodel>  (13) 
-39.2677

>  <r_i_glide_energy>  (13) 
-28.2754

>  <r_i_glide_einternal>  (13) 
1.35873

>  <r_i_glide_intrahb_reward>  (13) 
-0.5

>  <i_i_glide_confnum>  (13) 
5

>  <i_i_glide_posenum>  (13) 
27

>  <r_i_glide_eff_state_penalty>  (13) 
0

>  <ligand_id>  (13) 
5

>  <original_smiles>  (13) 
CC1=C(C(=O)OC2(C)C3CC4C(O)C(C)(C(O)C32)C4(C)C)C2(O)CC(O)CC1=CCC(C)C2C

>  <smiles>  (13) 
[H]OC1([H])C([H])([H])C2=C([H])C([H])([H])C([H])(C([H])([H])[H])C([H])(C([H])([H])[H])C(O[H])(C(C(=O)OC3(C([H])([H])[H])C4([H])C([H])([H])C5([H])C([H])(O[H])C(C([H])([H])[H])(C([H])(O[H])C43[H])C5(C([H])([H])[H])C([H])([H])[H])=C2C([H])([H])[H])C1([H])[H]

$$$$
5:0:1
     RDKit          3D

 76 80  0  0  1  0  0  0  0  0999 V2000
    5.5007   -4.2886    3.9042 C   0  0  0  0  0  0  0  0  0  0  0  0
    4.7109   -3.4020    2.9477 C   0  0  0  0  0  0  0  0  0  0  0  0
    4.1738   -3.8078    1.7647 C   0  0  0  0  0  0  0  0  0  0  0  0
    4.2039   -5.2641    1.3722 C   0  0  0  0  0  0  0  0  0  0  0  0
    4.4229   -5.6732    0.2317 O   0  0  0  0  0  0  0  0  0  0  0  0
    3.9897   -6.1132    2.4279 O   0  0  0  0  0  0  0  0  0  0  0  0
    4.0937   -7.5370    2.3072 C   0  0  1  0  0  0  0  0  0  0  0  0
    5.4320   -8.0482    1.7847 C   0  0  0  0  0  0  0  0  0  0  0  0
    3.4544   -8.3388    3.4255 C   0  0  1  0  0  0  0  0  0  0  0  0
    2.9281   -7.7216    4.7134 C   0  0  0  0  0  0  0  0  0  0  0  0
    1.4185   -7.4796    4.8193 C   0  0  1  0  0  0  0  0  0  0  0  0
    0.8019   -6.3641    3.9910 C   0  0  1  0  0  0  0  0  0  0  0  0
    1.6140   -5.2855    3.6107 O   0  0  0  0  0  0  0  0  0  0  0  0
    0.3890   -7.4240    2.9562 C   0  0  1  0  0  0  0  0  0  0  0  0
   -0.9837   -7.1773    2.3054 C   0  0  0  0  0  0  0  0  0  0  0  0
    1.3796   -7.7238    1.7924 C   0  0  1  0  0  0  0  0  0  0  0  0
    1.4284   -6.6429    0.8777 O   0  0  0  0  0  0  0  0  0  0  0  0
    2.7916   -8.2836    2.0537 C   0  0  1  0  0  0  0  0  0  0  0  0
    0.3669   -8.4187    4.1734 C   0  0  0  0  0  0  0  0  0  0  0  0
    0.7112   -9.9069    3.9511 C   0  0  0  0  0  0  0  0  0  0  0  0
   -0.9497   -8.5031    4.9716 C   0  0  0  0  0  0  0  0  0  0  0  0
    3.4003   -2.7920    0.8510 C   0  0  1  0  0  0  0  0  0  0  0  0
    2.7071   -3.4622   -0.1955 O   0  0  0  0  0  0  0  0  0  0  0  0
    2.1874   -2.1870    1.6559 C   0  0  0  0  0  0  0  0  0  0  0  0
    2.3938   -1.1027    2.7569 C   0  0  1  0  0  0  0  0  0  0  0  0
    1.1411   -0.7745    3.3228 O   0  0  0  0  0  0  0  0  0  0  0  0
    3.3519   -1.4913    3.8969 C   0  0  0  0  0  0  0  0  0  0  0  0
    4.6201   -1.9961    3.2736 C   0  0  0  0  0  0  0  0  0  0  0  0
    5.4815   -1.1179    2.7220 C   0  0  0  0  0  0  0  0  0  0  0  0
    6.4879   -1.5269    1.6699 C   0  0  0  0  0  0  0  0  0  0  0  0
    5.8628   -1.7018    0.2595 C   0  0  1  0  0  0  0  0  0  0  0  0
    6.5229   -2.8727   -0.4951 C   0  0  0  0  0  0  0  0  0  0  0  0
    4.2943   -1.6549    0.1586 C   0  0  1  0  0  0  0  0  0  0  0  0
    3.8835   -1.2908   -1.2906 C   0  0  0  0  0  0  0  0  0  0  0  0
    6.1324   -3.6944    4.5607 H   0  0  0  0  0  0  0  0  0  0  0  0
    6.1538   -4.9724    3.3608 H   0  0  0  0  0  0  0  0  0  0  0  0
    4.8313   -4.8633    4.5393 H   0  0  0  0  0  0  0  0  0  0  0  0
    5.5302   -9.1239    1.9380 H   0  0  0  0  0  0  0  0  0  0  0  0
    6.2619   -7.5629    2.2961 H   0  0  0  0  0  0  0  0  0  0  0  0
    5.5292   -7.8764    0.7158 H   0  0  0  0  0  0  0  0  0  0  0  0
    3.9346   -9.2905    3.6354 H   0  0  0  0  0  0  0  0  0  0  0  0
    3.2059   -8.4094    5.5136 H   0  0  0  0  0  0  0  0  0  0  0  0
    3.4911   -6.8131    4.9353 H   0  0  0  0  0  0  0  0  0  0  0  0
    1.1444   -7.3068    5.8612 H   0  0  0  0  0  0  0  0  0  0  0  0
   -0.0681   -5.9489    4.4954 H   0  0  0  0  0  0  0  0  0  0  0  0
    2.4107   -5.6583    3.2480 H   0  0  0  0  0  0  0  0  0  0  0  0
   -1.3558   -8.0774    1.8191 H   0  0  0  0  0  0  0  0  0  0  0  0
   -0.9514   -6.3840    1.5607 H   0  0  0  0  0  0  0  0  0  0  0  0
   -1.7275   -6.8812    3.0432 H   0  0  0  0  0  0  0  0  0  0  0  0
    0.9092   -8.5341    1.2438 H   0  0  0  0  0  0  0  0  0  0  0  0
    2.1573   -6.7803    0.2930 H   0  0  0  0  0  0  0  0  0  0  0  0
    2.9391   -9.1733    1.4478 H   0  0  0  0  0  0  0  0  0  0  0  0
   -0.1072  -10.4362    3.4572 H   0  0  0  0  0  0  0  0  0  0  0  0
    0.8993  -10.4156    4.8996 H   0  0  0  0  0  0  0  0  0  0  0  0
    1.5867  -10.0772    3.3356 H   0  0  0  0  0  0  0  0  0  0  0  0
   -1.7351   -8.9995    4.3999 H   0  0  0  0  0  0  0  0  0  0  0  0
   -1.3377   -7.5264    5.2611 H   0  0  0  0  0  0  0  0  0  0  0  0
   -0.8224   -9.0680    5.8979 H   0  0  0  0  0  0  0  0  0  0  0  0
    2.2590   -2.7972   -0.7047 H   0  0  0  0  0  0  0  0  0  0  0  0
    1.5298   -1.7281    0.9280 H   0  0  0  0  0  0  0  0  0  0  0  0
    1.6094   -3.0038    2.0916 H   0  0  0  0  0  0  0  0  0  0  0  0
    2.7512   -0.1778    2.3045 H   0  0  0  0  0  0  0  0  0  0  0  0
    0.6195   -0.3458    2.6572 H   0  0  0  0  0  0  0  0  0  0  0  0
    3.5548   -0.6295    4.5325 H   0  0  0  0  0  0  0  0  0  0  0  0
    2.9145   -2.2692    4.5251 H   0  0  0  0  0  0  0  0  0  0  0  0
    5.3360   -0.0580    2.8609 H   0  0  0  0  0  0  0  0  0  0  0  0
    7.2853   -0.7863    1.6396 H   0  0  0  0  0  0  0  0  0  0  0  0
    6.9604   -2.4621    1.9623 H   0  0  0  0  0  0  0  0  0  0  0  0
    6.1923   -0.8066   -0.2700 H   0  0  0  0  0  0  0  0  0  0  0  0
    6.3820   -3.8201    0.0236 H   0  0  0  0  0  0  0  0  0  0  0  0
    7.5993   -2.7156   -0.5858 H   0  0  0  0  0  0  0  0  0  0  0  0
    6.1250   -2.9858   -1.5025 H   0  0  0  0  0  0  0  0  0  0  0  0
    4.0448   -0.7256    0.6625 H   0  0  0  0  0  0  0  0  0  0  0  0
    4.0748   -2.0981   -1.9971 H   0  0  0  0  0  0  0  0  0  0  0  0
    4.4165   -0.4068   -1.6454 H   0  0  0  0  0  0  0  0  0  0  0  0
    2.8290   -1.0444   -1.3598 H   0  0  0  0  0  0  0  0  0  0  0  0
  1  2  1  0
  1 35  1  0
  1 36  1  0
  1 37  1  0
  2 28  1  0
  2  3  2  0
  3  4  1  0
  3 22  1  0
  4  5  2  0
  4  6  1  0
  7  6  1  1
  7 18  1  0
  7  8  1  0
  7  9  1  0
  8 38  1  0
  8 39  1  0
  8 40  1  0
  9 18  1  0
  9 10  1  0
  9 41  1  1
 10 11  1  0
 10 42  1  0
 10 43  1  0
 11 19  1  0
 11 12  1  0
 11 44  1  1
 12 13  1  0
 12 14  1  0
 12 45  1  1
 13 46  1  0
 14 15  1  6
 14 16  1  0
 14 19  1  0
 15 47  1  0
 15 48  1  0
 15 49  1  0
 16 17  1  0
 16 18  1  0
 16 50  1  6
 17 51  1  0
 18 52  1  6
 19 20  1  0
 19 21  1  0
 20 53  1  0
 20 54  1  0
 20 55  1  0
 21 56  1  0
 21 57  1  0
 21 58  1  0
 22 33  1  0
 22 23  1  6
 22 24  1  0
 23 59  1  0
 24 25  1  0
 24 60  1  0
 24 61  1  0
 25 26  1  0
 25 27  1  0
 25 62  1  6
 26 63  1  0
 27 28  1  0
 27 64  1  0
 27 65  1  0
 28 29  2  3
 29 30  1  0
 29 66  1  0
 30 31  1  0
 30 67  1  0
 30 68  1  0
 31 32  1  0
 31 33  1  0
 31 69  1  6
 32 70  1  0
 32 71  1  0
 32 72  1  0
 33 34  1  0
 33 73  1  1
 34 74  1  0
 34 75  1  0
 34 76  1  0
M  END
>  <i_m_ct_stereo_status>  (14) 
1

>  <s_m_source_file>  (14) 
/var/tmp/pbs.5076255.sched01/tmpgq1_80gb/0xrgip9rw.sdf

>  <i_m_source_file_index>  (14) 
7

>  <i_lp_mmshare_version>  (14) 
48012

>  <i_f3d_flags>  (14) 
0

>  <s_epik_input>  (14) 
W0NIM11bQ0BASF0xW0NASF0oW0NIM10pW0NIMl0vW0NIXT1DKFtDSDJdW0NAQEhdKFtDSDJdMilbT0hdKVxDKFtDSDNdKT1DKFtDQF0xMltPSF0pQyg9TylPW0NAXTMoW0NIM10pW0NASF0oW0NAQEhdNFtPSF0pW0NAQEhdM1tDSDJdW0NASF0oQzUoW0NIM10pW0NIM10pW0NAQEhdKFtPSF0pW0NAQF00NVtDSDNd

>  <s_epik_cmdline>  (14) 
J2VwaWtfcHl0aG9uJywgJy1waHQnLCAnMi4wJywgJy1waCcsICc3LjAnLCAnLXRuJywgJzgnLCAnLW1hJywgJzIwMCcsICctaW1hZScsICc8aW5maWxlLm1hZT4nLCAnLW9tYWUnLCAnPG91dGZpbGUubWFlPic=

>  <r_lp_tautomer_probability>  (14) 
1

>  <r_epik_Ionization_Penalty>  (14) 
1.97379e-06

>  <r_epik_Ionization_Penalty_Charging>  (14) 
0

>  <r_epik_Ionization_Penalty_Neutral>  (14) 
1.97379e-06

>  <r_epik_State_Penalty>  (14) 
-0

>  <r_epik_Charging_Adjusted_Penalty>  (14) 
0

>  <i_epik_Tot_Q>  (14) 
0

>  <i_epik_Tot_abs_Q>  (14) 
0

>  <s_epik_Chemistry_Notes>  (14) 
This compound has an ester and may undergo hydrolysis at high or low pH.

>  <s_lp_Force_Field>  (14) 
OPLS3e

>  <r_lp_Energy>  (14) 
91.8216

>  <b_lp_Chiralities_Consistent>  (14) 
1

>  <s_lp_Variant>  (14) 
5:0-1

>  <s_i_glide_gridfile>  (14) 
pfpi4k_grid

>  <i_i_glide_lignum>  (14) 
7

>  <i_i_glide_rotatable_bonds>  (14) 
7

>  <r_i_docking_score>  (14) 
-2.40946

>  <r_i_glide_ligand_efficiency>  (14) 
-0.0708664

>  <r_i_glide_ligand_efficiency_sa>  (14) 
-0.22958

>  <r_i_glide_ligand_efficiency_ln>  (14) 
-0.532317

>  <r_i_glide_gscore>  (14) 
-2.40946

>  <r_i_glide_lipo>  (14) 
-0.417495

>  <r_i_glide_hbond>  (14) 
0

>  <r_i_glide_metal>  (14) 
-0

>  <r_i_glide_rewards>  (14) 
-0.709369

>  <r_i_glide_evdw>  (14) 
-24.7048

>  <r_i_glide_ecoul>  (14) 
-2.11231

>  <r_i_glide_erotb>  (14) 
0.269491

>  <r_i_glide_esite>  (14) 
0

>  <r_i_glide_emodel>  (14) 
-36.976

>  <r_i_glide_energy>  (14) 
-26.8171

>  <r_i_glide_einternal>  (14) 
1.47152

>  <r_i_glide_intrahb_reward>  (14) 
-0.5

>  <i_i_glide_confnum>  (14) 
5

>  <i_i_glide_posenum>  (14) 
2

>  <r_i_glide_eff_state_penalty>  (14) 
0

>  <ligand_id>  (14) 
5

>  <original_smiles>  (14) 
CC1=C(C(=O)OC2(C)C3CC4C(O)C(C)(C(O)C32)C4(C)C)C2(O)CC(O)CC1=CCC(C)C2C

>  <smiles>  (14) 
[H]OC1([H])C([H])([H])C2=C([H])C([H])([H])C([H])(C([H])([H])[H])C([H])(C([H])([H])[H])C(O[H])(C(C(=O)OC3(C([H])([H])[H])C4([H])C([H])([H])C5([H])C([H])(O[H])C(C([H])([H])[H])(C([H])(O[H])C43[H])C5(C([H])([H])[H])C([H])([H])[H])=C2C([H])([H])[H])C1([H])[H]

$$$$
5:0:2
     RDKit          3D

 76 80  0  0  1  0  0  0  0  0999 V2000
    5.5257   -4.2462    3.8819 C   0  0  0  0  0  0  0  0  0  0  0  0
    4.7229   -3.3561    2.9423 C   0  0  0  0  0  0  0  0  0  0  0  0
    4.1824   -3.7569    1.7587 C   0  0  0  0  0  0  0  0  0  0  0  0
    4.2248   -5.2086    1.3543 C   0  0  0  0  0  0  0  0  0  0  0  0
    4.4741   -5.6009    0.2157 O   0  0  0  0  0  0  0  0  0  0  0  0
    3.9827   -6.0676    2.3975 O   0  0  0  0  0  0  0  0  0  0  0  0
    4.0668   -7.4924    2.2580 C   0  0  1  0  0  0  0  0  0  0  0  0
    5.3930   -8.0130    1.7177 C   0  0  0  0  0  0  0  0  0  0  0  0
    3.4285   -8.2996    3.3725 C   0  0  1  0  0  0  0  0  0  0  0  0
    2.9183   -7.6917    4.6707 C   0  0  0  0  0  0  0  0  0  0  0  0
    1.4122   -7.4409    4.7928 C   0  0  1  0  0  0  0  0  0  0  0  0
    0.7954   -6.3125    3.9829 C   0  0  1  0  0  0  0  0  0  0  0  0
    1.6115   -5.2356    3.6037 O   0  0  0  0  0  0  0  0  0  0  0  0
    0.3677   -7.3586    2.9421 C   0  0  1  0  0  0  0  0  0  0  0  0
   -1.0034   -7.0941    2.3039 C   0  0  0  0  0  0  0  0  0  0  0  0
    1.3463   -7.6469    1.7653 C   0  0  1  0  0  0  0  0  0  0  0  0
    1.4064   -6.5473    0.8781 O   0  0  0  0  0  0  0  0  0  0  0  0
    2.7544   -8.2245    2.0086 C   0  0  1  0  0  0  0  0  0  0  0  0
    0.3477   -8.3663    4.1475 C   0  0  0  0  0  0  0  0  0  0  0  0
    0.6770   -9.8539    3.9055 C   0  0  0  0  0  0  0  0  0  0  0  0
   -0.9628   -8.4521    4.9553 C   0  0  0  0  0  0  0  0  0  0  0  0
    3.3900   -2.7492    0.8569 C   0  0  1  0  0  0  0  0  0  0  0  0
    2.7025   -3.4282   -0.1895 O   0  0  0  0  0  0  0  0  0  0  0  0
    2.1739   -2.1685    1.6755 C   0  0  0  0  0  0  0  0  0  0  0  0
    2.3725   -1.0922    2.7845 C   0  0  1  0  0  0  0  0  0  0  0  0
    1.1199   -0.8028    3.3662 O   0  0  0  0  0  0  0  0  0  0  0  0
    3.3468   -1.4711    3.9139 C   0  0  0  0  0  0  0  0  0  0  0  0
    4.6169   -1.9538    3.2789 C   0  0  0  0  0  0  0  0  0  0  0  0
    5.4625   -1.0608    2.7266 C   0  0  0  0  0  0  0  0  0  0  0  0
    6.4651   -1.4484    1.6644 C   0  0  0  0  0  0  0  0  0  0  0  0
    5.8330   -1.6194    0.2572 C   0  0  1  0  0  0  0  0  0  0  0  0
    6.5058   -2.7740   -0.5113 C   0  0  0  0  0  0  0  0  0  0  0  0
    4.2627   -1.5942    0.1662 C   0  0  1  0  0  0  0  0  0  0  0  0
    3.8388   -1.2262   -1.2780 C   0  0  0  0  0  0  0  0  0  0  0  0
    6.1521   -3.6483    4.5401 H   0  0  0  0  0  0  0  0  0  0  0  0
    6.1844   -4.9153    3.3263 H   0  0  0  0  0  0  0  0  0  0  0  0
    4.8679   -4.8356    4.5153 H   0  0  0  0  0  0  0  0  0  0  0  0
    5.4823   -9.0909    1.8614 H   0  0  0  0  0  0  0  0  0  0  0  0
    6.2333   -7.5384    2.2227 H   0  0  0  0  0  0  0  0  0  0  0  0
    5.4767   -7.8345    0.6484 H   0  0  0  0  0  0  0  0  0  0  0  0
    3.9004   -9.2590    3.5681 H   0  0  0  0  0  0  0  0  0  0  0  0
    3.1979   -8.3900    5.4612 H   0  0  0  0  0  0  0  0  0  0  0  0
    3.4906   -6.7896    4.8964 H   0  0  0  0  0  0  0  0  0  0  0  0
    1.1471   -7.2758    5.8390 H   0  0  0  0  0  0  0  0  0  0  0  0
   -0.0669   -5.8960    4.4986 H   0  0  0  0  0  0  0  0  0  0  0  0
    2.3917   -5.6102    3.2095 H   0  0  0  0  0  0  0  0  0  0  0  0
   -1.3882   -7.9857    1.8124 H   0  0  0  0  0  0  0  0  0  0  0  0
   -0.9606   -6.2965    1.5654 H   0  0  0  0  0  0  0  0  0  0  0  0
   -1.7415   -6.7969    3.0483 H   0  0  0  0  0  0  0  0  0  0  0  0
    0.8623   -8.4354    1.1976 H   0  0  0  0  0  0  0  0  0  0  0  0
    2.1145   -6.7010    0.2668 H   0  0  0  0  0  0  0  0  0  0  0  0
    2.8878   -9.1095    1.3929 H   0  0  0  0  0  0  0  0  0  0  0  0
   -0.1518  -10.3700    3.4149 H   0  0  0  0  0  0  0  0  0  0  0  0
    0.8686  -10.3734    4.8471 H   0  0  0  0  0  0  0  0  0  0  0  0
    1.5450  -10.0246    3.2797 H   0  0  0  0  0  0  0  0  0  0  0  0
   -1.7583   -8.9314    4.3828 H   0  0  0  0  0  0  0  0  0  0  0  0
   -1.3384   -7.4754    5.2642 H   0  0  0  0  0  0  0  0  0  0  0  0
   -0.8314   -9.0406    5.8680 H   0  0  0  0  0  0  0  0  0  0  0  0
    2.2496   -2.7684   -0.7001 H   0  0  0  0  0  0  0  0  0  0  0  0
    1.5035   -1.7082    0.9619 H   0  0  0  0  0  0  0  0  0  0  0  0
    1.6103   -3.0005    2.1009 H   0  0  0  0  0  0  0  0  0  0  0  0
    2.7040   -0.1553    2.3358 H   0  0  0  0  0  0  0  0  0  0  0  0
    0.7827   -1.5989    3.7508 H   0  0  0  0  0  0  0  0  0  0  0  0
    3.5430   -0.6096    4.5525 H   0  0  0  0  0  0  0  0  0  0  0  0
    2.9323   -2.2615    4.5438 H   0  0  0  0  0  0  0  0  0  0  0  0
    5.3022   -0.0047    2.8730 H   0  0  0  0  0  0  0  0  0  0  0  0
    7.2477   -0.6926    1.6344 H   0  0  0  0  0  0  0  0  0  0  0  0
    6.9548   -2.3778    1.9457 H   0  0  0  0  0  0  0  0  0  0  0  0
    6.1457   -0.7144   -0.2662 H   0  0  0  0  0  0  0  0  0  0  0  0
    6.3824   -3.7267    0.0020 H   0  0  0  0  0  0  0  0  0  0  0  0
    7.5795   -2.6020   -0.6075 H   0  0  0  0  0  0  0  0  0  0  0  0
    6.1020   -2.8851   -1.5166 H   0  0  0  0  0  0  0  0  0  0  0  0
    4.0029   -0.6728    0.6798 H   0  0  0  0  0  0  0  0  0  0  0  0
    4.0376   -2.0256   -1.9911 H   0  0  0  0  0  0  0  0  0  0  0  0
    4.3580   -0.3325   -1.6290 H   0  0  0  0  0  0  0  0  0  0  0  0
    2.7809   -0.9933   -1.3420 H   0  0  0  0  0  0  0  0  0  0  0  0
  1  2  1  0
  1 35  1  0
  1 36  1  0
  1 37  1  0
  2 28  1  0
  2  3  2  0
  3  4  1  0
  3 22  1  0
  4  5  2  0
  4  6  1  0
  7  6  1  1
  7 18  1  0
  7  8  1  0
  7  9  1  0
  8 38  1  0
  8 39  1  0
  8 40  1  0
  9 18  1  0
  9 10  1  0
  9 41  1  1
 10 11  1  0
 10 42  1  0
 10 43  1  0
 11 19  1  0
 11 12  1  0
 11 44  1  1
 12 13  1  0
 12 14  1  0
 12 45  1  1
 13 46  1  0
 14 15  1  6
 14 16  1  0
 14 19  1  0
 15 47  1  0
 15 48  1  0
 15 49  1  0
 16 17  1  0
 16 18  1  0
 16 50  1  6
 17 51  1  0
 18 52  1  6
 19 20  1  0
 19 21  1  0
 20 53  1  0
 20 54  1  0
 20 55  1  0
 21 56  1  0
 21 57  1  0
 21 58  1  0
 22 33  1  0
 22 23  1  6
 22 24  1  0
 23 59  1  0
 24 25  1  0
 24 60  1  0
 24 61  1  0
 25 26  1  0
 25 27  1  0
 25 62  1  6
 26 63  1  0
 27 28  1  0
 27 64  1  0
 27 65  1  0
 28 29  2  3
 29 30  1  0
 29 66  1  0
 30 31  1  0
 30 67  1  0
 30 68  1  0
 31 32  1  0
 31 33  1  0
 31 69  1  6
 32 70  1  0
 32 71  1  0
 32 72  1  0
 33 34  1  0
 33 73  1  1
 34 74  1  0
 34 75  1  0
 34 76  1  0
M  END
>  <i_m_ct_stereo_status>  (15) 
1

>  <s_m_source_file>  (15) 
/var/tmp/pbs.5076255.sched01/tmpgq1_80gb/0xrgip9rw.sdf

>  <i_m_source_file_index>  (15) 
7

>  <i_lp_mmshare_version>  (15) 
48012

>  <i_f3d_flags>  (15) 
0

>  <s_epik_input>  (15) 
W0NIM11bQ0BASF0xW0NASF0oW0NIM10pW0NIMl0vW0NIXT1DKFtDSDJdW0NAQEhdKFtDSDJdMilbT0hdKVxDKFtDSDNdKT1DKFtDQF0xMltPSF0pQyg9TylPW0NAXTMoW0NIM10pW0NASF0oW0NAQEhdNFtPSF0pW0NAQEhdM1tDSDJdW0NASF0oQzUoW0NIM10pW0NIM10pW0NAQEhdKFtPSF0pW0NAQF00NVtDSDNd

>  <s_epik_cmdline>  (15) 
J2VwaWtfcHl0aG9uJywgJy1waHQnLCAnMi4wJywgJy1waCcsICc3LjAnLCAnLXRuJywgJzgnLCAnLW1hJywgJzIwMCcsICctaW1hZScsICc8aW5maWxlLm1hZT4nLCAnLW9tYWUnLCAnPG91dGZpbGUubWFlPic=

>  <r_lp_tautomer_probability>  (15) 
1

>  <r_epik_Ionization_Penalty>  (15) 
1.97379e-06

>  <r_epik_Ionization_Penalty_Charging>  (15) 
0

>  <r_epik_Ionization_Penalty_Neutral>  (15) 
1.97379e-06

>  <r_epik_State_Penalty>  (15) 
-0

>  <r_epik_Charging_Adjusted_Penalty>  (15) 
0

>  <i_epik_Tot_Q>  (15) 
0

>  <i_epik_Tot_abs_Q>  (15) 
0

>  <s_epik_Chemistry_Notes>  (15) 
This compound has an ester and may undergo hydrolysis at high or low pH.

>  <s_lp_Force_Field>  (15) 
OPLS3e

>  <r_lp_Energy>  (15) 
91.8216

>  <b_lp_Chiralities_Consistent>  (15) 
1

>  <s_lp_Variant>  (15) 
5:0-1

>  <s_i_glide_gridfile>  (15) 
pfpi4k_grid

>  <i_i_glide_lignum>  (15) 
7

>  <i_i_glide_rotatable_bonds>  (15) 
7

>  <r_i_docking_score>  (15) 
-2.3756

>  <r_i_glide_ligand_efficiency>  (15) 
-0.0698707

>  <r_i_glide_ligand_efficiency_sa>  (15) 
-0.226354

>  <r_i_glide_ligand_efficiency_ln>  (15) 
-0.524838

>  <r_i_glide_gscore>  (15) 
-2.3756

>  <r_i_glide_lipo>  (15) 
-0.42128

>  <r_i_glide_hbond>  (15) 
0

>  <r_i_glide_metal>  (15) 
-0

>  <r_i_glide_rewards>  (15) 
-0.709823

>  <r_i_glide_evdw>  (15) 
-24.324

>  <r_i_glide_ecoul>  (15) 
-1.9853

>  <r_i_glide_erotb>  (15) 
0.269491

>  <r_i_glide_esite>  (15) 
0

>  <r_i_glide_emodel>  (15) 
-36.6201

>  <r_i_glide_energy>  (15) 
-26.3093

>  <r_i_glide_einternal>  (15) 
1.16213

>  <r_i_glide_intrahb_reward>  (15) 
-0.5

>  <i_i_glide_confnum>  (15) 
5

>  <i_i_glide_posenum>  (15) 
22

>  <r_i_glide_eff_state_penalty>  (15) 
0

>  <ligand_id>  (15) 
5

>  <original_smiles>  (15) 
CC1=C(C(=O)OC2(C)C3CC4C(O)C(C)(C(O)C32)C4(C)C)C2(O)CC(O)CC1=CCC(C)C2C

>  <smiles>  (15) 
[H]OC1([H])C([H])([H])C2=C([H])C([H])([H])C([H])(C([H])([H])[H])C([H])(C([H])([H])[H])C(O[H])(C(C(=O)OC3(C([H])([H])[H])C4([H])C([H])([H])C5([H])C([H])(O[H])C(C([H])([H])[H])(C([H])(O[H])C43[H])C5(C([H])([H])[H])C([H])([H])[H])=C2C([H])([H])[H])C1([H])[H]

$$$$
5:1:0
     RDKit          3D

 76 80  0  0  1  0  0  0  0  0999 V2000
    4.7544   -5.8687    4.8801 C   0  0  0  0  0  0  0  0  0  0  0  0
    3.8977   -6.8587    4.1119 C   0  0  0  0  0  0  0  0  0  0  0  0
    2.6805   -6.6442    3.5330 C   0  0  0  0  0  0  0  0  0  0  0  0
    2.0891   -5.2859    3.6352 C   0  0  0  0  0  0  0  0  0  0  0  0
    1.4145   -4.9631    4.6100 O   0  0  0  0  0  0  0  0  0  0  0  0
    2.3761   -4.4832    2.5574 O   0  0  0  0  0  0  0  0  0  0  0  0
    2.3014   -3.0224    2.5739 C   0  0  1  0  0  0  0  0  0  0  0  0
    1.1555   -2.3750    3.3395 C   0  0  0  0  0  0  0  0  0  0  0  0
    3.6070   -2.2535    2.4963 C   0  0  1  0  0  0  0  0  0  0  0  0
    4.9242   -2.9724    2.6958 C   0  0  0  0  0  0  0  0  0  0  0  0
    5.7727   -3.2959    1.4542 C   0  0  1  0  0  0  0  0  0  0  0  0
    5.3141   -4.3848    0.4879 C   0  0  1  0  0  0  0  0  0  0  0  0
    4.5174   -5.4397    0.9757 O   0  0  0  0  0  0  0  0  0  0  0  0
    4.7088   -3.2685   -0.3811 C   0  0  1  0  0  0  0  0  0  0  0  0
    4.8664   -3.5011   -1.8961 C   0  0  0  0  0  0  0  0  0  0  0  0
    3.2092   -2.8928   -0.1185 C   0  0  1  0  0  0  0  0  0  0  0  0
    2.3217   -3.9110   -0.5446 O   0  0  0  0  0  0  0  0  0  0  0  0
    2.7275   -2.3450    1.2516 C   0  0  1  0  0  0  0  0  0  0  0  0
    5.8417   -2.3599    0.2350 C   0  0  0  0  0  0  0  0  0  0  0  0
    5.5788   -0.8595    0.4466 C   0  0  0  0  0  0  0  0  0  0  0  0
    7.2256   -2.3718   -0.4525 C   0  0  0  0  0  0  0  0  0  0  0  0
    1.8227   -7.7875    2.8543 C   0  0  1  0  0  0  0  0  0  0  0  0
    0.6969   -7.2185    2.1734 O   0  0  0  0  0  0  0  0  0  0  0  0
    2.5832   -8.4179    1.6409 C   0  0  0  0  0  0  0  0  0  0  0  0
    3.8491   -9.2800    1.8758 C   0  0  1  0  0  0  0  0  0  0  0  0
    4.4955   -9.4537    0.6428 O   0  0  0  0  0  0  0  0  0  0  0  0
    4.9007   -8.7602    2.8666 C   0  0  0  0  0  0  0  0  0  0  0  0
    4.3140   -8.2176    4.1421 C   0  0  0  0  0  0  0  0  0  0  0  0
    3.7041   -8.9339    5.0991 C   0  0  0  0  0  0  0  0  0  0  0  0
    3.1457  -10.3140    4.9066 C   0  0  0  0  0  0  0  0  0  0  0  0
    1.7647  -10.2353    4.1814 C   0  0  1  0  0  0  0  0  0  0  0  0
    0.7923  -11.1957    4.8744 C   0  0  0  0  0  0  0  0  0  0  0  0
    1.1140   -8.8225    3.8569 C   0  0  1  0  0  0  0  0  0  0  0  0
    0.4873   -8.1243    5.0909 C   0  0  0  0  0  0  0  0  0  0  0  0
    5.3249   -6.3814    5.6616 H   0  0  0  0  0  0  0  0  0  0  0  0
    4.1744   -5.0977    5.3812 H   0  0  0  0  0  0  0  0  0  0  0  0
    5.4685   -5.4109    4.1993 H   0  0  0  0  0  0  0  0  0  0  0  0
    1.2116   -1.2735    3.2702 H   0  0  0  0  0  0  0  0  0  0  0  0
    1.1429   -2.6374    4.4056 H   0  0  0  0  0  0  0  0  0  0  0  0
    0.2200   -2.6727    2.8842 H   0  0  0  0  0  0  0  0  0  0  0  0
    3.5635   -1.2990    3.0358 H   0  0  0  0  0  0  0  0  0  0  0  0
    5.5137   -2.3436    3.3762 H   0  0  0  0  0  0  0  0  0  0  0  0
    4.6464   -3.8891    3.2164 H   0  0  0  0  0  0  0  0  0  0  0  0
    6.7828   -3.5716    1.7538 H   0  0  0  0  0  0  0  0  0  0  0  0
    6.1722   -4.8520    0.0153 H   0  0  0  0  0  0  0  0  0  0  0  0
    4.1707   -5.8969    0.2247 H   0  0  0  0  0  0  0  0  0  0  0  0
    4.7056   -2.5781   -2.4477 H   0  0  0  0  0  0  0  0  0  0  0  0
    4.1723   -4.2454   -2.2800 H   0  0  0  0  0  0  0  0  0  0  0  0
    5.8645   -3.8672   -2.1438 H   0  0  0  0  0  0  0  0  0  0  0  0
    3.0166   -2.0731   -0.8161 H   0  0  0  0  0  0  0  0  0  0  0  0
    2.5631   -4.1752   -1.4197 H   0  0  0  0  0  0  0  0  0  0  0  0
    2.2106   -1.4038    1.0486 H   0  0  0  0  0  0  0  0  0  0  0  0
    5.6349   -0.3042   -0.4915 H   0  0  0  0  0  0  0  0  0  0  0  0
    6.2976   -0.4373    1.1496 H   0  0  0  0  0  0  0  0  0  0  0  0
    4.5999   -0.6512    0.8497 H   0  0  0  0  0  0  0  0  0  0  0  0
    7.1794   -1.8715   -1.4194 H   0  0  0  0  0  0  0  0  0  0  0  0
    7.6166   -3.3770   -0.6401 H   0  0  0  0  0  0  0  0  0  0  0  0
    7.9794   -1.8633    0.1559 H   0  0  0  0  0  0  0  0  0  0  0  0
    0.2931   -7.9003    1.6539 H   0  0  0  0  0  0  0  0  0  0  0  0
    1.8938   -9.0466    1.0650 H   0  0  0  0  0  0  0  0  0  0  0  0
    2.8724   -7.5935    0.9838 H   0  0  0  0  0  0  0  0  0  0  0  0
    3.5810  -10.2929    2.1533 H   0  0  0  0  0  0  0  0  0  0  0  0
    4.5364  -10.3991    0.4885 H   0  0  0  0  0  0  0  0  0  0  0  0
    5.6059   -9.5499    3.1128 H   0  0  0  0  0  0  0  0  0  0  0  0
    5.4883   -7.9670    2.3996 H   0  0  0  0  0  0  0  0  0  0  0  0
    3.2361   -8.3925    5.9088 H   0  0  0  0  0  0  0  0  0  0  0  0
    3.8547  -10.9213    4.3440 H   0  0  0  0  0  0  0  0  0  0  0  0
    3.0631  -10.7625    5.9019 H   0  0  0  0  0  0  0  0  0  0  0  0
    1.8913  -10.7011    3.2105 H   0  0  0  0  0  0  0  0  0  0  0  0
    0.6101  -10.9130    5.9111 H   0  0  0  0  0  0  0  0  0  0  0  0
    1.2008  -12.2061    4.8744 H   0  0  0  0  0  0  0  0  0  0  0  0
   -0.1602  -11.2232    4.3508 H   0  0  0  0  0  0  0  0  0  0  0  0
    0.2287   -9.1543    3.3112 H   0  0  0  0  0  0  0  0  0  0  0  0
    1.2264   -7.7222    5.7801 H   0  0  0  0  0  0  0  0  0  0  0  0
   -0.1489   -8.7995    5.6604 H   0  0  0  0  0  0  0  0  0  0  0  0
   -0.1532   -7.2932    4.7925 H   0  0  0  0  0  0  0  0  0  0  0  0
  1  2  1  0
  1 35  1  0
  1 36  1  0
  1 37  1  0
  2 28  1  0
  2  3  2  0
  3  4  1  0
  3 22  1  0
  4  5  2  0
  4  6  1  0
  7  6  1  6
  7 18  1  0
  7  8  1  0
  7  9  1  0
  8 38  1  0
  8 39  1  0
  8 40  1  0
  9 18  1  0
  9 10  1  0
  9 41  1  1
 10 11  1  0
 10 42  1  0
 10 43  1  0
 11 19  1  0
 11 12  1  0
 11 44  1  1
 12 13  1  0
 12 14  1  0
 12 45  1  6
 13 46  1  0
 14 15  1  6
 14 16  1  0
 14 19  1  0
 15 47  1  0
 15 48  1  0
 15 49  1  0
 16 17  1  0
 16 18  1  0
 16 50  1  6
 17 51  1  0
 18 52  1  6
 19 20  1  0
 19 21  1  0
 20 53  1  0
 20 54  1  0
 20 55  1  0
 21 56  1  0
 21 57  1  0
 21 58  1  0
 22 33  1  0
 22 23  1  6
 22 24  1  0
 23 59  1  0
 24 25  1  0
 24 60  1  0
 24 61  1  0
 25 26  1  0
 25 27  1  0
 25 62  1  1
 26 63  1  0
 27 28  1  0
 27 64  1  0
 27 65  1  0
 28 29  2  3
 29 30  1  0
 29 66  1  0
 30 31  1  0
 30 67  1  0
 30 68  1  0
 31 32  1  0
 31 33  1  0
 31 69  1  6
 32 70  1  0
 32 71  1  0
 32 72  1  0
 33 34  1  0
 33 73  1  6
 34 74  1  0
 34 75  1  0
 34 76  1  0
M  END
>  <i_m_ct_stereo_status>  (16) 
1

>  <s_m_source_file>  (16) 
/var/tmp/pbs.5076255.sched01/tmpgq1_80gb/0xrgip9rw.sdf

>  <i_m_source_file_index>  (16) 
8

>  <i_lp_mmshare_version>  (16) 
48012

>  <i_f3d_flags>  (16) 
0

>  <s_epik_input>  (16) 
W0NIM11bQ0BASF0xW0NASF0oW0NIM10pW0NIMl0vW0NIXT1DKFtDSDJdW0NAQEhdKFtDSDJdMilbT0hdKVxDKFtDSDNdKT1DKFtDQF0xMltPSF0pQyg9TylPW0NAXTMoW0NIM10pW0NASF0oW0NAQEhdNFtPSF0pW0NAQEhdM1tDSDJdW0NASF0oQzUoW0NIM10pW0NIM10pW0NAQEhdKFtPSF0pW0NAQF00NVtDSDNd

>  <s_epik_cmdline>  (16) 
J2VwaWtfcHl0aG9uJywgJy1waHQnLCAnMi4wJywgJy1waCcsICc3LjAnLCAnLXRuJywgJzgnLCAnLW1hJywgJzIwMCcsICctaW1hZScsICc8aW5maWxlLm1hZT4nLCAnLW9tYWUnLCAnPG91dGZpbGUubWFlPic=

>  <r_lp_tautomer_probability>  (16) 
1

>  <r_epik_Ionization_Penalty>  (16) 
1.97379e-06

>  <r_epik_Ionization_Penalty_Charging>  (16) 
0

>  <r_epik_Ionization_Penalty_Neutral>  (16) 
1.97379e-06

>  <r_epik_State_Penalty>  (16) 
-0

>  <r_epik_Charging_Adjusted_Penalty>  (16) 
0

>  <i_epik_Tot_Q>  (16) 
0

>  <i_epik_Tot_abs_Q>  (16) 
0

>  <s_epik_Chemistry_Notes>  (16) 
This compound has an ester and may undergo hydrolysis at high or low pH.

>  <s_lp_Force_Field>  (16) 
OPLS3e

>  <r_lp_Energy>  (16) 
104.236

>  <b_lp_Chiralities_Consistent>  (16) 
1

>  <s_lp_Variant>  (16) 
5:0-2

>  <s_i_glide_gridfile>  (16) 
pfpi4k_grid

>  <i_i_glide_lignum>  (16) 
8

>  <i_i_glide_rotatable_bonds>  (16) 
7

>  <r_i_docking_score>  (16) 
-3.25052

>  <r_i_glide_ligand_efficiency>  (16) 
-0.0956036

>  <r_i_glide_ligand_efficiency_sa>  (16) 
-0.309719

>  <r_i_glide_ligand_efficiency_ln>  (16) 
-0.718132

>  <r_i_glide_gscore>  (16) 
-3.25052

>  <r_i_glide_lipo>  (16) 
-0.477543

>  <r_i_glide_hbond>  (16) 
-0.16

>  <r_i_glide_metal>  (16) 
-0

>  <r_i_glide_rewards>  (16) 
-0.172981

>  <r_i_glide_evdw>  (16) 
-25.4999

>  <r_i_glide_ecoul>  (16) 
-9.56005

>  <r_i_glide_erotb>  (16) 
0.269491

>  <r_i_glide_esite>  (16) 
-0.000488121

>  <r_i_glide_emodel>  (16) 
-36.864

>  <r_i_glide_energy>  (16) 
-35.0599

>  <r_i_glide_einternal>  (16) 
9.95309

>  <r_i_glide_intrahb_reward>  (16) 
-0

>  <i_i_glide_confnum>  (16) 
1

>  <i_i_glide_posenum>  (16) 
27

>  <r_i_glide_eff_state_penalty>  (16) 
0

>  <ligand_id>  (16) 
5

>  <original_smiles>  (16) 
CC1=C(C(=O)OC2(C)C3CC4C(O)C(C)(C(O)C32)C4(C)C)C2(O)CC(O)CC1=CCC(C)C2C

>  <smiles>  (16) 
[H]OC1([H])C([H])([H])C2=C([H])C([H])([H])C([H])(C([H])([H])[H])C([H])(C([H])([H])[H])C(O[H])(C(C(=O)OC3(C([H])([H])[H])C4([H])C([H])([H])C5([H])C([H])(O[H])C(C([H])([H])[H])(C([H])(O[H])C43[H])C5(C([H])([H])[H])C([H])([H])[H])=C2C([H])([H])[H])C1([H])[H]

$$$$
5:1:1
     RDKit          3D

 76 80  0  0  1  0  0  0  0  0999 V2000
    5.5642   -4.0895    3.9670 C   0  0  0  0  0  0  0  0  0  0  0  0
    4.8818   -3.6121    2.6871 C   0  0  0  0  0  0  0  0  0  0  0  0
    4.3950   -4.3956    1.6825 C   0  0  0  0  0  0  0  0  0  0  0  0
    4.5930   -5.8711    1.7428 C   0  0  0  0  0  0  0  0  0  0  0  0
    5.6834   -6.3826    1.9860 O   0  0  0  0  0  0  0  0  0  0  0  0
    3.4670   -6.6291    1.5506 O   0  0  0  0  0  0  0  0  0  0  0  0
    3.5128   -8.0563    1.5361 C   0  0  1  0  0  0  0  0  0  0  0  0
    4.4841   -8.6810    0.5226 C   0  0  0  0  0  0  0  0  0  0  0  0
    3.3064   -8.7430    2.8593 C   0  0  1  0  0  0  0  0  0  0  0  0
    3.3161   -7.9874    4.1805 C   0  0  0  0  0  0  0  0  0  0  0  0
    1.9604   -7.6495    4.8063 C   0  0  1  0  0  0  0  0  0  0  0  0
    1.0748   -6.5892    4.1696 C   0  0  1  0  0  0  0  0  0  0  0  0
    1.6628   -5.5788    3.4183 O   0  0  0  0  0  0  0  0  0  0  0  0
    0.2880   -7.7135    3.4777 C   0  0  1  0  0  0  0  0  0  0  0  0
   -1.2329   -7.4847    3.3762 C   0  0  0  0  0  0  0  0  0  0  0  0
    0.7627   -8.1464    2.0532 C   0  0  1  0  0  0  0  0  0  0  0  0
    0.4551   -7.1809    1.0654 O   0  0  0  0  0  0  0  0  0  0  0  0
    2.1794   -8.7486    1.8296 C   0  0  1  0  0  0  0  0  0  0  0  0
    0.7477   -8.5927    4.7010 C   0  0  0  0  0  0  0  0  0  0  0  0
    0.9702  -10.1076    4.5273 C   0  0  0  0  0  0  0  0  0  0  0  0
   -0.1400   -8.5588    5.9494 C   0  0  0  0  0  0  0  0  0  0  0  0
    3.6355   -3.7683    0.4293 C   0  0  1  0  0  0  0  0  0  0  0  0
    2.9298   -4.7458   -0.3191 O   0  0  0  0  0  0  0  0  0  0  0  0
    2.3804   -2.9726    0.8878 C   0  0  0  0  0  0  0  0  0  0  0  0
    2.4521   -1.6093    1.5977 C   0  0  1  0  0  0  0  0  0  0  0  0
    1.1886   -1.2217    2.0666 O   0  0  0  0  0  0  0  0  0  0  0  0
    3.4278   -1.5474    2.7627 C   0  0  0  0  0  0  0  0  0  0  0  0
    4.7556   -2.2095    2.4524 C   0  0  0  0  0  0  0  0  0  0  0  0
    5.6707   -1.7275    1.5994 C   0  0  0  0  0  0  0  0  0  0  0  0
    5.3798   -0.7502    0.5046 C   0  0  0  0  0  0  0  0  0  0  0  0
    4.7049   -1.4939   -0.7008 C   0  0  1  0  0  0  0  0  0  0  0  0
    5.3469   -1.0494   -2.0171 C   0  0  0  0  0  0  0  0  0  0  0  0
    4.5575   -3.0673   -0.6641 C   0  0  1  0  0  0  0  0  0  0  0  0
    5.8674   -3.8530   -0.9029 C   0  0  0  0  0  0  0  0  0  0  0  0
    6.0254   -3.2319    4.4563 H   0  0  0  0  0  0  0  0  0  0  0  0
    6.3523   -4.8232    3.7974 H   0  0  0  0  0  0  0  0  0  0  0  0
    4.8416   -4.4920    4.6708 H   0  0  0  0  0  0  0  0  0  0  0  0
    4.5067   -9.7637    0.6135 H   0  0  0  0  0  0  0  0  0  0  0  0
    5.5218   -8.3723    0.6465 H   0  0  0  0  0  0  0  0  0  0  0  0
    4.2322   -8.4185   -0.4902 H   0  0  0  0  0  0  0  0  0  0  0  0
    3.8047   -9.6976    2.9718 H   0  0  0  0  0  0  0  0  0  0  0  0
    3.8852   -8.6009    4.8851 H   0  0  0  0  0  0  0  0  0  0  0  0
    3.9323   -7.0907    4.0920 H   0  0  0  0  0  0  0  0  0  0  0  0
    2.0853   -7.3490    5.8514 H   0  0  0  0  0  0  0  0  0  0  0  0
    0.4608   -6.1120    4.9268 H   0  0  0  0  0  0  0  0  0  0  0  0
    2.2686   -6.0065    2.8034 H   0  0  0  0  0  0  0  0  0  0  0  0
   -1.7550   -8.4167    3.1702 H   0  0  0  0  0  0  0  0  0  0  0  0
   -1.5017   -6.7623    2.6090 H   0  0  0  0  0  0  0  0  0  0  0  0
   -1.6233   -7.0947    4.3149 H   0  0  0  0  0  0  0  0  0  0  0  0
    0.0877   -8.9704    1.7953 H   0  0  0  0  0  0  0  0  0  0  0  0
    0.4247   -7.6625    0.2397 H   0  0  0  0  0  0  0  0  0  0  0  0
    2.0685   -9.6703    1.2919 H   0  0  0  0  0  0  0  0  0  0  0  0
    0.0181  -10.6421    4.4788 H   0  0  0  0  0  0  0  0  0  0  0  0
    1.5310  -10.5146    5.3724 H   0  0  0  0  0  0  0  0  0  0  0  0
    1.5061  -10.3758    3.6250 H   0  0  0  0  0  0  0  0  0  0  0  0
   -1.0905   -9.0570    5.7771 H   0  0  0  0  0  0  0  0  0  0  0  0
   -0.3473   -7.5326    6.2734 H   0  0  0  0  0  0  0  0  0  0  0  0
    0.3442   -9.0519    6.7999 H   0  0  0  0  0  0  0  0  0  0  0  0
    3.4015   -4.9104   -1.1477 H   0  0  0  0  0  0  0  0  0  0  0  0
    1.8108   -2.7861   -0.0187 H   0  0  0  0  0  0  0  0  0  0  0  0
    1.8283   -3.6486    1.5354 H   0  0  0  0  0  0  0  0  0  0  0  0
    2.6488   -0.8157    0.8985 H   0  0  0  0  0  0  0  0  0  0  0  0
    0.7023   -0.8903    1.3082 H   0  0  0  0  0  0  0  0  0  0  0  0
    3.5850   -0.5044    3.0328 H   0  0  0  0  0  0  0  0  0  0  0  0
    2.9938   -2.0403    3.6376 H   0  0  0  0  0  0  0  0  0  0  0  0
    6.5438   -2.3279    1.4057 H   0  0  0  0  0  0  0  0  0  0  0  0
    4.7366    0.0632    0.8459 H   0  0  0  0  0  0  0  0  0  0  0  0
    6.3212   -0.2739    0.2092 H   0  0  0  0  0  0  0  0  0  0  0  0
    3.6922   -1.1130   -0.8118 H   0  0  0  0  0  0  0  0  0  0  0  0
    6.3931   -1.3574   -2.0136 H   0  0  0  0  0  0  0  0  0  0  0  0
    5.2701    0.0368   -2.1447 H   0  0  0  0  0  0  0  0  0  0  0  0
    4.8647   -1.5068   -2.8901 H   0  0  0  0  0  0  0  0  0  0  0  0
    4.0223   -3.2066   -1.6067 H   0  0  0  0  0  0  0  0  0  0  0  0
    6.5583   -3.8141   -0.0625 H   0  0  0  0  0  0  0  0  0  0  0  0
    6.4019   -3.5138   -1.7880 H   0  0  0  0  0  0  0  0  0  0  0  0
    5.6272   -4.9024   -1.0647 H   0  0  0  0  0  0  0  0  0  0  0  0
  1  2  1  0
  1 35  1  0
  1 36  1  0
  1 37  1  0
  2 28  1  0
  2  3  2  0
  3  4  1  0
  3 22  1  0
  4  5  2  0
  4  6  1  0
  7  6  1  1
  7 18  1  0
  7  8  1  0
  7  9  1  0
  8 38  1  0
  8 39  1  0
  8 40  1  0
  9 18  1  0
  9 10  1  0
  9 41  1  1
 10 11  1  0
 10 42  1  0
 10 43  1  0
 11 19  1  0
 11 12  1  0
 11 44  1  1
 12 13  1  0
 12 14  1  0
 12 45  1  1
 13 46  1  0
 14 15  1  6
 14 16  1  0
 14 19  1  0
 15 47  1  0
 15 48  1  0
 15 49  1  0
 16 17  1  0
 16 18  1  0
 16 50  1  6
 17 51  1  0
 18 52  1  6
 19 20  1  0
 19 21  1  0
 20 53  1  0
 20 54  1  0
 20 55  1  0
 21 56  1  0
 21 57  1  0
 21 58  1  0
 22 33  1  0
 22 23  1  6
 22 24  1  0
 23 59  1  0
 24 25  1  0
 24 60  1  0
 24 61  1  0
 25 26  1  0
 25 27  1  0
 25 62  1  6
 26 63  1  0
 27 28  1  0
 27 64  1  0
 27 65  1  0
 28 29  2  3
 29 30  1  0
 29 66  1  0
 30 31  1  0
 30 67  1  0
 30 68  1  0
 31 32  1  0
 31 33  1  0
 31 69  1  6
 32 70  1  0
 32 71  1  0
 32 72  1  0
 33 34  1  0
 33 73  1  6
 34 74  1  0
 34 75  1  0
 34 76  1  0
M  END
>  <i_m_ct_stereo_status>  (17) 
1

>  <s_m_source_file>  (17) 
/var/tmp/pbs.5076255.sched01/tmpgq1_80gb/0xrgip9rw.sdf

>  <i_m_source_file_index>  (17) 
8

>  <i_lp_mmshare_version>  (17) 
48012

>  <i_f3d_flags>  (17) 
0

>  <s_epik_input>  (17) 
W0NIM11bQ0BASF0xW0NASF0oW0NIM10pW0NIMl0vW0NIXT1DKFtDSDJdW0NAQEhdKFtDSDJdMilbT0hdKVxDKFtDSDNdKT1DKFtDQF0xMltPSF0pQyg9TylPW0NAXTMoW0NIM10pW0NASF0oW0NAQEhdNFtPSF0pW0NAQEhdM1tDSDJdW0NASF0oQzUoW0NIM10pW0NIM10pW0NAQEhdKFtPSF0pW0NAQF00NVtDSDNd

>  <s_epik_cmdline>  (17) 
J2VwaWtfcHl0aG9uJywgJy1waHQnLCAnMi4wJywgJy1waCcsICc3LjAnLCAnLXRuJywgJzgnLCAnLW1hJywgJzIwMCcsICctaW1hZScsICc8aW5maWxlLm1hZT4nLCAnLW9tYWUnLCAnPG91dGZpbGUubWFlPic=

>  <r_lp_tautomer_probability>  (17) 
1

>  <r_epik_Ionization_Penalty>  (17) 
1.97379e-06

>  <r_epik_Ionization_Penalty_Charging>  (17) 
0

>  <r_epik_Ionization_Penalty_Neutral>  (17) 
1.97379e-06

>  <r_epik_State_Penalty>  (17) 
-0

>  <r_epik_Charging_Adjusted_Penalty>  (17) 
0

>  <i_epik_Tot_Q>  (17) 
0

>  <i_epik_Tot_abs_Q>  (17) 
0

>  <s_epik_Chemistry_Notes>  (17) 
This compound has an ester and may undergo hydrolysis at high or low pH.

>  <s_lp_Force_Field>  (17) 
OPLS3e

>  <r_lp_Energy>  (17) 
104.236

>  <b_lp_Chiralities_Consistent>  (17) 
1

>  <s_lp_Variant>  (17) 
5:0-2

>  <s_i_glide_gridfile>  (17) 
pfpi4k_grid

>  <i_i_glide_lignum>  (17) 
8

>  <i_i_glide_rotatable_bonds>  (17) 
7

>  <r_i_docking_score>  (17) 
-3.14489

>  <r_i_glide_ligand_efficiency>  (17) 
-0.0924968

>  <r_i_glide_ligand_efficiency_sa>  (17) 
-0.299654

>  <r_i_glide_ligand_efficiency_ln>  (17) 
-0.694795

>  <r_i_glide_gscore>  (17) 
-3.14489

>  <r_i_glide_lipo>  (17) 
-0.433869

>  <r_i_glide_hbond>  (17) 
-0.117409

>  <r_i_glide_metal>  (17) 
-0

>  <r_i_glide_rewards>  (17) 
-0.720972

>  <r_i_glide_evdw>  (17) 
-26.3054

>  <r_i_glide_ecoul>  (17) 
-5.51241

>  <r_i_glide_erotb>  (17) 
0.269491

>  <r_i_glide_esite>  (17) 
0

>  <r_i_glide_emodel>  (17) 
-40.5734

>  <r_i_glide_energy>  (17) 
-31.8178

>  <r_i_glide_einternal>  (17) 
6.07134

>  <r_i_glide_intrahb_reward>  (17) 
-0.5

>  <i_i_glide_confnum>  (17) 
2

>  <i_i_glide_posenum>  (17) 
20

>  <r_i_glide_eff_state_penalty>  (17) 
0

>  <ligand_id>  (17) 
5

>  <original_smiles>  (17) 
CC1=C(C(=O)OC2(C)C3CC4C(O)C(C)(C(O)C32)C4(C)C)C2(O)CC(O)CC1=CCC(C)C2C

>  <smiles>  (17) 
[H]OC1([H])C([H])([H])C2=C([H])C([H])([H])C([H])(C([H])([H])[H])C([H])(C([H])([H])[H])C(O[H])(C(C(=O)OC3(C([H])([H])[H])C4([H])C([H])([H])C5([H])C([H])(O[H])C(C([H])([H])[H])(C([H])(O[H])C43[H])C5(C([H])([H])[H])C([H])([H])[H])=C2C([H])([H])[H])C1([H])[H]

$$$$
5:1:2
     RDKit          3D

 76 80  0  0  1  0  0  0  0  0999 V2000
    5.8656   -5.0419    4.5436 C   0  0  0  0  0  0  0  0  0  0  0  0
    4.9210   -4.2394    3.6605 C   0  0  0  0  0  0  0  0  0  0  0  0
    4.4095   -4.6502    2.4686 C   0  0  0  0  0  0  0  0  0  0  0  0
    4.7081   -6.0190    1.9721 C   0  0  0  0  0  0  0  0  0  0  0  0
    5.3333   -6.1953    0.9272 O   0  0  0  0  0  0  0  0  0  0  0  0
    4.1907   -7.0103    2.7771 O   0  0  0  0  0  0  0  0  0  0  0  0
    3.9801   -8.3747    2.3510 C   0  0  1  0  0  0  0  0  0  0  0  0
    4.8803   -8.9265    1.2438 C   0  0  0  0  0  0  0  0  0  0  0  0
    3.5865   -9.3704    3.4284 C   0  0  1  0  0  0  0  0  0  0  0  0
    3.6868   -9.0871    4.9206 C   0  0  0  0  0  0  0  0  0  0  0  0
    2.4015   -8.6916    5.6549 C   0  0  1  0  0  0  0  0  0  0  0  0
    1.7898   -7.3231    5.3864 C   0  0  1  0  0  0  0  0  0  0  0  0
    2.6151   -6.2836    4.9268 O   0  0  0  0  0  0  0  0  0  0  0  0
    0.8213   -7.9936    4.4019 C   0  0  1  0  0  0  0  0  0  0  0  0
   -0.5970   -7.3977    4.4233 C   0  0  0  0  0  0  0  0  0  0  0  0
    1.2574   -8.0713    2.8970 C   0  0  1  0  0  0  0  0  0  0  0  0
    1.2418   -6.8032    2.2714 O   0  0  0  0  0  0  0  0  0  0  0  0
    2.5288   -8.8443    2.4654 C   0  0  1  0  0  0  0  0  0  0  0  0
    1.0104   -9.2791    5.2955 C   0  0  0  0  0  0  0  0  0  0  0  0
    0.9288  -10.6719    4.6371 C   0  0  0  0  0  0  0  0  0  0  0  0
    0.0795   -9.4264    6.5246 C   0  0  0  0  0  0  0  0  0  0  0  0
    3.4532   -3.7670    1.5776 C   0  0  1  0  0  0  0  0  0  0  0  0
    2.8495   -4.5765    0.5660 O   0  0  0  0  0  0  0  0  0  0  0  0
    2.1610   -3.3509    2.3630 C   0  0  0  0  0  0  0  0  0  0  0  0
    2.1945   -2.3504    3.5403 C   0  0  1  0  0  0  0  0  0  0  0  0
    0.9494   -2.4098    4.2022 O   0  0  0  0  0  0  0  0  0  0  0  0
    3.2988   -2.5471    4.5847 C   0  0  0  0  0  0  0  0  0  0  0  0
    4.6389   -2.8690    3.9731 C   0  0  0  0  0  0  0  0  0  0  0  0
    5.3814   -2.0071    3.2539 C   0  0  0  0  0  0  0  0  0  0  0  0
    4.8784   -0.7614    2.6081 C   0  0  0  0  0  0  0  0  0  0  0  0
    4.1657   -1.1167    1.2627 C   0  0  1  0  0  0  0  0  0  0  0  0
    4.6135   -0.1254    0.1832 C   0  0  0  0  0  0  0  0  0  0  0  0
    4.1596   -2.6106    0.7317 C   0  0  1  0  0  0  0  0  0  0  0  0
    5.5047   -3.0601    0.1035 C   0  0  0  0  0  0  0  0  0  0  0  0
    6.4151   -4.3738    5.2082 H   0  0  0  0  0  0  0  0  0  0  0  0
    6.6019   -5.5896    3.9541 H   0  0  0  0  0  0  0  0  0  0  0  0
    5.3147   -5.7491    5.1603 H   0  0  0  0  0  0  0  0  0  0  0  0
    4.7083   -9.9872    1.0807 H   0  0  0  0  0  0  0  0  0  0  0  0
    5.9359   -8.8001    1.4900 H   0  0  0  0  0  0  0  0  0  0  0  0
    4.6674   -8.4409    0.2925 H   0  0  0  0  0  0  0  0  0  0  0  0
    3.8758  -10.4009    3.2280 H   0  0  0  0  0  0  0  0  0  0  0  0
    4.0569  -10.0063    5.3821 H   0  0  0  0  0  0  0  0  0  0  0  0
    4.4809   -8.3599    5.0963 H   0  0  0  0  0  0  0  0  0  0  0  0
    2.5519   -8.7933    6.7333 H   0  0  0  0  0  0  0  0  0  0  0  0
    1.2745   -6.9615    6.2743 H   0  0  0  0  0  0  0  0  0  0  0  0
    3.1933   -6.6655    4.2803 H   0  0  0  0  0  0  0  0  0  0  0  0
   -1.3146   -8.0614    3.9430 H   0  0  0  0  0  0  0  0  0  0  0  0
   -0.6453   -6.4201    3.9449 H   0  0  0  0  0  0  0  0  0  0  0  0
   -0.9445   -7.2353    5.4409 H   0  0  0  0  0  0  0  0  0  0  0  0
    0.4488   -8.6038    2.3933 H   0  0  0  0  0  0  0  0  0  0  0  0
    1.9871   -6.3159    2.5923 H   0  0  0  0  0  0  0  0  0  0  0  0
    2.2650   -9.5309    1.6667 H   0  0  0  0  0  0  0  0  0  0  0  0
   -0.1024  -10.9464    4.4112 H   0  0  0  0  0  0  0  0  0  0  0  0
    1.3383  -11.4465    5.2891 H   0  0  0  0  0  0  0  0  0  0  0  0
    1.4566  -10.7561    3.6936 H   0  0  0  0  0  0  0  0  0  0  0  0
   -0.9529   -9.6132    6.2338 H   0  0  0  0  0  0  0  0  0  0  0  0
    0.0531   -8.5409    7.1605 H   0  0  0  0  0  0  0  0  0  0  0  0
    0.3853  -10.2575    7.1654 H   0  0  0  0  0  0  0  0  0  0  0  0
    3.5013   -4.7799   -0.0925 H   0  0  0  0  0  0  0  0  0  0  0  0
    1.4552   -2.9114    1.6604 H   0  0  0  0  0  0  0  0  0  0  0  0
    1.6965   -4.2680    2.7271 H   0  0  0  0  0  0  0  0  0  0  0  0
    2.2328   -1.3351    3.1649 H   0  0  0  0  0  0  0  0  0  0  0  0
    0.8729   -3.2642    4.6017 H   0  0  0  0  0  0  0  0  0  0  0  0
    3.3877   -1.6546    5.2020 H   0  0  0  0  0  0  0  0  0  0  0  0
    3.0379   -3.3686    5.2550 H   0  0  0  0  0  0  0  0  0  0  0  0
    6.2534   -2.3908    2.7626 H   0  0  0  0  0  0  0  0  0  0  0  0
    4.2155   -0.2080    3.2716 H   0  0  0  0  0  0  0  0  0  0  0  0
    5.7440   -0.1166    2.4398 H   0  0  0  0  0  0  0  0  0  0  0  0
    3.1153   -0.8611    1.3763 H   0  0  0  0  0  0  0  0  0  0  0  0
    5.6893   -0.1734    0.0050 H   0  0  0  0  0  0  0  0  0  0  0  0
    4.3729    0.8919    0.4992 H   0  0  0  0  0  0  0  0  0  0  0  0
    4.1022   -0.2990   -0.7651 H   0  0  0  0  0  0  0  0  0  0  0  0
    3.5135   -2.4951   -0.1411 H   0  0  0  0  0  0  0  0  0  0  0  0
    6.2816   -3.2373    0.8432 H   0  0  0  0  0  0  0  0  0  0  0  0
    5.8917   -2.3327   -0.6091 H   0  0  0  0  0  0  0  0  0  0  0  0
    5.3834   -3.9853   -0.4594 H   0  0  0  0  0  0  0  0  0  0  0  0
  1  2  1  0
  1 35  1  0
  1 36  1  0
  1 37  1  0
  2 28  1  0
  2  3  2  0
  3  4  1  0
  3 22  1  0
  4  5  2  0
  4  6  1  0
  7  6  1  1
  7 18  1  0
  7  8  1  0
  7  9  1  0
  8 38  1  0
  8 39  1  0
  8 40  1  0
  9 18  1  0
  9 10  1  0
  9 41  1  1
 10 11  1  0
 10 42  1  0
 10 43  1  0
 11 19  1  0
 11 12  1  0
 11 44  1  1
 12 13  1  0
 12 14  1  0
 12 45  1  1
 13 46  1  0
 14 15  1  6
 14 16  1  0
 14 19  1  0
 15 47  1  0
 15 48  1  0
 15 49  1  0
 16 17  1  0
 16 18  1  0
 16 50  1  6
 17 51  1  0
 18 52  1  6
 19 20  1  0
 19 21  1  0
 20 53  1  0
 20 54  1  0
 20 55  1  0
 21 56  1  0
 21 57  1  0
 21 58  1  0
 22 33  1  0
 22 23  1  6
 22 24  1  0
 23 59  1  0
 24 25  1  0
 24 60  1  0
 24 61  1  0
 25 26  1  0
 25 27  1  0
 25 62  1  6
 26 63  1  0
 27 28  1  0
 27 64  1  0
 27 65  1  0
 28 29  2  3
 29 30  1  0
 29 66  1  0
 30 31  1  0
 30 67  1  0
 30 68  1  0
 31 32  1  0
 31 33  1  0
 31 69  1  1
 32 70  1  0
 32 71  1  0
 32 72  1  0
 33 34  1  0
 33 73  1  6
 34 74  1  0
 34 75  1  0
 34 76  1  0
M  END
>  <i_m_ct_stereo_status>  (18) 
1

>  <s_m_source_file>  (18) 
/var/tmp/pbs.5076255.sched01/tmpgq1_80gb/0xrgip9rw.sdf

>  <i_m_source_file_index>  (18) 
8

>  <i_lp_mmshare_version>  (18) 
48012

>  <i_f3d_flags>  (18) 
0

>  <s_epik_input>  (18) 
W0NIM11bQ0BASF0xW0NASF0oW0NIM10pW0NIMl0vW0NIXT1DKFtDSDJdW0NAQEhdKFtDSDJdMilbT0hdKVxDKFtDSDNdKT1DKFtDQF0xMltPSF0pQyg9TylPW0NAXTMoW0NIM10pW0NASF0oW0NAQEhdNFtPSF0pW0NAQEhdM1tDSDJdW0NASF0oQzUoW0NIM10pW0NIM10pW0NAQEhdKFtPSF0pW0NAQF00NVtDSDNd

>  <s_epik_cmdline>  (18) 
J2VwaWtfcHl0aG9uJywgJy1waHQnLCAnMi4wJywgJy1waCcsICc3LjAnLCAnLXRuJywgJzgnLCAnLW1hJywgJzIwMCcsICctaW1hZScsICc8aW5maWxlLm1hZT4nLCAnLW9tYWUnLCAnPG91dGZpbGUubWFlPic=

>  <r_lp_tautomer_probability>  (18) 
1

>  <r_epik_Ionization_Penalty>  (18) 
1.97379e-06

>  <r_epik_Ionization_Penalty_Charging>  (18) 
0

>  <r_epik_Ionization_Penalty_Neutral>  (18) 
1.97379e-06

>  <r_epik_State_Penalty>  (18) 
-0

>  <r_epik_Charging_Adjusted_Penalty>  (18) 
0

>  <i_epik_Tot_Q>  (18) 
0

>  <i_epik_Tot_abs_Q>  (18) 
0

>  <s_epik_Chemistry_Notes>  (18) 
This compound has an ester and may undergo hydrolysis at high or low pH.

>  <s_lp_Force_Field>  (18) 
OPLS3e

>  <r_lp_Energy>  (18) 
104.236

>  <b_lp_Chiralities_Consistent>  (18) 
1

>  <s_lp_Variant>  (18) 
5:0-2

>  <s_i_glide_gridfile>  (18) 
pfpi4k_grid

>  <i_i_glide_lignum>  (18) 
8

>  <i_i_glide_rotatable_bonds>  (18) 
7

>  <r_i_docking_score>  (18) 
-2.68732

>  <r_i_glide_ligand_efficiency>  (18) 
-0.0790387

>  <r_i_glide_ligand_efficiency_sa>  (18) 
-0.256055

>  <r_i_glide_ligand_efficiency_ln>  (18) 
-0.593703

>  <r_i_glide_gscore>  (18) 
-2.68732

>  <r_i_glide_lipo>  (18) 
-0.342378

>  <r_i_glide_hbond>  (18) 
0

>  <r_i_glide_metal>  (18) 
-0

>  <r_i_glide_rewards>  (18) 
-1.20792

>  <r_i_glide_evdw>  (18) 
-22.0752

>  <r_i_glide_ecoul>  (18) 
-2.01835

>  <r_i_glide_erotb>  (18) 
0.269491

>  <r_i_glide_esite>  (18) 
0

>  <r_i_glide_emodel>  (18) 
-37.879

>  <r_i_glide_energy>  (18) 
-24.0935

>  <r_i_glide_einternal>  (18) 
5.54156

>  <r_i_glide_intrahb_reward>  (18) 
-1

>  <i_i_glide_confnum>  (18) 
2

>  <i_i_glide_posenum>  (18) 
22

>  <r_i_glide_eff_state_penalty>  (18) 
0

>  <ligand_id>  (18) 
5

>  <original_smiles>  (18) 
CC1=C(C(=O)OC2(C)C3CC4C(O)C(C)(C(O)C32)C4(C)C)C2(O)CC(O)CC1=CCC(C)C2C

>  <smiles>  (18) 
[H]OC1([H])C([H])([H])C2=C([H])C([H])([H])C([H])(C([H])([H])[H])C([H])(C([H])([H])[H])C(O[H])(C(C(=O)OC3(C([H])([H])[H])C4([H])C([H])([H])C5([H])C([H])(O[H])C(C([H])([H])[H])(C([H])(O[H])C43[H])C5(C([H])([H])[H])C([H])([H])[H])=C2C([H])([H])[H])C1([H])[H]

$$$$
6:0:0
     RDKit          3D

 98106  0  0  1  0  0  0  0  0999 V2000
    0.9255  -10.4494    2.6680 C   0  0  0  0  0  0  0  0  0  0  0  0
    0.7692   -9.4509    3.8121 C   0  0  2  0  0  0  0  0  0  0  0  0
    1.7432   -8.2519    3.7068 C   0  0  2  0  0  0  0  0  0  0  0  0
    2.2635   -7.7904    2.3228 C   0  0  0  0  0  0  0  0  0  0  0  0
    3.2704   -6.6184    2.4419 C   0  0  1  0  0  0  0  0  0  0  0  0
    4.5571   -7.0577    3.2014 C   0  0  1  0  0  0  0  0  0  0  0  0
    5.4021   -6.0354    3.7165 O   0  0  0  0  0  0  0  0  0  0  0  0
    5.3793   -4.7052    3.2036 C   0  0  2  0  0  0  0  0  0  0  0  0
    4.1155   -3.8644    3.4679 C   0  0  0  0  0  0  0  0  0  0  0  0
    3.6947   -3.4263    2.0279 C   0  0  1  0  0  0  0  0  0  0  0  0
    2.2997   -3.4331    1.8598 O   0  0  0  0  0  0  0  0  0  0  0  0
    4.3130   -1.9894    1.6767 C   0  0  1  0  0  0  0  0  0  0  0  0
    3.9689   -0.7520    2.5946 C   0  0  2  0  0  0  0  0  0  0  0  0
    4.9225   -0.5197    3.8065 C   0  0  0  0  0  0  0  0  0  0  0  0
    4.0100    0.0039    4.9330 C   0  0  1  0  0  0  0  0  0  0  0  0
    3.9707    1.4108    4.8104 O   0  0  0  0  0  0  0  0  0  0  0  0
    2.6386   -0.6778    4.6614 C   0  0  2  0  0  0  0  0  0  0  0  0
    2.4904   -0.6785    3.1254 C   0  0  1  0  0  0  0  0  0  0  0  0
    1.6480    0.5498    2.6993 C   0  0  1  0  0  0  0  0  0  0  0  0
    1.6396    0.7011    1.2812 O   0  0  0  0  0  0  0  0  0  0  0  0
    0.2161    0.4452    3.2767 C   0  0  0  0  0  0  0  0  0  0  0  0
    0.0793   -0.4225    4.5675 C   0  0  2  0  0  0  0  0  0  0  0  0
   -1.2398   -0.1018    5.3081 C   0  0  0  0  0  0  0  0  0  0  0  0
   -1.1948    1.2689    6.0056 C   0  0  1  0  0  0  0  0  0  0  0  0
   -2.3271    1.3986    6.8379 O   0  0  0  0  0  0  0  0  0  0  0  0
    0.0313    1.4270    6.9069 C   0  0  0  0  0  0  0  0  0  0  0  0
    1.3482    1.0363    6.2109 C   0  0  1  0  0  0  0  0  0  0  0  0
    2.3301    1.0595    7.2240 O   0  0  0  0  0  0  0  0  0  0  0  0
    1.3345   -0.3621    5.5084 C   0  0  2  0  0  0  0  0  0  0  0  0
    1.1948   -1.4805    6.5865 C   0  0  0  0  0  0  0  0  0  0  0  0
    5.8627   -2.0783    1.3211 C   0  0  0  0  0  0  0  0  0  0  0  0
    6.4747   -3.4866    1.4327 C   0  0  0  0  0  0  0  0  0  0  0  0
    5.6581   -4.5281    1.7171 C   0  0  0  0  0  0  0  0  0  0  0  0
    4.2950   -4.5132    1.0716 C   0  0  2  0  0  0  0  0  0  0  0  0
    4.3383   -4.0747   -0.4415 C   0  0  0  0  0  0  0  0  0  0  0  0
    3.6044   -5.9400    1.0765 C   0  0  1  0  0  0  0  0  0  0  0  0
    4.3681   -6.9335    0.1706 C   0  0  0  0  0  0  0  0  0  0  0  0
    4.2706   -7.9815    4.3860 C   0  0  1  0  0  0  0  0  0  0  0  0
    3.3881   -7.4589    5.3637 O   0  0  0  0  0  0  0  0  0  0  0  0
    2.9004   -8.5626    4.6065 C   0  0  1  0  0  0  0  0  0  0  0  0
    2.5785   -9.8340    5.3803 C   0  0  0  0  0  0  0  0  0  0  0  0
    1.0758  -10.0565    5.2010 C   0  0  1  0  0  0  0  0  0  0  0  0
    0.2429   -9.3770    6.3002 C   0  0  0  0  0  0  0  0  0  0  0  0
    0.7993  -11.4407    5.2754 O   0  0  0  0  0  0  0  0  0  0  0  0
    1.9398  -10.8497    2.5846 H   0  0  0  0  0  0  0  0  0  0  0  0
    0.6837   -9.9029    1.7553 H   0  0  0  0  0  0  0  0  0  0  0  0
    0.2183  -11.2787    2.7361 H   0  0  0  0  0  0  0  0  0  0  0  0
   -0.2622   -9.0893    3.7608 H   0  0  0  0  0  0  0  0  0  0  0  0
    1.2402   -7.4142    4.1775 H   0  0  0  0  0  0  0  0  0  0  0  0
    2.7539   -8.6394    1.8551 H   0  0  0  0  0  0  0  0  0  0  0  0
    1.4221   -7.5007    1.6953 H   0  0  0  0  0  0  0  0  0  0  0  0
    2.6766   -5.9351    3.0229 H   0  0  0  0  0  0  0  0  0  0  0  0
    5.1788   -7.6353    2.5175 H   0  0  0  0  0  0  0  0  0  0  0  0
    6.1544   -4.2122    3.7812 H   0  0  0  0  0  0  0  0  0  0  0  0
    3.3461   -4.4119    4.0249 H   0  0  0  0  0  0  0  0  0  0  0  0
    4.3835   -3.0259    4.1055 H   0  0  0  0  0  0  0  0  0  0  0  0
    2.0974   -2.8666    1.1278 H   0  0  0  0  0  0  0  0  0  0  0  0
    3.8393   -1.6914    0.7378 H   0  0  0  0  0  0  0  0  0  0  0  0
    4.1127    0.1186    1.9613 H   0  0  0  0  0  0  0  0  0  0  0  0
    5.3992   -1.4542    4.1242 H   0  0  0  0  0  0  0  0  0  0  0  0
    5.7247    0.2086    3.5670 H   0  0  0  0  0  0  0  0  0  0  0  0
    4.4130   -0.2578    5.9125 H   0  0  0  0  0  0  0  0  0  0  0  0
    3.8115    1.6175    3.8929 H   0  0  0  0  0  0  0  0  0  0  0  0
    2.8238   -1.7278    4.8712 H   0  0  0  0  0  0  0  0  0  0  0  0
    1.8976   -1.5462    2.8281 H   0  0  0  0  0  0  0  0  0  0  0  0
    2.0842    1.4693    3.1010 H   0  0  0  0  0  0  0  0  0  0  0  0
    1.1757   -0.0011    0.8147 H   0  0  0  0  0  0  0  0  0  0  0  0
   -0.1854    1.4529    3.4168 H   0  0  0  0  0  0  0  0  0  0  0  0
   -0.4246   -0.0084    2.5280 H   0  0  0  0  0  0  0  0  0  0  0  0
   -0.0076   -1.4632    4.2316 H   0  0  0  0  0  0  0  0  0  0  0  0
   -2.0735   -0.1307    4.6059 H   0  0  0  0  0  0  0  0  0  0  0  0
   -1.4519   -0.8771    6.0420 H   0  0  0  0  0  0  0  0  0  0  0  0
   -1.2013    2.0605    5.2521 H   0  0  0  0  0  0  0  0  0  0  0  0
   -2.3632    2.3012    7.1465 H   0  0  0  0  0  0  0  0  0  0  0  0
    0.0979    2.4656    7.2391 H   0  0  0  0  0  0  0  0  0  0  0  0
   -0.1067    0.8366    7.8140 H   0  0  0  0  0  0  0  0  0  0  0  0
    1.5696    1.8138    5.4742 H   0  0  0  0  0  0  0  0  0  0  0  0
    3.1753    0.9571    6.7952 H   0  0  0  0  0  0  0  0  0  0  0  0
    0.3729   -1.3053    7.2765 H   0  0  0  0  0  0  0  0  0  0  0  0
    2.0974   -1.5774    7.1926 H   0  0  0  0  0  0  0  0  0  0  0  0
    1.0160   -2.4510    6.1241 H   0  0  0  0  0  0  0  0  0  0  0  0
    6.0772   -1.6701    0.3328 H   0  0  0  0  0  0  0  0  0  0  0  0
    6.4499   -1.4277    1.9656 H   0  0  0  0  0  0  0  0  0  0  0  0
    7.3976   -3.4450    1.9821 H   0  0  0  0  0  0  0  0  0  0  0  0
    3.3473   -4.1641   -0.8860 H   0  0  0  0  0  0  0  0  0  0  0  0
    5.0196   -4.6978   -1.0232 H   0  0  0  0  0  0  0  0  0  0  0  0
    4.6732   -3.0653   -0.6675 H   0  0  0  0  0  0  0  0  0  0  0  0
    2.6328   -5.7702    0.6143 H   0  0  0  0  0  0  0  0  0  0  0  0
    5.4315   -6.9696    0.4006 H   0  0  0  0  0  0  0  0  0  0  0  0
    4.2829   -6.6706   -0.8783 H   0  0  0  0  0  0  0  0  0  0  0  0
    3.9702   -7.9410    0.2478 H   0  0  0  0  0  0  0  0  0  0  0  0
    5.1256   -8.5371    4.7626 H   0  0  0  0  0  0  0  0  0  0  0  0
    3.1294  -10.6644    4.9345 H   0  0  0  0  0  0  0  0  0  0  0  0
    2.8451   -9.7631    6.4319 H   0  0  0  0  0  0  0  0  0  0  0  0
    0.4486   -8.3049    6.3445 H   0  0  0  0  0  0  0  0  0  0  0  0
    0.4731   -9.8149    7.2722 H   0  0  0  0  0  0  0  0  0  0  0  0
   -0.8291   -9.4884    6.1240 H   0  0  0  0  0  0  0  0  0  0  0  0
    0.9997  -11.7514    6.1732 H   0  0  0  0  0  0  0  0  0  0  0  0
  1  2  1  0
  1 45  1  0
  1 46  1  0
  1 47  1  0
  2 42  1  0
  2  3  1  0
  2 48  1  1
  3 40  1  0
  3  4  1  0
  3 49  1  1
  4  5  1  0
  4 50  1  0
  4 51  1  0
  5 36  1  0
  5  6  1  0
  5 52  1  1
  6  7  1  0
  6 38  1  0
  6 53  1  6
  7  8  1  0
  8 33  1  0
  8  9  1  0
  8 54  1  1
  9 10  1  0
  9 55  1  0
  9 56  1  0
 10 34  1  0
 10 11  1  1
 10 12  1  0
 11 57  1  0
 12 13  1  0
 12 31  1  0
 12 58  1  6
 13 18  1  0
 13 14  1  0
 13 59  1  6
 14 15  1  0
 14 60  1  0
 14 61  1  0
 15 16  1  0
 15 17  1  0
 15 62  1  1
 16 63  1  0
 17 29  1  0
 17 18  1  0
 17 64  1  1
 18 19  1  0
 18 65  1  1
 19 20  1  0
 19 21  1  0
 19 66  1  1
 20 67  1  0
 21 22  1  0
 21 68  1  0
 21 69  1  0
 22 29  1  0
 22 23  1  0
 22 70  1  6
 23 24  1  0
 23 71  1  0
 23 72  1  0
 24 25  1  0
 24 26  1  0
 24 73  1  6
 25 74  1  0
 26 27  1  0
 26 75  1  0
 26 76  1  0
 27 28  1  0
 27 29  1  0
 27 77  1  6
 28 78  1  0
 29 30  1  1
 30 79  1  0
 30 80  1  0
 30 81  1  0
 31 32  1  0
 31 82  1  0
 31 83  1  0
 32 33  2  0
 32 84  1  0
 33 34  1  0
 34 35  1  6
 34 36  1  0
 35 85  1  0
 35 86  1  0
 35 87  1  0
 36 37  1  0
 36 88  1  6
 37 89  1  0
 37 90  1  0
 37 91  1  0
 38 40  1  0
 38 39  1  0
 38 92  1  1
 40 39  1  1
 40 41  1  0
 41 42  1  0
 41 93  1  0
 41 94  1  0
 42 43  1  0
 42 44  1  6
 43 95  1  0
 43 96  1  0
 43 97  1  0
 44 98  1  0
M  END
>  <i_m_ct_stereo_status>  (19) 
1

>  <s_m_source_file>  (19) 
/var/tmp/pbs.5076255.sched01/tmpgq1_80gb/0xrgip9rw.sdf

>  <i_m_source_file_index>  (19) 
9

>  <i_lp_mmshare_version>  (19) 
48012

>  <i_f3d_flags>  (19) 
0

>  <s_epik_input>  (19) 
W0NIMl0xW0NAXShbQ0gzXSkoW09IXSlbQ0BIXShbQ0gzXSlbQ0BASF0oW0NAQF0xMjMpW0NIMl1bQ0BIXTRbQ0BIXShbQ0BIXTJPMylPW0NASF01QzZbQ0BAXShbQ0gzXSkoW0NASF00W0NIM10pW0NAXShbQ0gyXTUpKFtPSF0pW0NASF0oW0NIMl1bQ0hdPTYpW0NASF0oW0NIMl1bQ0BIXTdbT0hdKVtDQEBIXShbQ0BASF03W0NAXTg5W0NIM10pW0NAQEhdKFtPSF0pW0NIMl1bQ0BASF04W0NIMl1bQ0BASF0oW09IXSlbQ0gyXVtDQEhdOVtPSF0=

>  <s_epik_cmdline>  (19) 
J2VwaWtfcHl0aG9uJywgJy1waHQnLCAnMi4wJywgJy1waCcsICc3LjAnLCAnLXRuJywgJzgnLCAnLW1hJywgJzIwMCcsICctaW1hZScsICc8aW5maWxlLm1hZT4nLCAnLW9tYWUnLCAnPG91dGZpbGUubWFlPic=

>  <r_lp_tautomer_probability>  (19) 
1

>  <r_epik_Ionization_Penalty>  (19) 
5.03974e-06

>  <r_epik_Ionization_Penalty_Charging>  (19) 
0

>  <r_epik_Ionization_Penalty_Neutral>  (19) 
5.03974e-06

>  <r_epik_State_Penalty>  (19) 
-0

>  <r_epik_Charging_Adjusted_Penalty>  (19) 
0

>  <i_epik_Tot_Q>  (19) 
0

>  <i_epik_Tot_abs_Q>  (19) 
0

>  <s_lp_Force_Field>  (19) 
OPLS3e

>  <r_lp_Energy>  (19) 
147.732

>  <b_lp_Chiralities_Consistent>  (19) 
1

>  <s_lp_Variant>  (19) 
6:0-1

>  <s_i_glide_gridfile>  (19) 
pfpi4k_grid

>  <i_i_glide_lignum>  (19) 
9

>  <i_i_glide_rotatable_bonds>  (19) 
7

>  <r_i_docking_score>  (19) 
-4.0648

>  <r_i_glide_ligand_efficiency>  (19) 
-0.0923819

>  <r_i_glide_ligand_efficiency_sa>  (19) 
-0.32614

>  <r_i_glide_ligand_efficiency_ln>  (19) 
-0.849633

>  <r_i_glide_gscore>  (19) 
-4.0648

>  <r_i_glide_lipo>  (19) 
-0.721948

>  <r_i_glide_hbond>  (19) 
-0.373435

>  <r_i_glide_metal>  (19) 
-0

>  <r_i_glide_rewards>  (19) 
0

>  <r_i_glide_evdw>  (19) 
-29.8026

>  <r_i_glide_ecoul>  (19) 
-10.2336

>  <r_i_glide_erotb>  (19) 
0.0557488

>  <r_i_glide_esite>  (19) 
0

>  <r_i_glide_emodel>  (19) 
-43.7838

>  <r_i_glide_energy>  (19) 
-40.0362

>  <r_i_glide_einternal>  (19) 
11.3158

>  <r_i_glide_intrahb_reward>  (19) 
-0

>  <i_i_glide_confnum>  (19) 
3

>  <i_i_glide_posenum>  (19) 
27

>  <r_i_glide_eff_state_penalty>  (19) 
0

>  <ligand_id>  (19) 
6

>  <original_smiles>  (19) 
CC1C2CC3C(OC4CC5(O)C(C6CC(O)C7C6C(O)CC6CC(O)CC(O)C67C)CC=C4C5(C)C3C)C3OC23CC1(C)O

>  <smiles>  (19) 
[H]OC1([H])C([H])([H])C([H])(O[H])C2(C([H])([H])[H])C([H])(C1([H])[H])C([H])([H])C([H])(O[H])C1([H])C([H])(C3([H])C([H])([H])C([H])=C4C5([H])OC6([H])C7([H])OC78C([H])([H])C(O[H])(C([H])([H])[H])C([H])(C([H])([H])[H])C8([H])C([H])([H])C6([H])C([H])(C([H])([H])[H])C4(C([H])([H])[H])C3(O[H])C5([H])[H])C([H])([H])C([H])(O[H])C12[H]

$$$$
6:0:1
     RDKit          3D

 98106  0  0  1  0  0  0  0  0999 V2000
    0.9382  -10.4515    2.6660 C   0  0  0  0  0  0  0  0  0  0  0  0
    0.8004   -9.4572    3.8121 C   0  0  2  0  0  0  0  0  0  0  0  0
    1.7903   -8.2664    3.7070 C   0  0  2  0  0  0  0  0  0  0  0  0
    2.2982   -7.8119    2.3220 C   0  0  0  0  0  0  0  0  0  0  0  0
    3.3236   -6.6583    2.4277 C   0  0  1  0  0  0  0  0  0  0  0  0
    4.6107   -7.1168    3.1745 C   0  0  1  0  0  0  0  0  0  0  0  0
    5.4765   -6.1120    3.6739 O   0  0  0  0  0  0  0  0  0  0  0  0
    5.4288   -4.7790    3.1740 C   0  0  2  0  0  0  0  0  0  0  0  0
    4.1702   -3.9294    3.4720 C   0  0  0  0  0  0  0  0  0  0  0  0
    3.7606   -3.4787    2.0238 C   0  0  1  0  0  0  0  0  0  0  0  0
    2.3695   -3.4975    1.8345 O   0  0  0  0  0  0  0  0  0  0  0  0
    4.3918   -2.0374    1.6839 C   0  0  1  0  0  0  0  0  0  0  0  0
    4.0743   -0.7903    2.6118 C   0  0  2  0  0  0  0  0  0  0  0  0
    5.0402   -0.5572    3.8310 C   0  0  0  0  0  0  0  0  0  0  0  0
    4.1046   -0.0512    4.9595 C   0  0  1  0  0  0  0  0  0  0  0  0
    4.1036    1.3610    4.8965 O   0  0  0  0  0  0  0  0  0  0  0  0
    2.7143   -0.6916    4.6462 C   0  0  2  0  0  0  0  0  0  0  0  0
    2.5835   -0.6728    3.1117 C   0  0  1  0  0  0  0  0  0  0  0  0
    1.8037    0.5977    2.6985 C   0  0  1  0  0  0  0  0  0  0  0  0
    1.8087    0.7376    1.2733 O   0  0  0  0  0  0  0  0  0  0  0  0
    0.3541    0.5223    3.2358 C   0  0  0  0  0  0  0  0  0  0  0  0
    0.1674   -0.3653    4.5035 C   0  0  2  0  0  0  0  0  0  0  0  0
   -1.1578   -0.0144    5.2240 C   0  0  0  0  0  0  0  0  0  0  0  0
   -1.0798    1.3486    5.9273 C   0  0  1  0  0  0  0  0  0  0  0  0
   -2.2262    1.5077    6.7330 O   0  0  0  0  0  0  0  0  0  0  0  0
    0.1260    1.4632    6.8603 C   0  0  0  0  0  0  0  0  0  0  0  0
    1.4380    1.0482    6.1775 C   0  0  1  0  0  0  0  0  0  0  0  0
    2.4094    1.0396    7.1990 O   0  0  0  0  0  0  0  0  0  0  0  0
    1.4030   -0.3454    5.4725 C   0  0  2  0  0  0  0  0  0  0  0  0
    1.2146   -1.4712    6.5320 C   0  0  0  0  0  0  0  0  0  0  0  0
    5.9347   -2.1325    1.3064 C   0  0  0  0  0  0  0  0  0  0  0  0
    6.5290   -3.5490    1.3920 C   0  0  0  0  0  0  0  0  0  0  0  0
    5.7153   -4.5891    1.6819 C   0  0  0  0  0  0  0  0  0  0  0  0
    4.3529   -4.5592    1.0522 C   0  0  2  0  0  0  0  0  0  0  0  0
    4.3899   -4.1060   -0.4544 C   0  0  0  0  0  0  0  0  0  0  0  0
    3.6466   -5.9741    1.0667 C   0  0  1  0  0  0  0  0  0  0  0  0
    4.3788   -6.9651    0.1510 C   0  0  0  0  0  0  0  0  0  0  0  0
    4.3278   -8.0210    4.3581 C   0  0  1  0  0  0  0  0  0  0  0  0
    3.4485   -7.4765    5.3472 O   0  0  0  0  0  0  0  0  0  0  0  0
    2.9462   -8.5983    4.5961 C   0  0  1  0  0  0  0  0  0  0  0  0
    2.6197   -9.8558    5.3672 C   0  0  0  0  0  0  0  0  0  0  0  0
    1.1126  -10.0605    5.2009 C   0  0  1  0  0  0  0  0  0  0  0  0
    0.2967   -9.3787    6.3105 C   0  0  0  0  0  0  0  0  0  0  0  0
    0.8118  -11.4361    5.2651 O   0  0  0  0  0  0  0  0  0  0  0  0
    1.9459  -10.8620    2.5846 H   0  0  0  0  0  0  0  0  0  0  0  0
    0.6979   -9.9039    1.7535 H   0  0  0  0  0  0  0  0  0  0  0  0
    0.2260  -11.2737    2.7460 H   0  0  0  0  0  0  0  0  0  0  0  0
   -0.2277   -9.0831    3.7787 H   0  0  0  0  0  0  0  0  0  0  0  0
    1.2989   -7.4330    4.1961 H   0  0  0  0  0  0  0  0  0  0  0  0
    2.7766   -8.6648    1.8529 H   0  0  0  0  0  0  0  0  0  0  0  0
    1.4547   -7.5015    1.7075 H   0  0  0  0  0  0  0  0  0  0  0  0
    2.7288   -5.9844    3.0128 H   0  0  0  0  0  0  0  0  0  0  0  0
    5.2213   -7.6972    2.4822 H   0  0  0  0  0  0  0  0  0  0  0  0
    6.1867   -4.2784    3.7602 H   0  0  0  0  0  0  0  0  0  0  0  0
    3.3915   -4.4994    4.0055 H   0  0  0  0  0  0  0  0  0  0  0  0
    4.4258   -3.1419    4.1369 H   0  0  0  0  0  0  0  0  0  0  0  0
    2.1743   -2.9278    1.1072 H   0  0  0  0  0  0  0  0  0  0  0  0
    3.9205   -1.7207    0.7523 H   0  0  0  0  0  0  0  0  0  0  0  0
    4.2429    0.0707    1.9715 H   0  0  0  0  0  0  0  0  0  0  0  0
    5.5561   -1.4485    4.1568 H   0  0  0  0  0  0  0  0  0  0  0  0
    5.8279    0.2014    3.5737 H   0  0  0  0  0  0  0  0  0  0  0  0
    4.4920   -0.3502    5.9318 H   0  0  0  0  0  0  0  0  0  0  0  0
    4.9677    1.6221    4.6242 H   0  0  0  0  0  0  0  0  0  0  0  0
    2.8665   -1.7529    4.8405 H   0  0  0  0  0  0  0  0  0  0  0  0
    1.9580   -1.5015    2.7841 H   0  0  0  0  0  0  0  0  0  0  0  0
    2.2707    1.4977    3.1140 H   0  0  0  0  0  0  0  0  0  0  0  0
    1.3088    0.0484    0.8236 H   0  0  0  0  0  0  0  0  0  0  0  0
   -0.0437    1.5344    3.3691 H   0  0  0  0  0  0  0  0  0  0  0  0
   -0.2750    0.0798    2.4681 H   0  0  0  0  0  0  0  0  0  0  0  0
    0.0504   -1.4014    4.1523 H   0  0  0  0  0  0  0  0  0  0  0  0
   -1.9794   -0.0094    4.5055 H   0  0  0  0  0  0  0  0  0  0  0  0
   -1.4083   -0.7906    5.9490 H   0  0  0  0  0  0  0  0  0  0  0  0
   -1.0458    2.1444    5.1792 H   0  0  0  0  0  0  0  0  0  0  0  0
   -2.2791    2.4156    6.9928 H   0  0  0  0  0  0  0  0  0  0  0  0
    0.2129    2.4935    7.2108 H   0  0  0  0  0  0  0  0  0  0  0  0
   -0.0446    0.8601    7.7534 H   0  0  0  0  0  0  0  0  0  0  0  0
    1.6883    1.8254    5.4500 H   0  0  0  0  0  0  0  0  0  0  0  0
    3.2509    1.0157    6.7667 H   0  0  0  0  0  0  0  0  0  0  0  0
    0.3838   -1.2802    7.2063 H   0  0  0  0  0  0  0  0  0  0  0  0
    2.1049   -1.5975    7.1501 H   0  0  0  0  0  0  0  0  0  0  0  0
    1.0181   -2.4287    6.0496 H   0  0  0  0  0  0  0  0  0  0  0  0
    6.1489   -1.7222    0.3194 H   0  0  0  0  0  0  0  0  0  0  0  0
    6.5363   -1.4906    1.9449 H   0  0  0  0  0  0  0  0  0  0  0  0
    7.4427   -3.5028    1.9445 H   0  0  0  0  0  0  0  0  0  0  0  0
    3.3927   -4.1839   -0.8860 H   0  0  0  0  0  0  0  0  0  0  0  0
    5.0594   -4.7369   -1.0424 H   0  0  0  0  0  0  0  0  0  0  0  0
    4.7326   -3.0971   -0.6775 H   0  0  0  0  0  0  0  0  0  0  0  0
    2.6756   -5.7903    0.6110 H   0  0  0  0  0  0  0  0  0  0  0  0
    5.4455   -7.0020    0.3706 H   0  0  0  0  0  0  0  0  0  0  0  0
    4.2222   -6.6968   -0.8871 H   0  0  0  0  0  0  0  0  0  0  0  0
    3.9882   -7.9708    0.2439 H   0  0  0  0  0  0  0  0  0  0  0  0
    5.1737   -8.5820    4.7375 H   0  0  0  0  0  0  0  0  0  0  0  0
    3.1509  -10.6935    4.9095 H   0  0  0  0  0  0  0  0  0  0  0  0
    2.8959   -9.7962    6.4187 H   0  0  0  0  0  0  0  0  0  0  0  0
    0.5130   -8.3083    6.3570 H   0  0  0  0  0  0  0  0  0  0  0  0
    0.5325   -9.8242    7.2799 H   0  0  0  0  0  0  0  0  0  0  0  0
   -0.7783   -9.4844    6.1434 H   0  0  0  0  0  0  0  0  0  0  0  0
    1.0147  -11.7643    6.1642 H   0  0  0  0  0  0  0  0  0  0  0  0
  1  2  1  0
  1 45  1  0
  1 46  1  0
  1 47  1  0
  2 42  1  0
  2  3  1  0
  2 48  1  1
  3 40  1  0
  3  4  1  0
  3 49  1  1
  4  5  1  0
  4 50  1  0
  4 51  1  0
  5 36  1  0
  5  6  1  0
  5 52  1  1
  6  7  1  0
  6 38  1  0
  6 53  1  6
  7  8  1  0
  8 33  1  0
  8  9  1  0
  8 54  1  1
  9 10  1  0
  9 55  1  0
  9 56  1  0
 10 34  1  0
 10 11  1  1
 10 12  1  0
 11 57  1  0
 12 13  1  0
 12 31  1  0
 12 58  1  6
 13 18  1  0
 13 14  1  0
 13 59  1  6
 14 15  1  0
 14 60  1  0
 14 61  1  0
 15 16  1  0
 15 17  1  0
 15 62  1  1
 16 63  1  0
 17 29  1  0
 17 18  1  0
 17 64  1  1
 18 19  1  0
 18 65  1  6
 19 20  1  0
 19 21  1  0
 19 66  1  1
 20 67  1  0
 21 22  1  0
 21 68  1  0
 21 69  1  0
 22 29  1  0
 22 23  1  0
 22 70  1  6
 23 24  1  0
 23 71  1  0
 23 72  1  0
 24 25  1  0
 24 26  1  0
 24 73  1  6
 25 74  1  0
 26 27  1  0
 26 75  1  0
 26 76  1  0
 27 28  1  0
 27 29  1  0
 27 77  1  6
 28 78  1  0
 29 30  1  1
 30 79  1  0
 30 80  1  0
 30 81  1  0
 31 32  1  0
 31 82  1  0
 31 83  1  0
 32 33  2  0
 32 84  1  0
 33 34  1  0
 34 35  1  6
 34 36  1  0
 35 85  1  0
 35 86  1  0
 35 87  1  0
 36 37  1  0
 36 88  1  6
 37 89  1  0
 37 90  1  0
 37 91  1  0
 38 40  1  0
 38 39  1  0
 38 92  1  1
 40 39  1  1
 40 41  1  0
 41 42  1  0
 41 93  1  0
 41 94  1  0
 42 43  1  0
 42 44  1  6
 43 95  1  0
 43 96  1  0
 43 97  1  0
 44 98  1  0
M  END
>  <i_m_ct_stereo_status>  (20) 
1

>  <s_m_source_file>  (20) 
/var/tmp/pbs.5076255.sched01/tmpgq1_80gb/0xrgip9rw.sdf

>  <i_m_source_file_index>  (20) 
9

>  <i_lp_mmshare_version>  (20) 
48012

>  <i_f3d_flags>  (20) 
0

>  <s_epik_input>  (20) 
W0NIMl0xW0NAXShbQ0gzXSkoW09IXSlbQ0BIXShbQ0gzXSlbQ0BASF0oW0NAQF0xMjMpW0NIMl1bQ0BIXTRbQ0BIXShbQ0BIXTJPMylPW0NASF01QzZbQ0BAXShbQ0gzXSkoW0NASF00W0NIM10pW0NAXShbQ0gyXTUpKFtPSF0pW0NASF0oW0NIMl1bQ0hdPTYpW0NASF0oW0NIMl1bQ0BIXTdbT0hdKVtDQEBIXShbQ0BASF03W0NAXTg5W0NIM10pW0NAQEhdKFtPSF0pW0NIMl1bQ0BASF04W0NIMl1bQ0BASF0oW09IXSlbQ0gyXVtDQEhdOVtPSF0=

>  <s_epik_cmdline>  (20) 
J2VwaWtfcHl0aG9uJywgJy1waHQnLCAnMi4wJywgJy1waCcsICc3LjAnLCAnLXRuJywgJzgnLCAnLW1hJywgJzIwMCcsICctaW1hZScsICc8aW5maWxlLm1hZT4nLCAnLW9tYWUnLCAnPG91dGZpbGUubWFlPic=

>  <r_lp_tautomer_probability>  (20) 
1

>  <r_epik_Ionization_Penalty>  (20) 
5.03974e-06

>  <r_epik_Ionization_Penalty_Charging>  (20) 
0

>  <r_epik_Ionization_Penalty_Neutral>  (20) 
5.03974e-06

>  <r_epik_State_Penalty>  (20) 
-0

>  <r_epik_Charging_Adjusted_Penalty>  (20) 
0

>  <i_epik_Tot_Q>  (20) 
0

>  <i_epik_Tot_abs_Q>  (20) 
0

>  <s_lp_Force_Field>  (20) 
OPLS3e

>  <r_lp_Energy>  (20) 
147.732

>  <b_lp_Chiralities_Consistent>  (20) 
1

>  <s_lp_Variant>  (20) 
6:0-1

>  <s_i_glide_gridfile>  (20) 
pfpi4k_grid

>  <i_i_glide_lignum>  (20) 
9

>  <i_i_glide_rotatable_bonds>  (20) 
7

>  <r_i_docking_score>  (20) 
-3.79072

>  <r_i_glide_ligand_efficiency>  (20) 
-0.0861528

>  <r_i_glide_ligand_efficiency_sa>  (20) 
-0.304149

>  <r_i_glide_ligand_efficiency_ln>  (20) 
-0.792344

>  <r_i_glide_gscore>  (20) 
-3.79072

>  <r_i_glide_lipo>  (20) 
-0.749548

>  <r_i_glide_hbond>  (20) 
-0.313488

>  <r_i_glide_metal>  (20) 
-0

>  <r_i_glide_rewards>  (20) 
0

>  <r_i_glide_evdw>  (20) 
-29.8667

>  <r_i_glide_ecoul>  (20) 
-8.60069

>  <r_i_glide_erotb>  (20) 
0.0557488

>  <r_i_glide_esite>  (20) 
0

>  <r_i_glide_emodel>  (20) 
-41.7789

>  <r_i_glide_energy>  (20) 
-38.4674

>  <r_i_glide_einternal>  (20) 
11.2148

>  <r_i_glide_intrahb_reward>  (20) 
-0

>  <i_i_glide_confnum>  (20) 
3

>  <i_i_glide_posenum>  (20) 
3

>  <r_i_glide_eff_state_penalty>  (20) 
0

>  <ligand_id>  (20) 
6

>  <original_smiles>  (20) 
CC1C2CC3C(OC4CC5(O)C(C6CC(O)C7C6C(O)CC6CC(O)CC(O)C67C)CC=C4C5(C)C3C)C3OC23CC1(C)O

>  <smiles>  (20) 
[H]OC1([H])C([H])([H])C([H])(O[H])C2(C([H])([H])[H])C([H])(C1([H])[H])C([H])([H])C([H])(O[H])C1([H])C([H])(C3([H])C([H])([H])C([H])=C4C5([H])OC6([H])C7([H])OC78C([H])([H])C(O[H])(C([H])([H])[H])C([H])(C([H])([H])[H])C8([H])C([H])([H])C6([H])C([H])(C([H])([H])[H])C4(C([H])([H])[H])C3(O[H])C5([H])[H])C([H])([H])C([H])(O[H])C12[H]

$$$$
6:0:2
     RDKit          3D

 98106  0  0  1  0  0  0  0  0999 V2000
    1.1136   -9.5419    2.6408 C   0  0  0  0  0  0  0  0  0  0  0  0
    0.9763   -8.6077    3.8610 C   0  0  2  0  0  0  0  0  0  0  0  0
    1.8501   -7.3330    3.7655 C   0  0  2  0  0  0  0  0  0  0  0  0
    2.2370   -6.7837    2.3726 C   0  0  0  0  0  0  0  0  0  0  0  0
    3.1600   -5.5419    2.4800 C   0  0  1  0  0  0  0  0  0  0  0  0
    4.5264   -5.9078    3.1302 C   0  0  1  0  0  0  0  0  0  0  0  0
    5.3447   -4.8444    3.6174 O   0  0  0  0  0  0  0  0  0  0  0  0
    5.1856   -3.4975    3.1660 C   0  0  2  0  0  0  0  0  0  0  0  0
    3.8769   -2.7841    3.5488 C   0  0  0  0  0  0  0  0  0  0  0  0
    3.3153   -2.3151    2.1671 C   0  0  1  0  0  0  0  0  0  0  0  0
    1.9151   -2.4270    2.0882 O   0  0  0  0  0  0  0  0  0  0  0  0
    3.7904   -0.8253    1.8311 C   0  0  1  0  0  0  0  0  0  0  0  0
    3.4175    0.3432    2.8224 C   0  0  2  0  0  0  0  0  0  0  0  0
    4.3959    0.5548    4.0207 C   0  0  0  0  0  0  0  0  0  0  0  0
    3.5016    0.9815    5.1953 C   0  0  1  0  0  0  0  0  0  0  0  0
    3.3940    2.3922    5.1437 O   0  0  0  0  0  0  0  0  0  0  0  0
    2.1596    0.2509    4.9267 C   0  0  2  0  0  0  0  0  0  0  0  0
    1.9602    0.3361    3.4011 C   0  0  1  0  0  0  0  0  0  0  0  0
    1.0527    1.5532    3.0903 C   0  0  1  0  0  0  0  0  0  0  0  0
    0.9351    1.7443    1.6947 O   0  0  0  0  0  0  0  0  0  0  0  0
   -0.3576    1.3294    3.6771 C   0  0  0  0  0  0  0  0  0  0  0  0
   -0.4073    0.3985    4.9239 C   0  0  2  0  0  0  0  0  0  0  0  0
   -1.7133    0.6224    5.7133 C   0  0  0  0  0  0  0  0  0  0  0  0
   -1.7118    1.9642    6.4662 C   0  0  1  0  0  0  0  0  0  0  0  0
   -2.8647    2.0297    7.2766 O   0  0  0  0  0  0  0  0  0  0  0  0
   -0.4716    2.1241    7.3561 C   0  0  0  0  0  0  0  0  0  0  0  0
    0.8440    1.8268    6.6058 C   0  0  1  0  0  0  0  0  0  0  0  0
    1.8628    1.8625    7.5824 O   0  0  0  0  0  0  0  0  0  0  0  0
    0.8730    0.4668    5.8293 C   0  0  2  0  0  0  0  0  0  0  0  0
    0.8131   -0.7096    6.8510 C   0  0  0  0  0  0  0  0  0  0  0  0
    5.3117   -0.7700    1.3720 C   0  0  0  0  0  0  0  0  0  0  0  0
    6.0474   -2.1171    1.3973 C   0  0  0  0  0  0  0  0  0  0  0  0
    5.3385   -3.2366    1.6765 C   0  0  0  0  0  0  0  0  0  0  0  0
    3.9303   -3.3159    1.1281 C   0  0  2  0  0  0  0  0  0  0  0  0
    3.8200   -2.8228   -0.3669 C   0  0  0  0  0  0  0  0  0  0  0  0
    3.3433   -4.7920    1.1289 C   0  0  1  0  0  0  0  0  0  0  0  0
    4.0865   -5.6917    0.1212 C   0  0  0  0  0  0  0  0  0  0  0  0
    4.3969   -6.8990    4.2870 C   0  0  1  0  0  0  0  0  0  0  0  0
    3.5497   -6.4904    5.3503 O   0  0  0  0  0  0  0  0  0  0  0  0
    3.0867   -7.5958    4.5743 C   0  0  1  0  0  0  0  0  0  0  0  0
    2.9145   -8.9147    5.3135 C   0  0  0  0  0  0  0  0  0  0  0  0
    1.4188   -9.2527    5.2099 C   0  0  1  0  0  0  0  0  0  0  0  0
    0.6242   -8.6802    6.3995 C   0  0  0  0  0  0  0  0  0  0  0  0
    1.2180  -10.6587    5.2675 O   0  0  0  0  0  0  0  0  0  0  0  0
    2.1409   -9.8744    2.4960 H   0  0  0  0  0  0  0  0  0  0  0  0
    0.7913   -9.0376    1.7308 H   0  0  0  0  0  0  0  0  0  0  0  0
    0.4823  -10.4236    2.7458 H   0  0  0  0  0  0  0  0  0  0  0  0
   -0.0771   -8.3220    3.9144 H   0  0  0  0  0  0  0  0  0  0  0  0
    1.3162   -6.5542    4.3054 H   0  0  0  0  0  0  0  0  0  0  0  0
    2.7532   -7.5742    1.8348 H   0  0  0  0  0  0  0  0  0  0  0  0
    1.3316   -6.5400    1.8195 H   0  0  0  0  0  0  0  0  0  0  0  0
    2.5496   -4.9330    3.1233 H   0  0  0  0  0  0  0  0  0  0  0  0
    5.1338   -6.4098    2.3766 H   0  0  0  0  0  0  0  0  0  0  0  0
    5.9608   -2.9568    3.6888 H   0  0  0  0  0  0  0  0  0  0  0  0
    3.1988   -3.4133    4.1247 H   0  0  0  0  0  0  0  0  0  0  0  0
    4.0849   -1.9873    4.2316 H   0  0  0  0  0  0  0  0  0  0  0  0
    1.6162   -1.8918    1.3595 H   0  0  0  0  0  0  0  0  0  0  0  0
    3.2326   -0.5330    0.9387 H   0  0  0  0  0  0  0  0  0  0  0  0
    3.4826    1.2514    2.2253 H   0  0  0  0  0  0  0  0  0  0  0  0
    4.9746   -0.3225    4.2844 H   0  0  0  0  0  0  0  0  0  0  0  0
    5.1411    1.3348    3.7984 H   0  0  0  0  0  0  0  0  0  0  0  0
    3.9492    0.6955    6.1476 H   0  0  0  0  0  0  0  0  0  0  0  0
    3.1807    2.6322    4.2432 H   0  0  0  0  0  0  0  0  0  0  0  0
    2.4061   -0.7989    5.0661 H   0  0  0  0  0  0  0  0  0  0  0  0
    1.3878   -0.5287    3.0640 H   0  0  0  0  0  0  0  0  0  0  0  0
    1.4658    2.4722    3.5117 H   0  0  0  0  0  0  0  0  0  0  0  0
    0.6149    2.6204    1.5059 H   0  0  0  0  0  0  0  0  0  0  0  0
   -0.7982    2.3078    3.8778 H   0  0  0  0  0  0  0  0  0  0  0  0
   -1.0016    0.8790    2.9210 H   0  0  0  0  0  0  0  0  0  0  0  0
   -0.4601   -0.6248    4.5374 H   0  0  0  0  0  0  0  0  0  0  0  0
   -2.5591    0.5752    5.0289 H   0  0  0  0  0  0  0  0  0  0  0  0
   -1.8657   -0.1944    6.4148 H   0  0  0  0  0  0  0  0  0  0  0  0
   -1.7587    2.7910    5.7561 H   0  0  0  0  0  0  0  0  0  0  0  0
   -2.8712    2.8652    7.7290 H   0  0  0  0  0  0  0  0  0  0  0  0
   -0.4352    3.1467    7.7384 H   0  0  0  0  0  0  0  0  0  0  0  0
   -0.5569    1.4861    8.2362 H   0  0  0  0  0  0  0  0  0  0  0  0
    1.0044    2.6476    5.9037 H   0  0  0  0  0  0  0  0  0  0  0  0
    2.6963    1.8712    7.1199 H   0  0  0  0  0  0  0  0  0  0  0  0
    0.0071   -0.6038    7.5748 H   0  0  0  0  0  0  0  0  0  0  0  0
    1.7375   -0.7951    7.4245 H   0  0  0  0  0  0  0  0  0  0  0  0
    0.6613   -1.6640    6.3461 H   0  0  0  0  0  0  0  0  0  0  0  0
    5.4312   -0.3148    0.3873 H   0  0  0  0  0  0  0  0  0  0  0  0
    5.8796   -0.1039    2.0170 H   0  0  0  0  0  0  0  0  0  0  0  0
    6.9867   -1.9895    1.9050 H   0  0  0  0  0  0  0  0  0  0  0  0
    2.8069   -2.9673   -0.7447 H   0  0  0  0  0  0  0  0  0  0  0  0
    4.5017   -3.3646   -1.0248 H   0  0  0  0  0  0  0  0  0  0  0  0
    4.0586   -1.7828   -0.5742 H   0  0  0  0  0  0  0  0  0  0  0  0
    2.3308   -4.6816    0.7420 H   0  0  0  0  0  0  0  0  0  0  0  0
    5.1704   -5.6622    0.2357 H   0  0  0  0  0  0  0  0  0  0  0  0
    3.8685   -5.3448   -0.8759 H   0  0  0  0  0  0  0  0  0  0  0  0
    3.7633   -6.7300    0.1526 H   0  0  0  0  0  0  0  0  0  0  0  0
    5.3137   -7.4011    4.5779 H   0  0  0  0  0  0  0  0  0  0  0  0
    3.5025   -9.6793    4.8031 H   0  0  0  0  0  0  0  0  0  0  0  0
    3.2531   -8.8553    6.3466 H   0  0  0  0  0  0  0  0  0  0  0  0
    0.7426   -7.5980    6.4818 H   0  0  0  0  0  0  0  0  0  0  0  0
    0.9611   -9.1203    7.3388 H   0  0  0  0  0  0  0  0  0  0  0  0
   -0.4410   -8.8979    6.3007 H   0  0  0  0  0  0  0  0  0  0  0  0
    1.4019  -10.9970    6.1376 H   0  0  0  0  0  0  0  0  0  0  0  0
  1  2  1  0
  1 45  1  0
  1 46  1  0
  1 47  1  0
  2 42  1  0
  2  3  1  0
  2 48  1  1
  3 40  1  0
  3  4  1  0
  3 49  1  1
  4  5  1  0
  4 50  1  0
  4 51  1  0
  5 36  1  0
  5  6  1  0
  5 52  1  1
  6  7  1  0
  6 38  1  0
  6 53  1  6
  7  8  1  0
  8 33  1  0
  8  9  1  0
  8 54  1  1
  9 10  1  0
  9 55  1  0
  9 56  1  0
 10 34  1  0
 10 11  1  1
 10 12  1  0
 11 57  1  0
 12 13  1  0
 12 31  1  0
 12 58  1  6
 13 18  1  0
 13 14  1  0
 13 59  1  6
 14 15  1  0
 14 60  1  0
 14 61  1  0
 15 16  1  0
 15 17  1  0
 15 62  1  1
 16 63  1  0
 17 29  1  0
 17 18  1  0
 17 64  1  6
 18 19  1  0
 18 65  1  6
 19 20  1  0
 19 21  1  0
 19 66  1  1
 20 67  1  0
 21 22  1  0
 21 68  1  0
 21 69  1  0
 22 29  1  0
 22 23  1  0
 22 70  1  6
 23 24  1  0
 23 71  1  0
 23 72  1  0
 24 25  1  0
 24 26  1  0
 24 73  1  6
 25 74  1  0
 26 27  1  0
 26 75  1  0
 26 76  1  0
 27 28  1  0
 27 29  1  0
 27 77  1  6
 28 78  1  0
 29 30  1  1
 30 79  1  0
 30 80  1  0
 30 81  1  0
 31 32  1  0
 31 82  1  0
 31 83  1  0
 32 33  2  0
 32 84  1  0
 33 34  1  0
 34 35  1  6
 34 36  1  0
 35 85  1  0
 35 86  1  0
 35 87  1  0
 36 37  1  0
 36 88  1  6
 37 89  1  0
 37 90  1  0
 37 91  1  0
 38 40  1  0
 38 39  1  0
 38 92  1  1
 40 39  1  1
 40 41  1  0
 41 42  1  0
 41 93  1  0
 41 94  1  0
 42 43  1  0
 42 44  1  6
 43 95  1  0
 43 96  1  0
 43 97  1  0
 44 98  1  0
M  END
>  <i_m_ct_stereo_status>  (21) 
1

>  <s_m_source_file>  (21) 
/var/tmp/pbs.5076255.sched01/tmpgq1_80gb/0xrgip9rw.sdf

>  <i_m_source_file_index>  (21) 
9

>  <i_lp_mmshare_version>  (21) 
48012

>  <i_f3d_flags>  (21) 
0

>  <s_epik_input>  (21) 
W0NIMl0xW0NAXShbQ0gzXSkoW09IXSlbQ0BIXShbQ0gzXSlbQ0BASF0oW0NAQF0xMjMpW0NIMl1bQ0BIXTRbQ0BIXShbQ0BIXTJPMylPW0NASF01QzZbQ0BAXShbQ0gzXSkoW0NASF00W0NIM10pW0NAXShbQ0gyXTUpKFtPSF0pW0NASF0oW0NIMl1bQ0hdPTYpW0NASF0oW0NIMl1bQ0BIXTdbT0hdKVtDQEBIXShbQ0BASF03W0NAXTg5W0NIM10pW0NAQEhdKFtPSF0pW0NIMl1bQ0BASF04W0NIMl1bQ0BASF0oW09IXSlbQ0gyXVtDQEhdOVtPSF0=

>  <s_epik_cmdline>  (21) 
J2VwaWtfcHl0aG9uJywgJy1waHQnLCAnMi4wJywgJy1waCcsICc3LjAnLCAnLXRuJywgJzgnLCAnLW1hJywgJzIwMCcsICctaW1hZScsICc8aW5maWxlLm1hZT4nLCAnLW9tYWUnLCAnPG91dGZpbGUubWFlPic=

>  <r_lp_tautomer_probability>  (21) 
1

>  <r_epik_Ionization_Penalty>  (21) 
5.03974e-06

>  <r_epik_Ionization_Penalty_Charging>  (21) 
0

>  <r_epik_Ionization_Penalty_Neutral>  (21) 
5.03974e-06

>  <r_epik_State_Penalty>  (21) 
-0

>  <r_epik_Charging_Adjusted_Penalty>  (21) 
0

>  <i_epik_Tot_Q>  (21) 
0

>  <i_epik_Tot_abs_Q>  (21) 
0

>  <s_lp_Force_Field>  (21) 
OPLS3e

>  <r_lp_Energy>  (21) 
147.732

>  <b_lp_Chiralities_Consistent>  (21) 
1

>  <s_lp_Variant>  (21) 
6:0-1

>  <s_i_glide_gridfile>  (21) 
pfpi4k_grid

>  <i_i_glide_lignum>  (21) 
9

>  <i_i_glide_rotatable_bonds>  (21) 
7

>  <r_i_docking_score>  (21) 
-3.29853

>  <r_i_glide_ligand_efficiency>  (21) 
-0.0749667

>  <r_i_glide_ligand_efficiency_sa>  (21) 
-0.264658

>  <r_i_glide_ligand_efficiency_ln>  (21) 
-0.689465

>  <r_i_glide_gscore>  (21) 
-3.29853

>  <r_i_glide_lipo>  (21) 
-0.484845

>  <r_i_glide_hbond>  (21) 
-0.304

>  <r_i_glide_metal>  (21) 
-0

>  <r_i_glide_rewards>  (21) 
0

>  <r_i_glide_evdw>  (21) 
-33.3348

>  <r_i_glide_ecoul>  (21) 
-5.99133

>  <r_i_glide_erotb>  (21) 
0.0557488

>  <r_i_glide_esite>  (21) 
0

>  <r_i_glide_emodel>  (21) 
-41.6251

>  <r_i_glide_energy>  (21) 
-39.3261

>  <r_i_glide_einternal>  (21) 
10.773

>  <r_i_glide_intrahb_reward>  (21) 
-0

>  <i_i_glide_confnum>  (21) 
3

>  <i_i_glide_posenum>  (21) 
40

>  <r_i_glide_eff_state_penalty>  (21) 
0

>  <ligand_id>  (21) 
6

>  <original_smiles>  (21) 
CC1C2CC3C(OC4CC5(O)C(C6CC(O)C7C6C(O)CC6CC(O)CC(O)C67C)CC=C4C5(C)C3C)C3OC23CC1(C)O

>  <smiles>  (21) 
[H]OC1([H])C([H])([H])C([H])(O[H])C2(C([H])([H])[H])C([H])(C1([H])[H])C([H])([H])C([H])(O[H])C1([H])C([H])(C3([H])C([H])([H])C([H])=C4C5([H])OC6([H])C7([H])OC78C([H])([H])C(O[H])(C([H])([H])[H])C([H])(C([H])([H])[H])C8([H])C([H])([H])C6([H])C([H])(C([H])([H])[H])C4(C([H])([H])[H])C3(O[H])C5([H])[H])C([H])([H])C([H])(O[H])C12[H]

$$$$
8:0:0
     RDKit          3D

 48 52  0  0  1  0  0  0  0  0999 V2000
    8.2908   -3.6602    0.0278 C   0  0  0  0  0  0  0  0  0  0  0  0
    6.8757   -3.7860    0.6361 C   0  0  0  0  0  0  0  0  0  0  0  0
    6.6600   -5.2433    1.0916 C   0  0  0  0  0  0  0  0  0  0  0  0
    5.7803   -3.3030   -0.3523 C   0  0  2  0  0  0  0  0  0  0  0  0
    6.0022   -1.8587   -0.8575 C   0  0  0  0  0  0  0  0  0  0  0  0
    4.6829   -1.0883   -0.8987 C   0  0  0  0  0  0  0  0  0  0  0  0
    3.9599   -1.0383    0.2322 C   0  0  0  0  0  0  0  0  0  0  0  0
    4.0652   -2.2827    1.1284 C   0  0  1  0  0  0  0  0  0  0  0  0
    2.8558   -2.5331    2.0128 C   0  0  0  0  0  0  0  0  0  0  0  0
    1.9097   -1.7273    2.1090 O   0  0  0  0  0  0  0  0  0  0  0  0
    2.9692   -3.7815    2.8084 C   0  0  0  0  0  0  0  0  0  0  0  0
    3.1740   -3.7543    4.2087 C   0  0  0  0  0  0  0  0  0  0  0  0
    3.3271   -2.5806    4.8935 O   0  0  0  0  0  0  0  0  0  0  0  0
    3.2535   -4.9614    4.9328 C   0  0  0  0  0  0  0  0  0  0  0  0
    3.1047   -6.1934    4.2756 C   0  0  0  0  0  0  0  0  0  0  0  0
    2.8781   -6.2209    2.8836 C   0  0  0  0  0  0  0  0  0  0  0  0
    2.8242   -5.0211    2.1359 C   0  0  0  0  0  0  0  0  0  0  0  0
    2.5253   -5.1035    0.7843 O   0  0  0  0  0  0  0  0  0  0  0  0
    3.5524   -4.7081   -0.1378 C   0  0  1  0  0  0  0  0  0  0  0  0
    3.1830   -3.4493   -0.8850 C   0  0  2  0  0  0  0  0  0  0  0  0
    3.5415   -2.8770   -2.2807 C   0  0  1  0  0  0  0  0  0  0  0  0
    2.4357   -3.1098   -3.3134 C   0  0  0  0  0  0  0  0  0  0  0  0
    3.9029   -1.3506   -2.1787 C   0  0  0  0  0  0  0  0  0  0  0  0
    4.3360   -3.4420    0.1500 C   0  0  2  0  0  0  0  0  0  0  0  0
    8.3972   -4.2547   -0.8837 H   0  0  0  0  0  0  0  0  0  0  0  0
    9.0545   -3.9998    0.7300 H   0  0  0  0  0  0  0  0  0  0  0  0
    8.5469   -2.6310   -0.2388 H   0  0  0  0  0  0  0  0  0  0  0  0
    6.8602   -3.1628    1.5312 H   0  0  0  0  0  0  0  0  0  0  0  0
    6.6276   -5.9267    0.2432 H   0  0  0  0  0  0  0  0  0  0  0  0
    5.7338   -5.3584    1.6541 H   0  0  0  0  0  0  0  0  0  0  0  0
    7.4711   -5.5743    1.7455 H   0  0  0  0  0  0  0  0  0  0  0  0
    5.8700   -3.9696   -1.2059 H   0  0  0  0  0  0  0  0  0  0  0  0
    6.6427   -1.3208   -0.1640 H   0  0  0  0  0  0  0  0  0  0  0  0
    6.4851   -1.8605   -1.8316 H   0  0  0  0  0  0  0  0  0  0  0  0
    2.9406   -0.6622    0.1436 H   0  0  0  0  0  0  0  0  0  0  0  0
    4.9274   -2.1521    1.7843 H   0  0  0  0  0  0  0  0  0  0  0  0
    3.2453   -1.8000    4.3512 H   0  0  0  0  0  0  0  0  0  0  0  0
    3.4098   -4.9298    6.0083 H   0  0  0  0  0  0  0  0  0  0  0  0
    3.1367   -7.1114    4.8565 H   0  0  0  0  0  0  0  0  0  0  0  0
    2.7405   -7.1870    2.4013 H   0  0  0  0  0  0  0  0  0  0  0  0
    4.0251   -5.5214   -0.6925 H   0  0  0  0  0  0  0  0  0  0  0  0
    2.2170   -3.0608   -0.5706 H   0  0  0  0  0  0  0  0  0  0  0  0
    4.4090   -3.4176   -2.6440 H   0  0  0  0  0  0  0  0  0  0  0  0
    1.5082   -2.6137   -3.0368 H   0  0  0  0  0  0  0  0  0  0  0  0
    2.2106   -4.1683   -3.4274 H   0  0  0  0  0  0  0  0  0  0  0  0
    2.7366   -2.7391   -4.2951 H   0  0  0  0  0  0  0  0  0  0  0  0
    3.0045   -0.7280   -2.1786 H   0  0  0  0  0  0  0  0  0  0  0  0
    4.4930   -1.0435   -3.0449 H   0  0  0  0  0  0  0  0  0  0  0  0
  1  2  1  0
  1 25  1  0
  1 26  1  0
  1 27  1  0
  2  3  1  0
  2  4  1  0
  2 28  1  0
  3 29  1  0
  3 30  1  0
  3 31  1  0
 24  4  1  6
  4  5  1  0
  4 32  1  6
  5  6  1  0
  5 33  1  0
  5 34  1  0
  6 23  1  0
  6  7  2  0
  7  8  1  0
  7 35  1  0
  8 24  1  0
  8  9  1  0
  8 36  1  1
  9 10  2  0
  9 11  1  0
 11 17  2  0
 11 12  1  0
 12 13  1  0
 12 14  2  0
 13 37  1  0
 14 15  1  0
 14 38  1  0
 15 16  2  0
 15 39  1  0
 16 17  1  0
 16 40  1  0
 17 18  1  0
 18 19  1  0
 19 24  1  0
 19 20  1  0
 19 41  1  6
 20 21  1  0
 20 24  1  0
 20 42  1  1
 21 22  1  0
 21 23  1  0
 21 43  1  6
 22 44  1  0
 22 45  1  0
 22 46  1  0
 23 47  1  0
 23 48  1  0
M  END
>  <i_m_ct_stereo_status>  (22) 
1

>  <s_m_source_file>  (22) 
/var/tmp/pbs.5076255.sched01/tmpgq1_80gb/0xrgip9rw.sdf

>  <i_m_source_file_index>  (22) 
11

>  <i_lp_mmshare_version>  (22) 
48012

>  <i_f3d_flags>  (22) 
0

>  <s_epik_input>  (22) 
W0NIM11bQ0hdKFtDSDNdKVtDQEBIXTFbQ0gyXUMoPVtDSF1bQ0BASF0yW0NAQF0xMzQpW0NIMl1bQ0BIXShbQ0gzXSlbQ0BIXTRbQ0BASF0zT2M1YyhDMj1PKWMoW09IXSlbY0hdW2NIXVtjSF01

>  <s_epik_cmdline>  (22) 
J2VwaWtfcHl0aG9uJywgJy1waHQnLCAnMi4wJywgJy1waCcsICc3LjAnLCAnLXRuJywgJzgnLCAnLW1hJywgJzIwMCcsICctaW1hZScsICc8aW5maWxlLm1hZT4nLCAnLW9tYWUnLCAnPG91dGZpbGUubWFlPic=

>  <r_epik_Ionization_Penalty>  (22) 
0.0188485

>  <r_epik_Ionization_Penalty_Charging>  (22) 
0

>  <r_epik_Ionization_Penalty_Neutral>  (22) 
0.0188485

>  <r_epik_State_Penalty>  (22) 
0.0150212

>  <r_epik_Charging_Adjusted_Penalty>  (22) 
0.0150212

>  <i_epik_Tot_Q>  (22) 
0

>  <i_epik_Tot_abs_Q>  (22) 
0

>  <s_lp_Force_Field>  (22) 
OPLS3e

>  <r_lp_Energy>  (22) 
92.5705

>  <b_lp_Chiralities_Consistent>  (22) 
1

>  <s_lp_Variant>  (22) 
8:0-1

>  <s_i_glide_gridfile>  (22) 
pfpi4k_grid

>  <i_i_glide_lignum>  (22) 
11

>  <i_i_glide_rotatable_bonds>  (22) 
2

>  <r_i_docking_score>  (22) 
-3.10852

>  <r_i_glide_ligand_efficiency>  (22) 
-0.129522

>  <r_i_glide_ligand_efficiency_sa>  (22) 
-0.373605

>  <r_i_glide_ligand_efficiency_ln>  (22) 
-0.744012

>  <r_i_glide_gscore>  (22) 
-3.10852

>  <r_i_glide_lipo>  (22) 
-0.729938

>  <r_i_glide_hbond>  (22) 
0

>  <r_i_glide_metal>  (22) 
-0

>  <r_i_glide_rewards>  (22) 
-1.19718

>  <r_i_glide_evdw>  (22) 
-22.772

>  <r_i_glide_ecoul>  (22) 
-0.223219

>  <r_i_glide_erotb>  (22) 
0

>  <r_i_glide_esite>  (22) 
-0.00931962

>  <r_i_glide_emodel>  (22) 
-27.4311

>  <r_i_glide_energy>  (22) 
-22.9952

>  <r_i_glide_einternal>  (22) 
0.165392

>  <r_i_glide_intrahb_reward>  (22) 
-0

>  <i_i_glide_confnum>  (22) 
2

>  <i_i_glide_posenum>  (22) 
3

>  <r_i_glide_eff_state_penalty>  (22) 
0

>  <ligand_id>  (22) 
8

>  <original_smiles>  (22) 
CC(C)C1CC2=CC3C(=O)c4c(O)cccc4OC4C(C(C)C2)C314

>  <smiles>  (22) 
[H]Oc1c([H])c([H])c([H])c2c1C(=O)C1([H])C([H])=C3C([H])([H])C([H])(C([H])([H])[H])C4([H])C([H])(O2)C14C([H])(C([H])(C([H])([H])[H])C([H])([H])[H])C3([H])[H]

$$$$
8:0:1
     RDKit          3D

 48 52  0  0  1  0  0  0  0  0999 V2000
    8.2981   -3.6401   -0.0125 C   0  0  0  0  0  0  0  0  0  0  0  0
    6.8917   -3.7495    0.6211 C   0  0  0  0  0  0  0  0  0  0  0  0
    6.6778   -5.1938    1.1104 C   0  0  0  0  0  0  0  0  0  0  0  0
    5.7843   -3.2826   -0.3646 C   0  0  2  0  0  0  0  0  0  0  0  0
    5.9899   -1.8429   -0.8811 C   0  0  0  0  0  0  0  0  0  0  0  0
    4.6647   -1.0793   -0.9222 C   0  0  0  0  0  0  0  0  0  0  0  0
    3.9445   -1.0282    0.2166 C   0  0  0  0  0  0  0  0  0  0  0  0
    4.0690   -2.2650    1.1215 C   0  0  1  0  0  0  0  0  0  0  0  0
    2.8650   -2.5226    2.0202 C   0  0  0  0  0  0  0  0  0  0  0  0
    1.8891   -1.7496    2.0842 O   0  0  0  0  0  0  0  0  0  0  0  0
    2.9951   -3.7683    2.8155 C   0  0  0  0  0  0  0  0  0  0  0  0
    3.2086   -3.7364    4.2211 C   0  0  0  0  0  0  0  0  0  0  0  0
    3.3589   -2.5505    4.8741 O   0  0  0  0  0  0  0  0  0  0  0  0
    3.3050   -4.9402    4.9488 C   0  0  0  0  0  0  0  0  0  0  0  0
    3.1639   -6.1753    4.2940 C   0  0  0  0  0  0  0  0  0  0  0  0
    2.9346   -6.2098    2.9017 C   0  0  0  0  0  0  0  0  0  0  0  0
    2.8599   -5.0146    2.1497 C   0  0  0  0  0  0  0  0  0  0  0  0
    2.5579   -5.1065    0.8014 O   0  0  0  0  0  0  0  0  0  0  0  0
    3.5721   -4.7068   -0.1300 C   0  0  1  0  0  0  0  0  0  0  0  0
    3.1844   -3.4523   -0.8831 C   0  0  2  0  0  0  0  0  0  0  0  0
    3.5303   -2.8879   -2.2853 C   0  0  1  0  0  0  0  0  0  0  0  0
    2.4237   -3.1391   -3.3139 C   0  0  0  0  0  0  0  0  0  0  0  0
    3.8797   -1.3582   -2.1954 C   0  0  0  0  0  0  0  0  0  0  0  0
    4.3441   -3.4284    0.1450 C   0  0  2  0  0  0  0  0  0  0  0  0
    8.3916   -4.2523   -0.9085 H   0  0  0  0  0  0  0  0  0  0  0  0
    9.0688   -3.9645    0.6887 H   0  0  0  0  0  0  0  0  0  0  0  0
    8.5496   -2.6169   -0.3008 H   0  0  0  0  0  0  0  0  0  0  0  0
    6.8867   -3.1044    1.5005 H   0  0  0  0  0  0  0  0  0  0  0  0
    6.6337   -5.8962    0.2776 H   0  0  0  0  0  0  0  0  0  0  0  0
    5.7566   -5.2941    1.6833 H   0  0  0  0  0  0  0  0  0  0  0  0
    7.4950   -5.5112    1.7609 H   0  0  0  0  0  0  0  0  0  0  0  0
    5.8750   -3.9553   -1.2153 H   0  0  0  0  0  0  0  0  0  0  0  0
    6.6339   -1.2940   -0.1955 H   0  0  0  0  0  0  0  0  0  0  0  0
    6.4671   -1.8510   -1.8595 H   0  0  0  0  0  0  0  0  0  0  0  0
    2.9234   -0.6668    0.1296 H   0  0  0  0  0  0  0  0  0  0  0  0
    4.9335   -2.1235    1.7700 H   0  0  0  0  0  0  0  0  0  0  0  0
    3.5269   -2.6564    5.7994 H   0  0  0  0  0  0  0  0  0  0  0  0
    3.4657   -4.9132    6.0189 H   0  0  0  0  0  0  0  0  0  0  0  0
    3.2116   -7.0904    4.8754 H   0  0  0  0  0  0  0  0  0  0  0  0
    2.8061   -7.1755    2.4252 H   0  0  0  0  0  0  0  0  0  0  0  0
    4.0438   -5.5160   -0.6873 H   0  0  0  0  0  0  0  0  0  0  0  0
    2.2140   -3.0762   -0.5661 H   0  0  0  0  0  0  0  0  0  0  0  0
    4.4029   -3.4224   -2.6520 H   0  0  0  0  0  0  0  0  0  0  0  0
    1.4909   -2.6522   -3.0358 H   0  0  0  0  0  0  0  0  0  0  0  0
    2.2142   -4.2005   -3.4228 H   0  0  0  0  0  0  0  0  0  0  0  0
    2.7175   -2.7703   -4.2980 H   0  0  0  0  0  0  0  0  0  0  0  0
    2.9752   -0.7450   -2.1938 H   0  0  0  0  0  0  0  0  0  0  0  0
    4.4637   -1.0491   -3.0662 H   0  0  0  0  0  0  0  0  0  0  0  0
  1  2  1  0
  1 25  1  0
  1 26  1  0
  1 27  1  0
  2  3  1  0
  2  4  1  0
  2 28  1  0
  3 29  1  0
  3 30  1  0
  3 31  1  0
 24  4  1  6
  4  5  1  0
  4 32  1  6
  5  6  1  0
  5 33  1  0
  5 34  1  0
  6 23  1  0
  6  7  2  0
  7  8  1  0
  7 35  1  0
  8 24  1  0
  8  9  1  0
  8 36  1  1
  9 10  2  0
  9 11  1  0
 11 17  2  0
 11 12  1  0
 12 13  1  0
 12 14  2  0
 13 37  1  0
 14 15  1  0
 14 38  1  0
 15 16  2  0
 15 39  1  0
 16 17  1  0
 16 40  1  0
 17 18  1  0
 18 19  1  0
 19 24  1  0
 19 20  1  0
 19 41  1  6
 20 21  1  0
 20 24  1  0
 20 42  1  1
 21 22  1  0
 21 23  1  0
 21 43  1  6
 22 44  1  0
 22 45  1  0
 22 46  1  0
 23 47  1  0
 23 48  1  0
M  END
>  <i_m_ct_stereo_status>  (23) 
1

>  <s_m_source_file>  (23) 
/var/tmp/pbs.5076255.sched01/tmpgq1_80gb/0xrgip9rw.sdf

>  <i_m_source_file_index>  (23) 
11

>  <i_lp_mmshare_version>  (23) 
48012

>  <i_f3d_flags>  (23) 
0

>  <s_epik_input>  (23) 
W0NIM11bQ0hdKFtDSDNdKVtDQEBIXTFbQ0gyXUMoPVtDSF1bQ0BASF0yW0NAQF0xMzQpW0NIMl1bQ0BIXShbQ0gzXSlbQ0BIXTRbQ0BASF0zT2M1YyhDMj1PKWMoW09IXSlbY0hdW2NIXVtjSF01

>  <s_epik_cmdline>  (23) 
J2VwaWtfcHl0aG9uJywgJy1waHQnLCAnMi4wJywgJy1waCcsICc3LjAnLCAnLXRuJywgJzgnLCAnLW1hJywgJzIwMCcsICctaW1hZScsICc8aW5maWxlLm1hZT4nLCAnLW9tYWUnLCAnPG91dGZpbGUubWFlPic=

>  <r_epik_Ionization_Penalty>  (23) 
0.0188485

>  <r_epik_Ionization_Penalty_Charging>  (23) 
0

>  <r_epik_Ionization_Penalty_Neutral>  (23) 
0.0188485

>  <r_epik_State_Penalty>  (23) 
0.0150212

>  <r_epik_Charging_Adjusted_Penalty>  (23) 
0.0150212

>  <i_epik_Tot_Q>  (23) 
0

>  <i_epik_Tot_abs_Q>  (23) 
0

>  <s_lp_Force_Field>  (23) 
OPLS3e

>  <r_lp_Energy>  (23) 
92.5705

>  <b_lp_Chiralities_Consistent>  (23) 
1

>  <s_lp_Variant>  (23) 
8:0-1

>  <s_i_glide_gridfile>  (23) 
pfpi4k_grid

>  <i_i_glide_lignum>  (23) 
11

>  <i_i_glide_rotatable_bonds>  (23) 
2

>  <r_i_docking_score>  (23) 
-3.00631

>  <r_i_glide_ligand_efficiency>  (23) 
-0.125263

>  <r_i_glide_ligand_efficiency_sa>  (23) 
-0.361321

>  <r_i_glide_ligand_efficiency_ln>  (23) 
-0.719549

>  <r_i_glide_gscore>  (23) 
-3.00631

>  <r_i_glide_lipo>  (23) 
-0.727665

>  <r_i_glide_hbond>  (23) 
0

>  <r_i_glide_metal>  (23) 
-0

>  <r_i_glide_rewards>  (23) 
-1.19718

>  <r_i_glide_evdw>  (23) 
-22.7658

>  <r_i_glide_ecoul>  (23) 
0.439467

>  <r_i_glide_erotb>  (23) 
0

>  <r_i_glide_esite>  (23) 
-0.00910014

>  <r_i_glide_emodel>  (23) 
-26.6392

>  <r_i_glide_energy>  (23) 
-22.3263

>  <r_i_glide_einternal>  (23) 
0.110681

>  <r_i_glide_intrahb_reward>  (23) 
-0

>  <i_i_glide_confnum>  (23) 
1

>  <i_i_glide_posenum>  (23) 
35

>  <r_i_glide_eff_state_penalty>  (23) 
0

>  <ligand_id>  (23) 
8

>  <original_smiles>  (23) 
CC(C)C1CC2=CC3C(=O)c4c(O)cccc4OC4C(C(C)C2)C314

>  <smiles>  (23) 
[H]Oc1c([H])c([H])c([H])c2c1C(=O)C1([H])C([H])=C3C([H])([H])C([H])(C([H])([H])[H])C4([H])C([H])(O2)C14C([H])(C([H])(C([H])([H])[H])C([H])([H])[H])C3([H])[H]

$$$$
8:0:2
     RDKit          3D

 48 52  0  0  1  0  0  0  0  0999 V2000
    8.5864   -3.4086   -0.5385 C   0  0  0  0  0  0  0  0  0  0  0  0
    7.2816   -3.5395    0.2759 C   0  0  0  0  0  0  0  0  0  0  0  0
    7.1893   -4.9582    0.8621 C   0  0  0  0  0  0  0  0  0  0  0  0
    6.0522   -3.1401   -0.5826 C   0  0  2  0  0  0  0  0  0  0  0  0
    6.0141   -1.6364   -0.9271 C   0  0  0  0  0  0  0  0  0  0  0  0
    4.5940   -1.0796   -0.8095 C   0  0  0  0  0  0  0  0  0  0  0  0
    3.9537   -1.2625    0.3641 C   0  0  0  0  0  0  0  0  0  0  0  0
    4.3232   -2.5620    1.0994 C   0  0  1  0  0  0  0  0  0  0  0  0
    3.2383   -3.1039    2.0133 C   0  0  0  0  0  0  0  0  0  0  0  0
    2.1838   -2.4837    2.2416 O   0  0  0  0  0  0  0  0  0  0  0  0
    3.6028   -4.3952    2.6509 C   0  0  0  0  0  0  0  0  0  0  0  0
    3.9057   -4.4793    4.0342 C   0  0  0  0  0  0  0  0  0  0  0  0
    3.9297   -3.3757    4.8379 O   0  0  0  0  0  0  0  0  0  0  0  0
    4.2325   -5.7297    4.6114 C   0  0  0  0  0  0  0  0  0  0  0  0
    4.2286   -6.8949    3.8235 C   0  0  0  0  0  0  0  0  0  0  0  0
    3.9068   -6.8132    2.4519 C   0  0  0  0  0  0  0  0  0  0  0  0
    3.6043   -5.5677    1.8526 C   0  0  0  0  0  0  0  0  0  0  0  0
    3.2322   -5.5564    0.5229 O   0  0  0  0  0  0  0  0  0  0  0  0
    4.1080   -4.8990   -0.4002 C   0  0  1  0  0  0  0  0  0  0  0  0
    3.4782   -3.6462   -0.9803 C   0  0  2  0  0  0  0  0  0  0  0  0
    3.6373   -2.8809   -2.3199 C   0  0  1  0  0  0  0  0  0  0  0  0
    2.5039   -3.1756   -3.3103 C   0  0  0  0  0  0  0  0  0  0  0  0
    3.7689   -1.3355   -2.0635 C   0  0  0  0  0  0  0  0  0  0  0  0
    4.6890   -3.5523   -0.0214 C   0  0  2  0  0  0  0  0  0  0  0  0
    8.6111   -4.0686   -1.4089 H   0  0  0  0  0  0  0  0  0  0  0  0
    9.4467   -3.6677    0.0762 H   0  0  0  0  0  0  0  0  0  0  0  0
    8.7510   -2.3924   -0.9034 H   0  0  0  0  0  0  0  0  0  0  0  0
    7.3617   -2.8594    1.1255 H   0  0  0  0  0  0  0  0  0  0  0  0
    7.0551   -5.7129    0.0839 H   0  0  0  0  0  0  0  0  0  0  0  0
    6.3574   -5.0461    1.5567 H   0  0  0  0  0  0  0  0  0  0  0  0
    8.0909   -5.2180    1.4168 H   0  0  0  0  0  0  0  0  0  0  0  0
    6.1714   -3.6977   -1.5084 H   0  0  0  0  0  0  0  0  0  0  0  0
    6.6307   -1.0785   -0.2233 H   0  0  0  0  0  0  0  0  0  0  0  0
    6.4015   -1.4618   -1.9246 H   0  0  0  0  0  0  0  0  0  0  0  0
    2.8883   -1.0449    0.3743 H   0  0  0  0  0  0  0  0  0  0  0  0
    5.2043   -2.3701    1.7120 H   0  0  0  0  0  0  0  0  0  0  0  0
    3.6880   -2.5698    4.3974 H   0  0  0  0  0  0  0  0  0  0  0  0
    4.4613   -5.7845    5.6675 H   0  0  0  0  0  0  0  0  0  0  0  0
    4.4511   -7.8491    4.2906 H   0  0  0  0  0  0  0  0  0  0  0  0
    3.8873   -7.7301    1.8719 H   0  0  0  0  0  0  0  0  0  0  0  0
    4.6611   -5.5576   -1.0704 H   0  0  0  0  0  0  0  0  0  0  0  0
    2.4864   -3.4691   -0.5709 H   0  0  0  0  0  0  0  0  0  0  0  0
    4.5485   -3.2320   -2.7958 H   0  0  0  0  0  0  0  0  0  0  0  0
    1.5367   -2.8532   -2.9258 H   0  0  0  0  0  0  0  0  0  0  0  0
    2.4292   -4.2364   -3.5399 H   0  0  0  0  0  0  0  0  0  0  0  0
    2.6740   -2.6602   -4.2569 H   0  0  0  0  0  0  0  0  0  0  0  0
    2.7872   -0.8734   -1.9402 H   0  0  0  0  0  0  0  0  0  0  0  0
    4.2349   -0.8441   -2.9211 H   0  0  0  0  0  0  0  0  0  0  0  0
  1  2  1  0
  1 25  1  0
  1 26  1  0
  1 27  1  0
  2  3  1  0
  2  4  1  0
  2 28  1  0
  3 29  1  0
  3 30  1  0
  3 31  1  0
 24  4  1  6
  4  5  1  0
  4 32  1  6
  5  6  1  0
  5 33  1  0
  5 34  1  0
  6 23  1  0
  6  7  2  0
  7  8  1  0
  7 35  1  0
  8 24  1  0
  8  9  1  0
  8 36  1  1
  9 10  2  0
  9 11  1  0
 11 17  2  0
 11 12  1  0
 12 13  1  0
 12 14  2  0
 13 37  1  0
 14 15  1  0
 14 38  1  0
 15 16  2  0
 15 39  1  0
 16 17  1  0
 16 40  1  0
 17 18  1  0
 18 19  1  0
 19 24  1  0
 19 20  1  0
 19 41  1  6
 20 21  1  0
 20 24  1  0
 20 42  1  1
 21 22  1  0
 21 23  1  0
 21 43  1  6
 22 44  1  0
 22 45  1  0
 22 46  1  0
 23 47  1  0
 23 48  1  0
M  END
>  <i_m_ct_stereo_status>  (24) 
1

>  <s_m_source_file>  (24) 
/var/tmp/pbs.5076255.sched01/tmpgq1_80gb/0xrgip9rw.sdf

>  <i_m_source_file_index>  (24) 
11

>  <i_lp_mmshare_version>  (24) 
48012

>  <i_f3d_flags>  (24) 
0

>  <s_epik_input>  (24) 
W0NIM11bQ0hdKFtDSDNdKVtDQEBIXTFbQ0gyXUMoPVtDSF1bQ0BASF0yW0NAQF0xMzQpW0NIMl1bQ0BIXShbQ0gzXSlbQ0BIXTRbQ0BASF0zT2M1YyhDMj1PKWMoW09IXSlbY0hdW2NIXVtjSF01

>  <s_epik_cmdline>  (24) 
J2VwaWtfcHl0aG9uJywgJy1waHQnLCAnMi4wJywgJy1waCcsICc3LjAnLCAnLXRuJywgJzgnLCAnLW1hJywgJzIwMCcsICctaW1hZScsICc8aW5maWxlLm1hZT4nLCAnLW9tYWUnLCAnPG91dGZpbGUubWFlPic=

>  <r_epik_Ionization_Penalty>  (24) 
0.0188485

>  <r_epik_Ionization_Penalty_Charging>  (24) 
0

>  <r_epik_Ionization_Penalty_Neutral>  (24) 
0.0188485

>  <r_epik_State_Penalty>  (24) 
0.0150212

>  <r_epik_Charging_Adjusted_Penalty>  (24) 
0.0150212

>  <i_epik_Tot_Q>  (24) 
0

>  <i_epik_Tot_abs_Q>  (24) 
0

>  <s_lp_Force_Field>  (24) 
OPLS3e

>  <r_lp_Energy>  (24) 
92.5705

>  <b_lp_Chiralities_Consistent>  (24) 
1

>  <s_lp_Variant>  (24) 
8:0-1

>  <s_i_glide_gridfile>  (24) 
pfpi4k_grid

>  <i_i_glide_lignum>  (24) 
11

>  <i_i_glide_rotatable_bonds>  (24) 
2

>  <r_i_docking_score>  (24) 
-2.86081

>  <r_i_glide_ligand_efficiency>  (24) 
-0.119201

>  <r_i_glide_ligand_efficiency_sa>  (24) 
-0.343834

>  <r_i_glide_ligand_efficiency_ln>  (24) 
-0.684724

>  <r_i_glide_gscore>  (24) 
-2.86081

>  <r_i_glide_lipo>  (24) 
-0.568663

>  <r_i_glide_hbond>  (24) 
0

>  <r_i_glide_metal>  (24) 
-0

>  <r_i_glide_rewards>  (24) 
-1.19718

>  <r_i_glide_evdw>  (24) 
-22.7654

>  <r_i_glide_ecoul>  (24) 
0.295129

>  <r_i_glide_erotb>  (24) 
0

>  <r_i_glide_esite>  (24) 
-0.000971182

>  <r_i_glide_emodel>  (24) 
-26.4837

>  <r_i_glide_energy>  (24) 
-22.4703

>  <r_i_glide_einternal>  (24) 
0.243928

>  <r_i_glide_intrahb_reward>  (24) 
-0

>  <i_i_glide_confnum>  (24) 
1

>  <i_i_glide_posenum>  (24) 
10

>  <r_i_glide_eff_state_penalty>  (24) 
0

>  <ligand_id>  (24) 
8

>  <original_smiles>  (24) 
CC(C)C1CC2=CC3C(=O)c4c(O)cccc4OC4C(C(C)C2)C314

>  <smiles>  (24) 
[H]Oc1c([H])c([H])c([H])c2c1C(=O)C1([H])C([H])=C3C([H])([H])C([H])(C([H])([H])[H])C4([H])C([H])(O2)C14C([H])(C([H])(C([H])([H])[H])C([H])([H])[H])C3([H])[H]

$$$$
8:1:0
     RDKit          3D

 47 51  0  0  1  0  0  0  0  0999 V2000
    8.3035   -3.6415    0.0008 C   0  0  0  0  0  0  0  0  0  0  0  0
    6.8939   -3.7582    0.6286 C   0  0  0  0  0  0  0  0  0  0  0  0
    6.6766   -5.2019    1.1143 C   0  0  0  0  0  0  0  0  0  0  0  0
    5.7856   -3.2915   -0.3554 C   0  0  2  0  0  0  0  0  0  0  0  0
    5.9973   -1.8453   -0.8721 C   0  0  0  0  0  0  0  0  0  0  0  0
    4.6777   -1.0794   -0.9106 C   0  0  0  0  0  0  0  0  0  0  0  0
    3.9513   -1.0255    0.2304 C   0  0  0  0  0  0  0  0  0  0  0  0
    4.0781   -2.2628    1.1324 C   0  0  1  0  0  0  0  0  0  0  0  0
    2.8688   -2.5304    2.0450 C   0  0  0  0  0  0  0  0  0  0  0  0
    1.8868   -1.7909    2.0732 O   0  0  0  0  0  0  0  0  0  0  0  0
    3.0005   -3.7916    2.8273 C   0  0  0  0  0  0  0  0  0  0  0  0
    3.2471   -3.7686    4.2238 C   0  0  0  0  0  0  0  0  0  0  0  0
    3.4079   -2.5959    4.9045 O   0  0  0  0  0  0  0  0  0  0  0  0
    3.3535   -4.9793    4.9402 C   0  0  0  0  0  0  0  0  0  0  0  0
    3.2014   -6.2107    4.2737 C   0  0  0  0  0  0  0  0  0  0  0  0
    2.9529   -6.2382    2.8910 C   0  0  0  0  0  0  0  0  0  0  0  0
    2.8628   -5.0348    2.1541 C   0  0  0  0  0  0  0  0  0  0  0  0
    2.5561   -5.1017    0.8112 O   0  0  0  0  0  0  0  0  0  0  0  0
    3.5667   -4.7047   -0.1285 C   0  0  1  0  0  0  0  0  0  0  0  0
    3.1814   -3.4484   -0.8783 C   0  0  2  0  0  0  0  0  0  0  0  0
    3.5331   -2.8795   -2.2765 C   0  0  1  0  0  0  0  0  0  0  0  0
    2.4268   -3.1260   -3.3081 C   0  0  0  0  0  0  0  0  0  0  0  0
    3.8881   -1.3492   -2.1855 C   0  0  0  0  0  0  0  0  0  0  0  0
    4.3393   -3.4268    0.1592 C   0  0  2  0  0  0  0  0  0  0  0  0
    8.4008   -4.2557   -0.8952 H   0  0  0  0  0  0  0  0  0  0  0  0
    9.0698   -3.9625    0.7072 H   0  0  0  0  0  0  0  0  0  0  0  0
    8.5508   -2.6177   -0.2836 H   0  0  0  0  0  0  0  0  0  0  0  0
    6.8816   -3.1150    1.5106 H   0  0  0  0  0  0  0  0  0  0  0  0
    6.6324   -5.9049    0.2817 H   0  0  0  0  0  0  0  0  0  0  0  0
    5.7547   -5.3006    1.6877 H   0  0  0  0  0  0  0  0  0  0  0  0
    7.4911   -5.5213    1.7663 H   0  0  0  0  0  0  0  0  0  0  0  0
    5.8725   -3.9592   -1.2096 H   0  0  0  0  0  0  0  0  0  0  0  0
    6.6470   -1.2984   -0.1904 H   0  0  0  0  0  0  0  0  0  0  0  0
    6.4727   -1.8487   -1.8518 H   0  0  0  0  0  0  0  0  0  0  0  0
    2.9349   -0.6601    0.1460 H   0  0  0  0  0  0  0  0  0  0  0  0
    4.9322   -2.1270    1.7867 H   0  0  0  0  0  0  0  0  0  0  0  0
    3.5330   -4.9552    6.0036 H   0  0  0  0  0  0  0  0  0  0  0  0
    3.2610   -7.1271    4.8406 H   0  0  0  0  0  0  0  0  0  0  0  0
    2.8179   -7.1892    2.4032 H   0  0  0  0  0  0  0  0  0  0  0  0
    4.0294   -5.5148   -0.6909 H   0  0  0  0  0  0  0  0  0  0  0  0
    2.2070   -3.0749   -0.5635 H   0  0  0  0  0  0  0  0  0  0  0  0
    4.4052   -3.4174   -2.6456 H   0  0  0  0  0  0  0  0  0  0  0  0
    1.4951   -2.6354   -3.0269 H   0  0  0  0  0  0  0  0  0  0  0  0
    2.2142   -4.1858   -3.4184 H   0  0  0  0  0  0  0  0  0  0  0  0
    2.7205   -2.7541   -4.2919 H   0  0  0  0  0  0  0  0  0  0  0  0
    2.9830   -0.7349   -2.1813 H   0  0  0  0  0  0  0  0  0  0  0  0
    4.4707   -1.0399   -3.0553 H   0  0  0  0  0  0  0  0  0  0  0  0
  1  2  1  0
  1 25  1  0
  1 26  1  0
  1 27  1  0
  2  3  1  0
  2  4  1  0
  2 28  1  0
  3 29  1  0
  3 30  1  0
  3 31  1  0
 24  4  1  6
  4  5  1  0
  4 32  1  6
  5  6  1  0
  5 33  1  0
  5 34  1  0
  6 23  1  0
  6  7  2  0
  7  8  1  0
  7 35  1  0
  8 24  1  0
  8  9  1  0
  8 36  1  1
  9 10  2  0
  9 11  1  0
 11 17  2  0
 11 12  1  0
 12 13  1  0
 12 14  2  0
 14 15  1  0
 14 37  1  0
 15 16  2  0
 15 38  1  0
 16 17  1  0
 16 39  1  0
 17 18  1  0
 18 19  1  0
 19 24  1  0
 19 20  1  0
 19 40  1  6
 20 21  1  0
 20 24  1  0
 20 41  1  1
 21 22  1  0
 21 23  1  0
 21 42  1  6
 22 43  1  0
 22 44  1  0
 22 45  1  0
 23 46  1  0
 23 47  1  0
M  CHG  1  13  -1
M  END
>  <i_m_ct_stereo_status>  (25) 
1

>  <s_m_source_file>  (25) 
/var/tmp/pbs.5076255.sched01/tmpgq1_80gb/0xrgip9rw.sdf

>  <i_m_source_file_index>  (25) 
12

>  <i_lp_mmshare_version>  (25) 
48012

>  <i_f3d_flags>  (25) 
0

>  <s_epik_input>  (25) 
W0NIM11bQ0hdKFtDSDNdKVtDQEBIXTFbQ0gyXUMoPVtDSF1bQ0BASF0yW0NAQF0xMzQpW0NIMl1bQ0BIXShbQ0gzXSlbQ0BIXTRbQ0BASF0zT2M1YyhDMj1PKWMoW09IXSlbY0hdW2NIXVtjSF01

>  <s_epik_cmdline>  (25) 
J2VwaWtfcHl0aG9uJywgJy1waHQnLCAnMi4wJywgJy1waCcsICc3LjAnLCAnLXRuJywgJzgnLCAnLW1hJywgJzIwMCcsICctaW1hZScsICc8aW5maWxlLm1hZT4nLCAnLW9tYWUnLCAnPG91dGZpbGUubWFlPic=

>  <r_epik_Ionization_Penalty>  (25) 
2.05223

>  <r_epik_Ionization_Penalty_Charging>  (25) 
2.05223

>  <r_epik_Ionization_Penalty_Neutral>  (25) 
5.77935e-13

>  <r_epik_State_Penalty>  (25) 
2.1848

>  <r_epik_Charging_Adjusted_Penalty>  (25) 
4.23703

>  <i_epik_Tot_Q>  (25) 
-1

>  <i_epik_Tot_abs_Q>  (25) 
1

>  <s_lp_Force_Field>  (25) 
OPLS3e

>  <r_lp_Energy>  (25) 
92.1654

>  <b_lp_Chiralities_Consistent>  (25) 
1

>  <s_lp_Variant>  (25) 
8:0-2

>  <s_i_glide_gridfile>  (25) 
pfpi4k_grid

>  <i_i_glide_lignum>  (25) 
12

>  <i_i_glide_rotatable_bonds>  (25) 
1

>  <r_i_docking_score>  (25) 
-2.85207

>  <r_i_glide_ligand_efficiency>  (25) 
-0.118836

>  <r_i_glide_ligand_efficiency_sa>  (25) 
-0.342783

>  <r_i_glide_ligand_efficiency_ln>  (25) 
-0.682631

>  <r_i_glide_gscore>  (25) 
-2.85207

>  <r_i_glide_lipo>  (25) 
-0.726821

>  <r_i_glide_hbond>  (25) 
0

>  <r_i_glide_metal>  (25) 
-0

>  <r_i_glide_rewards>  (25) 
-1.20405

>  <r_i_glide_evdw>  (25) 
-22.497

>  <r_i_glide_ecoul>  (25) 
1.41448

>  <r_i_glide_erotb>  (25) 
0

>  <r_i_glide_esite>  (25) 
-0.00851839

>  <r_i_glide_emodel>  (25) 
-25.3158

>  <r_i_glide_energy>  (25) 
-21.0825

>  <r_i_glide_einternal>  (25) 
0.117148

>  <r_i_glide_intrahb_reward>  (25) 
-0

>  <i_i_glide_confnum>  (25) 
2

>  <i_i_glide_posenum>  (25) 
16

>  <r_i_glide_eff_state_penalty>  (25) 
0

>  <ligand_id>  (25) 
8

>  <original_smiles>  (25) 
CC(C)C1CC2=CC3C(=O)c4c(O)cccc4OC4C(C(C)C2)C314

>  <smiles>  (25) 
[H]C1=C2C([H])([H])C([H])(C([H])([H])[H])C3([H])C4([H])Oc5c([H])c([H])c([H])c([O-])c5C(=O)C1([H])C43C([H])(C([H])(C([H])([H])[H])C([H])([H])[H])C2([H])[H]

$$$$
8:1:1
     RDKit          3D

 47 51  0  0  1  0  0  0  0  0999 V2000
    5.8369   -6.7199    1.2658 C   0  0  0  0  0  0  0  0  0  0  0  0
    6.6405   -5.5283    0.7227 C   0  0  0  0  0  0  0  0  0  0  0  0
    7.3596   -4.8521    1.9000 C   0  0  0  0  0  0  0  0  0  0  0  0
    5.7890   -4.5910   -0.1934 C   0  0  2  0  0  0  0  0  0  0  0  0
    6.5745   -3.4249   -0.8679 C   0  0  0  0  0  0  0  0  0  0  0  0
    5.7396   -2.1358   -0.8615 C   0  0  0  0  0  0  0  0  0  0  0  0
    5.2092   -1.7032    0.3072 C   0  0  0  0  0  0  0  0  0  0  0  0
    4.8522   -2.8172    1.2981 C   0  0  1  0  0  0  0  0  0  0  0  0
    3.7347   -2.5098    2.3133 C   0  0  0  0  0  0  0  0  0  0  0  0
    3.1836   -1.4118    2.3624 O   0  0  0  0  0  0  0  0  0  0  0  0
    3.3691   -3.6902    3.1633 C   0  0  0  0  0  0  0  0  0  0  0  0
    3.7358   -3.7560    4.5284 C   0  0  0  0  0  0  0  0  0  0  0  0
    4.4762   -2.7841    5.1158 O   0  0  0  0  0  0  0  0  0  0  0  0
    3.3503   -4.8589    5.3148 C   0  0  0  0  0  0  0  0  0  0  0  0
    2.5901   -5.9032    4.7463 C   0  0  0  0  0  0  0  0  0  0  0  0
    2.2413   -5.8548    3.3886 C   0  0  0  0  0  0  0  0  0  0  0  0
    2.6326   -4.7668    2.5818 C   0  0  0  0  0  0  0  0  0  0  0  0
    2.2128   -4.7439    1.2707 O   0  0  0  0  0  0  0  0  0  0  0  0
    3.2046   -4.8468    0.2419 C   0  0  1  0  0  0  0  0  0  0  0  0
    3.3554   -3.5739   -0.5559 C   0  0  2  0  0  0  0  0  0  0  0  0
    3.8019   -3.2640   -2.0130 C   0  0  1  0  0  0  0  0  0  0  0  0
    2.6144   -3.0016   -2.9435 C   0  0  0  0  0  0  0  0  0  0  0  0
    4.8120   -2.0596   -2.0618 C   0  0  0  0  0  0  0  0  0  0  0  0
    4.4861   -4.0326    0.4120 C   0  0  2  0  0  0  0  0  0  0  0  0
    5.0180   -6.3934    1.9106 H   0  0  0  0  0  0  0  0  0  0  0  0
    6.4748   -7.3691    1.8657 H   0  0  0  0  0  0  0  0  0  0  0  0
    5.4047   -7.3328    0.4760 H   0  0  0  0  0  0  0  0  0  0  0  0
    7.4165   -5.9491    0.0850 H   0  0  0  0  0  0  0  0  0  0  0  0
    6.6164   -4.4771    2.6011 H   0  0  0  0  0  0  0  0  0  0  0  0
    8.0046   -4.0356    1.5863 H   0  0  0  0  0  0  0  0  0  0  0  0
    8.0186   -5.5582    2.4179 H   0  0  0  0  0  0  0  0  0  0  0  0
    5.4582   -5.2476   -0.9962 H   0  0  0  0  0  0  0  0  0  0  0  0
    7.5024   -3.2122   -0.3380 H   0  0  0  0  0  0  0  0  0  0  0  0
    6.8781   -3.6858   -1.8849 H   0  0  0  0  0  0  0  0  0  0  0  0
    4.4832   -0.8930    0.2671 H   0  0  0  0  0  0  0  0  0  0  0  0
    5.7335   -2.9918    1.8779 H   0  0  0  0  0  0  0  0  0  0  0  0
    3.6103   -4.9045    6.3622 H   0  0  0  0  0  0  0  0  0  0  0  0
    2.2717   -6.7342    5.3683 H   0  0  0  0  0  0  0  0  0  0  0  0
    1.6425   -6.6474    2.9768 H   0  0  0  0  0  0  0  0  0  0  0  0
    3.1894   -5.7991   -0.2974 H   0  0  0  0  0  0  0  0  0  0  0  0
    2.6778   -2.7922   -0.2104 H   0  0  0  0  0  0  0  0  0  0  0  0
    4.3029   -4.1495   -2.4078 H   0  0  0  0  0  0  0  0  0  0  0  0
    2.0582   -2.1144   -2.6376 H   0  0  0  0  0  0  0  0  0  0  0  0
    1.9295   -3.8481   -2.9449 H   0  0  0  0  0  0  0  0  0  0  0  0
    2.9541   -2.8423   -3.9674 H   0  0  0  0  0  0  0  0  0  0  0  0
    4.2959   -1.0971   -2.0254 H   0  0  0  0  0  0  0  0  0  0  0  0
    5.4004   -2.0865   -2.9801 H   0  0  0  0  0  0  0  0  0  0  0  0
  1  2  1  0
  1 25  1  0
  1 26  1  0
  1 27  1  0
  2  3  1  0
  2  4  1  0
  2 28  1  0
  3 29  1  0
  3 30  1  0
  3 31  1  0
 24  4  1  6
  4  5  1  0
  4 32  1  6
  5  6  1  0
  5 33  1  0
  5 34  1  0
  6 23  1  0
  6  7  2  0
  7  8  1  0
  7 35  1  0
  8 24  1  0
  8  9  1  0
  8 36  1  1
  9 10  2  0
  9 11  1  0
 11 17  2  0
 11 12  1  0
 12 13  1  0
 12 14  2  0
 14 15  1  0
 14 37  1  0
 15 16  2  0
 15 38  1  0
 16 17  1  0
 16 39  1  0
 17 18  1  0
 18 19  1  0
 19 24  1  0
 19 20  1  0
 19 40  1  6
 20 21  1  0
 20 24  1  0
 20 41  1  1
 21 22  1  0
 21 23  1  0
 21 42  1  6
 22 43  1  0
 22 44  1  0
 22 45  1  0
 23 46  1  0
 23 47  1  0
M  CHG  1  13  -1
M  END
>  <i_m_ct_stereo_status>  (26) 
1

>  <s_m_source_file>  (26) 
/var/tmp/pbs.5076255.sched01/tmpgq1_80gb/0xrgip9rw.sdf

>  <i_m_source_file_index>  (26) 
12

>  <i_lp_mmshare_version>  (26) 
48012

>  <i_f3d_flags>  (26) 
0

>  <s_epik_input>  (26) 
W0NIM11bQ0hdKFtDSDNdKVtDQEBIXTFbQ0gyXUMoPVtDSF1bQ0BASF0yW0NAQF0xMzQpW0NIMl1bQ0BIXShbQ0gzXSlbQ0BIXTRbQ0BASF0zT2M1YyhDMj1PKWMoW09IXSlbY0hdW2NIXVtjSF01

>  <s_epik_cmdline>  (26) 
J2VwaWtfcHl0aG9uJywgJy1waHQnLCAnMi4wJywgJy1waCcsICc3LjAnLCAnLXRuJywgJzgnLCAnLW1hJywgJzIwMCcsICctaW1hZScsICc8aW5maWxlLm1hZT4nLCAnLW9tYWUnLCAnPG91dGZpbGUubWFlPic=

>  <r_epik_Ionization_Penalty>  (26) 
2.05223

>  <r_epik_Ionization_Penalty_Charging>  (26) 
2.05223

>  <r_epik_Ionization_Penalty_Neutral>  (26) 
5.77935e-13

>  <r_epik_State_Penalty>  (26) 
2.1848

>  <r_epik_Charging_Adjusted_Penalty>  (26) 
4.23703

>  <i_epik_Tot_Q>  (26) 
-1

>  <i_epik_Tot_abs_Q>  (26) 
1

>  <s_lp_Force_Field>  (26) 
OPLS3e

>  <r_lp_Energy>  (26) 
92.1654

>  <b_lp_Chiralities_Consistent>  (26) 
1

>  <s_lp_Variant>  (26) 
8:0-2

>  <s_i_glide_gridfile>  (26) 
pfpi4k_grid

>  <i_i_glide_lignum>  (26) 
12

>  <i_i_glide_rotatable_bonds>  (26) 
1

>  <r_i_docking_score>  (26) 
-2.73003

>  <r_i_glide_ligand_efficiency>  (26) 
-0.113751

>  <r_i_glide_ligand_efficiency_sa>  (26) 
-0.328115

>  <r_i_glide_ligand_efficiency_ln>  (26) 
-0.653421

>  <r_i_glide_gscore>  (26) 
-2.73003

>  <r_i_glide_lipo>  (26) 
-0.624034

>  <r_i_glide_hbond>  (26) 
-0.00989802

>  <r_i_glide_metal>  (26) 
-0

>  <r_i_glide_rewards>  (26) 
-1.20405

>  <r_i_glide_evdw>  (26) 
-18.987

>  <r_i_glide_ecoul>  (26) 
0.383569

>  <r_i_glide_erotb>  (26) 
0

>  <r_i_glide_esite>  (26) 
-0.00022639

>  <r_i_glide_emodel>  (26) 
-20.9381

>  <r_i_glide_energy>  (26) 
-18.6035

>  <r_i_glide_einternal>  (26) 
3.07476

>  <r_i_glide_intrahb_reward>  (26) 
-0

>  <i_i_glide_confnum>  (26) 
1

>  <i_i_glide_posenum>  (26) 
27

>  <r_i_glide_eff_state_penalty>  (26) 
0

>  <ligand_id>  (26) 
8

>  <original_smiles>  (26) 
CC(C)C1CC2=CC3C(=O)c4c(O)cccc4OC4C(C(C)C2)C314

>  <smiles>  (26) 
[H]C1=C2C([H])([H])C([H])(C([H])([H])[H])C3([H])C4([H])Oc5c([H])c([H])c([H])c([O-])c5C(=O)C1([H])C43C([H])(C([H])(C([H])([H])[H])C([H])([H])[H])C2([H])[H]

$$$$
8:1:2
     RDKit          3D

 47 51  0  0  1  0  0  0  0  0999 V2000
    2.3666    0.8501    1.5663 C   0  0  0  0  0  0  0  0  0  0  0  0
    1.5754   -0.2439    2.3090 C   0  0  0  0  0  0  0  0  0  0  0  0
    0.5422    0.4199    3.2467 C   0  0  0  0  0  0  0  0  0  0  0  0
    2.4143   -1.3179    3.0645 C   0  0  2  0  0  0  0  0  0  0  0  0
    3.3364   -0.7612    4.1873 C   0  0  0  0  0  0  0  0  0  0  0  0
    4.6892   -1.4784    4.1690 C   0  0  0  0  0  0  0  0  0  0  0  0
    5.3679   -1.5478    2.9954 C   0  0  0  0  0  0  0  0  0  0  0  0
    4.5145   -1.5833    1.7330 C   0  0  1  0  0  0  0  0  0  0  0  0
    5.1410   -2.2762    0.5093 C   0  0  0  0  0  0  0  0  0  0  0  0
    6.3112   -2.6924    0.5204 O   0  0  0  0  0  0  0  0  0  0  0  0
    4.2108   -2.3893   -0.6519 C   0  0  0  0  0  0  0  0  0  0  0  0
    4.3755   -1.5858   -1.8092 C   0  0  0  0  0  0  0  0  0  0  0  0
    5.3939   -0.6854   -1.9266 O   0  0  0  0  0  0  0  0  0  0  0  0
    3.4719   -1.7044   -2.8796 C   0  0  0  0  0  0  0  0  0  0  0  0
    2.4263   -2.6597   -2.8358 C   0  0  0  0  0  0  0  0  0  0  0  0
    2.2588   -3.4577   -1.6941 C   0  0  0  0  0  0  0  0  0  0  0  0
    3.1213   -3.3165   -0.5817 C   0  0  0  0  0  0  0  0  0  0  0  0
    2.9581   -4.1591    0.4957 O   0  0  0  0  0  0  0  0  0  0  0  0
    2.5487   -3.6079    1.7500 C   0  0  1  0  0  0  0  0  0  0  0  0
    3.6351   -3.6734    2.7932 C   0  0  2  0  0  0  0  0  0  0  0  0
    3.6254   -3.7529    4.3386 C   0  0  1  0  0  0  0  0  0  0  0  0
    3.8596   -5.1763    4.8540 C   0  0  0  0  0  0  0  0  0  0  0  0
    4.6676   -2.7627    4.9728 C   0  0  0  0  0  0  0  0  0  0  0  0
    3.2144   -2.2915    2.1817 C   0  0  2  0  0  0  0  0  0  0  0  0
    3.0563    1.3882    2.2133 H   0  0  0  0  0  0  0  0  0  0  0  0
    1.6641    1.6063    1.1947 H   0  0  0  0  0  0  0  0  0  0  0  0
    2.9368    0.4183    0.7433 H   0  0  0  0  0  0  0  0  0  0  0  0
    1.0033   -0.7798    1.5583 H   0  0  0  0  0  0  0  0  0  0  0  0
    1.0286    0.9125    4.0860 H   0  0  0  0  0  0  0  0  0  0  0  0
   -0.1753   -0.3007    3.6417 H   0  0  0  0  0  0  0  0  0  0  0  0
   -0.0192    1.1797    2.7073 H   0  0  0  0  0  0  0  0  0  0  0  0
    1.6632   -1.9280    3.5596 H   0  0  0  0  0  0  0  0  0  0  0  0
    3.5388    0.3007    4.0439 H   0  0  0  0  0  0  0  0  0  0  0  0
    2.8560   -0.8413    5.1681 H   0  0  0  0  0  0  0  0  0  0  0  0
    6.2128   -2.2387    2.9520 H   0  0  0  0  0  0  0  0  0  0  0  0
    4.3511   -0.5597    1.4544 H   0  0  0  0  0  0  0  0  0  0  0  0
    3.5785   -1.0970   -3.7665 H   0  0  0  0  0  0  0  0  0  0  0  0
    1.7646   -2.7879   -3.6890 H   0  0  0  0  0  0  0  0  0  0  0  0
    1.4686   -4.2076   -1.6894 H   0  0  0  0  0  0  0  0  0  0  0  0
    1.5413   -3.8786    2.0803 H   0  0  0  0  0  0  0  0  0  0  0  0
    4.5413   -4.1338    2.4049 H   0  0  0  0  0  0  0  0  0  0  0  0
    2.6284   -3.4691    4.6804 H   0  0  0  0  0  0  0  0  0  0  0  0
    4.8485   -5.5481    4.5779 H   0  0  0  0  0  0  0  0  0  0  0  0
    3.1137   -5.8630    4.4559 H   0  0  0  0  0  0  0  0  0  0  0  0
    3.7894   -5.2026    5.9416 H   0  0  0  0  0  0  0  0  0  0  0  0
    5.6764   -3.1794    4.9713 H   0  0  0  0  0  0  0  0  0  0  0  0
    4.4088   -2.5365    6.0055 H   0  0  0  0  0  0  0  0  0  0  0  0
  1  2  1  0
  1 25  1  0
  1 26  1  0
  1 27  1  0
  2  3  1  0
  2  4  1  0
  2 28  1  0
  3 29  1  0
  3 30  1  0
  3 31  1  0
 24  4  1  1
  4  5  1  0
  4 32  1  1
  5  6  1  0
  5 33  1  0
  5 34  1  0
  6 23  1  0
  6  7  2  0
  7  8  1  0
  7 35  1  0
  8 24  1  0
  8  9  1  0
  8 36  1  6
  9 10  2  0
  9 11  1  0
 11 17  2  0
 11 12  1  0
 12 13  1  0
 12 14  2  0
 14 15  1  0
 14 37  1  0
 15 16  2  0
 15 38  1  0
 16 17  1  0
 16 39  1  0
 17 18  1  0
 18 19  1  0
 19 24  1  0
 19 20  1  0
 19 40  1  1
 20 21  1  0
 20 24  1  0
 20 41  1  6
 21 22  1  0
 21 23  1  0
 21 42  1  1
 22 43  1  0
 22 44  1  0
 22 45  1  0
 23 46  1  0
 23 47  1  0
M  CHG  1  13  -1
M  END
>  <i_m_ct_stereo_status>  (27) 
1

>  <s_m_source_file>  (27) 
/var/tmp/pbs.5076255.sched01/tmpgq1_80gb/0xrgip9rw.sdf

>  <i_m_source_file_index>  (27) 
12

>  <i_lp_mmshare_version>  (27) 
48012

>  <i_f3d_flags>  (27) 
0

>  <s_epik_input>  (27) 
W0NIM11bQ0hdKFtDSDNdKVtDQEBIXTFbQ0gyXUMoPVtDSF1bQ0BASF0yW0NAQF0xMzQpW0NIMl1bQ0BIXShbQ0gzXSlbQ0BIXTRbQ0BASF0zT2M1YyhDMj1PKWMoW09IXSlbY0hdW2NIXVtjSF01

>  <s_epik_cmdline>  (27) 
J2VwaWtfcHl0aG9uJywgJy1waHQnLCAnMi4wJywgJy1waCcsICc3LjAnLCAnLXRuJywgJzgnLCAnLW1hJywgJzIwMCcsICctaW1hZScsICc8aW5maWxlLm1hZT4nLCAnLW9tYWUnLCAnPG91dGZpbGUubWFlPic=

>  <r_epik_Ionization_Penalty>  (27) 
2.05223

>  <r_epik_Ionization_Penalty_Charging>  (27) 
2.05223

>  <r_epik_Ionization_Penalty_Neutral>  (27) 
5.77935e-13

>  <r_epik_State_Penalty>  (27) 
2.1848

>  <r_epik_Charging_Adjusted_Penalty>  (27) 
4.23703

>  <i_epik_Tot_Q>  (27) 
-1

>  <i_epik_Tot_abs_Q>  (27) 
1

>  <s_lp_Force_Field>  (27) 
OPLS3e

>  <r_lp_Energy>  (27) 
92.1654

>  <b_lp_Chiralities_Consistent>  (27) 
1

>  <s_lp_Variant>  (27) 
8:0-2

>  <s_i_glide_gridfile>  (27) 
pfpi4k_grid

>  <i_i_glide_lignum>  (27) 
12

>  <i_i_glide_rotatable_bonds>  (27) 
1

>  <r_i_docking_score>  (27) 
-2.59539

>  <r_i_glide_ligand_efficiency>  (27) 
-0.108141

>  <r_i_glide_ligand_efficiency_sa>  (27) 
-0.311934

>  <r_i_glide_ligand_efficiency_ln>  (27) 
-0.621197

>  <r_i_glide_gscore>  (27) 
-2.59539

>  <r_i_glide_lipo>  (27) 
-0.365999

>  <r_i_glide_hbond>  (27) 
-0.00607037

>  <r_i_glide_metal>  (27) 
-0

>  <r_i_glide_rewards>  (27) 
-1.24456

>  <r_i_glide_evdw>  (27) 
-19.7333

>  <r_i_glide_ecoul>  (27) 
0.0526796

>  <r_i_glide_erotb>  (27) 
0

>  <r_i_glide_esite>  (27) 
0

>  <r_i_glide_emodel>  (27) 
-21.6639

>  <r_i_glide_energy>  (27) 
-19.6806

>  <r_i_glide_einternal>  (27) 
3.07164

>  <r_i_glide_intrahb_reward>  (27) 
-0

>  <i_i_glide_confnum>  (27) 
1

>  <i_i_glide_posenum>  (27) 
6

>  <r_i_glide_eff_state_penalty>  (27) 
0

>  <ligand_id>  (27) 
8

>  <original_smiles>  (27) 
CC(C)C1CC2=CC3C(=O)c4c(O)cccc4OC4C(C(C)C2)C314

>  <smiles>  (27) 
[H]C1=C2C([H])([H])C([H])(C([H])([H])[H])C3([H])C4([H])Oc5c([H])c([H])c([H])c([O-])c5C(=O)C1([H])C43C([H])(C([H])(C([H])([H])[H])C([H])([H])[H])C2([H])[H]

$$$$
10:0:0
     RDKit          3D

 52 55  0  0  1  0  0  0  0  0999 V2000
    6.0730   -1.4681   -0.4733 C   0  0  0  0  0  0  0  0  0  0  0  0
    4.8565   -2.3884   -0.1910 C   0  0  1  0  0  0  0  0  0  0  0  0
    3.5461   -1.6583   -0.5966 C   0  0  0  0  0  0  0  0  0  0  0  0
    3.4783   -1.3261   -2.1073 C   0  0  0  0  0  0  0  0  0  0  0  0
    3.7026   -2.5806   -2.9693 C   0  0  1  0  0  0  0  0  0  0  0  0
    3.7998   -2.1762   -4.3282 O   0  0  0  0  0  0  0  0  0  0  0  0
    4.9652   -3.3735   -2.5703 C   0  0  0  0  0  0  0  0  0  0  0  0
    4.9513   -3.6386   -1.0649 C   0  0  0  0  0  0  0  0  0  0  0  0
    4.9304   -4.8870   -0.5799 C   0  0  0  0  0  0  0  0  0  0  0  0
    4.7664   -5.2386    0.8841 C   0  0  0  0  0  0  0  0  0  0  0  0
    4.2068   -4.0655    1.7230 C   0  0  2  0  0  0  0  0  0  0  0  0
    4.9295   -2.7502    1.3387 C   0  0  2  0  0  0  0  0  0  0  0  0
    4.5150   -1.5735    2.2597 C   0  0  0  0  0  0  0  0  0  0  0  0
    4.7161   -1.9145    3.7396 C   0  0  1  0  0  0  0  0  0  0  0  0
    4.3021   -0.7972    4.5235 O   0  0  0  0  0  0  0  0  0  0  0  0
    4.0319   -3.2218    4.2036 C   0  0  1  0  0  0  0  0  0  0  0  0
    4.6112   -3.5643    5.6106 C   0  0  0  0  0  0  0  0  0  0  0  0
    2.4809   -3.2098    4.3100 C   0  0  1  0  0  0  0  0  0  0  0  0
    1.8225   -2.4657    3.3051 O   0  0  0  0  0  0  0  0  0  0  0  0
    2.0411   -4.6829    4.1424 C   0  0  0  0  0  0  0  0  0  0  0  0
    3.2846   -5.4674    3.6925 C   0  0  0  0  0  0  0  0  0  0  0  0
    4.3183   -4.4082    3.2468 C   0  0  1  0  0  0  0  0  0  0  0  0
    6.0697   -0.5717    0.1364 H   0  0  0  0  0  0  0  0  0  0  0  0
    6.1073   -1.1160   -1.5043 H   0  0  0  0  0  0  0  0  0  0  0  0
    7.0042   -1.9878   -0.2676 H   0  0  0  0  0  0  0  0  0  0  0  0
    2.6828   -2.2649   -0.3416 H   0  0  0  0  0  0  0  0  0  0  0  0
    3.4130   -0.7187   -0.0610 H   0  0  0  0  0  0  0  0  0  0  0  0
    2.5118   -0.8823   -2.3435 H   0  0  0  0  0  0  0  0  0  0  0  0
    4.2174   -0.5601   -2.3494 H   0  0  0  0  0  0  0  0  0  0  0  0
    2.8343   -3.2365   -2.8808 H   0  0  0  0  0  0  0  0  0  0  0  0
    2.9709   -1.8241   -4.5812 H   0  0  0  0  0  0  0  0  0  0  0  0
    5.0066   -4.3112   -3.1251 H   0  0  0  0  0  0  0  0  0  0  0  0
    5.8690   -2.8253   -2.8336 H   0  0  0  0  0  0  0  0  0  0  0  0
    4.9883   -5.7324   -1.2530 H   0  0  0  0  0  0  0  0  0  0  0  0
    4.1058   -6.1056    0.9503 H   0  0  0  0  0  0  0  0  0  0  0  0
    5.7364   -5.5705    1.2502 H   0  0  0  0  0  0  0  0  0  0  0  0
    3.1495   -3.9619    1.4661 H   0  0  0  0  0  0  0  0  0  0  0  0
    5.9780   -2.9617    1.5622 H   0  0  0  0  0  0  0  0  0  0  0  0
    5.1339   -0.6985    2.0456 H   0  0  0  0  0  0  0  0  0  0  0  0
    3.4885   -1.2734    2.0772 H   0  0  0  0  0  0  0  0  0  0  0  0
    5.7839   -2.0153    3.8873 H   0  0  0  0  0  0  0  0  0  0  0  0
    4.7081   -0.0302    4.2127 H   0  0  0  0  0  0  0  0  0  0  0  0
    4.1645   -4.4491    6.0608 H   0  0  0  0  0  0  0  0  0  0  0  0
    4.4565   -2.7535    6.3239 H   0  0  0  0  0  0  0  0  0  0  0  0
    5.6840   -3.7430    5.5740 H   0  0  0  0  0  0  0  0  0  0  0  0
    2.1481   -2.8047    5.2657 H   0  0  0  0  0  0  0  0  0  0  0  0
    2.2414   -2.6284    2.4748 H   0  0  0  0  0  0  0  0  0  0  0  0
    1.6412   -5.0757    5.0806 H   0  0  0  0  0  0  0  0  0  0  0  0
    1.2495   -4.7958    3.3939 H   0  0  0  0  0  0  0  0  0  0  0  0
    3.6796   -6.0250    4.5422 H   0  0  0  0  0  0  0  0  0  0  0  0
    3.0534   -6.2059    2.9250 H   0  0  0  0  0  0  0  0  0  0  0  0
    5.3263   -4.7815    3.4206 H   0  0  0  0  0  0  0  0  0  0  0  0
  2  1  1  6
  1 23  1  0
  1 24  1  0
  1 25  1  0
  2  8  1  0
  2 12  1  0
  2  3  1  0
  3  4  1  0
  3 26  1  0
  3 27  1  0
  4  5  1  0
  4 28  1  0
  4 29  1  0
  5  6  1  0
  5  7  1  0
  5 30  1  6
  6 31  1  0
  7  8  1  0
  7 32  1  0
  7 33  1  0
  8  9  2  0
  9 10  1  0
  9 34  1  0
 10 11  1  0
 10 35  1  0
 10 36  1  0
 11 22  1  0
 11 12  1  0
 11 37  1  6
 12 13  1  0
 12 38  1  1
 13 14  1  0
 13 39  1  0
 13 40  1  0
 14 15  1  0
 14 16  1  0
 14 41  1  6
 15 42  1  0
 16 22  1  0
 16 17  1  1
 16 18  1  0
 17 43  1  0
 17 44  1  0
 17 45  1  0
 18 19  1  0
 18 20  1  0
 18 46  1  1
 19 47  1  0
 20 21  1  0
 20 48  1  0
 20 49  1  0
 21 22  1  0
 21 50  1  0
 21 51  1  0
 22 52  1  6
M  END
>  <i_m_ct_stereo_status>  (28) 
1

>  <s_m_source_file>  (28) 
/var/tmp/pbs.5076255.sched01/tmpgq1_80gb/0xrgip9rw.sdf

>  <i_m_source_file_index>  (28) 
14

>  <i_lp_mmshare_version>  (28) 
48012

>  <i_f3d_flags>  (28) 
0

>  <s_epik_input>  (28) 
W0NIMl0xW0NIMl1bQ0BASF0oW09IXSlbQ0gyXUMoW0NAQF0xMltDSDNdKT1bQ0hdW0NIMl1bQ0BASF0zW0NAQEhdMltDSDJdW0NAQEhdKFtPSF0pW0NAXTQoW0NIM10pW0NASF0zW0NIMl1bQ0gyXVtDQEBIXTRbT0hd

>  <s_epik_cmdline>  (28) 
J2VwaWtfcHl0aG9uJywgJy1waHQnLCAnMi4wJywgJy1waCcsICc3LjAnLCAnLXRuJywgJzgnLCAnLW1hJywgJzIwMCcsICctaW1hZScsICc8aW5maWxlLm1hZT4nLCAnLW9tYWUnLCAnPG91dGZpbGUubWFlPic=

>  <r_lp_tautomer_probability>  (28) 
1

>  <r_epik_Ionization_Penalty>  (28) 
3.43139e-06

>  <r_epik_Ionization_Penalty_Charging>  (28) 
0

>  <r_epik_Ionization_Penalty_Neutral>  (28) 
3.43139e-06

>  <r_epik_State_Penalty>  (28) 
-0

>  <r_epik_Charging_Adjusted_Penalty>  (28) 
0

>  <i_epik_Tot_Q>  (28) 
0

>  <i_epik_Tot_abs_Q>  (28) 
0

>  <s_lp_Force_Field>  (28) 
OPLS3e

>  <r_lp_Energy>  (28) 
33.6992

>  <b_lp_Chiralities_Consistent>  (28) 
1

>  <s_lp_Variant>  (28) 
10:0-1

>  <s_i_glide_gridfile>  (28) 
pfpi4k_grid

>  <i_i_glide_lignum>  (28) 
14

>  <i_i_glide_rotatable_bonds>  (28) 
3

>  <r_i_docking_score>  (28) 
-3.82553

>  <r_i_glide_ligand_efficiency>  (28) 
-0.173888

>  <r_i_glide_ligand_efficiency_sa>  (28) 
-0.48724

>  <r_i_glide_ligand_efficiency_ln>  (28) 
-0.935099

>  <r_i_glide_gscore>  (28) 
-3.82553

>  <r_i_glide_lipo>  (28) 
-0.431021

>  <r_i_glide_hbond>  (28) 
-0.340892

>  <r_i_glide_metal>  (28) 
-0

>  <r_i_glide_rewards>  (28) 
-1.31973

>  <r_i_glide_evdw>  (28) 
-22.5304

>  <r_i_glide_ecoul>  (28) 
-4.04912

>  <r_i_glide_erotb>  (28) 
0

>  <r_i_glide_esite>  (28) 
0

>  <r_i_glide_emodel>  (28) 
-32.4254

>  <r_i_glide_energy>  (28) 
-26.5795

>  <r_i_glide_einternal>  (28) 
0.759538

>  <r_i_glide_intrahb_reward>  (28) 
-0

>  <i_i_glide_confnum>  (28) 
2

>  <i_i_glide_posenum>  (28) 
23

>  <r_i_glide_eff_state_penalty>  (28) 
0

>  <ligand_id>  (28) 
10

>  <original_smiles>  (28) 
CC12CCC(O)CC1=CCC1C2CC(O)C2(C)C(O)CCC12

>  <smiles>  (28) 
[H]OC1([H])C([H])([H])C2=C([H])C([H])([H])C3([H])C([H])(C([H])([H])C([H])(O[H])C4(C([H])([H])[H])C([H])(O[H])C([H])([H])C([H])([H])C34[H])C2(C([H])([H])[H])C([H])([H])C1([H])[H]

$$$$
10:0:1
     RDKit          3D

 52 55  0  0  1  0  0  0  0  0999 V2000
    6.0849   -1.4738   -0.5203 C   0  0  0  0  0  0  0  0  0  0  0  0
    4.8695   -2.3736   -0.1886 C   0  0  1  0  0  0  0  0  0  0  0  0
    3.5516   -1.6697   -0.6341 C   0  0  0  0  0  0  0  0  0  0  0  0
    3.4699   -1.4144   -2.1518 C   0  0  0  0  0  0  0  0  0  0  0  0
    3.6967   -2.7015   -2.9504 C   0  0  1  0  0  0  0  0  0  0  0  0
    3.7889   -2.3632   -4.3229 O   0  0  0  0  0  0  0  0  0  0  0  0
    4.9591   -3.4724   -2.5188 C   0  0  0  0  0  0  0  0  0  0  0  0
    4.9530   -3.6685   -1.0087 C   0  0  0  0  0  0  0  0  0  0  0  0
    4.9291   -4.8991   -0.4575 C   0  0  0  0  0  0  0  0  0  0  0  0
    4.7607   -5.1735    1.0240 C   0  0  0  0  0  0  0  0  0  0  0  0
    4.1976   -3.9608    1.8033 C   0  0  2  0  0  0  0  0  0  0  0  0
    4.9365   -2.6667    1.3583 C   0  0  2  0  0  0  0  0  0  0  0  0
    4.5092   -1.4447    2.2100 C   0  0  0  0  0  0  0  0  0  0  0  0
    4.7098   -1.7076    3.7007 C   0  0  1  0  0  0  0  0  0  0  0  0
    4.3405   -0.5363    4.4146 O   0  0  0  0  0  0  0  0  0  0  0  0
    4.0202   -2.9930    4.2483 C   0  0  1  0  0  0  0  0  0  0  0  0
    4.6176   -3.2673    5.6667 C   0  0  0  0  0  0  0  0  0  0  0  0
    2.4772   -2.9720    4.3765 C   0  0  1  0  0  0  0  0  0  0  0  0
    1.7853   -2.2653    3.3505 O   0  0  0  0  0  0  0  0  0  0  0  0
    2.0331   -4.4483    4.2470 C   0  0  0  0  0  0  0  0  0  0  0  0
    3.2723   -5.2587    3.8344 C   0  0  0  0  0  0  0  0  0  0  0  0
    4.3096   -4.2291    3.3405 C   0  0  1  0  0  0  0  0  0  0  0  0
    6.0854   -0.5566    0.0530 H   0  0  0  0  0  0  0  0  0  0  0  0
    6.1173   -1.1740   -1.5604 H   0  0  0  0  0  0  0  0  0  0  0  0
    7.0116   -1.9783   -0.2721 H   0  0  0  0  0  0  0  0  0  0  0  0
    2.6900   -2.2727   -0.3363 H   0  0  0  0  0  0  0  0  0  0  0  0
    3.4117   -0.7079   -0.1391 H   0  0  0  0  0  0  0  0  0  0  0  0
    2.4931   -0.9884   -2.3996 H   0  0  0  0  0  0  0  0  0  0  0  0
    4.2098   -0.6572   -2.4272 H   0  0  0  0  0  0  0  0  0  0  0  0
    2.8368   -3.3516   -2.8357 H   0  0  0  0  0  0  0  0  0  0  0  0
    2.9421   -2.0384   -4.6037 H   0  0  0  0  0  0  0  0  0  0  0  0
    4.9865   -4.4435   -3.0241 H   0  0  0  0  0  0  0  0  0  0  0  0
    5.8687   -2.9468   -2.8157 H   0  0  0  0  0  0  0  0  0  0  0  0
    4.9783   -5.7698   -1.0890 H   0  0  0  0  0  0  0  0  0  0  0  0
    4.1012   -6.0381    1.1307 H   0  0  0  0  0  0  0  0  0  0  0  0
    5.7287   -5.4879    1.4043 H   0  0  0  0  0  0  0  0  0  0  0  0
    3.1459   -3.8540    1.5519 H   0  0  0  0  0  0  0  0  0  0  0  0
    5.9846   -2.8768    1.5930 H   0  0  0  0  0  0  0  0  0  0  0  0
    5.1501   -0.5900    1.9677 H   0  0  0  0  0  0  0  0  0  0  0  0
    3.4739   -1.1759    2.0246 H   0  0  0  0  0  0  0  0  0  0  0  0
    5.7686   -1.8195    3.8581 H   0  0  0  0  0  0  0  0  0  0  0  0
    3.4204   -0.3972    4.3606 H   0  0  0  0  0  0  0  0  0  0  0  0
    4.1777   -4.1251    6.1624 H   0  0  0  0  0  0  0  0  0  0  0  0
    4.4729   -2.4266    6.3395 H   0  0  0  0  0  0  0  0  0  0  0  0
    5.6842   -3.4491    5.6377 H   0  0  0  0  0  0  0  0  0  0  0  0
    2.1835   -2.5630    5.3533 H   0  0  0  0  0  0  0  0  0  0  0  0
    2.1836   -1.4255    3.1778 H   0  0  0  0  0  0  0  0  0  0  0  0
    1.6266   -4.8110    5.1951 H   0  0  0  0  0  0  0  0  0  0  0  0
    1.2503   -4.5778    3.4995 H   0  0  0  0  0  0  0  0  0  0  0  0
    3.6676   -5.7842    4.7089 H   0  0  0  0  0  0  0  0  0  0  0  0
    3.0413   -6.0342    3.1009 H   0  0  0  0  0  0  0  0  0  0  0  0
    5.3154   -4.5951    3.5338 H   0  0  0  0  0  0  0  0  0  0  0  0
  2  1  1  6
  1 23  1  0
  1 24  1  0
  1 25  1  0
  2  8  1  0
  2 12  1  0
  2  3  1  0
  3  4  1  0
  3 26  1  0
  3 27  1  0
  4  5  1  0
  4 28  1  0
  4 29  1  0
  5  6  1  0
  5  7  1  0
  5 30  1  6
  6 31  1  0
  7  8  1  0
  7 32  1  0
  7 33  1  0
  8  9  2  0
  9 10  1  0
  9 34  1  0
 10 11  1  0
 10 35  1  0
 10 36  1  0
 11 22  1  0
 11 12  1  0
 11 37  1  6
 12 13  1  0
 12 38  1  1
 13 14  1  0
 13 39  1  0
 13 40  1  0
 14 15  1  0
 14 16  1  0
 14 41  1  6
 15 42  1  0
 16 22  1  0
 16 17  1  1
 16 18  1  0
 17 43  1  0
 17 44  1  0
 17 45  1  0
 18 19  1  0
 18 20  1  0
 18 46  1  1
 19 47  1  0
 20 21  1  0
 20 48  1  0
 20 49  1  0
 21 22  1  0
 21 50  1  0
 21 51  1  0
 22 52  1  6
M  END
>  <i_m_ct_stereo_status>  (29) 
1

>  <s_m_source_file>  (29) 
/var/tmp/pbs.5076255.sched01/tmpgq1_80gb/0xrgip9rw.sdf

>  <i_m_source_file_index>  (29) 
14

>  <i_lp_mmshare_version>  (29) 
48012

>  <i_f3d_flags>  (29) 
0

>  <s_epik_input>  (29) 
W0NIMl0xW0NIMl1bQ0BASF0oW09IXSlbQ0gyXUMoW0NAQF0xMltDSDNdKT1bQ0hdW0NIMl1bQ0BASF0zW0NAQEhdMltDSDJdW0NAQEhdKFtPSF0pW0NAXTQoW0NIM10pW0NASF0zW0NIMl1bQ0gyXVtDQEBIXTRbT0hd

>  <s_epik_cmdline>  (29) 
J2VwaWtfcHl0aG9uJywgJy1waHQnLCAnMi4wJywgJy1waCcsICc3LjAnLCAnLXRuJywgJzgnLCAnLW1hJywgJzIwMCcsICctaW1hZScsICc8aW5maWxlLm1hZT4nLCAnLW9tYWUnLCAnPG91dGZpbGUubWFlPic=

>  <r_lp_tautomer_probability>  (29) 
1

>  <r_epik_Ionization_Penalty>  (29) 
3.43139e-06

>  <r_epik_Ionization_Penalty_Charging>  (29) 
0

>  <r_epik_Ionization_Penalty_Neutral>  (29) 
3.43139e-06

>  <r_epik_State_Penalty>  (29) 
-0

>  <r_epik_Charging_Adjusted_Penalty>  (29) 
0

>  <i_epik_Tot_Q>  (29) 
0

>  <i_epik_Tot_abs_Q>  (29) 
0

>  <s_lp_Force_Field>  (29) 
OPLS3e

>  <r_lp_Energy>  (29) 
33.6992

>  <b_lp_Chiralities_Consistent>  (29) 
1

>  <s_lp_Variant>  (29) 
10:0-1

>  <s_i_glide_gridfile>  (29) 
pfpi4k_grid

>  <i_i_glide_lignum>  (29) 
14

>  <i_i_glide_rotatable_bonds>  (29) 
3

>  <r_i_docking_score>  (29) 
-3.77847

>  <r_i_glide_ligand_efficiency>  (29) 
-0.171748

>  <r_i_glide_ligand_efficiency_sa>  (29) 
-0.481246

>  <r_i_glide_ligand_efficiency_ln>  (29) 
-0.923595

>  <r_i_glide_gscore>  (29) 
-3.77847

>  <r_i_glide_lipo>  (29) 
-0.372811

>  <r_i_glide_hbond>  (29) 
-0.37339

>  <r_i_glide_metal>  (29) 
-0

>  <r_i_glide_rewards>  (29) 
-1.31973

>  <r_i_glide_evdw>  (29) 
-22.826

>  <r_i_glide_ecoul>  (29) 
-3.80825

>  <r_i_glide_erotb>  (29) 
0

>  <r_i_glide_esite>  (29) 
0

>  <r_i_glide_emodel>  (29) 
-32.3643

>  <r_i_glide_energy>  (29) 
-26.6342

>  <r_i_glide_einternal>  (29) 
0.725612

>  <r_i_glide_intrahb_reward>  (29) 
-0

>  <i_i_glide_confnum>  (29) 
1

>  <i_i_glide_posenum>  (29) 
33

>  <r_i_glide_eff_state_penalty>  (29) 
0

>  <ligand_id>  (29) 
10

>  <original_smiles>  (29) 
CC12CCC(O)CC1=CCC1C2CC(O)C2(C)C(O)CCC12

>  <smiles>  (29) 
[H]OC1([H])C([H])([H])C2=C([H])C([H])([H])C3([H])C([H])(C([H])([H])C([H])(O[H])C4(C([H])([H])[H])C([H])(O[H])C([H])([H])C([H])([H])C34[H])C2(C([H])([H])[H])C([H])([H])C1([H])[H]

$$$$
10:0:2
     RDKit          3D

 52 55  0  0  1  0  0  0  0  0999 V2000
    6.2636   -1.6736   -0.3217 C   0  0  0  0  0  0  0  0  0  0  0  0
    4.9393   -2.4168   -0.0459 C   0  0  1  0  0  0  0  0  0  0  0  0
    3.7443   -1.5417   -0.5176 C   0  0  0  0  0  0  0  0  0  0  0  0
    3.7443   -1.2570   -2.0356 C   0  0  0  0  0  0  0  0  0  0  0  0
    3.8361   -2.5518   -2.8646 C   0  0  1  0  0  0  0  0  0  0  0  0
    3.9872   -2.2118   -4.2299 O   0  0  0  0  0  0  0  0  0  0  0  0
    4.9776   -3.4773   -2.3952 C   0  0  0  0  0  0  0  0  0  0  0  0
    4.8951   -3.7004   -0.8888 C   0  0  0  0  0  0  0  0  0  0  0  0
    4.7001   -4.9190   -0.3616 C   0  0  0  0  0  0  0  0  0  0  0  0
    4.4554   -5.1994    1.1048 C   0  0  0  0  0  0  0  0  0  0  0  0
    4.0208   -3.9394    1.8917 C   0  0  2  0  0  0  0  0  0  0  0  0
    4.9209   -2.7404    1.4898 C   0  0  2  0  0  0  0  0  0  0  0  0
    4.6339   -1.4983    2.3622 C   0  0  0  0  0  0  0  0  0  0  0  0
    4.7461   -1.8069    3.8556 C   0  0  1  0  0  0  0  0  0  0  0  0
    4.4408   -0.6209    4.5697 O   0  0  0  0  0  0  0  0  0  0  0  0
    3.8889   -3.0057    4.3464 C   0  0  1  0  0  0  0  0  0  0  0  0
    4.3868   -3.3642    5.7780 C   0  0  0  0  0  0  0  0  0  0  0  0
    2.3550   -2.7953    4.4045 C   0  0  1  0  0  0  0  0  0  0  0  0
    1.8402   -1.9732    3.3757 O   0  0  0  0  0  0  0  0  0  0  0  0
    1.7313   -4.2007    4.2560 C   0  0  0  0  0  0  0  0  0  0  0  0
    2.8761   -5.1493    3.8689 C   0  0  0  0  0  0  0  0  0  0  0  0
    4.0482   -4.2453    3.4267 C   0  0  1  0  0  0  0  0  0  0  0  0
    6.3634   -0.7624    0.2646 H   0  0  0  0  0  0  0  0  0  0  0  0
    6.3658   -1.3730   -1.3587 H   0  0  0  0  0  0  0  0  0  0  0  0
    7.1245   -2.2911   -0.0684 H   0  0  0  0  0  0  0  0  0  0  0  0
    2.8085   -2.0406   -0.2678 H   0  0  0  0  0  0  0  0  0  0  0  0
    3.7103   -0.5796   -0.0067 H   0  0  0  0  0  0  0  0  0  0  0  0
    2.8326   -0.7186   -2.3086 H   0  0  0  0  0  0  0  0  0  0  0  0
    4.5685   -0.5850   -2.2835 H   0  0  0  0  0  0  0  0  0  0  0  0
    2.8929   -3.0936   -2.7692 H   0  0  0  0  0  0  0  0  0  0  0  0
    3.2222   -1.7273   -4.4913 H   0  0  0  0  0  0  0  0  0  0  0  0
    4.9184   -4.4357   -2.9208 H   0  0  0  0  0  0  0  0  0  0  0  0
    5.9539   -3.0640   -2.6525 H   0  0  0  0  0  0  0  0  0  0  0  0
    4.6664   -5.7850   -1.0102 H   0  0  0  0  0  0  0  0  0  0  0  0
    3.6914   -5.9763    1.1760 H   0  0  0  0  0  0  0  0  0  0  0  0
    5.3668   -5.6352    1.5111 H   0  0  0  0  0  0  0  0  0  0  0  0
    2.9975   -3.7098    1.5992 H   0  0  0  0  0  0  0  0  0  0  0  0
    5.9247   -3.0704    1.7571 H   0  0  0  0  0  0  0  0  0  0  0  0
    5.3562   -0.7081    2.1500 H   0  0  0  0  0  0  0  0  0  0  0  0
    3.6587   -1.0767    2.1448 H   0  0  0  0  0  0  0  0  0  0  0  0
    5.7987   -2.0325    4.0466 H   0  0  0  0  0  0  0  0  0  0  0  0
    3.5378   -0.4210    4.4245 H   0  0  0  0  0  0  0  0  0  0  0  0
    3.8224   -4.1729    6.2412 H   0  0  0  0  0  0  0  0  0  0  0  0
    4.3182   -2.5174    6.4621 H   0  0  0  0  0  0  0  0  0  0  0  0
    5.4293   -3.6771    5.7787 H   0  0  0  0  0  0  0  0  0  0  0  0
    2.0470   -2.3343    5.3466 H   0  0  0  0  0  0  0  0  0  0  0  0
    2.1683   -2.2843    2.5437 H   0  0  0  0  0  0  0  0  0  0  0  0
    1.2629   -4.5190    5.1924 H   0  0  0  0  0  0  0  0  0  0  0  0
    0.9537   -4.2330    3.4920 H   0  0  0  0  0  0  0  0  0  0  0  0
    3.1766   -5.7302    4.7442 H   0  0  0  0  0  0  0  0  0  0  0  0
    2.5771   -5.8790    3.1144 H   0  0  0  0  0  0  0  0  0  0  0  0
    4.9971   -4.7341    3.6449 H   0  0  0  0  0  0  0  0  0  0  0  0
  2  1  1  1
  1 23  1  0
  1 24  1  0
  1 25  1  0
  2  8  1  0
  2 12  1  0
  2  3  1  0
  3  4  1  0
  3 26  1  0
  3 27  1  0
  4  5  1  0
  4 28  1  0
  4 29  1  0
  5  6  1  0
  5  7  1  0
  5 30  1  6
  6 31  1  0
  7  8  1  0
  7 32  1  0
  7 33  1  0
  8  9  2  0
  9 10  1  0
  9 34  1  0
 10 11  1  0
 10 35  1  0
 10 36  1  0
 11 22  1  0
 11 12  1  0
 11 37  1  6
 12 13  1  0
 12 38  1  1
 13 14  1  0
 13 39  1  0
 13 40  1  0
 14 15  1  0
 14 16  1  0
 14 41  1  6
 15 42  1  0
 16 22  1  0
 16 17  1  1
 16 18  1  0
 17 43  1  0
 17 44  1  0
 17 45  1  0
 18 19  1  0
 18 20  1  0
 18 46  1  1
 19 47  1  0
 20 21  1  0
 20 48  1  0
 20 49  1  0
 21 22  1  0
 21 50  1  0
 21 51  1  0
 22 52  1  1
M  END
>  <i_m_ct_stereo_status>  (30) 
1

>  <s_m_source_file>  (30) 
/var/tmp/pbs.5076255.sched01/tmpgq1_80gb/0xrgip9rw.sdf

>  <i_m_source_file_index>  (30) 
14

>  <i_lp_mmshare_version>  (30) 
48012

>  <i_f3d_flags>  (30) 
0

>  <s_epik_input>  (30) 
W0NIMl0xW0NIMl1bQ0BASF0oW09IXSlbQ0gyXUMoW0NAQF0xMltDSDNdKT1bQ0hdW0NIMl1bQ0BASF0zW0NAQEhdMltDSDJdW0NAQEhdKFtPSF0pW0NAXTQoW0NIM10pW0NASF0zW0NIMl1bQ0gyXVtDQEBIXTRbT0hd

>  <s_epik_cmdline>  (30) 
J2VwaWtfcHl0aG9uJywgJy1waHQnLCAnMi4wJywgJy1waCcsICc3LjAnLCAnLXRuJywgJzgnLCAnLW1hJywgJzIwMCcsICctaW1hZScsICc8aW5maWxlLm1hZT4nLCAnLW9tYWUnLCAnPG91dGZpbGUubWFlPic=

>  <r_lp_tautomer_probability>  (30) 
1

>  <r_epik_Ionization_Penalty>  (30) 
3.43139e-06

>  <r_epik_Ionization_Penalty_Charging>  (30) 
0

>  <r_epik_Ionization_Penalty_Neutral>  (30) 
3.43139e-06

>  <r_epik_State_Penalty>  (30) 
-0

>  <r_epik_Charging_Adjusted_Penalty>  (30) 
0

>  <i_epik_Tot_Q>  (30) 
0

>  <i_epik_Tot_abs_Q>  (30) 
0

>  <s_lp_Force_Field>  (30) 
OPLS3e

>  <r_lp_Energy>  (30) 
33.6992

>  <b_lp_Chiralities_Consistent>  (30) 
1

>  <s_lp_Variant>  (30) 
10:0-1

>  <s_i_glide_gridfile>  (30) 
pfpi4k_grid

>  <i_i_glide_lignum>  (30) 
14

>  <i_i_glide_rotatable_bonds>  (30) 
3

>  <r_i_docking_score>  (30) 
-3.77566

>  <r_i_glide_ligand_efficiency>  (30) 
-0.171621

>  <r_i_glide_ligand_efficiency_sa>  (30) 
-0.480888

>  <r_i_glide_ligand_efficiency_ln>  (30) 
-0.922908

>  <r_i_glide_gscore>  (30) 
-3.77566

>  <r_i_glide_lipo>  (30) 
-0.373359

>  <r_i_glide_hbond>  (30) 
-0.32

>  <r_i_glide_metal>  (30) 
-0

>  <r_i_glide_rewards>  (30) 
-1.31973

>  <r_i_glide_evdw>  (30) 
-23.138

>  <r_i_glide_ecoul>  (30) 
-4.03778

>  <r_i_glide_erotb>  (30) 
0

>  <r_i_glide_esite>  (30) 
0

>  <r_i_glide_emodel>  (30) 
-33.2166

>  <r_i_glide_energy>  (30) 
-27.1758

>  <r_i_glide_einternal>  (30) 
0.372945

>  <r_i_glide_intrahb_reward>  (30) 
-0

>  <i_i_glide_confnum>  (30) 
1

>  <i_i_glide_posenum>  (30) 
1

>  <r_i_glide_eff_state_penalty>  (30) 
0

>  <ligand_id>  (30) 
10

>  <original_smiles>  (30) 
CC12CCC(O)CC1=CCC1C2CC(O)C2(C)C(O)CCC12

>  <smiles>  (30) 
[H]OC1([H])C([H])([H])C2=C([H])C([H])([H])C3([H])C([H])(C([H])([H])C([H])(O[H])C4(C([H])([H])[H])C([H])(O[H])C([H])([H])C([H])([H])C34[H])C2(C([H])([H])[H])C([H])([H])C1([H])[H]

$$$$
12:0:0
     RDKit          3D

 42 45  0  0  1  0  0  0  0  0999 V2000
    3.9017   -3.3366    3.6906 C   0  0  0  0  0  0  0  0  0  0  0  0
    4.8193   -2.8293    2.5585 C   0  0  2  0  0  0  0  0  0  0  0  0
    4.1566   -1.6191    1.8844 C   0  0  0  0  0  0  0  0  0  0  0  0
    3.0940   -2.0216    0.8432 C   0  0  0  0  0  0  0  0  0  0  0  0
    3.5969   -3.0509   -0.1908 C   0  0  2  0  0  0  0  0  0  0  0  0
    4.0867   -4.3144    0.5012 C   0  0  2  0  0  0  0  0  0  0  0  0
    3.4266   -5.6322    0.8444 C   0  0  0  0  0  0  0  0  0  0  0  0
    4.6436   -6.6403    0.8536 C   0  0  0  0  0  0  0  0  0  0  0  0
    5.9839   -5.9228    1.3243 C   0  0  1  0  0  0  0  0  0  0  0  0
    7.0387   -6.8852    1.8709 C   0  0  0  0  0  0  0  0  0  0  0  0
    6.5935   -5.0978    0.3044 O   0  0  0  0  0  0  0  0  0  0  0  0
    6.3727   -3.7586    0.6765 C   0  0  1  0  0  0  0  0  0  0  0  0
    6.1264   -2.7956   -0.3724 O   0  0  0  0  0  0  0  0  0  0  0  0
    4.8482   -2.5890   -1.0456 C   0  0  0  0  0  0  0  0  0  0  0  0
    4.9105   -3.3193   -2.4161 C   0  0  0  0  0  0  0  0  0  0  0  0
    4.8307   -1.0831   -1.4014 C   0  0  0  0  0  0  0  0  0  0  0  0
    5.1674   -3.9558    1.5575 C   0  0  1  0  0  0  0  0  0  0  0  0
    5.5619   -5.0837    2.3201 O   0  0  0  0  0  0  0  0  0  0  0  0
    2.9404   -3.6818    3.3052 H   0  0  0  0  0  0  0  0  0  0  0  0
    3.7045   -2.5530    4.4211 H   0  0  0  0  0  0  0  0  0  0  0  0
    4.3509   -4.1709    4.2351 H   0  0  0  0  0  0  0  0  0  0  0  0
    5.7418   -2.4921    3.0364 H   0  0  0  0  0  0  0  0  0  0  0  0
    3.6952   -0.9758    2.6327 H   0  0  0  0  0  0  0  0  0  0  0  0
    4.9435   -1.0178    1.4437 H   0  0  0  0  0  0  0  0  0  0  0  0
    2.2274   -2.4394    1.3529 H   0  0  0  0  0  0  0  0  0  0  0  0
    2.7247   -1.1278    0.3396 H   0  0  0  0  0  0  0  0  0  0  0  0
    2.7653   -3.2843   -0.8694 H   0  0  0  0  0  0  0  0  0  0  0  0
    4.4981   -4.7491   -0.4020 H   0  0  0  0  0  0  0  0  0  0  0  0
    2.9629   -5.5751    1.8269 H   0  0  0  0  0  0  0  0  0  0  0  0
    2.6605   -5.9252    0.1195 H   0  0  0  0  0  0  0  0  0  0  0  0
    4.4194   -7.4487    1.5583 H   0  0  0  0  0  0  0  0  0  0  0  0
    4.8060   -7.0991   -0.1210 H   0  0  0  0  0  0  0  0  0  0  0  0
    7.9158   -6.3347    2.2094 H   0  0  0  0  0  0  0  0  0  0  0  0
    7.3476   -7.5907    1.0955 H   0  0  0  0  0  0  0  0  0  0  0  0
    6.6343   -7.4491    2.7178 H   0  0  0  0  0  0  0  0  0  0  0  0
    7.2383   -3.4270    1.2492 H   0  0  0  0  0  0  0  0  0  0  0  0
    3.9546   -3.2475   -2.9419 H   0  0  0  0  0  0  0  0  0  0  0  0
    5.1525   -4.3760   -2.3436 H   0  0  0  0  0  0  0  0  0  0  0  0
    5.6632   -2.8872   -3.0806 H   0  0  0  0  0  0  0  0  0  0  0  0
    3.8786   -0.7743   -1.8376 H   0  0  0  0  0  0  0  0  0  0  0  0
    5.6109   -0.8350   -2.1230 H   0  0  0  0  0  0  0  0  0  0  0  0
    5.0208   -0.4404   -0.5501 H   0  0  0  0  0  0  0  0  0  0  0  0
  1  2  1  0
  1 19  1  0
  1 20  1  0
  1 21  1  0
  2 17  1  0
  2  3  1  0
  2 22  1  1
  3  4  1  0
  3 23  1  0
  3 24  1  0
  4  5  1  0
  4 25  1  0
  4 26  1  0
  5 14  1  0
  5  6  1  0
  5 27  1  6
  6 17  1  0
  6  7  1  0
  6 28  1  6
  7  8  1  0
  7 29  1  0
  7 30  1  0
  8  9  1  0
  8 31  1  0
  8 32  1  0
  9 18  1  0
  9 10  1  1
  9 11  1  0
 10 33  1  0
 10 34  1  0
 10 35  1  0
 11 12  1  0
 12 13  1  0
 12 17  1  0
 12 36  1  1
 13 14  1  0
 14 15  1  0
 14 16  1  0
 15 37  1  0
 15 38  1  0
 15 39  1  0
 16 40  1  0
 16 41  1  0
 16 42  1  0
 17 18  1  1
M  END
>  <i_m_ct_stereo_status>  (31) 
1

>  <s_m_source_file>  (31) 
/var/tmp/pbs.5076255.sched01/tmpgq1_80gb/0xrgip9rw.sdf

>  <i_m_source_file_index>  (31) 
17

>  <i_lp_mmshare_version>  (31) 
48012

>  <i_f3d_flags>  (31) 
0

>  <s_epik_input>  (31) 
W0NIM11bQ0BASF0xW0NIMl1bQ0gyXVtDSF0oW0NASF0yW0NAXTEzNClDKFtDSDNdKShbQ0gzXSlPW0NAQEhdM09bQ0BdKE80KShbQ0gzXSlbQ0gyXVtDSDJdMg==

>  <s_epik_cmdline>  (31) 
J2VwaWtfcHl0aG9uJywgJy1waHQnLCAnMi4wJywgJy1waCcsICc3LjAnLCAnLXRuJywgJzgnLCAnLW1hJywgJzIwMCcsICctaW1hZScsICc8aW5maWxlLm1hZT4nLCAnLW9tYWUnLCAnPG91dGZpbGUubWFlPic=

>  <r_lp_tautomer_probability>  (31) 
1

>  <r_epik_Ionization_Penalty>  (31) 
1.71026e-13

>  <r_epik_Ionization_Penalty_Charging>  (31) 
0

>  <r_epik_Ionization_Penalty_Neutral>  (31) 
1.71026e-13

>  <r_epik_State_Penalty>  (31) 
-0

>  <r_epik_Charging_Adjusted_Penalty>  (31) 
0

>  <i_epik_Tot_Q>  (31) 
0

>  <i_epik_Tot_abs_Q>  (31) 
0

>  <s_epik_Chemistry_Notes>  (31) 
This compound contains an acetal/aminal-like group ( X-CH(R)-Y where X, Y are N, S, or O) that may be acid/base labile, releasing an aldehyde.

>  <s_lp_Force_Field>  (31) 
OPLS3e

>  <r_lp_Energy>  (31) 
84.3697

>  <b_lp_Chiralities_Consistent>  (31) 
1

>  <s_lp_Variant>  (31) 
12:0-1

>  <s_i_glide_gridfile>  (31) 
pfpi4k_grid

>  <i_i_glide_lignum>  (31) 
17

>  <i_i_glide_rotatable_bonds>  (31) 
0

>  <r_i_docking_score>  (31) 
-3.5352

>  <r_i_glide_ligand_efficiency>  (31) 
-0.1964

>  <r_i_glide_ligand_efficiency_sa>  (31) 
-0.514714

>  <r_i_glide_ligand_efficiency_ln>  (31) 
-0.908706

>  <r_i_glide_gscore>  (31) 
-3.5352

>  <r_i_glide_lipo>  (31) 
-0.39605

>  <r_i_glide_hbond>  (31) 
0

>  <r_i_glide_metal>  (31) 
-0

>  <r_i_glide_rewards>  (31) 
-1.93468

>  <r_i_glide_evdw>  (31) 
-20.6787

>  <r_i_glide_ecoul>  (31) 
-1.13693

>  <r_i_glide_erotb>  (31) 
0

>  <r_i_glide_esite>  (31) 
0

>  <r_i_glide_emodel>  (31) 
-26.3514

>  <r_i_glide_energy>  (31) 
-21.8156

>  <r_i_glide_einternal>  (31) 
0

>  <r_i_glide_intrahb_reward>  (31) 
-0

>  <i_i_glide_confnum>  (31) 
1

>  <i_i_glide_posenum>  (31) 
2

>  <r_i_glide_eff_state_penalty>  (31) 
0

>  <ligand_id>  (31) 
12

>  <original_smiles>  (31) 
CC1CCC2C3CCC4(C)OC(OC2(C)C)C13O4

>  <smiles>  (31) 
[H]C([H])([H])C12OC3([H])OC(C([H])([H])[H])(C([H])([H])[H])C4([H])C([H])([H])C([H])([H])C([H])(C([H])([H])[H])C3(O1)C4([H])C([H])([H])C2([H])[H]

$$$$
12:0:1
     RDKit          3D

 42 45  0  0  1  0  0  0  0  0999 V2000
    2.5801   -2.2612    1.5552 C   0  0  0  0  0  0  0  0  0  0  0  0
    3.6161   -3.2952    1.0965 C   0  0  2  0  0  0  0  0  0  0  0  0
    4.7727   -3.3023    2.1078 C   0  0  0  0  0  0  0  0  0  0  0  0
    5.7726   -2.1493    1.8755 C   0  0  0  0  0  0  0  0  0  0  0  0
    6.3035   -2.0630    0.4444 C   0  0  2  0  0  0  0  0  0  0  0  0
    5.1542   -1.8935   -0.5352 C   0  0  2  0  0  0  0  0  0  0  0  0
    4.5132   -0.6961   -1.1663 C   0  0  0  0  0  0  0  0  0  0  0  0
    3.9417   -1.2302   -2.5263 C   0  0  0  0  0  0  0  0  0  0  0  0
    3.5245   -2.7447   -2.3998 C   0  0  1  0  0  0  0  0  0  0  0  0
    2.5147   -3.1815   -3.4666 C   0  0  0  0  0  0  0  0  0  0  0  0
    4.6493   -3.6521   -2.3995 O   0  0  0  0  0  0  0  0  0  0  0  0
    4.7676   -4.1293   -1.0780 C   0  0  1  0  0  0  0  0  0  0  0  0
    6.0868   -4.3737   -0.5408 O   0  0  0  0  0  0  0  0  0  0  0  0
    7.0288   -3.3678   -0.0839 C   0  0  0  0  0  0  0  0  0  0  0  0
    8.0400   -3.0459   -1.2170 C   0  0  0  0  0  0  0  0  0  0  0  0
    7.8682   -4.1248    0.9675 C   0  0  0  0  0  0  0  0  0  0  0  0
    4.0995   -3.0156   -0.3437 C   0  0  1  0  0  0  0  0  0  0  0  0
    2.9556   -2.8259   -1.1609 O   0  0  0  0  0  0  0  0  0  0  0  0
    2.9827   -1.2479    1.5713 H   0  0  0  0  0  0  0  0  0  0  0  0
    2.1931   -2.4908    2.5416 H   0  0  0  0  0  0  0  0  0  0  0  0
    1.7223   -2.2502    0.8832 H   0  0  0  0  0  0  0  0  0  0  0  0
    3.1258   -4.2697    1.1221 H   0  0  0  0  0  0  0  0  0  0  0  0
    4.3737   -3.2317    3.1227 H   0  0  0  0  0  0  0  0  0  0  0  0
    5.2446   -4.2781    2.0616 H   0  0  0  0  0  0  0  0  0  0  0  0
    5.3114   -1.2052    2.1441 H   0  0  0  0  0  0  0  0  0  0  0  0
    6.6069   -2.2612    2.5364 H   0  0  0  0  0  0  0  0  0  0  0  0
    6.9865   -1.2143    0.3904 H   0  0  0  0  0  0  0  0  0  0  0  0
    5.7730   -2.0181   -1.4196 H   0  0  0  0  0  0  0  0  0  0  0  0
    3.7299   -0.3475   -0.4879 H   0  0  0  0  0  0  0  0  0  0  0  0
    5.2132    0.1044   -1.3487 H   0  0  0  0  0  0  0  0  0  0  0  0
    3.0472   -0.6472   -2.7796 H   0  0  0  0  0  0  0  0  0  0  0  0
    4.6471   -1.1327   -3.3429 H   0  0  0  0  0  0  0  0  0  0  0  0
    2.2299   -4.2134   -3.3178 H   0  0  0  0  0  0  0  0  0  0  0  0
    2.9447   -3.0705   -4.4599 H   0  0  0  0  0  0  0  0  0  0  0  0
    1.6126   -2.5764   -3.3915 H   0  0  0  0  0  0  0  0  0  0  0  0
    4.2131   -5.0636   -1.0146 H   0  0  0  0  0  0  0  0  0  0  0  0
    8.7346   -2.2569   -0.9156 H   0  0  0  0  0  0  0  0  0  0  0  0
    7.5768   -2.7409   -2.1504 H   0  0  0  0  0  0  0  0  0  0  0  0
    8.6614   -3.9015   -1.4649 H   0  0  0  0  0  0  0  0  0  0  0  0
    8.5630   -3.4612    1.4767 H   0  0  0  0  0  0  0  0  0  0  0  0
    8.4536   -4.9259    0.5199 H   0  0  0  0  0  0  0  0  0  0  0  0
    7.2588   -4.6115    1.7229 H   0  0  0  0  0  0  0  0  0  0  0  0
  1  2  1  0
  1 19  1  0
  1 20  1  0
  1 21  1  0
  2 17  1  0
  2  3  1  0
  2 22  1  6
  3  4  1  0
  3 23  1  0
  3 24  1  0
  4  5  1  0
  4 25  1  0
  4 26  1  0
  5 14  1  0
  5  6  1  0
  5 27  1  1
  6 17  1  0
  6  7  1  0
  6 28  1  6
  7  8  1  0
  7 29  1  0
  7 30  1  0
  8  9  1  0
  8 31  1  0
  8 32  1  0
  9 18  1  0
  9 10  1  6
  9 11  1  0
 10 33  1  0
 10 34  1  0
 10 35  1  0
 11 12  1  0
 12 13  1  0
 12 17  1  0
 12 36  1  6
 13 14  1  0
 14 15  1  0
 14 16  1  0
 15 37  1  0
 15 38  1  0
 15 39  1  0
 16 40  1  0
 16 41  1  0
 16 42  1  0
 17 18  1  6
M  END
>  <i_m_ct_stereo_status>  (32) 
1

>  <s_m_source_file>  (32) 
/var/tmp/pbs.5076255.sched01/tmpgq1_80gb/0xrgip9rw.sdf

>  <i_m_source_file_index>  (32) 
17

>  <i_lp_mmshare_version>  (32) 
48012

>  <i_f3d_flags>  (32) 
0

>  <s_epik_input>  (32) 
W0NIM11bQ0BASF0xW0NIMl1bQ0gyXVtDSF0oW0NASF0yW0NAXTEzNClDKFtDSDNdKShbQ0gzXSlPW0NAQEhdM09bQ0BdKE80KShbQ0gzXSlbQ0gyXVtDSDJdMg==

>  <s_epik_cmdline>  (32) 
J2VwaWtfcHl0aG9uJywgJy1waHQnLCAnMi4wJywgJy1waCcsICc3LjAnLCAnLXRuJywgJzgnLCAnLW1hJywgJzIwMCcsICctaW1hZScsICc8aW5maWxlLm1hZT4nLCAnLW9tYWUnLCAnPG91dGZpbGUubWFlPic=

>  <r_lp_tautomer_probability>  (32) 
1

>  <r_epik_Ionization_Penalty>  (32) 
1.71026e-13

>  <r_epik_Ionization_Penalty_Charging>  (32) 
0

>  <r_epik_Ionization_Penalty_Neutral>  (32) 
1.71026e-13

>  <r_epik_State_Penalty>  (32) 
-0

>  <r_epik_Charging_Adjusted_Penalty>  (32) 
0

>  <i_epik_Tot_Q>  (32) 
0

>  <i_epik_Tot_abs_Q>  (32) 
0

>  <s_epik_Chemistry_Notes>  (32) 
This compound contains an acetal/aminal-like group ( X-CH(R)-Y where X, Y are N, S, or O) that may be acid/base labile, releasing an aldehyde.

>  <s_lp_Force_Field>  (32) 
OPLS3e

>  <r_lp_Energy>  (32) 
84.3697

>  <b_lp_Chiralities_Consistent>  (32) 
1

>  <s_lp_Variant>  (32) 
12:0-1

>  <s_i_glide_gridfile>  (32) 
pfpi4k_grid

>  <i_i_glide_lignum>  (32) 
17

>  <i_i_glide_rotatable_bonds>  (32) 
0

>  <r_i_docking_score>  (32) 
-3.37136

>  <r_i_glide_ligand_efficiency>  (32) 
-0.187298

>  <r_i_glide_ligand_efficiency_sa>  (32) 
-0.490859

>  <r_i_glide_ligand_efficiency_ln>  (32) 
-0.866591

>  <r_i_glide_gscore>  (32) 
-3.37136

>  <r_i_glide_lipo>  (32) 
-0.683201

>  <r_i_glide_hbond>  (32) 
0

>  <r_i_glide_metal>  (32) 
-0

>  <r_i_glide_rewards>  (32) 
-1.68853

>  <r_i_glide_evdw>  (32) 
-18.5346

>  <r_i_glide_ecoul>  (32) 
-0.249517

>  <r_i_glide_erotb>  (32) 
0

>  <r_i_glide_esite>  (32) 
-0.0354737

>  <r_i_glide_emodel>  (32) 
-22.9759

>  <r_i_glide_energy>  (32) 
-18.7841

>  <r_i_glide_einternal>  (32) 
0

>  <r_i_glide_intrahb_reward>  (32) 
-0

>  <i_i_glide_confnum>  (32) 
2

>  <i_i_glide_posenum>  (32) 
10

>  <r_i_glide_eff_state_penalty>  (32) 
0

>  <ligand_id>  (32) 
12

>  <original_smiles>  (32) 
CC1CCC2C3CCC4(C)OC(OC2(C)C)C13O4

>  <smiles>  (32) 
[H]C([H])([H])C12OC3([H])OC(C([H])([H])[H])(C([H])([H])[H])C4([H])C([H])([H])C([H])([H])C([H])(C([H])([H])[H])C3(O1)C4([H])C([H])([H])C2([H])[H]

$$$$
12:0:2
     RDKit          3D

 42 45  0  0  1  0  0  0  0  0999 V2000
    6.1467   -4.5479    2.1391 C   0  0  0  0  0  0  0  0  0  0  0  0
    5.0967   -4.5615    1.0125 C   0  0  2  0  0  0  0  0  0  0  0  0
    5.8142   -4.7286   -0.3188 C   0  0  0  0  0  0  0  0  0  0  0  0
    6.4163   -3.4224   -0.8813 C   0  0  0  0  0  0  0  0  0  0  0  0
    5.3995   -2.2743   -0.9505 C   0  0  2  0  0  0  0  0  0  0  0  0
    4.8180   -2.0024    0.4309 C   0  0  2  0  0  0  0  0  0  0  0  0
    5.1877   -1.0300    1.5303 C   0  0  0  0  0  0  0  0  0  0  0  0
    3.8072   -0.7972    2.2653 C   0  0  0  0  0  0  0  0  0  0  0  0
    2.8922   -2.0998    2.1989 C   0  0  1  0  0  0  0  0  0  0  0  0
    1.8214   -2.1574    3.2985 C   0  0  0  0  0  0  0  0  0  0  0  0
    2.2547   -2.3052    0.9311 O   0  0  0  0  0  0  0  0  0  0  0  0
    2.9156   -3.3739    0.2947 C   0  0  1  0  0  0  0  0  0  0  0  0
    3.0931   -3.3229   -1.1315 O   0  0  0  0  0  0  0  0  0  0  0  0
    4.1268   -2.5789   -1.8404 C   0  0  0  0  0  0  0  0  0  0  0  0
    3.4956   -1.2722   -2.3804 C   0  0  0  0  0  0  0  0  0  0  0  0
    4.4278   -3.4127   -3.1119 C   0  0  0  0  0  0  0  0  0  0  0  0
    4.2187   -3.2974    1.0351 C   0  0  1  0  0  0  0  0  0  0  0  0
    3.7833   -3.1205    2.3732 O   0  0  0  0  0  0  0  0  0  0  0  0
    6.8339   -3.7085    2.0288 H   0  0  0  0  0  0  0  0  0  0  0  0
    6.7376   -5.4631    2.1492 H   0  0  0  0  0  0  0  0  0  0  0  0
    5.6830   -4.4610    3.1264 H   0  0  0  0  0  0  0  0  0  0  0  0
    4.4719   -5.4371    1.1839 H   0  0  0  0  0  0  0  0  0  0  0  0
    6.6049   -5.4593   -0.1895 H   0  0  0  0  0  0  0  0  0  0  0  0
    5.1106   -5.1873   -1.0170 H   0  0  0  0  0  0  0  0  0  0  0  0
    7.2580   -3.1124   -0.2624 H   0  0  0  0  0  0  0  0  0  0  0  0
    6.8442   -3.6003   -1.8708 H   0  0  0  0  0  0  0  0  0  0  0  0
    5.9064   -1.3870   -1.3369 H   0  0  0  0  0  0  0  0  0  0  0  0
    4.0641   -1.3130    0.0674 H   0  0  0  0  0  0  0  0  0  0  0  0
    5.9139   -1.4919    2.2035 H   0  0  0  0  0  0  0  0  0  0  0  0
    5.6167   -0.0988    1.1559 H   0  0  0  0  0  0  0  0  0  0  0  0
    4.0073   -0.5730    3.3187 H   0  0  0  0  0  0  0  0  0  0  0  0
    3.2494    0.0412    1.8488 H   0  0  0  0  0  0  0  0  0  0  0  0
    1.2509   -3.0805    3.2166 H   0  0  0  0  0  0  0  0  0  0  0  0
    1.1396   -1.3124    3.1931 H   0  0  0  0  0  0  0  0  0  0  0  0
    2.2907   -2.1169    4.2837 H   0  0  0  0  0  0  0  0  0  0  0  0
    2.3675   -4.2846    0.5260 H   0  0  0  0  0  0  0  0  0  0  0  0
    4.2391   -0.6240   -2.8528 H   0  0  0  0  0  0  0  0  0  0  0  0
    3.0118   -0.7013   -1.6026 H   0  0  0  0  0  0  0  0  0  0  0  0
    2.7231   -1.4636   -3.1287 H   0  0  0  0  0  0  0  0  0  0  0  0
    5.2598   -3.0062   -3.6866 H   0  0  0  0  0  0  0  0  0  0  0  0
    3.5577   -3.4586   -3.7705 H   0  0  0  0  0  0  0  0  0  0  0  0
    4.6586   -4.4473   -2.8943 H   0  0  0  0  0  0  0  0  0  0  0  0
  1  2  1  0
  1 19  1  0
  1 20  1  0
  1 21  1  0
  2 17  1  0
  2  3  1  0
  2 22  1  1
  3  4  1  0
  3 23  1  0
  3 24  1  0
  4  5  1  0
  4 25  1  0
  4 26  1  0
  5 14  1  0
  5  6  1  0
  5 27  1  6
  6 17  1  0
  6  7  1  0
  6 28  1  6
  7  8  1  0
  7 29  1  0
  7 30  1  0
  8  9  1  0
  8 31  1  0
  8 32  1  0
  9 18  1  0
  9 10  1  1
  9 11  1  0
 10 33  1  0
 10 34  1  0
 10 35  1  0
 11 12  1  0
 12 13  1  0
 12 17  1  0
 12 36  1  6
 13 14  1  0
 14 15  1  0
 14 16  1  0
 15 37  1  0
 15 38  1  0
 15 39  1  0
 16 40  1  0
 16 41  1  0
 16 42  1  0
 17 18  1  1
M  END
>  <i_m_ct_stereo_status>  (33) 
1

>  <s_m_source_file>  (33) 
/var/tmp/pbs.5076255.sched01/tmpgq1_80gb/0xrgip9rw.sdf

>  <i_m_source_file_index>  (33) 
17

>  <i_lp_mmshare_version>  (33) 
48012

>  <i_f3d_flags>  (33) 
0

>  <s_epik_input>  (33) 
W0NIM11bQ0BASF0xW0NIMl1bQ0gyXVtDSF0oW0NASF0yW0NAXTEzNClDKFtDSDNdKShbQ0gzXSlPW0NAQEhdM09bQ0BdKE80KShbQ0gzXSlbQ0gyXVtDSDJdMg==

>  <s_epik_cmdline>  (33) 
J2VwaWtfcHl0aG9uJywgJy1waHQnLCAnMi4wJywgJy1waCcsICc3LjAnLCAnLXRuJywgJzgnLCAnLW1hJywgJzIwMCcsICctaW1hZScsICc8aW5maWxlLm1hZT4nLCAnLW9tYWUnLCAnPG91dGZpbGUubWFlPic=

>  <r_lp_tautomer_probability>  (33) 
1

>  <r_epik_Ionization_Penalty>  (33) 
1.71026e-13

>  <r_epik_Ionization_Penalty_Charging>  (33) 
0

>  <r_epik_Ionization_Penalty_Neutral>  (33) 
1.71026e-13

>  <r_epik_State_Penalty>  (33) 
-0

>  <r_epik_Charging_Adjusted_Penalty>  (33) 
0

>  <i_epik_Tot_Q>  (33) 
0

>  <i_epik_Tot_abs_Q>  (33) 
0

>  <s_epik_Chemistry_Notes>  (33) 
This compound contains an acetal/aminal-like group ( X-CH(R)-Y where X, Y are N, S, or O) that may be acid/base labile, releasing an aldehyde.

>  <s_lp_Force_Field>  (33) 
OPLS3e

>  <r_lp_Energy>  (33) 
84.3697

>  <b_lp_Chiralities_Consistent>  (33) 
1

>  <s_lp_Variant>  (33) 
12:0-1

>  <s_i_glide_gridfile>  (33) 
pfpi4k_grid

>  <i_i_glide_lignum>  (33) 
17

>  <i_i_glide_rotatable_bonds>  (33) 
0

>  <r_i_docking_score>  (33) 
-2.88613

>  <r_i_glide_ligand_efficiency>  (33) 
-0.16034

>  <r_i_glide_ligand_efficiency_sa>  (33) 
-0.420211

>  <r_i_glide_ligand_efficiency_ln>  (33) 
-0.741864

>  <r_i_glide_gscore>  (33) 
-2.88613

>  <r_i_glide_lipo>  (33) 
-0.499639

>  <r_i_glide_hbond>  (33) 
0

>  <r_i_glide_metal>  (33) 
-0

>  <r_i_glide_rewards>  (33) 
-1.68853

>  <r_i_glide_evdw>  (33) 
-19.7241

>  <r_i_glide_ecoul>  (33) 
2.09253

>  <r_i_glide_erotb>  (33) 
0

>  <r_i_glide_esite>  (33) 
-0.025637

>  <r_i_glide_emodel>  (33) 
-21.2488

>  <r_i_glide_energy>  (33) 
-17.6315

>  <r_i_glide_einternal>  (33) 
0

>  <r_i_glide_intrahb_reward>  (33) 
-0

>  <i_i_glide_confnum>  (33) 
2

>  <i_i_glide_posenum>  (33) 
5

>  <r_i_glide_eff_state_penalty>  (33) 
0

>  <ligand_id>  (33) 
12

>  <original_smiles>  (33) 
CC1CCC2C3CCC4(C)OC(OC2(C)C)C13O4

>  <smiles>  (33) 
[H]C([H])([H])C12OC3([H])OC(C([H])([H])[H])(C([H])([H])[H])C4([H])C([H])([H])C([H])([H])C([H])(C([H])([H])[H])C3(O1)C4([H])C([H])([H])C2([H])[H]

$$$$
13:0:0
     RDKit          3D

 70 74  0  0  1  0  0  0  0  0999 V2000
    6.7148   -1.7149    0.1807 C   0  0  0  0  0  0  0  0  0  0  0  0
    5.3488   -2.3533    0.4773 C   0  0  2  0  0  0  0  0  0  0  0  0
    5.2931   -2.6126    1.9969 C   0  0  0  0  0  0  0  0  0  0  0  0
    4.6428   -3.9397    2.4808 C   0  0  1  0  0  0  0  0  0  0  0  0
    3.2160   -3.7495    3.0279 C   0  0  0  0  0  0  0  0  0  0  0  0
    2.7518   -4.9950    3.7839 C   0  0  0  0  0  0  0  0  0  0  0  0
    3.0428   -6.2911    3.0459 C   0  0  0  0  0  0  0  0  0  0  0  0
    3.9460   -6.3762    2.0190 C   0  0  0  0  0  0  0  0  0  0  0  0
    4.2448   -7.7306    1.3387 C   0  0  0  0  0  0  0  0  0  0  0  0
    3.4255   -8.9460    1.8514 C   0  0  0  0  0  0  0  0  0  0  0  0
    3.1252   -8.8060    3.3690 C   0  0  2  0  0  0  0  0  0  0  0  0
    4.4819   -8.6692    4.1358 C   0  0  0  0  0  0  0  0  0  0  0  0
    2.2523   -9.8962    4.0690 C   0  0  1  0  0  0  0  0  0  0  0  0
    2.8925  -11.2758    4.5140 C   0  0  0  0  0  0  0  0  0  0  0  0
    3.7924  -11.3107    5.7998 C   0  0  0  0  0  0  0  0  0  0  0  0
    3.2219  -10.7685    6.9465 O   0  0  0  0  0  0  0  0  0  0  0  0
    3.6500  -11.9393    3.3371 C   0  0  0  0  0  0  0  0  0  0  0  0
    4.1728  -13.2012    3.6482 O   0  0  0  0  0  0  0  0  0  0  0  0
    1.4836   -9.1066    5.1958 C   0  0  0  0  0  0  0  0  0  0  0  0
    1.8067   -7.6066    4.9629 C   0  0  0  0  0  0  0  0  0  0  0  0
    2.2474   -7.5219    3.5030 C   0  0  1  0  0  0  0  0  0  0  0  0
    0.9352   -7.5002    2.6722 C   0  0  0  0  0  0  0  0  0  0  0  0
    4.7603   -5.1593    1.5010 C   0  0  2  0  0  0  0  0  0  0  0  0
    6.2662   -5.5463    1.4398 C   0  0  0  0  0  0  0  0  0  0  0  0
    4.2795   -4.7794    0.0754 C   0  0  1  0  0  0  0  0  0  0  0  0
    2.8672   -4.6822    0.0059 O   0  0  0  0  0  0  0  0  0  0  0  0
    4.9624   -3.5062   -0.4517 C   0  0  1  0  0  0  0  0  0  0  0  0
    4.0652   -2.6508   -1.2249 O   0  0  0  0  0  0  0  0  0  0  0  0
    4.1797   -1.6205   -0.2100 C   0  0  1  0  0  0  0  0  0  0  0  0
    2.9840   -1.4098    0.5289 O   0  0  0  0  0  0  0  0  0  0  0  0
    6.8595   -0.7794    0.7240 H   0  0  0  0  0  0  0  0  0  0  0  0
    6.8074   -1.4965   -0.8780 H   0  0  0  0  0  0  0  0  0  0  0  0
    7.5381   -2.3806    0.4407 H   0  0  0  0  0  0  0  0  0  0  0  0
    6.3155   -2.6056    2.4123 H   0  0  0  0  0  0  0  0  0  0  0  0
    4.8173   -1.7747    2.4963 H   0  0  0  0  0  0  0  0  0  0  0  0
    5.2057   -4.2113    3.3681 H   0  0  0  0  0  0  0  0  0  0  0  0
    3.1707   -2.8848    3.7042 H   0  0  0  0  0  0  0  0  0  0  0  0
    2.5245   -3.5430    2.2169 H   0  0  0  0  0  0  0  0  0  0  0  0
    3.2454   -5.0522    4.7537 H   0  0  0  0  0  0  0  0  0  0  0  0
    1.6839   -4.9222    3.9764 H   0  0  0  0  0  0  0  0  0  0  0  0
    4.1403   -7.6457    0.2564 H   0  0  0  0  0  0  0  0  0  0  0  0
    5.2912   -7.9795    1.5329 H   0  0  0  0  0  0  0  0  0  0  0  0
    2.5048   -9.0403    1.2756 H   0  0  0  0  0  0  0  0  0  0  0  0
    3.9791   -9.8570    1.5952 H   0  0  0  0  0  0  0  0  0  0  0  0
    4.3294   -8.6752    5.2109 H   0  0  0  0  0  0  0  0  0  0  0  0
    5.0460   -7.7528    3.9233 H   0  0  0  0  0  0  0  0  0  0  0  0
    5.1669   -9.4766    3.8926 H   0  0  0  0  0  0  0  0  0  0  0  0
    1.5147  -10.1800    3.3327 H   0  0  0  0  0  0  0  0  0  0  0  0
    2.0435  -11.9251    4.7222 H   0  0  0  0  0  0  0  0  0  0  0  0
    4.0780  -12.3626    6.0197 H   0  0  0  0  0  0  0  0  0  0  0  0
    4.7490  -10.7996    5.6444 H   0  0  0  0  0  0  0  0  0  0  0  0
    2.5093  -11.3202    7.2495 H   0  0  0  0  0  0  0  0  0  0  0  0
    2.9971  -12.0364    2.4712 H   0  0  0  0  0  0  0  0  0  0  0  0
    4.5121  -11.3523    3.0311 H   0  0  0  0  0  0  0  0  0  0  0  0
    3.5149  -13.8423    3.5001 H   0  0  0  0  0  0  0  0  0  0  0  0
    0.3958   -9.2970    5.1054 H   0  0  0  0  0  0  0  0  0  0  0  0
    1.7402   -9.2964    6.1848 H   0  0  0  0  0  0  0  0  0  0  0  0
    0.9697   -6.9644    5.2190 H   0  0  0  0  0  0  0  0  0  0  0  0
    2.6263   -7.3319    5.6209 H   0  0  0  0  0  0  0  0  0  0  0  0
    0.3206   -8.3916    2.8095 H   0  0  0  0  0  0  0  0  0  0  0  0
    1.1112   -7.3845    1.6001 H   0  0  0  0  0  0  0  0  0  0  0  0
    0.3158   -6.6556    2.9776 H   0  0  0  0  0  0  0  0  0  0  0  0
    6.9042   -4.6884    1.2362 H   0  0  0  0  0  0  0  0  0  0  0  0
    6.4644   -6.2679    0.6531 H   0  0  0  0  0  0  0  0  0  0  0  0
    6.6072   -5.9815    2.3794 H   0  0  0  0  0  0  0  0  0  0  0  0
    4.5256   -5.5920   -0.6061 H   0  0  0  0  0  0  0  0  0  0  0  0
    2.6410   -4.7238   -0.9155 H   0  0  0  0  0  0  0  0  0  0  0  0
    5.8249   -3.7590   -1.0457 H   0  0  0  0  0  0  0  0  0  0  0  0
    4.5054   -0.6759   -0.6481 H   0  0  0  0  0  0  0  0  0  0  0  0
    2.2865   -1.2190   -0.0762 H   0  0  0  0  0  0  0  0  0  0  0  0
  2  1  1  6
  1 31  1  0
  1 32  1  0
  1 33  1  0
  2 27  1  0
  2 29  1  0
  2  3  1  0
  3  4  1  0
  3 34  1  0
  3 35  1  0
  4 23  1  0
  4  5  1  0
  4 36  1  1
  5  6  1  0
  5 37  1  0
  5 38  1  0
  6  7  1  0
  6 39  1  0
  6 40  1  0
  7 21  1  0
  7  8  2  0
  8  9  1  0
  8 23  1  0
  9 10  1  0
  9 41  1  0
  9 42  1  0
 10 11  1  0
 10 43  1  0
 10 44  1  0
 11 21  1  0
 11 12  1  1
 11 13  1  0
 12 45  1  0
 12 46  1  0
 12 47  1  0
 13 14  1  0
 13 19  1  0
 13 48  1  6
 14 15  1  0
 14 17  1  0
 14 49  1  0
 15 16  1  0
 15 50  1  0
 15 51  1  0
 16 52  1  0
 17 18  1  0
 17 53  1  0
 17 54  1  0
 18 55  1  0
 19 20  1  0
 19 56  1  0
 19 57  1  0
 20 21  1  0
 20 58  1  0
 20 59  1  0
 21 22  1  6
 22 60  1  0
 22 61  1  0
 22 62  1  0
 23 24  1  6
 23 25  1  0
 24 63  1  0
 24 64  1  0
 24 65  1  0
 25 26  1  0
 25 27  1  0
 25 66  1  6
 26 67  1  0
 27 28  1  0
 27 68  1  6
 28 29  1  0
 29 30  1  0
 29 69  1  6
 30 70  1  0
M  END
>  <i_m_ct_stereo_status>  (34) 
1

>  <s_m_source_file>  (34) 
/var/tmp/pbs.5076255.sched01/tmpgq1_80gb/0xrgip9rw.sdf

>  <i_m_source_file_index>  (34) 
18

>  <i_lp_mmshare_version>  (34) 
48012

>  <i_f3d_flags>  (34) 
0

>  <s_epik_input>  (34) 
W09IXVtDQEBIXTFPW0NAQEhdKFtDQEBdMTJbQ0gzXSlbQ0BIXShbT0hdKVtDQEBdMyhbQ0gzXSlbQ0BASF0oW0NIMl0yKVtDSDJdW0NIMl1DND1DM1tDSDJdW0NIMl1bQ0BAXTUoW0NIM10pW0NAQF00KFtDSDNdKVtDSDJdW0NIMl1bQ0BASF01W0NIXShbQ0gyXVtPSF0pW0NIMl1bT0hd

>  <s_epik_cmdline>  (34) 
J2VwaWtfcHl0aG9uJywgJy1waHQnLCAnMi4wJywgJy1waCcsICc3LjAnLCAnLXRuJywgJzgnLCAnLW1hJywgJzIwMCcsICctaW1hZScsICc8aW5maWxlLm1hZT4nLCAnLW9tYWUnLCAnPG91dGZpbGUubWFlPic=

>  <r_lp_tautomer_probability>  (34) 
1

>  <r_epik_Ionization_Penalty>  (34) 
1.06361e-06

>  <r_epik_Ionization_Penalty_Charging>  (34) 
0

>  <r_epik_Ionization_Penalty_Neutral>  (34) 
1.06361e-06

>  <r_epik_State_Penalty>  (34) 
-0

>  <r_epik_Charging_Adjusted_Penalty>  (34) 
0

>  <i_epik_Tot_Q>  (34) 
0

>  <i_epik_Tot_abs_Q>  (34) 
0

>  <s_epik_Chemistry_Notes>  (34) 
This compound contains an acetal/aminal-like group ( X-CH(R)-Y where X, Y are N, S, or O) that may be acid/base labile, releasing an aldehyde.

>  <s_lp_Force_Field>  (34) 
OPLS3e

>  <r_lp_Energy>  (34) 
70.9782

>  <b_lp_Chiralities_Consistent>  (34) 
1

>  <s_lp_Variant>  (34) 
13:0-1

>  <s_i_glide_gridfile>  (34) 
pfpi4k_grid

>  <i_i_glide_lignum>  (34) 
18

>  <i_i_glide_rotatable_bonds>  (34) 
7

>  <r_i_docking_score>  (34) 
-3.63564

>  <r_i_glide_ligand_efficiency>  (34) 
-0.121188

>  <r_i_glide_ligand_efficiency_sa>  (34) 
-0.376559

>  <r_i_glide_ligand_efficiency_ln>  (34) 
-0.826056

>  <r_i_glide_gscore>  (34) 
-3.63564

>  <r_i_glide_lipo>  (34) 
-0.331808

>  <r_i_glide_hbond>  (34) 
-0.421744

>  <r_i_glide_metal>  (34) 
-0

>  <r_i_glide_rewards>  (34) 
-0.541486

>  <r_i_glide_evdw>  (34) 
-16.1294

>  <r_i_glide_ecoul>  (34) 
-12.2619

>  <r_i_glide_erotb>  (34) 
0.335697

>  <r_i_glide_esite>  (34) 
-0.0305421

>  <r_i_glide_emodel>  (34) 
-31.4253

>  <r_i_glide_energy>  (34) 
-28.3913

>  <r_i_glide_einternal>  (34) 
8.07431

>  <r_i_glide_intrahb_reward>  (34) 
-0

>  <i_i_glide_confnum>  (34) 
2

>  <i_i_glide_posenum>  (34) 
12

>  <r_i_glide_eff_state_penalty>  (34) 
0

>  <ligand_id>  (34) 
13

>  <original_smiles>  (34) 
CC12CC3CCC4=C(CCC5(C)C(C(CO)CO)CCC45C)C3(C)C(O)C1OC2O

>  <smiles>  (34) 
[H]OC([H])([H])C([H])(C([H])([H])O[H])C1([H])C([H])([H])C([H])([H])C2(C([H])([H])[H])C3=C(C([H])([H])C([H])([H])C12C([H])([H])[H])C1(C([H])([H])[H])C([H])(O[H])C2([H])OC([H])(O[H])C2(C([H])([H])[H])C([H])([H])C1([H])C([H])([H])C3([H])[H]

$$$$
13:0:1
     RDKit          3D

 70 74  0  0  1  0  0  0  0  0999 V2000
    6.6071   -1.6321   -0.2577 C   0  0  0  0  0  0  0  0  0  0  0  0
    5.2454   -2.1287    0.2237 C   0  0  2  0  0  0  0  0  0  0  0  0
    5.3474   -2.3431    1.7458 C   0  0  0  0  0  0  0  0  0  0  0  0
    4.6136   -3.5741    2.3299 C   0  0  1  0  0  0  0  0  0  0  0  0
    3.2994   -3.2292    3.0469 C   0  0  0  0  0  0  0  0  0  0  0  0
    2.8038   -4.4100    3.8895 C   0  0  0  0  0  0  0  0  0  0  0  0
    2.8814   -5.7454    3.1601 C   0  0  0  0  0  0  0  0  0  0  0  0
    3.6402   -5.9443    2.0502 C   0  0  0  0  0  0  0  0  0  0  0  0
    3.7260   -7.3483    1.3910 C   0  0  0  0  0  0  0  0  0  0  0  0
    2.8675   -8.4777    2.0295 C   0  0  0  0  0  0  0  0  0  0  0  0
    2.7605   -8.2532    3.5532 C   0  0  2  0  0  0  0  0  0  0  0  0
    4.2034   -8.2500    4.1559 C   0  0  0  0  0  0  0  0  0  0  0  0
    1.8661   -9.2298    4.3855 C   0  0  1  0  0  0  0  0  0  0  0  0
    2.3982  -10.6622    4.7847 C   0  0  0  0  0  0  0  0  0  0  0  0
    1.2461  -11.6886    4.8771 C   0  0  0  0  0  0  0  0  0  0  0  0
    0.6981  -11.9818    3.6129 O   0  0  0  0  0  0  0  0  0  0  0  0
    3.2458  -10.6930    6.1095 C   0  0  0  0  0  0  0  0  0  0  0  0
    3.8186  -11.9977    6.3504 O   0  0  0  0  0  0  0  0  0  0  0  0
    1.3618   -8.3546    5.5869 C   0  0  0  0  0  0  0  0  0  0  0  0
    1.7755   -6.8989    5.2641 C   0  0  0  0  0  0  0  0  0  0  0  0
    2.0294   -6.8851    3.7515 C   0  0  1  0  0  0  0  0  0  0  0  0
    0.6359   -6.7491    3.0836 C   0  0  0  0  0  0  0  0  0  0  0  0
    4.4956   -4.8196    1.3905 C   0  0  2  0  0  0  0  0  0  0  0  0
    5.9333   -5.3534    1.1650 C   0  0  0  0  0  0  0  0  0  0  0  0
    3.8961   -4.4406    0.0152 C   0  0  1  0  0  0  0  0  0  0  0  0
    2.5146   -4.1279    0.1259 O   0  0  0  0  0  0  0  0  0  0  0  0
    4.6378   -3.2473   -0.6166 C   0  0  1  0  0  0  0  0  0  0  0  0
    3.7368   -2.3191   -1.3030 O   0  0  0  0  0  0  0  0  0  0  0  0
    4.0731   -1.2978   -0.3532 C   0  0  1  0  0  0  0  0  0  0  0  0
    3.0765   -0.9803    0.5427 O   0  0  0  0  0  0  0  0  0  0  0  0
    6.8877   -0.6958    0.2279 H   0  0  0  0  0  0  0  0  0  0  0  0
    6.5842   -1.4759   -1.3368 H   0  0  0  0  0  0  0  0  0  0  0  0
    7.3816   -2.3668   -0.0581 H   0  0  0  0  0  0  0  0  0  0  0  0
    6.4072   -2.4195    2.0311 H   0  0  0  0  0  0  0  0  0  0  0  0
    5.0093   -1.4472    2.2500 H   0  0  0  0  0  0  0  0  0  0  0  0
    5.2492   -3.8816    3.1516 H   0  0  0  0  0  0  0  0  0  0  0  0
    3.4200   -2.3543    3.6974 H   0  0  0  0  0  0  0  0  0  0  0  0
    2.5209   -2.9725    2.3312 H   0  0  0  0  0  0  0  0  0  0  0  0
    3.4018   -4.5038    4.7953 H   0  0  0  0  0  0  0  0  0  0  0  0
    1.7745   -4.2317    4.1930 H   0  0  0  0  0  0  0  0  0  0  0  0
    3.4974   -7.2209    0.3415 H   0  0  0  0  0  0  0  0  0  0  0  0
    4.7635   -7.6752    1.4589 H   0  0  0  0  0  0  0  0  0  0  0  0
    1.8885   -8.4895    1.5587 H   0  0  0  0  0  0  0  0  0  0  0  0
    3.2903   -9.4595    1.8066 H   0  0  0  0  0  0  0  0  0  0  0  0
    4.1916   -8.1867    5.2326 H   0  0  0  0  0  0  0  0  0  0  0  0
    4.8304   -7.4403    3.7574 H   0  0  0  0  0  0  0  0  0  0  0  0
    4.7149   -9.1715    3.8888 H   0  0  0  0  0  0  0  0  0  0  0  0
    1.0070   -9.4230    3.7450 H   0  0  0  0  0  0  0  0  0  0  0  0
    3.0465  -11.0017    3.9774 H   0  0  0  0  0  0  0  0  0  0  0  0
    1.6267  -12.6266    5.2453 H   0  0  0  0  0  0  0  0  0  0  0  0
    0.4807  -11.3605    5.5690 H   0  0  0  0  0  0  0  0  0  0  0  0
    1.0852  -12.7960    3.3103 H   0  0  0  0  0  0  0  0  0  0  0  0
    4.0509   -9.9731    6.0838 H   0  0  0  0  0  0  0  0  0  0  0  0
    2.5753  -10.4508    6.9581 H   0  0  0  0  0  0  0  0  0  0  0  0
    3.1446  -12.5153    6.7849 H   0  0  0  0  0  0  0  0  0  0  0  0
    0.2636   -8.4482    5.6657 H   0  0  0  0  0  0  0  0  0  0  0  0
    1.8028   -8.6393    6.5481 H   0  0  0  0  0  0  0  0  0  0  0  0
    1.0289   -6.1799    5.5879 H   0  0  0  0  0  0  0  0  0  0  0  0
    2.6879   -6.6707    5.8029 H   0  0  0  0  0  0  0  0  0  0  0  0
   -0.0379   -7.5659    3.3237 H   0  0  0  0  0  0  0  0  0  0  0  0
    0.6998   -6.6736    2.0000 H   0  0  0  0  0  0  0  0  0  0  0  0
    0.1559   -5.8385    3.4357 H   0  0  0  0  0  0  0  0  0  0  0  0
    6.6267   -4.5708    0.8588 H   0  0  0  0  0  0  0  0  0  0  0  0
    5.9711   -6.1138    0.3841 H   0  0  0  0  0  0  0  0  0  0  0  0
    6.3469   -5.8023    2.0749 H   0  0  0  0  0  0  0  0  0  0  0  0
    3.9650   -5.2819   -0.6742 H   0  0  0  0  0  0  0  0  0  0  0  0
    2.4674   -3.1855    0.1810 H   0  0  0  0  0  0  0  0  0  0  0  0
    5.4069   -3.5923   -1.3035 H   0  0  0  0  0  0  0  0  0  0  0  0
    4.4238   -0.3943   -0.8509 H   0  0  0  0  0  0  0  0  0  0  0  0
    2.2327   -0.9499    0.0369 H   0  0  0  0  0  0  0  0  0  0  0  0
  2  1  1  6
  1 31  1  0
  1 32  1  0
  1 33  1  0
  2 27  1  0
  2 29  1  0
  2  3  1  0
  3  4  1  0
  3 34  1  0
  3 35  1  0
  4 23  1  0
  4  5  1  0
  4 36  1  1
  5  6  1  0
  5 37  1  0
  5 38  1  0
  6  7  1  0
  6 39  1  0
  6 40  1  0
  7 21  1  0
  7  8  2  0
  8  9  1  0
  8 23  1  0
  9 10  1  0
  9 41  1  0
  9 42  1  0
 10 11  1  0
 10 43  1  0
 10 44  1  0
 11 21  1  0
 11 12  1  1
 11 13  1  0
 12 45  1  0
 12 46  1  0
 12 47  1  0
 13 14  1  0
 13 19  1  0
 13 48  1  6
 14 15  1  0
 14 17  1  0
 14 49  1  0
 15 16  1  0
 15 50  1  0
 15 51  1  0
 16 52  1  0
 17 18  1  0
 17 53  1  0
 17 54  1  0
 18 55  1  0
 19 20  1  0
 19 56  1  0
 19 57  1  0
 20 21  1  0
 20 58  1  0
 20 59  1  0
 21 22  1  6
 22 60  1  0
 22 61  1  0
 22 62  1  0
 23 24  1  6
 23 25  1  0
 24 63  1  0
 24 64  1  0
 24 65  1  0
 25 26  1  0
 25 27  1  0
 25 66  1  6
 26 67  1  0
 27 28  1  0
 27 68  1  6
 28 29  1  0
 29 30  1  0
 29 69  1  6
 30 70  1  0
M  END
>  <i_m_ct_stereo_status>  (35) 
1

>  <s_m_source_file>  (35) 
/var/tmp/pbs.5076255.sched01/tmpgq1_80gb/0xrgip9rw.sdf

>  <i_m_source_file_index>  (35) 
18

>  <i_lp_mmshare_version>  (35) 
48012

>  <i_f3d_flags>  (35) 
0

>  <s_epik_input>  (35) 
W09IXVtDQEBIXTFPW0NAQEhdKFtDQEBdMTJbQ0gzXSlbQ0BIXShbT0hdKVtDQEBdMyhbQ0gzXSlbQ0BASF0oW0NIMl0yKVtDSDJdW0NIMl1DND1DM1tDSDJdW0NIMl1bQ0BAXTUoW0NIM10pW0NAQF00KFtDSDNdKVtDSDJdW0NIMl1bQ0BASF01W0NIXShbQ0gyXVtPSF0pW0NIMl1bT0hd

>  <s_epik_cmdline>  (35) 
J2VwaWtfcHl0aG9uJywgJy1waHQnLCAnMi4wJywgJy1waCcsICc3LjAnLCAnLXRuJywgJzgnLCAnLW1hJywgJzIwMCcsICctaW1hZScsICc8aW5maWxlLm1hZT4nLCAnLW9tYWUnLCAnPG91dGZpbGUubWFlPic=

>  <r_lp_tautomer_probability>  (35) 
1

>  <r_epik_Ionization_Penalty>  (35) 
1.06361e-06

>  <r_epik_Ionization_Penalty_Charging>  (35) 
0

>  <r_epik_Ionization_Penalty_Neutral>  (35) 
1.06361e-06

>  <r_epik_State_Penalty>  (35) 
-0

>  <r_epik_Charging_Adjusted_Penalty>  (35) 
0

>  <i_epik_Tot_Q>  (35) 
0

>  <i_epik_Tot_abs_Q>  (35) 
0

>  <s_epik_Chemistry_Notes>  (35) 
This compound contains an acetal/aminal-like group ( X-CH(R)-Y where X, Y are N, S, or O) that may be acid/base labile, releasing an aldehyde.

>  <s_lp_Force_Field>  (35) 
OPLS3e

>  <r_lp_Energy>  (35) 
70.9782

>  <b_lp_Chiralities_Consistent>  (35) 
1

>  <s_lp_Variant>  (35) 
13:0-1

>  <s_i_glide_gridfile>  (35) 
pfpi4k_grid

>  <i_i_glide_lignum>  (35) 
18

>  <i_i_glide_rotatable_bonds>  (35) 
7

>  <r_i_docking_score>  (35) 
-3.58875

>  <r_i_glide_ligand_efficiency>  (35) 
-0.119625

>  <r_i_glide_ligand_efficiency_sa>  (35) 
-0.371703

>  <r_i_glide_ligand_efficiency_ln>  (35) 
-0.815403

>  <r_i_glide_gscore>  (35) 
-3.58875

>  <r_i_glide_lipo>  (35) 
-0.349307

>  <r_i_glide_hbond>  (35) 
-0.567845

>  <r_i_glide_metal>  (35) 
-0

>  <r_i_glide_rewards>  (35) 
-0.541486

>  <r_i_glide_evdw>  (35) 
-18.2689

>  <r_i_glide_ecoul>  (35) 
-10.0644

>  <r_i_glide_erotb>  (35) 
0.335697

>  <r_i_glide_esite>  (35) 
-0.0427014

>  <r_i_glide_emodel>  (35) 
-30.2409

>  <r_i_glide_energy>  (35) 
-28.3333

>  <r_i_glide_einternal>  (35) 
8.94338

>  <r_i_glide_intrahb_reward>  (35) 
-0

>  <i_i_glide_confnum>  (35) 
2

>  <i_i_glide_posenum>  (35) 
1

>  <r_i_glide_eff_state_penalty>  (35) 
0

>  <ligand_id>  (35) 
13

>  <original_smiles>  (35) 
CC12CC3CCC4=C(CCC5(C)C(C(CO)CO)CCC45C)C3(C)C(O)C1OC2O

>  <smiles>  (35) 
[H]OC([H])([H])C([H])(C([H])([H])O[H])C1([H])C([H])([H])C([H])([H])C2(C([H])([H])[H])C3=C(C([H])([H])C([H])([H])C12C([H])([H])[H])C1(C([H])([H])[H])C([H])(O[H])C2([H])OC([H])(O[H])C2(C([H])([H])[H])C([H])([H])C1([H])C([H])([H])C3([H])[H]

$$$$
13:0:2
     RDKit          3D

 70 74  0  0  1  0  0  0  0  0999 V2000
    4.1081   -2.1905   -2.8832 C   0  0  0  0  0  0  0  0  0  0  0  0
    4.6081   -2.4126   -1.4496 C   0  0  2  0  0  0  0  0  0  0  0  0
    5.1685   -3.8474   -1.3678 C   0  0  0  0  0  0  0  0  0  0  0  0
    4.8884   -4.6553   -0.0657 C   0  0  1  0  0  0  0  0  0  0  0  0
    6.1008   -4.7379    0.8764 C   0  0  0  0  0  0  0  0  0  0  0  0
    5.8830   -5.8064    1.9542 C   0  0  0  0  0  0  0  0  0  0  0  0
    4.4997   -5.7475    2.5888 C   0  0  0  0  0  0  0  0  0  0  0  0
    3.4524   -5.0807    2.0351 C   0  0  0  0  0  0  0  0  0  0  0  0
    2.0500   -5.1020    2.7049 C   0  0  0  0  0  0  0  0  0  0  0  0
    1.9391   -5.8782    4.0489 C   0  0  0  0  0  0  0  0  0  0  0  0
    2.9143   -7.0811    4.0646 C   0  0  2  0  0  0  0  0  0  0  0  0
    2.5538   -8.0035    2.8544 C   0  0  0  0  0  0  0  0  0  0  0  0
    3.0213   -7.9409    5.3720 C   0  0  1  0  0  0  0  0  0  0  0  0
    1.9330   -9.0330    5.7024 C   0  0  0  0  0  0  0  0  0  0  0  0
    1.7309   -9.1827    7.2478 C   0  0  0  0  0  0  0  0  0  0  0  0
    0.5264   -9.8292    7.5928 O   0  0  0  0  0  0  0  0  0  0  0  0
    2.2235  -10.4286    5.0740 C   0  0  0  0  0  0  0  0  0  0  0  0
    1.0922  -11.2786    5.0774 O   0  0  0  0  0  0  0  0  0  0  0  0
    4.4944   -8.4525    5.3515 C   0  0  0  0  0  0  0  0  0  0  0  0
    5.2132   -7.7143    4.2048 C   0  0  0  0  0  0  0  0  0  0  0  0
    4.3501   -6.4735    3.9373 C   0  0  1  0  0  0  0  0  0  0  0  0
    4.7539   -5.4285    5.0171 C   0  0  0  0  0  0  0  0  0  0  0  0
    3.5563   -4.3167    0.6838 C   0  0  2  0  0  0  0  0  0  0  0  0
    2.4060   -4.7648   -0.2476 C   0  0  0  0  0  0  0  0  0  0  0  0
    3.4276   -2.7894    0.9273 C   0  0  1  0  0  0  0  0  0  0  0  0
    4.3213   -2.3426    1.9331 O   0  0  0  0  0  0  0  0  0  0  0  0
    3.6427   -1.9696   -0.3509 C   0  0  1  0  0  0  0  0  0  0  0  0
    4.3918   -0.7535   -0.0992 O   0  0  0  0  0  0  0  0  0  0  0  0
    5.4630   -1.2449   -0.9223 C   0  0  1  0  0  0  0  0  0  0  0  0
    6.6346   -1.5805   -0.2170 O   0  0  0  0  0  0  0  0  0  0  0  0
    4.9042   -2.3290   -3.6160 H   0  0  0  0  0  0  0  0  0  0  0  0
    3.7126   -1.1820   -3.0186 H   0  0  0  0  0  0  0  0  0  0  0  0
    3.3037   -2.8819   -3.1274 H   0  0  0  0  0  0  0  0  0  0  0  0
    4.7724   -4.4364   -2.1980 H   0  0  0  0  0  0  0  0  0  0  0  0
    6.2399   -3.8310   -1.5654 H   0  0  0  0  0  0  0  0  0  0  0  0
    4.7858   -5.6830   -0.4188 H   0  0  0  0  0  0  0  0  0  0  0  0
    7.0137   -4.9709    0.3221 H   0  0  0  0  0  0  0  0  0  0  0  0
    6.2780   -3.7812    1.3663 H   0  0  0  0  0  0  0  0  0  0  0  0
    6.0080   -6.7988    1.5221 H   0  0  0  0  0  0  0  0  0  0  0  0
    6.6443   -5.6947    2.7237 H   0  0  0  0  0  0  0  0  0  0  0  0
    1.6852   -4.0868    2.8284 H   0  0  0  0  0  0  0  0  0  0  0  0
    1.3710   -5.6028    2.0161 H   0  0  0  0  0  0  0  0  0  0  0  0
    2.1477   -5.1930    4.8697 H   0  0  0  0  0  0  0  0  0  0  0  0
    0.9140   -6.2061    4.2193 H   0  0  0  0  0  0  0  0  0  0  0  0
    3.1803   -8.8865    2.8070 H   0  0  0  0  0  0  0  0  0  0  0  0
    2.6581   -7.5200    1.8815 H   0  0  0  0  0  0  0  0  0  0  0  0
    1.5172   -8.3272    2.9130 H   0  0  0  0  0  0  0  0  0  0  0  0
    2.9499   -7.2113    6.1765 H   0  0  0  0  0  0  0  0  0  0  0  0
    0.9875   -8.6511    5.3162 H   0  0  0  0  0  0  0  0  0  0  0  0
    2.5549   -9.7313    7.6887 H   0  0  0  0  0  0  0  0  0  0  0  0
    1.7071   -8.2085    7.7424 H   0  0  0  0  0  0  0  0  0  0  0  0
    0.7007  -10.7868    7.6154 H   0  0  0  0  0  0  0  0  0  0  0  0
    2.5414  -10.3693    4.0426 H   0  0  0  0  0  0  0  0  0  0  0  0
    3.0014  -10.9477    5.6387 H   0  0  0  0  0  0  0  0  0  0  0  0
    1.0820  -11.7729    5.8903 H   0  0  0  0  0  0  0  0  0  0  0  0
    4.9679   -8.2597    6.3167 H   0  0  0  0  0  0  0  0  0  0  0  0
    4.6082   -9.5169    5.1549 H   0  0  0  0  0  0  0  0  0  0  0  0
    6.2442   -7.4850    4.4609 H   0  0  0  0  0  0  0  0  0  0  0  0
    5.2467   -8.3561    3.3274 H   0  0  0  0  0  0  0  0  0  0  0  0
    4.5850   -5.7656    6.0365 H   0  0  0  0  0  0  0  0  0  0  0  0
    4.2394   -4.4773    4.8899 H   0  0  0  0  0  0  0  0  0  0  0  0
    5.8187   -5.2067    4.9432 H   0  0  0  0  0  0  0  0  0  0  0  0
    2.4998   -4.3389   -1.2460 H   0  0  0  0  0  0  0  0  0  0  0  0
    1.4346   -4.4372    0.0971 H   0  0  0  0  0  0  0  0  0  0  0  0
    2.3555   -5.8528   -0.3238 H   0  0  0  0  0  0  0  0  0  0  0  0
    2.4312   -2.5599    1.3052 H   0  0  0  0  0  0  0  0  0  0  0  0
    4.1527   -1.4180    2.0599 H   0  0  0  0  0  0  0  0  0  0  0  0
    2.6928   -1.7489   -0.8346 H   0  0  0  0  0  0  0  0  0  0  0  0
    5.6968   -0.5406   -1.7184 H   0  0  0  0  0  0  0  0  0  0  0  0
    6.3523   -2.1216    0.5036 H   0  0  0  0  0  0  0  0  0  0  0  0
  2  1  1  6
  1 31  1  0
  1 32  1  0
  1 33  1  0
  2 27  1  0
  2 29  1  0
  2  3  1  0
  3  4  1  0
  3 34  1  0
  3 35  1  0
  4 23  1  0
  4  5  1  0
  4 36  1  6
  5  6  1  0
  5 37  1  0
  5 38  1  0
  6  7  1  0
  6 39  1  0
  6 40  1  0
  7 21  1  0
  7  8  2  0
  8  9  1  0
  8 23  1  0
  9 10  1  0
  9 41  1  0
  9 42  1  0
 10 11  1  0
 10 43  1  0
 10 44  1  0
 11 21  1  0
 11 12  1  6
 11 13  1  0
 12 45  1  0
 12 46  1  0
 12 47  1  0
 13 14  1  0
 13 19  1  0
 13 48  1  1
 14 15  1  0
 14 17  1  0
 14 49  1  0
 15 16  1  0
 15 50  1  0
 15 51  1  0
 16 52  1  0
 17 18  1  0
 17 53  1  0
 17 54  1  0
 18 55  1  0
 19 20  1  0
 19 56  1  0
 19 57  1  0
 20 21  1  0
 20 58  1  0
 20 59  1  0
 21 22  1  1
 22 60  1  0
 22 61  1  0
 22 62  1  0
 23 24  1  6
 23 25  1  0
 24 63  1  0
 24 64  1  0
 24 65  1  0
 25 26  1  0
 25 27  1  0
 25 66  1  1
 26 67  1  0
 27 28  1  0
 27 68  1  6
 28 29  1  0
 29 30  1  0
 29 69  1  6
 30 70  1  0
M  END
>  <i_m_ct_stereo_status>  (36) 
1

>  <s_m_source_file>  (36) 
/var/tmp/pbs.5076255.sched01/tmpgq1_80gb/0xrgip9rw.sdf

>  <i_m_source_file_index>  (36) 
18

>  <i_lp_mmshare_version>  (36) 
48012

>  <i_f3d_flags>  (36) 
0

>  <s_epik_input>  (36) 
W09IXVtDQEBIXTFPW0NAQEhdKFtDQEBdMTJbQ0gzXSlbQ0BIXShbT0hdKVtDQEBdMyhbQ0gzXSlbQ0BASF0oW0NIMl0yKVtDSDJdW0NIMl1DND1DM1tDSDJdW0NIMl1bQ0BAXTUoW0NIM10pW0NAQF00KFtDSDNdKVtDSDJdW0NIMl1bQ0BASF01W0NIXShbQ0gyXVtPSF0pW0NIMl1bT0hd

>  <s_epik_cmdline>  (36) 
J2VwaWtfcHl0aG9uJywgJy1waHQnLCAnMi4wJywgJy1waCcsICc3LjAnLCAnLXRuJywgJzgnLCAnLW1hJywgJzIwMCcsICctaW1hZScsICc8aW5maWxlLm1hZT4nLCAnLW9tYWUnLCAnPG91dGZpbGUubWFlPic=

>  <r_lp_tautomer_probability>  (36) 
1

>  <r_epik_Ionization_Penalty>  (36) 
1.06361e-06

>  <r_epik_Ionization_Penalty_Charging>  (36) 
0

>  <r_epik_Ionization_Penalty_Neutral>  (36) 
1.06361e-06

>  <r_epik_State_Penalty>  (36) 
-0

>  <r_epik_Charging_Adjusted_Penalty>  (36) 
0

>  <i_epik_Tot_Q>  (36) 
0

>  <i_epik_Tot_abs_Q>  (36) 
0

>  <s_epik_Chemistry_Notes>  (36) 
This compound contains an acetal/aminal-like group ( X-CH(R)-Y where X, Y are N, S, or O) that may be acid/base labile, releasing an aldehyde.

>  <s_lp_Force_Field>  (36) 
OPLS3e

>  <r_lp_Energy>  (36) 
70.9782

>  <b_lp_Chiralities_Consistent>  (36) 
1

>  <s_lp_Variant>  (36) 
13:0-1

>  <s_i_glide_gridfile>  (36) 
pfpi4k_grid

>  <i_i_glide_lignum>  (36) 
18

>  <i_i_glide_rotatable_bonds>  (36) 
7

>  <r_i_docking_score>  (36) 
-3.26169

>  <r_i_glide_ligand_efficiency>  (36) 
-0.108723

>  <r_i_glide_ligand_efficiency_sa>  (36) 
-0.337828

>  <r_i_glide_ligand_efficiency_ln>  (36) 
-0.741091

>  <r_i_glide_gscore>  (36) 
-3.26169

>  <r_i_glide_lipo>  (36) 
-0.292351

>  <r_i_glide_hbond>  (36) 
0

>  <r_i_glide_metal>  (36) 
-0

>  <r_i_glide_rewards>  (36) 
-1.04149

>  <r_i_glide_evdw>  (36) 
-17.4817

>  <r_i_glide_ecoul>  (36) 
-8.90612

>  <r_i_glide_erotb>  (36) 
0.335697

>  <r_i_glide_esite>  (36) 
-0.0535485

>  <r_i_glide_emodel>  (36) 
-34.6214

>  <r_i_glide_energy>  (36) 
-26.3878

>  <r_i_glide_einternal>  (36) 
7.34226

>  <r_i_glide_intrahb_reward>  (36) 
-0.5

>  <i_i_glide_confnum>  (36) 
2

>  <i_i_glide_posenum>  (36) 
3

>  <r_i_glide_eff_state_penalty>  (36) 
0

>  <ligand_id>  (36) 
13

>  <original_smiles>  (36) 
CC12CC3CCC4=C(CCC5(C)C(C(CO)CO)CCC45C)C3(C)C(O)C1OC2O

>  <smiles>  (36) 
[H]OC([H])([H])C([H])(C([H])([H])O[H])C1([H])C([H])([H])C([H])([H])C2(C([H])([H])[H])C3=C(C([H])([H])C([H])([H])C12C([H])([H])[H])C1(C([H])([H])[H])C([H])(O[H])C2([H])OC([H])(O[H])C2(C([H])([H])[H])C([H])([H])C1([H])C([H])([H])C3([H])[H]

$$$$
14:0:0
     RDKit          3D

 90 95  0  0  1  0  0  0  0  0999 V2000
    1.2164   -6.9113    1.9052 C   0  0  0  0  0  0  0  0  0  0  0  0
    1.8433   -5.5099    2.0637 C   0  0  2  0  0  0  0  0  0  0  0  0
    2.6027   -5.1290    0.7782 C   0  0  0  0  0  0  0  0  0  0  0  0
    3.3253   -3.7779    0.9062 C   0  0  0  0  0  0  0  0  0  0  0  0
    4.3556   -3.7549    2.0651 C   0  0  1  0  0  0  0  0  0  0  0  0
    5.4586   -4.8136    1.8036 C   0  0  0  0  0  0  0  0  0  0  0  0
    5.0955   -2.3752    2.0853 C   0  0  0  0  0  0  0  0  0  0  0  0
    4.4467   -1.2168    2.8836 C   0  0  0  0  0  0  0  0  0  0  0  0
    3.9012   -1.6233    4.2865 C   0  0  2  0  0  0  0  0  0  0  0  0
    5.1126   -2.1757    5.0941 C   0  0  0  0  0  0  0  0  0  0  0  0
    2.9395   -2.7678    3.9252 C   0  0  0  0  0  0  0  0  0  0  0  0
    1.6141   -2.5509    3.8479 C   0  0  0  0  0  0  0  0  0  0  0  0
    0.9328   -1.2233    4.0176 C   0  0  0  0  0  0  0  0  0  0  0  0
    1.8380   -0.0175    4.3737 C   0  0  1  0  0  0  0  0  0  0  0  0
    1.0739    1.1713    5.0613 C   0  0  1  0  0  0  0  0  0  0  0  0
    0.0779    1.9710    4.1514 C   0  0  1  0  0  0  0  0  0  0  0  0
   -1.2664    1.3041    3.7764 C   0  0  0  0  0  0  0  0  0  0  0  0
   -0.1323    3.3821    4.7595 C   0  0  1  0  0  0  0  0  0  0  0  0
   -0.9856    4.3212    3.8944 C   0  0  0  0  0  0  0  0  0  0  0  0
   -0.6623    3.2775    6.1971 C   0  0  0  0  0  0  0  0  0  0  0  0
    0.2716    2.4317    7.0947 C   0  0  0  0  0  0  0  0  0  0  0  0
    0.6666    0.9997    6.5698 C   0  0  1  0  0  0  0  0  0  0  0  0
   -0.5744    0.0633    6.7938 C   0  0  0  0  0  0  0  0  0  0  0  0
   -0.3779   -1.1564    6.9853 O   0  0  0  0  0  0  0  0  0  0  0  0
   -1.7308    0.5400    6.8769 O   0  0  0  0  0  0  0  0  0  0  0  0
    1.9116    0.3897    7.3626 C   0  0  2  0  0  0  0  0  0  0  0  0
    2.8641    1.3330    8.1751 C   0  0  1  0  0  0  0  0  0  0  0  0
    2.3351    1.7641    9.5660 C   0  0  0  0  0  0  0  0  0  0  0  0
    4.2128    0.5920    8.2534 C   0  0  1  0  0  0  0  0  0  0  0  0
    4.8129    0.5062    9.5341 O   0  0  0  0  0  0  0  0  0  0  0  0
    3.9733   -0.7887    7.6572 C   0  0  0  0  0  0  0  0  0  0  0  0
    2.8204   -0.6701    6.6177 C   0  0  2  0  0  0  0  0  0  0  0  0
    3.1912   -0.3930    5.0848 C   0  0  1  0  0  0  0  0  0  0  0  0
    4.1465    0.8429    4.9870 C   0  0  0  0  0  0  0  0  0  0  0  0
    3.6033   -4.0657    3.4059 C   0  0  1  0  0  0  0  0  0  0  0  0
    2.7435   -5.3779    3.3282 C   0  0  1  0  0  0  0  0  0  0  0  0
    2.0059   -5.7000    4.6485 C   0  0  0  0  0  0  0  0  0  0  0  0
    1.9807   -7.6893    1.8498 H   0  0  0  0  0  0  0  0  0  0  0  0
    0.6204   -6.9817    0.9937 H   0  0  0  0  0  0  0  0  0  0  0  0
    0.5521   -7.1594    2.7348 H   0  0  0  0  0  0  0  0  0  0  0  0
    1.0121   -4.8213    2.1582 H   0  0  0  0  0  0  0  0  0  0  0  0
    3.3072   -5.9173    0.5087 H   0  0  0  0  0  0  0  0  0  0  0  0
    1.9022   -5.0768   -0.0547 H   0  0  0  0  0  0  0  0  0  0  0  0
    3.8071   -3.5410   -0.0452 H   0  0  0  0  0  0  0  0  0  0  0  0
    2.5810   -2.9967    1.0608 H   0  0  0  0  0  0  0  0  0  0  0  0
    6.2205   -4.7783    2.5842 H   0  0  0  0  0  0  0  0  0  0  0  0
    5.9552   -4.6348    0.8465 H   0  0  0  0  0  0  0  0  0  0  0  0
    5.0844   -5.8369    1.7870 H   0  0  0  0  0  0  0  0  0  0  0  0
    6.1162   -2.5069    2.4520 H   0  0  0  0  0  0  0  0  0  0  0  0
    5.2385   -2.0346    1.0619 H   0  0  0  0  0  0  0  0  0  0  0  0
    5.1972   -0.4333    2.9638 H   0  0  0  0  0  0  0  0  0  0  0  0
    3.6478   -0.7916    2.2768 H   0  0  0  0  0  0  0  0  0  0  0  0
    5.7973   -1.3942    5.4155 H   0  0  0  0  0  0  0  0  0  0  0  0
    5.7591   -2.8461    4.5366 H   0  0  0  0  0  0  0  0  0  0  0  0
    4.7821   -2.7612    5.9517 H   0  0  0  0  0  0  0  0  0  0  0  0
    0.9466   -3.3280    3.5348 H   0  0  0  0  0  0  0  0  0  0  0  0
    0.4676   -1.0232    3.0514 H   0  0  0  0  0  0  0  0  0  0  0  0
    0.1219   -1.4004    4.7093 H   0  0  0  0  0  0  0  0  0  0  0  0
    2.1340    0.3764    3.4019 H   0  0  0  0  0  0  0  0  0  0  0  0
    1.8559    1.9191    5.1397 H   0  0  0  0  0  0  0  0  0  0  0  0
    0.5966    2.1244    3.2057 H   0  0  0  0  0  0  0  0  0  0  0  0
   -2.0496    1.4873    4.5101 H   0  0  0  0  0  0  0  0  0  0  0  0
   -1.2077    0.2297    3.6471 H   0  0  0  0  0  0  0  0  0  0  0  0
   -1.6305    1.7115    2.8330 H   0  0  0  0  0  0  0  0  0  0  0  0
    0.8461    3.8604    4.8202 H   0  0  0  0  0  0  0  0  0  0  0  0
   -2.0234    3.9915    3.8347 H   0  0  0  0  0  0  0  0  0  0  0  0
   -0.5874    4.3857    2.8810 H   0  0  0  0  0  0  0  0  0  0  0  0
   -0.9762    5.3275    4.3151 H   0  0  0  0  0  0  0  0  0  0  0  0
   -0.7431    4.2782    6.6263 H   0  0  0  0  0  0  0  0  0  0  0  0
   -1.6793    2.8901    6.2010 H   0  0  0  0  0  0  0  0  0  0  0  0
    1.1567    3.0481    7.2352 H   0  0  0  0  0  0  0  0  0  0  0  0
   -0.1996    2.3522    8.0741 H   0  0  0  0  0  0  0  0  0  0  0  0
    1.4780   -0.1948    8.1771 H   0  0  0  0  0  0  0  0  0  0  0  0
    3.0620    2.2393    7.6072 H   0  0  0  0  0  0  0  0  0  0  0  0
    2.1169    0.9099   10.2075 H   0  0  0  0  0  0  0  0  0  0  0  0
    1.4321    2.3627    9.5050 H   0  0  0  0  0  0  0  0  0  0  0  0
    3.0686    2.3844   10.0815 H   0  0  0  0  0  0  0  0  0  0  0  0
    4.9299    1.1146    7.6247 H   0  0  0  0  0  0  0  0  0  0  0  0
    4.2371    0.0239   10.1095 H   0  0  0  0  0  0  0  0  0  0  0  0
    4.9217   -1.1773    7.3226 H   0  0  0  0  0  0  0  0  0  0  0  0
    3.6450   -1.4732    8.4403 H   0  0  0  0  0  0  0  0  0  0  0  0
    2.2849   -1.6209    6.6155 H   0  0  0  0  0  0  0  0  0  0  0  0
    3.8656    1.6655    5.6377 H   0  0  0  0  0  0  0  0  0  0  0  0
    4.1575    1.2640    3.9801 H   0  0  0  0  0  0  0  0  0  0  0  0
    5.1794    0.6130    5.2424 H   0  0  0  0  0  0  0  0  0  0  0  0
    4.3511   -4.3465    4.1407 H   0  0  0  0  0  0  0  0  0  0  0  0
    3.4681   -6.1867    3.2389 H   0  0  0  0  0  0  0  0  0  0  0  0
    1.1000   -5.1089    4.7913 H   0  0  0  0  0  0  0  0  0  0  0  0
    2.6546   -5.5251    5.5082 H   0  0  0  0  0  0  0  0  0  0  0  0
    1.7106   -6.7494    4.6875 H   0  0  0  0  0  0  0  0  0  0  0  0
  1  2  1  0
  1 38  1  0
  1 39  1  0
  1 40  1  0
  2 36  1  0
  2  3  1  0
  2 41  1  1
  3  4  1  0
  3 42  1  0
  3 43  1  0
  4  5  1  0
  4 44  1  0
  4 45  1  0
  5 35  1  0
  5  6  1  6
  5  7  1  0
  6 46  1  0
  6 47  1  0
  6 48  1  0
  7  8  1  0
  7 49  1  0
  7 50  1  0
  8  9  1  0
  8 51  1  0
  8 52  1  0
  9 33  1  0
  9 10  1  1
  9 11  1  0
 10 53  1  0
 10 54  1  0
 10 55  1  0
 11 12  2  0
 11 35  1  0
 12 13  1  0
 12 56  1  0
 13 14  1  0
 13 57  1  0
 13 58  1  0
 14 33  1  0
 14 15  1  0
 14 59  1  6
 15 22  1  0
 15 16  1  0
 15 60  1  1
 16 17  1  0
 16 18  1  0
 16 61  1  6
 17 62  1  0
 17 63  1  0
 17 64  1  0
 18 19  1  0
 18 20  1  0
 18 65  1  1
 19 66  1  0
 19 67  1  0
 19 68  1  0
 20 21  1  0
 20 69  1  0
 20 70  1  0
 21 22  1  0
 21 71  1  0
 21 72  1  0
 22 23  1  6
 22 26  1  0
 23 24  2  0
 23 25  1  0
 26 32  1  0
 26 27  1  0
 26 73  1  1
 27 28  1  0
 27 29  1  0
 27 74  1  6
 28 75  1  0
 28 76  1  0
 28 77  1  0
 29 30  1  0
 29 31  1  0
 29 78  1  6
 30 79  1  0
 31 32  1  0
 31 80  1  0
 31 81  1  0
 32 33  1  0
 32 82  1  6
 33 34  1  1
 34 83  1  0
 34 84  1  0
 34 85  1  0
 35 36  1  0
 35 86  1  1
 36 37  1  0
 36 87  1  6
 37 88  1  0
 37 89  1  0
 37 90  1  0
M  CHG  1  25  -1
M  END
>  <i_m_ct_stereo_status>  (37) 
1

>  <s_m_source_file>  (37) 
/var/tmp/pbs.5076255.sched01/tmpgq1_80gb/0xrgip9rw.sdf

>  <i_m_source_file_index>  (37) 
19

>  <i_lp_mmshare_version>  (37) 
48012

>  <i_f3d_flags>  (37) 
0

>  <s_epik_input>  (37) 
W0NIMl0xW0NIMl1bQ0BASF0oW0NIM10pW0NASF0oW0NIM10pW0NAQEhdKFtDQEBdMTJbQ0gzXSlDPTNbQ0BAXShbQ0gzXSkoW0NIMl1bQ0gyXTIpW0NAQF00KFtDSDNdKVtDQEBIXShbQ0gyXVtDSF0zKVtDQEBIXTVbQ0BdKEMoPU8pW09IXSkoW0NIMl1bQ0gyXVtDQEhdKFtDSDNdKVtDQEBIXTVbQ0gzXSlbQ0BIXTZbQ0BASF00W0NIMl1bQ0BIXShbT0hdKVtDQEBIXTZbQ0gzXQ==

>  <s_epik_cmdline>  (37) 
J2VwaWtfcHl0aG9uJywgJy1waHQnLCAnMi4wJywgJy1waCcsICc3LjAnLCAnLXRuJywgJzgnLCAnLW1hJywgJzIwMCcsICctaW1hZScsICc8aW5maWxlLm1hZT4nLCAnLW9tYWUnLCAnPG91dGZpbGUubWFlPic=

>  <r_epik_Ionization_Penalty>  (37) 
0.00942949

>  <r_epik_Ionization_Penalty_Charging>  (37) 
0.00942484

>  <r_epik_Ionization_Penalty_Neutral>  (37) 
4.644e-06

>  <r_epik_State_Penalty>  (37) 
0.00715652

>  <r_epik_Charging_Adjusted_Penalty>  (37) 
0.0165814

>  <i_epik_Tot_Q>  (37) 
-1

>  <i_epik_Tot_abs_Q>  (37) 
1

>  <s_lp_Force_Field>  (37) 
OPLS3e

>  <r_lp_Energy>  (37) 
113.872

>  <b_lp_Chiralities_Consistent>  (37) 
1

>  <s_lp_Variant>  (37) 
14:0-1

>  <s_i_glide_gridfile>  (37) 
pfpi4k_grid

>  <i_i_glide_lignum>  (37) 
19

>  <i_i_glide_rotatable_bonds>  (37) 
2

>  <r_i_docking_score>  (37) 
-2.44731

>  <r_i_glide_ligand_efficiency>  (37) 
-0.0661434

>  <r_i_glide_ligand_efficiency_sa>  (37) 
-0.220405

>  <r_i_glide_ligand_efficiency_ln>  (37) 
-0.530764

>  <r_i_glide_gscore>  (37) 
-2.44731

>  <r_i_glide_lipo>  (37) 
-0.205309

>  <r_i_glide_hbond>  (37) 
-0.202437

>  <r_i_glide_metal>  (37) 
-0

>  <r_i_glide_rewards>  (37) 
0

>  <r_i_glide_evdw>  (37) 
-23.8766

>  <r_i_glide_ecoul>  (37) 
-5.23727

>  <r_i_glide_erotb>  (37) 
0

>  <r_i_glide_esite>  (37) 
-0.0601425

>  <r_i_glide_emodel>  (37) 
-35.5795

>  <r_i_glide_energy>  (37) 
-29.1138

>  <r_i_glide_einternal>  (37) 
0.0425901

>  <r_i_glide_intrahb_reward>  (37) 
-0

>  <i_i_glide_confnum>  (37) 
2

>  <i_i_glide_posenum>  (37) 
8

>  <r_i_glide_eff_state_penalty>  (37) 
0

>  <ligand_id>  (37) 
14

>  <original_smiles>  (37) 
CC1CCC2(C)CCC3(C)C(=CCC4C5C(C)C(C)CCC5(C(=O)O)C5C(C)C(O)CC5C43C)C2C1C

>  <smiles>  (37) 
[H]OC1([H])C([H])([H])C2([H])C([H])(C1([H])C([H])([H])[H])C1(C(=O)[O-])C([H])([H])C([H])([H])C([H])(C([H])([H])[H])C([H])(C([H])([H])[H])C1([H])C1([H])C([H])([H])C([H])=C3C4([H])C([H])(C([H])([H])[H])C([H])(C([H])([H])[H])C([H])([H])C([H])([H])C4(C([H])([H])[H])C([H])([H])C([H])([H])C3(C([H])([H])[H])C12C([H])([H])[H]

$$$$
14:0:1
     RDKit          3D

 90 95  0  0  1  0  0  0  0  0999 V2000
    1.2974   -7.1878    1.6523 C   0  0  0  0  0  0  0  0  0  0  0  0
    1.8807   -5.7666    1.8024 C   0  0  2  0  0  0  0  0  0  0  0  0
    2.6064   -5.3615    0.5054 C   0  0  0  0  0  0  0  0  0  0  0  0
    3.2998   -3.9940    0.6199 C   0  0  0  0  0  0  0  0  0  0  0  0
    4.3493   -3.9431    1.7622 C   0  0  1  0  0  0  0  0  0  0  0  0
    5.4782   -4.9708    1.4778 C   0  0  0  0  0  0  0  0  0  0  0  0
    5.0532   -2.5445    1.7736 C   0  0  0  0  0  0  0  0  0  0  0  0
    4.3850   -1.4052    2.5839 C   0  0  0  0  0  0  0  0  0  0  0  0
    3.8762   -1.8313    3.9959 C   0  0  2  0  0  0  0  0  0  0  0  0
    5.1121   -2.3517    4.7817 C   0  0  0  0  0  0  0  0  0  0  0  0
    2.9374   -2.9991    3.6517 C   0  0  0  0  0  0  0  0  0  0  0  0
    1.6114   -2.8226    3.6077 C   0  0  0  0  0  0  0  0  0  0  0  0
    0.8967   -1.5137    3.8103 C   0  0  0  0  0  0  0  0  0  0  0  0
    1.7767   -0.2814    4.1267 C   0  0  1  0  0  0  0  0  0  0  0  0
    0.9987    0.8910    4.8249 C   0  0  1  0  0  0  0  0  0  0  0  0
   -0.0391    1.6619    3.9356 C   0  0  1  0  0  0  0  0  0  0  0  0
   -1.3678    0.9634    3.5702 C   0  0  0  0  0  0  0  0  0  0  0  0
   -0.2862    3.0597    4.5559 C   0  0  1  0  0  0  0  0  0  0  0  0
   -1.1995    3.9704    3.7225 C   0  0  0  0  0  0  0  0  0  0  0  0
   -0.7867    2.9340    6.0014 C   0  0  0  0  0  0  0  0  0  0  0  0
    0.1827    2.1085    6.8787 C   0  0  0  0  0  0  0  0  0  0  0  0
    0.6215    0.6962    6.3347 C   0  0  1  0  0  0  0  0  0  0  0  0
   -0.5831   -0.2853    6.5514 C   0  0  0  0  0  0  0  0  0  0  0  0
   -0.3539   -1.4731    6.8693 O   0  0  0  0  0  0  0  0  0  0  0  0
   -1.7590    0.1430    6.4769 O   0  0  0  0  0  0  0  0  0  0  0  0
    1.8931    0.1227    7.1092 C   0  0  2  0  0  0  0  0  0  0  0  0
    2.8322    1.0930    7.9034 C   0  0  1  0  0  0  0  0  0  0  0  0
    2.3132    1.5018    9.3074 C   0  0  0  0  0  0  0  0  0  0  0  0
    4.2002    0.3871    7.9485 C   0  0  1  0  0  0  0  0  0  0  0  0
    4.7959    0.2797    9.2283 O   0  0  0  0  0  0  0  0  0  0  0  0
    3.9859   -1.0012    7.3603 C   0  0  0  0  0  0  0  0  0  0  0  0
    2.8129   -0.9114    6.3465 C   0  0  2  0  0  0  0  0  0  0  0  0
    3.1498   -0.6202    4.8100 C   0  0  1  0  0  0  0  0  0  0  0  0
    4.0668    0.6406    4.6977 C   0  0  0  0  0  0  0  0  0  0  0  0
    3.6290   -4.2775    3.1122 C   0  0  1  0  0  0  0  0  0  0  0  0
    2.8021   -5.6115    3.0468 C   0  0  1  0  0  0  0  0  0  0  0  0
    2.1014   -5.9575    4.3818 C   0  0  0  0  0  0  0  0  0  0  0  0
    2.0839   -7.9389    1.5804 H   0  0  0  0  0  0  0  0  0  0  0  0
    0.6878   -7.2718    0.7512 H   0  0  0  0  0  0  0  0  0  0  0  0
    0.6551   -7.4567    2.4918 H   0  0  0  0  0  0  0  0  0  0  0  0
    1.0248   -5.1127    1.9161 H   0  0  0  0  0  0  0  0  0  0  0  0
    3.3273   -6.1276    0.2214 H   0  0  0  0  0  0  0  0  0  0  0  0
    1.8907   -5.3265   -0.3171 H   0  0  0  0  0  0  0  0  0  0  0  0
    3.7594   -3.7436   -0.3374 H   0  0  0  0  0  0  0  0  0  0  0  0
    2.5401   -3.2297    0.7901 H   0  0  0  0  0  0  0  0  0  0  0  0
    6.2545   -4.9158    2.2457 H   0  0  0  0  0  0  0  0  0  0  0  0
    5.9533   -4.7764    0.5131 H   0  0  0  0  0  0  0  0  0  0  0  0
    5.1329   -6.0044    1.4649 H   0  0  0  0  0  0  0  0  0  0  0  0
    6.0816   -2.6475    2.1202 H   0  0  0  0  0  0  0  0  0  0  0  0
    5.1687   -2.1969    0.7474 H   0  0  0  0  0  0  0  0  0  0  0  0
    5.1145   -0.6018    2.6547 H   0  0  0  0  0  0  0  0  0  0  0  0
    3.5660   -1.0039    1.9929 H   0  0  0  0  0  0  0  0  0  0  0  0
    5.7807   -1.5528    5.0924 H   0  0  0  0  0  0  0  0  0  0  0  0
    5.7680   -3.0017    4.2097 H   0  0  0  0  0  0  0  0  0  0  0  0
    4.8137   -2.9477    5.6419 H   0  0  0  0  0  0  0  0  0  0  0  0
    0.9546   -3.6124    3.2996 H   0  0  0  0  0  0  0  0  0  0  0  0
    0.3911   -1.3296    2.8643 H   0  0  0  0  0  0  0  0  0  0  0  0
    0.1188   -1.7169    4.5302 H   0  0  0  0  0  0  0  0  0  0  0  0
    2.0346    0.1114    3.1446 H   0  0  0  0  0  0  0  0  0  0  0  0
    1.7578    1.6593    4.8917 H   0  0  0  0  0  0  0  0  0  0  0  0
    0.4620    1.8353    2.9808 H   0  0  0  0  0  0  0  0  0  0  0  0
   -2.1564    1.1399    4.2990 H   0  0  0  0  0  0  0  0  0  0  0  0
   -1.2822   -0.1120    3.4558 H   0  0  0  0  0  0  0  0  0  0  0  0
   -1.7489    1.3523    2.6255 H   0  0  0  0  0  0  0  0  0  0  0  0
    0.6757    3.5714    4.5972 H   0  0  0  0  0  0  0  0  0  0  0  0
   -2.2295    3.6105    3.6798 H   0  0  0  0  0  0  0  0  0  0  0  0
   -0.8344    4.0365    2.7014 H   0  0  0  0  0  0  0  0  0  0  0  0
   -1.2005    4.9780    4.1333 H   0  0  0  0  0  0  0  0  0  0  0  0
   -0.8859    3.9313    6.4325 H   0  0  0  0  0  0  0  0  0  0  0  0
   -1.7964    2.5261    6.0191 H   0  0  0  0  0  0  0  0  0  0  0  0
    1.0485    2.7524    7.0077 H   0  0  0  0  0  0  0  0  0  0  0  0
   -0.2736    2.0064    7.8625 H   0  0  0  0  0  0  0  0  0  0  0  0
    1.5035   -0.4649    7.9418 H   0  0  0  0  0  0  0  0  0  0  0  0
    2.9912    2.0082    7.3375 H   0  0  0  0  0  0  0  0  0  0  0  0
    2.1331    0.6393    9.9492 H   0  0  0  0  0  0  0  0  0  0  0  0
    1.3905    2.0727    9.2656 H   0  0  0  0  0  0  0  0  0  0  0  0
    3.0365    2.1400    9.8159 H   0  0  0  0  0  0  0  0  0  0  0  0
    4.8989    0.9345    7.3165 H   0  0  0  0  0  0  0  0  0  0  0  0
    5.6361   -0.1394    9.1285 H   0  0  0  0  0  0  0  0  0  0  0  0
    4.9381   -1.3688    7.0115 H   0  0  0  0  0  0  0  0  0  0  0  0
    3.6861   -1.6881    8.1528 H   0  0  0  0  0  0  0  0  0  0  0  0
    2.3007   -1.8768    6.3551 H   0  0  0  0  0  0  0  0  0  0  0  0
    3.7742    1.4531    5.3560 H   0  0  0  0  0  0  0  0  0  0  0  0
    4.0459    1.0634    3.6913 H   0  0  0  0  0  0  0  0  0  0  0  0
    5.1091    0.4381    4.9353 H   0  0  0  0  0  0  0  0  0  0  0  0
    4.3956   -4.5385    3.8331 H   0  0  0  0  0  0  0  0  0  0  0  0
    3.5472   -6.3981    2.9416 H   0  0  0  0  0  0  0  0  0  0  0  0
    1.1830   -5.3936    4.5413 H   0  0  0  0  0  0  0  0  0  0  0  0
    2.7617   -5.7669    5.2285 H   0  0  0  0  0  0  0  0  0  0  0  0
    1.8374   -7.0163    4.4218 H   0  0  0  0  0  0  0  0  0  0  0  0
  1  2  1  0
  1 38  1  0
  1 39  1  0
  1 40  1  0
  2 36  1  0
  2  3  1  0
  2 41  1  1
  3  4  1  0
  3 42  1  0
  3 43  1  0
  4  5  1  0
  4 44  1  0
  4 45  1  0
  5 35  1  0
  5  6  1  6
  5  7  1  0
  6 46  1  0
  6 47  1  0
  6 48  1  0
  7  8  1  0
  7 49  1  0
  7 50  1  0
  8  9  1  0
  8 51  1  0
  8 52  1  0
  9 33  1  0
  9 10  1  1
  9 11  1  0
 10 53  1  0
 10 54  1  0
 10 55  1  0
 11 12  2  0
 11 35  1  0
 12 13  1  0
 12 56  1  0
 13 14  1  0
 13 57  1  0
 13 58  1  0
 14 33  1  0
 14 15  1  0
 14 59  1  6
 15 22  1  0
 15 16  1  0
 15 60  1  1
 16 17  1  0
 16 18  1  0
 16 61  1  6
 17 62  1  0
 17 63  1  0
 17 64  1  0
 18 19  1  0
 18 20  1  0
 18 65  1  1
 19 66  1  0
 19 67  1  0
 19 68  1  0
 20 21  1  0
 20 69  1  0
 20 70  1  0
 21 22  1  0
 21 71  1  0
 21 72  1  0
 22 23  1  6
 22 26  1  0
 23 24  2  0
 23 25  1  0
 26 32  1  0
 26 27  1  0
 26 73  1  1
 27 28  1  0
 27 29  1  0
 27 74  1  6
 28 75  1  0
 28 76  1  0
 28 77  1  0
 29 30  1  0
 29 31  1  0
 29 78  1  6
 30 79  1  0
 31 32  1  0
 31 80  1  0
 31 81  1  0
 32 33  1  0
 32 82  1  6
 33 34  1  1
 34 83  1  0
 34 84  1  0
 34 85  1  0
 35 36  1  0
 35 86  1  1
 36 37  1  0
 36 87  1  6
 37 88  1  0
 37 89  1  0
 37 90  1  0
M  CHG  1  25  -1
M  END
>  <i_m_ct_stereo_status>  (38) 
1

>  <s_m_source_file>  (38) 
/var/tmp/pbs.5076255.sched01/tmpgq1_80gb/0xrgip9rw.sdf

>  <i_m_source_file_index>  (38) 
19

>  <i_lp_mmshare_version>  (38) 
48012

>  <i_f3d_flags>  (38) 
0

>  <s_epik_input>  (38) 
W0NIMl0xW0NIMl1bQ0BASF0oW0NIM10pW0NASF0oW0NIM10pW0NAQEhdKFtDQEBdMTJbQ0gzXSlDPTNbQ0BAXShbQ0gzXSkoW0NIMl1bQ0gyXTIpW0NAQF00KFtDSDNdKVtDQEBIXShbQ0gyXVtDSF0zKVtDQEBIXTVbQ0BdKEMoPU8pW09IXSkoW0NIMl1bQ0gyXVtDQEhdKFtDSDNdKVtDQEBIXTVbQ0gzXSlbQ0BIXTZbQ0BASF00W0NIMl1bQ0BIXShbT0hdKVtDQEBIXTZbQ0gzXQ==

>  <s_epik_cmdline>  (38) 
J2VwaWtfcHl0aG9uJywgJy1waHQnLCAnMi4wJywgJy1waCcsICc3LjAnLCAnLXRuJywgJzgnLCAnLW1hJywgJzIwMCcsICctaW1hZScsICc8aW5maWxlLm1hZT4nLCAnLW9tYWUnLCAnPG91dGZpbGUubWFlPic=

>  <r_epik_Ionization_Penalty>  (38) 
0.00942949

>  <r_epik_Ionization_Penalty_Charging>  (38) 
0.00942484

>  <r_epik_Ionization_Penalty_Neutral>  (38) 
4.644e-06

>  <r_epik_State_Penalty>  (38) 
0.00715652

>  <r_epik_Charging_Adjusted_Penalty>  (38) 
0.0165814

>  <i_epik_Tot_Q>  (38) 
-1

>  <i_epik_Tot_abs_Q>  (38) 
1

>  <s_lp_Force_Field>  (38) 
OPLS3e

>  <r_lp_Energy>  (38) 
113.872

>  <b_lp_Chiralities_Consistent>  (38) 
1

>  <s_lp_Variant>  (38) 
14:0-1

>  <s_i_glide_gridfile>  (38) 
pfpi4k_grid

>  <i_i_glide_lignum>  (38) 
19

>  <i_i_glide_rotatable_bonds>  (38) 
2

>  <r_i_docking_score>  (38) 
-2.38711

>  <r_i_glide_ligand_efficiency>  (38) 
-0.0645164

>  <r_i_glide_ligand_efficiency_sa>  (38) 
-0.214983

>  <r_i_glide_ligand_efficiency_ln>  (38) 
-0.517708

>  <r_i_glide_gscore>  (38) 
-2.38711

>  <r_i_glide_lipo>  (38) 
-0.214745

>  <r_i_glide_hbond>  (38) 
-0.2

>  <r_i_glide_metal>  (38) 
-0

>  <r_i_glide_rewards>  (38) 
0

>  <r_i_glide_evdw>  (38) 
-24.4869

>  <r_i_glide_ecoul>  (38) 
-4.57372

>  <r_i_glide_erotb>  (38) 
0

>  <r_i_glide_esite>  (38) 
-0.0619609

>  <r_i_glide_emodel>  (38) 
-35.0909

>  <r_i_glide_energy>  (38) 
-29.0606

>  <r_i_glide_einternal>  (38) 
0.642317

>  <r_i_glide_intrahb_reward>  (38) 
-0

>  <i_i_glide_confnum>  (38) 
2

>  <i_i_glide_posenum>  (38) 
36

>  <r_i_glide_eff_state_penalty>  (38) 
0

>  <ligand_id>  (38) 
14

>  <original_smiles>  (38) 
CC1CCC2(C)CCC3(C)C(=CCC4C5C(C)C(C)CCC5(C(=O)O)C5C(C)C(O)CC5C43C)C2C1C

>  <smiles>  (38) 
[H]OC1([H])C([H])([H])C2([H])C([H])(C1([H])C([H])([H])[H])C1(C(=O)[O-])C([H])([H])C([H])([H])C([H])(C([H])([H])[H])C([H])(C([H])([H])[H])C1([H])C1([H])C([H])([H])C([H])=C3C4([H])C([H])(C([H])([H])[H])C([H])(C([H])([H])[H])C([H])([H])C([H])([H])C4(C([H])([H])[H])C([H])([H])C([H])([H])C3(C([H])([H])[H])C12C([H])([H])[H]

$$$$
14:0:2
     RDKit          3D

 90 95  0  0  1  0  0  0  0  0999 V2000
   -1.2208   -8.5890    3.2985 C   0  0  0  0  0  0  0  0  0  0  0  0
   -0.2115   -7.4337    3.1271 C   0  0  2  0  0  0  0  0  0  0  0  0
    0.3716   -7.4614    1.7032 C   0  0  0  0  0  0  0  0  0  0  0  0
    1.4740   -6.4132    1.4957 C   0  0  0  0  0  0  0  0  0  0  0  0
    2.6663   -6.5789    2.4706 C   0  0  1  0  0  0  0  0  0  0  0  0
    3.3475   -7.9527    2.2323 C   0  0  0  0  0  0  0  0  0  0  0  0
    3.7601   -5.5068    2.1484 C   0  0  0  0  0  0  0  0  0  0  0  0
    3.6333   -4.1179    2.8238 C   0  0  0  0  0  0  0  0  0  0  0  0
    3.2786   -4.1660    4.3423 C   0  0  2  0  0  0  0  0  0  0  0  0
    4.4161   -4.9717    5.0383 C   0  0  0  0  0  0  0  0  0  0  0  0
    1.9774   -4.9862    4.3294 C   0  0  0  0  0  0  0  0  0  0  0  0
    0.7828   -4.3781    4.4313 C   0  0  0  0  0  0  0  0  0  0  0  0
    0.5607   -2.8931    4.4901 C   0  0  0  0  0  0  0  0  0  0  0  0
    1.8200   -1.9982    4.4587 C   0  0  1  0  0  0  0  0  0  0  0  0
    1.5722   -0.5560    5.0293 C   0  0  1  0  0  0  0  0  0  0  0  0
    0.6922    0.4022    4.1425 C   0  0  1  0  0  0  0  0  0  0  0  0
   -0.8379    0.1607    4.0430 C   0  0  0  0  0  0  0  0  0  0  0  0
    1.0124    1.8663    4.5361 C   0  0  1  0  0  0  0  0  0  0  0  0
    0.3155    2.9201    3.6605 C   0  0  0  0  0  0  0  0  0  0  0  0
    0.7547    2.0958    6.0361 C   0  0  0  0  0  0  0  0  0  0  0  0
    1.5522    1.1080    6.9208 C   0  0  0  0  0  0  0  0  0  0  0  0
    1.4314   -0.4250    6.5904 C   0  0  1  0  0  0  0  0  0  0  0  0
    0.0383   -0.9038    7.1258 C   0  0  0  0  0  0  0  0  0  0  0  0
   -0.9714   -0.1788    6.9692 O   0  0  0  0  0  0  0  0  0  0  0  0
   -0.0606   -2.0070    7.7126 O   0  0  0  0  0  0  0  0  0  0  0  0
    2.5797   -1.2892    7.2852 C   0  0  2  0  0  0  0  0  0  0  0  0
    3.8914   -0.5954    7.7770 C   0  0  1  0  0  0  0  0  0  0  0  0
    3.7751    0.1366    9.1388 C   0  0  0  0  0  0  0  0  0  0  0  0
    4.9561   -1.7076    7.7858 C   0  0  1  0  0  0  0  0  0  0  0  0
    5.7333   -1.8252    8.9652 O   0  0  0  0  0  0  0  0  0  0  0  0
    4.2217   -3.0072    7.4742 C   0  0  0  0  0  0  0  0  0  0  0  0
    2.9788   -2.6589    6.6088 C   0  0  2  0  0  0  0  0  0  0  0  0
    3.1179   -2.6896    5.0167 C   0  0  1  0  0  0  0  0  0  0  0  0
    4.3462   -1.8341    4.5718 C   0  0  0  0  0  0  0  0  0  0  0  0
    2.1217   -6.4769    3.9375 C   0  0  1  0  0  0  0  0  0  0  0  0
    0.9162   -7.4483    4.2065 C   0  0  1  0  0  0  0  0  0  0  0  0
    0.3890   -7.3744    5.6571 C   0  0  0  0  0  0  0  0  0  0  0  0
   -0.7310   -9.5632    3.2666 H   0  0  0  0  0  0  0  0  0  0  0  0
   -1.9721   -8.5764    2.5091 H   0  0  0  0  0  0  0  0  0  0  0  0
   -1.7580   -8.5253    4.2462 H   0  0  0  0  0  0  0  0  0  0  0  0
   -0.7951   -6.5220    3.2217 H   0  0  0  0  0  0  0  0  0  0  0  0
    0.7612   -8.4550    1.4883 H   0  0  0  0  0  0  0  0  0  0  0  0
   -0.4266   -7.3023    0.9795 H   0  0  0  0  0  0  0  0  0  0  0  0
    1.8173   -6.4490    0.4596 H   0  0  0  0  0  0  0  0  0  0  0  0
    1.0380   -5.4293    1.6419 H   0  0  0  0  0  0  0  0  0  0  0  0
    4.2212   -8.0655    2.8775 H   0  0  0  0  0  0  0  0  0  0  0  0
    3.6846   -8.0506    1.1975 H   0  0  0  0  0  0  0  0  0  0  0  0
    2.6987   -8.8032    2.4430 H   0  0  0  0  0  0  0  0  0  0  0  0
    4.7497   -5.9062    2.3798 H   0  0  0  0  0  0  0  0  0  0  0  0
    3.7987   -5.3496    1.0730 H   0  0  0  0  0  0  0  0  0  0  0  0
    4.5776   -3.6036    2.6612 H   0  0  0  0  0  0  0  0  0  0  0  0
    2.8899   -3.5386    2.2781 H   0  0  0  0  0  0  0  0  0  0  0  0
    5.3448   -4.4140    5.1199 H   0  0  0  0  0  0  0  0  0  0  0  0
    4.7186   -5.8733    4.5157 H   0  0  0  0  0  0  0  0  0  0  0  0
    4.0995   -5.3174    6.0210 H   0  0  0  0  0  0  0  0  0  0  0  0
   -0.1269   -4.9371    4.3508 H   0  0  0  0  0  0  0  0  0  0  0  0
   -0.0250   -2.6648    3.6016 H   0  0  0  0  0  0  0  0  0  0  0  0
   -0.0938   -2.7257    5.3346 H   0  0  0  0  0  0  0  0  0  0  0  0
    2.0093   -1.8429    3.3963 H   0  0  0  0  0  0  0  0  0  0  0  0
    2.5345   -0.0849    4.8670 H   0  0  0  0  0  0  0  0  0  0  0  0
    1.0585    0.2757    3.1245 H   0  0  0  0  0  0  0  0  0  0  0  0
   -1.4055    0.7161    4.7890 H   0  0  0  0  0  0  0  0  0  0  0  0
   -1.1247   -0.8819    4.1337 H   0  0  0  0  0  0  0  0  0  0  0  0
   -1.2159    0.5156    3.0839 H   0  0  0  0  0  0  0  0  0  0  0  0
    2.0813    2.0225    4.3758 H   0  0  0  0  0  0  0  0  0  0  0  0
   -0.7656    2.9247    3.8048 H   0  0  0  0  0  0  0  0  0  0  0  0
    0.5171    2.7389    2.6037 H   0  0  0  0  0  0  0  0  0  0  0  0
    0.6863    3.9200    3.8919 H   0  0  0  0  0  0  0  0  0  0  0  0
    1.0533    3.1142    6.2953 H   0  0  0  0  0  0  0  0  0  0  0  0
   -0.3112    2.0561    6.2516 H   0  0  0  0  0  0  0  0  0  0  0  0
    2.5836    1.4325    6.8293 H   0  0  0  0  0  0  0  0  0  0  0  0
    1.2635    1.2879    7.9537 H   0  0  0  0  0  0  0  0  0  0  0  0
    2.1818   -1.6021    8.2520 H   0  0  0  0  0  0  0  0  0  0  0  0
    4.2262    0.1320    7.0416 H   0  0  0  0  0  0  0  0  0  0  0  0
    3.4464   -0.5260    9.9400 H   0  0  0  0  0  0  0  0  0  0  0  0
    3.0863    0.9740    9.1085 H   0  0  0  0  0  0  0  0  0  0  0  0
    4.7390    0.5535    9.4330 H   0  0  0  0  0  0  0  0  0  0  0  0
    5.6601   -1.5131    6.9805 H   0  0  0  0  0  0  0  0  0  0  0  0
    5.1628   -2.0596    9.6817 H   0  0  0  0  0  0  0  0  0  0  0  0
    4.9351   -3.7107    7.0757 H   0  0  0  0  0  0  0  0  0  0  0  0
    3.8622   -3.4559    8.4014 H   0  0  0  0  0  0  0  0  0  0  0  0
    2.1974   -3.3843    6.8475 H   0  0  0  0  0  0  0  0  0  0  0  0
    4.4403   -0.8957    5.1076 H   0  0  0  0  0  0  0  0  0  0  0  0
    4.2837   -1.5606    3.5168 H   0  0  0  0  0  0  0  0  0  0  0  0
    5.2971   -2.3450    4.7112 H   0  0  0  0  0  0  0  0  0  0  0  0
    2.8818   -6.8900    4.5914 H   0  0  0  0  0  0  0  0  0  0  0  0
    1.3455   -8.4457    4.1469 H   0  0  0  0  0  0  0  0  0  0  0  0
   -0.2656   -6.5201    5.8302 H   0  0  0  0  0  0  0  0  0  0  0  0
    1.2132   -7.3130    6.3684 H   0  0  0  0  0  0  0  0  0  0  0  0
   -0.1795   -8.2703    5.9112 H   0  0  0  0  0  0  0  0  0  0  0  0
  1  2  1  0
  1 38  1  0
  1 39  1  0
  1 40  1  0
  2 36  1  0
  2  3  1  0
  2 41  1  6
  3  4  1  0
  3 42  1  0
  3 43  1  0
  4  5  1  0
  4 44  1  0
  4 45  1  0
  5 35  1  0
  5  6  1  1
  5  7  1  0
  6 46  1  0
  6 47  1  0
  6 48  1  0
  7  8  1  0
  7 49  1  0
  7 50  1  0
  8  9  1  0
  8 51  1  0
  8 52  1  0
  9 33  1  0
  9 10  1  1
  9 11  1  0
 10 53  1  0
 10 54  1  0
 10 55  1  0
 11 12  2  0
 11 35  1  0
 12 13  1  0
 12 56  1  0
 13 14  1  0
 13 57  1  0
 13 58  1  0
 14 33  1  0
 14 15  1  0
 14 59  1  6
 15 22  1  0
 15 16  1  0
 15 60  1  1
 16 17  1  0
 16 18  1  0
 16 61  1  6
 17 62  1  0
 17 63  1  0
 17 64  1  0
 18 19  1  0
 18 20  1  0
 18 65  1  1
 19 66  1  0
 19 67  1  0
 19 68  1  0
 20 21  1  0
 20 69  1  0
 20 70  1  0
 21 22  1  0
 21 71  1  0
 21 72  1  0
 22 23  1  1
 22 26  1  0
 23 24  2  0
 23 25  1  0
 26 32  1  0
 26 27  1  0
 26 73  1  1
 27 28  1  0
 27 29  1  0
 27 74  1  6
 28 75  1  0
 28 76  1  0
 28 77  1  0
 29 30  1  0
 29 31  1  0
 29 78  1  6
 30 79  1  0
 31 32  1  0
 31 80  1  0
 31 81  1  0
 32 33  1  0
 32 82  1  6
 33 34  1  1
 34 83  1  0
 34 84  1  0
 34 85  1  0
 35 36  1  0
 35 86  1  1
 36 37  1  0
 36 87  1  1
 37 88  1  0
 37 89  1  0
 37 90  1  0
M  CHG  1  25  -1
M  END
>  <i_m_ct_stereo_status>  (39) 
1

>  <s_m_source_file>  (39) 
/var/tmp/pbs.5076255.sched01/tmpgq1_80gb/0xrgip9rw.sdf

>  <i_m_source_file_index>  (39) 
19

>  <i_lp_mmshare_version>  (39) 
48012

>  <i_f3d_flags>  (39) 
0

>  <s_epik_input>  (39) 
W0NIMl0xW0NIMl1bQ0BASF0oW0NIM10pW0NASF0oW0NIM10pW0NAQEhdKFtDQEBdMTJbQ0gzXSlDPTNbQ0BAXShbQ0gzXSkoW0NIMl1bQ0gyXTIpW0NAQF00KFtDSDNdKVtDQEBIXShbQ0gyXVtDSF0zKVtDQEBIXTVbQ0BdKEMoPU8pW09IXSkoW0NIMl1bQ0gyXVtDQEhdKFtDSDNdKVtDQEBIXTVbQ0gzXSlbQ0BIXTZbQ0BASF00W0NIMl1bQ0BIXShbT0hdKVtDQEBIXTZbQ0gzXQ==

>  <s_epik_cmdline>  (39) 
J2VwaWtfcHl0aG9uJywgJy1waHQnLCAnMi4wJywgJy1waCcsICc3LjAnLCAnLXRuJywgJzgnLCAnLW1hJywgJzIwMCcsICctaW1hZScsICc8aW5maWxlLm1hZT4nLCAnLW9tYWUnLCAnPG91dGZpbGUubWFlPic=

>  <r_epik_Ionization_Penalty>  (39) 
0.00942949

>  <r_epik_Ionization_Penalty_Charging>  (39) 
0.00942484

>  <r_epik_Ionization_Penalty_Neutral>  (39) 
4.644e-06

>  <r_epik_State_Penalty>  (39) 
0.00715652

>  <r_epik_Charging_Adjusted_Penalty>  (39) 
0.0165814

>  <i_epik_Tot_Q>  (39) 
-1

>  <i_epik_Tot_abs_Q>  (39) 
1

>  <s_lp_Force_Field>  (39) 
OPLS3e

>  <r_lp_Energy>  (39) 
113.872

>  <b_lp_Chiralities_Consistent>  (39) 
1

>  <s_lp_Variant>  (39) 
14:0-1

>  <s_i_glide_gridfile>  (39) 
pfpi4k_grid

>  <i_i_glide_lignum>  (39) 
19

>  <i_i_glide_rotatable_bonds>  (39) 
2

>  <r_i_docking_score>  (39) 
-2.20753

>  <r_i_glide_ligand_efficiency>  (39) 
-0.0596629

>  <r_i_glide_ligand_efficiency_sa>  (39) 
-0.19881

>  <r_i_glide_ligand_efficiency_ln>  (39) 
-0.478761

>  <r_i_glide_gscore>  (39) 
-2.20753

>  <r_i_glide_lipo>  (39) 
-0.0463092

>  <r_i_glide_hbond>  (39) 
-0.199772

>  <r_i_glide_metal>  (39) 
-0

>  <r_i_glide_rewards>  (39) 
0

>  <r_i_glide_evdw>  (39) 
-25.07

>  <r_i_glide_ecoul>  (39) 
-4.41109

>  <r_i_glide_erotb>  (39) 
0

>  <r_i_glide_esite>  (39) 
-0.04628

>  <r_i_glide_emodel>  (39) 
-34.9611

>  <r_i_glide_energy>  (39) 
-29.4811

>  <r_i_glide_einternal>  (39) 
0.701805

>  <r_i_glide_intrahb_reward>  (39) 
-0

>  <i_i_glide_confnum>  (39) 
2

>  <i_i_glide_posenum>  (39) 
13

>  <r_i_glide_eff_state_penalty>  (39) 
0

>  <ligand_id>  (39) 
14

>  <original_smiles>  (39) 
CC1CCC2(C)CCC3(C)C(=CCC4C5C(C)C(C)CCC5(C(=O)O)C5C(C)C(O)CC5C43C)C2C1C

>  <smiles>  (39) 
[H]OC1([H])C([H])([H])C2([H])C([H])(C1([H])C([H])([H])[H])C1(C(=O)[O-])C([H])([H])C([H])([H])C([H])(C([H])([H])[H])C([H])(C([H])([H])[H])C1([H])C1([H])C([H])([H])C([H])=C3C4([H])C([H])(C([H])([H])[H])C([H])(C([H])([H])[H])C([H])([H])C([H])([H])C4(C([H])([H])[H])C([H])([H])C([H])([H])C3(C([H])([H])[H])C12C([H])([H])[H]

$$$$
14:1:0
     RDKit          3D

 91 96  0  0  1  0  0  0  0  0999 V2000
   -1.0453    1.7003    3.7491 C   0  0  0  0  0  0  0  0  0  0  0  0
   -0.0907    0.6619    4.3672 C   0  0  2  0  0  0  0  0  0  0  0  0
    0.1816    1.0206    5.8403 C   0  0  0  0  0  0  0  0  0  0  0  0
    1.2119    0.0833    6.4904 C   0  0  0  0  0  0  0  0  0  0  0  0
    2.5853    0.1009    5.7714 C   0  0  1  0  0  0  0  0  0  0  0  0
    3.2034    1.5185    5.8499 C   0  0  0  0  0  0  0  0  0  0  0  0
    3.5907   -0.8350    6.5304 C   0  0  0  0  0  0  0  0  0  0  0  0
    3.6298   -2.3336    6.1322 C   0  0  0  0  0  0  0  0  0  0  0  0
    3.6075   -2.5903    4.5997 C   0  0  2  0  0  0  0  0  0  0  0  0
    4.8574   -1.8682    4.0121 C   0  0  0  0  0  0  0  0  0  0  0  0
    2.3265   -1.8528    4.1842 C   0  0  0  0  0  0  0  0  0  0  0  0
    1.1825   -2.5305    4.0089 C   0  0  0  0  0  0  0  0  0  0  0  0
    0.9994   -3.9967    4.2446 C   0  0  0  0  0  0  0  0  0  0  0  0
    2.2463   -4.8299    4.6100 C   0  0  1  0  0  0  0  0  0  0  0  0
    2.1184   -6.3476    4.2195 C   0  0  1  0  0  0  0  0  0  0  0  0
    1.1223   -7.1989    5.0855 C   0  0  1  0  0  0  0  0  0  0  0  0
   -0.3975   -7.0004    4.8795 C   0  0  0  0  0  0  0  0  0  0  0  0
    1.4995   -8.6945    4.9664 C   0  0  1  0  0  0  0  0  0  0  0  0
    0.6727   -9.6301    5.8696 C   0  0  0  0  0  0  0  0  0  0  0  0
    1.4760   -9.1229    3.4891 C   0  0  0  0  0  0  0  0  0  0  0  0
    2.4437   -8.2791    2.6362 C   0  0  0  0  0  0  0  0  0  0  0  0
    2.2724   -6.7189    2.6924 C   0  0  1  0  0  0  0  0  0  0  0  0
    1.0281   -6.4141    1.7758 C   0  0  0  0  0  0  0  0  0  0  0  0
   -0.1319   -6.3433    2.1330 O   0  0  0  0  0  0  0  0  0  0  0  0
    1.3299   -6.2754    0.4536 O   0  0  0  0  0  0  0  0  0  0  0  0
    3.5606   -5.9530    2.1512 C   0  0  2  0  0  0  0  0  0  0  0  0
    4.9352   -6.6967    2.1057 C   0  0  1  0  0  0  0  0  0  0  0  0
    5.1060   -7.6575    0.8964 C   0  0  0  0  0  0  0  0  0  0  0  0
    5.9986   -5.5778    2.1200 C   0  0  1  0  0  0  0  0  0  0  0  0
    6.9723   -5.6429    1.0931 O   0  0  0  0  0  0  0  0  0  0  0  0
    5.2350   -4.2593    2.0397 C   0  0  0  0  0  0  0  0  0  0  0  0
    3.8223   -4.4853    2.6547 C   0  0  2  0  0  0  0  0  0  0  0  0
    3.6144   -4.1702    4.2035 C   0  0  1  0  0  0  0  0  0  0  0  0
    4.7416   -4.8659    5.0349 C   0  0  0  0  0  0  0  0  0  0  0  0
    2.3709   -0.3127    4.2756 C   0  0  1  0  0  0  0  0  0  0  0  0
    1.2415    0.5153    3.5685 C   0  0  1  0  0  0  0  0  0  0  0  0
    1.0328    0.1190    2.0895 C   0  0  0  0  0  0  0  0  0  0  0  0
   -0.5792    2.6834    3.6667 H   0  0  0  0  0  0  0  0  0  0  0  0
   -1.9487    1.8115    4.3513 H   0  0  0  0  0  0  0  0  0  0  0  0
   -1.3735    1.4081    2.7489 H   0  0  0  0  0  0  0  0  0  0  0  0
   -0.6366   -0.2768    4.3668 H   0  0  0  0  0  0  0  0  0  0  0  0
    0.5085    2.0547    5.9187 H   0  0  0  0  0  0  0  0  0  0  0  0
   -0.7495    0.9665    6.3991 H   0  0  0  0  0  0  0  0  0  0  0  0
    1.3316    0.3505    7.5425 H   0  0  0  0  0  0  0  0  0  0  0  0
    0.8129   -0.9282    6.4842 H   0  0  0  0  0  0  0  0  0  0  0  0
    4.1962    1.5384    5.3966 H   0  0  0  0  0  0  0  0  0  0  0  0
    3.3067    1.8445    6.8875 H   0  0  0  0  0  0  0  0  0  0  0  0
    2.6163    2.2761    5.3309 H   0  0  0  0  0  0  0  0  0  0  0  0
    4.6056   -0.4379    6.4480 H   0  0  0  0  0  0  0  0  0  0  0  0
    3.3850   -0.7850    7.5947 H   0  0  0  0  0  0  0  0  0  0  0  0
    4.5229   -2.7595    6.5879 H   0  0  0  0  0  0  0  0  0  0  0  0
    2.7900   -2.8374    6.6121 H   0  0  0  0  0  0  0  0  0  0  0  0
    5.7853   -2.3822    4.2579 H   0  0  0  0  0  0  0  0  0  0  0  0
    5.0293   -0.8663    4.3954 H   0  0  0  0  0  0  0  0  0  0  0  0
    4.7703   -1.7428    2.9346 H   0  0  0  0  0  0  0  0  0  0  0  0
    0.2662   -2.0194    3.7918 H   0  0  0  0  0  0  0  0  0  0  0  0
    0.2980   -4.0563    5.0783 H   0  0  0  0  0  0  0  0  0  0  0  0
    0.4988   -4.3477    3.3584 H   0  0  0  0  0  0  0  0  0  0  0  0
    2.2546   -4.8229    5.6992 H   0  0  0  0  0  0  0  0  0  0  0  0
    3.0424   -6.7521    4.6220 H   0  0  0  0  0  0  0  0  0  0  0  0
    1.3103   -6.9246    6.1240 H   0  0  0  0  0  0  0  0  0  0  0  0
   -0.8104   -7.5763    4.0569 H   0  0  0  0  0  0  0  0  0  0  0  0
   -0.7069   -5.9644    4.8091 H   0  0  0  0  0  0  0  0  0  0  0  0
   -0.9406   -7.4163    5.7075 H   0  0  0  0  0  0  0  0  0  0  0  0
    2.5243   -8.8073    5.3198 H   0  0  0  0  0  0  0  0  0  0  0  0
   -0.3643   -9.6990    5.5477 H   0  0  0  0  0  0  0  0  0  0  0  0
    0.6855   -9.2987    6.9089 H   0  0  0  0  0  0  0  0  0  0  0  0
    1.0839  -10.6430    5.8523 H   0  0  0  0  0  0  0  0  0  0  0  0
    1.7768  -10.1711    3.4277 H   0  0  0  0  0  0  0  0  0  0  0  0
    0.4672   -9.0841    3.0775 H   0  0  0  0  0  0  0  0  0  0  0  0
    3.4299   -8.5757    2.9792 H   0  0  0  0  0  0  0  0  0  0  0  0
    2.3590   -8.6383    1.6127 H   0  0  0  0  0  0  0  0  0  0  0  0
    2.2455   -6.3776    0.2630 H   0  0  0  0  0  0  0  0  0  0  0  0
    3.4460   -5.7659    1.0882 H   0  0  0  0  0  0  0  0  0  0  0  0
    5.1000   -7.2769    3.0119 H   0  0  0  0  0  0  0  0  0  0  0  0
    4.9832   -7.1412   -0.0566 H   0  0  0  0  0  0  0  0  0  0  0  0
    4.4192   -8.4986    0.9024 H   0  0  0  0  0  0  0  0  0  0  0  0
    6.1021   -8.1011    0.8984 H   0  0  0  0  0  0  0  0  0  0  0  0
    6.5417   -5.6103    3.0697 H   0  0  0  0  0  0  0  0  0  0  0  0
    7.5432   -6.3710    1.2726 H   0  0  0  0  0  0  0  0  0  0  0  0
    5.8599   -3.4861    2.4598 H   0  0  0  0  0  0  0  0  0  0  0  0
    5.1056   -3.9817    0.9883 H   0  0  0  0  0  0  0  0  0  0  0  0
    3.1283   -3.8322    2.1296 H   0  0  0  0  0  0  0  0  0  0  0  0
    4.9464   -5.8846    4.7247 H   0  0  0  0  0  0  0  0  0  0  0  0
    4.4773   -4.9358    6.0895 H   0  0  0  0  0  0  0  0  0  0  0  0
    5.7009   -4.3510    4.9832 H   0  0  0  0  0  0  0  0  0  0  0  0
    3.2479    0.0032    3.7152 H   0  0  0  0  0  0  0  0  0  0  0  0
    1.6368    1.5293    3.5002 H   0  0  0  0  0  0  0  0  0  0  0  0
    0.4545   -0.7939    1.9786 H   0  0  0  0  0  0  0  0  0  0  0  0
    1.9872   -0.0372    1.5842 H   0  0  0  0  0  0  0  0  0  0  0  0
    0.5103    0.8971    1.5339 H   0  0  0  0  0  0  0  0  0  0  0  0
  1  2  1  0
  1 38  1  0
  1 39  1  0
  1 40  1  0
  2 36  1  0
  2  3  1  0
  2 41  1  1
  3  4  1  0
  3 42  1  0
  3 43  1  0
  4  5  1  0
  4 44  1  0
  4 45  1  0
  5 35  1  0
  5  6  1  6
  5  7  1  0
  6 46  1  0
  6 47  1  0
  6 48  1  0
  7  8  1  0
  7 49  1  0
  7 50  1  0
  8  9  1  0
  8 51  1  0
  8 52  1  0
  9 33  1  0
  9 10  1  6
  9 11  1  0
 10 53  1  0
 10 54  1  0
 10 55  1  0
 11 12  2  0
 11 35  1  0
 12 13  1  0
 12 56  1  0
 13 14  1  0
 13 57  1  0
 13 58  1  0
 14 33  1  0
 14 15  1  0
 14 59  1  1
 15 22  1  0
 15 16  1  0
 15 60  1  1
 16 17  1  0
 16 18  1  0
 16 61  1  1
 17 62  1  0
 17 63  1  0
 17 64  1  0
 18 19  1  0
 18 20  1  0
 18 65  1  1
 19 66  1  0
 19 67  1  0
 19 68  1  0
 20 21  1  0
 20 69  1  0
 20 70  1  0
 21 22  1  0
 21 71  1  0
 21 72  1  0
 22 23  1  6
 22 26  1  0
 23 24  2  0
 23 25  1  0
 25 73  1  0
 26 32  1  0
 26 27  1  0
 26 74  1  6
 27 28  1  0
 27 29  1  0
 27 75  1  1
 28 76  1  0
 28 77  1  0
 28 78  1  0
 29 30  1  0
 29 31  1  0
 29 79  1  1
 30 80  1  0
 31 32  1  0
 31 81  1  0
 31 82  1  0
 32 33  1  0
 32 83  1  6
 33 34  1  1
 34 84  1  0
 34 85  1  0
 34 86  1  0
 35 36  1  0
 35 87  1  6
 36 37  1  0
 36 88  1  6
 37 89  1  0
 37 90  1  0
 37 91  1  0
M  END
>  <i_m_ct_stereo_status>  (40) 
1

>  <s_m_source_file>  (40) 
/var/tmp/pbs.5076255.sched01/tmpgq1_80gb/0xrgip9rw.sdf

>  <i_m_source_file_index>  (40) 
20

>  <i_lp_mmshare_version>  (40) 
48012

>  <i_f3d_flags>  (40) 
0

>  <s_epik_input>  (40) 
W0NIMl0xW0NIMl1bQ0BASF0oW0NIM10pW0NASF0oW0NIM10pW0NAQEhdKFtDQEBdMTJbQ0gzXSlDPTNbQ0BAXShbQ0gzXSkoW0NIMl1bQ0gyXTIpW0NAQF00KFtDSDNdKVtDQEBIXShbQ0gyXVtDSF0zKVtDQEBIXTVbQ0BdKEMoPU8pW09IXSkoW0NIMl1bQ0gyXVtDQEhdKFtDSDNdKVtDQEBIXTVbQ0gzXSlbQ0BIXTZbQ0BASF00W0NIMl1bQ0BIXShbT0hdKVtDQEBIXTZbQ0gzXQ==

>  <s_epik_cmdline>  (40) 
J2VwaWtfcHl0aG9uJywgJy1waHQnLCAnMi4wJywgJy1waCcsICc3LjAnLCAnLXRuJywgJzgnLCAnLW1hJywgJzIwMCcsICctaW1hZScsICc8aW5maWxlLm1hZT4nLCAnLW9tYWUnLCAnPG91dGZpbGUubWFlPic=

>  <r_epik_Ionization_Penalty>  (40) 
2.45818

>  <r_epik_Ionization_Penalty_Charging>  (40) 
0

>  <r_epik_Ionization_Penalty_Neutral>  (40) 
2.45818

>  <r_epik_State_Penalty>  (40) 
2.62017

>  <r_epik_Charging_Adjusted_Penalty>  (40) 
2.62017

>  <i_epik_Tot_Q>  (40) 
0

>  <i_epik_Tot_abs_Q>  (40) 
0

>  <s_lp_Force_Field>  (40) 
OPLS3e

>  <r_lp_Energy>  (40) 
118.665

>  <b_lp_Chiralities_Consistent>  (40) 
1

>  <s_lp_Variant>  (40) 
14:0-2

>  <s_i_glide_gridfile>  (40) 
pfpi4k_grid

>  <i_i_glide_lignum>  (40) 
20

>  <i_i_glide_rotatable_bonds>  (40) 
3

>  <r_i_docking_score>  (40) 
-2.69553

>  <r_i_glide_ligand_efficiency>  (40) 
-0.0728523

>  <r_i_glide_ligand_efficiency_sa>  (40) 
-0.24276

>  <r_i_glide_ligand_efficiency_ln>  (40) 
-0.584598

>  <r_i_glide_gscore>  (40) 
-2.69553

>  <r_i_glide_lipo>  (40) 
-0.225183

>  <r_i_glide_hbond>  (40) 
-0.229539

>  <r_i_glide_metal>  (40) 
-0

>  <r_i_glide_rewards>  (40) 
0

>  <r_i_glide_evdw>  (40) 
-28.257

>  <r_i_glide_ecoul>  (40) 
-5.56005

>  <r_i_glide_erotb>  (40) 
0.0785291

>  <r_i_glide_esite>  (40) 
-0.0724855

>  <r_i_glide_emodel>  (40) 
-37.5322

>  <r_i_glide_energy>  (40) 
-33.817

>  <r_i_glide_einternal>  (40) 
3.32427

>  <r_i_glide_intrahb_reward>  (40) 
-0

>  <i_i_glide_confnum>  (40) 
2

>  <i_i_glide_posenum>  (40) 
23

>  <r_i_glide_eff_state_penalty>  (40) 
0

>  <ligand_id>  (40) 
14

>  <original_smiles>  (40) 
CC1CCC2(C)CCC3(C)C(=CCC4C5C(C)C(C)CCC5(C(=O)O)C5C(C)C(O)CC5C43C)C2C1C

>  <smiles>  (40) 
[H]OC(=O)C12C([H])([H])C([H])([H])C([H])(C([H])([H])[H])C([H])(C([H])([H])[H])C1([H])C1([H])C([H])([H])C([H])=C3C4([H])C([H])(C([H])([H])[H])C([H])(C([H])([H])[H])C([H])([H])C([H])([H])C4(C([H])([H])[H])C([H])([H])C([H])([H])C3(C([H])([H])[H])C1(C([H])([H])[H])C1([H])C([H])([H])C([H])(O[H])C([H])(C([H])([H])[H])C12[H]

$$$$
14:1:1
     RDKit          3D

 91 96  0  0  1  0  0  0  0  0999 V2000
   -1.0423    1.3922    3.7626 C   0  0  0  0  0  0  0  0  0  0  0  0
   -0.0876    0.3523    4.3830 C   0  0  2  0  0  0  0  0  0  0  0  0
    0.1850    0.7073    5.8559 C   0  0  0  0  0  0  0  0  0  0  0  0
    1.2177   -0.2272    6.5067 C   0  0  0  0  0  0  0  0  0  0  0  0
    2.5933   -0.2081    5.7832 C   0  0  1  0  0  0  0  0  0  0  0  0
    3.2055    1.2119    5.8665 C   0  0  0  0  0  0  0  0  0  0  0  0
    3.5997   -1.1428    6.5375 C   0  0  0  0  0  0  0  0  0  0  0  0
    3.6337   -2.6413    6.1439 C   0  0  0  0  0  0  0  0  0  0  0  0
    3.6172   -2.8968    4.6059 C   0  0  2  0  0  0  0  0  0  0  0  0
    4.8646   -2.1733    4.0265 C   0  0  0  0  0  0  0  0  0  0  0  0
    2.3236   -2.1665    4.1901 C   0  0  0  0  0  0  0  0  0  0  0  0
    1.1870   -2.8466    4.0000 C   0  0  0  0  0  0  0  0  0  0  0  0
    1.0042   -4.3217    4.2305 C   0  0  0  0  0  0  0  0  0  0  0  0
    2.2575   -5.1364    4.6183 C   0  0  1  0  0  0  0  0  0  0  0  0
    2.1364   -6.6593    4.2384 C   0  0  1  0  0  0  0  0  0  0  0  0
    1.1249   -7.5065    5.0884 C   0  0  1  0  0  0  0  0  0  0  0  0
   -0.4003   -7.2990    4.8614 C   0  0  0  0  0  0  0  0  0  0  0  0
    1.5200   -8.9922    4.9754 C   0  0  1  0  0  0  0  0  0  0  0  0
    0.7037   -9.9159    5.8751 C   0  0  0  0  0  0  0  0  0  0  0  0
    1.5016   -9.4514    3.5091 C   0  0  0  0  0  0  0  0  0  0  0  0
    2.4576   -8.5957    2.6488 C   0  0  0  0  0  0  0  0  0  0  0  0
    2.3009   -7.0343    2.7107 C   0  0  1  0  0  0  0  0  0  0  0  0
    1.0841   -6.6853    1.7731 C   0  0  0  0  0  0  0  0  0  0  0  0
    1.1502   -5.8989    0.8012 O   0  0  0  0  0  0  0  0  0  0  0  0
   -0.0733   -7.3022    2.0673 O   0  0  0  0  0  0  0  0  0  0  0  0
    3.5804   -6.2690    2.1646 C   0  0  2  0  0  0  0  0  0  0  0  0
    4.9510   -6.9981    2.1059 C   0  0  1  0  0  0  0  0  0  0  0  0
    5.1223   -7.9584    0.9008 C   0  0  0  0  0  0  0  0  0  0  0  0
    6.0115   -5.8761    2.1194 C   0  0  1  0  0  0  0  0  0  0  0  0
    7.0181   -5.9345    1.1221 O   0  0  0  0  0  0  0  0  0  0  0  0
    5.2415   -4.5600    2.0411 C   0  0  0  0  0  0  0  0  0  0  0  0
    3.8315   -4.7971    2.6590 C   0  0  2  0  0  0  0  0  0  0  0  0
    3.6298   -4.4783    4.2075 C   0  0  1  0  0  0  0  0  0  0  0  0
    4.7540   -5.1692    5.0398 C   0  0  0  0  0  0  0  0  0  0  0  0
    2.3739   -0.6211    4.2892 C   0  0  1  0  0  0  0  0  0  0  0  0
    1.2471    0.2110    3.5805 C   0  0  1  0  0  0  0  0  0  0  0  0
    1.0482   -0.1823    2.1030 C   0  0  0  0  0  0  0  0  0  0  0  0
   -0.5762    2.3731    3.6850 H   0  0  0  0  0  0  0  0  0  0  0  0
   -1.9421    1.4984    4.3647 H   0  0  0  0  0  0  0  0  0  0  0  0
   -1.3681    1.1009    2.7645 H   0  0  0  0  0  0  0  0  0  0  0  0
   -0.6341   -0.5904    4.3773 H   0  0  0  0  0  0  0  0  0  0  0  0
    0.5103    1.7455    5.9317 H   0  0  0  0  0  0  0  0  0  0  0  0
   -0.7461    0.6517    6.4090 H   0  0  0  0  0  0  0  0  0  0  0  0
    1.3347    0.0397    7.5611 H   0  0  0  0  0  0  0  0  0  0  0  0
    0.8158   -1.2376    6.4942 H   0  0  0  0  0  0  0  0  0  0  0  0
    4.1945    1.2302    5.4143 H   0  0  0  0  0  0  0  0  0  0  0  0
    3.3058    1.5345    6.9033 H   0  0  0  0  0  0  0  0  0  0  0  0
    2.6166    1.9661    5.3484 H   0  0  0  0  0  0  0  0  0  0  0  0
    4.6140   -0.7378    6.4622 H   0  0  0  0  0  0  0  0  0  0  0  0
    3.3861   -1.0991    7.5986 H   0  0  0  0  0  0  0  0  0  0  0  0
    4.5267   -3.0651    6.5956 H   0  0  0  0  0  0  0  0  0  0  0  0
    2.7961   -3.1478    6.6258 H   0  0  0  0  0  0  0  0  0  0  0  0
    5.7944   -2.6797    4.2727 H   0  0  0  0  0  0  0  0  0  0  0  0
    5.0301   -1.1734    4.4097 H   0  0  0  0  0  0  0  0  0  0  0  0
    4.7774   -2.0446    2.9517 H   0  0  0  0  0  0  0  0  0  0  0  0
    0.2654   -2.3369    3.7912 H   0  0  0  0  0  0  0  0  0  0  0  0
    0.3154   -4.3675    5.0682 H   0  0  0  0  0  0  0  0  0  0  0  0
    0.4954   -4.7126    3.3624 H   0  0  0  0  0  0  0  0  0  0  0  0
    2.2564   -5.1220    5.7069 H   0  0  0  0  0  0  0  0  0  0  0  0
    3.0593   -7.0596    4.6445 H   0  0  0  0  0  0  0  0  0  0  0  0
    1.3229   -7.2369    6.1265 H   0  0  0  0  0  0  0  0  0  0  0  0
   -0.8453   -7.8819    4.0603 H   0  0  0  0  0  0  0  0  0  0  0  0
   -0.7180   -6.2609    4.8034 H   0  0  0  0  0  0  0  0  0  0  0  0
   -0.9467   -7.6992    5.6888 H   0  0  0  0  0  0  0  0  0  0  0  0
    2.5437   -9.1047    5.3261 H   0  0  0  0  0  0  0  0  0  0  0  0
   -0.3314   -9.9553    5.5500 H   0  0  0  0  0  0  0  0  0  0  0  0
    0.7228   -9.6047    6.9195 H   0  0  0  0  0  0  0  0  0  0  0  0
    1.1031  -10.9316    5.8222 H   0  0  0  0  0  0  0  0  0  0  0  0
    1.8333  -10.4905    3.4501 H   0  0  0  0  0  0  0  0  0  0  0  0
    0.4906   -9.4733    3.1095 H   0  0  0  0  0  0  0  0  0  0  0  0
    3.4515   -8.8826    2.9785 H   0  0  0  0  0  0  0  0  0  0  0  0
    2.3663   -8.9293    1.6201 H   0  0  0  0  0  0  0  0  0  0  0  0
    0.0565   -7.9094    2.8124 H   0  0  0  0  0  0  0  0  0  0  0  0
    3.4374   -6.1288    1.0983 H   0  0  0  0  0  0  0  0  0  0  0  0
    5.1197   -7.5781    3.0102 H   0  0  0  0  0  0  0  0  0  0  0  0
    5.0062   -7.4436   -0.0546 H   0  0  0  0  0  0  0  0  0  0  0  0
    4.4405   -8.8045    0.9099 H   0  0  0  0  0  0  0  0  0  0  0  0
    6.1252   -8.3922    0.8970 H   0  0  0  0  0  0  0  0  0  0  0  0
    6.5383   -5.9092    3.0742 H   0  0  0  0  0  0  0  0  0  0  0  0
    6.6055   -5.9129    0.2707 H   0  0  0  0  0  0  0  0  0  0  0  0
    5.8648   -3.7862    2.4718 H   0  0  0  0  0  0  0  0  0  0  0  0
    5.1083   -4.2726    0.9942 H   0  0  0  0  0  0  0  0  0  0  0  0
    3.1370   -4.1395    2.1340 H   0  0  0  0  0  0  0  0  0  0  0  0
    4.9598   -6.1855    4.7310 H   0  0  0  0  0  0  0  0  0  0  0  0
    4.4860   -5.2401    6.0949 H   0  0  0  0  0  0  0  0  0  0  0  0
    5.7067   -4.6514    4.9901 H   0  0  0  0  0  0  0  0  0  0  0  0
    3.2468   -0.3080    3.7375 H   0  0  0  0  0  0  0  0  0  0  0  0
    1.6427    1.2233    3.5199 H   0  0  0  0  0  0  0  0  0  0  0  0
    0.4800   -1.0990    1.9928 H   0  0  0  0  0  0  0  0  0  0  0  0
    2.0009   -0.3323    1.5980 H   0  0  0  0  0  0  0  0  0  0  0  0
    0.5182    0.5922    1.5483 H   0  0  0  0  0  0  0  0  0  0  0  0
  1  2  1  0
  1 38  1  0
  1 39  1  0
  1 40  1  0
  2 36  1  0
  2  3  1  0
  2 41  1  1
  3  4  1  0
  3 42  1  0
  3 43  1  0
  4  5  1  0
  4 44  1  0
  4 45  1  0
  5 35  1  0
  5  6  1  6
  5  7  1  0
  6 46  1  0
  6 47  1  0
  6 48  1  0
  7  8  1  0
  7 49  1  0
  7 50  1  0
  8  9  1  0
  8 51  1  0
  8 52  1  0
  9 33  1  0
  9 10  1  6
  9 11  1  0
 10 53  1  0
 10 54  1  0
 10 55  1  0
 11 12  2  0
 11 35  1  0
 12 13  1  0
 12 56  1  0
 13 14  1  0
 13 57  1  0
 13 58  1  0
 14 33  1  0
 14 15  1  0
 14 59  1  1
 15 22  1  0
 15 16  1  0
 15 60  1  1
 16 17  1  0
 16 18  1  0
 16 61  1  1
 17 62  1  0
 17 63  1  0
 17 64  1  0
 18 19  1  0
 18 20  1  0
 18 65  1  1
 19 66  1  0
 19 67  1  0
 19 68  1  0
 20 21  1  0
 20 69  1  0
 20 70  1  0
 21 22  1  0
 21 71  1  0
 21 72  1  0
 22 23  1  6
 22 26  1  0
 23 24  2  0
 23 25  1  0
 25 73  1  0
 26 32  1  0
 26 27  1  0
 26 74  1  6
 27 28  1  0
 27 29  1  0
 27 75  1  1
 28 76  1  0
 28 77  1  0
 28 78  1  0
 29 30  1  0
 29 31  1  0
 29 79  1  1
 30 80  1  0
 31 32  1  0
 31 81  1  0
 31 82  1  0
 32 33  1  0
 32 83  1  6
 33 34  1  1
 34 84  1  0
 34 85  1  0
 34 86  1  0
 35 36  1  0
 35 87  1  6
 36 37  1  0
 36 88  1  6
 37 89  1  0
 37 90  1  0
 37 91  1  0
M  END
>  <i_m_ct_stereo_status>  (41) 
1

>  <s_m_source_file>  (41) 
/var/tmp/pbs.5076255.sched01/tmpgq1_80gb/0xrgip9rw.sdf

>  <i_m_source_file_index>  (41) 
20

>  <i_lp_mmshare_version>  (41) 
48012

>  <i_f3d_flags>  (41) 
0

>  <s_epik_input>  (41) 
W0NIMl0xW0NIMl1bQ0BASF0oW0NIM10pW0NASF0oW0NIM10pW0NAQEhdKFtDQEBdMTJbQ0gzXSlDPTNbQ0BAXShbQ0gzXSkoW0NIMl1bQ0gyXTIpW0NAQF00KFtDSDNdKVtDQEBIXShbQ0gyXVtDSF0zKVtDQEBIXTVbQ0BdKEMoPU8pW09IXSkoW0NIMl1bQ0gyXVtDQEhdKFtDSDNdKVtDQEBIXTVbQ0gzXSlbQ0BIXTZbQ0BASF00W0NIMl1bQ0BIXShbT0hdKVtDQEBIXTZbQ0gzXQ==

>  <s_epik_cmdline>  (41) 
J2VwaWtfcHl0aG9uJywgJy1waHQnLCAnMi4wJywgJy1waCcsICc3LjAnLCAnLXRuJywgJzgnLCAnLW1hJywgJzIwMCcsICctaW1hZScsICc8aW5maWxlLm1hZT4nLCAnLW9tYWUnLCAnPG91dGZpbGUubWFlPic=

>  <r_epik_Ionization_Penalty>  (41) 
2.45818

>  <r_epik_Ionization_Penalty_Charging>  (41) 
0

>  <r_epik_Ionization_Penalty_Neutral>  (41) 
2.45818

>  <r_epik_State_Penalty>  (41) 
2.62017

>  <r_epik_Charging_Adjusted_Penalty>  (41) 
2.62017

>  <i_epik_Tot_Q>  (41) 
0

>  <i_epik_Tot_abs_Q>  (41) 
0

>  <s_lp_Force_Field>  (41) 
OPLS3e

>  <r_lp_Energy>  (41) 
118.665

>  <b_lp_Chiralities_Consistent>  (41) 
1

>  <s_lp_Variant>  (41) 
14:0-2

>  <s_i_glide_gridfile>  (41) 
pfpi4k_grid

>  <i_i_glide_lignum>  (41) 
20

>  <i_i_glide_rotatable_bonds>  (41) 
3

>  <r_i_docking_score>  (41) 
-2.40703

>  <r_i_glide_ligand_efficiency>  (41) 
-0.0650548

>  <r_i_glide_ligand_efficiency_sa>  (41) 
-0.216777

>  <r_i_glide_ligand_efficiency_ln>  (41) 
-0.522028

>  <r_i_glide_gscore>  (41) 
-2.40703

>  <r_i_glide_lipo>  (41) 
-0.206496

>  <r_i_glide_hbond>  (41) 
-0.16

>  <r_i_glide_metal>  (41) 
-0

>  <r_i_glide_rewards>  (41) 
0

>  <r_i_glide_evdw>  (41) 
-28.3682

>  <r_i_glide_ecoul>  (41) 
-4.25852

>  <r_i_glide_erotb>  (41) 
0.0785291

>  <r_i_glide_esite>  (41) 
-0.0618704

>  <r_i_glide_emodel>  (41) 
-35.8442

>  <r_i_glide_energy>  (41) 
-32.6267

>  <r_i_glide_einternal>  (41) 
3.06183

>  <r_i_glide_intrahb_reward>  (41) 
-0

>  <i_i_glide_confnum>  (41) 
2

>  <i_i_glide_posenum>  (41) 
1

>  <r_i_glide_eff_state_penalty>  (41) 
0

>  <ligand_id>  (41) 
14

>  <original_smiles>  (41) 
CC1CCC2(C)CCC3(C)C(=CCC4C5C(C)C(C)CCC5(C(=O)O)C5C(C)C(O)CC5C43C)C2C1C

>  <smiles>  (41) 
[H]OC(=O)C12C([H])([H])C([H])([H])C([H])(C([H])([H])[H])C([H])(C([H])([H])[H])C1([H])C1([H])C([H])([H])C([H])=C3C4([H])C([H])(C([H])([H])[H])C([H])(C([H])([H])[H])C([H])([H])C([H])([H])C4(C([H])([H])[H])C([H])([H])C([H])([H])C3(C([H])([H])[H])C1(C([H])([H])[H])C1([H])C([H])([H])C([H])(O[H])C([H])(C([H])([H])[H])C12[H]

$$$$
14:1:2
     RDKit          3D

 91 96  0  0  1  0  0  0  0  0999 V2000
    0.2521    1.1900    2.5666 C   0  0  0  0  0  0  0  0  0  0  0  0
    0.4621   -0.0444    3.4698 C   0  0  2  0  0  0  0  0  0  0  0  0
   -0.4810    0.0318    4.6829 C   0  0  0  0  0  0  0  0  0  0  0  0
   -0.2548   -1.1197    5.6747 C   0  0  0  0  0  0  0  0  0  0  0  0
    1.1919   -1.1594    6.2376 C   0  0  1  0  0  0  0  0  0  0  0  0
    1.4839    0.1392    7.0291 C   0  0  0  0  0  0  0  0  0  0  0  0
    1.3201   -2.3231    7.2823 C   0  0  0  0  0  0  0  0  0  0  0  0
    1.6994   -3.7357    6.7611 C   0  0  0  0  0  0  0  0  0  0  0  0
    2.8502   -3.7367    5.7147 C   0  0  2  0  0  0  0  0  0  0  0  0
    4.0897   -3.0963    6.4095 C   0  0  0  0  0  0  0  0  0  0  0  0
    2.2824   -2.7835    4.6508 C   0  0  0  0  0  0  0  0  0  0  0  0
    1.6693   -3.2633    3.5777 C   0  0  0  0  0  0  0  0  0  0  0  0
    1.4101   -4.7099    3.2980 C   0  0  0  0  0  0  0  0  0  0  0  0
    2.0172   -5.7537    4.2588 C   0  0  1  0  0  0  0  0  0  0  0  0
    2.2735   -7.1622    3.6086 C   0  0  1  0  0  0  0  0  0  0  0  0
    1.0006   -8.0078    3.2436 C   0  0  1  0  0  0  0  0  0  0  0  0
    0.1402   -7.5792    2.0314 C   0  0  0  0  0  0  0  0  0  0  0  0
    1.4006   -9.4996    3.1478 C   0  0  1  0  0  0  0  0  0  0  0  0
    0.2215  -10.4595    2.9340 C   0  0  0  0  0  0  0  0  0  0  0  0
    2.5117   -9.6885    2.1043 C   0  0  0  0  0  0  0  0  0  0  0  0
    3.7540   -8.8535    2.4557 C   0  0  0  0  0  0  0  0  0  0  0  0
    3.5317   -7.3111    2.6672 C   0  0  1  0  0  0  0  0  0  0  0  0
    3.3698   -6.7039    1.2263 C   0  0  0  0  0  0  0  0  0  0  0  0
    2.3651   -6.2623    0.7203 O   0  0  0  0  0  0  0  0  0  0  0  0
    4.5180   -6.8033    0.4756 O   0  0  0  0  0  0  0  0  0  0  0  0
    4.7734   -6.6299    3.3971 C   0  0  2  0  0  0  0  0  0  0  0  0
    5.7663   -7.5121    4.2392 C   0  0  1  0  0  0  0  0  0  0  0  0
    6.8295   -8.2918    3.4222 C   0  0  0  0  0  0  0  0  0  0  0  0
    6.4013   -6.5624    5.2727 C   0  0  1  0  0  0  0  0  0  0  0  0
    7.8172   -6.5831    5.3712 O   0  0  0  0  0  0  0  0  0  0  0  0
    5.8969   -5.1690    4.9256 C   0  0  0  0  0  0  0  0  0  0  0  0
    4.5136   -5.3120    4.2258 C   0  0  2  0  0  0  0  0  0  0  0  0
    3.2044   -5.2221    5.1373 C   0  0  1  0  0  0  0  0  0  0  0  0
    3.3529   -6.1790    6.3651 C   0  0  0  0  0  0  0  0  0  0  0  0
    2.1962   -1.2929    5.0450 C   0  0  1  0  0  0  0  0  0  0  0  0
    1.9468   -0.2323    3.9096 C   0  0  1  0  0  0  0  0  0  0  0  0
    2.9263   -0.3675    2.7210 C   0  0  0  0  0  0  0  0  0  0  0  0
    0.5795    2.1110    3.0510 H   0  0  0  0  0  0  0  0  0  0  0  0
   -0.8006    1.3151    2.3087 H   0  0  0  0  0  0  0  0  0  0  0  0
    0.7899    1.1017    1.6220 H   0  0  0  0  0  0  0  0  0  0  0  0
    0.1465   -0.8951    2.8746 H   0  0  0  0  0  0  0  0  0  0  0  0
   -0.3663    0.9914    5.1855 H   0  0  0  0  0  0  0  0  0  0  0  0
   -1.5139    0.0093    4.3377 H   0  0  0  0  0  0  0  0  0  0  0  0
   -0.9801   -1.0404    6.4861 H   0  0  0  0  0  0  0  0  0  0  0  0
   -0.4763   -2.0576    5.1675 H   0  0  0  0  0  0  0  0  0  0  0  0
    2.4791    0.1024    7.4748 H   0  0  0  0  0  0  0  0  0  0  0  0
    0.7654    0.2802    7.8390 H   0  0  0  0  0  0  0  0  0  0  0  0
    1.4606    1.0359    6.4122 H   0  0  0  0  0  0  0  0  0  0  0  0
    2.0382   -2.0481    8.0603 H   0  0  0  0  0  0  0  0  0  0  0  0
    0.3833   -2.4183    7.8238 H   0  0  0  0  0  0  0  0  0  0  0  0
    1.9638   -4.3347    7.6310 H   0  0  0  0  0  0  0  0  0  0  0  0
    0.8092   -4.2048    6.3424 H   0  0  0  0  0  0  0  0  0  0  0  0
    4.5467   -3.7473    7.1547 H   0  0  0  0  0  0  0  0  0  0  0  0
    3.8773   -2.1913    6.9764 H   0  0  0  0  0  0  0  0  0  0  0  0
    4.8359   -2.7894    5.6747 H   0  0  0  0  0  0  0  0  0  0  0  0
    1.2108   -2.6132    2.8580 H   0  0  0  0  0  0  0  0  0  0  0  0
    0.3241   -4.8215    3.3309 H   0  0  0  0  0  0  0  0  0  0  0  0
    1.7422   -4.7636    2.2872 H   0  0  0  0  0  0  0  0  0  0  0  0
    1.2180   -5.9407    4.9786 H   0  0  0  0  0  0  0  0  0  0  0  0
    2.6040   -7.7405    4.4648 H   0  0  0  0  0  0  0  0  0  0  0  0
    0.3329   -7.9313    4.1010 H   0  0  0  0  0  0  0  0  0  0  0  0
    0.5846   -7.8782    1.0850 H   0  0  0  0  0  0  0  0  0  0  0  0
   -0.0363   -6.5108    1.9875 H   0  0  0  0  0  0  0  0  0  0  0  0
   -0.8372   -8.0626    2.0526 H   0  0  0  0  0  0  0  0  0  0  0  0
    1.8172   -9.7929    4.1121 H   0  0  0  0  0  0  0  0  0  0  0  0
   -0.2318  -10.3545    1.9501 H   0  0  0  0  0  0  0  0  0  0  0  0
   -0.5576  -10.2951    3.6800 H   0  0  0  0  0  0  0  0  0  0  0  0
    0.5504  -11.4960    3.0272 H   0  0  0  0  0  0  0  0  0  0  0  0
    2.8023  -10.7409    2.0827 H   0  0  0  0  0  0  0  0  0  0  0  0
    2.1598   -9.4581    1.0989 H   0  0  0  0  0  0  0  0  0  0  0  0
    4.1615   -9.3164    3.3505 H   0  0  0  0  0  0  0  0  0  0  0  0
    4.4863   -9.0414    1.6714 H   0  0  0  0  0  0  0  0  0  0  0  0
    4.3125   -6.4768   -0.3813 H   0  0  0  0  0  0  0  0  0  0  0  0
    5.4367   -6.2713    2.6090 H   0  0  0  0  0  0  0  0  0  0  0  0
    5.2098   -8.2404    4.8270 H   0  0  0  0  0  0  0  0  0  0  0  0
    7.4520   -7.6339    2.8150 H   0  0  0  0  0  0  0  0  0  0  0  0
    6.3947   -9.0307    2.7565 H   0  0  0  0  0  0  0  0  0  0  0  0
    7.4930   -8.8499    4.0852 H   0  0  0  0  0  0  0  0  0  0  0  0
    6.0382   -6.8259    6.2656 H   0  0  0  0  0  0  0  0  0  0  0  0
    8.1997   -6.3741    4.5340 H   0  0  0  0  0  0  0  0  0  0  0  0
    5.9614   -4.5644    5.8195 H   0  0  0  0  0  0  0  0  0  0  0  0
    6.5834   -4.7092    4.2167 H   0  0  0  0  0  0  0  0  0  0  0  0
    4.4259   -4.4943    3.5107 H   0  0  0  0  0  0  0  0  0  0  0  0
    3.7554   -7.1555    6.1132 H   0  0  0  0  0  0  0  0  0  0  0  0
    2.3908   -6.3830    6.8342 H   0  0  0  0  0  0  0  0  0  0  0  0
    4.0040   -5.7908    7.1463 H   0  0  0  0  0  0  0  0  0  0  0  0
    3.1821   -1.0050    5.3945 H   0  0  0  0  0  0  0  0  0  0  0  0
    2.2248    0.7231    4.3575 H   0  0  0  0  0  0  0  0  0  0  0  0
    2.6527   -1.1634    2.0290 H   0  0  0  0  0  0  0  0  0  0  0  0
    3.9408   -0.5630    3.0694 H   0  0  0  0  0  0  0  0  0  0  0  0
    2.9707    0.5542    2.1393 H   0  0  0  0  0  0  0  0  0  0  0  0
  1  2  1  0
  1 38  1  0
  1 39  1  0
  1 40  1  0
  2 36  1  0
  2  3  1  0
  2 41  1  6
  3  4  1  0
  3 42  1  0
  3 43  1  0
  4  5  1  0
  4 44  1  0
  4 45  1  0
  5 35  1  0
  5  6  1  1
  5  7  1  0
  6 46  1  0
  6 47  1  0
  6 48  1  0
  7  8  1  0
  7 49  1  0
  7 50  1  0
  8  9  1  0
  8 51  1  0
  8 52  1  0
  9 33  1  0
  9 10  1  1
  9 11  1  0
 10 53  1  0
 10 54  1  0
 10 55  1  0
 11 12  2  0
 11 35  1  0
 12 13  1  0
 12 56  1  0
 13 14  1  0
 13 57  1  0
 13 58  1  0
 14 33  1  0
 14 15  1  0
 14 59  1  1
 15 22  1  0
 15 16  1  0
 15 60  1  1
 16 17  1  0
 16 18  1  0
 16 61  1  1
 17 62  1  0
 17 63  1  0
 17 64  1  0
 18 19  1  0
 18 20  1  0
 18 65  1  1
 19 66  1  0
 19 67  1  0
 19 68  1  0
 20 21  1  0
 20 69  1  0
 20 70  1  0
 21 22  1  0
 21 71  1  0
 21 72  1  0
 22 23  1  6
 22 26  1  0
 23 24  2  0
 23 25  1  0
 25 73  1  0
 26 32  1  0
 26 27  1  0
 26 74  1  6
 27 28  1  0
 27 29  1  0
 27 75  1  1
 28 76  1  0
 28 77  1  0
 28 78  1  0
 29 30  1  0
 29 31  1  0
 29 79  1  1
 30 80  1  0
 31 32  1  0
 31 81  1  0
 31 82  1  0
 32 33  1  0
 32 83  1  6
 33 34  1  1
 34 84  1  0
 34 85  1  0
 34 86  1  0
 35 36  1  0
 35 87  1  1
 36 37  1  0
 36 88  1  1
 37 89  1  0
 37 90  1  0
 37 91  1  0
M  END
>  <i_m_ct_stereo_status>  (42) 
1

>  <s_m_source_file>  (42) 
/var/tmp/pbs.5076255.sched01/tmpgq1_80gb/0xrgip9rw.sdf

>  <i_m_source_file_index>  (42) 
20

>  <i_lp_mmshare_version>  (42) 
48012

>  <i_f3d_flags>  (42) 
0

>  <s_epik_input>  (42) 
W0NIMl0xW0NIMl1bQ0BASF0oW0NIM10pW0NASF0oW0NIM10pW0NAQEhdKFtDQEBdMTJbQ0gzXSlDPTNbQ0BAXShbQ0gzXSkoW0NIMl1bQ0gyXTIpW0NAQF00KFtDSDNdKVtDQEBIXShbQ0gyXVtDSF0zKVtDQEBIXTVbQ0BdKEMoPU8pW09IXSkoW0NIMl1bQ0gyXVtDQEhdKFtDSDNdKVtDQEBIXTVbQ0gzXSlbQ0BIXTZbQ0BASF00W0NIMl1bQ0BIXShbT0hdKVtDQEBIXTZbQ0gzXQ==

>  <s_epik_cmdline>  (42) 
J2VwaWtfcHl0aG9uJywgJy1waHQnLCAnMi4wJywgJy1waCcsICc3LjAnLCAnLXRuJywgJzgnLCAnLW1hJywgJzIwMCcsICctaW1hZScsICc8aW5maWxlLm1hZT4nLCAnLW9tYWUnLCAnPG91dGZpbGUubWFlPic=

>  <r_epik_Ionization_Penalty>  (42) 
2.45818

>  <r_epik_Ionization_Penalty_Charging>  (42) 
0

>  <r_epik_Ionization_Penalty_Neutral>  (42) 
2.45818

>  <r_epik_State_Penalty>  (42) 
2.62017

>  <r_epik_Charging_Adjusted_Penalty>  (42) 
2.62017

>  <i_epik_Tot_Q>  (42) 
0

>  <i_epik_Tot_abs_Q>  (42) 
0

>  <s_lp_Force_Field>  (42) 
OPLS3e

>  <r_lp_Energy>  (42) 
118.665

>  <b_lp_Chiralities_Consistent>  (42) 
1

>  <s_lp_Variant>  (42) 
14:0-2

>  <s_i_glide_gridfile>  (42) 
pfpi4k_grid

>  <i_i_glide_lignum>  (42) 
20

>  <i_i_glide_rotatable_bonds>  (42) 
3

>  <r_i_docking_score>  (42) 
-1.95194

>  <r_i_glide_ligand_efficiency>  (42) 
-0.0527551

>  <r_i_glide_ligand_efficiency_sa>  (42) 
-0.175792

>  <r_i_glide_ligand_efficiency_ln>  (42) 
-0.42333

>  <r_i_glide_gscore>  (42) 
-1.95194

>  <r_i_glide_lipo>  (42) 
-0.104565

>  <r_i_glide_hbond>  (42) 
0

>  <r_i_glide_metal>  (42) 
-0

>  <r_i_glide_rewards>  (42) 
-0.0767803

>  <r_i_glide_evdw>  (42) 
-29.8695

>  <r_i_glide_ecoul>  (42) 
-2.37099

>  <r_i_glide_erotb>  (42) 
0.0785291

>  <r_i_glide_esite>  (42) 
0

>  <r_i_glide_emodel>  (42) 
-36.0152

>  <r_i_glide_energy>  (42) 
-32.2405

>  <r_i_glide_einternal>  (42) 
0.0165213

>  <r_i_glide_intrahb_reward>  (42) 
-0

>  <i_i_glide_confnum>  (42) 
3

>  <i_i_glide_posenum>  (42) 
20

>  <r_i_glide_eff_state_penalty>  (42) 
0

>  <ligand_id>  (42) 
14

>  <original_smiles>  (42) 
CC1CCC2(C)CCC3(C)C(=CCC4C5C(C)C(C)CCC5(C(=O)O)C5C(C)C(O)CC5C43C)C2C1C

>  <smiles>  (42) 
[H]OC(=O)C12C([H])([H])C([H])([H])C([H])(C([H])([H])[H])C([H])(C([H])([H])[H])C1([H])C1([H])C([H])([H])C([H])=C3C4([H])C([H])(C([H])([H])[H])C([H])(C([H])([H])[H])C([H])([H])C([H])([H])C4(C([H])([H])[H])C([H])([H])C([H])([H])C3(C([H])([H])[H])C1(C([H])([H])[H])C1([H])C([H])([H])C([H])(O[H])C([H])(C([H])([H])[H])C12[H]

$$$$
15:0:0
     RDKit          3D

 29 30  0  0  1  0  0  0  0  0999 V2000
    7.0793   -2.8957   -1.5038 C   0  0  0  0  0  0  0  0  0  0  0  0
    5.5598   -3.0726   -1.3219 C   0  0  1  0  0  0  0  0  0  0  0  0
    4.7945   -3.4998   -2.6133 C   0  0  0  0  0  0  0  0  0  0  0  0
    3.3325   -3.0617   -2.3216 C   0  0  0  0  0  0  0  0  0  0  0  0
    3.4519   -2.5248   -0.8752 C   0  0  1  0  0  0  0  0  0  0  0  0
    3.7022   -3.6989    0.1102 C   0  0  1  0  0  0  0  0  0  0  0  0
    2.8022   -4.7775   -0.0448 O   0  0  0  0  0  0  0  0  0  0  0  0
    5.1601   -4.1046   -0.2190 C   0  0  0  0  0  0  0  0  0  0  0  0
    4.8022   -1.7884   -0.8962 C   0  0  0  0  0  0  0  0  0  0  0  0
    5.2425   -1.1408    0.4639 C   0  0  0  0  0  0  0  0  0  0  0  0
    4.8499   -0.6621   -1.9483 C   0  0  0  0  0  0  0  0  0  0  0  0
    7.3070   -2.2131   -2.3112 H   0  0  0  0  0  0  0  0  0  0  0  0
    7.5784   -3.8239   -1.7643 H   0  0  0  0  0  0  0  0  0  0  0  0
    7.5615   -2.5325   -0.5942 H   0  0  0  0  0  0  0  0  0  0  0  0
    5.1852   -3.0275   -3.5086 H   0  0  0  0  0  0  0  0  0  0  0  0
    4.8805   -4.5787   -2.7906 H   0  0  0  0  0  0  0  0  0  0  0  0
    2.9886   -2.2972   -3.0071 H   0  0  0  0  0  0  0  0  0  0  0  0
    2.5920   -3.8527   -2.4368 H   0  0  0  0  0  0  0  0  0  0  0  0
    2.6184   -1.8942   -0.5713 H   0  0  0  0  0  0  0  0  0  0  0  0
    3.5982   -3.3425    1.1379 H   0  0  0  0  0  0  0  0  0  0  0  0
    2.9272   -5.1266   -0.9206 H   0  0  0  0  0  0  0  0  0  0  0  0
    5.2529   -5.1398   -0.5625 H   0  0  0  0  0  0  0  0  0  0  0  0
    5.7927   -4.0180    0.6634 H   0  0  0  0  0  0  0  0  0  0  0  0
    4.5697   -0.3304    0.7733 H   0  0  0  0  0  0  0  0  0  0  0  0
    6.2320   -0.6686    0.3927 H   0  0  0  0  0  0  0  0  0  0  0  0
    5.3130   -1.8088    1.3246 H   0  0  0  0  0  0  0  0  0  0  0  0
    4.2043    0.1459   -1.6532 H   0  0  0  0  0  0  0  0  0  0  0  0
    4.6192   -0.8807   -2.9937 H   0  0  0  0  0  0  0  0  0  0  0  0
    5.8233   -0.2105   -1.9579 H   0  0  0  0  0  0  0  0  0  0  0  0
  2  1  1  6
  1 12  1  0
  1 13  1  0
  1 14  1  0
  2  8  1  0
  2  9  1  0
  2  3  1  0
  3  4  1  0
  3 15  1  0
  3 16  1  0
  4  5  1  0
  4 17  1  0
  4 18  1  0
  5  6  1  0
  5  9  1  0
  5 19  1  1
  6  7  1  0
  6  8  1  0
  6 20  1  1
  7 21  1  0
  8 22  1  0
  8 23  1  0
  9 10  1  0
  9 11  1  0
 10 24  1  0
 10 25  1  0
 10 26  1  0
 11 27  1  0
 11 28  1  0
 11 29  1  0
M  END
>  <i_m_ct_stereo_status>  (43) 
1

>  <s_m_source_file>  (43) 
/var/tmp/pbs.5076255.sched01/tmpgq1_80gb/0xrgip9rw.sdf

>  <i_m_source_file_index>  (43) 
21

>  <i_lp_mmshare_version>  (43) 
48012

>  <i_f3d_flags>  (43) 
0

>  <s_epik_input>  (43) 
W0NIM11bQ0BAXTEyW0NIMl1bQ0gyXVtDQEBIXShbQ0BASF0oW09IXSlbQ0gyXTEpQzIoW0NIM10pW0NIM10=

>  <s_epik_cmdline>  (43) 
J2VwaWtfcHl0aG9uJywgJy1waHQnLCAnMi4wJywgJy1waCcsICc3LjAnLCAnLXRuJywgJzgnLCAnLW1hJywgJzIwMCcsICctaW1hZScsICc8aW5maWxlLm1hZT4nLCAnLW9tYWUnLCAnPG91dGZpbGUubWFlPic=

>  <r_lp_tautomer_probability>  (43) 
1

>  <r_epik_Ionization_Penalty>  (43) 
1.43016e-06

>  <r_epik_Ionization_Penalty_Charging>  (43) 
0

>  <r_epik_Ionization_Penalty_Neutral>  (43) 
1.43016e-06

>  <r_epik_State_Penalty>  (43) 
-0

>  <r_epik_Charging_Adjusted_Penalty>  (43) 
0

>  <i_epik_Tot_Q>  (43) 
0

>  <i_epik_Tot_abs_Q>  (43) 
0

>  <s_lp_Force_Field>  (43) 
OPLS3e

>  <r_lp_Energy>  (43) 
38.0363

>  <b_lp_Chiralities_Consistent>  (43) 
1

>  <s_lp_Variant>  (43) 
15:0-1

>  <s_i_glide_gridfile>  (43) 
pfpi4k_grid

>  <i_i_glide_lignum>  (43) 
21

>  <i_i_glide_rotatable_bonds>  (43) 
1

>  <r_i_docking_score>  (43) 
-4.09629

>  <r_i_glide_ligand_efficiency>  (43) 
-0.37239

>  <r_i_glide_ligand_efficiency_sa>  (43) 
-0.828187

>  <r_i_glide_ligand_efficiency_ln>  (43) 
-1.20554

>  <r_i_glide_gscore>  (43) 
-4.09629

>  <r_i_glide_lipo>  (43) 
-0.269827

>  <r_i_glide_hbond>  (43) 
-0.32

>  <r_i_glide_metal>  (43) 
-0

>  <r_i_glide_rewards>  (43) 
-2.25

>  <r_i_glide_evdw>  (43) 
-15.0905

>  <r_i_glide_ecoul>  (43) 
-3.34624

>  <r_i_glide_erotb>  (43) 
0

>  <r_i_glide_esite>  (43) 
0

>  <r_i_glide_emodel>  (43) 
-22.8304

>  <r_i_glide_energy>  (43) 
-18.4367

>  <r_i_glide_einternal>  (43) 
0.0483264

>  <r_i_glide_intrahb_reward>  (43) 
-0

>  <i_i_glide_confnum>  (43) 
2

>  <i_i_glide_posenum>  (43) 
10

>  <r_i_glide_eff_state_penalty>  (43) 
0

>  <ligand_id>  (43) 
15

>  <original_smiles>  (43) 
CC12CCC(C(O)C1)C2(C)C

>  <smiles>  (43) 
[H]OC1([H])C([H])([H])C2(C([H])([H])[H])C([H])([H])C([H])([H])C1([H])C2(C([H])([H])[H])C([H])([H])[H]

$$$$
15:0:1
     RDKit          3D

 29 30  0  0  1  0  0  0  0  0999 V2000
    6.4547   -3.1600   -0.9052 C   0  0  0  0  0  0  0  0  0  0  0  0
    4.9877   -3.2077   -1.3657 C   0  0  1  0  0  0  0  0  0  0  0  0
    4.8141   -3.8432   -2.7710 C   0  0  0  0  0  0  0  0  0  0  0  0
    3.4070   -3.3809   -3.1946 C   0  0  0  0  0  0  0  0  0  0  0  0
    2.9700   -2.5517   -1.9683 C   0  0  1  0  0  0  0  0  0  0  0  0
    2.6575   -3.4910   -0.7785 C   0  0  1  0  0  0  0  0  0  0  0  0
    1.7328   -4.5320   -0.9969 O   0  0  0  0  0  0  0  0  0  0  0  0
    4.0646   -3.9975   -0.3892 C   0  0  0  0  0  0  0  0  0  0  0  0
    4.2586   -1.8608   -1.5009 C   0  0  0  0  0  0  0  0  0  0  0  0
    4.1660   -1.0637   -0.1809 C   0  0  0  0  0  0  0  0  0  0  0  0
    4.8189   -0.8866   -2.5479 C   0  0  0  0  0  0  0  0  0  0  0  0
    7.0819   -2.6640   -1.6605 H   0  0  0  0  0  0  0  0  0  0  0  0
    6.8715   -4.1525   -0.7221 H   0  0  0  0  0  0  0  0  0  0  0  0
    6.5619   -2.5925    0.0303 H   0  0  0  0  0  0  0  0  0  0  0  0
    5.5606   -3.5202   -3.4901 H   0  0  0  0  0  0  0  0  0  0  0  0
    4.8930   -4.9223   -2.7109 H   0  0  0  0  0  0  0  0  0  0  0  0
    3.4523   -2.7511   -4.0815 H   0  0  0  0  0  0  0  0  0  0  0  0
    2.7185   -4.1907   -3.4520 H   0  0  0  0  0  0  0  0  0  0  0  0
    2.1706   -1.8668   -2.2297 H   0  0  0  0  0  0  0  0  0  0  0  0
    2.2680   -2.9062    0.0606 H   0  0  0  0  0  0  0  0  0  0  0  0
    2.0874   -5.1189   -1.6557 H   0  0  0  0  0  0  0  0  0  0  0  0
    4.1648   -5.0866   -0.5172 H   0  0  0  0  0  0  0  0  0  0  0  0
    4.2793   -3.7923    0.6531 H   0  0  0  0  0  0  0  0  0  0  0  0
    3.4361   -0.2668   -0.3143 H   0  0  0  0  0  0  0  0  0  0  0  0
    5.0867   -0.5491    0.0595 H   0  0  0  0  0  0  0  0  0  0  0  0
    3.8769   -1.6175    0.7055 H   0  0  0  0  0  0  0  0  0  0  0  0
    4.1536   -0.0400   -2.6787 H   0  0  0  0  0  0  0  0  0  0  0  0
    5.0041   -1.3144   -3.5294 H   0  0  0  0  0  0  0  0  0  0  0  0
    5.7616   -0.4605   -2.2327 H   0  0  0  0  0  0  0  0  0  0  0  0
  2  1  1  1
  1 12  1  0
  1 13  1  0
  1 14  1  0
  2  8  1  0
  2  9  1  0
  2  3  1  0
  3  4  1  0
  3 15  1  0
  3 16  1  0
  4  5  1  0
  4 17  1  0
  4 18  1  0
  5  6  1  0
  5  9  1  0
  5 19  1  6
  6  7  1  0
  6  8  1  0
  6 20  1  1
  7 21  1  0
  8 22  1  0
  8 23  1  0
  9 10  1  0
  9 11  1  0
 10 24  1  0
 10 25  1  0
 10 26  1  0
 11 27  1  0
 11 28  1  0
 11 29  1  0
M  END
>  <i_m_ct_stereo_status>  (44) 
1

>  <s_m_source_file>  (44) 
/var/tmp/pbs.5076255.sched01/tmpgq1_80gb/0xrgip9rw.sdf

>  <i_m_source_file_index>  (44) 
21

>  <i_lp_mmshare_version>  (44) 
48012

>  <i_f3d_flags>  (44) 
0

>  <s_epik_input>  (44) 
W0NIM11bQ0BAXTEyW0NIMl1bQ0gyXVtDQEBIXShbQ0BASF0oW09IXSlbQ0gyXTEpQzIoW0NIM10pW0NIM10=

>  <s_epik_cmdline>  (44) 
J2VwaWtfcHl0aG9uJywgJy1waHQnLCAnMi4wJywgJy1waCcsICc3LjAnLCAnLXRuJywgJzgnLCAnLW1hJywgJzIwMCcsICctaW1hZScsICc8aW5maWxlLm1hZT4nLCAnLW9tYWUnLCAnPG91dGZpbGUubWFlPic=

>  <r_lp_tautomer_probability>  (44) 
1

>  <r_epik_Ionization_Penalty>  (44) 
1.43016e-06

>  <r_epik_Ionization_Penalty_Charging>  (44) 
0

>  <r_epik_Ionization_Penalty_Neutral>  (44) 
1.43016e-06

>  <r_epik_State_Penalty>  (44) 
-0

>  <r_epik_Charging_Adjusted_Penalty>  (44) 
0

>  <i_epik_Tot_Q>  (44) 
0

>  <i_epik_Tot_abs_Q>  (44) 
0

>  <s_lp_Force_Field>  (44) 
OPLS3e

>  <r_lp_Energy>  (44) 
38.0363

>  <b_lp_Chiralities_Consistent>  (44) 
1

>  <s_lp_Variant>  (44) 
15:0-1

>  <s_i_glide_gridfile>  (44) 
pfpi4k_grid

>  <i_i_glide_lignum>  (44) 
21

>  <i_i_glide_rotatable_bonds>  (44) 
1

>  <r_i_docking_score>  (44) 
-4.07357

>  <r_i_glide_ligand_efficiency>  (44) 
-0.370325

>  <r_i_glide_ligand_efficiency_sa>  (44) 
-0.823595

>  <r_i_glide_ligand_efficiency_ln>  (44) 
-1.19885

>  <r_i_glide_gscore>  (44) 
-4.07357

>  <r_i_glide_lipo>  (44) 
-0.194774

>  <r_i_glide_hbond>  (44) 
-0.32

>  <r_i_glide_metal>  (44) 
-0

>  <r_i_glide_rewards>  (44) 
-2.25

>  <r_i_glide_evdw>  (44) 
-8.51543

>  <r_i_glide_ecoul>  (44) 
-5.88685

>  <r_i_glide_erotb>  (44) 
0

>  <r_i_glide_esite>  (44) 
0

>  <r_i_glide_emodel>  (44) 
-18.78

>  <r_i_glide_energy>  (44) 
-14.4023

>  <r_i_glide_einternal>  (44) 
0.046537

>  <r_i_glide_intrahb_reward>  (44) 
-0

>  <i_i_glide_confnum>  (44) 
1

>  <i_i_glide_posenum>  (44) 
15

>  <r_i_glide_eff_state_penalty>  (44) 
0

>  <ligand_id>  (44) 
15

>  <original_smiles>  (44) 
CC12CCC(C(O)C1)C2(C)C

>  <smiles>  (44) 
[H]OC1([H])C([H])([H])C2(C([H])([H])[H])C([H])([H])C([H])([H])C1([H])C2(C([H])([H])[H])C([H])([H])[H]

$$$$
15:0:2
     RDKit          3D

 29 30  0  0  1  0  0  0  0  0999 V2000
    4.7666   -4.2139   -3.5624 C   0  0  0  0  0  0  0  0  0  0  0  0
    4.4987   -2.8507   -2.9299 C   0  0  1  0  0  0  0  0  0  0  0  0
    5.6675   -2.3567   -2.0333 C   0  0  0  0  0  0  0  0  0  0  0  0
    5.0139   -1.2333   -1.2120 C   0  0  0  0  0  0  0  0  0  0  0  0
    3.5654   -1.2500   -1.7479 C   0  0  1  0  0  0  0  0  0  0  0  0
    3.5273   -0.6663   -3.1929 C   0  0  1  0  0  0  0  0  0  0  0  0
    4.2063    0.5416   -3.4131 O   0  0  0  0  0  0  0  0  0  0  0  0
    4.1711   -1.7751   -3.9960 C   0  0  0  0  0  0  0  0  0  0  0  0
    3.2824   -2.7567   -1.9795 C   0  0  0  0  0  0  0  0  0  0  0  0
    1.9122   -3.0747   -2.6414 C   0  0  0  0  0  0  0  0  0  0  0  0
    3.3598   -3.6226   -0.6900 C   0  0  0  0  0  0  0  0  0  0  0  0
    5.0182   -4.9391   -2.7907 H   0  0  0  0  0  0  0  0  0  0  0  0
    5.5950   -4.1686   -4.2733 H   0  0  0  0  0  0  0  0  0  0  0  0
    3.9007   -4.5934   -4.1026 H   0  0  0  0  0  0  0  0  0  0  0  0
    6.0761   -3.1360   -1.3914 H   0  0  0  0  0  0  0  0  0  0  0  0
    6.5092   -2.0094   -2.6206 H   0  0  0  0  0  0  0  0  0  0  0  0
    5.0224   -1.4412   -0.1426 H   0  0  0  0  0  0  0  0  0  0  0  0
    5.4929   -0.2605   -1.3345 H   0  0  0  0  0  0  0  0  0  0  0  0
    2.8873   -0.7552   -1.0552 H   0  0  0  0  0  0  0  0  0  0  0  0
    2.5024   -0.5055   -3.5224 H   0  0  0  0  0  0  0  0  0  0  0  0
    3.6235    1.2385   -3.1322 H   0  0  0  0  0  0  0  0  0  0  0  0
    5.0163   -1.3880   -4.5408 H   0  0  0  0  0  0  0  0  0  0  0  0
    3.4932   -2.1456   -4.7609 H   0  0  0  0  0  0  0  0  0  0  0  0
    1.0804   -2.8594   -1.9671 H   0  0  0  0  0  0  0  0  0  0  0  0
    1.8153   -4.1522   -2.8294 H   0  0  0  0  0  0  0  0  0  0  0  0
    1.6807   -2.6059   -3.5988 H   0  0  0  0  0  0  0  0  0  0  0  0
    2.5532   -3.3795    0.0088 H   0  0  0  0  0  0  0  0  0  0  0  0
    4.2855   -3.5718   -0.1182 H   0  0  0  0  0  0  0  0  0  0  0  0
    3.2414   -4.6811   -0.9302 H   0  0  0  0  0  0  0  0  0  0  0  0
  2  1  1  6
  1 12  1  0
  1 13  1  0
  1 14  1  0
  2  8  1  0
  2  9  1  0
  2  3  1  0
  3  4  1  0
  3 15  1  0
  3 16  1  0
  4  5  1  0
  4 17  1  0
  4 18  1  0
  5  6  1  0
  5  9  1  0
  5 19  1  1
  6  7  1  0
  6  8  1  0
  6 20  1  6
  7 21  1  0
  8 22  1  0
  8 23  1  0
  9 10  1  0
  9 11  1  0
 10 24  1  0
 10 25  1  0
 10 26  1  0
 11 27  1  0
 11 28  1  0
 11 29  1  0
M  END
>  <i_m_ct_stereo_status>  (45) 
1

>  <s_m_source_file>  (45) 
/var/tmp/pbs.5076255.sched01/tmpgq1_80gb/0xrgip9rw.sdf

>  <i_m_source_file_index>  (45) 
21

>  <i_lp_mmshare_version>  (45) 
48012

>  <i_f3d_flags>  (45) 
0

>  <s_epik_input>  (45) 
W0NIM11bQ0BAXTEyW0NIMl1bQ0gyXVtDQEBIXShbQ0BASF0oW09IXSlbQ0gyXTEpQzIoW0NIM10pW0NIM10=

>  <s_epik_cmdline>  (45) 
J2VwaWtfcHl0aG9uJywgJy1waHQnLCAnMi4wJywgJy1waCcsICc3LjAnLCAnLXRuJywgJzgnLCAnLW1hJywgJzIwMCcsICctaW1hZScsICc8aW5maWxlLm1hZT4nLCAnLW9tYWUnLCAnPG91dGZpbGUubWFlPic=

>  <r_lp_tautomer_probability>  (45) 
1

>  <r_epik_Ionization_Penalty>  (45) 
1.43016e-06

>  <r_epik_Ionization_Penalty_Charging>  (45) 
0

>  <r_epik_Ionization_Penalty_Neutral>  (45) 
1.43016e-06

>  <r_epik_State_Penalty>  (45) 
-0

>  <r_epik_Charging_Adjusted_Penalty>  (45) 
0

>  <i_epik_Tot_Q>  (45) 
0

>  <i_epik_Tot_abs_Q>  (45) 
0

>  <s_lp_Force_Field>  (45) 
OPLS3e

>  <r_lp_Energy>  (45) 
38.0363

>  <b_lp_Chiralities_Consistent>  (45) 
1

>  <s_lp_Variant>  (45) 
15:0-1

>  <s_i_glide_gridfile>  (45) 
pfpi4k_grid

>  <i_i_glide_lignum>  (45) 
21

>  <i_i_glide_rotatable_bonds>  (45) 
1

>  <r_i_docking_score>  (45) 
-3.95448

>  <r_i_glide_ligand_efficiency>  (45) 
-0.359498

>  <r_i_glide_ligand_efficiency_sa>  (45) 
-0.799516

>  <r_i_glide_ligand_efficiency_ln>  (45) 
-1.1638

>  <r_i_glide_gscore>  (45) 
-3.95448

>  <r_i_glide_lipo>  (45) 
-0.359046

>  <r_i_glide_hbond>  (45) 
-0.32

>  <r_i_glide_metal>  (45) 
-0

>  <r_i_glide_rewards>  (45) 
-2.25

>  <r_i_glide_evdw>  (45) 
-8.21081

>  <r_i_glide_ecoul>  (45) 
-4.09928

>  <r_i_glide_erotb>  (45) 
0

>  <r_i_glide_esite>  (45) 
0

>  <r_i_glide_emodel>  (45) 
-15.7267

>  <r_i_glide_energy>  (45) 
-12.3101

>  <r_i_glide_einternal>  (45) 
0.879482

>  <r_i_glide_intrahb_reward>  (45) 
-0

>  <i_i_glide_confnum>  (45) 
1

>  <i_i_glide_posenum>  (45) 
5

>  <r_i_glide_eff_state_penalty>  (45) 
0

>  <ligand_id>  (45) 
15

>  <original_smiles>  (45) 
CC12CCC(C(O)C1)C2(C)C

>  <smiles>  (45) 
[H]OC1([H])C([H])([H])C2(C([H])([H])[H])C([H])([H])C([H])([H])C1([H])C2(C([H])([H])[H])C([H])([H])[H]

$$$$
16:0:0
     RDKit          3D

 70 74  0  0  1  0  0  0  0  0999 V2000
   -0.0557   -9.1376    4.6125 C   0  0  0  0  0  0  0  0  0  0  0  0
   -0.0117   -8.1754    3.4105 C   0  0  1  0  0  0  0  0  0  0  0  0
    1.3793   -7.7314    2.9058 C   0  0  2  0  0  0  0  0  0  0  0  0
    2.2958   -8.8818    2.4381 C   0  0  0  0  0  0  0  0  0  0  0  0
    3.7245   -8.4953    2.8643 C   0  0  0  0  0  0  0  0  0  0  0  0
    3.7107   -6.9708    3.2406 C   0  0  1  0  0  0  0  0  0  0  0  0
    4.7875   -6.6351    4.3183 C   0  0  0  0  0  0  0  0  0  0  0  0
    3.9538   -6.0563    1.9618 C   0  0  2  0  0  0  0  0  0  0  0  0
    5.4636   -6.0200    1.5703 C   0  0  1  0  0  0  0  0  0  0  0  0
    5.9705   -7.3009    1.2805 O   0  0  0  0  0  0  0  0  0  0  0  0
    5.7142   -5.1386    0.3629 C   0  0  0  0  0  0  0  0  0  0  0  0
    5.2567   -3.6636    0.6092 C   0  0  1  0  0  0  0  0  0  0  0  0
    5.6494   -2.7123   -0.5739 C   0  0  0  0  0  0  0  0  0  0  0  0
    5.5684   -1.2042   -0.1758 C   0  0  0  0  0  0  0  0  0  0  0  0
    7.1503   -2.8841   -0.9501 C   0  0  0  0  0  0  0  0  0  0  0  0
    4.7316   -2.9734   -1.8080 C   0  0  1  0  0  0  0  0  0  0  0  0
    4.9917   -4.1965   -2.4762 O   0  0  0  0  0  0  0  0  0  0  0  0
    3.2263   -2.9452   -1.4498 C   0  0  0  0  0  0  0  0  0  0  0  0
    2.8818   -3.8701   -0.2514 C   0  0  0  0  0  0  0  0  0  0  0  0
    3.7390   -3.5868    1.0178 C   0  0  2  0  0  0  0  0  0  0  0  0
    3.3602   -2.1438    1.5488 C   0  0  0  0  0  0  0  0  0  0  0  0
    3.4560   -4.5884    2.1836 C   0  0  1  0  0  0  0  0  0  0  0  0
    1.9733   -4.5964    2.6293 C   0  0  0  0  0  0  0  0  0  0  0  0
    1.7627   -5.3775    3.9045 C   0  0  0  0  0  0  0  0  0  0  0  0
    2.2491   -6.8416    3.8299 C   0  0  1  0  0  0  0  0  0  0  0  0
    2.2212   -7.2784    5.2968 C   0  0  0  0  0  0  0  0  0  0  0  0
   -1.1779   -8.2554    2.4569 C   0  0  0  0  0  0  0  0  0  0  0  0
   -1.0168   -7.1431    3.4067 O   0  0  0  0  0  0  0  0  0  0  0  0
    0.1147  -10.1701    4.2814 H   0  0  0  0  0  0  0  0  0  0  0  0
   -1.0684   -9.0862    5.0223 H   0  0  0  0  0  0  0  0  0  0  0  0
    0.5508   -8.9460    5.4389 H   0  0  0  0  0  0  0  0  0  0  0  0
    1.1765   -7.1777    1.9993 H   0  0  0  0  0  0  0  0  0  0  0  0
    2.0205   -9.8367    2.8493 H   0  0  0  0  0  0  0  0  0  0  0  0
    2.2534   -8.9776    1.3466 H   0  0  0  0  0  0  0  0  0  0  0  0
    3.9623   -9.0536    3.7705 H   0  0  0  0  0  0  0  0  0  0  0  0
    4.4289   -8.7982    2.1000 H   0  0  0  0  0  0  0  0  0  0  0  0
    4.6802   -5.5996    4.6565 H   0  0  0  0  0  0  0  0  0  0  0  0
    5.8118   -6.7716    3.9807 H   0  0  0  0  0  0  0  0  0  0  0  0
    4.7182   -7.2600    5.1982 H   0  0  0  0  0  0  0  0  0  0  0  0
    3.3805   -6.4682    1.1224 H   0  0  0  0  0  0  0  0  0  0  0  0
    6.0678   -5.5973    2.3747 H   0  0  0  0  0  0  0  0  0  0  0  0
    5.7404   -7.8961    1.9798 H   0  0  0  0  0  0  0  0  0  0  0  0
    6.8002   -5.1959    0.2021 H   0  0  0  0  0  0  0  0  0  0  0  0
    5.2369   -5.6008   -0.5103 H   0  0  0  0  0  0  0  0  0  0  0  0
    5.8404   -3.3606    1.4924 H   0  0  0  0  0  0  0  0  0  0  0  0
    6.3109   -0.6026   -0.6240 H   0  0  0  0  0  0  0  0  0  0  0  0
    5.7273   -1.0780    0.9141 H   0  0  0  0  0  0  0  0  0  0  0  0
    4.6023   -0.7780   -0.3992 H   0  0  0  0  0  0  0  0  0  0  0  0
    7.4467   -2.1598   -1.6859 H   0  0  0  0  0  0  0  0  0  0  0  0
    7.3674   -3.8531   -1.3942 H   0  0  0  0  0  0  0  0  0  0  0  0
    7.7798   -2.7661   -0.0772 H   0  0  0  0  0  0  0  0  0  0  0  0
    4.9308   -2.2033   -2.5543 H   0  0  0  0  0  0  0  0  0  0  0  0
    4.2554   -4.7875   -2.3342 H   0  0  0  0  0  0  0  0  0  0  0  0
    2.9499   -1.9327   -1.2017 H   0  0  0  0  0  0  0  0  0  0  0  0
    2.6197   -3.2086   -2.3116 H   0  0  0  0  0  0  0  0  0  0  0  0
    1.8277   -3.7509   -0.0302 H   0  0  0  0  0  0  0  0  0  0  0  0
    2.9890   -4.9143   -0.5711 H   0  0  0  0  0  0  0  0  0  0  0  0
    2.4440   -2.0799    2.0757 H   0  0  0  0  0  0  0  0  0  0  0  0
    3.3337   -1.4354    0.8008 H   0  0  0  0  0  0  0  0  0  0  0  0
    4.1411   -1.8442    2.2934 H   0  0  0  0  0  0  0  0  0  0  0  0
    4.0395   -4.2154    3.0263 H   0  0  0  0  0  0  0  0  0  0  0  0
    1.5844   -3.6241    2.8962 H   0  0  0  0  0  0  0  0  0  0  0  0
    1.3493   -4.9797    1.8267 H   0  0  0  0  0  0  0  0  0  0  0  0
    2.2829   -4.8562    4.7024 H   0  0  0  0  0  0  0  0  0  0  0  0
    0.6986   -5.3376    4.1678 H   0  0  0  0  0  0  0  0  0  0  0  0
    2.8807   -6.7528    5.9389 H   0  0  0  0  0  0  0  0  0  0  0  0
    2.5285   -8.3474    5.3496 H   0  0  0  0  0  0  0  0  0  0  0  0
    1.2110   -7.2076    5.7102 H   0  0  0  0  0  0  0  0  0  0  0  0
   -1.0168   -7.9991    1.4202 H   0  0  0  0  0  0  0  0  0  0  0  0
   -1.9913   -8.9188    2.6933 H   0  0  0  0  0  0  0  0  0  0  0  0
  2  1  1  1
  1 29  1  0
  1 30  1  0
  1 31  1  0
  2 28  1  0
  2  3  1  0
  2 27  1  0
  3 25  1  0
  3  4  1  0
  3 32  1  6
  4  5  1  0
  4 33  1  0
  4 34  1  0
  5  6  1  0
  5 35  1  0
  5 36  1  0
  6 25  1  0
  6  7  1  1
  6  8  1  0
  7 37  1  0
  7 38  1  0
  7 39  1  0
  8 22  1  0
  8  9  1  0
  8 40  1  6
  9 10  1  0
  9 11  1  0
  9 41  1  1
 10 42  1  0
 11 12  1  0
 11 43  1  0
 11 44  1  0
 12 20  1  0
 12 13  1  0
 12 45  1  1
 13 14  1  0
 13 15  1  0
 13 16  1  0
 14 46  1  0
 14 47  1  0
 14 48  1  0
 15 49  1  0
 15 50  1  0
 15 51  1  0
 16 17  1  0
 16 18  1  0
 16 52  1  6
 17 53  1  0
 18 19  1  0
 18 54  1  0
 18 55  1  0
 19 20  1  0
 19 56  1  0
 19 57  1  0
 20 21  1  1
 20 22  1  0
 21 58  1  0
 21 59  1  0
 21 60  1  0
 22 23  1  0
 22 61  1  1
 23 24  1  0
 23 62  1  0
 23 63  1  0
 24 25  1  0
 24 64  1  0
 24 65  1  0
 25 26  1  1
 26 66  1  0
 26 67  1  0
 26 68  1  0
 27 28  1  0
 27 69  1  0
 27 70  1  0
M  END
>  <i_m_ct_stereo_status>  (46) 
1

>  <s_m_source_file>  (46) 
/var/tmp/pbs.5076255.sched01/tmpgq1_80gb/0xrgip9rw.sdf

>  <i_m_source_file_index>  (46) 
22

>  <i_lp_mmshare_version>  (46) 
48012

>  <i_f3d_flags>  (46) 
0

>  <s_epik_input>  (46) 
TzFbQ0gyXVtDQEBdMShbQ0gzXSlbQ0BIXShbQ0gyXVtDSDJdMilbQ0BdMyhbQ0gzXSlbQ0gyXVtDSDJdW0NAQEhdKFtDQEBIXTRbQ0BdMjNbQ0gzXSlbQ0BAXTUoW0NIM10pW0NAQEhdKFtDSDJdW0NAQEhdNFtPSF0pQyhbQ0gzXSkoW0NIM10pW0NAQEhdKFtPSF0pW0NIMl1bQ0gyXTU=

>  <s_epik_cmdline>  (46) 
J2VwaWtfcHl0aG9uJywgJy1waHQnLCAnMi4wJywgJy1waCcsICc3LjAnLCAnLXRuJywgJzgnLCAnLW1hJywgJzIwMCcsICctaW1hZScsICc8aW5maWxlLm1hZT4nLCAnLW9tYWUnLCAnPG91dGZpbGUubWFlPic=

>  <r_lp_tautomer_probability>  (46) 
1

>  <r_epik_Ionization_Penalty>  (46) 
5.0492e-06

>  <r_epik_Ionization_Penalty_Charging>  (46) 
0

>  <r_epik_Ionization_Penalty_Neutral>  (46) 
5.0492e-06

>  <r_epik_State_Penalty>  (46) 
-0

>  <r_epik_Charging_Adjusted_Penalty>  (46) 
0

>  <i_epik_Tot_Q>  (46) 
0

>  <i_epik_Tot_abs_Q>  (46) 
0

>  <s_lp_Force_Field>  (46) 
OPLS3e

>  <r_lp_Energy>  (46) 
75.39

>  <b_lp_Chiralities_Consistent>  (46) 
1

>  <s_lp_Variant>  (46) 
16:0-1

>  <s_i_glide_gridfile>  (46) 
pfpi4k_grid

>  <i_i_glide_lignum>  (46) 
22

>  <i_i_glide_rotatable_bonds>  (46) 
3

>  <r_i_docking_score>  (46) 
-3.56124

>  <r_i_glide_ligand_efficiency>  (46) 
-0.127187

>  <r_i_glide_ligand_efficiency_sa>  (46) 
-0.386215

>  <r_i_glide_ligand_efficiency_ln>  (46) 
-0.822039

>  <r_i_glide_gscore>  (46) 
-3.56124

>  <r_i_glide_lipo>  (46) 
-0.262335

>  <r_i_glide_hbond>  (46) 
-0.395086

>  <r_i_glide_metal>  (46) 
-0

>  <r_i_glide_rewards>  (46) 
-0.745915

>  <r_i_glide_evdw>  (46) 
-29.4009

>  <r_i_glide_ecoul>  (46) 
-5.43809

>  <r_i_glide_erotb>  (46) 
0.127852

>  <r_i_glide_esite>  (46) 
0

>  <r_i_glide_emodel>  (46) 
-38.9127

>  <r_i_glide_energy>  (46) 
-34.839

>  <r_i_glide_einternal>  (46) 
2.25374

>  <r_i_glide_intrahb_reward>  (46) 
-0

>  <i_i_glide_confnum>  (46) 
4

>  <i_i_glide_posenum>  (46) 
2

>  <r_i_glide_eff_state_penalty>  (46) 
0

>  <ligand_id>  (46) 
16

>  <original_smiles>  (46) 
CC1(C2CCC3(C)C4C(O)CC5C(C)(C)C(O)CCC5(C)C4CCC23C)CO1

>  <smiles>  (46) 
[H]OC1([H])C([H])([H])C2([H])C(C([H])([H])[H])(C([H])([H])[H])C([H])(O[H])C([H])([H])C([H])([H])C2(C([H])([H])[H])C2([H])C([H])([H])C([H])([H])C3(C([H])([H])[H])C([H])(C4(C([H])([H])[H])OC4([H])[H])C([H])([H])C([H])([H])C3(C([H])([H])[H])C12[H]

$$$$
16:0:1
     RDKit          3D

 70 74  0  0  1  0  0  0  0  0999 V2000
    5.0100   -1.0604   -1.6357 C   0  0  0  0  0  0  0  0  0  0  0  0
    5.0561   -2.5725   -1.4847 C   0  0  1  0  0  0  0  0  0  0  0  0
    4.3493   -3.1792   -0.2387 C   0  0  2  0  0  0  0  0  0  0  0  0
    3.0150   -2.5145    0.1384 C   0  0  0  0  0  0  0  0  0  0  0  0
    2.9603   -2.4701    1.6685 C   0  0  0  0  0  0  0  0  0  0  0  0
    4.0631   -3.4385    2.1975 C   0  0  1  0  0  0  0  0  0  0  0  0
    4.5920   -2.9793    3.5932 C   0  0  0  0  0  0  0  0  0  0  0  0
    3.5158   -4.9218    2.3036 C   0  0  2  0  0  0  0  0  0  0  0  0
    2.6113   -5.1348    3.5558 C   0  0  1  0  0  0  0  0  0  0  0  0
    1.4592   -4.3071    3.5419 O   0  0  0  0  0  0  0  0  0  0  0  0
    2.0914   -6.5543    3.6725 C   0  0  0  0  0  0  0  0  0  0  0  0
    3.2459   -7.5907    3.7650 C   0  0  1  0  0  0  0  0  0  0  0  0
    2.7057   -9.0485    4.0456 C   0  0  0  0  0  0  0  0  0  0  0  0
    3.8323  -10.0113    4.5458 C   0  0  0  0  0  0  0  0  0  0  0  0
    1.7132   -9.0596    5.2328 C   0  0  0  0  0  0  0  0  0  0  0  0
    2.0436   -9.6262    2.7539 C   0  0  1  0  0  0  0  0  0  0  0  0
    0.7832   -9.0428    2.4627 O   0  0  0  0  0  0  0  0  0  0  0  0
    2.9447   -9.4759    1.5097 C   0  0  0  0  0  0  0  0  0  0  0  0
    3.4922   -8.0545    1.2863 C   0  0  0  0  0  0  0  0  0  0  0  0
    4.2164   -7.4803    2.5268 C   0  0  2  0  0  0  0  0  0  0  0  0
    5.5371   -8.2907    2.7758 C   0  0  0  0  0  0  0  0  0  0  0  0
    4.6619   -5.9791    2.3270 C   0  0  1  0  0  0  0  0  0  0  0  0
    5.5907   -5.7751    1.1051 C   0  0  0  0  0  0  0  0  0  0  0  0
    6.2022   -4.3881    1.0862 C   0  0  0  0  0  0  0  0  0  0  0  0
    5.1622   -3.2462    1.0798 C   0  0  1  0  0  0  0  0  0  0  0  0
    5.9759   -1.9414    1.2860 C   0  0  0  0  0  0  0  0  0  0  0  0
    5.2569   -3.4234   -2.7242 C   0  0  0  0  0  0  0  0  0  0  0  0
    6.3318   -3.1619   -1.8176 O   0  0  0  0  0  0  0  0  0  0  0  0
    4.0482   -0.7373   -2.0357 H   0  0  0  0  0  0  0  0  0  0  0  0
    5.7844   -0.7383   -2.3242 H   0  0  0  0  0  0  0  0  0  0  0  0
    5.1746   -0.5315   -0.7026 H   0  0  0  0  0  0  0  0  0  0  0  0
    4.0907   -4.1924   -0.5263 H   0  0  0  0  0  0  0  0  0  0  0  0
    2.9238   -1.5041   -0.2498 H   0  0  0  0  0  0  0  0  0  0  0  0
    2.1877   -3.0880   -0.2763 H   0  0  0  0  0  0  0  0  0  0  0  0
    3.2074   -1.4457    1.9774 H   0  0  0  0  0  0  0  0  0  0  0  0
    1.9426   -2.6547    1.9912 H   0  0  0  0  0  0  0  0  0  0  0  0
    5.4185   -3.6031    3.9173 H   0  0  0  0  0  0  0  0  0  0  0  0
    3.8443   -3.0303    4.3768 H   0  0  0  0  0  0  0  0  0  0  0  0
    4.9662   -1.9581    3.5998 H   0  0  0  0  0  0  0  0  0  0  0  0
    2.9088   -5.1231    1.4203 H   0  0  0  0  0  0  0  0  0  0  0  0
    3.1663   -4.9456    4.4761 H   0  0  0  0  0  0  0  0  0  0  0  0
    1.7390   -3.3961    3.4257 H   0  0  0  0  0  0  0  0  0  0  0  0
    1.4881   -6.5641    4.5793 H   0  0  0  0  0  0  0  0  0  0  0  0
    1.4016   -6.7323    2.8461 H   0  0  0  0  0  0  0  0  0  0  0  0
    3.8167   -7.2857    4.6456 H   0  0  0  0  0  0  0  0  0  0  0  0
    3.4916  -10.7342    5.2630 H   0  0  0  0  0  0  0  0  0  0  0  0
    4.6380   -9.4701    5.0478 H   0  0  0  0  0  0  0  0  0  0  0  0
    4.2869  -10.5837    3.7330 H   0  0  0  0  0  0  0  0  0  0  0  0
    1.4367  -10.0743    5.5179 H   0  0  0  0  0  0  0  0  0  0  0  0
    0.7772   -8.5542    5.0254 H   0  0  0  0  0  0  0  0  0  0  0  0
    2.1532   -8.5950    6.1151 H   0  0  0  0  0  0  0  0  0  0  0  0
    1.8271  -10.6809    2.9137 H   0  0  0  0  0  0  0  0  0  0  0  0
    0.4463   -9.4250    1.6817 H   0  0  0  0  0  0  0  0  0  0  0  0
    3.7836  -10.1691    1.6097 H   0  0  0  0  0  0  0  0  0  0  0  0
    2.4119   -9.8075    0.6151 H   0  0  0  0  0  0  0  0  0  0  0  0
    4.1605   -8.0711    0.4262 H   0  0  0  0  0  0  0  0  0  0  0  0
    2.6711   -7.4133    1.0003 H   0  0  0  0  0  0  0  0  0  0  0  0
    6.3571   -8.0747    2.1083 H   0  0  0  0  0  0  0  0  0  0  0  0
    5.4195   -9.3524    2.7070 H   0  0  0  0  0  0  0  0  0  0  0  0
    5.9467   -8.0717    3.7607 H   0  0  0  0  0  0  0  0  0  0  0  0
    5.2441   -5.7383    3.2152 H   0  0  0  0  0  0  0  0  0  0  0  0
    6.4727   -6.4024    1.1133 H   0  0  0  0  0  0  0  0  0  0  0  0
    5.0796   -5.9998    0.1679 H   0  0  0  0  0  0  0  0  0  0  0  0
    6.8386   -4.2952    1.9700 H   0  0  0  0  0  0  0  0  0  0  0  0
    6.8810   -4.3218    0.2348 H   0  0  0  0  0  0  0  0  0  0  0  0
    6.5783   -1.9745    2.1877 H   0  0  0  0  0  0  0  0  0  0  0  0
    5.3238   -1.0782    1.3810 H   0  0  0  0  0  0  0  0  0  0  0  0
    6.6701   -1.7538    0.4765 H   0  0  0  0  0  0  0  0  0  0  0  0
    4.9111   -4.4464   -2.7326 H   0  0  0  0  0  0  0  0  0  0  0  0
    5.3639   -2.9305   -3.6893 H   0  0  0  0  0  0  0  0  0  0  0  0
  2  1  1  6
  1 29  1  0
  1 30  1  0
  1 31  1  0
  2 28  1  0
  2  3  1  0
  2 27  1  0
  3 25  1  0
  3  4  1  0
  3 32  1  6
  4  5  1  0
  4 33  1  0
  4 34  1  0
  5  6  1  0
  5 35  1  0
  5 36  1  0
  6 25  1  0
  6  7  1  1
  6  8  1  0
  7 37  1  0
  7 38  1  0
  7 39  1  0
  8 22  1  0
  8  9  1  0
  8 40  1  6
  9 10  1  0
  9 11  1  0
  9 41  1  1
 10 42  1  0
 11 12  1  0
 11 43  1  0
 11 44  1  0
 12 20  1  0
 12 13  1  0
 12 45  1  1
 13 14  1  0
 13 15  1  0
 13 16  1  0
 14 46  1  0
 14 47  1  0
 14 48  1  0
 15 49  1  0
 15 50  1  0
 15 51  1  0
 16 17  1  0
 16 18  1  0
 16 52  1  1
 17 53  1  0
 18 19  1  0
 18 54  1  0
 18 55  1  0
 19 20  1  0
 19 56  1  0
 19 57  1  0
 20 21  1  1
 20 22  1  0
 21 58  1  0
 21 59  1  0
 21 60  1  0
 22 23  1  0
 22 61  1  1
 23 24  1  0
 23 62  1  0
 23 63  1  0
 24 25  1  0
 24 64  1  0
 24 65  1  0
 25 26  1  1
 26 66  1  0
 26 67  1  0
 26 68  1  0
 27 28  1  0
 27 69  1  0
 27 70  1  0
M  END
>  <i_m_ct_stereo_status>  (47) 
1

>  <s_m_source_file>  (47) 
/var/tmp/pbs.5076255.sched01/tmpgq1_80gb/0xrgip9rw.sdf

>  <i_m_source_file_index>  (47) 
22

>  <i_lp_mmshare_version>  (47) 
48012

>  <i_f3d_flags>  (47) 
0

>  <s_epik_input>  (47) 
TzFbQ0gyXVtDQEBdMShbQ0gzXSlbQ0BIXShbQ0gyXVtDSDJdMilbQ0BdMyhbQ0gzXSlbQ0gyXVtDSDJdW0NAQEhdKFtDQEBIXTRbQ0BdMjNbQ0gzXSlbQ0BAXTUoW0NIM10pW0NAQEhdKFtDSDJdW0NAQEhdNFtPSF0pQyhbQ0gzXSkoW0NIM10pW0NAQEhdKFtPSF0pW0NIMl1bQ0gyXTU=

>  <s_epik_cmdline>  (47) 
J2VwaWtfcHl0aG9uJywgJy1waHQnLCAnMi4wJywgJy1waCcsICc3LjAnLCAnLXRuJywgJzgnLCAnLW1hJywgJzIwMCcsICctaW1hZScsICc8aW5maWxlLm1hZT4nLCAnLW9tYWUnLCAnPG91dGZpbGUubWFlPic=

>  <r_lp_tautomer_probability>  (47) 
1

>  <r_epik_Ionization_Penalty>  (47) 
5.0492e-06

>  <r_epik_Ionization_Penalty_Charging>  (47) 
0

>  <r_epik_Ionization_Penalty_Neutral>  (47) 
5.0492e-06

>  <r_epik_State_Penalty>  (47) 
-0

>  <r_epik_Charging_Adjusted_Penalty>  (47) 
0

>  <i_epik_Tot_Q>  (47) 
0

>  <i_epik_Tot_abs_Q>  (47) 
0

>  <s_lp_Force_Field>  (47) 
OPLS3e

>  <r_lp_Energy>  (47) 
75.39

>  <b_lp_Chiralities_Consistent>  (47) 
1

>  <s_lp_Variant>  (47) 
16:0-1

>  <s_i_glide_gridfile>  (47) 
pfpi4k_grid

>  <i_i_glide_lignum>  (47) 
22

>  <i_i_glide_rotatable_bonds>  (47) 
3

>  <r_i_docking_score>  (47) 
-3.45334

>  <r_i_glide_ligand_efficiency>  (47) 
-0.123334

>  <r_i_glide_ligand_efficiency_sa>  (47) 
-0.374513

>  <r_i_glide_ligand_efficiency_ln>  (47) 
-0.797132

>  <r_i_glide_gscore>  (47) 
-3.45334

>  <r_i_glide_lipo>  (47) 
-0.670523

>  <r_i_glide_hbond>  (47) 
-0.288517

>  <r_i_glide_metal>  (47) 
-0

>  <r_i_glide_rewards>  (47) 
-0.745915

>  <r_i_glide_evdw>  (47) 
-29.0587

>  <r_i_glide_ecoul>  (47) 
-2.82202

>  <r_i_glide_erotb>  (47) 
0.127852

>  <r_i_glide_esite>  (47) 
0

>  <r_i_glide_emodel>  (47) 
-38.5994

>  <r_i_glide_energy>  (47) 
-31.8807

>  <r_i_glide_einternal>  (47) 
1.48763

>  <r_i_glide_intrahb_reward>  (47) 
-0

>  <i_i_glide_confnum>  (47) 
4

>  <i_i_glide_posenum>  (47) 
36

>  <r_i_glide_eff_state_penalty>  (47) 
0

>  <ligand_id>  (47) 
16

>  <original_smiles>  (47) 
CC1(C2CCC3(C)C4C(O)CC5C(C)(C)C(O)CCC5(C)C4CCC23C)CO1

>  <smiles>  (47) 
[H]OC1([H])C([H])([H])C2([H])C(C([H])([H])[H])(C([H])([H])[H])C([H])(O[H])C([H])([H])C([H])([H])C2(C([H])([H])[H])C2([H])C([H])([H])C([H])([H])C3(C([H])([H])[H])C([H])(C4(C([H])([H])[H])OC4([H])[H])C([H])([H])C([H])([H])C3(C([H])([H])[H])C12[H]

$$$$
16:0:2
     RDKit          3D

 70 74  0  0  1  0  0  0  0  0999 V2000
    3.1776   -2.1325   -2.6228 C   0  0  0  0  0  0  0  0  0  0  0  0
    4.2743   -2.7538   -1.7709 C   0  0  1  0  0  0  0  0  0  0  0  0
    3.8460   -3.1091   -0.3089 C   0  0  2  0  0  0  0  0  0  0  0  0
    3.3311   -1.9375    0.5608 C   0  0  0  0  0  0  0  0  0  0  0  0
    3.8039   -2.1787    2.0062 C   0  0  0  0  0  0  0  0  0  0  0  0
    4.2731   -3.6641    2.0718 C   0  0  1  0  0  0  0  0  0  0  0  0
    5.3812   -3.8392    3.1624 C   0  0  0  0  0  0  0  0  0  0  0  0
    3.0828   -4.6402    2.4415 C   0  0  2  0  0  0  0  0  0  0  0  0
    2.7055   -4.5983    3.9534 C   0  0  1  0  0  0  0  0  0  0  0  0
    2.2735   -3.3029    4.3679 O   0  0  0  0  0  0  0  0  0  0  0  0
    1.5797   -5.5577    4.3073 C   0  0  0  0  0  0  0  0  0  0  0  0
    1.9336   -7.0409    3.9533 C   0  0  1  0  0  0  0  0  0  0  0  0
    0.8272   -8.0407    4.4653 C   0  0  0  0  0  0  0  0  0  0  0  0
    1.3397   -9.5058    4.4936 C   0  0  0  0  0  0  0  0  0  0  0  0
    0.4786   -7.7673    5.9456 C   0  0  0  0  0  0  0  0  0  0  0  0
   -0.4475   -7.9395    3.5638 C   0  0  1  0  0  0  0  0  0  0  0  0
   -1.1542   -6.7304    3.7691 O   0  0  0  0  0  0  0  0  0  0  0  0
   -0.1238   -8.0141    2.0625 C   0  0  0  0  0  0  0  0  0  0  0  0
    0.9873   -7.0489    1.6070 C   0  0  0  0  0  0  0  0  0  0  0  0
    2.2974   -7.2020    2.4326 C   0  0  2  0  0  0  0  0  0  0  0  0
    2.9691   -8.5783    2.1538 C   0  0  0  0  0  0  0  0  0  0  0  0
    3.3887   -6.1216    2.0419 C   0  0  1  0  0  0  0  0  0  0  0  0
    3.8039   -6.1685    0.5473 C   0  0  0  0  0  0  0  0  0  0  0  0
    5.0170   -5.3371    0.2577 C   0  0  0  0  0  0  0  0  0  0  0  0
    4.8754   -3.8439    0.6028 C   0  0  1  0  0  0  0  0  0  0  0  0
    6.2989   -3.1905    0.5378 C   0  0  0  0  0  0  0  0  0  0  0  0
    5.4121   -3.3799   -2.4975 C   0  0  0  0  0  0  0  0  0  0  0  0
    5.5283   -2.0919   -1.9114 O   0  0  0  0  0  0  0  0  0  0  0  0
    2.4852   -2.8935   -2.9970 H   0  0  0  0  0  0  0  0  0  0  0  0
    3.6180   -1.6359   -3.4881 H   0  0  0  0  0  0  0  0  0  0  0  0
    2.6200   -1.3623   -2.0856 H   0  0  0  0  0  0  0  0  0  0  0  0
    2.9743   -3.7414   -0.4377 H   0  0  0  0  0  0  0  0  0  0  0  0
    3.6776   -0.9719    0.1930 H   0  0  0  0  0  0  0  0  0  0  0  0
    2.2383   -1.8932    0.5573 H   0  0  0  0  0  0  0  0  0  0  0  0
    4.6581   -1.5142    2.2015 H   0  0  0  0  0  0  0  0  0  0  0  0
    3.0384   -1.9059    2.7334 H   0  0  0  0  0  0  0  0  0  0  0  0
    5.8325   -4.8354    3.1325 H   0  0  0  0  0  0  0  0  0  0  0  0
    5.0590   -3.6666    4.1929 H   0  0  0  0  0  0  0  0  0  0  0  0
    6.1505   -3.1158    2.9995 H   0  0  0  0  0  0  0  0  0  0  0  0
    2.2116   -4.3217    1.8757 H   0  0  0  0  0  0  0  0  0  0  0  0
    3.5510   -4.8874    4.5916 H   0  0  0  0  0  0  0  0  0  0  0  0
    1.6168   -2.9900    3.7586 H   0  0  0  0  0  0  0  0  0  0  0  0
    1.4490   -5.4420    5.3867 H   0  0  0  0  0  0  0  0  0  0  0  0
    0.6657   -5.2010    3.8284 H   0  0  0  0  0  0  0  0  0  0  0  0
    2.8465   -7.2432    4.5255 H   0  0  0  0  0  0  0  0  0  0  0  0
    0.9256  -10.0875    5.3083 H   0  0  0  0  0  0  0  0  0  0  0  0
    2.4062   -9.5717    4.6122 H   0  0  0  0  0  0  0  0  0  0  0  0
    1.0881  -10.0477    3.5698 H   0  0  0  0  0  0  0  0  0  0  0  0
   -0.1856   -8.5321    6.3499 H   0  0  0  0  0  0  0  0  0  0  0  0
   -0.0202   -6.8225    6.1322 H   0  0  0  0  0  0  0  0  0  0  0  0
    1.3765   -7.7855    6.5673 H   0  0  0  0  0  0  0  0  0  0  0  0
   -1.1334   -8.7397    3.8316 H   0  0  0  0  0  0  0  0  0  0  0  0
   -1.2797   -6.5966    4.6971 H   0  0  0  0  0  0  0  0  0  0  0  0
    0.1914   -9.0448    1.8405 H   0  0  0  0  0  0  0  0  0  0  0  0
   -1.0307   -7.8353    1.4682 H   0  0  0  0  0  0  0  0  0  0  0  0
    1.1855   -7.2223    0.5478 H   0  0  0  0  0  0  0  0  0  0  0  0
    0.6256   -6.0300    1.6603 H   0  0  0  0  0  0  0  0  0  0  0  0
    3.4594   -8.6932    1.2149 H   0  0  0  0  0  0  0  0  0  0  0  0
    2.2229   -9.4365    2.1725 H   0  0  0  0  0  0  0  0  0  0  0  0
    3.7166   -8.8121    2.8668 H   0  0  0  0  0  0  0  0  0  0  0  0
    4.2685   -6.3915    2.6316 H   0  0  0  0  0  0  0  0  0  0  0  0
    4.1077   -7.1578    0.2389 H   0  0  0  0  0  0  0  0  0  0  0  0
    2.9438   -5.9067   -0.0839 H   0  0  0  0  0  0  0  0  0  0  0  0
    5.8375   -5.7733    0.8202 H   0  0  0  0  0  0  0  0  0  0  0  0
    5.2480   -5.4821   -0.8226 H   0  0  0  0  0  0  0  0  0  0  0  0
    6.9711   -3.6768    1.2151 H   0  0  0  0  0  0  0  0  0  0  0  0
    6.2719   -2.1623    0.8356 H   0  0  0  0  0  0  0  0  0  0  0  0
    6.7953   -3.2029   -0.4584 H   0  0  0  0  0  0  0  0  0  0  0  0
    5.9819   -4.1577   -1.9896 H   0  0  0  0  0  0  0  0  0  0  0  0
    5.3955   -3.4037   -3.5839 H   0  0  0  0  0  0  0  0  0  0  0  0
  2  1  1  6
  1 29  1  0
  1 30  1  0
  1 31  1  0
  2 28  1  0
  2  3  1  0
  2 27  1  0
  3 25  1  0
  3  4  1  0
  3 32  1  6
  4  5  1  0
  4 33  1  0
  4 34  1  0
  5  6  1  0
  5 35  1  0
  5 36  1  0
  6 25  1  0
  6  7  1  1
  6  8  1  0
  7 37  1  0
  7 38  1  0
  7 39  1  0
  8 22  1  0
  8  9  1  0
  8 40  1  6
  9 10  1  0
  9 11  1  0
  9 41  1  1
 10 42  1  0
 11 12  1  0
 11 43  1  0
 11 44  1  0
 12 20  1  0
 12 13  1  0
 12 45  1  1
 13 14  1  0
 13 15  1  0
 13 16  1  0
 14 46  1  0
 14 47  1  0
 14 48  1  0
 15 49  1  0
 15 50  1  0
 15 51  1  0
 16 17  1  0
 16 18  1  0
 16 52  1  1
 17 53  1  0
 18 19  1  0
 18 54  1  0
 18 55  1  0
 19 20  1  0
 19 56  1  0
 19 57  1  0
 20 21  1  1
 20 22  1  0
 21 58  1  0
 21 59  1  0
 21 60  1  0
 22 23  1  0
 22 61  1  1
 23 24  1  0
 23 62  1  0
 23 63  1  0
 24 25  1  0
 24 64  1  0
 24 65  1  0
 25 26  1  1
 26 66  1  0
 26 67  1  0
 26 68  1  0
 27 28  1  0
 27 69  1  0
 27 70  1  0
M  END
>  <i_m_ct_stereo_status>  (48) 
1

>  <s_m_source_file>  (48) 
/var/tmp/pbs.5076255.sched01/tmpgq1_80gb/0xrgip9rw.sdf

>  <i_m_source_file_index>  (48) 
22

>  <i_lp_mmshare_version>  (48) 
48012

>  <i_f3d_flags>  (48) 
0

>  <s_epik_input>  (48) 
TzFbQ0gyXVtDQEBdMShbQ0gzXSlbQ0BIXShbQ0gyXVtDSDJdMilbQ0BdMyhbQ0gzXSlbQ0gyXVtDSDJdW0NAQEhdKFtDQEBIXTRbQ0BdMjNbQ0gzXSlbQ0BAXTUoW0NIM10pW0NAQEhdKFtDSDJdW0NAQEhdNFtPSF0pQyhbQ0gzXSkoW0NIM10pW0NAQEhdKFtPSF0pW0NIMl1bQ0gyXTU=

>  <s_epik_cmdline>  (48) 
J2VwaWtfcHl0aG9uJywgJy1waHQnLCAnMi4wJywgJy1waCcsICc3LjAnLCAnLXRuJywgJzgnLCAnLW1hJywgJzIwMCcsICctaW1hZScsICc8aW5maWxlLm1hZT4nLCAnLW9tYWUnLCAnPG91dGZpbGUubWFlPic=

>  <r_lp_tautomer_probability>  (48) 
1

>  <r_epik_Ionization_Penalty>  (48) 
5.0492e-06

>  <r_epik_Ionization_Penalty_Charging>  (48) 
0

>  <r_epik_Ionization_Penalty_Neutral>  (48) 
5.0492e-06

>  <r_epik_State_Penalty>  (48) 
-0

>  <r_epik_Charging_Adjusted_Penalty>  (48) 
0

>  <i_epik_Tot_Q>  (48) 
0

>  <i_epik_Tot_abs_Q>  (48) 
0

>  <s_lp_Force_Field>  (48) 
OPLS3e

>  <r_lp_Energy>  (48) 
75.39

>  <b_lp_Chiralities_Consistent>  (48) 
1

>  <s_lp_Variant>  (48) 
16:0-1

>  <s_i_glide_gridfile>  (48) 
pfpi4k_grid

>  <i_i_glide_lignum>  (48) 
22

>  <i_i_glide_rotatable_bonds>  (48) 
3

>  <r_i_docking_score>  (48) 
-3.38153

>  <r_i_glide_ligand_efficiency>  (48) 
-0.120769

>  <r_i_glide_ligand_efficiency_sa>  (48) 
-0.366726

>  <r_i_glide_ligand_efficiency_ln>  (48) 
-0.780556

>  <r_i_glide_gscore>  (48) 
-3.38153

>  <r_i_glide_lipo>  (48) 
-0.537453

>  <r_i_glide_hbond>  (48) 
-0.0994016

>  <r_i_glide_metal>  (48) 
-0

>  <r_i_glide_rewards>  (48) 
-0.745915

>  <r_i_glide_evdw>  (48) 
-30.5044

>  <r_i_glide_ecoul>  (48) 
-4.00929

>  <r_i_glide_erotb>  (48) 
0.127852

>  <r_i_glide_esite>  (48) 
0

>  <r_i_glide_emodel>  (48) 
-38.7015

>  <r_i_glide_energy>  (48) 
-34.5137

>  <r_i_glide_einternal>  (48) 
3.63649

>  <r_i_glide_intrahb_reward>  (48) 
-0

>  <i_i_glide_confnum>  (48) 
5

>  <i_i_glide_posenum>  (48) 
39

>  <r_i_glide_eff_state_penalty>  (48) 
0

>  <ligand_id>  (48) 
16

>  <original_smiles>  (48) 
CC1(C2CCC3(C)C4C(O)CC5C(C)(C)C(O)CCC5(C)C4CCC23C)CO1

>  <smiles>  (48) 
[H]OC1([H])C([H])([H])C2([H])C(C([H])([H])[H])(C([H])([H])[H])C([H])(O[H])C([H])([H])C([H])([H])C2(C([H])([H])[H])C2([H])C([H])([H])C([H])([H])C3(C([H])([H])[H])C([H])(C4(C([H])([H])[H])OC4([H])[H])C([H])([H])C([H])([H])C3(C([H])([H])[H])C12[H]

$$$$
19:0:0
     RDKit          3D

 56 59  0  0  1  0  0  0  0  0999 V2000
   -0.1298   -7.4267    2.3175 C   0  0  0  0  0  0  0  0  0  0  0  0
    0.9035   -8.2461    3.0753 C   0  0  0  0  0  0  0  0  0  0  0  0
    1.2218   -9.4868    2.6670 C   0  0  0  0  0  0  0  0  0  0  0  0
    2.1901  -10.4785    3.2949 C   0  0  0  0  0  0  0  0  0  0  0  0
    3.3332   -9.9148    4.1821 C   0  0  1  0  0  0  0  0  0  0  0  0
    4.4381   -9.2342    3.3494 C   0  0  1  0  0  0  0  0  0  0  0  0
    4.9259   -9.8765    2.0439 C   0  0  0  0  0  0  0  0  0  0  0  0
    4.0591   -7.7598    3.2836 C   0  0  1  0  0  0  0  0  0  0  0  0
    3.5193   -7.4042    2.0094 O   0  0  0  0  0  0  0  0  0  0  0  0
    3.7404   -6.2118    1.4248 C   0  0  0  0  0  0  0  0  0  0  0  0
    2.9346   -5.7568    0.6133 O   0  0  0  0  0  0  0  0  0  0  0  0
    5.0173   -5.5466    1.8462 C   0  0  0  0  0  0  0  0  0  0  0  0
    5.5764   -4.4126    1.4163 C   0  0  0  0  0  0  0  0  0  0  0  0
    5.2336   -3.5105    0.3191 C   0  0  0  0  0  0  0  0  0  0  0  0
    4.5889   -3.9726   -0.8488 C   0  0  0  0  0  0  0  0  0  0  0  0
    4.2273   -3.0684   -1.8556 C   0  0  0  0  0  0  0  0  0  0  0  0
    4.5711   -1.7113   -1.7359 C   0  0  0  0  0  0  0  0  0  0  0  0
    4.2211   -0.7707   -2.8512 C   0  0  0  0  0  0  0  0  0  0  0  0
    5.2556   -1.2508   -0.5863 C   0  0  0  0  0  0  0  0  0  0  0  0
    5.5744   -2.1506    0.4525 C   0  0  0  0  0  0  0  0  0  0  0  0
    3.0586   -7.5125    4.3907 C   0  0  1  0  0  0  0  0  0  0  0  0
    1.5091   -7.5503    4.3006 C   0  0  2  0  0  0  0  0  0  0  0  0
    1.5388   -8.3561    5.6328 C   0  0  0  0  0  0  0  0  0  0  0  0
    1.5367   -7.4715    6.8999 C   0  0  0  0  0  0  0  0  0  0  0  0
    0.5088   -9.4577    5.9096 C   0  0  0  0  0  0  0  0  0  0  0  0
    2.9478   -8.8026    5.1792 C   0  0  1  0  0  0  0  0  0  0  0  0
    0.3156   -6.5164    1.9222 H   0  0  0  0  0  0  0  0  0  0  0  0
   -0.9614   -7.1653    2.9686 H   0  0  0  0  0  0  0  0  0  0  0  0
   -0.5359   -7.9874    1.4748 H   0  0  0  0  0  0  0  0  0  0  0  0
    0.7066   -9.8824    1.8059 H   0  0  0  0  0  0  0  0  0  0  0  0
    1.6139  -11.1968    3.8763 H   0  0  0  0  0  0  0  0  0  0  0  0
    2.6211  -11.0646    2.4825 H   0  0  0  0  0  0  0  0  0  0  0  0
    3.7860  -10.7585    4.7082 H   0  0  0  0  0  0  0  0  0  0  0  0
    5.3149   -9.2301    3.9991 H   0  0  0  0  0  0  0  0  0  0  0  0
    4.1588   -9.8587    1.2671 H   0  0  0  0  0  0  0  0  0  0  0  0
    5.2184  -10.9147    2.2152 H   0  0  0  0  0  0  0  0  0  0  0  0
    5.7984   -9.3500    1.6484 H   0  0  0  0  0  0  0  0  0  0  0  0
    4.9605   -7.2643    3.5556 H   0  0  0  0  0  0  0  0  0  0  0  0
    5.6462   -5.9665    2.5952 H   0  0  0  0  0  0  0  0  0  0  0  0
    6.4729   -4.1057    1.9521 H   0  0  0  0  0  0  0  0  0  0  0  0
    4.3666   -5.0183   -0.9933 H   0  0  0  0  0  0  0  0  0  0  0  0
    3.6985   -3.4452   -2.7186 H   0  0  0  0  0  0  0  0  0  0  0  0
    4.3503    0.2650   -2.5402 H   0  0  0  0  0  0  0  0  0  0  0  0
    3.1830   -0.9275   -3.1495 H   0  0  0  0  0  0  0  0  0  0  0  0
    4.8660   -0.9759   -3.7062 H   0  0  0  0  0  0  0  0  0  0  0  0
    5.5467   -0.2214   -0.4820 H   0  0  0  0  0  0  0  0  0  0  0  0
    6.0898   -1.7976    1.3388 H   0  0  0  0  0  0  0  0  0  0  0  0
    3.3763   -6.6630    4.9907 H   0  0  0  0  0  0  0  0  0  0  0  0
    1.0698   -6.5621    4.4397 H   0  0  0  0  0  0  0  0  0  0  0  0
    1.7670   -8.0425    7.8008 H   0  0  0  0  0  0  0  0  0  0  0  0
    0.5707   -6.9927    7.0464 H   0  0  0  0  0  0  0  0  0  0  0  0
    2.2693   -6.6631    6.8607 H   0  0  0  0  0  0  0  0  0  0  0  0
    0.9023  -10.1957    6.6108 H   0  0  0  0  0  0  0  0  0  0  0  0
    0.2102  -10.0016    5.0230 H   0  0  0  0  0  0  0  0  0  0  0  0
   -0.4100   -9.0513    6.3242 H   0  0  0  0  0  0  0  0  0  0  0  0
    3.6537   -8.7794    6.0121 H   0  0  0  0  0  0  0  0  0  0  0  0
  1  2  1  0
  1 27  1  0
  1 28  1  0
  1 29  1  0
  2 22  1  0
  2  3  2  0
  3  4  1  0
  3 30  1  0
  4  5  1  0
  4 31  1  0
  4 32  1  0
  5 26  1  0
  5  6  1  0
  5 33  1  1
  6  7  1  0
  6  8  1  0
  6 34  1  1
  7 35  1  0
  7 36  1  0
  7 37  1  0
  8  9  1  0
  8 21  1  0
  8 38  1  1
  9 10  1  0
 10 11  2  0
 10 12  1  0
 12 13  2  3
 12 39  1  0
 13 14  1  0
 13 40  1  0
 14 20  1  0
 14 15  2  0
 15 16  1  0
 15 41  1  0
 16 17  2  0
 16 42  1  0
 17 18  1  0
 17 19  1  0
 18 43  1  0
 18 44  1  0
 18 45  1  0
 19 20  2  0
 19 46  1  0
 20 47  1  0
 21 26  1  0
 21 22  1  0
 21 48  1  1
 22 23  1  0
 22 49  1  1
 23 24  1  0
 23 25  1  0
 23 26  1  0
 24 50  1  0
 24 51  1  0
 24 52  1  0
 25 53  1  0
 25 54  1  0
 25 55  1  0
 26 56  1  1
M  END
>  <i_m_ct_stereo_status>  (49) 
1

>  <s_m_source_file>  (49) 
/var/tmp/pbs.5076255.sched01/tmpgq1_80gb/0xrgip9rw.sdf

>  <i_m_source_file_index>  (49) 
26

>  <i_lp_mmshare_version>  (49) 
48012

>  <i_f3d_flags>  (49) 
2

>  <s_epik_input>  (49) 
W0NIMl0xW0NIXT1DKFtDSDNdKVtDQEBIXShDMihbQ0gzXSlbQ0gzXSlbQ0hdKFtDQEBIXTJbQ0BASF0xMylbQ0BASF0oW0NAQEhdM1tDSDNdKU9DKD1PKS9bQ0hdPVtDSF0vYzRbY0hdW2NIXWMoW0NIM10pW2NIXVtjSF00

>  <s_epik_cmdline>  (49) 
J2VwaWtfcHl0aG9uJywgJy1waHQnLCAnMi4wJywgJy1waCcsICc3LjAnLCAnLXRuJywgJzgnLCAnLW1hJywgJzIwMCcsICctaW1hZScsICc8aW5maWxlLm1hZT4nLCAnLW9tYWUnLCAnPG91dGZpbGUubWFlPic=

>  <r_lp_tautomer_probability>  (49) 
1

>  <r_epik_Ionization_Penalty>  (49) 
0

>  <r_epik_Ionization_Penalty_Charging>  (49) 
0

>  <r_epik_Ionization_Penalty_Neutral>  (49) 
0

>  <r_epik_State_Penalty>  (49) 
-0

>  <r_epik_Charging_Adjusted_Penalty>  (49) 
0

>  <i_epik_Tot_Q>  (49) 
0

>  <i_epik_Tot_abs_Q>  (49) 
0

>  <s_epik_Chemistry_Notes>  (49) 
This compound has an ester and may undergo hydrolysis at high or low pH.

>  <s_lp_Force_Field>  (49) 
OPLS3e

>  <r_lp_Energy>  (49) 
52.4584

>  <b_lp_Chiralities_Consistent>  (49) 
0

>  <s_lp_Variant>  (49) 
19:0-1

>  <s_i_glide_gridfile>  (49) 
pfpi4k_grid

>  <i_i_glide_lignum>  (49) 
26

>  <i_i_glide_rotatable_bonds>  (49) 
4

>  <r_i_docking_score>  (49) 
-2.22397

>  <r_i_glide_ligand_efficiency>  (49) 
-0.0855374

>  <r_i_glide_ligand_efficiency_sa>  (49) 
-0.253404

>  <r_i_glide_ligand_efficiency_ln>  (49) 
-0.522293

>  <r_i_glide_gscore>  (49) 
-2.22397

>  <r_i_glide_lipo>  (49) 
-0.379211

>  <r_i_glide_hbond>  (49) 
0

>  <r_i_glide_metal>  (49) 
-0

>  <r_i_glide_rewards>  (49) 
-1.0911

>  <r_i_glide_evdw>  (49) 
-24.39

>  <r_i_glide_ecoul>  (49) 
-1.03217

>  <r_i_glide_erotb>  (49) 
0.620665

>  <r_i_glide_esite>  (49) 
0

>  <r_i_glide_emodel>  (49) 
-25.3427

>  <r_i_glide_energy>  (49) 
-25.4222

>  <r_i_glide_einternal>  (49) 
4.43297

>  <r_i_glide_intrahb_reward>  (49) 
-0

>  <i_i_glide_confnum>  (49) 
2

>  <i_i_glide_posenum>  (49) 
25

>  <r_i_glide_eff_state_penalty>  (49) 
0

>  <ligand_id>  (49) 
19

>  <original_smiles>  (49) 
CC1=CCC2C(C)C(OC(=O)C=Cc3ccc(C)cc3)C3C1C(C)(C)C23

>  <smiles>  (49) 
[H]C(C(=O)OC1([H])C([H])(C([H])([H])[H])C2([H])C([H])([H])C([H])=C(C([H])([H])[H])C3([H])C1([H])C2([H])C3(C([H])([H])[H])C([H])([H])[H])=C([H])c1c([H])c([H])c(C([H])([H])[H])c([H])c1[H]

$$$$
19:0:1
     RDKit          3D

 56 59  0  0  1  0  0  0  0  0999 V2000
    4.0117   -8.8352    1.3457 C   0  0  0  0  0  0  0  0  0  0  0  0
    3.1511   -8.3329    2.4887 C   0  0  0  0  0  0  0  0  0  0  0  0
    3.7029   -8.0825    3.7041 C   0  0  0  0  0  0  0  0  0  0  0  0
    3.0194   -7.6150    4.9748 C   0  0  0  0  0  0  0  0  0  0  0  0
    1.6885   -6.8388    4.8275 C   0  0  1  0  0  0  0  0  0  0  0  0
    1.8877   -5.3975    4.3086 C   0  0  1  0  0  0  0  0  0  0  0  0
    3.0487   -4.5534    4.8589 C   0  0  0  0  0  0  0  0  0  0  0  0
    1.7905   -5.4891    2.7821 C   0  0  1  0  0  0  0  0  0  0  0  0
    3.0575   -5.4441    2.1413 O   0  0  0  0  0  0  0  0  0  0  0  0
    3.2373   -4.7100    1.0394 C   0  0  0  0  0  0  0  0  0  0  0  0
    2.3105   -4.1125    0.5010 O   0  0  0  0  0  0  0  0  0  0  0  0
    4.6454   -4.6728    0.6057 C   0  0  0  0  0  0  0  0  0  0  0  0
    5.1843   -3.9356   -0.3861 C   0  0  0  0  0  0  0  0  0  0  0  0
    4.5591   -3.0390   -1.3910 C   0  0  0  0  0  0  0  0  0  0  0  0
    5.1859   -1.8330   -1.7618 C   0  0  0  0  0  0  0  0  0  0  0  0
    4.5576   -0.9598   -2.6864 C   0  0  0  0  0  0  0  0  0  0  0  0
    3.3154   -1.3008   -3.2626 C   0  0  0  0  0  0  0  0  0  0  0  0
    2.6530   -0.3883   -4.2599 C   0  0  0  0  0  0  0  0  0  0  0  0
    2.6875   -2.4977   -2.8985 C   0  0  0  0  0  0  0  0  0  0  0  0
    3.3211   -3.3592   -1.9908 C   0  0  0  0  0  0  0  0  0  0  0  0
    1.0388   -6.7792    2.4845 C   0  0  1  0  0  0  0  0  0  0  0  0
    1.6721   -8.1560    2.1512 C   0  0  2  0  0  0  0  0  0  0  0  0
    0.6530   -8.7897    3.1385 C   0  0  0  0  0  0  0  0  0  0  0  0
   -0.7013   -9.1633    2.4977 C   0  0  0  0  0  0  0  0  0  0  0  0
    1.0174  -10.0153    3.9856 C   0  0  0  0  0  0  0  0  0  0  0  0
    0.6705   -7.4031    3.8194 C   0  0  1  0  0  0  0  0  0  0  0  0
    3.9996   -8.1328    0.5097 H   0  0  0  0  0  0  0  0  0  0  0  0
    3.6529   -9.8052    0.9940 H   0  0  0  0  0  0  0  0  0  0  0  0
    5.0489   -8.9639    1.6578 H   0  0  0  0  0  0  0  0  0  0  0  0
    4.7544   -8.2792    3.8269 H   0  0  0  0  0  0  0  0  0  0  0  0
    2.8580   -8.4838    5.6086 H   0  0  0  0  0  0  0  0  0  0  0  0
    3.7409   -7.0101    5.5241 H   0  0  0  0  0  0  0  0  0  0  0  0
    1.2389   -6.7712    5.8165 H   0  0  0  0  0  0  0  0  0  0  0  0
    0.9801   -4.8636    4.6029 H   0  0  0  0  0  0  0  0  0  0  0  0
    4.0195   -4.9434    4.5463 H   0  0  0  0  0  0  0  0  0  0  0  0
    3.0189   -4.5361    5.9493 H   0  0  0  0  0  0  0  0  0  0  0  0
    2.9807   -3.5210    4.5046 H   0  0  0  0  0  0  0  0  0  0  0  0
    1.1818   -4.6367    2.4937 H   0  0  0  0  0  0  0  0  0  0  0  0
    5.3160   -5.3010    1.1814 H   0  0  0  0  0  0  0  0  0  0  0  0
    6.2509   -4.0254   -0.4905 H   0  0  0  0  0  0  0  0  0  0  0  0
    6.1349   -1.5593   -1.3335 H   0  0  0  0  0  0  0  0  0  0  0  0
    5.0122   -0.0257   -2.9581 H   0  0  0  0  0  0  0  0  0  0  0  0
    1.8234   -0.9186   -4.7171 H   0  0  0  0  0  0  0  0  0  0  0  0
    3.3650   -0.0679   -5.0222 H   0  0  0  0  0  0  0  0  0  0  0  0
    2.2325    0.4829   -3.7640 H   0  0  0  0  0  0  0  0  0  0  0  0
    1.7119   -2.7804   -3.2719 H   0  0  0  0  0  0  0  0  0  0  0  0
    2.8029   -4.2474   -1.7583 H   0  0  0  0  0  0  0  0  0  0  0  0
    0.1668   -6.6091    1.8573 H   0  0  0  0  0  0  0  0  0  0  0  0
    1.4633   -8.4496    1.1203 H   0  0  0  0  0  0  0  0  0  0  0  0
   -1.4550   -9.4069    3.2494 H   0  0  0  0  0  0  0  0  0  0  0  0
   -0.6085  -10.0354    1.8530 H   0  0  0  0  0  0  0  0  0  0  0  0
   -1.1188   -8.3658    1.8822 H   0  0  0  0  0  0  0  0  0  0  0  0
    0.4047  -10.0619    4.8866 H   0  0  0  0  0  0  0  0  0  0  0  0
    2.0518  -10.0321    4.3008 H   0  0  0  0  0  0  0  0  0  0  0  0
    0.8600  -10.9432    3.4379 H   0  0  0  0  0  0  0  0  0  0  0  0
   -0.3431   -7.1081    4.0841 H   0  0  0  0  0  0  0  0  0  0  0  0
  1  2  1  0
  1 27  1  0
  1 28  1  0
  1 29  1  0
  2 22  1  0
  2  3  2  0
  3  4  1  0
  3 30  1  0
  4  5  1  0
  4 31  1  0
  4 32  1  0
  5 26  1  0
  5  6  1  0
  5 33  1  1
  6  7  1  0
  6  8  1  0
  6 34  1  1
  7 35  1  0
  7 36  1  0
  7 37  1  0
  8  9  1  0
  8 21  1  0
  8 38  1  6
  9 10  1  0
 10 11  2  0
 10 12  1  0
 12 13  2  3
 12 39  1  0
 13 14  1  0
 13 40  1  0
 14 20  1  0
 14 15  2  0
 15 16  1  0
 15 41  1  0
 16 17  2  0
 16 42  1  0
 17 18  1  0
 17 19  1  0
 18 43  1  0
 18 44  1  0
 18 45  1  0
 19 20  2  0
 19 46  1  0
 20 47  1  0
 21 26  1  0
 21 22  1  0
 21 48  1  6
 22 23  1  0
 22 49  1  6
 23 24  1  0
 23 25  1  0
 23 26  1  0
 24 50  1  0
 24 51  1  0
 24 52  1  0
 25 53  1  0
 25 54  1  0
 25 55  1  0
 26 56  1  1
M  END
>  <i_m_ct_stereo_status>  (50) 
1

>  <s_m_source_file>  (50) 
/var/tmp/pbs.5076255.sched01/tmpgq1_80gb/0xrgip9rw.sdf

>  <i_m_source_file_index>  (50) 
26

>  <i_lp_mmshare_version>  (50) 
48012

>  <i_f3d_flags>  (50) 
2

>  <s_epik_input>  (50) 
W0NIMl0xW0NIXT1DKFtDSDNdKVtDQEBIXShDMihbQ0gzXSlbQ0gzXSlbQ0hdKFtDQEBIXTJbQ0BASF0xMylbQ0BASF0oW0NAQEhdM1tDSDNdKU9DKD1PKS9bQ0hdPVtDSF0vYzRbY0hdW2NIXWMoW0NIM10pW2NIXVtjSF00

>  <s_epik_cmdline>  (50) 
J2VwaWtfcHl0aG9uJywgJy1waHQnLCAnMi4wJywgJy1waCcsICc3LjAnLCAnLXRuJywgJzgnLCAnLW1hJywgJzIwMCcsICctaW1hZScsICc8aW5maWxlLm1hZT4nLCAnLW9tYWUnLCAnPG91dGZpbGUubWFlPic=

>  <r_lp_tautomer_probability>  (50) 
1

>  <r_epik_Ionization_Penalty>  (50) 
0

>  <r_epik_Ionization_Penalty_Charging>  (50) 
0

>  <r_epik_Ionization_Penalty_Neutral>  (50) 
0

>  <r_epik_State_Penalty>  (50) 
-0

>  <r_epik_Charging_Adjusted_Penalty>  (50) 
0

>  <i_epik_Tot_Q>  (50) 
0

>  <i_epik_Tot_abs_Q>  (50) 
0

>  <s_epik_Chemistry_Notes>  (50) 
This compound has an ester and may undergo hydrolysis at high or low pH.

>  <s_lp_Force_Field>  (50) 
OPLS3e

>  <r_lp_Energy>  (50) 
52.4584

>  <b_lp_Chiralities_Consistent>  (50) 
0

>  <s_lp_Variant>  (50) 
19:0-1

>  <s_i_glide_gridfile>  (50) 
pfpi4k_grid

>  <i_i_glide_lignum>  (50) 
26

>  <i_i_glide_rotatable_bonds>  (50) 
4

>  <r_i_docking_score>  (50) 
-2.0248

>  <r_i_glide_ligand_efficiency>  (50) 
-0.0778771

>  <r_i_glide_ligand_efficiency_sa>  (50) 
-0.23071

>  <r_i_glide_ligand_efficiency_ln>  (50) 
-0.475518

>  <r_i_glide_gscore>  (50) 
-2.0248

>  <r_i_glide_lipo>  (50) 
-0.449817

>  <r_i_glide_hbond>  (50) 
0

>  <r_i_glide_metal>  (50) 
-0

>  <r_i_glide_rewards>  (50) 
-1.01936

>  <r_i_glide_evdw>  (50) 
-22.9517

>  <r_i_glide_ecoul>  (50) 
-0.162925

>  <r_i_glide_erotb>  (50) 
0.620665

>  <r_i_glide_esite>  (50) 
-0.00426746

>  <r_i_glide_emodel>  (50) 
-24.5488

>  <r_i_glide_energy>  (50) 
-23.1146

>  <r_i_glide_einternal>  (50) 
1.96965

>  <r_i_glide_intrahb_reward>  (50) 
-0

>  <i_i_glide_confnum>  (50) 
5

>  <i_i_glide_posenum>  (50) 
13

>  <r_i_glide_eff_state_penalty>  (50) 
0

>  <ligand_id>  (50) 
19

>  <original_smiles>  (50) 
CC1=CCC2C(C)C(OC(=O)C=Cc3ccc(C)cc3)C3C1C(C)(C)C23

>  <smiles>  (50) 
[H]C(C(=O)OC1([H])C([H])(C([H])([H])[H])C2([H])C([H])([H])C([H])=C(C([H])([H])[H])C3([H])C1([H])C2([H])C3(C([H])([H])[H])C([H])([H])[H])=C([H])c1c([H])c([H])c(C([H])([H])[H])c([H])c1[H]

$$$$
19:0:2
     RDKit          3D

 56 59  0  0  1  0  0  0  0  0999 V2000
    3.4949   -9.0563    1.2131 C   0  0  0  0  0  0  0  0  0  0  0  0
    2.7584   -8.6560    2.4797 C   0  0  0  0  0  0  0  0  0  0  0  0
    3.3688   -8.7604    3.6797 C   0  0  0  0  0  0  0  0  0  0  0  0
    2.7995   -8.4546    5.0580 C   0  0  0  0  0  0  0  0  0  0  0  0
    1.6267   -7.4488    5.1408 C   0  0  1  0  0  0  0  0  0  0  0  0
    2.0588   -5.9816    4.9129 C   0  0  1  0  0  0  0  0  0  0  0  0
    3.3635   -5.4853    5.5622 C   0  0  0  0  0  0  0  0  0  0  0  0
    1.9139   -5.7224    3.4027 C   0  0  1  0  0  0  0  0  0  0  0  0
    3.1443   -5.7865    2.6919 O   0  0  0  0  0  0  0  0  0  0  0  0
    3.3020   -5.1091    1.5470 C   0  0  0  0  0  0  0  0  0  0  0  0
    2.5096   -4.2779    1.1218 O   0  0  0  0  0  0  0  0  0  0  0  0
    4.5011   -5.5620    0.8341 C   0  0  0  0  0  0  0  0  0  0  0  0
    5.0644   -4.9907   -0.2490 C   0  0  0  0  0  0  0  0  0  0  0  0
    4.7614   -3.7462   -0.9848 C   0  0  0  0  0  0  0  0  0  0  0  0
    4.2339   -2.6028   -0.3555 C   0  0  0  0  0  0  0  0  0  0  0  0
    3.8645   -1.4889   -1.1193 C   0  0  0  0  0  0  0  0  0  0  0  0
    4.0742   -1.4707   -2.5079 C   0  0  0  0  0  0  0  0  0  0  0  0
    3.6982   -0.2446   -3.3106 C   0  0  0  0  0  0  0  0  0  0  0  0
    4.6340   -2.5946   -3.1408 C   0  0  0  0  0  0  0  0  0  0  0  0
    4.9793   -3.7215   -2.3786 C   0  0  0  0  0  0  0  0  0  0  0  0
    0.9363   -6.7937    2.9051 C   0  0  1  0  0  0  0  0  0  0  0  0
    1.3241   -8.1553    2.2682 C   0  0  2  0  0  0  0  0  0  0  0  0
    0.2303   -8.8020    3.1545 C   0  0  0  0  0  0  0  0  0  0  0  0
   -1.1809   -8.8048    2.5248 C   0  0  0  0  0  0  0  0  0  0  0  0
    0.4051  -10.2221    3.7121 C   0  0  0  0  0  0  0  0  0  0  0  0
    0.4907   -7.6090    4.1068 C   0  0  1  0  0  0  0  0  0  0  0  0
    3.5896   -8.2107    0.5327 H   0  0  0  0  0  0  0  0  0  0  0  0
    2.9624   -9.8562    0.6946 H   0  0  0  0  0  0  0  0  0  0  0  0
    4.5007   -9.4158    1.4331 H   0  0  0  0  0  0  0  0  0  0  0  0
    4.3726   -9.1525    3.7046 H   0  0  0  0  0  0  0  0  0  0  0  0
    2.5031   -9.3978    5.5136 H   0  0  0  0  0  0  0  0  0  0  0  0
    3.6272   -8.1102    5.6783 H   0  0  0  0  0  0  0  0  0  0  0  0
    1.2164   -7.5219    6.1497 H   0  0  0  0  0  0  0  0  0  0  0  0
    1.2703   -5.3828    5.3692 H   0  0  0  0  0  0  0  0  0  0  0  0
    4.2433   -5.9587    5.1252 H   0  0  0  0  0  0  0  0  0  0  0  0
    3.3587   -5.6931    6.6323 H   0  0  0  0  0  0  0  0  0  0  0  0
    3.4730   -4.4066    5.4327 H   0  0  0  0  0  0  0  0  0  0  0  0
    1.4871   -4.7243    3.2892 H   0  0  0  0  0  0  0  0  0  0  0  0
    4.9682   -6.4592    1.2146 H   0  0  0  0  0  0  0  0  0  0  0  0
    5.8952   -5.5383   -0.6485 H   0  0  0  0  0  0  0  0  0  0  0  0
    4.0711   -2.5861    0.7172 H   0  0  0  0  0  0  0  0  0  0  0  0
    3.3928   -0.6544   -0.6262 H   0  0  0  0  0  0  0  0  0  0  0  0
    4.1383   -0.2605   -4.3067 H   0  0  0  0  0  0  0  0  0  0  0  0
    4.0653    0.6420   -2.7960 H   0  0  0  0  0  0  0  0  0  0  0  0
    2.6148   -0.1653   -3.4036 H   0  0  0  0  0  0  0  0  0  0  0  0
    4.7879   -2.5949   -4.2096 H   0  0  0  0  0  0  0  0  0  0  0  0
    5.3853   -4.5876   -2.8812 H   0  0  0  0  0  0  0  0  0  0  0  0
    0.1020   -6.3456    2.3719 H   0  0  0  0  0  0  0  0  0  0  0  0
    1.0559   -8.1960    1.2099 H   0  0  0  0  0  0  0  0  0  0  0  0
   -1.9488   -9.0761    3.2490 H   0  0  0  0  0  0  0  0  0  0  0  0
   -1.2462   -9.5128    1.6982 H   0  0  0  0  0  0  0  0  0  0  0  0
   -1.4650   -7.8362    2.1161 H   0  0  0  0  0  0  0  0  0  0  0  0
   -0.1754  -10.3472    4.6282 H   0  0  0  0  0  0  0  0  0  0  0  0
    1.4247  -10.4804    3.9647 H   0  0  0  0  0  0  0  0  0  0  0  0
    0.0747  -10.9798    3.0014 H   0  0  0  0  0  0  0  0  0  0  0  0
   -0.4426   -7.2167    4.4938 H   0  0  0  0  0  0  0  0  0  0  0  0
  1  2  1  0
  1 27  1  0
  1 28  1  0
  1 29  1  0
  2 22  1  0
  2  3  2  0
  3  4  1  0
  3 30  1  0
  4  5  1  0
  4 31  1  0
  4 32  1  0
  5 26  1  0
  5  6  1  0
  5 33  1  1
  6  7  1  0
  6  8  1  0
  6 34  1  1
  7 35  1  0
  7 36  1  0
  7 37  1  0
  8  9  1  0
  8 21  1  0
  8 38  1  1
  9 10  1  0
 10 11  2  0
 10 12  1  0
 12 13  2  3
 12 39  1  0
 13 14  1  0
 13 40  1  0
 14 20  1  0
 14 15  2  0
 15 16  1  0
 15 41  1  0
 16 17  2  0
 16 42  1  0
 17 18  1  0
 17 19  1  0
 18 43  1  0
 18 44  1  0
 18 45  1  0
 19 20  2  0
 19 46  1  0
 20 47  1  0
 21 26  1  0
 21 22  1  0
 21 48  1  6
 22 23  1  0
 22 49  1  6
 23 24  1  0
 23 25  1  0
 23 26  1  0
 24 50  1  0
 24 51  1  0
 24 52  1  0
 25 53  1  0
 25 54  1  0
 25 55  1  0
 26 56  1  1
M  END
>  <i_m_ct_stereo_status>  (51) 
1

>  <s_m_source_file>  (51) 
/var/tmp/pbs.5076255.sched01/tmpgq1_80gb/0xrgip9rw.sdf

>  <i_m_source_file_index>  (51) 
26

>  <i_lp_mmshare_version>  (51) 
48012

>  <i_f3d_flags>  (51) 
2

>  <s_epik_input>  (51) 
W0NIMl0xW0NIXT1DKFtDSDNdKVtDQEBIXShDMihbQ0gzXSlbQ0gzXSlbQ0hdKFtDQEBIXTJbQ0BASF0xMylbQ0BASF0oW0NAQEhdM1tDSDNdKU9DKD1PKS9bQ0hdPVtDSF0vYzRbY0hdW2NIXWMoW0NIM10pW2NIXVtjSF00

>  <s_epik_cmdline>  (51) 
J2VwaWtfcHl0aG9uJywgJy1waHQnLCAnMi4wJywgJy1waCcsICc3LjAnLCAnLXRuJywgJzgnLCAnLW1hJywgJzIwMCcsICctaW1hZScsICc8aW5maWxlLm1hZT4nLCAnLW9tYWUnLCAnPG91dGZpbGUubWFlPic=

>  <r_lp_tautomer_probability>  (51) 
1

>  <r_epik_Ionization_Penalty>  (51) 
0

>  <r_epik_Ionization_Penalty_Charging>  (51) 
0

>  <r_epik_Ionization_Penalty_Neutral>  (51) 
0

>  <r_epik_State_Penalty>  (51) 
-0

>  <r_epik_Charging_Adjusted_Penalty>  (51) 
0

>  <i_epik_Tot_Q>  (51) 
0

>  <i_epik_Tot_abs_Q>  (51) 
0

>  <s_epik_Chemistry_Notes>  (51) 
This compound has an ester and may undergo hydrolysis at high or low pH.

>  <s_lp_Force_Field>  (51) 
OPLS3e

>  <r_lp_Energy>  (51) 
52.4584

>  <b_lp_Chiralities_Consistent>  (51) 
0

>  <s_lp_Variant>  (51) 
19:0-1

>  <s_i_glide_gridfile>  (51) 
pfpi4k_grid

>  <i_i_glide_lignum>  (51) 
26

>  <i_i_glide_rotatable_bonds>  (51) 
4

>  <r_i_docking_score>  (51) 
-1.9327

>  <r_i_glide_ligand_efficiency>  (51) 
-0.0743344

>  <r_i_glide_ligand_efficiency_sa>  (51) 
-0.220215

>  <r_i_glide_ligand_efficiency_ln>  (51) 
-0.453887

>  <r_i_glide_gscore>  (51) 
-1.9327

>  <r_i_glide_lipo>  (51) 
-0.424095

>  <r_i_glide_hbond>  (51) 
0

>  <r_i_glide_metal>  (51) 
-0

>  <r_i_glide_rewards>  (51) 
-1.02645

>  <r_i_glide_evdw>  (51) 
-26.2595

>  <r_i_glide_ecoul>  (51) 
1.40105

>  <r_i_glide_erotb>  (51) 
0.620665

>  <r_i_glide_esite>  (51) 
0

>  <r_i_glide_emodel>  (51) 
-26.1629

>  <r_i_glide_energy>  (51) 
-24.8585

>  <r_i_glide_einternal>  (51) 
2.6042

>  <r_i_glide_intrahb_reward>  (51) 
-0

>  <i_i_glide_confnum>  (51) 
6

>  <i_i_glide_posenum>  (51) 
22

>  <r_i_glide_eff_state_penalty>  (51) 
0

>  <ligand_id>  (51) 
19

>  <original_smiles>  (51) 
CC1=CCC2C(C)C(OC(=O)C=Cc3ccc(C)cc3)C3C1C(C)(C)C23

>  <smiles>  (51) 
[H]C(C(=O)OC1([H])C([H])(C([H])([H])[H])C2([H])C([H])([H])C([H])=C(C([H])([H])[H])C3([H])C1([H])C2([H])C3(C([H])([H])[H])C([H])([H])[H])=C([H])c1c([H])c([H])c(C([H])([H])[H])c([H])c1[H]

$$$$
20:0:0
     RDKit          3D

 80 87  0  0  1  0  0  0  0  0999 V2000
   -1.3148    1.6672    7.9976 C   0  0  0  0  0  0  0  0  0  0  0  0
   -0.9726    0.5295    7.2066 O   0  0  0  0  0  0  0  0  0  0  0  0
    0.3714    0.5339    6.6954 C   0  0  2  0  0  0  0  0  0  0  0  0
    0.5226    1.4030    5.4223 C   0  0  1  0  0  0  0  0  0  0  0  0
    1.9524    1.6043    5.0622 C   0  0  2  0  0  0  0  0  0  0  0  0
    2.0962    2.6694    3.9454 C   0  0  1  0  0  0  0  0  0  0  0  0
    2.3998    2.0531    2.6946 O   0  0  0  0  0  0  0  0  0  0  0  0
    1.9050    0.7385    2.4819 C   0  0  2  0  0  0  0  0  0  0  0  0
    0.3719    0.8179    2.6936 C   0  0  0  0  0  0  0  0  0  0  0  0
   -0.2635    0.9381    4.1527 C   0  0  2  0  0  0  0  0  0  0  0  0
   -1.2657    2.1039    4.0051 C   0  0  0  0  0  0  0  0  0  0  0  0
   -0.5661    3.4623    3.5625 C   0  0  1  0  0  0  0  0  0  0  0  0
   -1.5085    4.6325    3.8784 C   0  0  0  0  0  0  0  0  0  0  0  0
    0.9757    3.8099    3.9039 C   0  0  1  0  0  0  0  0  0  0  0  0
    1.1348    4.7204    5.1618 C   0  0  0  0  0  0  0  0  0  0  0  0
    1.4204    4.7070    2.8998 O   0  0  0  0  0  0  0  0  0  0  0  0
   -0.8040   -0.4043    4.4598 N   0  0  0  0  0  0  0  0  0  0  0  0
   -0.1619   -1.3399    5.2202 C   0  0  0  0  0  0  0  0  0  0  0  0
   -0.4530   -2.5332    5.1500 O   0  0  0  0  0  0  0  0  0  0  0  0
    0.8606   -0.8718    6.2960 C   0  0  1  0  0  0  0  0  0  0  0  0
    2.4226   -0.8083    5.9296 C   0  0  1  0  0  0  0  0  0  0  0  0
    3.2201   -0.3573    7.1952 C   0  0  0  0  0  0  0  0  0  0  0  0
    3.1544   -2.1232    5.4918 C   0  0  0  0  0  0  0  0  0  0  0  0
    4.2245   -2.0154    4.3120 C   0  0  0  0  0  0  0  0  0  0  0  0
    4.0593   -0.8883    3.1922 C   0  0  1  0  0  0  0  0  0  0  0  0
    4.5516   -1.2656    1.7354 C   0  0  1  0  0  0  0  0  0  0  0  0
    4.9590    0.0366    1.0033 C   0  0  0  0  0  0  0  0  0  0  0  0
    5.8018   -2.1928    1.7494 C   0  0  0  0  0  0  0  0  0  0  0  0
    6.2729   -2.6510    0.3533 C   0  0  0  0  0  0  0  0  0  0  0  0
    5.1150   -3.2379   -0.4478 C   0  0  0  0  0  0  0  0  0  0  0  0
    5.2401   -4.2825   -1.0817 O   0  0  0  0  0  0  0  0  0  0  0  0
    3.8185   -2.4370   -0.4693 C   0  0  0  0  0  0  0  0  0  0  0  0
    3.4549   -1.9551    0.9324 C   0  0  0  0  0  0  0  0  0  0  0  0
    2.2390   -2.1538    1.4485 C   0  0  0  0  0  0  0  0  0  0  0  0
    1.8096   -1.7100    2.8315 C   0  0  0  0  0  0  0  0  0  0  0  0
    2.5742   -0.3928    3.3246 C   0  0  2  0  0  0  0  0  0  0  0  0
    2.6152    0.2178    4.7986 C   0  0  1  0  0  0  0  0  0  0  0  0
   -2.3814    1.6518    8.2318 H   0  0  0  0  0  0  0  0  0  0  0  0
   -1.1137    2.6134    7.4922 H   0  0  0  0  0  0  0  0  0  0  0  0
   -0.7645    1.6577    8.9411 H   0  0  0  0  0  0  0  0  0  0  0  0
    0.9827    0.9261    7.5042 H   0  0  0  0  0  0  0  0  0  0  0  0
    0.1661    2.3523    5.7844 H   0  0  0  0  0  0  0  0  0  0  0  0
    2.4143    2.0468    5.9424 H   0  0  0  0  0  0  0  0  0  0  0  0
    3.0352    3.1762    4.1608 H   0  0  0  0  0  0  0  0  0  0  0  0
    2.0558    0.5375    1.4215 H   0  0  0  0  0  0  0  0  0  0  0  0
    0.0735    1.6138    2.0244 H   0  0  0  0  0  0  0  0  0  0  0  0
   -0.1352    0.0251    2.1488 H   0  0  0  0  0  0  0  0  0  0  0  0
   -2.0281    1.8510    3.2662 H   0  0  0  0  0  0  0  0  0  0  0  0
   -1.8223    2.2439    4.9338 H   0  0  0  0  0  0  0  0  0  0  0  0
   -0.6198    3.4313    2.4779 H   0  0  0  0  0  0  0  0  0  0  0  0
   -1.6209    4.7743    4.9543 H   0  0  0  0  0  0  0  0  0  0  0  0
   -2.4990    4.4601    3.4562 H   0  0  0  0  0  0  0  0  0  0  0  0
   -1.1138    5.5515    3.4400 H   0  0  0  0  0  0  0  0  0  0  0  0
    0.7349    4.3001    6.0820 H   0  0  0  0  0  0  0  0  0  0  0  0
    0.6509    5.6890    5.0321 H   0  0  0  0  0  0  0  0  0  0  0  0
    2.1851    4.9437    5.3538 H   0  0  0  0  0  0  0  0  0  0  0  0
    0.9251    4.5436    2.0904 H   0  0  0  0  0  0  0  0  0  0  0  0
   -1.5312   -0.7343    3.8523 H   0  0  0  0  0  0  0  0  0  0  0  0
    0.7398   -1.5349    7.1515 H   0  0  0  0  0  0  0  0  0  0  0  0
    4.2975   -0.3999    7.0273 H   0  0  0  0  0  0  0  0  0  0  0  0
    3.0047   -1.0001    8.0498 H   0  0  0  0  0  0  0  0  0  0  0  0
    3.0334    0.6631    7.5203 H   0  0  0  0  0  0  0  0  0  0  0  0
    3.6756   -2.5587    6.3433 H   0  0  0  0  0  0  0  0  0  0  0  0
    2.4090   -2.8962    5.3123 H   0  0  0  0  0  0  0  0  0  0  0  0
    5.2211   -1.9224    4.7424 H   0  0  0  0  0  0  0  0  0  0  0  0
    4.2163   -2.9995    3.8466 H   0  0  0  0  0  0  0  0  0  0  0  0
    4.7524   -0.0893    3.4615 H   0  0  0  0  0  0  0  0  0  0  0  0
    5.8151    0.4955    1.4952 H   0  0  0  0  0  0  0  0  0  0  0  0
    4.1564    0.7723    0.9745 H   0  0  0  0  0  0  0  0  0  0  0  0
    5.2545   -0.1401   -0.0308 H   0  0  0  0  0  0  0  0  0  0  0  0
    6.6158   -1.6837    2.2689 H   0  0  0  0  0  0  0  0  0  0  0  0
    5.6113   -3.1082    2.3040 H   0  0  0  0  0  0  0  0  0  0  0  0
    6.6923   -1.8213   -0.2124 H   0  0  0  0  0  0  0  0  0  0  0  0
    7.0623   -3.3965    0.4439 H   0  0  0  0  0  0  0  0  0  0  0  0
    3.9430   -1.5892   -1.1385 H   0  0  0  0  0  0  0  0  0  0  0  0
    3.0197   -3.0503   -0.8829 H   0  0  0  0  0  0  0  0  0  0  0  0
    1.5052   -2.6563    0.8452 H   0  0  0  0  0  0  0  0  0  0  0  0
    0.7373   -1.6551    2.7743 H   0  0  0  0  0  0  0  0  0  0  0  0
    1.9516   -2.6163    3.3978 H   0  0  0  0  0  0  0  0  0  0  0  0
    3.6326    0.5668    4.9638 H   0  0  0  0  0  0  0  0  0  0  0  0
  1  2  1  0
  1 38  1  0
  1 39  1  0
  1 40  1  0
  2  3  1  0
  3 20  1  0
  3  4  1  0
  3 41  1  1
  4 10  1  0
  4  5  1  0
  4 42  1  1
  5 37  1  0
  5  6  1  0
  5 43  1  1
  6 14  1  0
  6  7  1  0
  6 44  1  1
  7  8  1  0
  8 36  1  0
  8  9  1  0
  8 45  1  6
  9 10  1  0
  9 46  1  0
  9 47  1  0
 10 11  1  0
 10 17  1  1
 11 12  1  0
 11 48  1  0
 11 49  1  0
 12 13  1  0
 12 14  1  0
 12 50  1  6
 13 51  1  0
 13 52  1  0
 13 53  1  0
 14 15  1  0
 14 16  1  6
 15 54  1  0
 15 55  1  0
 15 56  1  0
 16 57  1  0
 17 18  1  0
 17 58  1  0
 18 19  2  0
 18 20  1  0
 20 21  1  0
 20 59  1  1
 21 37  1  0
 21 22  1  1
 21 23  1  0
 22 60  1  0
 22 61  1  0
 22 62  1  0
 23 24  1  0
 23 63  1  0
 23 64  1  0
 24 25  1  0
 24 65  1  0
 24 66  1  0
 25 36  1  0
 25 26  1  0
 25 67  1  1
 26 33  1  0
 26 27  1  6
 26 28  1  0
 27 68  1  0
 27 69  1  0
 27 70  1  0
 28 29  1  0
 28 71  1  0
 28 72  1  0
 29 30  1  0
 29 73  1  0
 29 74  1  0
 30 31  2  0
 30 32  1  0
 32 33  1  0
 32 75  1  0
 32 76  1  0
 33 34  2  0
 34 35  1  0
 34 77  1  0
 36 35  1  1
 35 78  1  0
 35 79  1  0
 36 37  1  0
 37 80  1  1
M  END
>  <i_m_ct_stereo_status>  (52) 
1

>  <s_m_source_file>  (52) 
/var/tmp/pbs.5076255.sched01/tmpgq1_80gb/0xrgip9rw.sdf

>  <i_m_source_file_index>  (52) 
27

>  <i_lp_mmshare_version>  (52) 
48012

>  <i_f3d_flags>  (52) 
0

>  <s_epik_input>  (52) 
W0NIM11PW0NASF0xW0NAQEhdKEMoPU8pW05IXTIpW0NAXShbQ0gzXSkoW0NASF0zNClbQ0gyXVtDSDJdW0NAQEhdKFtDQF01KFtDSDNdKUMoPVtDSF1bQ0gyXTYpW0NIMl1DKD1PKVtDSDJdW0NIMl01KVtDQF00NltDQEBIXShbQ0gyXTcpT1tDQEhdKFtDQEhdM1tDSF0xW0NAXTI3OClbQ0BAXShbQ0gzXSkoW09IXSlbQ0BASF0oW0NIMl04KVtDSDNd

>  <s_epik_cmdline>  (52) 
J2VwaWtfcHl0aG9uJywgJy1waHQnLCAnMi4wJywgJy1waCcsICc3LjAnLCAnLXRuJywgJzgnLCAnLW1hJywgJzIwMCcsICctaW1hZScsICc8aW5maWxlLm1hZT4nLCAnLW9tYWUnLCAnPG91dGZpbGUubWFlPic=

>  <r_lp_tautomer_probability>  (52) 
1

>  <r_epik_Ionization_Penalty>  (52) 
1.13747e-07

>  <r_epik_Ionization_Penalty_Charging>  (52) 
0

>  <r_epik_Ionization_Penalty_Neutral>  (52) 
1.13747e-07

>  <r_epik_State_Penalty>  (52) 
-0

>  <r_epik_Charging_Adjusted_Penalty>  (52) 
0

>  <i_epik_Tot_Q>  (52) 
0

>  <i_epik_Tot_abs_Q>  (52) 
0

>  <s_lp_Force_Field>  (52) 
OPLS3e

>  <r_lp_Energy>  (52) 
181.849

>  <b_lp_Chiralities_Consistent>  (52) 
1

>  <s_lp_Variant>  (52) 
20:0-1

>  <s_i_glide_gridfile>  (52) 
pfpi4k_grid

>  <i_i_glide_lignum>  (52) 
27

>  <i_i_glide_rotatable_bonds>  (52) 
2

>  <r_i_docking_score>  (52) 
-2.44037

>  <r_i_glide_ligand_efficiency>  (52) 
-0.065956

>  <r_i_glide_ligand_efficiency_sa>  (52) 
-0.21978

>  <r_i_glide_ligand_efficiency_ln>  (52) 
-0.529259

>  <r_i_glide_gscore>  (52) 
-2.44037

>  <r_i_glide_lipo>  (52) 
-0.317653

>  <r_i_glide_hbond>  (52) 
-0.115511

>  <r_i_glide_metal>  (52) 
-0

>  <r_i_glide_rewards>  (52) 
-0.0528332

>  <r_i_glide_evdw>  (52) 
-23.0774

>  <r_i_glide_ecoul>  (52) 
-5.03975

>  <r_i_glide_erotb>  (52) 
0

>  <r_i_glide_esite>  (52) 
-0.0445438

>  <r_i_glide_emodel>  (52) 
-31.5732

>  <r_i_glide_energy>  (52) 
-28.1171

>  <r_i_glide_einternal>  (52) 
2.2306

>  <r_i_glide_intrahb_reward>  (52) 
-0

>  <i_i_glide_confnum>  (52) 
1

>  <i_i_glide_posenum>  (52) 
1

>  <r_i_glide_eff_state_penalty>  (52) 
0

>  <ligand_id>  (52) 
20

>  <original_smiles>  (52) 
COC1C2C3C4OC5CC2(CC(C)C4(C)O)NC(=O)C1C1(C)CCC2C4(C)CCC(=O)CC4=CCC52C31

>  <smiles>  (52) 
[H]OC1(C([H])([H])[H])C2([H])OC3([H])C([H])([H])C4(N([H])C(=O)C5([H])C([H])(OC([H])([H])[H])C4([H])C2([H])C2([H])C5(C([H])([H])[H])C([H])([H])C([H])([H])C4([H])C5(C([H])([H])[H])C(=C([H])C([H])([H])C342)C([H])([H])C(=O)C([H])([H])C5([H])[H])C([H])([H])C1([H])C([H])([H])[H]

$$$$
20:0:1
     RDKit          3D

 80 87  0  0  1  0  0  0  0  0999 V2000
    3.9021  -10.7118    6.1585 C   0  0  0  0  0  0  0  0  0  0  0  0
    4.6961   -9.9451    5.2503 O   0  0  0  0  0  0  0  0  0  0  0  0
    4.3761   -8.5512    5.1778 C   0  0  2  0  0  0  0  0  0  0  0  0
    3.1272   -8.2772    4.3055 C   0  0  1  0  0  0  0  0  0  0  0  0
    2.6544   -6.8744    4.4526 C   0  0  2  0  0  0  0  0  0  0  0  0
    1.2729   -6.6785    3.7801 C   0  0  1  0  0  0  0  0  0  0  0  0
    1.3975   -5.9649    2.5460 O   0  0  0  0  0  0  0  0  0  0  0  0
    2.6206   -6.1276    1.8355 C   0  0  2  0  0  0  0  0  0  0  0  0
    2.7964   -7.6495    1.6085 C   0  0  0  0  0  0  0  0  0  0  0  0
    3.2402   -8.6235    2.7868 C   0  0  2  0  0  0  0  0  0  0  0  0
    2.2088   -9.7637    2.6862 C   0  0  0  0  0  0  0  0  0  0  0  0
    0.7064   -9.2636    2.8757 C   0  0  1  0  0  0  0  0  0  0  0  0
   -0.1571  -10.4807    3.2263 C   0  0  0  0  0  0  0  0  0  0  0  0
    0.3218   -7.9607    3.7442 C   0  0  1  0  0  0  0  0  0  0  0  0
   -0.1438   -8.3027    5.1906 C   0  0  0  0  0  0  0  0  0  0  0  0
   -0.8890   -7.4667    3.1913 O   0  0  0  0  0  0  0  0  0  0  0  0
    4.6641   -8.9409    2.5219 N   0  0  0  0  0  0  0  0  0  0  0  0
    5.7149   -8.3262    3.1388 C   0  0  0  0  0  0  0  0  0  0  0  0
    6.8428   -8.3187    2.6381 O   0  0  0  0  0  0  0  0  0  0  0  0
    5.5090   -7.7110    4.5540 C   0  0  1  0  0  0  0  0  0  0  0  0
    5.1429   -6.1542    4.6965 C   0  0  1  0  0  0  0  0  0  0  0  0
    5.0431   -5.7895    6.2124 C   0  0  0  0  0  0  0  0  0  0  0  0
    6.1367   -5.0862    4.1343 C   0  0  0  0  0  0  0  0  0  0  0  0
    5.5028   -3.8142    3.4019 C   0  0  0  0  0  0  0  0  0  0  0  0
    4.1128   -3.9312    2.6519 C   0  0  1  0  0  0  0  0  0  0  0  0
    3.9508   -3.0377    1.3559 C   0  0  1  0  0  0  0  0  0  0  0  0
    2.4438   -2.7368    1.1894 C   0  0  0  0  0  0  0  0  0  0  0  0
    4.6778   -1.6554    1.4728 C   0  0  0  0  0  0  0  0  0  0  0  0
    4.5854   -0.7877    0.1996 C   0  0  0  0  0  0  0  0  0  0  0  0
    5.0040   -1.5858   -1.0305 C   0  0  0  0  0  0  0  0  0  0  0  0
    5.7817   -1.1221   -1.8622 O   0  0  0  0  0  0  0  0  0  0  0  0
    4.3982   -2.9703   -1.2058 C   0  0  0  0  0  0  0  0  0  0  0  0
    4.4593   -3.7546    0.1014 C   0  0  0  0  0  0  0  0  0  0  0  0
    4.9574   -4.9963    0.1497 C   0  0  0  0  0  0  0  0  0  0  0  0
    5.0451   -5.8135    1.4254 C   0  0  0  0  0  0  0  0  0  0  0  0
    3.8801   -5.4709    2.4748 C   0  0  2  0  0  0  0  0  0  0  0  0
    3.7895   -5.9067    4.0079 C   0  0  1  0  0  0  0  0  0  0  0  0
    4.1422  -11.7717    6.0583 H   0  0  0  0  0  0  0  0  0  0  0  0
    2.8309  -10.6147    5.9819 H   0  0  0  0  0  0  0  0  0  0  0  0
    4.1076  -10.4197    7.1895 H   0  0  0  0  0  0  0  0  0  0  0  0
    4.2032   -8.2493    6.2073 H   0  0  0  0  0  0  0  0  0  0  0  0
    2.3969   -8.8921    4.8026 H   0  0  0  0  0  0  0  0  0  0  0  0
    2.4749   -6.7388    5.5179 H   0  0  0  0  0  0  0  0  0  0  0  0
    0.7581   -5.9428    4.3974 H   0  0  0  0  0  0  0  0  0  0  0  0
    2.4465   -5.6918    0.8515 H   0  0  0  0  0  0  0  0  0  0  0  0
    1.8683   -7.9415    1.1363 H   0  0  0  0  0  0  0  0  0  0  0  0
    3.4329   -7.8390    0.7485 H   0  0  0  0  0  0  0  0  0  0  0  0
    2.2983  -10.2501    1.7141 H   0  0  0  0  0  0  0  0  0  0  0  0
    2.4457  -10.5492    3.4066 H   0  0  0  0  0  0  0  0  0  0  0  0
    0.3521   -9.0403    1.8710 H   0  0  0  0  0  0  0  0  0  0  0  0
    0.0786  -10.8879    4.2121 H   0  0  0  0  0  0  0  0  0  0  0  0
    0.0220  -11.2657    2.4929 H   0  0  0  0  0  0  0  0  0  0  0  0
   -1.2193  -10.2354    3.2007 H   0  0  0  0  0  0  0  0  0  0  0  0
    0.6005   -8.8196    5.7914 H   0  0  0  0  0  0  0  0  0  0  0  0
   -1.0308   -8.9365    5.2079 H   0  0  0  0  0  0  0  0  0  0  0  0
   -0.4108   -7.3965    5.7336 H   0  0  0  0  0  0  0  0  0  0  0  0
   -1.4982   -8.1913    3.1646 H   0  0  0  0  0  0  0  0  0  0  0  0
    4.8635   -9.4412    1.6710 H   0  0  0  0  0  0  0  0  0  0  0  0
    6.4221   -7.8987    5.1134 H   0  0  0  0  0  0  0  0  0  0  0  0
    4.9040   -4.7168    6.3604 H   0  0  0  0  0  0  0  0  0  0  0  0
    5.9515   -6.0682    6.7485 H   0  0  0  0  0  0  0  0  0  0  0  0
    4.2156   -6.2495    6.7449 H   0  0  0  0  0  0  0  0  0  0  0  0
    6.7617   -4.7118    4.9454 H   0  0  0  0  0  0  0  0  0  0  0  0
    6.8944   -5.5861    3.5332 H   0  0  0  0  0  0  0  0  0  0  0  0
    5.4620   -2.9791    4.1003 H   0  0  0  0  0  0  0  0  0  0  0  0
    6.2216   -3.5275    2.6461 H   0  0  0  0  0  0  0  0  0  0  0  0
    3.3748   -3.4965    3.3259 H   0  0  0  0  0  0  0  0  0  0  0  0
    2.0600   -2.1402    2.0198 H   0  0  0  0  0  0  0  0  0  0  0  0
    1.8536   -3.6463    1.1415 H   0  0  0  0  0  0  0  0  0  0  0  0
    2.2350   -2.1856    0.2752 H   0  0  0  0  0  0  0  0  0  0  0  0
    4.2943   -1.0902    2.3244 H   0  0  0  0  0  0  0  0  0  0  0  0
    5.7454   -1.7776    1.6551 H   0  0  0  0  0  0  0  0  0  0  0  0
    3.5718   -0.4191    0.0493 H   0  0  0  0  0  0  0  0  0  0  0  0
    5.2208    0.0917    0.2972 H   0  0  0  0  0  0  0  0  0  0  0  0
    3.3713   -2.8584   -1.5428 H   0  0  0  0  0  0  0  0  0  0  0  0
    4.9364   -3.4959   -1.9893 H   0  0  0  0  0  0  0  0  0  0  0  0
    5.3418   -5.4590   -0.7493 H   0  0  0  0  0  0  0  0  0  0  0  0
    5.1105   -6.8307    1.0806 H   0  0  0  0  0  0  0  0  0  0  0  0
    6.0632   -5.6230    1.7256 H   0  0  0  0  0  0  0  0  0  0  0  0
    3.3996   -5.0516    4.5563 H   0  0  0  0  0  0  0  0  0  0  0  0
  1  2  1  0
  1 38  1  0
  1 39  1  0
  1 40  1  0
  2  3  1  0
  3 20  1  0
  3  4  1  0
  3 41  1  1
  4 10  1  0
  4  5  1  0
  4 42  1  1
  5 37  1  0
  5  6  1  0
  5 43  1  1
  6 14  1  0
  6  7  1  0
  6 44  1  1
  7  8  1  0
  8 36  1  0
  8  9  1  0
  8 45  1  6
  9 10  1  0
  9 46  1  0
  9 47  1  0
 10 11  1  0
 10 17  1  6
 11 12  1  0
 11 48  1  0
 11 49  1  0
 12 13  1  0
 12 14  1  0
 12 50  1  6
 13 51  1  0
 13 52  1  0
 13 53  1  0
 14 15  1  0
 14 16  1  6
 15 54  1  0
 15 55  1  0
 15 56  1  0
 16 57  1  0
 17 18  1  0
 17 58  1  0
 18 19  2  0
 18 20  1  0
 20 21  1  0
 20 59  1  1
 21 37  1  0
 21 22  1  1
 21 23  1  0
 22 60  1  0
 22 61  1  0
 22 62  1  0
 23 24  1  0
 23 63  1  0
 23 64  1  0
 24 25  1  0
 24 65  1  0
 24 66  1  0
 25 36  1  0
 25 26  1  0
 25 67  1  1
 26 33  1  0
 26 27  1  6
 26 28  1  0
 27 68  1  0
 27 69  1  0
 27 70  1  0
 28 29  1  0
 28 71  1  0
 28 72  1  0
 29 30  1  0
 29 73  1  0
 29 74  1  0
 30 31  2  0
 30 32  1  0
 32 33  1  0
 32 75  1  0
 32 76  1  0
 33 34  2  0
 34 35  1  0
 34 77  1  0
 36 35  1  6
 35 78  1  0
 35 79  1  0
 36 37  1  0
 37 80  1  1
M  END
>  <i_m_ct_stereo_status>  (53) 
1

>  <s_m_source_file>  (53) 
/var/tmp/pbs.5076255.sched01/tmpgq1_80gb/0xrgip9rw.sdf

>  <i_m_source_file_index>  (53) 
27

>  <i_lp_mmshare_version>  (53) 
48012

>  <i_f3d_flags>  (53) 
0

>  <s_epik_input>  (53) 
W0NIM11PW0NASF0xW0NAQEhdKEMoPU8pW05IXTIpW0NAXShbQ0gzXSkoW0NASF0zNClbQ0gyXVtDSDJdW0NAQEhdKFtDQF01KFtDSDNdKUMoPVtDSF1bQ0gyXTYpW0NIMl1DKD1PKVtDSDJdW0NIMl01KVtDQF00NltDQEBIXShbQ0gyXTcpT1tDQEhdKFtDQEhdM1tDSF0xW0NAXTI3OClbQ0BAXShbQ0gzXSkoW09IXSlbQ0BASF0oW0NIMl04KVtDSDNd

>  <s_epik_cmdline>  (53) 
J2VwaWtfcHl0aG9uJywgJy1waHQnLCAnMi4wJywgJy1waCcsICc3LjAnLCAnLXRuJywgJzgnLCAnLW1hJywgJzIwMCcsICctaW1hZScsICc8aW5maWxlLm1hZT4nLCAnLW9tYWUnLCAnPG91dGZpbGUubWFlPic=

>  <r_lp_tautomer_probability>  (53) 
1

>  <r_epik_Ionization_Penalty>  (53) 
1.13747e-07

>  <r_epik_Ionization_Penalty_Charging>  (53) 
0

>  <r_epik_Ionization_Penalty_Neutral>  (53) 
1.13747e-07

>  <r_epik_State_Penalty>  (53) 
-0

>  <r_epik_Charging_Adjusted_Penalty>  (53) 
0

>  <i_epik_Tot_Q>  (53) 
0

>  <i_epik_Tot_abs_Q>  (53) 
0

>  <s_lp_Force_Field>  (53) 
OPLS3e

>  <r_lp_Energy>  (53) 
181.849

>  <b_lp_Chiralities_Consistent>  (53) 
1

>  <s_lp_Variant>  (53) 
20:0-1

>  <s_i_glide_gridfile>  (53) 
pfpi4k_grid

>  <i_i_glide_lignum>  (53) 
27

>  <i_i_glide_rotatable_bonds>  (53) 
2

>  <r_i_docking_score>  (53) 
-2.38564

>  <r_i_glide_ligand_efficiency>  (53) 
-0.0644767

>  <r_i_glide_ligand_efficiency_sa>  (53) 
-0.214851

>  <r_i_glide_ligand_efficiency_ln>  (53) 
-0.517389

>  <r_i_glide_gscore>  (53) 
-2.38564

>  <r_i_glide_lipo>  (53) 
-0.274648

>  <r_i_glide_hbond>  (53) 
-0.0623492

>  <r_i_glide_metal>  (53) 
-0

>  <r_i_glide_rewards>  (53) 
-0.00600716

>  <r_i_glide_evdw>  (53) 
-22.9699

>  <r_i_glide_ecoul>  (53) 
-5.63593

>  <r_i_glide_erotb>  (53) 
0

>  <r_i_glide_esite>  (53) 
-0.0487501

>  <r_i_glide_emodel>  (53) 
-32.5237

>  <r_i_glide_energy>  (53) 
-28.6058

>  <r_i_glide_einternal>  (53) 
1.23814

>  <r_i_glide_intrahb_reward>  (53) 
-0

>  <i_i_glide_confnum>  (53) 
2

>  <i_i_glide_posenum>  (53) 
32

>  <r_i_glide_eff_state_penalty>  (53) 
0

>  <ligand_id>  (53) 
20

>  <original_smiles>  (53) 
COC1C2C3C4OC5CC2(CC(C)C4(C)O)NC(=O)C1C1(C)CCC2C4(C)CCC(=O)CC4=CCC52C31

>  <smiles>  (53) 
[H]OC1(C([H])([H])[H])C2([H])OC3([H])C([H])([H])C4(N([H])C(=O)C5([H])C([H])(OC([H])([H])[H])C4([H])C2([H])C2([H])C5(C([H])([H])[H])C([H])([H])C([H])([H])C4([H])C5(C([H])([H])[H])C(=C([H])C([H])([H])C342)C([H])([H])C(=O)C([H])([H])C5([H])[H])C([H])([H])C1([H])C([H])([H])[H]

$$$$
20:0:2
     RDKit          3D

 80 87  0  0  1  0  0  0  0  0999 V2000
    5.1300  -10.7038    3.8354 C   0  0  0  0  0  0  0  0  0  0  0  0
    5.3730   -9.4035    3.2983 O   0  0  0  0  0  0  0  0  0  0  0  0
    4.8711   -8.3150    4.0829 C   0  0  2  0  0  0  0  0  0  0  0  0
    3.3543   -8.0928    3.8781 C   0  0  1  0  0  0  0  0  0  0  0  0
    2.8004   -7.1463    4.8835 C   0  0  2  0  0  0  0  0  0  0  0  0
    1.2512   -7.1287    4.8294 C   0  0  1  0  0  0  0  0  0  0  0  0
    0.7838   -5.9319    4.2006 O   0  0  0  0  0  0  0  0  0  0  0  0
    1.6271   -5.3462    3.2172 C   0  0  2  0  0  0  0  0  0  0  0  0
    1.8892   -6.4506    2.1602 C   0  0  0  0  0  0  0  0  0  0  0  0
    2.8902   -7.6581    2.4483 C   0  0  2  0  0  0  0  0  0  0  0  0
    2.0646   -8.8993    2.0346 C   0  0  0  0  0  0  0  0  0  0  0  0
    0.7126   -9.0598    2.8652 C   0  0  1  0  0  0  0  0  0  0  0  0
    0.2268  -10.5147    2.7350 C   0  0  0  0  0  0  0  0  0  0  0  0
    0.5427   -8.4888    4.3679 C   0  0  1  0  0  0  0  0  0  0  0  0
    0.7536   -9.5711    5.4693 C   0  0  0  0  0  0  0  0  0  0  0  0
   -0.8426   -8.2230    4.5267 O   0  0  0  0  0  0  0  0  0  0  0  0
    4.1181   -7.3408    1.6793 N   0  0  0  0  0  0  0  0  0  0  0  0
    5.2396   -6.7728    2.2173 C   0  0  0  0  0  0  0  0  0  0  0  0
    6.0585   -6.1796    1.5143 O   0  0  0  0  0  0  0  0  0  0  0  0
    5.5385   -6.9711    3.7342 C   0  0  1  0  0  0  0  0  0  0  0  0
    5.0626   -5.8570    4.7889 C   0  0  1  0  0  0  0  0  0  0  0  0
    5.5332   -6.2783    6.2182 C   0  0  0  0  0  0  0  0  0  0  0  0
    5.6067   -4.3966    4.6471 C   0  0  0  0  0  0  0  0  0  0  0  0
    4.5918   -3.1952    4.9177 C   0  0  0  0  0  0  0  0  0  0  0  0
    3.0329   -3.3995    4.6378 C   0  0  1  0  0  0  0  0  0  0  0  0
    2.2265   -2.1288    4.1433 C   0  0  1  0  0  0  0  0  0  0  0  0
    0.7465   -2.2916    4.5865 C   0  0  0  0  0  0  0  0  0  0  0  0
    2.7545   -0.8033    4.7818 C   0  0  0  0  0  0  0  0  0  0  0  0
    2.0598    0.4751    4.2630 C   0  0  0  0  0  0  0  0  0  0  0  0
    2.0583    0.5173    2.7378 C   0  0  0  0  0  0  0  0  0  0  0  0
    2.3582    1.5363    2.1209 O   0  0  0  0  0  0  0  0  0  0  0  0
    1.6164   -0.7520    2.0219 C   0  0  0  0  0  0  0  0  0  0  0  0
    2.2840   -1.9878    2.6194 C   0  0  0  0  0  0  0  0  0  0  0  0
    2.9168   -2.8834    1.8517 C   0  0  0  0  0  0  0  0  0  0  0  0
    3.6137   -4.1175    2.3958 C   0  0  0  0  0  0  0  0  0  0  0  0
    2.9402   -4.6823    3.7367 C   0  0  2  0  0  0  0  0  0  0  0  0
    3.5267   -5.7729    4.7464 C   0  0  1  0  0  0  0  0  0  0  0  0
    5.4339  -11.4659    3.1155 H   0  0  0  0  0  0  0  0  0  0  0  0
    4.0788  -10.8864    4.0635 H   0  0  0  0  0  0  0  0  0  0  0  0
    5.7080  -10.8567    4.7490 H   0  0  0  0  0  0  0  0  0  0  0  0
    5.0867   -8.5886    5.1120 H   0  0  0  0  0  0  0  0  0  0  0  0
    2.9716   -9.0642    4.1409 H   0  0  0  0  0  0  0  0  0  0  0  0
    3.0476   -7.5755    5.8530 H   0  0  0  0  0  0  0  0  0  0  0  0
    0.9373   -6.9602    5.8593 H   0  0  0  0  0  0  0  0  0  0  0  0
    1.0169   -4.5889    2.7277 H   0  0  0  0  0  0  0  0  0  0  0  0
    0.8956   -6.7810    1.8895 H   0  0  0  0  0  0  0  0  0  0  0  0
    2.1363   -6.0131    1.1949 H   0  0  0  0  0  0  0  0  0  0  0  0
    1.8209   -8.8516    0.9725 H   0  0  0  0  0  0  0  0  0  0  0  0
    2.6757   -9.7994    2.1279 H   0  0  0  0  0  0  0  0  0  0  0  0
   -0.0409   -8.5294    2.2847 H   0  0  0  0  0  0  0  0  0  0  0  0
    0.8910  -11.2212    3.2357 H   0  0  0  0  0  0  0  0  0  0  0  0
    0.1542  -10.8141    1.6891 H   0  0  0  0  0  0  0  0  0  0  0  0
   -0.7631  -10.6193    3.1729 H   0  0  0  0  0  0  0  0  0  0  0  0
    1.7369  -10.0352    5.4651 H   0  0  0  0  0  0  0  0  0  0  0  0
    0.0408  -10.3911    5.3905 H   0  0  0  0  0  0  0  0  0  0  0  0
    0.6105   -9.1555    6.4673 H   0  0  0  0  0  0  0  0  0  0  0  0
   -1.3057   -9.0532    4.5133 H   0  0  0  0  0  0  0  0  0  0  0  0
    4.0261   -7.2830    0.6794 H   0  0  0  0  0  0  0  0  0  0  0  0
    6.6166   -7.0900    3.8256 H   0  0  0  0  0  0  0  0  0  0  0  0
    5.3259   -5.5008    6.9553 H   0  0  0  0  0  0  0  0  0  0  0  0
    6.6082   -6.4629    6.2434 H   0  0  0  0  0  0  0  0  0  0  0  0
    5.0567   -7.1700    6.6183 H   0  0  0  0  0  0  0  0  0  0  0  0
    6.4555   -4.2496    5.3151 H   0  0  0  0  0  0  0  0  0  0  0  0
    6.1008   -4.3120    3.6832 H   0  0  0  0  0  0  0  0  0  0  0  0
    4.7123   -2.8509    5.9451 H   0  0  0  0  0  0  0  0  0  0  0  0
    4.9704   -2.3784    4.3069 H   0  0  0  0  0  0  0  0  0  0  0  0
    2.5786   -3.5859    5.6115 H   0  0  0  0  0  0  0  0  0  0  0  0
    0.6639   -2.3118    5.6751 H   0  0  0  0  0  0  0  0  0  0  0  0
    0.2985   -3.2107    4.2157 H   0  0  0  0  0  0  0  0  0  0  0  0
    0.1119   -1.4769    4.2354 H   0  0  0  0  0  0  0  0  0  0  0  0
    2.6749   -0.8456    5.8699 H   0  0  0  0  0  0  0  0  0  0  0  0
    3.8118   -0.6602    4.5691 H   0  0  0  0  0  0  0  0  0  0  0  0
    1.0285    0.5268    4.6098 H   0  0  0  0  0  0  0  0  0  0  0  0
    2.5622    1.3632    4.6472 H   0  0  0  0  0  0  0  0  0  0  0  0
    0.5359   -0.8341    2.0967 H   0  0  0  0  0  0  0  0  0  0  0  0
    1.8617   -0.6616    0.9660 H   0  0  0  0  0  0  0  0  0  0  0  0
    2.9702   -2.7309    0.7822 H   0  0  0  0  0  0  0  0  0  0  0  0
    3.6674   -4.7901    1.5580 H   0  0  0  0  0  0  0  0  0  0  0  0
    4.6322   -3.7695    2.4594 H   0  0  0  0  0  0  0  0  0  0  0  0
    3.2804   -5.4367    5.7515 H   0  0  0  0  0  0  0  0  0  0  0  0
  1  2  1  0
  1 38  1  0
  1 39  1  0
  1 40  1  0
  2  3  1  0
  3 20  1  0
  3  4  1  0
  3 41  1  1
  4 10  1  0
  4  5  1  0
  4 42  1  1
  5 37  1  0
  5  6  1  0
  5 43  1  1
  6 14  1  0
  6  7  1  0
  6 44  1  1
  7  8  1  0
  8 36  1  0
  8  9  1  0
  8 45  1  6
  9 10  1  0
  9 46  1  0
  9 47  1  0
 10 11  1  0
 10 17  1  6
 11 12  1  0
 11 48  1  0
 11 49  1  0
 12 13  1  0
 12 14  1  0
 12 50  1  6
 13 51  1  0
 13 52  1  0
 13 53  1  0
 14 15  1  0
 14 16  1  6
 15 54  1  0
 15 55  1  0
 15 56  1  0
 16 57  1  0
 17 18  1  0
 17 58  1  0
 18 19  2  0
 18 20  1  0
 20 21  1  0
 20 59  1  6
 21 37  1  0
 21 22  1  1
 21 23  1  0
 22 60  1  0
 22 61  1  0
 22 62  1  0
 23 24  1  0
 23 63  1  0
 23 64  1  0
 24 25  1  0
 24 65  1  0
 24 66  1  0
 25 36  1  0
 25 26  1  0
 25 67  1  1
 26 33  1  0
 26 27  1  6
 26 28  1  0
 27 68  1  0
 27 69  1  0
 27 70  1  0
 28 29  1  0
 28 71  1  0
 28 72  1  0
 29 30  1  0
 29 73  1  0
 29 74  1  0
 30 31  2  0
 30 32  1  0
 32 33  1  0
 32 75  1  0
 32 76  1  0
 33 34  2  0
 34 35  1  0
 34 77  1  0
 36 35  1  6
 35 78  1  0
 35 79  1  0
 36 37  1  0
 37 80  1  1
M  END
>  <i_m_ct_stereo_status>  (54) 
1

>  <s_m_source_file>  (54) 
/var/tmp/pbs.5076255.sched01/tmpgq1_80gb/0xrgip9rw.sdf

>  <i_m_source_file_index>  (54) 
27

>  <i_lp_mmshare_version>  (54) 
48012

>  <i_f3d_flags>  (54) 
0

>  <s_epik_input>  (54) 
W0NIM11PW0NASF0xW0NAQEhdKEMoPU8pW05IXTIpW0NAXShbQ0gzXSkoW0NASF0zNClbQ0gyXVtDSDJdW0NAQEhdKFtDQF01KFtDSDNdKUMoPVtDSF1bQ0gyXTYpW0NIMl1DKD1PKVtDSDJdW0NIMl01KVtDQF00NltDQEBIXShbQ0gyXTcpT1tDQEhdKFtDQEhdM1tDSF0xW0NAXTI3OClbQ0BAXShbQ0gzXSkoW09IXSlbQ0BASF0oW0NIMl04KVtDSDNd

>  <s_epik_cmdline>  (54) 
J2VwaWtfcHl0aG9uJywgJy1waHQnLCAnMi4wJywgJy1waCcsICc3LjAnLCAnLXRuJywgJzgnLCAnLW1hJywgJzIwMCcsICctaW1hZScsICc8aW5maWxlLm1hZT4nLCAnLW9tYWUnLCAnPG91dGZpbGUubWFlPic=

>  <r_lp_tautomer_probability>  (54) 
1

>  <r_epik_Ionization_Penalty>  (54) 
1.13747e-07

>  <r_epik_Ionization_Penalty_Charging>  (54) 
0

>  <r_epik_Ionization_Penalty_Neutral>  (54) 
1.13747e-07

>  <r_epik_State_Penalty>  (54) 
-0

>  <r_epik_Charging_Adjusted_Penalty>  (54) 
0

>  <i_epik_Tot_Q>  (54) 
0

>  <i_epik_Tot_abs_Q>  (54) 
0

>  <s_lp_Force_Field>  (54) 
OPLS3e

>  <r_lp_Energy>  (54) 
181.849

>  <b_lp_Chiralities_Consistent>  (54) 
1

>  <s_lp_Variant>  (54) 
20:0-1

>  <s_i_glide_gridfile>  (54) 
pfpi4k_grid

>  <i_i_glide_lignum>  (54) 
27

>  <i_i_glide_rotatable_bonds>  (54) 
2

>  <r_i_docking_score>  (54) 
-1.8556

>  <r_i_glide_ligand_efficiency>  (54) 
-0.0501513

>  <r_i_glide_ligand_efficiency_sa>  (54) 
-0.167115

>  <r_i_glide_ligand_efficiency_ln>  (54) 
-0.402435

>  <r_i_glide_gscore>  (54) 
-1.8556

>  <r_i_glide_lipo>  (54) 
-0.171836

>  <r_i_glide_hbond>  (54) 
0

>  <r_i_glide_metal>  (54) 
-0

>  <r_i_glide_rewards>  (54) 
-0.0226981

>  <r_i_glide_evdw>  (54) 
-23.2076

>  <r_i_glide_ecoul>  (54) 
-3.24687

>  <r_i_glide_erotb>  (54) 
0

>  <r_i_glide_esite>  (54) 
-0.0136528

>  <r_i_glide_emodel>  (54) 
-29.2932

>  <r_i_glide_energy>  (54) 
-26.4544

>  <r_i_glide_einternal>  (54) 
1.38986

>  <r_i_glide_intrahb_reward>  (54) 
-0

>  <i_i_glide_confnum>  (54) 
1

>  <i_i_glide_posenum>  (54) 
11

>  <r_i_glide_eff_state_penalty>  (54) 
0

>  <ligand_id>  (54) 
20

>  <original_smiles>  (54) 
COC1C2C3C4OC5CC2(CC(C)C4(C)O)NC(=O)C1C1(C)CCC2C4(C)CCC(=O)CC4=CCC52C31

>  <smiles>  (54) 
[H]OC1(C([H])([H])[H])C2([H])OC3([H])C([H])([H])C4(N([H])C(=O)C5([H])C([H])(OC([H])([H])[H])C4([H])C2([H])C2([H])C5(C([H])([H])[H])C([H])([H])C([H])([H])C4([H])C5(C([H])([H])[H])C(=C([H])C([H])([H])C342)C([H])([H])C(=O)C([H])([H])C5([H])[H])C([H])([H])C1([H])C([H])([H])[H]

$$$$
21:0:0
     RDKit          3D

 45 47  0  0  1  0  0  0  0  0999 V2000
    7.2230   -8.5291    2.2593 C   0  0  0  0  0  0  0  0  0  0  0  0
    6.6815   -9.7656    3.0108 C   0  0  0  0  0  0  0  0  0  0  0  0
    5.3617  -10.3497    2.4622 C   0  0  0  0  0  0  0  0  0  0  0  0
    4.1441   -9.5524    2.6713 N   0  0  0  0  0  0  0  0  0  0  0  0
    2.8374  -10.2336    2.6703 C   0  0  0  0  0  0  0  0  0  0  0  0
    1.6559   -9.2900    2.9109 C   0  0  1  0  0  0  0  0  0  0  0  0
    0.3410  -10.0641    2.7055 C   0  0  0  0  0  0  0  0  0  0  0  0
    1.6654   -8.8470    4.2565 O   0  0  0  0  0  0  0  0  0  0  0  0
    1.7902   -8.1101    1.9253 C   0  0  1  0  0  0  0  0  0  0  0  0
    0.7912   -6.9652    2.1875 C   0  0  0  0  0  0  0  0  0  0  0  0
    1.0012   -5.9697    1.2005 O   0  0  0  0  0  0  0  0  0  0  0  0
    2.2235   -5.2626    1.3615 C   0  0  0  0  0  0  0  0  0  0  0  0
    3.4324   -6.2054    1.2851 C   0  0  0  0  0  0  0  0  0  0  0  0
    4.6090   -5.9046    0.6530 C   0  0  0  0  0  0  0  0  0  0  0  0
    5.0023   -4.6475   -0.0363 C   0  0  0  0  0  0  0  0  0  0  0  0
    4.1408   -3.8388   -0.8100 C   0  0  0  0  0  0  0  0  0  0  0  0
    4.5953   -2.5940   -1.2760 C   0  0  0  0  0  0  0  0  0  0  0  0
    5.8718   -2.1526   -1.1225 N   0  0  0  0  0  0  0  0  0  0  0  0
    6.7319   -2.9794   -0.4921 C   0  0  0  0  0  0  0  0  0  0  0  0
    6.3468   -4.2062    0.0843 C   0  0  0  0  0  0  0  0  0  0  0  0
    3.1967   -7.5723    1.7571 C   0  0  0  0  0  0  0  0  0  0  0  0
    4.2356   -8.3459    2.0358 N   0  0  0  0  0  0  0  0  0  0  0  0
    8.2088   -8.2285    2.6240 H   0  0  0  0  0  0  0  0  0  0  0  0
    6.5824   -7.6553    2.3799 H   0  0  0  0  0  0  0  0  0  0  0  0
    7.2956   -8.7484    1.1908 H   0  0  0  0  0  0  0  0  0  0  0  0
    7.4313  -10.5546    2.9395 H   0  0  0  0  0  0  0  0  0  0  0  0
    6.5875   -9.5529    4.0753 H   0  0  0  0  0  0  0  0  0  0  0  0
    5.4469  -10.5181    1.3868 H   0  0  0  0  0  0  0  0  0  0  0  0
    5.2013  -11.3297    2.9205 H   0  0  0  0  0  0  0  0  0  0  0  0
    2.7295  -10.6777    1.6764 H   0  0  0  0  0  0  0  0  0  0  0  0
    2.8419  -11.0421    3.4055 H   0  0  0  0  0  0  0  0  0  0  0  0
    0.2626  -10.4400    1.6982 H   0  0  0  0  0  0  0  0  0  0  0  0
   -0.5328   -9.4393    2.9177 H   0  0  0  0  0  0  0  0  0  0  0  0
    0.3004  -10.9263    3.3775 H   0  0  0  0  0  0  0  0  0  0  0  0
    1.5981   -9.6131    4.8082 H   0  0  0  0  0  0  0  0  0  0  0  0
    1.5369   -8.5038    0.9332 H   0  0  0  0  0  0  0  0  0  0  0  0
   -0.2409   -7.3207    2.0936 H   0  0  0  0  0  0  0  0  0  0  0  0
    0.9223   -6.5230    3.1809 H   0  0  0  0  0  0  0  0  0  0  0  0
    2.1852   -4.4844    0.6190 H   0  0  0  0  0  0  0  0  0  0  0  0
    2.2604   -4.7826    2.3595 H   0  0  0  0  0  0  0  0  0  0  0  0
    5.3496   -6.6825    0.5806 H   0  0  0  0  0  0  0  0  0  0  0  0
    3.1325   -4.1355   -1.0682 H   0  0  0  0  0  0  0  0  0  0  0  0
    3.9180   -1.9298   -1.7914 H   0  0  0  0  0  0  0  0  0  0  0  0
    7.7530   -2.6238   -0.4273 H   0  0  0  0  0  0  0  0  0  0  0  0
    7.0788   -4.8003    0.6055 H   0  0  0  0  0  0  0  0  0  0  0  0
  1  2  1  0
  1 23  1  0
  1 24  1  0
  1 25  1  0
  2  3  1  0
  2 26  1  0
  2 27  1  0
  3  4  1  0
  3 28  1  0
  3 29  1  0
  4 22  1  0
  4  5  1  0
  5  6  1  0
  5 30  1  0
  5 31  1  0
  6  7  1  0
  6  8  1  1
  6  9  1  0
  7 32  1  0
  7 33  1  0
  7 34  1  0
  8 35  1  0
  9 21  1  0
  9 10  1  0
  9 36  1  6
 10 11  1  0
 10 37  1  0
 10 38  1  0
 11 12  1  0
 12 13  1  0
 12 39  1  0
 12 40  1  0
 13 14  2  3
 13 21  1  0
 14 15  1  0
 14 41  1  0
 15 20  1  0
 15 16  2  0
 16 17  1  0
 16 42  1  0
 17 18  2  0
 17 43  1  0
 18 19  1  0
 19 20  2  0
 19 44  1  0
 20 45  1  0
 21 22  2  0
M  END
>  <i_m_ct_stereo_status>  (55) 
1

>  <s_m_source_file>  (55) 
/var/tmp/pbs.5076255.sched01/tmpgq1_80gb/0xrgip9rw.sdf

>  <i_m_source_file_index>  (55) 
28

>  <i_lp_mmshare_version>  (55) 
48012

>  <i_f3d_flags>  (55) 
0

>  <s_epik_input>  (55) 
W0NIM11bQ0gyXVtDSDJdTihbQ0gyXVtDQEBdMShbQ0gzXSlbT0hdKU49QyhbQ0BASF0xMilDKFxbQ0gyXU9bQ0gyXTIpPVtDSF1cYzNbY0hdW2NIXW5bY0hdW2NIXTM=

>  <s_epik_cmdline>  (55) 
J2VwaWtfcHl0aG9uJywgJy1waHQnLCAnMi4wJywgJy1waCcsICc3LjAnLCAnLXRuJywgJzgnLCAnLW1hJywgJzIwMCcsICctaW1hZScsICc8aW5maWxlLm1hZT4nLCAnLW9tYWUnLCAnPG91dGZpbGUubWFlPic=

>  <r_epik_Ionization_Penalty>  (55) 
0.039967

>  <r_epik_Ionization_Penalty_Charging>  (55) 
0

>  <r_epik_Ionization_Penalty_Neutral>  (55) 
0.039967

>  <r_epik_State_Penalty>  (55) 
0.0332195

>  <r_epik_Charging_Adjusted_Penalty>  (55) 
0.0332195

>  <i_epik_Tot_Q>  (55) 
0

>  <i_epik_Tot_abs_Q>  (55) 
0

>  <s_epik_Chemistry_Notes>  (55) 
This compound has an imine and may undergo hydrolysis.

>  <s_lp_Force_Field>  (55) 
OPLS3e

>  <r_lp_Energy>  (55) 
29.8238

>  <b_lp_Chiralities_Consistent>  (55) 
1

>  <s_lp_Variant>  (55) 
21:0-1

>  <s_i_glide_gridfile>  (55) 
pfpi4k_grid

>  <i_i_glide_lignum>  (55) 
28

>  <i_i_glide_rotatable_bonds>  (55) 
4

>  <r_i_docking_score>  (55) 
-3.80721

>  <r_i_glide_ligand_efficiency>  (55) 
-0.173055

>  <r_i_glide_ligand_efficiency_sa>  (55) 
-0.484907

>  <r_i_glide_ligand_efficiency_ln>  (55) 
-0.93062

>  <r_i_glide_gscore>  (55) 
-3.80721

>  <r_i_glide_lipo>  (55) 
-0.494342

>  <r_i_glide_hbond>  (55) 
-0.16

>  <r_i_glide_metal>  (55) 
-0

>  <r_i_glide_rewards>  (55) 
-1.38909

>  <r_i_glide_evdw>  (55) 
-22.3657

>  <r_i_glide_ecoul>  (55) 
-5.42904

>  <r_i_glide_erotb>  (55) 
0.202529

>  <r_i_glide_esite>  (55) 
-0.0336654

>  <r_i_glide_emodel>  (55) 
-33.2278

>  <r_i_glide_energy>  (55) 
-27.7947

>  <r_i_glide_einternal>  (55) 
2.47902

>  <r_i_glide_intrahb_reward>  (55) 
-0

>  <i_i_glide_confnum>  (55) 
3

>  <i_i_glide_posenum>  (55) 
35

>  <r_i_glide_eff_state_penalty>  (55) 
0

>  <ligand_id>  (55) 
21

>  <original_smiles>  (55) 
CCCN1CC(C)(O)C2COCC(=Cc3ccncc3)C2=N1

>  <smiles>  (55) 
[H]OC1(C([H])([H])[H])C([H])([H])N(C([H])([H])C([H])([H])C([H])([H])[H])N=C2C(=C([H])c3c([H])c([H])nc([H])c3[H])C([H])([H])OC([H])([H])C21[H]

$$$$
21:0:1
     RDKit          3D

 45 47  0  0  1  0  0  0  0  0999 V2000
    7.5584  -10.9204    3.9214 C   0  0  0  0  0  0  0  0  0  0  0  0
    6.3422   -9.9929    3.9670 C   0  0  0  0  0  0  0  0  0  0  0  0
    5.1491  -10.5793    3.1856 C   0  0  0  0  0  0  0  0  0  0  0  0
    3.9420   -9.7547    3.1828 N   0  0  0  0  0  0  0  0  0  0  0  0
    2.6437  -10.4220    3.0207 C   0  0  0  0  0  0  0  0  0  0  0  0
    1.4560   -9.4542    3.0195 C   0  0  1  0  0  0  0  0  0  0  0  0
    0.1667  -10.2316    2.6785 C   0  0  0  0  0  0  0  0  0  0  0  0
    1.2716   -8.9329    4.3226 O   0  0  0  0  0  0  0  0  0  0  0  0
    1.7490   -8.3379    1.9934 C   0  0  1  0  0  0  0  0  0  0  0  0
    0.7330   -7.1824    2.0272 C   0  0  0  0  0  0  0  0  0  0  0  0
    1.0758   -6.2470    1.0218 O   0  0  0  0  0  0  0  0  0  0  0  0
    2.2875   -5.5448    1.2978 C   0  0  0  0  0  0  0  0  0  0  0  0
    3.4881   -6.4944    1.4705 C   0  0  0  0  0  0  0  0  0  0  0  0
    4.7479   -6.2470    0.9908 C   0  0  0  0  0  0  0  0  0  0  0  0
    5.2318   -5.0478    0.2593 C   0  0  0  0  0  0  0  0  0  0  0  0
    6.5405   -4.5700    0.4791 C   0  0  0  0  0  0  0  0  0  0  0  0
    6.9571   -3.3794   -0.1597 C   0  0  0  0  0  0  0  0  0  0  0  0
    6.1452   -2.6416   -0.9565 N   0  0  0  0  0  0  0  0  0  0  0  0
    4.9071   -3.1292   -1.1955 C   0  0  0  0  0  0  0  0  0  0  0  0
    4.4245   -4.3325   -0.6522 C   0  0  0  0  0  0  0  0  0  0  0  0
    3.1831   -7.8188    2.0301 C   0  0  0  0  0  0  0  0  0  0  0  0
    4.1458   -8.5529    2.5143 N   0  0  0  0  0  0  0  0  0  0  0  0
    8.3942  -10.5018    4.4836 H   0  0  0  0  0  0  0  0  0  0  0  0
    7.8992  -11.0877    2.8935 H   0  0  0  0  0  0  0  0  0  0  0  0
    7.3275  -11.8965    4.3508 H   0  0  0  0  0  0  0  0  0  0  0  0
    6.0529   -9.8335    5.0114 H   0  0  0  0  0  0  0  0  0  0  0  0
    6.6204   -9.0224    3.5657 H   0  0  0  0  0  0  0  0  0  0  0  0
    5.4298  -10.7498    2.1442 H   0  0  0  0  0  0  0  0  0  0  0  0
    4.8969  -11.5499    3.6088 H   0  0  0  0  0  0  0  0  0  0  0  0
    2.6847  -10.9504    2.0693 H   0  0  0  0  0  0  0  0  0  0  0  0
    2.5234  -11.1733    3.7961 H   0  0  0  0  0  0  0  0  0  0  0  0
    0.2138  -10.6616    1.6842 H   0  0  0  0  0  0  0  0  0  0  0  0
   -0.7189   -9.5979    2.7264 H   0  0  0  0  0  0  0  0  0  0  0  0
    0.0203  -11.0499    3.3821 H   0  0  0  0  0  0  0  0  0  0  0  0
    1.0964   -9.6606    4.9002 H   0  0  0  0  0  0  0  0  0  0  0  0
    1.6576   -8.7916    1.0037 H   0  0  0  0  0  0  0  0  0  0  0  0
   -0.2775   -7.5440    1.8142 H   0  0  0  0  0  0  0  0  0  0  0  0
    0.7143   -6.6814    3.0001 H   0  0  0  0  0  0  0  0  0  0  0  0
    2.3628   -4.8205    0.5232 H   0  0  0  0  0  0  0  0  0  0  0  0
    2.1864   -5.0035    2.2452 H   0  0  0  0  0  0  0  0  0  0  0  0
    5.4965   -7.0248    1.0809 H   0  0  0  0  0  0  0  0  0  0  0  0
    7.2230   -5.0928    1.1270 H   0  0  0  0  0  0  0  0  0  0  0  0
    7.9578   -2.9938   -0.0240 H   0  0  0  0  0  0  0  0  0  0  0  0
    4.2696   -2.5437   -1.8431 H   0  0  0  0  0  0  0  0  0  0  0  0
    3.4594   -4.6702   -0.9449 H   0  0  0  0  0  0  0  0  0  0  0  0
  1  2  1  0
  1 23  1  0
  1 24  1  0
  1 25  1  0
  2  3  1  0
  2 26  1  0
  2 27  1  0
  3  4  1  0
  3 28  1  0
  3 29  1  0
  4 22  1  0
  4  5  1  0
  5  6  1  0
  5 30  1  0
  5 31  1  0
  6  7  1  0
  6  8  1  1
  6  9  1  0
  7 32  1  0
  7 33  1  0
  7 34  1  0
  8 35  1  0
  9 21  1  0
  9 10  1  0
  9 36  1  6
 10 11  1  0
 10 37  1  0
 10 38  1  0
 11 12  1  0
 12 13  1  0
 12 39  1  0
 12 40  1  0
 13 14  2  3
 13 21  1  0
 14 15  1  0
 14 41  1  0
 15 20  1  0
 15 16  2  0
 16 17  1  0
 16 42  1  0
 17 18  2  0
 17 43  1  0
 18 19  1  0
 19 20  2  0
 19 44  1  0
 20 45  1  0
 21 22  2  0
M  END
>  <i_m_ct_stereo_status>  (56) 
1

>  <s_m_source_file>  (56) 
/var/tmp/pbs.5076255.sched01/tmpgq1_80gb/0xrgip9rw.sdf

>  <i_m_source_file_index>  (56) 
28

>  <i_lp_mmshare_version>  (56) 
48012

>  <i_f3d_flags>  (56) 
0

>  <s_epik_input>  (56) 
W0NIM11bQ0gyXVtDSDJdTihbQ0gyXVtDQEBdMShbQ0gzXSlbT0hdKU49QyhbQ0BASF0xMilDKFxbQ0gyXU9bQ0gyXTIpPVtDSF1cYzNbY0hdW2NIXW5bY0hdW2NIXTM=

>  <s_epik_cmdline>  (56) 
J2VwaWtfcHl0aG9uJywgJy1waHQnLCAnMi4wJywgJy1waCcsICc3LjAnLCAnLXRuJywgJzgnLCAnLW1hJywgJzIwMCcsICctaW1hZScsICc8aW5maWxlLm1hZT4nLCAnLW9tYWUnLCAnPG91dGZpbGUubWFlPic=

>  <r_epik_Ionization_Penalty>  (56) 
0.039967

>  <r_epik_Ionization_Penalty_Charging>  (56) 
0

>  <r_epik_Ionization_Penalty_Neutral>  (56) 
0.039967

>  <r_epik_State_Penalty>  (56) 
0.0332195

>  <r_epik_Charging_Adjusted_Penalty>  (56) 
0.0332195

>  <i_epik_Tot_Q>  (56) 
0

>  <i_epik_Tot_abs_Q>  (56) 
0

>  <s_epik_Chemistry_Notes>  (56) 
This compound has an imine and may undergo hydrolysis.

>  <s_lp_Force_Field>  (56) 
OPLS3e

>  <r_lp_Energy>  (56) 
29.8238

>  <b_lp_Chiralities_Consistent>  (56) 
1

>  <s_lp_Variant>  (56) 
21:0-1

>  <s_i_glide_gridfile>  (56) 
pfpi4k_grid

>  <i_i_glide_lignum>  (56) 
28

>  <i_i_glide_rotatable_bonds>  (56) 
4

>  <r_i_docking_score>  (56) 
-3.79886

>  <r_i_glide_ligand_efficiency>  (56) 
-0.172676

>  <r_i_glide_ligand_efficiency_sa>  (56) 
-0.483844

>  <r_i_glide_ligand_efficiency_ln>  (56) 
-0.92858

>  <r_i_glide_gscore>  (56) 
-3.79886

>  <r_i_glide_lipo>  (56) 
-0.664317

>  <r_i_glide_hbond>  (56) 
-0.16

>  <r_i_glide_metal>  (56) 
-0

>  <r_i_glide_rewards>  (56) 
-1.3542

>  <r_i_glide_evdw>  (56) 
-22.0374

>  <r_i_glide_ecoul>  (56) 
-4.65713

>  <r_i_glide_erotb>  (56) 
0.202529

>  <r_i_glide_esite>  (56) 
-0.0224285

>  <r_i_glide_emodel>  (56) 
-32.6427

>  <r_i_glide_energy>  (56) 
-26.6946

>  <r_i_glide_einternal>  (56) 
1.16555

>  <r_i_glide_intrahb_reward>  (56) 
-0

>  <i_i_glide_confnum>  (56) 
3

>  <i_i_glide_posenum>  (56) 
30

>  <r_i_glide_eff_state_penalty>  (56) 
0

>  <ligand_id>  (56) 
21

>  <original_smiles>  (56) 
CCCN1CC(C)(O)C2COCC(=Cc3ccncc3)C2=N1

>  <smiles>  (56) 
[H]OC1(C([H])([H])[H])C([H])([H])N(C([H])([H])C([H])([H])C([H])([H])[H])N=C2C(=C([H])c3c([H])c([H])nc([H])c3[H])C([H])([H])OC([H])([H])C21[H]

$$$$
21:0:2
     RDKit          3D

 45 47  0  0  1  0  0  0  0  0999 V2000
    6.9921   -7.4754    1.7123 C   0  0  0  0  0  0  0  0  0  0  0  0
    6.6362   -8.9409    1.4318 C   0  0  0  0  0  0  0  0  0  0  0  0
    5.1727   -9.1832    0.9999 C   0  0  0  0  0  0  0  0  0  0  0  0
    4.1334   -8.7721    1.9398 N   0  0  0  0  0  0  0  0  0  0  0  0
    2.9310   -9.6112    2.0845 C   0  0  0  0  0  0  0  0  0  0  0  0
    1.9288   -9.0635    3.1064 C   0  0  1  0  0  0  0  0  0  0  0  0
    0.6386   -9.9078    3.0586 C   0  0  0  0  0  0  0  0  0  0  0  0
    2.4573   -9.2060    4.4145 O   0  0  0  0  0  0  0  0  0  0  0  0
    1.6591   -7.5827    2.7653 C   0  0  1  0  0  0  0  0  0  0  0  0
    0.8295   -6.8398    3.8261 C   0  0  0  0  0  0  0  0  0  0  0  0
    0.6271   -5.5125    3.3676 O   0  0  0  0  0  0  0  0  0  0  0  0
    1.8081   -4.7164    3.3922 C   0  0  0  0  0  0  0  0  0  0  0  0
    2.9100   -5.3197    2.5039 C   0  0  0  0  0  0  0  0  0  0  0  0
    3.7502   -4.5897    1.7036 C   0  0  0  0  0  0  0  0  0  0  0  0
    3.7985   -3.1131    1.5306 C   0  0  0  0  0  0  0  0  0  0  0  0
    5.0398   -2.4698    1.3397 C   0  0  0  0  0  0  0  0  0  0  0  0
    5.0863   -1.0569    1.2705 C   0  0  0  0  0  0  0  0  0  0  0  0
    3.9873   -0.2781    1.4168 N   0  0  0  0  0  0  0  0  0  0  0  0
    2.7972   -0.9010    1.5414 C   0  0  0  0  0  0  0  0  0  0  0  0
    2.6412   -2.2993    1.5604 C   0  0  0  0  0  0  0  0  0  0  0  0
    2.9018   -6.7876    2.3854 C   0  0  0  0  0  0  0  0  0  0  0  0
    3.9607   -7.3996    1.9154 N   0  0  0  0  0  0  0  0  0  0  0  0
    8.0551   -7.3489    1.9385 H   0  0  0  0  0  0  0  0  0  0  0  0
    6.4362   -7.0898    2.5708 H   0  0  0  0  0  0  0  0  0  0  0  0
    6.7427   -6.8501    0.8540 H   0  0  0  0  0  0  0  0  0  0  0  0
    7.2758   -9.3006    0.6222 H   0  0  0  0  0  0  0  0  0  0  0  0
    6.8819   -9.5531    2.2979 H   0  0  0  0  0  0  0  0  0  0  0  0
    4.9788   -8.6610    0.0636 H   0  0  0  0  0  0  0  0  0  0  0  0
    5.0518  -10.2486    0.8111 H   0  0  0  0  0  0  0  0  0  0  0  0
    2.4631   -9.6495    1.0989 H   0  0  0  0  0  0  0  0  0  0  0  0
    3.2290  -10.6248    2.3436 H   0  0  0  0  0  0  0  0  0  0  0  0
    0.1586   -9.8340    2.0834 H   0  0  0  0  0  0  0  0  0  0  0  0
   -0.0852   -9.5933    3.8113 H   0  0  0  0  0  0  0  0  0  0  0  0
    0.8652  -10.9590    3.2304 H   0  0  0  0  0  0  0  0  0  0  0  0
    2.5521  -10.1285    4.5871 H   0  0  0  0  0  0  0  0  0  0  0  0
    1.0557   -7.5802    1.8524 H   0  0  0  0  0  0  0  0  0  0  0  0
   -0.1545   -7.3044    3.9471 H   0  0  0  0  0  0  0  0  0  0  0  0
    1.3210   -6.8199    4.8046 H   0  0  0  0  0  0  0  0  0  0  0  0
    1.4733   -3.7284    3.1422 H   0  0  0  0  0  0  0  0  0  0  0  0
    2.2153   -4.6882    4.4183 H   0  0  0  0  0  0  0  0  0  0  0  0
    4.4270   -5.1205    1.0480 H   0  0  0  0  0  0  0  0  0  0  0  0
    5.9563   -3.0333    1.2591 H   0  0  0  0  0  0  0  0  0  0  0  0
    6.0132   -0.5305    1.1117 H   0  0  0  0  0  0  0  0  0  0  0  0
    1.9235   -0.2658    1.6381 H   0  0  0  0  0  0  0  0  0  0  0  0
    1.6561   -2.7070    1.6130 H   0  0  0  0  0  0  0  0  0  0  0  0
  1  2  1  0
  1 23  1  0
  1 24  1  0
  1 25  1  0
  2  3  1  0
  2 26  1  0
  2 27  1  0
  3  4  1  0
  3 28  1  0
  3 29  1  0
  4 22  1  0
  4  5  1  0
  5  6  1  0
  5 30  1  0
  5 31  1  0
  6  7  1  0
  6  8  1  1
  6  9  1  0
  7 32  1  0
  7 33  1  0
  7 34  1  0
  8 35  1  0
  9 21  1  0
  9 10  1  0
  9 36  1  6
 10 11  1  0
 10 37  1  0
 10 38  1  0
 11 12  1  0
 12 13  1  0
 12 39  1  0
 12 40  1  0
 13 14  2  3
 13 21  1  0
 14 15  1  0
 14 41  1  0
 15 20  1  0
 15 16  2  0
 16 17  1  0
 16 42  1  0
 17 18  2  0
 17 43  1  0
 18 19  1  0
 19 20  2  0
 19 44  1  0
 20 45  1  0
 21 22  2  0
M  END
>  <i_m_ct_stereo_status>  (57) 
1

>  <s_m_source_file>  (57) 
/var/tmp/pbs.5076255.sched01/tmpgq1_80gb/0xrgip9rw.sdf

>  <i_m_source_file_index>  (57) 
28

>  <i_lp_mmshare_version>  (57) 
48012

>  <i_f3d_flags>  (57) 
0

>  <s_epik_input>  (57) 
W0NIM11bQ0gyXVtDSDJdTihbQ0gyXVtDQEBdMShbQ0gzXSlbT0hdKU49QyhbQ0BASF0xMilDKFxbQ0gyXU9bQ0gyXTIpPVtDSF1cYzNbY0hdW2NIXW5bY0hdW2NIXTM=

>  <s_epik_cmdline>  (57) 
J2VwaWtfcHl0aG9uJywgJy1waHQnLCAnMi4wJywgJy1waCcsICc3LjAnLCAnLXRuJywgJzgnLCAnLW1hJywgJzIwMCcsICctaW1hZScsICc8aW5maWxlLm1hZT4nLCAnLW9tYWUnLCAnPG91dGZpbGUubWFlPic=

>  <r_epik_Ionization_Penalty>  (57) 
0.039967

>  <r_epik_Ionization_Penalty_Charging>  (57) 
0

>  <r_epik_Ionization_Penalty_Neutral>  (57) 
0.039967

>  <r_epik_State_Penalty>  (57) 
0.0332195

>  <r_epik_Charging_Adjusted_Penalty>  (57) 
0.0332195

>  <i_epik_Tot_Q>  (57) 
0

>  <i_epik_Tot_abs_Q>  (57) 
0

>  <s_epik_Chemistry_Notes>  (57) 
This compound has an imine and may undergo hydrolysis.

>  <s_lp_Force_Field>  (57) 
OPLS3e

>  <r_lp_Energy>  (57) 
29.8238

>  <b_lp_Chiralities_Consistent>  (57) 
1

>  <s_lp_Variant>  (57) 
21:0-1

>  <s_i_glide_gridfile>  (57) 
pfpi4k_grid

>  <i_i_glide_lignum>  (57) 
28

>  <i_i_glide_rotatable_bonds>  (57) 
4

>  <r_i_docking_score>  (57) 
-2.92106

>  <r_i_glide_ligand_efficiency>  (57) 
-0.132775

>  <r_i_glide_ligand_efficiency_sa>  (57) 
-0.372042

>  <r_i_glide_ligand_efficiency_ln>  (57) 
-0.714013

>  <r_i_glide_gscore>  (57) 
-2.92106

>  <r_i_glide_lipo>  (57) 
-0.358275

>  <r_i_glide_hbond>  (57) 
-0.0167631

>  <r_i_glide_metal>  (57) 
-0

>  <r_i_glide_rewards>  (57) 
-1.3542

>  <r_i_glide_evdw>  (57) 
-21.0242

>  <r_i_glide_ecoul>  (57) 
-2.0893

>  <r_i_glide_erotb>  (57) 
0.202529

>  <r_i_glide_esite>  (57) 
-0.0297421

>  <r_i_glide_emodel>  (57) 
-26.0592

>  <r_i_glide_energy>  (57) 
-23.1135

>  <r_i_glide_einternal>  (57) 
3.43516

>  <r_i_glide_intrahb_reward>  (57) 
-0

>  <i_i_glide_confnum>  (57) 
4

>  <i_i_glide_posenum>  (57) 
28

>  <r_i_glide_eff_state_penalty>  (57) 
0

>  <ligand_id>  (57) 
21

>  <original_smiles>  (57) 
CCCN1CC(C)(O)C2COCC(=Cc3ccncc3)C2=N1

>  <smiles>  (57) 
[H]OC1(C([H])([H])[H])C([H])([H])N(C([H])([H])C([H])([H])C([H])([H])[H])N=C2C(=C([H])c3c([H])c([H])nc([H])c3[H])C([H])([H])OC([H])([H])C21[H]

$$$$
21:1:0
     RDKit          3D

 45 47  0  0  1  0  0  0  0  0999 V2000
    6.2238    0.4769    5.2155 C   0  0  0  0  0  0  0  0  0  0  0  0
    4.8637    1.1669    5.3231 C   0  0  0  0  0  0  0  0  0  0  0  0
    3.8763    0.7608    4.2388 C   0  0  0  0  0  0  0  0  0  0  0  0
    2.5664    1.4275    4.3378 N   0  0  0  0  0  0  0  0  0  0  0  0
    1.7446    1.6332    3.1138 C   0  0  0  0  0  0  0  0  0  0  0  0
    0.3581    1.0079    3.2192 C   0  0  1  0  0  0  0  0  0  0  0  0
   -0.4607    1.3252    1.9648 C   0  0  0  0  0  0  0  0  0  0  0  0
    0.5163   -0.4049    3.2424 O   0  0  0  0  0  0  0  0  0  0  0  0
   -0.2820    1.5102    4.5443 C   0  0  1  0  0  0  0  0  0  0  0  0
   -1.6999    0.8826    4.8167 C   0  0  0  0  0  0  0  0  0  0  0  0
   -1.9199    0.4318    6.1573 O   0  0  0  0  0  0  0  0  0  0  0  0
   -1.4208    1.3462    7.1119 C   0  0  0  0  0  0  0  0  0  0  0  0
    0.1028    1.3996    7.0930 C   0  0  0  0  0  0  0  0  0  0  0  0
    0.8189    1.5501    8.2376 C   0  0  0  0  0  0  0  0  0  0  0  0
    2.2320    1.8670    8.5550 C   0  0  0  0  0  0  0  0  0  0  0  0
    2.8402    1.2674    9.6884 C   0  0  0  0  0  0  0  0  0  0  0  0
    4.2161    1.4477    9.9248 C   0  0  0  0  0  0  0  0  0  0  0  0
    4.9897    2.1862    9.0933 N   0  0  0  0  0  0  0  0  0  0  0  0
    4.4088    2.7938    8.0508 C   0  0  0  0  0  0  0  0  0  0  0  0
    3.0280    2.7171    7.7579 C   0  0  0  0  0  0  0  0  0  0  0  0
    0.6720    1.4207    5.7572 C   0  0  0  0  0  0  0  0  0  0  0  0
    1.9651    1.3673    5.5708 N   0  0  0  0  0  0  0  0  0  0  0  0
    6.8717    0.7681    6.0410 H   0  0  0  0  0  0  0  0  0  0  0  0
    6.7465    0.7093    4.2802 H   0  0  0  0  0  0  0  0  0  0  0  0
    6.0917   -0.6048    5.2809 H   0  0  0  0  0  0  0  0  0  0  0  0
    4.4477    0.8930    6.3006 H   0  0  0  0  0  0  0  0  0  0  0  0
    5.0136    2.2478    5.2991 H   0  0  0  0  0  0  0  0  0  0  0  0
    4.3101    0.9824    3.2532 H   0  0  0  0  0  0  0  0  0  0  0  0
    3.6966   -0.3101    4.3084 H   0  0  0  0  0  0  0  0  0  0  0  0
    1.6604    2.7048    2.8929 H   0  0  0  0  0  0  0  0  0  0  0  0
    2.2685    1.2240    2.2336 H   0  0  0  0  0  0  0  0  0  0  0  0
   -0.6055    2.4059    1.8709 H   0  0  0  0  0  0  0  0  0  0  0  0
   -1.4466    0.8400    1.9826 H   0  0  0  0  0  0  0  0  0  0  0  0
    0.0880    0.9844    1.0742 H   0  0  0  0  0  0  0  0  0  0  0  0
    0.9669   -0.6652    2.4495 H   0  0  0  0  0  0  0  0  0  0  0  0
   -0.4813    2.5828    4.3762 H   0  0  0  0  0  0  0  0  0  0  0  0
   -2.4737    1.6152    4.5879 H   0  0  0  0  0  0  0  0  0  0  0  0
   -1.8719    0.0145    4.1789 H   0  0  0  0  0  0  0  0  0  0  0  0
   -1.8619    2.3456    6.9616 H   0  0  0  0  0  0  0  0  0  0  0  0
   -1.7387    1.0276    8.1075 H   0  0  0  0  0  0  0  0  0  0  0  0
    0.2013    1.5426    9.1199 H   0  0  0  0  0  0  0  0  0  0  0  0
    2.2631    0.6592   10.3714 H   0  0  0  0  0  0  0  0  0  0  0  0
    4.7130    1.0239   10.7918 H   0  0  0  0  0  0  0  0  0  0  0  0
    5.0722    3.3356    7.3899 H   0  0  0  0  0  0  0  0  0  0  0  0
    2.6193    3.2029    6.8736 H   0  0  0  0  0  0  0  0  0  0  0  0
  1  2  1  0
  1 23  1  0
  1 24  1  0
  1 25  1  0
  2  3  1  0
  2 26  1  0
  2 27  1  0
  3  4  1  0
  3 28  1  0
  3 29  1  0
  4 22  1  0
  4  5  1  0
  5  6  1  0
  5 30  1  0
  5 31  1  0
  6  7  1  0
  6  8  1  1
  6  9  1  0
  7 32  1  0
  7 33  1  0
  7 34  1  0
  8 35  1  0
  9 21  1  0
  9 10  1  0
  9 36  1  6
 10 11  1  0
 10 37  1  0
 10 38  1  0
 11 12  1  0
 12 13  1  0
 12 39  1  0
 12 40  1  0
 13 14  2  3
 13 21  1  0
 14 15  1  0
 14 41  1  0
 15 20  1  0
 15 16  2  0
 16 17  1  0
 16 42  1  0
 17 18  2  0
 17 43  1  0
 18 19  1  0
 19 20  2  0
 19 44  1  0
 20 45  1  0
 21 22  2  0
M  END
>  <i_m_ct_stereo_status>  (58) 
1

>  <s_m_source_file>  (58) 
/var/tmp/pbs.5076255.sched01/tmpgq1_80gb/0xrgip9rw.sdf

>  <i_m_source_file_index>  (58) 
29

>  <i_lp_mmshare_version>  (58) 
48012

>  <i_f3d_flags>  (58) 
0

>  <s_epik_input>  (58) 
W0NIM11bQ0gyXVtDSDJdTihbQ0gyXVtDQEBdMShbQ0gzXSlbT0hdKU49QyhbQ0BASF0xMilDKFxbQ0gyXU9bQ0gyXTIpPVtDSF1cYzNbY0hdW2NIXW5bY0hdW2NIXTM=

>  <s_epik_cmdline>  (58) 
J2VwaWtfcHl0aG9uJywgJy1waHQnLCAnMi4wJywgJy1waCcsICc3LjAnLCAnLXRuJywgJzgnLCAnLW1hJywgJzIwMCcsICctaW1hZScsICc8aW5maWxlLm1hZT4nLCAnLW9tYWUnLCAnPG91dGZpbGUubWFlPic=

>  <r_epik_Ionization_Penalty>  (58) 
0.039967

>  <r_epik_Ionization_Penalty_Charging>  (58) 
0

>  <r_epik_Ionization_Penalty_Neutral>  (58) 
0.039967

>  <r_epik_State_Penalty>  (58) 
0.0332195

>  <r_epik_Charging_Adjusted_Penalty>  (58) 
0.0332195

>  <i_epik_Tot_Q>  (58) 
0

>  <i_epik_Tot_abs_Q>  (58) 
0

>  <s_epik_Chemistry_Notes>  (58) 
This compound has an imine and may undergo hydrolysis.

>  <s_lp_Force_Field>  (58) 
OPLS3e

>  <r_lp_Energy>  (58) 
38.2108

>  <b_lp_Chiralities_Consistent>  (58) 
1

>  <s_lp_Variant>  (58) 
21:0-2

>  <s_i_glide_gridfile>  (58) 
pfpi4k_grid

>  <i_i_glide_lignum>  (58) 
29

>  <i_i_glide_rotatable_bonds>  (58) 
4

>  <r_i_docking_score>  (58) 
-2.61734

>  <r_i_glide_ligand_efficiency>  (58) 
-0.11897

>  <r_i_glide_ligand_efficiency_sa>  (58) 
-0.333358

>  <r_i_glide_ligand_efficiency_ln>  (58) 
-0.639773

>  <r_i_glide_gscore>  (58) 
-2.61734

>  <r_i_glide_lipo>  (58) 
-0.172703

>  <r_i_glide_hbond>  (58) 
-0.143115

>  <r_i_glide_metal>  (58) 
-0

>  <r_i_glide_rewards>  (58) 
-1.3542

>  <r_i_glide_evdw>  (58) 
-13.8844

>  <r_i_glide_ecoul>  (58) 
-3.01506

>  <r_i_glide_erotb>  (58) 
0.202529

>  <r_i_glide_esite>  (58) 
-0.00336301

>  <r_i_glide_emodel>  (58) 
-19.0796

>  <r_i_glide_energy>  (58) 
-16.8995

>  <r_i_glide_einternal>  (58) 
0.714779

>  <r_i_glide_intrahb_reward>  (58) 
-0

>  <i_i_glide_confnum>  (58) 
6

>  <i_i_glide_posenum>  (58) 
32

>  <r_i_glide_eff_state_penalty>  (58) 
0

>  <ligand_id>  (58) 
21

>  <original_smiles>  (58) 
CCCN1CC(C)(O)C2COCC(=Cc3ccncc3)C2=N1

>  <smiles>  (58) 
[H]OC1(C([H])([H])[H])C([H])([H])N(C([H])([H])C([H])([H])C([H])([H])[H])N=C2C(=C([H])c3c([H])c([H])nc([H])c3[H])C([H])([H])OC([H])([H])C21[H]

$$$$
21:1:1
     RDKit          3D

 45 47  0  0  1  0  0  0  0  0999 V2000
   -1.2361    2.0718   10.2153 C   0  0  0  0  0  0  0  0  0  0  0  0
   -1.5740    2.1048    8.7134 C   0  0  0  0  0  0  0  0  0  0  0  0
   -0.3747    1.7865    7.8088 C   0  0  0  0  0  0  0  0  0  0  0  0
   -0.6666    1.7412    6.3845 N   0  0  0  0  0  0  0  0  0  0  0  0
   -1.0334    2.9778    5.6363 C   0  0  0  0  0  0  0  0  0  0  0  0
   -0.0712    3.2410    4.4766 C   0  0  1  0  0  0  0  0  0  0  0  0
   -0.5947    4.4506    3.6787 C   0  0  0  0  0  0  0  0  0  0  0  0
    1.1798    3.6257    5.0280 O   0  0  0  0  0  0  0  0  0  0  0  0
    0.0522    1.9552    3.6253 C   0  0  1  0  0  0  0  0  0  0  0  0
    1.0799    2.0734    2.4388 C   0  0  0  0  0  0  0  0  0  0  0  0
    2.0175    1.0118    2.3263 O   0  0  0  0  0  0  0  0  0  0  0  0
    1.3898   -0.2577    2.4441 C   0  0  0  0  0  0  0  0  0  0  0  0
    0.8506   -0.4869    3.8628 C   0  0  0  0  0  0  0  0  0  0  0  0
    1.0264   -1.7175    4.4507 C   0  0  0  0  0  0  0  0  0  0  0  0
    0.7021   -2.2826    5.7832 C   0  0  0  0  0  0  0  0  0  0  0  0
    0.8445   -1.5819    7.0044 C   0  0  0  0  0  0  0  0  0  0  0  0
    0.2888   -2.1273    8.1635 C   0  0  0  0  0  0  0  0  0  0  0  0
   -0.2811   -3.3619    8.2238 N   0  0  0  0  0  0  0  0  0  0  0  0
   -0.2296   -4.1112    7.1040 C   0  0  0  0  0  0  0  0  0  0  0  0
    0.2057   -3.6058    5.8557 C   0  0  0  0  0  0  0  0  0  0  0  0
    0.2068    0.6549    4.4919 C   0  0  0  0  0  0  0  0  0  0  0  0
   -0.2660    0.6318    5.6771 N   0  0  0  0  0  0  0  0  0  0  0  0
   -2.1153    2.2888   10.8275 H   0  0  0  0  0  0  0  0  0  0  0  0
   -0.4681    2.8040   10.4858 H   0  0  0  0  0  0  0  0  0  0  0  0
   -0.8772    1.0900   10.5214 H   0  0  0  0  0  0  0  0  0  0  0  0
   -2.3897    1.4050    8.5119 H   0  0  0  0  0  0  0  0  0  0  0  0
   -1.9518    3.0991    8.4787 H   0  0  0  0  0  0  0  0  0  0  0  0
    0.4072    2.5239    7.9858 H   0  0  0  0  0  0  0  0  0  0  0  0
    0.0417    0.8304    8.1085 H   0  0  0  0  0  0  0  0  0  0  0  0
   -2.0584    2.8647    5.2629 H   0  0  0  0  0  0  0  0  0  0  0  0
   -1.0449    3.8365    6.3172 H   0  0  0  0  0  0  0  0  0  0  0  0
   -1.5718    4.2085    3.2556 H   0  0  0  0  0  0  0  0  0  0  0  0
    0.0870    4.7168    2.8795 H   0  0  0  0  0  0  0  0  0  0  0  0
   -0.6953    5.3082    4.3469 H   0  0  0  0  0  0  0  0  0  0  0  0
    1.8027    3.7471    4.3245 H   0  0  0  0  0  0  0  0  0  0  0  0
   -0.9125    1.8409    3.1208 H   0  0  0  0  0  0  0  0  0  0  0  0
    0.5325    2.1402    1.4895 H   0  0  0  0  0  0  0  0  0  0  0  0
    1.6796    2.9867    2.5144 H   0  0  0  0  0  0  0  0  0  0  0  0
    0.5689   -0.3491    1.7323 H   0  0  0  0  0  0  0  0  0  0  0  0
    2.1161   -1.0203    2.1681 H   0  0  0  0  0  0  0  0  0  0  0  0
    1.5144   -2.4264    3.8135 H   0  0  0  0  0  0  0  0  0  0  0  0
    1.2789   -0.5851    7.0055 H   0  0  0  0  0  0  0  0  0  0  0  0
    0.2246   -1.5255    9.0575 H   0  0  0  0  0  0  0  0  0  0  0  0
   -0.5603   -5.1401    7.2043 H   0  0  0  0  0  0  0  0  0  0  0  0
    0.1661   -4.2379    4.9760 H   0  0  0  0  0  0  0  0  0  0  0  0
  1  2  1  0
  1 23  1  0
  1 24  1  0
  1 25  1  0
  2  3  1  0
  2 26  1  0
  2 27  1  0
  3  4  1  0
  3 28  1  0
  3 29  1  0
  4 22  1  0
  4  5  1  0
  5  6  1  0
  5 30  1  0
  5 31  1  0
  6  7  1  0
  6  8  1  1
  6  9  1  0
  7 32  1  0
  7 33  1  0
  7 34  1  0
  8 35  1  0
  9 21  1  0
  9 10  1  0
  9 36  1  6
 10 11  1  0
 10 37  1  0
 10 38  1  0
 11 12  1  0
 12 13  1  0
 12 39  1  0
 12 40  1  0
 13 14  2  3
 13 21  1  0
 14 15  1  0
 14 41  1  0
 15 20  1  0
 15 16  2  0
 16 17  1  0
 16 42  1  0
 17 18  2  0
 17 43  1  0
 18 19  1  0
 19 20  2  0
 19 44  1  0
 20 45  1  0
 21 22  2  0
M  END
>  <i_m_ct_stereo_status>  (59) 
1

>  <s_m_source_file>  (59) 
/var/tmp/pbs.5076255.sched01/tmpgq1_80gb/0xrgip9rw.sdf

>  <i_m_source_file_index>  (59) 
29

>  <i_lp_mmshare_version>  (59) 
48012

>  <i_f3d_flags>  (59) 
0

>  <s_epik_input>  (59) 
W0NIM11bQ0gyXVtDSDJdTihbQ0gyXVtDQEBdMShbQ0gzXSlbT0hdKU49QyhbQ0BASF0xMilDKFxbQ0gyXU9bQ0gyXTIpPVtDSF1cYzNbY0hdW2NIXW5bY0hdW2NIXTM=

>  <s_epik_cmdline>  (59) 
J2VwaWtfcHl0aG9uJywgJy1waHQnLCAnMi4wJywgJy1waCcsICc3LjAnLCAnLXRuJywgJzgnLCAnLW1hJywgJzIwMCcsICctaW1hZScsICc8aW5maWxlLm1hZT4nLCAnLW9tYWUnLCAnPG91dGZpbGUubWFlPic=

>  <r_epik_Ionization_Penalty>  (59) 
0.039967

>  <r_epik_Ionization_Penalty_Charging>  (59) 
0

>  <r_epik_Ionization_Penalty_Neutral>  (59) 
0.039967

>  <r_epik_State_Penalty>  (59) 
0.0332195

>  <r_epik_Charging_Adjusted_Penalty>  (59) 
0.0332195

>  <i_epik_Tot_Q>  (59) 
0

>  <i_epik_Tot_abs_Q>  (59) 
0

>  <s_epik_Chemistry_Notes>  (59) 
This compound has an imine and may undergo hydrolysis.

>  <s_lp_Force_Field>  (59) 
OPLS3e

>  <r_lp_Energy>  (59) 
38.2108

>  <b_lp_Chiralities_Consistent>  (59) 
1

>  <s_lp_Variant>  (59) 
21:0-2

>  <s_i_glide_gridfile>  (59) 
pfpi4k_grid

>  <i_i_glide_lignum>  (59) 
29

>  <i_i_glide_rotatable_bonds>  (59) 
4

>  <r_i_docking_score>  (59) 
-2.51718

>  <r_i_glide_ligand_efficiency>  (59) 
-0.114417

>  <r_i_glide_ligand_efficiency_sa>  (59) 
-0.320602

>  <r_i_glide_ligand_efficiency_ln>  (59) 
-0.615291

>  <r_i_glide_gscore>  (59) 
-2.51718

>  <r_i_glide_lipo>  (59) 
-0.000424976

>  <r_i_glide_hbond>  (59) 
-0.0425397

>  <r_i_glide_metal>  (59) 
-0

>  <r_i_glide_rewards>  (59) 
-1.3542

>  <r_i_glide_evdw>  (59) 
-16.8776

>  <r_i_glide_ecoul>  (59) 
-3.06804

>  <r_i_glide_erotb>  (59) 
0.202529

>  <r_i_glide_esite>  (59) 
-0.0184558

>  <r_i_glide_emodel>  (59) 
-21.9179

>  <r_i_glide_energy>  (59) 
-19.9456

>  <r_i_glide_einternal>  (59) 
1.82405

>  <r_i_glide_intrahb_reward>  (59) 
-0

>  <i_i_glide_confnum>  (59) 
5

>  <i_i_glide_posenum>  (59) 
12

>  <r_i_glide_eff_state_penalty>  (59) 
0

>  <ligand_id>  (59) 
21

>  <original_smiles>  (59) 
CCCN1CC(C)(O)C2COCC(=Cc3ccncc3)C2=N1

>  <smiles>  (59) 
[H]OC1(C([H])([H])[H])C([H])([H])N(C([H])([H])C([H])([H])C([H])([H])[H])N=C2C(=C([H])c3c([H])c([H])nc([H])c3[H])C([H])([H])OC([H])([H])C21[H]

$$$$
21:1:2
     RDKit          3D

 45 47  0  0  1  0  0  0  0  0999 V2000
    4.6383   -1.2742   -0.2390 C   0  0  0  0  0  0  0  0  0  0  0  0
    4.0501   -1.0476    1.1534 C   0  0  0  0  0  0  0  0  0  0  0  0
    2.9826    0.0427    1.1952 C   0  0  0  0  0  0  0  0  0  0  0  0
    2.3586    0.2240    2.5124 N   0  0  0  0  0  0  0  0  0  0  0  0
    1.7245    1.5164    2.8644 C   0  0  0  0  0  0  0  0  0  0  0  0
    0.2533    1.3689    3.2649 C   0  0  1  0  0  0  0  0  0  0  0  0
   -0.3156    2.7367    3.6963 C   0  0  0  0  0  0  0  0  0  0  0  0
   -0.4885    0.9812    2.1151 O   0  0  0  0  0  0  0  0  0  0  0  0
    0.1745    0.2727    4.3660 C   0  0  1  0  0  0  0  0  0  0  0  0
   -1.3019   -0.0287    4.8198 C   0  0  0  0  0  0  0  0  0  0  0  0
   -1.6388   -1.4059    4.9650 O   0  0  0  0  0  0  0  0  0  0  0  0
   -0.5991   -2.1614    5.5663 C   0  0  0  0  0  0  0  0  0  0  0  0
    0.6359   -2.2509    4.6596 C   0  0  0  0  0  0  0  0  0  0  0  0
    1.3979   -3.3765    4.6332 C   0  0  0  0  0  0  0  0  0  0  0  0
    2.7417   -3.7213    4.0887 C   0  0  0  0  0  0  0  0  0  0  0  0
    2.9465   -5.0231    3.5556 C   0  0  0  0  0  0  0  0  0  0  0  0
    4.1678   -5.3189    2.9057 C   0  0  0  0  0  0  0  0  0  0  0  0
    5.1464   -4.4124    2.7777 N   0  0  0  0  0  0  0  0  0  0  0  0
    4.9761   -3.1882    3.3365 C   0  0  0  0  0  0  0  0  0  0  0  0
    3.8210   -2.8207    4.0464 C   0  0  0  0  0  0  0  0  0  0  0  0
    0.9694   -0.9972    4.0097 C   0  0  0  0  0  0  0  0  0  0  0  0
    1.9283   -0.9524    3.1159 N   0  0  0  0  0  0  0  0  0  0  0  0
    5.3590   -2.0926   -0.2106 H   0  0  0  0  0  0  0  0  0  0  0  0
    5.1465   -0.3885   -0.6305 H   0  0  0  0  0  0  0  0  0  0  0  0
    3.8484   -1.5661   -0.9334 H   0  0  0  0  0  0  0  0  0  0  0  0
    3.6042   -1.9986    1.4610 H   0  0  0  0  0  0  0  0  0  0  0  0
    4.8650   -0.7893    1.8364 H   0  0  0  0  0  0  0  0  0  0  0  0
    3.4475    0.9934    0.8970 H   0  0  0  0  0  0  0  0  0  0  0  0
    2.1885   -0.2145    0.4914 H   0  0  0  0  0  0  0  0  0  0  0  0
    2.2875    1.9938    3.6742 H   0  0  0  0  0  0  0  0  0  0  0  0
    1.8086    2.2193    2.0255 H   0  0  0  0  0  0  0  0  0  0  0  0
    0.2204    3.1148    4.5738 H   0  0  0  0  0  0  0  0  0  0  0  0
   -1.3842    2.6613    3.9334 H   0  0  0  0  0  0  0  0  0  0  0  0
   -0.1914    3.4660    2.8825 H   0  0  0  0  0  0  0  0  0  0  0  0
   -0.2588    1.5427    1.3844 H   0  0  0  0  0  0  0  0  0  0  0  0
    0.6536    0.7080    5.2505 H   0  0  0  0  0  0  0  0  0  0  0  0
   -1.4983    0.4411    5.7910 H   0  0  0  0  0  0  0  0  0  0  0  0
   -2.0255    0.3804    4.1067 H   0  0  0  0  0  0  0  0  0  0  0  0
   -0.3386   -1.7407    6.5478 H   0  0  0  0  0  0  0  0  0  0  0  0
   -0.9602   -3.1703    5.7502 H   0  0  0  0  0  0  0  0  0  0  0  0
    0.9885   -4.1688    5.2162 H   0  0  0  0  0  0  0  0  0  0  0  0
    2.1907   -5.7858    3.6258 H   0  0  0  0  0  0  0  0  0  0  0  0
    4.3742   -6.3144    2.5023 H   0  0  0  0  0  0  0  0  0  0  0  0
    5.7765   -2.4858    3.1724 H   0  0  0  0  0  0  0  0  0  0  0  0
    3.7509   -1.8195    4.4722 H   0  0  0  0  0  0  0  0  0  0  0  0
  1  2  1  0
  1 23  1  0
  1 24  1  0
  1 25  1  0
  2  3  1  0
  2 26  1  0
  2 27  1  0
  3  4  1  0
  3 28  1  0
  3 29  1  0
  4 22  1  0
  4  5  1  0
  5  6  1  0
  5 30  1  0
  5 31  1  0
  6  7  1  0
  6  8  1  6
  6  9  1  0
  7 32  1  0
  7 33  1  0
  7 34  1  0
  8 35  1  0
  9 21  1  0
  9 10  1  0
  9 36  1  1
 10 11  1  0
 10 37  1  0
 10 38  1  0
 11 12  1  0
 12 13  1  0
 12 39  1  0
 12 40  1  0
 13 14  2  3
 13 21  1  0
 14 15  1  0
 14 41  1  0
 15 20  1  0
 15 16  2  0
 16 17  1  0
 16 42  1  0
 17 18  2  0
 17 43  1  0
 18 19  1  0
 19 20  2  0
 19 44  1  0
 20 45  1  0
 21 22  2  0
M  END
>  <i_m_ct_stereo_status>  (60) 
1

>  <s_m_source_file>  (60) 
/var/tmp/pbs.5076255.sched01/tmpgq1_80gb/0xrgip9rw.sdf

>  <i_m_source_file_index>  (60) 
29

>  <i_lp_mmshare_version>  (60) 
48012

>  <i_f3d_flags>  (60) 
0

>  <s_epik_input>  (60) 
W0NIM11bQ0gyXVtDSDJdTihbQ0gyXVtDQEBdMShbQ0gzXSlbT0hdKU49QyhbQ0BASF0xMilDKFxbQ0gyXU9bQ0gyXTIpPVtDSF1cYzNbY0hdW2NIXW5bY0hdW2NIXTM=

>  <s_epik_cmdline>  (60) 
J2VwaWtfcHl0aG9uJywgJy1waHQnLCAnMi4wJywgJy1waCcsICc3LjAnLCAnLXRuJywgJzgnLCAnLW1hJywgJzIwMCcsICctaW1hZScsICc8aW5maWxlLm1hZT4nLCAnLW9tYWUnLCAnPG91dGZpbGUubWFlPic=

>  <r_epik_Ionization_Penalty>  (60) 
0.039967

>  <r_epik_Ionization_Penalty_Charging>  (60) 
0

>  <r_epik_Ionization_Penalty_Neutral>  (60) 
0.039967

>  <r_epik_State_Penalty>  (60) 
0.0332195

>  <r_epik_Charging_Adjusted_Penalty>  (60) 
0.0332195

>  <i_epik_Tot_Q>  (60) 
0

>  <i_epik_Tot_abs_Q>  (60) 
0

>  <s_epik_Chemistry_Notes>  (60) 
This compound has an imine and may undergo hydrolysis.

>  <s_lp_Force_Field>  (60) 
OPLS3e

>  <r_lp_Energy>  (60) 
38.2108

>  <b_lp_Chiralities_Consistent>  (60) 
1

>  <s_lp_Variant>  (60) 
21:0-2

>  <s_i_glide_gridfile>  (60) 
pfpi4k_grid

>  <i_i_glide_lignum>  (60) 
29

>  <i_i_glide_rotatable_bonds>  (60) 
4

>  <r_i_docking_score>  (60) 
-2.15761

>  <r_i_glide_ligand_efficiency>  (60) 
-0.0980731

>  <r_i_glide_ligand_efficiency_sa>  (60) 
-0.274805

>  <r_i_glide_ligand_efficiency_ln>  (60) 
-0.527398

>  <r_i_glide_gscore>  (60) 
-2.15761

>  <r_i_glide_lipo>  (60) 
-0.0795602

>  <r_i_glide_hbond>  (60) 
0

>  <r_i_glide_metal>  (60) 
-0

>  <r_i_glide_rewards>  (60) 
-1.3542

>  <r_i_glide_evdw>  (60) 
-18.4172

>  <r_i_glide_ecoul>  (60) 
0.067196

>  <r_i_glide_erotb>  (60) 
0.202529

>  <r_i_glide_esite>  (60) 
-0.0155945

>  <r_i_glide_emodel>  (60) 
-20.2085

>  <r_i_glide_energy>  (60) 
-18.35

>  <r_i_glide_einternal>  (60) 
0.68119

>  <r_i_glide_intrahb_reward>  (60) 
-0

>  <i_i_glide_confnum>  (60) 
3

>  <i_i_glide_posenum>  (60) 
19

>  <r_i_glide_eff_state_penalty>  (60) 
0

>  <ligand_id>  (60) 
21

>  <original_smiles>  (60) 
CCCN1CC(C)(O)C2COCC(=Cc3ccncc3)C2=N1

>  <smiles>  (60) 
[H]OC1(C([H])([H])[H])C([H])([H])N(C([H])([H])C([H])([H])C([H])([H])[H])N=C2C(=C([H])c3c([H])c([H])nc([H])c3[H])C([H])([H])OC([H])([H])C21[H]

$$$$
21:2:0
     RDKit          3D

 46 48  0  0  1  0  0  0  0  0999 V2000
    6.7217   -8.3973    2.3192 C   0  0  0  0  0  0  0  0  0  0  0  0
    6.5988   -9.8588    2.8136 C   0  0  0  0  0  0  0  0  0  0  0  0
    5.2914  -10.6001    2.4693 C   0  0  0  0  0  0  0  0  0  0  0  0
    4.0794  -10.2229    3.1929 N   0  0  0  0  0  0  0  0  0  0  0  0
    3.0454  -11.2307    3.5333 C   0  0  0  0  0  0  0  0  0  0  0  0
    1.8933  -10.6752    4.3741 C   0  0  1  0  0  0  0  0  0  0  0  0
    0.7927  -11.7410    4.4519 C   0  0  0  0  0  0  0  0  0  0  0  0
    2.3032  -10.4274    5.7216 O   0  0  0  0  0  0  0  0  0  0  0  0
    1.3913   -9.3817    3.6976 C   0  0  1  0  0  0  0  0  0  0  0  0
    0.3493   -8.5800    4.4980 C   0  0  0  0  0  0  0  0  0  0  0  0
   -0.0435   -7.4658    3.7005 O   0  0  0  0  0  0  0  0  0  0  0  0
    0.9954   -6.5124    3.5884 C   0  0  0  0  0  0  0  0  0  0  0  0
    2.2661   -7.0538    2.9536 C   0  0  0  0  0  0  0  0  0  0  0  0
    3.0270   -6.3795    2.0469 C   0  0  0  0  0  0  0  0  0  0  0  0
    2.9249   -4.9505    1.6686 C   0  0  0  0  0  0  0  0  0  0  0  0
    3.1567   -4.5522    0.3177 C   0  0  0  0  0  0  0  0  0  0  0  0
    3.0088   -3.1916   -0.0490 C   0  0  0  0  0  0  0  0  0  0  0  0
    2.6103   -2.2794    0.8655 N   0  0  0  0  0  0  0  0  0  0  0  0
    2.3848   -2.5997    2.1520 C   0  0  0  0  0  0  0  0  0  0  0  0
    2.5411   -3.9344    2.5743 C   0  0  0  0  0  0  0  0  0  0  0  0
    2.4852   -8.4923    3.1316 C   0  0  0  0  0  0  0  0  0  0  0  0
    3.6359   -8.9888    2.8052 N   0  0  0  0  0  0  0  0  0  0  0  0
    7.7257   -7.9903    2.4569 H   0  0  0  0  0  0  0  0  0  0  0  0
    6.0521   -7.7250    2.8508 H   0  0  0  0  0  0  0  0  0  0  0  0
    6.4700   -8.3520    1.2588 H   0  0  0  0  0  0  0  0  0  0  0  0
    7.3834  -10.4526    2.3464 H   0  0  0  0  0  0  0  0  0  0  0  0
    6.8195   -9.9135    3.8809 H   0  0  0  0  0  0  0  0  0  0  0  0
    5.0799  -10.4675    1.3998 H   0  0  0  0  0  0  0  0  0  0  0  0
    5.4654  -11.6608    2.6537 H   0  0  0  0  0  0  0  0  0  0  0  0
    2.6370  -11.6202    2.5940 H   0  0  0  0  0  0  0  0  0  0  0  0
    3.5213  -12.0609    4.0582 H   0  0  0  0  0  0  0  0  0  0  0  0
    0.4076  -11.9741    3.4542 H   0  0  0  0  0  0  0  0  0  0  0  0
   -0.0275  -11.4130    5.0894 H   0  0  0  0  0  0  0  0  0  0  0  0
    1.1940  -12.6628    4.8751 H   0  0  0  0  0  0  0  0  0  0  0  0
    2.1201  -11.1999    6.2552 H   0  0  0  0  0  0  0  0  0  0  0  0
    0.8694   -9.7012    2.8011 H   0  0  0  0  0  0  0  0  0  0  0  0
   -0.5302   -9.1981    4.6848 H   0  0  0  0  0  0  0  0  0  0  0  0
    0.7538   -8.2450    5.4649 H   0  0  0  0  0  0  0  0  0  0  0  0
    0.5795   -5.7275    2.9532 H   0  0  0  0  0  0  0  0  0  0  0  0
    1.2134   -6.0827    4.5792 H   0  0  0  0  0  0  0  0  0  0  0  0
    3.7988   -6.9354    1.5370 H   0  0  0  0  0  0  0  0  0  0  0  0
    3.4397   -5.2707   -0.4314 H   0  0  0  0  0  0  0  0  0  0  0  0
    3.1632   -2.8038   -1.0468 H   0  0  0  0  0  0  0  0  0  0  0  0
    2.0515   -1.8032    2.7996 H   0  0  0  0  0  0  0  0  0  0  0  0
    2.3755   -4.1510    3.6127 H   0  0  0  0  0  0  0  0  0  0  0  0
    2.4189   -1.3202    0.5373 H   0  0  0  0  0  0  0  0  0  0  0  0
  1  2  1  0
  1 23  1  0
  1 24  1  0
  1 25  1  0
  2  3  1  0
  2 26  1  0
  2 27  1  0
  3  4  1  0
  3 28  1  0
  3 29  1  0
  4 22  1  0
  4  5  1  0
  5  6  1  0
  5 30  1  0
  5 31  1  0
  6  7  1  0
  6  8  1  1
  6  9  1  0
  7 32  1  0
  7 33  1  0
  7 34  1  0
  8 35  1  0
  9 21  1  0
  9 10  1  0
  9 36  1  6
 10 11  1  0
 10 37  1  0
 10 38  1  0
 11 12  1  0
 12 13  1  0
 12 39  1  0
 12 40  1  0
 13 14  2  3
 13 21  1  0
 14 15  1  0
 14 41  1  0
 15 20  1  0
 15 16  2  0
 16 17  1  0
 16 42  1  0
 17 18  2  0
 17 43  1  0
 18 19  1  0
 18 46  1  0
 19 20  2  0
 19 44  1  0
 20 45  1  0
 21 22  2  0
M  CHG  1  18   1
M  END
>  <i_m_ct_stereo_status>  (61) 
1

>  <s_m_source_file>  (61) 
/var/tmp/pbs.5076255.sched01/tmpgq1_80gb/0xrgip9rw.sdf

>  <i_m_source_file_index>  (61) 
30

>  <i_lp_mmshare_version>  (61) 
48012

>  <i_f3d_flags>  (61) 
0

>  <s_epik_input>  (61) 
W0NIM11bQ0gyXVtDSDJdTihbQ0gyXVtDQEBdMShbQ0gzXSlbT0hdKU49QyhbQ0BASF0xMilDKFxbQ0gyXU9bQ0gyXTIpPVtDSF1cYzNbY0hdW2NIXW5bY0hdW2NIXTM=

>  <s_epik_cmdline>  (61) 
J2VwaWtfcHl0aG9uJywgJy1waHQnLCAnMi4wJywgJy1waCcsICc3LjAnLCAnLXRuJywgJzgnLCAnLW1hJywgJzIwMCcsICctaW1hZScsICc8aW5maWxlLm1hZT4nLCAnLW9tYWUnLCAnPG91dGZpbGUubWFlPic=

>  <r_epik_Ionization_Penalty>  (61) 
1.62379

>  <r_epik_Ionization_Penalty_Charging>  (61) 
1.62365

>  <r_epik_Ionization_Penalty_Neutral>  (61) 
0.0001458

>  <r_epik_State_Penalty>  (61) 
1.7236

>  <r_epik_Charging_Adjusted_Penalty>  (61) 
3.34724

>  <i_epik_Tot_Q>  (61) 
1

>  <i_epik_Tot_abs_Q>  (61) 
1

>  <s_epik_Chemistry_Notes>  (61) 
This compound has an imine and may undergo hydrolysis.

>  <s_lp_Force_Field>  (61) 
OPLS3e

>  <r_lp_Energy>  (61) 
35.6301

>  <b_lp_Chiralities_Consistent>  (61) 
1

>  <s_lp_Variant>  (61) 
21:0-3

>  <s_i_glide_gridfile>  (61) 
pfpi4k_grid

>  <i_i_glide_lignum>  (61) 
30

>  <i_i_glide_rotatable_bonds>  (61) 
4

>  <r_i_docking_score>  (61) 
-3.65768

>  <r_i_glide_ligand_efficiency>  (61) 
-0.166258

>  <r_i_glide_ligand_efficiency_sa>  (61) 
-0.465862

>  <r_i_glide_ligand_efficiency_ln>  (61) 
-0.894071

>  <r_i_glide_gscore>  (61) 
-3.65768

>  <r_i_glide_lipo>  (61) 
-0.0826481

>  <r_i_glide_hbond>  (61) 
-0.206727

>  <r_i_glide_metal>  (61) 
-0

>  <r_i_glide_rewards>  (61) 
-1.34733

>  <r_i_glide_evdw>  (61) 
-17.5026

>  <r_i_glide_ecoul>  (61) 
-8.3334

>  <r_i_glide_erotb>  (61) 
0.201348

>  <r_i_glide_esite>  (61) 
-0.097185

>  <r_i_glide_emodel>  (61) 
-32.0416

>  <r_i_glide_energy>  (61) 
-25.836

>  <r_i_glide_einternal>  (61) 
3.71797

>  <r_i_glide_intrahb_reward>  (61) 
-0

>  <i_i_glide_confnum>  (61) 
1

>  <i_i_glide_posenum>  (61) 
2

>  <r_i_glide_eff_state_penalty>  (61) 
0

>  <ligand_id>  (61) 
21

>  <original_smiles>  (61) 
CCCN1CC(C)(O)C2COCC(=Cc3ccncc3)C2=N1

>  <smiles>  (61) 
[H]OC1(C([H])([H])[H])C([H])([H])N(C([H])([H])C([H])([H])C([H])([H])[H])N=C2C(=C([H])c3c([H])c([H])[n+]([H])c([H])c3[H])C([H])([H])OC([H])([H])C21[H]

$$$$
21:2:1
     RDKit          3D

 46 48  0  0  1  0  0  0  0  0999 V2000
   -0.1176   -5.5624    6.2037 C   0  0  0  0  0  0  0  0  0  0  0  0
    0.2054   -5.1280    4.7663 C   0  0  0  0  0  0  0  0  0  0  0  0
    1.6614   -5.4483    4.3955 C   0  0  0  0  0  0  0  0  0  0  0  0
    2.0867   -5.0294    3.0606 N   0  0  0  0  0  0  0  0  0  0  0  0
    3.0362   -5.8670    2.3133 C   0  0  0  0  0  0  0  0  0  0  0  0
    3.3936   -5.3182    0.9306 C   0  0  1  0  0  0  0  0  0  0  0  0
    4.5166   -6.1873    0.3251 C   0  0  0  0  0  0  0  0  0  0  0  0
    2.2669   -5.4568    0.0777 O   0  0  0  0  0  0  0  0  0  0  0  0
    3.8204   -3.8433    1.0999 C   0  0  1  0  0  0  0  0  0  0  0  0
    4.0297   -3.0745   -0.2141 C   0  0  0  0  0  0  0  0  0  0  0  0
    4.4847   -1.7677    0.1020 O   0  0  0  0  0  0  0  0  0  0  0  0
    3.4763   -0.9765    0.7187 C   0  0  0  0  0  0  0  0  0  0  0  0
    2.9132   -1.5966    1.9944 C   0  0  0  0  0  0  0  0  0  0  0  0
    2.6509   -0.8866    3.1247 C   0  0  0  0  0  0  0  0  0  0  0  0
    2.6273    0.5798    3.2965 C   0  0  0  0  0  0  0  0  0  0  0  0
    2.1973    1.4546    2.2761 C   0  0  0  0  0  0  0  0  0  0  0  0
    2.1912    2.8478    2.4960 C   0  0  0  0  0  0  0  0  0  0  0  0
    2.6060    3.3417    3.6832 N   0  0  0  0  0  0  0  0  0  0  0  0
    3.0344    2.5513    4.6891 C   0  0  0  0  0  0  0  0  0  0  0  0
    3.0630    1.1479    4.5165 C   0  0  0  0  0  0  0  0  0  0  0  0
    2.9491   -3.0547    2.0692 C   0  0  0  0  0  0  0  0  0  0  0  0
    2.2377   -3.6603    2.9705 N   0  0  0  0  0  0  0  0  0  0  0  0
   -1.1526   -5.3465    6.4642 H   0  0  0  0  0  0  0  0  0  0  0  0
    0.5191   -5.0525    6.9275 H   0  0  0  0  0  0  0  0  0  0  0  0
    0.0367   -6.6345    6.3349 H   0  0  0  0  0  0  0  0  0  0  0  0
   -0.4704   -5.6393    4.0779 H   0  0  0  0  0  0  0  0  0  0  0  0
    0.0129   -4.0604    4.6691 H   0  0  0  0  0  0  0  0  0  0  0  0
    2.3413   -4.9841    5.1134 H   0  0  0  0  0  0  0  0  0  0  0  0
    1.8041   -6.5269    4.4738 H   0  0  0  0  0  0  0  0  0  0  0  0
    3.9397   -5.9391    2.9219 H   0  0  0  0  0  0  0  0  0  0  0  0
    2.6218   -6.8719    2.2267 H   0  0  0  0  0  0  0  0  0  0  0  0
    5.4225   -6.1508    0.9334 H   0  0  0  0  0  0  0  0  0  0  0  0
    4.7807   -5.8769   -0.6862 H   0  0  0  0  0  0  0  0  0  0  0  0
    4.2134   -7.2337    0.2755 H   0  0  0  0  0  0  0  0  0  0  0  0
    2.5817   -5.4582   -0.8279 H   0  0  0  0  0  0  0  0  0  0  0  0
    4.7934   -3.8652    1.5870 H   0  0  0  0  0  0  0  0  0  0  0  0
    4.7970   -3.5639   -0.8165 H   0  0  0  0  0  0  0  0  0  0  0  0
    3.1154   -3.0389   -0.8152 H   0  0  0  0  0  0  0  0  0  0  0  0
    3.9350   -0.0077    0.9146 H   0  0  0  0  0  0  0  0  0  0  0  0
    2.6464   -0.8117    0.0346 H   0  0  0  0  0  0  0  0  0  0  0  0
    2.4070   -1.4320    4.0234 H   0  0  0  0  0  0  0  0  0  0  0  0
    1.8392    1.0685    1.3351 H   0  0  0  0  0  0  0  0  0  0  0  0
    1.8553    3.5682    1.7660 H   0  0  0  0  0  0  0  0  0  0  0  0
    3.3317    3.0579    5.5971 H   0  0  0  0  0  0  0  0  0  0  0  0
    3.4099    0.5218    5.3237 H   0  0  0  0  0  0  0  0  0  0  0  0
    2.5818    4.3553    3.8143 H   0  0  0  0  0  0  0  0  0  0  0  0
  1  2  1  0
  1 23  1  0
  1 24  1  0
  1 25  1  0
  2  3  1  0
  2 26  1  0
  2 27  1  0
  3  4  1  0
  3 28  1  0
  3 29  1  0
  4 22  1  0
  4  5  1  0
  5  6  1  0
  5 30  1  0
  5 31  1  0
  6  7  1  0
  6  8  1  6
  6  9  1  0
  7 32  1  0
  7 33  1  0
  7 34  1  0
  8 35  1  0
  9 21  1  0
  9 10  1  0
  9 36  1  1
 10 11  1  0
 10 37  1  0
 10 38  1  0
 11 12  1  0
 12 13  1  0
 12 39  1  0
 12 40  1  0
 13 14  2  3
 13 21  1  0
 14 15  1  0
 14 41  1  0
 15 20  1  0
 15 16  2  0
 16 17  1  0
 16 42  1  0
 17 18  2  0
 17 43  1  0
 18 19  1  0
 18 46  1  0
 19 20  2  0
 19 44  1  0
 20 45  1  0
 21 22  2  0
M  CHG  1  18   1
M  END
>  <i_m_ct_stereo_status>  (62) 
1

>  <s_m_source_file>  (62) 
/var/tmp/pbs.5076255.sched01/tmpgq1_80gb/0xrgip9rw.sdf

>  <i_m_source_file_index>  (62) 
30

>  <i_lp_mmshare_version>  (62) 
48012

>  <i_f3d_flags>  (62) 
0

>  <s_epik_input>  (62) 
W0NIM11bQ0gyXVtDSDJdTihbQ0gyXVtDQEBdMShbQ0gzXSlbT0hdKU49QyhbQ0BASF0xMilDKFxbQ0gyXU9bQ0gyXTIpPVtDSF1cYzNbY0hdW2NIXW5bY0hdW2NIXTM=

>  <s_epik_cmdline>  (62) 
J2VwaWtfcHl0aG9uJywgJy1waHQnLCAnMi4wJywgJy1waCcsICc3LjAnLCAnLXRuJywgJzgnLCAnLW1hJywgJzIwMCcsICctaW1hZScsICc8aW5maWxlLm1hZT4nLCAnLW9tYWUnLCAnPG91dGZpbGUubWFlPic=

>  <r_epik_Ionization_Penalty>  (62) 
1.62379

>  <r_epik_Ionization_Penalty_Charging>  (62) 
1.62365

>  <r_epik_Ionization_Penalty_Neutral>  (62) 
0.0001458

>  <r_epik_State_Penalty>  (62) 
1.7236

>  <r_epik_Charging_Adjusted_Penalty>  (62) 
3.34724

>  <i_epik_Tot_Q>  (62) 
1

>  <i_epik_Tot_abs_Q>  (62) 
1

>  <s_epik_Chemistry_Notes>  (62) 
This compound has an imine and may undergo hydrolysis.

>  <s_lp_Force_Field>  (62) 
OPLS3e

>  <r_lp_Energy>  (62) 
35.6301

>  <b_lp_Chiralities_Consistent>  (62) 
1

>  <s_lp_Variant>  (62) 
21:0-3

>  <s_i_glide_gridfile>  (62) 
pfpi4k_grid

>  <i_i_glide_lignum>  (62) 
30

>  <i_i_glide_rotatable_bonds>  (62) 
4

>  <r_i_docking_score>  (62) 
-3.53174

>  <r_i_glide_ligand_efficiency>  (62) 
-0.160533

>  <r_i_glide_ligand_efficiency_sa>  (62) 
-0.449821

>  <r_i_glide_ligand_efficiency_ln>  (62) 
-0.863285

>  <r_i_glide_gscore>  (62) 
-3.53174

>  <r_i_glide_lipo>  (62) 
-0.198775

>  <r_i_glide_hbond>  (62) 
-0.32

>  <r_i_glide_metal>  (62) 
-0

>  <r_i_glide_rewards>  (62) 
-1.34733

>  <r_i_glide_evdw>  (62) 
-17.6465

>  <r_i_glide_ecoul>  (62) 
-6.34489

>  <r_i_glide_erotb>  (62) 
0.201348

>  <r_i_glide_esite>  (62) 
-0.0329203

>  <r_i_glide_emodel>  (62) 
-31.4533

>  <r_i_glide_energy>  (62) 
-23.9914

>  <r_i_glide_einternal>  (62) 
0.921637

>  <r_i_glide_intrahb_reward>  (62) 
-0

>  <i_i_glide_confnum>  (62) 
5

>  <i_i_glide_posenum>  (62) 
7

>  <r_i_glide_eff_state_penalty>  (62) 
0

>  <ligand_id>  (62) 
21

>  <original_smiles>  (62) 
CCCN1CC(C)(O)C2COCC(=Cc3ccncc3)C2=N1

>  <smiles>  (62) 
[H]OC1(C([H])([H])[H])C([H])([H])N(C([H])([H])C([H])([H])C([H])([H])[H])N=C2C(=C([H])c3c([H])c([H])[n+]([H])c([H])c3[H])C([H])([H])OC([H])([H])C21[H]

$$$$
21:2:2
     RDKit          3D

 46 48  0  0  1  0  0  0  0  0999 V2000
    7.0480   -8.4526    1.9761 C   0  0  0  0  0  0  0  0  0  0  0  0
    6.6328   -9.8257    2.5446 C   0  0  0  0  0  0  0  0  0  0  0  0
    5.2665  -10.3310    2.0818 C   0  0  0  0  0  0  0  0  0  0  0  0
    4.0819   -9.6897    2.6561 N   0  0  0  0  0  0  0  0  0  0  0  0
    2.8656  -10.4815    2.9246 C   0  0  0  0  0  0  0  0  0  0  0  0
    1.7272   -9.6945    3.5557 C   0  0  1  0  0  0  0  0  0  0  0  0
    0.4667  -10.5632    3.5837 C   0  0  0  0  0  0  0  0  0  0  0  0
    2.0494   -9.3997    4.9133 O   0  0  0  0  0  0  0  0  0  0  0  0
    1.5167   -8.4136    2.7319 C   0  0  1  0  0  0  0  0  0  0  0  0
    0.5309   -7.4011    3.3500 C   0  0  0  0  0  0  0  0  0  0  0  0
    0.4037   -6.3212    2.4438 O   0  0  0  0  0  0  0  0  0  0  0  0
    1.5899   -5.5597    2.3800 C   0  0  0  0  0  0  0  0  0  0  0  0
    2.8228   -6.3207    1.9427 C   0  0  0  0  0  0  0  0  0  0  0  0
    3.7626   -5.8536    1.0795 C   0  0  0  0  0  0  0  0  0  0  0  0
    3.9431   -4.4844    0.5238 C   0  0  0  0  0  0  0  0  0  0  0  0
    3.4432   -3.3016    1.1439 C   0  0  0  0  0  0  0  0  0  0  0  0
    3.5780   -2.0486    0.5181 C   0  0  0  0  0  0  0  0  0  0  0  0
    4.2466   -1.9394   -0.6423 N   0  0  0  0  0  0  0  0  0  0  0  0
    4.7794   -3.0144   -1.2736 C   0  0  0  0  0  0  0  0  0  0  0  0
    4.6179   -4.3072   -0.7204 C   0  0  0  0  0  0  0  0  0  0  0  0
    2.7987   -7.7473    2.2715 C   0  0  0  0  0  0  0  0  0  0  0  0
    3.9018   -8.4346    2.1730 N   0  0  0  0  0  0  0  0  0  0  0  0
    8.0664   -8.1873    2.2550 H   0  0  0  0  0  0  0  0  0  0  0  0
    6.4073   -7.6539    2.3378 H   0  0  0  0  0  0  0  0  0  0  0  0
    6.9795   -8.4764    0.8922 H   0  0  0  0  0  0  0  0  0  0  0  0
    7.3693  -10.5666    2.2273 H   0  0  0  0  0  0  0  0  0  0  0  0
    6.6982   -9.8182    3.6387 H   0  0  0  0  0  0  0  0  0  0  0  0
    5.1814  -10.2478    0.9892 H   0  0  0  0  0  0  0  0  0  0  0  0
    5.2068  -11.3921    2.3202 H   0  0  0  0  0  0  0  0  0  0  0  0
    2.5447  -10.8611    1.9587 H   0  0  0  0  0  0  0  0  0  0  0  0
    3.1307  -11.3520    3.5347 H   0  0  0  0  0  0  0  0  0  0  0  0
    0.1507  -10.8330    2.5727 H   0  0  0  0  0  0  0  0  0  0  0  0
   -0.3697  -10.0551    4.0722 H   0  0  0  0  0  0  0  0  0  0  0  0
    0.6443  -11.4974    4.1256 H   0  0  0  0  0  0  0  0  0  0  0  0
    2.1258  -10.2160    5.3731 H   0  0  0  0  0  0  0  0  0  0  0  0
    1.0527   -8.7317    1.7919 H   0  0  0  0  0  0  0  0  0  0  0  0
   -0.4465   -7.8555    3.4799 H   0  0  0  0  0  0  0  0  0  0  0  0
    0.8806   -7.0444    4.3210 H   0  0  0  0  0  0  0  0  0  0  0  0
    1.3952   -4.8015    1.6349 H   0  0  0  0  0  0  0  0  0  0  0  0
    1.7854   -5.0566    3.3445 H   0  0  0  0  0  0  0  0  0  0  0  0
    4.4958   -6.5628    0.7162 H   0  0  0  0  0  0  0  0  0  0  0  0
    2.9736   -3.3103    2.1072 H   0  0  0  0  0  0  0  0  0  0  0  0
    3.1752   -1.1386    0.9389 H   0  0  0  0  0  0  0  0  0  0  0  0
    5.3040   -2.8132   -2.1924 H   0  0  0  0  0  0  0  0  0  0  0  0
    5.0039   -5.1612   -1.2561 H   0  0  0  0  0  0  0  0  0  0  0  0
    4.3466   -1.0033   -1.0524 H   0  0  0  0  0  0  0  0  0  0  0  0
  1  2  1  0
  1 23  1  0
  1 24  1  0
  1 25  1  0
  2  3  1  0
  2 26  1  0
  2 27  1  0
  3  4  1  0
  3 28  1  0
  3 29  1  0
  4 22  1  0
  4  5  1  0
  5  6  1  0
  5 30  1  0
  5 31  1  0
  6  7  1  0
  6  8  1  1
  6  9  1  0
  7 32  1  0
  7 33  1  0
  7 34  1  0
  8 35  1  0
  9 21  1  0
  9 10  1  0
  9 36  1  6
 10 11  1  0
 10 37  1  0
 10 38  1  0
 11 12  1  0
 12 13  1  0
 12 39  1  0
 12 40  1  0
 13 14  2  3
 13 21  1  0
 14 15  1  0
 14 41  1  0
 15 20  1  0
 15 16  2  0
 16 17  1  0
 16 42  1  0
 17 18  2  0
 17 43  1  0
 18 19  1  0
 18 46  1  0
 19 20  2  0
 19 44  1  0
 20 45  1  0
 21 22  2  0
M  CHG  1  18   1
M  END
>  <i_m_ct_stereo_status>  (63) 
1

>  <s_m_source_file>  (63) 
/var/tmp/pbs.5076255.sched01/tmpgq1_80gb/0xrgip9rw.sdf

>  <i_m_source_file_index>  (63) 
30

>  <i_lp_mmshare_version>  (63) 
48012

>  <i_f3d_flags>  (63) 
0

>  <s_epik_input>  (63) 
W0NIM11bQ0gyXVtDSDJdTihbQ0gyXVtDQEBdMShbQ0gzXSlbT0hdKU49QyhbQ0BASF0xMilDKFxbQ0gyXU9bQ0gyXTIpPVtDSF1cYzNbY0hdW2NIXW5bY0hdW2NIXTM=

>  <s_epik_cmdline>  (63) 
J2VwaWtfcHl0aG9uJywgJy1waHQnLCAnMi4wJywgJy1waCcsICc3LjAnLCAnLXRuJywgJzgnLCAnLW1hJywgJzIwMCcsICctaW1hZScsICc8aW5maWxlLm1hZT4nLCAnLW9tYWUnLCAnPG91dGZpbGUubWFlPic=

>  <r_epik_Ionization_Penalty>  (63) 
1.62379

>  <r_epik_Ionization_Penalty_Charging>  (63) 
1.62365

>  <r_epik_Ionization_Penalty_Neutral>  (63) 
0.0001458

>  <r_epik_State_Penalty>  (63) 
1.7236

>  <r_epik_Charging_Adjusted_Penalty>  (63) 
3.34724

>  <i_epik_Tot_Q>  (63) 
1

>  <i_epik_Tot_abs_Q>  (63) 
1

>  <s_epik_Chemistry_Notes>  (63) 
This compound has an imine and may undergo hydrolysis.

>  <s_lp_Force_Field>  (63) 
OPLS3e

>  <r_lp_Energy>  (63) 
35.6301

>  <b_lp_Chiralities_Consistent>  (63) 
1

>  <s_lp_Variant>  (63) 
21:0-3

>  <s_i_glide_gridfile>  (63) 
pfpi4k_grid

>  <i_i_glide_lignum>  (63) 
30

>  <i_i_glide_rotatable_bonds>  (63) 
4

>  <r_i_docking_score>  (63) 
-3.40187

>  <r_i_glide_ligand_efficiency>  (63) 
-0.15463

>  <r_i_glide_ligand_efficiency_sa>  (63) 
-0.43328

>  <r_i_glide_ligand_efficiency_ln>  (63) 
-0.831541

>  <r_i_glide_gscore>  (63) 
-3.40187

>  <r_i_glide_lipo>  (63) 
-0.180517

>  <r_i_glide_hbond>  (63) 
-0.0870565

>  <r_i_glide_metal>  (63) 
-0

>  <r_i_glide_rewards>  (63) 
-1.34733

>  <r_i_glide_evdw>  (63) 
-19.8044

>  <r_i_glide_ecoul>  (63) 
-6.14267

>  <r_i_glide_erotb>  (63) 
0.201348

>  <r_i_glide_esite>  (63) 
-0.0766932

>  <r_i_glide_emodel>  (63) 
-32.3263

>  <r_i_glide_energy>  (63) 
-25.947

>  <r_i_glide_einternal>  (63) 
2.10065

>  <r_i_glide_intrahb_reward>  (63) 
-0

>  <i_i_glide_confnum>  (63) 
1

>  <i_i_glide_posenum>  (63) 
25

>  <r_i_glide_eff_state_penalty>  (63) 
0

>  <ligand_id>  (63) 
21

>  <original_smiles>  (63) 
CCCN1CC(C)(O)C2COCC(=Cc3ccncc3)C2=N1

>  <smiles>  (63) 
[H]OC1(C([H])([H])[H])C([H])([H])N(C([H])([H])C([H])([H])C([H])([H])[H])N=C2C(=C([H])c3c([H])c([H])[n+]([H])c([H])c3[H])C([H])([H])OC([H])([H])C21[H]

$$$$
21:3:0
     RDKit          3D

 46 48  0  0  1  0  0  0  0  0999 V2000
    4.2103   -2.0747   -2.6791 C   0  0  0  0  0  0  0  0  0  0  0  0
    3.5319   -3.4438   -2.3656 C   0  0  0  0  0  0  0  0  0  0  0  0
    2.8889   -3.6071   -0.9563 C   0  0  0  0  0  0  0  0  0  0  0  0
    3.8208   -3.6816    0.1814 N   0  0  0  0  0  0  0  0  0  0  0  0
    4.8636   -2.6384    0.3549 C   0  0  0  0  0  0  0  0  0  0  0  0
    4.8775   -1.9721    1.7138 C   0  0  1  0  0  0  0  0  0  0  0  0
    6.0943   -1.0404    1.7458 C   0  0  0  0  0  0  0  0  0  0  0  0
    3.7330   -1.1358    1.7822 O   0  0  0  0  0  0  0  0  0  0  0  0
    4.8350   -3.0720    2.7838 C   0  0  1  0  0  0  0  0  0  0  0  0
    4.8060   -2.5759    4.2448 C   0  0  0  0  0  0  0  0  0  0  0  0
    3.4582   -2.4985    4.6772 O   0  0  0  0  0  0  0  0  0  0  0  0
    2.8528   -3.7812    4.8143 C   0  0  0  0  0  0  0  0  0  0  0  0
    2.9982   -4.6815    3.6062 C   0  0  0  0  0  0  0  0  0  0  0  0
    2.8078   -6.0273    3.6799 C   0  0  0  0  0  0  0  0  0  0  0  0
    3.1652   -7.1638    2.7981 C   0  0  0  0  0  0  0  0  0  0  0  0
    4.1505   -7.1223    1.7521 C   0  0  0  0  0  0  0  0  0  0  0  0
    4.3262   -8.2111    0.8916 C   0  0  0  0  0  0  0  0  0  0  0  0
    3.6316   -9.3523    1.0954 N   0  0  0  0  0  0  0  0  0  0  0  0
    2.7360   -9.4743    2.0828 C   0  0  0  0  0  0  0  0  0  0  0  0
    2.4799   -8.3911    2.9566 C   0  0  0  0  0  0  0  0  0  0  0  0
    3.7008   -4.0642    2.4956 C   0  0  0  0  0  0  0  0  0  0  0  0
    3.2931   -4.3105    1.2921 N   0  0  0  0  0  0  0  0  0  0  0  0
    4.4740   -1.9989   -3.7423 H   0  0  0  0  0  0  0  0  0  0  0  0
    5.1313   -1.9247   -2.1212 H   0  0  0  0  0  0  0  0  0  0  0  0
    3.5107   -1.2669   -2.4349 H   0  0  0  0  0  0  0  0  0  0  0  0
    2.7416   -3.5955   -3.1053 H   0  0  0  0  0  0  0  0  0  0  0  0
    4.2492   -4.2463   -2.5350 H   0  0  0  0  0  0  0  0  0  0  0  0
    2.2085   -2.7797   -0.7695 H   0  0  0  0  0  0  0  0  0  0  0  0
    2.2552   -4.5132   -0.9627 H   0  0  0  0  0  0  0  0  0  0  0  0
    5.8295   -3.1041    0.1049 H   0  0  0  0  0  0  0  0  0  0  0  0
    4.6299   -1.8244   -0.2946 H   0  0  0  0  0  0  0  0  0  0  0  0
    7.0168   -1.6051    1.6813 H   0  0  0  0  0  0  0  0  0  0  0  0
    6.1093   -0.4242    2.6395 H   0  0  0  0  0  0  0  0  0  0  0  0
    6.0718   -0.3659    0.8910 H   0  0  0  0  0  0  0  0  0  0  0  0
    3.7275   -0.6643    2.5946 H   0  0  0  0  0  0  0  0  0  0  0  0
    5.7855   -3.6040    2.6518 H   0  0  0  0  0  0  0  0  0  0  0  0
    5.3757   -3.2583    4.8760 H   0  0  0  0  0  0  0  0  0  0  0  0
    5.2699   -1.5951    4.3253 H   0  0  0  0  0  0  0  0  0  0  0  0
    3.1743   -4.2709    5.7375 H   0  0  0  0  0  0  0  0  0  0  0  0
    1.7823   -3.6084    4.8962 H   0  0  0  0  0  0  0  0  0  0  0  0
    2.4234   -6.3597    4.6413 H   0  0  0  0  0  0  0  0  0  0  0  0
    4.7814   -6.2664    1.5704 H   0  0  0  0  0  0  0  0  0  0  0  0
    5.0089   -8.1821    0.0583 H   0  0  0  0  0  0  0  0  0  0  0  0
    2.2567  -10.4362    2.1540 H   0  0  0  0  0  0  0  0  0  0  0  0
    1.7513   -8.5100    3.7531 H   0  0  0  0  0  0  0  0  0  0  0  0
    3.8174  -10.1734    0.4885 H   0  0  0  0  0  0  0  0  0  0  0  0
  1  2  1  0
  1 23  1  0
  1 24  1  0
  1 25  1  0
  2  3  1  0
  2 26  1  0
  2 27  1  0
  3  4  1  0
  3 28  1  0
  3 29  1  0
  4 22  1  0
  4  5  1  0
  5  6  1  0
  5 30  1  0
  5 31  1  0
  6  7  1  0
  6  8  1  6
  6  9  1  0
  7 32  1  0
  7 33  1  0
  7 34  1  0
  8 35  1  0
  9 21  1  0
  9 10  1  0
  9 36  1  1
 10 11  1  0
 10 37  1  0
 10 38  1  0
 11 12  1  0
 12 13  1  0
 12 39  1  0
 12 40  1  0
 13 14  2  3
 13 21  1  0
 14 15  1  0
 14 41  1  0
 15 20  1  0
 15 16  2  0
 16 17  1  0
 16 42  1  0
 17 18  2  0
 17 43  1  0
 18 19  1  0
 18 46  1  0
 19 20  2  0
 19 44  1  0
 20 45  1  0
 21 22  2  0
M  CHG  1  18   1
M  END
>  <i_m_ct_stereo_status>  (64) 
1

>  <s_m_source_file>  (64) 
/var/tmp/pbs.5076255.sched01/tmpgq1_80gb/0xrgip9rw.sdf

>  <i_m_source_file_index>  (64) 
31

>  <i_lp_mmshare_version>  (64) 
48012

>  <i_f3d_flags>  (64) 
0

>  <s_epik_input>  (64) 
W0NIM11bQ0gyXVtDSDJdTihbQ0gyXVtDQEBdMShbQ0gzXSlbT0hdKU49QyhbQ0BASF0xMilDKFxbQ0gyXU9bQ0gyXTIpPVtDSF1cYzNbY0hdW2NIXW5bY0hdW2NIXTM=

>  <s_epik_cmdline>  (64) 
J2VwaWtfcHl0aG9uJywgJy1waHQnLCAnMi4wJywgJy1waCcsICc3LjAnLCAnLXRuJywgJzgnLCAnLW1hJywgJzIwMCcsICctaW1hZScsICc8aW5maWxlLm1hZT4nLCAnLW9tYWUnLCAnPG91dGZpbGUubWFlPic=

>  <r_epik_Ionization_Penalty>  (64) 
1.62379

>  <r_epik_Ionization_Penalty_Charging>  (64) 
1.62365

>  <r_epik_Ionization_Penalty_Neutral>  (64) 
0.0001458

>  <r_epik_State_Penalty>  (64) 
1.7236

>  <r_epik_Charging_Adjusted_Penalty>  (64) 
3.34724

>  <i_epik_Tot_Q>  (64) 
1

>  <i_epik_Tot_abs_Q>  (64) 
1

>  <s_epik_Chemistry_Notes>  (64) 
This compound has an imine and may undergo hydrolysis.

>  <s_lp_Force_Field>  (64) 
OPLS3e

>  <r_lp_Energy>  (64) 
43.7376

>  <b_lp_Chiralities_Consistent>  (64) 
1

>  <s_lp_Variant>  (64) 
21:0-4

>  <s_i_glide_gridfile>  (64) 
pfpi4k_grid

>  <i_i_glide_lignum>  (64) 
31

>  <i_i_glide_rotatable_bonds>  (64) 
4

>  <r_i_docking_score>  (64) 
-3.01613

>  <r_i_glide_ligand_efficiency>  (64) 
-0.137097

>  <r_i_glide_ligand_efficiency_sa>  (64) 
-0.38415

>  <r_i_glide_ligand_efficiency_ln>  (64) 
-0.737252

>  <r_i_glide_gscore>  (64) 
-3.01613

>  <r_i_glide_lipo>  (64) 
-0.367036

>  <r_i_glide_hbond>  (64) 
-0.2

>  <r_i_glide_metal>  (64) 
-0

>  <r_i_glide_rewards>  (64) 
-1.35375

>  <r_i_glide_evdw>  (64) 
-18.4918

>  <r_i_glide_ecoul>  (64) 
-1.99461

>  <r_i_glide_erotb>  (64) 
0.201348

>  <r_i_glide_esite>  (64) 
-0.0729123

>  <r_i_glide_emodel>  (64) 
-22.4516

>  <r_i_glide_energy>  (64) 
-20.4864

>  <r_i_glide_einternal>  (64) 
3.94926

>  <r_i_glide_intrahb_reward>  (64) 
-0

>  <i_i_glide_confnum>  (64) 
5

>  <i_i_glide_posenum>  (64) 
1

>  <r_i_glide_eff_state_penalty>  (64) 
0

>  <ligand_id>  (64) 
21

>  <original_smiles>  (64) 
CCCN1CC(C)(O)C2COCC(=Cc3ccncc3)C2=N1

>  <smiles>  (64) 
[H]OC1(C([H])([H])[H])C([H])([H])N(C([H])([H])C([H])([H])C([H])([H])[H])N=C2C(=C([H])c3c([H])c([H])[n+]([H])c([H])c3[H])C([H])([H])OC([H])([H])C21[H]

$$$$
21:3:1
     RDKit          3D

 46 48  0  0  1  0  0  0  0  0999 V2000
    3.5605   -1.9870   -2.6246 C   0  0  0  0  0  0  0  0  0  0  0  0
    3.1231   -3.4433   -2.3876 C   0  0  0  0  0  0  0  0  0  0  0  0
    2.2629   -3.7244   -1.1223 C   0  0  0  0  0  0  0  0  0  0  0  0
    2.9514   -3.5593    0.1486 N   0  0  0  0  0  0  0  0  0  0  0  0
    3.5395   -2.2677    0.5245 C   0  0  0  0  0  0  0  0  0  0  0  0
    3.0797   -1.7033    1.8562 C   0  0  1  0  0  0  0  0  0  0  0  0
    3.9696   -0.4789    2.1582 C   0  0  0  0  0  0  0  0  0  0  0  0
    1.7456   -1.2584    1.7242 O   0  0  0  0  0  0  0  0  0  0  0  0
    3.1852   -2.8337    2.9093 C   0  0  1  0  0  0  0  0  0  0  0  0
    2.7325   -2.4640    4.3378 C   0  0  0  0  0  0  0  0  0  0  0  0
    1.3571   -2.8035    4.5197 O   0  0  0  0  0  0  0  0  0  0  0  0
    1.1453   -4.2120    4.5270 C   0  0  0  0  0  0  0  0  0  0  0  0
    1.7884   -4.9602    3.3547 C   0  0  0  0  0  0  0  0  0  0  0  0
    1.9635   -6.3028    3.4022 C   0  0  0  0  0  0  0  0  0  0  0  0
    2.8116   -7.2372    2.6103 C   0  0  0  0  0  0  0  0  0  0  0  0
    3.9938   -6.8840    1.8996 C   0  0  0  0  0  0  0  0  0  0  0  0
    4.6457   -7.8130    1.0928 C   0  0  0  0  0  0  0  0  0  0  0  0
    4.2044   -9.0934    1.0465 N   0  0  0  0  0  0  0  0  0  0  0  0
    3.1556   -9.5068    1.7664 C   0  0  0  0  0  0  0  0  0  0  0  0
    2.4246   -8.5940    2.5655 C   0  0  0  0  0  0  0  0  0  0  0  0
    2.5130   -4.1028    2.4202 C   0  0  0  0  0  0  0  0  0  0  0  0
    2.5046   -4.4116    1.1591 N   0  0  0  0  0  0  0  0  0  0  0  0
    3.9753   -1.8567   -3.6377 H   0  0  0  0  0  0  0  0  0  0  0  0
    4.2511   -1.6360   -1.8637 H   0  0  0  0  0  0  0  0  0  0  0  0
    2.7072   -1.3139   -2.5735 H   0  0  0  0  0  0  0  0  0  0  0  0
    2.5367   -3.7745   -3.2474 H   0  0  0  0  0  0  0  0  0  0  0  0
    4.0113   -4.0724   -2.3701 H   0  0  0  0  0  0  0  0  0  0  0  0
    1.3911   -3.0635   -1.1413 H   0  0  0  0  0  0  0  0  0  0  0  0
    1.8443   -4.7294   -1.1688 H   0  0  0  0  0  0  0  0  0  0  0  0
    4.6223   -2.4038    0.5172 H   0  0  0  0  0  0  0  0  0  0  0  0
    3.2916   -1.5379   -0.2357 H   0  0  0  0  0  0  0  0  0  0  0  0
    5.0208   -0.7577    2.2830 H   0  0  0  0  0  0  0  0  0  0  0  0
    3.6391    0.0755    3.0352 H   0  0  0  0  0  0  0  0  0  0  0  0
    3.9277    0.2005    1.3038 H   0  0  0  0  0  0  0  0  0  0  0  0
    1.5817   -1.0671    0.7890 H   0  0  0  0  0  0  0  0  0  0  0  0
    4.2439   -3.0558    2.9958 H   0  0  0  0  0  0  0  0  0  0  0  0
    3.3463   -2.9884    5.0897 H   0  0  0  0  0  0  0  0  0  0  0  0
    2.8598   -1.3901    4.5195 H   0  0  0  0  0  0  0  0  0  0  0  0
    1.4655   -4.6401    5.4816 H   0  0  0  0  0  0  0  0  0  0  0  0
    0.0739   -4.3500    4.4365 H   0  0  0  0  0  0  0  0  0  0  0  0
    1.5176   -6.7648    4.2738 H   0  0  0  0  0  0  0  0  0  0  0  0
    4.4313   -5.8942    1.9258 H   0  0  0  0  0  0  0  0  0  0  0  0
    5.5098   -7.5682    0.4817 H   0  0  0  0  0  0  0  0  0  0  0  0
    2.9221  -10.5631    1.6855 H   0  0  0  0  0  0  0  0  0  0  0  0
    1.5706   -8.9474    3.1223 H   0  0  0  0  0  0  0  0  0  0  0  0
    4.6941   -9.7909    0.4807 H   0  0  0  0  0  0  0  0  0  0  0  0
  1  2  1  0
  1 23  1  0
  1 24  1  0
  1 25  1  0
  2  3  1  0
  2 26  1  0
  2 27  1  0
  3  4  1  0
  3 28  1  0
  3 29  1  0
  4 22  1  0
  4  5  1  0
  5  6  1  0
  5 30  1  0
  5 31  1  0
  6  7  1  0
  6  8  1  6
  6  9  1  0
  7 32  1  0
  7 33  1  0
  7 34  1  0
  8 35  1  0
  9 21  1  0
  9 10  1  0
  9 36  1  1
 10 11  1  0
 10 37  1  0
 10 38  1  0
 11 12  1  0
 12 13  1  0
 12 39  1  0
 12 40  1  0
 13 14  2  3
 13 21  1  0
 14 15  1  0
 14 41  1  0
 15 20  1  0
 15 16  2  0
 16 17  1  0
 16 42  1  0
 17 18  2  0
 17 43  1  0
 18 19  1  0
 18 46  1  0
 19 20  2  0
 19 44  1  0
 20 45  1  0
 21 22  2  0
M  CHG  1  18   1
M  END
>  <i_m_ct_stereo_status>  (65) 
1

>  <s_m_source_file>  (65) 
/var/tmp/pbs.5076255.sched01/tmpgq1_80gb/0xrgip9rw.sdf

>  <i_m_source_file_index>  (65) 
31

>  <i_lp_mmshare_version>  (65) 
48012

>  <i_f3d_flags>  (65) 
0

>  <s_epik_input>  (65) 
W0NIM11bQ0gyXVtDSDJdTihbQ0gyXVtDQEBdMShbQ0gzXSlbT0hdKU49QyhbQ0BASF0xMilDKFxbQ0gyXU9bQ0gyXTIpPVtDSF1cYzNbY0hdW2NIXW5bY0hdW2NIXTM=

>  <s_epik_cmdline>  (65) 
J2VwaWtfcHl0aG9uJywgJy1waHQnLCAnMi4wJywgJy1waCcsICc3LjAnLCAnLXRuJywgJzgnLCAnLW1hJywgJzIwMCcsICctaW1hZScsICc8aW5maWxlLm1hZT4nLCAnLW9tYWUnLCAnPG91dGZpbGUubWFlPic=

>  <r_epik_Ionization_Penalty>  (65) 
1.62379

>  <r_epik_Ionization_Penalty_Charging>  (65) 
1.62365

>  <r_epik_Ionization_Penalty_Neutral>  (65) 
0.0001458

>  <r_epik_State_Penalty>  (65) 
1.7236

>  <r_epik_Charging_Adjusted_Penalty>  (65) 
3.34724

>  <i_epik_Tot_Q>  (65) 
1

>  <i_epik_Tot_abs_Q>  (65) 
1

>  <s_epik_Chemistry_Notes>  (65) 
This compound has an imine and may undergo hydrolysis.

>  <s_lp_Force_Field>  (65) 
OPLS3e

>  <r_lp_Energy>  (65) 
43.7376

>  <b_lp_Chiralities_Consistent>  (65) 
1

>  <s_lp_Variant>  (65) 
21:0-4

>  <s_i_glide_gridfile>  (65) 
pfpi4k_grid

>  <i_i_glide_lignum>  (65) 
31

>  <i_i_glide_rotatable_bonds>  (65) 
4

>  <r_i_docking_score>  (65) 
-2.99523

>  <r_i_glide_ligand_efficiency>  (65) 
-0.136147

>  <r_i_glide_ligand_efficiency_sa>  (65) 
-0.381488

>  <r_i_glide_ligand_efficiency_ln>  (65) 
-0.732142

>  <r_i_glide_gscore>  (65) 
-2.99523

>  <r_i_glide_lipo>  (65) 
-0.135802

>  <r_i_glide_hbond>  (65) 
-0.0133235

>  <r_i_glide_metal>  (65) 
-0

>  <r_i_glide_rewards>  (65) 
-1.34733

>  <r_i_glide_evdw>  (65) 
-17.2553

>  <r_i_glide_ecoul>  (65) 
-4.99741

>  <r_i_glide_erotb>  (65) 
0.201348

>  <r_i_glide_esite>  (65) 
-0.0877398

>  <r_i_glide_emodel>  (65) 
-24.9279

>  <r_i_glide_energy>  (65) 
-22.2527

>  <r_i_glide_einternal>  (65) 
3.88506

>  <r_i_glide_intrahb_reward>  (65) 
-0

>  <i_i_glide_confnum>  (65) 
5

>  <i_i_glide_posenum>  (65) 
23

>  <r_i_glide_eff_state_penalty>  (65) 
0

>  <ligand_id>  (65) 
21

>  <original_smiles>  (65) 
CCCN1CC(C)(O)C2COCC(=Cc3ccncc3)C2=N1

>  <smiles>  (65) 
[H]OC1(C([H])([H])[H])C([H])([H])N(C([H])([H])C([H])([H])C([H])([H])[H])N=C2C(=C([H])c3c([H])c([H])[n+]([H])c([H])c3[H])C([H])([H])OC([H])([H])C21[H]

$$$$
21:3:2
     RDKit          3D

 46 48  0  0  1  0  0  0  0  0999 V2000
   -2.5609    4.4265    2.8478 C   0  0  0  0  0  0  0  0  0  0  0  0
   -2.8237    2.9447    2.5547 C   0  0  0  0  0  0  0  0  0  0  0  0
   -1.5358    2.1052    2.4696 C   0  0  0  0  0  0  0  0  0  0  0  0
   -0.8898    1.8723    3.7621 N   0  0  0  0  0  0  0  0  0  0  0  0
   -1.4713    1.0097    4.7979 C   0  0  0  0  0  0  0  0  0  0  0  0
   -0.5007   -0.0686    5.2851 C   0  0  1  0  0  0  0  0  0  0  0  0
   -1.1623   -0.7968    6.4363 C   0  0  0  0  0  0  0  0  0  0  0  0
   -0.3215   -1.0171    4.2546 O   0  0  0  0  0  0  0  0  0  0  0  0
    0.8272    0.6312    5.6668 C   0  0  1  0  0  0  0  0  0  0  0  0
    1.9785   -0.2827    6.1755 C   0  0  0  0  0  0  0  0  0  0  0  0
    2.8159   -0.6515    5.0876 O   0  0  0  0  0  0  0  0  0  0  0  0
    3.5666    0.4466    4.5689 C   0  0  0  0  0  0  0  0  0  0  0  0
    2.7305    1.6948    4.2802 C   0  0  0  0  0  0  0  0  0  0  0  0
    3.3301    2.9099    4.1596 C   0  0  0  0  0  0  0  0  0  0  0  0
    2.8128    4.3058    4.0484 C   0  0  0  0  0  0  0  0  0  0  0  0
    3.4210    5.3798    4.7611 C   0  0  0  0  0  0  0  0  0  0  0  0
    2.8720    6.6892    4.6679 C   0  0  0  0  0  0  0  0  0  0  0  0
    1.7431    6.8981    3.9561 N   0  0  0  0  0  0  0  0  0  0  0  0
    1.1389    5.9009    3.2714 C   0  0  0  0  0  0  0  0  0  0  0  0
    1.7154    4.6277    3.2293 C   0  0  0  0  0  0  0  0  0  0  0  0
    1.3094    1.5437    4.5449 C   0  0  0  0  0  0  0  0  0  0  0  0
    0.4585    2.1045    3.7526 N   0  0  0  0  0  0  0  0  0  0  0  0
   -3.4970    4.9855    2.8483 H   0  0  0  0  0  0  0  0  0  0  0  0
   -1.9151    4.8770    2.0904 H   0  0  0  0  0  0  0  0  0  0  0  0
   -2.0759    4.5394    3.8163 H   0  0  0  0  0  0  0  0  0  0  0  0
   -3.5075    2.5316    3.2909 H   0  0  0  0  0  0  0  0  0  0  0  0
   -3.3815    2.8642    1.6192 H   0  0  0  0  0  0  0  0  0  0  0  0
   -1.7876    1.1308    2.0513 H   0  0  0  0  0  0  0  0  0  0  0  0
   -0.8127    2.5425    1.7911 H   0  0  0  0  0  0  0  0  0  0  0  0
   -1.8005    1.6526    5.6180 H   0  0  0  0  0  0  0  0  0  0  0  0
   -2.3824    0.5416    4.4016 H   0  0  0  0  0  0  0  0  0  0  0  0
   -1.3075   -0.0895    7.2610 H   0  0  0  0  0  0  0  0  0  0  0  0
   -0.5687   -1.6491    6.7818 H   0  0  0  0  0  0  0  0  0  0  0  0
   -2.1313   -1.1705    6.0818 H   0  0  0  0  0  0  0  0  0  0  0  0
    0.1027   -0.5634    3.5374 H   0  0  0  0  0  0  0  0  0  0  0  0
    0.5872    1.2744    6.5232 H   0  0  0  0  0  0  0  0  0  0  0  0
    2.5803    0.2340    6.9288 H   0  0  0  0  0  0  0  0  0  0  0  0
    1.5928   -1.1847    6.6417 H   0  0  0  0  0  0  0  0  0  0  0  0
    4.4141    0.6808    5.2146 H   0  0  0  0  0  0  0  0  0  0  0  0
    3.9821    0.1180    3.6103 H   0  0  0  0  0  0  0  0  0  0  0  0
    4.3971    2.8577    4.1725 H   0  0  0  0  0  0  0  0  0  0  0  0
    4.3246    5.2186    5.3419 H   0  0  0  0  0  0  0  0  0  0  0  0
    3.3057    7.5706    5.1305 H   0  0  0  0  0  0  0  0  0  0  0  0
    0.2765    6.1633    2.6809 H   0  0  0  0  0  0  0  0  0  0  0  0
    1.2935    3.9345    2.5113 H   0  0  0  0  0  0  0  0  0  0  0  0
    1.3389    7.8340    3.8388 H   0  0  0  0  0  0  0  0  0  0  0  0
  1  2  1  0
  1 23  1  0
  1 24  1  0
  1 25  1  0
  2  3  1  0
  2 26  1  0
  2 27  1  0
  3  4  1  0
  3 28  1  0
  3 29  1  0
  4 22  1  0
  4  5  1  0
  5  6  1  0
  5 30  1  0
  5 31  1  0
  6  7  1  0
  6  8  1  6
  6  9  1  0
  7 32  1  0
  7 33  1  0
  7 34  1  0
  8 35  1  0
  9 21  1  0
  9 10  1  0
  9 36  1  1
 10 11  1  0
 10 37  1  0
 10 38  1  0
 11 12  1  0
 12 13  1  0
 12 39  1  0
 12 40  1  0
 13 14  2  3
 13 21  1  0
 14 15  1  0
 14 41  1  0
 15 20  1  0
 15 16  2  0
 16 17  1  0
 16 42  1  0
 17 18  2  0
 17 43  1  0
 18 19  1  0
 18 46  1  0
 19 20  2  0
 19 44  1  0
 20 45  1  0
 21 22  2  0
M  CHG  1  18   1
M  END
>  <i_m_ct_stereo_status>  (66) 
1

>  <s_m_source_file>  (66) 
/var/tmp/pbs.5076255.sched01/tmpgq1_80gb/0xrgip9rw.sdf

>  <i_m_source_file_index>  (66) 
31

>  <i_lp_mmshare_version>  (66) 
48012

>  <i_f3d_flags>  (66) 
0

>  <s_epik_input>  (66) 
W0NIM11bQ0gyXVtDSDJdTihbQ0gyXVtDQEBdMShbQ0gzXSlbT0hdKU49QyhbQ0BASF0xMilDKFxbQ0gyXU9bQ0gyXTIpPVtDSF1cYzNbY0hdW2NIXW5bY0hdW2NIXTM=

>  <s_epik_cmdline>  (66) 
J2VwaWtfcHl0aG9uJywgJy1waHQnLCAnMi4wJywgJy1waCcsICc3LjAnLCAnLXRuJywgJzgnLCAnLW1hJywgJzIwMCcsICctaW1hZScsICc8aW5maWxlLm1hZT4nLCAnLW9tYWUnLCAnPG91dGZpbGUubWFlPic=

>  <r_epik_Ionization_Penalty>  (66) 
1.62379

>  <r_epik_Ionization_Penalty_Charging>  (66) 
1.62365

>  <r_epik_Ionization_Penalty_Neutral>  (66) 
0.0001458

>  <r_epik_State_Penalty>  (66) 
1.7236

>  <r_epik_Charging_Adjusted_Penalty>  (66) 
3.34724

>  <i_epik_Tot_Q>  (66) 
1

>  <i_epik_Tot_abs_Q>  (66) 
1

>  <s_epik_Chemistry_Notes>  (66) 
This compound has an imine and may undergo hydrolysis.

>  <s_lp_Force_Field>  (66) 
OPLS3e

>  <r_lp_Energy>  (66) 
43.7376

>  <b_lp_Chiralities_Consistent>  (66) 
1

>  <s_lp_Variant>  (66) 
21:0-4

>  <s_i_glide_gridfile>  (66) 
pfpi4k_grid

>  <i_i_glide_lignum>  (66) 
31

>  <i_i_glide_rotatable_bonds>  (66) 
4

>  <r_i_docking_score>  (66) 
-2.64223

>  <r_i_glide_ligand_efficiency>  (66) 
-0.120101

>  <r_i_glide_ligand_efficiency_sa>  (66) 
-0.336528

>  <r_i_glide_ligand_efficiency_ln>  (66) 
-0.645856

>  <r_i_glide_gscore>  (66) 
-2.64223

>  <r_i_glide_lipo>  (66) 
-0.00265006

>  <r_i_glide_hbond>  (66) 
-0.0772692

>  <r_i_glide_metal>  (66) 
-0

>  <r_i_glide_rewards>  (66) 
-1.34733

>  <r_i_glide_evdw>  (66) 
-17.024

>  <r_i_glide_ecoul>  (66) 
-3.13749

>  <r_i_glide_erotb>  (66) 
0.201348

>  <r_i_glide_esite>  (66) 
-0.0944973

>  <r_i_glide_emodel>  (66) 
-22.0135

>  <r_i_glide_energy>  (66) 
-20.1615

>  <r_i_glide_einternal>  (66) 
4.57806

>  <r_i_glide_intrahb_reward>  (66) 
-0

>  <i_i_glide_confnum>  (66) 
2

>  <i_i_glide_posenum>  (66) 
28

>  <r_i_glide_eff_state_penalty>  (66) 
0

>  <ligand_id>  (66) 
21

>  <original_smiles>  (66) 
CCCN1CC(C)(O)C2COCC(=Cc3ccncc3)C2=N1

>  <smiles>  (66) 
[H]OC1(C([H])([H])[H])C([H])([H])N(C([H])([H])C([H])([H])C([H])([H])[H])N=C2C(=C([H])c3c([H])c([H])[n+]([H])c([H])c3[H])C([H])([H])OC([H])([H])C21[H]

$$$$
22:0:0
     RDKit          3D

 78 83  0  0  1  0  0  0  0  0999 V2000
    7.0216   -2.7177   -1.7853 C   0  0  0  0  0  0  0  0  0  0  0  0
    5.5579   -2.5036   -1.3302 C   0  0  0  0  0  0  0  0  0  0  0  0
    4.7153   -2.3675   -2.6220 C   0  0  0  0  0  0  0  0  0  0  0  0
    5.1606   -3.7615   -0.5010 C   0  0  0  0  0  0  0  0  0  0  0  0
    3.8404   -3.7118    0.3125 C   0  0  1  0  0  0  0  0  0  0  0  0
    2.6241   -3.6481   -0.6485 C   0  0  0  0  0  0  0  0  0  0  0  0
    3.7395   -5.0259    1.1504 C   0  0  0  0  0  0  0  0  0  0  0  0
    3.1121   -6.1237    0.6687 C   0  0  0  0  0  0  0  0  0  0  0  0
    2.9750   -7.4424    1.3745 C   0  0  0  0  0  0  0  0  0  0  0  0
    2.9173   -7.2799    2.9118 C   0  0  1  0  0  0  0  0  0  0  0  0
    4.1988   -6.4539    3.3439 C   0  0  2  0  0  0  0  0  0  0  0  0
    5.4382   -7.3016    2.8804 C   0  0  0  0  0  0  0  0  0  0  0  0
    4.4629   -6.4027    4.8946 C   0  0  0  0  0  0  0  0  0  0  0  0
    3.4459   -5.9709    5.9856 C   0  0  1  0  0  0  0  0  0  0  0  0
    3.1662   -4.5850    5.9775 O   0  0  0  0  0  0  0  0  0  0  0  0
    2.2007   -6.8559    6.1972 C   0  0  2  0  0  0  0  0  0  0  0  0
    1.4931   -6.2360    7.2558 O   0  0  0  0  0  0  0  0  0  0  0  0
    2.4912   -8.3267    6.4885 C   0  0  0  0  0  0  0  0  0  0  0  0
    1.9724   -8.7297    5.2010 O   0  0  0  0  0  0  0  0  0  0  0  0
    1.3452   -7.4373    5.0236 C   0  0  1  0  0  0  0  0  0  0  0  0
   -0.1192   -7.6439    5.4226 C   0  0  0  0  0  0  0  0  0  0  0  0
   -0.9825   -8.2364    4.5869 C   0  0  0  0  0  0  0  0  0  0  0  0
   -0.5257   -8.7167    3.2350 C   0  0  0  0  0  0  0  0  0  0  0  0
    0.3199   -7.5855    2.6433 C   0  0  0  0  0  0  0  0  0  0  0  0
   -0.0240   -7.0749    1.5719 O   0  0  0  0  0  0  0  0  0  0  0  0
    1.4728   -6.9537    3.5187 C   0  0  2  0  0  0  0  0  0  0  0  0
    1.1125   -5.4507    3.4680 C   0  0  0  0  0  0  0  0  0  0  0  0
    4.3932   -5.0794    2.5431 C   0  0  2  0  0  0  0  0  0  0  0  0
    4.1569   -3.7705    3.3140 C   0  0  0  0  0  0  0  0  0  0  0  0
    4.5720   -2.5368    2.5253 C   0  0  1  0  0  0  0  0  0  0  0  0
    5.9570   -2.5983    2.3532 O   0  0  0  0  0  0  0  0  0  0  0  0
    3.8101   -2.4166    1.1908 C   0  0  1  0  0  0  0  0  0  0  0  0
    4.1461   -1.1277    0.3688 C   0  0  1  0  0  0  0  0  0  0  0  0
    4.2081    0.0268    1.1857 O   0  0  0  0  0  0  0  0  0  0  0  0
    5.4213   -1.1929   -0.5007 C   0  0  1  0  0  0  0  0  0  0  0  0
    6.5631   -0.9504    0.3026 O   0  0  0  0  0  0  0  0  0  0  0  0
    7.0951   -3.5731   -2.4602 H   0  0  0  0  0  0  0  0  0  0  0  0
    7.6900   -2.9117   -0.9407 H   0  0  0  0  0  0  0  0  0  0  0  0
    7.4200   -1.8549   -2.3171 H   0  0  0  0  0  0  0  0  0  0  0  0
    3.7401   -1.9189   -2.4398 H   0  0  0  0  0  0  0  0  0  0  0  0
    4.5645   -3.3326   -3.1107 H   0  0  0  0  0  0  0  0  0  0  0  0
    5.1988   -1.7098   -3.3438 H   0  0  0  0  0  0  0  0  0  0  0  0
    5.1272   -4.6192   -1.1732 H   0  0  0  0  0  0  0  0  0  0  0  0
    5.9762   -3.9876    0.1872 H   0  0  0  0  0  0  0  0  0  0  0  0
    2.3653   -2.6559   -0.9950 H   0  0  0  0  0  0  0  0  0  0  0  0
    1.7406   -3.9913   -0.1305 H   0  0  0  0  0  0  0  0  0  0  0  0
    2.7477   -4.2612   -1.5314 H   0  0  0  0  0  0  0  0  0  0  0  0
    2.6905   -6.1306   -0.3170 H   0  0  0  0  0  0  0  0  0  0  0  0
    2.1478   -8.0053    0.9528 H   0  0  0  0  0  0  0  0  0  0  0  0
    3.8100   -8.0717    1.0786 H   0  0  0  0  0  0  0  0  0  0  0  0
    3.1104   -8.2978    3.2457 H   0  0  0  0  0  0  0  0  0  0  0  0
    6.3672   -6.9349    3.3230 H   0  0  0  0  0  0  0  0  0  0  0  0
    5.6102   -7.2601    1.8015 H   0  0  0  0  0  0  0  0  0  0  0  0
    5.3503   -8.3584    3.1498 H   0  0  0  0  0  0  0  0  0  0  0  0
    4.7694   -7.4052    5.1886 H   0  0  0  0  0  0  0  0  0  0  0  0
    5.3572   -5.8010    5.0501 H   0  0  0  0  0  0  0  0  0  0  0  0
    4.0154   -6.0489    6.9133 H   0  0  0  0  0  0  0  0  0  0  0  0
    2.6792   -4.3855    5.1918 H   0  0  0  0  0  0  0  0  0  0  0  0
    0.8847   -6.8762    7.5793 H   0  0  0  0  0  0  0  0  0  0  0  0
    3.5473   -8.5628    6.5952 H   0  0  0  0  0  0  0  0  0  0  0  0
    1.9124   -8.7524    7.3107 H   0  0  0  0  0  0  0  0  0  0  0  0
   -0.4448   -7.3325    6.3995 H   0  0  0  0  0  0  0  0  0  0  0  0
   -2.0053   -8.4441    4.8661 H   0  0  0  0  0  0  0  0  0  0  0  0
    0.0170   -9.6606    3.3237 H   0  0  0  0  0  0  0  0  0  0  0  0
   -1.4061   -8.8843    2.6108 H   0  0  0  0  0  0  0  0  0  0  0  0
    1.5524   -4.8731    4.2593 H   0  0  0  0  0  0  0  0  0  0  0  0
    0.0434   -5.3028    3.6229 H   0  0  0  0  0  0  0  0  0  0  0  0
    1.3738   -4.9970    2.5147 H   0  0  0  0  0  0  0  0  0  0  0  0
    5.4570   -5.0365    2.2998 H   0  0  0  0  0  0  0  0  0  0  0  0
    3.1132   -3.6451    3.5649 H   0  0  0  0  0  0  0  0  0  0  0  0
    4.7403   -3.7707    4.2320 H   0  0  0  0  0  0  0  0  0  0  0  0
    4.3679   -1.6559    3.1330 H   0  0  0  0  0  0  0  0  0  0  0  0
    6.2274   -1.8274    1.8643 H   0  0  0  0  0  0  0  0  0  0  0  0
    2.7753   -2.2870    1.5080 H   0  0  0  0  0  0  0  0  0  0  0  0
    3.3140   -0.9349   -0.3050 H   0  0  0  0  0  0  0  0  0  0  0  0
    4.1845    0.7911    0.6263 H   0  0  0  0  0  0  0  0  0  0  0  0
    5.3857   -0.3531   -1.1999 H   0  0  0  0  0  0  0  0  0  0  0  0
    6.4434   -0.1094    0.7294 H   0  0  0  0  0  0  0  0  0  0  0  0
  1  2  1  0
  1 37  1  0
  1 38  1  0
  1 39  1  0
  2 35  1  0
  2  3  1  0
  2  4  1  0
  3 40  1  0
  3 41  1  0
  3 42  1  0
  4  5  1  0
  4 43  1  0
  4 44  1  0
  5 32  1  0
  5  6  1  6
  5  7  1  0
  6 45  1  0
  6 46  1  0
  6 47  1  0
  7 28  1  0
  7  8  2  0
  8  9  1  0
  8 48  1  0
  9 10  1  0
  9 49  1  0
  9 50  1  0
 10 26  1  0
 10 11  1  0
 10 51  1  1
 11 12  1  6
 11 13  1  0
 11 28  1  0
 12 52  1  0
 12 53  1  0
 12 54  1  0
 13 14  1  0
 13 55  1  0
 13 56  1  0
 14 15  1  0
 14 16  1  0
 14 57  1  1
 15 58  1  0
 16 20  1  0
 16 17  1  1
 16 18  1  0
 17 59  1  0
 18 19  1  0
 18 60  1  0
 18 61  1  0
 20 19  1  6
 20 26  1  0
 20 21  1  0
 21 22  2  0
 21 62  1  0
 22 23  1  0
 22 63  1  0
 23 24  1  0
 23 64  1  0
 23 65  1  0
 24 25  2  0
 24 26  1  0
 26 27  1  1
 27 66  1  0
 27 67  1  0
 27 68  1  0
 28 29  1  0
 28 69  1  6
 29 30  1  0
 29 70  1  0
 29 71  1  0
 30 31  1  0
 30 32  1  0
 30 72  1  1
 31 73  1  0
 32 33  1  0
 32 74  1  1
 33 34  1  0
 33 35  1  0
 33 75  1  6
 34 76  1  0
 35 36  1  0
 35 77  1  6
 36 78  1  0
M  END
>  <i_m_ct_stereo_status>  (67) 
1

>  <s_m_source_file>  (67) 
/var/tmp/pbs.5076255.sched01/tmpgq1_80gb/0xrgip9rw.sdf

>  <i_m_source_file_index>  (67) 
32

>  <i_lp_mmshare_version>  (67) 
48012

>  <i_f3d_flags>  (67) 
0

>  <s_epik_input>  (67) 
W0NIM11DKFtDSDNdKShbQ0gyXTEpW0NASF0oW09IXSlbQ0BIXShbT0hdKVtDQEhdKFtDQEhdKFtPSF0pW0NIMl1bQ0BIXTIzKVtDQF0xKFtDSDNdKUMyPVtDSF1bQ0gyXVtDQEBIXShbQ0BdMyhbQ0gzXSlbQ0gyXVtDQEBIXShbT0hdKVtDQF0oW0NAQF00NTYpKFtPSF0pW0NIMl1PNClbQ0BAXTYoW0NIM10pQyg9TylbQ0gyXVtDSF09W0NIXTU=

>  <s_epik_cmdline>  (67) 
J2VwaWtfcHl0aG9uJywgJy1waHQnLCAnMi4wJywgJy1waCcsICc3LjAnLCAnLXRuJywgJzgnLCAnLW1hJywgJzIwMCcsICctaW1hZScsICc8aW5maWxlLm1hZT4nLCAnLW9tYWUnLCAnPG91dGZpbGUubWFlPic=

>  <r_lp_tautomer_probability>  (67) 
1

>  <r_epik_Ionization_Penalty>  (67) 
2.63497e-06

>  <r_epik_Ionization_Penalty_Charging>  (67) 
0

>  <r_epik_Ionization_Penalty_Neutral>  (67) 
2.63497e-06

>  <r_epik_State_Penalty>  (67) 
-0

>  <r_epik_Charging_Adjusted_Penalty>  (67) 
0

>  <i_epik_Tot_Q>  (67) 
0

>  <i_epik_Tot_abs_Q>  (67) 
0

>  <s_lp_Force_Field>  (67) 
OPLS3e

>  <r_lp_Energy>  (67) 
105.438

>  <b_lp_Chiralities_Consistent>  (67) 
1

>  <s_lp_Variant>  (67) 
22:0-1

>  <s_i_glide_gridfile>  (67) 
pfpi4k_grid

>  <i_i_glide_lignum>  (67) 
32

>  <i_i_glide_rotatable_bonds>  (67) 
5

>  <r_i_docking_score>  (67) 
-3.05418

>  <r_i_glide_ligand_efficiency>  (67) 
-0.0848382

>  <r_i_glide_ligand_efficiency_sa>  (67) 
-0.28013

>  <r_i_glide_ligand_efficiency_ln>  (67) 
-0.666339

>  <r_i_glide_gscore>  (67) 
-3.05418

>  <r_i_glide_lipo>  (67) 
-0.310321

>  <r_i_glide_hbond>  (67) 
0

>  <r_i_glide_metal>  (67) 
-0

>  <r_i_glide_rewards>  (67) 
-0.5

>  <r_i_glide_evdw>  (67) 
-30.1

>  <r_i_glide_ecoul>  (67) 
-4.61259

>  <r_i_glide_erotb>  (67) 
0

>  <r_i_glide_esite>  (67) 
-0.0469639

>  <r_i_glide_emodel>  (67) 
-45.0613

>  <r_i_glide_energy>  (67) 
-34.7126

>  <r_i_glide_einternal>  (67) 
1.08447

>  <r_i_glide_intrahb_reward>  (67) 
-0.5

>  <i_i_glide_confnum>  (67) 
2

>  <i_i_glide_posenum>  (67) 
7

>  <r_i_glide_eff_state_penalty>  (67) 
0

>  <ligand_id>  (67) 
22

>  <original_smiles>  (67) 
CC1(C)CC2(C)C3=CCC4C(C)(CC(O)C5(O)COC56C=CCC(=O)C46C)C3CC(O)C2C(O)C1O

>  <smiles>  (67) 
[H]OC1([H])C([H])([H])C2([H])C(=C([H])C([H])([H])C3([H])C4(C([H])([H])[H])C(=O)C([H])([H])C([H])=C([H])C45OC([H])([H])C5(O[H])C([H])(O[H])C([H])([H])C23C([H])([H])[H])C2(C([H])([H])[H])C([H])([H])C(C([H])([H])[H])(C([H])([H])[H])C([H])(O[H])C([H])(O[H])C12[H]

$$$$
22:0:1
     RDKit          3D

 78 83  0  0  1  0  0  0  0  0999 V2000
    6.9776   -2.7115   -1.7743 C   0  0  0  0  0  0  0  0  0  0  0  0
    5.5168   -2.4872   -1.3258 C   0  0  0  0  0  0  0  0  0  0  0  0
    4.6715   -2.3511   -2.6173 C   0  0  0  0  0  0  0  0  0  0  0  0
    5.1224   -3.7451   -0.4967 C   0  0  0  0  0  0  0  0  0  0  0  0
    3.8007   -3.7051    0.3159 C   0  0  1  0  0  0  0  0  0  0  0  0
    2.5880   -3.6493   -0.6499 C   0  0  0  0  0  0  0  0  0  0  0  0
    3.7060   -5.0213    1.1547 C   0  0  0  0  0  0  0  0  0  0  0  0
    3.0881   -6.1202    0.6677 C   0  0  0  0  0  0  0  0  0  0  0  0
    2.9594   -7.4412    1.3771 C   0  0  0  0  0  0  0  0  0  0  0  0
    2.9028   -7.2778    2.9148 C   0  0  1  0  0  0  0  0  0  0  0  0
    4.1801   -6.4438    3.3467 C   0  0  2  0  0  0  0  0  0  0  0  0
    5.4224   -7.2841    2.8813 C   0  0  0  0  0  0  0  0  0  0  0  0
    4.4438   -6.3928    4.8978 C   0  0  0  0  0  0  0  0  0  0  0  0
    3.4263   -5.9703    5.9895 C   0  0  1  0  0  0  0  0  0  0  0  0
    3.1446   -4.5866    5.9803 O   0  0  0  0  0  0  0  0  0  0  0  0
    2.1846   -6.8591    6.1967 C   0  0  2  0  0  0  0  0  0  0  0  0
    1.4754   -6.2437    7.2565 O   0  0  0  0  0  0  0  0  0  0  0  0
    2.4831   -8.3303    6.4883 C   0  0  0  0  0  0  0  0  0  0  0  0
    1.9672   -8.7374    5.1994 O   0  0  0  0  0  0  0  0  0  0  0  0
    1.3350   -7.4461    5.0233 C   0  0  1  0  0  0  0  0  0  0  0  0
   -0.1291   -7.6580    5.4218 C   0  0  0  0  0  0  0  0  0  0  0  0
   -0.9888   -8.2471    4.5841 C   0  0  0  0  0  0  0  0  0  0  0  0
   -0.5295   -8.7335    3.2339 C   0  0  0  0  0  0  0  0  0  0  0  0
    0.3076   -7.5989    2.6427 C   0  0  0  0  0  0  0  0  0  0  0  0
   -0.0421   -7.0870    1.5754 O   0  0  0  0  0  0  0  0  0  0  0  0
    1.4577   -6.9606    3.5197 C   0  0  2  0  0  0  0  0  0  0  0  0
    1.0874   -5.4595    3.4744 C   0  0  0  0  0  0  0  0  0  0  0  0
    4.3644   -5.0692    2.5472 C   0  0  2  0  0  0  0  0  0  0  0  0
    4.1163   -3.7639    3.3177 C   0  0  0  0  0  0  0  0  0  0  0  0
    4.5218   -2.5248    2.5339 C   0  0  1  0  0  0  0  0  0  0  0  0
    5.9082   -2.5747    2.3766 O   0  0  0  0  0  0  0  0  0  0  0  0
    3.7587   -2.4136    1.1961 C   0  0  1  0  0  0  0  0  0  0  0  0
    4.0864   -1.1271    0.3698 C   0  0  1  0  0  0  0  0  0  0  0  0
    4.0959    0.0289    1.1832 O   0  0  0  0  0  0  0  0  0  0  0  0
    5.3689   -1.1784   -0.4942 C   0  0  1  0  0  0  0  0  0  0  0  0
    6.4951   -0.9217    0.3176 O   0  0  0  0  0  0  0  0  0  0  0  0
    7.0505   -3.5688   -2.4416 H   0  0  0  0  0  0  0  0  0  0  0  0
    7.6458   -2.8942   -0.9315 H   0  0  0  0  0  0  0  0  0  0  0  0
    7.3771   -1.8573   -2.3198 H   0  0  0  0  0  0  0  0  0  0  0  0
    3.6928   -1.9088   -2.4342 H   0  0  0  0  0  0  0  0  0  0  0  0
    4.5254   -3.3160   -3.1074 H   0  0  0  0  0  0  0  0  0  0  0  0
    5.1461   -1.6868   -3.3392 H   0  0  0  0  0  0  0  0  0  0  0  0
    5.0923   -4.6047   -1.1683 H   0  0  0  0  0  0  0  0  0  0  0  0
    5.9380   -3.9668    0.1937 H   0  0  0  0  0  0  0  0  0  0  0  0
    2.3204   -2.6576   -0.9924 H   0  0  0  0  0  0  0  0  0  0  0  0
    1.7042   -4.0035   -0.1400 H   0  0  0  0  0  0  0  0  0  0  0  0
    2.7173   -4.2595   -1.5337 H   0  0  0  0  0  0  0  0  0  0  0  0
    2.6674   -6.1310   -0.3179 H   0  0  0  0  0  0  0  0  0  0  0  0
    2.1347   -8.0066    0.9536 H   0  0  0  0  0  0  0  0  0  0  0  0
    3.7991   -8.0621    1.0804 H   0  0  0  0  0  0  0  0  0  0  0  0
    3.1013   -8.2964    3.2462 H   0  0  0  0  0  0  0  0  0  0  0  0
    6.3486   -6.9113    3.3236 H   0  0  0  0  0  0  0  0  0  0  0  0
    5.5937   -7.2401    1.8030 H   0  0  0  0  0  0  0  0  0  0  0  0
    5.3405   -8.3417    3.1505 H   0  0  0  0  0  0  0  0  0  0  0  0
    4.7580   -7.3960    5.1880 H   0  0  0  0  0  0  0  0  0  0  0  0
    5.3365   -5.7866    5.0513 H   0  0  0  0  0  0  0  0  0  0  0  0
    3.9937   -6.0477    6.9182 H   0  0  0  0  0  0  0  0  0  0  0  0
    2.7498   -4.3683    5.1486 H   0  0  0  0  0  0  0  0  0  0  0  0
    0.8624   -6.8865    7.5709 H   0  0  0  0  0  0  0  0  0  0  0  0
    3.5396   -8.5598    6.5959 H   0  0  0  0  0  0  0  0  0  0  0  0
    1.9024   -8.7581    7.3083 H   0  0  0  0  0  0  0  0  0  0  0  0
   -0.4515   -7.3561    6.4034 H   0  0  0  0  0  0  0  0  0  0  0  0
   -2.0096   -8.4699    4.8656 H   0  0  0  0  0  0  0  0  0  0  0  0
    0.0186   -9.6748    3.3273 H   0  0  0  0  0  0  0  0  0  0  0  0
   -1.4094   -8.9107    2.6113 H   0  0  0  0  0  0  0  0  0  0  0  0
    1.5252   -4.8818    4.2689 H   0  0  0  0  0  0  0  0  0  0  0  0
    0.0176   -5.3225    3.6313 H   0  0  0  0  0  0  0  0  0  0  0  0
    1.3446   -5.0052    2.5190 H   0  0  0  0  0  0  0  0  0  0  0  0
    5.4264   -5.0192    2.3035 H   0  0  0  0  0  0  0  0  0  0  0  0
    3.0708   -3.6460    3.5670 H   0  0  0  0  0  0  0  0  0  0  0  0
    4.7021   -3.7597    4.2339 H   0  0  0  0  0  0  0  0  0  0  0  0
    4.3061   -1.6455    3.1427 H   0  0  0  0  0  0  0  0  0  0  0  0
    6.1746   -1.7977    1.8937 H   0  0  0  0  0  0  0  0  0  0  0  0
    2.7208   -2.2950    1.5095 H   0  0  0  0  0  0  0  0  0  0  0  0
    3.2638   -0.9446   -0.3178 H   0  0  0  0  0  0  0  0  0  0  0  0
    3.2033    0.1958    1.4571 H   0  0  0  0  0  0  0  0  0  0  0  0
    5.3235   -0.3339   -1.1860 H   0  0  0  0  0  0  0  0  0  0  0  0
    6.3573   -0.0700    0.7174 H   0  0  0  0  0  0  0  0  0  0  0  0
  1  2  1  0
  1 37  1  0
  1 38  1  0
  1 39  1  0
  2 35  1  0
  2  3  1  0
  2  4  1  0
  3 40  1  0
  3 41  1  0
  3 42  1  0
  4  5  1  0
  4 43  1  0
  4 44  1  0
  5 32  1  0
  5  6  1  6
  5  7  1  0
  6 45  1  0
  6 46  1  0
  6 47  1  0
  7 28  1  0
  7  8  2  0
  8  9  1  0
  8 48  1  0
  9 10  1  0
  9 49  1  0
  9 50  1  0
 10 26  1  0
 10 11  1  0
 10 51  1  1
 11 12  1  6
 11 13  1  0
 11 28  1  0
 12 52  1  0
 12 53  1  0
 12 54  1  0
 13 14  1  0
 13 55  1  0
 13 56  1  0
 14 15  1  0
 14 16  1  0
 14 57  1  1
 15 58  1  0
 16 20  1  0
 16 17  1  1
 16 18  1  0
 17 59  1  0
 18 19  1  0
 18 60  1  0
 18 61  1  0
 20 19  1  6
 20 26  1  0
 20 21  1  0
 21 22  2  0
 21 62  1  0
 22 23  1  0
 22 63  1  0
 23 24  1  0
 23 64  1  0
 23 65  1  0
 24 25  2  0
 24 26  1  0
 26 27  1  1
 27 66  1  0
 27 67  1  0
 27 68  1  0
 28 29  1  0
 28 69  1  6
 29 30  1  0
 29 70  1  0
 29 71  1  0
 30 31  1  0
 30 32  1  0
 30 72  1  1
 31 73  1  0
 32 33  1  0
 32 74  1  1
 33 34  1  0
 33 35  1  0
 33 75  1  6
 34 76  1  0
 35 36  1  0
 35 77  1  6
 36 78  1  0
M  END
>  <i_m_ct_stereo_status>  (68) 
1

>  <s_m_source_file>  (68) 
/var/tmp/pbs.5076255.sched01/tmpgq1_80gb/0xrgip9rw.sdf

>  <i_m_source_file_index>  (68) 
32

>  <i_lp_mmshare_version>  (68) 
48012

>  <i_f3d_flags>  (68) 
0

>  <s_epik_input>  (68) 
W0NIM11DKFtDSDNdKShbQ0gyXTEpW0NASF0oW09IXSlbQ0BIXShbT0hdKVtDQEhdKFtDQEhdKFtPSF0pW0NIMl1bQ0BIXTIzKVtDQF0xKFtDSDNdKUMyPVtDSF1bQ0gyXVtDQEBIXShbQ0BdMyhbQ0gzXSlbQ0gyXVtDQEBIXShbT0hdKVtDQF0oW0NAQF00NTYpKFtPSF0pW0NIMl1PNClbQ0BAXTYoW0NIM10pQyg9TylbQ0gyXVtDSF09W0NIXTU=

>  <s_epik_cmdline>  (68) 
J2VwaWtfcHl0aG9uJywgJy1waHQnLCAnMi4wJywgJy1waCcsICc3LjAnLCAnLXRuJywgJzgnLCAnLW1hJywgJzIwMCcsICctaW1hZScsICc8aW5maWxlLm1hZT4nLCAnLW9tYWUnLCAnPG91dGZpbGUubWFlPic=

>  <r_lp_tautomer_probability>  (68) 
1

>  <r_epik_Ionization_Penalty>  (68) 
2.63497e-06

>  <r_epik_Ionization_Penalty_Charging>  (68) 
0

>  <r_epik_Ionization_Penalty_Neutral>  (68) 
2.63497e-06

>  <r_epik_State_Penalty>  (68) 
-0

>  <r_epik_Charging_Adjusted_Penalty>  (68) 
0

>  <i_epik_Tot_Q>  (68) 
0

>  <i_epik_Tot_abs_Q>  (68) 
0

>  <s_lp_Force_Field>  (68) 
OPLS3e

>  <r_lp_Energy>  (68) 
105.438

>  <b_lp_Chiralities_Consistent>  (68) 
1

>  <s_lp_Variant>  (68) 
22:0-1

>  <s_i_glide_gridfile>  (68) 
pfpi4k_grid

>  <i_i_glide_lignum>  (68) 
32

>  <i_i_glide_rotatable_bonds>  (68) 
5

>  <r_i_docking_score>  (68) 
-3.01994

>  <r_i_glide_ligand_efficiency>  (68) 
-0.0838872

>  <r_i_glide_ligand_efficiency_sa>  (68) 
-0.276989

>  <r_i_glide_ligand_efficiency_ln>  (68) 
-0.658869

>  <r_i_glide_gscore>  (68) 
-3.01994

>  <r_i_glide_lipo>  (68) 
-0.295991

>  <r_i_glide_hbond>  (68) 
0

>  <r_i_glide_metal>  (68) 
-0

>  <r_i_glide_rewards>  (68) 
-0.5

>  <r_i_glide_evdw>  (68) 
-30.6055

>  <r_i_glide_ecoul>  (68) 
-4.31046

>  <r_i_glide_erotb>  (68) 
0

>  <r_i_glide_esite>  (68) 
-0.0471026

>  <r_i_glide_emodel>  (68) 
-45.1703

>  <r_i_glide_energy>  (68) 
-34.916

>  <r_i_glide_einternal>  (68) 
1.28223

>  <r_i_glide_intrahb_reward>  (68) 
-0.5

>  <i_i_glide_confnum>  (68) 
1

>  <i_i_glide_posenum>  (68) 
1

>  <r_i_glide_eff_state_penalty>  (68) 
0

>  <ligand_id>  (68) 
22

>  <original_smiles>  (68) 
CC1(C)CC2(C)C3=CCC4C(C)(CC(O)C5(O)COC56C=CCC(=O)C46C)C3CC(O)C2C(O)C1O

>  <smiles>  (68) 
[H]OC1([H])C([H])([H])C2([H])C(=C([H])C([H])([H])C3([H])C4(C([H])([H])[H])C(=O)C([H])([H])C([H])=C([H])C45OC([H])([H])C5(O[H])C([H])(O[H])C([H])([H])C23C([H])([H])[H])C2(C([H])([H])[H])C([H])([H])C(C([H])([H])[H])(C([H])([H])[H])C([H])(O[H])C([H])(O[H])C12[H]

$$$$
22:0:2
     RDKit          3D

 78 83  0  0  1  0  0  0  0  0999 V2000
    7.0122   -2.7145   -1.7691 C   0  0  0  0  0  0  0  0  0  0  0  0
    5.5466   -2.5124   -1.3350 C   0  0  0  0  0  0  0  0  0  0  0  0
    4.7133   -2.4131   -2.6346 C   0  0  0  0  0  0  0  0  0  0  0  0
    5.1597   -3.7588   -0.4845 C   0  0  0  0  0  0  0  0  0  0  0  0
    3.8295   -3.7134    0.3154 C   0  0  1  0  0  0  0  0  0  0  0  0
    2.6176   -3.6622   -0.6545 C   0  0  0  0  0  0  0  0  0  0  0  0
    3.7299   -5.0199    1.1641 C   0  0  0  0  0  0  0  0  0  0  0  0
    3.1357   -6.1343    0.6854 C   0  0  0  0  0  0  0  0  0  0  0  0
    3.0024   -7.4367    1.4245 C   0  0  0  0  0  0  0  0  0  0  0  0
    2.9309   -7.2466    2.9618 C   0  0  1  0  0  0  0  0  0  0  0  0
    4.1934   -6.4010    3.3950 C   0  0  2  0  0  0  0  0  0  0  0  0
    5.4461   -7.2352    2.9611 C   0  0  0  0  0  0  0  0  0  0  0  0
    4.4478   -6.3203    4.9414 C   0  0  0  0  0  0  0  0  0  0  0  0
    3.4188   -5.8854    6.0254 C   0  0  1  0  0  0  0  0  0  0  0  0
    3.0661   -4.5132    5.9926 O   0  0  0  0  0  0  0  0  0  0  0  0
    2.1857   -6.7866    6.2411 C   0  0  2  0  0  0  0  0  0  0  0  0
    1.4817   -6.1611    7.2959 O   0  0  0  0  0  0  0  0  0  0  0  0
    2.4773   -8.2511    6.5405 C   0  0  0  0  0  0  0  0  0  0  0  0
    1.9875   -8.6702    5.2552 O   0  0  0  0  0  0  0  0  0  0  0  0
    1.3488   -7.3968    5.0608 C   0  0  1  0  0  0  0  0  0  0  0  0
   -0.1166   -7.6076    5.4488 C   0  0  0  0  0  0  0  0  0  0  0  0
   -0.9529   -8.2390    4.6268 C   0  0  0  0  0  0  0  0  0  0  0  0
   -0.4908   -8.7343    3.2820 C   0  0  0  0  0  0  0  0  0  0  0  0
    0.3439   -7.5955    2.6784 C   0  0  0  0  0  0  0  0  0  0  0  0
   -0.0094   -7.1025    1.6041 O   0  0  0  0  0  0  0  0  0  0  0  0
    1.4809   -6.9321    3.5516 C   0  0  2  0  0  0  0  0  0  0  0  0
    1.1004   -5.4395    3.4733 C   0  0  0  0  0  0  0  0  0  0  0  0
    4.3725   -5.0412    2.5714 C   0  0  2  0  0  0  0  0  0  0  0  0
    4.1150   -3.7253    3.3227 C   0  0  0  0  0  0  0  0  0  0  0  0
    4.5148   -2.4969    2.5214 C   0  0  1  0  0  0  0  0  0  0  0  0
    5.8989   -2.5407    2.3729 O   0  0  0  0  0  0  0  0  0  0  0  0
    3.7676   -2.4113    1.1736 C   0  0  1  0  0  0  0  0  0  0  0  0
    4.0895   -1.1389    0.3280 C   0  0  1  0  0  0  0  0  0  0  0  0
    4.0947    0.0274    1.1212 O   0  0  0  0  0  0  0  0  0  0  0  0
    5.3742   -1.1933   -0.5263 C   0  0  1  0  0  0  0  0  0  0  0  0
    6.4880   -0.9264    0.3022 O   0  0  0  0  0  0  0  0  0  0  0  0
    7.0955   -3.5766   -2.4265 H   0  0  0  0  0  0  0  0  0  0  0  0
    7.6706   -2.8894   -0.9155 H   0  0  0  0  0  0  0  0  0  0  0  0
    7.4001   -1.8536   -2.3222 H   0  0  0  0  0  0  0  0  0  0  0  0
    3.7313   -1.9740   -2.4704 H   0  0  0  0  0  0  0  0  0  0  0  0
    4.5814   -3.3862   -3.1049 H   0  0  0  0  0  0  0  0  0  0  0  0
    5.1963   -1.7616   -3.3607 H   0  0  0  0  0  0  0  0  0  0  0  0
    5.1325   -4.6251   -1.1439 H   0  0  0  0  0  0  0  0  0  0  0  0
    5.9673   -3.9661    0.2178 H   0  0  0  0  0  0  0  0  0  0  0  0
    2.3441   -2.6727   -1.0063 H   0  0  0  0  0  0  0  0  0  0  0  0
    1.7340   -4.0369   -0.1434 H   0  0  0  0  0  0  0  0  0  0  0  0
    2.7667   -4.2502   -1.5588 H   0  0  0  0  0  0  0  0  0  0  0  0
    2.7344   -6.1653   -0.3145 H   0  0  0  0  0  0  0  0  0  0  0  0
    2.1842   -8.0185    1.0101 H   0  0  0  0  0  0  0  0  0  0  0  0
    3.8481   -8.0556    1.1548 H   0  0  0  0  0  0  0  0  0  0  0  0
    3.1356   -8.2546    3.3126 H   0  0  0  0  0  0  0  0  0  0  0  0
    6.3626   -6.8471    3.4044 H   0  0  0  0  0  0  0  0  0  0  0  0
    5.6270   -7.2113    1.8830 H   0  0  0  0  0  0  0  0  0  0  0  0
    5.3699   -8.2852    3.2472 H   0  0  0  0  0  0  0  0  0  0  0  0
    4.7644   -7.3070    5.2537 H   0  0  0  0  0  0  0  0  0  0  0  0
    5.3300   -5.7018    5.0921 H   0  0  0  0  0  0  0  0  0  0  0  0
    3.9949   -5.9349    6.9543 H   0  0  0  0  0  0  0  0  0  0  0  0
    2.7843   -4.2520    6.8637 H   0  0  0  0  0  0  0  0  0  0  0  0
    1.1647   -5.3417    6.9279 H   0  0  0  0  0  0  0  0  0  0  0  0
    3.5358   -8.4643    6.6745 H   0  0  0  0  0  0  0  0  0  0  0  0
    1.8838   -8.6391    7.3738 H   0  0  0  0  0  0  0  0  0  0  0  0
   -0.4172   -7.2965    6.4348 H   0  0  0  0  0  0  0  0  0  0  0  0
   -1.9723   -8.4531    4.8815 H   0  0  0  0  0  0  0  0  0  0  0  0
    0.0565   -9.6698    3.3942 H   0  0  0  0  0  0  0  0  0  0  0  0
   -1.3685   -8.9285    2.6564 H   0  0  0  0  0  0  0  0  0  0  0  0
    1.5328   -4.8478    4.2525 H   0  0  0  0  0  0  0  0  0  0  0  0
    0.0300   -5.3123    3.6290 H   0  0  0  0  0  0  0  0  0  0  0  0
    1.3618   -5.0029    2.5148 H   0  0  0  0  0  0  0  0  0  0  0  0
    5.4410   -4.9872    2.3338 H   0  0  0  0  0  0  0  0  0  0  0  0
    3.0686   -3.6144    3.5689 H   0  0  0  0  0  0  0  0  0  0  0  0
    4.6867   -3.7045    4.2448 H   0  0  0  0  0  0  0  0  0  0  0  0
    4.2851   -1.6078    3.1075 H   0  0  0  0  0  0  0  0  0  0  0  0
    6.1608   -1.7796    1.8563 H   0  0  0  0  0  0  0  0  0  0  0  0
    2.7274   -2.2945    1.4782 H   0  0  0  0  0  0  0  0  0  0  0  0
    3.2697   -0.9715   -0.3669 H   0  0  0  0  0  0  0  0  0  0  0  0
    3.2002    0.1796    1.4037 H   0  0  0  0  0  0  0  0  0  0  0  0
    5.3318   -0.3609   -1.2346 H   0  0  0  0  0  0  0  0  0  0  0  0
    6.3409   -0.0621    0.6814 H   0  0  0  0  0  0  0  0  0  0  0  0
  1  2  1  0
  1 37  1  0
  1 38  1  0
  1 39  1  0
  2 35  1  0
  2  3  1  0
  2  4  1  0
  3 40  1  0
  3 41  1  0
  3 42  1  0
  4  5  1  0
  4 43  1  0
  4 44  1  0
  5 32  1  0
  5  6  1  6
  5  7  1  0
  6 45  1  0
  6 46  1  0
  6 47  1  0
  7 28  1  0
  7  8  2  0
  8  9  1  0
  8 48  1  0
  9 10  1  0
  9 49  1  0
  9 50  1  0
 10 26  1  0
 10 11  1  0
 10 51  1  1
 11 12  1  6
 11 13  1  0
 11 28  1  0
 12 52  1  0
 12 53  1  0
 12 54  1  0
 13 14  1  0
 13 55  1  0
 13 56  1  0
 14 15  1  0
 14 16  1  0
 14 57  1  1
 15 58  1  0
 16 20  1  0
 16 17  1  1
 16 18  1  0
 17 59  1  0
 18 19  1  0
 18 60  1  0
 18 61  1  0
 20 19  1  6
 20 26  1  0
 20 21  1  0
 21 22  2  0
 21 62  1  0
 22 23  1  0
 22 63  1  0
 23 24  1  0
 23 64  1  0
 23 65  1  0
 24 25  2  0
 24 26  1  0
 26 27  1  1
 27 66  1  0
 27 67  1  0
 27 68  1  0
 28 29  1  0
 28 69  1  6
 29 30  1  0
 29 70  1  0
 29 71  1  0
 30 31  1  0
 30 32  1  0
 30 72  1  1
 31 73  1  0
 32 33  1  0
 32 74  1  1
 33 34  1  0
 33 35  1  0
 33 75  1  6
 34 76  1  0
 35 36  1  0
 35 77  1  6
 36 78  1  0
M  END
>  <i_m_ct_stereo_status>  (69) 
1

>  <s_m_source_file>  (69) 
/var/tmp/pbs.5076255.sched01/tmpgq1_80gb/0xrgip9rw.sdf

>  <i_m_source_file_index>  (69) 
32

>  <i_lp_mmshare_version>  (69) 
48012

>  <i_f3d_flags>  (69) 
0

>  <s_epik_input>  (69) 
W0NIM11DKFtDSDNdKShbQ0gyXTEpW0NASF0oW09IXSlbQ0BIXShbT0hdKVtDQEhdKFtDQEhdKFtPSF0pW0NIMl1bQ0BIXTIzKVtDQF0xKFtDSDNdKUMyPVtDSF1bQ0gyXVtDQEBIXShbQ0BdMyhbQ0gzXSlbQ0gyXVtDQEBIXShbT0hdKVtDQF0oW0NAQF00NTYpKFtPSF0pW0NIMl1PNClbQ0BAXTYoW0NIM10pQyg9TylbQ0gyXVtDSF09W0NIXTU=

>  <s_epik_cmdline>  (69) 
J2VwaWtfcHl0aG9uJywgJy1waHQnLCAnMi4wJywgJy1waCcsICc3LjAnLCAnLXRuJywgJzgnLCAnLW1hJywgJzIwMCcsICctaW1hZScsICc8aW5maWxlLm1hZT4nLCAnLW9tYWUnLCAnPG91dGZpbGUubWFlPic=

>  <r_lp_tautomer_probability>  (69) 
1

>  <r_epik_Ionization_Penalty>  (69) 
2.63497e-06

>  <r_epik_Ionization_Penalty_Charging>  (69) 
0

>  <r_epik_Ionization_Penalty_Neutral>  (69) 
2.63497e-06

>  <r_epik_State_Penalty>  (69) 
-0

>  <r_epik_Charging_Adjusted_Penalty>  (69) 
0

>  <i_epik_Tot_Q>  (69) 
0

>  <i_epik_Tot_abs_Q>  (69) 
0

>  <s_lp_Force_Field>  (69) 
OPLS3e

>  <r_lp_Energy>  (69) 
105.438

>  <b_lp_Chiralities_Consistent>  (69) 
1

>  <s_lp_Variant>  (69) 
22:0-1

>  <s_i_glide_gridfile>  (69) 
pfpi4k_grid

>  <i_i_glide_lignum>  (69) 
32

>  <i_i_glide_rotatable_bonds>  (69) 
5

>  <r_i_docking_score>  (69) 
-2.98481

>  <r_i_glide_ligand_efficiency>  (69) 
-0.0829113

>  <r_i_glide_ligand_efficiency_sa>  (69) 
-0.273767

>  <r_i_glide_ligand_efficiency_ln>  (69) 
-0.651204

>  <r_i_glide_gscore>  (69) 
-2.98481

>  <r_i_glide_lipo>  (69) 
-0.300413

>  <r_i_glide_hbond>  (69) 
0

>  <r_i_glide_metal>  (69) 
-0

>  <r_i_glide_rewards>  (69) 
-0.5

>  <r_i_glide_evdw>  (69) 
-30.8076

>  <r_i_glide_ecoul>  (69) 
-3.98935

>  <r_i_glide_erotb>  (69) 
0

>  <r_i_glide_esite>  (69) 
-0.0456121

>  <r_i_glide_emodel>  (69) 
-44.5244

>  <r_i_glide_energy>  (69) 
-34.7969

>  <r_i_glide_einternal>  (69) 
2.12915

>  <r_i_glide_intrahb_reward>  (69) 
-0.5

>  <i_i_glide_confnum>  (69) 
2

>  <i_i_glide_posenum>  (69) 
9

>  <r_i_glide_eff_state_penalty>  (69) 
0

>  <ligand_id>  (69) 
22

>  <original_smiles>  (69) 
CC1(C)CC2(C)C3=CCC4C(C)(CC(O)C5(O)COC56C=CCC(=O)C46C)C3CC(O)C2C(O)C1O

>  <smiles>  (69) 
[H]OC1([H])C([H])([H])C2([H])C(=C([H])C([H])([H])C3([H])C4(C([H])([H])[H])C(=O)C([H])([H])C([H])=C([H])C45OC([H])([H])C5(O[H])C([H])(O[H])C([H])([H])C23C([H])([H])[H])C2(C([H])([H])[H])C([H])([H])C(C([H])([H])[H])(C([H])([H])[H])C([H])(O[H])C([H])(O[H])C12[H]

$$$$
23:0:0
     RDKit          3D

 49 53  0  0  1  0  0  0  0  0999 V2000
    2.2645   -2.8890    1.2360 C   0  0  0  0  0  0  0  0  0  0  0  0
    3.6405   -2.3415    0.8363 C   0  0  2  0  0  0  0  0  0  0  0  0
    3.7289   -1.9898   -0.6643 C   0  0  0  0  0  0  0  0  0  0  0  0
    5.1748   -2.0486   -1.1664 C   0  0  1  0  0  0  0  0  0  0  0  0
    5.9064   -1.0579   -0.4277 O   0  0  0  0  0  0  0  0  0  0  0  0
    6.8085   -1.7191    0.4485 C   0  0  1  0  0  0  0  0  0  0  0  0
    5.9947   -2.1807    1.6824 C   0  0  0  0  0  0  0  0  0  0  0  0
    4.8656   -3.1824    1.3318 C   0  0  2  0  0  0  0  0  0  0  0  0
    5.3698   -4.2437    0.2741 C   0  0  2  0  0  0  0  0  0  0  0  0
    4.2226   -5.1614   -0.2162 C   0  0  0  0  0  0  0  0  0  0  0  0
    3.6416   -6.0368    0.8955 C   0  0  0  0  0  0  0  0  0  0  0  0
    4.6961   -7.0065    1.4202 C   0  0  0  0  0  0  0  0  0  0  0  0
    6.0484   -6.3599    1.8326 C   0  0  0  0  0  0  0  0  0  0  0  0
    5.9141   -5.7875    3.2611 C   0  0  0  0  0  0  0  0  0  0  0  0
    7.0144   -7.5712    1.8964 C   0  0  0  0  0  0  0  0  0  0  0  0
    6.4813   -5.2892    0.7344 C   0  0  2  0  0  0  0  0  0  0  0  0
    7.8821   -4.6201    0.9770 C   0  0  1  0  0  0  0  0  0  0  0  0
    8.9190   -5.5575    1.0669 O   0  0  0  0  0  0  0  0  0  0  0  0
    8.2000   -3.7791   -0.0754 O   0  0  0  0  0  0  0  0  0  0  0  0
    7.2511   -2.8256   -0.5104 C   0  0  1  0  0  0  0  0  0  0  0  0
    5.9140   -3.3956   -0.9201 C   0  0  2  0  0  0  0  0  0  0  0  0
    1.9912   -3.7626    0.6471 H   0  0  0  0  0  0  0  0  0  0  0  0
    1.5006   -2.1344    1.0607 H   0  0  0  0  0  0  0  0  0  0  0  0
    2.2205   -3.1669    2.2902 H   0  0  0  0  0  0  0  0  0  0  0  0
    3.6568   -1.3855    1.3566 H   0  0  0  0  0  0  0  0  0  0  0  0
    3.0933   -2.6380   -1.2729 H   0  0  0  0  0  0  0  0  0  0  0  0
    3.3279   -0.9865   -0.8198 H   0  0  0  0  0  0  0  0  0  0  0  0
    5.2157   -1.7720   -2.2200 H   0  0  0  0  0  0  0  0  0  0  0  0
    7.6262   -1.0629    0.7421 H   0  0  0  0  0  0  0  0  0  0  0  0
    6.6109   -2.6153    2.4419 H   0  0  0  0  0  0  0  0  0  0  0  0
    5.5882   -1.2987    2.1792 H   0  0  0  0  0  0  0  0  0  0  0  0
    4.5512   -3.6623    2.2533 H   0  0  0  0  0  0  0  0  0  0  0  0
    3.4240   -4.6277   -0.7170 H   0  0  0  0  0  0  0  0  0  0  0  0
    4.6122   -5.8179   -0.9935 H   0  0  0  0  0  0  0  0  0  0  0  0
    3.2410   -5.4393    1.7128 H   0  0  0  0  0  0  0  0  0  0  0  0
    2.8006   -6.6050    0.4980 H   0  0  0  0  0  0  0  0  0  0  0  0
    4.2702   -7.5502    2.2634 H   0  0  0  0  0  0  0  0  0  0  0  0
    4.8640   -7.7577    0.6461 H   0  0  0  0  0  0  0  0  0  0  0  0
    6.6880   -5.0610    3.4749 H   0  0  0  0  0  0  0  0  0  0  0  0
    6.0269   -6.5682    4.0145 H   0  0  0  0  0  0  0  0  0  0  0  0
    4.9474   -5.3299    3.4549 H   0  0  0  0  0  0  0  0  0  0  0  0
    7.9222   -7.3674    2.4630 H   0  0  0  0  0  0  0  0  0  0  0  0
    7.2958   -7.9150    0.8980 H   0  0  0  0  0  0  0  0  0  0  0  0
    6.5456   -8.4194    2.4027 H   0  0  0  0  0  0  0  0  0  0  0  0
    6.6510   -5.8901   -0.1539 H   0  0  0  0  0  0  0  0  0  0  0  0
    7.9241   -4.0650    1.8987 H   0  0  0  0  0  0  0  0  0  0  0  0
    8.6944   -6.2052    1.7213 H   0  0  0  0  0  0  0  0  0  0  0  0
    7.7115   -2.3522   -1.3799 H   0  0  0  0  0  0  0  0  0  0  0  0
    5.9905   -3.9825   -1.8348 H   0  0  0  0  0  0  0  0  0  0  0  0
  1  2  1  0
  1 22  1  0
  1 23  1  0
  1 24  1  0
  2  8  1  0
  2  3  1  0
  2 25  1  1
  3  4  1  0
  3 26  1  0
  3 27  1  0
  4 21  1  0
  4  5  1  0
  4 28  1  6
  5  6  1  0
  6 20  1  0
  6  7  1  0
  6 29  1  1
  7  8  1  0
  7 30  1  0
  7 31  1  0
  8  9  1  0
  8 32  1  1
  9 16  1  0
  9 21  1  0
  9 10  1  6
 10 11  1  0
 10 33  1  0
 10 34  1  0
 11 12  1  0
 11 35  1  0
 11 36  1  0
 12 13  1  0
 12 37  1  0
 12 38  1  0
 13 14  1  0
 13 15  1  0
 13 16  1  0
 14 39  1  0
 14 40  1  0
 14 41  1  0
 15 42  1  0
 15 43  1  0
 15 44  1  0
 16 17  1  0
 16 45  1  6
 17 18  1  0
 17 19  1  0
 17 46  1  1
 18 47  1  0
 19 20  1  0
 20 21  1  0
 20 48  1  6
 21 49  1  6
M  END
>  <i_m_ct_stereo_status>  (70) 
1

>  <s_m_source_file>  (70) 
/var/tmp/pbs.5076255.sched01/tmpgq1_80gb/0xrgip9rw.sdf

>  <i_m_source_file_index>  (70) 
33

>  <i_lp_mmshare_version>  (70) 
48012

>  <i_f3d_flags>  (70) 
0

>  <s_epik_input>  (70) 
QzEyM1tDQEBIXTRbQ0BIXShbQ0gzXSlbQ0gyXVtDQEBIXTVbQ0BIXTNbQ0BASF0oW0NAQEhdKE81KVtDSDJdNClPW0NASF0oW09IXSlbQ0BIXTJDKFtDSDNdKShbQ0gzXSlbQ0gyXVtDSDJdW0NIMl0x

>  <s_epik_cmdline>  (70) 
J2VwaWtfcHl0aG9uJywgJy1waHQnLCAnMi4wJywgJy1waCcsICc3LjAnLCAnLXRuJywgJzgnLCAnLW1hJywgJzIwMCcsICctaW1hZScsICc8aW5maWxlLm1hZT4nLCAnLW9tYWUnLCAnPG91dGZpbGUubWFlPic=

>  <r_lp_tautomer_probability>  (70) 
1

>  <r_epik_Ionization_Penalty>  (70) 
5.10857e-08

>  <r_epik_Ionization_Penalty_Charging>  (70) 
0

>  <r_epik_Ionization_Penalty_Neutral>  (70) 
5.10857e-08

>  <r_epik_State_Penalty>  (70) 
-0

>  <r_epik_Charging_Adjusted_Penalty>  (70) 
0

>  <i_epik_Tot_Q>  (70) 
0

>  <i_epik_Tot_abs_Q>  (70) 
0

>  <s_epik_Chemistry_Notes>  (70) 
This compound contains an acetal/aminal-like group ( X-CH(R)-Y where X, Y are N, S, or O) that may be acid/base labile, releasing an aldehyde.

>  <s_lp_Force_Field>  (70) 
OPLS3e

>  <r_lp_Energy>  (70) 
71.4125

>  <b_lp_Chiralities_Consistent>  (70) 
1

>  <s_lp_Variant>  (70) 
23:0-1

>  <s_i_glide_gridfile>  (70) 
pfpi4k_grid

>  <i_i_glide_lignum>  (70) 
33

>  <i_i_glide_rotatable_bonds>  (70) 
1

>  <r_i_docking_score>  (70) 
-3.61227

>  <r_i_glide_ligand_efficiency>  (70) 
-0.172013

>  <r_i_glide_ligand_efficiency_sa>  (70) 
-0.474571

>  <r_i_glide_ligand_efficiency_ln>  (70) 
-0.893127

>  <r_i_glide_gscore>  (70) 
-3.61227

>  <r_i_glide_lipo>  (70) 
-0.674929

>  <r_i_glide_hbond>  (70) 
-0.028928

>  <r_i_glide_metal>  (70) 
-0

>  <r_i_glide_rewards>  (70) 
-1.60718

>  <r_i_glide_evdw>  (70) 
-20.1706

>  <r_i_glide_ecoul>  (70) 
-1.95137

>  <r_i_glide_erotb>  (70) 
0

>  <r_i_glide_esite>  (70) 
0

>  <r_i_glide_emodel>  (70) 
-25.9897

>  <r_i_glide_energy>  (70) 
-22.122

>  <r_i_glide_einternal>  (70) 
1.93227

>  <r_i_glide_intrahb_reward>  (70) 
-0

>  <i_i_glide_confnum>  (70) 
2

>  <i_i_glide_posenum>  (70) 
12

>  <r_i_glide_eff_state_penalty>  (70) 
0

>  <ligand_id>  (70) 
23

>  <original_smiles>  (70) 
CC1CC2OC3CC1C14CCCC(C)(C)C1C(O)OC3C24

>  <smiles>  (70) 
[H]OC1([H])OC2([H])C3([H])OC4([H])C([H])([H])C([H])(C([H])([H])[H])C([H])(C3([H])[H])C3(C([H])([H])C([H])([H])C([H])([H])C(C([H])([H])[H])(C([H])([H])[H])C13[H])C42[H]

$$$$
23:0:1
     RDKit          3D

 49 53  0  0  1  0  0  0  0  0999 V2000
    3.9570   -6.3164    0.9456 C   0  0  0  0  0  0  0  0  0  0  0  0
    4.9356   -5.1441    1.1065 C   0  0  2  0  0  0  0  0  0  0  0  0
    4.6814   -4.3754    2.4207 C   0  0  0  0  0  0  0  0  0  0  0  0
    5.1731   -2.9321    2.3094 C   0  0  1  0  0  0  0  0  0  0  0  0
    6.5620   -3.0525    2.0203 O   0  0  0  0  0  0  0  0  0  0  0  0
    6.8326   -2.5344    0.7290 C   0  0  1  0  0  0  0  0  0  0  0  0
    6.5256   -3.6998   -0.2306 C   0  0  0  0  0  0  0  0  0  0  0  0
    5.0493   -4.1839   -0.1258 C   0  0  2  0  0  0  0  0  0  0  0  0
    4.0724   -2.9456   -0.0301 C   0  0  2  0  0  0  0  0  0  0  0  0
    2.6186   -3.3439    0.2500 C   0  0  0  0  0  0  0  0  0  0  0  0
    2.0483   -4.1219   -0.9200 C   0  0  0  0  0  0  0  0  0  0  0  0
    2.0445   -3.3464   -2.2355 C   0  0  0  0  0  0  0  0  0  0  0  0
    3.3492   -2.6364   -2.6202 C   0  0  0  0  0  0  0  0  0  0  0  0
    4.2916   -3.5805   -3.4003 C   0  0  0  0  0  0  0  0  0  0  0  0
    2.8780   -1.5899   -3.6544 C   0  0  0  0  0  0  0  0  0  0  0  0
    3.9427   -2.0250   -1.2971 C   0  0  2  0  0  0  0  0  0  0  0  0
    5.2330   -1.2540   -1.5933 C   0  0  1  0  0  0  0  0  0  0  0  0
    5.0152   -0.2701   -2.4903 O   0  0  0  0  0  0  0  0  0  0  0  0
    5.7069   -0.6493   -0.4376 O   0  0  0  0  0  0  0  0  0  0  0  0
    5.8312   -1.3936    0.7482 C   0  0  1  0  0  0  0  0  0  0  0  0
    4.5712   -2.0953    1.1657 C   0  0  2  0  0  0  0  0  0  0  0  0
    2.9098   -6.0178    1.0006 H   0  0  0  0  0  0  0  0  0  0  0  0
    4.1078   -7.0399    1.7453 H   0  0  0  0  0  0  0  0  0  0  0  0
    4.1087   -6.8358   -0.0009 H   0  0  0  0  0  0  0  0  0  0  0  0
    5.9080   -5.6431    1.2191 H   0  0  0  0  0  0  0  0  0  0  0  0
    3.6404   -4.4200    2.7633 H   0  0  0  0  0  0  0  0  0  0  0  0
    5.2543   -4.8448    3.2038 H   0  0  0  0  0  0  0  0  0  0  0  0
    5.0790   -2.4059    3.2569 H   0  0  0  0  0  0  0  0  0  0  0  0
    7.8603   -2.1814    0.6388 H   0  0  0  0  0  0  0  0  0  0  0  0
    6.8002   -3.4619   -1.2538 H   0  0  0  0  0  0  0  0  0  0  0  0
    7.2139   -4.5038    0.0130 H   0  0  0  0  0  0  0  0  0  0  0  0
    4.8551   -4.7814   -1.0062 H   0  0  0  0  0  0  0  0  0  0  0  0
    2.4621   -3.9062    1.1659 H   0  0  0  0  0  0  0  0  0  0  0  0
    2.0290   -2.4452    0.3966 H   0  0  0  0  0  0  0  0  0  0  0  0
    2.6617   -5.0069   -1.0024 H   0  0  0  0  0  0  0  0  0  0  0  0
    1.0449   -4.4992   -0.7436 H   0  0  0  0  0  0  0  0  0  0  0  0
    1.8419   -4.0081   -3.0618 H   0  0  0  0  0  0  0  0  0  0  0  0
    1.1807   -2.6714   -2.2163 H   0  0  0  0  0  0  0  0  0  0  0  0
    5.3291   -3.2604   -3.4224 H   0  0  0  0  0  0  0  0  0  0  0  0
    3.9703   -3.6981   -4.4378 H   0  0  0  0  0  0  0  0  0  0  0  0
    4.2908   -4.5787   -2.9960 H   0  0  0  0  0  0  0  0  0  0  0  0
    3.6693   -1.2027   -4.3043 H   0  0  0  0  0  0  0  0  0  0  0  0
    2.4174   -0.7488   -3.1466 H   0  0  0  0  0  0  0  0  0  0  0  0
    2.1249   -2.0163   -4.3195 H   0  0  0  0  0  0  0  0  0  0  0  0
    3.2285   -1.2558   -1.0011 H   0  0  0  0  0  0  0  0  0  0  0  0
    5.9986   -1.8560   -2.0712 H   0  0  0  0  0  0  0  0  0  0  0  0
    4.3525    0.3432   -2.0866 H   0  0  0  0  0  0  0  0  0  0  0  0
    6.1318   -0.6859    1.5230 H   0  0  0  0  0  0  0  0  0  0  0  0
    3.8164   -1.3810    1.5066 H   0  0  0  0  0  0  0  0  0  0  0  0
  1  2  1  0
  1 22  1  0
  1 23  1  0
  1 24  1  0
  2  8  1  0
  2  3  1  0
  2 25  1  1
  3  4  1  0
  3 26  1  0
  3 27  1  0
  4 21  1  0
  4  5  1  0
  4 28  1  1
  5  6  1  0
  6 20  1  0
  6  7  1  0
  6 29  1  1
  7  8  1  0
  7 30  1  0
  7 31  1  0
  8  9  1  0
  8 32  1  6
  9 16  1  0
  9 21  1  0
  9 10  1  1
 10 11  1  0
 10 33  1  0
 10 34  1  0
 11 12  1  0
 11 35  1  0
 11 36  1  0
 12 13  1  0
 12 37  1  0
 12 38  1  0
 13 14  1  0
 13 15  1  0
 13 16  1  0
 14 39  1  0
 14 40  1  0
 14 41  1  0
 15 42  1  0
 15 43  1  0
 15 44  1  0
 16 17  1  0
 16 45  1  1
 17 18  1  0
 17 19  1  0
 17 46  1  6
 18 47  1  0
 19 20  1  0
 20 21  1  0
 20 48  1  1
 21 49  1  1
M  END
>  <i_m_ct_stereo_status>  (71) 
1

>  <s_m_source_file>  (71) 
/var/tmp/pbs.5076255.sched01/tmpgq1_80gb/0xrgip9rw.sdf

>  <i_m_source_file_index>  (71) 
33

>  <i_lp_mmshare_version>  (71) 
48012

>  <i_f3d_flags>  (71) 
0

>  <s_epik_input>  (71) 
QzEyM1tDQEBIXTRbQ0BIXShbQ0gzXSlbQ0gyXVtDQEBIXTVbQ0BIXTNbQ0BASF0oW0NAQEhdKE81KVtDSDJdNClPW0NASF0oW09IXSlbQ0BIXTJDKFtDSDNdKShbQ0gzXSlbQ0gyXVtDSDJdW0NIMl0x

>  <s_epik_cmdline>  (71) 
J2VwaWtfcHl0aG9uJywgJy1waHQnLCAnMi4wJywgJy1waCcsICc3LjAnLCAnLXRuJywgJzgnLCAnLW1hJywgJzIwMCcsICctaW1hZScsICc8aW5maWxlLm1hZT4nLCAnLW9tYWUnLCAnPG91dGZpbGUubWFlPic=

>  <r_lp_tautomer_probability>  (71) 
1

>  <r_epik_Ionization_Penalty>  (71) 
5.10857e-08

>  <r_epik_Ionization_Penalty_Charging>  (71) 
0

>  <r_epik_Ionization_Penalty_Neutral>  (71) 
5.10857e-08

>  <r_epik_State_Penalty>  (71) 
-0

>  <r_epik_Charging_Adjusted_Penalty>  (71) 
0

>  <i_epik_Tot_Q>  (71) 
0

>  <i_epik_Tot_abs_Q>  (71) 
0

>  <s_epik_Chemistry_Notes>  (71) 
This compound contains an acetal/aminal-like group ( X-CH(R)-Y where X, Y are N, S, or O) that may be acid/base labile, releasing an aldehyde.

>  <s_lp_Force_Field>  (71) 
OPLS3e

>  <r_lp_Energy>  (71) 
71.4125

>  <b_lp_Chiralities_Consistent>  (71) 
1

>  <s_lp_Variant>  (71) 
23:0-1

>  <s_i_glide_gridfile>  (71) 
pfpi4k_grid

>  <i_i_glide_lignum>  (71) 
33

>  <i_i_glide_rotatable_bonds>  (71) 
1

>  <r_i_docking_score>  (71) 
-3.25261

>  <r_i_glide_ligand_efficiency>  (71) 
-0.154886

>  <r_i_glide_ligand_efficiency_sa>  (71) 
-0.427319

>  <r_i_glide_ligand_efficiency_ln>  (71) 
-0.804201

>  <r_i_glide_gscore>  (71) 
-3.25261

>  <r_i_glide_lipo>  (71) 
-1.06422

>  <r_i_glide_hbond>  (71) 
-0.00498733

>  <r_i_glide_metal>  (71) 
-0

>  <r_i_glide_rewards>  (71) 
-1.41537

>  <r_i_glide_evdw>  (71) 
-8.7427

>  <r_i_glide_ecoul>  (71) 
-1.84056

>  <r_i_glide_erotb>  (71) 
0

>  <r_i_glide_esite>  (71) 
-0.0548129

>  <r_i_glide_emodel>  (71) 
-14.2433

>  <r_i_glide_energy>  (71) 
-10.5833

>  <r_i_glide_einternal>  (71) 
0.055567

>  <r_i_glide_intrahb_reward>  (71) 
-0

>  <i_i_glide_confnum>  (71) 
1

>  <i_i_glide_posenum>  (71) 
24

>  <r_i_glide_eff_state_penalty>  (71) 
0

>  <ligand_id>  (71) 
23

>  <original_smiles>  (71) 
CC1CC2OC3CC1C14CCCC(C)(C)C1C(O)OC3C24

>  <smiles>  (71) 
[H]OC1([H])OC2([H])C3([H])OC4([H])C([H])([H])C([H])(C([H])([H])[H])C([H])(C3([H])[H])C3(C([H])([H])C([H])([H])C([H])([H])C(C([H])([H])[H])(C([H])([H])[H])C13[H])C42[H]

$$$$
23:0:2
     RDKit          3D

 49 53  0  0  1  0  0  0  0  0999 V2000
    4.1391   -0.3075    0.3179 C   0  0  0  0  0  0  0  0  0  0  0  0
    4.9239   -1.5835    0.0378 C   0  0  2  0  0  0  0  0  0  0  0  0
    4.3825   -2.3405   -1.1980 C   0  0  0  0  0  0  0  0  0  0  0  0
    4.7292   -3.8215   -1.1000 C   0  0  1  0  0  0  0  0  0  0  0  0
    6.1590   -3.8536   -1.0678 O   0  0  0  0  0  0  0  0  0  0  0  0
    6.5726   -4.3549    0.1892 C   0  0  1  0  0  0  0  0  0  0  0  0
    6.5677   -3.1341    1.1195 C   0  0  0  0  0  0  0  0  0  0  0  0
    5.1565   -2.5023    1.2794 C   0  0  2  0  0  0  0  0  0  0  0  0
    4.0499   -3.6135    1.4354 C   0  0  2  0  0  0  0  0  0  0  0  0
    2.6129   -3.0141    1.4114 C   0  0  0  0  0  0  0  0  0  0  0  0
    2.3445   -2.0855    2.5984 C   0  0  0  0  0  0  0  0  0  0  0  0
    2.4130   -2.8604    3.9112 C   0  0  0  0  0  0  0  0  0  0  0  0
    3.6963   -3.7110    4.1156 C   0  0  0  0  0  0  0  0  0  0  0  0
    4.8348   -2.7980    4.6344 C   0  0  0  0  0  0  0  0  0  0  0  0
    3.3014   -4.6736    5.2672 C   0  0  0  0  0  0  0  0  0  0  0  0
    4.0421   -4.4811    2.7666 C   0  0  2  0  0  0  0  0  0  0  0  0
    5.2799   -5.4440    2.8603 C   0  0  1  0  0  0  0  0  0  0  0  0
    5.1049   -6.4122    3.8685 O   0  0  0  0  0  0  0  0  0  0  0  0
    5.4588   -6.1156    1.6599 O   0  0  0  0  0  0  0  0  0  0  0  0
    5.4679   -5.3845    0.4432 C   0  0  1  0  0  0  0  0  0  0  0  0
    4.2396   -4.5415    0.1965 C   0  0  2  0  0  0  0  0  0  0  0  0
    3.0635   -0.4721    0.4158 H   0  0  0  0  0  0  0  0  0  0  0  0
    4.2700    0.3078   -0.5582 H   0  0  0  0  0  0  0  0  0  0  0  0
    4.5062    0.2358    1.1916 H   0  0  0  0  0  0  0  0  0  0  0  0
    5.8923   -1.2008   -0.2741 H   0  0  0  0  0  0  0  0  0  0  0  0
    3.3103   -2.2113   -1.3411 H   0  0  0  0  0  0  0  0  0  0  0  0
    4.8386   -1.9414   -2.1057 H   0  0  0  0  0  0  0  0  0  0  0  0
    4.4076   -4.3571   -1.9925 H   0  0  0  0  0  0  0  0  0  0  0  0
    7.5613   -4.8137    0.1380 H   0  0  0  0  0  0  0  0  0  0  0  0
    6.9793   -3.4028    2.0736 H   0  0  0  0  0  0  0  0  0  0  0  0
    7.2859   -2.4083    0.7477 H   0  0  0  0  0  0  0  0  0  0  0  0
    5.1892   -1.8443    2.1385 H   0  0  0  0  0  0  0  0  0  0  0  0
    2.3634   -2.5102    0.4866 H   0  0  0  0  0  0  0  0  0  0  0  0
    1.8940   -3.8286    1.4575 H   0  0  0  0  0  0  0  0  0  0  0  0
    3.0362   -1.2461    2.6247 H   0  0  0  0  0  0  0  0  0  0  0  0
    1.3455   -1.6545    2.4899 H   0  0  0  0  0  0  0  0  0  0  0  0
    2.3037   -2.1542    4.7324 H   0  0  0  0  0  0  0  0  0  0  0  0
    1.5348   -3.5056    3.9616 H   0  0  0  0  0  0  0  0  0  0  0  0
    5.8134   -3.2432    4.4721 H   0  0  0  0  0  0  0  0  0  0  0  0
    4.7480   -2.6335    5.7092 H   0  0  0  0  0  0  0  0  0  0  0  0
    4.8307   -1.8068    4.1859 H   0  0  0  0  0  0  0  0  0  0  0  0
    4.1693   -5.1351    5.7399 H   0  0  0  0  0  0  0  0  0  0  0  0
    2.6359   -5.4633    4.9098 H   0  0  0  0  0  0  0  0  0  0  0  0
    2.7774   -4.1427    6.0648 H   0  0  0  0  0  0  0  0  0  0  0  0
    3.2111   -5.1727    2.6282 H   0  0  0  0  0  0  0  0  0  0  0  0
    6.1999   -4.9379    3.1264 H   0  0  0  0  0  0  0  0  0  0  0  0
    4.2876   -6.8584    3.7001 H   0  0  0  0  0  0  0  0  0  0  0  0
    5.5246   -6.1496   -0.3320 H   0  0  0  0  0  0  0  0  0  0  0  0
    3.3665   -5.1686    0.0155 H   0  0  0  0  0  0  0  0  0  0  0  0
  1  2  1  0
  1 22  1  0
  1 23  1  0
  1 24  1  0
  2  8  1  0
  2  3  1  0
  2 25  1  6
  3  4  1  0
  3 26  1  0
  3 27  1  0
  4 21  1  0
  4  5  1  0
  4 28  1  6
  5  6  1  0
  6 20  1  0
  6  7  1  0
  6 29  1  6
  7  8  1  0
  7 30  1  0
  7 31  1  0
  8  9  1  0
  8 32  1  1
  9 16  1  0
  9 21  1  0
  9 10  1  6
 10 11  1  0
 10 33  1  0
 10 34  1  0
 11 12  1  0
 11 35  1  0
 11 36  1  0
 12 13  1  0
 12 37  1  0
 12 38  1  0
 13 14  1  0
 13 15  1  0
 13 16  1  0
 14 39  1  0
 14 40  1  0
 14 41  1  0
 15 42  1  0
 15 43  1  0
 15 44  1  0
 16 17  1  0
 16 45  1  6
 17 18  1  0
 17 19  1  0
 17 46  1  1
 18 47  1  0
 19 20  1  0
 20 21  1  0
 20 48  1  6
 21 49  1  6
M  END
>  <i_m_ct_stereo_status>  (72) 
1

>  <s_m_source_file>  (72) 
/var/tmp/pbs.5076255.sched01/tmpgq1_80gb/0xrgip9rw.sdf

>  <i_m_source_file_index>  (72) 
33

>  <i_lp_mmshare_version>  (72) 
48012

>  <i_f3d_flags>  (72) 
0

>  <s_epik_input>  (72) 
QzEyM1tDQEBIXTRbQ0BIXShbQ0gzXSlbQ0gyXVtDQEBIXTVbQ0BIXTNbQ0BASF0oW0NAQEhdKE81KVtDSDJdNClPW0NASF0oW09IXSlbQ0BIXTJDKFtDSDNdKShbQ0gzXSlbQ0gyXVtDSDJdW0NIMl0x

>  <s_epik_cmdline>  (72) 
J2VwaWtfcHl0aG9uJywgJy1waHQnLCAnMi4wJywgJy1waCcsICc3LjAnLCAnLXRuJywgJzgnLCAnLW1hJywgJzIwMCcsICctaW1hZScsICc8aW5maWxlLm1hZT4nLCAnLW9tYWUnLCAnPG91dGZpbGUubWFlPic=

>  <r_lp_tautomer_probability>  (72) 
1

>  <r_epik_Ionization_Penalty>  (72) 
5.10857e-08

>  <r_epik_Ionization_Penalty_Charging>  (72) 
0

>  <r_epik_Ionization_Penalty_Neutral>  (72) 
5.10857e-08

>  <r_epik_State_Penalty>  (72) 
-0

>  <r_epik_Charging_Adjusted_Penalty>  (72) 
0

>  <i_epik_Tot_Q>  (72) 
0

>  <i_epik_Tot_abs_Q>  (72) 
0

>  <s_epik_Chemistry_Notes>  (72) 
This compound contains an acetal/aminal-like group ( X-CH(R)-Y where X, Y are N, S, or O) that may be acid/base labile, releasing an aldehyde.

>  <s_lp_Force_Field>  (72) 
OPLS3e

>  <r_lp_Energy>  (72) 
71.4125

>  <b_lp_Chiralities_Consistent>  (72) 
1

>  <s_lp_Variant>  (72) 
23:0-1

>  <s_i_glide_gridfile>  (72) 
pfpi4k_grid

>  <i_i_glide_lignum>  (72) 
33

>  <i_i_glide_rotatable_bonds>  (72) 
1

>  <r_i_docking_score>  (72) 
-2.81367

>  <r_i_glide_ligand_efficiency>  (72) 
-0.133984

>  <r_i_glide_ligand_efficiency_sa>  (72) 
-0.369653

>  <r_i_glide_ligand_efficiency_ln>  (72) 
-0.695675

>  <r_i_glide_gscore>  (72) 
-2.81367

>  <r_i_glide_lipo>  (72) 
-0.495973

>  <r_i_glide_hbond>  (72) 
0

>  <r_i_glide_metal>  (72) 
-0

>  <r_i_glide_rewards>  (72) 
-1.41993

>  <r_i_glide_evdw>  (72) 
-14.7407

>  <r_i_glide_ecoul>  (72) 
-1.07159

>  <r_i_glide_erotb>  (72) 
0

>  <r_i_glide_esite>  (72) 
0

>  <r_i_glide_emodel>  (72) 
-19.4519

>  <r_i_glide_energy>  (72) 
-15.8123

>  <r_i_glide_einternal>  (72) 
0.000183663

>  <r_i_glide_intrahb_reward>  (72) 
-0

>  <i_i_glide_confnum>  (72) 
2

>  <i_i_glide_posenum>  (72) 
19

>  <r_i_glide_eff_state_penalty>  (72) 
0

>  <ligand_id>  (72) 
23

>  <original_smiles>  (72) 
CC1CC2OC3CC1C14CCCC(C)(C)C1C(O)OC3C24

>  <smiles>  (72) 
[H]OC1([H])OC2([H])C3([H])OC4([H])C([H])([H])C([H])(C([H])([H])[H])C([H])(C3([H])[H])C3(C([H])([H])C([H])([H])C([H])([H])C(C([H])([H])[H])(C([H])([H])[H])C13[H])C42[H]

$$$$
25:0:0
     RDKit          3D

 56 61  0  0  1  0  0  0  0  0999 V2000
    0.6221   -3.1618    4.7236 C   0  0  0  0  0  0  0  0  0  0  0  0
    1.8063   -2.9486    5.6805 C   0  0  1  0  0  0  0  0  0  0  0  0
    1.2081   -2.8046    6.9579 O   0  0  0  0  0  0  0  0  0  0  0  0
    2.7306   -4.1785    5.6748 C   0  0  0  0  0  0  0  0  0  0  0  0
    3.8164   -3.8948    4.6280 C   0  0  0  0  0  0  0  0  0  0  0  0
    3.7933   -2.3801    4.3372 C   0  0  1  0  0  0  0  0  0  0  0  0
    3.4860   -2.0988    2.8534 C   0  0  2  0  0  0  0  0  0  0  0  0
    4.5594   -2.3683    1.9678 O   0  0  0  0  0  0  0  0  0  0  0  0
    4.4454   -1.5498    0.7933 C   0  0  1  0  0  0  0  0  0  0  0  0
    5.7948   -0.8361    0.6660 C   0  0  0  0  0  0  0  0  0  0  0  0
    6.8780   -1.7245    0.4463 O   0  0  0  0  0  0  0  0  0  0  0  0
    6.8075   -2.8382   -0.3154 C   0  0  0  0  0  0  0  0  0  0  0  0
    7.8035   -3.5189   -0.5539 O   0  0  0  0  0  0  0  0  0  0  0  0
    5.4307   -3.2764   -0.8672 C   0  0  2  0  0  0  0  0  0  0  0  0
    5.4515   -3.3309   -2.4198 C   0  0  0  0  0  0  0  0  0  0  0  0
    4.6545   -2.1360   -2.8712 C   0  0  2  0  0  0  0  0  0  0  0  0
    5.0211   -0.8632   -2.3097 O   0  0  0  0  0  0  0  0  0  0  0  0
    3.9264   -1.5718   -1.7112 C   0  0  2  0  0  0  0  0  0  0  0  0
    4.1909   -2.4148   -0.4730 C   0  0  2  0  0  0  0  0  0  0  0  0
    2.9978   -3.3717   -0.2784 C   0  0  0  0  0  0  0  0  0  0  0  0
    3.3279   -0.5282    1.1237 C   0  0  0  0  0  0  0  0  0  0  0  0
    3.2051   -0.6350    2.6270 C   0  0  1  0  0  0  0  0  0  0  0  0
    1.8675   -0.3138    3.2904 C   0  0  0  0  0  0  0  0  0  0  0  0
    2.0424   -0.4598    4.8169 C   0  0  0  0  0  0  0  0  0  0  0  0
    2.7592   -1.7570    5.3355 C   0  0  1  0  0  0  0  0  0  0  0  0
    3.5561   -1.3271    6.5993 C   0  0  0  0  0  0  0  0  0  0  0  0
    0.9401   -3.3448    3.7025 H   0  0  0  0  0  0  0  0  0  0  0  0
   -0.0534   -2.3091    4.7201 H   0  0  0  0  0  0  0  0  0  0  0  0
    0.0348   -4.0281    5.0271 H   0  0  0  0  0  0  0  0  0  0  0  0
    1.8912   -2.7648    7.6071 H   0  0  0  0  0  0  0  0  0  0  0  0
    3.2088   -4.3108    6.6462 H   0  0  0  0  0  0  0  0  0  0  0  0
    2.1978   -5.1074    5.4682 H   0  0  0  0  0  0  0  0  0  0  0  0
    4.7942   -4.2109    4.9943 H   0  0  0  0  0  0  0  0  0  0  0  0
    3.6227   -4.4696    3.7208 H   0  0  0  0  0  0  0  0  0  0  0  0
    4.7832   -1.9651    4.5318 H   0  0  0  0  0  0  0  0  0  0  0  0
    2.6322   -2.6846    2.5138 H   0  0  0  0  0  0  0  0  0  0  0  0
    5.7754   -0.1109   -0.1449 H   0  0  0  0  0  0  0  0  0  0  0  0
    5.9963   -0.2662    1.5733 H   0  0  0  0  0  0  0  0  0  0  0  0
    5.3029   -4.2896   -0.4880 H   0  0  0  0  0  0  0  0  0  0  0  0
    6.4496   -3.3118   -2.8650 H   0  0  0  0  0  0  0  0  0  0  0  0
    4.9585   -4.2372   -2.7709 H   0  0  0  0  0  0  0  0  0  0  0  0
    4.2413   -2.1087   -3.8812 H   0  0  0  0  0  0  0  0  0  0  0  0
    2.9495   -1.1068   -1.8503 H   0  0  0  0  0  0  0  0  0  0  0  0
    2.8155   -3.9693   -1.1742 H   0  0  0  0  0  0  0  0  0  0  0  0
    2.0734   -2.8381   -0.0676 H   0  0  0  0  0  0  0  0  0  0  0  0
    3.1690   -4.0722    0.5422 H   0  0  0  0  0  0  0  0  0  0  0  0
    3.5744    0.4866    0.8102 H   0  0  0  0  0  0  0  0  0  0  0  0
    2.3798   -0.7868    0.6608 H   0  0  0  0  0  0  0  0  0  0  0  0
    3.9923   -0.0266    3.0770 H   0  0  0  0  0  0  0  0  0  0  0  0
    1.5480    0.6992    3.0428 H   0  0  0  0  0  0  0  0  0  0  0  0
    1.0847   -0.9757    2.9174 H   0  0  0  0  0  0  0  0  0  0  0  0
    2.6188    0.4116    5.1262 H   0  0  0  0  0  0  0  0  0  0  0  0
    1.0785   -0.3415    5.3094 H   0  0  0  0  0  0  0  0  0  0  0  0
    4.3063   -0.5729    6.3485 H   0  0  0  0  0  0  0  0  0  0  0  0
    4.0902   -2.1590    7.0613 H   0  0  0  0  0  0  0  0  0  0  0  0
    2.9083   -0.8801    7.3558 H   0  0  0  0  0  0  0  0  0  0  0  0
  1  2  1  0
  1 27  1  0
  1 28  1  0
  1 29  1  0
  2 25  1  0
  2  3  1  1
  2  4  1  0
  3 30  1  0
  4  5  1  0
  4 31  1  0
  4 32  1  0
  5  6  1  0
  5 33  1  0
  5 34  1  0
  6 25  1  0
  6  7  1  0
  6 35  1  1
  7 22  1  0
  7  8  1  0
  7 36  1  6
  9  8  1  1
  9 19  1  0
  9 10  1  0
  9 21  1  0
 10 11  1  0
 10 37  1  0
 10 38  1  0
 11 12  1  0
 12 13  2  0
 12 14  1  0
 14 19  1  0
 14 15  1  0
 14 39  1  1
 15 16  1  0
 15 40  1  0
 15 41  1  0
 16 18  1  0
 16 17  1  0
 16 42  1  6
 17 18  1  0
 18 19  1  0
 18 43  1  6
 19 20  1  1
 20 44  1  0
 20 45  1  0
 20 46  1  0
 21 22  1  0
 21 47  1  0
 21 48  1  0
 22 23  1  0
 22 49  1  1
 23 24  1  0
 23 50  1  0
 23 51  1  0
 24 25  1  0
 24 52  1  0
 24 53  1  0
 25 26  1  1
 26 54  1  0
 26 55  1  0
 26 56  1  0
M  END
>  <i_m_ct_stereo_status>  (73) 
1

>  <s_m_source_file>  (73) 
/var/tmp/pbs.5076255.sched01/tmpgq1_80gb/0xrgip9rw.sdf

>  <i_m_source_file_index>  (73) 
35

>  <i_lp_mmshare_version>  (73) 
48012

>  <i_f3d_flags>  (73) 
0

>  <s_epik_input>  (73) 
W0NIMl0xW0NASF0yW0NIMl1bQ0gyXVtDQEBdKFtDSDNdKShbQ0BdKFtDSDNdKShbT0hdKVtDSDJdW0NIMl0zKVtDQEBIXTNbQ0BASF0yT1tDQEBdMTRbQ0BdNShbQ0gzXSlbQ0BIXShDKD1PKU9bQ0gyXTQpW0NIMl1bQ0BIXTZbQ0BASF01TzY=

>  <s_epik_cmdline>  (73) 
J2VwaWtfcHl0aG9uJywgJy1waHQnLCAnMi4wJywgJy1waCcsICc3LjAnLCAnLXRuJywgJzgnLCAnLW1hJywgJzIwMCcsICctaW1hZScsICc8aW5maWxlLm1hZT4nLCAnLW9tYWUnLCAnPG91dGZpbGUubWFlPic=

>  <r_lp_tautomer_probability>  (73) 
1

>  <r_epik_Ionization_Penalty>  (73) 
1.40696e-06

>  <r_epik_Ionization_Penalty_Charging>  (73) 
0

>  <r_epik_Ionization_Penalty_Neutral>  (73) 
1.40696e-06

>  <r_epik_State_Penalty>  (73) 
-0

>  <r_epik_Charging_Adjusted_Penalty>  (73) 
0

>  <i_epik_Tot_Q>  (73) 
0

>  <i_epik_Tot_abs_Q>  (73) 
0

>  <s_epik_Chemistry_Notes>  (73) 
This compound has an ester and may undergo hydrolysis at high or low pH.

>  <s_lp_Force_Field>  (73) 
OPLS3e

>  <r_lp_Energy>  (73) 
45.2838

>  <b_lp_Chiralities_Consistent>  (73) 
1

>  <s_lp_Variant>  (73) 
25:0-1

>  <s_i_glide_gridfile>  (73) 
pfpi4k_grid

>  <i_i_glide_lignum>  (73) 
35

>  <i_i_glide_rotatable_bonds>  (73) 
1

>  <r_i_docking_score>  (73) 
-3.3217

>  <r_i_glide_ligand_efficiency>  (73) 
-0.127758

>  <r_i_glide_ligand_efficiency_sa>  (73) 
-0.378482

>  <r_i_glide_ligand_efficiency_ln>  (73) 
-0.780091

>  <r_i_glide_gscore>  (73) 
-3.3217

>  <r_i_glide_lipo>  (73) 
-0.516796

>  <r_i_glide_hbond>  (73) 
0

>  <r_i_glide_metal>  (73) 
-0

>  <r_i_glide_rewards>  (73) 
-0.984034

>  <r_i_glide_evdw>  (73) 
-27.7109

>  <r_i_glide_ecoul>  (73) 
-2.90219

>  <r_i_glide_erotb>  (73) 
0

>  <r_i_glide_esite>  (73) 
0

>  <r_i_glide_emodel>  (73) 
-37.2713

>  <r_i_glide_energy>  (73) 
-30.6131

>  <r_i_glide_einternal>  (73) 
0.00910786

>  <r_i_glide_intrahb_reward>  (73) 
-0

>  <i_i_glide_confnum>  (73) 
1

>  <i_i_glide_posenum>  (73) 
33

>  <r_i_glide_eff_state_penalty>  (73) 
0

>  <ligand_id>  (73) 
25

>  <original_smiles>  (73) 
CC1(O)CCC2C3OC4(COC(=O)C5CC6OC6C54C)CC3CCC21C

>  <smiles>  (73) 
[H]OC1(C([H])([H])[H])C([H])([H])C([H])([H])C2([H])C3([H])OC4(C([H])([H])OC(=O)C5([H])C([H])([H])C6([H])OC6([H])C54C([H])([H])[H])C([H])([H])C3([H])C([H])([H])C([H])([H])C21C([H])([H])[H]

$$$$
25:0:1
     RDKit          3D

 56 61  0  0  1  0  0  0  0  0999 V2000
    0.6265   -3.4515    4.5829 C   0  0  0  0  0  0  0  0  0  0  0  0
    1.8148   -3.2966    5.5473 C   0  0  1  0  0  0  0  0  0  0  0  0
    1.2298   -3.2423    6.8366 O   0  0  0  0  0  0  0  0  0  0  0  0
    2.7397   -4.5214    5.4659 C   0  0  0  0  0  0  0  0  0  0  0  0
    3.8240   -4.1739    4.4381 C   0  0  0  0  0  0  0  0  0  0  0  0
    3.7981   -2.6446    4.2388 C   0  0  1  0  0  0  0  0  0  0  0  0
    3.4882   -2.2760    2.7754 C   0  0  2  0  0  0  0  0  0  0  0  0
    4.5615   -2.4924    1.8753 O   0  0  0  0  0  0  0  0  0  0  0  0
    4.4462   -1.6065    0.7522 C   0  0  1  0  0  0  0  0  0  0  0  0
    5.7947   -0.8852    0.6668 C   0  0  0  0  0  0  0  0  0  0  0  0
    6.8780   -1.7590    0.3949 O   0  0  0  0  0  0  0  0  0  0  0  0
    6.8089   -2.8225   -0.4346 C   0  0  0  0  0  0  0  0  0  0  0  0
    7.8081   -3.4774   -0.7216 O   0  0  0  0  0  0  0  0  0  0  0  0
    5.4316   -3.2318   -1.0068 C   0  0  2  0  0  0  0  0  0  0  0  0
    5.4484   -3.1960   -2.5601 C   0  0  0  0  0  0  0  0  0  0  0  0
    4.6458   -1.9795   -2.9403 C   0  0  2  0  0  0  0  0  0  0  0  0
    5.0167   -0.7411   -2.3098 O   0  0  0  0  0  0  0  0  0  0  0  0
    3.9258   -1.4791   -1.7471 C   0  0  2  0  0  0  0  0  0  0  0  0
    4.1918   -2.3942   -0.5622 C   0  0  2  0  0  0  0  0  0  0  0  0
    2.9994   -3.3635   -0.4234 C   0  0  0  0  0  0  0  0  0  0  0  0
    3.3276   -0.6056    1.1412 C   0  0  0  0  0  0  0  0  0  0  0  0
    3.2069   -0.8014    2.6364 C   0  0  1  0  0  0  0  0  0  0  0  0
    1.8693   -0.5209    3.3185 C   0  0  0  0  0  0  0  0  0  0  0  0
    2.0444   -0.7584    4.8335 C   0  0  0  0  0  0  0  0  0  0  0  0
    2.7633   -2.0840    5.2727 C   0  0  1  0  0  0  0  0  0  0  0  0
    3.5612   -1.7264    6.5590 C   0  0  0  0  0  0  0  0  0  0  0  0
    0.9415   -3.5704    3.5515 H   0  0  0  0  0  0  0  0  0  0  0  0
   -0.0485   -2.5999    4.6299 H   0  0  0  0  0  0  0  0  0  0  0  0
    0.0375   -4.3337    4.8286 H   0  0  0  0  0  0  0  0  0  0  0  0
    0.8112   -4.0684    7.0053 H   0  0  0  0  0  0  0  0  0  0  0  0
    3.2173   -4.7046    6.4300 H   0  0  0  0  0  0  0  0  0  0  0  0
    2.2085   -5.4385    5.2078 H   0  0  0  0  0  0  0  0  0  0  0  0
    4.8010   -4.5103    4.7888 H   0  0  0  0  0  0  0  0  0  0  0  0
    3.6282   -4.6952    3.4994 H   0  0  0  0  0  0  0  0  0  0  0  0
    4.7870   -2.2405    4.4593 H   0  0  0  0  0  0  0  0  0  0  0  0
    2.6351   -2.8422    2.4031 H   0  0  0  0  0  0  0  0  0  0  0  0
    5.7747   -0.1127   -0.0985 H   0  0  0  0  0  0  0  0  0  0  0  0
    5.9979   -0.3701    1.6064 H   0  0  0  0  0  0  0  0  0  0  0  0
    5.3047   -4.2663   -0.6879 H   0  0  0  0  0  0  0  0  0  0  0  0
    6.4455   -3.1471   -3.0044 H   0  0  0  0  0  0  0  0  0  0  0  0
    4.9582   -4.0807   -2.9640 H   0  0  0  0  0  0  0  0  0  0  0  0
    4.2351   -1.8888   -3.9463 H   0  0  0  0  0  0  0  0  0  0  0  0
    2.9449   -1.0164   -1.8601 H   0  0  0  0  0  0  0  0  0  0  0  0
    2.8166   -3.9022   -1.3554 H   0  0  0  0  0  0  0  0  0  0  0  0
    2.0746   -2.8447   -0.1794 H   0  0  0  0  0  0  0  0  0  0  0  0
    3.1721   -4.1133    0.3519 H   0  0  0  0  0  0  0  0  0  0  0  0
    3.5714    0.4254    0.8821 H   0  0  0  0  0  0  0  0  0  0  0  0
    2.3799   -0.8387    0.6657 H   0  0  0  0  0  0  0  0  0  0  0  0
    3.9941   -0.2214    3.1218 H   0  0  0  0  0  0  0  0  0  0  0  0
    1.5494    0.5047    3.1310 H   0  0  0  0  0  0  0  0  0  0  0  0
    1.0868   -1.1602    2.9080 H   0  0  0  0  0  0  0  0  0  0  0  0
    2.6210    0.0938    5.1931 H   0  0  0  0  0  0  0  0  0  0  0  0
    1.0815   -0.6692    5.3336 H   0  0  0  0  0  0  0  0  0  0  0  0
    4.3107   -0.9574    6.3559 H   0  0  0  0  0  0  0  0  0  0  0  0
    4.0914   -2.5859    6.9722 H   0  0  0  0  0  0  0  0  0  0  0  0
    2.9095   -1.3315    7.3410 H   0  0  0  0  0  0  0  0  0  0  0  0
  1  2  1  0
  1 27  1  0
  1 28  1  0
  1 29  1  0
  2 25  1  0
  2  3  1  1
  2  4  1  0
  3 30  1  0
  4  5  1  0
  4 31  1  0
  4 32  1  0
  5  6  1  0
  5 33  1  0
  5 34  1  0
  6 25  1  0
  6  7  1  0
  6 35  1  1
  7 22  1  0
  7  8  1  0
  7 36  1  6
  9  8  1  1
  9 19  1  0
  9 10  1  0
  9 21  1  0
 10 11  1  0
 10 37  1  0
 10 38  1  0
 11 12  1  0
 12 13  2  0
 12 14  1  0
 14 19  1  0
 14 15  1  0
 14 39  1  6
 15 16  1  0
 15 40  1  0
 15 41  1  0
 16 18  1  0
 16 17  1  0
 16 42  1  6
 17 18  1  0
 18 19  1  0
 18 43  1  6
 19 20  1  1
 20 44  1  0
 20 45  1  0
 20 46  1  0
 21 22  1  0
 21 47  1  0
 21 48  1  0
 22 23  1  0
 22 49  1  1
 23 24  1  0
 23 50  1  0
 23 51  1  0
 24 25  1  0
 24 52  1  0
 24 53  1  0
 25 26  1  1
 26 54  1  0
 26 55  1  0
 26 56  1  0
M  END
>  <i_m_ct_stereo_status>  (74) 
1

>  <s_m_source_file>  (74) 
/var/tmp/pbs.5076255.sched01/tmpgq1_80gb/0xrgip9rw.sdf

>  <i_m_source_file_index>  (74) 
35

>  <i_lp_mmshare_version>  (74) 
48012

>  <i_f3d_flags>  (74) 
0

>  <s_epik_input>  (74) 
W0NIMl0xW0NASF0yW0NIMl1bQ0gyXVtDQEBdKFtDSDNdKShbQ0BdKFtDSDNdKShbT0hdKVtDSDJdW0NIMl0zKVtDQEBIXTNbQ0BASF0yT1tDQEBdMTRbQ0BdNShbQ0gzXSlbQ0BIXShDKD1PKU9bQ0gyXTQpW0NIMl1bQ0BIXTZbQ0BASF01TzY=

>  <s_epik_cmdline>  (74) 
J2VwaWtfcHl0aG9uJywgJy1waHQnLCAnMi4wJywgJy1waCcsICc3LjAnLCAnLXRuJywgJzgnLCAnLW1hJywgJzIwMCcsICctaW1hZScsICc8aW5maWxlLm1hZT4nLCAnLW9tYWUnLCAnPG91dGZpbGUubWFlPic=

>  <r_lp_tautomer_probability>  (74) 
1

>  <r_epik_Ionization_Penalty>  (74) 
1.40696e-06

>  <r_epik_Ionization_Penalty_Charging>  (74) 
0

>  <r_epik_Ionization_Penalty_Neutral>  (74) 
1.40696e-06

>  <r_epik_State_Penalty>  (74) 
-0

>  <r_epik_Charging_Adjusted_Penalty>  (74) 
0

>  <i_epik_Tot_Q>  (74) 
0

>  <i_epik_Tot_abs_Q>  (74) 
0

>  <s_epik_Chemistry_Notes>  (74) 
This compound has an ester and may undergo hydrolysis at high or low pH.

>  <s_lp_Force_Field>  (74) 
OPLS3e

>  <r_lp_Energy>  (74) 
45.2838

>  <b_lp_Chiralities_Consistent>  (74) 
1

>  <s_lp_Variant>  (74) 
25:0-1

>  <s_i_glide_gridfile>  (74) 
pfpi4k_grid

>  <i_i_glide_lignum>  (74) 
35

>  <i_i_glide_rotatable_bonds>  (74) 
1

>  <r_i_docking_score>  (74) 
-3.23747

>  <r_i_glide_ligand_efficiency>  (74) 
-0.124518

>  <r_i_glide_ligand_efficiency_sa>  (74) 
-0.368884

>  <r_i_glide_ligand_efficiency_ln>  (74) 
-0.760309

>  <r_i_glide_gscore>  (74) 
-3.23747

>  <r_i_glide_lipo>  (74) 
-0.49916

>  <r_i_glide_hbond>  (74) 
0

>  <r_i_glide_metal>  (74) 
-0

>  <r_i_glide_rewards>  (74) 
-0.960665

>  <r_i_glide_evdw>  (74) 
-27.8921

>  <r_i_glide_ecoul>  (74) 
-2.5536

>  <r_i_glide_erotb>  (74) 
0

>  <r_i_glide_esite>  (74) 
0

>  <r_i_glide_emodel>  (74) 
-36.8818

>  <r_i_glide_energy>  (74) 
-30.4457

>  <r_i_glide_einternal>  (74) 
0.0782895

>  <r_i_glide_intrahb_reward>  (74) 
-0

>  <i_i_glide_confnum>  (74) 
1

>  <i_i_glide_posenum>  (74) 
1

>  <r_i_glide_eff_state_penalty>  (74) 
0

>  <ligand_id>  (74) 
25

>  <original_smiles>  (74) 
CC1(O)CCC2C3OC4(COC(=O)C5CC6OC6C54C)CC3CCC21C

>  <smiles>  (74) 
[H]OC1(C([H])([H])[H])C([H])([H])C([H])([H])C2([H])C3([H])OC4(C([H])([H])OC(=O)C5([H])C([H])([H])C6([H])OC6([H])C54C([H])([H])[H])C([H])([H])C3([H])C([H])([H])C([H])([H])C21C([H])([H])[H]

$$$$
25:0:2
     RDKit          3D

 56 61  0  0  1  0  0  0  0  0999 V2000
    0.8995   -3.5995    4.7079 C   0  0  0  0  0  0  0  0  0  0  0  0
    2.1177   -3.4273    5.6322 C   0  0  1  0  0  0  0  0  0  0  0  0
    1.5799   -3.3795    6.9405 O   0  0  0  0  0  0  0  0  0  0  0  0
    3.0569   -4.6372    5.5173 C   0  0  0  0  0  0  0  0  0  0  0  0
    4.1019   -4.2691    4.4563 C   0  0  0  0  0  0  0  0  0  0  0  0
    4.0456   -2.7390    4.2638 C   0  0  1  0  0  0  0  0  0  0  0  0
    3.6803   -2.3695    2.8133 C   0  0  2  0  0  0  0  0  0  0  0  0
    4.7257   -2.5632    1.8767 O   0  0  0  0  0  0  0  0  0  0  0  0
    4.5560   -1.6752    0.7619 C   0  0  1  0  0  0  0  0  0  0  0  0
    5.8880   -0.9303    0.6379 C   0  0  0  0  0  0  0  0  0  0  0  0
    6.9774   -1.7825    0.3308 O   0  0  0  0  0  0  0  0  0  0  0  0
    6.9021   -2.8444   -0.4972 C   0  0  0  0  0  0  0  0  0  0  0  0
    7.9058   -3.4798   -0.8084 O   0  0  0  0  0  0  0  0  0  0  0  0
    5.5154   -3.2755   -1.0329 C   0  0  2  0  0  0  0  0  0  0  0  0
    5.4826   -3.2326   -2.5863 C   0  0  0  0  0  0  0  0  0  0  0  0
    4.6480   -2.0280   -2.9354 C   0  0  2  0  0  0  0  0  0  0  0  0
    5.0178   -0.7869   -2.3101 O   0  0  0  0  0  0  0  0  0  0  0  0
    3.9571   -1.5454   -1.7178 C   0  0  2  0  0  0  0  0  0  0  0  0
    4.2746   -2.4623   -0.5464 C   0  0  2  0  0  0  0  0  0  0  0  0
    3.1004   -3.4493   -0.3734 C   0  0  0  0  0  0  0  0  0  0  0  0
    3.4316   -0.6962    1.1896 C   0  0  0  0  0  0  0  0  0  0  0  0
    3.3673   -0.8996    2.6884 C   0  0  1  0  0  0  0  0  0  0  0  0
    2.0500   -0.6448    3.4176 C   0  0  0  0  0  0  0  0  0  0  0  0
    2.2806   -0.8848    4.9247 C   0  0  0  0  0  0  0  0  0  0  0  0
    3.0374   -2.1983    5.3336 C   0  0  1  0  0  0  0  0  0  0  0  0
    3.8705   -1.8343    6.5955 C   0  0  0  0  0  0  0  0  0  0  0  0
    1.1824   -3.7143    3.6671 H   0  0  0  0  0  0  0  0  0  0  0  0
    0.2091   -2.7626    4.7757 H   0  0  0  0  0  0  0  0  0  0  0  0
    0.3372   -4.4935    4.9742 H   0  0  0  0  0  0  0  0  0  0  0  0
    1.0712   -2.5929    7.0248 H   0  0  0  0  0  0  0  0  0  0  0  0
    3.5646   -4.8180    6.4665 H   0  0  0  0  0  0  0  0  0  0  0  0
    2.5293   -5.5607    5.2739 H   0  0  0  0  0  0  0  0  0  0  0  0
    5.0947   -4.5917    4.7736 H   0  0  0  0  0  0  0  0  0  0  0  0
    3.8842   -4.7906    3.5225 H   0  0  0  0  0  0  0  0  0  0  0  0
    5.0350   -2.3209    4.4536 H   0  0  0  0  0  0  0  0  0  0  0  0
    2.8259   -2.9500    2.4670 H   0  0  0  0  0  0  0  0  0  0  0  0
    5.8329   -0.1557   -0.1234 H   0  0  0  0  0  0  0  0  0  0  0  0
    6.1147   -0.4177    1.5736 H   0  0  0  0  0  0  0  0  0  0  0  0
    5.4162   -4.3143   -0.7164 H   0  0  0  0  0  0  0  0  0  0  0  0
    6.4638   -3.1651   -3.0616 H   0  0  0  0  0  0  0  0  0  0  0  0
    4.9937   -4.1233   -2.9786 H   0  0  0  0  0  0  0  0  0  0  0  0
    4.2030   -1.9402   -3.9267 H   0  0  0  0  0  0  0  0  0  0  0  0
    2.9691   -1.0914   -1.7928 H   0  0  0  0  0  0  0  0  0  0  0  0
    2.8991   -3.9906   -1.2994 H   0  0  0  0  0  0  0  0  0  0  0  0
    2.1752   -2.9455   -0.1005 H   0  0  0  0  0  0  0  0  0  0  0  0
    3.3109   -4.1980    0.3940 H   0  0  0  0  0  0  0  0  0  0  0  0
    3.6508    0.3393    0.9260 H   0  0  0  0  0  0  0  0  0  0  0  0
    2.4731   -0.9435    0.7416 H   0  0  0  0  0  0  0  0  0  0  0  0
    4.1610   -0.3082    3.1497 H   0  0  0  0  0  0  0  0  0  0  0  0
    1.7067    0.3760    3.2460 H   0  0  0  0  0  0  0  0  0  0  0  0
    1.2655   -1.2962    3.0301 H   0  0  0  0  0  0  0  0  0  0  0  0
    2.8545   -0.0243    5.2688 H   0  0  0  0  0  0  0  0  0  0  0  0
    1.3328   -0.8122    5.4551 H   0  0  0  0  0  0  0  0  0  0  0  0
    4.6011   -1.0530    6.3721 H   0  0  0  0  0  0  0  0  0  0  0  0
    4.4263   -2.6878    6.9867 H   0  0  0  0  0  0  0  0  0  0  0  0
    3.2413   -1.4524    7.4017 H   0  0  0  0  0  0  0  0  0  0  0  0
  1  2  1  0
  1 27  1  0
  1 28  1  0
  1 29  1  0
  2 25  1  0
  2  3  1  1
  2  4  1  0
  3 30  1  0
  4  5  1  0
  4 31  1  0
  4 32  1  0
  5  6  1  0
  5 33  1  0
  5 34  1  0
  6 25  1  0
  6  7  1  0
  6 35  1  1
  7 22  1  0
  7  8  1  0
  7 36  1  6
  9  8  1  1
  9 19  1  0
  9 10  1  0
  9 21  1  0
 10 11  1  0
 10 37  1  0
 10 38  1  0
 11 12  1  0
 12 13  2  0
 12 14  1  0
 14 19  1  0
 14 15  1  0
 14 39  1  6
 15 16  1  0
 15 40  1  0
 15 41  1  0
 16 18  1  0
 16 17  1  0
 16 42  1  6
 17 18  1  0
 18 19  1  0
 18 43  1  6
 19 20  1  1
 20 44  1  0
 20 45  1  0
 20 46  1  0
 21 22  1  0
 21 47  1  0
 21 48  1  0
 22 23  1  0
 22 49  1  1
 23 24  1  0
 23 50  1  0
 23 51  1  0
 24 25  1  0
 24 52  1  0
 24 53  1  0
 25 26  1  1
 26 54  1  0
 26 55  1  0
 26 56  1  0
M  END
>  <i_m_ct_stereo_status>  (75) 
1

>  <s_m_source_file>  (75) 
/var/tmp/pbs.5076255.sched01/tmpgq1_80gb/0xrgip9rw.sdf

>  <i_m_source_file_index>  (75) 
35

>  <i_lp_mmshare_version>  (75) 
48012

>  <i_f3d_flags>  (75) 
0

>  <s_epik_input>  (75) 
W0NIMl0xW0NASF0yW0NIMl1bQ0gyXVtDQEBdKFtDSDNdKShbQ0BdKFtDSDNdKShbT0hdKVtDSDJdW0NIMl0zKVtDQEBIXTNbQ0BASF0yT1tDQEBdMTRbQ0BdNShbQ0gzXSlbQ0BIXShDKD1PKU9bQ0gyXTQpW0NIMl1bQ0BIXTZbQ0BASF01TzY=

>  <s_epik_cmdline>  (75) 
J2VwaWtfcHl0aG9uJywgJy1waHQnLCAnMi4wJywgJy1waCcsICc3LjAnLCAnLXRuJywgJzgnLCAnLW1hJywgJzIwMCcsICctaW1hZScsICc8aW5maWxlLm1hZT4nLCAnLW9tYWUnLCAnPG91dGZpbGUubWFlPic=

>  <r_lp_tautomer_probability>  (75) 
1

>  <r_epik_Ionization_Penalty>  (75) 
1.40696e-06

>  <r_epik_Ionization_Penalty_Charging>  (75) 
0

>  <r_epik_Ionization_Penalty_Neutral>  (75) 
1.40696e-06

>  <r_epik_State_Penalty>  (75) 
-0

>  <r_epik_Charging_Adjusted_Penalty>  (75) 
0

>  <i_epik_Tot_Q>  (75) 
0

>  <i_epik_Tot_abs_Q>  (75) 
0

>  <s_epik_Chemistry_Notes>  (75) 
This compound has an ester and may undergo hydrolysis at high or low pH.

>  <s_lp_Force_Field>  (75) 
OPLS3e

>  <r_lp_Energy>  (75) 
45.2838

>  <b_lp_Chiralities_Consistent>  (75) 
1

>  <s_lp_Variant>  (75) 
25:0-1

>  <s_i_glide_gridfile>  (75) 
pfpi4k_grid

>  <i_i_glide_lignum>  (75) 
35

>  <i_i_glide_rotatable_bonds>  (75) 
1

>  <r_i_docking_score>  (75) 
-3.23685

>  <r_i_glide_ligand_efficiency>  (75) 
-0.124494

>  <r_i_glide_ligand_efficiency_sa>  (75) 
-0.368814

>  <r_i_glide_ligand_efficiency_ln>  (75) 
-0.760164

>  <r_i_glide_gscore>  (75) 
-3.23685

>  <r_i_glide_lipo>  (75) 
-0.536223

>  <r_i_glide_hbond>  (75) 
0

>  <r_i_glide_metal>  (75) 
-0

>  <r_i_glide_rewards>  (75) 
-0.959068

>  <r_i_glide_evdw>  (75) 
-27.9713

>  <r_i_glide_ecoul>  (75) 
-2.28665

>  <r_i_glide_erotb>  (75) 
0

>  <r_i_glide_esite>  (75) 
0

>  <r_i_glide_emodel>  (75) 
-36.6962

>  <r_i_glide_energy>  (75) 
-30.2579

>  <r_i_glide_einternal>  (75) 
0.0498948

>  <r_i_glide_intrahb_reward>  (75) 
-0

>  <i_i_glide_confnum>  (75) 
1

>  <i_i_glide_posenum>  (75) 
19

>  <r_i_glide_eff_state_penalty>  (75) 
0

>  <ligand_id>  (75) 
25

>  <original_smiles>  (75) 
CC1(O)CCC2C3OC4(COC(=O)C5CC6OC6C54C)CC3CCC21C

>  <smiles>  (75) 
[H]OC1(C([H])([H])[H])C([H])([H])C([H])([H])C2([H])C3([H])OC4(C([H])([H])OC(=O)C5([H])C([H])([H])C6([H])OC6([H])C54C([H])([H])[H])C([H])([H])C3([H])C([H])([H])C([H])([H])C21C([H])([H])[H]

$$$$
27:0:0
     RDKit          3D

 79 84  0  0  1  0  0  0  0  0999 V2000
    4.3029   -3.7265   -3.2404 C   0  0  0  0  0  0  0  0  0  0  0  0
    4.2733   -3.8192   -1.6930 C   0  0  2  0  0  0  0  0  0  0  0  0
    3.0057   -3.1683   -1.0204 C   0  0  0  0  0  0  0  0  0  0  0  0
    3.5216   -2.2714    0.1680 C   0  0  2  0  0  0  0  0  0  0  0  0
    4.9433   -1.8736   -0.4781 C   0  0  0  0  0  0  0  0  0  0  0  0
    4.7101   -0.9060   -1.6686 C   0  0  0  0  0  0  0  0  0  0  0  0
    5.9813   -1.0748    0.3319 C   0  0  0  0  0  0  0  0  0  0  0  0
    5.5250   -3.2531   -0.9672 C   0  0  1  0  0  0  0  0  0  0  0  0
    6.0472   -4.2756    0.2149 C   0  0  1  0  0  0  0  0  0  0  0  0
    7.3967   -3.9545    0.4846 O   0  0  0  0  0  0  0  0  0  0  0  0
    5.2352   -4.4380    1.6020 C   0  0  2  0  0  0  0  0  0  0  0  0
    5.4552   -3.4344    2.7758 C   0  0  0  0  0  0  0  0  0  0  0  0
    4.3249   -2.3754    2.7553 C   0  0  1  0  0  0  0  0  0  0  0  0
    3.5125   -2.9994    1.6223 C   0  0  1  0  0  0  0  0  0  0  0  0
    4.3241   -3.7828    0.9465 O   0  0  0  0  0  0  0  0  0  0  0  0
    2.8644   -4.3425    2.1657 C   0  0  2  0  0  0  0  0  0  0  0  0
    2.1908   -4.0905    3.5989 C   0  0  1  0  0  0  0  0  0  0  0  0
    2.4477   -5.0257    4.8518 C   0  0  0  0  0  0  0  0  0  0  0  0
    3.3120   -4.6817    6.1433 C   0  0  0  0  0  0  0  0  0  0  0  0
    2.5098   -5.2081    7.3653 C   0  0  0  0  0  0  0  0  0  0  0  0
    4.6358   -5.4674    6.2256 C   0  0  0  0  0  0  0  0  0  0  0  0
    3.6340   -3.1914    6.4540 C   0  0  0  0  0  0  0  0  0  0  0  0
    4.2469   -2.2880    5.3659 C   0  0  0  0  0  0  0  0  0  0  0  0
    3.4720   -1.9665    4.0365 C   0  0  1  0  0  0  0  0  0  0  0  0
    3.3721   -0.4103    3.9960 C   0  0  0  0  0  0  0  0  0  0  0  0
    2.0117   -2.5743    3.9507 C   0  0  0  0  0  0  0  0  0  0  0  0
    1.1491   -1.8432    2.8826 C   0  0  0  0  0  0  0  0  0  0  0  0
    1.0747   -2.3435    5.1728 C   0  0  0  0  0  0  0  0  0  0  0  0
    4.0497   -5.4117    1.8880 C   0  0  0  0  0  0  0  0  0  0  0  0
    3.6540   -6.3400    0.7120 C   0  0  0  0  0  0  0  0  0  0  0  0
    4.5036   -6.4491    2.9295 C   0  0  0  0  0  0  0  0  0  0  0  0
    4.4094   -2.7207   -3.6378 H   0  0  0  0  0  0  0  0  0  0  0  0
    3.3841   -4.1341   -3.6659 H   0  0  0  0  0  0  0  0  0  0  0  0
    5.1249   -4.3163   -3.6425 H   0  0  0  0  0  0  0  0  0  0  0  0
    4.2756   -4.8751   -1.4622 H   0  0  0  0  0  0  0  0  0  0  0  0
    2.4509   -2.5719   -1.7401 H   0  0  0  0  0  0  0  0  0  0  0  0
    2.2821   -3.9125   -0.6884 H   0  0  0  0  0  0  0  0  0  0  0  0
    2.9116   -1.3720    0.2262 H   0  0  0  0  0  0  0  0  0  0  0  0
    5.5830   -0.8379   -2.3150 H   0  0  0  0  0  0  0  0  0  0  0  0
    4.4967    0.1088   -1.3055 H   0  0  0  0  0  0  0  0  0  0  0  0
    3.8739   -1.1291   -2.3172 H   0  0  0  0  0  0  0  0  0  0  0  0
    6.7950   -0.7578   -0.3133 H   0  0  0  0  0  0  0  0  0  0  0  0
    6.4864   -1.6366    1.0972 H   0  0  0  0  0  0  0  0  0  0  0  0
    5.5529   -0.1790    0.7800 H   0  0  0  0  0  0  0  0  0  0  0  0
    6.3225   -3.1157   -1.6891 H   0  0  0  0  0  0  0  0  0  0  0  0
    6.1164   -5.2645   -0.2410 H   0  0  0  0  0  0  0  0  0  0  0  0
    7.7090   -4.5463    1.1660 H   0  0  0  0  0  0  0  0  0  0  0  0
    5.5151   -3.9860    3.7027 H   0  0  0  0  0  0  0  0  0  0  0  0
    6.3985   -2.9301    2.6499 H   0  0  0  0  0  0  0  0  0  0  0  0
    4.7738   -1.4557    2.4057 H   0  0  0  0  0  0  0  0  0  0  0  0
    2.0435   -4.5851    1.4900 H   0  0  0  0  0  0  0  0  0  0  0  0
    1.1723   -4.3985    3.3639 H   0  0  0  0  0  0  0  0  0  0  0  0
    1.4353   -5.1615    5.2364 H   0  0  0  0  0  0  0  0  0  0  0  0
    2.6282   -6.0545    4.5520 H   0  0  0  0  0  0  0  0  0  0  0  0
    3.0477   -5.0550    8.3029 H   0  0  0  0  0  0  0  0  0  0  0  0
    2.3113   -6.2793    7.2830 H   0  0  0  0  0  0  0  0  0  0  0  0
    1.5457   -4.7104    7.4808 H   0  0  0  0  0  0  0  0  0  0  0  0
    5.0377   -5.4708    7.2394 H   0  0  0  0  0  0  0  0  0  0  0  0
    5.4178   -5.0290    5.6126 H   0  0  0  0  0  0  0  0  0  0  0  0
    4.4995   -6.5148    5.9509 H   0  0  0  0  0  0  0  0  0  0  0  0
    2.8051   -2.6838    6.9404 H   0  0  0  0  0  0  0  0  0  0  0  0
    4.3591   -3.1963    7.2685 H   0  0  0  0  0  0  0  0  0  0  0  0
    4.4137   -1.3480    5.8973 H   0  0  0  0  0  0  0  0  0  0  0  0
    5.2772   -2.5939    5.1889 H   0  0  0  0  0  0  0  0  0  0  0  0
    2.7388   -0.0162    4.7891 H   0  0  0  0  0  0  0  0  0  0  0  0
    2.9834   -0.0348    3.0486 H   0  0  0  0  0  0  0  0  0  0  0  0
    4.3550    0.0577    4.1141 H   0  0  0  0  0  0  0  0  0  0  0  0
    0.7247   -0.9039    3.2483 H   0  0  0  0  0  0  0  0  0  0  0  0
    0.3091   -2.4729    2.6115 H   0  0  0  0  0  0  0  0  0  0  0  0
    1.6292   -1.5526    1.9609 H   0  0  0  0  0  0  0  0  0  0  0  0
    1.3037   -1.4147    5.6958 H   0  0  0  0  0  0  0  0  0  0  0  0
    1.0585   -3.1389    5.9054 H   0  0  0  0  0  0  0  0  0  0  0  0
    0.0201   -2.2756    4.8919 H   0  0  0  0  0  0  0  0  0  0  0  0
    3.0109   -7.1523    1.0512 H   0  0  0  0  0  0  0  0  0  0  0  0
    4.5196   -6.8047    0.2400 H   0  0  0  0  0  0  0  0  0  0  0  0
    3.0750   -5.8433   -0.0555 H   0  0  0  0  0  0  0  0  0  0  0  0
    5.3425   -7.0347    2.5448 H   0  0  0  0  0  0  0  0  0  0  0  0
    3.7270   -7.1740    3.1808 H   0  0  0  0  0  0  0  0  0  0  0  0
    4.8710   -5.9986    3.8296 H   0  0  0  0  0  0  0  0  0  0  0  0
  1  2  1  0
  1 32  1  0
  1 33  1  0
  1 34  1  0
  2  8  1  0
  2  3  1  0
  2 35  1  6
  3  4  1  0
  3 36  1  0
  3 37  1  0
  4 14  1  0
  4  5  1  0
  4 38  1  1
  5  6  1  0
  5  7  1  0
  5  8  1  0
  6 39  1  0
  6 40  1  0
  6 41  1  0
  7 42  1  0
  7 43  1  0
  7 44  1  0
  8  9  1  0
  8 45  1  6
  9 10  1  0
  9 11  1  0
  9 46  1  6
 10 47  1  0
 11 15  1  0
 11 29  1  1
 11 12  1  0
 12 13  1  0
 12 48  1  0
 12 49  1  0
 13 24  1  0
 13 14  1  0
 13 50  1  6
 14 15  1  6
 14 16  1  0
 16 17  1  0
 16 29  1  0
 16 51  1  6
 17 26  1  0
 17 18  1  0
 17 52  1  6
 18 19  1  0
 18 53  1  0
 18 54  1  0
 19 20  1  0
 19 21  1  0
 19 22  1  0
 20 55  1  0
 20 56  1  0
 20 57  1  0
 21 58  1  0
 21 59  1  0
 21 60  1  0
 22 23  1  0
 22 61  1  0
 22 62  1  0
 23 24  1  0
 23 63  1  0
 23 64  1  0
 24 25  1  6
 24 26  1  0
 25 65  1  0
 25 66  1  0
 25 67  1  0
 26 27  1  0
 26 28  1  0
 27 68  1  0
 27 69  1  0
 27 70  1  0
 28 71  1  0
 28 72  1  0
 28 73  1  0
 29 30  1  0
 29 31  1  0
 30 74  1  0
 30 75  1  0
 30 76  1  0
 31 77  1  0
 31 78  1  0
 31 79  1  0
M  END
>  <i_m_ct_stereo_status>  (76) 
1

>  <s_m_source_file>  (76) 
/var/tmp/pbs.5076255.sched01/tmpgq1_80gb/0xrgip9rw.sdf

>  <i_m_source_file_index>  (76) 
37

>  <i_lp_mmshare_version>  (76) 
48012

>  <i_f3d_flags>  (76) 
0

>  <s_epik_input>  (76) 
W09IXVtDQEBIXShbQ0BAXTEyMylbQ0BIXTRbQ0BIXShbQ0gzXSlbQ0gyXVtDQEhdKEM0KFtDSDNdKVtDSDNdKVtDQEBdNShPMilbQ0BIXShbQ0gyXTEpW0NAXTYoW0NIM10pW0NIMl1bQ0gyXUMoW0NIM10pKFtDSDNdKVtDSDJdW0NAQEhdKEM2KFtDSDNdKVtDSDNdKVtDQEBIXTVDMyhbQ0gzXSlbQ0gzXQ==

>  <s_epik_cmdline>  (76) 
J2VwaWtfcHl0aG9uJywgJy1waHQnLCAnMi4wJywgJy1waCcsICc3LjAnLCAnLXRuJywgJzgnLCAnLW1hJywgJzIwMCcsICctaW1hZScsICc8aW5maWxlLm1hZT4nLCAnLW9tYWUnLCAnPG91dGZpbGUubWFlPic=

>  <r_lp_tautomer_probability>  (76) 
1

>  <r_epik_Ionization_Penalty>  (76) 
3.90594e-07

>  <r_epik_Ionization_Penalty_Charging>  (76) 
0

>  <r_epik_Ionization_Penalty_Neutral>  (76) 
3.90594e-07

>  <r_epik_State_Penalty>  (76) 
-0

>  <r_epik_Charging_Adjusted_Penalty>  (76) 
0

>  <i_epik_Tot_Q>  (76) 
0

>  <i_epik_Tot_abs_Q>  (76) 
0

>  <s_lp_Force_Field>  (76) 
OPLS3e

>  <r_lp_Energy>  (76) 
250.559

>  <b_lp_Chiralities_Consistent>  (76) 
1

>  <s_lp_Variant>  (76) 
27:0-1

>  <s_i_glide_gridfile>  (76) 
pfpi4k_grid

>  <i_i_glide_lignum>  (76) 
37

>  <i_i_glide_rotatable_bonds>  (76) 
1

>  <r_i_docking_score>  (76) 
-2.08082

>  <r_i_glide_ligand_efficiency>  (76) 
-0.0671233

>  <r_i_glide_ligand_efficiency_sa>  (76) 
-0.21086

>  <r_i_glide_ligand_efficiency_ln>  (76) 
-0.469289

>  <r_i_glide_gscore>  (76) 
-2.08082

>  <r_i_glide_lipo>  (76) 
-0.428329

>  <r_i_glide_hbond>  (76) 
0

>  <r_i_glide_metal>  (76) 
-0

>  <r_i_glide_rewards>  (76) 
-0.486203

>  <r_i_glide_evdw>  (76) 
-21.3824

>  <r_i_glide_ecoul>  (76) 
-0.647804

>  <r_i_glide_erotb>  (76) 
0

>  <r_i_glide_esite>  (76) 
0

>  <r_i_glide_emodel>  (76) 
-24.6978

>  <r_i_glide_energy>  (76) 
-22.0302

>  <r_i_glide_einternal>  (76) 
0.434275

>  <r_i_glide_intrahb_reward>  (76) 
-0

>  <i_i_glide_confnum>  (76) 
1

>  <i_i_glide_posenum>  (76) 
26

>  <r_i_glide_eff_state_penalty>  (76) 
0

>  <ligand_id>  (76) 
27

>  <original_smiles>  (76) 
CC1CC2C(C)(C)C1C(O)C13CC4C2(O1)C(C1CC(C)(C)CCC4(C)C1(C)C)C3(C)C

>  <smiles>  (76) 
[H]OC1([H])C2([H])C([H])(C([H])([H])[H])C([H])([H])C([H])(C34OC15C([H])([H])C3([H])C1(C([H])([H])[H])C([H])([H])C([H])([H])C(C([H])([H])[H])(C([H])([H])[H])C([H])([H])C([H])(C4([H])C5(C([H])([H])[H])C([H])([H])[H])C1(C([H])([H])[H])C([H])([H])[H])C2(C([H])([H])[H])C([H])([H])[H]

$$$$
27:0:1
     RDKit          3D

 79 84  0  0  1  0  0  0  0  0999 V2000
   -1.1388    4.5258    4.1454 C   0  0  0  0  0  0  0  0  0  0  0  0
   -0.2748    3.2546    4.1384 C   0  0  2  0  0  0  0  0  0  0  0  0
   -1.0181    1.9440    4.6048 C   0  0  0  0  0  0  0  0  0  0  0  0
   -0.0828    1.2215    5.6509 C   0  0  2  0  0  0  0  0  0  0  0  0
    0.6071    2.5411    6.2729 C   0  0  0  0  0  0  0  0  0  0  0  0
   -0.4337    3.3104    7.1452 C   0  0  0  0  0  0  0  0  0  0  0  0
    1.7696    2.4166    7.2865 C   0  0  0  0  0  0  0  0  0  0  0  0
    1.0348    3.3540    4.9861 C   0  0  1  0  0  0  0  0  0  0  0  0
    2.3230    2.7561    4.1544 C   0  0  1  0  0  0  0  0  0  0  0  0
    3.5013    3.2830    4.7271 O   0  0  0  0  0  0  0  0  0  0  0  0
    2.5342    1.1661    3.9262 C   0  0  2  0  0  0  0  0  0  0  0  0
    3.2154    0.2667    5.0157 C   0  0  0  0  0  0  0  0  0  0  0  0
    2.0783   -0.4249    5.8396 C   0  0  1  0  0  0  0  0  0  0  0  0
    0.8862    0.0666    5.0223 C   0  0  1  0  0  0  0  0  0  0  0  0
    1.3126    1.1246    4.3757 O   0  0  0  0  0  0  0  0  0  0  0  0
    0.9147   -0.6476    3.6116 C   0  0  2  0  0  0  0  0  0  0  0  0
    1.1325   -2.2285    3.7934 C   0  0  1  0  0  0  0  0  0  0  0  0
    2.2177   -3.0580    2.9875 C   0  0  0  0  0  0  0  0  0  0  0  0
    3.5831   -3.6533    3.5522 C   0  0  0  0  0  0  0  0  0  0  0  0
    3.7305   -5.0778    2.9478 C   0  0  0  0  0  0  0  0  0  0  0  0
    4.8336   -2.9156    3.0308 C   0  0  0  0  0  0  0  0  0  0  0  0
    3.7460   -3.8229    5.0886 C   0  0  0  0  0  0  0  0  0  0  0  0
    3.4552   -2.6401    6.0355 C   0  0  0  0  0  0  0  0  0  0  0  0
    2.0191   -1.9980    6.1401 C   0  0  1  0  0  0  0  0  0  0  0  0
    1.6292   -2.1296    7.6440 C   0  0  0  0  0  0  0  0  0  0  0  0
    0.8953   -2.7110    5.2641 C   0  0  0  0  0  0  0  0  0  0  0  0
   -0.5609   -2.3594    5.7362 C   0  0  0  0  0  0  0  0  0  0  0  0
    0.8060   -4.2698    5.3820 C   0  0  0  0  0  0  0  0  0  0  0  0
    1.8980    0.3222    2.7687 C   0  0  0  0  0  0  0  0  0  0  0  0
    1.0685    1.1372    1.7399 C   0  0  0  0  0  0  0  0  0  0  0  0
    3.0314   -0.2142    1.8785 C   0  0  0  0  0  0  0  0  0  0  0  0
   -1.4414    4.8349    5.1424 H   0  0  0  0  0  0  0  0  0  0  0  0
   -2.0404    4.3843    3.5480 H   0  0  0  0  0  0  0  0  0  0  0  0
   -0.5857    5.3597    3.7103 H   0  0  0  0  0  0  0  0  0  0  0  0
    0.0085    3.1705    3.0951 H   0  0  0  0  0  0  0  0  0  0  0  0
   -1.9784    2.1923    5.0583 H   0  0  0  0  0  0  0  0  0  0  0  0
   -1.2825    1.2992    3.7694 H   0  0  0  0  0  0  0  0  0  0  0  0
   -0.7007    0.7643    6.4208 H   0  0  0  0  0  0  0  0  0  0  0  0
   -0.0978    4.3315    7.3419 H   0  0  0  0  0  0  0  0  0  0  0  0
   -0.5690    2.8229    8.1137 H   0  0  0  0  0  0  0  0  0  0  0  0
   -1.4332    3.3833    6.7280 H   0  0  0  0  0  0  0  0  0  0  0  0
    1.9977    3.3863    7.7319 H   0  0  0  0  0  0  0  0  0  0  0  0
    2.7078    2.0991    6.8551 H   0  0  0  0  0  0  0  0  0  0  0  0
    1.5240    1.7446    8.1096 H   0  0  0  0  0  0  0  0  0  0  0  0
    1.2359    4.3979    5.2359 H   0  0  0  0  0  0  0  0  0  0  0  0
    2.2950    3.2318    3.1719 H   0  0  0  0  0  0  0  0  0  0  0  0
    4.2026    3.1376    4.1113 H   0  0  0  0  0  0  0  0  0  0  0  0
    3.8369   -0.4478    4.4989 H   0  0  0  0  0  0  0  0  0  0  0  0
    3.8946    0.8317    5.6509 H   0  0  0  0  0  0  0  0  0  0  0  0
    2.0651    0.0506    6.8086 H   0  0  0  0  0  0  0  0  0  0  0  0
   -0.0843   -0.5470    3.1853 H   0  0  0  0  0  0  0  0  0  0  0  0
    0.2389   -2.5911    3.2842 H   0  0  0  0  0  0  0  0  0  0  0  0
    1.6478   -3.9388    2.6879 H   0  0  0  0  0  0  0  0  0  0  0  0
    2.3786   -2.6407    2.0013 H   0  0  0  0  0  0  0  0  0  0  0  0
    4.6680   -5.5514    3.2470 H   0  0  0  0  0  0  0  0  0  0  0  0
    3.7186   -5.0526    1.8563 H   0  0  0  0  0  0  0  0  0  0  0  0
    2.9324   -5.7508    3.2649 H   0  0  0  0  0  0  0  0  0  0  0  0
    5.7341   -3.5194    3.1516 H   0  0  0  0  0  0  0  0  0  0  0  0
    5.0349   -1.9976    3.5768 H   0  0  0  0  0  0  0  0  0  0  0  0
    4.7573   -2.6971    1.9648 H   0  0  0  0  0  0  0  0  0  0  0  0
    3.2672   -4.7245    5.4586 H   0  0  0  0  0  0  0  0  0  0  0  0
    4.7930   -4.0762    5.2636 H   0  0  0  0  0  0  0  0  0  0  0  0
    3.7174   -3.0408    7.0150 H   0  0  0  0  0  0  0  0  0  0  0  0
    4.2340   -1.8943    5.9169 H   0  0  0  0  0  0  0  0  0  0  0  0
    1.5044   -3.1686    7.9482 H   0  0  0  0  0  0  0  0  0  0  0  0
    0.7083   -1.6002    7.8885 H   0  0  0  0  0  0  0  0  0  0  0  0
    2.3995   -1.7050    8.2902 H   0  0  0  0  0  0  0  0  0  0  0  0
   -0.8677   -2.9740    6.5845 H   0  0  0  0  0  0  0  0  0  0  0  0
   -1.2875   -2.5338    4.9437 H   0  0  0  0  0  0  0  0  0  0  0  0
   -0.7235   -1.3526    6.0870 H   0  0  0  0  0  0  0  0  0  0  0  0
    1.1258   -4.6250    6.3606 H   0  0  0  0  0  0  0  0  0  0  0  0
    1.3572   -4.8254    4.6356 H   0  0  0  0  0  0  0  0  0  0  0  0
   -0.2064   -4.6481    5.2435 H   0  0  0  0  0  0  0  0  0  0  0  0
    0.8911    0.5426    0.8512 H   0  0  0  0  0  0  0  0  0  0  0  0
    1.5801    2.0418    1.4127 H   0  0  0  0  0  0  0  0  0  0  0  0
    0.0712    1.3919    2.0729 H   0  0  0  0  0  0  0  0  0  0  0  0
    3.5919    0.6121    1.4360 H   0  0  0  0  0  0  0  0  0  0  0  0
    2.6710   -0.8104    1.0396 H   0  0  0  0  0  0  0  0  0  0  0  0
    3.7576   -0.7808    2.4259 H   0  0  0  0  0  0  0  0  0  0  0  0
  1  2  1  0
  1 32  1  0
  1 33  1  0
  1 34  1  0
  2  8  1  0
  2  3  1  0
  2 35  1  6
  3  4  1  0
  3 36  1  0
  3 37  1  0
  4 14  1  0
  4  5  1  0
  4 38  1  1
  5  6  1  0
  5  7  1  0
  5  8  1  0
  6 39  1  0
  6 40  1  0
  6 41  1  0
  7 42  1  0
  7 43  1  0
  7 44  1  0
  8  9  1  0
  8 45  1  1
  9 10  1  0
  9 11  1  0
  9 46  1  6
 10 47  1  0
 11 15  1  0
 11 29  1  6
 11 12  1  0
 12 13  1  0
 12 48  1  0
 12 49  1  0
 13 24  1  0
 13 14  1  0
 13 50  1  1
 14 15  1  6
 14 16  1  0
 16 17  1  0
 16 29  1  0
 16 51  1  6
 17 26  1  0
 17 18  1  0
 17 52  1  6
 18 19  1  0
 18 53  1  0
 18 54  1  0
 19 20  1  0
 19 21  1  0
 19 22  1  0
 20 55  1  0
 20 56  1  0
 20 57  1  0
 21 58  1  0
 21 59  1  0
 21 60  1  0
 22 23  1  0
 22 61  1  0
 22 62  1  0
 23 24  1  0
 23 63  1  0
 23 64  1  0
 24 25  1  1
 24 26  1  0
 25 65  1  0
 25 66  1  0
 25 67  1  0
 26 27  1  0
 26 28  1  0
 27 68  1  0
 27 69  1  0
 27 70  1  0
 28 71  1  0
 28 72  1  0
 28 73  1  0
 29 30  1  0
 29 31  1  0
 30 74  1  0
 30 75  1  0
 30 76  1  0
 31 77  1  0
 31 78  1  0
 31 79  1  0
M  END
>  <i_m_ct_stereo_status>  (77) 
1

>  <s_m_source_file>  (77) 
/var/tmp/pbs.5076255.sched01/tmpgq1_80gb/0xrgip9rw.sdf

>  <i_m_source_file_index>  (77) 
37

>  <i_lp_mmshare_version>  (77) 
48012

>  <i_f3d_flags>  (77) 
0

>  <s_epik_input>  (77) 
W09IXVtDQEBIXShbQ0BAXTEyMylbQ0BIXTRbQ0BIXShbQ0gzXSlbQ0gyXVtDQEhdKEM0KFtDSDNdKVtDSDNdKVtDQEBdNShPMilbQ0BIXShbQ0gyXTEpW0NAXTYoW0NIM10pW0NIMl1bQ0gyXUMoW0NIM10pKFtDSDNdKVtDSDJdW0NAQEhdKEM2KFtDSDNdKVtDSDNdKVtDQEBIXTVDMyhbQ0gzXSlbQ0gzXQ==

>  <s_epik_cmdline>  (77) 
J2VwaWtfcHl0aG9uJywgJy1waHQnLCAnMi4wJywgJy1waCcsICc3LjAnLCAnLXRuJywgJzgnLCAnLW1hJywgJzIwMCcsICctaW1hZScsICc8aW5maWxlLm1hZT4nLCAnLW9tYWUnLCAnPG91dGZpbGUubWFlPic=

>  <r_lp_tautomer_probability>  (77) 
1

>  <r_epik_Ionization_Penalty>  (77) 
3.90594e-07

>  <r_epik_Ionization_Penalty_Charging>  (77) 
0

>  <r_epik_Ionization_Penalty_Neutral>  (77) 
3.90594e-07

>  <r_epik_State_Penalty>  (77) 
-0

>  <r_epik_Charging_Adjusted_Penalty>  (77) 
0

>  <i_epik_Tot_Q>  (77) 
0

>  <i_epik_Tot_abs_Q>  (77) 
0

>  <s_lp_Force_Field>  (77) 
OPLS3e

>  <r_lp_Energy>  (77) 
250.559

>  <b_lp_Chiralities_Consistent>  (77) 
1

>  <s_lp_Variant>  (77) 
27:0-1

>  <s_i_glide_gridfile>  (77) 
pfpi4k_grid

>  <i_i_glide_lignum>  (77) 
37

>  <i_i_glide_rotatable_bonds>  (77) 
1

>  <r_i_docking_score>  (77) 
-1.95306

>  <r_i_glide_ligand_efficiency>  (77) 
-0.0630019

>  <r_i_glide_ligand_efficiency_sa>  (77) 
-0.197913

>  <r_i_glide_ligand_efficiency_ln>  (77) 
-0.440475

>  <r_i_glide_gscore>  (77) 
-1.95306

>  <r_i_glide_lipo>  (77) 
-0.0756454

>  <r_i_glide_hbond>  (77) 
0

>  <r_i_glide_metal>  (77) 
-0

>  <r_i_glide_rewards>  (77) 
-0.486203

>  <r_i_glide_evdw>  (77) 
-23.8305

>  <r_i_glide_ecoul>  (77) 
-1.33123

>  <r_i_glide_erotb>  (77) 
0

>  <r_i_glide_esite>  (77) 
0

>  <r_i_glide_emodel>  (77) 
-27.8037

>  <r_i_glide_energy>  (77) 
-25.1617

>  <r_i_glide_einternal>  (77) 
0.364835

>  <r_i_glide_intrahb_reward>  (77) 
-0

>  <i_i_glide_confnum>  (77) 
1

>  <i_i_glide_posenum>  (77) 
33

>  <r_i_glide_eff_state_penalty>  (77) 
0

>  <ligand_id>  (77) 
27

>  <original_smiles>  (77) 
CC1CC2C(C)(C)C1C(O)C13CC4C2(O1)C(C1CC(C)(C)CCC4(C)C1(C)C)C3(C)C

>  <smiles>  (77) 
[H]OC1([H])C2([H])C([H])(C([H])([H])[H])C([H])([H])C([H])(C34OC15C([H])([H])C3([H])C1(C([H])([H])[H])C([H])([H])C([H])([H])C(C([H])([H])[H])(C([H])([H])[H])C([H])([H])C([H])(C4([H])C5(C([H])([H])[H])C([H])([H])[H])C1(C([H])([H])[H])C([H])([H])[H])C2(C([H])([H])[H])C([H])([H])[H]

$$$$
27:0:2
     RDKit          3D

 79 84  0  0  1  0  0  0  0  0999 V2000
    4.2261   -3.4464   -2.6538 C   0  0  0  0  0  0  0  0  0  0  0  0
    4.0375   -3.6772   -1.1389 C   0  0  2  0  0  0  0  0  0  0  0  0
    3.1383   -2.6091   -0.4185 C   0  0  0  0  0  0  0  0  0  0  0  0
    3.8904   -2.1467    0.8876 C   0  0  2  0  0  0  0  0  0  0  0  0
    5.3894   -2.3346    0.3333 C   0  0  0  0  0  0  0  0  0  0  0  0
    5.6974   -1.2266   -0.7143 C   0  0  0  0  0  0  0  0  0  0  0  0
    6.5985   -2.1616    1.2718 C   0  0  0  0  0  0  0  0  0  0  0  0
    5.3565   -3.7762   -0.3128 C   0  0  1  0  0  0  0  0  0  0  0  0
    5.3019   -5.0395    0.7466 C   0  0  1  0  0  0  0  0  0  0  0  0
    6.6285   -5.3742    1.1028 O   0  0  0  0  0  0  0  0  0  0  0  0
    4.4088   -4.9894    2.0988 C   0  0  2  0  0  0  0  0  0  0  0  0
    4.9527   -4.3108    3.4064 C   0  0  0  0  0  0  0  0  0  0  0  0
    4.3774   -2.8565    3.4687 C   0  0  1  0  0  0  0  0  0  0  0  0
    3.4642   -2.9385    2.2494 C   0  0  1  0  0  0  0  0  0  0  0  0
    3.9126   -3.9343    1.5188 O   0  0  0  0  0  0  0  0  0  0  0  0
    2.2671   -3.9129    2.5907 C   0  0  2  0  0  0  0  0  0  0  0  0
    1.6200   -3.5431    4.0110 C   0  0  1  0  0  0  0  0  0  0  0  0
    1.3307   -4.6124    5.1446 C   0  0  0  0  0  0  0  0  0  0  0  0
    2.1438   -4.8096    6.4991 C   0  0  0  0  0  0  0  0  0  0  0  0
    1.0910   -5.0585    7.6150 C   0  0  0  0  0  0  0  0  0  0  0  0
    2.9954   -6.0963    6.5183 C   0  0  0  0  0  0  0  0  0  0  0  0
    3.0431   -3.6467    7.0069 C   0  0  0  0  0  0  0  0  0  0  0  0
    4.0770   -2.9930    6.0656 C   0  0  0  0  0  0  0  0  0  0  0  0
    3.6418   -2.2361    4.7526 C   0  0  1  0  0  0  0  0  0  0  0  0
    4.2085   -0.7917    4.9114 C   0  0  0  0  0  0  0  0  0  0  0  0
    2.0649   -2.1331    4.5281 C   0  0  0  0  0  0  0  0  0  0  0  0
    1.6616   -1.0125    3.5018 C   0  0  0  0  0  0  0  0  0  0  0  0
    1.2158   -1.6452    5.7505 C   0  0  0  0  0  0  0  0  0  0  0  0
    2.8854   -5.3577    2.2098 C   0  0  0  0  0  0  0  0  0  0  0  0
    2.2221   -5.8915    0.9063 C   0  0  0  0  0  0  0  0  0  0  0  0
    2.7502   -6.5867    3.1226 C   0  0  0  0  0  0  0  0  0  0  0  0
    4.7805   -2.5456   -2.9059 H   0  0  0  0  0  0  0  0  0  0  0  0
    3.2593   -3.3834   -3.1541 H   0  0  0  0  0  0  0  0  0  0  0  0
    4.7632   -4.2822   -3.1024 H   0  0  0  0  0  0  0  0  0  0  0  0
    3.5521   -4.6443   -1.0928 H   0  0  0  0  0  0  0  0  0  0  0  0
    2.9759   -1.7567   -1.0766 H   0  0  0  0  0  0  0  0  0  0  0  0
    2.1399   -2.9808   -0.2083 H   0  0  0  0  0  0  0  0  0  0  0  0
    3.7091   -1.0840    1.0393 H   0  0  0  0  0  0  0  0  0  0  0  0
    6.5675   -1.5039   -1.3107 H   0  0  0  0  0  0  0  0  0  0  0  0
    5.9119   -0.2750   -0.2229 H   0  0  0  0  0  0  0  0  0  0  0  0
    4.9005   -0.9980   -1.4148 H   0  0  0  0  0  0  0  0  0  0  0  0
    7.5336   -2.1558    0.7091 H   0  0  0  0  0  0  0  0  0  0  0  0
    6.7149   -2.9710    1.9762 H   0  0  0  0  0  0  0  0  0  0  0  0
    6.5592   -1.2208    1.8235 H   0  0  0  0  0  0  0  0  0  0  0  0
    6.1990   -3.9167   -0.9903 H   0  0  0  0  0  0  0  0  0  0  0  0
    4.9723   -5.9071    0.1705 H   0  0  0  0  0  0  0  0  0  0  0  0
    7.0985   -5.6142    0.3185 H   0  0  0  0  0  0  0  0  0  0  0  0
    4.6288   -4.9118    4.2414 H   0  0  0  0  0  0  0  0  0  0  0  0
    6.0385   -4.3251    3.4507 H   0  0  0  0  0  0  0  0  0  0  0  0
    5.1956   -2.1842    3.2592 H   0  0  0  0  0  0  0  0  0  0  0  0
    1.4860   -3.6905    1.8714 H   0  0  0  0  0  0  0  0  0  0  0  0
    0.5925   -3.3571    3.6959 H   0  0  0  0  0  0  0  0  0  0  0  0
    0.3261   -4.3359    5.4675 H   0  0  0  0  0  0  0  0  0  0  0  0
    1.0912   -5.5785    4.7194 H   0  0  0  0  0  0  0  0  0  0  0  0
    1.5615   -5.2499    8.5814 H   0  0  0  0  0  0  0  0  0  0  0  0
    0.4640   -5.9230    7.3872 H   0  0  0  0  0  0  0  0  0  0  0  0
    0.4267   -4.2059    7.7595 H   0  0  0  0  0  0  0  0  0  0  0  0
    3.2713   -6.3803    7.5350 H   0  0  0  0  0  0  0  0  0  0  0  0
    3.9402   -5.9781    5.9944 H   0  0  0  0  0  0  0  0  0  0  0  0
    2.4530   -6.9476    6.1037 H   0  0  0  0  0  0  0  0  0  0  0  0
    2.4753   -2.8817    7.5270 H   0  0  0  0  0  0  0  0  0  0  0  0
    3.6287   -4.0478    7.8357 H   0  0  0  0  0  0  0  0  0  0  0  0
    4.5819   -2.2770    6.7149 H   0  0  0  0  0  0  0  0  0  0  0  0
    4.8848   -3.6952    5.8873 H   0  0  0  0  0  0  0  0  0  0  0  0
    3.7348   -0.2489    5.7286 H   0  0  0  0  0  0  0  0  0  0  0  0
    4.0927   -0.1914    4.0086 H   0  0  0  0  0  0  0  0  0  0  0  0
    5.2784   -0.8078    5.1254 H   0  0  0  0  0  0  0  0  0  0  0  0
    1.6365   -0.0274    3.9712 H   0  0  0  0  0  0  0  0  0  0  0  0
    0.6668   -1.1824    3.0880 H   0  0  0  0  0  0  0  0  0  0  0  0
    2.3234   -0.8664    2.6624 H   0  0  0  0  0  0  0  0  0  0  0  0
    1.7795   -0.9748    6.3966 H   0  0  0  0  0  0  0  0  0  0  0  0
    0.8026   -2.4278    6.3714 H   0  0  0  0  0  0  0  0  0  0  0  0
    0.3233   -1.0947    5.4516 H   0  0  0  0  0  0  0  0  0  0  0  0
    1.2695   -6.3789    1.1137 H   0  0  0  0  0  0  0  0  0  0  0  0
    2.8520   -6.6356    0.4225 H   0  0  0  0  0  0  0  0  0  0  0  0
    1.9839   -5.1199    0.1862 H   0  0  0  0  0  0  0  0  0  0  0  0
    3.2875   -7.4370    2.6964 H   0  0  0  0  0  0  0  0  0  0  0  0
    1.7202   -6.9182    3.2494 H   0  0  0  0  0  0  0  0  0  0  0  0
    3.1931   -6.4336    4.0860 H   0  0  0  0  0  0  0  0  0  0  0  0
  1  2  1  0
  1 32  1  0
  1 33  1  0
  1 34  1  0
  2  8  1  0
  2  3  1  0
  2 35  1  6
  3  4  1  0
  3 36  1  0
  3 37  1  0
  4 14  1  0
  4  5  1  0
  4 38  1  1
  5  6  1  0
  5  7  1  0
  5  8  1  0
  6 39  1  0
  6 40  1  0
  6 41  1  0
  7 42  1  0
  7 43  1  0
  7 44  1  0
  8  9  1  0
  8 45  1  6
  9 10  1  0
  9 11  1  0
  9 46  1  6
 10 47  1  0
 11 15  1  0
 11 29  1  1
 11 12  1  0
 12 13  1  0
 12 48  1  0
 12 49  1  0
 13 24  1  0
 13 14  1  0
 13 50  1  6
 14 15  1  6
 14 16  1  0
 16 17  1  0
 16 29  1  0
 16 51  1  6
 17 26  1  0
 17 18  1  0
 17 52  1  6
 18 19  1  0
 18 53  1  0
 18 54  1  0
 19 20  1  0
 19 21  1  0
 19 22  1  0
 20 55  1  0
 20 56  1  0
 20 57  1  0
 21 58  1  0
 21 59  1  0
 21 60  1  0
 22 23  1  0
 22 61  1  0
 22 62  1  0
 23 24  1  0
 23 63  1  0
 23 64  1  0
 24 25  1  1
 24 26  1  0
 25 65  1  0
 25 66  1  0
 25 67  1  0
 26 27  1  0
 26 28  1  0
 27 68  1  0
 27 69  1  0
 27 70  1  0
 28 71  1  0
 28 72  1  0
 28 73  1  0
 29 30  1  0
 29 31  1  0
 30 74  1  0
 30 75  1  0
 30 76  1  0
 31 77  1  0
 31 78  1  0
 31 79  1  0
M  END
>  <i_m_ct_stereo_status>  (78) 
1

>  <s_m_source_file>  (78) 
/var/tmp/pbs.5076255.sched01/tmpgq1_80gb/0xrgip9rw.sdf

>  <i_m_source_file_index>  (78) 
37

>  <i_lp_mmshare_version>  (78) 
48012

>  <i_f3d_flags>  (78) 
0

>  <s_epik_input>  (78) 
W09IXVtDQEBIXShbQ0BAXTEyMylbQ0BIXTRbQ0BIXShbQ0gzXSlbQ0gyXVtDQEhdKEM0KFtDSDNdKVtDSDNdKVtDQEBdNShPMilbQ0BIXShbQ0gyXTEpW0NAXTYoW0NIM10pW0NIMl1bQ0gyXUMoW0NIM10pKFtDSDNdKVtDSDJdW0NAQEhdKEM2KFtDSDNdKVtDSDNdKVtDQEBIXTVDMyhbQ0gzXSlbQ0gzXQ==

>  <s_epik_cmdline>  (78) 
J2VwaWtfcHl0aG9uJywgJy1waHQnLCAnMi4wJywgJy1waCcsICc3LjAnLCAnLXRuJywgJzgnLCAnLW1hJywgJzIwMCcsICctaW1hZScsICc8aW5maWxlLm1hZT4nLCAnLW9tYWUnLCAnPG91dGZpbGUubWFlPic=

>  <r_lp_tautomer_probability>  (78) 
1

>  <r_epik_Ionization_Penalty>  (78) 
3.90594e-07

>  <r_epik_Ionization_Penalty_Charging>  (78) 
0

>  <r_epik_Ionization_Penalty_Neutral>  (78) 
3.90594e-07

>  <r_epik_State_Penalty>  (78) 
-0

>  <r_epik_Charging_Adjusted_Penalty>  (78) 
0

>  <i_epik_Tot_Q>  (78) 
0

>  <i_epik_Tot_abs_Q>  (78) 
0

>  <s_lp_Force_Field>  (78) 
OPLS3e

>  <r_lp_Energy>  (78) 
250.559

>  <b_lp_Chiralities_Consistent>  (78) 
1

>  <s_lp_Variant>  (78) 
27:0-1

>  <s_i_glide_gridfile>  (78) 
pfpi4k_grid

>  <i_i_glide_lignum>  (78) 
37

>  <i_i_glide_rotatable_bonds>  (78) 
1

>  <r_i_docking_score>  (78) 
-1.95292

>  <r_i_glide_ligand_efficiency>  (78) 
-0.0629974

>  <r_i_glide_ligand_efficiency_sa>  (78) 
-0.197899

>  <r_i_glide_ligand_efficiency_ln>  (78) 
-0.440443

>  <r_i_glide_gscore>  (78) 
-1.95292

>  <r_i_glide_lipo>  (78) 
-0.287973

>  <r_i_glide_hbond>  (78) 
0

>  <r_i_glide_metal>  (78) 
-0

>  <r_i_glide_rewards>  (78) 
-0.486203

>  <r_i_glide_evdw>  (78) 
-23.5441

>  <r_i_glide_ecoul>  (78) 
-0.0102482

>  <r_i_glide_erotb>  (78) 
0

>  <r_i_glide_esite>  (78) 
0

>  <r_i_glide_emodel>  (78) 
-26.176

>  <r_i_glide_energy>  (78) 
-23.5543

>  <r_i_glide_einternal>  (78) 
0.369279

>  <r_i_glide_intrahb_reward>  (78) 
-0

>  <i_i_glide_confnum>  (78) 
1

>  <i_i_glide_posenum>  (78) 
28

>  <r_i_glide_eff_state_penalty>  (78) 
0

>  <ligand_id>  (78) 
27

>  <original_smiles>  (78) 
CC1CC2C(C)(C)C1C(O)C13CC4C2(O1)C(C1CC(C)(C)CCC4(C)C1(C)C)C3(C)C

>  <smiles>  (78) 
[H]OC1([H])C2([H])C([H])(C([H])([H])[H])C([H])([H])C([H])(C34OC15C([H])([H])C3([H])C1(C([H])([H])[H])C([H])([H])C([H])([H])C(C([H])([H])[H])(C([H])([H])[H])C([H])([H])C([H])(C4([H])C5(C([H])([H])[H])C([H])([H])[H])C1(C([H])([H])[H])C([H])([H])[H])C2(C([H])([H])[H])C([H])([H])[H]

$$$$
28:0:0
     RDKit          3D

 18 20  0  0  1  0  0  0  0  0999 V2000
    4.1849   -1.5440   -3.3629 C   0  0  0  0  0  0  0  0  0  0  0  0
    3.1777   -2.6736   -3.6743 C   0  0  1  0  0  0  0  0  0  0  0  0
    4.4608   -3.5327   -3.7884 C   0  0  0  0  0  0  0  0  0  0  0  0
    4.9752   -2.6509   -2.6377 C   0  0  2  0  0  0  0  0  0  0  0  0
    4.3954   -3.0183   -1.3142 C   0  0  0  0  0  0  0  0  0  0  0  0
    4.9237   -3.2118   -0.1149 N   0  0  0  0  0  0  0  0  0  0  0  0
    3.8053   -3.5347    0.6386 N   0  0  0  0  0  0  0  0  0  0  0  0
    2.7111   -3.5319   -0.0792 N   0  0  0  0  0  0  0  0  0  0  0  0
    3.0977   -3.1923   -1.3245 N   0  0  0  0  0  0  0  0  0  0  0  0
    2.2454   -3.0623   -2.5002 C   0  0  0  0  0  0  0  0  0  0  0  0
    3.7941   -0.7896   -2.6808 H   0  0  0  0  0  0  0  0  0  0  0  0
    4.6705   -1.1117   -4.2489 H   0  0  0  0  0  0  0  0  0  0  0  0
    2.6865   -2.5388   -4.6314 H   0  0  0  0  0  0  0  0  0  0  0  0
    4.3259   -4.5723   -3.5063 H   0  0  0  0  0  0  0  0  0  0  0  0
    5.0159   -3.4431   -4.7211 H   0  0  0  0  0  0  0  0  0  0  0  0
    6.0483   -2.5198   -2.6301 H   0  0  0  0  0  0  0  0  0  0  0  0
    1.5035   -2.2942   -2.3284 H   0  0  0  0  0  0  0  0  0  0  0  0
    1.7557   -4.0040   -2.6905 H   0  0  0  0  0  0  0  0  0  0  0  0
  1  4  1  0
  1  2  1  0
  1 11  1  0
  1 12  1  0
  2 10  1  0
  2  3  1  0
  2 13  1  6
  3  4  1  0
  3 14  1  0
  3 15  1  0
  4  5  1  0
  4 16  1  1
  5  9  1  0
  5  6  2  0
  6  7  1  0
  7  8  2  0
  8  9  1  0
  9 10  1  0
 10 17  1  0
 10 18  1  0
M  END
>  <i_m_ct_stereo_status>  (79) 
1

>  <s_m_source_file>  (79) 
/var/tmp/pbs.5076255.sched01/tmpmalnbme9/37wob9dpop.sdf

>  <i_m_source_file_index>  (79) 
1

>  <i_lp_mmshare_version>  (79) 
48012

>  <i_f3d_flags>  (79) 
0

>  <s_epik_input>  (79) 
W0NASF0xMltDSDJdW0NASF0oW0NIMl0xKWMzbihbQ0gyXTIpbm5uMw==

>  <s_epik_cmdline>  (79) 
J2VwaWtfcHl0aG9uJywgJy1waHQnLCAnMi4wJywgJy1waCcsICc3LjAnLCAnLXRuJywgJzgnLCAnLW1hJywgJzIwMCcsICctaW1hZScsICc8aW5maWxlLm1hZT4nLCAnLW9tYWUnLCAnPG91dGZpbGUubWFlPic=

>  <r_lp_tautomer_probability>  (79) 
1

>  <r_epik_Ionization_Penalty>  (79) 
2.11704e-08

>  <r_epik_Ionization_Penalty_Charging>  (79) 
0

>  <r_epik_Ionization_Penalty_Neutral>  (79) 
2.11704e-08

>  <r_epik_State_Penalty>  (79) 
-0

>  <r_epik_Charging_Adjusted_Penalty>  (79) 
0

>  <i_epik_Tot_Q>  (79) 
0

>  <i_epik_Tot_abs_Q>  (79) 
0

>  <s_lp_Force_Field>  (79) 
OPLS3e

>  <r_lp_Energy>  (79) 
25.0545

>  <b_lp_Chiralities_Consistent>  (79) 
1

>  <s_lp_Variant>  (79) 
28:0-1

>  <s_i_glide_gridfile>  (79) 
pfpi4k_grid

>  <i_i_glide_lignum>  (79) 
1

>  <i_i_glide_rotatable_bonds>  (79) 
0

>  <r_i_docking_score>  (79) 
-4.10421

>  <r_i_glide_ligand_efficiency>  (79) 
-0.410421

>  <r_i_glide_ligand_efficiency_sa>  (79) 
-0.884226

>  <r_i_glide_ligand_efficiency_ln>  (79) 
-1.24273

>  <r_i_glide_gscore>  (79) 
-4.10421

>  <r_i_glide_lipo>  (79) 
-0.728096

>  <r_i_glide_hbond>  (79) 
0

>  <r_i_glide_metal>  (79) 
-0

>  <r_i_glide_rewards>  (79) 
-2.32834

>  <r_i_glide_evdw>  (79) 
-16.1064

>  <r_i_glide_ecoul>  (79) 
-1.39597

>  <r_i_glide_erotb>  (79) 
0

>  <r_i_glide_esite>  (79) 
-0.0330593

>  <r_i_glide_emodel>  (79) 
-22.3071

>  <r_i_glide_energy>  (79) 
-17.5024

>  <r_i_glide_einternal>  (79) 
0

>  <r_i_glide_intrahb_reward>  (79) 
-0

>  <i_i_glide_confnum>  (79) 
1

>  <i_i_glide_posenum>  (79) 
15

>  <r_i_glide_eff_state_penalty>  (79) 
0

>  <ligand_id>  (79) 
28

>  <original_smiles>  (79) 
C1C2CC1c1nnnn1C2

>  <smiles>  (79) 
[H]C1([H])n2nnnc2C2([H])C([H])([H])C1([H])C2([H])[H]

$$$$
28:0:1
     RDKit          3D

 18 20  0  0  1  0  0  0  0  0999 V2000
    4.5486   -1.2623   -2.1142 C   0  0  0  0  0  0  0  0  0  0  0  0
    3.8885   -2.2750   -3.0812 C   0  0  1  0  0  0  0  0  0  0  0  0
    5.2213   -3.0376   -2.8964 C   0  0  0  0  0  0  0  0  0  0  0  0
    5.1608   -2.5080   -1.4543 C   0  0  2  0  0  0  0  0  0  0  0  0
    4.1914   -3.2523   -0.6010 C   0  0  0  0  0  0  0  0  0  0  0  0
    4.2573   -3.7700    0.6118 N   0  0  0  0  0  0  0  0  0  0  0  0
    2.9964   -4.3349    0.7598 N   0  0  0  0  0  0  0  0  0  0  0  0
    2.2543   -4.1609   -0.3071 N   0  0  0  0  0  0  0  0  0  0  0  0
    3.0079   -3.4541   -1.1705 N   0  0  0  0  0  0  0  0  0  0  0  0
    2.6476   -3.0031   -2.5019 C   0  0  0  0  0  0  0  0  0  0  0  0
    3.8409   -0.7448   -1.4664 H   0  0  0  0  0  0  0  0  0  0  0  0
    5.2707   -0.5812   -2.5793 H   0  0  0  0  0  0  0  0  0  0  0  0
    3.7664   -1.8708   -4.0826 H   0  0  0  0  0  0  0  0  0  0  0  0
    5.1193   -4.1214   -2.9581 H   0  0  0  0  0  0  0  0  0  0  0  0
    6.0590   -2.6557   -3.4914 H   0  0  0  0  0  0  0  0  0  0  0  0
    6.1250   -2.3539   -0.9827 H   0  0  0  0  0  0  0  0  0  0  0  0
    1.8023   -2.3264   -2.4325 H   0  0  0  0  0  0  0  0  0  0  0  0
    2.3632   -3.8565   -3.1126 H   0  0  0  0  0  0  0  0  0  0  0  0
  1  4  1  0
  1  2  1  0
  1 11  1  0
  1 12  1  0
  2 10  1  0
  2  3  1  0
  2 13  1  6
  3  4  1  0
  3 14  1  0
  3 15  1  0
  4  5  1  0
  4 16  1  1
  5  9  1  0
  5  6  2  0
  6  7  1  0
  7  8  2  0
  8  9  1  0
  9 10  1  0
 10 17  1  0
 10 18  1  0
M  END
>  <i_m_ct_stereo_status>  (80) 
1

>  <s_m_source_file>  (80) 
/var/tmp/pbs.5076255.sched01/tmpmalnbme9/37wob9dpop.sdf

>  <i_m_source_file_index>  (80) 
1

>  <i_lp_mmshare_version>  (80) 
48012

>  <i_f3d_flags>  (80) 
0

>  <s_epik_input>  (80) 
W0NASF0xMltDSDJdW0NASF0oW0NIMl0xKWMzbihbQ0gyXTIpbm5uMw==

>  <s_epik_cmdline>  (80) 
J2VwaWtfcHl0aG9uJywgJy1waHQnLCAnMi4wJywgJy1waCcsICc3LjAnLCAnLXRuJywgJzgnLCAnLW1hJywgJzIwMCcsICctaW1hZScsICc8aW5maWxlLm1hZT4nLCAnLW9tYWUnLCAnPG91dGZpbGUubWFlPic=

>  <r_lp_tautomer_probability>  (80) 
1

>  <r_epik_Ionization_Penalty>  (80) 
2.11704e-08

>  <r_epik_Ionization_Penalty_Charging>  (80) 
0

>  <r_epik_Ionization_Penalty_Neutral>  (80) 
2.11704e-08

>  <r_epik_State_Penalty>  (80) 
-0

>  <r_epik_Charging_Adjusted_Penalty>  (80) 
0

>  <i_epik_Tot_Q>  (80) 
0

>  <i_epik_Tot_abs_Q>  (80) 
0

>  <s_lp_Force_Field>  (80) 
OPLS3e

>  <r_lp_Energy>  (80) 
25.0545

>  <b_lp_Chiralities_Consistent>  (80) 
1

>  <s_lp_Variant>  (80) 
28:0-1

>  <s_i_glide_gridfile>  (80) 
pfpi4k_grid

>  <i_i_glide_lignum>  (80) 
1

>  <i_i_glide_rotatable_bonds>  (80) 
0

>  <r_i_docking_score>  (80) 
-3.78012

>  <r_i_glide_ligand_efficiency>  (80) 
-0.378012

>  <r_i_glide_ligand_efficiency_sa>  (80) 
-0.814401

>  <r_i_glide_ligand_efficiency_ln>  (80) 
-1.14459

>  <r_i_glide_gscore>  (80) 
-3.78012

>  <r_i_glide_lipo>  (80) 
-0.315054

>  <r_i_glide_hbond>  (80) 
0

>  <r_i_glide_metal>  (80) 
-0

>  <r_i_glide_rewards>  (80) 
-2.40316

>  <r_i_glide_evdw>  (80) 
-16.1871

>  <r_i_glide_ecoul>  (80) 
-1.17685

>  <r_i_glide_erotb>  (80) 
0

>  <r_i_glide_esite>  (80) 
-0.0760173

>  <r_i_glide_emodel>  (80) 
-21.7897

>  <r_i_glide_energy>  (80) 
-17.364

>  <r_i_glide_einternal>  (80) 
0

>  <r_i_glide_intrahb_reward>  (80) 
-0

>  <i_i_glide_confnum>  (80) 
1

>  <i_i_glide_posenum>  (80) 
32

>  <r_i_glide_eff_state_penalty>  (80) 
0

>  <ligand_id>  (80) 
28

>  <original_smiles>  (80) 
C1C2CC1c1nnnn1C2

>  <smiles>  (80) 
[H]C1([H])n2nnnc2C2([H])C([H])([H])C1([H])C2([H])[H]

$$$$
28:0:2
     RDKit          3D

 18 20  0  0  1  0  0  0  0  0999 V2000
    3.2697   -3.1026   -3.8444 C   0  0  0  0  0  0  0  0  0  0  0  0
    4.4937   -2.2578   -3.4132 C   0  0  1  0  0  0  0  0  0  0  0  0
    3.4097   -1.3738   -2.7536 C   0  0  0  0  0  0  0  0  0  0  0  0
    2.7019   -2.7125   -2.4610 C   0  0  2  0  0  0  0  0  0  0  0  0
    3.3213   -3.4528   -1.3216 C   0  0  0  0  0  0  0  0  0  0  0  0
    2.8197   -4.0716   -0.2578 N   0  0  0  0  0  0  0  0  0  0  0  0
    3.9606   -4.5607    0.3564 N   0  0  0  0  0  0  0  0  0  0  0  0
    5.0445   -4.2427   -0.3021 N   0  0  0  0  0  0  0  0  0  0  0  0
    4.6246   -3.5413   -1.3743 N   0  0  0  0  0  0  0  0  0  0  0  0
    5.4631   -2.9589   -2.4184 C   0  0  0  0  0  0  0  0  0  0  0  0
    3.4851   -4.1647   -3.9232 H   0  0  0  0  0  0  0  0  0  0  0  0
    2.7107   -2.7148   -4.7110 H   0  0  0  0  0  0  0  0  0  0  0  0
    4.9541   -1.7457   -4.2519 H   0  0  0  0  0  0  0  0  0  0  0  0
    3.7396   -0.8660   -1.8485 H   0  0  0  0  0  0  0  0  0  0  0  0
    2.8647   -0.7131   -3.4424 H   0  0  0  0  0  0  0  0  0  0  0  0
    1.6234   -2.6570   -2.4186 H   0  0  0  0  0  0  0  0  0  0  0  0
    6.0301   -3.7410   -2.9109 H   0  0  0  0  0  0  0  0  0  0  0  0
    6.1472   -2.2434   -1.9740 H   0  0  0  0  0  0  0  0  0  0  0  0
  1  4  1  0
  1  2  1  0
  1 11  1  0
  1 12  1  0
  2 10  1  0
  2  3  1  0
  2 13  1  6
  3  4  1  0
  3 14  1  0
  3 15  1  0
  4  5  1  0
  4 16  1  6
  5  9  1  0
  5  6  2  0
  6  7  1  0
  7  8  2  0
  8  9  1  0
  9 10  1  0
 10 17  1  0
 10 18  1  0
M  END
>  <i_m_ct_stereo_status>  (81) 
1

>  <s_m_source_file>  (81) 
/var/tmp/pbs.5076255.sched01/tmpmalnbme9/37wob9dpop.sdf

>  <i_m_source_file_index>  (81) 
1

>  <i_lp_mmshare_version>  (81) 
48012

>  <i_f3d_flags>  (81) 
0

>  <s_epik_input>  (81) 
W0NASF0xMltDSDJdW0NASF0oW0NIMl0xKWMzbihbQ0gyXTIpbm5uMw==

>  <s_epik_cmdline>  (81) 
J2VwaWtfcHl0aG9uJywgJy1waHQnLCAnMi4wJywgJy1waCcsICc3LjAnLCAnLXRuJywgJzgnLCAnLW1hJywgJzIwMCcsICctaW1hZScsICc8aW5maWxlLm1hZT4nLCAnLW9tYWUnLCAnPG91dGZpbGUubWFlPic=

>  <r_lp_tautomer_probability>  (81) 
1

>  <r_epik_Ionization_Penalty>  (81) 
2.11704e-08

>  <r_epik_Ionization_Penalty_Charging>  (81) 
0

>  <r_epik_Ionization_Penalty_Neutral>  (81) 
2.11704e-08

>  <r_epik_State_Penalty>  (81) 
-0

>  <r_epik_Charging_Adjusted_Penalty>  (81) 
0

>  <i_epik_Tot_Q>  (81) 
0

>  <i_epik_Tot_abs_Q>  (81) 
0

>  <s_lp_Force_Field>  (81) 
OPLS3e

>  <r_lp_Energy>  (81) 
25.0545

>  <b_lp_Chiralities_Consistent>  (81) 
1

>  <s_lp_Variant>  (81) 
28:0-1

>  <s_i_glide_gridfile>  (81) 
pfpi4k_grid

>  <i_i_glide_lignum>  (81) 
1

>  <i_i_glide_rotatable_bonds>  (81) 
0

>  <r_i_docking_score>  (81) 
-3.73207

>  <r_i_glide_ligand_efficiency>  (81) 
-0.373207

>  <r_i_glide_ligand_efficiency_sa>  (81) 
-0.804051

>  <r_i_glide_ligand_efficiency_ln>  (81) 
-1.13005

>  <r_i_glide_gscore>  (81) 
-3.73207

>  <r_i_glide_lipo>  (81) 
-0.391297

>  <r_i_glide_hbond>  (81) 
0

>  <r_i_glide_metal>  (81) 
-0

>  <r_i_glide_rewards>  (81) 
-2.33921

>  <r_i_glide_evdw>  (81) 
-17.9518

>  <r_i_glide_ecoul>  (81) 
-0.439588

>  <r_i_glide_erotb>  (81) 
0

>  <r_i_glide_esite>  (81) 
-0.0380374

>  <r_i_glide_emodel>  (81) 
-22.7532

>  <r_i_glide_energy>  (81) 
-18.3914

>  <r_i_glide_einternal>  (81) 
0

>  <r_i_glide_intrahb_reward>  (81) 
-0

>  <i_i_glide_confnum>  (81) 
1

>  <i_i_glide_posenum>  (81) 
4

>  <r_i_glide_eff_state_penalty>  (81) 
0

>  <ligand_id>  (81) 
28

>  <original_smiles>  (81) 
C1C2CC1c1nnnn1C2

>  <smiles>  (81) 
[H]C1([H])n2nnnc2C2([H])C([H])([H])C1([H])C2([H])[H]

$$$$
29:1:0
     RDKit          3D

 82 88  0  0  1  0  0  0  0  0999 V2000
    3.4427    1.0117   10.3891 C   0  0  0  0  0  0  0  0  0  0  0  0
    1.9754    0.8179   10.0649 C   0  0  0  0  0  0  0  0  0  0  0  0
    1.0172    1.5380    9.3832 C   0  0  0  0  0  0  0  0  0  0  0  0
   -0.4048    1.2096    9.7909 C   0  0  1  0  0  0  0  0  0  0  0  0
   -0.5175    0.4021   10.9551 O   0  0  0  0  0  0  0  0  0  0  0  0
   -1.0721    2.5624    9.9313 C   0  0  1  0  0  0  0  0  0  0  0  0
   -2.3684    2.3569   10.4781 O   0  0  0  0  0  0  0  0  0  0  0  0
   -0.2624    3.5190   11.0706 C   0  0  1  0  0  0  0  0  0  0  0  0
   -0.1879    2.8293   12.3051 O   0  0  0  0  0  0  0  0  0  0  0  0
    1.2147    4.3229   10.9641 C   0  0  0  0  0  0  0  0  0  0  0  0
    2.0294    5.1716    9.7279 C   0  0  1  0  0  0  0  0  0  0  0  0
    1.8916    6.6936   10.0010 C   0  0  0  0  0  0  0  0  0  0  0  0
    3.3853    4.9567   10.0654 O   0  0  0  0  0  0  0  0  0  0  0  0
    1.9807    4.8676    8.0503 C   0  0  2  0  0  0  0  0  0  0  0  0
    2.8639    5.7265    7.3603 O   0  0  0  0  0  0  0  0  0  0  0  0
    0.5467    5.1449    7.5811 C   0  0  0  0  0  0  0  0  0  0  0  0
   -0.1109    3.9883    8.3829 C   0  0  2  0  0  0  0  0  0  0  0  0
   -0.6475    5.1021    9.1239 O   0  0  0  0  0  0  0  0  0  0  0  0
    1.1052    2.8992    8.5254 C   0  0  2  0  0  0  0  0  0  0  0  0
    2.0893    3.3909    7.4460 C   0  0  2  0  0  0  0  0  0  0  0  0
    3.3411    2.5278    7.5894 C   0  0  0  0  0  0  0  0  0  0  0  0
    2.8453    1.2041    6.9137 C   0  0  0  0  0  0  0  0  0  0  0  0
    1.6006    1.5621    6.0133 C   0  0  1  0  0  0  0  0  0  0  0  0
    1.8406    0.8757    4.7946 O   0  0  0  0  0  0  0  0  0  0  0  0
    0.1201    1.1261    6.5003 C   0  0  1  0  0  0  0  0  0  0  0  0
    0.2220   -0.1378    7.1252 O   0  0  0  0  0  0  0  0  0  0  0  0
   -1.1236    2.0806    7.0088 C   0  0  2  0  0  0  0  0  0  0  0  0
   -2.1835    1.1578    7.1731 O   0  0  0  0  0  0  0  0  0  0  0  0
   -1.6195    2.7460    5.7256 C   0  0  1  0  0  0  0  0  0  0  0  0
   -1.4767    4.1439    5.5117 O   0  0  0  0  0  0  0  0  0  0  0  0
   -0.7086    3.3045    4.6623 C   0  0  2  0  0  0  0  0  0  0  0  0
   -1.2066    3.0387    3.2363 C   0  0  0  0  0  0  0  0  0  0  0  0
    0.7943    3.6537    4.7262 C   0  0  1  0  0  0  0  0  0  0  0  0
    1.0843    5.0462    4.5153 O   0  0  0  0  0  0  0  0  0  0  0  0
    1.0037    5.5597    3.1950 C   0  0  0  0  0  0  0  0  0  0  0  0
    1.8149    3.0747    5.8308 C   0  0  1  0  0  0  0  0  0  0  0  0
    3.1562    3.3873    5.0152 C   0  0  0  0  0  0  0  0  0  0  0  0
   -1.3110    3.0693    8.3508 C   0  0  1  0  0  0  0  0  0  0  0  0
   -2.7148    3.8317    8.2245 C   0  0  0  0  0  0  0  0  0  0  0  0
   -3.8324    2.9992    8.3384 O   0  0  0  0  0  0  0  0  0  0  0  0
    3.6583    0.4834   11.3213 H   0  0  0  0  0  0  0  0  0  0  0  0
    3.6906    2.0559   10.5859 H   0  0  0  0  0  0  0  0  0  0  0  0
    4.0804    0.5710    9.6201 H   0  0  0  0  0  0  0  0  0  0  0  0
    1.6677   -0.0783   10.5810 H   0  0  0  0  0  0  0  0  0  0  0  0
   -0.9106    0.5974    9.0687 H   0  0  0  0  0  0  0  0  0  0  0  0
   -1.2877    0.6161   11.4591 H   0  0  0  0  0  0  0  0  0  0  0  0
   -2.3558    2.1475   11.4199 H   0  0  0  0  0  0  0  0  0  0  0  0
   -0.9715    4.2943   11.3562 H   0  0  0  0  0  0  0  0  0  0  0  0
   -1.0528    2.6027   12.6347 H   0  0  0  0  0  0  0  0  0  0  0  0
    1.1819    5.0314   11.7922 H   0  0  0  0  0  0  0  0  0  0  0  0
    1.9371    3.5979   11.3463 H   0  0  0  0  0  0  0  0  0  0  0  0
    0.8799    7.0636    9.8469 H   0  0  0  0  0  0  0  0  0  0  0  0
    2.5563    7.2838    9.3664 H   0  0  0  0  0  0  0  0  0  0  0  0
    2.1669    6.9339   11.0299 H   0  0  0  0  0  0  0  0  0  0  0  0
    3.5967    4.0475    9.9092 H   0  0  0  0  0  0  0  0  0  0  0  0
    2.7243    5.6164    6.4269 H   0  0  0  0  0  0  0  0  0  0  0  0
    0.3308    6.2227    7.6980 H   0  0  0  0  0  0  0  0  0  0  0  0
    0.3474    5.0440    6.5563 H   0  0  0  0  0  0  0  0  0  0  0  0
   -1.0415    4.8173    9.9335 H   0  0  0  0  0  0  0  0  0  0  0  0
    1.8297    3.0008    9.2893 H   0  0  0  0  0  0  0  0  0  0  0  0
    4.2165    2.9504    7.1042 H   0  0  0  0  0  0  0  0  0  0  0  0
    3.7416    2.4554    8.5729 H   0  0  0  0  0  0  0  0  0  0  0  0
    3.6628    0.8143    6.3066 H   0  0  0  0  0  0  0  0  0  0  0  0
    2.6392    0.4000    7.6117 H   0  0  0  0  0  0  0  0  0  0  0  0
    1.2528    1.2077    4.1290 H   0  0  0  0  0  0  0  0  0  0  0  0
   -0.3152    0.7625    5.5692 H   0  0  0  0  0  0  0  0  0  0  0  0
    0.8645   -0.6320    6.6297 H   0  0  0  0  0  0  0  0  0  0  0  0
   -2.9552    1.6916    7.3881 H   0  0  0  0  0  0  0  0  0  0  0  0
   -2.5807    2.3854    5.3581 H   0  0  0  0  0  0  0  0  0  0  0  0
   -0.7534    2.1285    2.8443 H   0  0  0  0  0  0  0  0  0  0  0  0
   -0.9869    3.8398    2.5489 H   0  0  0  0  0  0  0  0  0  0  0  0
   -2.2882    2.8978    3.2163 H   0  0  0  0  0  0  0  0  0  0  0  0
    1.1039    3.1650    3.8069 H   0  0  0  0  0  0  0  0  0  0  0  0
    1.4503    6.5521    3.1753 H   0  0  0  0  0  0  0  0  0  0  0  0
   -0.0276    5.6845    2.8791 H   0  0  0  0  0  0  0  0  0  0  0  0
    1.5454    4.9429    2.4817 H   0  0  0  0  0  0  0  0  0  0  0  0
    3.0648    3.4705    3.9295 H   0  0  0  0  0  0  0  0  0  0  0  0
    3.9323    2.6261    5.0839 H   0  0  0  0  0  0  0  0  0  0  0  0
    3.5959    4.3356    5.3242 H   0  0  0  0  0  0  0  0  0  0  0  0
   -2.9265    4.5486    9.0245 H   0  0  0  0  0  0  0  0  0  0  0  0
   -2.8306    4.4019    7.3188 H   0  0  0  0  0  0  0  0  0  0  0  0
   -3.8610    2.7289    9.2592 H   0  0  0  0  0  0  0  0  0  0  0  0
  1  2  1  0
  1 41  1  0
  1 42  1  0
  1 43  1  0
  2  3  2  3
  2 44  1  0
  3 19  1  0
  3  4  1  0
  4  5  1  0
  4  6  1  0
  4 45  1  6
  5 46  1  0
  6 38  1  0
  6  7  1  1
  6  8  1  0
  7 47  1  0
  8  9  1  0
  8 10  1  0
  8 48  1  1
  9 49  1  0
 10 11  1  0
 10 50  1  0
 10 51  1  0
 11 12  1  0
 11 13  1  1
 11 14  1  0
 12 52  1  0
 12 53  1  0
 12 54  1  0
 13 55  1  0
 14 20  1  0
 14 15  1  6
 14 16  1  0
 15 56  1  0
 16 17  1  0
 16 57  1  0
 16 58  1  0
 17 38  1  0
 17 18  1  1
 17 19  1  0
 18 59  1  0
 19 20  1  0
 19 60  1  1
 20 36  1  0
 20 21  1  1
 21 22  1  0
 21 61  1  0
 21 62  1  0
 22 23  1  0
 22 63  1  0
 22 64  1  0
 23 36  1  0
 23 24  1  6
 23 25  1  0
 24 65  1  0
 25 26  1  0
 25 27  1  0
 25 66  1  6
 26 67  1  0
 27 28  1  1
 27 29  1  0
 27 38  1  0
 28 68  1  0
 29 31  1  0
 29 30  1  0
 29 69  1  6
 30 31  1  0
 31 32  1  6
 31 33  1  0
 32 70  1  0
 32 71  1  0
 32 72  1  0
 33 34  1  0
 33 36  1  0
 33 73  1  6
 34 35  1  0
 35 74  1  0
 35 75  1  0
 35 76  1  0
 36 37  1  6
 37 77  1  0
 37 78  1  0
 37 79  1  0
 38 39  1  1
 39 40  1  0
 39 80  1  0
 39 81  1  0
 40 82  1  0
M  END
>  <i_m_ct_stereo_status>  (82) 
1

>  <s_m_source_file>  (82) 
/var/tmp/pbs.5076255.sched01/tmpmalnbme9/37wob9dpop.sdf

>  <i_m_source_file_index>  (82) 
3

>  <i_lp_mmshare_version>  (82) 
48012

>  <i_f3d_flags>  (82) 
0

>  <s_epik_input>  (82) 
W09IXVtDQEBdMShbQ0BdMjM0KVtDQF0oW0NIM10pKFtPSF0pW0NIMl1bQ0BIXShbT0hdKVtDQF01KFtPSF0pW0NAQF0oW0NIMl1bT0hdKShbQ0BAXShbQ0gyXTEpKFtPSF0pW0NASF0yQyg9W0NIXVxbQ0gzXSlcW0NASF01W09IXSlbQ0BAXTYoW09IXSlbQ0BASF03W0NAXShPNykoW0NIM10pW0NAQEhdKE9bQ0gzXSlbQ0BdNChbQ0gzXSlbQ0BAXShbT0hdKShbQ0gyXVtDSDJdMylbQ0BIXTZbT0hd

>  <s_epik_cmdline>  (82) 
J2VwaWtfcHl0aG9uJywgJy1waHQnLCAnMi4wJywgJy1waCcsICc3LjAnLCAnLXRuJywgJzgnLCAnLW1hJywgJzIwMCcsICctaW1hZScsICc8aW5maWxlLm1hZT4nLCAnLW9tYWUnLCAnPG91dGZpbGUubWFlPic=

>  <r_lp_tautomer_probability>  (82) 
1

>  <r_epik_Ionization_Penalty>  (82) 
9.89046e-07

>  <r_epik_Ionization_Penalty_Charging>  (82) 
0

>  <r_epik_Ionization_Penalty_Neutral>  (82) 
9.89046e-07

>  <r_epik_State_Penalty>  (82) 
-0

>  <r_epik_Charging_Adjusted_Penalty>  (82) 
0

>  <i_epik_Tot_Q>  (82) 
0

>  <i_epik_Tot_abs_Q>  (82) 
0

>  <s_lp_Force_Field>  (82) 
OPLS3e

>  <r_lp_Energy>  (82) 
439.438

>  <b_lp_Chiralities_Consistent>  (82) 
1

>  <s_lp_Variant>  (82) 
29:0-2

>  <s_i_glide_gridfile>  (82) 
pfpi4k_grid

>  <i_i_glide_lignum>  (82) 
3

>  <i_i_glide_rotatable_bonds>  (82) 
12

>  <r_i_docking_score>  (82) 
-4.09694

>  <r_i_glide_ligand_efficiency>  (82) 
-0.102423

>  <r_i_glide_ligand_efficiency_sa>  (82) 
-0.350283

>  <r_i_glide_ligand_efficiency_ln>  (82) 
-0.873756

>  <r_i_glide_gscore>  (82) 
-4.09694

>  <r_i_glide_lipo>  (82) 
-0.132654

>  <r_i_glide_hbond>  (82) 
0

>  <r_i_glide_metal>  (82) 
-0

>  <r_i_glide_rewards>  (82) 
-1

>  <r_i_glide_evdw>  (82) 
-16.7494

>  <r_i_glide_ecoul>  (82) 
-14.6056

>  <r_i_glide_erotb>  (82) 
0.0640227

>  <r_i_glide_esite>  (82) 
0

>  <r_i_glide_emodel>  (82) 
-49.5078

>  <r_i_glide_energy>  (82) 
-31.355

>  <r_i_glide_einternal>  (82) 
3.2885

>  <r_i_glide_intrahb_reward>  (82) 
-1

>  <i_i_glide_confnum>  (82) 
1

>  <i_i_glide_posenum>  (82) 
30

>  <r_i_glide_eff_state_penalty>  (82) 
0

>  <ligand_id>  (82) 
29

>  <original_smiles>  (82) 
CC=C1C(O)C2(O)C(O)CC(C)(O)C3(O)CC4(O)C1C31CCC3(O)C(O)C(O)(C5OC5(C)C(OC)C31C)C42CO

>  <smiles>  (82) 
[H]OC([H])([H])C12C3(O[H])C([H])(O[H])C(=C([H])C([H])([H])[H])C4([H])C1(O[H])C([H])([H])C(O[H])(C(O[H])(C([H])([H])[H])C([H])([H])C3([H])O[H])C41C([H])([H])C([H])([H])C3(O[H])C([H])(O[H])C2(O[H])C2([H])OC2(C([H])([H])[H])C([H])(OC([H])([H])[H])C31C([H])([H])[H]

$$$$
29:1:1
     RDKit          3D

 82 88  0  0  1  0  0  0  0  0999 V2000
    3.3927    1.9632   11.1344 C   0  0  0  0  0  0  0  0  0  0  0  0
    1.9555    1.6145   10.7719 C   0  0  0  0  0  0  0  0  0  0  0  0
    0.9912    2.1780    9.9758 C   0  0  0  0  0  0  0  0  0  0  0  0
   -0.4256    1.7752   10.3472 C   0  0  1  0  0  0  0  0  0  0  0  0
   -0.5454    1.1407   11.6168 O   0  0  0  0  0  0  0  0  0  0  0  0
   -1.1887    3.0728   10.3048 C   0  0  1  0  0  0  0  0  0  0  0  0
   -2.5014    2.8126   10.7739 O   0  0  0  0  0  0  0  0  0  0  0  0
   -0.5139    4.2157   11.3702 C   0  0  1  0  0  0  0  0  0  0  0  0
   -0.4324    3.6950   12.6805 O   0  0  0  0  0  0  0  0  0  0  0  0
    0.8960    5.1273   11.2455 C   0  0  0  0  0  0  0  0  0  0  0  0
    1.6979    5.9050    9.9589 C   0  0  1  0  0  0  0  0  0  0  0  0
    1.4355    7.4303   10.0653 C   0  0  0  0  0  0  0  0  0  0  0  0
    3.0578    5.8377   10.3371 O   0  0  0  0  0  0  0  0  0  0  0  0
    1.7656    5.4183    8.3317 C   0  0  2  0  0  0  0  0  0  0  0  0
    2.6421    6.2678    7.6156 O   0  0  0  0  0  0  0  0  0  0  0  0
    0.3434    5.5291    7.7687 C   0  0  0  0  0  0  0  0  0  0  0  0
   -0.2644    4.4180    8.6673 C   0  0  2  0  0  0  0  0  0  0  0  0
   -0.9369    5.5511    9.2576 O   0  0  0  0  0  0  0  0  0  0  0  0
    1.0221    3.4495    8.9825 C   0  0  2  0  0  0  0  0  0  0  0  0
    2.0176    3.8971    7.8954 C   0  0  2  0  0  0  0  0  0  0  0  0
    3.3275    3.1620    8.1848 C   0  0  0  0  0  0  0  0  0  0  0  0
    2.9745    1.7372    7.6350 C   0  0  0  0  0  0  0  0  0  0  0  0
    1.7499    1.8976    6.6501 C   0  0  1  0  0  0  0  0  0  0  0  0
    2.0635    1.1117    5.5103 O   0  0  0  0  0  0  0  0  0  0  0  0
    0.2843    1.3965    7.1141 C   0  0  1  0  0  0  0  0  0  0  0  0
    0.4434    0.2146    7.8732 O   0  0  0  0  0  0  0  0  0  0  0  0
   -1.0434    2.2999    7.4549 C   0  0  2  0  0  0  0  0  0  0  0  0
   -2.0424    1.3268    7.6661 O   0  0  0  0  0  0  0  0  0  0  0  0
   -1.5431    2.7772    6.0915 C   0  0  1  0  0  0  0  0  0  0  0  0
   -1.5007    4.1467    5.7269 O   0  0  0  0  0  0  0  0  0  0  0  0
   -0.6166    3.2896    5.0088 C   0  0  2  0  0  0  0  0  0  0  0  0
   -1.0179    2.8400    3.6054 C   0  0  0  0  0  0  0  0  0  0  0  0
    0.8444    3.7681    5.1105 C   0  0  1  0  0  0  0  0  0  0  0  0
    1.0536    5.1503    4.7546 O   0  0  0  0  0  0  0  0  0  0  0  0
    0.8958    5.5312    3.3987 C   0  0  0  0  0  0  0  0  0  0  0  0
    1.8519    3.3934    6.3112 C   0  0  1  0  0  0  0  0  0  0  0  0
    3.2065    3.7277    5.5259 C   0  0  0  0  0  0  0  0  0  0  0  0
   -1.3773    3.3978    8.6712 C   0  0  1  0  0  0  0  0  0  0  0  0
   -2.8373    3.9987    8.4155 C   0  0  0  0  0  0  0  0  0  0  0  0
   -3.8728    3.0328    8.4746 O   0  0  0  0  0  0  0  0  0  0  0  0
    3.6047    1.5586   12.1279 H   0  0  0  0  0  0  0  0  0  0  0  0
    3.5484    3.0398   11.2234 H   0  0  0  0  0  0  0  0  0  0  0  0
    4.1040    1.5007   10.4474 H   0  0  0  0  0  0  0  0  0  0  0  0
    1.6913    0.7554   11.3687 H   0  0  0  0  0  0  0  0  0  0  0  0
   -0.8399    1.0393    9.6855 H   0  0  0  0  0  0  0  0  0  0  0  0
   -1.4545    1.0072   11.8629 H   0  0  0  0  0  0  0  0  0  0  0  0
   -2.5393    2.5454   11.7056 H   0  0  0  0  0  0  0  0  0  0  0  0
   -1.3058    4.9428   11.5400 H   0  0  0  0  0  0  0  0  0  0  0  0
   -1.2124    3.1965   12.8933 H   0  0  0  0  0  0  0  0  0  0  0  0
    0.7646    5.9093   11.9934 H   0  0  0  0  0  0  0  0  0  0  0  0
    1.6574    4.5133   11.7291 H   0  0  0  0  0  0  0  0  0  0  0  0
    0.4061    7.6942    9.8314 H   0  0  0  0  0  0  0  0  0  0  0  0
    2.0770    8.0104    9.3996 H   0  0  0  0  0  0  0  0  0  0  0  0
    1.6364    7.7981   11.0731 H   0  0  0  0  0  0  0  0  0  0  0  0
    3.5466    6.3011    9.6710 H   0  0  0  0  0  0  0  0  0  0  0  0
    2.5378    6.0814    6.6935 H   0  0  0  0  0  0  0  0  0  0  0  0
    0.0400    6.5928    7.7676 H   0  0  0  0  0  0  0  0  0  0  0  0
    0.2046    5.3077    6.7529 H   0  0  0  0  0  0  0  0  0  0  0  0
   -1.3349    5.3146   10.0787 H   0  0  0  0  0  0  0  0  0  0  0  0
    1.7013    3.6861    9.7594 H   0  0  0  0  0  0  0  0  0  0  0  0
    4.1916    3.6084    7.6980 H   0  0  0  0  0  0  0  0  0  0  0  0
    3.6758    3.2344    9.1909 H   0  0  0  0  0  0  0  0  0  0  0  0
    3.8545    1.3500    7.1177 H   0  0  0  0  0  0  0  0  0  0  0  0
    2.7882    1.0016    8.4108 H   0  0  0  0  0  0  0  0  0  0  0  0
    2.8754    1.4231    5.1407 H   0  0  0  0  0  0  0  0  0  0  0  0
   -0.0755    0.9067    6.2073 H   0  0  0  0  0  0  0  0  0  0  0  0
    1.1316   -0.2833    7.4555 H   0  0  0  0  0  0  0  0  0  0  0  0
   -2.8386    1.8194    7.8678 H   0  0  0  0  0  0  0  0  0  0  0  0
   -2.4591    2.3134    5.7246 H   0  0  0  0  0  0  0  0  0  0  0  0
   -0.4781    1.9297    3.3426 H   0  0  0  0  0  0  0  0  0  0  0  0
   -0.7980    3.5816    2.8484 H   0  0  0  0  0  0  0  0  0  0  0  0
   -2.0801    2.6199    3.5463 H   0  0  0  0  0  0  0  0  0  0  0  0
    1.2427    3.2100    4.2618 H   0  0  0  0  0  0  0  0  0  0  0  0
    1.2812    6.5412    3.2718 H   0  0  0  0  0  0  0  0  0  0  0  0
   -0.1524    5.5664    3.1086 H   0  0  0  0  0  0  0  0  0  0  0  0
    1.4499    4.8808    2.7195 H   0  0  0  0  0  0  0  0  0  0  0  0
    3.1633    3.6971    4.4337 H   0  0  0  0  0  0  0  0  0  0  0  0
    4.0426    3.0528    5.7110 H   0  0  0  0  0  0  0  0  0  0  0  0
    3.5516    4.7377    5.7491 H   0  0  0  0  0  0  0  0  0  0  0  0
   -3.1616    4.7114    9.1758 H   0  0  0  0  0  0  0  0  0  0  0  0
   -2.9190    4.5425    7.4911 H   0  0  0  0  0  0  0  0  0  0  0  0
   -3.9778    2.8331    9.3995 H   0  0  0  0  0  0  0  0  0  0  0  0
  1  2  1  0
  1 41  1  0
  1 42  1  0
  1 43  1  0
  2  3  2  3
  2 44  1  0
  3 19  1  0
  3  4  1  0
  4  5  1  0
  4  6  1  0
  4 45  1  6
  5 46  1  0
  6 38  1  0
  6  7  1  1
  6  8  1  0
  7 47  1  0
  8  9  1  0
  8 10  1  0
  8 48  1  1
  9 49  1  0
 10 11  1  0
 10 50  1  0
 10 51  1  0
 11 12  1  0
 11 13  1  1
 11 14  1  0
 12 52  1  0
 12 53  1  0
 12 54  1  0
 13 55  1  0
 14 20  1  0
 14 15  1  6
 14 16  1  0
 15 56  1  0
 16 17  1  0
 16 57  1  0
 16 58  1  0
 17 38  1  0
 17 18  1  1
 17 19  1  0
 18 59  1  0
 19 20  1  0
 19 60  1  1
 20 36  1  0
 20 21  1  1
 21 22  1  0
 21 61  1  0
 21 62  1  0
 22 23  1  0
 22 63  1  0
 22 64  1  0
 23 36  1  0
 23 24  1  6
 23 25  1  0
 24 65  1  0
 25 26  1  0
 25 27  1  0
 25 66  1  6
 26 67  1  0
 27 28  1  1
 27 29  1  0
 27 38  1  0
 28 68  1  0
 29 31  1  0
 29 30  1  0
 29 69  1  6
 30 31  1  0
 31 32  1  6
 31 33  1  0
 32 70  1  0
 32 71  1  0
 32 72  1  0
 33 34  1  0
 33 36  1  0
 33 73  1  6
 34 35  1  0
 35 74  1  0
 35 75  1  0
 35 76  1  0
 36 37  1  6
 37 77  1  0
 37 78  1  0
 37 79  1  0
 38 39  1  1
 39 40  1  0
 39 80  1  0
 39 81  1  0
 40 82  1  0
M  END
>  <i_m_ct_stereo_status>  (83) 
1

>  <s_m_source_file>  (83) 
/var/tmp/pbs.5076255.sched01/tmpmalnbme9/37wob9dpop.sdf

>  <i_m_source_file_index>  (83) 
3

>  <i_lp_mmshare_version>  (83) 
48012

>  <i_f3d_flags>  (83) 
0

>  <s_epik_input>  (83) 
W09IXVtDQEBdMShbQ0BdMjM0KVtDQF0oW0NIM10pKFtPSF0pW0NIMl1bQ0BIXShbT0hdKVtDQF01KFtPSF0pW0NAQF0oW0NIMl1bT0hdKShbQ0BAXShbQ0gyXTEpKFtPSF0pW0NASF0yQyg9W0NIXVxbQ0gzXSlcW0NASF01W09IXSlbQ0BAXTYoW09IXSlbQ0BASF03W0NAXShPNykoW0NIM10pW0NAQEhdKE9bQ0gzXSlbQ0BdNChbQ0gzXSlbQ0BAXShbT0hdKShbQ0gyXVtDSDJdMylbQ0BIXTZbT0hd

>  <s_epik_cmdline>  (83) 
J2VwaWtfcHl0aG9uJywgJy1waHQnLCAnMi4wJywgJy1waCcsICc3LjAnLCAnLXRuJywgJzgnLCAnLW1hJywgJzIwMCcsICctaW1hZScsICc8aW5maWxlLm1hZT4nLCAnLW9tYWUnLCAnPG91dGZpbGUubWFlPic=

>  <r_lp_tautomer_probability>  (83) 
1

>  <r_epik_Ionization_Penalty>  (83) 
9.89046e-07

>  <r_epik_Ionization_Penalty_Charging>  (83) 
0

>  <r_epik_Ionization_Penalty_Neutral>  (83) 
9.89046e-07

>  <r_epik_State_Penalty>  (83) 
-0

>  <r_epik_Charging_Adjusted_Penalty>  (83) 
0

>  <i_epik_Tot_Q>  (83) 
0

>  <i_epik_Tot_abs_Q>  (83) 
0

>  <s_lp_Force_Field>  (83) 
OPLS3e

>  <r_lp_Energy>  (83) 
439.438

>  <b_lp_Chiralities_Consistent>  (83) 
1

>  <s_lp_Variant>  (83) 
29:0-2

>  <s_i_glide_gridfile>  (83) 
pfpi4k_grid

>  <i_i_glide_lignum>  (83) 
3

>  <i_i_glide_rotatable_bonds>  (83) 
12

>  <r_i_docking_score>  (83) 
-4.00044

>  <r_i_glide_ligand_efficiency>  (83) 
-0.100011

>  <r_i_glide_ligand_efficiency_sa>  (83) 
-0.342033

>  <r_i_glide_ligand_efficiency_ln>  (83) 
-0.853177

>  <r_i_glide_gscore>  (83) 
-4.00044

>  <r_i_glide_lipo>  (83) 
-0.140933

>  <r_i_glide_hbond>  (83) 
0

>  <r_i_glide_metal>  (83) 
-0

>  <r_i_glide_rewards>  (83) 
-1

>  <r_i_glide_evdw>  (83) 
-15.7022

>  <r_i_glide_ecoul>  (83) 
-14.2562

>  <r_i_glide_erotb>  (83) 
0.0640227

>  <r_i_glide_esite>  (83) 
0

>  <r_i_glide_emodel>  (83) 
-48.3177

>  <r_i_glide_energy>  (83) 
-29.9583

>  <r_i_glide_einternal>  (83) 
2.14142

>  <r_i_glide_intrahb_reward>  (83) 
-1

>  <i_i_glide_confnum>  (83) 
1

>  <i_i_glide_posenum>  (83) 
20

>  <r_i_glide_eff_state_penalty>  (83) 
0

>  <ligand_id>  (83) 
29

>  <original_smiles>  (83) 
CC=C1C(O)C2(O)C(O)CC(C)(O)C3(O)CC4(O)C1C31CCC3(O)C(O)C(O)(C5OC5(C)C(OC)C31C)C42CO

>  <smiles>  (83) 
[H]OC([H])([H])C12C3(O[H])C([H])(O[H])C(=C([H])C([H])([H])[H])C4([H])C1(O[H])C([H])([H])C(O[H])(C(O[H])(C([H])([H])[H])C([H])([H])C3([H])O[H])C41C([H])([H])C([H])([H])C3(O[H])C([H])(O[H])C2(O[H])C2([H])OC2(C([H])([H])[H])C([H])(OC([H])([H])[H])C31C([H])([H])[H]

$$$$
29:1:2
     RDKit          3D

 82 88  0  0  1  0  0  0  0  0999 V2000
   -2.1568    4.5035    8.2487 C   0  0  0  0  0  0  0  0  0  0  0  0
   -0.9448    4.9407    7.4481 C   0  0  0  0  0  0  0  0  0  0  0  0
    0.1260    4.2843    6.8846 C   0  0  0  0  0  0  0  0  0  0  0  0
    1.3259    5.1729    6.6411 C   0  0  1  0  0  0  0  0  0  0  0  0
    1.2677    6.4726    7.2254 O   0  0  0  0  0  0  0  0  0  0  0  0
    2.4848    4.3448    7.1484 C   0  0  1  0  0  0  0  0  0  0  0  0
    3.5892    5.2336    7.1421 O   0  0  0  0  0  0  0  0  0  0  0  0
    2.2540    3.9377    8.7825 C   0  0  1  0  0  0  0  0  0  0  0  0
    2.0051    5.1163    9.5229 O   0  0  0  0  0  0  0  0  0  0  0  0
    1.2323    2.7959    9.4891 C   0  0  0  0  0  0  0  0  0  0  0  0
    0.7124    1.2258    9.0428 C   0  0  1  0  0  0  0  0  0  0  0  0
    1.4790    0.1836    9.8937 C   0  0  0  0  0  0  0  0  0  0  0  0
   -0.5861    1.1635    9.6030 O   0  0  0  0  0  0  0  0  0  0  0  0
    0.4545    0.6354    7.4637 C   0  0  2  0  0  0  0  0  0  0  0  0
   -0.0763   -0.6721    7.4856 O   0  0  0  0  0  0  0  0  0  0  0  0
    1.8130    0.5806    6.7587 C   0  0  0  0  0  0  0  0  0  0  0  0
    2.0375    2.1103    6.7838 C   0  0  2  0  0  0  0  0  0  0  0  0
    3.0577    1.7683    7.7488 O   0  0  0  0  0  0  0  0  0  0  0  0
    0.4997    2.7201    6.7750 C   0  0  2  0  0  0  0  0  0  0  0  0
   -0.3077    1.4883    6.3448 C   0  0  2  0  0  0  0  0  0  0  0  0
   -1.7796    1.8925    6.4613 C   0  0  0  0  0  0  0  0  0  0  0  0
   -1.9295    2.7708    5.1754 C   0  0  0  0  0  0  0  0  0  0  0  0
   -0.7657    2.3769    4.1863 C   0  0  1  0  0  0  0  0  0  0  0  0
   -1.3932    2.2047    2.9204 O   0  0  0  0  0  0  0  0  0  0  0  0
    0.4658    3.4140    3.9867 C   0  0  1  0  0  0  0  0  0  0  0  0
   -0.0638    4.7279    3.9691 O   0  0  0  0  0  0  0  0  0  0  0  0
    2.0420    3.2647    4.4649 C   0  0  2  0  0  0  0  0  0  0  0  0
    2.6453    4.4330    3.9266 O   0  0  0  0  0  0  0  0  0  0  0  0
    2.6206    2.2198    3.5065 C   0  0  1  0  0  0  0  0  0  0  0  0
    3.0085    0.9357    3.9454 O   0  0  0  0  0  0  0  0  0  0  0  0
    1.8762    0.9623    3.1076 C   0  0  2  0  0  0  0  0  0  0  0  0
    2.0608    0.5874    1.6320 C   0  0  0  0  0  0  0  0  0  0  0  0
    0.6701    0.2719    3.7671 C   0  0  1  0  0  0  0  0  0  0  0  0
    0.9173   -1.0623    4.2621 O   0  0  0  0  0  0  0  0  0  0  0  0
    1.4577   -2.0286    3.3843 C   0  0  0  0  0  0  0  0  0  0  0  0
   -0.3717    1.0056    4.7511 C   0  0  1  0  0  0  0  0  0  0  0  0
   -1.5418   -0.0615    4.5926 C   0  0  0  0  0  0  0  0  0  0  0  0
    2.7442    3.1659    5.9807 C   0  0  1  0  0  0  0  0  0  0  0  0
    4.3278    2.9932    5.8366 C   0  0  0  0  0  0  0  0  0  0  0  0
    4.8698    1.7238    5.5011 O   0  0  0  0  0  0  0  0  0  0  0  0
   -2.4760    5.3488    8.8685 H   0  0  0  0  0  0  0  0  0  0  0  0
   -1.9330    3.6912    8.9412 H   0  0  0  0  0  0  0  0  0  0  0  0
   -2.9859    4.2605    7.5832 H   0  0  0  0  0  0  0  0  0  0  0  0
   -0.9654    6.0130    7.3990 H   0  0  0  0  0  0  0  0  0  0  0  0
    1.4375    5.4518    5.6135 H   0  0  0  0  0  0  0  0  0  0  0  0
    1.5482    6.3962    8.1327 H   0  0  0  0  0  0  0  0  0  0  0  0
    3.6254    5.6322    6.2817 H   0  0  0  0  0  0  0  0  0  0  0  0
    3.2504    3.6818    9.1489 H   0  0  0  0  0  0  0  0  0  0  0  0
    1.0661    5.2688    9.5481 H   0  0  0  0  0  0  0  0  0  0  0  0
    1.6492    2.6642   10.4821 H   0  0  0  0  0  0  0  0  0  0  0  0
    0.3219    3.3537    9.7079 H   0  0  0  0  0  0  0  0  0  0  0  0
    2.5305    0.1081    9.6152 H   0  0  0  0  0  0  0  0  0  0  0  0
    1.0437   -0.8128    9.8018 H   0  0  0  0  0  0  0  0  0  0  0  0
    1.4509    0.4425   10.9513 H   0  0  0  0  0  0  0  0  0  0  0  0
   -0.5358    1.3476   10.5341 H   0  0  0  0  0  0  0  0  0  0  0  0
    0.5894   -1.2267    7.8727 H   0  0  0  0  0  0  0  0  0  0  0  0
    2.4704   -0.1651    7.2438 H   0  0  0  0  0  0  0  0  0  0  0  0
    1.8164    0.2097    5.7845 H   0  0  0  0  0  0  0  0  0  0  0  0
    3.4748    2.5633    8.0946 H   0  0  0  0  0  0  0  0  0  0  0  0
   -0.0392    2.8176    7.6806 H   0  0  0  0  0  0  0  0  0  0  0  0
   -2.4618    1.0487    6.4921 H   0  0  0  0  0  0  0  0  0  0  0  0
   -2.0577    2.3178    7.4050 H   0  0  0  0  0  0  0  0  0  0  0  0
   -2.8923    2.5420    4.7198 H   0  0  0  0  0  0  0  0  0  0  0  0
   -1.9783    3.8408    5.3646 H   0  0  0  0  0  0  0  0  0  0  0  0
   -0.7782    2.4436    2.2423 H   0  0  0  0  0  0  0  0  0  0  0  0
    0.6160    3.3467    2.9109 H   0  0  0  0  0  0  0  0  0  0  0  0
    0.1289    5.1109    3.1181 H   0  0  0  0  0  0  0  0  0  0  0  0
    2.3719    4.5252    3.0209 H   0  0  0  0  0  0  0  0  0  0  0  0
    3.3014    2.6280    2.7603 H   0  0  0  0  0  0  0  0  0  0  0  0
    1.2328    0.9828    1.0392 H   0  0  0  0  0  0  0  0  0  0  0  0
    2.0904   -0.4827    1.4656 H   0  0  0  0  0  0  0  0  0  0  0  0
    2.9907    0.9984    1.2512 H   0  0  0  0  0  0  0  0  0  0  0  0
    0.1066    0.0877    2.8529 H   0  0  0  0  0  0  0  0  0  0  0  0
    1.4204   -3.0033    3.8714 H   0  0  0  0  0  0  0  0  0  0  0  0
    2.5044   -1.8134    3.1692 H   0  0  0  0  0  0  0  0  0  0  0  0
    0.8910   -2.1046    2.4537 H   0  0  0  0  0  0  0  0  0  0  0  0
   -1.5370   -0.6428    3.6734 H   0  0  0  0  0  0  0  0  0  0  0  0
   -2.5416    0.3712    4.5445 H   0  0  0  0  0  0  0  0  0  0  0  0
   -1.5012   -0.7964    5.3985 H   0  0  0  0  0  0  0  0  0  0  0  0
    4.6944    3.7232    5.1225 H   0  0  0  0  0  0  0  0  0  0  0  0
    4.8412    3.2188    6.7733 H   0  0  0  0  0  0  0  0  0  0  0  0
    4.4346    1.4148    4.7117 H   0  0  0  0  0  0  0  0  0  0  0  0
  1  2  1  0
  1 41  1  0
  1 42  1  0
  1 43  1  0
  2  3  2  3
  2 44  1  0
  3 19  1  0
  3  4  1  0
  4  5  1  0
  4  6  1  0
  4 45  1  6
  5 46  1  0
  6 38  1  0
  6  7  1  1
  6  8  1  0
  7 47  1  0
  8  9  1  0
  8 10  1  0
  8 48  1  1
  9 49  1  0
 10 11  1  0
 10 50  1  0
 10 51  1  0
 11 12  1  0
 11 13  1  1
 11 14  1  0
 12 52  1  0
 12 53  1  0
 12 54  1  0
 13 55  1  0
 14 20  1  0
 14 15  1  1
 14 16  1  0
 15 56  1  0
 16 17  1  0
 16 57  1  0
 16 58  1  0
 17 38  1  0
 17 18  1  1
 17 19  1  0
 18 59  1  0
 19 20  1  0
 19 60  1  1
 20 36  1  0
 20 21  1  1
 21 22  1  0
 21 61  1  0
 21 62  1  0
 22 23  1  0
 22 63  1  0
 22 64  1  0
 23 36  1  0
 23 24  1  6
 23 25  1  0
 24 65  1  0
 25 26  1  0
 25 27  1  0
 25 66  1  6
 26 67  1  0
 27 28  1  6
 27 29  1  0
 27 38  1  0
 28 68  1  0
 29 31  1  0
 29 30  1  0
 29 69  1  6
 30 31  1  0
 31 32  1  6
 31 33  1  0
 32 70  1  0
 32 71  1  0
 32 72  1  0
 33 34  1  0
 33 36  1  0
 33 73  1  6
 34 35  1  0
 35 74  1  0
 35 75  1  0
 35 76  1  0
 36 37  1  1
 37 77  1  0
 37 78  1  0
 37 79  1  0
 38 39  1  6
 39 40  1  0
 39 80  1  0
 39 81  1  0
 40 82  1  0
M  END
>  <i_m_ct_stereo_status>  (84) 
1

>  <s_m_source_file>  (84) 
/var/tmp/pbs.5076255.sched01/tmpmalnbme9/37wob9dpop.sdf

>  <i_m_source_file_index>  (84) 
3

>  <i_lp_mmshare_version>  (84) 
48012

>  <i_f3d_flags>  (84) 
0

>  <s_epik_input>  (84) 
W09IXVtDQEBdMShbQ0BdMjM0KVtDQF0oW0NIM10pKFtPSF0pW0NIMl1bQ0BIXShbT0hdKVtDQF01KFtPSF0pW0NAQF0oW0NIMl1bT0hdKShbQ0BAXShbQ0gyXTEpKFtPSF0pW0NASF0yQyg9W0NIXVxbQ0gzXSlcW0NASF01W09IXSlbQ0BAXTYoW09IXSlbQ0BASF03W0NAXShPNykoW0NIM10pW0NAQEhdKE9bQ0gzXSlbQ0BdNChbQ0gzXSlbQ0BAXShbT0hdKShbQ0gyXVtDSDJdMylbQ0BIXTZbT0hd

>  <s_epik_cmdline>  (84) 
J2VwaWtfcHl0aG9uJywgJy1waHQnLCAnMi4wJywgJy1waCcsICc3LjAnLCAnLXRuJywgJzgnLCAnLW1hJywgJzIwMCcsICctaW1hZScsICc8aW5maWxlLm1hZT4nLCAnLW9tYWUnLCAnPG91dGZpbGUubWFlPic=

>  <r_lp_tautomer_probability>  (84) 
1

>  <r_epik_Ionization_Penalty>  (84) 
9.89046e-07

>  <r_epik_Ionization_Penalty_Charging>  (84) 
0

>  <r_epik_Ionization_Penalty_Neutral>  (84) 
9.89046e-07

>  <r_epik_State_Penalty>  (84) 
-0

>  <r_epik_Charging_Adjusted_Penalty>  (84) 
0

>  <i_epik_Tot_Q>  (84) 
0

>  <i_epik_Tot_abs_Q>  (84) 
0

>  <s_lp_Force_Field>  (84) 
OPLS3e

>  <r_lp_Energy>  (84) 
439.438

>  <b_lp_Chiralities_Consistent>  (84) 
1

>  <s_lp_Variant>  (84) 
29:0-2

>  <s_i_glide_gridfile>  (84) 
pfpi4k_grid

>  <i_i_glide_lignum>  (84) 
3

>  <i_i_glide_rotatable_bonds>  (84) 
12

>  <r_i_docking_score>  (84) 
-2.84757

>  <r_i_glide_ligand_efficiency>  (84) 
-0.0711892

>  <r_i_glide_ligand_efficiency_sa>  (84) 
-0.243464

>  <r_i_glide_ligand_efficiency_ln>  (84) 
-0.607302

>  <r_i_glide_gscore>  (84) 
-2.84757

>  <r_i_glide_lipo>  (84) 
-0.0434078

>  <r_i_glide_hbond>  (84) 
0

>  <r_i_glide_metal>  (84) 
-0

>  <r_i_glide_rewards>  (84) 
-0.5

>  <r_i_glide_evdw>  (84) 
-22.1262

>  <r_i_glide_ecoul>  (84) 
-8.41249

>  <r_i_glide_erotb>  (84) 
0.0640227

>  <r_i_glide_esite>  (84) 
0

>  <r_i_glide_emodel>  (84) 
-40.9833

>  <r_i_glide_energy>  (84) 
-30.5387

>  <r_i_glide_einternal>  (84) 
2.42092

>  <r_i_glide_intrahb_reward>  (84) 
-0.5

>  <i_i_glide_confnum>  (84) 
5

>  <i_i_glide_posenum>  (84) 
19

>  <r_i_glide_eff_state_penalty>  (84) 
0

>  <ligand_id>  (84) 
29

>  <original_smiles>  (84) 
CC=C1C(O)C2(O)C(O)CC(C)(O)C3(O)CC4(O)C1C31CCC3(O)C(O)C(O)(C5OC5(C)C(OC)C31C)C42CO

>  <smiles>  (84) 
[H]OC([H])([H])C12C3(O[H])C([H])(O[H])C(=C([H])C([H])([H])[H])C4([H])C1(O[H])C([H])([H])C(O[H])(C(O[H])(C([H])([H])[H])C([H])([H])C3([H])O[H])C41C([H])([H])C([H])([H])C3(O[H])C([H])(O[H])C2(O[H])C2([H])OC2(C([H])([H])[H])C([H])(OC([H])([H])[H])C31C([H])([H])[H]

$$$$
30:0:0
     RDKit          3D

 74 81  0  0  1  0  0  0  0  0999 V2000
    0.0984    5.1988    4.6104 C   0  0  0  0  0  0  0  0  0  0  0  0
   -0.3645    3.8542    4.0065 C   0  0  2  0  0  0  0  0  0  0  0  0
   -1.8023    3.4427    4.4849 C   0  0  0  0  0  0  0  0  0  0  0  0
   -2.0074    2.7691    5.8884 C   0  0  0  0  0  0  0  0  0  0  0  0
   -1.3240    1.3871    6.1259 C   0  0  1  0  0  0  0  0  0  0  0  0
   -0.6170    0.9710    4.8566 C   0  0  0  0  0  0  0  0  0  0  0  0
   -1.2060    0.3469    3.9692 O   0  0  0  0  0  0  0  0  0  0  0  0
    0.8292    1.4777    4.8286 C   0  0  1  0  0  0  0  0  0  0  0  0
    0.8379    2.2066    6.2329 C   0  0  0  0  0  0  0  0  0  0  0  0
   -0.1192    1.4265    7.1029 C   0  0  2  0  0  0  0  0  0  0  0  0
    0.5897    0.1216    7.3548 C   0  0  1  0  0  0  0  0  0  0  0  0
    0.0914   -0.9577    8.1944 O   0  0  0  0  0  0  0  0  0  0  0  0
    0.0484   -1.1813    6.7629 C   0  0  2  0  0  0  0  0  0  0  0  0
    1.0016   -2.0314    6.0304 C   0  0  0  0  0  0  0  0  0  0  0  0
    1.4430   -1.3405    4.6804 C   0  0  2  0  0  0  0  0  0  0  0  0
    2.3312   -2.3128    3.7542 C   0  0  2  0  0  0  0  0  0  0  0  0
    1.5577   -3.6271    3.4833 C   0  0  0  0  0  0  0  0  0  0  0  0
    3.6012   -2.7123    4.5685 C   0  0  0  0  0  0  0  0  0  0  0  0
    4.6917   -1.6366    4.5059 C   0  0  0  0  0  0  0  0  0  0  0  0
    4.3584   -0.5845    3.4250 C   0  0  1  0  0  0  0  0  0  0  0  0
    4.2335   -1.4020    2.1049 C   0  0  0  0  0  0  0  0  0  0  0  0
    4.6889   -0.5274    0.8916 C   0  0  0  0  0  0  0  0  0  0  0  0
    5.0441   -2.7114    1.8567 C   0  0  0  0  0  0  0  0  0  0  0  0
    2.7149   -1.6770    2.2944 C   0  0  2  0  0  0  0  0  0  0  0  0
    2.2237   -0.2369    2.2475 C   0  0  1  0  0  0  0  0  0  0  0  0
    0.8252   -0.3151    2.0752 O   0  0  0  0  0  0  0  0  0  0  0  0
    2.9621    0.2827    3.5268 C   0  0  2  0  0  0  0  0  0  0  0  0
    3.4175    1.6061    3.3733 O   0  0  0  0  0  0  0  0  0  0  0  0
    1.9832    0.2047    4.7967 C   0  0  1  0  0  0  0  0  0  0  0  0
    2.7786    0.2184    6.1765 C   0  0  1  0  0  0  0  0  0  0  0  0
    3.9685    1.2076    6.3173 C   0  0  0  0  0  0  0  0  0  0  0  0
    2.0315    0.2100    7.4097 O   0  0  0  0  0  0  0  0  0  0  0  0
    0.8002    2.7583    3.8512 C   0  0  1  0  0  0  0  0  0  0  0  0
    0.7554    2.4332    2.4806 O   0  0  0  0  0  0  0  0  0  0  0  0
    0.1469    5.2035    5.6971 H   0  0  0  0  0  0  0  0  0  0  0  0
   -0.5814    6.0006    4.3254 H   0  0  0  0  0  0  0  0  0  0  0  0
    1.0757    5.4889    4.2250 H   0  0  0  0  0  0  0  0  0  0  0  0
   -0.5746    4.1851    2.9880 H   0  0  0  0  0  0  0  0  0  0  0  0
   -2.4076    4.3492    4.4902 H   0  0  0  0  0  0  0  0  0  0  0  0
   -2.2783    2.8351    3.7102 H   0  0  0  0  0  0  0  0  0  0  0  0
   -1.7417    3.4725    6.6783 H   0  0  0  0  0  0  0  0  0  0  0  0
   -3.0820    2.6179    6.0076 H   0  0  0  0  0  0  0  0  0  0  0  0
   -2.0653    0.6497    6.4206 H   0  0  0  0  0  0  0  0  0  0  0  0
    1.7833    2.4044    6.7150 H   0  0  0  0  0  0  0  0  0  0  0  0
    0.4704    3.2159    6.2099 H   0  0  0  0  0  0  0  0  0  0  0  0
   -0.3479    1.9408    8.0371 H   0  0  0  0  0  0  0  0  0  0  0  0
   -0.9774   -1.2371    6.4208 H   0  0  0  0  0  0  0  0  0  0  0  0
    1.8051   -2.2924    6.7125 H   0  0  0  0  0  0  0  0  0  0  0  0
    0.4730   -2.9649    5.8337 H   0  0  0  0  0  0  0  0  0  0  0  0
    0.4987   -1.3322    4.1592 H   0  0  0  0  0  0  0  0  0  0  0  0
    2.0667   -4.2531    2.7490 H   0  0  0  0  0  0  0  0  0  0  0  0
    0.5583   -3.4202    3.1098 H   0  0  0  0  0  0  0  0  0  0  0  0
    1.4518   -4.2397    4.3801 H   0  0  0  0  0  0  0  0  0  0  0  0
    3.4054   -2.9579    5.6059 H   0  0  0  0  0  0  0  0  0  0  0  0
    4.0030   -3.6594    4.2205 H   0  0  0  0  0  0  0  0  0  0  0  0
    4.9536   -1.2120    5.4685 H   0  0  0  0  0  0  0  0  0  0  0  0
    5.6338   -2.1273    4.2672 H   0  0  0  0  0  0  0  0  0  0  0  0
    5.2240    0.0767    3.3636 H   0  0  0  0  0  0  0  0  0  0  0  0
    4.1700   -0.8101   -0.0260 H   0  0  0  0  0  0  0  0  0  0  0  0
    5.7594   -0.6345    0.7028 H   0  0  0  0  0  0  0  0  0  0  0  0
    4.5509    0.5436    1.0345 H   0  0  0  0  0  0  0  0  0  0  0  0
    5.0603   -2.9502    0.7937 H   0  0  0  0  0  0  0  0  0  0  0  0
    4.6195   -3.6035    2.2992 H   0  0  0  0  0  0  0  0  0  0  0  0
    6.0872   -2.6259    2.1610 H   0  0  0  0  0  0  0  0  0  0  0  0
    2.3186   -2.2565    1.4600 H   0  0  0  0  0  0  0  0  0  0  0  0
    2.4975    0.3255    1.3597 H   0  0  0  0  0  0  0  0  0  0  0  0
    0.6562   -0.3151    1.1428 H   0  0  0  0  0  0  0  0  0  0  0  0
    3.9484    1.6975    2.5994 H   0  0  0  0  0  0  0  0  0  0  0  0
    3.2311   -0.7453    6.3212 H   0  0  0  0  0  0  0  0  0  0  0  0
    4.7776    0.9675    5.6373 H   0  0  0  0  0  0  0  0  0  0  0  0
    4.3869    1.1687    7.3220 H   0  0  0  0  0  0  0  0  0  0  0  0
    3.7188    2.2412    6.0956 H   0  0  0  0  0  0  0  0  0  0  0  0
    1.7341    3.3041    3.9894 H   0  0  0  0  0  0  0  0  0  0  0  0
    0.6135    3.2050    1.9306 H   0  0  0  0  0  0  0  0  0  0  0  0
  1  2  1  0
  1 35  1  0
  1 36  1  0
  1 37  1  0
  2 33  1  0
  2  3  1  0
  2 38  1  6
  3  4  1  0
  3 39  1  0
  3 40  1  0
  4  5  1  0
  4 41  1  0
  4 42  1  0
  5 10  1  0
  5  6  1  0
  5 43  1  1
  6  7  2  0
  6  8  1  0
 29  8  1  1
  8  9  1  1
  8 33  1  0
  9 10  1  0
  9 44  1  0
  9 45  1  0
 10 11  1  0
 10 46  1  1
 11 13  1  0
 11 32  1  0
 11 12  1  1
 12 13  1  0
 13 14  1  0
 13 47  1  6
 14 15  1  0
 14 48  1  0
 14 49  1  0
 15 29  1  0
 15 16  1  0
 15 50  1  6
 16 24  1  0
 16 17  1  6
 16 18  1  0
 17 51  1  0
 17 52  1  0
 17 53  1  0
 18 19  1  0
 18 54  1  0
 18 55  1  0
 19 20  1  0
 19 56  1  0
 19 57  1  0
 20 27  1  0
 20 21  1  0
 20 58  1  6
 21 22  1  0
 21 23  1  0
 21 24  1  0
 22 59  1  0
 22 60  1  0
 22 61  1  0
 23 62  1  0
 23 63  1  0
 23 64  1  0
 24 25  1  0
 24 65  1  6
 25 26  1  0
 25 27  1  0
 25 66  1  6
 26 67  1  0
 27 28  1  6
 27 29  1  0
 28 68  1  0
 29 30  1  0
 30 31  1  0
 30 32  1  0
 30 69  1  1
 31 70  1  0
 31 71  1  0
 31 72  1  0
 33 34  1  0
 33 73  1  6
 34 74  1  0
M  END
>  <i_m_ct_stereo_status>  (85) 
1

>  <s_m_source_file>  (85) 
/var/tmp/pbs.5076255.sched01/tmpmalnbme9/37wob9dpop.sdf

>  <i_m_source_file_index>  (85) 
4

>  <i_lp_mmshare_version>  (85) 
48012

>  <i_f3d_flags>  (85) 
0

>  <s_epik_input>  (85) 
W09IXVtDQEhdMVtDQEhdKFtDSDNdKVtDSDJdW0NIMl1bQ0BASF0oQzI9TylbQ0BIXShbQ0gyXTMpW0NAXShPNCkoT1tDQEBIXTVbQ0gzXSlbQ0BIXTRbQ0gyXVtDQEBIXShbQ0BAXTU2W0NAQF0xMjMpW0NAQF03KFtDSDNdKVtDQEBIXThDKFtDSDNdKShbQ0gzXSlbQ0BIXShbQ0gyXVtDSDJdNylbQ0BAXTYoW09IXSlbQ0BASF04W09IXQ==

>  <s_epik_cmdline>  (85) 
J2VwaWtfcHl0aG9uJywgJy1waHQnLCAnMi4wJywgJy1waCcsICc3LjAnLCAnLXRuJywgJzgnLCAnLW1hJywgJzIwMCcsICctaW1hZScsICc8aW5maWxlLm1hZT4nLCAnLW9tYWUnLCAnPG91dGZpbGUubWFlPic=

>  <r_lp_tautomer_probability>  (85) 
1

>  <r_epik_Ionization_Penalty>  (85) 
7.62044e-07

>  <r_epik_Ionization_Penalty_Charging>  (85) 
0

>  <r_epik_Ionization_Penalty_Neutral>  (85) 
7.62044e-07

>  <r_epik_State_Penalty>  (85) 
-0

>  <r_epik_Charging_Adjusted_Penalty>  (85) 
0

>  <i_epik_Tot_Q>  (85) 
0

>  <i_epik_Tot_abs_Q>  (85) 
0

>  <s_lp_Force_Field>  (85) 
OPLS3e

>  <r_lp_Energy>  (85) 
207.013

>  <b_lp_Chiralities_Consistent>  (85) 
1

>  <s_lp_Variant>  (85) 
30:0-1

>  <s_i_glide_gridfile>  (85) 
pfpi4k_grid

>  <i_i_glide_lignum>  (85) 
4

>  <i_i_glide_rotatable_bonds>  (85) 
3

>  <r_i_docking_score>  (85) 
-2.71521

>  <r_i_glide_ligand_efficiency>  (85) 
-0.0798592

>  <r_i_glide_ligand_efficiency_sa>  (85) 
-0.258713

>  <r_i_glide_ligand_efficiency_ln>  (85) 
-0.599867

>  <r_i_glide_gscore>  (85) 
-2.71521

>  <r_i_glide_lipo>  (85) 
-0.344929

>  <r_i_glide_hbond>  (85) 
-0.0293213

>  <r_i_glide_metal>  (85) 
-0

>  <r_i_glide_rewards>  (85) 
-0.186725

>  <r_i_glide_evdw>  (85) 
-25.0431

>  <r_i_glide_ecoul>  (85) 
-5.79018

>  <r_i_glide_erotb>  (85) 
0

>  <r_i_glide_esite>  (85) 
-0.0335535

>  <r_i_glide_emodel>  (85) 
-36.0366

>  <r_i_glide_energy>  (85) 
-30.8333

>  <r_i_glide_einternal>  (85) 
1.23786

>  <r_i_glide_intrahb_reward>  (85) 
-0

>  <i_i_glide_confnum>  (85) 
1

>  <i_i_glide_posenum>  (85) 
21

>  <r_i_glide_eff_state_penalty>  (85) 
0

>  <ligand_id>  (85) 
30

>  <original_smiles>  (85) 
CC1CCC2C(=O)C3(CC2C24OC2CC2C5(C)CCC6C(C)(C)C5C(O)C6(O)C23C(C)O4)C1O

>  <smiles>  (85) 
[H]OC1([H])C2([H])C(C([H])([H])[H])(C([H])([H])[H])C3([H])C([H])([H])C([H])([H])C2(C([H])([H])[H])C2([H])C([H])([H])C4([H])OC45OC([H])(C([H])([H])[H])C2(C13O[H])C12C(=O)C([H])(C([H])([H])C([H])([H])C([H])(C([H])([H])[H])C1([H])O[H])C5([H])C2([H])[H]

$$$$
30:0:1
     RDKit          3D

 74 81  0  0  1  0  0  0  0  0999 V2000
    3.0966  -10.1519    2.4559 C   0  0  0  0  0  0  0  0  0  0  0  0
    4.3100   -9.2407    2.1463 C   0  0  2  0  0  0  0  0  0  0  0  0
    5.5196   -9.5313    3.1030 C   0  0  0  0  0  0  0  0  0  0  0  0
    5.5394   -8.9368    4.5511 C   0  0  0  0  0  0  0  0  0  0  0  0
    5.5451   -7.3798    4.6891 C   0  0  1  0  0  0  0  0  0  0  0  0
    5.5957   -6.7642    3.2987 C   0  0  0  0  0  0  0  0  0  0  0  0
    6.6328   -6.6019    2.6938 O   0  0  0  0  0  0  0  0  0  0  0  0
    4.1596   -6.5384    2.7702 C   0  0  1  0  0  0  0  0  0  0  0  0
    3.3546   -7.0832    4.0037 C   0  0  0  0  0  0  0  0  0  0  0  0
    4.2142   -6.7877    5.2102 C   0  0  2  0  0  0  0  0  0  0  0  0
    4.1693   -5.2675    5.3693 C   0  0  1  0  0  0  0  0  0  0  0  0
    4.8022   -4.5210    6.4201 O   0  0  0  0  0  0  0  0  0  0  0  0
    5.3952   -4.4375    5.1211 C   0  0  2  0  0  0  0  0  0  0  0  0
    5.2351   -3.2882    4.1766 C   0  0  0  0  0  0  0  0  0  0  0  0
    5.0230   -3.7891    2.6898 C   0  0  2  0  0  0  0  0  0  0  0  0
    5.0614   -2.5847    1.6091 C   0  0  2  0  0  0  0  0  0  0  0  0
    6.3676   -1.8012    1.6571 C   0  0  0  0  0  0  0  0  0  0  0  0
    3.9380   -1.5734    2.0120 C   0  0  0  0  0  0  0  0  0  0  0  0
    2.5749   -2.0134    1.4941 C   0  0  0  0  0  0  0  0  0  0  0  0
    2.7436   -3.1579    0.4799 C   0  0  1  0  0  0  0  0  0  0  0  0
    3.6703   -2.6015   -0.6366 C   0  0  0  0  0  0  0  0  0  0  0  0
    3.2570   -3.2391   -2.0013 C   0  0  0  0  0  0  0  0  0  0  0  0
    3.7503   -1.0979   -1.0103 C   0  0  0  0  0  0  0  0  0  0  0  0
    4.9497   -3.0871    0.0665 C   0  0  2  0  0  0  0  0  0  0  0  0
    4.6747   -4.5832    0.0436 C   0  0  1  0  0  0  0  0  0  0  0  0
    5.8695   -5.2423    0.3666 O   0  0  0  0  0  0  0  0  0  0  0  0
    3.3947   -4.5906    0.9441 C   0  0  2  0  0  0  0  0  0  0  0  0
    2.4502   -5.5237    0.4592 O   0  0  0  0  0  0  0  0  0  0  0  0
    3.8243   -4.8943    2.4775 C   0  0  1  0  0  0  0  0  0  0  0  0
    2.7347   -4.4317    3.5482 C   0  0  1  0  0  0  0  0  0  0  0  0
    1.2784   -4.7564    3.2265 C   0  0  0  0  0  0  0  0  0  0  0  0
    2.9361   -4.6941    4.9422 O   0  0  0  0  0  0  0  0  0  0  0  0
    3.9373   -7.7344    1.7248 C   0  0  1  0  0  0  0  0  0  0  0  0
    4.6161   -7.5632    0.4944 O   0  0  0  0  0  0  0  0  0  0  0  0
    2.6878  -10.0601    3.4585 H   0  0  0  0  0  0  0  0  0  0  0  0
    3.3861  -11.1985    2.3550 H   0  0  0  0  0  0  0  0  0  0  0  0
    2.2923   -9.9932    1.7360 H   0  0  0  0  0  0  0  0  0  0  0  0
    4.6511   -9.7157    1.2237 H   0  0  0  0  0  0  0  0  0  0  0  0
    5.5863  -10.6122    3.2106 H   0  0  0  0  0  0  0  0  0  0  0  0
    6.4475   -9.2729    2.5885 H   0  0  0  0  0  0  0  0  0  0  0  0
    4.7293   -9.3703    5.1395 H   0  0  0  0  0  0  0  0  0  0  0  0
    6.4470   -9.3019    5.0299 H   0  0  0  0  0  0  0  0  0  0  0  0
    6.3953   -7.0554    5.2866 H   0  0  0  0  0  0  0  0  0  0  0  0
    2.3332   -6.7856    4.1451 H   0  0  0  0  0  0  0  0  0  0  0  0
    3.1887   -8.1431    3.9955 H   0  0  0  0  0  0  0  0  0  0  0  0
    3.8439   -7.2829    6.1116 H   0  0  0  0  0  0  0  0  0  0  0  0
    6.3898   -4.8758    5.1225 H   0  0  0  0  0  0  0  0  0  0  0  0
    4.4581   -2.6423    4.5755 H   0  0  0  0  0  0  0  0  0  0  0  0
    6.1405   -2.7023    4.2541 H   0  0  0  0  0  0  0  0  0  0  0  0
    5.9722   -4.2764    2.5100 H   0  0  0  0  0  0  0  0  0  0  0  0
    6.4413   -1.0348    0.8784 H   0  0  0  0  0  0  0  0  0  0  0  0
    7.1857   -2.5086    1.5574 H   0  0  0  0  0  0  0  0  0  0  0  0
    6.4788   -1.2910    2.6065 H   0  0  0  0  0  0  0  0  0  0  0  0
    3.8716   -1.3734    3.0784 H   0  0  0  0  0  0  0  0  0  0  0  0
    4.1617   -0.5717    1.6482 H   0  0  0  0  0  0  0  0  0  0  0  0
    1.8390   -2.1902    2.2654 H   0  0  0  0  0  0  0  0  0  0  0  0
    2.1294   -1.1530    1.0026 H   0  0  0  0  0  0  0  0  0  0  0  0
    1.7877   -3.3233    0.0063 H   0  0  0  0  0  0  0  0  0  0  0  0
    4.1112   -3.3183   -2.6787 H   0  0  0  0  0  0  0  0  0  0  0  0
    2.5028   -2.6265   -2.5034 H   0  0  0  0  0  0  0  0  0  0  0  0
    2.7907   -4.1907   -1.8852 H   0  0  0  0  0  0  0  0  0  0  0  0
    4.1699   -0.9629   -1.9969 H   0  0  0  0  0  0  0  0  0  0  0  0
    4.3223   -0.4665   -0.3536 H   0  0  0  0  0  0  0  0  0  0  0  0
    2.7398   -0.6589   -1.0765 H   0  0  0  0  0  0  0  0  0  0  0  0
    5.8285   -2.8347   -0.5314 H   0  0  0  0  0  0  0  0  0  0  0  0
    4.4923   -4.9963   -0.9437 H   0  0  0  0  0  0  0  0  0  0  0  0
    5.6462   -6.1665    0.4499 H   0  0  0  0  0  0  0  0  0  0  0  0
    2.6198   -5.6335   -0.4685 H   0  0  0  0  0  0  0  0  0  0  0  0
    2.7345   -3.3592    3.6041 H   0  0  0  0  0  0  0  0  0  0  0  0
    1.0772   -4.1839    2.3401 H   0  0  0  0  0  0  0  0  0  0  0  0
    0.5930   -4.4167    4.0058 H   0  0  0  0  0  0  0  0  0  0  0  0
    1.0522   -5.7901    2.9615 H   0  0  0  0  0  0  0  0  0  0  0  0
    2.8767   -7.7538    1.4661 H   0  0  0  0  0  0  0  0  0  0  0  0
    4.4457   -8.3256   -0.0360 H   0  0  0  0  0  0  0  0  0  0  0  0
  1  2  1  0
  1 35  1  0
  1 36  1  0
  1 37  1  0
  2 33  1  0
  2  3  1  0
  2 38  1  6
  3  4  1  0
  3 39  1  0
  3 40  1  0
  4  5  1  0
  4 41  1  0
  4 42  1  0
  5 10  1  0
  5  6  1  0
  5 43  1  1
  6  7  2  0
  6  8  1  0
 29  8  1  6
  8  9  1  1
  8 33  1  0
  9 10  1  0
  9 44  1  0
  9 45  1  0
 10 11  1  0
 10 46  1  1
 11 13  1  0
 11 32  1  0
 11 12  1  1
 12 13  1  0
 13 14  1  0
 13 47  1  1
 14 15  1  0
 14 48  1  0
 14 49  1  0
 15 29  1  0
 15 16  1  0
 15 50  1  6
 16 24  1  0
 16 17  1  6
 16 18  1  0
 17 51  1  0
 17 52  1  0
 17 53  1  0
 18 19  1  0
 18 54  1  0
 18 55  1  0
 19 20  1  0
 19 56  1  0
 19 57  1  0
 20 27  1  0
 20 21  1  0
 20 58  1  6
 21 22  1  0
 21 23  1  0
 21 24  1  0
 22 59  1  0
 22 60  1  0
 22 61  1  0
 23 62  1  0
 23 63  1  0
 23 64  1  0
 24 25  1  0
 24 65  1  6
 25 26  1  0
 25 27  1  0
 25 66  1  6
 26 67  1  0
 27 28  1  6
 27 29  1  0
 28 68  1  0
 29 30  1  0
 30 31  1  0
 30 32  1  0
 30 69  1  1
 31 70  1  0
 31 71  1  0
 31 72  1  0
 33 34  1  0
 33 73  1  6
 34 74  1  0
M  END
>  <i_m_ct_stereo_status>  (86) 
1

>  <s_m_source_file>  (86) 
/var/tmp/pbs.5076255.sched01/tmpmalnbme9/37wob9dpop.sdf

>  <i_m_source_file_index>  (86) 
4

>  <i_lp_mmshare_version>  (86) 
48012

>  <i_f3d_flags>  (86) 
0

>  <s_epik_input>  (86) 
W09IXVtDQEhdMVtDQEhdKFtDSDNdKVtDSDJdW0NIMl1bQ0BASF0oQzI9TylbQ0BIXShbQ0gyXTMpW0NAXShPNCkoT1tDQEBIXTVbQ0gzXSlbQ0BIXTRbQ0gyXVtDQEBIXShbQ0BAXTU2W0NAQF0xMjMpW0NAQF03KFtDSDNdKVtDQEBIXThDKFtDSDNdKShbQ0gzXSlbQ0BIXShbQ0gyXVtDSDJdNylbQ0BAXTYoW09IXSlbQ0BASF04W09IXQ==

>  <s_epik_cmdline>  (86) 
J2VwaWtfcHl0aG9uJywgJy1waHQnLCAnMi4wJywgJy1waCcsICc3LjAnLCAnLXRuJywgJzgnLCAnLW1hJywgJzIwMCcsICctaW1hZScsICc8aW5maWxlLm1hZT4nLCAnLW9tYWUnLCAnPG91dGZpbGUubWFlPic=

>  <r_lp_tautomer_probability>  (86) 
1

>  <r_epik_Ionization_Penalty>  (86) 
7.62044e-07

>  <r_epik_Ionization_Penalty_Charging>  (86) 
0

>  <r_epik_Ionization_Penalty_Neutral>  (86) 
7.62044e-07

>  <r_epik_State_Penalty>  (86) 
-0

>  <r_epik_Charging_Adjusted_Penalty>  (86) 
0

>  <i_epik_Tot_Q>  (86) 
0

>  <i_epik_Tot_abs_Q>  (86) 
0

>  <s_lp_Force_Field>  (86) 
OPLS3e

>  <r_lp_Energy>  (86) 
207.013

>  <b_lp_Chiralities_Consistent>  (86) 
1

>  <s_lp_Variant>  (86) 
30:0-1

>  <s_i_glide_gridfile>  (86) 
pfpi4k_grid

>  <i_i_glide_lignum>  (86) 
4

>  <i_i_glide_rotatable_bonds>  (86) 
3

>  <r_i_docking_score>  (86) 
-2.51124

>  <r_i_glide_ligand_efficiency>  (86) 
-0.0738599

>  <r_i_glide_ligand_efficiency_sa>  (86) 
-0.239277

>  <r_i_glide_ligand_efficiency_ln>  (86) 
-0.554803

>  <r_i_glide_gscore>  (86) 
-2.51124

>  <r_i_glide_lipo>  (86) 
-0.287403

>  <r_i_glide_hbond>  (86) 
0

>  <r_i_glide_metal>  (86) 
-0

>  <r_i_glide_rewards>  (86) 
-0.687803

>  <r_i_glide_evdw>  (86) 
-18.8639

>  <r_i_glide_ecoul>  (86) 
-3.95224

>  <r_i_glide_erotb>  (86) 
0

>  <r_i_glide_esite>  (86) 
0

>  <r_i_glide_emodel>  (86) 
-32.3812

>  <r_i_glide_energy>  (86) 
-22.8161

>  <r_i_glide_einternal>  (86) 
1.19483

>  <r_i_glide_intrahb_reward>  (86) 
-0.5

>  <i_i_glide_confnum>  (86) 
2

>  <i_i_glide_posenum>  (86) 
3

>  <r_i_glide_eff_state_penalty>  (86) 
0

>  <ligand_id>  (86) 
30

>  <original_smiles>  (86) 
CC1CCC2C(=O)C3(CC2C24OC2CC2C5(C)CCC6C(C)(C)C5C(O)C6(O)C23C(C)O4)C1O

>  <smiles>  (86) 
[H]OC1([H])C2([H])C(C([H])([H])[H])(C([H])([H])[H])C3([H])C([H])([H])C([H])([H])C2(C([H])([H])[H])C2([H])C([H])([H])C4([H])OC45OC([H])(C([H])([H])[H])C2(C13O[H])C12C(=O)C([H])(C([H])([H])C([H])([H])C([H])(C([H])([H])[H])C1([H])O[H])C5([H])C2([H])[H]

$$$$
30:0:2
     RDKit          3D

 74 81  0  0  1  0  0  0  0  0999 V2000
    0.1008    5.0112    4.6313 C   0  0  0  0  0  0  0  0  0  0  0  0
   -0.3679    3.6663    4.0200 C   0  0  2  0  0  0  0  0  0  0  0  0
   -1.7958    3.2511    4.5242 C   0  0  0  0  0  0  0  0  0  0  0  0
   -1.9761    2.5811    5.9330 C   0  0  0  0  0  0  0  0  0  0  0  0
   -1.2905    1.1900    6.1470 C   0  0  1  0  0  0  0  0  0  0  0  0
   -0.6018    0.7797    4.8695 C   0  0  0  0  0  0  0  0  0  0  0  0
   -1.2012    0.1594    3.9872 O   0  0  0  0  0  0  0  0  0  0  0  0
    0.8460    1.2922    4.8255 C   0  0  1  0  0  0  0  0  0  0  0  0
    0.8705    2.0216    6.2314 C   0  0  0  0  0  0  0  0  0  0  0  0
   -0.0766    1.2346    7.1128 C   0  0  2  0  0  0  0  0  0  0  0  0
    0.6380   -0.0761    7.3580 C   0  0  1  0  0  0  0  0  0  0  0  0
    0.1517   -1.1581    8.1951 O   0  0  0  0  0  0  0  0  0  0  0  0
    0.0939   -1.3731    6.7692 C   0  0  2  0  0  0  0  0  0  0  0  0
    1.0435   -2.2212    6.0132 C   0  0  0  0  0  0  0  0  0  0  0  0
    1.4616   -1.5214    4.6622 C   0  0  2  0  0  0  0  0  0  0  0  0
    2.3430   -2.4890    3.7195 C   0  0  2  0  0  0  0  0  0  0  0  0
    1.5716   -3.8034    3.4550 C   0  0  0  0  0  0  0  0  0  0  0  0
    3.6264   -2.8851    4.5148 C   0  0  0  0  0  0  0  0  0  0  0  0
    4.7105   -1.8092    4.4441 C   0  0  0  0  0  0  0  0  0  0  0  0
    4.3614   -0.7534    3.3739 C   0  0  1  0  0  0  0  0  0  0  0  0
    4.2208   -1.5644    2.0501 C   0  0  0  0  0  0  0  0  0  0  0  0
    4.6586   -0.6746    0.8351 C   0  0  0  0  0  0  0  0  0  0  0  0
    5.0321   -2.8669    1.7839 C   0  0  0  0  0  0  0  0  0  0  0  0
    2.7057   -1.8454    2.2605 C   0  0  2  0  0  0  0  0  0  0  0  0
    2.2162   -0.4135    2.2300 C   0  0  1  0  0  0  0  0  0  0  0  0
    0.8197   -0.4568    2.0812 O   0  0  0  0  0  0  0  0  0  0  0  0
    2.9664    0.1015    3.4975 C   0  0  2  0  0  0  0  0  0  0  0  0
    3.3929    1.4156    3.2867 O   0  0  0  0  0  0  0  0  0  0  0  0
    2.0017    0.0259    4.7766 C   0  0  1  0  0  0  0  0  0  0  0  0
    2.8144    0.0361    6.1457 C   0  0  1  0  0  0  0  0  0  0  0  0
    4.0038    1.0314    6.2740 C   0  0  0  0  0  0  0  0  0  0  0  0
    2.0817    0.0278    7.3833 O   0  0  0  0  0  0  0  0  0  0  0  0
    0.8083    2.5802    3.8577 C   0  0  1  0  0  0  0  0  0  0  0  0
    0.8469    2.2820    2.4822 O   0  0  0  0  0  0  0  0  0  0  0  0
    0.1607    5.0160    5.7149 H   0  0  0  0  0  0  0  0  0  0  0  0
   -0.5846    5.8153    4.3560 H   0  0  0  0  0  0  0  0  0  0  0  0
    1.0720    5.3043    4.2364 H   0  0  0  0  0  0  0  0  0  0  0  0
   -0.5872    3.9934    3.0025 H   0  0  0  0  0  0  0  0  0  0  0  0
   -2.4125    4.1553    4.5384 H   0  0  0  0  0  0  0  0  0  0  0  0
   -2.2784    2.6412    3.7569 H   0  0  0  0  0  0  0  0  0  0  0  0
   -1.6953    3.2804    6.7159 H   0  0  0  0  0  0  0  0  0  0  0  0
   -3.0430    2.4386    6.0806 H   0  0  0  0  0  0  0  0  0  0  0  0
   -2.0275    0.4555    6.4514 H   0  0  0  0  0  0  0  0  0  0  0  0
    1.8188    2.2158    6.7040 H   0  0  0  0  0  0  0  0  0  0  0  0
    0.5009    3.0318    6.2166 H   0  0  0  0  0  0  0  0  0  0  0  0
   -0.2907    1.7464    8.0524 H   0  0  0  0  0  0  0  0  0  0  0  0
   -0.9328   -1.4340    6.4326 H   0  0  0  0  0  0  0  0  0  0  0  0
    1.8571   -2.4772    6.6812 H   0  0  0  0  0  0  0  0  0  0  0  0
    0.5168   -3.1567    5.8191 H   0  0  0  0  0  0  0  0  0  0  0  0
    0.5122   -1.5124    4.1517 H   0  0  0  0  0  0  0  0  0  0  0  0
    2.0760   -4.4215    2.7074 H   0  0  0  0  0  0  0  0  0  0  0  0
    0.5667   -3.5925    3.0916 H   0  0  0  0  0  0  0  0  0  0  0  0
    1.4829   -4.4184    4.3504 H   0  0  0  0  0  0  0  0  0  0  0  0
    3.4420   -3.1363    5.5550 H   0  0  0  0  0  0  0  0  0  0  0  0
    4.0254   -3.8316    4.1570 H   0  0  0  0  0  0  0  0  0  0  0  0
    4.9849   -1.3845    5.4046 H   0  0  0  0  0  0  0  0  0  0  0  0
    5.6535   -2.2931    4.1873 H   0  0  0  0  0  0  0  0  0  0  0  0
    5.2171   -0.0816    3.2993 H   0  0  0  0  0  0  0  0  0  0  0  0
    4.1297   -0.9614   -0.0754 H   0  0  0  0  0  0  0  0  0  0  0  0
    5.7265   -0.7842    0.6337 H   0  0  0  0  0  0  0  0  0  0  0  0
    4.5211    0.3936    0.9887 H   0  0  0  0  0  0  0  0  0  0  0  0
    5.0340   -3.1024    0.7186 H   0  0  0  0  0  0  0  0  0  0  0  0
    4.6173   -3.7650    2.2313 H   0  0  0  0  0  0  0  0  0  0  0  0
    6.0806   -2.7795    2.0753 H   0  0  0  0  0  0  0  0  0  0  0  0
    2.3002   -2.4196    1.4264 H   0  0  0  0  0  0  0  0  0  0  0  0
    2.4767    0.1567    1.3452 H   0  0  0  0  0  0  0  0  0  0  0  0
    0.6507   -0.4519    1.1439 H   0  0  0  0  0  0  0  0  0  0  0  0
    2.6314    1.8988    2.9913 H   0  0  0  0  0  0  0  0  0  0  0  0
    3.2734   -0.9284    6.2842 H   0  0  0  0  0  0  0  0  0  0  0  0
    4.8020    0.7922    5.5801 H   0  0  0  0  0  0  0  0  0  0  0  0
    4.4335    0.9858    7.2734 H   0  0  0  0  0  0  0  0  0  0  0  0
    3.7475    2.0651    6.0587 H   0  0  0  0  0  0  0  0  0  0  0  0
    1.7277    3.1376    4.0199 H   0  0  0  0  0  0  0  0  0  0  0  0
    0.6081    3.0473    1.9541 H   0  0  0  0  0  0  0  0  0  0  0  0
  1  2  1  0
  1 35  1  0
  1 36  1  0
  1 37  1  0
  2 33  1  0
  2  3  1  0
  2 38  1  6
  3  4  1  0
  3 39  1  0
  3 40  1  0
  4  5  1  0
  4 41  1  0
  4 42  1  0
  5 10  1  0
  5  6  1  0
  5 43  1  1
  6  7  2  0
  6  8  1  0
 29  8  1  1
  8  9  1  1
  8 33  1  0
  9 10  1  0
  9 44  1  0
  9 45  1  0
 10 11  1  0
 10 46  1  1
 11 13  1  0
 11 32  1  0
 11 12  1  1
 12 13  1  0
 13 14  1  0
 13 47  1  6
 14 15  1  0
 14 48  1  0
 14 49  1  0
 15 29  1  0
 15 16  1  0
 15 50  1  6
 16 24  1  0
 16 17  1  6
 16 18  1  0
 17 51  1  0
 17 52  1  0
 17 53  1  0
 18 19  1  0
 18 54  1  0
 18 55  1  0
 19 20  1  0
 19 56  1  0
 19 57  1  0
 20 27  1  0
 20 21  1  0
 20 58  1  6
 21 22  1  0
 21 23  1  0
 21 24  1  0
 22 59  1  0
 22 60  1  0
 22 61  1  0
 23 62  1  0
 23 63  1  0
 23 64  1  0
 24 25  1  0
 24 65  1  6
 25 26  1  0
 25 27  1  0
 25 66  1  6
 26 67  1  0
 27 28  1  6
 27 29  1  0
 28 68  1  0
 29 30  1  0
 30 31  1  0
 30 32  1  0
 30 69  1  1
 31 70  1  0
 31 71  1  0
 31 72  1  0
 33 34  1  0
 33 73  1  1
 34 74  1  0
M  END
>  <i_m_ct_stereo_status>  (87) 
1

>  <s_m_source_file>  (87) 
/var/tmp/pbs.5076255.sched01/tmpmalnbme9/37wob9dpop.sdf

>  <i_m_source_file_index>  (87) 
4

>  <i_lp_mmshare_version>  (87) 
48012

>  <i_f3d_flags>  (87) 
0

>  <s_epik_input>  (87) 
W09IXVtDQEhdMVtDQEhdKFtDSDNdKVtDSDJdW0NIMl1bQ0BASF0oQzI9TylbQ0BIXShbQ0gyXTMpW0NAXShPNCkoT1tDQEBIXTVbQ0gzXSlbQ0BIXTRbQ0gyXVtDQEBIXShbQ0BAXTU2W0NAQF0xMjMpW0NAQF03KFtDSDNdKVtDQEBIXThDKFtDSDNdKShbQ0gzXSlbQ0BIXShbQ0gyXVtDSDJdNylbQ0BAXTYoW09IXSlbQ0BASF04W09IXQ==

>  <s_epik_cmdline>  (87) 
J2VwaWtfcHl0aG9uJywgJy1waHQnLCAnMi4wJywgJy1waCcsICc3LjAnLCAnLXRuJywgJzgnLCAnLW1hJywgJzIwMCcsICctaW1hZScsICc8aW5maWxlLm1hZT4nLCAnLW9tYWUnLCAnPG91dGZpbGUubWFlPic=

>  <r_lp_tautomer_probability>  (87) 
1

>  <r_epik_Ionization_Penalty>  (87) 
7.62044e-07

>  <r_epik_Ionization_Penalty_Charging>  (87) 
0

>  <r_epik_Ionization_Penalty_Neutral>  (87) 
7.62044e-07

>  <r_epik_State_Penalty>  (87) 
-0

>  <r_epik_Charging_Adjusted_Penalty>  (87) 
0

>  <i_epik_Tot_Q>  (87) 
0

>  <i_epik_Tot_abs_Q>  (87) 
0

>  <s_lp_Force_Field>  (87) 
OPLS3e

>  <r_lp_Energy>  (87) 
207.013

>  <b_lp_Chiralities_Consistent>  (87) 
1

>  <s_lp_Variant>  (87) 
30:0-1

>  <s_i_glide_gridfile>  (87) 
pfpi4k_grid

>  <i_i_glide_lignum>  (87) 
4

>  <i_i_glide_rotatable_bonds>  (87) 
3

>  <r_i_docking_score>  (87) 
-2.24181

>  <r_i_glide_ligand_efficiency>  (87) 
-0.0659355

>  <r_i_glide_ligand_efficiency_sa>  (87) 
-0.213606

>  <r_i_glide_ligand_efficiency_ln>  (87) 
-0.495278

>  <r_i_glide_gscore>  (87) 
-2.24181

>  <r_i_glide_lipo>  (87) 
-0.303085

>  <r_i_glide_hbond>  (87) 
-0.0385715

>  <r_i_glide_metal>  (87) 
-0

>  <r_i_glide_rewards>  (87) 
-0.186725

>  <r_i_glide_evdw>  (87) 
-26.2477

>  <r_i_glide_ecoul>  (87) 
-2.4373

>  <r_i_glide_erotb>  (87) 
0

>  <r_i_glide_esite>  (87) 
-0.0354441

>  <r_i_glide_emodel>  (87) 
-32.6171

>  <r_i_glide_energy>  (87) 
-28.685

>  <r_i_glide_einternal>  (87) 
1.3512

>  <r_i_glide_intrahb_reward>  (87) 
-0

>  <i_i_glide_confnum>  (87) 
2

>  <i_i_glide_posenum>  (87) 
15

>  <r_i_glide_eff_state_penalty>  (87) 
0

>  <ligand_id>  (87) 
30

>  <original_smiles>  (87) 
CC1CCC2C(=O)C3(CC2C24OC2CC2C5(C)CCC6C(C)(C)C5C(O)C6(O)C23C(C)O4)C1O

>  <smiles>  (87) 
[H]OC1([H])C2([H])C(C([H])([H])[H])(C([H])([H])[H])C3([H])C([H])([H])C([H])([H])C2(C([H])([H])[H])C2([H])C([H])([H])C4([H])OC45OC([H])(C([H])([H])[H])C2(C13O[H])C12C(=O)C([H])(C([H])([H])C([H])([H])C([H])(C([H])([H])[H])C1([H])O[H])C5([H])C2([H])[H]

$$$$
32:0:0
     RDKit          3D

 92 98  0  0  1  0  0  0  0  0999 V2000
   -2.6259    3.1956    6.1914 C   0  0  0  0  0  0  0  0  0  0  0  0
   -1.3282    2.8585    6.1246 C   0  0  0  0  0  0  0  0  0  0  0  0
   -0.1678    3.6097    5.5550 C   0  0  2  0  0  0  0  0  0  0  0  0
   -0.0424    3.5123    4.0482 C   0  0  0  0  0  0  0  0  0  0  0  0
    0.3916    2.1145    3.6108 C   0  0  0  0  0  0  0  0  0  0  0  0
    1.7479    1.6161    4.2015 C   0  0  2  0  0  0  0  0  0  0  0  0
    2.8414    2.3350    3.3627 C   0  0  0  0  0  0  0  0  0  0  0  0
    1.8193    0.0295    4.0214 C   0  0  1  0  0  0  0  0  0  0  0  0
    1.4345   -0.4742    2.6090 C   0  0  0  0  0  0  0  0  0  0  0  0
    1.8199   -1.9286    2.2834 C   0  0  0  0  0  0  0  0  0  0  0  0
    3.2760   -2.3649    2.5865 C   0  0  1  0  0  0  0  0  0  0  0  0
    4.0382   -2.9078    1.3081 C   0  0  2  0  0  0  0  0  0  0  0  0
    4.9190   -4.1782    1.5707 C   0  0  1  0  0  0  0  0  0  0  0  0
    4.1247   -5.3715    2.1479 C   0  0  0  0  0  0  0  0  0  0  0  0
    5.6904   -4.6473    0.3153 C   0  0  1  0  0  0  0  0  0  0  0  0
    4.7691   -5.1727   -0.8024 C   0  0  0  0  0  0  0  0  0  0  0  0
    6.6136   -3.5188   -0.1561 C   0  0  0  0  0  0  0  0  0  0  0  0
    5.7916   -2.3068   -0.5758 C   0  0  0  0  0  0  0  0  0  0  0  0
    4.7851   -1.7859    0.4947 C   0  0  1  0  0  0  0  0  0  0  0  0
    3.7728   -0.9332   -0.3180 C   0  0  0  0  0  0  0  0  0  0  0  0
    3.0243   -1.6931   -1.2406 O   0  0  0  0  0  0  0  0  0  0  0  0
    5.5661   -0.8627    1.4700 C   0  0  0  0  0  0  0  0  0  0  0  0
    4.7314   -0.3077    2.6509 C   0  0  0  0  0  0  0  0  0  0  0  0
    4.0379   -1.3742    3.5410 C   0  0  2  0  0  0  0  0  0  0  0  0
    5.1716   -2.1517    4.2687 C   0  0  0  0  0  0  0  0  0  0  0  0
    3.0395   -0.7575    4.6406 C   0  0  2  0  0  0  0  0  0  0  0  0
    2.4783   -1.9546    5.4784 C   0  0  0  0  0  0  0  0  0  0  0  0
    3.7374    0.1606    5.6815 C   0  0  0  0  0  0  0  0  0  0  0  0
    2.7861    1.0426    6.5237 C   0  0  1  0  0  0  0  0  0  0  0  0
    3.6316    1.7164    7.4341 O   0  0  0  0  0  0  0  0  0  0  0  0
    1.9462    2.0690    5.7075 C   0  0  2  0  0  0  0  0  0  0  0  0
    0.6987    2.6861    6.4533 C   0  0  1  0  0  0  0  0  0  0  0  0
    1.2346    3.4937    7.6574 C   0  0  0  0  0  0  0  0  0  0  0  0
   -0.5530    1.7867    6.8272 C   0  0  1  0  0  0  0  0  0  0  0  0
   -0.9513    1.8021    8.1797 O   0  0  0  0  0  0  0  0  0  0  0  0
   -0.8791    0.4814    6.3233 N   0  0  0  0  0  0  0  0  0  0  0  0
   -1.8070    0.0480    5.4709 C   0  0  0  0  0  0  0  0  0  0  0  0
   -1.7715   -1.2669    5.3569 N   0  0  0  0  0  0  0  0  0  0  0  0
   -0.7861   -1.6580    6.2184 N   0  0  0  0  0  0  0  0  0  0  0  0
   -0.2878   -0.6294    6.8279 N   0  0  0  0  0  0  0  0  0  0  0  0
   -3.3360    2.5982    6.7645 H   0  0  0  0  0  0  0  0  0  0  0  0
   -2.9708    4.0913    5.6814 H   0  0  0  0  0  0  0  0  0  0  0  0
   -0.1135    4.6410    5.9060 H   0  0  0  0  0  0  0  0  0  0  0  0
   -0.9606    3.8004    3.5410 H   0  0  0  0  0  0  0  0  0  0  0  0
    0.6971    4.2286    3.7018 H   0  0  0  0  0  0  0  0  0  0  0  0
   -0.4126    1.4055    3.8074 H   0  0  0  0  0  0  0  0  0  0  0  0
    0.4700    2.1449    2.5277 H   0  0  0  0  0  0  0  0  0  0  0  0
    3.8378    2.0813    3.6933 H   0  0  0  0  0  0  0  0  0  0  0  0
    2.7783    3.4173    3.4449 H   0  0  0  0  0  0  0  0  0  0  0  0
    2.7755    2.1168    2.2993 H   0  0  0  0  0  0  0  0  0  0  0  0
    0.9700   -0.3106    4.6028 H   0  0  0  0  0  0  0  0  0  0  0  0
    0.3544   -0.4328    2.5257 H   0  0  0  0  0  0  0  0  0  0  0  0
    1.7736    0.2108    1.8356 H   0  0  0  0  0  0  0  0  0  0  0  0
    1.1385   -2.6018    2.8082 H   0  0  0  0  0  0  0  0  0  0  0  0
    1.5787   -2.0901    1.2428 H   0  0  0  0  0  0  0  0  0  0  0  0
    3.1132   -3.2477    3.1911 H   0  0  0  0  0  0  0  0  0  0  0  0
    3.2684   -3.3157    0.6499 H   0  0  0  0  0  0  0  0  0  0  0  0
    5.6923   -3.9545    2.2959 H   0  0  0  0  0  0  0  0  0  0  0  0
    3.1901   -5.5368    1.6030 H   0  0  0  0  0  0  0  0  0  0  0  0
    3.8817   -5.2227    3.2006 H   0  0  0  0  0  0  0  0  0  0  0  0
    4.7049   -6.2982    2.0940 H   0  0  0  0  0  0  0  0  0  0  0  0
    6.3435   -5.4798    0.5993 H   0  0  0  0  0  0  0  0  0  0  0  0
    4.0309   -4.4323   -1.1208 H   0  0  0  0  0  0  0  0  0  0  0  0
    4.2389   -6.0735   -0.4925 H   0  0  0  0  0  0  0  0  0  0  0  0
    5.3482   -5.4589   -1.6722 H   0  0  0  0  0  0  0  0  0  0  0  0
    7.3141   -3.2466    0.6351 H   0  0  0  0  0  0  0  0  0  0  0  0
    7.2326   -3.8362   -0.9983 H   0  0  0  0  0  0  0  0  0  0  0  0
    6.4748   -1.5035   -0.8469 H   0  0  0  0  0  0  0  0  0  0  0  0
    5.2879   -2.5640   -1.5126 H   0  0  0  0  0  0  0  0  0  0  0  0
    3.0665   -0.4161    0.3265 H   0  0  0  0  0  0  0  0  0  0  0  0
    4.3177   -0.1453   -0.8466 H   0  0  0  0  0  0  0  0  0  0  0  0
    2.0552   -1.4464   -1.1266 H   0  0  0  0  0  0  0  0  0  0  0  0
    6.4530   -1.3766    1.8402 H   0  0  0  0  0  0  0  0  0  0  0  0
    5.9724   -0.0090    0.9203 H   0  0  0  0  0  0  0  0  0  0  0  0
    5.3719    0.3321    3.2630 H   0  0  0  0  0  0  0  0  0  0  0  0
    3.9794    0.3293    2.2125 H   0  0  0  0  0  0  0  0  0  0  0  0
    5.6378   -1.5719    5.0613 H   0  0  0  0  0  0  0  0  0  0  0  0
    5.9678   -2.4044    3.5887 H   0  0  0  0  0  0  0  0  0  0  0  0
    4.8574   -3.1098    4.6840 H   0  0  0  0  0  0  0  0  0  0  0  0
    3.2366   -2.6311    5.8626 H   0  0  0  0  0  0  0  0  0  0  0  0
    1.7685   -2.5663    4.9277 H   0  0  0  0  0  0  0  0  0  0  0  0
    1.9696   -1.6258    6.3746 H   0  0  0  0  0  0  0  0  0  0  0  0
    4.2765   -0.4631    6.3872 H   0  0  0  0  0  0  0  0  0  0  0  0
    4.5054    0.7800    5.2253 H   0  0  0  0  0  0  0  0  0  0  0  0
    2.1339    0.4159    7.1188 H   0  0  0  0  0  0  0  0  0  0  0  0
    4.2323    2.2418    6.9284 H   0  0  0  0  0  0  0  0  0  0  0  0
    2.6349    2.9105    5.6175 H   0  0  0  0  0  0  0  0  0  0  0  0
    1.6221    2.8604    8.4567 H   0  0  0  0  0  0  0  0  0  0  0  0
    0.4357    4.0880    8.1008 H   0  0  0  0  0  0  0  0  0  0  0  0
    2.0101    4.1989    7.3604 H   0  0  0  0  0  0  0  0  0  0  0  0
   -0.1512    1.8440    8.6779 H   0  0  0  0  0  0  0  0  0  0  0  0
   -2.5174    0.6813    4.9565 H   0  0  0  0  0  0  0  0  0  0  0  0
  1  2  2  0
  1 41  1  0
  1 42  1  0
  2 34  1  0
  2  3  1  0
  3 32  1  0
  3  4  1  0
  3 43  1  1
  4  5  1  0
  4 44  1  0
  4 45  1  0
  5  6  1  0
  5 46  1  0
  5 47  1  0
  6 31  1  0
  6  7  1  6
  6  8  1  0
  7 48  1  0
  7 49  1  0
  7 50  1  0
  8 26  1  0
  8  9  1  0
  8 51  1  1
  9 10  1  0
  9 52  1  0
  9 53  1  0
 10 11  1  0
 10 54  1  0
 10 55  1  0
 11 24  1  0
 11 12  1  0
 11 56  1  1
 12 19  1  0
 12 13  1  0
 12 57  1  6
 13 14  1  0
 13 15  1  0
 13 58  1  1
 14 59  1  0
 14 60  1  0
 14 61  1  0
 15 16  1  0
 15 17  1  0
 15 62  1  1
 16 63  1  0
 16 64  1  0
 16 65  1  0
 17 18  1  0
 17 66  1  0
 17 67  1  0
 18 19  1  0
 18 68  1  0
 18 69  1  0
 19 20  1  6
 19 22  1  0
 20 21  1  0
 20 70  1  0
 20 71  1  0
 21 72  1  0
 22 23  1  0
 22 73  1  0
 22 74  1  0
 23 24  1  0
 23 75  1  0
 23 76  1  0
 24 25  1  1
 24 26  1  0
 25 77  1  0
 25 78  1  0
 25 79  1  0
 26 27  1  1
 26 28  1  0
 27 80  1  0
 27 81  1  0
 27 82  1  0
 28 29  1  0
 28 83  1  0
 28 84  1  0
 29 30  1  0
 29 31  1  0
 29 85  1  1
 30 86  1  0
 31 32  1  0
 31 87  1  6
 32 33  1  1
 32 34  1  0
 33 88  1  0
 33 89  1  0
 33 90  1  0
 34 35  1  1
 34 36  1  0
 35 91  1  0
 36 40  1  0
 36 37  1  0
 37 38  2  0
 37 92  1  0
 38 39  1  0
 39 40  2  0
M  END
>  <i_m_ct_stereo_status>  (88) 
1

>  <s_m_source_file>  (88) 
/var/tmp/pbs.5076255.sched01/tmpmalnbme9/37wob9dpop.sdf

>  <i_m_source_file_index>  (88) 
6

>  <i_lp_mmshare_version>  (88) 
48012

>  <i_f3d_flags>  (88) 
0

>  <s_epik_input>  (88) 
bjFubltjSF1uMVtDQF0yKFtPSF0pQyg9W0NIMl0pW0NASF0oW0NIMl1bQ0gyXTMpW0NAXTIoW0NIM10pW0NASF00W0NASF0oW09IXSlbQ0gyXVtDQEBdKFtDSDNdKShbQ0BIXTVbQ0BAXTM0W0NIM10pW0NAQF02KFtDSDNdKVtDQEBIXShbQ0gyXVtDSDJdNSlbQ0BIXTdbQ0BAXShbQ0gyXVtPSF0pKFtDSDJdW0NIMl02KVtDSDJdW0NIMl1bQ0BIXShbQ0gzXSlbQ0BASF03W0NIM10=

>  <s_epik_cmdline>  (88) 
J2VwaWtfcHl0aG9uJywgJy1waHQnLCAnMi4wJywgJy1waCcsICc3LjAnLCAnLXRuJywgJzgnLCAnLW1hJywgJzIwMCcsICctaW1hZScsICc8aW5maWxlLm1hZT4nLCAnLW9tYWUnLCAnPG91dGZpbGUubWFlPic=

>  <r_lp_tautomer_probability>  (88) 
1

>  <r_epik_Ionization_Penalty>  (88) 
0.000137518

>  <r_epik_Ionization_Penalty_Charging>  (88) 
0

>  <r_epik_Ionization_Penalty_Neutral>  (88) 
0.000137518

>  <r_epik_State_Penalty>  (88) 
-0

>  <r_epik_Charging_Adjusted_Penalty>  (88) 
0

>  <i_epik_Tot_Q>  (88) 
0

>  <i_epik_Tot_abs_Q>  (88) 
0

>  <s_lp_Force_Field>  (88) 
OPLS3e

>  <r_lp_Energy>  (88) 
134.032

>  <b_lp_Chiralities_Consistent>  (88) 
1

>  <s_lp_Variant>  (88) 
32:0-1

>  <s_i_glide_gridfile>  (88) 
pfpi4k_grid

>  <i_i_glide_lignum>  (88) 
6

>  <i_i_glide_rotatable_bonds>  (88) 
5

>  <r_i_docking_score>  (88) 
-3.78749

>  <r_i_glide_ligand_efficiency>  (88) 
-0.0946874

>  <r_i_glide_ligand_efficiency_sa>  (88) 
-0.323826

>  <r_i_glide_ligand_efficiency_ln>  (88) 
-0.807761

>  <r_i_glide_gscore>  (88) 
-3.78749

>  <r_i_glide_lipo>  (88) 
-0.641968

>  <r_i_glide_hbond>  (88) 
-0.120127

>  <r_i_glide_metal>  (88) 
-0

>  <r_i_glide_rewards>  (88) 
0

>  <r_i_glide_evdw>  (88) 
-20.2692

>  <r_i_glide_ecoul>  (88) 
-11.9448

>  <r_i_glide_erotb>  (88) 
0.0641041

>  <r_i_glide_esite>  (88) 
-0.284321

>  <r_i_glide_emodel>  (88) 
-37.6317

>  <r_i_glide_energy>  (88) 
-32.214

>  <r_i_glide_einternal>  (88) 
3.60782

>  <r_i_glide_intrahb_reward>  (88) 
-0

>  <i_i_glide_confnum>  (88) 
6

>  <i_i_glide_posenum>  (88) 
1

>  <r_i_glide_eff_state_penalty>  (88) 
0

>  <ligand_id>  (88) 
32

>  <original_smiles>  (88) 
C=C1C2CCC3(C)C4CCC5C6C(C)C(C)CCC6(CO)CCC5(C)C4(C)CC(O)C3C2(C)C1(O)n1cnnn1

>  <smiles>  (88) 
[H]OC([H])([H])C12C([H])([H])C([H])([H])C([H])(C([H])([H])[H])C([H])(C([H])([H])[H])C1([H])C1([H])C([H])([H])C([H])([H])C3([H])C4(C([H])([H])[H])C([H])([H])C([H])([H])C5([H])C(=C([H])[H])C(O[H])(n6nnnc6[H])C5(C([H])([H])[H])C4([H])C([H])(O[H])C([H])([H])C3(C([H])([H])[H])C1(C([H])([H])[H])C([H])([H])C2([H])[H]

$$$$
32:0:1
     RDKit          3D

 92 98  0  0  1  0  0  0  0  0999 V2000
   -2.5884    3.1909    6.2329 C   0  0  0  0  0  0  0  0  0  0  0  0
   -1.2886    2.8387    6.1689 C   0  0  0  0  0  0  0  0  0  0  0  0
   -0.1109    3.5815    5.5992 C   0  0  2  0  0  0  0  0  0  0  0  0
    0.0179    3.5093    4.0908 C   0  0  0  0  0  0  0  0  0  0  0  0
    0.4433    2.1193    3.6147 C   0  0  0  0  0  0  0  0  0  0  0  0
    1.7918    1.5954    4.1970 C   0  0  2  0  0  0  0  0  0  0  0  0
    2.8896    2.3173    3.3698 C   0  0  0  0  0  0  0  0  0  0  0  0
    1.8435    0.0106    3.9936 C   0  0  1  0  0  0  0  0  0  0  0  0
    1.4515   -0.4676    2.5722 C   0  0  0  0  0  0  0  0  0  0  0  0
    1.8252   -1.9183    2.2202 C   0  0  0  0  0  0  0  0  0  0  0  0
    3.2850   -2.3674    2.5143 C   0  0  1  0  0  0  0  0  0  0  0  0
    4.0448   -2.8982    1.2266 C   0  0  2  0  0  0  0  0  0  0  0  0
    4.9064   -4.1823    1.4642 C   0  0  1  0  0  0  0  0  0  0  0  0
    4.1012   -5.3757    2.0230 C   0  0  0  0  0  0  0  0  0  0  0  0
    5.6776   -4.6295    0.2005 C   0  0  1  0  0  0  0  0  0  0  0  0
    4.7517   -5.1080   -0.9324 C   0  0  0  0  0  0  0  0  0  0  0  0
    6.6105   -3.5033   -0.2509 C   0  0  0  0  0  0  0  0  0  0  0  0
    5.7986   -2.2756   -0.6472 C   0  0  0  0  0  0  0  0  0  0  0  0
    4.8010   -1.7661    0.4456 C   0  0  1  0  0  0  0  0  0  0  0  0
    3.7982   -0.8822   -0.3417 C   0  0  0  0  0  0  0  0  0  0  0  0
    3.0233   -1.6257   -1.2754 O   0  0  0  0  0  0  0  0  0  0  0  0
    5.5935   -0.8665    1.4293 C   0  0  0  0  0  0  0  0  0  0  0  0
    4.7545   -0.3288    2.6189 C   0  0  0  0  0  0  0  0  0  0  0  0
    4.0544   -1.4061    3.4891 C   0  0  2  0  0  0  0  0  0  0  0  0
    5.1809   -2.2021    4.1972 C   0  0  0  0  0  0  0  0  0  0  0  0
    3.0572   -0.8035    4.5970 C   0  0  2  0  0  0  0  0  0  0  0  0
    2.4804   -2.0030    5.4149 C   0  0  0  0  0  0  0  0  0  0  0  0
    3.7635    0.0926    5.6547 C   0  0  0  0  0  0  0  0  0  0  0  0
    2.8159    0.9672    6.5159 C   0  0  1  0  0  0  0  0  0  0  0  0
    3.6726    1.6264    7.4239 O   0  0  0  0  0  0  0  0  0  0  0  0
    1.9825    2.0131    5.7224 C   0  0  2  0  0  0  0  0  0  0  0  0
    0.7389    2.6284    6.4866 C   0  0  1  0  0  0  0  0  0  0  0  0
    1.2782    3.4111    7.6967 C   0  0  0  0  0  0  0  0  0  0  0  0
   -0.5202    1.7353    6.8485 C   0  0  1  0  0  0  0  0  0  0  0  0
   -0.9002    1.6802    8.2090 O   0  0  0  0  0  0  0  0  0  0  0  0
   -0.8588    0.4415    6.3068 N   0  0  0  0  0  0  0  0  0  0  0  0
   -1.7813    0.0502    5.4143 C   0  0  0  0  0  0  0  0  0  0  0  0
   -1.7894   -1.2667    5.2949 N   0  0  0  0  0  0  0  0  0  0  0  0
   -0.8085   -1.6926    6.1548 N   0  0  0  0  0  0  0  0  0  0  0  0
   -0.2932   -0.6818    6.7695 N   0  0  0  0  0  0  0  0  0  0  0  0
   -3.3125    2.5899    6.7664 H   0  0  0  0  0  0  0  0  0  0  0  0
   -2.9313    4.0821    5.7148 H   0  0  0  0  0  0  0  0  0  0  0  0
   -0.0449    4.6081    5.9531 H   0  0  0  0  0  0  0  0  0  0  0  0
   -0.8973    3.8192    3.5867 H   0  0  0  0  0  0  0  0  0  0  0  0
    0.7642    4.2303    3.7620 H   0  0  0  0  0  0  0  0  0  0  0  0
   -0.3669    1.4247    3.8002 H   0  0  0  0  0  0  0  0  0  0  0  0
    0.5130    2.1667    2.5237 H   0  0  0  0  0  0  0  0  0  0  0  0
    3.8897    2.0469    3.6889 H   0  0  0  0  0  0  0  0  0  0  0  0
    2.8416    3.4002    3.4776 H   0  0  0  0  0  0  0  0  0  0  0  0
    2.8160    2.1266    2.3037 H   0  0  0  0  0  0  0  0  0  0  0  0
    0.9983   -0.3240    4.5762 H   0  0  0  0  0  0  0  0  0  0  0  0
    0.3584   -0.4054    2.4888 H   0  0  0  0  0  0  0  0  0  0  0  0
    1.8008    0.2233    1.8210 H   0  0  0  0  0  0  0  0  0  0  0  0
    1.1415   -2.5869    2.7312 H   0  0  0  0  0  0  0  0  0  0  0  0
    1.5830   -2.0644    1.1684 H   0  0  0  0  0  0  0  0  0  0  0  0
    3.1057   -3.2628    3.1066 H   0  0  0  0  0  0  0  0  0  0  0  0
    3.2737   -3.2793    0.5677 H   0  0  0  0  0  0  0  0  0  0  0  0
    5.6855   -3.9771    2.1961 H   0  0  0  0  0  0  0  0  0  0  0  0
    3.1681   -5.5226    1.4778 H   0  0  0  0  0  0  0  0  0  0  0  0
    3.8607   -5.2456    3.0788 H   0  0  0  0  0  0  0  0  0  0  0  0
    4.6713   -6.3062    1.9545 H   0  0  0  0  0  0  0  0  0  0  0  0
    6.3134   -5.4747    0.4664 H   0  0  0  0  0  0  0  0  0  0  0  0
    4.0062   -4.3656   -1.2223 H   0  0  0  0  0  0  0  0  0  0  0  0
    4.2301   -6.0233   -0.6570 H   0  0  0  0  0  0  0  0  0  0  0  0
    5.3185   -5.3138   -1.8298 H   0  0  0  0  0  0  0  0  0  0  0  0
    7.3134   -3.2598    0.5447 H   0  0  0  0  0  0  0  0  0  0  0  0
    7.2176   -3.8304   -1.0933 H   0  0  0  0  0  0  0  0  0  0  0  0
    6.4892   -1.4714   -0.9146 H   0  0  0  0  0  0  0  0  0  0  0  0
    5.2941   -2.5112   -1.5791 H   0  0  0  0  0  0  0  0  0  0  0  0
    3.1007   -0.3711    0.2967 H   0  0  0  0  0  0  0  0  0  0  0  0
    4.3369   -0.0974   -0.8918 H   0  0  0  0  0  0  0  0  0  0  0  0
    2.0424   -1.4487   -1.0901 H   0  0  0  0  0  0  0  0  0  0  0  0
    6.4662   -1.3955    1.7888 H   0  0  0  0  0  0  0  0  0  0  0  0
    6.0050   -0.0093    0.8949 H   0  0  0  0  0  0  0  0  0  0  0  0
    5.3966    0.2987    3.2358 H   0  0  0  0  0  0  0  0  0  0  0  0
    4.0081    0.3272    2.1863 H   0  0  0  0  0  0  0  0  0  0  0  0
    5.6521   -1.6418    5.0074 H   0  0  0  0  0  0  0  0  0  0  0  0
    5.9888   -2.4486    3.5252 H   0  0  0  0  0  0  0  0  0  0  0  0
    4.8614   -3.1641    4.5977 H   0  0  0  0  0  0  0  0  0  0  0  0
    3.2319   -2.6895    5.7949 H   0  0  0  0  0  0  0  0  0  0  0  0
    1.7677   -2.6020    4.8526 H   0  0  0  0  0  0  0  0  0  0  0  0
    1.9657   -1.6850    6.3116 H   0  0  0  0  0  0  0  0  0  0  0  0
    4.3079   -0.5454    6.3553 H   0  0  0  0  0  0  0  0  0  0  0  0
    4.5223    0.7211    5.2175 H   0  0  0  0  0  0  0  0  0  0  0  0
    2.1577    0.3424    7.1055 H   0  0  0  0  0  0  0  0  0  0  0  0
    3.1519    2.1590    8.0034 H   0  0  0  0  0  0  0  0  0  0  0  0
    2.6726    2.8511    5.6430 H   0  0  0  0  0  0  0  0  0  0  0  0
    1.6447    2.7682    8.4937 H   0  0  0  0  0  0  0  0  0  0  0  0
    0.4948    4.0203    8.1464 H   0  0  0  0  0  0  0  0  0  0  0  0
    2.0708    4.1135    7.4140 H   0  0  0  0  0  0  0  0  0  0  0  0
   -1.2793    2.5164    8.4384 H   0  0  0  0  0  0  0  0  0  0  0  0
   -2.4508    0.7006    4.8930 H   0  0  0  0  0  0  0  0  0  0  0  0
  1  2  2  0
  1 41  1  0
  1 42  1  0
  2 34  1  0
  2  3  1  0
  3 32  1  0
  3  4  1  0
  3 43  1  1
  4  5  1  0
  4 44  1  0
  4 45  1  0
  5  6  1  0
  5 46  1  0
  5 47  1  0
  6 31  1  0
  6  7  1  6
  6  8  1  0
  7 48  1  0
  7 49  1  0
  7 50  1  0
  8 26  1  0
  8  9  1  0
  8 51  1  1
  9 10  1  0
  9 52  1  0
  9 53  1  0
 10 11  1  0
 10 54  1  0
 10 55  1  0
 11 24  1  0
 11 12  1  0
 11 56  1  1
 12 19  1  0
 12 13  1  0
 12 57  1  6
 13 14  1  0
 13 15  1  0
 13 58  1  1
 14 59  1  0
 14 60  1  0
 14 61  1  0
 15 16  1  0
 15 17  1  0
 15 62  1  1
 16 63  1  0
 16 64  1  0
 16 65  1  0
 17 18  1  0
 17 66  1  0
 17 67  1  0
 18 19  1  0
 18 68  1  0
 18 69  1  0
 19 20  1  6
 19 22  1  0
 20 21  1  0
 20 70  1  0
 20 71  1  0
 21 72  1  0
 22 23  1  0
 22 73  1  0
 22 74  1  0
 23 24  1  0
 23 75  1  0
 23 76  1  0
 24 25  1  1
 24 26  1  0
 25 77  1  0
 25 78  1  0
 25 79  1  0
 26 27  1  1
 26 28  1  0
 27 80  1  0
 27 81  1  0
 27 82  1  0
 28 29  1  0
 28 83  1  0
 28 84  1  0
 29 30  1  0
 29 31  1  0
 29 85  1  1
 30 86  1  0
 31 32  1  0
 31 87  1  6
 32 33  1  1
 32 34  1  0
 33 88  1  0
 33 89  1  0
 33 90  1  0
 34 35  1  1
 34 36  1  0
 35 91  1  0
 36 40  1  0
 36 37  1  0
 37 38  2  0
 37 92  1  0
 38 39  1  0
 39 40  2  0
M  END
>  <i_m_ct_stereo_status>  (89) 
1

>  <s_m_source_file>  (89) 
/var/tmp/pbs.5076255.sched01/tmpmalnbme9/37wob9dpop.sdf

>  <i_m_source_file_index>  (89) 
6

>  <i_lp_mmshare_version>  (89) 
48012

>  <i_f3d_flags>  (89) 
0

>  <s_epik_input>  (89) 
bjFubltjSF1uMVtDQF0yKFtPSF0pQyg9W0NIMl0pW0NASF0oW0NIMl1bQ0gyXTMpW0NAXTIoW0NIM10pW0NASF00W0NASF0oW09IXSlbQ0gyXVtDQEBdKFtDSDNdKShbQ0BIXTVbQ0BAXTM0W0NIM10pW0NAQF02KFtDSDNdKVtDQEBIXShbQ0gyXVtDSDJdNSlbQ0BIXTdbQ0BAXShbQ0gyXVtPSF0pKFtDSDJdW0NIMl02KVtDSDJdW0NIMl1bQ0BIXShbQ0gzXSlbQ0BASF03W0NIM10=

>  <s_epik_cmdline>  (89) 
J2VwaWtfcHl0aG9uJywgJy1waHQnLCAnMi4wJywgJy1waCcsICc3LjAnLCAnLXRuJywgJzgnLCAnLW1hJywgJzIwMCcsICctaW1hZScsICc8aW5maWxlLm1hZT4nLCAnLW9tYWUnLCAnPG91dGZpbGUubWFlPic=

>  <r_lp_tautomer_probability>  (89) 
1

>  <r_epik_Ionization_Penalty>  (89) 
0.000137518

>  <r_epik_Ionization_Penalty_Charging>  (89) 
0

>  <r_epik_Ionization_Penalty_Neutral>  (89) 
0.000137518

>  <r_epik_State_Penalty>  (89) 
-0

>  <r_epik_Charging_Adjusted_Penalty>  (89) 
0

>  <i_epik_Tot_Q>  (89) 
0

>  <i_epik_Tot_abs_Q>  (89) 
0

>  <s_lp_Force_Field>  (89) 
OPLS3e

>  <r_lp_Energy>  (89) 
134.032

>  <b_lp_Chiralities_Consistent>  (89) 
1

>  <s_lp_Variant>  (89) 
32:0-1

>  <s_i_glide_gridfile>  (89) 
pfpi4k_grid

>  <i_i_glide_lignum>  (89) 
6

>  <i_i_glide_rotatable_bonds>  (89) 
5

>  <r_i_docking_score>  (89) 
-3.77911

>  <r_i_glide_ligand_efficiency>  (89) 
-0.0944777

>  <r_i_glide_ligand_efficiency_sa>  (89) 
-0.323109

>  <r_i_glide_ligand_efficiency_ln>  (89) 
-0.805972

>  <r_i_glide_gscore>  (89) 
-3.77911

>  <r_i_glide_lipo>  (89) 
-0.645728

>  <r_i_glide_hbond>  (89) 
-0.112857

>  <r_i_glide_metal>  (89) 
-0

>  <r_i_glide_rewards>  (89) 
0

>  <r_i_glide_evdw>  (89) 
-19.8304

>  <r_i_glide_ecoul>  (89) 
-12.113

>  <r_i_glide_erotb>  (89) 
0.0641041

>  <r_i_glide_esite>  (89) 
-0.276163

>  <r_i_glide_emodel>  (89) 
-37.5618

>  <r_i_glide_energy>  (89) 
-31.9433

>  <r_i_glide_einternal>  (89) 
3.32894

>  <r_i_glide_intrahb_reward>  (89) 
-0

>  <i_i_glide_confnum>  (89) 
6

>  <i_i_glide_posenum>  (89) 
16

>  <r_i_glide_eff_state_penalty>  (89) 
0

>  <ligand_id>  (89) 
32

>  <original_smiles>  (89) 
C=C1C2CCC3(C)C4CCC5C6C(C)C(C)CCC6(CO)CCC5(C)C4(C)CC(O)C3C2(C)C1(O)n1cnnn1

>  <smiles>  (89) 
[H]OC([H])([H])C12C([H])([H])C([H])([H])C([H])(C([H])([H])[H])C([H])(C([H])([H])[H])C1([H])C1([H])C([H])([H])C([H])([H])C3([H])C4(C([H])([H])[H])C([H])([H])C([H])([H])C5([H])C(=C([H])[H])C(O[H])(n6nnnc6[H])C5(C([H])([H])[H])C4([H])C([H])(O[H])C([H])([H])C3(C([H])([H])[H])C1(C([H])([H])[H])C([H])([H])C2([H])[H]

$$$$
32:0:2
     RDKit          3D

 92 98  0  0  1  0  0  0  0  0999 V2000
   -2.6268    3.2279    6.1995 C   0  0  0  0  0  0  0  0  0  0  0  0
   -1.3269    2.9012    6.1477 C   0  0  0  0  0  0  0  0  0  0  0  0
   -0.1612    3.6370    5.5609 C   0  0  2  0  0  0  0  0  0  0  0  0
   -0.0319    3.5415    4.0456 C   0  0  0  0  0  0  0  0  0  0  0  0
    0.4038    2.1445    3.6034 C   0  0  0  0  0  0  0  0  0  0  0  0
    1.7574    1.6422    4.1924 C   0  0  2  0  0  0  0  0  0  0  0  0
    2.8526    2.3590    3.3509 C   0  0  0  0  0  0  0  0  0  0  0  0
    1.8316    0.0563    4.0239 C   0  0  1  0  0  0  0  0  0  0  0  0
    1.4393   -0.4561    2.6168 C   0  0  0  0  0  0  0  0  0  0  0  0
    1.8220   -1.9134    2.2934 C   0  0  0  0  0  0  0  0  0  0  0  0
    3.2876   -2.3378    2.5851 C   0  0  1  0  0  0  0  0  0  0  0  0
    4.0561   -2.8841    1.3073 C   0  0  2  0  0  0  0  0  0  0  0  0
    4.9337   -4.1605    1.5748 C   0  0  1  0  0  0  0  0  0  0  0  0
    4.1415   -5.3483    2.1639 C   0  0  0  0  0  0  0  0  0  0  0  0
    5.6976   -4.6306    0.3195 C   0  0  1  0  0  0  0  0  0  0  0  0
    4.7749   -5.1568   -0.7938 C   0  0  0  0  0  0  0  0  0  0  0  0
    6.6222   -3.5096   -0.1616 C   0  0  0  0  0  0  0  0  0  0  0  0
    5.7996   -2.2937   -0.5838 C   0  0  0  0  0  0  0  0  0  0  0  0
    4.7942   -1.7584    0.4853 C   0  0  1  0  0  0  0  0  0  0  0  0
    3.7781   -0.9137   -0.3238 C   0  0  0  0  0  0  0  0  0  0  0  0
    3.0265   -1.6759   -1.2442 O   0  0  0  0  0  0  0  0  0  0  0  0
    5.5810   -0.8374    1.4622 C   0  0  0  0  0  0  0  0  0  0  0  0
    4.7426   -0.2812    2.6391 C   0  0  0  0  0  0  0  0  0  0  0  0
    4.0576   -1.3467    3.5365 C   0  0  2  0  0  0  0  0  0  0  0  0
    5.1973   -2.1171    4.2640 C   0  0  0  0  0  0  0  0  0  0  0  0
    3.0588   -0.7272    4.6387 C   0  0  2  0  0  0  0  0  0  0  0  0
    2.4977   -1.9227    5.4835 C   0  0  0  0  0  0  0  0  0  0  0  0
    3.7580    0.2014    5.6751 C   0  0  0  0  0  0  0  0  0  0  0  0
    2.8112    1.0880    6.5234 C   0  0  1  0  0  0  0  0  0  0  0  0
    3.6603    1.7780    7.4192 O   0  0  0  0  0  0  0  0  0  0  0  0
    1.9610    2.1015    5.7001 C   0  0  2  0  0  0  0  0  0  0  0  0
    0.7122    2.7144    6.4551 C   0  0  1  0  0  0  0  0  0  0  0  0
    1.2475    3.5407    7.6489 C   0  0  0  0  0  0  0  0  0  0  0  0
   -0.5416    1.8270    6.8498 C   0  0  1  0  0  0  0  0  0  0  0  0
   -0.9118    1.7791    8.2119 O   0  0  0  0  0  0  0  0  0  0  0  0
   -0.8435    0.5105    6.3348 N   0  0  0  0  0  0  0  0  0  0  0  0
   -1.7871    0.0775    5.4760 C   0  0  0  0  0  0  0  0  0  0  0  0
   -1.7723   -1.2285    5.3713 N   0  0  0  0  0  0  0  0  0  0  0  0
   -0.7697   -1.6226    6.2295 N   0  0  0  0  0  0  0  0  0  0  0  0
   -0.2562   -0.5845    6.8518 N   0  0  0  0  0  0  0  0  0  0  0  0
   -3.3454    2.6457    6.7587 H   0  0  0  0  0  0  0  0  0  0  0  0
   -2.9738    4.1106    5.6863 H   0  0  0  0  0  0  0  0  0  0  0  0
   -0.1017    4.6748    5.8897 H   0  0  0  0  0  0  0  0  0  0  0  0
   -0.9481    3.8336    3.5284 H   0  0  0  0  0  0  0  0  0  0  0  0
    0.7105    4.2595    3.7016 H   0  0  0  0  0  0  0  0  0  0  0  0
   -0.3968    1.4378    3.8108 H   0  0  0  0  0  0  0  0  0  0  0  0
    0.4765    2.1656    2.5196 H   0  0  0  0  0  0  0  0  0  0  0  0
    3.8511    2.1134    3.6853 H   0  0  0  0  0  0  0  0  0  0  0  0
    2.7945    3.4436    3.4224 H   0  0  0  0  0  0  0  0  0  0  0  0
    2.7926    2.1394    2.2882 H   0  0  0  0  0  0  0  0  0  0  0  0
    0.9874   -0.2717    4.6211 H   0  0  0  0  0  0  0  0  0  0  0  0
    0.3604   -0.4198    2.5383 H   0  0  0  0  0  0  0  0  0  0  0  0
    1.7723    0.2252    1.8363 H   0  0  0  0  0  0  0  0  0  0  0  0
    1.1459   -2.5951    2.8206 H   0  0  0  0  0  0  0  0  0  0  0  0
    1.5816   -2.0848    1.2518 H   0  0  0  0  0  0  0  0  0  0  0  0
    3.1282   -3.2181    3.1930 H   0  0  0  0  0  0  0  0  0  0  0  0
    3.2876   -3.2905    0.6507 H   0  0  0  0  0  0  0  0  0  0  0  0
    5.7132   -3.9318    2.2935 H   0  0  0  0  0  0  0  0  0  0  0  0
    3.2063   -5.5180    1.6273 H   0  0  0  0  0  0  0  0  0  0  0  0
    3.9059   -5.1949    3.2151 H   0  0  0  0  0  0  0  0  0  0  0  0
    4.7189   -6.2731    2.1150 H   0  0  0  0  0  0  0  0  0  0  0  0
    6.3493   -5.4601    0.5993 H   0  0  0  0  0  0  0  0  0  0  0  0
    4.0337   -4.4284   -1.1211 H   0  0  0  0  0  0  0  0  0  0  0  0
    4.2556   -6.0687   -0.4967 H   0  0  0  0  0  0  0  0  0  0  0  0
    5.3568   -5.4000   -1.6736 H   0  0  0  0  0  0  0  0  0  0  0  0
    7.3300   -3.2370    0.6233 H   0  0  0  0  0  0  0  0  0  0  0  0
    7.2314   -3.8452   -1.0043 H   0  0  0  0  0  0  0  0  0  0  0  0
    6.4770   -1.4936   -0.8720 H   0  0  0  0  0  0  0  0  0  0  0  0
    5.2896   -2.5595   -1.5125 H   0  0  0  0  0  0  0  0  0  0  0  0
    3.0691   -0.4147    0.3223 H   0  0  0  0  0  0  0  0  0  0  0  0
    4.3043   -0.1202   -0.8498 H   0  0  0  0  0  0  0  0  0  0  0  0
    2.0707   -1.4314   -1.1272 H   0  0  0  0  0  0  0  0  0  0  0  0
    6.4635   -1.3520    1.8404 H   0  0  0  0  0  0  0  0  0  0  0  0
    5.9917    0.0127    0.9116 H   0  0  0  0  0  0  0  0  0  0  0  0
    5.3733    0.3722    3.2437 H   0  0  0  0  0  0  0  0  0  0  0  0
    3.9857    0.3452    2.1955 H   0  0  0  0  0  0  0  0  0  0  0  0
    5.6645   -1.5353    5.0563 H   0  0  0  0  0  0  0  0  0  0  0  0
    5.9962   -2.3695    3.5876 H   0  0  0  0  0  0  0  0  0  0  0  0
    4.8898   -3.0746    4.6831 H   0  0  0  0  0  0  0  0  0  0  0  0
    3.2572   -2.5949    5.8738 H   0  0  0  0  0  0  0  0  0  0  0  0
    1.7848   -2.5403    4.9405 H   0  0  0  0  0  0  0  0  0  0  0  0
    1.9903   -1.5859    6.3775 H   0  0  0  0  0  0  0  0  0  0  0  0
    4.3054   -0.4174    6.3788 H   0  0  0  0  0  0  0  0  0  0  0  0
    4.5255    0.8166    5.2079 H   0  0  0  0  0  0  0  0  0  0  0  0
    2.1606    0.4630    7.1341 H   0  0  0  0  0  0  0  0  0  0  0  0
    4.2399    2.3297    6.9055 H   0  0  0  0  0  0  0  0  0  0  0  0
    2.6377    2.9558    5.5989 H   0  0  0  0  0  0  0  0  0  0  0  0
    1.6368    2.9090    8.4459 H   0  0  0  0  0  0  0  0  0  0  0  0
    0.4547    4.1431    8.0934 H   0  0  0  0  0  0  0  0  0  0  0  0
    2.0241    4.2431    7.3391 H   0  0  0  0  0  0  0  0  0  0  0  0
   -1.3097    2.6180    8.4379 H   0  0  0  0  0  0  0  0  0  0  0  0
   -2.4913    0.7119    4.9482 H   0  0  0  0  0  0  0  0  0  0  0  0
  1  2  2  0
  1 41  1  0
  1 42  1  0
  2 34  1  0
  2  3  1  0
  3 32  1  0
  3  4  1  0
  3 43  1  1
  4  5  1  0
  4 44  1  0
  4 45  1  0
  5  6  1  0
  5 46  1  0
  5 47  1  0
  6 31  1  0
  6  7  1  6
  6  8  1  0
  7 48  1  0
  7 49  1  0
  7 50  1  0
  8 26  1  0
  8  9  1  0
  8 51  1  1
  9 10  1  0
  9 52  1  0
  9 53  1  0
 10 11  1  0
 10 54  1  0
 10 55  1  0
 11 24  1  0
 11 12  1  0
 11 56  1  1
 12 19  1  0
 12 13  1  0
 12 57  1  6
 13 14  1  0
 13 15  1  0
 13 58  1  1
 14 59  1  0
 14 60  1  0
 14 61  1  0
 15 16  1  0
 15 17  1  0
 15 62  1  1
 16 63  1  0
 16 64  1  0
 16 65  1  0
 17 18  1  0
 17 66  1  0
 17 67  1  0
 18 19  1  0
 18 68  1  0
 18 69  1  0
 19 20  1  6
 19 22  1  0
 20 21  1  0
 20 70  1  0
 20 71  1  0
 21 72  1  0
 22 23  1  0
 22 73  1  0
 22 74  1  0
 23 24  1  0
 23 75  1  0
 23 76  1  0
 24 25  1  1
 24 26  1  0
 25 77  1  0
 25 78  1  0
 25 79  1  0
 26 27  1  1
 26 28  1  0
 27 80  1  0
 27 81  1  0
 27 82  1  0
 28 29  1  0
 28 83  1  0
 28 84  1  0
 29 30  1  0
 29 31  1  0
 29 85  1  1
 30 86  1  0
 31 32  1  0
 31 87  1  6
 32 33  1  1
 32 34  1  0
 33 88  1  0
 33 89  1  0
 33 90  1  0
 34 35  1  1
 34 36  1  0
 35 91  1  0
 36 40  1  0
 36 37  1  0
 37 38  2  0
 37 92  1  0
 38 39  1  0
 39 40  2  0
M  END
>  <i_m_ct_stereo_status>  (90) 
1

>  <s_m_source_file>  (90) 
/var/tmp/pbs.5076255.sched01/tmpmalnbme9/37wob9dpop.sdf

>  <i_m_source_file_index>  (90) 
6

>  <i_lp_mmshare_version>  (90) 
48012

>  <i_f3d_flags>  (90) 
0

>  <s_epik_input>  (90) 
bjFubltjSF1uMVtDQF0yKFtPSF0pQyg9W0NIMl0pW0NASF0oW0NIMl1bQ0gyXTMpW0NAXTIoW0NIM10pW0NASF00W0NASF0oW09IXSlbQ0gyXVtDQEBdKFtDSDNdKShbQ0BIXTVbQ0BAXTM0W0NIM10pW0NAQF02KFtDSDNdKVtDQEBIXShbQ0gyXVtDSDJdNSlbQ0BIXTdbQ0BAXShbQ0gyXVtPSF0pKFtDSDJdW0NIMl02KVtDSDJdW0NIMl1bQ0BIXShbQ0gzXSlbQ0BASF03W0NIM10=

>  <s_epik_cmdline>  (90) 
J2VwaWtfcHl0aG9uJywgJy1waHQnLCAnMi4wJywgJy1waCcsICc3LjAnLCAnLXRuJywgJzgnLCAnLW1hJywgJzIwMCcsICctaW1hZScsICc8aW5maWxlLm1hZT4nLCAnLW9tYWUnLCAnPG91dGZpbGUubWFlPic=

>  <r_lp_tautomer_probability>  (90) 
1

>  <r_epik_Ionization_Penalty>  (90) 
0.000137518

>  <r_epik_Ionization_Penalty_Charging>  (90) 
0

>  <r_epik_Ionization_Penalty_Neutral>  (90) 
0.000137518

>  <r_epik_State_Penalty>  (90) 
-0

>  <r_epik_Charging_Adjusted_Penalty>  (90) 
0

>  <i_epik_Tot_Q>  (90) 
0

>  <i_epik_Tot_abs_Q>  (90) 
0

>  <s_lp_Force_Field>  (90) 
OPLS3e

>  <r_lp_Energy>  (90) 
134.032

>  <b_lp_Chiralities_Consistent>  (90) 
1

>  <s_lp_Variant>  (90) 
32:0-1

>  <s_i_glide_gridfile>  (90) 
pfpi4k_grid

>  <i_i_glide_lignum>  (90) 
6

>  <i_i_glide_rotatable_bonds>  (90) 
5

>  <r_i_docking_score>  (90) 
-3.6783

>  <r_i_glide_ligand_efficiency>  (90) 
-0.0919575

>  <r_i_glide_ligand_efficiency_sa>  (90) 
-0.31449

>  <r_i_glide_ligand_efficiency_ln>  (90) 
-0.784473

>  <r_i_glide_gscore>  (90) 
-3.6783

>  <r_i_glide_lipo>  (90) 
-0.637952

>  <r_i_glide_hbond>  (90) 
-0.124111

>  <r_i_glide_metal>  (90) 
-0

>  <r_i_glide_rewards>  (90) 
0

>  <r_i_glide_evdw>  (90) 
-20.38

>  <r_i_glide_ecoul>  (90) 
-11.2028

>  <r_i_glide_erotb>  (90) 
0.0641041

>  <r_i_glide_esite>  (90) 
-0.280913

>  <r_i_glide_emodel>  (90) 
-37.7089

>  <r_i_glide_energy>  (90) 
-31.5829

>  <r_i_glide_einternal>  (90) 
2.77707

>  <r_i_glide_intrahb_reward>  (90) 
-0

>  <i_i_glide_confnum>  (90) 
2

>  <i_i_glide_posenum>  (90) 
18

>  <r_i_glide_eff_state_penalty>  (90) 
0

>  <ligand_id>  (90) 
32

>  <original_smiles>  (90) 
C=C1C2CCC3(C)C4CCC5C6C(C)C(C)CCC6(CO)CCC5(C)C4(C)CC(O)C3C2(C)C1(O)n1cnnn1

>  <smiles>  (90) 
[H]OC([H])([H])C12C([H])([H])C([H])([H])C([H])(C([H])([H])[H])C([H])(C([H])([H])[H])C1([H])C1([H])C([H])([H])C([H])([H])C3([H])C4(C([H])([H])[H])C([H])([H])C([H])([H])C5([H])C(=C([H])[H])C(O[H])(n6nnnc6[H])C5(C([H])([H])[H])C4([H])C([H])(O[H])C([H])([H])C3(C([H])([H])[H])C1(C([H])([H])[H])C([H])([H])C2([H])[H]

$$$$
33:0:0
     RDKit          3D

 36 40  0  0  1  0  0  0  0  0999 V2000
    7.0518   -4.9504    1.4025 C   0  0  0  0  0  0  0  0  0  0  0  0
    5.7223   -4.1821    1.2861 C   0  0  2  0  0  0  0  0  0  0  0  0
    4.6404   -4.9474    0.4680 C   0  0  1  0  0  0  0  0  0  0  0  0
    3.4959   -5.5495    1.2584 C   0  0  0  0  0  0  0  0  0  0  0  0
    3.5783   -6.0311    2.5455 C   0  0  0  0  0  0  0  0  0  0  0  0
    2.0715   -6.7100    3.1033 S   0  0  0  0  0  0  0  0  0  0  0  0
    1.3118   -6.3343    1.5850 C   0  0  0  0  0  0  0  0  0  0  0  0
   -0.0053   -6.6577    1.4833 O   0  0  0  0  0  0  0  0  0  0  0  0
    2.1900   -5.7566    0.7128 C   0  0  0  0  0  0  0  0  0  0  0  0
    4.2253   -3.9352   -0.6398 C   0  0  1  0  0  0  0  0  0  0  0  0
    3.1497   -2.8506   -0.2228 C   0  0  0  0  0  0  0  0  0  0  0  0
    3.8328   -1.4791    0.0655 C   0  0  2  0  0  0  0  0  0  0  0  0
    4.4771   -1.0611   -1.2424 C   0  0  0  0  0  0  0  0  0  0  0  0
    5.3190   -1.9668   -1.7558 C   0  0  0  0  0  0  0  0  0  0  0  0
    5.5550   -3.2112   -0.9086 C   0  0  1  0  0  0  0  0  0  0  0  0
    5.8650   -2.8614    0.5440 C   0  0  2  0  0  0  0  0  0  0  0  0
    6.4297   -1.5388    0.9998 C   0  0  0  0  0  0  0  0  0  0  0  0
    4.9301   -1.7744    1.0916 C   0  0  1  0  0  0  0  0  0  0  0  0
    7.4927   -5.1887    0.4326 H   0  0  0  0  0  0  0  0  0  0  0  0
    6.9067   -5.8892    1.9395 H   0  0  0  0  0  0  0  0  0  0  0  0
    7.7877   -4.3747    1.9631 H   0  0  0  0  0  0  0  0  0  0  0  0
    5.3614   -3.9653    2.2876 H   0  0  0  0  0  0  0  0  0  0  0  0
    5.1387   -5.7732   -0.0442 H   0  0  0  0  0  0  0  0  0  0  0  0
    4.4336   -6.0423    3.2029 H   0  0  0  0  0  0  0  0  0  0  0  0
   -0.1361   -7.4617    1.9726 H   0  0  0  0  0  0  0  0  0  0  0  0
    1.9401   -5.4646   -0.2944 H   0  0  0  0  0  0  0  0  0  0  0  0
    3.8814   -4.4614   -1.5234 H   0  0  0  0  0  0  0  0  0  0  0  0
    2.4484   -2.7242   -1.0504 H   0  0  0  0  0  0  0  0  0  0  0  0
    2.5509   -3.1467    0.6390 H   0  0  0  0  0  0  0  0  0  0  0  0
    3.1310   -0.7264    0.4306 H   0  0  0  0  0  0  0  0  0  0  0  0
    4.2168   -0.1273   -1.7163 H   0  0  0  0  0  0  0  0  0  0  0  0
    5.8191   -1.8570   -2.7040 H   0  0  0  0  0  0  0  0  0  0  0  0
    6.3245   -3.8542   -1.3376 H   0  0  0  0  0  0  0  0  0  0  0  0
    6.9728   -1.5269    1.9386 H   0  0  0  0  0  0  0  0  0  0  0  0
    6.7810   -0.8140    0.2649 H   0  0  0  0  0  0  0  0  0  0  0  0
    4.5419   -1.9125    2.0972 H   0  0  0  0  0  0  0  0  0  0  0  0
  1  2  1  0
  1 19  1  0
  1 20  1  0
  1 21  1  0
  2 16  1  0
  2  3  1  0
  2 22  1  1
  3  4  1  0
  3 10  1  0
  3 23  1  6
  4  9  1  0
  4  5  2  0
  5  6  1  0
  5 24  1  0
  6  7  1  0
  7  8  1  0
  7  9  2  0
  8 25  1  0
  9 26  1  0
 10 15  1  0
 10 11  1  0
 10 27  1  6
 11 12  1  0
 11 28  1  0
 11 29  1  0
 12 18  1  0
 12 13  1  0
 12 30  1  1
 13 14  2  0
 13 31  1  0
 14 15  1  0
 14 32  1  0
 15 16  1  0
 15 33  1  6
 16 18  1  0
 16 17  1  6
 17 18  1  0
 17 34  1  0
 17 35  1  0
 18 36  1  1
M  END
>  <i_m_ct_stereo_status>  (91) 
1

>  <s_m_source_file>  (91) 
/var/tmp/pbs.5076255.sched01/tmpmalnbme9/37wob9dpop.sdf

>  <i_m_source_file_index>  (91) 
7

>  <i_lp_mmshare_version>  (91) 
48012

>  <i_f3d_flags>  (91) 
0

>  <s_epik_input>  (91) 
W0NIXTE9W0NIXVtDQEhdKFtDQEBIXTJbQ0gyXTMpW0NIMl1bQ0BASF0oW0NAQEhdMVtDQF0yMzQpW0NAQEhdKFtDQEhdNFtDSDNdKWM1W2NIXXNjKFtPSF0pW2NIXTU=

>  <s_epik_cmdline>  (91) 
J2VwaWtfcHl0aG9uJywgJy1waHQnLCAnMi4wJywgJy1waCcsICc3LjAnLCAnLXRuJywgJzgnLCAnLW1hJywgJzIwMCcsICctaW1hZScsICc8aW5maWxlLm1hZT4nLCAnLW9tYWUnLCAnPG91dGZpbGUubWFlPic=

>  <r_epik_Ionization_Penalty>  (91) 
0.0541061

>  <r_epik_Ionization_Penalty_Charging>  (91) 
0

>  <r_epik_Ionization_Penalty_Neutral>  (91) 
0.0541061

>  <r_epik_State_Penalty>  (91) 
0.0465242

>  <r_epik_Charging_Adjusted_Penalty>  (91) 
0.0465242

>  <i_epik_Tot_Q>  (91) 
0

>  <i_epik_Tot_abs_Q>  (91) 
0

>  <s_lp_Force_Field>  (91) 
OPLS3e

>  <r_lp_Energy>  (91) 
56.7923

>  <b_lp_Chiralities_Consistent>  (91) 
1

>  <s_lp_Variant>  (91) 
33:0-1

>  <s_i_glide_gridfile>  (91) 
pfpi4k_grid

>  <i_i_glide_lignum>  (91) 
7

>  <i_i_glide_rotatable_bonds>  (91) 
2

>  <r_i_docking_score>  (91) 
-3.6561

>  <r_i_glide_ligand_efficiency>  (91) 
-0.203117

>  <r_i_glide_ligand_efficiency_sa>  (91) 
-0.532316

>  <r_i_glide_ligand_efficiency_ln>  (91) 
-0.939782

>  <r_i_glide_gscore>  (91) 
-3.6561

>  <r_i_glide_lipo>  (91) 
-0.504573

>  <r_i_glide_hbond>  (91) 
-0.187357

>  <r_i_glide_metal>  (91) 
-0

>  <r_i_glide_rewards>  (91) 
-1.64741

>  <r_i_glide_evdw>  (91) 
-21.4589

>  <r_i_glide_ecoul>  (91) 
-3.3893

>  <r_i_glide_erotb>  (91) 
0.264585

>  <r_i_glide_esite>  (91) 
0

>  <r_i_glide_emodel>  (91) 
-29.7549

>  <r_i_glide_energy>  (91) 
-24.8482

>  <r_i_glide_einternal>  (91) 
1.32054

>  <r_i_glide_intrahb_reward>  (91) 
-0

>  <i_i_glide_confnum>  (91) 
4

>  <i_i_glide_posenum>  (91) 
24

>  <r_i_glide_eff_state_penalty>  (91) 
0

>  <ligand_id>  (91) 
33

>  <original_smiles>  (91) 
CC1C(c2csc(O)c2)C2CC3C=CC2C12CC32

>  <smiles>  (91) 
[H]Oc1sc([H])c(C2([H])C3([H])C([H])([H])C4([H])C([H])=C([H])C3([H])C3(C([H])([H])C43[H])C2([H])C([H])([H])[H])c1[H]

$$$$
33:0:1
     RDKit          3D

 36 40  0  0  1  0  0  0  0  0999 V2000
    6.7436   -5.1814    1.6203 C   0  0  0  0  0  0  0  0  0  0  0  0
    5.5092   -4.2894    1.4077 C   0  0  2  0  0  0  0  0  0  0  0  0
    4.3795   -4.9944    0.6019 C   0  0  1  0  0  0  0  0  0  0  0  0
    3.1524   -5.4340    1.3775 C   0  0  0  0  0  0  0  0  0  0  0  0
    2.9733   -5.3791    2.7412 C   0  0  0  0  0  0  0  0  0  0  0  0
    1.4336   -6.0176    3.2442 S   0  0  0  0  0  0  0  0  0  0  0  0
    1.0225   -6.3881    1.6001 C   0  0  0  0  0  0  0  0  0  0  0  0
   -0.1932   -6.9657    1.4181 O   0  0  0  0  0  0  0  0  0  0  0  0
    2.0210   -6.0256    0.7394 C   0  0  0  0  0  0  0  0  0  0  0  0
    4.1014   -4.0253   -0.5853 C   0  0  1  0  0  0  0  0  0  0  0  0
    3.1137   -2.8307   -0.2759 C   0  0  0  0  0  0  0  0  0  0  0  0
    3.9142   -1.5114   -0.0385 C   0  0  2  0  0  0  0  0  0  0  0  0
    4.6372   -1.2295   -1.3434 C   0  0  0  0  0  0  0  0  0  0  0  0
    5.4173   -2.2330   -1.7723 C   0  0  0  0  0  0  0  0  0  0  0  0
    5.5019   -3.4427   -0.8463 C   0  0  1  0  0  0  0  0  0  0  0  0
    5.7992   -3.0388    0.5939 C   0  0  2  0  0  0  0  0  0  0  0  0
    6.4649   -1.7498    0.9997 C   0  0  0  0  0  0  0  0  0  0  0  0
    4.9482   -1.8402    1.0434 C   0  0  1  0  0  0  0  0  0  0  0  0
    7.1887   -5.5236    0.6838 H   0  0  0  0  0  0  0  0  0  0  0  0
    6.4807   -6.0642    2.2067 H   0  0  0  0  0  0  0  0  0  0  0  0
    7.5180   -4.6572    2.1741 H   0  0  0  0  0  0  0  0  0  0  0  0
    5.1662   -3.9617    2.3816 H   0  0  0  0  0  0  0  0  0  0  0  0
    4.8090   -5.8926    0.1530 H   0  0  0  0  0  0  0  0  0  0  0  0
    3.6437   -5.0119    3.4996 H   0  0  0  0  0  0  0  0  0  0  0  0
   -0.0837   -7.7291    0.8616 H   0  0  0  0  0  0  0  0  0  0  0  0
    1.9846   -6.1646   -0.3289 H   0  0  0  0  0  0  0  0  0  0  0  0
    3.7517   -4.5733   -1.4542 H   0  0  0  0  0  0  0  0  0  0  0  0
    2.4620   -2.6834   -1.1394 H   0  0  0  0  0  0  0  0  0  0  0  0
    2.4514   -3.0378    0.5653 H   0  0  0  0  0  0  0  0  0  0  0  0
    3.2815   -0.6706    0.2558 H   0  0  0  0  0  0  0  0  0  0  0  0
    4.4786   -0.2966   -1.8687 H   0  0  0  0  0  0  0  0  0  0  0  0
    5.9808   -2.2262   -2.6935 H   0  0  0  0  0  0  0  0  0  0  0  0
    6.2145   -4.1837   -1.2071 H   0  0  0  0  0  0  0  0  0  0  0  0
    6.9697   -1.7358    1.9591 H   0  0  0  0  0  0  0  0  0  0  0  0
    6.9171   -1.1115    0.2407 H   0  0  0  0  0  0  0  0  0  0  0  0
    4.5154   -1.8814    2.0391 H   0  0  0  0  0  0  0  0  0  0  0  0
  1  2  1  0
  1 19  1  0
  1 20  1  0
  1 21  1  0
  2 16  1  0
  2  3  1  0
  2 22  1  1
  3  4  1  0
  3 10  1  0
  3 23  1  6
  4  9  1  0
  4  5  2  0
  5  6  1  0
  5 24  1  0
  6  7  1  0
  7  8  1  0
  7  9  2  0
  8 25  1  0
  9 26  1  0
 10 15  1  0
 10 11  1  0
 10 27  1  6
 11 12  1  0
 11 28  1  0
 11 29  1  0
 12 18  1  0
 12 13  1  0
 12 30  1  1
 13 14  2  0
 13 31  1  0
 14 15  1  0
 14 32  1  0
 15 16  1  0
 15 33  1  6
 16 18  1  0
 16 17  1  6
 17 18  1  0
 17 34  1  0
 17 35  1  0
 18 36  1  1
M  END
>  <i_m_ct_stereo_status>  (92) 
1

>  <s_m_source_file>  (92) 
/var/tmp/pbs.5076255.sched01/tmpmalnbme9/37wob9dpop.sdf

>  <i_m_source_file_index>  (92) 
7

>  <i_lp_mmshare_version>  (92) 
48012

>  <i_f3d_flags>  (92) 
0

>  <s_epik_input>  (92) 
W0NIXTE9W0NIXVtDQEhdKFtDQEBIXTJbQ0gyXTMpW0NIMl1bQ0BASF0oW0NAQEhdMVtDQF0yMzQpW0NAQEhdKFtDQEhdNFtDSDNdKWM1W2NIXXNjKFtPSF0pW2NIXTU=

>  <s_epik_cmdline>  (92) 
J2VwaWtfcHl0aG9uJywgJy1waHQnLCAnMi4wJywgJy1waCcsICc3LjAnLCAnLXRuJywgJzgnLCAnLW1hJywgJzIwMCcsICctaW1hZScsICc8aW5maWxlLm1hZT4nLCAnLW9tYWUnLCAnPG91dGZpbGUubWFlPic=

>  <r_epik_Ionization_Penalty>  (92) 
0.0541061

>  <r_epik_Ionization_Penalty_Charging>  (92) 
0

>  <r_epik_Ionization_Penalty_Neutral>  (92) 
0.0541061

>  <r_epik_State_Penalty>  (92) 
0.0465242

>  <r_epik_Charging_Adjusted_Penalty>  (92) 
0.0465242

>  <i_epik_Tot_Q>  (92) 
0

>  <i_epik_Tot_abs_Q>  (92) 
0

>  <s_lp_Force_Field>  (92) 
OPLS3e

>  <r_lp_Energy>  (92) 
56.7923

>  <b_lp_Chiralities_Consistent>  (92) 
1

>  <s_lp_Variant>  (92) 
33:0-1

>  <s_i_glide_gridfile>  (92) 
pfpi4k_grid

>  <i_i_glide_lignum>  (92) 
7

>  <i_i_glide_rotatable_bonds>  (92) 
2

>  <r_i_docking_score>  (92) 
-3.48698

>  <r_i_glide_ligand_efficiency>  (92) 
-0.193721

>  <r_i_glide_ligand_efficiency_sa>  (92) 
-0.507693

>  <r_i_glide_ligand_efficiency_ln>  (92) 
-0.89631

>  <r_i_glide_gscore>  (92) 
-3.48698

>  <r_i_glide_lipo>  (92) 
-0.447061

>  <r_i_glide_hbond>  (92) 
-0.0773671

>  <r_i_glide_metal>  (92) 
-0

>  <r_i_glide_rewards>  (92) 
-1.64741

>  <r_i_glide_evdw>  (92) 
-20.6247

>  <r_i_glide_ecoul>  (92) 
-3.65659

>  <r_i_glide_erotb>  (92) 
0.264585

>  <r_i_glide_esite>  (92) 
0

>  <r_i_glide_emodel>  (92) 
-28.5749

>  <r_i_glide_energy>  (92) 
-24.2813

>  <r_i_glide_einternal>  (92) 
1.80446

>  <r_i_glide_intrahb_reward>  (92) 
-0

>  <i_i_glide_confnum>  (92) 
4

>  <i_i_glide_posenum>  (92) 
26

>  <r_i_glide_eff_state_penalty>  (92) 
0

>  <ligand_id>  (92) 
33

>  <original_smiles>  (92) 
CC1C(c2csc(O)c2)C2CC3C=CC2C12CC32

>  <smiles>  (92) 
[H]Oc1sc([H])c(C2([H])C3([H])C([H])([H])C4([H])C([H])=C([H])C3([H])C3(C([H])([H])C43[H])C2([H])C([H])([H])[H])c1[H]

$$$$
33:1:0
     RDKit          3D

 35 39  0  0  1  0  0  0  0  0999 V2000
    4.7988   -3.5214    3.8148 C   0  0  0  0  0  0  0  0  0  0  0  0
    4.0370   -3.3599    2.4859 C   0  0  2  0  0  0  0  0  0  0  0  0
    3.9296   -4.6753    1.6488 C   0  0  1  0  0  0  0  0  0  0  0  0
    2.5760   -5.3589    1.6540 C   0  0  0  0  0  0  0  0  0  0  0  0
    1.9539   -5.8964    0.5533 C   0  0  0  0  0  0  0  0  0  0  0  0
    0.4436   -6.6653    0.9264 S   0  0  0  0  0  0  0  0  0  0  0  0
    0.6305   -6.2599    2.6056 C   0  0  0  0  0  0  0  0  0  0  0  0
   -0.3731   -6.6645    3.3982 O   0  0  0  0  0  0  0  0  0  0  0  0
    1.8040   -5.5962    2.8362 C   0  0  0  0  0  0  0  0  0  0  0  0
    4.5146   -4.2790    0.2489 C   0  0  1  0  0  0  0  0  0  0  0  0
    3.5222   -3.5346   -0.7431 C   0  0  0  0  0  0  0  0  0  0  0  0
    3.7720   -2.0047   -0.7516 C   0  0  2  0  0  0  0  0  0  0  0  0
    5.1782   -1.8303   -1.2718 C   0  0  0  0  0  0  0  0  0  0  0  0
    6.1138   -2.4894   -0.5704 C   0  0  0  0  0  0  0  0  0  0  0  0
    5.6031   -3.2580    0.6516 C   0  0  1  0  0  0  0  0  0  0  0  0
    4.7158   -2.3795    1.5358 C   0  0  2  0  0  0  0  0  0  0  0  0
    4.7480   -0.8713    1.5689 C   0  0  0  0  0  0  0  0  0  0  0  0
    3.7020   -1.5704    0.7169 C   0  0  1  0  0  0  0  0  0  0  0  0
    5.8123   -3.8820    3.6718 H   0  0  0  0  0  0  0  0  0  0  0  0
    4.2935   -4.2275    4.4730 H   0  0  0  0  0  0  0  0  0  0  0  0
    4.8564   -2.5753    4.3511 H   0  0  0  0  0  0  0  0  0  0  0  0
    3.0349   -2.9925    2.7129 H   0  0  0  0  0  0  0  0  0  0  0  0
    4.6459   -5.3795    2.0793 H   0  0  0  0  0  0  0  0  0  0  0  0
    2.3046   -5.9091   -0.4685 H   0  0  0  0  0  0  0  0  0  0  0  0
    2.1599   -5.2748    3.8079 H   0  0  0  0  0  0  0  0  0  0  0  0
    4.9439   -5.1603   -0.2335 H   0  0  0  0  0  0  0  0  0  0  0  0
    3.6781   -3.9380   -1.7483 H   0  0  0  0  0  0  0  0  0  0  0  0
    2.4690   -3.6696   -0.5079 H   0  0  0  0  0  0  0  0  0  0  0  0
    3.0344   -1.4768   -1.3593 H   0  0  0  0  0  0  0  0  0  0  0  0
    5.3500   -1.2546   -2.1692 H   0  0  0  0  0  0  0  0  0  0  0  0
    7.1631   -2.5085   -0.8162 H   0  0  0  0  0  0  0  0  0  0  0  0
    6.4194   -3.6882    1.2341 H   0  0  0  0  0  0  0  0  0  0  0  0
    4.3903   -0.3858    2.4738 H   0  0  0  0  0  0  0  0  0  0  0  0
    5.5360   -0.3386    1.0413 H   0  0  0  0  0  0  0  0  0  0  0  0
    2.6781   -1.5171    1.0875 H   0  0  0  0  0  0  0  0  0  0  0  0
  1  2  1  0
  1 19  1  0
  1 20  1  0
  1 21  1  0
  2 16  1  0
  2  3  1  0
  2 22  1  1
  3  4  1  0
  3 10  1  0
  3 23  1  1
  4  9  1  0
  4  5  2  0
  5  6  1  0
  5 24  1  0
  6  7  1  0
  7  8  1  0
  7  9  2  0
  9 25  1  0
 10 15  1  0
 10 11  1  0
 10 26  1  6
 11 12  1  0
 11 27  1  0
 11 28  1  0
 12 18  1  0
 12 13  1  0
 12 29  1  6
 13 14  2  0
 13 30  1  0
 14 15  1  0
 14 31  1  0
 15 16  1  0
 15 32  1  1
 16 18  1  0
 16 17  1  1
 17 18  1  0
 17 33  1  0
 17 34  1  0
 18 35  1  1
M  CHG  1   8  -1
M  END
>  <i_m_ct_stereo_status>  (93) 
1

>  <s_m_source_file>  (93) 
/var/tmp/pbs.5076255.sched01/tmpmalnbme9/37wob9dpop.sdf

>  <i_m_source_file_index>  (93) 
8

>  <i_lp_mmshare_version>  (93) 
48012

>  <i_f3d_flags>  (93) 
0

>  <s_epik_input>  (93) 
W0NIXTE9W0NIXVtDQEhdKFtDQEBIXTJbQ0gyXTMpW0NIMl1bQ0BASF0oW0NAQEhdMVtDQF0yMzQpW0NAQEhdKFtDQEhdNFtDSDNdKWM1W2NIXXNjKFtPSF0pW2NIXTU=

>  <s_epik_cmdline>  (93) 
J2VwaWtfcHl0aG9uJywgJy1waHQnLCAnMi4wJywgJy1waCcsICc3LjAnLCAnLXRuJywgJzgnLCAnLW1hJywgJzIwMCcsICctaW1hZScsICc8aW5maWxlLm1hZT4nLCAnLW9tYWUnLCAnPG91dGZpbGUubWFlPic=

>  <r_epik_Ionization_Penalty>  (93) 
1.44489

>  <r_epik_Ionization_Penalty_Charging>  (93) 
1.44489

>  <r_epik_Ionization_Penalty_Neutral>  (93) 
0

>  <r_epik_State_Penalty>  (93) 
1.5306

>  <r_epik_Charging_Adjusted_Penalty>  (93) 
2.97549

>  <i_epik_Tot_Q>  (93) 
-1

>  <i_epik_Tot_abs_Q>  (93) 
1

>  <s_lp_Force_Field>  (93) 
OPLS3e

>  <r_lp_Energy>  (93) 
59.8248

>  <b_lp_Chiralities_Consistent>  (93) 
1

>  <s_lp_Variant>  (93) 
33:0-2

>  <s_i_glide_gridfile>  (93) 
pfpi4k_grid

>  <i_i_glide_lignum>  (93) 
8

>  <i_i_glide_rotatable_bonds>  (93) 
1

>  <r_i_docking_score>  (93) 
-3.23714

>  <r_i_glide_ligand_efficiency>  (93) 
-0.179841

>  <r_i_glide_ligand_efficiency_sa>  (93) 
-0.471316

>  <r_i_glide_ligand_efficiency_ln>  (93) 
-0.832089

>  <r_i_glide_gscore>  (93) 
-3.23714

>  <r_i_glide_lipo>  (93) 
-0.279587

>  <r_i_glide_hbond>  (93) 
-0.1537

>  <r_i_glide_metal>  (93) 
-0

>  <r_i_glide_rewards>  (93) 
-1.65428

>  <r_i_glide_evdw>  (93) 
-19.7249

>  <r_i_glide_ecoul>  (93) 
-2.86459

>  <r_i_glide_erotb>  (93) 
0.26637

>  <r_i_glide_esite>  (93) 
0

>  <r_i_glide_emodel>  (93) 
-28.0077

>  <r_i_glide_energy>  (93) 
-22.5895

>  <r_i_glide_einternal>  (93) 
1.4832

>  <r_i_glide_intrahb_reward>  (93) 
-0

>  <i_i_glide_confnum>  (93) 
4

>  <i_i_glide_posenum>  (93) 
34

>  <r_i_glide_eff_state_penalty>  (93) 
0

>  <ligand_id>  (93) 
33

>  <original_smiles>  (93) 
CC1C(c2csc(O)c2)C2CC3C=CC2C12CC32

>  <smiles>  (93) 
[H]C1=C([H])C2([H])C3([H])C([H])([H])C1([H])C1([H])C([H])([H])C21C([H])(C([H])([H])[H])C3([H])c1c([H])sc([O-])c1[H]

$$$$
33:1:1
     RDKit          3D

 35 39  0  0  1  0  0  0  0  0999 V2000
    6.7347   -5.1732    1.5756 C   0  0  0  0  0  0  0  0  0  0  0  0
    5.5008   -4.2796    1.3553 C   0  0  2  0  0  0  0  0  0  0  0  0
    4.3882   -4.9756    0.5275 C   0  0  1  0  0  0  0  0  0  0  0  0
    3.1602   -5.4238    1.2909 C   0  0  0  0  0  0  0  0  0  0  0  0
    3.0454   -5.5379    2.6543 C   0  0  0  0  0  0  0  0  0  0  0  0
    1.4791   -6.1277    3.1315 S   0  0  0  0  0  0  0  0  0  0  0  0
    0.9765   -6.2569    1.4734 C   0  0  0  0  0  0  0  0  0  0  0  0
   -0.2898   -6.6803    1.2847 O   0  0  0  0  0  0  0  0  0  0  0  0
    1.9723   -5.8536    0.6191 C   0  0  0  0  0  0  0  0  0  0  0  0
    4.1195   -3.9807   -0.6358 C   0  0  1  0  0  0  0  0  0  0  0  0
    3.1295   -2.7933   -0.3205 C   0  0  0  0  0  0  0  0  0  0  0  0
    3.9249   -1.4776   -0.0523 C   0  0  2  0  0  0  0  0  0  0  0  0
    4.6617   -1.1711   -1.3410 C   0  0  0  0  0  0  0  0  0  0  0  0
    5.4443   -2.1688   -1.7731 C   0  0  0  0  0  0  0  0  0  0  0  0
    5.5175   -3.3873   -0.8682 C   0  0  1  0  0  0  0  0  0  0  0  0
    5.7971   -3.0095    0.5762 C   0  0  2  0  0  0  0  0  0  0  0  0
    6.4633   -1.7320    1.0113 C   0  0  0  0  0  0  0  0  0  0  0  0
    4.9463   -1.8171    1.0312 C   0  0  1  0  0  0  0  0  0  0  0  0
    7.1926   -5.4990    0.6412 H   0  0  0  0  0  0  0  0  0  0  0  0
    6.4650   -6.0640    2.1451 H   0  0  0  0  0  0  0  0  0  0  0  0
    7.5009   -4.6551    2.1507 H   0  0  0  0  0  0  0  0  0  0  0  0
    5.1390   -3.9674    2.3277 H   0  0  0  0  0  0  0  0  0  0  0  0
    4.8279   -5.8628    0.0671 H   0  0  0  0  0  0  0  0  0  0  0  0
    3.7745   -5.3322    3.4197 H   0  0  0  0  0  0  0  0  0  0  0  0
    1.8874   -5.8400   -0.4589 H   0  0  0  0  0  0  0  0  0  0  0  0
    3.7850   -4.5015   -1.5199 H   0  0  0  0  0  0  0  0  0  0  0  0
    2.4900   -2.6424   -1.1903 H   0  0  0  0  0  0  0  0  0  0  0  0
    2.4576   -3.0142    0.5086 H   0  0  0  0  0  0  0  0  0  0  0  0
    3.2888   -0.6490    0.2505 H   0  0  0  0  0  0  0  0  0  0  0  0
    4.5041   -0.2336   -1.8498 H   0  0  0  0  0  0  0  0  0  0  0  0
    6.0123   -2.1546   -2.6908 H   0  0  0  0  0  0  0  0  0  0  0  0
    6.2231   -4.1235   -1.2376 H   0  0  0  0  0  0  0  0  0  0  0  0
    6.9465   -1.7417    1.9805 H   0  0  0  0  0  0  0  0  0  0  0  0
    6.9188   -1.0818    0.2672 H   0  0  0  0  0  0  0  0  0  0  0  0
    4.5023   -1.8874    2.0175 H   0  0  0  0  0  0  0  0  0  0  0  0
  1  2  1  0
  1 19  1  0
  1 20  1  0
  1 21  1  0
  2 16  1  0
  2  3  1  0
  2 22  1  1
  3  4  1  0
  3 10  1  0
  3 23  1  6
  4  9  1  0
  4  5  2  0
  5  6  1  0
  5 24  1  0
  6  7  1  0
  7  8  1  0
  7  9  2  0
  9 25  1  0
 10 15  1  0
 10 11  1  0
 10 26  1  6
 11 12  1  0
 11 27  1  0
 11 28  1  0
 12 18  1  0
 12 13  1  0
 12 29  1  1
 13 14  2  0
 13 30  1  0
 14 15  1  0
 14 31  1  0
 15 16  1  0
 15 32  1  6
 16 18  1  0
 16 17  1  6
 17 18  1  0
 17 33  1  0
 17 34  1  0
 18 35  1  1
M  CHG  1   8  -1
M  END
>  <i_m_ct_stereo_status>  (94) 
1

>  <s_m_source_file>  (94) 
/var/tmp/pbs.5076255.sched01/tmpmalnbme9/37wob9dpop.sdf

>  <i_m_source_file_index>  (94) 
8

>  <i_lp_mmshare_version>  (94) 
48012

>  <i_f3d_flags>  (94) 
0

>  <s_epik_input>  (94) 
W0NIXTE9W0NIXVtDQEhdKFtDQEBIXTJbQ0gyXTMpW0NIMl1bQ0BASF0oW0NAQEhdMVtDQF0yMzQpW0NAQEhdKFtDQEhdNFtDSDNdKWM1W2NIXXNjKFtPSF0pW2NIXTU=

>  <s_epik_cmdline>  (94) 
J2VwaWtfcHl0aG9uJywgJy1waHQnLCAnMi4wJywgJy1waCcsICc3LjAnLCAnLXRuJywgJzgnLCAnLW1hJywgJzIwMCcsICctaW1hZScsICc8aW5maWxlLm1hZT4nLCAnLW9tYWUnLCAnPG91dGZpbGUubWFlPic=

>  <r_epik_Ionization_Penalty>  (94) 
1.44489

>  <r_epik_Ionization_Penalty_Charging>  (94) 
1.44489

>  <r_epik_Ionization_Penalty_Neutral>  (94) 
0

>  <r_epik_State_Penalty>  (94) 
1.5306

>  <r_epik_Charging_Adjusted_Penalty>  (94) 
2.97549

>  <i_epik_Tot_Q>  (94) 
-1

>  <i_epik_Tot_abs_Q>  (94) 
1

>  <s_lp_Force_Field>  (94) 
OPLS3e

>  <r_lp_Energy>  (94) 
59.8248

>  <b_lp_Chiralities_Consistent>  (94) 
1

>  <s_lp_Variant>  (94) 
33:0-2

>  <s_i_glide_gridfile>  (94) 
pfpi4k_grid

>  <i_i_glide_lignum>  (94) 
8

>  <i_i_glide_rotatable_bonds>  (94) 
1

>  <r_i_docking_score>  (94) 
-2.99256

>  <r_i_glide_ligand_efficiency>  (94) 
-0.166253

>  <r_i_glide_ligand_efficiency_sa>  (94) 
-0.435707

>  <r_i_glide_ligand_efficiency_ln>  (94) 
-0.769222

>  <r_i_glide_gscore>  (94) 
-2.99256

>  <r_i_glide_lipo>  (94) 
-0.451

>  <r_i_glide_hbond>  (94) 
-0.284128

>  <r_i_glide_metal>  (94) 
-0

>  <r_i_glide_rewards>  (94) 
-1.65428

>  <r_i_glide_evdw>  (94) 
-19.0733

>  <r_i_glide_ecoul>  (94) 
0.560995

>  <r_i_glide_erotb>  (94) 
0.26637

>  <r_i_glide_esite>  (94) 
0

>  <r_i_glide_emodel>  (94) 
-24.4138

>  <r_i_glide_energy>  (94) 
-18.5123

>  <r_i_glide_einternal>  (94) 
0.163751

>  <r_i_glide_intrahb_reward>  (94) 
-0

>  <i_i_glide_confnum>  (94) 
4

>  <i_i_glide_posenum>  (94) 
1

>  <r_i_glide_eff_state_penalty>  (94) 
0

>  <ligand_id>  (94) 
33

>  <original_smiles>  (94) 
CC1C(c2csc(O)c2)C2CC3C=CC2C12CC32

>  <smiles>  (94) 
[H]C1=C([H])C2([H])C3([H])C([H])([H])C1([H])C1([H])C([H])([H])C21C([H])(C([H])([H])[H])C3([H])c1c([H])sc([O-])c1[H]

$$$$
33:1:2
     RDKit          3D

 35 39  0  0  1  0  0  0  0  0999 V2000
    5.1965   -5.9018    0.5224 C   0  0  0  0  0  0  0  0  0  0  0  0
    4.9718   -4.3973    0.7589 C   0  0  2  0  0  0  0  0  0  0  0  0
    3.4677   -3.9905    0.8374 C   0  0  1  0  0  0  0  0  0  0  0  0
    2.9371   -3.6721    2.2215 C   0  0  0  0  0  0  0  0  0  0  0  0
    2.0206   -2.6841    2.5114 C   0  0  0  0  0  0  0  0  0  0  0  0
    1.5807   -2.6331    4.1913 S   0  0  0  0  0  0  0  0  0  0  0  0
    2.6331   -3.9764    4.5259 C   0  0  0  0  0  0  0  0  0  0  0  0
    2.6527   -4.3883    5.8060 O   0  0  0  0  0  0  0  0  0  0  0  0
    3.2718   -4.4191    3.3948 C   0  0  0  0  0  0  0  0  0  0  0  0
    3.3220   -2.8636   -0.2302 C   0  0  1  0  0  0  0  0  0  0  0  0
    3.7549   -1.4074    0.2317 C   0  0  0  0  0  0  0  0  0  0  0  0
    5.1687   -1.0563   -0.3016 C   0  0  2  0  0  0  0  0  0  0  0  0
    5.0320   -1.0677   -1.8083 C   0  0  0  0  0  0  0  0  0  0  0  0
    4.5887   -2.2234   -2.3224 C   0  0  0  0  0  0  0  0  0  0  0  0
    4.3276   -3.3303   -1.3028 C   0  0  1  0  0  0  0  0  0  0  0  0
    5.5202   -3.5336   -0.3676 C   0  0  2  0  0  0  0  0  0  0  0  0
    6.9435   -3.1425   -0.6881 C   0  0  0  0  0  0  0  0  0  0  0  0
    6.0848   -2.2014    0.1430 C   0  0  1  0  0  0  0  0  0  0  0  0
    4.7264   -6.2557   -0.3972 H   0  0  0  0  0  0  0  0  0  0  0  0
    4.7929   -6.4911    1.3470 H   0  0  0  0  0  0  0  0  0  0  0  0
    6.2607   -6.1347    0.4631 H   0  0  0  0  0  0  0  0  0  0  0  0
    5.4821   -4.1245    1.6834 H   0  0  0  0  0  0  0  0  0  0  0  0
    2.8910   -4.8370    0.4604 H   0  0  0  0  0  0  0  0  0  0  0  0
    1.5724   -1.9749    1.8305 H   0  0  0  0  0  0  0  0  0  0  0  0
    3.9591   -5.2585    3.3608 H   0  0  0  0  0  0  0  0  0  0  0  0
    2.2994   -2.8411   -0.6116 H   0  0  0  0  0  0  0  0  0  0  0  0
    3.0297   -0.6910   -0.1636 H   0  0  0  0  0  0  0  0  0  0  0  0
    3.7574   -1.2716    1.3100 H   0  0  0  0  0  0  0  0  0  0  0  0
    5.5275   -0.0962    0.0761 H   0  0  0  0  0  0  0  0  0  0  0  0
    5.2512   -0.1819   -2.3830 H   0  0  0  0  0  0  0  0  0  0  0  0
    4.4175   -2.3958   -3.3735 H   0  0  0  0  0  0  0  0  0  0  0  0
    4.0447   -4.2589   -1.7883 H   0  0  0  0  0  0  0  0  0  0  0  0
    7.7301   -3.6827   -0.1660 H   0  0  0  0  0  0  0  0  0  0  0  0
    7.1973   -2.8332   -1.7015 H   0  0  0  0  0  0  0  0  0  0  0  0
    6.3492   -2.1438    1.1996 H   0  0  0  0  0  0  0  0  0  0  0  0
  1  2  1  0
  1 19  1  0
  1 20  1  0
  1 21  1  0
  2 16  1  0
  2  3  1  0
  2 22  1  1
  3  4  1  0
  3 10  1  0
  3 23  1  6
  4  9  1  0
  4  5  2  0
  5  6  1  0
  5 24  1  0
  6  7  1  0
  7  8  1  0
  7  9  2  0
  9 25  1  0
 10 15  1  0
 10 11  1  0
 10 26  1  6
 11 12  1  0
 11 27  1  0
 11 28  1  0
 12 18  1  0
 12 13  1  0
 12 29  1  1
 13 14  2  0
 13 30  1  0
 14 15  1  0
 14 31  1  0
 15 16  1  0
 15 32  1  6
 16 18  1  0
 16 17  1  6
 17 18  1  0
 17 33  1  0
 17 34  1  0
 18 35  1  1
M  CHG  1   8  -1
M  END
>  <i_m_ct_stereo_status>  (95) 
1

>  <s_m_source_file>  (95) 
/var/tmp/pbs.5076255.sched01/tmpmalnbme9/37wob9dpop.sdf

>  <i_m_source_file_index>  (95) 
8

>  <i_lp_mmshare_version>  (95) 
48012

>  <i_f3d_flags>  (95) 
0

>  <s_epik_input>  (95) 
W0NIXTE9W0NIXVtDQEhdKFtDQEBIXTJbQ0gyXTMpW0NIMl1bQ0BASF0oW0NAQEhdMVtDQF0yMzQpW0NAQEhdKFtDQEhdNFtDSDNdKWM1W2NIXXNjKFtPSF0pW2NIXTU=

>  <s_epik_cmdline>  (95) 
J2VwaWtfcHl0aG9uJywgJy1waHQnLCAnMi4wJywgJy1waCcsICc3LjAnLCAnLXRuJywgJzgnLCAnLW1hJywgJzIwMCcsICctaW1hZScsICc8aW5maWxlLm1hZT4nLCAnLW9tYWUnLCAnPG91dGZpbGUubWFlPic=

>  <r_epik_Ionization_Penalty>  (95) 
1.44489

>  <r_epik_Ionization_Penalty_Charging>  (95) 
1.44489

>  <r_epik_Ionization_Penalty_Neutral>  (95) 
0

>  <r_epik_State_Penalty>  (95) 
1.5306

>  <r_epik_Charging_Adjusted_Penalty>  (95) 
2.97549

>  <i_epik_Tot_Q>  (95) 
-1

>  <i_epik_Tot_abs_Q>  (95) 
1

>  <s_lp_Force_Field>  (95) 
OPLS3e

>  <r_lp_Energy>  (95) 
59.8248

>  <b_lp_Chiralities_Consistent>  (95) 
1

>  <s_lp_Variant>  (95) 
33:0-2

>  <s_i_glide_gridfile>  (95) 
pfpi4k_grid

>  <i_i_glide_lignum>  (95) 
8

>  <i_i_glide_rotatable_bonds>  (95) 
1

>  <r_i_docking_score>  (95) 
-2.58452

>  <r_i_glide_ligand_efficiency>  (95) 
-0.143584

>  <r_i_glide_ligand_efficiency_sa>  (95) 
-0.376297

>  <r_i_glide_ligand_efficiency_ln>  (95) 
-0.664337

>  <r_i_glide_gscore>  (95) 
-2.58452

>  <r_i_glide_lipo>  (95) 
-0.4024

>  <r_i_glide_hbond>  (95) 
0

>  <r_i_glide_metal>  (95) 
-0

>  <r_i_glide_rewards>  (95) 
-1.65428

>  <r_i_glide_evdw>  (95) 
-20.3934

>  <r_i_glide_ecoul>  (95) 
1.50311

>  <r_i_glide_erotb>  (95) 
0.26637

>  <r_i_glide_esite>  (95) 
0

>  <r_i_glide_emodel>  (95) 
-23.5485

>  <r_i_glide_energy>  (95) 
-18.8903

>  <r_i_glide_einternal>  (95) 
0.816994

>  <r_i_glide_intrahb_reward>  (95) 
-0

>  <i_i_glide_confnum>  (95) 
3

>  <i_i_glide_posenum>  (95) 
4

>  <r_i_glide_eff_state_penalty>  (95) 
0

>  <ligand_id>  (95) 
33

>  <original_smiles>  (95) 
CC1C(c2csc(O)c2)C2CC3C=CC2C12CC32

>  <smiles>  (95) 
[H]C1=C([H])C2([H])C3([H])C([H])([H])C1([H])C1([H])C([H])([H])C21C([H])(C([H])([H])[H])C3([H])c1c([H])sc([O-])c1[H]

$$$$
34:0:0
     RDKit          3D

 51 55  0  0  1  0  0  0  0  0999 V2000
    6.5976   -3.2934    1.6656 C   0  0  0  0  0  0  0  0  0  0  0  0
    5.7953   -2.9287    0.3994 C   0  0  0  0  0  0  0  0  0  0  0  0
    6.6551   -1.8446   -0.2885 C   0  0  0  0  0  0  0  0  0  0  0  0
    5.5634   -4.1539   -0.4848 C   0  0  2  0  0  0  0  0  0  0  0  0
    4.9939   -3.7786   -1.8767 C   0  0  0  0  0  0  0  0  0  0  0  0
    3.9468   -2.6093   -1.8795 C   0  0  0  0  0  0  0  0  0  0  0  0
    3.6896   -1.8463   -0.5346 C   0  0  0  0  0  0  0  0  0  0  0  0
    4.3766   -2.4327    0.7143 C   0  0  1  0  0  0  0  0  0  0  0  0
    3.4675   -3.4624    1.4670 C   0  0  2  0  0  0  0  0  0  0  0  0
    3.7887   -3.6217    2.9426 C   0  0  0  0  0  0  0  0  0  0  0  0
    4.0236   -2.6818    3.7033 O   0  0  0  0  0  0  0  0  0  0  0  0
    3.8112   -4.9129    3.2547 O   0  0  0  0  0  0  0  0  0  0  0  0
    3.2641   -5.7515    2.2537 C   0  0  1  0  0  0  0  0  0  0  0  0
    1.8297   -6.1617    2.6182 C   0  0  0  0  0  0  0  0  0  0  0  0
    0.9901   -7.1582    2.0198 C   0  0  0  0  0  0  0  0  0  0  0  0
   -0.1901   -7.1540    2.7136 C   0  0  0  0  0  0  0  0  0  0  0  0
   -0.1456   -6.2564    3.7240 O   0  0  0  0  0  0  0  0  0  0  0  0
    1.0808   -5.6688    3.6519 C   0  0  0  0  0  0  0  0  0  0  0  0
    3.4665   -4.9204    0.9456 C   0  0  1  0  0  0  0  0  0  0  0  0
    2.3049   -5.1619   -0.0303 C   0  0  0  0  0  0  0  0  0  0  0  0
    4.8188   -5.3056    0.2548 C   0  0  0  0  0  0  0  0  0  0  0  0
    2.7186   -3.1115   -2.2877 O   0  0  0  0  0  0  0  0  0  0  0  0
    2.4649   -2.6546   -3.5855 C   0  0  0  0  0  0  0  0  0  0  0  0
    3.2085   -1.3319   -3.5705 C   0  0  0  0  0  0  0  0  0  0  0  0
    4.3629   -1.6849   -2.8442 O   0  0  0  0  0  0  0  0  0  0  0  0
    7.6413   -3.5056    1.4067 H   0  0  0  0  0  0  0  0  0  0  0  0
    6.2381   -4.1626    2.2055 H   0  0  0  0  0  0  0  0  0  0  0  0
    6.5736   -2.4382    2.3357 H   0  0  0  0  0  0  0  0  0  0  0  0
    6.2318   -1.4689   -1.2142 H   0  0  0  0  0  0  0  0  0  0  0  0
    7.6531   -2.2158   -0.5261 H   0  0  0  0  0  0  0  0  0  0  0  0
    6.7727   -0.9800    0.3670 H   0  0  0  0  0  0  0  0  0  0  0  0
    6.5477   -4.5569   -0.7013 H   0  0  0  0  0  0  0  0  0  0  0  0
    5.8262   -3.4655   -2.5167 H   0  0  0  0  0  0  0  0  0  0  0  0
    4.6009   -4.6584   -2.3837 H   0  0  0  0  0  0  0  0  0  0  0  0
    4.0123   -0.8153   -0.6634 H   0  0  0  0  0  0  0  0  0  0  0  0
    2.6234   -1.8215   -0.3446 H   0  0  0  0  0  0  0  0  0  0  0  0
    4.4860   -1.5871    1.3940 H   0  0  0  0  0  0  0  0  0  0  0  0
    2.4453   -3.0809    1.4737 H   0  0  0  0  0  0  0  0  0  0  0  0
    3.8263   -6.6789    2.1817 H   0  0  0  0  0  0  0  0  0  0  0  0
    1.2010   -7.8121    1.1868 H   0  0  0  0  0  0  0  0  0  0  0  0
   -1.1039   -7.7184    2.6263 H   0  0  0  0  0  0  0  0  0  0  0  0
    1.2733   -4.9333    4.4225 H   0  0  0  0  0  0  0  0  0  0  0  0
    2.0488   -6.2198   -0.1339 H   0  0  0  0  0  0  0  0  0  0  0  0
    2.5711   -4.8804   -1.0259 H   0  0  0  0  0  0  0  0  0  0  0  0
    1.4257   -4.5891    0.2064 H   0  0  0  0  0  0  0  0  0  0  0  0
    4.6548   -6.1190   -0.4501 H   0  0  0  0  0  0  0  0  0  0  0  0
    5.4840   -5.7403    0.9974 H   0  0  0  0  0  0  0  0  0  0  0  0
    2.8895   -3.3469   -4.3122 H   0  0  0  0  0  0  0  0  0  0  0  0
    1.3966   -2.5642   -3.7724 H   0  0  0  0  0  0  0  0  0  0  0  0
    3.4482   -0.9602   -4.5654 H   0  0  0  0  0  0  0  0  0  0  0  0
    2.6496   -0.5684   -3.0252 H   0  0  0  0  0  0  0  0  0  0  0  0
  1  2  1  0
  1 26  1  0
  1 27  1  0
  1 28  1  0
  2  8  1  0
  2  3  1  0
  2  4  1  0
  3 29  1  0
  3 30  1  0
  3 31  1  0
  4 21  1  0
  4  5  1  0
  4 32  1  6
  5  6  1  0
  5 33  1  0
  5 34  1  0
  6 25  1  0
  6  7  1  0
  6 22  1  0
  7  8  1  0
  7 35  1  0
  7 36  1  0
  8  9  1  0
  8 37  1  1
  9 19  1  0
  9 10  1  0
  9 38  1  1
 10 11  2  0
 10 12  1  0
 12 13  1  0
 13 14  1  0
 13 19  1  0
 13 39  1  6
 14 18  2  0
 14 15  1  0
 15 16  2  0
 15 40  1  0
 16 17  1  0
 16 41  1  0
 17 18  1  0
 18 42  1  0
 19 20  1  6
 19 21  1  0
 20 43  1  0
 20 44  1  0
 20 45  1  0
 21 46  1  0
 21 47  1  0
 22 23  1  0
 23 24  1  0
 23 48  1  0
 23 49  1  0
 24 25  1  0
 24 50  1  0
 24 51  1  0
M  END
>  <i_m_ct_stereo_status>  (96) 
1

>  <s_m_source_file>  (96) 
/var/tmp/pbs.5076255.sched01/tmpmalnbme9/37wob9dpop.sdf

>  <i_m_source_file_index>  (96) 
9

>  <i_lp_mmshare_version>  (96) 
48012

>  <i_f3d_flags>  (96) 
0

>  <s_epik_input>  (96) 
TzFbQ0gyXVtDSDJdT0MxMltDSDJdW0NASF0zQyhbQ0gzXSkoW0NIM10pW0NAQEhdKFtDSDJdMilbQ0BIXTRbQ0BAXShbQ0gzXSkoW0NIMl0zKVtDQEBIXShPQzQ9TyljNVtjSF1bY0hdb1tjSF01

>  <s_epik_cmdline>  (96) 
J2VwaWtfcHl0aG9uJywgJy1waHQnLCAnMi4wJywgJy1waCcsICc3LjAnLCAnLXRuJywgJzgnLCAnLW1hJywgJzIwMCcsICctaW1hZScsICc8aW5maWxlLm1hZT4nLCAnLW9tYWUnLCAnPG91dGZpbGUubWFlPic=

>  <r_lp_tautomer_probability>  (96) 
1

>  <r_epik_Ionization_Penalty>  (96) 
4.17566e-13

>  <r_epik_Ionization_Penalty_Charging>  (96) 
0

>  <r_epik_Ionization_Penalty_Neutral>  (96) 
4.17566e-13

>  <r_epik_State_Penalty>  (96) 
-0

>  <r_epik_Charging_Adjusted_Penalty>  (96) 
0

>  <i_epik_Tot_Q>  (96) 
0

>  <i_epik_Tot_abs_Q>  (96) 
0

>  <s_epik_Chemistry_Notes>  (96) 
This compound has an ester and may undergo hydrolysis at high or low pH.

>  <s_lp_Force_Field>  (96) 
OPLS3e

>  <r_lp_Energy>  (96) 
40.9199

>  <b_lp_Chiralities_Consistent>  (96) 
1

>  <s_lp_Variant>  (96) 
34:0-1

>  <s_i_glide_gridfile>  (96) 
pfpi4k_grid

>  <i_i_glide_lignum>  (96) 
9

>  <i_i_glide_rotatable_bonds>  (96) 
1

>  <r_i_docking_score>  (96) 
-3.01153

>  <r_i_glide_ligand_efficiency>  (96) 
-0.120461

>  <r_i_glide_ligand_efficiency_sa>  (96) 
-0.352231

>  <r_i_glide_ligand_efficiency_ln>  (96) 
-0.713823

>  <r_i_glide_gscore>  (96) 
-3.01153

>  <r_i_glide_lipo>  (96) 
-0.69407

>  <r_i_glide_hbond>  (96) 
-0.0706998

>  <r_i_glide_metal>  (96) 
-0

>  <r_i_glide_rewards>  (96) 
-1.04798

>  <r_i_glide_evdw>  (96) 
-23.5554

>  <r_i_glide_ecoul>  (96) 
-1.07741

>  <r_i_glide_erotb>  (96) 
0.158426

>  <r_i_glide_esite>  (96) 
-0.0178269

>  <r_i_glide_emodel>  (96) 
-29.1552

>  <r_i_glide_energy>  (96) 
-24.6328

>  <r_i_glide_einternal>  (96) 
0.277783

>  <r_i_glide_intrahb_reward>  (96) 
-0

>  <i_i_glide_confnum>  (96) 
3

>  <i_i_glide_posenum>  (96) 
2

>  <r_i_glide_eff_state_penalty>  (96) 
0

>  <ligand_id>  (96) 
34

>  <original_smiles>  (96) 
CC1(C)C2CC3(CC1C1C(=O)OC(c4ccoc4)C1(C)C2)OCCO3

>  <smiles>  (96) 
[H]c1oc([H])c(C2([H])OC(=O)C3([H])C4([H])C([H])([H])C5(OC([H])([H])C([H])([H])O5)C([H])([H])C([H])(C([H])([H])C23C([H])([H])[H])C4(C([H])([H])[H])C([H])([H])[H])c1[H]

$$$$
34:0:1
     RDKit          3D

 51 55  0  0  1  0  0  0  0  0999 V2000
    5.5083   -4.8421    3.5886 C   0  0  0  0  0  0  0  0  0  0  0  0
    4.8859   -4.1802    2.3295 C   0  0  0  0  0  0  0  0  0  0  0  0
    5.8100   -2.9664    2.0441 C   0  0  0  0  0  0  0  0  0  0  0  0
    4.8249   -5.1747    1.1571 C   0  0  2  0  0  0  0  0  0  0  0  0
    4.4624   -4.4836   -0.1746 C   0  0  0  0  0  0  0  0  0  0  0  0
    3.4083   -3.3188   -0.1006 C   0  0  0  0  0  0  0  0  0  0  0  0
    2.9051   -2.8843    1.3204 C   0  0  0  0  0  0  0  0  0  0  0  0
    3.4082   -3.7535    2.5023 C   0  0  1  0  0  0  0  0  0  0  0  0
    2.4063   -4.9078    2.8196 C   0  0  2  0  0  0  0  0  0  0  0  0
    2.4954   -5.4067    4.2586 C   0  0  0  0  0  0  0  0  0  0  0  0
    2.5912   -4.6813    5.2417 O   0  0  0  0  0  0  0  0  0  0  0  0
    2.4799   -6.7284    4.2666 O   0  0  0  0  0  0  0  0  0  0  0  0
    2.1345   -7.3013    3.0209 C   0  0  1  0  0  0  0  0  0  0  0  0
    0.6752   -7.7442    3.0492 C   0  0  0  0  0  0  0  0  0  0  0  0
    0.1243   -8.9597    2.5499 C   0  0  0  0  0  0  0  0  0  0  0  0
   -1.2119   -8.9403    2.8430 C   0  0  0  0  0  0  0  0  0  0  0  0
   -1.5465   -7.7845    3.4729 O   0  0  0  0  0  0  0  0  0  0  0  0
   -0.3922   -7.0781    3.5901 C   0  0  0  0  0  0  0  0  0  0  0  0
    2.5229   -6.2048    1.9710 C   0  0  1  0  0  0  0  0  0  0  0  0
    1.5433   -6.2538    0.7768 C   0  0  0  0  0  0  0  0  0  0  0  0
    3.9800   -6.4487    1.4638 C   0  0  0  0  0  0  0  0  0  0  0  0
    2.2945   -3.6789   -0.8501 O   0  0  0  0  0  0  0  0  0  0  0  0
    2.4341   -3.1137   -2.1443 C   0  0  0  0  0  0  0  0  0  0  0  0
    3.7670   -2.3861   -2.1080 C   0  0  0  0  0  0  0  0  0  0  0  0
    3.9621   -2.1976   -0.7222 O   0  0  0  0  0  0  0  0  0  0  0  0
    6.5694   -5.0532    3.4392 H   0  0  0  0  0  0  0  0  0  0  0  0
    5.0686   -5.7983    3.8640 H   0  0  0  0  0  0  0  0  0  0  0  0
    5.4151   -4.1797    4.4547 H   0  0  0  0  0  0  0  0  0  0  0  0
    5.5303   -2.3800    1.1750 H   0  0  0  0  0  0  0  0  0  0  0  0
    6.8335   -3.2967    1.8763 H   0  0  0  0  0  0  0  0  0  0  0  0
    5.8070   -2.2835    2.8939 H   0  0  0  0  0  0  0  0  0  0  0  0
    5.8390   -5.5460    1.0007 H   0  0  0  0  0  0  0  0  0  0  0  0
    5.3896   -4.0631   -0.5620 H   0  0  0  0  0  0  0  0  0  0  0  0
    4.1673   -5.2187   -0.9216 H   0  0  0  0  0  0  0  0  0  0  0  0
    3.2330   -1.8572    1.4868 H   0  0  0  0  0  0  0  0  0  0  0  0
    1.8180   -2.8292    1.3204 H   0  0  0  0  0  0  0  0  0  0  0  0
    3.3850   -3.0852    3.3642 H   0  0  0  0  0  0  0  0  0  0  0  0
    1.3948   -4.5209    2.7651 H   0  0  0  0  0  0  0  0  0  0  0  0
    2.7183   -8.2056    2.8303 H   0  0  0  0  0  0  0  0  0  0  0  0
    0.6396   -9.7777    2.0710 H   0  0  0  0  0  0  0  0  0  0  0  0
   -2.0162   -9.6451    2.7098 H   0  0  0  0  0  0  0  0  0  0  0  0
   -0.4888   -6.1444    4.1227 H   0  0  0  0  0  0  0  0  0  0  0  0
    1.2701   -7.2694    0.4975 H   0  0  0  0  0  0  0  0  0  0  0  0
    1.9640   -5.8261   -0.1242 H   0  0  0  0  0  0  0  0  0  0  0  0
    0.6157   -5.7520    1.0137 H   0  0  0  0  0  0  0  0  0  0  0  0
    3.9614   -7.0763    0.5721 H   0  0  0  0  0  0  0  0  0  0  0  0
    4.5200   -7.0553    2.1930 H   0  0  0  0  0  0  0  0  0  0  0  0
    2.4162   -3.8673   -2.9249 H   0  0  0  0  0  0  0  0  0  0  0  0
    1.6077   -2.4375   -2.3377 H   0  0  0  0  0  0  0  0  0  0  0  0
    4.5648   -3.0115   -2.5091 H   0  0  0  0  0  0  0  0  0  0  0  0
    3.7623   -1.4495   -2.6630 H   0  0  0  0  0  0  0  0  0  0  0  0
  1  2  1  0
  1 26  1  0
  1 27  1  0
  1 28  1  0
  2  8  1  0
  2  3  1  0
  2  4  1  0
  3 29  1  0
  3 30  1  0
  3 31  1  0
  4 21  1  0
  4  5  1  0
  4 32  1  6
  5  6  1  0
  5 33  1  0
  5 34  1  0
  6 25  1  0
  6  7  1  0
  6 22  1  0
  7  8  1  0
  7 35  1  0
  7 36  1  0
  8  9  1  0
  8 37  1  1
  9 19  1  0
  9 10  1  0
  9 38  1  1
 10 11  2  0
 10 12  1  0
 12 13  1  0
 13 14  1  0
 13 19  1  0
 13 39  1  6
 14 18  2  0
 14 15  1  0
 15 16  2  0
 15 40  1  0
 16 17  1  0
 16 41  1  0
 17 18  1  0
 18 42  1  0
 19 20  1  6
 19 21  1  0
 20 43  1  0
 20 44  1  0
 20 45  1  0
 21 46  1  0
 21 47  1  0
 22 23  1  0
 23 24  1  0
 23 48  1  0
 23 49  1  0
 24 25  1  0
 24 50  1  0
 24 51  1  0
M  END
>  <i_m_ct_stereo_status>  (97) 
1

>  <s_m_source_file>  (97) 
/var/tmp/pbs.5076255.sched01/tmpmalnbme9/37wob9dpop.sdf

>  <i_m_source_file_index>  (97) 
9

>  <i_lp_mmshare_version>  (97) 
48012

>  <i_f3d_flags>  (97) 
0

>  <s_epik_input>  (97) 
TzFbQ0gyXVtDSDJdT0MxMltDSDJdW0NASF0zQyhbQ0gzXSkoW0NIM10pW0NAQEhdKFtDSDJdMilbQ0BIXTRbQ0BAXShbQ0gzXSkoW0NIMl0zKVtDQEBIXShPQzQ9TyljNVtjSF1bY0hdb1tjSF01

>  <s_epik_cmdline>  (97) 
J2VwaWtfcHl0aG9uJywgJy1waHQnLCAnMi4wJywgJy1waCcsICc3LjAnLCAnLXRuJywgJzgnLCAnLW1hJywgJzIwMCcsICctaW1hZScsICc8aW5maWxlLm1hZT4nLCAnLW9tYWUnLCAnPG91dGZpbGUubWFlPic=

>  <r_lp_tautomer_probability>  (97) 
1

>  <r_epik_Ionization_Penalty>  (97) 
4.17566e-13

>  <r_epik_Ionization_Penalty_Charging>  (97) 
0

>  <r_epik_Ionization_Penalty_Neutral>  (97) 
4.17566e-13

>  <r_epik_State_Penalty>  (97) 
-0

>  <r_epik_Charging_Adjusted_Penalty>  (97) 
0

>  <i_epik_Tot_Q>  (97) 
0

>  <i_epik_Tot_abs_Q>  (97) 
0

>  <s_epik_Chemistry_Notes>  (97) 
This compound has an ester and may undergo hydrolysis at high or low pH.

>  <s_lp_Force_Field>  (97) 
OPLS3e

>  <r_lp_Energy>  (97) 
40.9199

>  <b_lp_Chiralities_Consistent>  (97) 
1

>  <s_lp_Variant>  (97) 
34:0-1

>  <s_i_glide_gridfile>  (97) 
pfpi4k_grid

>  <i_i_glide_lignum>  (97) 
9

>  <i_i_glide_rotatable_bonds>  (97) 
1

>  <r_i_docking_score>  (97) 
-2.51099

>  <r_i_glide_ligand_efficiency>  (97) 
-0.10044

>  <r_i_glide_ligand_efficiency_sa>  (97) 
-0.293687

>  <r_i_glide_ligand_efficiency_ln>  (97) 
-0.59518

>  <r_i_glide_gscore>  (97) 
-2.51099

>  <r_i_glide_lipo>  (97) 
-0.23758

>  <r_i_glide_hbond>  (97) 
0

>  <r_i_glide_metal>  (97) 
-0

>  <r_i_glide_rewards>  (97) 
-1.07156

>  <r_i_glide_evdw>  (97) 
-25.5342

>  <r_i_glide_ecoul>  (97) 
-0.557109

>  <r_i_glide_erotb>  (97) 
0.158426

>  <r_i_glide_esite>  (97) 
-5.42111e-06

>  <r_i_glide_emodel>  (97) 
-30.0793

>  <r_i_glide_energy>  (97) 
-26.0913

>  <r_i_glide_einternal>  (97) 
9.70647e-05

>  <r_i_glide_intrahb_reward>  (97) 
-0

>  <i_i_glide_confnum>  (97) 
1

>  <i_i_glide_posenum>  (97) 
11

>  <r_i_glide_eff_state_penalty>  (97) 
0

>  <ligand_id>  (97) 
34

>  <original_smiles>  (97) 
CC1(C)C2CC3(CC1C1C(=O)OC(c4ccoc4)C1(C)C2)OCCO3

>  <smiles>  (97) 
[H]c1oc([H])c(C2([H])OC(=O)C3([H])C4([H])C([H])([H])C5(OC([H])([H])C([H])([H])O5)C([H])([H])C([H])(C([H])([H])C23C([H])([H])[H])C4(C([H])([H])[H])C([H])([H])[H])c1[H]

$$$$
34:0:2
     RDKit          3D

 51 55  0  0  1  0  0  0  0  0999 V2000
    5.0948   -7.2913    1.9677 C   0  0  0  0  0  0  0  0  0  0  0  0
    3.5674   -7.5273    2.1191 C   0  0  0  0  0  0  0  0  0  0  0  0
    3.3791   -9.0045    1.6693 C   0  0  0  0  0  0  0  0  0  0  0  0
    3.0965   -7.2708    3.5638 C   0  0  2  0  0  0  0  0  0  0  0  0
    1.6412   -7.7334    3.8118 C   0  0  0  0  0  0  0  0  0  0  0  0
    0.6342   -7.5252    2.6233 C   0  0  0  0  0  0  0  0  0  0  0  0
    1.1986   -6.9669    1.2787 C   0  0  0  0  0  0  0  0  0  0  0  0
    2.6937   -6.5471    1.2971 C   0  0  1  0  0  0  0  0  0  0  0  0
    2.8502   -5.0350    1.6607 C   0  0  2  0  0  0  0  0  0  0  0  0
    4.1479   -4.4099    1.1511 C   0  0  0  0  0  0  0  0  0  0  0  0
    4.6184   -4.5945    0.0353 O   0  0  0  0  0  0  0  0  0  0  0  0
    4.6876   -3.6732    2.1115 O   0  0  0  0  0  0  0  0  0  0  0  0
    3.8246   -3.4532    3.2080 C   0  0  1  0  0  0  0  0  0  0  0  0
    3.2247   -2.0574    3.0981 C   0  0  0  0  0  0  0  0  0  0  0  0
    2.5250   -1.5064    1.9831 C   0  0  0  0  0  0  0  0  0  0  0  0
    2.2200   -0.2140    2.3018 C   0  0  0  0  0  0  0  0  0  0  0  0
    2.6737    0.0877    3.5458 O   0  0  0  0  0  0  0  0  0  0  0  0
    3.2691   -1.0422    4.0163 C   0  0  0  0  0  0  0  0  0  0  0  0
    2.8301   -4.6630    3.1672 C   0  0  1  0  0  0  0  0  0  0  0  0
    1.4282   -4.2302    3.6711 C   0  0  0  0  0  0  0  0  0  0  0  0
    3.3793   -5.8213    4.0610 C   0  0  0  0  0  0  0  0  0  0  0  0
   -0.3852   -6.6704    3.0308 O   0  0  0  0  0  0  0  0  0  0  0  0
   -1.4471   -7.4691    3.5199 C   0  0  0  0  0  0  0  0  0  0  0  0
   -0.9876   -8.9060    3.3213 C   0  0  0  0  0  0  0  0  0  0  0  0
    0.0273   -8.7473    2.3571 O   0  0  0  0  0  0  0  0  0  0  0  0
    5.6665   -8.0590    2.4912 H   0  0  0  0  0  0  0  0  0  0  0  0
    5.4463   -6.3441    2.3705 H   0  0  0  0  0  0  0  0  0  0  0  0
    5.3905   -7.3206    0.9162 H   0  0  0  0  0  0  0  0  0  0  0  0
    2.3555   -9.3639    1.7192 H   0  0  0  0  0  0  0  0  0  0  0  0
    3.9724   -9.6810    2.2833 H   0  0  0  0  0  0  0  0  0  0  0  0
    3.7050   -9.1407    0.6372 H   0  0  0  0  0  0  0  0  0  0  0  0
    3.7014   -7.9109    4.2082 H   0  0  0  0  0  0  0  0  0  0  0  0
    1.6977   -8.8044    4.0100 H   0  0  0  0  0  0  0  0  0  0  0  0
    1.2364   -7.3019    4.7285 H   0  0  0  0  0  0  0  0  0  0  0  0
    1.0500   -7.7382    0.5213 H   0  0  0  0  0  0  0  0  0  0  0  0
    0.5735   -6.1416    0.9469 H   0  0  0  0  0  0  0  0  0  0  0  0
    3.0265   -6.6402    0.2641 H   0  0  0  0  0  0  0  0  0  0  0  0
    2.0849   -4.4707    1.1363 H   0  0  0  0  0  0  0  0  0  0  0  0
    4.3928   -3.4791    4.1410 H   0  0  0  0  0  0  0  0  0  0  0  0
    2.2952   -1.9764    1.0398 H   0  0  0  0  0  0  0  0  0  0  0  0
    1.7262    0.5841    1.7698 H   0  0  0  0  0  0  0  0  0  0  0  0
    3.7056   -0.9382    4.9990 H   0  0  0  0  0  0  0  0  0  0  0  0
    1.4962   -3.5293    4.5042 H   0  0  0  0  0  0  0  0  0  0  0  0
    0.8576   -5.0592    4.0696 H   0  0  0  0  0  0  0  0  0  0  0  0
    0.8357   -3.7495    2.8926 H   0  0  0  0  0  0  0  0  0  0  0  0
    2.9969   -5.7175    5.0765 H   0  0  0  0  0  0  0  0  0  0  0  0
    4.4575   -5.7086    4.1803 H   0  0  0  0  0  0  0  0  0  0  0  0
   -1.6560   -7.2429    4.5643 H   0  0  0  0  0  0  0  0  0  0  0  0
   -2.3359   -7.2645    2.9278 H   0  0  0  0  0  0  0  0  0  0  0  0
   -0.5657   -9.3184    4.2386 H   0  0  0  0  0  0  0  0  0  0  0  0
   -1.7783   -9.5764    2.9865 H   0  0  0  0  0  0  0  0  0  0  0  0
  1  2  1  0
  1 26  1  0
  1 27  1  0
  1 28  1  0
  2  8  1  0
  2  3  1  0
  2  4  1  0
  3 29  1  0
  3 30  1  0
  3 31  1  0
  4 21  1  0
  4  5  1  0
  4 32  1  1
  5  6  1  0
  5 33  1  0
  5 34  1  0
  6 25  1  0
  6  7  1  0
  6 22  1  0
  7  8  1  0
  7 35  1  0
  7 36  1  0
  8  9  1  0
  8 37  1  6
  9 19  1  0
  9 10  1  0
  9 38  1  6
 10 11  2  0
 10 12  1  0
 12 13  1  0
 13 14  1  0
 13 19  1  0
 13 39  1  1
 14 18  2  0
 14 15  1  0
 15 16  2  0
 15 40  1  0
 16 17  1  0
 16 41  1  0
 17 18  1  0
 18 42  1  0
 19 20  1  1
 19 21  1  0
 20 43  1  0
 20 44  1  0
 20 45  1  0
 21 46  1  0
 21 47  1  0
 22 23  1  0
 23 24  1  0
 23 48  1  0
 23 49  1  0
 24 25  1  0
 24 50  1  0
 24 51  1  0
M  END
>  <i_m_ct_stereo_status>  (98) 
1

>  <s_m_source_file>  (98) 
/var/tmp/pbs.5076255.sched01/tmpmalnbme9/37wob9dpop.sdf

>  <i_m_source_file_index>  (98) 
9

>  <i_lp_mmshare_version>  (98) 
48012

>  <i_f3d_flags>  (98) 
0

>  <s_epik_input>  (98) 
TzFbQ0gyXVtDSDJdT0MxMltDSDJdW0NASF0zQyhbQ0gzXSkoW0NIM10pW0NAQEhdKFtDSDJdMilbQ0BIXTRbQ0BAXShbQ0gzXSkoW0NIMl0zKVtDQEBIXShPQzQ9TyljNVtjSF1bY0hdb1tjSF01

>  <s_epik_cmdline>  (98) 
J2VwaWtfcHl0aG9uJywgJy1waHQnLCAnMi4wJywgJy1waCcsICc3LjAnLCAnLXRuJywgJzgnLCAnLW1hJywgJzIwMCcsICctaW1hZScsICc8aW5maWxlLm1hZT4nLCAnLW9tYWUnLCAnPG91dGZpbGUubWFlPic=

>  <r_lp_tautomer_probability>  (98) 
1

>  <r_epik_Ionization_Penalty>  (98) 
4.17566e-13

>  <r_epik_Ionization_Penalty_Charging>  (98) 
0

>  <r_epik_Ionization_Penalty_Neutral>  (98) 
4.17566e-13

>  <r_epik_State_Penalty>  (98) 
-0

>  <r_epik_Charging_Adjusted_Penalty>  (98) 
0

>  <i_epik_Tot_Q>  (98) 
0

>  <i_epik_Tot_abs_Q>  (98) 
0

>  <s_epik_Chemistry_Notes>  (98) 
This compound has an ester and may undergo hydrolysis at high or low pH.

>  <s_lp_Force_Field>  (98) 
OPLS3e

>  <r_lp_Energy>  (98) 
40.9199

>  <b_lp_Chiralities_Consistent>  (98) 
1

>  <s_lp_Variant>  (98) 
34:0-1

>  <s_i_glide_gridfile>  (98) 
pfpi4k_grid

>  <i_i_glide_lignum>  (98) 
9

>  <i_i_glide_rotatable_bonds>  (98) 
1

>  <r_i_docking_score>  (98) 
-2.49376

>  <r_i_glide_ligand_efficiency>  (98) 
-0.0997504

>  <r_i_glide_ligand_efficiency_sa>  (98) 
-0.291672

>  <r_i_glide_ligand_efficiency_ln>  (98) 
-0.591096

>  <r_i_glide_gscore>  (98) 
-2.49376

>  <r_i_glide_lipo>  (98) 
-0.0511073

>  <r_i_glide_hbond>  (98) 
-0.16

>  <r_i_glide_metal>  (98) 
-0

>  <r_i_glide_rewards>  (98) 
-1.07555

>  <r_i_glide_evdw>  (98) 
-25.4067

>  <r_i_glide_ecoul>  (98) 
-0.368958

>  <r_i_glide_erotb>  (98) 
0.158426

>  <r_i_glide_esite>  (98) 
-0.0398507

>  <r_i_glide_emodel>  (98) 
-29.6995

>  <r_i_glide_energy>  (98) 
-25.7757

>  <r_i_glide_einternal>  (98) 
0.137106

>  <r_i_glide_intrahb_reward>  (98) 
-0

>  <i_i_glide_confnum>  (98) 
2

>  <i_i_glide_posenum>  (98) 
17

>  <r_i_glide_eff_state_penalty>  (98) 
0

>  <ligand_id>  (98) 
34

>  <original_smiles>  (98) 
CC1(C)C2CC3(CC1C1C(=O)OC(c4ccoc4)C1(C)C2)OCCO3

>  <smiles>  (98) 
[H]c1oc([H])c(C2([H])OC(=O)C3([H])C4([H])C([H])([H])C5(OC([H])([H])C([H])([H])O5)C([H])([H])C([H])(C([H])([H])C23C([H])([H])[H])C4(C([H])([H])[H])C([H])([H])[H])c1[H]

$$$$
36:0:0
     RDKit          3D

 58 62  0  0  1  0  0  0  0  0999 V2000
    6.3750   -4.2051    5.9186 C   0  0  0  0  0  0  0  0  0  0  0  0
    5.2500   -4.2517    4.9020 C   0  0  0  0  0  0  0  0  0  0  0  0
    5.4180   -4.7372    3.6585 C   0  0  0  0  0  0  0  0  0  0  0  0
    4.2016   -4.7283    2.7782 C   0  0  2  0  0  0  0  0  0  0  0  0
    4.0742   -5.3821    1.4516 C   0  0  1  0  0  0  0  0  0  0  0  0
    2.7108   -6.1668    1.6142 C   0  0  2  0  0  0  0  0  0  0  0  0
    1.4189   -5.5473    1.5825 O   0  0  0  0  0  0  0  0  0  0  0  0
    1.7425   -6.0329    2.8916 C   0  0  1  0  0  0  0  0  0  0  0  0
    0.9635   -7.2981    3.2500 C   0  0  0  0  0  0  0  0  0  0  0  0
   -0.3501   -7.0578    3.7277 O   0  0  0  0  0  0  0  0  0  0  0  0
    1.7449   -4.9377    4.1155 C   0  0  1  0  0  0  0  0  0  0  0  0
    1.8188   -5.6340    5.3544 O   0  0  0  0  0  0  0  0  0  0  0  0
    2.7478   -3.6299    4.2205 C   0  0  1  0  0  0  0  0  0  0  0  0
    1.9363   -2.5174    4.5647 O   0  0  0  0  0  0  0  0  0  0  0  0
    3.8914   -3.6548    5.3308 C   0  0  0  0  0  0  0  0  0  0  0  0
    3.3772   -3.4111    2.8290 C   0  0  2  0  0  0  0  0  0  0  0  0
    2.2106   -3.2299    2.0823 O   0  0  0  0  0  0  0  0  0  0  0  0
    4.2491   -2.2663    2.1590 C   0  0  1  0  0  0  0  0  0  0  0  0
    3.5039   -0.9547    1.7756 C   0  0  0  0  0  0  0  0  0  0  0  0
    5.1725   -1.7721    3.1204 O   0  0  0  0  0  0  0  0  0  0  0  0
    4.9929   -2.9519    0.8973 C   0  0  2  0  0  0  0  0  0  0  0  0
    6.3112   -3.2648    1.3560 O   0  0  0  0  0  0  0  0  0  0  0  0
    5.2965   -2.1817   -0.4072 C   0  0  1  0  0  0  0  0  0  0  0  0
    6.2117   -1.1023   -0.2807 O   0  0  0  0  0  0  0  0  0  0  0  0
    5.8463   -3.2907   -1.3450 C   0  0  0  0  0  0  0  0  0  0  0  0
    5.3741   -4.6528   -0.7525 C   0  0  0  0  0  0  0  0  0  0  0  0
    4.3100   -4.2853    0.3098 C   0  0  1  0  0  0  0  0  0  0  0  0
    3.0316   -4.0274   -0.5691 C   0  0  0  0  0  0  0  0  0  0  0  0
    6.1113   -4.7661    6.8173 H   0  0  0  0  0  0  0  0  0  0  0  0
    6.5871   -3.1698    6.2006 H   0  0  0  0  0  0  0  0  0  0  0  0
    7.2891   -4.6387    5.5045 H   0  0  0  0  0  0  0  0  0  0  0  0
    6.3439   -5.1815    3.3081 H   0  0  0  0  0  0  0  0  0  0  0  0
    3.9154   -5.5379    3.4387 H   0  0  0  0  0  0  0  0  0  0  0  0
    4.8623   -6.1353    1.3796 H   0  0  0  0  0  0  0  0  0  0  0  0
    2.7106   -7.1049    1.0687 H   0  0  0  0  0  0  0  0  0  0  0  0
    0.8993   -7.9471    2.3755 H   0  0  0  0  0  0  0  0  0  0  0  0
    1.5122   -7.8606    4.0104 H   0  0  0  0  0  0  0  0  0  0  0  0
   -0.7050   -7.8911    4.0100 H   0  0  0  0  0  0  0  0  0  0  0  0
    0.7269   -4.5425    4.0917 H   0  0  0  0  0  0  0  0  0  0  0  0
    2.6733   -6.0346    5.4259 H   0  0  0  0  0  0  0  0  0  0  0  0
    2.4923   -1.7549    4.6149 H   0  0  0  0  0  0  0  0  0  0  0  0
    3.5603   -4.1306    6.2588 H   0  0  0  0  0  0  0  0  0  0  0  0
    4.1235   -2.6255    5.6030 H   0  0  0  0  0  0  0  0  0  0  0  0
    1.9039   -2.3521    2.2453 H   0  0  0  0  0  0  0  0  0  0  0  0
    2.8225   -1.0824    0.9373 H   0  0  0  0  0  0  0  0  0  0  0  0
    4.2038   -0.1753    1.4771 H   0  0  0  0  0  0  0  0  0  0  0  0
    2.9304   -0.5565    2.6139 H   0  0  0  0  0  0  0  0  0  0  0  0
    5.7275   -1.1282    2.7036 H   0  0  0  0  0  0  0  0  0  0  0  0
    6.2150   -3.8073    2.1223 H   0  0  0  0  0  0  0  0  0  0  0  0
    4.3758   -1.7733   -0.8271 H   0  0  0  0  0  0  0  0  0  0  0  0
    5.7911   -0.4229    0.2277 H   0  0  0  0  0  0  0  0  0  0  0  0
    5.4777   -3.1474   -2.3604 H   0  0  0  0  0  0  0  0  0  0  0  0
    6.9362   -3.2785   -1.3925 H   0  0  0  0  0  0  0  0  0  0  0  0
    5.0056   -5.3243   -1.5254 H   0  0  0  0  0  0  0  0  0  0  0  0
    6.2166   -5.1684   -0.2881 H   0  0  0  0  0  0  0  0  0  0  0  0
    3.2774   -3.7706   -1.5988 H   0  0  0  0  0  0  0  0  0  0  0  0
    2.4088   -3.1954   -0.2538 H   0  0  0  0  0  0  0  0  0  0  0  0
    2.4035   -4.9130   -0.6560 H   0  0  0  0  0  0  0  0  0  0  0  0
  1  2  1  0
  1 29  1  0
  1 30  1  0
  1 31  1  0
  2 15  1  0
  2  3  2  0
  3  4  1  0
  3 32  1  0
  4 16  1  0
  4  5  1  0
  4 33  1  1
  5 27  1  0
  5  6  1  0
  5 34  1  1
  6  8  1  0
  6  7  1  0
  6 35  1  6
  7  8  1  0
  8  9  1  1
  8 11  1  0
  9 10  1  0
  9 36  1  0
  9 37  1  0
 10 38  1  0
 11 12  1  0
 11 13  1  0
 11 39  1  1
 12 40  1  0
 13 14  1  1
 13 15  1  0
 13 16  1  0
 14 41  1  0
 15 42  1  0
 15 43  1  0
 16 17  1  6
 16 18  1  0
 17 44  1  0
 18 19  1  0
 18 20  1  1
 18 21  1  0
 19 45  1  0
 19 46  1  0
 19 47  1  0
 20 48  1  0
 21 27  1  0
 21 22  1  1
 21 23  1  0
 22 49  1  0
 23 24  1  0
 23 25  1  0
 23 50  1  6
 24 51  1  0
 25 26  1  0
 25 52  1  0
 25 53  1  0
 26 27  1  0
 26 54  1  0
 26 55  1  0
 27 28  1  6
 28 56  1  0
 28 57  1  0
 28 58  1  0
M  END
>  <i_m_ct_stereo_status>  (99) 
1

>  <s_m_source_file>  (99) 
/var/tmp/pbs.5076255.sched01/tmpmalnbme9/37wob9dpop.sdf

>  <i_m_source_file_index>  (99) 
12

>  <i_lp_mmshare_version>  (99) 
48012

>  <i_f3d_flags>  (99) 
0

>  <s_epik_input>  (99) 
W09IXVtDSDJdW0NAQF0xMltDQEBIXShPMSlbQ0hdM1tDQEBIXTRbQ0BAXShbT0hdKShbQ0BAXShbT0hdKShbQ0BASF0yW09IXSlbQ0gyXUMoW0NIM10pPVtDSF00KVtDQEBdKFtDSDNdKShbT0hdKVtDQEBdNShbT0hdKVtDQEBdMyhbQ0gzXSlbQ0gyXVtDSDJdW0NAQEhdNVtPSF0=

>  <s_epik_cmdline>  (99) 
J2VwaWtfcHl0aG9uJywgJy1waHQnLCAnMi4wJywgJy1waCcsICc3LjAnLCAnLXRuJywgJzgnLCAnLW1hJywgJzIwMCcsICctaW1hZScsICc8aW5maWxlLm1hZT4nLCAnLW9tYWUnLCAnPG91dGZpbGUubWFlPic=

>  <r_lp_tautomer_probability>  (99) 
1

>  <r_epik_Ionization_Penalty>  (99) 
5.30117e-07

>  <r_epik_Ionization_Penalty_Charging>  (99) 
0

>  <r_epik_Ionization_Penalty_Neutral>  (99) 
5.30117e-07

>  <r_epik_State_Penalty>  (99) 
-0

>  <r_epik_Charging_Adjusted_Penalty>  (99) 
0

>  <i_epik_Tot_Q>  (99) 
0

>  <i_epik_Tot_abs_Q>  (99) 
0

>  <s_lp_Force_Field>  (99) 
OPLS3e

>  <r_lp_Energy>  (99) 
165.303

>  <b_lp_Chiralities_Consistent>  (99) 
1

>  <s_lp_Variant>  (99) 
36:0-1

>  <s_i_glide_gridfile>  (99) 
pfpi4k_grid

>  <i_i_glide_lignum>  (99) 
12

>  <i_i_glide_rotatable_bonds>  (99) 
8

>  <r_i_docking_score>  (99) 
-2.61093

>  <r_i_glide_ligand_efficiency>  (99) 
-0.0932477

>  <r_i_glide_ligand_efficiency_sa>  (99) 
-0.283155

>  <r_i_glide_ligand_efficiency_ln>  (99) 
-0.60268

>  <r_i_glide_gscore>  (99) 
-2.61093

>  <r_i_glide_lipo>  (99) 
-0.229187

>  <r_i_glide_hbond>  (99) 
-0.107231

>  <r_i_glide_metal>  (99) 
-0

>  <r_i_glide_rewards>  (99) 
-0.692404

>  <r_i_glide_evdw>  (99) 
-17.2081

>  <r_i_glide_ecoul>  (99) 
-5.6338

>  <r_i_glide_erotb>  (99) 
0.12336

>  <r_i_glide_esite>  (99) 
0

>  <r_i_glide_emodel>  (99) 
-26.5806

>  <r_i_glide_energy>  (99) 
-22.8419

>  <r_i_glide_einternal>  (99) 
1.75864

>  <r_i_glide_intrahb_reward>  (99) 
-0

>  <i_i_glide_confnum>  (99) 
4

>  <i_i_glide_posenum>  (99) 
25

>  <r_i_glide_eff_state_penalty>  (99) 
0

>  <ligand_id>  (99) 
36

>  <original_smiles>  (99) 
CC1=CC2C3C4OC4(CO)C(O)C(O)(C1)C2(O)C(C)(O)C1(O)C(O)CCC31C

>  <smiles>  (99) 
[H]OC([H])([H])C12OC1([H])C1([H])C3([H])C([H])=C(C([H])([H])[H])C([H])([H])C(O[H])(C2([H])O[H])C3(O[H])C(O[H])(C([H])([H])[H])C2(O[H])C([H])(O[H])C([H])([H])C([H])([H])C12C([H])([H])[H]

$$$$
36:0:1
     RDKit          3D

 58 62  0  0  1  0  0  0  0  0999 V2000
    6.3315   -4.0995    5.9748 C   0  0  0  0  0  0  0  0  0  0  0  0
    5.2139   -4.1647    4.9498 C   0  0  0  0  0  0  0  0  0  0  0  0
    5.3935   -4.6722    3.7168 C   0  0  0  0  0  0  0  0  0  0  0  0
    4.1803   -4.6806    2.8316 C   0  0  2  0  0  0  0  0  0  0  0  0
    4.0604   -5.3536    1.5114 C   0  0  1  0  0  0  0  0  0  0  0  0
    2.7027   -6.1408    1.6870 C   0  0  2  0  0  0  0  0  0  0  0  0
    1.4190   -5.5145    1.6311 O   0  0  0  0  0  0  0  0  0  0  0  0
    1.7214   -5.9808    2.9472 C   0  0  1  0  0  0  0  0  0  0  0  0
    0.9351   -7.2385    3.3268 C   0  0  0  0  0  0  0  0  0  0  0  0
   -0.3835   -6.9889    3.7748 O   0  0  0  0  0  0  0  0  0  0  0  0
    1.7142   -4.8647    4.1562 C   0  0  1  0  0  0  0  0  0  0  0  0
    1.7790   -5.5389    5.4073 O   0  0  0  0  0  0  0  0  0  0  0  0
    2.7130   -3.5526    4.2456 C   0  0  1  0  0  0  0  0  0  0  0  0
    1.8872   -2.4441    4.5688 O   0  0  0  0  0  0  0  0  0  0  0  0
    3.8509   -3.5617    5.3621 C   0  0  0  0  0  0  0  0  0  0  0  0
    3.3637   -3.3577    2.8589 C   0  0  2  0  0  0  0  0  0  0  0  0
    2.2066   -3.1892    2.0870 O   0  0  0  0  0  0  0  0  0  0  0  0
    4.2351   -2.2283    2.1652 C   0  0  1  0  0  0  0  0  0  0  0  0
    3.4876   -0.9225    1.7609 C   0  0  0  0  0  0  0  0  0  0  0  0
    5.1617   -1.7167    3.1134 O   0  0  0  0  0  0  0  0  0  0  0  0
    4.9842   -2.9356    0.9175 C   0  0  2  0  0  0  0  0  0  0  0  0
    6.2979   -3.2545    1.3875 O   0  0  0  0  0  0  0  0  0  0  0  0
    5.2955   -2.1811   -0.3981 C   0  0  1  0  0  0  0  0  0  0  0  0
    6.2066   -1.1019   -0.2930 O   0  0  0  0  0  0  0  0  0  0  0  0
    5.8408   -3.3079   -1.3157 C   0  0  0  0  0  0  0  0  0  0  0  0
    5.3668   -4.6626   -0.7048 C   0  0  0  0  0  0  0  0  0  0  0  0
    4.3002   -4.2775    0.3518 C   0  0  1  0  0  0  0  0  0  0  0  0
    3.0226   -4.0323   -0.5371 C   0  0  0  0  0  0  0  0  0  0  0  0
    6.0638   -4.6468    6.8822 H   0  0  0  0  0  0  0  0  0  0  0  0
    6.5398   -3.0595    6.2411 H   0  0  0  0  0  0  0  0  0  0  0  0
    7.2509   -4.5359    5.5756 H   0  0  0  0  0  0  0  0  0  0  0  0
    6.3165   -5.1229    3.3776 H   0  0  0  0  0  0  0  0  0  0  0  0
    3.8894   -5.4790    3.5039 H   0  0  0  0  0  0  0  0  0  0  0  0
    4.8500   -6.1057    1.4597 H   0  0  0  0  0  0  0  0  0  0  0  0
    2.6984   -7.0806    1.1478 H   0  0  0  0  0  0  0  0  0  0  0  0
    0.8872   -7.9044    2.4640 H   0  0  0  0  0  0  0  0  0  0  0  0
    1.4753   -7.7804    4.1067 H   0  0  0  0  0  0  0  0  0  0  0  0
   -0.7438   -7.8183    4.0671 H   0  0  0  0  0  0  0  0  0  0  0  0
    0.6958   -4.4726    4.1194 H   0  0  0  0  0  0  0  0  0  0  0  0
    2.6316   -5.9468    5.4871 H   0  0  0  0  0  0  0  0  0  0  0  0
    2.4228   -1.6671    4.6168 H   0  0  0  0  0  0  0  0  0  0  0  0
    3.5168   -4.0255    6.2942 H   0  0  0  0  0  0  0  0  0  0  0  0
    4.0795   -2.5305    5.6230 H   0  0  0  0  0  0  0  0  0  0  0  0
    1.8783   -2.3177    2.2491 H   0  0  0  0  0  0  0  0  0  0  0  0
    2.8125   -1.0606    0.9196 H   0  0  0  0  0  0  0  0  0  0  0  0
    4.1945   -0.1534    1.4566 H   0  0  0  0  0  0  0  0  0  0  0  0
    2.9039   -0.5088    2.5848 H   0  0  0  0  0  0  0  0  0  0  0  0
    4.6873   -1.2674    3.7970 H   0  0  0  0  0  0  0  0  0  0  0  0
    6.1921   -3.7512    2.1847 H   0  0  0  0  0  0  0  0  0  0  0  0
    4.3709   -1.7792   -0.8220 H   0  0  0  0  0  0  0  0  0  0  0  0
    5.8235   -0.4552    0.2744 H   0  0  0  0  0  0  0  0  0  0  0  0
    5.4746   -3.1788   -2.3362 H   0  0  0  0  0  0  0  0  0  0  0  0
    6.9324   -3.2952   -1.3535 H   0  0  0  0  0  0  0  0  0  0  0  0
    5.0026   -5.3454   -1.4728 H   0  0  0  0  0  0  0  0  0  0  0  0
    6.2102   -5.1683   -0.2266 H   0  0  0  0  0  0  0  0  0  0  0  0
    3.2742   -3.7893   -1.5688 H   0  0  0  0  0  0  0  0  0  0  0  0
    2.4019   -3.1930   -0.2356 H   0  0  0  0  0  0  0  0  0  0  0  0
    2.3942   -4.9196   -0.6109 H   0  0  0  0  0  0  0  0  0  0  0  0
  1  2  1  0
  1 29  1  0
  1 30  1  0
  1 31  1  0
  2 15  1  0
  2  3  2  0
  3  4  1  0
  3 32  1  0
  4 16  1  0
  4  5  1  0
  4 33  1  1
  5 27  1  0
  5  6  1  0
  5 34  1  1
  6  8  1  0
  6  7  1  0
  6 35  1  6
  7  8  1  0
  8  9  1  1
  8 11  1  0
  9 10  1  0
  9 36  1  0
  9 37  1  0
 10 38  1  0
 11 12  1  0
 11 13  1  0
 11 39  1  1
 12 40  1  0
 13 14  1  1
 13 15  1  0
 13 16  1  0
 14 41  1  0
 15 42  1  0
 15 43  1  0
 16 17  1  6
 16 18  1  0
 17 44  1  0
 18 19  1  0
 18 20  1  1
 18 21  1  0
 19 45  1  0
 19 46  1  0
 19 47  1  0
 20 48  1  0
 21 27  1  0
 21 22  1  1
 21 23  1  0
 22 49  1  0
 23 24  1  0
 23 25  1  0
 23 50  1  6
 24 51  1  0
 25 26  1  0
 25 52  1  0
 25 53  1  0
 26 27  1  0
 26 54  1  0
 26 55  1  0
 27 28  1  6
 28 56  1  0
 28 57  1  0
 28 58  1  0
M  END
>  <i_m_ct_stereo_status>  (100) 
1

>  <s_m_source_file>  (100) 
/var/tmp/pbs.5076255.sched01/tmpmalnbme9/37wob9dpop.sdf

>  <i_m_source_file_index>  (100) 
12

>  <i_lp_mmshare_version>  (100) 
48012

>  <i_f3d_flags>  (100) 
0

>  <s_epik_input>  (100) 
W09IXVtDSDJdW0NAQF0xMltDQEBIXShPMSlbQ0hdM1tDQEBIXTRbQ0BAXShbT0hdKShbQ0BAXShbT0hdKShbQ0BASF0yW09IXSlbQ0gyXUMoW0NIM10pPVtDSF00KVtDQEBdKFtDSDNdKShbT0hdKVtDQEBdNShbT0hdKVtDQEBdMyhbQ0gzXSlbQ0gyXVtDSDJdW0NAQEhdNVtPSF0=

>  <s_epik_cmdline>  (100) 
J2VwaWtfcHl0aG9uJywgJy1waHQnLCAnMi4wJywgJy1waCcsICc3LjAnLCAnLXRuJywgJzgnLCAnLW1hJywgJzIwMCcsICctaW1hZScsICc8aW5maWxlLm1hZT4nLCAnLW9tYWUnLCAnPG91dGZpbGUubWFlPic=

>  <r_lp_tautomer_probability>  (100) 
1

>  <r_epik_Ionization_Penalty>  (100) 
5.30117e-07

>  <r_epik_Ionization_Penalty_Charging>  (100) 
0

>  <r_epik_Ionization_Penalty_Neutral>  (100) 
5.30117e-07

>  <r_epik_State_Penalty>  (100) 
-0

>  <r_epik_Charging_Adjusted_Penalty>  (100) 
0

>  <i_epik_Tot_Q>  (100) 
0

>  <i_epik_Tot_abs_Q>  (100) 
0

>  <s_lp_Force_Field>  (100) 
OPLS3e

>  <r_lp_Energy>  (100) 
165.303

>  <b_lp_Chiralities_Consistent>  (100) 
1

>  <s_lp_Variant>  (100) 
36:0-1

>  <s_i_glide_gridfile>  (100) 
pfpi4k_grid

>  <i_i_glide_lignum>  (100) 
12

>  <i_i_glide_rotatable_bonds>  (100) 
8

>  <r_i_docking_score>  (100) 
-2.60004

>  <r_i_glide_ligand_efficiency>  (100) 
-0.0928585

>  <r_i_glide_ligand_efficiency_sa>  (100) 
-0.281973

>  <r_i_glide_ligand_efficiency_ln>  (100) 
-0.600165

>  <r_i_glide_gscore>  (100) 
-2.60004

>  <r_i_glide_lipo>  (100) 
-0.23697

>  <r_i_glide_hbond>  (100) 
-0.102649

>  <r_i_glide_metal>  (100) 
-0

>  <r_i_glide_rewards>  (100) 
-0.692404

>  <r_i_glide_evdw>  (100) 
-17.1546

>  <r_i_glide_ecoul>  (100) 
-5.55764

>  <r_i_glide_erotb>  (100) 
0.12336

>  <r_i_glide_esite>  (100) 
0

>  <r_i_glide_emodel>  (100) 
-26.466

>  <r_i_glide_energy>  (100) 
-22.7122

>  <r_i_glide_einternal>  (100) 
1.76791

>  <r_i_glide_intrahb_reward>  (100) 
-0

>  <i_i_glide_confnum>  (100) 
2

>  <i_i_glide_posenum>  (100) 
31

>  <r_i_glide_eff_state_penalty>  (100) 
0

>  <ligand_id>  (100) 
36

>  <original_smiles>  (100) 
CC1=CC2C3C4OC4(CO)C(O)C(O)(C1)C2(O)C(C)(O)C1(O)C(O)CCC31C

>  <smiles>  (100) 
[H]OC([H])([H])C12OC1([H])C1([H])C3([H])C([H])=C(C([H])([H])[H])C([H])([H])C(O[H])(C2([H])O[H])C3(O[H])C(O[H])(C([H])([H])[H])C2(O[H])C([H])(O[H])C([H])([H])C([H])([H])C12C([H])([H])[H]

$$$$
36:0:2
     RDKit          3D

 58 62  0  0  1  0  0  0  0  0999 V2000
    6.3759   -4.2463    5.9241 C   0  0  0  0  0  0  0  0  0  0  0  0
    5.2516   -4.2905    4.9076 C   0  0  0  0  0  0  0  0  0  0  0  0
    5.4177   -4.7587    3.6578 C   0  0  0  0  0  0  0  0  0  0  0  0
    4.1950   -4.7464    2.7842 C   0  0  2  0  0  0  0  0  0  0  0  0
    4.0729   -5.3903    1.4544 C   0  0  1  0  0  0  0  0  0  0  0  0
    2.7120   -6.1763    1.6079 C   0  0  2  0  0  0  0  0  0  0  0  0
    1.4250   -5.5459    1.5776 O   0  0  0  0  0  0  0  0  0  0  0  0
    1.7400   -6.0496    2.8836 C   0  0  1  0  0  0  0  0  0  0  0  0
    0.9607   -7.3177    3.2324 C   0  0  0  0  0  0  0  0  0  0  0  0
   -0.3518   -7.0816    3.7148 O   0  0  0  0  0  0  0  0  0  0  0  0
    1.7452   -4.9695    4.1219 C   0  0  1  0  0  0  0  0  0  0  0  0
    1.8170   -5.6789    5.3524 O   0  0  0  0  0  0  0  0  0  0  0  0
    2.7495   -3.6659    4.2481 C   0  0  1  0  0  0  0  0  0  0  0  0
    1.9432   -2.5685    4.6473 O   0  0  0  0  0  0  0  0  0  0  0  0
    3.8962   -3.7010    5.3480 C   0  0  0  0  0  0  0  0  0  0  0  0
    3.3761   -3.4224    2.8595 C   0  0  2  0  0  0  0  0  0  0  0  0
    2.1999   -3.2256    2.1149 O   0  0  0  0  0  0  0  0  0  0  0  0
    4.2451   -2.2756    2.1906 C   0  0  1  0  0  0  0  0  0  0  0  0
    3.5032   -0.9646    1.8002 C   0  0  0  0  0  0  0  0  0  0  0  0
    5.1500   -1.7657    3.1583 O   0  0  0  0  0  0  0  0  0  0  0  0
    4.9954   -2.9574    0.9305 C   0  0  2  0  0  0  0  0  0  0  0  0
    6.3110   -3.2793    1.3855 O   0  0  0  0  0  0  0  0  0  0  0  0
    5.3019   -2.1826   -0.3772 C   0  0  1  0  0  0  0  0  0  0  0  0
    6.2133   -1.1112   -0.2503 O   0  0  0  0  0  0  0  0  0  0  0  0
    5.8486   -3.2850   -1.3254 C   0  0  0  0  0  0  0  0  0  0  0  0
    5.3778   -4.6481   -0.7401 C   0  0  0  0  0  0  0  0  0  0  0  0
    4.3124   -4.2840    0.3257 C   0  0  1  0  0  0  0  0  0  0  0  0
    3.0316   -4.0198   -0.5526 C   0  0  0  0  0  0  0  0  0  0  0  0
    6.1138   -4.8146    6.8201 H   0  0  0  0  0  0  0  0  0  0  0  0
    6.5845   -3.2119    6.2129 H   0  0  0  0  0  0  0  0  0  0  0  0
    7.2920   -4.6671    5.5032 H   0  0  0  0  0  0  0  0  0  0  0  0
    6.3455   -5.1768    3.2873 H   0  0  0  0  0  0  0  0  0  0  0  0
    3.9146   -5.5646    3.4368 H   0  0  0  0  0  0  0  0  0  0  0  0
    4.8640   -6.1424    1.3783 H   0  0  0  0  0  0  0  0  0  0  0  0
    2.7109   -7.1123    1.0572 H   0  0  0  0  0  0  0  0  0  0  0  0
    0.8935   -7.9594    2.3535 H   0  0  0  0  0  0  0  0  0  0  0  0
    1.5118   -7.8867    3.9878 H   0  0  0  0  0  0  0  0  0  0  0  0
   -0.7047   -7.9165    3.9955 H   0  0  0  0  0  0  0  0  0  0  0  0
    0.7304   -4.5692    4.0964 H   0  0  0  0  0  0  0  0  0  0  0  0
    2.6761   -6.0694    5.4196 H   0  0  0  0  0  0  0  0  0  0  0  0
    2.4745   -1.7902    4.5825 H   0  0  0  0  0  0  0  0  0  0  0  0
    3.5608   -4.1787    6.2721 H   0  0  0  0  0  0  0  0  0  0  0  0
    4.1288   -2.6723    5.6197 H   0  0  0  0  0  0  0  0  0  0  0  0
    2.4403   -3.0790    1.2151 H   0  0  0  0  0  0  0  0  0  0  0  0
    2.8195   -1.0902    0.9640 H   0  0  0  0  0  0  0  0  0  0  0  0
    4.2040   -0.1828    1.5079 H   0  0  0  0  0  0  0  0  0  0  0  0
    2.9273   -0.5820    2.6426 H   0  0  0  0  0  0  0  0  0  0  0  0
    5.7323   -1.1510    2.7363 H   0  0  0  0  0  0  0  0  0  0  0  0
    6.7538   -3.7131    0.6744 H   0  0  0  0  0  0  0  0  0  0  0  0
    4.3831   -1.7708   -0.8006 H   0  0  0  0  0  0  0  0  0  0  0  0
    5.8008   -0.4331    0.2659 H   0  0  0  0  0  0  0  0  0  0  0  0
    5.4756   -3.1382   -2.3405 H   0  0  0  0  0  0  0  0  0  0  0  0
    6.9386   -3.2683   -1.3835 H   0  0  0  0  0  0  0  0  0  0  0  0
    5.0074   -5.3118   -1.5212 H   0  0  0  0  0  0  0  0  0  0  0  0
    6.2169   -5.1774   -0.2825 H   0  0  0  0  0  0  0  0  0  0  0  0
    3.2798   -3.7674   -1.5837 H   0  0  0  0  0  0  0  0  0  0  0  0
    2.4038   -3.1897   -0.2443 H   0  0  0  0  0  0  0  0  0  0  0  0
    2.4048   -4.9060   -0.6517 H   0  0  0  0  0  0  0  0  0  0  0  0
  1  2  1  0
  1 29  1  0
  1 30  1  0
  1 31  1  0
  2 15  1  0
  2  3  2  0
  3  4  1  0
  3 32  1  0
  4 16  1  0
  4  5  1  0
  4 33  1  1
  5 27  1  0
  5  6  1  0
  5 34  1  1
  6  8  1  0
  6  7  1  0
  6 35  1  6
  7  8  1  0
  8  9  1  1
  8 11  1  0
  9 10  1  0
  9 36  1  0
  9 37  1  0
 10 38  1  0
 11 12  1  0
 11 13  1  0
 11 39  1  1
 12 40  1  0
 13 14  1  1
 13 15  1  0
 13 16  1  0
 14 41  1  0
 15 42  1  0
 15 43  1  0
 16 17  1  6
 16 18  1  0
 17 44  1  0
 18 19  1  0
 18 20  1  1
 18 21  1  0
 19 45  1  0
 19 46  1  0
 19 47  1  0
 20 48  1  0
 21 27  1  0
 21 22  1  1
 21 23  1  0
 22 49  1  0
 23 24  1  0
 23 25  1  0
 23 50  1  6
 24 51  1  0
 25 26  1  0
 25 52  1  0
 25 53  1  0
 26 27  1  0
 26 54  1  0
 26 55  1  0
 27 28  1  6
 28 56  1  0
 28 57  1  0
 28 58  1  0
M  END
>  <i_m_ct_stereo_status>  (101) 
1

>  <s_m_source_file>  (101) 
/var/tmp/pbs.5076255.sched01/tmpmalnbme9/37wob9dpop.sdf

>  <i_m_source_file_index>  (101) 
12

>  <i_lp_mmshare_version>  (101) 
48012

>  <i_f3d_flags>  (101) 
0

>  <s_epik_input>  (101) 
W09IXVtDSDJdW0NAQF0xMltDQEBIXShPMSlbQ0hdM1tDQEBIXTRbQ0BAXShbT0hdKShbQ0BAXShbT0hdKShbQ0BASF0yW09IXSlbQ0gyXUMoW0NIM10pPVtDSF00KVtDQEBdKFtDSDNdKShbT0hdKVtDQEBdNShbT0hdKVtDQEBdMyhbQ0gzXSlbQ0gyXVtDSDJdW0NAQEhdNVtPSF0=

>  <s_epik_cmdline>  (101) 
J2VwaWtfcHl0aG9uJywgJy1waHQnLCAnMi4wJywgJy1waCcsICc3LjAnLCAnLXRuJywgJzgnLCAnLW1hJywgJzIwMCcsICctaW1hZScsICc8aW5maWxlLm1hZT4nLCAnLW9tYWUnLCAnPG91dGZpbGUubWFlPic=

>  <r_lp_tautomer_probability>  (101) 
1

>  <r_epik_Ionization_Penalty>  (101) 
5.30117e-07

>  <r_epik_Ionization_Penalty_Charging>  (101) 
0

>  <r_epik_Ionization_Penalty_Neutral>  (101) 
5.30117e-07

>  <r_epik_State_Penalty>  (101) 
-0

>  <r_epik_Charging_Adjusted_Penalty>  (101) 
0

>  <i_epik_Tot_Q>  (101) 
0

>  <i_epik_Tot_abs_Q>  (101) 
0

>  <s_lp_Force_Field>  (101) 
OPLS3e

>  <r_lp_Energy>  (101) 
165.303

>  <b_lp_Chiralities_Consistent>  (101) 
1

>  <s_lp_Variant>  (101) 
36:0-1

>  <s_i_glide_gridfile>  (101) 
pfpi4k_grid

>  <i_i_glide_lignum>  (101) 
12

>  <i_i_glide_rotatable_bonds>  (101) 
8

>  <r_i_docking_score>  (101) 
-2.49802

>  <r_i_glide_ligand_efficiency>  (101) 
-0.0892152

>  <r_i_glide_ligand_efficiency_sa>  (101) 
-0.27091

>  <r_i_glide_ligand_efficiency_ln>  (101) 
-0.576617

>  <r_i_glide_gscore>  (101) 
-2.49802

>  <r_i_glide_lipo>  (101) 
-0.229224

>  <r_i_glide_hbond>  (101) 
-0.107177

>  <r_i_glide_metal>  (101) 
-0

>  <r_i_glide_rewards>  (101) 
-0.692404

>  <r_i_glide_evdw>  (101) 
-17.1909

>  <r_i_glide_ecoul>  (101) 
-4.88691

>  <r_i_glide_erotb>  (101) 
0.12336

>  <r_i_glide_esite>  (101) 
0

>  <r_i_glide_emodel>  (101) 
-25.4312

>  <r_i_glide_energy>  (101) 
-22.0778

>  <r_i_glide_einternal>  (101) 
1.88697

>  <r_i_glide_intrahb_reward>  (101) 
-0

>  <i_i_glide_confnum>  (101) 
4

>  <i_i_glide_posenum>  (101) 
1

>  <r_i_glide_eff_state_penalty>  (101) 
0

>  <ligand_id>  (101) 
36

>  <original_smiles>  (101) 
CC1=CC2C3C4OC4(CO)C(O)C(O)(C1)C2(O)C(C)(O)C1(O)C(O)CCC31C

>  <smiles>  (101) 
[H]OC([H])([H])C12OC1([H])C1([H])C3([H])C([H])=C(C([H])([H])[H])C([H])([H])C(O[H])(C2([H])O[H])C3(O[H])C(O[H])(C([H])([H])[H])C2(O[H])C([H])(O[H])C([H])([H])C([H])([H])C12C([H])([H])[H]

$$$$
37:0:0
     RDKit          3D

 62 68  0  0  1  0  0  0  0  0999 V2000
    1.7031   -8.7221    6.3990 C   0  0  0  0  0  0  0  0  0  0  0  0
    2.8643   -8.3719    5.4570 C   0  0  2  0  0  0  0  0  0  0  0  0
    3.4293   -9.6227    4.6922 C   0  0  0  0  0  0  0  0  0  0  0  0
    4.0813   -9.2402    3.3149 C   0  0  1  0  0  0  0  0  0  0  0  0
    3.0851   -8.9665    2.1255 C   0  0  0  0  0  0  0  0  0  0  0  0
    2.8961   -7.4681    1.6420 C   0  0  0  0  0  0  0  0  0  0  0  0
    3.0953   -6.2987    2.6861 C   0  0  2  0  0  0  0  0  0  0  0  0
    3.7822   -4.9775    2.1386 C   0  0  2  0  0  0  0  0  0  0  0  0
    3.7520   -3.9352    3.2913 C   0  0  0  0  0  0  0  0  0  0  0  0
    2.8494   -4.4818    0.9808 C   0  0  0  0  0  0  0  0  0  0  0  0
    3.1291   -3.1534    0.2266 C   0  0  0  0  0  0  0  0  0  0  0  0
    3.8703   -3.2730   -1.1301 C   0  0  1  0  0  0  0  0  0  0  0  0
    3.1546   -2.4424   -2.0534 O   0  0  0  0  0  0  0  0  0  0  0  0
    4.0079   -1.5206   -2.7071 C   0  0  2  0  0  0  0  0  0  0  0  0
    3.1969   -0.6610   -3.6762 C   0  0  0  0  0  0  0  0  0  0  0  0
    4.9900   -2.2302   -3.4392 O   0  0  0  0  0  0  0  0  0  0  0  0
    5.8161   -3.0668   -2.4749 O   0  0  0  0  0  0  0  0  0  0  0  0
    5.3698   -2.8641   -1.1367 C   0  0  2  0  0  0  0  0  0  0  0  0
    6.3275   -3.6954   -0.2702 C   0  0  0  0  0  0  0  0  0  0  0  0
    5.9894   -3.8578    1.2195 C   0  0  0  0  0  0  0  0  0  0  0  0
    5.2412   -5.1830    1.5921 C   0  0  1  0  0  0  0  0  0  0  0  0
    6.1705   -6.0455    2.4881 C   0  0  0  0  0  0  0  0  0  0  0  0
    5.8350   -7.5415    2.5411 C   0  0  0  0  0  0  0  0  0  0  0  0
    4.8060   -7.9485    3.6185 C   0  0  1  0  0  0  0  0  0  0  0  0
    3.6286   -6.9689    3.9670 C   0  0  1  0  0  0  0  0  0  0  0  0
    4.0440   -6.3671    5.1616 O   0  0  0  0  0  0  0  0  0  0  0  0
    3.8169   -7.5319    6.1343 O   0  0  0  0  0  0  0  0  0  0  0  0
    2.4168   -7.6168    4.3853 O   0  0  0  0  0  0  0  0  0  0  0  0
    5.4490   -1.4889   -0.7794 O   0  0  0  0  0  0  0  0  0  0  0  0
    4.6260   -0.6595   -1.7611 O   0  0  0  0  0  0  0  0  0  0  0  0
    1.2484   -7.8222    6.8127 H   0  0  0  0  0  0  0  0  0  0  0  0
    2.0450   -9.3378    7.2323 H   0  0  0  0  0  0  0  0  0  0  0  0
    0.9202   -9.2805    5.8816 H   0  0  0  0  0  0  0  0  0  0  0  0
    4.1583  -10.1179    5.3352 H   0  0  0  0  0  0  0  0  0  0  0  0
    2.6367  -10.3554    4.5207 H   0  0  0  0  0  0  0  0  0  0  0  0
    4.7774  -10.0341    3.0288 H   0  0  0  0  0  0  0  0  0  0  0  0
    3.4232   -9.5504    1.2697 H   0  0  0  0  0  0  0  0  0  0  0  0
    2.1101   -9.3844    2.3727 H   0  0  0  0  0  0  0  0  0  0  0  0
    3.5821   -7.3093    0.8137 H   0  0  0  0  0  0  0  0  0  0  0  0
    1.9036   -7.3790    1.1993 H   0  0  0  0  0  0  0  0  0  0  0  0
    2.0907   -5.9735    2.9619 H   0  0  0  0  0  0  0  0  0  0  0  0
    3.8848   -2.9108    2.9522 H   0  0  0  0  0  0  0  0  0  0  0  0
    4.5300   -4.1216    4.0312 H   0  0  0  0  0  0  0  0  0  0  0  0
    2.7966   -3.9460    3.8158 H   0  0  0  0  0  0  0  0  0  0  0  0
    2.7319   -5.2643    0.2304 H   0  0  0  0  0  0  0  0  0  0  0  0
    1.8558   -4.3711    1.4152 H   0  0  0  0  0  0  0  0  0  0  0  0
    2.1417   -2.7627   -0.0173 H   0  0  0  0  0  0  0  0  0  0  0  0
    3.5457   -2.3655    0.8504 H   0  0  0  0  0  0  0  0  0  0  0  0
    3.7854   -4.2864   -1.5152 H   0  0  0  0  0  0  0  0  0  0  0  0
    3.8322    0.0616   -4.1889 H   0  0  0  0  0  0  0  0  0  0  0  0
    2.4375   -0.0997   -3.1313 H   0  0  0  0  0  0  0  0  0  0  0  0
    2.6972   -1.2751   -4.4257 H   0  0  0  0  0  0  0  0  0  0  0  0
    6.4230   -4.6798   -0.7115 H   0  0  0  0  0  0  0  0  0  0  0  0
    7.3146   -3.2425   -0.3573 H   0  0  0  0  0  0  0  0  0  0  0  0
    6.9390   -3.8353    1.7507 H   0  0  0  0  0  0  0  0  0  0  0  0
    5.5015   -2.9583    1.5787 H   0  0  0  0  0  0  0  0  0  0  0  0
    5.1363   -5.7500    0.6682 H   0  0  0  0  0  0  0  0  0  0  0  0
    7.1711   -6.0019    2.0574 H   0  0  0  0  0  0  0  0  0  0  0  0
    6.2704   -5.6287    3.4897 H   0  0  0  0  0  0  0  0  0  0  0  0
    5.5581   -7.8986    1.5509 H   0  0  0  0  0  0  0  0  0  0  0  0
    6.7545   -8.0855    2.7660 H   0  0  0  0  0  0  0  0  0  0  0  0
    5.4220   -8.1202    4.5031 H   0  0  0  0  0  0  0  0  0  0  0  0
  2  1  1  1
  1 31  1  0
  1 32  1  0
  1 33  1  0
  2 27  1  0
  2 28  1  0
  2  3  1  0
  3  4  1  0
  3 34  1  0
  3 35  1  0
  4 24  1  0
  4  5  1  0
  4 36  1  6
  5  6  1  0
  5 37  1  0
  5 38  1  0
  6  7  1  0
  6 39  1  0
  6 40  1  0
  7 25  1  0
  7  8  1  0
  7 41  1  1
  8 21  1  0
  8  9  1  1
  8 10  1  0
  9 42  1  0
  9 43  1  0
  9 44  1  0
 10 11  1  0
 10 45  1  0
 10 46  1  0
 11 12  1  0
 11 47  1  0
 11 48  1  0
 12 18  1  0
 12 13  1  0
 12 49  1  6
 13 14  1  0
 14 30  1  0
 14 15  1  6
 14 16  1  0
 15 50  1  0
 15 51  1  0
 15 52  1  0
 16 17  1  0
 17 18  1  0
 18 19  1  1
 18 29  1  0
 19 20  1  0
 19 53  1  0
 19 54  1  0
 20 21  1  0
 20 55  1  0
 20 56  1  0
 21 22  1  0
 21 57  1  6
 22 23  1  0
 22 58  1  0
 22 59  1  0
 23 24  1  0
 23 60  1  0
 23 61  1  0
 24 25  1  0
 24 62  1  1
 25 26  1  1
 25 28  1  0
 26 27  1  0
 29 30  1  0
M  END
>  <i_m_ct_stereo_status>  (102) 
1

>  <s_m_source_file>  (102) 
/var/tmp/pbs.5076255.sched01/tmpmalnbme9/37wob9dpop.sdf

>  <i_m_source_file_index>  (102) 
13

>  <i_lp_mmshare_version>  (102) 
48012

>  <i_f3d_flags>  (102) 
0

>  <s_epik_input>  (102) 
W0NIMl0xW0NIMl1bQ0BIXTJbQ0gyXVtDSDJdW0NASF0oW0NASF0oW0NIMl1bQ0gyXTMpW0NIMl1bQ0BAXShPNCkoW0NIM10pT081KVtDQEBdNDVbQ0BIXTNbQ0BdMihbQ0gzXSlbQ0gyXVtDSDJdW0NASF0oW0NAQF0xNjcpT1tDQF0oW0NIM10pKE9PNilPTzc=

>  <s_epik_cmdline>  (102) 
J2VwaWtfcHl0aG9uJywgJy1waHQnLCAnMi4wJywgJy1waCcsICc3LjAnLCAnLXRuJywgJzgnLCAnLW1hJywgJzIwMCcsICctaW1hZScsICc8aW5maWxlLm1hZT4nLCAnLW9tYWUnLCAnPG91dGZpbGUubWFlPic=

>  <r_lp_tautomer_probability>  (102) 
1

>  <r_epik_Ionization_Penalty>  (102) 
1.18402e-15

>  <r_epik_Ionization_Penalty_Charging>  (102) 
0

>  <r_epik_Ionization_Penalty_Neutral>  (102) 
1.18402e-15

>  <r_epik_State_Penalty>  (102) 
-0

>  <r_epik_Charging_Adjusted_Penalty>  (102) 
0

>  <i_epik_Tot_Q>  (102) 
0

>  <i_epik_Tot_abs_Q>  (102) 
0

>  <s_lp_Force_Field>  (102) 
OPLS3e

>  <r_lp_Energy>  (102) 
87.5262

>  <b_lp_Chiralities_Consistent>  (102) 
1

>  <s_lp_Variant>  (102) 
37:0-1

>  <s_i_glide_gridfile>  (102) 
pfpi4k_grid

>  <i_i_glide_lignum>  (102) 
13

>  <i_i_glide_rotatable_bonds>  (102) 
0

>  <r_i_docking_score>  (102) 
-2.64543

>  <r_i_glide_ligand_efficiency>  (102) 
-0.0881809

>  <r_i_glide_ligand_efficiency_sa>  (102) 
-0.273999

>  <r_i_glide_ligand_efficiency_ln>  (102) 
-0.60107

>  <r_i_glide_gscore>  (102) 
-2.64543

>  <r_i_glide_lipo>  (102) 
-0.511896

>  <r_i_glide_hbond>  (102) 
0

>  <r_i_glide_metal>  (102) 
-0

>  <r_i_glide_rewards>  (102) 
-0.528356

>  <r_i_glide_evdw>  (102) 
-29.2359

>  <r_i_glide_ecoul>  (102) 
-0.773681

>  <r_i_glide_erotb>  (102) 
0

>  <r_i_glide_esite>  (102) 
-0.0273293

>  <r_i_glide_emodel>  (102) 
-35.1303

>  <r_i_glide_energy>  (102) 
-30.0096

>  <r_i_glide_einternal>  (102) 
0

>  <r_i_glide_intrahb_reward>  (102) 
-0

>  <i_i_glide_confnum>  (102) 
1

>  <i_i_glide_posenum>  (102) 
1

>  <r_i_glide_eff_state_penalty>  (102) 
0

>  <ligand_id>  (102) 
37

>  <original_smiles>  (102) 
CC12CC3CCC4C5(C)CCC6OC7(C)OOC6(CCC5CCC3C4(OO1)O2)OO7

>  <smiles>  (102) 
[H]C([H])([H])C12OOC3(OO1)C([H])([H])C([H])([H])C1([H])C([H])([H])C([H])([H])C4([H])C56OOC(C([H])([H])[H])(O5)C([H])([H])C4([H])C([H])([H])C([H])([H])C6([H])C1(C([H])([H])[H])C([H])([H])C([H])([H])C3([H])O2

$$$$
37:0:1
     RDKit          3D

 62 68  0  0  1  0  0  0  0  0999 V2000
    2.4929  -11.4372    4.4027 C   0  0  0  0  0  0  0  0  0  0  0  0
    3.5114  -10.2935    4.3047 C   0  0  2  0  0  0  0  0  0  0  0  0
    4.9801  -10.8021    4.0740 C   0  0  0  0  0  0  0  0  0  0  0  0
    5.8765   -9.7439    3.3310 C   0  0  1  0  0  0  0  0  0  0  0  0
    5.6818   -9.6346    1.7729 C   0  0  0  0  0  0  0  0  0  0  0  0
    4.9313   -8.3614    1.1938 C   0  0  0  0  0  0  0  0  0  0  0  0
    3.8578   -7.6372    2.1012 C   0  0  2  0  0  0  0  0  0  0  0  0
    3.8098   -6.0543    2.0030 C   0  0  2  0  0  0  0  0  0  0  0  0
    2.6124   -5.5752    2.8713 C   0  0  0  0  0  0  0  0  0  0  0  0
    3.4981   -5.7437    0.4981 C   0  0  0  0  0  0  0  0  0  0  0  0
    3.3009   -4.2922   -0.0080 C   0  0  0  0  0  0  0  0  0  0  0  0
    4.5398   -3.6308   -0.6692 C   0  0  1  0  0  0  0  0  0  0  0  0
    4.0714   -3.0141   -1.8773 O   0  0  0  0  0  0  0  0  0  0  0  0
    4.3865   -1.6315   -1.9257 C   0  0  2  0  0  0  0  0  0  0  0  0
    3.8428   -1.0350   -3.2287 C   0  0  0  0  0  0  0  0  0  0  0  0
    5.7925   -1.4627   -1.9058 O   0  0  0  0  0  0  0  0  0  0  0  0
    6.3495   -2.0806   -0.6304 O   0  0  0  0  0  0  0  0  0  0  0  0
    5.2843   -2.5678    0.1860 C   0  0  2  0  0  0  0  0  0  0  0  0
    5.9562   -3.0476    1.4841 C   0  0  0  0  0  0  0  0  0  0  0  0
    5.0641   -3.7857    2.5018 C   0  0  0  0  0  0  0  0  0  0  0  0
    5.1455   -5.3446    2.4288 C   0  0  1  0  0  0  0  0  0  0  0  0
    5.7903   -5.8693    3.7401 C   0  0  0  0  0  0  0  0  0  0  0  0
    6.4121   -7.2676    3.6536 C   0  0  0  0  0  0  0  0  0  0  0  0
    5.4442   -8.4329    3.9388 C   0  0  1  0  0  0  0  0  0  0  0  0
    3.9454   -8.3180    3.4822 C   0  0  1  0  0  0  0  0  0  0  0  0
    3.2696   -7.9894    4.6631 O   0  0  0  0  0  0  0  0  0  0  0  0
    3.3079   -9.3494    5.3705 O   0  0  0  0  0  0  0  0  0  0  0  0
    3.3290   -9.5684    3.1405 O   0  0  0  0  0  0  0  0  0  0  0  0
    4.3544   -1.5337    0.4785 O   0  0  0  0  0  0  0  0  0  0  0  0
    3.8096   -0.9564   -0.8233 O   0  0  0  0  0  0  0  0  0  0  0  0
    1.4709  -11.0550    4.4296 H   0  0  0  0  0  0  0  0  0  0  0  0
    2.6446  -12.0294    5.3083 H   0  0  0  0  0  0  0  0  0  0  0  0
    2.5671  -12.1153    3.5495 H   0  0  0  0  0  0  0  0  0  0  0  0
    5.4129  -11.0510    5.0441 H   0  0  0  0  0  0  0  0  0  0  0  0
    4.9754  -11.7324    3.5001 H   0  0  0  0  0  0  0  0  0  0  0  0
    6.9251   -9.9637    3.5487 H   0  0  0  0  0  0  0  0  0  0  0  0
    6.6632   -9.6819    1.3030 H   0  0  0  0  0  0  0  0  0  0  0  0
    5.1692  -10.5298    1.4295 H   0  0  0  0  0  0  0  0  0  0  0  0
    5.6931   -7.6378    0.9106 H   0  0  0  0  0  0  0  0  0  0  0  0
    4.4606   -8.6453    0.2524 H   0  0  0  0  0  0  0  0  0  0  0  0
    2.8847   -7.9505    1.7148 H   0  0  0  0  0  0  0  0  0  0  0  0
    2.2797   -4.5689    2.6304 H   0  0  0  0  0  0  0  0  0  0  0  0
    2.8536   -5.5774    3.9350 H   0  0  0  0  0  0  0  0  0  0  0  0
    1.7408   -6.2157    2.7366 H   0  0  0  0  0  0  0  0  0  0  0  0
    4.2425   -6.2141   -0.1431 H   0  0  0  0  0  0  0  0  0  0  0  0
    2.5699   -6.2585    0.2566 H   0  0  0  0  0  0  0  0  0  0  0  0
    2.5598   -4.3838   -0.8026 H   0  0  0  0  0  0  0  0  0  0  0  0
    2.8060   -3.6327    0.7025 H   0  0  0  0  0  0  0  0  0  0  0  0
    5.2492   -4.3956   -0.9841 H   0  0  0  0  0  0  0  0  0  0  0  0
    4.0864    0.0269   -3.3027 H   0  0  0  0  0  0  0  0  0  0  0  0
    2.7580   -1.1312   -3.2800 H   0  0  0  0  0  0  0  0  0  0  0  0
    4.2683   -1.5362   -4.0979 H   0  0  0  0  0  0  0  0  0  0  0  0
    6.8336   -3.6466    1.2426 H   0  0  0  0  0  0  0  0  0  0  0  0
    6.3458   -2.1538    1.9732 H   0  0  0  0  0  0  0  0  0  0  0  0
    5.3858   -3.4642    3.4912 H   0  0  0  0  0  0  0  0  0  0  0  0
    4.0536   -3.3952    2.4566 H   0  0  0  0  0  0  0  0  0  0  0  0
    5.8671   -5.5752    1.6476 H   0  0  0  0  0  0  0  0  0  0  0  0
    6.6238   -5.2101    3.9770 H   0  0  0  0  0  0  0  0  0  0  0  0
    5.1110   -5.7903    4.5885 H   0  0  0  0  0  0  0  0  0  0  0  0
    6.9353   -7.3867    2.7060 H   0  0  0  0  0  0  0  0  0  0  0  0
    7.2072   -7.3306    4.3989 H   0  0  0  0  0  0  0  0  0  0  0  0
    5.4968   -8.5448    5.0236 H   0  0  0  0  0  0  0  0  0  0  0  0
  2  1  1  1
  1 31  1  0
  1 32  1  0
  1 33  1  0
  2 27  1  0
  2 28  1  0
  2  3  1  0
  3  4  1  0
  3 34  1  0
  3 35  1  0
  4 24  1  0
  4  5  1  0
  4 36  1  6
  5  6  1  0
  5 37  1  0
  5 38  1  0
  6  7  1  0
  6 39  1  0
  6 40  1  0
  7 25  1  0
  7  8  1  0
  7 41  1  6
  8 21  1  0
  8  9  1  1
  8 10  1  0
  9 42  1  0
  9 43  1  0
  9 44  1  0
 10 11  1  0
 10 45  1  0
 10 46  1  0
 11 12  1  0
 11 47  1  0
 11 48  1  0
 12 18  1  0
 12 13  1  0
 12 49  1  6
 13 14  1  0
 14 30  1  0
 14 15  1  6
 14 16  1  0
 15 50  1  0
 15 51  1  0
 15 52  1  0
 16 17  1  0
 17 18  1  0
 18 19  1  1
 18 29  1  0
 19 20  1  0
 19 53  1  0
 19 54  1  0
 20 21  1  0
 20 55  1  0
 20 56  1  0
 21 22  1  0
 21 57  1  6
 22 23  1  0
 22 58  1  0
 22 59  1  0
 23 24  1  0
 23 60  1  0
 23 61  1  0
 24 25  1  0
 24 62  1  1
 25 26  1  1
 25 28  1  0
 26 27  1  0
 29 30  1  0
M  END
>  <i_m_ct_stereo_status>  (103) 
1

>  <s_m_source_file>  (103) 
/var/tmp/pbs.5076255.sched01/tmpmalnbme9/37wob9dpop.sdf

>  <i_m_source_file_index>  (103) 
13

>  <i_lp_mmshare_version>  (103) 
48012

>  <i_f3d_flags>  (103) 
0

>  <s_epik_input>  (103) 
W0NIMl0xW0NIMl1bQ0BIXTJbQ0gyXVtDSDJdW0NASF0oW0NASF0oW0NIMl1bQ0gyXTMpW0NIMl1bQ0BAXShPNCkoW0NIM10pT081KVtDQEBdNDVbQ0BIXTNbQ0BdMihbQ0gzXSlbQ0gyXVtDSDJdW0NASF0oW0NAQF0xNjcpT1tDQF0oW0NIM10pKE9PNilPTzc=

>  <s_epik_cmdline>  (103) 
J2VwaWtfcHl0aG9uJywgJy1waHQnLCAnMi4wJywgJy1waCcsICc3LjAnLCAnLXRuJywgJzgnLCAnLW1hJywgJzIwMCcsICctaW1hZScsICc8aW5maWxlLm1hZT4nLCAnLW9tYWUnLCAnPG91dGZpbGUubWFlPic=

>  <r_lp_tautomer_probability>  (103) 
1

>  <r_epik_Ionization_Penalty>  (103) 
1.18402e-15

>  <r_epik_Ionization_Penalty_Charging>  (103) 
0

>  <r_epik_Ionization_Penalty_Neutral>  (103) 
1.18402e-15

>  <r_epik_State_Penalty>  (103) 
-0

>  <r_epik_Charging_Adjusted_Penalty>  (103) 
0

>  <i_epik_Tot_Q>  (103) 
0

>  <i_epik_Tot_abs_Q>  (103) 
0

>  <s_lp_Force_Field>  (103) 
OPLS3e

>  <r_lp_Energy>  (103) 
87.5262

>  <b_lp_Chiralities_Consistent>  (103) 
1

>  <s_lp_Variant>  (103) 
37:0-1

>  <s_i_glide_gridfile>  (103) 
pfpi4k_grid

>  <i_i_glide_lignum>  (103) 
13

>  <i_i_glide_rotatable_bonds>  (103) 
0

>  <r_i_docking_score>  (103) 
-2.58202

>  <r_i_glide_ligand_efficiency>  (103) 
-0.0860672

>  <r_i_glide_ligand_efficiency_sa>  (103) 
-0.267431

>  <r_i_glide_ligand_efficiency_ln>  (103) 
-0.586662

>  <r_i_glide_gscore>  (103) 
-2.58202

>  <r_i_glide_lipo>  (103) 
-0.322633

>  <r_i_glide_hbond>  (103) 
-0.120358

>  <r_i_glide_metal>  (103) 
-0

>  <r_i_glide_rewards>  (103) 
-0.543333

>  <r_i_glide_evdw>  (103) 
-29.6974

>  <r_i_glide_ecoul>  (103) 
-0.442399

>  <r_i_glide_erotb>  (103) 
0

>  <r_i_glide_esite>  (103) 
-0.0444612

>  <r_i_glide_emodel>  (103) 
-35.1755

>  <r_i_glide_energy>  (103) 
-30.1398

>  <r_i_glide_einternal>  (103) 
0

>  <r_i_glide_intrahb_reward>  (103) 
-0

>  <i_i_glide_confnum>  (103) 
1

>  <i_i_glide_posenum>  (103) 
30

>  <r_i_glide_eff_state_penalty>  (103) 
0

>  <ligand_id>  (103) 
37

>  <original_smiles>  (103) 
CC12CC3CCC4C5(C)CCC6OC7(C)OOC6(CCC5CCC3C4(OO1)O2)OO7

>  <smiles>  (103) 
[H]C([H])([H])C12OOC3(OO1)C([H])([H])C([H])([H])C1([H])C([H])([H])C([H])([H])C4([H])C56OOC(C([H])([H])[H])(O5)C([H])([H])C4([H])C([H])([H])C([H])([H])C6([H])C1(C([H])([H])[H])C([H])([H])C([H])([H])C3([H])O2

$$$$
37:0:2
     RDKit          3D

 62 68  0  0  1  0  0  0  0  0999 V2000
    0.6382   -9.4359    6.1467 C   0  0  0  0  0  0  0  0  0  0  0  0
    1.9150   -9.1016    5.3701 C   0  0  2  0  0  0  0  0  0  0  0  0
    2.5015  -10.3277    4.5930 C   0  0  0  0  0  0  0  0  0  0  0  0
    3.3261   -9.8993    3.3324 C   0  0  1  0  0  0  0  0  0  0  0  0
    2.4984   -9.4919    2.0606 C   0  0  0  0  0  0  0  0  0  0  0  0
    2.4474   -7.9619    1.6669 C   0  0  0  0  0  0  0  0  0  0  0  0
    2.5732   -6.8725    2.8043 C   0  0  2  0  0  0  0  0  0  0  0  0
    3.3927   -5.5634    2.4324 C   0  0  2  0  0  0  0  0  0  0  0  0
    3.2823   -4.5946    3.6436 C   0  0  0  0  0  0  0  0  0  0  0  0
    2.6324   -4.9385    1.2133 C   0  0  0  0  0  0  0  0  0  0  0  0
    3.0639   -3.5824    0.5874 C   0  0  0  0  0  0  0  0  0  0  0  0
    3.9504   -3.6635   -0.6855 C   0  0  1  0  0  0  0  0  0  0  0  0
    3.4044   -2.7406   -1.6183 O   0  0  0  0  0  0  0  0  0  0  0  0
    4.3554   -1.8068   -2.0930 C   0  0  2  0  0  0  0  0  0  0  0  0
    3.7030   -0.8575   -3.0852 C   0  0  0  0  0  0  0  0  0  0  0  0
    5.4007   -2.4939   -2.7550 O   0  0  0  0  0  0  0  0  0  0  0  0
    6.0635   -3.4554   -1.7769 O   0  0  0  0  0  0  0  0  0  0  0  0
    5.4612   -3.3466   -0.4864 C   0  0  2  0  0  0  0  0  0  0  0  0
    6.2624   -4.2978    0.4004 C   0  0  0  0  0  0  0  0  0  0  0  0
    5.7470   -4.5296    1.8387 C   0  0  0  0  0  0  0  0  0  0  0  0
    4.8940   -5.8252    2.0364 C   0  0  1  0  0  0  0  0  0  0  0  0
    5.6615   -6.7888    2.9736 C   0  0  0  0  0  0  0  0  0  0  0  0
    5.2425   -8.2635    2.8805 C   0  0  0  0  0  0  0  0  0  0  0  0
    4.0765   -8.6775    3.8053 C   0  0  1  0  0  0  0  0  0  0  0  0
    2.9201   -7.6530    4.0807 C   0  0  1  0  0  0  0  0  0  0  0  0
    3.2360   -7.1527    5.3558 O   0  0  0  0  0  0  0  0  0  0  0  0
    2.8307   -8.3740    6.2155 O   0  0  0  0  0  0  0  0  0  0  0  0
    1.6410   -8.2631    4.2960 O   0  0  0  0  0  0  0  0  0  0  0  0
    5.5522   -2.0058   -0.0059 O   0  0  0  0  0  0  0  0  0  0  0  0
    4.8949   -1.0562   -1.0100 O   0  0  0  0  0  0  0  0  0  0  0  0
    0.1816   -8.5437    6.5732 H   0  0  0  0  0  0  0  0  0  0  0  0
    0.8430  -10.1290    6.9681 H   0  0  0  0  0  0  0  0  0  0  0  0
   -0.1099   -9.9128    5.5066 H   0  0  0  0  0  0  0  0  0  0  0  0
    3.1238  -10.9154    5.2776 H   0  0  0  0  0  0  0  0  0  0  0  0
    1.7000  -11.0054    4.2780 H   0  0  0  0  0  0  0  0  0  0  0  0
    4.0029  -10.7067    3.0631 H   0  0  0  0  0  0  0  0  0  0  0  0
    2.9048  -10.0312    1.2041 H   0  0  0  0  0  0  0  0  0  0  0  0
    1.4768   -9.8573    2.1629 H   0  0  0  0  0  0  0  0  0  0  0  0
    3.2248   -7.7844    0.9306 H   0  0  0  0  0  0  0  0  0  0  0  0
    1.5230   -7.7852    1.1231 H   0  0  0  0  0  0  0  0  0  0  0  0
    1.5626   -6.5066    2.9848 H   0  0  0  0  0  0  0  0  0  0  0  0
    3.5057   -3.5629    3.3932 H   0  0  0  0  0  0  0  0  0  0  0  0
    3.9567   -4.8771    4.4520 H   0  0  0  0  0  0  0  0  0  0  0  0
    2.2736   -4.5856    4.0523 H   0  0  0  0  0  0  0  0  0  0  0  0
    2.5604   -5.6639    0.4015 H   0  0  0  0  0  0  0  0  0  0  0  0
    1.6078   -4.8004    1.5477 H   0  0  0  0  0  0  0  0  0  0  0  0
    2.1366   -3.1193    0.2570 H   0  0  0  0  0  0  0  0  0  0  0  0
    3.4447   -2.8629    1.3081 H   0  0  0  0  0  0  0  0  0  0  0  0
    3.8604   -4.6562   -1.1209 H   0  0  0  0  0  0  0  0  0  0  0  0
    4.4190   -0.1241   -3.4755 H   0  0  0  0  0  0  0  0  0  0  0  0
    2.8859   -0.2907   -2.6285 H   0  0  0  0  0  0  0  0  0  0  0  0
    3.2793   -1.3888   -3.9422 H   0  0  0  0  0  0  0  0  0  0  0  0
    6.3876   -5.2665   -0.0927 H   0  0  0  0  0  0  0  0  0  0  0  0
    7.2758   -3.8964    0.4772 H   0  0  0  0  0  0  0  0  0  0  0  0
    6.6225   -4.5980    2.4771 H   0  0  0  0  0  0  0  0  0  0  0  0
    5.2701   -3.6221    2.1992 H   0  0  0  0  0  0  0  0  0  0  0  0
    4.8638   -6.3250    1.0692 H   0  0  0  0  0  0  0  0  0  0  0  0
    6.7086   -6.7811    2.6605 H   0  0  0  0  0  0  0  0  0  0  0  0
    5.6668   -6.4477    4.0087 H   0  0  0  0  0  0  0  0  0  0  0  0
    5.0717   -8.5412    1.8410 H   0  0  0  0  0  0  0  0  0  0  0  0
    6.1026   -8.8747    3.1656 H   0  0  0  0  0  0  0  0  0  0  0  0
    4.5768   -8.9453    4.7408 H   0  0  0  0  0  0  0  0  0  0  0  0
  2  1  1  1
  1 31  1  0
  1 32  1  0
  1 33  1  0
  2 27  1  0
  2 28  1  0
  2  3  1  0
  3  4  1  0
  3 34  1  0
  3 35  1  0
  4 24  1  0
  4  5  1  0
  4 36  1  6
  5  6  1  0
  5 37  1  0
  5 38  1  0
  6  7  1  0
  6 39  1  0
  6 40  1  0
  7 25  1  0
  7  8  1  0
  7 41  1  1
  8 21  1  0
  8  9  1  1
  8 10  1  0
  9 42  1  0
  9 43  1  0
  9 44  1  0
 10 11  1  0
 10 45  1  0
 10 46  1  0
 11 12  1  0
 11 47  1  0
 11 48  1  0
 12 18  1  0
 12 13  1  0
 12 49  1  6
 13 14  1  0
 14 30  1  0
 14 15  1  6
 14 16  1  0
 15 50  1  0
 15 51  1  0
 15 52  1  0
 16 17  1  0
 17 18  1  0
 18 19  1  1
 18 29  1  0
 19 20  1  0
 19 53  1  0
 19 54  1  0
 20 21  1  0
 20 55  1  0
 20 56  1  0
 21 22  1  0
 21 57  1  6
 22 23  1  0
 22 58  1  0
 22 59  1  0
 23 24  1  0
 23 60  1  0
 23 61  1  0
 24 25  1  0
 24 62  1  1
 25 26  1  1
 25 28  1  0
 26 27  1  0
 29 30  1  0
M  END
>  <i_m_ct_stereo_status>  (104) 
1

>  <s_m_source_file>  (104) 
/var/tmp/pbs.5076255.sched01/tmpmalnbme9/37wob9dpop.sdf

>  <i_m_source_file_index>  (104) 
13

>  <i_lp_mmshare_version>  (104) 
48012

>  <i_f3d_flags>  (104) 
0

>  <s_epik_input>  (104) 
W0NIMl0xW0NIMl1bQ0BIXTJbQ0gyXVtDSDJdW0NASF0oW0NASF0oW0NIMl1bQ0gyXTMpW0NIMl1bQ0BAXShPNCkoW0NIM10pT081KVtDQEBdNDVbQ0BIXTNbQ0BdMihbQ0gzXSlbQ0gyXVtDSDJdW0NASF0oW0NAQF0xNjcpT1tDQF0oW0NIM10pKE9PNilPTzc=

>  <s_epik_cmdline>  (104) 
J2VwaWtfcHl0aG9uJywgJy1waHQnLCAnMi4wJywgJy1waCcsICc3LjAnLCAnLXRuJywgJzgnLCAnLW1hJywgJzIwMCcsICctaW1hZScsICc8aW5maWxlLm1hZT4nLCAnLW9tYWUnLCAnPG91dGZpbGUubWFlPic=

>  <r_lp_tautomer_probability>  (104) 
1

>  <r_epik_Ionization_Penalty>  (104) 
1.18402e-15

>  <r_epik_Ionization_Penalty_Charging>  (104) 
0

>  <r_epik_Ionization_Penalty_Neutral>  (104) 
1.18402e-15

>  <r_epik_State_Penalty>  (104) 
-0

>  <r_epik_Charging_Adjusted_Penalty>  (104) 
0

>  <i_epik_Tot_Q>  (104) 
0

>  <i_epik_Tot_abs_Q>  (104) 
0

>  <s_lp_Force_Field>  (104) 
OPLS3e

>  <r_lp_Energy>  (104) 
87.5262

>  <b_lp_Chiralities_Consistent>  (104) 
1

>  <s_lp_Variant>  (104) 
37:0-1

>  <s_i_glide_gridfile>  (104) 
pfpi4k_grid

>  <i_i_glide_lignum>  (104) 
13

>  <i_i_glide_rotatable_bonds>  (104) 
0

>  <r_i_docking_score>  (104) 
-2.52395

>  <r_i_glide_ligand_efficiency>  (104) 
-0.0841318

>  <r_i_glide_ligand_efficiency_sa>  (104) 
-0.261417

>  <r_i_glide_ligand_efficiency_ln>  (104) 
-0.57347

>  <r_i_glide_gscore>  (104) 
-2.52395

>  <r_i_glide_lipo>  (104) 
-0.259695

>  <r_i_glide_hbond>  (104) 
0

>  <r_i_glide_metal>  (104) 
-0

>  <r_i_glide_rewards>  (104) 
-0.598361

>  <r_i_glide_evdw>  (104) 
-30.5346

>  <r_i_glide_ecoul>  (104) 
-0.61834

>  <r_i_glide_erotb>  (104) 
0

>  <r_i_glide_esite>  (104) 
-0.0464148

>  <r_i_glide_emodel>  (104) 
-35.989

>  <r_i_glide_energy>  (104) 
-31.153

>  <r_i_glide_einternal>  (104) 
0

>  <r_i_glide_intrahb_reward>  (104) 
-0

>  <i_i_glide_confnum>  (104) 
2

>  <i_i_glide_posenum>  (104) 
9

>  <r_i_glide_eff_state_penalty>  (104) 
0

>  <ligand_id>  (104) 
37

>  <original_smiles>  (104) 
CC12CC3CCC4C5(C)CCC6OC7(C)OOC6(CCC5CCC3C4(OO1)O2)OO7

>  <smiles>  (104) 
[H]C([H])([H])C12OOC3(OO1)C([H])([H])C([H])([H])C1([H])C([H])([H])C([H])([H])C4([H])C56OOC(C([H])([H])[H])(O5)C([H])([H])C4([H])C([H])([H])C([H])([H])C6([H])C1(C([H])([H])[H])C([H])([H])C([H])([H])C3([H])O2

$$$$
38:0:0
     RDKit          3D

 44 47  0  0  1  0  0  0  0  0999 V2000
    6.5333   -4.2355    0.4645 C   0  0  0  0  0  0  0  0  0  0  0  0
    5.6856   -2.9323    0.4559 C   0  0  0  0  0  0  0  0  0  0  0  0
    6.6194   -1.8231    1.0103 C   0  0  0  0  0  0  0  0  0  0  0  0
    5.3691   -2.5167   -1.0264 C   0  0  1  0  0  0  0  0  0  0  0  0
    5.0800   -3.6563   -2.0425 C   0  0  0  0  0  0  0  0  0  0  0  0
    4.6041   -3.1426   -3.3895 C   0  0  0  0  0  0  0  0  0  0  0  0
    4.1954   -1.8773   -3.5936 C   0  0  0  0  0  0  0  0  0  0  0  0
    4.1334   -0.8281   -2.5008 C   0  0  0  0  0  0  0  0  0  0  0  0
    4.2700   -1.4696   -1.1252 C   0  0  0  0  0  0  0  0  0  0  0  0
    3.4391   -1.1811   -0.1093 C   0  0  0  0  0  0  0  0  0  0  0  0
    3.4621   -1.7874    1.2872 C   0  0  2  0  0  0  0  0  0  0  0  0
    2.1231   -2.1088    1.6200 O   0  0  0  0  0  0  0  0  0  0  0  0
    3.8832   -0.6835    2.2843 C   0  0  0  0  0  0  0  0  0  0  0  0
    3.6442    0.4975    2.0287 O   0  0  0  0  0  0  0  0  0  0  0  0
    4.4870   -1.1301    3.5749 C   0  0  0  0  0  0  0  0  0  0  0  0
    4.7460   -0.1686    4.5804 C   0  0  0  0  0  0  0  0  0  0  0  0
    5.2661   -0.5555    5.8302 C   0  0  0  0  0  0  0  0  0  0  0  0
    5.5261   -1.9118    6.0917 C   0  0  0  0  0  0  0  0  0  0  0  0
    5.2977   -2.8730    5.0922 C   0  0  0  0  0  0  0  0  0  0  0  0
    4.8028   -2.4930    3.8217 C   0  0  0  0  0  0  0  0  0  0  0  0
    4.6284   -3.5487    2.7813 C   0  0  0  0  0  0  0  0  0  0  0  0
    4.7413   -4.7494    3.0361 O   0  0  0  0  0  0  0  0  0  0  0  0
    4.3548   -3.0847    1.3212 C   0  0  2  0  0  0  0  0  0  0  0  0
    3.5999   -4.1179    0.6922 O   0  0  0  0  0  0  0  0  0  0  0  0
    7.3834   -4.1576   -0.2148 H   0  0  0  0  0  0  0  0  0  0  0  0
    5.9526   -5.1048    0.1540 H   0  0  0  0  0  0  0  0  0  0  0  0
    6.9413   -4.4585    1.4508 H   0  0  0  0  0  0  0  0  0  0  0  0
    6.2037   -0.8202    0.9073 H   0  0  0  0  0  0  0  0  0  0  0  0
    7.5768   -1.8043    0.4849 H   0  0  0  0  0  0  0  0  0  0  0  0
    6.8450   -1.9741    2.0627 H   0  0  0  0  0  0  0  0  0  0  0  0
    6.2621   -2.0274   -1.4169 H   0  0  0  0  0  0  0  0  0  0  0  0
    5.9831   -4.2336   -2.2214 H   0  0  0  0  0  0  0  0  0  0  0  0
    4.3291   -4.3551   -1.6823 H   0  0  0  0  0  0  0  0  0  0  0  0
    4.5971   -3.8557   -4.2023 H   0  0  0  0  0  0  0  0  0  0  0  0
    3.8748   -1.5610   -4.5755 H   0  0  0  0  0  0  0  0  0  0  0  0
    4.9424   -0.1140   -2.6514 H   0  0  0  0  0  0  0  0  0  0  0  0
    3.1920   -0.2842   -2.5851 H   0  0  0  0  0  0  0  0  0  0  0  0
    2.6622   -0.4486   -0.2678 H   0  0  0  0  0  0  0  0  0  0  0  0
    1.5612   -1.5357    1.1077 H   0  0  0  0  0  0  0  0  0  0  0  0
    4.5333    0.8773    4.4043 H   0  0  0  0  0  0  0  0  0  0  0  0
    5.4538    0.1883    6.5937 H   0  0  0  0  0  0  0  0  0  0  0  0
    5.9177   -2.2141    7.0553 H   0  0  0  0  0  0  0  0  0  0  0  0
    5.5288   -3.9086    5.3036 H   0  0  0  0  0  0  0  0  0  0  0  0
    3.4255   -3.8575   -0.2028 H   0  0  0  0  0  0  0  0  0  0  0  0
  1  2  1  0
  1 25  1  0
  1 26  1  0
  1 27  1  0
  2 23  1  0
  2  3  1  0
  2  4  1  0
  3 28  1  0
  3 29  1  0
  3 30  1  0
  4  9  1  0
  4  5  1  0
  4 31  1  6
  5  6  1  0
  5 32  1  0
  5 33  1  0
  6  7  2  0
  6 34  1  0
  7  8  1  0
  7 35  1  0
  8  9  1  0
  8 36  1  0
  8 37  1  0
  9 10  2  0
 10 11  1  0
 10 38  1  0
 11 23  1  0
 11 12  1  1
 11 13  1  0
 12 39  1  0
 13 14  2  0
 13 15  1  0
 15 20  2  0
 15 16  1  0
 16 17  2  0
 16 40  1  0
 17 18  1  0
 17 41  1  0
 18 19  2  0
 18 42  1  0
 19 20  1  0
 19 43  1  0
 20 21  1  0
 21 22  2  0
 21 23  1  0
 23 24  1  6
 24 44  1  0
M  END
>  <i_m_ct_stereo_status>  (105) 
1

>  <s_m_source_file>  (105) 
/var/tmp/pbs.5076255.sched01/tmpmalnbme9/37wob9dpop.sdf

>  <i_m_source_file_index>  (105) 
14

>  <i_lp_mmshare_version>  (105) 
48012

>  <i_f3d_flags>  (105) 
0

>  <s_epik_input>  (105) 
W0NIMl0xW0NIXT1bQ0hdW0NIMl1DKD1bQ0hdMilbQ0BIXTFDKFtDSDNdKShbQ0gzXSlbQ0BdKFtPSF0pKFtDQF0yM1tPSF0pQyg9TyljNGMoQzM9TylbY0hdW2NIXVtjSF1bY0hdNA==

>  <s_epik_cmdline>  (105) 
J2VwaWtfcHl0aG9uJywgJy1waHQnLCAnMi4wJywgJy1waCcsICc3LjAnLCAnLXRuJywgJzgnLCAnLW1hJywgJzIwMCcsICctaW1hZScsICc8aW5maWxlLm1hZT4nLCAnLW9tYWUnLCAnPG91dGZpbGUubWFlPic=

>  <r_lp_tautomer_probability>  (105) 
1

>  <r_epik_Ionization_Penalty>  (105) 
6.78193e-06

>  <r_epik_Ionization_Penalty_Charging>  (105) 
0

>  <r_epik_Ionization_Penalty_Neutral>  (105) 
6.78193e-06

>  <r_epik_State_Penalty>  (105) 
-0

>  <r_epik_Charging_Adjusted_Penalty>  (105) 
0

>  <i_epik_Tot_Q>  (105) 
0

>  <i_epik_Tot_abs_Q>  (105) 
0

>  <s_lp_Force_Field>  (105) 
OPLS3e

>  <r_lp_Energy>  (105) 
47.4564

>  <b_lp_Chiralities_Consistent>  (105) 
1

>  <s_lp_Variant>  (105) 
38:0-1

>  <s_i_glide_gridfile>  (105) 
pfpi4k_grid

>  <i_i_glide_lignum>  (105) 
14

>  <i_i_glide_rotatable_bonds>  (105) 
2

>  <r_i_docking_score>  (105) 
-3.49642

>  <r_i_glide_ligand_efficiency>  (105) 
-0.145684

>  <r_i_glide_ligand_efficiency_sa>  (105) 
-0.420226

>  <r_i_glide_ligand_efficiency_ln>  (105) 
-0.836854

>  <r_i_glide_gscore>  (105) 
-3.49642

>  <r_i_glide_lipo>  (105) 
-0.888184

>  <r_i_glide_hbond>  (105) 
0

>  <r_i_glide_metal>  (105) 
-0

>  <r_i_glide_rewards>  (105) 
-1.26491

>  <r_i_glide_evdw>  (105) 
-23.8243

>  <r_i_glide_ecoul>  (105) 
-1.01406

>  <r_i_glide_erotb>  (105) 
0

>  <r_i_glide_esite>  (105) 
0

>  <r_i_glide_emodel>  (105) 
-29.2182

>  <r_i_glide_energy>  (105) 
-24.8383

>  <r_i_glide_einternal>  (105) 
2.25355

>  <r_i_glide_intrahb_reward>  (105) 
-0

>  <i_i_glide_confnum>  (105) 
1

>  <i_i_glide_posenum>  (105) 
26

>  <r_i_glide_eff_state_penalty>  (105) 
0

>  <ligand_id>  (105) 
38

>  <original_smiles>  (105) 
CC1(C)C2CC=CCC2=CC2(O)C(=O)c3ccccc3C(=O)C21O

>  <smiles>  (105) 
[H]OC12C(=O)c3c([H])c([H])c([H])c([H])c3C(=O)C1(O[H])C(C([H])([H])[H])(C([H])([H])[H])C1([H])C(=C2[H])C([H])([H])C([H])=C([H])C1([H])[H]

$$$$
38:0:1
     RDKit          3D

 44 47  0  0  1  0  0  0  0  0999 V2000
    7.0942   -3.4443   -0.0142 C   0  0  0  0  0  0  0  0  0  0  0  0
    5.5621   -3.3137    0.1904 C   0  0  0  0  0  0  0  0  0  0  0  0
    5.4198   -2.1175    1.1748 C   0  0  0  0  0  0  0  0  0  0  0  0
    4.8881   -2.8542   -1.1541 C   0  0  1  0  0  0  0  0  0  0  0  0
    5.4484   -3.4570   -2.4714 C   0  0  0  0  0  0  0  0  0  0  0  0
    4.5994   -3.1315   -3.6830 C   0  0  0  0  0  0  0  0  0  0  0  0
    3.3729   -2.5988   -3.6133 C   0  0  0  0  0  0  0  0  0  0  0  0
    2.6646   -2.3409   -2.3100 C   0  0  0  0  0  0  0  0  0  0  0  0
    3.3769   -3.0233   -1.1462 C   0  0  0  0  0  0  0  0  0  0  0  0
    2.7181   -3.7652   -0.2409 C   0  0  0  0  0  0  0  0  0  0  0  0
    3.3314   -4.5187    0.9372 C   0  0  2  0  0  0  0  0  0  0  0  0
    2.7361   -5.8064    0.9469 O   0  0  0  0  0  0  0  0  0  0  0  0
    2.9044   -3.8289    2.2554 C   0  0  0  0  0  0  0  0  0  0  0  0
    1.8578   -3.1765    2.3174 O   0  0  0  0  0  0  0  0  0  0  0  0
    3.7708   -4.0573    3.4496 C   0  0  0  0  0  0  0  0  0  0  0  0
    3.3217   -3.5956    4.7077 C   0  0  0  0  0  0  0  0  0  0  0  0
    4.0848   -3.8092    5.8707 C   0  0  0  0  0  0  0  0  0  0  0  0
    5.3073   -4.5016    5.7859 C   0  0  0  0  0  0  0  0  0  0  0  0
    5.7723   -4.9510    4.5356 C   0  0  0  0  0  0  0  0  0  0  0  0
    5.0271   -4.7149    3.3569 C   0  0  0  0  0  0  0  0  0  0  0  0
    5.5848   -5.1634    2.0433 C   0  0  0  0  0  0  0  0  0  0  0  0
    6.5907   -5.8711    1.9524 O   0  0  0  0  0  0  0  0  0  0  0  0
    4.8857   -4.6503    0.7534 C   0  0  2  0  0  0  0  0  0  0  0  0
    5.0358   -5.6598   -0.2438 O   0  0  0  0  0  0  0  0  0  0  0  0
    7.5126   -2.5577   -0.4951 H   0  0  0  0  0  0  0  0  0  0  0  0
    7.3368   -4.2787   -0.6581 H   0  0  0  0  0  0  0  0  0  0  0  0
    7.6313   -3.5830    0.9256 H   0  0  0  0  0  0  0  0  0  0  0  0
    4.3828   -1.7949    1.2825 H   0  0  0  0  0  0  0  0  0  0  0  0
    5.9646   -1.2384    0.8155 H   0  0  0  0  0  0  0  0  0  0  0  0
    5.8137   -2.3395    2.1687 H   0  0  0  0  0  0  0  0  0  0  0  0
    5.0491   -1.7785   -1.2407 H   0  0  0  0  0  0  0  0  0  0  0  0
    6.4550   -3.0845   -2.6597 H   0  0  0  0  0  0  0  0  0  0  0  0
    5.4845   -4.5389   -2.4363 H   0  0  0  0  0  0  0  0  0  0  0  0
    5.0038   -3.3933   -4.6431 H   0  0  0  0  0  0  0  0  0  0  0  0
    2.8087   -2.3525   -4.5038 H   0  0  0  0  0  0  0  0  0  0  0  0
    2.6392   -1.2643   -2.1385 H   0  0  0  0  0  0  0  0  0  0  0  0
    1.6372   -2.7008   -2.3840 H   0  0  0  0  0  0  0  0  0  0  0  0
    1.6507   -3.8548   -0.3488 H   0  0  0  0  0  0  0  0  0  0  0  0
    3.1013   -6.2865    0.2056 H   0  0  0  0  0  0  0  0  0  0  0  0
    2.3754   -3.0741    4.7864 H   0  0  0  0  0  0  0  0  0  0  0  0
    3.7226   -3.4495    6.8290 H   0  0  0  0  0  0  0  0  0  0  0  0
    5.8892   -4.6771    6.6845 H   0  0  0  0  0  0  0  0  0  0  0  0
    6.7253   -5.4671    4.4879 H   0  0  0  0  0  0  0  0  0  0  0  0
    4.6101   -5.3706   -1.0488 H   0  0  0  0  0  0  0  0  0  0  0  0
  1  2  1  0
  1 25  1  0
  1 26  1  0
  1 27  1  0
  2 23  1  0
  2  3  1  0
  2  4  1  0
  3 28  1  0
  3 29  1  0
  3 30  1  0
  4  9  1  0
  4  5  1  0
  4 31  1  6
  5  6  1  0
  5 32  1  0
  5 33  1  0
  6  7  2  0
  6 34  1  0
  7  8  1  0
  7 35  1  0
  8  9  1  0
  8 36  1  0
  8 37  1  0
  9 10  2  0
 10 11  1  0
 10 38  1  0
 11 23  1  0
 11 12  1  1
 11 13  1  0
 12 39  1  0
 13 14  2  0
 13 15  1  0
 15 20  2  0
 15 16  1  0
 16 17  2  0
 16 40  1  0
 17 18  1  0
 17 41  1  0
 18 19  2  0
 18 42  1  0
 19 20  1  0
 19 43  1  0
 20 21  1  0
 21 22  2  0
 21 23  1  0
 23 24  1  6
 24 44  1  0
M  END
>  <i_m_ct_stereo_status>  (106) 
1

>  <s_m_source_file>  (106) 
/var/tmp/pbs.5076255.sched01/tmpmalnbme9/37wob9dpop.sdf

>  <i_m_source_file_index>  (106) 
14

>  <i_lp_mmshare_version>  (106) 
48012

>  <i_f3d_flags>  (106) 
0

>  <s_epik_input>  (106) 
W0NIMl0xW0NIXT1bQ0hdW0NIMl1DKD1bQ0hdMilbQ0BIXTFDKFtDSDNdKShbQ0gzXSlbQ0BdKFtPSF0pKFtDQF0yM1tPSF0pQyg9TyljNGMoQzM9TylbY0hdW2NIXVtjSF1bY0hdNA==

>  <s_epik_cmdline>  (106) 
J2VwaWtfcHl0aG9uJywgJy1waHQnLCAnMi4wJywgJy1waCcsICc3LjAnLCAnLXRuJywgJzgnLCAnLW1hJywgJzIwMCcsICctaW1hZScsICc8aW5maWxlLm1hZT4nLCAnLW9tYWUnLCAnPG91dGZpbGUubWFlPic=

>  <r_lp_tautomer_probability>  (106) 
1

>  <r_epik_Ionization_Penalty>  (106) 
6.78193e-06

>  <r_epik_Ionization_Penalty_Charging>  (106) 
0

>  <r_epik_Ionization_Penalty_Neutral>  (106) 
6.78193e-06

>  <r_epik_State_Penalty>  (106) 
-0

>  <r_epik_Charging_Adjusted_Penalty>  (106) 
0

>  <i_epik_Tot_Q>  (106) 
0

>  <i_epik_Tot_abs_Q>  (106) 
0

>  <s_lp_Force_Field>  (106) 
OPLS3e

>  <r_lp_Energy>  (106) 
47.4564

>  <b_lp_Chiralities_Consistent>  (106) 
1

>  <s_lp_Variant>  (106) 
38:0-1

>  <s_i_glide_gridfile>  (106) 
pfpi4k_grid

>  <i_i_glide_lignum>  (106) 
14

>  <i_i_glide_rotatable_bonds>  (106) 
2

>  <r_i_docking_score>  (106) 
-3.39204

>  <r_i_glide_ligand_efficiency>  (106) 
-0.141335

>  <r_i_glide_ligand_efficiency_sa>  (106) 
-0.407681

>  <r_i_glide_ligand_efficiency_ln>  (106) 
-0.811872

>  <r_i_glide_gscore>  (106) 
-3.39204

>  <r_i_glide_lipo>  (106) 
-0.963954

>  <r_i_glide_hbond>  (106) 
0

>  <r_i_glide_metal>  (106) 
-0

>  <r_i_glide_rewards>  (106) 
-1.2413

>  <r_i_glide_evdw>  (106) 
-23.1231

>  <r_i_glide_ecoul>  (106) 
-0.190239

>  <r_i_glide_erotb>  (106) 
0

>  <r_i_glide_esite>  (106) 
-0.00210518

>  <r_i_glide_emodel>  (106) 
-28.234

>  <r_i_glide_energy>  (106) 
-23.3133

>  <r_i_glide_einternal>  (106) 
0.162288

>  <r_i_glide_intrahb_reward>  (106) 
-0

>  <i_i_glide_confnum>  (106) 
1

>  <i_i_glide_posenum>  (106) 
1

>  <r_i_glide_eff_state_penalty>  (106) 
0

>  <ligand_id>  (106) 
38

>  <original_smiles>  (106) 
CC1(C)C2CC=CCC2=CC2(O)C(=O)c3ccccc3C(=O)C21O

>  <smiles>  (106) 
[H]OC12C(=O)c3c([H])c([H])c([H])c([H])c3C(=O)C1(O[H])C(C([H])([H])[H])(C([H])([H])[H])C1([H])C(=C2[H])C([H])([H])C([H])=C([H])C1([H])[H]

$$$$
38:0:2
     RDKit          3D

 44 47  0  0  1  0  0  0  0  0999 V2000
    7.2192   -3.4342    0.4654 C   0  0  0  0  0  0  0  0  0  0  0  0
    5.7300   -3.0063    0.5552 C   0  0  0  0  0  0  0  0  0  0  0  0
    5.7388   -1.6873    1.3871 C   0  0  0  0  0  0  0  0  0  0  0  0
    5.2086   -2.6096   -0.8737 C   0  0  1  0  0  0  0  0  0  0  0  0
    5.7272   -3.4495   -2.0758 C   0  0  0  0  0  0  0  0  0  0  0  0
    5.0090   -3.1354   -3.3759 C   0  0  0  0  0  0  0  0  0  0  0  0
    3.8819   -2.4062   -3.4418 C   0  0  0  0  0  0  0  0  0  0  0  0
    3.1657   -1.8756   -2.2191 C   0  0  0  0  0  0  0  0  0  0  0  0
    3.6934   -2.5346   -0.9508 C   0  0  0  0  0  0  0  0  0  0  0  0
    2.8765   -3.0554   -0.0199 C   0  0  0  0  0  0  0  0  0  0  0  0
    3.2912   -3.7455    1.2717 C   0  0  2  0  0  0  0  0  0  0  0  0
    2.4977   -4.9196    1.3912 O   0  0  0  0  0  0  0  0  0  0  0  0
    2.9070   -2.8375    2.4666 C   0  0  0  0  0  0  0  0  0  0  0  0
    1.9700   -2.0422    2.3664 O   0  0  0  0  0  0  0  0  0  0  0  0
    3.6621   -3.0338    3.7389 C   0  0  0  0  0  0  0  0  0  0  0  0
    3.2391   -2.3496    4.9044 C   0  0  0  0  0  0  0  0  0  0  0  0
    3.8965   -2.5370    6.1356 C   0  0  0  0  0  0  0  0  0  0  0  0
    4.9855   -3.4227    6.2183 C   0  0  0  0  0  0  0  0  0  0  0  0
    5.4273   -4.0924    5.0629 C   0  0  0  0  0  0  0  0  0  0  0  0
    4.7958   -3.8904    3.8152 C   0  0  0  0  0  0  0  0  0  0  0  0
    5.3404   -4.5891    2.6122 C   0  0  0  0  0  0  0  0  0  0  0  0
    6.2112   -5.4583    2.6870 O   0  0  0  0  0  0  0  0  0  0  0  0
    4.8150   -4.1371    1.2188 C   0  0  2  0  0  0  0  0  0  0  0  0
    4.8712   -5.2722    0.3523 O   0  0  0  0  0  0  0  0  0  0  0  0
    7.8082   -2.6963   -0.0844 H   0  0  0  0  0  0  0  0  0  0  0  0
    7.3378   -4.3925   -0.0384 H   0  0  0  0  0  0  0  0  0  0  0  0
    7.6800   -3.5293    1.4498 H   0  0  0  0  0  0  0  0  0  0  0  0
    4.7647   -1.1920    1.3862 H   0  0  0  0  0  0  0  0  0  0  0  0
    6.4369   -0.9560    0.9721 H   0  0  0  0  0  0  0  0  0  0  0  0
    6.0350   -1.8419    2.4261 H   0  0  0  0  0  0  0  0  0  0  0  0
    5.5561   -1.5931   -1.0691 H   0  0  0  0  0  0  0  0  0  0  0  0
    6.7903   -3.2682   -2.2344 H   0  0  0  0  0  0  0  0  0  0  0  0
    5.5943   -4.5149   -1.9099 H   0  0  0  0  0  0  0  0  0  0  0  0
    5.4325   -3.5476   -4.2816 H   0  0  0  0  0  0  0  0  0  0  0  0
    3.4105   -2.1892   -4.3897 H   0  0  0  0  0  0  0  0  0  0  0  0
    3.3048   -0.7939   -2.1680 H   0  0  0  0  0  0  0  0  0  0  0  0
    2.1032   -2.0813   -2.3290 H   0  0  0  0  0  0  0  0  0  0  0  0
    1.8115   -2.9614   -0.1702 H   0  0  0  0  0  0  0  0  0  0  0  0
    2.8151   -5.5347    0.7406 H   0  0  0  0  0  0  0  0  0  0  0  0
    2.3930   -1.6781    4.8612 H   0  0  0  0  0  0  0  0  0  0  0  0
    3.5580   -2.0108    7.0199 H   0  0  0  0  0  0  0  0  0  0  0  0
    5.4881   -3.5798    7.1654 H   0  0  0  0  0  0  0  0  0  0  0  0
    6.2777   -4.7553    5.1417 H   0  0  0  0  0  0  0  0  0  0  0  0
    4.5877   -5.0088   -0.5151 H   0  0  0  0  0  0  0  0  0  0  0  0
  1  2  1  0
  1 25  1  0
  1 26  1  0
  1 27  1  0
  2 23  1  0
  2  3  1  0
  2  4  1  0
  3 28  1  0
  3 29  1  0
  3 30  1  0
  4  9  1  0
  4  5  1  0
  4 31  1  6
  5  6  1  0
  5 32  1  0
  5 33  1  0
  6  7  2  0
  6 34  1  0
  7  8  1  0
  7 35  1  0
  8  9  1  0
  8 36  1  0
  8 37  1  0
  9 10  2  0
 10 11  1  0
 10 38  1  0
 11 23  1  0
 11 12  1  1
 11 13  1  0
 12 39  1  0
 13 14  2  0
 13 15  1  0
 15 20  2  0
 15 16  1  0
 16 17  2  0
 16 40  1  0
 17 18  1  0
 17 41  1  0
 18 19  2  0
 18 42  1  0
 19 20  1  0
 19 43  1  0
 20 21  1  0
 21 22  2  0
 21 23  1  0
 23 24  1  6
 24 44  1  0
M  END
>  <i_m_ct_stereo_status>  (107) 
1

>  <s_m_source_file>  (107) 
/var/tmp/pbs.5076255.sched01/tmpmalnbme9/37wob9dpop.sdf

>  <i_m_source_file_index>  (107) 
14

>  <i_lp_mmshare_version>  (107) 
48012

>  <i_f3d_flags>  (107) 
0

>  <s_epik_input>  (107) 
W0NIMl0xW0NIXT1bQ0hdW0NIMl1DKD1bQ0hdMilbQ0BIXTFDKFtDSDNdKShbQ0gzXSlbQ0BdKFtPSF0pKFtDQF0yM1tPSF0pQyg9TyljNGMoQzM9TylbY0hdW2NIXVtjSF1bY0hdNA==

>  <s_epik_cmdline>  (107) 
J2VwaWtfcHl0aG9uJywgJy1waHQnLCAnMi4wJywgJy1waCcsICc3LjAnLCAnLXRuJywgJzgnLCAnLW1hJywgJzIwMCcsICctaW1hZScsICc8aW5maWxlLm1hZT4nLCAnLW9tYWUnLCAnPG91dGZpbGUubWFlPic=

>  <r_lp_tautomer_probability>  (107) 
1

>  <r_epik_Ionization_Penalty>  (107) 
6.78193e-06

>  <r_epik_Ionization_Penalty_Charging>  (107) 
0

>  <r_epik_Ionization_Penalty_Neutral>  (107) 
6.78193e-06

>  <r_epik_State_Penalty>  (107) 
-0

>  <r_epik_Charging_Adjusted_Penalty>  (107) 
0

>  <i_epik_Tot_Q>  (107) 
0

>  <i_epik_Tot_abs_Q>  (107) 
0

>  <s_lp_Force_Field>  (107) 
OPLS3e

>  <r_lp_Energy>  (107) 
47.4564

>  <b_lp_Chiralities_Consistent>  (107) 
1

>  <s_lp_Variant>  (107) 
38:0-1

>  <s_i_glide_gridfile>  (107) 
pfpi4k_grid

>  <i_i_glide_lignum>  (107) 
14

>  <i_i_glide_rotatable_bonds>  (107) 
2

>  <r_i_docking_score>  (107) 
-3.38557

>  <r_i_glide_ligand_efficiency>  (107) 
-0.141065

>  <r_i_glide_ligand_efficiency_sa>  (107) 
-0.406903

>  <r_i_glide_ligand_efficiency_ln>  (107) 
-0.810322

>  <r_i_glide_gscore>  (107) 
-3.38557

>  <r_i_glide_lipo>  (107) 
-0.985554

>  <r_i_glide_hbond>  (107) 
0

>  <r_i_glide_metal>  (107) 
-0

>  <r_i_glide_rewards>  (107) 
-1.22262

>  <r_i_glide_evdw>  (107) 
-24.2508

>  <r_i_glide_ecoul>  (107) 
0.244419

>  <r_i_glide_erotb>  (107) 
0

>  <r_i_glide_esite>  (107) 
-0.00152035

>  <r_i_glide_emodel>  (107) 
-29.2442

>  <r_i_glide_energy>  (107) 
-24.0063

>  <r_i_glide_einternal>  (107) 
0.0390319

>  <r_i_glide_intrahb_reward>  (107) 
-0

>  <i_i_glide_confnum>  (107) 
2

>  <i_i_glide_posenum>  (107) 
36

>  <r_i_glide_eff_state_penalty>  (107) 
0

>  <ligand_id>  (107) 
38

>  <original_smiles>  (107) 
CC1(C)C2CC=CCC2=CC2(O)C(=O)c3ccccc3C(=O)C21O

>  <smiles>  (107) 
[H]OC12C(=O)c3c([H])c([H])c([H])c([H])c3C(=O)C1(O[H])C(C([H])([H])[H])(C([H])([H])[H])C1([H])C(=C2[H])C([H])([H])C([H])=C([H])C1([H])[H]

$$$$
39:0:0
     RDKit          3D

 49 53  0  0  1  0  0  0  0  0999 V2000
    5.3391   -0.6871   -0.2541 C   0  0  0  0  0  0  0  0  0  0  0  0
    5.2848   -1.9738    0.5831 C   0  0  2  0  0  0  0  0  0  0  0  0
    6.6948   -2.6490    0.5196 C   0  0  0  0  0  0  0  0  0  0  0  0
    6.6418   -4.1971    0.5908 C   0  0  0  0  0  0  0  0  0  0  0  0
    5.2844   -4.6989    0.1324 C   0  0  2  0  0  0  0  0  0  0  0  0
    4.7222   -3.9029   -1.0648 C   0  0  0  0  0  0  0  0  0  0  0  0
    4.2489   -2.9534    0.0374 C   0  0  1  0  0  0  0  0  0  0  0  0
    3.9930   -4.2391    0.8923 C   0  0  1  0  0  0  0  0  0  0  0  0
    2.7042   -5.0361    0.6242 C   0  0  0  0  0  0  0  0  0  0  0  0
    2.4330   -6.1832    1.5831 C   0  0  0  0  0  0  0  0  0  0  0  0
    3.0445   -6.3364    2.7722 C   0  0  0  0  0  0  0  0  0  0  0  0
    2.7386   -7.5679    3.6307 C   0  0  0  0  0  0  0  0  0  0  0  0
    2.4184   -7.1463    5.0601 C   0  0  0  0  0  0  0  0  0  0  0  0
    1.4513   -7.6007    5.6715 O   0  0  0  0  0  0  0  0  0  0  0  0
    3.3834   -6.1758    5.7147 C   0  0  0  0  0  0  0  0  0  0  0  0
    3.6419   -4.9624    4.7959 C   0  0  0  0  0  0  0  0  0  0  0  0
    4.0331   -5.3151    3.3248 C   0  0  1  0  0  0  0  0  0  0  0  0
    5.4322   -5.9794    3.3315 C   0  0  0  0  0  0  0  0  0  0  0  0
    3.9701   -4.0003    2.4418 C   0  0  1  0  0  0  0  0  0  0  0  0
    4.8764   -2.8455    2.9434 C   0  0  0  0  0  0  0  0  0  0  0  0
    4.8836   -1.6180    2.0217 C   0  0  0  0  0  0  0  0  0  0  0  0
    6.1075   -0.0199    0.1455 H   0  0  0  0  0  0  0  0  0  0  0  0
    4.3944   -0.1481   -0.2383 H   0  0  0  0  0  0  0  0  0  0  0  0
    5.5887   -0.8944   -1.2930 H   0  0  0  0  0  0  0  0  0  0  0  0
    7.1733   -2.3868   -0.4166 H   0  0  0  0  0  0  0  0  0  0  0  0
    7.3566   -2.2532    1.2913 H   0  0  0  0  0  0  0  0  0  0  0  0
    7.4323   -4.6071   -0.0415 H   0  0  0  0  0  0  0  0  0  0  0  0
    6.8692   -4.5507    1.5881 H   0  0  0  0  0  0  0  0  0  0  0  0
    5.2496   -5.7820   -0.0776 H   0  0  0  0  0  0  0  0  0  0  0  0
    5.4864   -3.4815   -1.7279 H   0  0  0  0  0  0  0  0  0  0  0  0
    3.9258   -4.3336   -1.6349 H   0  0  0  0  0  0  0  0  0  0  0  0
    3.2880   -2.4827   -0.2451 H   0  0  0  0  0  0  0  0  0  0  0  0
    1.8559   -4.3595    0.6364 H   0  0  0  0  0  0  0  0  0  0  0  0
    2.7099   -5.5012   -0.3603 H   0  0  0  0  0  0  0  0  0  0  0  0
    1.7184   -6.9152    1.2404 H   0  0  0  0  0  0  0  0  0  0  0  0
    1.9049   -8.1256    3.2211 H   0  0  0  0  0  0  0  0  0  0  0  0
    3.6026   -8.2254    3.6459 H   0  0  0  0  0  0  0  0  0  0  0  0
    2.9820   -5.8441    6.6707 H   0  0  0  0  0  0  0  0  0  0  0  0
    4.3129   -6.7002    5.9334 H   0  0  0  0  0  0  0  0  0  0  0  0
    2.7345   -4.3560    4.7911 H   0  0  0  0  0  0  0  0  0  0  0  0
    4.4126   -4.3454    5.2561 H   0  0  0  0  0  0  0  0  0  0  0  0
    6.2127   -5.3049    3.6767 H   0  0  0  0  0  0  0  0  0  0  0  0
    5.7022   -6.3534    2.3429 H   0  0  0  0  0  0  0  0  0  0  0  0
    5.4651   -6.8454    3.9933 H   0  0  0  0  0  0  0  0  0  0  0  0
    2.9772   -3.6031    2.6464 H   0  0  0  0  0  0  0  0  0  0  0  0
    4.5329   -2.5099    3.9246 H   0  0  0  0  0  0  0  0  0  0  0  0
    5.8951   -3.1804    3.0809 H   0  0  0  0  0  0  0  0  0  0  0  0
    5.5195   -0.8340    2.4226 H   0  0  0  0  0  0  0  0  0  0  0  0
    3.8719   -1.1959    2.0060 H   0  0  0  0  0  0  0  0  0  0  0  0
  2  1  1  6
  1 22  1  0
  1 23  1  0
  1 24  1  0
  2  7  1  0
  2 21  1  0
  2  3  1  0
  3  4  1  0
  3 25  1  0
  3 26  1  0
  4  5  1  0
  4 27  1  0
  4 28  1  0
  5  8  1  0
  5  6  1  0
  5 29  1  6
  6  7  1  0
  6 30  1  0
  6 31  1  0
  7  8  1  0
  7 32  1  6
  8 19  1  0
  8  9  1  6
  9 10  1  0
  9 33  1  0
  9 34  1  0
 10 11  2  0
 10 35  1  0
 11 17  1  0
 11 12  1  0
 12 13  1  0
 12 36  1  0
 12 37  1  0
 13 14  2  0
 13 15  1  0
 15 16  1  0
 15 38  1  0
 15 39  1  0
 16 17  1  0
 16 40  1  0
 16 41  1  0
 17 18  1  1
 17 19  1  0
 18 42  1  0
 18 43  1  0
 18 44  1  0
 19 20  1  0
 19 45  1  6
 20 21  1  0
 20 46  1  0
 20 47  1  0
 21 48  1  0
 21 49  1  0
M  END
>  <i_m_ct_stereo_status>  (108) 
1

>  <s_m_source_file>  (108) 
/var/tmp/pbs.5076255.sched01/tmpmalnbme9/37wob9dpop.sdf

>  <i_m_source_file_index>  (108) 
15

>  <i_lp_mmshare_version>  (108) 
48012

>  <i_f3d_flags>  (108) 
0

>  <s_epik_input>  (108) 
W0NAXTEyM1tDQEBIXTRbQ0gyXVtDSDJdW0NAQF0oW0NIM10pKFtDQEhdMVtDSDJdNClbQ0gyXVtDSDJdW0NAQEhdM1tDQF01KFtDSDNdKUMoPVtDSF1bQ0gyXTIpW0NIMl1DKD1PKVtDSDJdW0NIMl01

>  <s_epik_cmdline>  (108) 
J2VwaWtfcHl0aG9uJywgJy1waHQnLCAnMi4wJywgJy1waCcsICc3LjAnLCAnLXRuJywgJzgnLCAnLW1hJywgJzIwMCcsICctaW1hZScsICc8aW5maWxlLm1hZT4nLCAnLW9tYWUnLCAnPG91dGZpbGUubWFlPic=

>  <r_lp_tautomer_probability>  (108) 
1

>  <r_epik_Ionization_Penalty>  (108) 
1.63132e-13

>  <r_epik_Ionization_Penalty_Charging>  (108) 
0

>  <r_epik_Ionization_Penalty_Neutral>  (108) 
1.63132e-13

>  <r_epik_State_Penalty>  (108) 
-0

>  <r_epik_Charging_Adjusted_Penalty>  (108) 
0

>  <i_epik_Tot_Q>  (108) 
0

>  <i_epik_Tot_abs_Q>  (108) 
0

>  <s_lp_Force_Field>  (108) 
OPLS3e

>  <r_lp_Energy>  (108) 
63.4906

>  <b_lp_Chiralities_Consistent>  (108) 
1

>  <s_lp_Variant>  (108) 
39:0-1

>  <s_i_glide_gridfile>  (108) 
pfpi4k_grid

>  <i_i_glide_lignum>  (108) 
15

>  <i_i_glide_rotatable_bonds>  (108) 
0

>  <r_i_docking_score>  (108) 
-2.79324

>  <r_i_glide_ligand_efficiency>  (108) 
-0.133012

>  <r_i_glide_ligand_efficiency_sa>  (108) 
-0.366969

>  <r_i_glide_ligand_efficiency_ln>  (108) 
-0.690624

>  <r_i_glide_gscore>  (108) 
-2.79324

>  <r_i_glide_lipo>  (108) 
-0.455047

>  <r_i_glide_hbond>  (108) 
0

>  <r_i_glide_metal>  (108) 
-0

>  <r_i_glide_rewards>  (108) 
-1.46976

>  <r_i_glide_evdw>  (108) 
-17.4435

>  <r_i_glide_ecoul>  (108) 
0.0249147

>  <r_i_glide_erotb>  (108) 
0

>  <r_i_glide_esite>  (108) 
0

>  <r_i_glide_emodel>  (108) 
-20.0025

>  <r_i_glide_energy>  (108) 
-17.4186

>  <r_i_glide_einternal>  (108) 
0

>  <r_i_glide_intrahb_reward>  (108) 
-0

>  <i_i_glide_confnum>  (108) 
1

>  <i_i_glide_posenum>  (108) 
24

>  <r_i_glide_eff_state_penalty>  (108) 
0

>  <ligand_id>  (108) 
39

>  <original_smiles>  (108) 
CC12CCC3CC1C31CC=C3CC(=O)CCC3(C)C1CC2

>  <smiles>  (108) 
[H]C1=C2C([H])([H])C(=O)C([H])([H])C([H])([H])C2(C([H])([H])[H])C2([H])C([H])([H])C([H])([H])C3(C([H])([H])[H])C([H])([H])C([H])([H])C4([H])C([H])([H])C3([H])C42C1([H])[H]

$$$$
39:0:1
     RDKit          3D

 49 53  0  0  1  0  0  0  0  0999 V2000
    4.5955   -0.3881   -2.4881 C   0  0  0  0  0  0  0  0  0  0  0  0
    4.7512   -1.3308   -1.2970 C   0  0  2  0  0  0  0  0  0  0  0  0
    6.1868   -1.9283   -1.3057 C   0  0  0  0  0  0  0  0  0  0  0  0
    6.2693   -3.3923   -0.8794 C   0  0  0  0  0  0  0  0  0  0  0  0
    4.9214   -4.0423   -1.0752 C   0  0  2  0  0  0  0  0  0  0  0  0
    4.2072   -3.5868   -2.3652 C   0  0  0  0  0  0  0  0  0  0  0  0
    3.7648   -2.4439   -1.4719 C   0  0  1  0  0  0  0  0  0  0  0  0
    3.6784   -3.4753   -0.3127 C   0  0  1  0  0  0  0  0  0  0  0  0
    2.4097   -4.3416   -0.2202 C   0  0  0  0  0  0  0  0  0  0  0  0
    2.3187   -5.2245    1.0189 C   0  0  0  0  0  0  0  0  0  0  0  0
    3.0508   -5.0629    2.1299 C   0  0  0  0  0  0  0  0  0  0  0  0
    2.9147   -6.0395    3.2927 C   0  0  0  0  0  0  0  0  0  0  0  0
    2.7050   -5.2698    4.5941 C   0  0  0  0  0  0  0  0  0  0  0  0
    1.8525   -5.5923    5.4066 O   0  0  0  0  0  0  0  0  0  0  0  0
    3.6735   -4.1315    4.8787 C   0  0  0  0  0  0  0  0  0  0  0  0
    3.7600   -3.1874    3.6657 C   0  0  0  0  0  0  0  0  0  0  0  0
    4.0159   -3.8916    2.2959 C   0  0  1  0  0  0  0  0  0  0  0  0
    5.4463   -4.4791    2.3077 C   0  0  0  0  0  0  0  0  0  0  0  0
    3.7736   -2.8613    1.1244 C   0  0  1  0  0  0  0  0  0  0  0  0
    4.6731   -1.5985    1.2295 C   0  0  0  0  0  0  0  0  0  0  0  0
    4.4874   -0.6580    0.0483 C   0  0  0  0  0  0  0  0  0  0  0  0
    5.3649    0.3586   -2.3583 H   0  0  0  0  0  0  0  0  0  0  0  0
    3.6386    0.0988   -2.5645 H   0  0  0  0  0  0  0  0  0  0  0  0
    4.7859   -0.8491   -3.4552 H   0  0  0  0  0  0  0  0  0  0  0  0
    6.5918   -1.8741   -2.3083 H   0  0  0  0  0  0  0  0  0  0  0  0
    6.8649   -1.3628   -0.6586 H   0  0  0  0  0  0  0  0  0  0  0  0
    7.0232   -3.8539   -1.5099 H   0  0  0  0  0  0  0  0  0  0  0  0
    6.6210   -3.4933    0.1364 H   0  0  0  0  0  0  0  0  0  0  0  0
    4.9163   -5.1378   -1.0150 H   0  0  0  0  0  0  0  0  0  0  0  0
    4.8799   -3.3043   -3.1728 H   0  0  0  0  0  0  0  0  0  0  0  0
    3.3839   -4.1737   -2.7391 H   0  0  0  0  0  0  0  0  0  0  0  0
    2.7477   -2.1151   -1.7532 H   0  0  0  0  0  0  0  0  0  0  0  0
    1.5393   -3.6977   -0.3111 H   0  0  0  0  0  0  0  0  0  0  0  0
    2.2905   -5.0135   -1.0550 H   0  0  0  0  0  0  0  0  0  0  0  0
    1.6252   -6.0546    0.9405 H   0  0  0  0  0  0  0  0  0  0  0  0
    2.0746   -6.7109    3.1342 H   0  0  0  0  0  0  0  0  0  0  0  0
    3.8182   -6.6350    3.3791 H   0  0  0  0  0  0  0  0  0  0  0  0
    3.3513   -3.5841    5.7635 H   0  0  0  0  0  0  0  0  0  0  0  0
    4.6505   -4.5490    5.1166 H   0  0  0  0  0  0  0  0  0  0  0  0
    2.8210   -2.6342    3.6128 H   0  0  0  0  0  0  0  0  0  0  0  0
    4.5340   -2.4452    3.8657 H   0  0  0  0  0  0  0  0  0  0  0  0
    6.2075   -3.7049    2.3809 H   0  0  0  0  0  0  0  0  0  0  0  0
    5.6414   -5.0807    1.4184 H   0  0  0  0  0  0  0  0  0  0  0  0
    5.6083   -5.1449    3.1557 H   0  0  0  0  0  0  0  0  0  0  0  0
    2.7937   -2.4435    1.3441 H   0  0  0  0  0  0  0  0  0  0  0  0
    4.4026   -1.0214    2.1165 H   0  0  0  0  0  0  0  0  0  0  0  0
    5.7273   -1.8293    1.3399 H   0  0  0  0  0  0  0  0  0  0  0  0
    5.1146    0.2120    0.1711 H   0  0  0  0  0  0  0  0  0  0  0  0
    3.4521   -0.3050    0.0769 H   0  0  0  0  0  0  0  0  0  0  0  0
  2  1  1  6
  1 22  1  0
  1 23  1  0
  1 24  1  0
  2  7  1  0
  2 21  1  0
  2  3  1  0
  3  4  1  0
  3 25  1  0
  3 26  1  0
  4  5  1  0
  4 27  1  0
  4 28  1  0
  5  8  1  0
  5  6  1  0
  5 29  1  6
  6  7  1  0
  6 30  1  0
  6 31  1  0
  7  8  1  0
  7 32  1  6
  8 19  1  0
  8  9  1  1
  9 10  1  0
  9 33  1  0
  9 34  1  0
 10 11  2  0
 10 35  1  0
 11 17  1  0
 11 12  1  0
 12 13  1  0
 12 36  1  0
 12 37  1  0
 13 14  2  0
 13 15  1  0
 15 16  1  0
 15 38  1  0
 15 39  1  0
 16 17  1  0
 16 40  1  0
 16 41  1  0
 17 18  1  1
 17 19  1  0
 18 42  1  0
 18 43  1  0
 18 44  1  0
 19 20  1  0
 19 45  1  1
 20 21  1  0
 20 46  1  0
 20 47  1  0
 21 48  1  0
 21 49  1  0
M  END
>  <i_m_ct_stereo_status>  (109) 
1

>  <s_m_source_file>  (109) 
/var/tmp/pbs.5076255.sched01/tmpmalnbme9/37wob9dpop.sdf

>  <i_m_source_file_index>  (109) 
15

>  <i_lp_mmshare_version>  (109) 
48012

>  <i_f3d_flags>  (109) 
0

>  <s_epik_input>  (109) 
W0NAXTEyM1tDQEBIXTRbQ0gyXVtDSDJdW0NAQF0oW0NIM10pKFtDQEhdMVtDSDJdNClbQ0gyXVtDSDJdW0NAQEhdM1tDQF01KFtDSDNdKUMoPVtDSF1bQ0gyXTIpW0NIMl1DKD1PKVtDSDJdW0NIMl01

>  <s_epik_cmdline>  (109) 
J2VwaWtfcHl0aG9uJywgJy1waHQnLCAnMi4wJywgJy1waCcsICc3LjAnLCAnLXRuJywgJzgnLCAnLW1hJywgJzIwMCcsICctaW1hZScsICc8aW5maWxlLm1hZT4nLCAnLW9tYWUnLCAnPG91dGZpbGUubWFlPic=

>  <r_lp_tautomer_probability>  (109) 
1

>  <r_epik_Ionization_Penalty>  (109) 
1.63132e-13

>  <r_epik_Ionization_Penalty_Charging>  (109) 
0

>  <r_epik_Ionization_Penalty_Neutral>  (109) 
1.63132e-13

>  <r_epik_State_Penalty>  (109) 
-0

>  <r_epik_Charging_Adjusted_Penalty>  (109) 
0

>  <i_epik_Tot_Q>  (109) 
0

>  <i_epik_Tot_abs_Q>  (109) 
0

>  <s_lp_Force_Field>  (109) 
OPLS3e

>  <r_lp_Energy>  (109) 
63.4906

>  <b_lp_Chiralities_Consistent>  (109) 
1

>  <s_lp_Variant>  (109) 
39:0-1

>  <s_i_glide_gridfile>  (109) 
pfpi4k_grid

>  <i_i_glide_lignum>  (109) 
15

>  <i_i_glide_rotatable_bonds>  (109) 
0

>  <r_i_docking_score>  (109) 
-2.17025

>  <r_i_glide_ligand_efficiency>  (109) 
-0.103345

>  <r_i_glide_ligand_efficiency_sa>  (109) 
-0.285122

>  <r_i_glide_ligand_efficiency_ln>  (109) 
-0.536591

>  <r_i_glide_gscore>  (109) 
-2.17025

>  <r_i_glide_lipo>  (109) 
-0.238803

>  <r_i_glide_hbond>  (109) 
0

>  <r_i_glide_metal>  (109) 
-0

>  <r_i_glide_rewards>  (109) 
-1.46976

>  <r_i_glide_evdw>  (109) 
-10.1136

>  <r_i_glide_ecoul>  (109) 
0.293245

>  <r_i_glide_erotb>  (109) 
0

>  <r_i_glide_esite>  (109) 
0

>  <r_i_glide_emodel>  (109) 
-11.5655

>  <r_i_glide_energy>  (109) 
-9.82037

>  <r_i_glide_einternal>  (109) 
0

>  <r_i_glide_intrahb_reward>  (109) 
-0

>  <i_i_glide_confnum>  (109) 
1

>  <i_i_glide_posenum>  (109) 
22

>  <r_i_glide_eff_state_penalty>  (109) 
0

>  <ligand_id>  (109) 
39

>  <original_smiles>  (109) 
CC12CCC3CC1C31CC=C3CC(=O)CCC3(C)C1CC2

>  <smiles>  (109) 
[H]C1=C2C([H])([H])C(=O)C([H])([H])C([H])([H])C2(C([H])([H])[H])C2([H])C([H])([H])C([H])([H])C3(C([H])([H])[H])C([H])([H])C([H])([H])C4([H])C([H])([H])C3([H])C42C1([H])[H]

$$$$
40:0:0
     RDKit          3D

 75 81  0  0  1  0  0  0  0  0999 V2000
    4.3640   -9.6100    2.2813 C   0  0  0  0  0  0  0  0  0  0  0  0
    3.5084   -8.7883    3.2631 C   0  0  2  0  0  0  0  0  0  0  0  0
    2.1475   -8.3909    2.6757 C   0  0  2  0  0  0  0  0  0  0  0  0
    2.5280   -7.0140    2.0686 C   0  0  0  0  0  0  0  0  0  0  0  0
    3.1979   -6.2098    3.2357 C   0  0  2  0  0  0  0  0  0  0  0  0
    4.1462   -7.4334    3.6248 C   0  0  1  0  0  0  0  0  0  0  0  0
    4.6952   -7.4805    4.9257 O   0  0  0  0  0  0  0  0  0  0  0  0
    1.9669   -5.8029    4.2671 C   0  0  1  0  0  0  0  0  0  0  0  0
    2.4017   -5.8947    5.7553 C   0  0  0  0  0  0  0  0  0  0  0  0
    1.3428   -4.3526    3.9872 C   0  0  1  0  0  0  0  0  0  0  0  0
    1.3045   -3.5002    5.1258 O   0  0  0  0  0  0  0  0  0  0  0  0
    2.0471   -3.6314    2.8464 C   0  0  1  0  0  0  0  0  0  0  0  0
    1.6781   -2.2889    2.5964 O   0  0  0  0  0  0  0  0  0  0  0  0
    2.7378   -1.4901    2.3545 C   0  0  0  0  0  0  0  0  0  0  0  0
    2.6912   -0.2801    2.1335 O   0  0  0  0  0  0  0  0  0  0  0  0
    4.0498   -2.2912    2.4603 C   0  0  1  0  0  0  0  0  0  0  0  0
    4.8238   -1.6089    3.4383 O   0  0  0  0  0  0  0  0  0  0  0  0
    3.5153   -3.5840    3.1270 C   0  0  2  0  0  0  0  0  0  0  0  0
    4.1412   -4.9414    2.7833 C   0  0  1  0  0  0  0  0  0  0  0  0
    5.4666   -4.9157    3.6119 C   0  0  0  0  0  0  0  0  0  0  0  0
    4.5942   -4.8748    1.2796 C   0  0  1  0  0  0  0  0  0  0  0  0
    3.6009   -4.8098    0.0745 C   0  0  0  0  0  0  0  0  0  0  0  0
    3.1024   -3.4269   -0.3741 C   0  0  0  0  0  0  0  0  0  0  0  0
    4.2142   -2.3777   -0.2799 C   0  0  1  0  0  0  0  0  0  0  0  0
    5.1663   -2.5597   -1.4863 C   0  0  0  0  0  0  0  0  0  0  0  0
    3.6781   -1.0891   -0.5033 O   0  0  0  0  0  0  0  0  0  0  0  0
    4.9324   -2.4716    1.1242 C   0  0  1  0  0  0  0  0  0  0  0  0
    6.1919   -1.5541    1.1180 C   0  0  0  0  0  0  0  0  0  0  0  0
    5.5070   -3.7850    1.1302 O   0  0  0  0  0  0  0  0  0  0  0  0
    0.7485   -6.7647    4.0204 C   0  0  2  0  0  0  0  0  0  0  0  0
   -0.5409   -6.7849    4.8292 C   0  0  0  0  0  0  0  0  0  0  0  0
   -0.9084   -5.9301    5.6335 O   0  0  0  0  0  0  0  0  0  0  0  0
   -1.3249   -8.0370    4.4383 C   0  0  0  0  0  0  0  0  0  0  0  0
   -0.4086   -8.7688    3.4195 C   0  0  1  0  0  0  0  0  0  0  0  0
   -0.7869   -8.4044    2.0998 O   0  0  0  0  0  0  0  0  0  0  0  0
    1.0187   -8.2465    3.7539 C   0  0  1  0  0  0  0  0  0  0  0  0
    1.3453   -8.9095    4.9709 O   0  0  0  0  0  0  0  0  0  0  0  0
    4.5444   -9.0903    1.3396 H   0  0  0  0  0  0  0  0  0  0  0  0
    3.8728  -10.5544    2.0509 H   0  0  0  0  0  0  0  0  0  0  0  0
    5.3355   -9.8536    2.7122 H   0  0  0  0  0  0  0  0  0  0  0  0
    3.4360   -9.4295    4.1394 H   0  0  0  0  0  0  0  0  0  0  0  0
    1.8416   -9.1003    1.9059 H   0  0  0  0  0  0  0  0  0  0  0  0
    3.2342   -7.2053    1.2618 H   0  0  0  0  0  0  0  0  0  0  0  0
    1.6732   -6.5194    1.6142 H   0  0  0  0  0  0  0  0  0  0  0  0
    5.0147   -7.3837    2.9698 H   0  0  0  0  0  0  0  0  0  0  0  0
    5.2663   -8.2319    4.9798 H   0  0  0  0  0  0  0  0  0  0  0  0
    1.6194   -5.5690    6.4400 H   0  0  0  0  0  0  0  0  0  0  0  0
    3.2858   -5.2875    5.9540 H   0  0  0  0  0  0  0  0  0  0  0  0
    2.6143   -6.9161    6.0561 H   0  0  0  0  0  0  0  0  0  0  0  0
    0.2988   -4.4121    3.6873 H   0  0  0  0  0  0  0  0  0  0  0  0
    2.1877   -3.3218    5.4069 H   0  0  0  0  0  0  0  0  0  0  0  0
    1.8444   -4.1928    1.9406 H   0  0  0  0  0  0  0  0  0  0  0  0
    5.0151   -0.7537    3.0848 H   0  0  0  0  0  0  0  0  0  0  0  0
    3.6323   -3.4365    4.2014 H   0  0  0  0  0  0  0  0  0  0  0  0
    5.9985   -3.9747    3.4883 H   0  0  0  0  0  0  0  0  0  0  0  0
    6.1878   -5.6757    3.3124 H   0  0  0  0  0  0  0  0  0  0  0  0
    5.2929   -5.0115    4.6828 H   0  0  0  0  0  0  0  0  0  0  0  0
    5.1972   -5.7708    1.1140 H   0  0  0  0  0  0  0  0  0  0  0  0
    4.1613   -5.2295   -0.7611 H   0  0  0  0  0  0  0  0  0  0  0  0
    2.7370   -5.4497    0.1538 H   0  0  0  0  0  0  0  0  0  0  0  0
    2.7311   -3.4978   -1.3993 H   0  0  0  0  0  0  0  0  0  0  0  0
    2.2330   -3.1217    0.1964 H   0  0  0  0  0  0  0  0  0  0  0  0
    5.7611   -3.4706   -1.4122 H   0  0  0  0  0  0  0  0  0  0  0  0
    5.8549   -1.7233   -1.5966 H   0  0  0  0  0  0  0  0  0  0  0  0
    4.6133   -2.6117   -2.4227 H   0  0  0  0  0  0  0  0  0  0  0  0
    2.7379   -1.1493   -0.6436 H   0  0  0  0  0  0  0  0  0  0  0  0
    5.9387   -0.4958    1.0212 H   0  0  0  0  0  0  0  0  0  0  0  0
    6.8838   -1.8114    0.3192 H   0  0  0  0  0  0  0  0  0  0  0  0
    6.7831   -1.6772    2.0229 H   0  0  0  0  0  0  0  0  0  0  0  0
    0.3244   -6.3971    3.0883 H   0  0  0  0  0  0  0  0  0  0  0  0
   -1.4646   -8.6601    5.3213 H   0  0  0  0  0  0  0  0  0  0  0  0
   -2.3063   -7.7994    4.0273 H   0  0  0  0  0  0  0  0  0  0  0  0
   -0.4925   -9.8548    3.5276 H   0  0  0  0  0  0  0  0  0  0  0  0
   -0.3982   -9.0194    1.4863 H   0  0  0  0  0  0  0  0  0  0  0  0
    1.3358   -9.8439    4.8227 H   0  0  0  0  0  0  0  0  0  0  0  0
  1  2  1  0
  1 38  1  0
  1 39  1  0
  1 40  1  0
  2  6  1  0
  2  3  1  0
  2 41  1  1
  3 36  1  0
  3  4  1  0
  3 42  1  6
  5  4  1  6
  4 43  1  0
  4 44  1  0
  5 19  1  0
  5  6  1  0
  5  8  1  0
  6  7  1  0
  6 45  1  6
  7 46  1  0
  8  9  1  1
  8 10  1  0
  8 30  1  0
  9 47  1  0
  9 48  1  0
  9 49  1  0
 10 11  1  0
 10 12  1  0
 10 50  1  6
 11 51  1  0
 12 18  1  0
 12 13  1  0
 12 52  1  6
 13 14  1  0
 14 15  2  0
 14 16  1  0
 16 27  1  0
 16 17  1  1
 16 18  1  0
 17 53  1  0
 18 19  1  0
 18 54  1  1
 19 20  1  1
 19 21  1  0
 20 55  1  0
 20 56  1  0
 20 57  1  0
 21 29  1  0
 21 22  1  0
 21 58  1  6
 22 23  1  0
 22 59  1  0
 22 60  1  0
 23 24  1  0
 23 61  1  0
 23 62  1  0
 24 25  1  0
 24 26  1  6
 24 27  1  0
 25 63  1  0
 25 64  1  0
 25 65  1  0
 26 66  1  0
 27 28  1  6
 27 29  1  0
 28 67  1  0
 28 68  1  0
 28 69  1  0
 30 36  1  0
 30 31  1  0
 30 70  1  6
 31 32  2  0
 31 33  1  0
 33 34  1  0
 33 71  1  0
 33 72  1  0
 34 35  1  0
 34 36  1  0
 34 73  1  6
 35 74  1  0
 36 37  1  1
 37 75  1  0
M  END
>  <i_m_ct_stereo_status>  (110) 
1

>  <s_m_source_file>  (110) 
/var/tmp/pbs.5076255.sched01/tmpmalnbme9/37wob9dpop.sdf

>  <i_m_source_file_index>  (110) 
16

>  <i_lp_mmshare_version>  (110) 
48012

>  <i_f3d_flags>  (110) 
0

>  <s_epik_input>  (110) 
W09IXVtDQEhdMVtDQEhdKFtDSDNdKVtDQEhdKFtDSDJdMilbQ0BdKFtPSF0pKFtDQEhdKFtPSF0pW0NIMl1DMz1PKVtDQEBIXTNbQ0BdKFtDQEBdMTI0KShbQ0gzXSlbQ0BASF0oW09IXSlbQ0BASF01W0NAQEhdNltDQEBdKEMoTzUpPU8pKFtPSF0pW0NAXTcoW0NIM10pW0NAXShbQ0gzXSkoW09IXSlbQ0gyXVtDSDJdW0NAQEhdKE83KVtDQF00NltDSDNd

>  <s_epik_cmdline>  (110) 
J2VwaWtfcHl0aG9uJywgJy1waHQnLCAnMi4wJywgJy1waCcsICc3LjAnLCAnLXRuJywgJzgnLCAnLW1hJywgJzIwMCcsICctaW1hZScsICc8aW5maWxlLm1hZT4nLCAnLW9tYWUnLCAnPG91dGZpbGUubWFlPic=

>  <r_lp_tautomer_probability>  (110) 
1

>  <r_epik_Ionization_Penalty>  (110) 
1.42838e-06

>  <r_epik_Ionization_Penalty_Charging>  (110) 
0

>  <r_epik_Ionization_Penalty_Neutral>  (110) 
1.42838e-06

>  <r_epik_State_Penalty>  (110) 
-0

>  <r_epik_Charging_Adjusted_Penalty>  (110) 
0

>  <i_epik_Tot_Q>  (110) 
0

>  <i_epik_Tot_abs_Q>  (110) 
0

>  <s_epik_Chemistry_Notes>  (110) 
This compound has an ester and may undergo hydrolysis at high or low pH.

>  <s_lp_Force_Field>  (110) 
OPLS3e

>  <r_lp_Energy>  (110) 
117.716

>  <b_lp_Chiralities_Consistent>  (110) 
1

>  <s_lp_Variant>  (110) 
40:0-1

>  <s_i_glide_gridfile>  (110) 
pfpi4k_grid

>  <i_i_glide_lignum>  (110) 
16

>  <i_i_glide_rotatable_bonds>  (110) 
6

>  <r_i_docking_score>  (110) 
-3.28396

>  <r_i_glide_ligand_efficiency>  (110) 
-0.0887556

>  <r_i_glide_ligand_efficiency_sa>  (110) 
-0.295753

>  <r_i_glide_ligand_efficiency_ln>  (110) 
-0.712213

>  <r_i_glide_gscore>  (110) 
-3.28396

>  <r_i_glide_lipo>  (110) 
-0.259621

>  <r_i_glide_hbond>  (110) 
-0.304

>  <r_i_glide_metal>  (110) 
-0

>  <r_i_glide_rewards>  (110) 
0

>  <r_i_glide_evdw>  (110) 
-33.2795

>  <r_i_glide_ecoul>  (110) 
-6.75604

>  <r_i_glide_erotb>  (110) 
0

>  <r_i_glide_esite>  (110) 
-0.0429554

>  <r_i_glide_emodel>  (110) 
-46.8584

>  <r_i_glide_energy>  (110) 
-40.0355

>  <r_i_glide_einternal>  (110) 
3.74407

>  <r_i_glide_intrahb_reward>  (110) 
-0

>  <i_i_glide_confnum>  (110) 
2

>  <i_i_glide_posenum>  (110) 
22

>  <r_i_glide_eff_state_penalty>  (110) 
0

>  <ligand_id>  (110) 
40

>  <original_smiles>  (110) 
CC1C2CC3(C1O)C(C)(C(O)C1OC(=O)C4(O)C1C3(C)C1CCC(C)(O)C4(C)O1)C1C(=O)CC(O)C21O

>  <smiles>  (110) 
[H]OC1([H])C([H])([H])C(=O)C2([H])C1(O[H])C1([H])C([H])([H])C3(C([H])(O[H])C1([H])C([H])([H])[H])C2(C([H])([H])[H])C([H])(O[H])C1([H])OC(=O)C2(O[H])C1([H])C3(C([H])([H])[H])C1([H])OC2(C([H])([H])[H])C(O[H])(C([H])([H])[H])C([H])([H])C1([H])[H]

$$$$
40:0:1
     RDKit          3D

 75 81  0  0  1  0  0  0  0  0999 V2000
    4.4363   -9.6132    2.1784 C   0  0  0  0  0  0  0  0  0  0  0  0
    3.6112   -8.7832    3.1790 C   0  0  2  0  0  0  0  0  0  0  0  0
    2.2432   -8.3701    2.6162 C   0  0  2  0  0  0  0  0  0  0  0  0
    2.6287   -6.9983    2.0005 C   0  0  0  0  0  0  0  0  0  0  0  0
    3.3309   -6.2021    3.1537 C   0  0  2  0  0  0  0  0  0  0  0  0
    4.2717   -7.4371    3.5291 C   0  0  1  0  0  0  0  0  0  0  0  0
    4.8553   -7.4894    4.8167 O   0  0  0  0  0  0  0  0  0  0  0  0
    2.1252   -5.7792    4.2076 C   0  0  1  0  0  0  0  0  0  0  0  0
    2.5876   -5.8739    5.6872 C   0  0  0  0  0  0  0  0  0  0  0  0
    1.5131   -4.3212    3.9354 C   0  0  1  0  0  0  0  0  0  0  0  0
    1.5090   -3.4673    5.0735 O   0  0  0  0  0  0  0  0  0  0  0  0
    2.2040   -3.6132    2.7752 C   0  0  1  0  0  0  0  0  0  0  0  0
    1.8458   -2.2678    2.5258 O   0  0  0  0  0  0  0  0  0  0  0  0
    2.9125   -1.4829    2.2706 C   0  0  0  0  0  0  0  0  0  0  0  0
    2.8760   -0.2683    2.0519 O   0  0  0  0  0  0  0  0  0  0  0  0
    4.2157   -2.2955    2.3540 C   0  0  1  0  0  0  0  0  0  0  0  0
    5.0175   -1.6237    3.3138 O   0  0  0  0  0  0  0  0  0  0  0  0
    3.6787   -3.5820    3.0310 C   0  0  2  0  0  0  0  0  0  0  0  0
    4.2818   -4.9470    2.6798 C   0  0  1  0  0  0  0  0  0  0  0  0
    5.6260   -4.9405    3.4790 C   0  0  0  0  0  0  0  0  0  0  0  0
    4.7082   -4.8864    1.1656 C   0  0  1  0  0  0  0  0  0  0  0  0
    3.6968   -4.8075   -0.0216 C   0  0  0  0  0  0  0  0  0  0  0  0
    3.2023   -3.4203   -0.4606 C   0  0  0  0  0  0  0  0  0  0  0  0
    4.3286   -2.3858   -0.3885 C   0  0  1  0  0  0  0  0  0  0  0  0
    5.2548   -2.5833   -1.6129 C   0  0  0  0  0  0  0  0  0  0  0  0
    3.8059   -1.0903   -0.6071 O   0  0  0  0  0  0  0  0  0  0  0  0
    5.0733   -2.4883    1.0008 C   0  0  1  0  0  0  0  0  0  0  0  0
    6.3433   -1.5873    0.9657 C   0  0  0  0  0  0  0  0  0  0  0  0
    5.6306   -3.8081    0.9990 O   0  0  0  0  0  0  0  0  0  0  0  0
    0.8894   -6.7268    3.9858 C   0  0  2  0  0  0  0  0  0  0  0  0
   -0.3808   -6.7330    4.8218 C   0  0  0  0  0  0  0  0  0  0  0  0
   -0.7226   -5.8752    5.6346 O   0  0  0  0  0  0  0  0  0  0  0  0
   -1.1898   -7.9756    4.4496 C   0  0  0  0  0  0  0  0  0  0  0  0
   -0.3019   -8.7193    3.4136 C   0  0  1  0  0  0  0  0  0  0  0  0
   -0.7009   -8.3484    2.1002 O   0  0  0  0  0  0  0  0  0  0  0  0
    1.1388   -8.2109    3.7156 C   0  0  1  0  0  0  0  0  0  0  0  0
    1.4919   -8.8699    4.9271 O   0  0  0  0  0  0  0  0  0  0  0  0
    4.6054   -9.0976    1.2325 H   0  0  0  0  0  0  0  0  0  0  0  0
    3.9257  -10.5497    1.9591 H   0  0  0  0  0  0  0  0  0  0  0  0
    5.4111   -9.8710    2.5929 H   0  0  0  0  0  0  0  0  0  0  0  0
    3.5535   -9.4278    4.0532 H   0  0  0  0  0  0  0  0  0  0  0  0
    1.9129   -9.0765    1.8538 H   0  0  0  0  0  0  0  0  0  0  0  0
    3.3169   -7.1996    1.1805 H   0  0  0  0  0  0  0  0  0  0  0  0
    1.7714   -6.4938    1.5607 H   0  0  0  0  0  0  0  0  0  0  0  0
    5.1250   -7.3979    2.8548 H   0  0  0  0  0  0  0  0  0  0  0  0
    4.1731   -7.6707    5.4448 H   0  0  0  0  0  0  0  0  0  0  0  0
    1.8234   -5.5327    6.3849 H   0  0  0  0  0  0  0  0  0  0  0  0
    3.4837   -5.2782    5.8676 H   0  0  0  0  0  0  0  0  0  0  0  0
    2.7842   -6.8969    5.9912 H   0  0  0  0  0  0  0  0  0  0  0  0
    0.4610   -4.3675    3.6619 H   0  0  0  0  0  0  0  0  0  0  0  0
    2.3997   -3.2971    5.3374 H   0  0  0  0  0  0  0  0  0  0  0  0
    1.9777   -4.1755    1.8758 H   0  0  0  0  0  0  0  0  0  0  0  0
    5.2199   -0.7722    2.9548 H   0  0  0  0  0  0  0  0  0  0  0  0
    3.8190   -3.4337    4.1035 H   0  0  0  0  0  0  0  0  0  0  0  0
    6.1751   -4.0122    3.3361 H   0  0  0  0  0  0  0  0  0  0  0  0
    6.3288   -5.7145    3.1692 H   0  0  0  0  0  0  0  0  0  0  0  0
    5.4741   -5.0269    4.5546 H   0  0  0  0  0  0  0  0  0  0  0  0
    5.2944   -5.7897    0.9911 H   0  0  0  0  0  0  0  0  0  0  0  0
    4.2349   -5.2296   -0.8708 H   0  0  0  0  0  0  0  0  0  0  0  0
    2.8272   -5.4395    0.0746 H   0  0  0  0  0  0  0  0  0  0  0  0
    2.8095   -3.4879   -1.4771 H   0  0  0  0  0  0  0  0  0  0  0  0
    2.3474   -3.1063    0.1272 H   0  0  0  0  0  0  0  0  0  0  0  0
    5.8376   -3.5016   -1.5480 H   0  0  0  0  0  0  0  0  0  0  0  0
    5.9513   -1.7563   -1.7383 H   0  0  0  0  0  0  0  0  0  0  0  0
    4.6813   -2.6287   -2.5372 H   0  0  0  0  0  0  0  0  0  0  0  0
    2.8554   -1.1320   -0.6567 H   0  0  0  0  0  0  0  0  0  0  0  0
    6.1040   -0.5257    0.8761 H   0  0  0  0  0  0  0  0  0  0  0  0
    7.0135   -1.8554    0.1508 H   0  0  0  0  0  0  0  0  0  0  0  0
    6.9607   -1.7196    1.8504 H   0  0  0  0  0  0  0  0  0  0  0  0
    0.4513   -6.3538    3.0634 H   0  0  0  0  0  0  0  0  0  0  0  0
   -1.3232   -8.5960    5.3361 H   0  0  0  0  0  0  0  0  0  0  0  0
   -2.1765   -7.7263    4.0583 H   0  0  0  0  0  0  0  0  0  0  0  0
   -0.3961   -9.8034    3.5231 H   0  0  0  0  0  0  0  0  0  0  0  0
   -0.3378   -8.9718    1.4804 H   0  0  0  0  0  0  0  0  0  0  0  0
    1.4795   -9.8043    4.7766 H   0  0  0  0  0  0  0  0  0  0  0  0
  1  2  1  0
  1 38  1  0
  1 39  1  0
  1 40  1  0
  2  6  1  0
  2  3  1  0
  2 41  1  1
  3 36  1  0
  3  4  1  0
  3 42  1  6
  5  4  1  6
  4 43  1  0
  4 44  1  0
  5 19  1  0
  5  6  1  0
  5  8  1  0
  6  7  1  0
  6 45  1  6
  7 46  1  0
  8  9  1  1
  8 10  1  0
  8 30  1  0
  9 47  1  0
  9 48  1  0
  9 49  1  0
 10 11  1  0
 10 12  1  0
 10 50  1  6
 11 51  1  0
 12 18  1  0
 12 13  1  0
 12 52  1  6
 13 14  1  0
 14 15  2  0
 14 16  1  0
 16 27  1  0
 16 17  1  1
 16 18  1  0
 17 53  1  0
 18 19  1  0
 18 54  1  1
 19 20  1  1
 19 21  1  0
 20 55  1  0
 20 56  1  0
 20 57  1  0
 21 29  1  0
 21 22  1  0
 21 58  1  6
 22 23  1  0
 22 59  1  0
 22 60  1  0
 23 24  1  0
 23 61  1  0
 23 62  1  0
 24 25  1  0
 24 26  1  6
 24 27  1  0
 25 63  1  0
 25 64  1  0
 25 65  1  0
 26 66  1  0
 27 28  1  6
 27 29  1  0
 28 67  1  0
 28 68  1  0
 28 69  1  0
 30 36  1  0
 30 31  1  0
 30 70  1  6
 31 32  2  0
 31 33  1  0
 33 34  1  0
 33 71  1  0
 33 72  1  0
 34 35  1  0
 34 36  1  0
 34 73  1  6
 35 74  1  0
 36 37  1  1
 37 75  1  0
M  END
>  <i_m_ct_stereo_status>  (111) 
1

>  <s_m_source_file>  (111) 
/var/tmp/pbs.5076255.sched01/tmpmalnbme9/37wob9dpop.sdf

>  <i_m_source_file_index>  (111) 
16

>  <i_lp_mmshare_version>  (111) 
48012

>  <i_f3d_flags>  (111) 
0

>  <s_epik_input>  (111) 
W09IXVtDQEhdMVtDQEhdKFtDSDNdKVtDQEhdKFtDSDJdMilbQ0BdKFtPSF0pKFtDQEhdKFtPSF0pW0NIMl1DMz1PKVtDQEBIXTNbQ0BdKFtDQEBdMTI0KShbQ0gzXSlbQ0BASF0oW09IXSlbQ0BASF01W0NAQEhdNltDQEBdKEMoTzUpPU8pKFtPSF0pW0NAXTcoW0NIM10pW0NAXShbQ0gzXSkoW09IXSlbQ0gyXVtDSDJdW0NAQEhdKE83KVtDQF00NltDSDNd

>  <s_epik_cmdline>  (111) 
J2VwaWtfcHl0aG9uJywgJy1waHQnLCAnMi4wJywgJy1waCcsICc3LjAnLCAnLXRuJywgJzgnLCAnLW1hJywgJzIwMCcsICctaW1hZScsICc8aW5maWxlLm1hZT4nLCAnLW9tYWUnLCAnPG91dGZpbGUubWFlPic=

>  <r_lp_tautomer_probability>  (111) 
1

>  <r_epik_Ionization_Penalty>  (111) 
1.42838e-06

>  <r_epik_Ionization_Penalty_Charging>  (111) 
0

>  <r_epik_Ionization_Penalty_Neutral>  (111) 
1.42838e-06

>  <r_epik_State_Penalty>  (111) 
-0

>  <r_epik_Charging_Adjusted_Penalty>  (111) 
0

>  <i_epik_Tot_Q>  (111) 
0

>  <i_epik_Tot_abs_Q>  (111) 
0

>  <s_epik_Chemistry_Notes>  (111) 
This compound has an ester and may undergo hydrolysis at high or low pH.

>  <s_lp_Force_Field>  (111) 
OPLS3e

>  <r_lp_Energy>  (111) 
117.716

>  <b_lp_Chiralities_Consistent>  (111) 
1

>  <s_lp_Variant>  (111) 
40:0-1

>  <s_i_glide_gridfile>  (111) 
pfpi4k_grid

>  <i_i_glide_lignum>  (111) 
16

>  <i_i_glide_rotatable_bonds>  (111) 
6

>  <r_i_docking_score>  (111) 
-3.25383

>  <r_i_glide_ligand_efficiency>  (111) 
-0.0879413

>  <r_i_glide_ligand_efficiency_sa>  (111) 
-0.29304

>  <r_i_glide_ligand_efficiency_ln>  (111) 
-0.705679

>  <r_i_glide_gscore>  (111) 
-3.25383

>  <r_i_glide_lipo>  (111) 
-0.23966

>  <r_i_glide_hbond>  (111) 
-0.308204

>  <r_i_glide_metal>  (111) 
-0

>  <r_i_glide_rewards>  (111) 
0

>  <r_i_glide_evdw>  (111) 
-33.8236

>  <r_i_glide_ecoul>  (111) 
-6.49662

>  <r_i_glide_erotb>  (111) 
0

>  <r_i_glide_esite>  (111) 
-0.0402926

>  <r_i_glide_emodel>  (111) 
-47.2833

>  <r_i_glide_energy>  (111) 
-40.3202

>  <r_i_glide_einternal>  (111) 
3.37317

>  <r_i_glide_intrahb_reward>  (111) 
-0

>  <i_i_glide_confnum>  (111) 
2

>  <i_i_glide_posenum>  (111) 
25

>  <r_i_glide_eff_state_penalty>  (111) 
0

>  <ligand_id>  (111) 
40

>  <original_smiles>  (111) 
CC1C2CC3(C1O)C(C)(C(O)C1OC(=O)C4(O)C1C3(C)C1CCC(C)(O)C4(C)O1)C1C(=O)CC(O)C21O

>  <smiles>  (111) 
[H]OC1([H])C([H])([H])C(=O)C2([H])C1(O[H])C1([H])C([H])([H])C3(C([H])(O[H])C1([H])C([H])([H])[H])C2(C([H])([H])[H])C([H])(O[H])C1([H])OC(=O)C2(O[H])C1([H])C3(C([H])([H])[H])C1([H])OC2(C([H])([H])[H])C(O[H])(C([H])([H])[H])C([H])([H])C1([H])[H]

$$$$
40:0:2
     RDKit          3D

 75 81  0  0  1  0  0  0  0  0999 V2000
    4.4367   -9.6125    2.1251 C   0  0  0  0  0  0  0  0  0  0  0  0
    3.6172   -8.7874    3.1351 C   0  0  2  0  0  0  0  0  0  0  0  0
    2.2422   -8.3781    2.5885 C   0  0  2  0  0  0  0  0  0  0  0  0
    2.6180   -7.0028    1.9708 C   0  0  0  0  0  0  0  0  0  0  0  0
    3.3301   -6.2070    3.1183 C   0  0  2  0  0  0  0  0  0  0  0  0
    4.2767   -7.4405    3.4786 C   0  0  1  0  0  0  0  0  0  0  0  0
    4.8623   -7.4956    4.7629 O   0  0  0  0  0  0  0  0  0  0  0  0
    2.1334   -5.7916    4.1858 C   0  0  1  0  0  0  0  0  0  0  0  0
    2.6111   -5.8880    5.6609 C   0  0  0  0  0  0  0  0  0  0  0  0
    1.5150   -4.3350    3.9240 C   0  0  1  0  0  0  0  0  0  0  0  0
    1.5185   -3.4833    5.0650 O   0  0  0  0  0  0  0  0  0  0  0  0
    2.1919   -3.6202    2.7602 C   0  0  1  0  0  0  0  0  0  0  0  0
    1.8282   -2.2765    2.5200 O   0  0  0  0  0  0  0  0  0  0  0  0
    2.8908   -1.4833    2.2555 C   0  0  0  0  0  0  0  0  0  0  0  0
    2.8516   -0.2751    2.0433 O   0  0  0  0  0  0  0  0  0  0  0  0
    4.1991   -2.2990    2.3252 C   0  0  1  0  0  0  0  0  0  0  0  0
    5.0122   -1.6295    3.2788 O   0  0  0  0  0  0  0  0  0  0  0  0
    3.6694   -3.5866    3.0019 C   0  0  2  0  0  0  0  0  0  0  0  0
    4.2739   -4.9482    2.6418 C   0  0  1  0  0  0  0  0  0  0  0  0
    5.6253   -4.9373    3.4303 C   0  0  0  0  0  0  0  0  0  0  0  0
    4.6861   -4.8831    1.1243 C   0  0  1  0  0  0  0  0  0  0  0  0
    3.6659   -4.8027   -0.0530 C   0  0  0  0  0  0  0  0  0  0  0  0
    3.1617   -3.4155   -0.4824 C   0  0  0  0  0  0  0  0  0  0  0  0
    4.2860   -2.3790   -0.4188 C   0  0  1  0  0  0  0  0  0  0  0  0
    5.1998   -2.5686   -1.6539 C   0  0  0  0  0  0  0  0  0  0  0  0
    3.7561   -1.0845   -0.6251 O   0  0  0  0  0  0  0  0  0  0  0  0
    5.0437   -2.4846    0.9634 C   0  0  1  0  0  0  0  0  0  0  0  0
    6.3109   -1.5799    0.9186 C   0  0  0  0  0  0  0  0  0  0  0  0
    5.6048   -3.8034    0.9532 O   0  0  0  0  0  0  0  0  0  0  0  0
    0.8977   -6.7436    3.9749 C   0  0  2  0  0  0  0  0  0  0  0  0
   -0.3658   -6.7524    4.8227 C   0  0  0  0  0  0  0  0  0  0  0  0
   -0.7047   -5.8954    5.6345 O   0  0  0  0  0  0  0  0  0  0  0  0
   -1.1742   -7.9976    4.4560 C   0  0  0  0  0  0  0  0  0  0  0  0
   -0.2947   -8.7364    3.4100 C   0  0  1  0  0  0  0  0  0  0  0  0
   -0.7093   -8.3651    2.1026 O   0  0  0  0  0  0  0  0  0  0  0  0
    1.1473   -8.2256    3.6989 C   0  0  1  0  0  0  0  0  0  0  0  0
    1.5036   -8.8923    4.9050 O   0  0  0  0  0  0  0  0  0  0  0  0
    4.5951   -9.0950    1.1789 H   0  0  0  0  0  0  0  0  0  0  0  0
    3.9258  -10.5492    1.9096 H   0  0  0  0  0  0  0  0  0  0  0  0
    5.4154   -9.8682    2.5306 H   0  0  0  0  0  0  0  0  0  0  0  0
    3.5694   -9.4281    4.0133 H   0  0  0  0  0  0  0  0  0  0  0  0
    1.9085   -9.0855    1.8279 H   0  0  0  0  0  0  0  0  0  0  0  0
    3.2993   -7.2024    1.1434 H   0  0  0  0  0  0  0  0  0  0  0  0
    1.7552   -6.5006    1.5403 H   0  0  0  0  0  0  0  0  0  0  0  0
    5.1277   -7.3995    2.7999 H   0  0  0  0  0  0  0  0  0  0  0  0
    5.3928   -6.7253    4.8833 H   0  0  0  0  0  0  0  0  0  0  0  0
    1.8516   -5.5573    6.3690 H   0  0  0  0  0  0  0  0  0  0  0  0
    3.5046   -5.2876    5.8367 H   0  0  0  0  0  0  0  0  0  0  0  0
    2.8228   -6.9118    5.9552 H   0  0  0  0  0  0  0  0  0  0  0  0
    0.4605   -4.3845    3.6610 H   0  0  0  0  0  0  0  0  0  0  0  0
    2.4098   -3.3068    5.3194 H   0  0  0  0  0  0  0  0  0  0  0  0
    1.9598   -4.1808    1.8613 H   0  0  0  0  0  0  0  0  0  0  0  0
    5.2131   -0.7790    2.9161 H   0  0  0  0  0  0  0  0  0  0  0  0
    3.8166   -3.4423    4.0736 H   0  0  0  0  0  0  0  0  0  0  0  0
    6.1758   -4.0074    3.2858 H   0  0  0  0  0  0  0  0  0  0  0  0
    6.3290   -5.7036    3.1070 H   0  0  0  0  0  0  0  0  0  0  0  0
    5.4809   -5.0211    4.5064 H   0  0  0  0  0  0  0  0  0  0  0  0
    5.2719   -5.7848    0.9417 H   0  0  0  0  0  0  0  0  0  0  0  0
    4.2101   -5.2144   -0.9042 H   0  0  0  0  0  0  0  0  0  0  0  0
    2.7986   -5.4385    0.0477 H   0  0  0  0  0  0  0  0  0  0  0  0
    2.7600   -3.4830   -1.4964 H   0  0  0  0  0  0  0  0  0  0  0  0
    2.3099   -3.1063    0.1133 H   0  0  0  0  0  0  0  0  0  0  0  0
    5.7864   -3.4843   -1.5988 H   0  0  0  0  0  0  0  0  0  0  0  0
    5.8913   -1.7391   -1.7843 H   0  0  0  0  0  0  0  0  0  0  0  0
    4.6178   -2.6130   -2.5731 H   0  0  0  0  0  0  0  0  0  0  0  0
    2.8081   -1.1328   -0.6965 H   0  0  0  0  0  0  0  0  0  0  0  0
    6.0674   -0.5184    0.8374 H   0  0  0  0  0  0  0  0  0  0  0  0
    6.9722   -1.8409    0.0933 H   0  0  0  0  0  0  0  0  0  0  0  0
    6.9411   -1.7167    1.7954 H   0  0  0  0  0  0  0  0  0  0  0  0
    0.4515   -6.3700    3.0566 H   0  0  0  0  0  0  0  0  0  0  0  0
   -1.2959   -8.6186    5.3441 H   0  0  0  0  0  0  0  0  0  0  0  0
   -2.1640   -7.7497    4.0734 H   0  0  0  0  0  0  0  0  0  0  0  0
   -0.3842   -9.8207    3.5173 H   0  0  0  0  0  0  0  0  0  0  0  0
   -0.3471   -8.9861    1.4782 H   0  0  0  0  0  0  0  0  0  0  0  0
    1.5013   -9.8254    4.7512 H   0  0  0  0  0  0  0  0  0  0  0  0
  1  2  1  0
  1 38  1  0
  1 39  1  0
  1 40  1  0
  2  6  1  0
  2  3  1  0
  2 41  1  1
  3 36  1  0
  3  4  1  0
  3 42  1  6
  5  4  1  6
  4 43  1  0
  4 44  1  0
  5 19  1  0
  5  6  1  0
  5  8  1  0
  6  7  1  0
  6 45  1  6
  7 46  1  0
  8  9  1  1
  8 10  1  0
  8 30  1  0
  9 47  1  0
  9 48  1  0
  9 49  1  0
 10 11  1  0
 10 12  1  0
 10 50  1  6
 11 51  1  0
 12 18  1  0
 12 13  1  0
 12 52  1  6
 13 14  1  0
 14 15  2  0
 14 16  1  0
 16 27  1  0
 16 17  1  1
 16 18  1  0
 17 53  1  0
 18 19  1  0
 18 54  1  1
 19 20  1  1
 19 21  1  0
 20 55  1  0
 20 56  1  0
 20 57  1  0
 21 29  1  0
 21 22  1  0
 21 58  1  6
 22 23  1  0
 22 59  1  0
 22 60  1  0
 23 24  1  0
 23 61  1  0
 23 62  1  0
 24 25  1  0
 24 26  1  6
 24 27  1  0
 25 63  1  0
 25 64  1  0
 25 65  1  0
 26 66  1  0
 27 28  1  6
 27 29  1  0
 28 67  1  0
 28 68  1  0
 28 69  1  0
 30 36  1  0
 30 31  1  0
 30 70  1  6
 31 32  2  0
 31 33  1  0
 33 34  1  0
 33 71  1  0
 33 72  1  0
 34 35  1  0
 34 36  1  0
 34 73  1  6
 35 74  1  0
 36 37  1  1
 37 75  1  0
M  END
>  <i_m_ct_stereo_status>  (112) 
1

>  <s_m_source_file>  (112) 
/var/tmp/pbs.5076255.sched01/tmpmalnbme9/37wob9dpop.sdf

>  <i_m_source_file_index>  (112) 
16

>  <i_lp_mmshare_version>  (112) 
48012

>  <i_f3d_flags>  (112) 
0

>  <s_epik_input>  (112) 
W09IXVtDQEhdMVtDQEhdKFtDSDNdKVtDQEhdKFtDSDJdMilbQ0BdKFtPSF0pKFtDQEhdKFtPSF0pW0NIMl1DMz1PKVtDQEBIXTNbQ0BdKFtDQEBdMTI0KShbQ0gzXSlbQ0BASF0oW09IXSlbQ0BASF01W0NAQEhdNltDQEBdKEMoTzUpPU8pKFtPSF0pW0NAXTcoW0NIM10pW0NAXShbQ0gzXSkoW09IXSlbQ0gyXVtDSDJdW0NAQEhdKE83KVtDQF00NltDSDNd

>  <s_epik_cmdline>  (112) 
J2VwaWtfcHl0aG9uJywgJy1waHQnLCAnMi4wJywgJy1waCcsICc3LjAnLCAnLXRuJywgJzgnLCAnLW1hJywgJzIwMCcsICctaW1hZScsICc8aW5maWxlLm1hZT4nLCAnLW9tYWUnLCAnPG91dGZpbGUubWFlPic=

>  <r_lp_tautomer_probability>  (112) 
1

>  <r_epik_Ionization_Penalty>  (112) 
1.42838e-06

>  <r_epik_Ionization_Penalty_Charging>  (112) 
0

>  <r_epik_Ionization_Penalty_Neutral>  (112) 
1.42838e-06

>  <r_epik_State_Penalty>  (112) 
-0

>  <r_epik_Charging_Adjusted_Penalty>  (112) 
0

>  <i_epik_Tot_Q>  (112) 
0

>  <i_epik_Tot_abs_Q>  (112) 
0

>  <s_epik_Chemistry_Notes>  (112) 
This compound has an ester and may undergo hydrolysis at high or low pH.

>  <s_lp_Force_Field>  (112) 
OPLS3e

>  <r_lp_Energy>  (112) 
117.716

>  <b_lp_Chiralities_Consistent>  (112) 
1

>  <s_lp_Variant>  (112) 
40:0-1

>  <s_i_glide_gridfile>  (112) 
pfpi4k_grid

>  <i_i_glide_lignum>  (112) 
16

>  <i_i_glide_rotatable_bonds>  (112) 
6

>  <r_i_docking_score>  (112) 
-3.25061

>  <r_i_glide_ligand_efficiency>  (112) 
-0.0878543

>  <r_i_glide_ligand_efficiency_sa>  (112) 
-0.29275

>  <r_i_glide_ligand_efficiency_ln>  (112) 
-0.704981

>  <r_i_glide_gscore>  (112) 
-3.25061

>  <r_i_glide_lipo>  (112) 
-0.24371

>  <r_i_glide_hbond>  (112) 
-0.306212

>  <r_i_glide_metal>  (112) 
-0

>  <r_i_glide_rewards>  (112) 
0

>  <r_i_glide_evdw>  (112) 
-33.7237

>  <r_i_glide_ecoul>  (112) 
-6.48879

>  <r_i_glide_erotb>  (112) 
0

>  <r_i_glide_esite>  (112) 
-0.0411828

>  <r_i_glide_emodel>  (112) 
-47.0171

>  <r_i_glide_energy>  (112) 
-40.2125

>  <r_i_glide_einternal>  (112) 
3.69809

>  <r_i_glide_intrahb_reward>  (112) 
-0

>  <i_i_glide_confnum>  (112) 
1

>  <i_i_glide_posenum>  (112) 
21

>  <r_i_glide_eff_state_penalty>  (112) 
0

>  <ligand_id>  (112) 
40

>  <original_smiles>  (112) 
CC1C2CC3(C1O)C(C)(C(O)C1OC(=O)C4(O)C1C3(C)C1CCC(C)(O)C4(C)O1)C1C(=O)CC(O)C21O

>  <smiles>  (112) 
[H]OC1([H])C([H])([H])C(=O)C2([H])C1(O[H])C1([H])C([H])([H])C3(C([H])(O[H])C1([H])C([H])([H])[H])C2(C([H])([H])[H])C([H])(O[H])C1([H])OC(=O)C2(O[H])C1([H])C3(C([H])([H])[H])C1([H])OC2(C([H])([H])[H])C(O[H])(C([H])([H])[H])C([H])([H])C1([H])[H]

$$$$
42:0:0
     RDKit          3D

 59 64  0  0  1  0  0  0  0  0999 V2000
    2.7241   -8.1371    6.1652 C   0  0  0  0  0  0  0  0  0  0  0  0
    2.8592   -8.1394    4.8218 C   0  0  0  0  0  0  0  0  0  0  0  0
    4.2207   -8.2553    4.1623 C   0  0  0  0  0  0  0  0  0  0  0  0
    4.4851   -7.0829    3.4006 O   0  0  0  0  0  0  0  0  0  0  0  0
    3.5403   -6.8114    2.3667 C   0  0  2  0  0  0  0  0  0  0  0  0
    4.0484   -5.5431    1.6087 C   0  0  2  0  0  0  0  0  0  0  0  0
    5.4681   -5.7942    1.0602 C   0  0  0  0  0  0  0  0  0  0  0  0
    6.1068   -4.5278    0.5431 C   0  0  0  0  0  0  0  0  0  0  0  0
    5.6992   -3.2885    0.8357 C   0  0  0  0  0  0  0  0  0  0  0  0
    6.3102   -2.0921    0.1331 C   0  0  0  0  0  0  0  0  0  0  0  0
    5.2231   -1.4198   -0.7030 C   0  0  0  0  0  0  0  0  0  0  0  0
    5.4070   -1.1030   -1.8677 O   0  0  0  0  0  0  0  0  0  0  0  0
    3.9077   -1.1195    0.0215 C   0  0  0  0  0  0  0  0  0  0  0  0
    3.4105   -2.3124    0.8628 C   0  0  0  0  0  0  0  0  0  0  0  0
    4.5024   -2.9702    1.7618 C   0  0  2  0  0  0  0  0  0  0  0  0
    4.9461   -1.9702    2.8574 C   0  0  0  0  0  0  0  0  0  0  0  0
    3.9844   -4.2670    2.4880 C   0  0  1  0  0  0  0  0  0  0  0  0
    2.5868   -4.0976    3.1440 C   0  0  0  0  0  0  0  0  0  0  0  0
    2.1132   -5.3762    3.8597 C   0  0  0  0  0  0  0  0  0  0  0  0
    2.1014   -6.6269    2.9488 C   0  0  1  0  0  0  0  0  0  0  0  0
    1.1307   -6.3699    1.7753 C   0  0  0  0  0  0  0  0  0  0  0  0
    1.7237   -7.9082    3.8209 C   0  0  2  0  0  0  0  0  0  0  0  0
    0.4313   -7.7506    4.4377 O   0  0  0  0  0  0  0  0  0  0  0  0
   -0.2974   -8.9388    4.0433 C   0  0  1  0  0  0  0  0  0  0  0  0
   -0.1057   -9.1661    2.5371 C   0  0  0  0  0  0  0  0  0  0  0  0
    1.3213   -9.2021    3.1153 C   0  0  2  0  0  0  0  0  0  0  0  0
    0.6586  -10.1389    4.1632 C   0  0  0  0  0  0  0  0  0  0  0  0
    1.7651   -8.0034    6.6458 H   0  0  0  0  0  0  0  0  0  0  0  0
    3.5820   -8.2633    6.8074 H   0  0  0  0  0  0  0  0  0  0  0  0
    5.0018   -8.3615    4.9171 H   0  0  0  0  0  0  0  0  0  0  0  0
    4.2468   -9.1417    3.5314 H   0  0  0  0  0  0  0  0  0  0  0  0
    3.5264   -7.6538    1.6794 H   0  0  0  0  0  0  0  0  0  0  0  0
    3.4237   -5.3838    0.7339 H   0  0  0  0  0  0  0  0  0  0  0  0
    6.1321   -6.2037    1.8174 H   0  0  0  0  0  0  0  0  0  0  0  0
    5.4122   -6.5124    0.2436 H   0  0  0  0  0  0  0  0  0  0  0  0
    6.9426   -4.6720   -0.1315 H   0  0  0  0  0  0  0  0  0  0  0  0
    6.7177   -1.3779    0.8427 H   0  0  0  0  0  0  0  0  0  0  0  0
    7.1308   -2.4110   -0.5144 H   0  0  0  0  0  0  0  0  0  0  0  0
    4.0695   -0.2444    0.6469 H   0  0  0  0  0  0  0  0  0  0  0  0
    3.1514   -0.8389   -0.7126 H   0  0  0  0  0  0  0  0  0  0  0  0
    2.5682   -1.9604    1.4607 H   0  0  0  0  0  0  0  0  0  0  0  0
    3.0092   -3.0609    0.1778 H   0  0  0  0  0  0  0  0  0  0  0  0
    4.1299   -1.7274    3.5355 H   0  0  0  0  0  0  0  0  0  0  0  0
    5.2945   -1.0225    2.4512 H   0  0  0  0  0  0  0  0  0  0  0  0
    5.7611   -2.3822    3.4553 H   0  0  0  0  0  0  0  0  0  0  0  0
    4.6755   -4.4568    3.3092 H   0  0  0  0  0  0  0  0  0  0  0  0
    2.6048   -3.2863    3.8682 H   0  0  0  0  0  0  0  0  0  0  0  0
    1.8416   -3.8059    2.4073 H   0  0  0  0  0  0  0  0  0  0  0  0
    2.7581   -5.5179    4.7289 H   0  0  0  0  0  0  0  0  0  0  0  0
    1.1126   -5.2018    4.2658 H   0  0  0  0  0  0  0  0  0  0  0  0
    0.1157   -6.2492    2.1452 H   0  0  0  0  0  0  0  0  0  0  0  0
    1.1649   -7.1719    1.0423 H   0  0  0  0  0  0  0  0  0  0  0  0
    1.3549   -5.4531    1.2292 H   0  0  0  0  0  0  0  0  0  0  0  0
   -1.3228   -9.0489    4.4176 H   0  0  0  0  0  0  0  0  0  0  0  0
   -0.4562  -10.1150    2.1196 H   0  0  0  0  0  0  0  0  0  0  0  0
   -0.4550   -8.2981    1.9414 H   0  0  0  0  0  0  0  0  0  0  0  0
    2.1083   -9.6890    2.5084 H   0  0  0  0  0  0  0  0  0  0  0  0
    1.1316  -10.2445    5.1460 H   0  0  0  0  0  0  0  0  0  0  0  0
    0.2864  -11.1089    3.8207 H   0  0  0  0  0  0  0  0  0  0  0  0
  1  2  2  0
  1 28  1  0
  1 29  1  0
 22  2  1  1
  2  3  1  0
  3  4  1  0
  3 30  1  0
  3 31  1  0
  4  5  1  0
  5 20  1  0
  5  6  1  0
  5 32  1  6
  6 17  1  0
  6  7  1  0
  6 33  1  6
  7  8  1  0
  7 34  1  0
  7 35  1  0
  8  9  2  0
  8 36  1  0
  9 15  1  0
  9 10  1  0
 10 11  1  0
 10 37  1  0
 10 38  1  0
 11 12  2  0
 11 13  1  0
 13 14  1  0
 13 39  1  0
 13 40  1  0
 14 15  1  0
 14 41  1  0
 14 42  1  0
 15 16  1  1
 15 17  1  0
 16 43  1  0
 16 44  1  0
 16 45  1  0
 17 18  1  0
 17 46  1  1
 18 19  1  0
 18 47  1  0
 18 48  1  0
 19 20  1  0
 19 49  1  0
 19 50  1  0
 20 21  1  6
 20 22  1  0
 21 51  1  0
 21 52  1  0
 21 53  1  0
 22 26  1  0
 22 23  1  0
 23 24  1  0
 24 27  1  0
 24 25  1  0
 24 54  1  6
 25 26  1  0
 25 55  1  0
 25 56  1  0
 26 27  1  0
 26 57  1  6
 27 58  1  0
 27 59  1  0
M  END
>  <i_m_ct_stereo_status>  (113) 
1

>  <s_m_source_file>  (113) 
/var/tmp/pbs.5076255.sched01/tmpmalnbme9/37wob9dpop.sdf

>  <i_m_source_file_index>  (113) 
18

>  <i_lp_mmshare_version>  (113) 
48012

>  <i_f3d_flags>  (113) 
0

>  <s_epik_input>  (113) 
TzFbQ0BASF0oW0NIMl0yKVtDSDJdW0NAQEhdMltDQEBdMTNbQ0BdNChbQ0gzXSlbQ0BIXShPW0NIMl1DMz1bQ0gyXSlbQ0BIXTVbQ0BIXShbQ0gyXVtDSDJdNClbQ0BAXTYoW0NIM10pQyg9W0NIXVtDSDJdNSlbQ0gyXUMoPU8pW0NIMl1bQ0gyXTY=

>  <s_epik_cmdline>  (113) 
J2VwaWtfcHl0aG9uJywgJy1waHQnLCAnMi4wJywgJy1waCcsICc3LjAnLCAnLXRuJywgJzgnLCAnLW1hJywgJzIwMCcsICctaW1hZScsICc8aW5maWxlLm1hZT4nLCAnLW9tYWUnLCAnPG91dGZpbGUubWFlPic=

>  <r_lp_tautomer_probability>  (113) 
1

>  <r_epik_Ionization_Penalty>  (113) 
9.92831e-12

>  <r_epik_Ionization_Penalty_Charging>  (113) 
0

>  <r_epik_Ionization_Penalty_Neutral>  (113) 
9.92831e-12

>  <r_epik_State_Penalty>  (113) 
-0

>  <r_epik_Charging_Adjusted_Penalty>  (113) 
0

>  <i_epik_Tot_Q>  (113) 
0

>  <i_epik_Tot_abs_Q>  (113) 
0

>  <s_lp_Force_Field>  (113) 
OPLS3e

>  <r_lp_Energy>  (113) 
71.7125

>  <b_lp_Chiralities_Consistent>  (113) 
1

>  <s_lp_Variant>  (113) 
42:0-1

>  <s_i_glide_gridfile>  (113) 
pfpi4k_grid

>  <i_i_glide_lignum>  (113) 
18

>  <i_i_glide_rotatable_bonds>  (113) 
0

>  <r_i_docking_score>  (113) 
-2.89225

>  <r_i_glide_ligand_efficiency>  (113) 
-0.10712

>  <r_i_glide_ligand_efficiency_sa>  (113) 
-0.321361

>  <r_i_glide_ligand_efficiency_ln>  (113) 
-0.673267

>  <r_i_glide_gscore>  (113) 
-2.89225

>  <r_i_glide_lipo>  (113) 
-0.373871

>  <r_i_glide_hbond>  (113) 
-0.00614172

>  <r_i_glide_metal>  (113) 
-0

>  <r_i_glide_rewards>  (113) 
-0.896529

>  <r_i_glide_evdw>  (113) 
-27

>  <r_i_glide_ecoul>  (113) 
-1.5285

>  <r_i_glide_erotb>  (113) 
0

>  <r_i_glide_esite>  (113) 
-0.0364307

>  <r_i_glide_emodel>  (113) 
-33.5582

>  <r_i_glide_energy>  (113) 
-28.5285

>  <r_i_glide_einternal>  (113) 
0

>  <r_i_glide_intrahb_reward>  (113) 
-0

>  <i_i_glide_confnum>  (113) 
2

>  <i_i_glide_posenum>  (113) 
1

>  <r_i_glide_eff_state_penalty>  (113) 
0

>  <ligand_id>  (113) 
42

>  <original_smiles>  (113) 
C=C1COC2C3CC=C4CC(=O)CCC4(C)C3CCC2(C)C12OC1CC2C1

>  <smiles>  (113) 
[H]C([H])=C1C([H])([H])OC2([H])C3([H])C([H])([H])C([H])=C4C([H])([H])C(=O)C([H])([H])C([H])([H])C4(C([H])([H])[H])C3([H])C([H])([H])C([H])([H])C2(C([H])([H])[H])C12OC1([H])C([H])([H])C2([H])C1([H])[H]

$$$$
42:0:1
     RDKit          3D

 59 64  0  0  1  0  0  0  0  0999 V2000
    8.6413   -8.2470    3.7526 C   0  0  0  0  0  0  0  0  0  0  0  0
    7.6617   -7.3414    3.6121 C   0  0  0  0  0  0  0  0  0  0  0  0
    6.9277   -6.7654    4.7882 C   0  0  0  0  0  0  0  0  0  0  0  0
    5.5468   -7.0934    4.7112 O   0  0  0  0  0  0  0  0  0  0  0  0
    4.8840   -6.6322    3.5242 C   0  0  2  0  0  0  0  0  0  0  0  0
    3.3890   -7.0223    3.6670 C   0  0  2  0  0  0  0  0  0  0  0  0
    2.7980   -6.4147    4.9532 C   0  0  0  0  0  0  0  0  0  0  0  0
    1.4273   -6.9608    5.2738 C   0  0  0  0  0  0  0  0  0  0  0  0
    0.9246   -8.0956    4.7448 C   0  0  0  0  0  0  0  0  0  0  0  0
   -0.5224   -8.4658    5.0060 C   0  0  0  0  0  0  0  0  0  0  0  0
   -1.2578   -8.4250    3.6675 C   0  0  0  0  0  0  0  0  0  0  0  0
   -2.2813   -7.7710    3.5147 O   0  0  0  0  0  0  0  0  0  0  0  0
   -0.6195   -9.1972    2.5166 C   0  0  0  0  0  0  0  0  0  0  0  0
    0.8923   -8.9102    2.3998 C   0  0  0  0  0  0  0  0  0  0  0  0
    1.6690   -8.9986    3.7495 C   0  0  2  0  0  0  0  0  0  0  0  0
    1.6587  -10.4674    4.2554 C   0  0  0  0  0  0  0  0  0  0  0  0
    3.1794   -8.5625    3.5985 C   0  0  1  0  0  0  0  0  0  0  0  0
    3.8853   -9.1793    2.3623 C   0  0  0  0  0  0  0  0  0  0  0  0
    5.3535   -8.7508    2.2516 C   0  0  0  0  0  0  0  0  0  0  0  0
    5.5467   -7.2081    2.2412 C   0  0  1  0  0  0  0  0  0  0  0  0
    4.8103   -6.6319    1.0003 C   0  0  0  0  0  0  0  0  0  0  0  0
    7.1003   -6.8749    2.2546 C   0  0  2  0  0  0  0  0  0  0  0  0
    7.7905   -7.4397    1.1212 O   0  0  0  0  0  0  0  0  0  0  0  0
    8.4565   -6.3026    0.5179 C   0  0  1  0  0  0  0  0  0  0  0  0
    7.4640   -5.1329    0.4655 C   0  0  0  0  0  0  0  0  0  0  0  0
    7.5425   -5.4373    1.9484 C   0  0  2  0  0  0  0  0  0  0  0  0
    9.0665   -5.4704    1.6616 C   0  0  0  0  0  0  0  0  0  0  0  0
    9.1487   -8.6898    2.9088 H   0  0  0  0  0  0  0  0  0  0  0  0
    8.9551   -8.5667    4.7398 H   0  0  0  0  0  0  0  0  0  0  0  0
    7.3231   -7.1665    5.7219 H   0  0  0  0  0  0  0  0  0  0  0  0
    7.0633   -5.6777    4.8190 H   0  0  0  0  0  0  0  0  0  0  0  0
    4.9611   -5.5425    3.5009 H   0  0  0  0  0  0  0  0  0  0  0  0
    2.8253   -6.5713    2.8460 H   0  0  0  0  0  0  0  0  0  0  0  0
    3.4215   -6.6128    5.8234 H   0  0  0  0  0  0  0  0  0  0  0  0
    2.7132   -5.3320    4.8383 H   0  0  0  0  0  0  0  0  0  0  0  0
    0.8341   -6.3735    5.9445 H   0  0  0  0  0  0  0  0  0  0  0  0
   -0.5883   -9.4488    5.4510 H   0  0  0  0  0  0  0  0  0  0  0  0
   -0.9797   -7.7533    5.6834 H   0  0  0  0  0  0  0  0  0  0  0  0
   -0.8041  -10.2614    2.6778 H   0  0  0  0  0  0  0  0  0  0  0  0
   -1.1335   -8.9306    1.5928 H   0  0  0  0  0  0  0  0  0  0  0  0
    1.3023   -9.6092    1.6829 H   0  0  0  0  0  0  0  0  0  0  0  0
    1.0151   -7.9126    1.9816 H   0  0  0  0  0  0  0  0  0  0  0  0
    2.1836  -11.1294    3.5720 H   0  0  0  0  0  0  0  0  0  0  0  0
    0.6516  -10.8686    4.3557 H   0  0  0  0  0  0  0  0  0  0  0  0
    2.1362  -10.5471    5.2328 H   0  0  0  0  0  0  0  0  0  0  0  0
    3.6969   -8.9571    4.4697 H   0  0  0  0  0  0  0  0  0  0  0  0
    3.8471  -10.2659    2.4036 H   0  0  0  0  0  0  0  0  0  0  0  0
    3.3657   -8.9205    1.4376 H   0  0  0  0  0  0  0  0  0  0  0  0
    5.8895   -9.2089    3.0809 H   0  0  0  0  0  0  0  0  0  0  0  0
    5.7822   -9.1790    1.3492 H   0  0  0  0  0  0  0  0  0  0  0  0
    5.2397   -7.0278    0.0904 H   0  0  0  0  0  0  0  0  0  0  0  0
    4.8824   -5.5437    0.9777 H   0  0  0  0  0  0  0  0  0  0  0  0
    3.7595   -6.9107    0.9558 H   0  0  0  0  0  0  0  0  0  0  0  0
    9.0606   -6.5025   -0.3573 H   0  0  0  0  0  0  0  0  0  0  0  0
    7.8807   -4.1697    0.1473 H   0  0  0  0  0  0  0  0  0  0  0  0
    6.5637   -5.3689   -0.0952 H   0  0  0  0  0  0  0  0  0  0  0  0
    7.1493   -4.6499    2.5886 H   0  0  0  0  0  0  0  0  0  0  0  0
    9.7055   -6.0471    2.3367 H   0  0  0  0  0  0  0  0  0  0  0  0
    9.5629   -4.5318    1.3939 H   0  0  0  0  0  0  0  0  0  0  0  0
  1  2  2  0
  1 28  1  0
  1 29  1  0
 22  2  1  1
  2  3  1  0
  3  4  1  0
  3 30  1  0
  3 31  1  0
  4  5  1  0
  5 20  1  0
  5  6  1  0
  5 32  1  6
  6 17  1  0
  6  7  1  0
  6 33  1  6
  7  8  1  0
  7 34  1  0
  7 35  1  0
  8  9  2  0
  8 36  1  0
  9 15  1  0
  9 10  1  0
 10 11  1  0
 10 37  1  0
 10 38  1  0
 11 12  2  0
 11 13  1  0
 13 14  1  0
 13 39  1  0
 13 40  1  0
 14 15  1  0
 14 41  1  0
 14 42  1  0
 15 16  1  1
 15 17  1  0
 16 43  1  0
 16 44  1  0
 16 45  1  0
 17 18  1  0
 17 46  1  1
 18 19  1  0
 18 47  1  0
 18 48  1  0
 19 20  1  0
 19 49  1  0
 19 50  1  0
 20 21  1  6
 20 22  1  0
 21 51  1  0
 21 52  1  0
 21 53  1  0
 22 26  1  0
 22 23  1  0
 23 24  1  0
 24 27  1  0
 24 25  1  0
 24 54  1  6
 25 26  1  0
 25 55  1  0
 25 56  1  0
 26 27  1  0
 26 57  1  1
 27 58  1  0
 27 59  1  0
M  END
>  <i_m_ct_stereo_status>  (114) 
1

>  <s_m_source_file>  (114) 
/var/tmp/pbs.5076255.sched01/tmpmalnbme9/37wob9dpop.sdf

>  <i_m_source_file_index>  (114) 
18

>  <i_lp_mmshare_version>  (114) 
48012

>  <i_f3d_flags>  (114) 
0

>  <s_epik_input>  (114) 
TzFbQ0BASF0oW0NIMl0yKVtDSDJdW0NAQEhdMltDQEBdMTNbQ0BdNChbQ0gzXSlbQ0BIXShPW0NIMl1DMz1bQ0gyXSlbQ0BIXTVbQ0BIXShbQ0gyXVtDSDJdNClbQ0BAXTYoW0NIM10pQyg9W0NIXVtDSDJdNSlbQ0gyXUMoPU8pW0NIMl1bQ0gyXTY=

>  <s_epik_cmdline>  (114) 
J2VwaWtfcHl0aG9uJywgJy1waHQnLCAnMi4wJywgJy1waCcsICc3LjAnLCAnLXRuJywgJzgnLCAnLW1hJywgJzIwMCcsICctaW1hZScsICc8aW5maWxlLm1hZT4nLCAnLW9tYWUnLCAnPG91dGZpbGUubWFlPic=

>  <r_lp_tautomer_probability>  (114) 
1

>  <r_epik_Ionization_Penalty>  (114) 
9.92831e-12

>  <r_epik_Ionization_Penalty_Charging>  (114) 
0

>  <r_epik_Ionization_Penalty_Neutral>  (114) 
9.92831e-12

>  <r_epik_State_Penalty>  (114) 
-0

>  <r_epik_Charging_Adjusted_Penalty>  (114) 
0

>  <i_epik_Tot_Q>  (114) 
0

>  <i_epik_Tot_abs_Q>  (114) 
0

>  <s_lp_Force_Field>  (114) 
OPLS3e

>  <r_lp_Energy>  (114) 
71.7125

>  <b_lp_Chiralities_Consistent>  (114) 
1

>  <s_lp_Variant>  (114) 
42:0-1

>  <s_i_glide_gridfile>  (114) 
pfpi4k_grid

>  <i_i_glide_lignum>  (114) 
18

>  <i_i_glide_rotatable_bonds>  (114) 
0

>  <r_i_docking_score>  (114) 
-2.88579

>  <r_i_glide_ligand_efficiency>  (114) 
-0.106881

>  <r_i_glide_ligand_efficiency_sa>  (114) 
-0.320643

>  <r_i_glide_ligand_efficiency_ln>  (114) 
-0.671764

>  <r_i_glide_gscore>  (114) 
-2.88579

>  <r_i_glide_lipo>  (114) 
-0.402447

>  <r_i_glide_hbond>  (114) 
0

>  <r_i_glide_metal>  (114) 
-0

>  <r_i_glide_rewards>  (114) 
-0.896529

>  <r_i_glide_evdw>  (114) 
-24.6332

>  <r_i_glide_ecoul>  (114) 
-1.86248

>  <r_i_glide_erotb>  (114) 
0

>  <r_i_glide_esite>  (114) 
-0.0757801

>  <r_i_glide_emodel>  (114) 
-31.479

>  <r_i_glide_energy>  (114) 
-26.4957

>  <r_i_glide_einternal>  (114) 
0

>  <r_i_glide_intrahb_reward>  (114) 
-0

>  <i_i_glide_confnum>  (114) 
2

>  <i_i_glide_posenum>  (114) 
4

>  <r_i_glide_eff_state_penalty>  (114) 
0

>  <ligand_id>  (114) 
42

>  <original_smiles>  (114) 
C=C1COC2C3CC=C4CC(=O)CCC4(C)C3CCC2(C)C12OC1CC2C1

>  <smiles>  (114) 
[H]C([H])=C1C([H])([H])OC2([H])C3([H])C([H])([H])C([H])=C4C([H])([H])C(=O)C([H])([H])C([H])([H])C4(C([H])([H])[H])C3([H])C([H])([H])C([H])([H])C2(C([H])([H])[H])C12OC1([H])C([H])([H])C2([H])C1([H])[H]

$$$$
42:0:2
     RDKit          3D

 59 64  0  0  1  0  0  0  0  0999 V2000
    4.8273  -10.0060    3.2098 C   0  0  0  0  0  0  0  0  0  0  0  0
    3.8438   -9.2993    2.6126 C   0  0  0  0  0  0  0  0  0  0  0  0
    3.9949   -8.7449    1.2293 C   0  0  0  0  0  0  0  0  0  0  0  0
    3.9098   -7.3225    1.2483 O   0  0  0  0  0  0  0  0  0  0  0  0
    2.6916   -6.7971    1.7936 C   0  0  2  0  0  0  0  0  0  0  0  0
    2.7768   -5.2491    1.6679 C   0  0  2  0  0  0  0  0  0  0  0  0
    3.0029   -4.8311    0.2060 C   0  0  0  0  0  0  0  0  0  0  0  0
    3.3385   -3.3649    0.0560 C   0  0  0  0  0  0  0  0  0  0  0  0
    3.7619   -2.5777    1.0695 C   0  0  0  0  0  0  0  0  0  0  0  0
    3.9236   -1.0790    0.8431 C   0  0  0  0  0  0  0  0  0  0  0  0
    2.9294   -0.3645    1.7504 C   0  0  0  0  0  0  0  0  0  0  0  0
    2.2225    0.5573    1.3361 O   0  0  0  0  0  0  0  0  0  0  0  0
    2.8984   -0.7901    3.2106 C   0  0  0  0  0  0  0  0  0  0  0  0
    2.9115   -2.3290    3.3791 C   0  0  0  0  0  0  0  0  0  0  0  0
    3.9704   -3.0669    2.5048 C   0  0  2  0  0  0  0  0  0  0  0  0
    5.3897   -2.6842    2.9860 C   0  0  0  0  0  0  0  0  0  0  0  0
    3.8530   -4.6393    2.6099 C   0  0  1  0  0  0  0  0  0  0  0  0
    3.6959   -5.1621    4.0616 C   0  0  0  0  0  0  0  0  0  0  0  0
    3.6004   -6.6922    4.1366 C   0  0  0  0  0  0  0  0  0  0  0  0
    2.4674   -7.2777    3.2513 C   0  0  1  0  0  0  0  0  0  0  0  0
    1.1170   -6.7018    3.7590 C   0  0  0  0  0  0  0  0  0  0  0  0
    2.5365   -8.8640    3.3009 C   0  0  2  0  0  0  0  0  0  0  0  0
    2.3841   -9.3831    4.6260 O   0  0  0  0  0  0  0  0  0  0  0  0
    1.2964  -10.3353    4.5623 C   0  0  1  0  0  0  0  0  0  0  0  0
    0.1740   -9.6814    3.7533 C   0  0  0  0  0  0  0  0  0  0  0  0
    1.3603   -9.6835    2.7727 C   0  0  2  0  0  0  0  0  0  0  0  0
    1.5118  -11.1461    3.2844 C   0  0  0  0  0  0  0  0  0  0  0  0
    4.7536  -10.3615    4.2178 H   0  0  0  0  0  0  0  0  0  0  0  0
    5.7455  -10.2273    2.6681 H   0  0  0  0  0  0  0  0  0  0  0  0
    4.9609   -9.0184    0.7883 H   0  0  0  0  0  0  0  0  0  0  0  0
    3.2249   -9.1634    0.5702 H   0  0  0  0  0  0  0  0  0  0  0  0
    1.8674   -7.1548    1.1722 H   0  0  0  0  0  0  0  0  0  0  0  0
    1.8175   -4.8173    1.9514 H   0  0  0  0  0  0  0  0  0  0  0  0
    3.8094   -5.3957   -0.2616 H   0  0  0  0  0  0  0  0  0  0  0  0
    2.1003   -5.0344   -0.3717 H   0  0  0  0  0  0  0  0  0  0  0  0
    3.1889   -2.9504   -0.9243 H   0  0  0  0  0  0  0  0  0  0  0  0
    4.9332   -0.7543    1.0858 H   0  0  0  0  0  0  0  0  0  0  0  0
    3.7330   -0.8224   -0.1941 H   0  0  0  0  0  0  0  0  0  0  0  0
    3.7652   -0.3467    3.6999 H   0  0  0  0  0  0  0  0  0  0  0  0
    2.0182   -0.3640    3.6941 H   0  0  0  0  0  0  0  0  0  0  0  0
    3.0597   -2.5405    4.4367 H   0  0  0  0  0  0  0  0  0  0  0  0
    1.9170   -2.7035    3.1273 H   0  0  0  0  0  0  0  0  0  0  0  0
    5.5804   -3.0185    4.0047 H   0  0  0  0  0  0  0  0  0  0  0  0
    5.5667   -1.6093    2.9862 H   0  0  0  0  0  0  0  0  0  0  0  0
    6.1580   -3.1326    2.3484 H   0  0  0  0  0  0  0  0  0  0  0  0
    4.7995   -5.0443    2.2513 H   0  0  0  0  0  0  0  0  0  0  0  0
    4.5367   -4.8466    4.6746 H   0  0  0  0  0  0  0  0  0  0  0  0
    2.8216   -4.7267    4.5429 H   0  0  0  0  0  0  0  0  0  0  0  0
    4.5666   -7.0995    3.8463 H   0  0  0  0  0  0  0  0  0  0  0  0
    3.4511   -6.9961    5.1690 H   0  0  0  0  0  0  0  0  0  0  0  0
    0.9182   -7.0260    4.7778 H   0  0  0  0  0  0  0  0  0  0  0  0
    0.2926   -6.9874    3.1075 H   0  0  0  0  0  0  0  0  0  0  0  0
    1.0848   -5.6183    3.8018 H   0  0  0  0  0  0  0  0  0  0  0  0
    1.0200  -10.8456    5.4743 H   0  0  0  0  0  0  0  0  0  0  0  0
   -0.6696  -10.3127    3.4583 H   0  0  0  0  0  0  0  0  0  0  0  0
   -0.2002   -8.7868    4.2217 H   0  0  0  0  0  0  0  0  0  0  0  0
    1.1357   -9.6030    1.7131 H   0  0  0  0  0  0  0  0  0  0  0  0
    2.4893  -11.6212    3.1988 H   0  0  0  0  0  0  0  0  0  0  0  0
    0.7208  -11.8607    3.0276 H   0  0  0  0  0  0  0  0  0  0  0  0
  1  2  2  0
  1 28  1  0
  1 29  1  0
 22  2  1  6
  2  3  1  0
  3  4  1  0
  3 30  1  0
  3 31  1  0
  4  5  1  0
  5 20  1  0
  5  6  1  0
  5 32  1  6
  6 17  1  0
  6  7  1  0
  6 33  1  1
  7  8  1  0
  7 34  1  0
  7 35  1  0
  8  9  2  0
  8 36  1  0
  9 15  1  0
  9 10  1  0
 10 11  1  0
 10 37  1  0
 10 38  1  0
 11 12  2  0
 11 13  1  0
 13 14  1  0
 13 39  1  0
 13 40  1  0
 14 15  1  0
 14 41  1  0
 14 42  1  0
 15 16  1  1
 15 17  1  0
 16 43  1  0
 16 44  1  0
 16 45  1  0
 17 18  1  0
 17 46  1  6
 18 19  1  0
 18 47  1  0
 18 48  1  0
 19 20  1  0
 19 49  1  0
 19 50  1  0
 20 21  1  1
 20 22  1  0
 21 51  1  0
 21 52  1  0
 21 53  1  0
 22 26  1  0
 22 23  1  0
 23 24  1  0
 24 27  1  0
 24 25  1  0
 24 54  1  1
 25 26  1  0
 25 55  1  0
 25 56  1  0
 26 27  1  0
 26 57  1  6
 27 58  1  0
 27 59  1  0
M  END
>  <i_m_ct_stereo_status>  (115) 
1

>  <s_m_source_file>  (115) 
/var/tmp/pbs.5076255.sched01/tmpmalnbme9/37wob9dpop.sdf

>  <i_m_source_file_index>  (115) 
18

>  <i_lp_mmshare_version>  (115) 
48012

>  <i_f3d_flags>  (115) 
0

>  <s_epik_input>  (115) 
TzFbQ0BASF0oW0NIMl0yKVtDSDJdW0NAQEhdMltDQEBdMTNbQ0BdNChbQ0gzXSlbQ0BIXShPW0NIMl1DMz1bQ0gyXSlbQ0BIXTVbQ0BIXShbQ0gyXVtDSDJdNClbQ0BAXTYoW0NIM10pQyg9W0NIXVtDSDJdNSlbQ0gyXUMoPU8pW0NIMl1bQ0gyXTY=

>  <s_epik_cmdline>  (115) 
J2VwaWtfcHl0aG9uJywgJy1waHQnLCAnMi4wJywgJy1waCcsICc3LjAnLCAnLXRuJywgJzgnLCAnLW1hJywgJzIwMCcsICctaW1hZScsICc8aW5maWxlLm1hZT4nLCAnLW9tYWUnLCAnPG91dGZpbGUubWFlPic=

>  <r_lp_tautomer_probability>  (115) 
1

>  <r_epik_Ionization_Penalty>  (115) 
9.92831e-12

>  <r_epik_Ionization_Penalty_Charging>  (115) 
0

>  <r_epik_Ionization_Penalty_Neutral>  (115) 
9.92831e-12

>  <r_epik_State_Penalty>  (115) 
-0

>  <r_epik_Charging_Adjusted_Penalty>  (115) 
0

>  <i_epik_Tot_Q>  (115) 
0

>  <i_epik_Tot_abs_Q>  (115) 
0

>  <s_lp_Force_Field>  (115) 
OPLS3e

>  <r_lp_Energy>  (115) 
71.7125

>  <b_lp_Chiralities_Consistent>  (115) 
1

>  <s_lp_Variant>  (115) 
42:0-1

>  <s_i_glide_gridfile>  (115) 
pfpi4k_grid

>  <i_i_glide_lignum>  (115) 
18

>  <i_i_glide_rotatable_bonds>  (115) 
0

>  <r_i_docking_score>  (115) 
-2.67172

>  <r_i_glide_ligand_efficiency>  (115) 
-0.0989526

>  <r_i_glide_ligand_efficiency_sa>  (115) 
-0.296858

>  <r_i_glide_ligand_efficiency_ln>  (115) 
-0.621932

>  <r_i_glide_gscore>  (115) 
-2.67172

>  <r_i_glide_lipo>  (115) 
-0.304354

>  <r_i_glide_hbond>  (115) 
0

>  <r_i_glide_metal>  (115) 
-0

>  <r_i_glide_rewards>  (115) 
-0.896529

>  <r_i_glide_evdw>  (115) 
-27.3308

>  <r_i_glide_ecoul>  (115) 
-0.461163

>  <r_i_glide_erotb>  (115) 
0

>  <r_i_glide_esite>  (115) 
-0.0351251

>  <r_i_glide_emodel>  (115) 
-32.4356

>  <r_i_glide_energy>  (115) 
-27.7919

>  <r_i_glide_einternal>  (115) 
0

>  <r_i_glide_intrahb_reward>  (115) 
-0

>  <i_i_glide_confnum>  (115) 
1

>  <i_i_glide_posenum>  (115) 
12

>  <r_i_glide_eff_state_penalty>  (115) 
0

>  <ligand_id>  (115) 
42

>  <original_smiles>  (115) 
C=C1COC2C3CC=C4CC(=O)CCC4(C)C3CCC2(C)C12OC1CC2C1

>  <smiles>  (115) 
[H]C([H])=C1C([H])([H])OC2([H])C3([H])C([H])([H])C([H])=C4C([H])([H])C(=O)C([H])([H])C([H])([H])C4(C([H])([H])[H])C3([H])C([H])([H])C([H])([H])C2(C([H])([H])[H])C12OC1([H])C([H])([H])C2([H])C1([H])[H]

$$$$
43:0:0
     RDKit          3D

 89 94  0  0  1  0  0  0  0  0999 V2000
   -2.5515   -1.1873    5.3054 C   0  0  0  0  0  0  0  0  0  0  0  0
   -1.8566   -0.2650    6.1264 O   0  0  0  0  0  0  0  0  0  0  0  0
   -1.4063    0.9801    5.5771 C   0  0  2  0  0  0  0  0  0  0  0  0
   -1.1977    0.9703    4.0508 C   0  0  0  0  0  0  0  0  0  0  0  0
   -0.0216    0.0718    3.6259 C   0  0  0  0  0  0  0  0  0  0  0  0
    1.3428    0.4487    4.2605 C   0  0  1  0  0  0  0  0  0  0  0  0
    1.7818    1.8013    3.6364 C   0  0  0  0  0  0  0  0  0  0  0  0
    1.1204    0.5635    5.8273 C   0  0  2  0  0  0  0  0  0  0  0  0
    1.1155   -0.8274    6.5327 C   0  0  0  0  0  0  0  0  0  0  0  0
    1.8418   -1.9804    5.8429 C   0  0  0  0  0  0  0  0  0  0  0  0
    3.0678   -1.5648    4.9859 C   0  0  2  0  0  0  0  0  0  0  0  0
    4.0748   -0.8602    5.9486 C   0  0  0  0  0  0  0  0  0  0  0  0
    2.5065   -0.5816    3.8839 C   0  0  1  0  0  0  0  0  0  0  0  0
    2.2735   -1.4401    2.5785 C   0  0  1  0  0  0  0  0  0  0  0  0
    2.9666   -0.8720    1.4932 O   0  0  0  0  0  0  0  0  0  0  0  0
    2.7389   -2.8471    2.9559 C   0  0  1  0  0  0  0  0  0  0  0  0
    2.6085   -4.0792    1.9935 C   0  0  2  0  0  0  0  0  0  0  0  0
    2.8730   -5.3875    2.7324 C   0  0  1  0  0  0  0  0  0  0  0  0
    2.9618   -6.4047    1.7354 O   0  0  0  0  0  0  0  0  0  0  0  0
    3.0062   -5.7844    0.4608 C   0  0  0  0  0  0  0  0  0  0  0  0
    3.4526   -4.3331    0.7392 C   0  0  1  0  0  0  0  0  0  0  0  0
    3.0649   -3.4828   -0.4955 C   0  0  0  0  0  0  0  0  0  0  0  0
    4.9800   -4.3954    1.0194 C   0  0  1  0  0  0  0  0  0  0  0  0
    5.5765   -3.1195    0.7979 O   0  0  0  0  0  0  0  0  0  0  0  0
    6.8590   -2.9562    0.4105 C   0  0  0  0  0  0  0  0  0  0  0  0
    7.7893   -4.1572    0.5154 C   0  0  0  0  0  0  0  0  0  0  0  0
    7.3021   -1.8581    0.0078 O   0  0  0  0  0  0  0  0  0  0  0  0
    5.3522   -5.0819    2.3764 C   0  0  0  0  0  0  0  0  0  0  0  0
    4.2275   -5.2434    3.4575 C   0  0  1  0  0  0  0  0  0  0  0  0
    4.1394   -4.1910    4.6468 C   0  0  0  0  0  0  0  0  0  0  0  0
    3.0976   -4.7863    5.6266 C   0  0  0  0  0  0  0  0  0  0  0  0
    5.4572   -4.2659    5.4598 C   0  0  0  0  0  0  0  0  0  0  0  0
    3.7971   -2.7121    4.0931 C   0  0  2  0  0  0  0  0  0  0  0  0
    5.1298   -2.0503    3.5989 C   0  0  0  0  0  0  0  0  0  0  0  0
   -0.1127    1.4381    6.3186 C   0  0  0  0  0  0  0  0  0  0  0  0
    0.1351    2.9566    6.0980 C   0  0  0  0  0  0  0  0  0  0  0  0
   -0.3067    1.3260    7.8590 C   0  0  0  0  0  0  0  0  0  0  0  0
   -2.9482   -1.9800    5.9501 H   0  0  0  0  0  0  0  0  0  0  0  0
   -1.8933   -1.6083    4.5547 H   0  0  0  0  0  0  0  0  0  0  0  0
   -3.3635   -0.6856    4.8096 H   0  0  0  0  0  0  0  0  0  0  0  0
   -2.1991    1.6942    5.7763 H   0  0  0  0  0  0  0  0  0  0  0  0
   -2.1059    0.6581    3.5486 H   0  0  0  0  0  0  0  0  0  0  0  0
   -1.0606    1.9862    3.6835 H   0  0  0  0  0  0  0  0  0  0  0  0
   -0.2503   -0.9550    3.8679 H   0  0  0  0  0  0  0  0  0  0  0  0
    0.0535    0.1653    2.5405 H   0  0  0  0  0  0  0  0  0  0  0  0
    2.5741    2.2655    4.2201 H   0  0  0  0  0  0  0  0  0  0  0  0
    0.9728    2.5146    3.5424 H   0  0  0  0  0  0  0  0  0  0  0  0
    2.1390    1.6465    2.6186 H   0  0  0  0  0  0  0  0  0  0  0  0
    2.0012    1.0747    6.2180 H   0  0  0  0  0  0  0  0  0  0  0  0
    1.5599   -0.6919    7.5159 H   0  0  0  0  0  0  0  0  0  0  0  0
    0.1167   -1.1838    6.7462 H   0  0  0  0  0  0  0  0  0  0  0  0
    2.1358   -2.6407    6.6500 H   0  0  0  0  0  0  0  0  0  0  0  0
    1.0931   -2.5052    5.2562 H   0  0  0  0  0  0  0  0  0  0  0  0
    4.7481   -0.1834    5.4199 H   0  0  0  0  0  0  0  0  0  0  0  0
    4.6737   -1.5947    6.4839 H   0  0  0  0  0  0  0  0  0  0  0  0
    3.6055   -0.2518    6.7135 H   0  0  0  0  0  0  0  0  0  0  0  0
    3.3667    0.0522    3.6665 H   0  0  0  0  0  0  0  0  0  0  0  0
    1.2416   -1.5470    2.2621 H   0  0  0  0  0  0  0  0  0  0  0  0
    2.4197   -0.9854    0.7080 H   0  0  0  0  0  0  0  0  0  0  0  0
    1.8818   -3.1702    3.5314 H   0  0  0  0  0  0  0  0  0  0  0  0
    1.5702   -4.1158    1.6764 H   0  0  0  0  0  0  0  0  0  0  0  0
    2.0624   -5.6577    3.4084 H   0  0  0  0  0  0  0  0  0  0  0  0
    3.6597   -6.3178   -0.2347 H   0  0  0  0  0  0  0  0  0  0  0  0
    1.9942   -5.8175    0.0497 H   0  0  0  0  0  0  0  0  0  0  0  0
    1.9856   -3.4766   -0.6595 H   0  0  0  0  0  0  0  0  0  0  0  0
    3.5190   -3.8881   -1.3996 H   0  0  0  0  0  0  0  0  0  0  0  0
    3.3890   -2.4493   -0.4166 H   0  0  0  0  0  0  0  0  0  0  0  0
    5.3609   -5.0212    0.2213 H   0  0  0  0  0  0  0  0  0  0  0  0
    7.4596   -4.9782   -0.1286 H   0  0  0  0  0  0  0  0  0  0  0  0
    7.8251   -4.5201    1.5504 H   0  0  0  0  0  0  0  0  0  0  0  0
    8.7998   -3.8957    0.1858 H   0  0  0  0  0  0  0  0  0  0  0  0
    5.6265   -6.1019    2.1060 H   0  0  0  0  0  0  0  0  0  0  0  0
    6.2645   -4.6751    2.7940 H   0  0  0  0  0  0  0  0  0  0  0  0
    4.4337   -6.2138    3.9243 H   0  0  0  0  0  0  0  0  0  0  0  0
    3.2483   -4.4118    6.6333 H   0  0  0  0  0  0  0  0  0  0  0  0
    3.2108   -5.8669    5.7098 H   0  0  0  0  0  0  0  0  0  0  0  0
    2.0731   -4.6021    5.3197 H   0  0  0  0  0  0  0  0  0  0  0  0
    5.4223   -3.6425    6.3486 H   0  0  0  0  0  0  0  0  0  0  0  0
    6.3363   -3.9752    4.8971 H   0  0  0  0  0  0  0  0  0  0  0  0
    5.6404   -5.2846    5.7985 H   0  0  0  0  0  0  0  0  0  0  0  0
    5.7595   -2.7006    3.0409 H   0  0  0  0  0  0  0  0  0  0  0  0
    5.7827   -1.7712    4.4158 H   0  0  0  0  0  0  0  0  0  0  0  0
    4.9853   -1.1700    2.9845 H   0  0  0  0  0  0  0  0  0  0  0  0
    1.1897    3.2094    6.2090 H   0  0  0  0  0  0  0  0  0  0  0  0
   -0.4205    3.5587    6.8162 H   0  0  0  0  0  0  0  0  0  0  0  0
   -0.1936    3.3014    5.1245 H   0  0  0  0  0  0  0  0  0  0  0  0
    0.6058    1.6069    8.3852 H   0  0  0  0  0  0  0  0  0  0  0  0
   -0.5820    0.3276    8.1938 H   0  0  0  0  0  0  0  0  0  0  0  0
   -1.1021    1.9849    8.2023 H   0  0  0  0  0  0  0  0  0  0  0  0
  1  2  1  0
  1 38  1  0
  1 39  1  0
  1 40  1  0
  2  3  1  0
  3 35  1  0
  3  4  1  0
  3 41  1  6
  4  5  1  0
  4 42  1  0
  4 43  1  0
  5  6  1  0
  5 44  1  0
  5 45  1  0
  6 13  1  0
  6  7  1  6
  6  8  1  0
  7 46  1  0
  7 47  1  0
  7 48  1  0
  8  9  1  0
  8 35  1  0
  8 49  1  1
  9 10  1  0
  9 50  1  0
  9 51  1  0
 10 11  1  0
 10 52  1  0
 10 53  1  0
 11 33  1  0
 11 12  1  1
 11 13  1  0
 12 54  1  0
 12 55  1  0
 12 56  1  0
 13 14  1  0
 13 57  1  6
 14 15  1  0
 14 16  1  0
 14 58  1  6
 15 59  1  0
 16 33  1  0
 16 17  1  0
 16 60  1  1
 17 21  1  0
 17 18  1  0
 17 61  1  6
 18 29  1  0
 18 19  1  0
 18 62  1  1
 19 20  1  0
 20 21  1  0
 20 63  1  0
 20 64  1  0
 21 22  1  6
 21 23  1  0
 22 65  1  0
 22 66  1  0
 22 67  1  0
 23 24  1  0
 23 28  1  0
 23 68  1  6
 24 25  1  0
 25 26  1  0
 25 27  2  0
 26 69  1  0
 26 70  1  0
 26 71  1  0
 28 29  1  0
 28 72  1  0
 28 73  1  0
 29 30  1  0
 29 74  1  1
 30 31  1  0
 30 32  1  0
 30 33  1  0
 31 75  1  0
 31 76  1  0
 31 77  1  0
 32 78  1  0
 32 79  1  0
 32 80  1  0
 33 34  1  6
 34 81  1  0
 34 82  1  0
 34 83  1  0
 35 36  1  0
 35 37  1  0
 36 84  1  0
 36 85  1  0
 36 86  1  0
 37 87  1  0
 37 88  1  0
 37 89  1  0
M  END
>  <i_m_ct_stereo_status>  (116) 
1

>  <s_m_source_file>  (116) 
/var/tmp/pbs.5076255.sched01/tmpmalnbme9/37wob9dpop.sdf

>  <i_m_source_file_index>  (116) 
19

>  <i_lp_mmshare_version>  (116) 
48012

>  <i_f3d_flags>  (116) 
0

>  <s_epik_input>  (116) 
W0NIM11PW0NASF0oW0NIMl1bQ0gyXTEpQyhbQ0gzXSkoW0NIM10pW0NASF0oW0NAXTEyW0NIM10pW0NIMl1bQ0gyXVtDQF0zKFtDSDNdKVtDQEhdMltDQEBIXShbT0hdKVtDQEhdNFtDQEBIXTVbQ0hdNltDQEhdKEMoW0NIM10pKFtDSDNdKVtDQF0zNFtDSDNdKVtDSDJdW0NAQEhdKFtDQEBdNShbQ0gyXU82KVtDSDNdKU9DKD1PKVtDSDNd

>  <s_epik_cmdline>  (116) 
J2VwaWtfcHl0aG9uJywgJy1waHQnLCAnMi4wJywgJy1waCcsICc3LjAnLCAnLXRuJywgJzgnLCAnLW1hJywgJzIwMCcsICctaW1hZScsICc8aW5maWxlLm1hZT4nLCAnLW9tYWUnLCAnPG91dGZpbGUubWFlPic=

>  <r_lp_tautomer_probability>  (116) 
1

>  <r_epik_Ionization_Penalty>  (116) 
1.90125e-06

>  <r_epik_Ionization_Penalty_Charging>  (116) 
0

>  <r_epik_Ionization_Penalty_Neutral>  (116) 
1.90125e-06

>  <r_epik_State_Penalty>  (116) 
-0

>  <r_epik_Charging_Adjusted_Penalty>  (116) 
0

>  <i_epik_Tot_Q>  (116) 
0

>  <i_epik_Tot_abs_Q>  (116) 
0

>  <s_epik_Chemistry_Notes>  (116) 
This compound has an ester and may undergo hydrolysis at high or low pH.

>  <s_lp_Force_Field>  (116) 
OPLS3e

>  <r_lp_Energy>  (116) 
150.319

>  <b_lp_Chiralities_Consistent>  (116) 
1

>  <s_lp_Variant>  (116) 
43:0-1

>  <s_i_glide_gridfile>  (116) 
pfpi4k_grid

>  <i_i_glide_lignum>  (116) 
19

>  <i_i_glide_rotatable_bonds>  (116) 
4

>  <r_i_docking_score>  (116) 
-2.64529

>  <r_i_glide_ligand_efficiency>  (116) 
-0.0714942

>  <r_i_glide_ligand_efficiency_sa>  (116) 
-0.238235

>  <r_i_glide_ligand_efficiency_ln>  (116) 
-0.573701

>  <r_i_glide_gscore>  (116) 
-2.64529

>  <r_i_glide_lipo>  (116) 
-0.319322

>  <r_i_glide_hbond>  (116) 
-0.306801

>  <r_i_glide_metal>  (116) 
-0

>  <r_i_glide_rewards>  (116) 
-0.156148

>  <r_i_glide_evdw>  (116) 
-20.4739

>  <r_i_glide_ecoul>  (116) 
-6.10794

>  <r_i_glide_erotb>  (116) 
0.0768728

>  <r_i_glide_esite>  (116) 
0

>  <r_i_glide_emodel>  (116) 
-22.6399

>  <r_i_glide_energy>  (116) 
-26.5819

>  <r_i_glide_einternal>  (116) 
13.2828

>  <r_i_glide_intrahb_reward>  (116) 
-0

>  <i_i_glide_confnum>  (116) 
3

>  <i_i_glide_posenum>  (116) 
39

>  <r_i_glide_eff_state_penalty>  (116) 
0

>  <ligand_id>  (116) 
43

>  <original_smiles>  (116) 
COC1CCC2(C)C(CCC3(C)C2C(O)C2C4C5OCC4(C)C(OC(C)=O)CC5C(C)(C)C23C)C1(C)C

>  <smiles>  (116) 
[H]OC1([H])C2([H])C3(C([H])([H])[H])C([H])([H])C([H])([H])C([H])(OC([H])([H])[H])C(C([H])([H])[H])(C([H])([H])[H])C3([H])C([H])([H])C([H])([H])C2(C([H])([H])[H])C2(C([H])([H])[H])C1([H])C1([H])C3([H])OC([H])([H])C1(C([H])([H])[H])C([H])(OC(=O)C([H])([H])[H])C([H])([H])C3([H])C2(C([H])([H])[H])C([H])([H])[H]

$$$$
43:0:1
     RDKit          3D

 89 94  0  0  1  0  0  0  0  0999 V2000
   -2.6580    2.4992    6.1772 C   0  0  0  0  0  0  0  0  0  0  0  0
   -1.5891    2.1270    5.3303 O   0  0  0  0  0  0  0  0  0  0  0  0
   -0.7504    3.1866    4.8702 C   0  0  2  0  0  0  0  0  0  0  0  0
   -0.4793    2.9330    3.3834 C   0  0  0  0  0  0  0  0  0  0  0  0
    0.5230    1.7938    3.1118 C   0  0  0  0  0  0  0  0  0  0  0  0
    1.8893    1.9300    3.8235 C   0  0  1  0  0  0  0  0  0  0  0  0
    2.6604    3.1123    3.1841 C   0  0  0  0  0  0  0  0  0  0  0  0
    1.6061    2.1975    5.3391 C   0  0  2  0  0  0  0  0  0  0  0  0
    1.2151    0.8892    6.0791 C   0  0  0  0  0  0  0  0  0  0  0  0
    1.7605   -0.4295    5.5252 C   0  0  0  0  0  0  0  0  0  0  0  0
    3.1193   -0.3379    4.7911 C   0  0  2  0  0  0  0  0  0  0  0  0
    4.1581    0.2059    5.8315 C   0  0  0  0  0  0  0  0  0  0  0  0
    2.8749    0.6853    3.6082 C   0  0  1  0  0  0  0  0  0  0  0  0
    2.6131   -0.1698    2.3253 C   0  0  1  0  0  0  0  0  0  0  0  0
    3.5287    0.1381    1.2854 O   0  0  0  0  0  0  0  0  0  0  0  0
    2.7345   -1.6334    2.7903 C   0  0  1  0  0  0  0  0  0  0  0  0
    2.4423   -2.8421    1.8613 C   0  0  2  0  0  0  0  0  0  0  0  0
    2.3513   -4.1413    2.6701 C   0  0  1  0  0  0  0  0  0  0  0  0
    2.2801   -5.2005    1.7317 O   0  0  0  0  0  0  0  0  0  0  0  0
    2.6208   -4.7068    0.4442 C   0  0  0  0  0  0  0  0  0  0  0  0
    3.3344   -3.3749    0.7129 C   0  0  1  0  0  0  0  0  0  0  0  0
    3.2942   -2.5565   -0.5850 C   0  0  0  0  0  0  0  0  0  0  0  0
    4.7642   -3.7501    1.1541 C   0  0  1  0  0  0  0  0  0  0  0  0
    5.6527   -2.6404    0.9491 O   0  0  0  0  0  0  0  0  0  0  0  0
    6.8863   -2.7769    0.4366 C   0  0  0  0  0  0  0  0  0  0  0  0
    7.4868   -4.1654    0.3315 C   0  0  0  0  0  0  0  0  0  0  0  0
    7.5671   -1.7802    0.0706 O   0  0  0  0  0  0  0  0  0  0  0  0
    4.8611   -4.3985    2.5669 C   0  0  0  0  0  0  0  0  0  0  0  0
    3.6292   -4.2452    3.5326 C   0  0  1  0  0  0  0  0  0  0  0  0
    3.6552   -3.1462    4.6585 C   0  0  0  0  0  0  0  0  0  0  0  0
    2.4193   -3.4420    5.5419 C   0  0  0  0  0  0  0  0  0  0  0  0
    4.8410   -3.4286    5.6127 C   0  0  0  0  0  0  0  0  0  0  0  0
    3.6778   -1.6461    4.0325 C   0  0  2  0  0  0  0  0  0  0  0  0
    5.1587   -1.3236    3.6605 C   0  0  0  0  0  0  0  0  0  0  0  0
    0.5703    3.3478    5.6775 C   0  0  0  0  0  0  0  0  0  0  0  0
    1.1566    4.7606    5.4070 C   0  0  0  0  0  0  0  0  0  0  0  0
    0.3118    3.3876    7.2070 C   0  0  0  0  0  0  0  0  0  0  0  0
   -3.0549    1.5666    6.5794 H   0  0  0  0  0  0  0  0  0  0  0  0
   -3.4385    3.0204    5.6152 H   0  0  0  0  0  0  0  0  0  0  0  0
   -2.3444    3.1024    7.0293 H   0  0  0  0  0  0  0  0  0  0  0  0
   -1.3334    4.1102    4.8927 H   0  0  0  0  0  0  0  0  0  0  0  0
   -1.4071    2.7303    2.8655 H   0  0  0  0  0  0  0  0  0  0  0  0
   -0.1050    3.8597    2.9557 H   0  0  0  0  0  0  0  0  0  0  0  0
    0.0482    0.8417    3.3488 H   0  0  0  0  0  0  0  0  0  0  0  0
    0.6719    1.8089    2.0322 H   0  0  0  0  0  0  0  0  0  0  0  0
    3.4985    3.4157    3.8161 H   0  0  0  0  0  0  0  0  0  0  0  0
    2.0445    3.9830    2.9778 H   0  0  0  0  0  0  0  0  0  0  0  0
    3.0502    2.8075    2.2093 H   0  0  0  0  0  0  0  0  0  0  0  0
    2.5395    2.5218    5.7788 H   0  0  0  0  0  0  0  0  0  0  0  0
    1.5891    0.9844    7.0943 H   0  0  0  0  0  0  0  0  0  0  0  0
    0.1394    0.7893    6.1774 H   0  0  0  0  0  0  0  0  0  0  0  0
    1.8313   -1.0844    6.3903 H   0  0  0  0  0  0  0  0  0  0  0  0
    0.9820   -0.8286    4.8757 H   0  0  0  0  0  0  0  0  0  0  0  0
    5.0100    0.6903    5.3533 H   0  0  0  0  0  0  0  0  0  0  0  0
    4.5230   -0.6086    6.4544 H   0  0  0  0  0  0  0  0  0  0  0  0
    3.7527    0.9407    6.5138 H   0  0  0  0  0  0  0  0  0  0  0  0
    3.8624    1.1160    3.4609 H   0  0  0  0  0  0  0  0  0  0  0  0
    1.6258   -0.0734    1.8845 H   0  0  0  0  0  0  0  0  0  0  0  0
    3.2293   -0.2993    0.5239 H   0  0  0  0  0  0  0  0  0  0  0  0
    1.7760   -1.7321    3.2847 H   0  0  0  0  0  0  0  0  0  0  0  0
    1.4676   -2.6233    1.4167 H   0  0  0  0  0  0  0  0  0  0  0  0
    1.4490   -4.1911    3.2802 H   0  0  0  0  0  0  0  0  0  0  0  0
    3.2181   -5.4185   -0.1256 H   0  0  0  0  0  0  0  0  0  0  0  0
    1.7050   -4.5615   -0.1231 H   0  0  0  0  0  0  0  0  0  0  0  0
    2.2681   -2.3874   -0.8993 H   0  0  0  0  0  0  0  0  0  0  0  0
    3.7674   -3.1161   -1.3918 H   0  0  0  0  0  0  0  0  0  0  0  0
    3.8026   -1.5965   -0.5200 H   0  0  0  0  0  0  0  0  0  0  0  0
    5.0572   -4.5140    0.4337 H   0  0  0  0  0  0  0  0  0  0  0  0
    6.9054   -4.7656   -0.3675 H   0  0  0  0  0  0  0  0  0  0  0  0
    7.4605   -4.6883    1.2881 H   0  0  0  0  0  0  0  0  0  0  0  0
    8.5304   -4.1265    0.0337 H   0  0  0  0  0  0  0  0  0  0  0  0
    4.9156   -5.4640    2.3522 H   0  0  0  0  0  0  0  0  0  0  0  0
    5.8093   -4.1788    3.0509 H   0  0  0  0  0  0  0  0  0  0  0  0
    3.5963   -5.2083    4.0556 H   0  0  0  0  0  0  0  0  0  0  0  0
    2.5426   -3.0482    6.5456 H   0  0  0  0  0  0  0  0  0  0  0  0
    2.2875   -4.5201    5.6781 H   0  0  0  0  0  0  0  0  0  0  0  0
    1.4913   -3.0692    5.1204 H   0  0  0  0  0  0  0  0  0  0  0  0
    4.8411   -2.7639    6.4714 H   0  0  0  0  0  0  0  0  0  0  0  0
    5.8198   -3.3717    5.1397 H   0  0  0  0  0  0  0  0  0  0  0  0
    4.7570   -4.4435    6.0120 H   0  0  0  0  0  0  0  0  0  0  0  0
    5.6937   -2.1223    3.2004 H   0  0  0  0  0  0  0  0  0  0  0  0
    5.7640   -1.1415    4.5469 H   0  0  0  0  0  0  0  0  0  0  0  0
    5.2754   -0.4559    3.0062 H   0  0  0  0  0  0  0  0  0  0  0  0
    2.2215    4.8030    5.6244 H   0  0  0  0  0  0  0  0  0  0  0  0
    0.6606    5.5156    6.0268 H   0  0  0  0  0  0  0  0  0  0  0  0
    0.9948    5.0946    4.3850 H   0  0  0  0  0  0  0  0  0  0  0  0
    1.2356    3.5447    7.7750 H   0  0  0  0  0  0  0  0  0  0  0  0
   -0.1803    2.4821    7.5688 H   0  0  0  0  0  0  0  0  0  0  0  0
   -0.3688    4.2086    7.4450 H   0  0  0  0  0  0  0  0  0  0  0  0
  1  2  1  0
  1 38  1  0
  1 39  1  0
  1 40  1  0
  2  3  1  0
  3 35  1  0
  3  4  1  0
  3 41  1  6
  4  5  1  0
  4 42  1  0
  4 43  1  0
  5  6  1  0
  5 44  1  0
  5 45  1  0
  6 13  1  0
  6  7  1  6
  6  8  1  0
  7 46  1  0
  7 47  1  0
  7 48  1  0
  8  9  1  0
  8 35  1  0
  8 49  1  1
  9 10  1  0
  9 50  1  0
  9 51  1  0
 10 11  1  0
 10 52  1  0
 10 53  1  0
 11 33  1  0
 11 12  1  1
 11 13  1  0
 12 54  1  0
 12 55  1  0
 12 56  1  0
 13 14  1  0
 13 57  1  6
 14 15  1  0
 14 16  1  0
 14 58  1  6
 15 59  1  0
 16 33  1  0
 16 17  1  0
 16 60  1  1
 17 21  1  0
 17 18  1  0
 17 61  1  6
 18 29  1  0
 18 19  1  0
 18 62  1  1
 19 20  1  0
 20 21  1  0
 20 63  1  0
 20 64  1  0
 21 22  1  6
 21 23  1  0
 22 65  1  0
 22 66  1  0
 22 67  1  0
 23 24  1  0
 23 28  1  0
 23 68  1  6
 24 25  1  0
 25 26  1  0
 25 27  2  0
 26 69  1  0
 26 70  1  0
 26 71  1  0
 28 29  1  0
 28 72  1  0
 28 73  1  0
 29 30  1  0
 29 74  1  1
 30 31  1  0
 30 32  1  0
 30 33  1  0
 31 75  1  0
 31 76  1  0
 31 77  1  0
 32 78  1  0
 32 79  1  0
 32 80  1  0
 33 34  1  6
 34 81  1  0
 34 82  1  0
 34 83  1  0
 35 36  1  0
 35 37  1  0
 36 84  1  0
 36 85  1  0
 36 86  1  0
 37 87  1  0
 37 88  1  0
 37 89  1  0
M  END
>  <i_m_ct_stereo_status>  (117) 
1

>  <s_m_source_file>  (117) 
/var/tmp/pbs.5076255.sched01/tmpmalnbme9/37wob9dpop.sdf

>  <i_m_source_file_index>  (117) 
19

>  <i_lp_mmshare_version>  (117) 
48012

>  <i_f3d_flags>  (117) 
0

>  <s_epik_input>  (117) 
W0NIM11PW0NASF0oW0NIMl1bQ0gyXTEpQyhbQ0gzXSkoW0NIM10pW0NASF0oW0NAXTEyW0NIM10pW0NIMl1bQ0gyXVtDQF0zKFtDSDNdKVtDQEhdMltDQEBIXShbT0hdKVtDQEhdNFtDQEBIXTVbQ0hdNltDQEhdKEMoW0NIM10pKFtDSDNdKVtDQF0zNFtDSDNdKVtDSDJdW0NAQEhdKFtDQEBdNShbQ0gyXU82KVtDSDNdKU9DKD1PKVtDSDNd

>  <s_epik_cmdline>  (117) 
J2VwaWtfcHl0aG9uJywgJy1waHQnLCAnMi4wJywgJy1waCcsICc3LjAnLCAnLXRuJywgJzgnLCAnLW1hJywgJzIwMCcsICctaW1hZScsICc8aW5maWxlLm1hZT4nLCAnLW9tYWUnLCAnPG91dGZpbGUubWFlPic=

>  <r_lp_tautomer_probability>  (117) 
1

>  <r_epik_Ionization_Penalty>  (117) 
1.90125e-06

>  <r_epik_Ionization_Penalty_Charging>  (117) 
0

>  <r_epik_Ionization_Penalty_Neutral>  (117) 
1.90125e-06

>  <r_epik_State_Penalty>  (117) 
-0

>  <r_epik_Charging_Adjusted_Penalty>  (117) 
0

>  <i_epik_Tot_Q>  (117) 
0

>  <i_epik_Tot_abs_Q>  (117) 
0

>  <s_epik_Chemistry_Notes>  (117) 
This compound has an ester and may undergo hydrolysis at high or low pH.

>  <s_lp_Force_Field>  (117) 
OPLS3e

>  <r_lp_Energy>  (117) 
150.319

>  <b_lp_Chiralities_Consistent>  (117) 
1

>  <s_lp_Variant>  (117) 
43:0-1

>  <s_i_glide_gridfile>  (117) 
pfpi4k_grid

>  <i_i_glide_lignum>  (117) 
19

>  <i_i_glide_rotatable_bonds>  (117) 
4

>  <r_i_docking_score>  (117) 
-2.14055

>  <r_i_glide_ligand_efficiency>  (117) 
-0.0578527

>  <r_i_glide_ligand_efficiency_sa>  (117) 
-0.192778

>  <r_i_glide_ligand_efficiency_ln>  (117) 
-0.464235

>  <r_i_glide_gscore>  (117) 
-2.14055

>  <r_i_glide_lipo>  (117) 
-0.415339

>  <r_i_glide_hbond>  (117) 
-0.0975992

>  <r_i_glide_metal>  (117) 
-0

>  <r_i_glide_rewards>  (117) 
-0.15343

>  <r_i_glide_evdw>  (117) 
-22.5723

>  <r_i_glide_ecoul>  (117) 
-2.81624

>  <r_i_glide_erotb>  (117) 
0.0768728

>  <r_i_glide_esite>  (117) 
0

>  <r_i_glide_emodel>  (117) 
-24.4443

>  <r_i_glide_energy>  (117) 
-25.3886

>  <r_i_glide_einternal>  (117) 
8.03831

>  <r_i_glide_intrahb_reward>  (117) 
-0

>  <i_i_glide_confnum>  (117) 
3

>  <i_i_glide_posenum>  (117) 
1

>  <r_i_glide_eff_state_penalty>  (117) 
0

>  <ligand_id>  (117) 
43

>  <original_smiles>  (117) 
COC1CCC2(C)C(CCC3(C)C2C(O)C2C4C5OCC4(C)C(OC(C)=O)CC5C(C)(C)C23C)C1(C)C

>  <smiles>  (117) 
[H]OC1([H])C2([H])C3(C([H])([H])[H])C([H])([H])C([H])([H])C([H])(OC([H])([H])[H])C(C([H])([H])[H])(C([H])([H])[H])C3([H])C([H])([H])C([H])([H])C2(C([H])([H])[H])C2(C([H])([H])[H])C1([H])C1([H])C3([H])OC([H])([H])C1(C([H])([H])[H])C([H])(OC(=O)C([H])([H])[H])C([H])([H])C3([H])C2(C([H])([H])[H])C([H])([H])[H]

$$$$
43:0:2
     RDKit          3D

 89 94  0  0  1  0  0  0  0  0999 V2000
    4.5361   -1.8370   -1.0908 C   0  0  0  0  0  0  0  0  0  0  0  0
    4.5911   -1.9826    0.3207 O   0  0  0  0  0  0  0  0  0  0  0  0
    3.8836   -3.0991    0.8620 C   0  0  2  0  0  0  0  0  0  0  0  0
    2.3775   -2.8875    0.7420 C   0  0  0  0  0  0  0  0  0  0  0  0
    1.8485   -1.7828    1.6812 C   0  0  0  0  0  0  0  0  0  0  0  0
    2.1265   -2.0032    3.1863 C   0  0  1  0  0  0  0  0  0  0  0  0
    1.2824   -3.2156    3.6743 C   0  0  0  0  0  0  0  0  0  0  0  0
    3.6659   -2.2787    3.3212 C   0  0  2  0  0  0  0  0  0  0  0  0
    4.4987   -0.9621    3.2669 C   0  0  0  0  0  0  0  0  0  0  0  0
    3.8009    0.3396    3.6801 C   0  0  0  0  0  0  0  0  0  0  0  0
    2.6986    0.1836    4.7559 C   0  0  2  0  0  0  0  0  0  0  0  0
    3.3823   -0.4345    6.0207 C   0  0  0  0  0  0  0  0  0  0  0  0
    1.6317   -0.7988    4.1169 C   0  0  1  0  0  0  0  0  0  0  0  0
    0.4773    0.0961    3.5397 C   0  0  1  0  0  0  0  0  0  0  0  0
   -0.7753   -0.2499    4.1002 O   0  0  0  0  0  0  0  0  0  0  0  0
    0.8972    1.5374    3.8727 C   0  0  1  0  0  0  0  0  0  0  0  0
    0.0933    2.7879    3.3869 C   0  0  2  0  0  0  0  0  0  0  0  0
    0.8962    4.0759    3.6028 C   0  0  1  0  0  0  0  0  0  0  0  0
   -0.0053    5.1657    3.4283 O   0  0  0  0  0  0  0  0  0  0  0  0
   -1.3049    4.6355    3.2423 C   0  0  0  0  0  0  0  0  0  0  0  0
   -1.2592    3.2732    3.9277 C   0  0  1  0  0  0  0  0  0  0  0  0
   -2.4820    2.4760    3.4443 C   0  0  0  0  0  0  0  0  0  0  0  0
   -1.2422    3.5567    5.4461 C   0  0  1  0  0  0  0  0  0  0  0  0
   -1.6257    2.3947    6.1663 O   0  0  0  0  0  0  0  0  0  0  0  0
   -2.0358    2.4081    7.4639 C   0  0  0  0  0  0  0  0  0  0  0  0
   -2.2867    3.7722    8.1285 C   0  0  0  0  0  0  0  0  0  0  0  0
   -2.1794    1.3567    8.0770 O   0  0  0  0  0  0  0  0  0  0  0  0
    0.0947    4.1994    5.9706 C   0  0  0  0  0  0  0  0  0  0  0  0
    1.3617    4.0848    5.0715 C   0  0  1  0  0  0  0  0  0  0  0  0
    2.4192    2.9571    5.3822 C   0  0  0  0  0  0  0  0  0  0  0  0
    3.6243    3.3071    4.4855 C   0  0  0  0  0  0  0  0  0  0  0  0
    2.9754    3.1696    6.8168 C   0  0  0  0  0  0  0  0  0  0  0  0
    1.8132    1.4770    5.1360 C   0  0  2  0  0  0  0  0  0  0  0  0
    1.0366    1.0672    6.4261 C   0  0  0  0  0  0  0  0  0  0  0  0
    4.2739   -3.3684    2.3392 C   0  0  0  0  0  0  0  0  0  0  0  0
    3.8572   -4.8073    2.7554 C   0  0  0  0  0  0  0  0  0  0  0  0
    5.8066   -3.4106    2.4387 C   0  0  0  0  0  0  0  0  0  0  0  0
    5.2022   -1.0289   -1.3829 H   0  0  0  0  0  0  0  0  0  0  0  0
    3.5395   -1.5721   -1.4462 H   0  0  0  0  0  0  0  0  0  0  0  0
    4.8628   -2.7482   -1.5976 H   0  0  0  0  0  0  0  0  0  0  0  0
    4.1606   -3.9732    0.2697 H   0  0  0  0  0  0  0  0  0  0  0  0
    2.1064   -2.6601   -0.2791 H   0  0  0  0  0  0  0  0  0  0  0  0
    1.8939   -3.8422    0.9391 H   0  0  0  0  0  0  0  0  0  0  0  0
    2.2452   -0.8259    1.3542 H   0  0  0  0  0  0  0  0  0  0  0  0
    0.7764   -1.7383    1.5276 H   0  0  0  0  0  0  0  0  0  0  0  0
    1.6579   -3.5930    4.6292 H   0  0  0  0  0  0  0  0  0  0  0  0
    1.2658   -4.0437    2.9730 H   0  0  0  0  0  0  0  0  0  0  0  0
    0.2339   -2.9395    3.8165 H   0  0  0  0  0  0  0  0  0  0  0  0
    3.8168   -2.6678    4.3171 H   0  0  0  0  0  0  0  0  0  0  0  0
    5.3659   -1.0972    3.9089 H   0  0  0  0  0  0  0  0  0  0  0  0
    4.9116   -0.7816    2.2790 H   0  0  0  0  0  0  0  0  0  0  0  0
    4.5996    0.9803    4.0301 H   0  0  0  0  0  0  0  0  0  0  0  0
    3.4125    0.7827    2.7627 H   0  0  0  0  0  0  0  0  0  0  0  0
    2.6763   -0.9596    6.6658 H   0  0  0  0  0  0  0  0  0  0  0  0
    3.8675    0.3433    6.6081 H   0  0  0  0  0  0  0  0  0  0  0  0
    4.1567   -1.1627    5.8027 H   0  0  0  0  0  0  0  0  0  0  0  0
    1.2029   -1.2736    4.9940 H   0  0  0  0  0  0  0  0  0  0  0  0
    0.3535    0.0716    2.4612 H   0  0  0  0  0  0  0  0  0  0  0  0
   -1.4055    0.3696    3.7983 H   0  0  0  0  0  0  0  0  0  0  0  0
    1.6436    1.6794    3.1015 H   0  0  0  0  0  0  0  0  0  0  0  0
   -0.0462    2.6463    2.3083 H   0  0  0  0  0  0  0  0  0  0  0  0
    1.7160    4.1895    2.8885 H   0  0  0  0  0  0  0  0  0  0  0  0
   -2.0740    5.2847    3.6401 H   0  0  0  0  0  0  0  0  0  0  0  0
   -1.5065    4.5482    2.1735 H   0  0  0  0  0  0  0  0  0  0  0  0
   -2.4395    2.2953    2.3667 H   0  0  0  0  0  0  0  0  0  0  0  0
   -3.4134    3.0154    3.6345 H   0  0  0  0  0  0  0  0  0  0  0  0
   -2.5774    1.5132    3.9398 H   0  0  0  0  0  0  0  0  0  0  0  0
   -2.0556    4.2590    5.6201 H   0  0  0  0  0  0  0  0  0  0  0  0
   -3.1300    4.2952    7.6852 H   0  0  0  0  0  0  0  0  0  0  0  0
   -1.4122    4.4198    8.1057 H   0  0  0  0  0  0  0  0  0  0  0  0
   -2.5595    3.6156    9.1667 H   0  0  0  0  0  0  0  0  0  0  0  0
   -0.1170    5.2621    6.0612 H   0  0  0  0  0  0  0  0  0  0  0  0
    0.3250    3.9001    6.9931 H   0  0  0  0  0  0  0  0  0  0  0  0
    1.8738    5.0393    5.2240 H   0  0  0  0  0  0  0  0  0  0  0  0
    4.5448    2.8832    4.8815 H   0  0  0  0  0  0  0  0  0  0  0  0
    3.8008    4.3842    4.4539 H   0  0  0  0  0  0  0  0  0  0  0  0
    3.4783    2.9898    3.4544 H   0  0  0  0  0  0  0  0  0  0  0  0
    3.7973    2.4905    7.0379 H   0  0  0  0  0  0  0  0  0  0  0  0
    2.2491    3.0542    7.6170 H   0  0  0  0  0  0  0  0  0  0  0  0
    3.3754    4.1811    6.9186 H   0  0  0  0  0  0  0  0  0  0  0  0
    0.4823    1.8636    6.8561 H   0  0  0  0  0  0  0  0  0  0  0  0
    1.6879    0.8189    7.2661 H   0  0  0  0  0  0  0  0  0  0  0  0
    0.3477    0.2304    6.3007 H   0  0  0  0  0  0  0  0  0  0  0  0
    3.7493   -4.9040    3.8391 H   0  0  0  0  0  0  0  0  0  0  0  0
    4.5987   -5.5471    2.4434 H   0  0  0  0  0  0  0  0  0  0  0  0
    2.9276   -5.1421    2.2954 H   0  0  0  0  0  0  0  0  0  0  0  0
    6.0774   -3.6070    3.4759 H   0  0  0  0  0  0  0  0  0  0  0  0
    6.2856   -2.4886    2.0992 H   0  0  0  0  0  0  0  0  0  0  0  0
    6.2232   -4.2097    1.8150 H   0  0  0  0  0  0  0  0  0  0  0  0
  1  2  1  0
  1 38  1  0
  1 39  1  0
  1 40  1  0
  2  3  1  0
  3 35  1  0
  3  4  1  0
  3 41  1  6
  4  5  1  0
  4 42  1  0
  4 43  1  0
  5  6  1  0
  5 44  1  0
  5 45  1  0
  6 13  1  0
  6  7  1  1
  6  8  1  0
  7 46  1  0
  7 47  1  0
  7 48  1  0
  8  9  1  0
  8 35  1  0
  8 49  1  1
  9 10  1  0
  9 50  1  0
  9 51  1  0
 10 11  1  0
 10 52  1  0
 10 53  1  0
 11 33  1  0
 11 12  1  1
 11 13  1  0
 12 54  1  0
 12 55  1  0
 12 56  1  0
 13 14  1  0
 13 57  1  1
 14 15  1  0
 14 16  1  0
 14 58  1  6
 15 59  1  0
 16 33  1  0
 16 17  1  0
 16 60  1  6
 17 21  1  0
 17 18  1  0
 17 61  1  6
 18 29  1  0
 18 19  1  0
 18 62  1  6
 19 20  1  0
 20 21  1  0
 20 63  1  0
 20 64  1  0
 21 22  1  1
 21 23  1  0
 22 65  1  0
 22 66  1  0
 22 67  1  0
 23 24  1  0
 23 28  1  0
 23 68  1  6
 24 25  1  0
 25 26  1  0
 25 27  2  0
 26 69  1  0
 26 70  1  0
 26 71  1  0
 28 29  1  0
 28 72  1  0
 28 73  1  0
 29 30  1  0
 29 74  1  6
 30 31  1  0
 30 32  1  0
 30 33  1  0
 31 75  1  0
 31 76  1  0
 31 77  1  0
 32 78  1  0
 32 79  1  0
 32 80  1  0
 33 34  1  1
 34 81  1  0
 34 82  1  0
 34 83  1  0
 35 36  1  0
 35 37  1  0
 36 84  1  0
 36 85  1  0
 36 86  1  0
 37 87  1  0
 37 88  1  0
 37 89  1  0
M  END
>  <i_m_ct_stereo_status>  (118) 
1

>  <s_m_source_file>  (118) 
/var/tmp/pbs.5076255.sched01/tmpmalnbme9/37wob9dpop.sdf

>  <i_m_source_file_index>  (118) 
19

>  <i_lp_mmshare_version>  (118) 
48012

>  <i_f3d_flags>  (118) 
0

>  <s_epik_input>  (118) 
W0NIM11PW0NASF0oW0NIMl1bQ0gyXTEpQyhbQ0gzXSkoW0NIM10pW0NASF0oW0NAXTEyW0NIM10pW0NIMl1bQ0gyXVtDQF0zKFtDSDNdKVtDQEhdMltDQEBIXShbT0hdKVtDQEhdNFtDQEBIXTVbQ0hdNltDQEhdKEMoW0NIM10pKFtDSDNdKVtDQF0zNFtDSDNdKVtDSDJdW0NAQEhdKFtDQEBdNShbQ0gyXU82KVtDSDNdKU9DKD1PKVtDSDNd

>  <s_epik_cmdline>  (118) 
J2VwaWtfcHl0aG9uJywgJy1waHQnLCAnMi4wJywgJy1waCcsICc3LjAnLCAnLXRuJywgJzgnLCAnLW1hJywgJzIwMCcsICctaW1hZScsICc8aW5maWxlLm1hZT4nLCAnLW9tYWUnLCAnPG91dGZpbGUubWFlPic=

>  <r_lp_tautomer_probability>  (118) 
1

>  <r_epik_Ionization_Penalty>  (118) 
1.90125e-06

>  <r_epik_Ionization_Penalty_Charging>  (118) 
0

>  <r_epik_Ionization_Penalty_Neutral>  (118) 
1.90125e-06

>  <r_epik_State_Penalty>  (118) 
-0

>  <r_epik_Charging_Adjusted_Penalty>  (118) 
0

>  <i_epik_Tot_Q>  (118) 
0

>  <i_epik_Tot_abs_Q>  (118) 
0

>  <s_epik_Chemistry_Notes>  (118) 
This compound has an ester and may undergo hydrolysis at high or low pH.

>  <s_lp_Force_Field>  (118) 
OPLS3e

>  <r_lp_Energy>  (118) 
150.319

>  <b_lp_Chiralities_Consistent>  (118) 
1

>  <s_lp_Variant>  (118) 
43:0-1

>  <s_i_glide_gridfile>  (118) 
pfpi4k_grid

>  <i_i_glide_lignum>  (118) 
19

>  <i_i_glide_rotatable_bonds>  (118) 
4

>  <r_i_docking_score>  (118) 
-1.48467

>  <r_i_glide_ligand_efficiency>  (118) 
-0.0401261

>  <r_i_glide_ligand_efficiency_sa>  (118) 
-0.133709

>  <r_i_glide_ligand_efficiency_ln>  (118) 
-0.32199

>  <r_i_glide_gscore>  (118) 
-1.48467

>  <r_i_glide_lipo>  (118) 
-0.16626

>  <r_i_glide_hbond>  (118) 
-0.104122

>  <r_i_glide_metal>  (118) 
-0

>  <r_i_glide_rewards>  (118) 
-0.00175569

>  <r_i_glide_evdw>  (118) 
-20.4072

>  <r_i_glide_ecoul>  (118) 
-1.79363

>  <r_i_glide_erotb>  (118) 
0.0768728

>  <r_i_glide_esite>  (118) 
0

>  <r_i_glide_emodel>  (118) 
-20.5913

>  <r_i_glide_energy>  (118) 
-22.2008

>  <r_i_glide_einternal>  (118) 
6.74321

>  <r_i_glide_intrahb_reward>  (118) 
-0

>  <i_i_glide_confnum>  (118) 
3

>  <i_i_glide_posenum>  (118) 
23

>  <r_i_glide_eff_state_penalty>  (118) 
0

>  <ligand_id>  (118) 
43

>  <original_smiles>  (118) 
COC1CCC2(C)C(CCC3(C)C2C(O)C2C4C5OCC4(C)C(OC(C)=O)CC5C(C)(C)C23C)C1(C)C

>  <smiles>  (118) 
[H]OC1([H])C2([H])C3(C([H])([H])[H])C([H])([H])C([H])([H])C([H])(OC([H])([H])[H])C(C([H])([H])[H])(C([H])([H])[H])C3([H])C([H])([H])C([H])([H])C2(C([H])([H])[H])C2(C([H])([H])[H])C1([H])C1([H])C3([H])OC([H])([H])C1(C([H])([H])[H])C([H])(OC(=O)C([H])([H])[H])C([H])([H])C3([H])C2(C([H])([H])[H])C([H])([H])[H]

$$$$
44:0:0
     RDKit          3D

 44 47  0  0  1  0  0  0  0  0999 V2000
    8.4104   -3.5958   -0.7605 C   0  0  0  0  0  0  0  0  0  0  0  0
    7.4755   -2.9586    0.2875 C   0  0  0  0  0  0  0  0  0  0  0  0
    6.0155   -3.5189    0.4530 C   0  0  2  0  0  0  0  0  0  0  0  0
    6.1742   -5.0455    0.7652 C   0  0  0  0  0  0  0  0  0  0  0  0
    5.3913   -5.6453    1.9567 C   0  0  0  0  0  0  0  0  0  0  0  0
    3.8868   -5.6321    1.7638 C   0  0  0  0  0  0  0  0  0  0  0  0
    3.2774   -6.6437    1.4190 O   0  0  0  0  0  0  0  0  0  0  0  0
    3.1345   -4.3389    2.0619 C   0  0  0  0  0  0  0  0  0  0  0  0
    3.6402   -3.0103    1.4160 C   0  0  2  0  0  0  0  0  0  0  0  0
    2.7708   -1.9567    2.1700 C   0  0  0  0  0  0  0  0  0  0  0  0
    3.3665   -2.8918   -0.0865 C   0  0  2  0  0  0  0  0  0  0  0  0
    3.8858   -3.9770   -1.0412 C   0  0  0  0  0  0  0  0  0  0  0  0
    5.2285   -3.2638   -0.8446 C   0  0  1  0  0  0  0  0  0  0  0  0
    4.3593   -1.9645   -0.8720 C   0  0  1  0  0  0  0  0  0  0  0  0
    3.9348   -1.3751   -2.2259 C   0  0  0  0  0  0  0  0  0  0  0  0
    4.9411   -0.7852   -0.0462 C   0  0  0  0  0  0  0  0  0  0  0  0
    5.4125   -1.2182    1.3712 C   0  0  0  0  0  0  0  0  0  0  0  0
    5.1940   -2.7441    1.5749 C   0  0  2  0  0  0  0  0  0  0  0  0
    9.3805   -3.1097   -0.7102 H   0  0  0  0  0  0  0  0  0  0  0  0
    8.0453   -3.4626   -1.7765 H   0  0  0  0  0  0  0  0  0  0  0  0
    8.5872   -4.6576   -0.5877 H   0  0  0  0  0  0  0  0  0  0  0  0
    7.9839   -3.0338    1.2436 H   0  0  0  0  0  0  0  0  0  0  0  0
    7.4758   -1.9078    0.0209 H   0  0  0  0  0  0  0  0  0  0  0  0
    5.9709   -5.6314   -0.1283 H   0  0  0  0  0  0  0  0  0  0  0  0
    7.2084   -5.2732    1.0013 H   0  0  0  0  0  0  0  0  0  0  0  0
    5.6940   -6.6837    2.0859 H   0  0  0  0  0  0  0  0  0  0  0  0
    5.6428   -5.1373    2.8851 H   0  0  0  0  0  0  0  0  0  0  0  0
    2.0983   -4.4965    1.7604 H   0  0  0  0  0  0  0  0  0  0  0  0
    3.1180   -4.2384    3.1466 H   0  0  0  0  0  0  0  0  0  0  0  0
    2.7799   -0.9785    1.6920 H   0  0  0  0  0  0  0  0  0  0  0  0
    3.1077   -1.8329    3.1975 H   0  0  0  0  0  0  0  0  0  0  0  0
    1.7210   -2.2472    2.2032 H   0  0  0  0  0  0  0  0  0  0  0  0
    2.3124   -2.6602   -0.3394 H   0  0  0  0  0  0  0  0  0  0  0  0
    3.8438   -5.0058   -0.6994 H   0  0  0  0  0  0  0  0  0  0  0  0
    3.4839   -3.9374   -2.0389 H   0  0  0  0  0  0  0  0  0  0  0  0
    5.8171   -3.3734   -1.7740 H   0  0  0  0  0  0  0  0  0  0  0  0
    4.7719   -0.9367   -2.7572 H   0  0  0  0  0  0  0  0  0  0  0  0
    3.1619   -0.6229   -2.1027 H   0  0  0  0  0  0  0  0  0  0  0  0
    3.4911   -2.1048   -2.9109 H   0  0  0  0  0  0  0  0  0  0  0  0
    5.7811   -0.3320   -0.5691 H   0  0  0  0  0  0  0  0  0  0  0  0
    4.2060    0.0107    0.0638 H   0  0  0  0  0  0  0  0  0  0  0  0
    6.4489   -0.9332    1.5476 H   0  0  0  0  0  0  0  0  0  0  0  0
    4.9019   -0.6349    2.1333 H   0  0  0  0  0  0  0  0  0  0  0  0
    5.5385   -2.9985    2.5818 H   0  0  0  0  0  0  0  0  0  0  0  0
  1  2  1  0
  1 19  1  0
  1 20  1  0
  1 21  1  0
  3  2  1  6
  2 22  1  0
  2 23  1  0
  3 13  1  0
  3 18  1  0
  3  4  1  0
  4  5  1  0
  4 24  1  0
  4 25  1  0
  5  6  1  0
  5 26  1  0
  5 27  1  0
  6  7  2  0
  6  8  1  0
  8  9  1  0
  8 28  1  0
  8 29  1  0
  9 18  1  0
  9 10  1  1
  9 11  1  0
 10 30  1  0
 10 31  1  0
 10 32  1  0
 11 14  1  0
 11 12  1  0
 11 33  1  1
 12 13  1  0
 12 34  1  0
 12 35  1  0
 13 14  1  0
 13 36  1  6
 14 15  1  6
 14 16  1  0
 15 37  1  0
 15 38  1  0
 15 39  1  0
 16 17  1  0
 16 40  1  0
 16 41  1  0
 17 18  1  0
 17 42  1  0
 17 43  1  0
 18 44  1  1
M  END
>  <i_m_ct_stereo_status>  (119) 
1

>  <s_m_source_file>  (119) 
/var/tmp/pbs.5076255.sched01/tmpmalnbme9/37wob9dpop.sdf

>  <i_m_source_file_index>  (119) 
20

>  <i_lp_mmshare_version>  (119) 
48012

>  <i_f3d_flags>  (119) 
0

>  <s_epik_input>  (119) 
W0NIM11bQ0gyXVtDQEBdMTJbQ0BASF0zW0NAQF00KFtDSDNdKVtDQEBIXShbQ0gyXTMpW0NAXShbQ0gzXSkoW0NAQEhdMltDSDJdW0NIMl00KVtDSDJdQyg9TylbQ0gyXVtDSDJdMQ==

>  <s_epik_cmdline>  (119) 
J2VwaWtfcHl0aG9uJywgJy1waHQnLCAnMi4wJywgJy1waCcsICc3LjAnLCAnLXRuJywgJzgnLCAnLW1hJywgJzIwMCcsICctaW1hZScsICc8aW5maWxlLm1hZT4nLCAnLW9tYWUnLCAnPG91dGZpbGUubWFlPic=

>  <r_lp_tautomer_probability>  (119) 
1

>  <r_epik_Ionization_Penalty>  (119) 
9.32748e-14

>  <r_epik_Ionization_Penalty_Charging>  (119) 
0

>  <r_epik_Ionization_Penalty_Neutral>  (119) 
9.32748e-14

>  <r_epik_State_Penalty>  (119) 
-0

>  <r_epik_Charging_Adjusted_Penalty>  (119) 
0

>  <i_epik_Tot_Q>  (119) 
0

>  <i_epik_Tot_abs_Q>  (119) 
0

>  <s_lp_Force_Field>  (119) 
OPLS3e

>  <r_lp_Energy>  (119) 
72.8628

>  <b_lp_Chiralities_Consistent>  (119) 
1

>  <s_lp_Variant>  (119) 
44:0-1

>  <s_i_glide_gridfile>  (119) 
pfpi4k_grid

>  <i_i_glide_lignum>  (119) 
20

>  <i_i_glide_rotatable_bonds>  (119) 
1

>  <r_i_docking_score>  (119) 
-3.26474

>  <r_i_glide_ligand_efficiency>  (119) 
-0.181374

>  <r_i_glide_ligand_efficiency_sa>  (119) 
-0.475335

>  <r_i_glide_ligand_efficiency_ln>  (119) 
-0.839185

>  <r_i_glide_gscore>  (119) 
-3.26474

>  <r_i_glide_lipo>  (119) 
-0.619799

>  <r_i_glide_hbond>  (119) 
0

>  <r_i_glide_metal>  (119) 
-0

>  <r_i_glide_rewards>  (119) 
-1.75619

>  <r_i_glide_evdw>  (119) 
-16.3731

>  <r_i_glide_ecoul>  (119) 
-0.467336

>  <r_i_glide_erotb>  (119) 
0

>  <r_i_glide_esite>  (119) 
0

>  <r_i_glide_emodel>  (119) 
-20.0729

>  <r_i_glide_energy>  (119) 
-16.8404

>  <r_i_glide_einternal>  (119) 
0.0630013

>  <r_i_glide_intrahb_reward>  (119) 
-0

>  <i_i_glide_confnum>  (119) 
2

>  <i_i_glide_posenum>  (119) 
40

>  <r_i_glide_eff_state_penalty>  (119) 
0

>  <ligand_id>  (119) 
44

>  <original_smiles>  (119) 
CCC12CCC(=O)CC3(C)C4CC1C4(C)CCC32

>  <smiles>  (119) 
[H]C([H])([H])C([H])([H])C12C([H])([H])C([H])([H])C(=O)C([H])([H])C3(C([H])([H])[H])C4([H])C([H])([H])C1([H])C4(C([H])([H])[H])C([H])([H])C([H])([H])C32[H]

$$$$
44:0:1
     RDKit          3D

 44 47  0  0  1  0  0  0  0  0999 V2000
    8.5570   -2.4577    0.1610 C   0  0  0  0  0  0  0  0  0  0  0  0
    7.5386   -2.7762   -0.9507 C   0  0  0  0  0  0  0  0  0  0  0  0
    6.1094   -3.1745   -0.4622 C   0  0  2  0  0  0  0  0  0  0  0  0
    6.2633   -4.5918    0.1732 C   0  0  0  0  0  0  0  0  0  0  0  0
    5.6294   -4.8137    1.5545 C   0  0  0  0  0  0  0  0  0  0  0  0
    4.1134   -4.7761    1.5339 C   0  0  0  0  0  0  0  0  0  0  0  0
    3.4466   -5.8107    1.5405 O   0  0  0  0  0  0  0  0  0  0  0  0
    3.4195   -3.4175    1.5624 C   0  0  0  0  0  0  0  0  0  0  0  0
    3.8729   -2.3292    0.5481 C   0  0  2  0  0  0  0  0  0  0  0  0
    3.1151   -1.0834    1.0730 C   0  0  0  0  0  0  0  0  0  0  0  0
    3.4426   -2.5924   -0.8958 C   0  0  2  0  0  0  0  0  0  0  0  0
    3.8308   -3.8799   -1.5838 C   0  0  0  0  0  0  0  0  0  0  0  0
    5.2038   -3.2355   -1.7118 C   0  0  1  0  0  0  0  0  0  0  0  0
    4.3421   -1.9706   -2.0160 C   0  0  1  0  0  0  0  0  0  0  0  0
    3.7594   -1.7132   -3.4258 C   0  0  0  0  0  0  0  0  0  0  0  0
    5.0129   -0.6623   -1.6195 C   0  0  0  0  0  0  0  0  0  0  0  0
    5.6217   -0.7074   -0.1983 C   0  0  0  0  0  0  0  0  0  0  0  0
    5.4251   -2.0952    0.4683 C   0  0  2  0  0  0  0  0  0  0  0  0
    9.4964   -2.1671   -0.2830 H   0  0  0  0  0  0  0  0  0  0  0  0
    8.7685   -3.3083    0.7997 H   0  0  0  0  0  0  0  0  0  0  0  0
    8.2367   -1.6445    0.8089 H   0  0  0  0  0  0  0  0  0  0  0  0
    7.5042   -1.9430   -1.6531 H   0  0  0  0  0  0  0  0  0  0  0  0
    7.9391   -3.5612   -1.5969 H   0  0  0  0  0  0  0  0  0  0  0  0
    5.8845   -5.3551   -0.5036 H   0  0  0  0  0  0  0  0  0  0  0  0
    7.3115   -4.8597    0.2688 H   0  0  0  0  0  0  0  0  0  0  0  0
    5.9222   -5.7980    1.9186 H   0  0  0  0  0  0  0  0  0  0  0  0
    6.0023   -4.0943    2.2810 H   0  0  0  0  0  0  0  0  0  0  0  0
    2.3501   -3.5951    1.4226 H   0  0  0  0  0  0  0  0  0  0  0  0
    3.5340   -3.0335    2.5752 H   0  0  0  0  0  0  0  0  0  0  0  0
    3.0830   -0.2672    0.3543 H   0  0  0  0  0  0  0  0  0  0  0  0
    3.5713   -0.7028    1.9816 H   0  0  0  0  0  0  0  0  0  0  0  0
    2.0695   -1.2982    1.2925 H   0  0  0  0  0  0  0  0  0  0  0  0
    2.3859   -2.4194   -1.1106 H   0  0  0  0  0  0  0  0  0  0  0  0
    3.8021   -4.7695   -0.9774 H   0  0  0  0  0  0  0  0  0  0  0  0
    3.3093   -4.0530   -2.5161 H   0  0  0  0  0  0  0  0  0  0  0  0
    5.6821   -3.6121   -2.6288 H   0  0  0  0  0  0  0  0  0  0  0  0
    4.5362   -1.4784   -4.1525 H   0  0  0  0  0  0  0  0  0  0  0  0
    3.0411   -0.8887   -3.4183 H   0  0  0  0  0  0  0  0  0  0  0  0
    3.2069   -2.5531   -3.8497 H   0  0  0  0  0  0  0  0  0  0  0  0
    5.7937   -0.3918   -2.3218 H   0  0  0  0  0  0  0  0  0  0  0  0
    4.2663    0.1141   -1.6725 H   0  0  0  0  0  0  0  0  0  0  0  0
    6.6704   -0.4505   -0.2152 H   0  0  0  0  0  0  0  0  0  0  0  0
    5.2304    0.0905    0.4331 H   0  0  0  0  0  0  0  0  0  0  0  0
    5.8708   -2.0878    1.4540 H   0  0  0  0  0  0  0  0  0  0  0  0
  1  2  1  0
  1 19  1  0
  1 20  1  0
  1 21  1  0
  3  2  1  6
  2 22  1  0
  2 23  1  0
  3 13  1  0
  3 18  1  0
  3  4  1  0
  4  5  1  0
  4 24  1  0
  4 25  1  0
  5  6  1  0
  5 26  1  0
  5 27  1  0
  6  7  2  0
  6  8  1  0
  8  9  1  0
  8 28  1  0
  8 29  1  0
  9 18  1  0
  9 10  1  1
  9 11  1  0
 10 30  1  0
 10 31  1  0
 10 32  1  0
 11 14  1  0
 11 12  1  0
 11 33  1  1
 12 13  1  0
 12 34  1  0
 12 35  1  0
 13 14  1  0
 13 36  1  6
 14 15  1  6
 14 16  1  0
 15 37  1  0
 15 38  1  0
 15 39  1  0
 16 17  1  0
 16 40  1  0
 16 41  1  0
 17 18  1  0
 17 42  1  0
 17 43  1  0
 18 44  1  1
M  END
>  <i_m_ct_stereo_status>  (120) 
1

>  <s_m_source_file>  (120) 
/var/tmp/pbs.5076255.sched01/tmpmalnbme9/37wob9dpop.sdf

>  <i_m_source_file_index>  (120) 
20

>  <i_lp_mmshare_version>  (120) 
48012

>  <i_f3d_flags>  (120) 
0

>  <s_epik_input>  (120) 
W0NIM11bQ0gyXVtDQEBdMTJbQ0BASF0zW0NAQF00KFtDSDNdKVtDQEBIXShbQ0gyXTMpW0NAXShbQ0gzXSkoW0NAQEhdMltDSDJdW0NIMl00KVtDSDJdQyg9TylbQ0gyXVtDSDJdMQ==

>  <s_epik_cmdline>  (120) 
J2VwaWtfcHl0aG9uJywgJy1waHQnLCAnMi4wJywgJy1waCcsICc3LjAnLCAnLXRuJywgJzgnLCAnLW1hJywgJzIwMCcsICctaW1hZScsICc8aW5maWxlLm1hZT4nLCAnLW9tYWUnLCAnPG91dGZpbGUubWFlPic=

>  <r_lp_tautomer_probability>  (120) 
1

>  <r_epik_Ionization_Penalty>  (120) 
9.32748e-14

>  <r_epik_Ionization_Penalty_Charging>  (120) 
0

>  <r_epik_Ionization_Penalty_Neutral>  (120) 
9.32748e-14

>  <r_epik_State_Penalty>  (120) 
-0

>  <r_epik_Charging_Adjusted_Penalty>  (120) 
0

>  <i_epik_Tot_Q>  (120) 
0

>  <i_epik_Tot_abs_Q>  (120) 
0

>  <s_lp_Force_Field>  (120) 
OPLS3e

>  <r_lp_Energy>  (120) 
72.8628

>  <b_lp_Chiralities_Consistent>  (120) 
1

>  <s_lp_Variant>  (120) 
44:0-1

>  <s_i_glide_gridfile>  (120) 
pfpi4k_grid

>  <i_i_glide_lignum>  (120) 
20

>  <i_i_glide_rotatable_bonds>  (120) 
1

>  <r_i_docking_score>  (120) 
-3.02373

>  <r_i_glide_ligand_efficiency>  (120) 
-0.167985

>  <r_i_glide_ligand_efficiency_sa>  (120) 
-0.440245

>  <r_i_glide_ligand_efficiency_ln>  (120) 
-0.777235

>  <r_i_glide_gscore>  (120) 
-3.02373

>  <r_i_glide_lipo>  (120) 
-0.518386

>  <r_i_glide_hbond>  (120) 
0

>  <r_i_glide_metal>  (120) 
-0

>  <r_i_glide_rewards>  (120) 
-1.75271

>  <r_i_glide_evdw>  (120) 
-15.3216

>  <r_i_glide_ecoul>  (120) 
0.0896442

>  <r_i_glide_erotb>  (120) 
0

>  <r_i_glide_esite>  (120) 
0

>  <r_i_glide_emodel>  (120) 
-18.2615

>  <r_i_glide_energy>  (120) 
-15.232

>  <r_i_glide_einternal>  (120) 
0.0138707

>  <r_i_glide_intrahb_reward>  (120) 
-0

>  <i_i_glide_confnum>  (120) 
2

>  <i_i_glide_posenum>  (120) 
24

>  <r_i_glide_eff_state_penalty>  (120) 
0

>  <ligand_id>  (120) 
44

>  <original_smiles>  (120) 
CCC12CCC(=O)CC3(C)C4CC1C4(C)CCC32

>  <smiles>  (120) 
[H]C([H])([H])C([H])([H])C12C([H])([H])C([H])([H])C(=O)C([H])([H])C3(C([H])([H])[H])C4([H])C([H])([H])C1([H])C4(C([H])([H])[H])C([H])([H])C([H])([H])C32[H]

$$$$
44:0:2
     RDKit          3D

 44 47  0  0  1  0  0  0  0  0999 V2000
    8.1594   -3.4347   -0.1777 C   0  0  0  0  0  0  0  0  0  0  0  0
    7.2072   -3.1892   -1.3690 C   0  0  0  0  0  0  0  0  0  0  0  0
    5.6700   -3.3283   -1.0909 C   0  0  2  0  0  0  0  0  0  0  0  0
    5.3934   -4.8230   -0.6970 C   0  0  0  0  0  0  0  0  0  0  0  0
    4.5760   -5.1324    0.5662 C   0  0  0  0  0  0  0  0  0  0  0  0
    3.1264   -4.7154    0.4751 C   0  0  0  0  0  0  0  0  0  0  0  0
    2.2286   -5.5361    0.2674 O   0  0  0  0  0  0  0  0  0  0  0  0
    2.7910   -3.2537    0.6945 C   0  0  0  0  0  0  0  0  0  0  0  0
    3.5601   -2.1433   -0.0756 C   0  0  2  0  0  0  0  0  0  0  0  0
    3.0862   -0.8758    0.7005 C   0  0  0  0  0  0  0  0  0  0  0  0
    3.2251   -2.0745   -1.6261 C   0  0  2  0  0  0  0  0  0  0  0  0
    3.4158   -3.3350   -2.4643 C   0  0  0  0  0  0  0  0  0  0  0  0
    4.9057   -2.9783   -2.4097 C   0  0  1  0  0  0  0  0  0  0  0  0
    4.3777   -1.5172   -2.4927 C   0  0  1  0  0  0  0  0  0  0  0  0
    4.0205   -0.8866   -3.8573 C   0  0  0  0  0  0  0  0  0  0  0  0
    5.1951   -0.4904   -1.7638 C   0  0  0  0  0  0  0  0  0  0  0  0
    5.6976   -0.9086   -0.3538 C   0  0  0  0  0  0  0  0  0  0  0  0
    5.1338   -2.2987    0.0021 C   0  0  2  0  0  0  0  0  0  0  0  0
    9.1920   -3.2538   -0.4791 H   0  0  0  0  0  0  0  0  0  0  0  0
    8.1227   -4.4560    0.1997 H   0  0  0  0  0  0  0  0  0  0  0  0
    7.9467   -2.7704    0.6603 H   0  0  0  0  0  0  0  0  0  0  0  0
    7.4488   -2.2293   -1.8080 H   0  0  0  0  0  0  0  0  0  0  0  0
    7.4786   -3.8621   -2.1850 H   0  0  0  0  0  0  0  0  0  0  0  0
    5.0160   -5.3697   -1.5592 H   0  0  0  0  0  0  0  0  0  0  0  0
    6.3160   -5.3218   -0.4414 H   0  0  0  0  0  0  0  0  0  0  0  0
    4.6176   -6.2049    0.7387 H   0  0  0  0  0  0  0  0  0  0  0  0
    5.0337   -4.6562    1.4339 H   0  0  0  0  0  0  0  0  0  0  0  0
    1.7564   -3.1209    0.4184 H   0  0  0  0  0  0  0  0  0  0  0  0
    2.8678   -3.0856    1.7708 H   0  0  0  0  0  0  0  0  0  0  0  0
    3.3047    0.0373    0.1643 H   0  0  0  0  0  0  0  0  0  0  0  0
    3.5861   -0.7954    1.6737 H   0  0  0  0  0  0  0  0  0  0  0  0
    2.0099   -0.8629    0.8843 H   0  0  0  0  0  0  0  0  0  0  0  0
    2.2878   -1.5804   -1.9272 H   0  0  0  0  0  0  0  0  0  0  0  0
    3.0937   -4.2300   -2.0043 H   0  0  0  0  0  0  0  0  0  0  0  0
    2.9473   -3.2504   -3.4413 H   0  0  0  0  0  0  0  0  0  0  0  0
    5.4330   -3.2921   -3.3298 H   0  0  0  0  0  0  0  0  0  0  0  0
    4.9022   -0.6996   -4.4664 H   0  0  0  0  0  0  0  0  0  0  0  0
    3.5327    0.0789   -3.7099 H   0  0  0  0  0  0  0  0  0  0  0  0
    3.3315   -1.4727   -4.4594 H   0  0  0  0  0  0  0  0  0  0  0  0
    6.0197   -0.2490   -2.3846 H   0  0  0  0  0  0  0  0  0  0  0  0
    4.5976    0.3949   -1.7015 H   0  0  0  0  0  0  0  0  0  0  0  0
    6.7790   -0.9072   -0.2755 H   0  0  0  0  0  0  0  0  0  0  0  0
    5.4477   -0.1450    0.3804 H   0  0  0  0  0  0  0  0  0  0  0  0
    5.4691   -2.5626    1.0162 H   0  0  0  0  0  0  0  0  0  0  0  0
  1  2  1  0
  1 19  1  0
  1 20  1  0
  1 21  1  0
  3  2  1  6
  2 22  1  0
  2 23  1  0
  3 13  1  0
  3 18  1  0
  3  4  1  0
  4  5  1  0
  4 24  1  0
  4 25  1  0
  5  6  1  0
  5 26  1  0
  5 27  1  0
  6  7  2  0
  6  8  1  0
  8  9  1  0
  8 28  1  0
  8 29  1  0
  9 18  1  0
  9 10  1  1
  9 11  1  0
 10 30  1  0
 10 31  1  0
 10 32  1  0
 11 14  1  0
 11 12  1  0
 11 33  1  1
 12 13  1  0
 12 34  1  0
 12 35  1  0
 13 14  1  0
 13 36  1  6
 14 15  1  6
 14 16  1  0
 15 37  1  0
 15 38  1  0
 15 39  1  0
 16 17  1  0
 16 40  1  0
 16 41  1  0
 17 18  1  0
 17 42  1  0
 17 43  1  0
 18 44  1  1
M  END
>  <i_m_ct_stereo_status>  (121) 
1

>  <s_m_source_file>  (121) 
/var/tmp/pbs.5076255.sched01/tmpmalnbme9/37wob9dpop.sdf

>  <i_m_source_file_index>  (121) 
20

>  <i_lp_mmshare_version>  (121) 
48012

>  <i_f3d_flags>  (121) 
0

>  <s_epik_input>  (121) 
W0NIM11bQ0gyXVtDQEBdMTJbQ0BASF0zW0NAQF00KFtDSDNdKVtDQEBIXShbQ0gyXTMpW0NAXShbQ0gzXSkoW0NAQEhdMltDSDJdW0NIMl00KVtDSDJdQyg9TylbQ0gyXVtDSDJdMQ==

>  <s_epik_cmdline>  (121) 
J2VwaWtfcHl0aG9uJywgJy1waHQnLCAnMi4wJywgJy1waCcsICc3LjAnLCAnLXRuJywgJzgnLCAnLW1hJywgJzIwMCcsICctaW1hZScsICc8aW5maWxlLm1hZT4nLCAnLW9tYWUnLCAnPG91dGZpbGUubWFlPic=

>  <r_lp_tautomer_probability>  (121) 
1

>  <r_epik_Ionization_Penalty>  (121) 
9.32748e-14

>  <r_epik_Ionization_Penalty_Charging>  (121) 
0

>  <r_epik_Ionization_Penalty_Neutral>  (121) 
9.32748e-14

>  <r_epik_State_Penalty>  (121) 
-0

>  <r_epik_Charging_Adjusted_Penalty>  (121) 
0

>  <i_epik_Tot_Q>  (121) 
0

>  <i_epik_Tot_abs_Q>  (121) 
0

>  <s_lp_Force_Field>  (121) 
OPLS3e

>  <r_lp_Energy>  (121) 
72.8628

>  <b_lp_Chiralities_Consistent>  (121) 
1

>  <s_lp_Variant>  (121) 
44:0-1

>  <s_i_glide_gridfile>  (121) 
pfpi4k_grid

>  <i_i_glide_lignum>  (121) 
20

>  <i_i_glide_rotatable_bonds>  (121) 
1

>  <r_i_docking_score>  (121) 
-2.88906

>  <r_i_glide_ligand_efficiency>  (121) 
-0.160503

>  <r_i_glide_ligand_efficiency_sa>  (121) 
-0.420638

>  <r_i_glide_ligand_efficiency_ln>  (121) 
-0.742618

>  <r_i_glide_gscore>  (121) 
-2.88906

>  <r_i_glide_lipo>  (121) 
-0.742989

>  <r_i_glide_hbond>  (121) 
0

>  <r_i_glide_metal>  (121) 
-0

>  <r_i_glide_rewards>  (121) 
-1.72917

>  <r_i_glide_evdw>  (121) 
-5.30889

>  <r_i_glide_ecoul>  (121) 
-0.901407

>  <r_i_glide_erotb>  (121) 
0

>  <r_i_glide_esite>  (121) 
-0.0162427

>  <r_i_glide_emodel>  (121) 
-8.17774

>  <r_i_glide_energy>  (121) 
-6.2103

>  <r_i_glide_einternal>  (121) 
0.440434

>  <r_i_glide_intrahb_reward>  (121) 
-0

>  <i_i_glide_confnum>  (121) 
1

>  <i_i_glide_posenum>  (121) 
11

>  <r_i_glide_eff_state_penalty>  (121) 
0

>  <ligand_id>  (121) 
44

>  <original_smiles>  (121) 
CCC12CCC(=O)CC3(C)C4CC1C4(C)CCC32

>  <smiles>  (121) 
[H]C([H])([H])C([H])([H])C12C([H])([H])C([H])([H])C(=O)C([H])([H])C3(C([H])([H])[H])C4([H])C([H])([H])C1([H])C4(C([H])([H])[H])C([H])([H])C([H])([H])C32[H]

$$$$
45:0:0
     RDKit          3D

 73 80  0  0  1  0  0  0  0  0999 V2000
    1.8172   -4.0933    5.4792 C   0  0  0  0  0  0  0  0  0  0  0  0
    2.3162   -5.0863    4.3902 C   0  0  2  0  0  0  0  0  0  0  0  0
    2.0182   -6.6554    4.7702 C   0  0  1  0  0  0  0  0  0  0  0  0
    0.6518   -6.5570    5.2301 O   0  0  0  0  0  0  0  0  0  0  0  0
   -0.4167   -7.0501    4.5473 C   0  0  0  0  0  0  0  0  0  0  0  0
   -1.5614   -6.6443    4.7453 O   0  0  0  0  0  0  0  0  0  0  0  0
   -0.1122   -8.2224    3.6037 C   0  0  2  0  0  0  0  0  0  0  0  0
   -1.2189   -8.4322    2.5501 C   0  0  0  0  0  0  0  0  0  0  0  0
    0.2292   -9.4738    4.3969 C   0  0  0  0  0  0  0  0  0  0  0  0
    1.6216   -9.1632    4.9131 C   0  0  0  0  0  0  0  0  0  0  0  0
    2.1913   -8.0848    3.9122 C   0  0  1  0  0  0  0  0  0  0  0  0
    1.1236   -8.0071    2.9609 O   0  0  0  0  0  0  0  0  0  0  0  0
    3.5102   -8.6839    3.0521 C   0  0  1  0  0  0  0  0  0  0  0  0
    3.7052  -10.2171    3.2795 C   0  0  0  0  0  0  0  0  0  0  0  0
    3.4388   -8.6262    1.4197 C   0  0  0  0  0  0  0  0  0  0  0  0
    4.6099   -7.8646    0.5931 C   0  0  0  0  0  0  0  0  0  0  0  0
    5.4176   -6.6539    1.2901 C   0  0  2  0  0  0  0  0  0  0  0  0
    4.7747   -6.7083    2.5689 C   0  0  1  0  0  0  0  0  0  0  0  0
    3.4118   -5.9724    2.0596 C   0  0  0  0  0  0  0  0  0  0  0  0
    3.9420   -4.6684    2.3233 C   0  0  2  0  0  0  0  0  0  0  0  0
    3.6506   -3.2594    1.7998 C   0  0  1  0  0  0  0  0  0  0  0  0
    2.8415   -2.4500    2.6202 O   0  0  0  0  0  0  0  0  0  0  0  0
    5.1140   -2.7149    1.7132 C   0  0  0  0  0  0  0  0  0  0  0  0
    6.0691   -3.9455    1.5547 C   0  0  0  0  0  0  0  0  0  0  0  0
    5.0861   -5.0652    1.2118 C   0  0  1  0  0  0  0  0  0  0  0  0
    4.8045   -4.8322   -0.3197 C   0  0  0  0  0  0  0  0  0  0  0  0
    3.7913   -4.7416    3.9537 C   0  0  1  0  0  0  0  0  0  0  0  0
    4.7535   -3.9067    4.6611 O   0  0  0  0  0  0  0  0  0  0  0  0
    4.5951   -5.1882    5.2067 C   0  0  2  0  0  0  0  0  0  0  0  0
    5.6715   -6.2533    5.3146 C   0  0  0  0  0  0  0  0  0  0  0  0
    5.0678   -7.6504    4.9694 C   0  0  0  0  0  0  0  0  0  0  0  0
    4.8474   -7.9755    3.4400 C   0  0  1  0  0  0  0  0  0  0  0  0
    6.1490   -8.7940    3.1129 C   0  0  0  0  0  0  0  0  0  0  0  0
    2.1226   -4.3755    6.4897 H   0  0  0  0  0  0  0  0  0  0  0  0
    0.7246   -4.0300    5.4981 H   0  0  0  0  0  0  0  0  0  0  0  0
    2.1808   -3.0789    5.2970 H   0  0  0  0  0  0  0  0  0  0  0  0
    1.6613   -4.8003    3.5673 H   0  0  0  0  0  0  0  0  0  0  0  0
    2.5413   -6.7941    5.7139 H   0  0  0  0  0  0  0  0  0  0  0  0
   -2.1793   -8.6933    3.0052 H   0  0  0  0  0  0  0  0  0  0  0  0
   -0.9544   -9.2317    1.8572 H   0  0  0  0  0  0  0  0  0  0  0  0
   -1.3600   -7.5242    1.9635 H   0  0  0  0  0  0  0  0  0  0  0  0
   -0.4702   -9.6835    5.2084 H   0  0  0  0  0  0  0  0  0  0  0  0
    0.2535  -10.3485    3.7448 H   0  0  0  0  0  0  0  0  0  0  0  0
    1.5467   -8.7663    5.9250 H   0  0  0  0  0  0  0  0  0  0  0  0
    2.1589  -10.0856    5.0880 H   0  0  0  0  0  0  0  0  0  0  0  0
    4.4345  -10.6546    2.5974 H   0  0  0  0  0  0  0  0  0  0  0  0
    2.7891  -10.7809    3.0921 H   0  0  0  0  0  0  0  0  0  0  0  0
    4.0710  -10.4484    4.2815 H   0  0  0  0  0  0  0  0  0  0  0  0
    3.3385   -9.6214    0.9898 H   0  0  0  0  0  0  0  0  0  0  0  0
    2.4902   -8.1883    1.1119 H   0  0  0  0  0  0  0  0  0  0  0  0
    5.3396   -8.6273    0.3217 H   0  0  0  0  0  0  0  0  0  0  0  0
    4.2273   -7.5516   -0.3749 H   0  0  0  0  0  0  0  0  0  0  0  0
    6.4923   -6.8367    1.2941 H   0  0  0  0  0  0  0  0  0  0  0  0
    5.5421   -6.1187    3.0449 H   0  0  0  0  0  0  0  0  0  0  0  0
    3.0816   -6.0648    1.0249 H   0  0  0  0  0  0  0  0  0  0  0  0
    2.4600   -6.2515    2.4207 H   0  0  0  0  0  0  0  0  0  0  0  0
    3.1701   -3.2871    0.8183 H   0  0  0  0  0  0  0  0  0  0  0  0
    1.9422   -2.7241    2.5099 H   0  0  0  0  0  0  0  0  0  0  0  0
    5.2113   -2.0208    0.8792 H   0  0  0  0  0  0  0  0  0  0  0  0
    5.3892   -2.1600    2.6129 H   0  0  0  0  0  0  0  0  0  0  0  0
    6.8319   -3.7842    0.7910 H   0  0  0  0  0  0  0  0  0  0  0  0
    6.5870   -4.1626    2.4865 H   0  0  0  0  0  0  0  0  0  0  0  0
    4.7292   -3.7856   -0.6160 H   0  0  0  0  0  0  0  0  0  0  0  0
    3.9066   -5.3180   -0.6964 H   0  0  0  0  0  0  0  0  0  0  0  0
    5.6326   -5.2349   -0.8983 H   0  0  0  0  0  0  0  0  0  0  0  0
    4.0960   -5.1360    6.1698 H   0  0  0  0  0  0  0  0  0  0  0  0
    6.5732   -5.9920    4.7636 H   0  0  0  0  0  0  0  0  0  0  0  0
    5.9917   -6.2701    6.3558 H   0  0  0  0  0  0  0  0  0  0  0  0
    5.7332   -8.3854    5.4203 H   0  0  0  0  0  0  0  0  0  0  0  0
    4.1818   -7.8323    5.5577 H   0  0  0  0  0  0  0  0  0  0  0  0
    7.0370   -8.1693    3.2184 H   0  0  0  0  0  0  0  0  0  0  0  0
    6.1872   -9.2342    2.1239 H   0  0  0  0  0  0  0  0  0  0  0  0
    6.2920   -9.6378    3.7887 H   0  0  0  0  0  0  0  0  0  0  0  0
  1  2  1  0
  1 34  1  0
  1 35  1  0
  1 36  1  0
  2 27  1  0
  2  3  1  0
  2 37  1  6
  3 11  1  0
  3  4  1  0
  3 38  1  1
  4  5  1  0
  5  6  2  0
  5  7  1  0
  7 12  1  0
  7  8  1  6
  7  9  1  0
  8 39  1  0
  8 40  1  0
  8 41  1  0
  9 10  1  0
  9 42  1  0
  9 43  1  0
 11 10  1  1
 10 44  1  0
 10 45  1  0
 11 12  1  0
 11 13  1  0
 13 32  1  0
 13 14  1  6
 13 15  1  0
 14 46  1  0
 14 47  1  0
 14 48  1  0
 15 16  1  0
 15 49  1  0
 15 50  1  0
 16 17  1  0
 16 51  1  0
 16 52  1  0
 17 25  1  0
 17 18  1  0
 17 53  1  1
 18 32  1  0
 18 19  1  0
 18 54  1  1
 20 19  1  6
 19 55  1  0
 19 56  1  0
 20 25  1  0
 20 21  1  0
 20 27  1  0
 21 22  1  0
 21 23  1  0
 21 57  1  6
 22 58  1  0
 23 24  1  0
 23 59  1  0
 23 60  1  0
 24 25  1  0
 24 61  1  0
 24 62  1  0
 25 26  1  6
 26 63  1  0
 26 64  1  0
 26 65  1  0
 27 29  1  0
 27 28  1  1
 28 29  1  0
 29 30  1  0
 29 66  1  1
 30 31  1  0
 30 67  1  0
 30 68  1  0
 31 32  1  0
 31 69  1  0
 31 70  1  0
 32 33  1  6
 33 71  1  0
 33 72  1  0
 33 73  1  0
M  END
>  <i_m_ct_stereo_status>  (122) 
1

>  <s_m_source_file>  (122) 
/var/tmp/pbs.5076255.sched01/tmpmalnbme9/37wob9dpop.sdf

>  <i_m_source_file_index>  (122) 
21

>  <i_lp_mmshare_version>  (122) 
48012

>  <i_f3d_flags>  (122) 
0

>  <s_epik_input>  (122) 
W0NIMl0xW0NIMl1bQ0BAXShPMikoW0NIM10pQyg9TylPW0NAQEhdKFtDQEBdMTIzKVtDQEBIXShbQ0gzXSlbQ0BAXTQ1W0NAQF02N1tDQEBdKFtDSDNdKShbQ0gyXVtDSDJdW0NAQEhdN1tPSF0pW0NASF04W0NAQEhdKFtDSDJdNilbQ0BdKFtDSDNdKShbQ0BdMyhbQ0gzXSlbQ0gyXVtDSDJdOClbQ0gyXVtDSDJdW0NASF01TzQ=

>  <s_epik_cmdline>  (122) 
J2VwaWtfcHl0aG9uJywgJy1waHQnLCAnMi4wJywgJy1waCcsICc3LjAnLCAnLXRuJywgJzgnLCAnLW1hJywgJzIwMCcsICctaW1hZScsICc8aW5maWxlLm1hZT4nLCAnLW9tYWUnLCAnPG91dGZpbGUubWFlPic=

>  <r_lp_tautomer_probability>  (122) 
1

>  <r_epik_Ionization_Penalty>  (122) 
8.34324e-07

>  <r_epik_Ionization_Penalty_Charging>  (122) 
0

>  <r_epik_Ionization_Penalty_Neutral>  (122) 
8.34324e-07

>  <r_epik_State_Penalty>  (122) 
-0

>  <r_epik_Charging_Adjusted_Penalty>  (122) 
0

>  <i_epik_Tot_Q>  (122) 
0

>  <i_epik_Tot_abs_Q>  (122) 
0

>  <s_epik_Chemistry_Notes>  (122) 
This compound has an ester and may undergo hydrolysis at high or low pH.

>  <s_lp_Force_Field>  (122) 
OPLS3e

>  <r_lp_Energy>  (122) 
338.57

>  <b_lp_Chiralities_Consistent>  (122) 
1

>  <s_lp_Variant>  (122) 
45:0-1

>  <s_i_glide_gridfile>  (122) 
pfpi4k_grid

>  <i_i_glide_lignum>  (122) 
21

>  <i_i_glide_rotatable_bonds>  (122) 
1

>  <r_i_docking_score>  (122) 
-2.34469

>  <r_i_glide_ligand_efficiency>  (122) 
-0.0710513

>  <r_i_glide_ligand_efficiency_sa>  (122) 
-0.2279

>  <r_i_glide_ligand_efficiency_ln>  (122) 
-0.521448

>  <r_i_glide_gscore>  (122) 
-2.34469

>  <r_i_glide_lipo>  (122) 
-0.304906

>  <r_i_glide_hbond>  (122) 
0

>  <r_i_glide_metal>  (122) 
-0

>  <r_i_glide_rewards>  (122) 
-0.295812

>  <r_i_glide_evdw>  (122) 
-26.6864

>  <r_i_glide_ecoul>  (122) 
-2.49702

>  <r_i_glide_erotb>  (122) 
0

>  <r_i_glide_esite>  (122) 
-0.0351021

>  <r_i_glide_emodel>  (122) 
-33.6896

>  <r_i_glide_energy>  (122) 
-29.1834

>  <r_i_glide_einternal>  (122) 
0.382616

>  <r_i_glide_intrahb_reward>  (122) 
-0

>  <i_i_glide_confnum>  (122) 
2

>  <i_i_glide_posenum>  (122) 
37

>  <r_i_glide_eff_state_penalty>  (122) 
0

>  <ligand_id>  (122) 
45

>  <original_smiles>  (122) 
CC1C2OC(=O)C3(C)CCC2(O3)C2(C)CCC3C4CC5(C(O)CCC35C)C13OC3CCC42C

>  <smiles>  (122) 
[H]OC1([H])C([H])([H])C([H])([H])C2(C([H])([H])[H])C3([H])C([H])([H])C([H])([H])C4(C([H])([H])[H])C56OC(C([H])([H])[H])(C(=O)OC5([H])C([H])(C([H])([H])[H])C57OC5([H])C([H])([H])C([H])([H])C4(C([H])([H])[H])C3([H])C([H])([H])C172)C([H])([H])C6([H])[H]

$$$$
45:0:1
     RDKit          3D

 73 80  0  0  1  0  0  0  0  0999 V2000
    1.1490   -3.5093    5.7363 C   0  0  0  0  0  0  0  0  0  0  0  0
    1.8619   -3.8882    4.4043 C   0  0  2  0  0  0  0  0  0  0  0  0
    2.1105   -5.5060    4.2586 C   0  0  1  0  0  0  0  0  0  0  0  0
    0.8285   -6.0211    4.6834 O   0  0  0  0  0  0  0  0  0  0  0  0
   -0.0636   -6.6306    3.8623 C   0  0  0  0  0  0  0  0  0  0  0  0
   -1.2591   -6.7505    4.1290 O   0  0  0  0  0  0  0  0  0  0  0  0
    0.5389   -7.2594    2.5912 C   0  0  2  0  0  0  0  0  0  0  0  0
   -0.5067   -7.4523    1.4902 C   0  0  0  0  0  0  0  0  0  0  0  0
    1.3218   -8.5116    2.9371 C   0  0  0  0  0  0  0  0  0  0  0  0
    2.5680   -7.9206    3.5805 C   0  0  0  0  0  0  0  0  0  0  0  0
    2.6811   -6.4561    2.9988 C   0  0  1  0  0  0  0  0  0  0  0  0
    1.5769   -6.4422    2.0919 O   0  0  0  0  0  0  0  0  0  0  0  0
    4.0586   -6.2804    2.0365 C   0  0  1  0  0  0  0  0  0  0  0  0
    4.7544   -7.6557    1.7725 C   0  0  0  0  0  0  0  0  0  0  0  0
    3.8617   -5.7398    0.5043 C   0  0  0  0  0  0  0  0  0  0  0  0
    4.6669   -4.4149    0.0067 C   0  0  0  0  0  0  0  0  0  0  0  0
    5.0837   -3.2966    1.0905 C   0  0  2  0  0  0  0  0  0  0  0  0
    4.5841   -3.9566    2.2606 C   0  0  1  0  0  0  0  0  0  0  0  0
    3.0229   -3.5885    1.9573 C   0  0  0  0  0  0  0  0  0  0  0  0
    3.1173   -2.3344    2.6447 C   0  0  2  0  0  0  0  0  0  0  0  0
    2.3512   -1.0115    2.5778 C   0  0  1  0  0  0  0  0  0  0  0  0
    1.3777   -0.8018    3.5802 O   0  0  0  0  0  0  0  0  0  0  0  0
    3.5501   -0.0165    2.7282 C   0  0  0  0  0  0  0  0  0  0  0  0
    4.8423   -0.7549    2.2393 C   0  0  0  0  0  0  0  0  0  0  0  0
    4.2557   -1.9667    1.5102 C   0  0  1  0  0  0  0  0  0  0  0  0
    3.8153   -1.3745    0.1144 C   0  0  0  0  0  0  0  0  0  0  0  0
    3.1096   -2.9595    4.1580 C   0  0  1  0  0  0  0  0  0  0  0  0
    3.8008   -2.1208    5.1345 O   0  0  0  0  0  0  0  0  0  0  0  0
    4.0988   -3.4915    5.2370 C   0  0  2  0  0  0  0  0  0  0  0  0
    5.4594   -4.1206    5.0463 C   0  0  0  0  0  0  0  0  0  0  0  0
    5.3291   -5.4519    4.2441 C   0  0  0  0  0  0  0  0  0  0  0  0
    5.1177   -5.3380    2.6807 C   0  0  1  0  0  0  0  0  0  0  0  0
    6.5869   -5.5387    2.1564 C   0  0  0  0  0  0  0  0  0  0  0  0
    1.6028   -3.9765    6.6144 H   0  0  0  0  0  0  0  0  0  0  0  0
    0.1008   -3.8185    5.7326 H   0  0  0  0  0  0  0  0  0  0  0  0
    1.1538   -2.4281    5.8980 H   0  0  0  0  0  0  0  0  0  0  0  0
    1.0924   -3.5888    3.6930 H   0  0  0  0  0  0  0  0  0  0  0  0
    2.7243   -5.7480    5.1240 H   0  0  0  0  0  0  0  0  0  0  0  0
   -1.3011   -8.1451    1.7866 H   0  0  0  0  0  0  0  0  0  0  0  0
   -0.0415   -7.8545    0.5915 H   0  0  0  0  0  0  0  0  0  0  0  0
   -0.9674   -6.5017    1.2266 H   0  0  0  0  0  0  0  0  0  0  0  0
    0.7840   -9.1950    3.6003 H   0  0  0  0  0  0  0  0  0  0  0  0
    1.5811   -9.0638    2.0324 H   0  0  0  0  0  0  0  0  0  0  0  0
    2.4400   -7.9042    4.6612 H   0  0  0  0  0  0  0  0  0  0  0  0
    3.3910   -8.6138    3.4744 H   0  0  0  0  0  0  0  0  0  0  0  0
    5.5378   -7.5942    1.0183 H   0  0  0  0  0  0  0  0  0  0  0  0
    4.0591   -8.4029    1.3839 H   0  0  0  0  0  0  0  0  0  0  0  0
    5.2452   -8.0526    2.6626 H   0  0  0  0  0  0  0  0  0  0  0  0
    4.0620   -6.5265   -0.2245 H   0  0  0  0  0  0  0  0  0  0  0  0
    2.8062   -5.5637    0.3100 H   0  0  0  0  0  0  0  0  0  0  0  0
    5.5821   -4.7552   -0.4753 H   0  0  0  0  0  0  0  0  0  0  0  0
    4.1283   -3.9682   -0.8277 H   0  0  0  0  0  0  0  0  0  0  0  0
    6.1595   -3.1051    1.0810 H   0  0  0  0  0  0  0  0  0  0  0  0
    5.1470   -3.3293    2.9290 H   0  0  0  0  0  0  0  0  0  0  0  0
    2.6686   -3.4534    0.9366 H   0  0  0  0  0  0  0  0  0  0  0  0
    2.2387   -4.2608    2.1765 H   0  0  0  0  0  0  0  0  0  0  0  0
    1.8353   -0.8958    1.6231 H   0  0  0  0  0  0  0  0  0  0  0  0
    0.9663    0.0287    3.4095 H   0  0  0  0  0  0  0  0  0  0  0  0
    3.3668    0.8959    2.1578 H   0  0  0  0  0  0  0  0  0  0  0  0
    3.6909    0.2879    3.7668 H   0  0  0  0  0  0  0  0  0  0  0  0
    5.4602   -0.1251    1.5959 H   0  0  0  0  0  0  0  0  0  0  0  0
    5.4530   -1.0593    3.0914 H   0  0  0  0  0  0  0  0  0  0  0  0
    3.3791   -0.3773    0.1658 H   0  0  0  0  0  0  0  0  0  0  0  0
    3.0918   -1.9792   -0.4275 H   0  0  0  0  0  0  0  0  0  0  0  0
    4.6852   -1.2770   -0.5392 H   0  0  0  0  0  0  0  0  0  0  0  0
    3.6779   -3.9027    6.1482 H   0  0  0  0  0  0  0  0  0  0  0  0
    6.1832   -3.4110    4.6538 H   0  0  0  0  0  0  0  0  0  0  0  0
    5.8437   -4.3562    6.0377 H   0  0  0  0  0  0  0  0  0  0  0  0
    6.2315   -6.0247    4.4618 H   0  0  0  0  0  0  0  0  0  0  0  0
    4.5981   -6.0955    4.7074 H   0  0  0  0  0  0  0  0  0  0  0  0
    7.2289   -4.7218    2.4770 H   0  0  0  0  0  0  0  0  0  0  0  0
    6.6925   -5.6110    1.0794 H   0  0  0  0  0  0  0  0  0  0  0  0
    7.0461   -6.4531    2.5378 H   0  0  0  0  0  0  0  0  0  0  0  0
  1  2  1  0
  1 34  1  0
  1 35  1  0
  1 36  1  0
  2 27  1  0
  2  3  1  0
  2 37  1  6
  3 11  1  0
  3  4  1  0
  3 38  1  1
  4  5  1  0
  5  6  2  0
  5  7  1  0
  7 12  1  0
  7  8  1  6
  7  9  1  0
  8 39  1  0
  8 40  1  0
  8 41  1  0
  9 10  1  0
  9 42  1  0
  9 43  1  0
 11 10  1  1
 10 44  1  0
 10 45  1  0
 11 12  1  0
 11 13  1  0
 13 32  1  0
 13 14  1  6
 13 15  1  0
 14 46  1  0
 14 47  1  0
 14 48  1  0
 15 16  1  0
 15 49  1  0
 15 50  1  0
 16 17  1  0
 16 51  1  0
 16 52  1  0
 17 25  1  0
 17 18  1  0
 17 53  1  1
 18 32  1  0
 18 19  1  0
 18 54  1  1
 20 19  1  6
 19 55  1  0
 19 56  1  0
 20 25  1  0
 20 21  1  0
 20 27  1  0
 21 22  1  0
 21 23  1  0
 21 57  1  6
 22 58  1  0
 23 24  1  0
 23 59  1  0
 23 60  1  0
 24 25  1  0
 24 61  1  0
 24 62  1  0
 25 26  1  6
 26 63  1  0
 26 64  1  0
 26 65  1  0
 27 29  1  0
 27 28  1  1
 28 29  1  0
 29 30  1  0
 29 66  1  1
 30 31  1  0
 30 67  1  0
 30 68  1  0
 31 32  1  0
 31 69  1  0
 31 70  1  0
 32 33  1  6
 33 71  1  0
 33 72  1  0
 33 73  1  0
M  END
>  <i_m_ct_stereo_status>  (123) 
1

>  <s_m_source_file>  (123) 
/var/tmp/pbs.5076255.sched01/tmpmalnbme9/37wob9dpop.sdf

>  <i_m_source_file_index>  (123) 
21

>  <i_lp_mmshare_version>  (123) 
48012

>  <i_f3d_flags>  (123) 
0

>  <s_epik_input>  (123) 
W0NIMl0xW0NIMl1bQ0BAXShPMikoW0NIM10pQyg9TylPW0NAQEhdKFtDQEBdMTIzKVtDQEBIXShbQ0gzXSlbQ0BAXTQ1W0NAQF02N1tDQEBdKFtDSDNdKShbQ0gyXVtDSDJdW0NAQEhdN1tPSF0pW0NASF04W0NAQEhdKFtDSDJdNilbQ0BdKFtDSDNdKShbQ0BdMyhbQ0gzXSlbQ0gyXVtDSDJdOClbQ0gyXVtDSDJdW0NASF01TzQ=

>  <s_epik_cmdline>  (123) 
J2VwaWtfcHl0aG9uJywgJy1waHQnLCAnMi4wJywgJy1waCcsICc3LjAnLCAnLXRuJywgJzgnLCAnLW1hJywgJzIwMCcsICctaW1hZScsICc8aW5maWxlLm1hZT4nLCAnLW9tYWUnLCAnPG91dGZpbGUubWFlPic=

>  <r_lp_tautomer_probability>  (123) 
1

>  <r_epik_Ionization_Penalty>  (123) 
8.34324e-07

>  <r_epik_Ionization_Penalty_Charging>  (123) 
0

>  <r_epik_Ionization_Penalty_Neutral>  (123) 
8.34324e-07

>  <r_epik_State_Penalty>  (123) 
-0

>  <r_epik_Charging_Adjusted_Penalty>  (123) 
0

>  <i_epik_Tot_Q>  (123) 
0

>  <i_epik_Tot_abs_Q>  (123) 
0

>  <s_epik_Chemistry_Notes>  (123) 
This compound has an ester and may undergo hydrolysis at high or low pH.

>  <s_lp_Force_Field>  (123) 
OPLS3e

>  <r_lp_Energy>  (123) 
338.57

>  <b_lp_Chiralities_Consistent>  (123) 
1

>  <s_lp_Variant>  (123) 
45:0-1

>  <s_i_glide_gridfile>  (123) 
pfpi4k_grid

>  <i_i_glide_lignum>  (123) 
21

>  <i_i_glide_rotatable_bonds>  (123) 
1

>  <r_i_docking_score>  (123) 
-2.34233

>  <r_i_glide_ligand_efficiency>  (123) 
-0.0709797

>  <r_i_glide_ligand_efficiency_sa>  (123) 
-0.22767

>  <r_i_glide_ligand_efficiency_ln>  (123) 
-0.520922

>  <r_i_glide_gscore>  (123) 
-2.34233

>  <r_i_glide_lipo>  (123) 
-0.357923

>  <r_i_glide_hbond>  (123) 
-0.0250111

>  <r_i_glide_metal>  (123) 
-0

>  <r_i_glide_rewards>  (123) 
-0.295812

>  <r_i_glide_evdw>  (123) 
-27.8996

>  <r_i_glide_ecoul>  (123) 
-1.4516

>  <r_i_glide_erotb>  (123) 
0

>  <r_i_glide_esite>  (123) 
-0.0508612

>  <r_i_glide_emodel>  (123) 
-33.8715

>  <r_i_glide_energy>  (123) 
-29.3512

>  <r_i_glide_einternal>  (123) 
0.319776

>  <r_i_glide_intrahb_reward>  (123) 
-0

>  <i_i_glide_confnum>  (123) 
2

>  <i_i_glide_posenum>  (123) 
32

>  <r_i_glide_eff_state_penalty>  (123) 
0

>  <ligand_id>  (123) 
45

>  <original_smiles>  (123) 
CC1C2OC(=O)C3(C)CCC2(O3)C2(C)CCC3C4CC5(C(O)CCC35C)C13OC3CCC42C

>  <smiles>  (123) 
[H]OC1([H])C([H])([H])C([H])([H])C2(C([H])([H])[H])C3([H])C([H])([H])C([H])([H])C4(C([H])([H])[H])C56OC(C([H])([H])[H])(C(=O)OC5([H])C([H])(C([H])([H])[H])C57OC5([H])C([H])([H])C([H])([H])C4(C([H])([H])[H])C3([H])C([H])([H])C172)C([H])([H])C6([H])[H]

$$$$
45:0:2
     RDKit          3D

 73 80  0  0  1  0  0  0  0  0999 V2000
    0.9138   -3.2654    4.7723 C   0  0  0  0  0  0  0  0  0  0  0  0
    1.7526   -4.2792    3.9368 C   0  0  2  0  0  0  0  0  0  0  0  0
    1.7663   -5.7831    4.6029 C   0  0  1  0  0  0  0  0  0  0  0  0
    0.3728   -5.9575    4.9280 O   0  0  0  0  0  0  0  0  0  0  0  0
   -0.4630   -6.8391    4.3231 C   0  0  0  0  0  0  0  0  0  0  0  0
   -1.6929   -6.8334    4.4174 O   0  0  0  0  0  0  0  0  0  0  0  0
    0.2210   -8.0319    3.6353 C   0  0  2  0  0  0  0  0  0  0  0  0
   -0.6745   -8.6778    2.5618 C   0  0  0  0  0  0  0  0  0  0  0  0
    0.7471   -9.0022    4.6756 C   0  0  0  0  0  0  0  0  0  0  0  0
    1.9558   -8.2485    5.2171 C   0  0  0  0  0  0  0  0  0  0  0  0
    2.3743   -7.2532    4.0656 C   0  0  1  0  0  0  0  0  0  0  0  0
    1.4344   -7.6037    3.0483 O   0  0  0  0  0  0  0  0  0  0  0  0
    3.8903   -7.6389    3.4312 C   0  0  1  0  0  0  0  0  0  0  0  0
    4.4007   -9.0132    3.9742 C   0  0  0  0  0  0  0  0  0  0  0  0
    4.0018   -7.8849    1.8197 C   0  0  0  0  0  0  0  0  0  0  0  0
    5.0587   -7.0141    0.9454 C   0  0  0  0  0  0  0  0  0  0  0  0
    5.4748   -5.5440    1.4536 C   0  0  2  0  0  0  0  0  0  0  0  0
    4.7158   -5.5327    2.6688 C   0  0  1  0  0  0  0  0  0  0  0  0
    3.2908   -5.2551    1.9204 C   0  0  0  0  0  0  0  0  0  0  0  0
    3.4620   -3.8327    1.9633 C   0  0  2  0  0  0  0  0  0  0  0  0
    2.9397   -2.6508    1.1346 C   0  0  1  0  0  0  0  0  0  0  0  0
    1.8806   -1.8975    1.6905 O   0  0  0  0  0  0  0  0  0  0  0  0
    4.2382   -1.7875    1.0533 C   0  0  0  0  0  0  0  0  0  0  0  0
    5.4585   -2.7529    1.2313 C   0  0  0  0  0  0  0  0  0  0  0  0
    4.8039   -4.1249    1.0437 C   0  0  1  0  0  0  0  0  0  0  0  0
    4.6710   -4.2455   -0.5250 C   0  0  0  0  0  0  0  0  0  0  0  0
    3.1511   -3.6633    3.5572 C   0  0  1  0  0  0  0  0  0  0  0  0
    3.8082   -2.4953    4.1535 O   0  0  0  0  0  0  0  0  0  0  0  0
    3.8839   -3.6755    4.9264 C   0  0  2  0  0  0  0  0  0  0  0  0
    5.1504   -4.3988    5.3254 C   0  0  0  0  0  0  0  0  0  0  0  0
    4.9313   -5.9388    5.2162 C   0  0  0  0  0  0  0  0  0  0  0  0
    4.9680   -6.5774    3.7698 C   0  0  1  0  0  0  0  0  0  0  0  0
    6.4547   -7.0835    3.7091 C   0  0  0  0  0  0  0  0  0  0  0  0
    1.1555   -3.2783    5.8396 H   0  0  0  0  0  0  0  0  0  0  0  0
   -0.1584   -3.4724    4.6996 H   0  0  0  0  0  0  0  0  0  0  0  0
    1.0536   -2.2432    4.4148 H   0  0  0  0  0  0  0  0  0  0  0  0
    1.1495   -4.3058    3.0321 H   0  0  0  0  0  0  0  0  0  0  0  0
    2.1962   -5.6168    5.5879 H   0  0  0  0  0  0  0  0  0  0  0  0
   -1.5985   -9.0737    2.9866 H   0  0  0  0  0  0  0  0  0  0  0  0
   -0.1500   -9.5027    2.0817 H   0  0  0  0  0  0  0  0  0  0  0  0
   -0.9432   -7.9515    1.7902 H   0  0  0  0  0  0  0  0  0  0  0  0
    0.0148   -9.2423    5.4486 H   0  0  0  0  0  0  0  0  0  0  0  0
    1.0541   -9.9370    4.2069 H   0  0  0  0  0  0  0  0  0  0  0  0
    1.6725   -7.7089    6.1203 H   0  0  0  0  0  0  0  0  0  0  0  0
    2.6695   -8.9595    5.6089 H   0  0  0  0  0  0  0  0  0  0  0  0
    5.2883   -9.3704    3.4504 H   0  0  0  0  0  0  0  0  0  0  0  0
    3.6678   -9.8123    3.8384 H   0  0  0  0  0  0  0  0  0  0  0  0
    4.6902   -8.9698    5.0263 H   0  0  0  0  0  0  0  0  0  0  0  0
    4.1841   -8.9382    1.5909 H   0  0  0  0  0  0  0  0  0  0  0  0
    3.0234   -7.7650    1.3573 H   0  0  0  0  0  0  0  0  0  0  0  0
    5.9723   -7.6014    0.8814 H   0  0  0  0  0  0  0  0  0  0  0  0
    4.7235   -6.9915   -0.0914 H   0  0  0  0  0  0  0  0  0  0  0  0
    6.5578   -5.4504    1.5713 H   0  0  0  0  0  0  0  0  0  0  0  0
    5.2624   -4.6970    3.0625 H   0  0  0  0  0  0  0  0  0  0  0  0
    3.1177   -5.6053    0.9049 H   0  0  0  0  0  0  0  0  0  0  0  0
    2.3932   -5.6908    2.2610 H   0  0  0  0  0  0  0  0  0  0  0  0
    2.5919   -2.9795    0.1572 H   0  0  0  0  0  0  0  0  0  0  0  0
    1.5199   -1.3570    1.0000 H   0  0  0  0  0  0  0  0  0  0  0  0
    4.2741   -1.2513    0.1044 H   0  0  0  0  0  0  0  0  0  0  0  0
    4.2639   -1.0339    1.8434 H   0  0  0  0  0  0  0  0  0  0  0  0
    6.2518   -2.5463    0.5113 H   0  0  0  0  0  0  0  0  0  0  0  0
    5.8777   -2.6489    2.2329 H   0  0  0  0  0  0  0  0  0  0  0  0
    4.3852   -3.3247   -1.0362 H   0  0  0  0  0  0  0  0  0  0  0  0
    3.9575   -4.9979   -0.8529 H   0  0  0  0  0  0  0  0  0  0  0  0
    5.6298   -4.5313   -0.9606 H   0  0  0  0  0  0  0  0  0  0  0  0
    3.2717   -3.5703    5.8200 H   0  0  0  0  0  0  0  0  0  0  0  0
    6.0260   -4.0227    4.8021 H   0  0  0  0  0  0  0  0  0  0  0  0
    5.3394   -4.1536    6.3678 H   0  0  0  0  0  0  0  0  0  0  0  0
    5.6927   -6.3950    5.8508 H   0  0  0  0  0  0  0  0  0  0  0  0
    4.0489   -6.2308    5.7653 H   0  0  0  0  0  0  0  0  0  0  0  0
    7.1595   -6.2514    3.7526 H   0  0  0  0  0  0  0  0  0  0  0  0
    6.7121   -7.6678    2.8328 H   0  0  0  0  0  0  0  0  0  0  0  0
    6.7092   -7.7353    4.5471 H   0  0  0  0  0  0  0  0  0  0  0  0
  1  2  1  0
  1 34  1  0
  1 35  1  0
  1 36  1  0
  2 27  1  0
  2  3  1  0
  2 37  1  6
  3 11  1  0
  3  4  1  0
  3 38  1  1
  4  5  1  0
  5  6  2  0
  5  7  1  0
  7 12  1  0
  7  8  1  6
  7  9  1  0
  8 39  1  0
  8 40  1  0
  8 41  1  0
  9 10  1  0
  9 42  1  0
  9 43  1  0
 11 10  1  1
 10 44  1  0
 10 45  1  0
 11 12  1  0
 11 13  1  0
 13 32  1  0
 13 14  1  1
 13 15  1  0
 14 46  1  0
 14 47  1  0
 14 48  1  0
 15 16  1  0
 15 49  1  0
 15 50  1  0
 16 17  1  0
 16 51  1  0
 16 52  1  0
 17 25  1  0
 17 18  1  0
 17 53  1  1
 18 32  1  0
 18 19  1  0
 18 54  1  1
 20 19  1  6
 19 55  1  0
 19 56  1  0
 20 25  1  0
 20 21  1  0
 20 27  1  0
 21 22  1  0
 21 23  1  0
 21 57  1  6
 22 58  1  0
 23 24  1  0
 23 59  1  0
 23 60  1  0
 24 25  1  0
 24 61  1  0
 24 62  1  0
 25 26  1  6
 26 63  1  0
 26 64  1  0
 26 65  1  0
 27 29  1  0
 27 28  1  6
 28 29  1  0
 29 30  1  0
 29 66  1  1
 30 31  1  0
 30 67  1  0
 30 68  1  0
 31 32  1  0
 31 69  1  0
 31 70  1  0
 32 33  1  6
 33 71  1  0
 33 72  1  0
 33 73  1  0
M  END
>  <i_m_ct_stereo_status>  (124) 
1

>  <s_m_source_file>  (124) 
/var/tmp/pbs.5076255.sched01/tmpmalnbme9/37wob9dpop.sdf

>  <i_m_source_file_index>  (124) 
21

>  <i_lp_mmshare_version>  (124) 
48012

>  <i_f3d_flags>  (124) 
0

>  <s_epik_input>  (124) 
W0NIMl0xW0NIMl1bQ0BAXShPMikoW0NIM10pQyg9TylPW0NAQEhdKFtDQEBdMTIzKVtDQEBIXShbQ0gzXSlbQ0BAXTQ1W0NAQF02N1tDQEBdKFtDSDNdKShbQ0gyXVtDSDJdW0NAQEhdN1tPSF0pW0NASF04W0NAQEhdKFtDSDJdNilbQ0BdKFtDSDNdKShbQ0BdMyhbQ0gzXSlbQ0gyXVtDSDJdOClbQ0gyXVtDSDJdW0NASF01TzQ=

>  <s_epik_cmdline>  (124) 
J2VwaWtfcHl0aG9uJywgJy1waHQnLCAnMi4wJywgJy1waCcsICc3LjAnLCAnLXRuJywgJzgnLCAnLW1hJywgJzIwMCcsICctaW1hZScsICc8aW5maWxlLm1hZT4nLCAnLW9tYWUnLCAnPG91dGZpbGUubWFlPic=

>  <r_lp_tautomer_probability>  (124) 
1

>  <r_epik_Ionization_Penalty>  (124) 
8.34324e-07

>  <r_epik_Ionization_Penalty_Charging>  (124) 
0

>  <r_epik_Ionization_Penalty_Neutral>  (124) 
8.34324e-07

>  <r_epik_State_Penalty>  (124) 
-0

>  <r_epik_Charging_Adjusted_Penalty>  (124) 
0

>  <i_epik_Tot_Q>  (124) 
0

>  <i_epik_Tot_abs_Q>  (124) 
0

>  <s_epik_Chemistry_Notes>  (124) 
This compound has an ester and may undergo hydrolysis at high or low pH.

>  <s_lp_Force_Field>  (124) 
OPLS3e

>  <r_lp_Energy>  (124) 
338.57

>  <b_lp_Chiralities_Consistent>  (124) 
1

>  <s_lp_Variant>  (124) 
45:0-1

>  <s_i_glide_gridfile>  (124) 
pfpi4k_grid

>  <i_i_glide_lignum>  (124) 
21

>  <i_i_glide_rotatable_bonds>  (124) 
1

>  <r_i_docking_score>  (124) 
-2.33651

>  <r_i_glide_ligand_efficiency>  (124) 
-0.0708033

>  <r_i_glide_ligand_efficiency_sa>  (124) 
-0.227104

>  <r_i_glide_ligand_efficiency_ln>  (124) 
-0.519628

>  <r_i_glide_gscore>  (124) 
-2.33651

>  <r_i_glide_lipo>  (124) 
-0.256052

>  <r_i_glide_hbond>  (124) 
0

>  <r_i_glide_metal>  (124) 
-0

>  <r_i_glide_rewards>  (124) 
-0.295812

>  <r_i_glide_evdw>  (124) 
-27.2881

>  <r_i_glide_ecoul>  (124) 
-2.52355

>  <r_i_glide_erotb>  (124) 
0

>  <r_i_glide_esite>  (124) 
-0.0417091

>  <r_i_glide_emodel>  (124) 
-34.1104

>  <r_i_glide_energy>  (124) 
-29.8116

>  <r_i_glide_einternal>  (124) 
0.435824

>  <r_i_glide_intrahb_reward>  (124) 
-0

>  <i_i_glide_confnum>  (124) 
1

>  <i_i_glide_posenum>  (124) 
6

>  <r_i_glide_eff_state_penalty>  (124) 
0

>  <ligand_id>  (124) 
45

>  <original_smiles>  (124) 
CC1C2OC(=O)C3(C)CCC2(O3)C2(C)CCC3C4CC5(C(O)CCC35C)C13OC3CCC42C

>  <smiles>  (124) 
[H]OC1([H])C([H])([H])C([H])([H])C2(C([H])([H])[H])C3([H])C([H])([H])C([H])([H])C4(C([H])([H])[H])C56OC(C([H])([H])[H])(C(=O)OC5([H])C([H])(C([H])([H])[H])C57OC5([H])C([H])([H])C([H])([H])C4(C([H])([H])[H])C3([H])C([H])([H])C172)C([H])([H])C6([H])[H]

$$$$
47:0:0
     RDKit          3D

 39 41  0  0  1  0  0  0  0  0999 V2000
    3.8153    0.8658   -4.3320 O   0  0  0  0  0  0  0  0  0  0  0  0
    3.6455   -0.5371   -4.3748 C   0  0  0  0  0  0  0  0  0  0  0  0
    3.4648   -1.1173   -2.9516 C   0  0  2  0  0  0  0  0  0  0  0  0
    4.7539   -0.9570   -2.1106 C   0  0  0  0  0  0  0  0  0  0  0  0
    4.6343   -1.5544   -0.7552 N   0  0  2  0  0  0  0  0  0  0  0  0
    5.8304   -1.3011    0.0817 C   0  0  0  0  0  0  0  0  0  0  0  0
    5.5617   -1.6952    1.5415 C   0  0  0  0  0  0  0  0  0  0  0  0
    4.9416   -3.0737    1.6711 C   0  0  0  0  0  0  0  0  0  0  0  0
    4.9838   -3.7278    2.9186 C   0  0  0  0  0  0  0  0  0  0  0  0
    4.4078   -5.0011    3.0742 C   0  0  0  0  0  0  0  0  0  0  0  0
    4.4350   -5.6159    4.2901 O   0  0  0  0  0  0  0  0  0  0  0  0
    3.7996   -5.6319    1.9669 C   0  0  0  0  0  0  0  0  0  0  0  0
    3.2464   -6.8733    2.0933 O   0  0  0  0  0  0  0  0  0  0  0  0
    3.7661   -4.9795    0.7189 C   0  0  0  0  0  0  0  0  0  0  0  0
    4.3192   -3.6888    0.5565 C   0  0  0  0  0  0  0  0  0  0  0  0
    4.3078   -3.0050   -0.8197 C   0  0  1  0  0  0  0  0  0  0  0  0
    2.9788   -3.1734   -1.5769 C   0  0  0  0  0  0  0  0  0  0  0  0
    3.0738   -2.6067   -3.0005 C   0  0  1  0  0  0  0  0  0  0  0  0
    1.8223   -2.7334   -3.6293 O   0  0  0  0  0  0  0  0  0  0  0  0
    3.0931    1.2628   -3.8520 H   0  0  0  0  0  0  0  0  0  0  0  0
    2.7804   -0.7388   -5.0040 H   0  0  0  0  0  0  0  0  0  0  0  0
    4.4983   -0.9997   -4.8731 H   0  0  0  0  0  0  0  0  0  0  0  0
    2.6547   -0.5783   -2.4522 H   0  0  0  0  0  0  0  0  0  0  0  0
    5.5830   -1.4522   -2.6170 H   0  0  0  0  0  0  0  0  0  0  0  0
    4.9975    0.1016   -2.0113 H   0  0  0  0  0  0  0  0  0  0  0  0
    6.6816   -1.8645   -0.3147 H   0  0  0  0  0  0  0  0  0  0  0  0
    6.0916   -0.2420    0.0526 H   0  0  0  0  0  0  0  0  0  0  0  0
    6.5100   -1.6844    2.0812 H   0  0  0  0  0  0  0  0  0  0  0  0
    4.9075   -0.9728    2.0372 H   0  0  0  0  0  0  0  0  0  0  0  0
    5.4516   -3.2476    3.7650 H   0  0  0  0  0  0  0  0  0  0  0  0
    4.8587   -5.1210    4.9711 H   0  0  0  0  0  0  0  0  0  0  0  0
    2.9525   -7.2727    1.2894 H   0  0  0  0  0  0  0  0  0  0  0  0
    3.3227   -5.4898   -0.1185 H   0  0  0  0  0  0  0  0  0  0  0  0
    5.1001   -3.4881   -1.3967 H   0  0  0  0  0  0  0  0  0  0  0  0
    2.7248   -4.2208   -1.6595 H   0  0  0  0  0  0  0  0  0  0  0  0
    2.1673   -2.7012   -1.0227 H   0  0  0  0  0  0  0  0  0  0  0  0
    3.8162   -3.1679   -3.5739 H   0  0  0  0  0  0  0  0  0  0  0  0
    1.5212   -3.6379   -3.6014 H   0  0  0  0  0  0  0  0  0  0  0  0
    3.8578   -1.0914   -0.3010 H   0  0  0  0  0  0  0  0  0  0  0  0
  1  2  1  0
  1 20  1  0
  2  3  1  0
  2 21  1  0
  2 22  1  0
  3 18  1  0
  3  4  1  0
  3 23  1  1
  4  5  1  0
  4 24  1  0
  4 25  1  0
  5 16  1  0
  5  6  1  0
  5 39  1  1
  6  7  1  0
  6 26  1  0
  6 27  1  0
  7  8  1  0
  7 28  1  0
  7 29  1  0
  8 15  2  0
  8  9  1  0
  9 10  2  0
  9 30  1  0
 10 11  1  0
 10 12  1  0
 11 31  1  0
 12 13  1  0
 12 14  2  0
 13 32  1  0
 14 15  1  0
 14 33  1  0
 15 16  1  0
 16 17  1  0
 16 34  1  6
 17 18  1  0
 17 35  1  0
 17 36  1  0
 18 19  1  0
 18 37  1  6
 19 38  1  0
M  CHG  1   5   1
M  END
>  <i_m_ct_stereo_status>  (125) 
1

>  <s_m_source_file>  (125) 
/var/tmp/pbs.5076255.sched01/tmpmalnbme9/37wob9dpop.sdf

>  <i_m_source_file_index>  (125) 
23

>  <i_lp_mmshare_version>  (125) 
48012

>  <i_f3d_flags>  (125) 
0

>  <s_epik_input>  (125) 
W09IXVtDSDJdW0NASF0oW0NIMl0xKVtDQEhdKFtPSF0pW0NIMl1bQ0BASF0oTjEyKWMzYyhbQ0gyXVtDSDJdMilbY0hdYyhbT0hdKWMoW09IXSlbY0hdMw==

>  <s_epik_cmdline>  (125) 
J2VwaWtfcHl0aG9uJywgJy1waHQnLCAnMi4wJywgJy1waCcsICc3LjAnLCAnLXRuJywgJzgnLCAnLW1hJywgJzIwMCcsICctaW1hZScsICc8aW5maWxlLm1hZT4nLCAnLW9tYWUnLCAnPG91dGZpbGUubWFlPic=

>  <r_lp_tautomer_probability>  (125) 
1

>  <r_epik_Ionization_Penalty>  (125) 
0.0433101

>  <r_epik_Ionization_Penalty_Charging>  (125) 
0.0152585

>  <r_epik_Ionization_Penalty_Neutral>  (125) 
0.0280517

>  <r_epik_State_Penalty>  (125) 
0.0333132

>  <r_epik_Charging_Adjusted_Penalty>  (125) 
0.0485716

>  <i_epik_Tot_Q>  (125) 
1

>  <i_epik_Tot_abs_Q>  (125) 
1

>  <s_lp_Force_Field>  (125) 
OPLS3e

>  <r_lp_Energy>  (125) 
22.8113

>  <b_lp_Chiralities_Consistent>  (125) 
1

>  <s_lp_Variant>  (125) 
47:0-1

>  <s_i_glide_gridfile>  (125) 
pfpi4k_grid

>  <i_i_glide_lignum>  (125) 
23

>  <i_i_glide_rotatable_bonds>  (125) 
5

>  <r_i_docking_score>  (125) 
-4.78498

>  <r_i_glide_ligand_efficiency>  (125) 
-0.251841

>  <r_i_glide_ligand_efficiency_sa>  (125) 
-0.672012

>  <r_i_glide_ligand_efficiency_ln>  (125) 
-1.21309

>  <r_i_glide_gscore>  (125) 
-4.78498

>  <r_i_glide_lipo>  (125) 
-0.56598

>  <r_i_glide_hbond>  (125) 
-0.572126

>  <r_i_glide_metal>  (125) 
-0

>  <r_i_glide_rewards>  (125) 
-1.59332

>  <r_i_glide_evdw>  (125) 
-19.0848

>  <r_i_glide_ecoul>  (125) 
-8.76666

>  <r_i_glide_erotb>  (125) 
0.251143

>  <r_i_glide_esite>  (125) 
-0.0354534

>  <r_i_glide_emodel>  (125) 
-37.5139

>  <r_i_glide_energy>  (125) 
-27.8514

>  <r_i_glide_einternal>  (125) 
0.550024

>  <r_i_glide_intrahb_reward>  (125) 
-0

>  <i_i_glide_confnum>  (125) 
3

>  <i_i_glide_posenum>  (125) 
34

>  <r_i_glide_eff_state_penalty>  (125) 
0

>  <ligand_id>  (125) 
47

>  <original_smiles>  (125) 
OCC1CN2CCc3cc(O)c(O)cc3C2CC1O

>  <smiles>  (125) 
[H]Oc1c([H])c2c(c([H])c1O[H])C1([H])C([H])([H])C([H])(O[H])C([H])(C([H])([H])O[H])C([H])([H])[N+]1([H])C([H])([H])C2([H])[H]

$$$$
47:0:1
     RDKit          3D

 39 41  0  0  1  0  0  0  0  0999 V2000
    3.8141    0.3041   -4.4803 O   0  0  0  0  0  0  0  0  0  0  0  0
    3.9383   -1.0888   -4.2614 C   0  0  0  0  0  0  0  0  0  0  0  0
    3.2680   -1.4976   -2.9287 C   0  0  2  0  0  0  0  0  0  0  0  0
    4.0811   -1.0211   -1.7038 C   0  0  0  0  0  0  0  0  0  0  0  0
    3.4147   -1.4190   -0.4299 N   0  0  2  0  0  0  0  0  0  0  0  0
    4.1216   -0.8504    0.7383 C   0  0  0  0  0  0  0  0  0  0  0  0
    3.3168   -1.0839    2.0245 C   0  0  0  0  0  0  0  0  0  0  0  0
    2.8547   -2.5200    2.1729 C   0  0  0  0  0  0  0  0  0  0  0  0
    2.4340   -2.9859    3.4412 C   0  0  0  0  0  0  0  0  0  0  0  0
    1.9907   -4.3079    3.6078 C   0  0  0  0  0  0  0  0  0  0  0  0
    1.5668   -4.6996    4.8455 O   0  0  0  0  0  0  0  0  0  0  0  0
    1.9757   -5.1800    2.4977 C   0  0  0  0  0  0  0  0  0  0  0  0
    1.5173   -6.4631    2.5890 O   0  0  0  0  0  0  0  0  0  0  0  0
    2.4155   -4.7228    1.2394 C   0  0  0  0  0  0  0  0  0  0  0  0
    2.8324   -3.3853    1.0492 C   0  0  0  0  0  0  0  0  0  0  0  0
    3.3041   -2.8983   -0.3300 C   0  0  1  0  0  0  0  0  0  0  0  0
    2.4269   -3.3995   -1.4994 C   0  0  0  0  0  0  0  0  0  0  0  0
    3.0639   -3.0255   -2.8487 C   0  0  1  0  0  0  0  0  0  0  0  0
    2.2189   -3.4428   -3.9036 O   0  0  0  0  0  0  0  0  0  0  0  0
    2.9529    0.5952   -4.2069 H   0  0  0  0  0  0  0  0  0  0  0  0
    3.4854   -1.5933   -5.1170 H   0  0  0  0  0  0  0  0  0  0  0  0
    4.9896   -1.3778   -4.2672 H   0  0  0  0  0  0  0  0  0  0  0  0
    2.2752   -1.0466   -2.8803 H   0  0  0  0  0  0  0  0  0  0  0  0
    5.0819   -1.4493   -1.7319 H   0  0  0  0  0  0  0  0  0  0  0  0
    4.2256    0.0588   -1.7436 H   0  0  0  0  0  0  0  0  0  0  0  0
    5.1086   -1.3048    0.8236 H   0  0  0  0  0  0  0  0  0  0  0  0
    4.2682    0.2176    0.6006 H   0  0  0  0  0  0  0  0  0  0  0  0
    3.9444   -0.8359    2.8849 H   0  0  0  0  0  0  0  0  0  0  0  0
    2.4424   -0.4287    2.0678 H   0  0  0  0  0  0  0  0  0  0  0  0
    2.4469   -2.3201    4.2930 H   0  0  0  0  0  0  0  0  0  0  0  0
    1.3890   -5.6179    4.9488 H   0  0  0  0  0  0  0  0  0  0  0  0
    1.4208   -6.8060    3.4621 H   0  0  0  0  0  0  0  0  0  0  0  0
    2.4013   -5.4207    0.4176 H   0  0  0  0  0  0  0  0  0  0  0  0
    4.3094   -3.3066   -0.4468 H   0  0  0  0  0  0  0  0  0  0  0  0
    2.3202   -4.4690   -1.4343 H   0  0  0  0  0  0  0  0  0  0  0  0
    1.4001   -3.0474   -1.4340 H   0  0  0  0  0  0  0  0  0  0  0  0
    4.0231   -3.5336   -2.9486 H   0  0  0  0  0  0  0  0  0  0  0  0
    1.6367   -4.1419   -3.6047 H   0  0  0  0  0  0  0  0  0  0  0  0
    2.4536   -1.0759   -0.4369 H   0  0  0  0  0  0  0  0  0  0  0  0
  1  2  1  0
  1 20  1  0
  2  3  1  0
  2 21  1  0
  2 22  1  0
  3 18  1  0
  3  4  1  0
  3 23  1  1
  4  5  1  0
  4 24  1  0
  4 25  1  0
  5 16  1  0
  5  6  1  0
  5 39  1  6
  6  7  1  0
  6 26  1  0
  6 27  1  0
  7  8  1  0
  7 28  1  0
  7 29  1  0
  8 15  2  0
  8  9  1  0
  9 10  2  0
  9 30  1  0
 10 11  1  0
 10 12  1  0
 11 31  1  0
 12 13  1  0
 12 14  2  0
 13 32  1  0
 14 15  1  0
 14 33  1  0
 15 16  1  0
 16 17  1  0
 16 34  1  6
 17 18  1  0
 17 35  1  0
 17 36  1  0
 18 19  1  0
 18 37  1  6
 19 38  1  0
M  CHG  1   5   1
M  END
>  <i_m_ct_stereo_status>  (126) 
1

>  <s_m_source_file>  (126) 
/var/tmp/pbs.5076255.sched01/tmpmalnbme9/37wob9dpop.sdf

>  <i_m_source_file_index>  (126) 
23

>  <i_lp_mmshare_version>  (126) 
48012

>  <i_f3d_flags>  (126) 
0

>  <s_epik_input>  (126) 
W09IXVtDSDJdW0NASF0oW0NIMl0xKVtDQEhdKFtPSF0pW0NIMl1bQ0BASF0oTjEyKWMzYyhbQ0gyXVtDSDJdMilbY0hdYyhbT0hdKWMoW09IXSlbY0hdMw==

>  <s_epik_cmdline>  (126) 
J2VwaWtfcHl0aG9uJywgJy1waHQnLCAnMi4wJywgJy1waCcsICc3LjAnLCAnLXRuJywgJzgnLCAnLW1hJywgJzIwMCcsICctaW1hZScsICc8aW5maWxlLm1hZT4nLCAnLW9tYWUnLCAnPG91dGZpbGUubWFlPic=

>  <r_lp_tautomer_probability>  (126) 
1

>  <r_epik_Ionization_Penalty>  (126) 
0.0433101

>  <r_epik_Ionization_Penalty_Charging>  (126) 
0.0152585

>  <r_epik_Ionization_Penalty_Neutral>  (126) 
0.0280517

>  <r_epik_State_Penalty>  (126) 
0.0333132

>  <r_epik_Charging_Adjusted_Penalty>  (126) 
0.0485716

>  <i_epik_Tot_Q>  (126) 
1

>  <i_epik_Tot_abs_Q>  (126) 
1

>  <s_lp_Force_Field>  (126) 
OPLS3e

>  <r_lp_Energy>  (126) 
22.8113

>  <b_lp_Chiralities_Consistent>  (126) 
1

>  <s_lp_Variant>  (126) 
47:0-1

>  <s_i_glide_gridfile>  (126) 
pfpi4k_grid

>  <i_i_glide_lignum>  (126) 
23

>  <i_i_glide_rotatable_bonds>  (126) 
5

>  <r_i_docking_score>  (126) 
-4.56129

>  <r_i_glide_ligand_efficiency>  (126) 
-0.240068

>  <r_i_glide_ligand_efficiency_sa>  (126) 
-0.640598

>  <r_i_glide_ligand_efficiency_ln>  (126) 
-1.15639

>  <r_i_glide_gscore>  (126) 
-4.56129

>  <r_i_glide_lipo>  (126) 
-0.173808

>  <r_i_glide_hbond>  (126) 
-0.468311

>  <r_i_glide_metal>  (126) 
-0

>  <r_i_glide_rewards>  (126) 
-1.59332

>  <r_i_glide_evdw>  (126) 
-18.4733

>  <r_i_glide_ecoul>  (126) 
-10.3556

>  <r_i_glide_erotb>  (126) 
0.251143

>  <r_i_glide_esite>  (126) 
-0.1

>  <r_i_glide_emodel>  (126) 
-36.786

>  <r_i_glide_energy>  (126) 
-28.8288

>  <r_i_glide_einternal>  (126) 
2.3055

>  <r_i_glide_intrahb_reward>  (126) 
-0

>  <i_i_glide_confnum>  (126) 
3

>  <i_i_glide_posenum>  (126) 
9

>  <r_i_glide_eff_state_penalty>  (126) 
0

>  <ligand_id>  (126) 
47

>  <original_smiles>  (126) 
OCC1CN2CCc3cc(O)c(O)cc3C2CC1O

>  <smiles>  (126) 
[H]Oc1c([H])c2c(c([H])c1O[H])C1([H])C([H])([H])C([H])(O[H])C([H])(C([H])([H])O[H])C([H])([H])[N+]1([H])C([H])([H])C2([H])[H]

$$$$
47:0:2
     RDKit          3D

 39 41  0  0  1  0  0  0  0  0999 V2000
    3.8159    0.2964   -4.4834 O   0  0  0  0  0  0  0  0  0  0  0  0
    3.9312   -1.0960   -4.2695 C   0  0  0  0  0  0  0  0  0  0  0  0
    3.2664   -1.5041   -2.9320 C   0  0  2  0  0  0  0  0  0  0  0  0
    4.0795   -1.0249   -1.7086 C   0  0  0  0  0  0  0  0  0  0  0  0
    3.4159   -1.4188   -0.4360 N   0  0  2  0  0  0  0  0  0  0  0  0
    4.1208   -0.8445    0.7263 C   0  0  0  0  0  0  0  0  0  0  0  0
    3.3180   -1.0699    2.0154 C   0  0  0  0  0  0  0  0  0  0  0  0
    2.8575   -2.5057    2.1693 C   0  0  0  0  0  0  0  0  0  0  0  0
    2.4338   -2.9627    3.4411 C   0  0  0  0  0  0  0  0  0  0  0  0
    1.9989   -4.2863    3.6047 C   0  0  0  0  0  0  0  0  0  0  0  0
    1.5877   -4.7231    4.8279 O   0  0  0  0  0  0  0  0  0  0  0  0
    1.9926   -5.1703    2.5071 C   0  0  0  0  0  0  0  0  0  0  0  0
    1.5471   -6.4506    2.6777 O   0  0  0  0  0  0  0  0  0  0  0  0
    2.4314   -4.7210    1.2446 C   0  0  0  0  0  0  0  0  0  0  0  0
    2.8403   -3.3774    1.0503 C   0  0  0  0  0  0  0  0  0  0  0  0
    3.3083   -2.8961   -0.3317 C   0  0  1  0  0  0  0  0  0  0  0  0
    2.4261   -3.4040   -1.4955 C   0  0  0  0  0  0  0  0  0  0  0  0
    3.0609   -3.0303   -2.8490 C   0  0  1  0  0  0  0  0  0  0  0  0
    2.2158   -3.4402   -3.9035 O   0  0  0  0  0  0  0  0  0  0  0  0
    2.9554    0.5898   -4.2150 H   0  0  0  0  0  0  0  0  0  0  0  0
    3.4669   -1.5953   -5.1199 H   0  0  0  0  0  0  0  0  0  0  0  0
    4.9797   -1.3997   -4.2840 H   0  0  0  0  0  0  0  0  0  0  0  0
    2.2750   -1.0530   -2.8838 H   0  0  0  0  0  0  0  0  0  0  0  0
    5.0833   -1.4507   -1.7393 H   0  0  0  0  0  0  0  0  0  0  0  0
    4.2134    0.0589   -1.7536 H   0  0  0  0  0  0  0  0  0  0  0  0
    5.1087   -1.2954    0.8135 H   0  0  0  0  0  0  0  0  0  0  0  0
    4.2674    0.2257    0.5839 H   0  0  0  0  0  0  0  0  0  0  0  0
    3.9467   -0.8189    2.8738 H   0  0  0  0  0  0  0  0  0  0  0  0
    2.4441   -0.4179    2.0552 H   0  0  0  0  0  0  0  0  0  0  0  0
    2.4495   -2.2970    4.2946 H   0  0  0  0  0  0  0  0  0  0  0  0
    1.4348   -5.6549    4.8026 H   0  0  0  0  0  0  0  0  0  0  0  0
    1.7718   -7.0375    1.9721 H   0  0  0  0  0  0  0  0  0  0  0  0
    2.4245   -5.4153    0.4218 H   0  0  0  0  0  0  0  0  0  0  0  0
    4.3142   -3.3025   -0.4487 H   0  0  0  0  0  0  0  0  0  0  0  0
    2.3242   -4.4723   -1.4299 H   0  0  0  0  0  0  0  0  0  0  0  0
    1.3999   -3.0543   -1.4297 H   0  0  0  0  0  0  0  0  0  0  0  0
    4.0214   -3.5397   -2.9496 H   0  0  0  0  0  0  0  0  0  0  0  0
    1.6062   -4.1110   -3.5956 H   0  0  0  0  0  0  0  0  0  0  0  0
    2.4516   -1.0761   -0.4450 H   0  0  0  0  0  0  0  0  0  0  0  0
  1  2  1  0
  1 20  1  0
  2  3  1  0
  2 21  1  0
  2 22  1  0
  3 18  1  0
  3  4  1  0
  3 23  1  1
  4  5  1  0
  4 24  1  0
  4 25  1  0
  5 16  1  0
  5  6  1  0
  5 39  1  6
  6  7  1  0
  6 26  1  0
  6 27  1  0
  7  8  1  0
  7 28  1  0
  7 29  1  0
  8 15  2  0
  8  9  1  0
  9 10  2  0
  9 30  1  0
 10 11  1  0
 10 12  1  0
 11 31  1  0
 12 13  1  0
 12 14  2  0
 13 32  1  0
 14 15  1  0
 14 33  1  0
 15 16  1  0
 16 17  1  0
 16 34  1  6
 17 18  1  0
 17 35  1  0
 17 36  1  0
 18 19  1  0
 18 37  1  6
 19 38  1  0
M  CHG  1   5   1
M  END
>  <i_m_ct_stereo_status>  (127) 
1

>  <s_m_source_file>  (127) 
/var/tmp/pbs.5076255.sched01/tmpmalnbme9/37wob9dpop.sdf

>  <i_m_source_file_index>  (127) 
23

>  <i_lp_mmshare_version>  (127) 
48012

>  <i_f3d_flags>  (127) 
0

>  <s_epik_input>  (127) 
W09IXVtDSDJdW0NASF0oW0NIMl0xKVtDQEhdKFtPSF0pW0NIMl1bQ0BASF0oTjEyKWMzYyhbQ0gyXVtDSDJdMilbY0hdYyhbT0hdKWMoW09IXSlbY0hdMw==

>  <s_epik_cmdline>  (127) 
J2VwaWtfcHl0aG9uJywgJy1waHQnLCAnMi4wJywgJy1waCcsICc3LjAnLCAnLXRuJywgJzgnLCAnLW1hJywgJzIwMCcsICctaW1hZScsICc8aW5maWxlLm1hZT4nLCAnLW9tYWUnLCAnPG91dGZpbGUubWFlPic=

>  <r_lp_tautomer_probability>  (127) 
1

>  <r_epik_Ionization_Penalty>  (127) 
0.0433101

>  <r_epik_Ionization_Penalty_Charging>  (127) 
0.0152585

>  <r_epik_Ionization_Penalty_Neutral>  (127) 
0.0280517

>  <r_epik_State_Penalty>  (127) 
0.0333132

>  <r_epik_Charging_Adjusted_Penalty>  (127) 
0.0485716

>  <i_epik_Tot_Q>  (127) 
1

>  <i_epik_Tot_abs_Q>  (127) 
1

>  <s_lp_Force_Field>  (127) 
OPLS3e

>  <r_lp_Energy>  (127) 
22.8113

>  <b_lp_Chiralities_Consistent>  (127) 
1

>  <s_lp_Variant>  (127) 
47:0-1

>  <s_i_glide_gridfile>  (127) 
pfpi4k_grid

>  <i_i_glide_lignum>  (127) 
23

>  <i_i_glide_rotatable_bonds>  (127) 
5

>  <r_i_docking_score>  (127) 
-4.55536

>  <r_i_glide_ligand_efficiency>  (127) 
-0.239756

>  <r_i_glide_ligand_efficiency_sa>  (127) 
-0.639765

>  <r_i_glide_ligand_efficiency_ln>  (127) 
-1.15488

>  <r_i_glide_gscore>  (127) 
-4.55536

>  <r_i_glide_lipo>  (127) 
-0.16696

>  <r_i_glide_hbond>  (127) 
-0.480988

>  <r_i_glide_metal>  (127) 
-0

>  <r_i_glide_rewards>  (127) 
-1.59332

>  <r_i_glide_evdw>  (127) 
-18.5575

>  <r_i_glide_ecoul>  (127) 
-10.2491

>  <r_i_glide_erotb>  (127) 
0.251143

>  <r_i_glide_esite>  (127) 
-0.1

>  <r_i_glide_emodel>  (127) 
-36.6147

>  <r_i_glide_energy>  (127) 
-28.8066

>  <r_i_glide_einternal>  (127) 
2.54425

>  <r_i_glide_intrahb_reward>  (127) 
-0

>  <i_i_glide_confnum>  (127) 
3

>  <i_i_glide_posenum>  (127) 
10

>  <r_i_glide_eff_state_penalty>  (127) 
0

>  <ligand_id>  (127) 
47

>  <original_smiles>  (127) 
OCC1CN2CCc3cc(O)c(O)cc3C2CC1O

>  <smiles>  (127) 
[H]Oc1c([H])c2c(c([H])c1O[H])C1([H])C([H])([H])C([H])(O[H])C([H])(C([H])([H])O[H])C([H])([H])[N+]1([H])C([H])([H])C2([H])[H]

$$$$
47:1:0
     RDKit          3D

 38 40  0  0  1  0  0  0  0  0999 V2000
    3.8541    0.2817   -4.4840 O   0  0  0  0  0  0  0  0  0  0  0  0
    3.9569   -1.1163   -4.2709 C   0  0  0  0  0  0  0  0  0  0  0  0
    3.2751   -1.5091   -2.9332 C   0  0  2  0  0  0  0  0  0  0  0  0
    4.0851   -1.0318   -1.7034 C   0  0  0  0  0  0  0  0  0  0  0  0
    3.4147   -1.4310   -0.4354 N   0  0  2  0  0  0  0  0  0  0  0  0
    4.1171   -0.8506    0.7374 C   0  0  0  0  0  0  0  0  0  0  0  0
    3.3038   -1.0679    2.0225 C   0  0  0  0  0  0  0  0  0  0  0  0
    2.8360   -2.4926    2.1759 C   0  0  0  0  0  0  0  0  0  0  0  0
    2.4089   -2.9410    3.4393 C   0  0  0  0  0  0  0  0  0  0  0  0
    1.9503   -4.2582    3.6067 C   0  0  0  0  0  0  0  0  0  0  0  0
    1.5379   -4.6959    4.8259 O   0  0  0  0  0  0  0  0  0  0  0  0
    1.9127   -5.1289    2.5190 C   0  0  0  0  0  0  0  0  0  0  0  0
    1.3986   -6.4019    2.6681 O   0  0  0  0  0  0  0  0  0  0  0  0
    2.3790   -4.7037    1.2597 C   0  0  0  0  0  0  0  0  0  0  0  0
    2.8129   -3.3758    1.0645 C   0  0  0  0  0  0  0  0  0  0  0  0
    3.2951   -2.9024   -0.3155 C   0  0  1  0  0  0  0  0  0  0  0  0
    2.4165   -3.4013   -1.4884 C   0  0  0  0  0  0  0  0  0  0  0  0
    3.0599   -3.0362   -2.8473 C   0  0  1  0  0  0  0  0  0  0  0  0
    2.2175   -3.4420   -3.9125 O   0  0  0  0  0  0  0  0  0  0  0  0
    2.9794    0.5793   -4.2643 H   0  0  0  0  0  0  0  0  0  0  0  0
    3.4741   -1.6053   -5.1162 H   0  0  0  0  0  0  0  0  0  0  0  0
    4.9960   -1.4368   -4.2766 H   0  0  0  0  0  0  0  0  0  0  0  0
    2.2815   -1.0493   -2.8878 H   0  0  0  0  0  0  0  0  0  0  0  0
    5.0880   -1.4653   -1.7320 H   0  0  0  0  0  0  0  0  0  0  0  0
    4.2308    0.0514   -1.7484 H   0  0  0  0  0  0  0  0  0  0  0  0
    5.1069   -1.3113    0.8207 H   0  0  0  0  0  0  0  0  0  0  0  0
    4.2816    0.2264    0.5796 H   0  0  0  0  0  0  0  0  0  0  0  0
    3.9366   -0.8107    2.8706 H   0  0  0  0  0  0  0  0  0  0  0  0
    2.4429   -0.3989    2.0477 H   0  0  0  0  0  0  0  0  0  0  0  0
    2.4279   -2.2727    4.2885 H   0  0  0  0  0  0  0  0  0  0  0  0
    1.3737   -5.6186    4.6857 H   0  0  0  0  0  0  0  0  0  0  0  0
    2.3709   -5.4055    0.4379 H   0  0  0  0  0  0  0  0  0  0  0  0
    4.2972   -3.3106   -0.4366 H   0  0  0  0  0  0  0  0  0  0  0  0
    2.3132   -4.4712   -1.4267 H   0  0  0  0  0  0  0  0  0  0  0  0
    1.3958   -3.0384   -1.4378 H   0  0  0  0  0  0  0  0  0  0  0  0
    4.0244   -3.5538   -2.9442 H   0  0  0  0  0  0  0  0  0  0  0  0
    1.6223   -4.1275   -3.6057 H   0  0  0  0  0  0  0  0  0  0  0  0
    2.4529   -1.0810   -0.4470 H   0  0  0  0  0  0  0  0  0  0  0  0
  1  2  1  0
  1 20  1  0
  2  3  1  0
  2 21  1  0
  2 22  1  0
  3 18  1  0
  3  4  1  0
  3 23  1  6
  4  5  1  0
  4 24  1  0
  4 25  1  0
  5 16  1  0
  5  6  1  0
  5 38  1  6
  6  7  1  0
  6 26  1  0
  6 27  1  0
  7  8  1  0
  7 28  1  0
  7 29  1  0
  8 15  2  0
  8  9  1  0
  9 10  2  0
  9 30  1  0
 10 11  1  0
 10 12  1  0
 11 31  1  0
 12 13  1  0
 12 14  2  0
 14 15  1  0
 14 32  1  0
 15 16  1  0
 16 17  1  0
 16 33  1  6
 17 18  1  0
 17 34  1  0
 17 35  1  0
 18 19  1  0
 18 36  1  6
 19 37  1  0
M  CHG  2   5   1  13  -1
M  END
>  <i_m_ct_stereo_status>  (128) 
1

>  <s_m_source_file>  (128) 
/var/tmp/pbs.5076255.sched01/tmpmalnbme9/37wob9dpop.sdf

>  <i_m_source_file_index>  (128) 
24

>  <i_lp_mmshare_version>  (128) 
48012

>  <i_f3d_flags>  (128) 
0

>  <s_epik_input>  (128) 
W09IXVtDSDJdW0NASF0oW0NIMl0xKVtDQEhdKFtPSF0pW0NIMl1bQ0BASF0oTjEyKWMzYyhbQ0gyXVtDSDJdMilbY0hdYyhbT0hdKWMoW09IXSlbY0hdMw==

>  <s_epik_cmdline>  (128) 
J2VwaWtfcHl0aG9uJywgJy1waHQnLCAnMi4wJywgJy1waCcsICc3LjAnLCAnLXRuJywgJzgnLCAnLW1hJywgJzIwMCcsICctaW1hZScsICc8aW5maWxlLm1hZT4nLCAnLW9tYWUnLCAnPG91dGZpbGUubWFlPic=

>  <r_epik_Ionization_Penalty>  (128) 
2.10887

>  <r_epik_Ionization_Penalty_Charging>  (128) 
2.10881

>  <r_epik_Ionization_Penalty_Neutral>  (128) 
5.47768e-05

>  <r_epik_State_Penalty>  (128) 
2.25258

>  <r_epik_Charging_Adjusted_Penalty>  (128) 
4.36139

>  <i_epik_Tot_Q>  (128) 
0

>  <i_epik_Tot_abs_Q>  (128) 
2

>  <s_lp_Force_Field>  (128) 
OPLS3e

>  <r_lp_Energy>  (128) 
25.0372

>  <b_lp_Chiralities_Consistent>  (128) 
1

>  <s_lp_Variant>  (128) 
47:0-2

>  <s_i_glide_gridfile>  (128) 
pfpi4k_grid

>  <i_i_glide_lignum>  (128) 
24

>  <i_i_glide_rotatable_bonds>  (128) 
4

>  <r_i_docking_score>  (128) 
-4.57238

>  <r_i_glide_ligand_efficiency>  (128) 
-0.240651

>  <r_i_glide_ligand_efficiency_sa>  (128) 
-0.642155

>  <r_i_glide_ligand_efficiency_ln>  (128) 
-1.1592

>  <r_i_glide_gscore>  (128) 
-4.57238

>  <r_i_glide_lipo>  (128) 
-0.154188

>  <r_i_glide_hbond>  (128) 
-0.474339

>  <r_i_glide_metal>  (128) 
-0

>  <r_i_glide_rewards>  (128) 
-1.90019

>  <r_i_glide_evdw>  (128) 
-17.4213

>  <r_i_glide_ecoul>  (128) 
-8.83591

>  <r_i_glide_erotb>  (128) 
0.252793

>  <r_i_glide_esite>  (128) 
-0.1

>  <r_i_glide_emodel>  (128) 
-34.9893

>  <r_i_glide_energy>  (128) 
-26.2572

>  <r_i_glide_einternal>  (128) 
1.99545

>  <r_i_glide_intrahb_reward>  (128) 
-0

>  <i_i_glide_confnum>  (128) 
3

>  <i_i_glide_posenum>  (128) 
14

>  <r_i_glide_eff_state_penalty>  (128) 
0

>  <ligand_id>  (128) 
47

>  <original_smiles>  (128) 
OCC1CN2CCc3cc(O)c(O)cc3C2CC1O

>  <smiles>  (128) 
[H]Oc1c([H])c2c(c([H])c1[O-])C1([H])C([H])([H])C([H])(O[H])C([H])(C([H])([H])O[H])C([H])([H])[N+]1([H])C([H])([H])C2([H])[H]

$$$$
47:1:1
     RDKit          3D

 38 40  0  0  1  0  0  0  0  0999 V2000
    3.4071    0.2059   -4.4953 O   0  0  0  0  0  0  0  0  0  0  0  0
    4.2090   -0.2492   -3.4244 C   0  0  0  0  0  0  0  0  0  0  0  0
    3.4006   -1.0043   -2.3479 C   0  0  2  0  0  0  0  0  0  0  0  0
    4.1353   -0.9613   -0.9723 C   0  0  0  0  0  0  0  0  0  0  0  0
    3.4099   -1.7155    0.0812 N   0  0  2  0  0  0  0  0  0  0  0  0
    4.0432   -1.5666    1.4176 C   0  0  0  0  0  0  0  0  0  0  0  0
    3.1376   -2.1416    2.5229 C   0  0  0  0  0  0  0  0  0  0  0  0
    2.6199   -3.5198    2.1884 C   0  0  0  0  0  0  0  0  0  0  0  0
    2.0906   -4.3166    3.2202 C   0  0  0  0  0  0  0  0  0  0  0  0
    1.5813   -5.5908    2.9416 C   0  0  0  0  0  0  0  0  0  0  0  0
    1.0552   -6.3672    3.9229 O   0  0  0  0  0  0  0  0  0  0  0  0
    1.5998   -6.0729    1.6219 C   0  0  0  0  0  0  0  0  0  0  0  0
    1.0349   -7.2808    1.3303 O   0  0  0  0  0  0  0  0  0  0  0  0
    2.1655   -5.3011    0.5965 C   0  0  0  0  0  0  0  0  0  0  0  0
    2.6469   -3.9978    0.8569 C   0  0  0  0  0  0  0  0  0  0  0  0
    3.2287   -3.1476   -0.2830 C   0  0  1  0  0  0  0  0  0  0  0  0
    2.4353   -3.2369   -1.6091 C   0  0  0  0  0  0  0  0  0  0  0  0
    3.1460   -2.4807   -2.7379 C   0  0  1  0  0  0  0  0  0  0  0  0
    2.3483   -2.6008   -3.8982 O   0  0  0  0  0  0  0  0  0  0  0  0
    2.7397    0.7811   -4.1379 H   0  0  0  0  0  0  0  0  0  0  0  0
    5.0031   -0.8916   -3.8075 H   0  0  0  0  0  0  0  0  0  0  0  0
    4.6503    0.6462   -2.9973 H   0  0  0  0  0  0  0  0  0  0  0  0
    2.4411   -0.4955   -2.2548 H   0  0  0  0  0  0  0  0  0  0  0  0
    5.1457   -1.3613   -1.0675 H   0  0  0  0  0  0  0  0  0  0  0  0
    4.2425    0.0669   -0.6255 H   0  0  0  0  0  0  0  0  0  0  0  0
    5.0093   -2.0783    1.4153 H   0  0  0  0  0  0  0  0  0  0  0  0
    4.2477   -0.5116    1.6366 H   0  0  0  0  0  0  0  0  0  0  0  0
    3.7116   -2.2000    3.4502 H   0  0  0  0  0  0  0  0  0  0  0  0
    2.2933   -1.4748    2.7169 H   0  0  0  0  0  0  0  0  0  0  0  0
    2.0675   -3.9555    4.2375 H   0  0  0  0  0  0  0  0  0  0  0  0
    0.8934   -7.2135    3.5261 H   0  0  0  0  0  0  0  0  0  0  0  0
    2.1812   -5.7033   -0.4055 H   0  0  0  0  0  0  0  0  0  0  0  0
    4.2233   -3.5467   -0.4653 H   0  0  0  0  0  0  0  0  0  0  0  0
    2.3275   -4.2677   -1.9226 H   0  0  0  0  0  0  0  0  0  0  0  0
    1.4145   -2.8858   -1.5159 H   0  0  0  0  0  0  0  0  0  0  0  0
    4.1020   -2.9623   -2.9472 H   0  0  0  0  0  0  0  0  0  0  0  0
    1.5213   -2.1648   -3.7460 H   0  0  0  0  0  0  0  0  0  0  0  0
    2.4761   -1.3094    0.1305 H   0  0  0  0  0  0  0  0  0  0  0  0
  1  2  1  0
  1 20  1  0
  2  3  1  0
  2 21  1  0
  2 22  1  0
  3 18  1  0
  3  4  1  0
  3 23  1  1
  4  5  1  0
  4 24  1  0
  4 25  1  0
  5 16  1  0
  5  6  1  0
  5 38  1  1
  6  7  1  0
  6 26  1  0
  6 27  1  0
  7  8  1  0
  7 28  1  0
  7 29  1  0
  8 15  2  0
  8  9  1  0
  9 10  2  0
  9 30  1  0
 10 11  1  0
 10 12  1  0
 11 31  1  0
 12 13  1  0
 12 14  2  0
 14 15  1  0
 14 32  1  0
 15 16  1  0
 16 17  1  0
 16 33  1  6
 17 18  1  0
 17 34  1  0
 17 35  1  0
 18 19  1  0
 18 36  1  6
 19 37  1  0
M  CHG  2   5   1  13  -1
M  END
>  <i_m_ct_stereo_status>  (129) 
1

>  <s_m_source_file>  (129) 
/var/tmp/pbs.5076255.sched01/tmpmalnbme9/37wob9dpop.sdf

>  <i_m_source_file_index>  (129) 
24

>  <i_lp_mmshare_version>  (129) 
48012

>  <i_f3d_flags>  (129) 
0

>  <s_epik_input>  (129) 
W09IXVtDSDJdW0NASF0oW0NIMl0xKVtDQEhdKFtPSF0pW0NIMl1bQ0BASF0oTjEyKWMzYyhbQ0gyXVtDSDJdMilbY0hdYyhbT0hdKWMoW09IXSlbY0hdMw==

>  <s_epik_cmdline>  (129) 
J2VwaWtfcHl0aG9uJywgJy1waHQnLCAnMi4wJywgJy1waCcsICc3LjAnLCAnLXRuJywgJzgnLCAnLW1hJywgJzIwMCcsICctaW1hZScsICc8aW5maWxlLm1hZT4nLCAnLW9tYWUnLCAnPG91dGZpbGUubWFlPic=

>  <r_epik_Ionization_Penalty>  (129) 
2.10887

>  <r_epik_Ionization_Penalty_Charging>  (129) 
2.10881

>  <r_epik_Ionization_Penalty_Neutral>  (129) 
5.47768e-05

>  <r_epik_State_Penalty>  (129) 
2.25258

>  <r_epik_Charging_Adjusted_Penalty>  (129) 
4.36139

>  <i_epik_Tot_Q>  (129) 
0

>  <i_epik_Tot_abs_Q>  (129) 
2

>  <s_lp_Force_Field>  (129) 
OPLS3e

>  <r_lp_Energy>  (129) 
25.0372

>  <b_lp_Chiralities_Consistent>  (129) 
1

>  <s_lp_Variant>  (129) 
47:0-2

>  <s_i_glide_gridfile>  (129) 
pfpi4k_grid

>  <i_i_glide_lignum>  (129) 
24

>  <i_i_glide_rotatable_bonds>  (129) 
4

>  <r_i_docking_score>  (129) 
-4.08795

>  <r_i_glide_ligand_efficiency>  (129) 
-0.215155

>  <r_i_glide_ligand_efficiency_sa>  (129) 
-0.574121

>  <r_i_glide_ligand_efficiency_ln>  (129) 
-1.03638

>  <r_i_glide_gscore>  (129) 
-4.08795

>  <r_i_glide_lipo>  (129) 
-0.287225

>  <r_i_glide_hbond>  (129) 
-0.189132

>  <r_i_glide_metal>  (129) 
-0

>  <r_i_glide_rewards>  (129) 
-1.90019

>  <r_i_glide_evdw>  (129) 
-16.6014

>  <r_i_glide_ecoul>  (129) 
-7.05974

>  <r_i_glide_erotb>  (129) 
0.252793

>  <r_i_glide_esite>  (129) 
-0.0751631

>  <r_i_glide_emodel>  (129) 
-32.2404

>  <r_i_glide_energy>  (129) 
-23.6611

>  <r_i_glide_einternal>  (129) 
1.02231

>  <r_i_glide_intrahb_reward>  (129) 
-0

>  <i_i_glide_confnum>  (129) 
6

>  <i_i_glide_posenum>  (129) 
9

>  <r_i_glide_eff_state_penalty>  (129) 
0

>  <ligand_id>  (129) 
47

>  <original_smiles>  (129) 
OCC1CN2CCc3cc(O)c(O)cc3C2CC1O

>  <smiles>  (129) 
[H]Oc1c([H])c2c(c([H])c1[O-])C1([H])C([H])([H])C([H])(O[H])C([H])(C([H])([H])O[H])C([H])([H])[N+]1([H])C([H])([H])C2([H])[H]

$$$$
47:1:2
     RDKit          3D

 38 40  0  0  1  0  0  0  0  0999 V2000
   -1.7850    4.1984    4.3363 O   0  0  0  0  0  0  0  0  0  0  0  0
   -0.7336    3.8245    3.4647 C   0  0  0  0  0  0  0  0  0  0  0  0
   -0.0596    2.4976    3.9294 C   0  0  2  0  0  0  0  0  0  0  0  0
    1.3190    2.2942    3.2444 C   0  0  0  0  0  0  0  0  0  0  0  0
    1.9455    0.9948    3.6085 N   0  0  2  0  0  0  0  0  0  0  0  0
    3.3120    0.8600    3.0687 C   0  0  0  0  0  0  0  0  0  0  0  0
    4.0389   -0.3493    3.6847 C   0  0  0  0  0  0  0  0  0  0  0  0
    3.1975   -1.6038    3.6620 C   0  0  0  0  0  0  0  0  0  0  0  0
    3.8304   -2.8490    3.8324 C   0  0  0  0  0  0  0  0  0  0  0  0
    3.0727   -4.0359    3.8207 C   0  0  0  0  0  0  0  0  0  0  0  0
    3.6657   -5.2446    3.9902 O   0  0  0  0  0  0  0  0  0  0  0  0
    1.6733   -3.9797    3.6309 C   0  0  0  0  0  0  0  0  0  0  0  0
    0.9309   -5.1450    3.5810 O   0  0  0  0  0  0  0  0  0  0  0  0
    1.0517   -2.7181    3.4745 C   0  0  0  0  0  0  0  0  0  0  0  0
    1.7982   -1.5105    3.4919 C   0  0  0  0  0  0  0  0  0  0  0  0
    1.0969   -0.1671    3.2490 C   0  0  1  0  0  0  0  0  0  0  0  0
   -0.2592   -0.0329    3.9754 C   0  0  0  0  0  0  0  0  0  0  0  0
   -0.9563    1.2831    3.6167 C   0  0  1  0  0  0  0  0  0  0  0  0
   -2.1651    1.3504    4.3583 O   0  0  0  0  0  0  0  0  0  0  0  0
   -2.3406    3.4295    4.4196 H   0  0  0  0  0  0  0  0  0  0  0  0
   -1.1572    3.6951    2.4780 H   0  0  0  0  0  0  0  0  0  0  0  0
   -0.0132    4.6445    3.4140 H   0  0  0  0  0  0  0  0  0  0  0  0
    0.1114    2.5415    5.0100 H   0  0  0  0  0  0  0  0  0  0  0  0
    1.2088    2.3602    2.1609 H   0  0  0  0  0  0  0  0  0  0  0  0
    1.9788    3.1111    3.5440 H   0  0  0  0  0  0  0  0  0  0  0  0
    3.2775    0.7817    1.9799 H   0  0  0  0  0  0  0  0  0  0  0  0
    3.8725    1.7586    3.3203 H   0  0  0  0  0  0  0  0  0  0  0  0
    4.9605   -0.5315    3.1278 H   0  0  0  0  0  0  0  0  0  0  0  0
    4.3377   -0.1498    4.7171 H   0  0  0  0  0  0  0  0  0  0  0  0
    4.8932   -2.9164    3.9717 H   0  0  0  0  0  0  0  0  0  0  0  0
    2.9605   -5.8815    3.9496 H   0  0  0  0  0  0  0  0  0  0  0  0
   -0.0117   -2.6956    3.3005 H   0  0  0  0  0  0  0  0  0  0  0  0
    0.9197   -0.1059    2.1769 H   0  0  0  0  0  0  0  0  0  0  0  0
   -0.9284   -0.8380    3.6867 H   0  0  0  0  0  0  0  0  0  0  0  0
   -0.1304   -0.1108    5.0581 H   0  0  0  0  0  0  0  0  0  0  0  0
   -1.2102    1.2818    2.5551 H   0  0  0  0  0  0  0  0  0  0  0  0
   -2.8484    0.9560    3.8389 H   0  0  0  0  0  0  0  0  0  0  0  0
    2.0491    0.9947    4.6064 H   0  0  0  0  0  0  0  0  0  0  0  0
  1  2  1  0
  1 20  1  0
  2  3  1  0
  2 21  1  0
  2 22  1  0
  3 18  1  0
  3  4  1  0
  3 23  1  1
  4  5  1  0
  4 24  1  0
  4 25  1  0
  5 16  1  0
  5  6  1  0
  5 38  1  1
  6  7  1  0
  6 26  1  0
  6 27  1  0
  7  8  1  0
  7 28  1  0
  7 29  1  0
  8 15  2  0
  8  9  1  0
  9 10  2  0
  9 30  1  0
 10 11  1  0
 10 12  1  0
 11 31  1  0
 12 13  1  0
 12 14  2  0
 14 15  1  0
 14 32  1  0
 15 16  1  0
 16 17  1  0
 16 33  1  6
 17 18  1  0
 17 34  1  0
 17 35  1  0
 18 19  1  0
 18 36  1  6
 19 37  1  0
M  CHG  2   5   1  13  -1
M  END
>  <i_m_ct_stereo_status>  (130) 
1

>  <s_m_source_file>  (130) 
/var/tmp/pbs.5076255.sched01/tmpmalnbme9/37wob9dpop.sdf

>  <i_m_source_file_index>  (130) 
24

>  <i_lp_mmshare_version>  (130) 
48012

>  <i_f3d_flags>  (130) 
0

>  <s_epik_input>  (130) 
W09IXVtDSDJdW0NASF0oW0NIMl0xKVtDQEhdKFtPSF0pW0NIMl1bQ0BASF0oTjEyKWMzYyhbQ0gyXVtDSDJdMilbY0hdYyhbT0hdKWMoW09IXSlbY0hdMw==

>  <s_epik_cmdline>  (130) 
J2VwaWtfcHl0aG9uJywgJy1waHQnLCAnMi4wJywgJy1waCcsICc3LjAnLCAnLXRuJywgJzgnLCAnLW1hJywgJzIwMCcsICctaW1hZScsICc8aW5maWxlLm1hZT4nLCAnLW9tYWUnLCAnPG91dGZpbGUubWFlPic=

>  <r_epik_Ionization_Penalty>  (130) 
2.10887

>  <r_epik_Ionization_Penalty_Charging>  (130) 
2.10881

>  <r_epik_Ionization_Penalty_Neutral>  (130) 
5.47768e-05

>  <r_epik_State_Penalty>  (130) 
2.25258

>  <r_epik_Charging_Adjusted_Penalty>  (130) 
4.36139

>  <i_epik_Tot_Q>  (130) 
0

>  <i_epik_Tot_abs_Q>  (130) 
2

>  <s_lp_Force_Field>  (130) 
OPLS3e

>  <r_lp_Energy>  (130) 
25.0372

>  <b_lp_Chiralities_Consistent>  (130) 
1

>  <s_lp_Variant>  (130) 
47:0-2

>  <s_i_glide_gridfile>  (130) 
pfpi4k_grid

>  <i_i_glide_lignum>  (130) 
24

>  <i_i_glide_rotatable_bonds>  (130) 
4

>  <r_i_docking_score>  (130) 
-3.8839

>  <r_i_glide_ligand_efficiency>  (130) 
-0.204416

>  <r_i_glide_ligand_efficiency_sa>  (130) 
-0.545464

>  <r_i_glide_ligand_efficiency_ln>  (130) 
-0.984652

>  <r_i_glide_gscore>  (130) 
-3.8839

>  <r_i_glide_lipo>  (130) 
-0.0774577

>  <r_i_glide_hbond>  (130) 
0

>  <r_i_glide_metal>  (130) 
-0

>  <r_i_glide_rewards>  (130) 
-2.10019

>  <r_i_glide_evdw>  (130) 
-9.94268

>  <r_i_glide_ecoul>  (130) 
-9.70234

>  <r_i_glide_erotb>  (130) 
0.252793

>  <r_i_glide_esite>  (130) 
-0.00655786

>  <r_i_glide_emodel>  (130) 
-32.1779

>  <r_i_glide_energy>  (130) 
-19.645

>  <r_i_glide_einternal>  (130) 
1.636

>  <r_i_glide_intrahb_reward>  (130) 
-0.5

>  <i_i_glide_confnum>  (130) 
3

>  <i_i_glide_posenum>  (130) 
2

>  <r_i_glide_eff_state_penalty>  (130) 
0

>  <ligand_id>  (130) 
47

>  <original_smiles>  (130) 
OCC1CN2CCc3cc(O)c(O)cc3C2CC1O

>  <smiles>  (130) 
[H]Oc1c([H])c2c(c([H])c1[O-])C1([H])C([H])([H])C([H])(O[H])C([H])(C([H])([H])O[H])C([H])([H])[N+]1([H])C([H])([H])C2([H])[H]

$$$$
47:2:0
     RDKit          3D

 38 40  0  0  1  0  0  0  0  0999 V2000
   -5.4598   10.9212   -2.0683 O   0  0  0  0  0  0  0  0  0  0  0  0
   -5.8763   10.3364   -0.8417 C   0  0  0  0  0  0  0  0  0  0  0  0
   -5.1722    8.9948   -0.4955 C   0  0  2  0  0  0  0  0  0  0  0  0
   -6.0079    8.1357    0.4770 C   0  0  0  0  0  0  0  0  0  0  0  0
   -5.3489    6.8646    0.7785 N   0  0  0  0  0  0  0  0  0  0  0  0
   -6.2460    6.0617    1.6002 C   0  0  0  0  0  0  0  0  0  0  0  0
   -5.6389    4.6679    1.7108 C   0  0  0  0  0  0  0  0  0  0  0  0
   -4.1992    4.5997    2.0767 C   0  0  0  0  0  0  0  0  0  0  0  0
   -3.6449    3.3933    2.5529 C   0  0  0  0  0  0  0  0  0  0  0  0
   -2.3234    3.3258    2.9919 C   0  0  0  0  0  0  0  0  0  0  0  0
   -1.8060    2.1540    3.4750 O   0  0  0  0  0  0  0  0  0  0  0  0
   -1.5385    4.4986    2.9398 C   0  0  0  0  0  0  0  0  0  0  0  0
   -0.2487    4.5045    3.3242 O   0  0  0  0  0  0  0  0  0  0  0  0
   -2.0648    5.6746    2.3584 C   0  0  0  0  0  0  0  0  0  0  0  0
   -3.4178    5.7529    1.9917 C   0  0  0  0  0  0  0  0  0  0  0  0
   -4.0806    7.0652    1.4944 C   0  0  1  0  0  0  0  0  0  0  0  0
   -3.1634    7.8965    0.5747 C   0  0  0  0  0  0  0  0  0  0  0  0
   -3.8241    9.2252    0.1837 C   0  0  1  0  0  0  0  0  0  0  0  0
   -2.9851    9.9040   -0.7336 O   0  0  0  0  0  0  0  0  0  0  0  0
   -5.6456   10.3199   -2.7764 H   0  0  0  0  0  0  0  0  0  0  0  0
   -5.7216   11.0532   -0.0307 H   0  0  0  0  0  0  0  0  0  0  0  0
   -6.9489   10.1972   -0.9399 H   0  0  0  0  0  0  0  0  0  0  0  0
   -5.0119    8.4113   -1.4067 H   0  0  0  0  0  0  0  0  0  0  0  0
   -6.2212    8.6776    1.3973 H   0  0  0  0  0  0  0  0  0  0  0  0
   -6.9651    7.9070    0.0255 H   0  0  0  0  0  0  0  0  0  0  0  0
   -6.4007    6.5104    2.5834 H   0  0  0  0  0  0  0  0  0  0  0  0
   -7.2278    5.9771    1.1221 H   0  0  0  0  0  0  0  0  0  0  0  0
   -6.2111    4.0565    2.4095 H   0  0  0  0  0  0  0  0  0  0  0  0
   -5.6145    4.2788    0.7031 H   0  0  0  0  0  0  0  0  0  0  0  0
   -4.2784    2.5320    2.6089 H   0  0  0  0  0  0  0  0  0  0  0  0
   -2.3763    1.4224    3.2721 H   0  0  0  0  0  0  0  0  0  0  0  0
    0.2299    4.5345    2.4952 H   0  0  0  0  0  0  0  0  0  0  0  0
   -1.4074    6.5328    2.2755 H   0  0  0  0  0  0  0  0  0  0  0  0
   -4.3254    7.6503    2.3820 H   0  0  0  0  0  0  0  0  0  0  0  0
   -2.2502    8.1058    1.1116 H   0  0  0  0  0  0  0  0  0  0  0  0
   -2.8691    7.3246   -0.3079 H   0  0  0  0  0  0  0  0  0  0  0  0
   -3.9241    9.8422    1.0747 H   0  0  0  0  0  0  0  0  0  0  0  0
   -2.1645   10.0104   -0.1904 H   0  0  0  0  0  0  0  0  0  0  0  0
  1  2  1  0
  1 20  1  0
  2  3  1  0
  2 21  1  0
  2 22  1  0
  3 18  1  0
  3  4  1  0
  3 23  1  6
  4  5  1  0
  4 24  1  0
  4 25  1  0
  5 16  1  0
  5  6  1  0
  6  7  1  0
  6 26  1  0
  6 27  1  0
  7  8  1  0
  7 28  1  0
  7 29  1  0
  8 15  2  0
  8  9  1  0
  9 10  2  0
  9 30  1  0
 10 11  1  0
 10 12  1  0
 11 31  1  0
 12 13  1  0
 12 14  2  0
 13 32  1  0
 14 15  1  0
 14 33  1  0
 15 16  1  0
 16 17  1  0
 16 34  1  1
 17 18  1  0
 17 35  1  0
 17 36  1  0
 18 19  1  0
 18 37  1  1
 19 38  1  0
M  END
>  <i_m_ct_stereo_status>  (131) 
1

>  <s_m_source_file>  (131) 
/var/tmp/pbs.5076255.sched01/tmpmalnbme9/37wob9dpop.sdf

>  <i_m_source_file_index>  (131) 
25

>  <i_lp_mmshare_version>  (131) 
48012

>  <i_f3d_flags>  (131) 
0

>  <s_epik_input>  (131) 
W09IXVtDSDJdW0NASF0oW0NIMl0xKVtDQEhdKFtPSF0pW0NIMl1bQ0BASF0oTjEyKWMzYyhbQ0gyXVtDSDJdMilbY0hdYyhbT0hdKWMoW09IXSlbY0hdMw==

>  <s_epik_cmdline>  (131) 
J2VwaWtfcHl0aG9uJywgJy1waHQnLCAnMi4wJywgJy1waCcsICc3LjAnLCAnLXRuJywgJzgnLCAnLW1hJywgJzIwMCcsICctaW1hZScsICc8aW5maWxlLm1hZT4nLCAnLW9tYWUnLCAnPG91dGZpbGUubWFlPic=

>  <r_epik_Ionization_Penalty>  (131) 
2.17648

>  <r_epik_Ionization_Penalty_Charging>  (131) 
0

>  <r_epik_Ionization_Penalty_Neutral>  (131) 
2.17648

>  <r_epik_State_Penalty>  (131) 
2.33861

>  <r_epik_Charging_Adjusted_Penalty>  (131) 
2.33861

>  <i_epik_Tot_Q>  (131) 
0

>  <i_epik_Tot_abs_Q>  (131) 
0

>  <s_lp_Force_Field>  (131) 
OPLS3e

>  <r_lp_Energy>  (131) 
23.401

>  <b_lp_Chiralities_Consistent>  (131) 
1

>  <s_lp_Variant>  (131) 
47:0-3

>  <s_i_glide_gridfile>  (131) 
pfpi4k_grid

>  <i_i_glide_lignum>  (131) 
25

>  <i_i_glide_rotatable_bonds>  (131) 
5

>  <r_i_docking_score>  (131) 
-4.80206

>  <r_i_glide_ligand_efficiency>  (131) 
-0.25274

>  <r_i_glide_ligand_efficiency_sa>  (131) 
-0.674412

>  <r_i_glide_ligand_efficiency_ln>  (131) 
-1.21743

>  <r_i_glide_gscore>  (131) 
-4.80206

>  <r_i_glide_lipo>  (131) 
-0.805881

>  <r_i_glide_hbond>  (131) 
0

>  <r_i_glide_metal>  (131) 
-0

>  <r_i_glide_rewards>  (131) 
-1.60019

>  <r_i_glide_evdw>  (131) 
1.28052

>  <r_i_glide_ecoul>  (131) 
-17.5798

>  <r_i_glide_erotb>  (131) 
0.176955

>  <r_i_glide_esite>  (131) 
0

>  <r_i_glide_emodel>  (131) 
-21.5231

>  <r_i_glide_energy>  (131) 
-16.2992

>  <r_i_glide_einternal>  (131) 
4.64653

>  <r_i_glide_intrahb_reward>  (131) 
-0

>  <i_i_glide_confnum>  (131) 
6

>  <i_i_glide_posenum>  (131) 
13

>  <r_i_glide_eff_state_penalty>  (131) 
0

>  <ligand_id>  (131) 
47

>  <original_smiles>  (131) 
OCC1CN2CCc3cc(O)c(O)cc3C2CC1O

>  <smiles>  (131) 
[H]Oc1c([H])c2c(c([H])c1O[H])C1([H])N(C([H])([H])C2([H])[H])C([H])([H])C([H])(C([H])([H])O[H])C([H])(O[H])C1([H])[H]

$$$$
47:2:1
     RDKit          3D

 38 40  0  0  1  0  0  0  0  0999 V2000
    4.2967   -0.4349   -2.9633 O   0  0  0  0  0  0  0  0  0  0  0  0
    4.9960   -1.4324   -2.2447 C   0  0  0  0  0  0  0  0  0  0  0  0
    4.1028   -2.1755   -1.2280 C   0  0  2  0  0  0  0  0  0  0  0  0
    4.9557   -2.9815   -0.2257 C   0  0  0  0  0  0  0  0  0  0  0  0
    4.1220   -3.6556    0.7716 N   0  0  0  0  0  0  0  0  0  0  0  0
    4.9763   -4.3147    1.7541 C   0  0  0  0  0  0  0  0  0  0  0  0
    4.1167   -4.7898    2.9406 C   0  0  0  0  0  0  0  0  0  0  0  0
    2.8970   -5.5734    2.5014 C   0  0  0  0  0  0  0  0  0  0  0  0
    2.2103   -6.3794    3.4372 C   0  0  0  0  0  0  0  0  0  0  0  0
    1.0874   -7.1226    3.0357 C   0  0  0  0  0  0  0  0  0  0  0  0
    0.4400   -7.9157    3.9364 O   0  0  0  0  0  0  0  0  0  0  0  0
    0.6497   -7.0732    1.6999 C   0  0  0  0  0  0  0  0  0  0  0  0
   -0.4260   -7.8171    1.3098 O   0  0  0  0  0  0  0  0  0  0  0  0
    1.3371   -6.2609    0.7661 C   0  0  0  0  0  0  0  0  0  0  0  0
    2.4563   -5.4971    1.1620 C   0  0  0  0  0  0  0  0  0  0  0  0
    3.2417   -4.6553    0.1395 C   0  0  1  0  0  0  0  0  0  0  0  0
    2.3230   -3.9070   -0.8469 C   0  0  0  0  0  0  0  0  0  0  0  0
    3.1319   -3.1588   -1.9045 C   0  0  1  0  0  0  0  0  0  0  0  0
    2.2210   -2.4777   -2.7248 O   0  0  0  0  0  0  0  0  0  0  0  0
    3.6840   -0.0003   -2.3796 H   0  0  0  0  0  0  0  0  0  0  0  0
    5.4317   -2.1368   -2.9547 H   0  0  0  0  0  0  0  0  0  0  0  0
    5.8242   -0.9483   -1.7278 H   0  0  0  0  0  0  0  0  0  0  0  0
    3.5375   -1.4330   -0.6604 H   0  0  0  0  0  0  0  0  0  0  0  0
    5.5749   -3.7120   -0.7494 H   0  0  0  0  0  0  0  0  0  0  0  0
    5.6347   -2.3032    0.2896 H   0  0  0  0  0  0  0  0  0  0  0  0
    5.5049   -5.1526    1.2953 H   0  0  0  0  0  0  0  0  0  0  0  0
    5.7392   -3.6243    2.1288 H   0  0  0  0  0  0  0  0  0  0  0  0
    4.7204   -5.4128    3.6011 H   0  0  0  0  0  0  0  0  0  0  0  0
    3.7807   -3.9346    3.5299 H   0  0  0  0  0  0  0  0  0  0  0  0
    2.5512   -6.4401    4.4580 H   0  0  0  0  0  0  0  0  0  0  0  0
   -0.1776   -8.4925    3.5062 H   0  0  0  0  0  0  0  0  0  0  0  0
   -0.2223   -8.4798    0.6514 H   0  0  0  0  0  0  0  0  0  0  0  0
    1.0040   -6.2590   -0.2560 H   0  0  0  0  0  0  0  0  0  0  0  0
    3.8700   -5.3545   -0.4180 H   0  0  0  0  0  0  0  0  0  0  0  0
    1.6587   -4.5902   -1.3779 H   0  0  0  0  0  0  0  0  0  0  0  0
    1.6995   -3.1934   -0.3150 H   0  0  0  0  0  0  0  0  0  0  0  0
    3.6751   -3.8652   -2.5306 H   0  0  0  0  0  0  0  0  0  0  0  0
    1.7416   -1.8592   -2.1791 H   0  0  0  0  0  0  0  0  0  0  0  0
  1  2  1  0
  1 20  1  0
  2  3  1  0
  2 21  1  0
  2 22  1  0
  3 18  1  0
  3  4  1  0
  3 23  1  1
  4  5  1  0
  4 24  1  0
  4 25  1  0
  5 16  1  0
  5  6  1  0
  6  7  1  0
  6 26  1  0
  6 27  1  0
  7  8  1  0
  7 28  1  0
  7 29  1  0
  8 15  2  0
  8  9  1  0
  9 10  2  0
  9 30  1  0
 10 11  1  0
 10 12  1  0
 11 31  1  0
 12 13  1  0
 12 14  2  0
 13 32  1  0
 14 15  1  0
 14 33  1  0
 15 16  1  0
 16 17  1  0
 16 34  1  6
 17 18  1  0
 17 35  1  0
 17 36  1  0
 18 19  1  0
 18 37  1  6
 19 38  1  0
M  END
>  <i_m_ct_stereo_status>  (132) 
1

>  <s_m_source_file>  (132) 
/var/tmp/pbs.5076255.sched01/tmpmalnbme9/37wob9dpop.sdf

>  <i_m_source_file_index>  (132) 
25

>  <i_lp_mmshare_version>  (132) 
48012

>  <i_f3d_flags>  (132) 
0

>  <s_epik_input>  (132) 
W09IXVtDSDJdW0NASF0oW0NIMl0xKVtDQEhdKFtPSF0pW0NIMl1bQ0BASF0oTjEyKWMzYyhbQ0gyXVtDSDJdMilbY0hdYyhbT0hdKWMoW09IXSlbY0hdMw==

>  <s_epik_cmdline>  (132) 
J2VwaWtfcHl0aG9uJywgJy1waHQnLCAnMi4wJywgJy1waCcsICc3LjAnLCAnLXRuJywgJzgnLCAnLW1hJywgJzIwMCcsICctaW1hZScsICc8aW5maWxlLm1hZT4nLCAnLW9tYWUnLCAnPG91dGZpbGUubWFlPic=

>  <r_epik_Ionization_Penalty>  (132) 
2.17648

>  <r_epik_Ionization_Penalty_Charging>  (132) 
0

>  <r_epik_Ionization_Penalty_Neutral>  (132) 
2.17648

>  <r_epik_State_Penalty>  (132) 
2.33861

>  <r_epik_Charging_Adjusted_Penalty>  (132) 
2.33861

>  <i_epik_Tot_Q>  (132) 
0

>  <i_epik_Tot_abs_Q>  (132) 
0

>  <s_lp_Force_Field>  (132) 
OPLS3e

>  <r_lp_Energy>  (132) 
23.401

>  <b_lp_Chiralities_Consistent>  (132) 
1

>  <s_lp_Variant>  (132) 
47:0-3

>  <s_i_glide_gridfile>  (132) 
pfpi4k_grid

>  <i_i_glide_lignum>  (132) 
25

>  <i_i_glide_rotatable_bonds>  (132) 
5

>  <r_i_docking_score>  (132) 
-3.53578

>  <r_i_glide_ligand_efficiency>  (132) 
-0.186094

>  <r_i_glide_ligand_efficiency_sa>  (132) 
-0.496573

>  <r_i_glide_ligand_efficiency_ln>  (132) 
-0.896396

>  <r_i_glide_gscore>  (132) 
-3.53578

>  <r_i_glide_lipo>  (132) 
-0.0507423

>  <r_i_glide_hbond>  (132) 
0

>  <r_i_glide_metal>  (132) 
-0

>  <r_i_glide_rewards>  (132) 
-1.60019

>  <r_i_glide_evdw>  (132) 
-17.9375

>  <r_i_glide_ecoul>  (132) 
-8.27176

>  <r_i_glide_erotb>  (132) 
0.252793

>  <r_i_glide_esite>  (132) 
0

>  <r_i_glide_emodel>  (132) 
-29.445

>  <r_i_glide_energy>  (132) 
-26.2092

>  <r_i_glide_einternal>  (132) 
4.49325

>  <r_i_glide_intrahb_reward>  (132) 
-0

>  <i_i_glide_confnum>  (132) 
6

>  <i_i_glide_posenum>  (132) 
21

>  <r_i_glide_eff_state_penalty>  (132) 
0

>  <ligand_id>  (132) 
47

>  <original_smiles>  (132) 
OCC1CN2CCc3cc(O)c(O)cc3C2CC1O

>  <smiles>  (132) 
[H]Oc1c([H])c2c(c([H])c1O[H])C1([H])N(C([H])([H])C2([H])[H])C([H])([H])C([H])(C([H])([H])O[H])C([H])(O[H])C1([H])[H]

$$$$
47:2:2
     RDKit          3D

 38 40  0  0  1  0  0  0  0  0999 V2000
    3.5423    0.5003   -4.1258 O   0  0  0  0  0  0  0  0  0  0  0  0
    4.3397   -0.2272   -3.2075 C   0  0  0  0  0  0  0  0  0  0  0  0
    3.5452   -1.0927   -2.1968 C   0  0  2  0  0  0  0  0  0  0  0  0
    4.3515   -1.2417   -0.8832 C   0  0  0  0  0  0  0  0  0  0  0  0
    3.5870   -1.9959    0.1126 N   0  0  0  0  0  0  0  0  0  0  0  0
    4.3228   -2.0415    1.3771 C   0  0  0  0  0  0  0  0  0  0  0  0
    3.3940   -2.5853    2.4784 C   0  0  0  0  0  0  0  0  0  0  0  0
    2.7100   -3.8768    2.0801 C   0  0  0  0  0  0  0  0  0  0  0  0
    2.1313   -4.6978    3.0703 C   0  0  0  0  0  0  0  0  0  0  0  0
    1.4877   -5.9029    2.7203 C   0  0  0  0  0  0  0  0  0  0  0  0
    0.9064   -6.6439    3.6991 O   0  0  0  0  0  0  0  0  0  0  0  0
    1.4276   -6.2777    1.3606 C   0  0  0  0  0  0  0  0  0  0  0  0
    0.7637   -7.3938    0.9549 O   0  0  0  0  0  0  0  0  0  0  0  0
    2.0129   -5.4603    0.3755 C   0  0  0  0  0  0  0  0  0  0  0  0
    2.6476   -4.2434    0.7141 C   0  0  0  0  0  0  0  0  0  0  0  0
    3.3031   -3.3685   -0.3606 C   0  0  1  0  0  0  0  0  0  0  0  0
    2.4712   -3.2850   -1.6680 C   0  0  0  0  0  0  0  0  0  0  0  0
    3.2096   -2.4967   -2.7367 C   0  0  1  0  0  0  0  0  0  0  0  0
    2.3780   -2.4675   -3.8664 O   0  0  0  0  0  0  0  0  0  0  0  0
    2.9798    1.0995   -3.6341 H   0  0  0  0  0  0  0  0  0  0  0  0
    5.0107   -0.8799   -3.7605 H   0  0  0  0  0  0  0  0  0  0  0  0
    4.9685    0.5137   -2.7078 H   0  0  0  0  0  0  0  0  0  0  0  0
    2.6104   -0.6058   -1.9570 H   0  0  0  0  0  0  0  0  0  0  0  0
    5.3082   -1.7353   -1.0569 H   0  0  0  0  0  0  0  0  0  0  0  0
    4.5787   -0.2639   -0.4556 H   0  0  0  0  0  0  0  0  0  0  0  0
    5.2150   -2.6633    1.2644 H   0  0  0  0  0  0  0  0  0  0  0  0
    4.6569   -1.0456    1.6597 H   0  0  0  0  0  0  0  0  0  0  0  0
    3.9764   -2.7730    3.3770 H   0  0  0  0  0  0  0  0  0  0  0  0
    2.6342   -1.8496    2.7323 H   0  0  0  0  0  0  0  0  0  0  0  0
    2.1706   -4.4036    4.1097 H   0  0  0  0  0  0  0  0  0  0  0  0
    0.6653   -7.5238    3.4505 H   0  0  0  0  0  0  0  0  0  0  0  0
    0.6232   -8.0755    1.5951 H   0  0  0  0  0  0  0  0  0  0  0  0
    1.9419   -5.7741   -0.6540 H   0  0  0  0  0  0  0  0  0  0  0  0
    4.2606   -3.8353   -0.5856 H   0  0  0  0  0  0  0  0  0  0  0  0
    2.2540   -4.2567   -2.0781 H   0  0  0  0  0  0  0  0  0  0  0  0
    1.4896   -2.8545   -1.5052 H   0  0  0  0  0  0  0  0  0  0  0  0
    4.1367   -2.9977   -3.0208 H   0  0  0  0  0  0  0  0  0  0  0  0
    1.6552   -1.8799   -3.6912 H   0  0  0  0  0  0  0  0  0  0  0  0
  1  2  1  0
  1 20  1  0
  2  3  1  0
  2 21  1  0
  2 22  1  0
  3 18  1  0
  3  4  1  0
  3 23  1  1
  4  5  1  0
  4 24  1  0
  4 25  1  0
  5 16  1  0
  5  6  1  0
  6  7  1  0
  6 26  1  0
  6 27  1  0
  7  8  1  0
  7 28  1  0
  7 29  1  0
  8 15  2  0
  8  9  1  0
  9 10  2  0
  9 30  1  0
 10 11  1  0
 10 12  1  0
 11 31  1  0
 12 13  1  0
 12 14  2  0
 13 32  1  0
 14 15  1  0
 14 33  1  0
 15 16  1  0
 16 17  1  0
 16 34  1  6
 17 18  1  0
 17 35  1  0
 17 36  1  0
 18 19  1  0
 18 37  1  6
 19 38  1  0
M  END
>  <i_m_ct_stereo_status>  (133) 
1

>  <s_m_source_file>  (133) 
/var/tmp/pbs.5076255.sched01/tmpmalnbme9/37wob9dpop.sdf

>  <i_m_source_file_index>  (133) 
25

>  <i_lp_mmshare_version>  (133) 
48012

>  <i_f3d_flags>  (133) 
0

>  <s_epik_input>  (133) 
W09IXVtDSDJdW0NASF0oW0NIMl0xKVtDQEhdKFtPSF0pW0NIMl1bQ0BASF0oTjEyKWMzYyhbQ0gyXVtDSDJdMilbY0hdYyhbT0hdKWMoW09IXSlbY0hdMw==

>  <s_epik_cmdline>  (133) 
J2VwaWtfcHl0aG9uJywgJy1waHQnLCAnMi4wJywgJy1waCcsICc3LjAnLCAnLXRuJywgJzgnLCAnLW1hJywgJzIwMCcsICctaW1hZScsICc8aW5maWxlLm1hZT4nLCAnLW9tYWUnLCAnPG91dGZpbGUubWFlPic=

>  <r_epik_Ionization_Penalty>  (133) 
2.17648

>  <r_epik_Ionization_Penalty_Charging>  (133) 
0

>  <r_epik_Ionization_Penalty_Neutral>  (133) 
2.17648

>  <r_epik_State_Penalty>  (133) 
2.33861

>  <r_epik_Charging_Adjusted_Penalty>  (133) 
2.33861

>  <i_epik_Tot_Q>  (133) 
0

>  <i_epik_Tot_abs_Q>  (133) 
0

>  <s_lp_Force_Field>  (133) 
OPLS3e

>  <r_lp_Energy>  (133) 
23.401

>  <b_lp_Chiralities_Consistent>  (133) 
1

>  <s_lp_Variant>  (133) 
47:0-3

>  <s_i_glide_gridfile>  (133) 
pfpi4k_grid

>  <i_i_glide_lignum>  (133) 
25

>  <i_i_glide_rotatable_bonds>  (133) 
5

>  <r_i_docking_score>  (133) 
-3.35761

>  <r_i_glide_ligand_efficiency>  (133) 
-0.176716

>  <r_i_glide_ligand_efficiency_sa>  (133) 
-0.47155

>  <r_i_glide_ligand_efficiency_ln>  (133) 
-0.851226

>  <r_i_glide_gscore>  (133) 
-3.35761

>  <r_i_glide_lipo>  (133) 
-0.320023

>  <r_i_glide_hbond>  (133) 
0

>  <r_i_glide_metal>  (133) 
-0

>  <r_i_glide_rewards>  (133) 
-1.60019

>  <r_i_glide_evdw>  (133) 
-16.1932

>  <r_i_glide_ecoul>  (133) 
-5.87017

>  <r_i_glide_erotb>  (133) 
0.252793

>  <r_i_glide_esite>  (133) 
0

>  <r_i_glide_emodel>  (133) 
-27.1736

>  <r_i_glide_energy>  (133) 
-22.0633

>  <r_i_glide_einternal>  (133) 
1.51676

>  <r_i_glide_intrahb_reward>  (133) 
-0

>  <i_i_glide_confnum>  (133) 
6

>  <i_i_glide_posenum>  (133) 
1

>  <r_i_glide_eff_state_penalty>  (133) 
0

>  <ligand_id>  (133) 
47

>  <original_smiles>  (133) 
OCC1CN2CCc3cc(O)c(O)cc3C2CC1O

>  <smiles>  (133) 
[H]Oc1c([H])c2c(c([H])c1O[H])C1([H])N(C([H])([H])C2([H])[H])C([H])([H])C([H])(C([H])([H])O[H])C([H])(O[H])C1([H])[H]

$$$$
47:3:0
     RDKit          3D

 38 40  0  0  1  0  0  0  0  0999 V2000
    4.5236   -1.4227   -4.3263 O   0  0  0  0  0  0  0  0  0  0  0  0
    3.6162   -0.5607   -3.7608 C   0  0  0  0  0  0  0  0  0  0  0  0
    3.0689   -1.3179   -2.5544 C   0  0  2  0  0  0  0  0  0  0  0  0
    3.9857   -1.2912   -1.3064 C   0  0  0  0  0  0  0  0  0  0  0  0
    3.3818   -1.9959   -0.1483 N   0  0  2  0  0  0  0  0  0  0  0  0
    4.2113   -1.8650    1.0682 C   0  0  0  0  0  0  0  0  0  0  0  0
    3.4627   -2.3944    2.3046 C   0  0  0  0  0  0  0  0  0  0  0  0
    2.8416   -3.7501    2.0767 C   0  0  0  0  0  0  0  0  0  0  0  0
    2.4464   -4.5190    3.1927 C   0  0  0  0  0  0  0  0  0  0  0  0
    1.8310   -5.7894    3.0257 C   0  0  0  0  0  0  0  0  0  0  0  0
    1.4143   -6.5299    4.1069 O   0  0  0  0  0  0  0  0  0  0  0  0
    1.6521   -6.2678    1.7026 C   0  0  0  0  0  0  0  0  0  0  0  0
    1.0753   -7.4796    1.5267 O   0  0  0  0  0  0  0  0  0  0  0  0
    2.0523   -5.5068    0.5936 C   0  0  0  0  0  0  0  0  0  0  0  0
    2.6353   -4.2335    0.7651 C   0  0  0  0  0  0  0  0  0  0  0  0
    3.0625   -3.4158   -0.4605 C   0  0  1  0  0  0  0  0  0  0  0  0
    2.0315   -3.4586   -1.6148 C   0  0  0  0  0  0  0  0  0  0  0  0
    2.6188   -2.7770   -2.8644 C   0  0  1  0  0  0  0  0  0  0  0  0
    1.7016   -2.7675   -3.9242 O   0  0  0  0  0  0  0  0  0  0  0  0
    5.1064   -0.9167   -4.8608 H   0  0  0  0  0  0  0  0  0  0  0  0
    4.0824    0.3798   -3.4698 H   0  0  0  0  0  0  0  0  0  0  0  0
    2.8493   -0.3483   -4.5068 H   0  0  0  0  0  0  0  0  0  0  0  0
    2.2130   -0.6936   -2.3497 H   0  0  0  0  0  0  0  0  0  0  0  0
    4.9356   -1.7571   -1.5552 H   0  0  0  0  0  0  0  0  0  0  0  0
    4.2033   -0.2615   -1.0186 H   0  0  0  0  0  0  0  0  0  0  0  0
    5.1424   -2.4150    0.9268 H   0  0  0  0  0  0  0  0  0  0  0  0
    4.4788   -0.8197    1.2368 H   0  0  0  0  0  0  0  0  0  0  0  0
    4.1712   -2.4677    3.1360 H   0  0  0  0  0  0  0  0  0  0  0  0
    2.6894   -1.6932    2.6279 H   0  0  0  0  0  0  0  0  0  0  0  0
    2.5968   -4.1463    4.1927 H   0  0  0  0  0  0  0  0  0  0  0  0
    1.0177   -7.8731    2.3903 H   0  0  0  0  0  0  0  0  0  0  0  0
    1.8908   -5.9228   -0.3756 H   0  0  0  0  0  0  0  0  0  0  0  0
    3.9905   -3.8749   -0.8030 H   0  0  0  0  0  0  0  0  0  0  0  0
    1.7669   -4.4691   -1.8858 H   0  0  0  0  0  0  0  0  0  0  0  0
    1.0646   -3.0570   -1.3398 H   0  0  0  0  0  0  0  0  0  0  0  0
    3.4707   -3.3937   -3.1797 H   0  0  0  0  0  0  0  0  0  0  0  0
    1.2110   -3.5871   -3.9192 H   0  0  0  0  0  0  0  0  0  0  0  0
    2.4989   -1.5442    0.0226 H   0  0  0  0  0  0  0  0  0  0  0  0
  1  2  1  0
  1 20  1  0
  2  3  1  0
  2 21  1  0
  2 22  1  0
  3 18  1  0
  3  4  1  0
  3 23  1  1
  4  5  1  0
  4 24  1  0
  4 25  1  0
  5 16  1  0
  5  6  1  0
  5 38  1  1
  6  7  1  0
  6 26  1  0
  6 27  1  0
  7  8  1  0
  7 28  1  0
  7 29  1  0
  8 15  2  0
  8  9  1  0
  9 10  2  0
  9 30  1  0
 10 11  1  0
 10 12  1  0
 12 13  1  0
 12 14  2  0
 13 31  1  0
 14 15  1  0
 14 32  1  0
 15 16  1  0
 16 17  1  0
 16 33  1  6
 17 18  1  0
 17 34  1  0
 17 35  1  0
 18 19  1  0
 18 36  1  6
 19 37  1  0
M  CHG  2   5   1  11  -1
M  END
>  <i_m_ct_stereo_status>  (134) 
1

>  <s_m_source_file>  (134) 
/var/tmp/pbs.5076255.sched01/tmpmalnbme9/37wob9dpop.sdf

>  <i_m_source_file_index>  (134) 
26

>  <i_lp_mmshare_version>  (134) 
48012

>  <i_f3d_flags>  (134) 
0

>  <s_epik_input>  (134) 
W09IXVtDSDJdW0NASF0oW0NIMl0xKVtDQEhdKFtPSF0pW0NIMl1bQ0BASF0oTjEyKWMzYyhbQ0gyXVtDSDJdMilbY0hdYyhbT0hdKWMoW09IXSlbY0hdMw==

>  <s_epik_cmdline>  (134) 
J2VwaWtfcHl0aG9uJywgJy1waHQnLCAnMi4wJywgJy1waCcsICc3LjAnLCAnLXRuJywgJzgnLCAnLW1hJywgJzIwMCcsICctaW1hZScsICc8aW5maWxlLm1hZT4nLCAnLW9tYWUnLCAnPG91dGZpbGUubWFlPic=

>  <r_epik_Ionization_Penalty>  (134) 
2.40172

>  <r_epik_Ionization_Penalty_Charging>  (134) 
2.40163

>  <r_epik_Ionization_Penalty_Neutral>  (134) 
8.891e-05

>  <r_epik_State_Penalty>  (134) 
2.57141

>  <r_epik_Charging_Adjusted_Penalty>  (134) 
4.97305

>  <i_epik_Tot_Q>  (134) 
0

>  <i_epik_Tot_abs_Q>  (134) 
2

>  <s_lp_Force_Field>  (134) 
OPLS3e

>  <r_lp_Energy>  (134) 
23.2123

>  <b_lp_Chiralities_Consistent>  (134) 
1

>  <s_lp_Variant>  (134) 
47:0-4

>  <s_i_glide_gridfile>  (134) 
pfpi4k_grid

>  <i_i_glide_lignum>  (134) 
26

>  <i_i_glide_rotatable_bonds>  (134) 
4

>  <r_i_docking_score>  (134) 
-4.21417

>  <r_i_glide_ligand_efficiency>  (134) 
-0.221798

>  <r_i_glide_ligand_efficiency_sa>  (134) 
-0.591847

>  <r_i_glide_ligand_efficiency_ln>  (134) 
-1.06838

>  <r_i_glide_gscore>  (134) 
-4.21417

>  <r_i_glide_lipo>  (134) 
-0.394078

>  <r_i_glide_hbond>  (134) 
-0.18002

>  <r_i_glide_metal>  (134) 
-0

>  <r_i_glide_rewards>  (134) 
-1.90019

>  <r_i_glide_evdw>  (134) 
-13.9122

>  <r_i_glide_ecoul>  (134) 
-8.16457

>  <r_i_glide_erotb>  (134) 
0.252793

>  <r_i_glide_esite>  (134) 
-0.0723759

>  <r_i_glide_emodel>  (134) 
-28.08

>  <r_i_glide_energy>  (134) 
-22.0767

>  <r_i_glide_einternal>  (134) 
3.82716

>  <r_i_glide_intrahb_reward>  (134) 
-0

>  <i_i_glide_confnum>  (134) 
2

>  <i_i_glide_posenum>  (134) 
18

>  <r_i_glide_eff_state_penalty>  (134) 
0

>  <ligand_id>  (134) 
47

>  <original_smiles>  (134) 
OCC1CN2CCc3cc(O)c(O)cc3C2CC1O

>  <smiles>  (134) 
[H]Oc1c([H])c2c(c([H])c1[O-])C([H])([H])C([H])([H])[N+]1([H])C([H])([H])C([H])(C([H])([H])O[H])C([H])(O[H])C([H])([H])C21[H]

$$$$
47:3:1
     RDKit          3D

 38 40  0  0  1  0  0  0  0  0999 V2000
    3.5713    0.1338   -4.1510 O   0  0  0  0  0  0  0  0  0  0  0  0
    4.3733   -0.4792   -3.1560 C   0  0  0  0  0  0  0  0  0  0  0  0
    3.5277   -1.1684   -2.0686 C   0  0  2  0  0  0  0  0  0  0  0  0
    4.1572   -0.9922   -0.6592 C   0  0  0  0  0  0  0  0  0  0  0  0
    3.3765   -1.6959    0.3972 N   0  0  2  0  0  0  0  0  0  0  0  0
    3.8917   -1.4210    1.7629 C   0  0  0  0  0  0  0  0  0  0  0  0
    2.9257   -1.9658    2.8281 C   0  0  0  0  0  0  0  0  0  0  0  0
    2.4882   -3.3925    2.5608 C   0  0  0  0  0  0  0  0  0  0  0  0
    1.9126   -4.1451    3.6097 C   0  0  0  0  0  0  0  0  0  0  0  0
    1.4756   -5.4630    3.3894 C   0  0  0  0  0  0  0  0  0  0  0  0
    0.8809   -6.1773    4.3869 O   0  0  0  0  0  0  0  0  0  0  0  0
    1.6469   -6.0349    2.1146 C   0  0  0  0  0  0  0  0  0  0  0  0
    1.2485   -7.3140    1.9024 O   0  0  0  0  0  0  0  0  0  0  0  0
    2.2224   -5.2938    1.0690 C   0  0  0  0  0  0  0  0  0  0  0  0
    2.6304   -3.9573    1.2685 C   0  0  0  0  0  0  0  0  0  0  0  0
    3.2754   -3.1592    0.1258 C   0  0  1  0  0  0  0  0  0  0  0  0
    2.5738   -3.3559   -1.2335 C   0  0  0  0  0  0  0  0  0  0  0  0
    3.3410   -2.6702   -2.3710 C   0  0  1  0  0  0  0  0  0  0  0  0
    2.6488   -2.8853   -3.5857 O   0  0  0  0  0  0  0  0  0  0  0  0
    3.0040    0.7805   -3.7415 H   0  0  0  0  0  0  0  0  0  0  0  0
    5.0197   -1.2094   -3.6389 H   0  0  0  0  0  0  0  0  0  0  0  0
    5.0114    0.2846   -2.7157 H   0  0  0  0  0  0  0  0  0  0  0  0
    2.5555   -0.6838   -2.0467 H   0  0  0  0  0  0  0  0  0  0  0  0
    5.1826   -1.3643   -0.6547 H   0  0  0  0  0  0  0  0  0  0  0  0
    4.2125    0.0684   -0.3997 H   0  0  0  0  0  0  0  0  0  0  0  0
    4.8770   -1.8807    1.8735 H   0  0  0  0  0  0  0  0  0  0  0  0
    4.0228   -0.3468    1.9104 H   0  0  0  0  0  0  0  0  0  0  0  0
    3.4213   -1.9241    3.7999 H   0  0  0  0  0  0  0  0  0  0  0  0
    2.0410   -1.3304    2.9103 H   0  0  0  0  0  0  0  0  0  0  0  0
    1.7985   -3.6989    4.5869 H   0  0  0  0  0  0  0  0  0  0  0  0
    1.0087   -7.6639    2.7518 H   0  0  0  0  0  0  0  0  0  0  0  0
    2.3456   -5.7785    0.1166 H   0  0  0  0  0  0  0  0  0  0  0  0
    4.2964   -3.5371    0.0479 H   0  0  0  0  0  0  0  0  0  0  0  0
    2.5263   -4.4012   -1.4668 H   0  0  0  0  0  0  0  0  0  0  0  0
    1.5282   -3.0541   -1.2069 H   0  0  0  0  0  0  0  0  0  0  0  0
    4.3203   -3.1449   -2.4676 H   0  0  0  0  0  0  0  0  0  0  0  0
    1.7674   -2.5475   -3.5041 H   0  0  0  0  0  0  0  0  0  0  0  0
    2.4323   -1.3298    0.3454 H   0  0  0  0  0  0  0  0  0  0  0  0
  1  2  1  0
  1 20  1  0
  2  3  1  0
  2 21  1  0
  2 22  1  0
  3 18  1  0
  3  4  1  0
  3 23  1  1
  4  5  1  0
  4 24  1  0
  4 25  1  0
  5 16  1  0
  5  6  1  0
  5 38  1  1
  6  7  1  0
  6 26  1  0
  6 27  1  0
  7  8  1  0
  7 28  1  0
  7 29  1  0
  8 15  2  0
  8  9  1  0
  9 10  2  0
  9 30  1  0
 10 11  1  0
 10 12  1  0
 12 13  1  0
 12 14  2  0
 13 31  1  0
 14 15  1  0
 14 32  1  0
 15 16  1  0
 16 17  1  0
 16 33  1  6
 17 18  1  0
 17 34  1  0
 17 35  1  0
 18 19  1  0
 18 36  1  6
 19 37  1  0
M  CHG  2   5   1  11  -1
M  END
>  <i_m_ct_stereo_status>  (135) 
1

>  <s_m_source_file>  (135) 
/var/tmp/pbs.5076255.sched01/tmpmalnbme9/37wob9dpop.sdf

>  <i_m_source_file_index>  (135) 
26

>  <i_lp_mmshare_version>  (135) 
48012

>  <i_f3d_flags>  (135) 
0

>  <s_epik_input>  (135) 
W09IXVtDSDJdW0NASF0oW0NIMl0xKVtDQEhdKFtPSF0pW0NIMl1bQ0BASF0oTjEyKWMzYyhbQ0gyXVtDSDJdMilbY0hdYyhbT0hdKWMoW09IXSlbY0hdMw==

>  <s_epik_cmdline>  (135) 
J2VwaWtfcHl0aG9uJywgJy1waHQnLCAnMi4wJywgJy1waCcsICc3LjAnLCAnLXRuJywgJzgnLCAnLW1hJywgJzIwMCcsICctaW1hZScsICc8aW5maWxlLm1hZT4nLCAnLW9tYWUnLCAnPG91dGZpbGUubWFlPic=

>  <r_epik_Ionization_Penalty>  (135) 
2.40172

>  <r_epik_Ionization_Penalty_Charging>  (135) 
2.40163

>  <r_epik_Ionization_Penalty_Neutral>  (135) 
8.891e-05

>  <r_epik_State_Penalty>  (135) 
2.57141

>  <r_epik_Charging_Adjusted_Penalty>  (135) 
4.97305

>  <i_epik_Tot_Q>  (135) 
0

>  <i_epik_Tot_abs_Q>  (135) 
2

>  <s_lp_Force_Field>  (135) 
OPLS3e

>  <r_lp_Energy>  (135) 
23.2123

>  <b_lp_Chiralities_Consistent>  (135) 
1

>  <s_lp_Variant>  (135) 
47:0-4

>  <s_i_glide_gridfile>  (135) 
pfpi4k_grid

>  <i_i_glide_lignum>  (135) 
26

>  <i_i_glide_rotatable_bonds>  (135) 
4

>  <r_i_docking_score>  (135) 
-4.02981

>  <r_i_glide_ligand_efficiency>  (135) 
-0.212095

>  <r_i_glide_ligand_efficiency_sa>  (135) 
-0.565956

>  <r_i_glide_ligand_efficiency_ln>  (135) 
-1.02164

>  <r_i_glide_gscore>  (135) 
-4.02981

>  <r_i_glide_lipo>  (135) 
-0.207194

>  <r_i_glide_hbond>  (135) 
-0.169579

>  <r_i_glide_metal>  (135) 
-0

>  <r_i_glide_rewards>  (135) 
-1.90019

>  <r_i_glide_evdw>  (135) 
-18.1978

>  <r_i_glide_ecoul>  (135) 
-6.87371

>  <r_i_glide_erotb>  (135) 
0.252793

>  <r_i_glide_esite>  (135) 
-0.0646961

>  <r_i_glide_emodel>  (135) 
-32.2314

>  <r_i_glide_energy>  (135) 
-25.0715

>  <r_i_glide_einternal>  (135) 
2.10608

>  <r_i_glide_intrahb_reward>  (135) 
-0

>  <i_i_glide_confnum>  (135) 
3

>  <i_i_glide_posenum>  (135) 
8

>  <r_i_glide_eff_state_penalty>  (135) 
0

>  <ligand_id>  (135) 
47

>  <original_smiles>  (135) 
OCC1CN2CCc3cc(O)c(O)cc3C2CC1O

>  <smiles>  (135) 
[H]Oc1c([H])c2c(c([H])c1[O-])C([H])([H])C([H])([H])[N+]1([H])C([H])([H])C([H])(C([H])([H])O[H])C([H])(O[H])C([H])([H])C21[H]

$$$$
47:3:2
     RDKit          3D

 38 40  0  0  1  0  0  0  0  0999 V2000
   -3.3668    4.2483    2.4925 O   0  0  0  0  0  0  0  0  0  0  0  0
   -2.9439    2.9080    2.6201 C   0  0  0  0  0  0  0  0  0  0  0  0
   -1.4388    2.8472    2.9875 C   0  0  2  0  0  0  0  0  0  0  0  0
   -0.7322    1.6257    2.3394 C   0  0  0  0  0  0  0  0  0  0  0  0
    0.6957    1.5174    2.7178 N   0  0  2  0  0  0  0  0  0  0  0  0
    1.3890    0.4369    1.9879 C   0  0  0  0  0  0  0  0  0  0  0  0
    2.9081    0.5041    2.2257 C   0  0  0  0  0  0  0  0  0  0  0  0
    3.2693    0.6615    3.6892 C   0  0  0  0  0  0  0  0  0  0  0  0
    4.5775    0.3731    4.0966 C   0  0  0  0  0  0  0  0  0  0  0  0
    4.9714    0.5246    5.4483 C   0  0  0  0  0  0  0  0  0  0  0  0
    6.2772    0.2475    5.8013 O   0  0  0  0  0  0  0  0  0  0  0  0
    4.0005    0.9613    6.4011 C   0  0  0  0  0  0  0  0  0  0  0  0
    4.3503    1.0995    7.7175 O   0  0  0  0  0  0  0  0  0  0  0  0
    2.6978    1.2411    5.9789 C   0  0  0  0  0  0  0  0  0  0  0  0
    2.3084    1.1192    4.6199 C   0  0  0  0  0  0  0  0  0  0  0  0
    0.8618    1.4016    4.1895 C   0  0  1  0  0  0  0  0  0  0  0  0
    0.2428    2.6449    4.8745 C   0  0  0  0  0  0  0  0  0  0  0  0
   -1.2441    2.7916    4.5174 C   0  0  1  0  0  0  0  0  0  0  0  0
   -1.7618    3.9505    5.1391 O   0  0  0  0  0  0  0  0  0  0  0  0
   -2.8927    4.6233    1.7555 H   0  0  0  0  0  0  0  0  0  0  0  0
   -3.5489    2.4390    3.3959 H   0  0  0  0  0  0  0  0  0  0  0  0
   -3.1608    2.3799    1.6917 H   0  0  0  0  0  0  0  0  0  0  0  0
   -0.9435    3.7416    2.6087 H   0  0  0  0  0  0  0  0  0  0  0  0
   -1.2629    0.7078    2.5985 H   0  0  0  0  0  0  0  0  0  0  0  0
   -0.7813    1.7268    1.2592 H   0  0  0  0  0  0  0  0  0  0  0  0
    1.0034   -0.5343    2.3083 H   0  0  0  0  0  0  0  0  0  0  0  0
    1.2047    0.5175    0.9153 H   0  0  0  0  0  0  0  0  0  0  0  0
    3.3719   -0.4118    1.8485 H   0  0  0  0  0  0  0  0  0  0  0  0
    3.3568    1.3254    1.6697 H   0  0  0  0  0  0  0  0  0  0  0  0
    5.3228    0.0414    3.3834 H   0  0  0  0  0  0  0  0  0  0  0  0
    3.6418    1.3998    8.2637 H   0  0  0  0  0  0  0  0  0  0  0  0
    1.9818    1.5454    6.7202 H   0  0  0  0  0  0  0  0  0  0  0  0
    0.2937    0.5264    4.5018 H   0  0  0  0  0  0  0  0  0  0  0  0
    0.2916    2.5550    5.9571 H   0  0  0  0  0  0  0  0  0  0  0  0
    0.7973    3.5513    4.6103 H   0  0  0  0  0  0  0  0  0  0  0  0
   -1.7872    1.9363    4.9209 H   0  0  0  0  0  0  0  0  0  0  0  0
   -2.7009    3.9321    5.0311 H   0  0  0  0  0  0  0  0  0  0  0  0
    1.1328    2.3761    2.4182 H   0  0  0  0  0  0  0  0  0  0  0  0
  1  2  1  0
  1 20  1  0
  2  3  1  0
  2 21  1  0
  2 22  1  0
  3 18  1  0
  3  4  1  0
  3 23  1  6
  4  5  1  0
  4 24  1  0
  4 25  1  0
  5 16  1  0
  5  6  1  0
  5 38  1  6
  6  7  1  0
  6 26  1  0
  6 27  1  0
  7  8  1  0
  7 28  1  0
  7 29  1  0
  8 15  2  0
  8  9  1  0
  9 10  2  0
  9 30  1  0
 10 11  1  0
 10 12  1  0
 12 13  1  0
 12 14  2  0
 13 31  1  0
 14 15  1  0
 14 32  1  0
 15 16  1  0
 16 17  1  0
 16 33  1  1
 17 18  1  0
 17 34  1  0
 17 35  1  0
 18 19  1  0
 18 36  1  1
 19 37  1  0
M  CHG  2   5   1  11  -1
M  END
>  <i_m_ct_stereo_status>  (136) 
1

>  <s_m_source_file>  (136) 
/var/tmp/pbs.5076255.sched01/tmpmalnbme9/37wob9dpop.sdf

>  <i_m_source_file_index>  (136) 
26

>  <i_lp_mmshare_version>  (136) 
48012

>  <i_f3d_flags>  (136) 
0

>  <s_epik_input>  (136) 
W09IXVtDSDJdW0NASF0oW0NIMl0xKVtDQEhdKFtPSF0pW0NIMl1bQ0BASF0oTjEyKWMzYyhbQ0gyXVtDSDJdMilbY0hdYyhbT0hdKWMoW09IXSlbY0hdMw==

>  <s_epik_cmdline>  (136) 
J2VwaWtfcHl0aG9uJywgJy1waHQnLCAnMi4wJywgJy1waCcsICc3LjAnLCAnLXRuJywgJzgnLCAnLW1hJywgJzIwMCcsICctaW1hZScsICc8aW5maWxlLm1hZT4nLCAnLW9tYWUnLCAnPG91dGZpbGUubWFlPic=

>  <r_epik_Ionization_Penalty>  (136) 
2.40172

>  <r_epik_Ionization_Penalty_Charging>  (136) 
2.40163

>  <r_epik_Ionization_Penalty_Neutral>  (136) 
8.891e-05

>  <r_epik_State_Penalty>  (136) 
2.57141

>  <r_epik_Charging_Adjusted_Penalty>  (136) 
4.97305

>  <i_epik_Tot_Q>  (136) 
0

>  <i_epik_Tot_abs_Q>  (136) 
2

>  <s_lp_Force_Field>  (136) 
OPLS3e

>  <r_lp_Energy>  (136) 
23.2123

>  <b_lp_Chiralities_Consistent>  (136) 
1

>  <s_lp_Variant>  (136) 
47:0-4

>  <s_i_glide_gridfile>  (136) 
pfpi4k_grid

>  <i_i_glide_lignum>  (136) 
26

>  <i_i_glide_rotatable_bonds>  (136) 
4

>  <r_i_docking_score>  (136) 
-3.07582

>  <r_i_glide_ligand_efficiency>  (136) 
-0.161885

>  <r_i_glide_ligand_efficiency_sa>  (136) 
-0.431975

>  <r_i_glide_ligand_efficiency_ln>  (136) 
-0.779786

>  <r_i_glide_gscore>  (136) 
-3.07582

>  <r_i_glide_lipo>  (136) 
-0.137565

>  <r_i_glide_hbond>  (136) 
0

>  <r_i_glide_metal>  (136) 
-0

>  <r_i_glide_rewards>  (136) 
-1.60019

>  <r_i_glide_evdw>  (136) 
-14.2004

>  <r_i_glide_ecoul>  (136) 
-5.57456

>  <r_i_glide_erotb>  (136) 
0.252793

>  <r_i_glide_esite>  (136) 
-0.0446486

>  <r_i_glide_emodel>  (136) 
-24.8725

>  <r_i_glide_energy>  (136) 
-19.775

>  <r_i_glide_einternal>  (136) 
2.27232

>  <r_i_glide_intrahb_reward>  (136) 
-0

>  <i_i_glide_confnum>  (136) 
6

>  <i_i_glide_posenum>  (136) 
17

>  <r_i_glide_eff_state_penalty>  (136) 
0

>  <ligand_id>  (136) 
47

>  <original_smiles>  (136) 
OCC1CN2CCc3cc(O)c(O)cc3C2CC1O

>  <smiles>  (136) 
[H]Oc1c([H])c2c(c([H])c1[O-])C([H])([H])C([H])([H])[N+]1([H])C([H])([H])C([H])(C([H])([H])O[H])C([H])(O[H])C([H])([H])C21[H]

$$$$
49:0:0
     RDKit          3D

 56 60  0  0  1  0  0  0  0  0999 V2000
    3.8350    0.0181   -4.0891 C   0  0  0  0  0  0  0  0  0  0  0  0
    4.5566   -0.7014   -3.1075 O   0  0  0  0  0  0  0  0  0  0  0  0
    3.8665   -1.1007   -1.9510 C   0  0  2  0  0  0  0  0  0  0  0  0
    4.5477   -0.5445   -0.8006 O   0  0  0  0  0  0  0  0  0  0  0  0
    4.6457   -1.3156    0.3999 C   0  0  1  0  0  0  0  0  0  0  0  0
    3.2150   -1.6551    0.7812 C   0  0  0  0  0  0  0  0  0  0  0  0
    2.6508   -2.7074    0.2418 C   0  0  0  0  0  0  0  0  0  0  0  0
    3.4553   -3.4656   -0.7408 C   0  0  1  0  0  0  0  0  0  0  0  0
    3.6722   -2.6961   -2.0761 C   0  0  1  0  0  0  0  0  0  0  0  0
    2.5355   -2.9838   -3.0790 C   0  0  0  0  0  0  0  0  0  0  0  0
    4.8466   -3.3265   -2.5966 O   0  0  0  0  0  0  0  0  0  0  0  0
    5.3824   -4.2275   -1.6219 C   0  0  0  0  0  0  0  0  0  0  0  0
    4.9008   -3.6892   -0.2606 C   0  0  1  0  0  0  0  0  0  0  0  0
    5.6202   -2.3803   -0.1141 C   0  0  0  0  0  0  0  0  0  0  0  0
    5.1518   -4.4974    1.0961 C   0  0  2  0  0  0  0  0  0  0  0  0
    6.3741   -5.4056    0.7850 C   0  0  0  0  0  0  0  0  0  0  0  0
    3.9573   -5.4293    1.3172 C   0  0  0  0  0  0  0  0  0  0  0  0
    3.2417   -5.5568    2.4546 C   0  0  0  0  0  0  0  0  0  0  0  0
    3.6533   -4.8783    3.6809 C   0  0  0  0  0  0  0  0  0  0  0  0
    2.8740   -4.6613    4.6063 O   0  0  0  0  0  0  0  0  0  0  0  0
    5.1385   -4.4655    3.7954 C   0  0  0  0  0  0  0  0  0  0  0  0
    5.3624   -3.6742    5.1263 C   0  0  0  0  0  0  0  0  0  0  0  0
    5.9634   -5.7627    3.9939 C   0  0  0  0  0  0  0  0  0  0  0  0
    5.5207   -3.6548    2.4693 C   0  0  2  0  0  0  0  0  0  0  0  0
    5.1346   -2.1117    2.7254 C   0  0  0  0  0  0  0  0  0  0  0  0
    5.3050   -0.9250    1.7052 C   0  0  0  0  0  0  0  0  0  0  0  0
    4.4937    0.2228   -4.9311 H   0  0  0  0  0  0  0  0  0  0  0  0
    3.4882    0.9648   -3.7085 H   0  0  0  0  0  0  0  0  0  0  0  0
    2.9736   -0.5251   -4.4710 H   0  0  0  0  0  0  0  0  0  0  0  0
    2.8598   -0.6631   -1.9198 H   0  0  0  0  0  0  0  0  0  0  0  0
    2.6884   -1.0202    1.4774 H   0  0  0  0  0  0  0  0  0  0  0  0
    1.6444   -2.9964    0.4325 H   0  0  0  0  0  0  0  0  0  0  0  0
    2.9479   -4.4048   -0.9377 H   0  0  0  0  0  0  0  0  0  0  0  0
    1.5927   -2.5362   -2.7507 H   0  0  0  0  0  0  0  0  0  0  0  0
    2.3500   -4.0459   -3.2173 H   0  0  0  0  0  0  0  0  0  0  0  0
    2.7631   -2.5972   -4.0771 H   0  0  0  0  0  0  0  0  0  0  0  0
    5.0205   -5.2377   -1.8202 H   0  0  0  0  0  0  0  0  0  0  0  0
    6.4615   -4.1988   -1.6965 H   0  0  0  0  0  0  0  0  0  0  0  0
    6.0965   -2.0427   -1.0370 H   0  0  0  0  0  0  0  0  0  0  0  0
    6.5315   -2.5014    0.4753 H   0  0  0  0  0  0  0  0  0  0  0  0
    7.2404   -4.8298    0.4533 H   0  0  0  0  0  0  0  0  0  0  0  0
    6.1392   -6.1293    0.0086 H   0  0  0  0  0  0  0  0  0  0  0  0
    6.7229   -6.0068    1.6135 H   0  0  0  0  0  0  0  0  0  0  0  0
    3.6568   -5.9915    0.4457 H   0  0  0  0  0  0  0  0  0  0  0  0
    2.3844   -6.2163    2.5021 H   0  0  0  0  0  0  0  0  0  0  0  0
    6.3843   -3.3091    5.2476 H   0  0  0  0  0  0  0  0  0  0  0  0
    5.1714   -4.3009    5.9988 H   0  0  0  0  0  0  0  0  0  0  0  0
    4.6891   -2.8230    5.2335 H   0  0  0  0  0  0  0  0  0  0  0  0
    7.0328   -5.5920    3.8421 H   0  0  0  0  0  0  0  0  0  0  0  0
    5.6445   -6.5725    3.3386 H   0  0  0  0  0  0  0  0  0  0  0  0
    5.8482   -6.1612    5.0024 H   0  0  0  0  0  0  0  0  0  0  0  0
    6.6094   -3.6163    2.4540 H   0  0  0  0  0  0  0  0  0  0  0  0
    4.1224   -2.0692    3.1324 H   0  0  0  0  0  0  0  0  0  0  0  0
    5.7590   -1.7666    3.5462 H   0  0  0  0  0  0  0  0  0  0  0  0
    6.3535   -0.6508    1.5648 H   0  0  0  0  0  0  0  0  0  0  0  0
    4.8194   -0.0386    2.1104 H   0  0  0  0  0  0  0  0  0  0  0  0
  1  2  1  0
  1 27  1  0
  1 28  1  0
  1 29  1  0
  2  3  1  0
  3  9  1  0
  3  4  1  0
  3 30  1  6
  4  5  1  0
  5 14  1  0
  5 26  1  1
  5  6  1  0
  6  7  2  0
  6 31  1  0
  7  8  1  0
  7 32  1  0
  8 13  1  0
  8  9  1  0
  8 33  1  6
  9 10  1  6
  9 11  1  0
 10 34  1  0
 10 35  1  0
 10 36  1  0
 11 12  1  0
 13 12  1  6
 12 37  1  0
 12 38  1  0
 13 14  1  0
 13 15  1  0
 14 39  1  0
 14 40  1  0
 15 24  1  0
 15 16  1  6
 15 17  1  0
 16 41  1  0
 16 42  1  0
 16 43  1  0
 17 18  2  0
 17 44  1  0
 18 19  1  0
 18 45  1  0
 19 20  2  0
 19 21  1  0
 21 22  1  0
 21 23  1  0
 21 24  1  0
 22 46  1  0
 22 47  1  0
 22 48  1  0
 23 49  1  0
 23 50  1  0
 23 51  1  0
 24 25  1  0
 24 52  1  1
 25 26  1  0
 25 53  1  0
 25 54  1  0
 26 55  1  0
 26 56  1  0
M  END
>  <i_m_ct_stereo_status>  (137) 
1

>  <s_m_source_file>  (137) 
/var/tmp/pbs.5076255.sched01/tmpmalnbme9/37wob9dpop.sdf

>  <i_m_source_file_index>  (137) 
28

>  <i_lp_mmshare_version>  (137) 
48012

>  <i_f3d_flags>  (137) 
0

>  <s_epik_input>  (137) 
W0NIM11PW0NASF0oT1tDQEBdMTIzKVtDQF00KFtDSDNdKVtDQEhdKFtDSF09W0NIXTEpW0NAQF0oW0NIMl1PNCkoW0NIMl0yKVtDQEBdNShbQ0gzXSlbQ0BASF0oW0NIMl1bQ0gyXTMpQyhbQ0gzXSkoW0NIM10pQyg9TylbQ0hdPVtDSF01

>  <s_epik_cmdline>  (137) 
J2VwaWtfcHl0aG9uJywgJy1waHQnLCAnMi4wJywgJy1waCcsICc3LjAnLCAnLXRuJywgJzgnLCAnLW1hJywgJzIwMCcsICctaW1hZScsICc8aW5maWxlLm1hZT4nLCAnLW9tYWUnLCAnPG91dGZpbGUubWFlPic=

>  <r_lp_tautomer_probability>  (137) 
1

>  <r_epik_Ionization_Penalty>  (137) 
5.30838e-13

>  <r_epik_Ionization_Penalty_Charging>  (137) 
0

>  <r_epik_Ionization_Penalty_Neutral>  (137) 
5.30838e-13

>  <r_epik_State_Penalty>  (137) 
-0

>  <r_epik_Charging_Adjusted_Penalty>  (137) 
0

>  <i_epik_Tot_Q>  (137) 
0

>  <i_epik_Tot_abs_Q>  (137) 
0

>  <s_epik_Chemistry_Notes>  (137) 
This compound contains an acetal/aminal-like group ( X-CH(R)-Y where X, Y are N, S, or O) that may be acid/base labile, releasing an aldehyde.

>  <s_lp_Force_Field>  (137) 
OPLS3e

>  <r_lp_Energy>  (137) 
120.953

>  <b_lp_Chiralities_Consistent>  (137) 
1

>  <s_lp_Variant>  (137) 
49:0-1

>  <s_i_glide_gridfile>  (137) 
pfpi4k_grid

>  <i_i_glide_lignum>  (137) 
28

>  <i_i_glide_rotatable_bonds>  (137) 
1

>  <r_i_docking_score>  (137) 
-2.86587

>  <r_i_glide_ligand_efficiency>  (137) 
-0.110226

>  <r_i_glide_ligand_efficiency_sa>  (137) 
-0.326543

>  <r_i_glide_ligand_efficiency_ln>  (137) 
-0.67304

>  <r_i_glide_gscore>  (137) 
-2.86587

>  <r_i_glide_lipo>  (137) 
-0.787957

>  <r_i_glide_hbond>  (137) 
0

>  <r_i_glide_metal>  (137) 
-0

>  <r_i_glide_rewards>  (137) 
-0.964969

>  <r_i_glide_evdw>  (137) 
-16.9757

>  <r_i_glide_ecoul>  (137) 
-1.44697

>  <r_i_glide_erotb>  (137) 
0

>  <r_i_glide_esite>  (137) 
-0.0471162

>  <r_i_glide_emodel>  (137) 
-19.4601

>  <r_i_glide_energy>  (137) 
-18.4226

>  <r_i_glide_einternal>  (137) 
2.90161

>  <r_i_glide_intrahb_reward>  (137) 
-0

>  <i_i_glide_confnum>  (137) 
1

>  <i_i_glide_posenum>  (137) 
1

>  <r_i_glide_eff_state_penalty>  (137) 
0

>  <ligand_id>  (137) 
49

>  <original_smiles>  (137) 
COC1OC23C=CC4C1(C)OCC4(C2)C1(C)C=CC(=O)C(C)(C)C1CC3

>  <smiles>  (137) 
[H]C1=C([H])C2(C([H])([H])[H])C([H])(C([H])([H])C([H])([H])C34OC([H])(OC([H])([H])[H])C5(C([H])([H])[H])OC([H])([H])C2(C3([H])[H])C5([H])C([H])=C4[H])C(C([H])([H])[H])(C([H])([H])[H])C1=O

$$$$
49:0:1
     RDKit          3D

 56 60  0  0  1  0  0  0  0  0999 V2000
    3.8029    0.8021   -3.9716 C   0  0  0  0  0  0  0  0  0  0  0  0
    4.3386   -0.4645   -3.7037 O   0  0  0  0  0  0  0  0  0  0  0  0
    3.7451   -1.1920   -2.6765 C   0  0  2  0  0  0  0  0  0  0  0  0
    4.0141   -0.6320   -1.3836 O   0  0  0  0  0  0  0  0  0  0  0  0
    4.2245   -1.4403   -0.2366 C   0  0  1  0  0  0  0  0  0  0  0  0
    3.0414   -2.3972   -0.1698 C   0  0  0  0  0  0  0  0  0  0  0  0
    3.0231   -3.4718   -0.9299 C   0  0  0  0  0  0  0  0  0  0  0  0
    4.2366   -3.6346   -1.7620 C   0  0  1  0  0  0  0  0  0  0  0  0
    4.2646   -2.6696   -2.9512 C   0  0  1  0  0  0  0  0  0  0  0  0
    3.5348   -3.1750   -4.2053 C   0  0  0  0  0  0  0  0  0  0  0  0
    5.6491   -2.6665   -3.2705 O   0  0  0  0  0  0  0  0  0  0  0  0
    6.4368   -3.2851   -2.2584 C   0  0  0  0  0  0  0  0  0  0  0  0
    5.5663   -3.3077   -1.0139 C   0  0  1  0  0  0  0  0  0  0  0  0
    5.6307   -1.8795   -0.6197 C   0  0  0  0  0  0  0  0  0  0  0  0
    5.9592   -4.1552    0.2905 C   0  0  2  0  0  0  0  0  0  0  0  0
    7.5152   -4.3795    0.2195 C   0  0  0  0  0  0  0  0  0  0  0  0
    5.2369   -5.5094    0.2008 C   0  0  0  0  0  0  0  0  0  0  0  0
    4.4635   -6.0826    1.1381 C   0  0  0  0  0  0  0  0  0  0  0  0
    4.3658   -5.5032    2.4770 C   0  0  0  0  0  0  0  0  0  0  0  0
    3.4326   -5.7624    3.2411 O   0  0  0  0  0  0  0  0  0  0  0  0
    5.5528   -4.5957    2.9245 C   0  0  0  0  0  0  0  0  0  0  0  0
    5.1882   -3.9663    4.3141 C   0  0  0  0  0  0  0  0  0  0  0  0
    6.7920   -5.5345    3.1601 C   0  0  0  0  0  0  0  0  0  0  0  0
    5.7167   -3.4823    1.7828 C   0  0  2  0  0  0  0  0  0  0  0  0
    4.6805   -2.2769    2.0689 C   0  0  0  0  0  0  0  0  0  0  0  0
    4.4666   -0.9877    1.1842 C   0  0  0  0  0  0  0  0  0  0  0  0
    4.3416    1.3016   -4.7676 H   0  0  0  0  0  0  0  0  0  0  0  0
    3.9125    1.4046   -3.1030 H   0  0  0  0  0  0  0  0  0  0  0  0
    2.7569    0.7623   -4.2636 H   0  0  0  0  0  0  0  0  0  0  0  0
    2.6624   -1.1266   -2.8208 H   0  0  0  0  0  0  0  0  0  0  0  0
    2.2203   -2.1327    0.4788 H   0  0  0  0  0  0  0  0  0  0  0  0
    2.2082   -4.1808   -0.9875 H   0  0  0  0  0  0  0  0  0  0  0  0
    4.2707   -4.6424   -2.1436 H   0  0  0  0  0  0  0  0  0  0  0  0
    2.4586   -3.2549   -4.0410 H   0  0  0  0  0  0  0  0  0  0  0  0
    3.9157   -4.1472   -4.5169 H   0  0  0  0  0  0  0  0  0  0  0  0
    3.6577   -2.4685   -5.0291 H   0  0  0  0  0  0  0  0  0  0  0  0
    6.4625   -4.2601   -2.6679 H   0  0  0  0  0  0  0  0  0  0  0  0
    7.4638   -2.9328   -2.1958 H   0  0  0  0  0  0  0  0  0  0  0  0
    6.0427   -1.2323   -1.3956 H   0  0  0  0  0  0  0  0  0  0  0  0
    6.4195   -1.7213    0.1179 H   0  0  0  0  0  0  0  0  0  0  0  0
    8.0567   -3.4255    0.1702 H   0  0  0  0  0  0  0  0  0  0  0  0
    7.9257   -4.9013   -0.6024 H   0  0  0  0  0  0  0  0  0  0  0  0
    7.9071   -4.9518    1.0561 H   0  0  0  0  0  0  0  0  0  0  0  0
    5.3160   -6.0166   -0.7524 H   0  0  0  0  0  0  0  0  0  0  0  0
    3.9772   -7.0388    0.9626 H   0  0  0  0  0  0  0  0  0  0  0  0
    5.9141   -3.2164    4.6306 H   0  0  0  0  0  0  0  0  0  0  0  0
    5.1503   -4.7201    5.0985 H   0  0  0  0  0  0  0  0  0  0  0  0
    4.2044   -3.4829    4.3537 H   0  0  0  0  0  0  0  0  0  0  0  0
    7.7439   -5.0617    3.2392 H   0  0  0  0  0  0  0  0  0  0  0  0
    6.7837   -6.3395    2.3948 H   0  0  0  0  0  0  0  0  0  0  0  0
    6.6219   -6.0881    4.0926 H   0  0  0  0  0  0  0  0  0  0  0  0
    6.6613   -2.9888    2.0055 H   0  0  0  0  0  0  0  0  0  0  0  0
    3.6957   -2.7054    2.2588 H   0  0  0  0  0  0  0  0  0  0  0  0
    4.9640   -1.8255    3.0196 H   0  0  0  0  0  0  0  0  0  0  0  0
    5.2957   -0.2811    1.2639 H   0  0  0  0  0  0  0  0  0  0  0  0
    3.5933   -0.4425    1.5428 H   0  0  0  0  0  0  0  0  0  0  0  0
  1  2  1  0
  1 27  1  0
  1 28  1  0
  1 29  1  0
  2  3  1  0
  3  9  1  0
  3  4  1  0
  3 30  1  6
  4  5  1  0
  5 14  1  0
  5 26  1  1
  5  6  1  0
  6  7  2  0
  6 31  1  0
  7  8  1  0
  7 32  1  0
  8 13  1  0
  8  9  1  0
  8 33  1  6
  9 10  1  6
  9 11  1  0
 10 34  1  0
 10 35  1  0
 10 36  1  0
 11 12  1  0
 13 12  1  6
 12 37  1  0
 12 38  1  0
 13 14  1  0
 13 15  1  0
 14 39  1  0
 14 40  1  0
 15 24  1  0
 15 16  1  6
 15 17  1  0
 16 41  1  0
 16 42  1  0
 16 43  1  0
 17 18  2  0
 17 44  1  0
 18 19  1  0
 18 45  1  0
 19 20  2  0
 19 21  1  0
 21 22  1  0
 21 23  1  0
 21 24  1  0
 22 46  1  0
 22 47  1  0
 22 48  1  0
 23 49  1  0
 23 50  1  0
 23 51  1  0
 24 25  1  0
 24 52  1  1
 25 26  1  0
 25 53  1  0
 25 54  1  0
 26 55  1  0
 26 56  1  0
M  END
>  <i_m_ct_stereo_status>  (138) 
1

>  <s_m_source_file>  (138) 
/var/tmp/pbs.5076255.sched01/tmpmalnbme9/37wob9dpop.sdf

>  <i_m_source_file_index>  (138) 
28

>  <i_lp_mmshare_version>  (138) 
48012

>  <i_f3d_flags>  (138) 
0

>  <s_epik_input>  (138) 
W0NIM11PW0NASF0oT1tDQEBdMTIzKVtDQF00KFtDSDNdKVtDQEhdKFtDSF09W0NIXTEpW0NAQF0oW0NIMl1PNCkoW0NIMl0yKVtDQEBdNShbQ0gzXSlbQ0BASF0oW0NIMl1bQ0gyXTMpQyhbQ0gzXSkoW0NIM10pQyg9TylbQ0hdPVtDSF01

>  <s_epik_cmdline>  (138) 
J2VwaWtfcHl0aG9uJywgJy1waHQnLCAnMi4wJywgJy1waCcsICc3LjAnLCAnLXRuJywgJzgnLCAnLW1hJywgJzIwMCcsICctaW1hZScsICc8aW5maWxlLm1hZT4nLCAnLW9tYWUnLCAnPG91dGZpbGUubWFlPic=

>  <r_lp_tautomer_probability>  (138) 
1

>  <r_epik_Ionization_Penalty>  (138) 
5.30838e-13

>  <r_epik_Ionization_Penalty_Charging>  (138) 
0

>  <r_epik_Ionization_Penalty_Neutral>  (138) 
5.30838e-13

>  <r_epik_State_Penalty>  (138) 
-0

>  <r_epik_Charging_Adjusted_Penalty>  (138) 
0

>  <i_epik_Tot_Q>  (138) 
0

>  <i_epik_Tot_abs_Q>  (138) 
0

>  <s_epik_Chemistry_Notes>  (138) 
This compound contains an acetal/aminal-like group ( X-CH(R)-Y where X, Y are N, S, or O) that may be acid/base labile, releasing an aldehyde.

>  <s_lp_Force_Field>  (138) 
OPLS3e

>  <r_lp_Energy>  (138) 
120.953

>  <b_lp_Chiralities_Consistent>  (138) 
1

>  <s_lp_Variant>  (138) 
49:0-1

>  <s_i_glide_gridfile>  (138) 
pfpi4k_grid

>  <i_i_glide_lignum>  (138) 
28

>  <i_i_glide_rotatable_bonds>  (138) 
1

>  <r_i_docking_score>  (138) 
-2.62278

>  <r_i_glide_ligand_efficiency>  (138) 
-0.100876

>  <r_i_glide_ligand_efficiency_sa>  (138) 
-0.298846

>  <r_i_glide_ligand_efficiency_ln>  (138) 
-0.615952

>  <r_i_glide_gscore>  (138) 
-2.62278

>  <r_i_glide_lipo>  (138) 
-0.931017

>  <r_i_glide_hbond>  (138) 
0

>  <r_i_glide_metal>  (138) 
-0

>  <r_i_glide_rewards>  (138) 
-0.964969

>  <r_i_glide_evdw>  (138) 
-7.42497

>  <r_i_glide_ecoul>  (138) 
-2.1409

>  <r_i_glide_erotb>  (138) 
0

>  <r_i_glide_esite>  (138) 
-0.0344122

>  <r_i_glide_emodel>  (138) 
-9.95752

>  <r_i_glide_energy>  (138) 
-9.56587

>  <r_i_glide_einternal>  (138) 
0.0895302

>  <r_i_glide_intrahb_reward>  (138) 
-0

>  <i_i_glide_confnum>  (138) 
1

>  <i_i_glide_posenum>  (138) 
10

>  <r_i_glide_eff_state_penalty>  (138) 
0

>  <ligand_id>  (138) 
49

>  <original_smiles>  (138) 
COC1OC23C=CC4C1(C)OCC4(C2)C1(C)C=CC(=O)C(C)(C)C1CC3

>  <smiles>  (138) 
[H]C1=C([H])C2(C([H])([H])[H])C([H])(C([H])([H])C([H])([H])C34OC([H])(OC([H])([H])[H])C5(C([H])([H])[H])OC([H])([H])C2(C3([H])[H])C5([H])C([H])=C4[H])C(C([H])([H])[H])(C([H])([H])[H])C1=O

$$$$
49:0:2
     RDKit          3D

 56 60  0  0  1  0  0  0  0  0999 V2000
    4.4396    0.0464   -2.8986 C   0  0  0  0  0  0  0  0  0  0  0  0
    3.3517   -0.8153   -3.0803 O   0  0  0  0  0  0  0  0  0  0  0  0
    3.1393   -1.7248   -2.0243 C   0  0  2  0  0  0  0  0  0  0  0  0
    3.4163   -1.1262   -0.7214 O   0  0  0  0  0  0  0  0  0  0  0  0
    3.8904   -1.9540    0.3322 C   0  0  1  0  0  0  0  0  0  0  0  0
    2.8778   -3.1093    0.5003 C   0  0  0  0  0  0  0  0  0  0  0  0
    3.0079   -4.1772   -0.2813 C   0  0  0  0  0  0  0  0  0  0  0  0
    4.1326   -4.0887   -1.2614 C   0  0  1  0  0  0  0  0  0  0  0  0
    3.8691   -3.0817   -2.4352 C   0  0  1  0  0  0  0  0  0  0  0  0
    3.0910   -3.7074   -3.6142 C   0  0  0  0  0  0  0  0  0  0  0  0
    5.1933   -2.7823   -2.8878 O   0  0  0  0  0  0  0  0  0  0  0  0
    6.1047   -3.5167   -2.0997 C   0  0  0  0  0  0  0  0  0  0  0  0
    5.4628   -3.5638   -0.6932 C   0  0  1  0  0  0  0  0  0  0  0  0
    5.3172   -2.1590   -0.2095 C   0  0  0  0  0  0  0  0  0  0  0  0
    6.1573   -4.3433    0.5224 C   0  0  2  0  0  0  0  0  0  0  0  0
    7.6990   -4.2893    0.2364 C   0  0  0  0  0  0  0  0  0  0  0  0
    5.6842   -5.7926    0.4899 C   0  0  0  0  0  0  0  0  0  0  0  0
    5.1814   -6.5283    1.5207 C   0  0  0  0  0  0  0  0  0  0  0  0
    5.1655   -5.9809    2.8758 C   0  0  0  0  0  0  0  0  0  0  0  0
    4.4031   -6.4043    3.7501 O   0  0  0  0  0  0  0  0  0  0  0  0
    6.1793   -4.8688    3.1884 C   0  0  0  0  0  0  0  0  0  0  0  0
    5.8658   -4.3369    4.6408 C   0  0  0  0  0  0  0  0  0  0  0  0
    7.5531   -5.6449    3.1993 C   0  0  0  0  0  0  0  0  0  0  0  0
    5.9918   -3.7374    2.0499 C   0  0  2  0  0  0  0  0  0  0  0  0
    4.7838   -2.7658    2.5224 C   0  0  0  0  0  0  0  0  0  0  0  0
    4.2145   -1.5198    1.7373 C   0  0  0  0  0  0  0  0  0  0  0  0
    4.5630    0.7784   -3.7048 H   0  0  0  0  0  0  0  0  0  0  0  0
    5.3666   -0.4901   -2.7434 H   0  0  0  0  0  0  0  0  0  0  0  0
    4.3426    0.5484   -1.9602 H   0  0  0  0  0  0  0  0  0  0  0  0
    2.0750   -1.9567   -2.0982 H   0  0  0  0  0  0  0  0  0  0  0  0
    2.0941   -3.0381    1.2538 H   0  0  0  0  0  0  0  0  0  0  0  0
    2.3746   -5.0465   -0.2697 H   0  0  0  0  0  0  0  0  0  0  0  0
    4.3340   -5.0987   -1.5926 H   0  0  0  0  0  0  0  0  0  0  0  0
    2.0952   -4.0524   -3.2976 H   0  0  0  0  0  0  0  0  0  0  0  0
    3.6290   -4.5662   -4.0163 H   0  0  0  0  0  0  0  0  0  0  0  0
    2.9251   -2.9936   -4.4339 H   0  0  0  0  0  0  0  0  0  0  0  0
    6.1475   -4.5369   -2.4808 H   0  0  0  0  0  0  0  0  0  0  0  0
    7.0655   -3.0245   -2.1492 H   0  0  0  0  0  0  0  0  0  0  0  0
    5.5448   -1.4229   -1.0056 H   0  0  0  0  0  0  0  0  0  0  0  0
    6.1335   -1.8777    0.4633 H   0  0  0  0  0  0  0  0  0  0  0  0
    8.0436   -3.2522    0.1566 H   0  0  0  0  0  0  0  0  0  0  0  0
    8.0399   -4.7450   -0.6932 H   0  0  0  0  0  0  0  0  0  0  0  0
    8.3039   -4.7636    0.9933 H   0  0  0  0  0  0  0  0  0  0  0  0
    5.7095   -6.2333   -0.4896 H   0  0  0  0  0  0  0  0  0  0  0  0
    4.8406   -7.5388    1.3861 H   0  0  0  0  0  0  0  0  0  0  0  0
    6.4203   -3.4456    4.9386 H   0  0  0  0  0  0  0  0  0  0  0  0
    6.0784   -5.1018    5.3886 H   0  0  0  0  0  0  0  0  0  0  0  0
    4.8146   -4.0823    4.7861 H   0  0  0  0  0  0  0  0  0  0  0  0
    8.4578   -5.0674    3.0951 H   0  0  0  0  0  0  0  0  0  0  0  0
    7.6011   -6.4428    2.4428 H   0  0  0  0  0  0  0  0  0  0  0  0
    7.7245   -6.1066    4.1728 H   0  0  0  0  0  0  0  0  0  0  0  0
    6.8442   -3.0532    2.0796 H   0  0  0  0  0  0  0  0  0  0  0  0
    3.9237   -3.3790    2.8179 H   0  0  0  0  0  0  0  0  0  0  0  0
    5.1043   -2.2764    3.4420 H   0  0  0  0  0  0  0  0  0  0  0  0
    4.9130   -0.6770    1.7152 H   0  0  0  0  0  0  0  0  0  0  0  0
    3.3073   -1.1430    2.2148 H   0  0  0  0  0  0  0  0  0  0  0  0
  1  2  1  0
  1 27  1  0
  1 28  1  0
  1 29  1  0
  2  3  1  0
  3  9  1  0
  3  4  1  0
  3 30  1  1
  4  5  1  0
  5 14  1  0
  5 26  1  1
  5  6  1  0
  6  7  2  0
  6 31  1  0
  7  8  1  0
  7 32  1  0
  8 13  1  0
  8  9  1  0
  8 33  1  6
  9 10  1  6
  9 11  1  0
 10 34  1  0
 10 35  1  0
 10 36  1  0
 11 12  1  0
 13 12  1  6
 12 37  1  0
 12 38  1  0
 13 14  1  0
 13 15  1  0
 14 39  1  0
 14 40  1  0
 15 24  1  0
 15 16  1  6
 15 17  1  0
 16 41  1  0
 16 42  1  0
 16 43  1  0
 17 18  2  0
 17 44  1  0
 18 19  1  0
 18 45  1  0
 19 20  2  0
 19 21  1  0
 21 22  1  0
 21 23  1  0
 21 24  1  0
 22 46  1  0
 22 47  1  0
 22 48  1  0
 23 49  1  0
 23 50  1  0
 23 51  1  0
 24 25  1  0
 24 52  1  1
 25 26  1  0
 25 53  1  0
 25 54  1  0
 26 55  1  0
 26 56  1  0
M  END
>  <i_m_ct_stereo_status>  (139) 
1

>  <s_m_source_file>  (139) 
/var/tmp/pbs.5076255.sched01/tmpmalnbme9/37wob9dpop.sdf

>  <i_m_source_file_index>  (139) 
28

>  <i_lp_mmshare_version>  (139) 
48012

>  <i_f3d_flags>  (139) 
0

>  <s_epik_input>  (139) 
W0NIM11PW0NASF0oT1tDQEBdMTIzKVtDQF00KFtDSDNdKVtDQEhdKFtDSF09W0NIXTEpW0NAQF0oW0NIMl1PNCkoW0NIMl0yKVtDQEBdNShbQ0gzXSlbQ0BASF0oW0NIMl1bQ0gyXTMpQyhbQ0gzXSkoW0NIM10pQyg9TylbQ0hdPVtDSF01

>  <s_epik_cmdline>  (139) 
J2VwaWtfcHl0aG9uJywgJy1waHQnLCAnMi4wJywgJy1waCcsICc3LjAnLCAnLXRuJywgJzgnLCAnLW1hJywgJzIwMCcsICctaW1hZScsICc8aW5maWxlLm1hZT4nLCAnLW9tYWUnLCAnPG91dGZpbGUubWFlPic=

>  <r_lp_tautomer_probability>  (139) 
1

>  <r_epik_Ionization_Penalty>  (139) 
5.30838e-13

>  <r_epik_Ionization_Penalty_Charging>  (139) 
0

>  <r_epik_Ionization_Penalty_Neutral>  (139) 
5.30838e-13

>  <r_epik_State_Penalty>  (139) 
-0

>  <r_epik_Charging_Adjusted_Penalty>  (139) 
0

>  <i_epik_Tot_Q>  (139) 
0

>  <i_epik_Tot_abs_Q>  (139) 
0

>  <s_epik_Chemistry_Notes>  (139) 
This compound contains an acetal/aminal-like group ( X-CH(R)-Y where X, Y are N, S, or O) that may be acid/base labile, releasing an aldehyde.

>  <s_lp_Force_Field>  (139) 
OPLS3e

>  <r_lp_Energy>  (139) 
120.953

>  <b_lp_Chiralities_Consistent>  (139) 
1

>  <s_lp_Variant>  (139) 
49:0-1

>  <s_i_glide_gridfile>  (139) 
pfpi4k_grid

>  <i_i_glide_lignum>  (139) 
28

>  <i_i_glide_rotatable_bonds>  (139) 
1

>  <r_i_docking_score>  (139) 
-2.35828

>  <r_i_glide_ligand_efficiency>  (139) 
-0.090703

>  <r_i_glide_ligand_efficiency_sa>  (139) 
-0.268707

>  <r_i_glide_ligand_efficiency_ln>  (139) 
-0.553834

>  <r_i_glide_gscore>  (139) 
-2.35828

>  <r_i_glide_lipo>  (139) 
-0.975198

>  <r_i_glide_hbond>  (139) 
0

>  <r_i_glide_metal>  (139) 
-0

>  <r_i_glide_rewards>  (139) 
-0.965864

>  <r_i_glide_evdw>  (139) 
-1.76752

>  <r_i_glide_ecoul>  (139) 
-1.61072

>  <r_i_glide_erotb>  (139) 
0

>  <r_i_glide_esite>  (139) 
-0.0872325

>  <r_i_glide_emodel>  (139) 
-2.19355

>  <r_i_glide_energy>  (139) 
-3.37824

>  <r_i_glide_einternal>  (139) 
2.6172

>  <r_i_glide_intrahb_reward>  (139) 
-0

>  <i_i_glide_confnum>  (139) 
1

>  <i_i_glide_posenum>  (139) 
25

>  <r_i_glide_eff_state_penalty>  (139) 
0

>  <ligand_id>  (139) 
49

>  <original_smiles>  (139) 
COC1OC23C=CC4C1(C)OCC4(C2)C1(C)C=CC(=O)C(C)(C)C1CC3

>  <smiles>  (139) 
[H]C1=C([H])C2(C([H])([H])[H])C([H])(C([H])([H])C([H])([H])C34OC([H])(OC([H])([H])[H])C5(C([H])([H])[H])OC([H])([H])C2(C3([H])[H])C5([H])C([H])=C4[H])C(C([H])([H])[H])(C([H])([H])[H])C1=O

$$$$
50:0:0
     RDKit          3D

 44 47  0  0  1  0  0  0  0  0999 V2000
    5.6465   -0.6556    2.1802 C   0  0  0  0  0  0  0  0  0  0  0  0
    4.6916   -1.5325    1.3528 C   0  0  2  0  0  0  0  0  0  0  0  0
    3.6032   -0.6652    0.6704 C   0  0  0  0  0  0  0  0  0  0  0  0
    2.5731   -0.0821    1.6588 C   0  0  0  0  0  0  0  0  0  0  0  0
    1.8643   -1.1920    2.4611 C   0  0  2  0  0  0  0  0  0  0  0  0
    0.8516   -0.6941    3.4991 C   0  0  0  0  0  0  0  0  0  0  0  0
    0.4389    0.6553    3.5953 C   0  0  0  0  0  0  0  0  0  0  0  0
   -0.4733    1.0473    4.5957 C   0  0  0  0  0  0  0  0  0  0  0  0
   -0.9906    0.0981    5.5021 C   0  0  0  0  0  0  0  0  0  0  0  0
   -1.8664    0.4839    6.4786 O   0  0  0  0  0  0  0  0  0  0  0  0
   -0.5881   -1.2449    5.4038 C   0  0  0  0  0  0  0  0  0  0  0  0
    0.3302   -1.6372    4.4080 C   0  0  0  0  0  0  0  0  0  0  0  0
    0.7545   -3.0853    4.2715 C   0  0  0  0  0  0  0  0  0  0  0  0
    2.2555   -3.2597    3.9883 C   0  0  0  0  0  0  0  0  0  0  0  0
    2.8972   -2.1206    3.1513 C   0  0  1  0  0  0  0  0  0  0  0  0
    4.0272   -2.6297    2.2099 C   0  0  1  0  0  0  0  0  0  0  0  0
    3.6437   -3.7372    1.2066 C   0  0  0  0  0  0  0  0  0  0  0  0
    4.6014   -3.5890    0.0103 C   0  0  0  0  0  0  0  0  0  0  0  0
    5.4902   -2.3803    0.3347 C   0  0  1  0  0  0  0  0  0  0  0  0
    5.9086   -1.6723   -0.8178 O   0  0  0  0  0  0  0  0  0  0  0  0
    6.1343    0.0705    1.5318 H   0  0  0  0  0  0  0  0  0  0  0  0
    6.4269   -1.2552    2.6471 H   0  0  0  0  0  0  0  0  0  0  0  0
    5.1333   -0.1160    2.9758 H   0  0  0  0  0  0  0  0  0  0  0  0
    4.0774    0.1442    0.1161 H   0  0  0  0  0  0  0  0  0  0  0  0
    3.0621   -1.2552   -0.0714 H   0  0  0  0  0  0  0  0  0  0  0  0
    3.0561    0.6334    2.3249 H   0  0  0  0  0  0  0  0  0  0  0  0
    1.8326    0.4785    1.0859 H   0  0  0  0  0  0  0  0  0  0  0  0
    1.3029   -1.7922    1.7477 H   0  0  0  0  0  0  0  0  0  0  0  0
    0.8162    1.4078    2.9189 H   0  0  0  0  0  0  0  0  0  0  0  0
   -0.7689    2.0840    4.6653 H   0  0  0  0  0  0  0  0  0  0  0  0
   -2.0305    1.4171    6.4481 H   0  0  0  0  0  0  0  0  0  0  0  0
   -0.9799   -1.9789    6.0919 H   0  0  0  0  0  0  0  0  0  0  0  0
    0.4425   -3.6718    5.1354 H   0  0  0  0  0  0  0  0  0  0  0  0
    0.2168   -3.4779    3.4141 H   0  0  0  0  0  0  0  0  0  0  0  0
    2.7746   -3.2922    4.9435 H   0  0  0  0  0  0  0  0  0  0  0  0
    2.4227   -4.2402    3.5430 H   0  0  0  0  0  0  0  0  0  0  0  0
    3.3911   -1.4753    3.8805 H   0  0  0  0  0  0  0  0  0  0  0  0
    4.8044   -3.0552    2.8476 H   0  0  0  0  0  0  0  0  0  0  0  0
    3.7340   -4.7252    1.6621 H   0  0  0  0  0  0  0  0  0  0  0  0
    2.6094   -3.6247    0.8719 H   0  0  0  0  0  0  0  0  0  0  0  0
    5.2008   -4.4884   -0.1415 H   0  0  0  0  0  0  0  0  0  0  0  0
    4.0209   -3.4331   -0.9002 H   0  0  0  0  0  0  0  0  0  0  0  0
    6.3886   -2.7610    0.8235 H   0  0  0  0  0  0  0  0  0  0  0  0
    5.1293   -1.3889   -1.2781 H   0  0  0  0  0  0  0  0  0  0  0  0
  2  1  1  1
  1 21  1  0
  1 22  1  0
  1 23  1  0
  2 16  1  0
  2 19  1  0
  2  3  1  0
  3  4  1  0
  3 24  1  0
  3 25  1  0
  4  5  1  0
  4 26  1  0
  4 27  1  0
  5 15  1  0
  5  6  1  0
  5 28  1  6
  6 12  2  0
  6  7  1  0
  7  8  2  0
  7 29  1  0
  8  9  1  0
  8 30  1  0
  9 10  1  0
  9 11  2  0
 10 31  1  0
 11 12  1  0
 11 32  1  0
 12 13  1  0
 13 14  1  0
 13 33  1  0
 13 34  1  0
 14 15  1  0
 14 35  1  0
 14 36  1  0
 15 16  1  0
 15 37  1  1
 16 17  1  0
 16 38  1  1
 17 18  1  0
 17 39  1  0
 17 40  1  0
 18 19  1  0
 18 41  1  0
 18 42  1  0
 19 20  1  0
 19 43  1  1
 20 44  1  0
M  END
>  <i_m_ct_stereo_status>  (140) 
1

>  <s_m_source_file>  (140) 
/var/tmp/pbs.5076255.sched01/tmpmalnbme9/37wob9dpop.sdf

>  <i_m_source_file_index>  (140) 
29

>  <i_lp_mmshare_version>  (140) 
48012

>  <i_f3d_flags>  (140) 
0

>  <s_epik_input>  (140) 
W09IXVtDQEBIXTFbQ0gyXVtDSDJdW0NAQEhdKFtDQEBdMTJbQ0gzXSlbQ0BIXTNbQ0BIXShbQ0gyXVtDSDJdMiljNGMoW0NIMl1bQ0gyXTMpW2NIXWMoW09IXSlbY0hdW2NIXTQ=

>  <s_epik_cmdline>  (140) 
J2VwaWtfcHl0aG9uJywgJy1waHQnLCAnMi4wJywgJy1waCcsICc3LjAnLCAnLXRuJywgJzgnLCAnLW1hJywgJzIwMCcsICctaW1hZScsICc8aW5maWxlLm1hZT4nLCAnLW9tYWUnLCAnPG91dGZpbGUubWFlPic=

>  <r_lp_tautomer_probability>  (140) 
1

>  <r_epik_Ionization_Penalty>  (140) 
0.000144805

>  <r_epik_Ionization_Penalty_Charging>  (140) 
0

>  <r_epik_Ionization_Penalty_Neutral>  (140) 
0.000144805

>  <r_epik_State_Penalty>  (140) 
-0

>  <r_epik_Charging_Adjusted_Penalty>  (140) 
0

>  <i_epik_Tot_Q>  (140) 
0

>  <i_epik_Tot_abs_Q>  (140) 
0

>  <s_lp_Force_Field>  (140) 
OPLS3e

>  <r_lp_Energy>  (140) 
35.5411

>  <b_lp_Chiralities_Consistent>  (140) 
1

>  <s_lp_Variant>  (140) 
50:0-1

>  <s_i_glide_gridfile>  (140) 
pfpi4k_grid

>  <i_i_glide_lignum>  (140) 
29

>  <i_i_glide_rotatable_bonds>  (140) 
2

>  <r_i_docking_score>  (140) 
-3.67883

>  <r_i_glide_ligand_efficiency>  (140) 
-0.183941

>  <r_i_glide_ligand_efficiency_sa>  (140) 
-0.499294

>  <r_i_glide_ligand_efficiency_ln>  (140) 
-0.920689

>  <r_i_glide_gscore>  (140) 
-3.67883

>  <r_i_glide_lipo>  (140) 
-0.211598

>  <r_i_glide_hbond>  (140) 
-0.200182

>  <r_i_glide_metal>  (140) 
-0

>  <r_i_glide_rewards>  (140) 
-1.55194

>  <r_i_glide_evdw>  (140) 
-20.1101

>  <r_i_glide_ecoul>  (140) 
-4.73066

>  <r_i_glide_erotb>  (140) 
0

>  <r_i_glide_esite>  (140) 
0

>  <r_i_glide_emodel>  (140) 
-31.1471

>  <r_i_glide_energy>  (140) 
-24.8408

>  <r_i_glide_einternal>  (140) 
0.00188345

>  <r_i_glide_intrahb_reward>  (140) 
-0

>  <i_i_glide_confnum>  (140) 
2

>  <i_i_glide_posenum>  (140) 
29

>  <r_i_glide_eff_state_penalty>  (140) 
0

>  <ligand_id>  (140) 
50

>  <original_smiles>  (140) 
CC12CCC3c4ccc(O)cc4CCC3C1CCC2O

>  <smiles>  (140) 
[H]Oc1c([H])c([H])c2c(c1[H])C([H])([H])C([H])([H])C1([H])C2([H])C([H])([H])C([H])([H])C2(C([H])([H])[H])C([H])(O[H])C([H])([H])C([H])([H])C12[H]

$$$$
50:0:1
     RDKit          3D

 44 47  0  0  1  0  0  0  0  0999 V2000
    4.0077   -1.2935    1.3691 C   0  0  0  0  0  0  0  0  0  0  0  0
    3.7713   -1.5761    2.8690 C   0  0  2  0  0  0  0  0  0  0  0  0
    2.3359   -2.1184    3.1159 C   0  0  0  0  0  0  0  0  0  0  0  0
    1.2410   -1.0520    2.9245 C   0  0  0  0  0  0  0  0  0  0  0  0
    1.4627    0.1643    3.8466 C   0  0  2  0  0  0  0  0  0  0  0  0
    0.4357    1.2914    3.6904 C   0  0  0  0  0  0  0  0  0  0  0  0
   -0.7288    1.1751    2.9003 C   0  0  0  0  0  0  0  0  0  0  0  0
   -1.6146    2.2607    2.7807 C   0  0  0  0  0  0  0  0  0  0  0  0
   -1.3455    3.4780    3.4355 C   0  0  0  0  0  0  0  0  0  0  0  0
   -2.1938    4.5353    3.2804 O   0  0  0  0  0  0  0  0  0  0  0  0
   -0.1874    3.6002    4.2241 C   0  0  0  0  0  0  0  0  0  0  0  0
    0.6950    2.5098    4.3526 C   0  0  0  0  0  0  0  0  0  0  0  0
    1.9339    2.6123    5.2196 C   0  0  0  0  0  0  0  0  0  0  0  0
    3.1793    1.9725    4.5762 C   0  0  0  0  0  0  0  0  0  0  0  0
    2.8923    0.7422    3.6731 C   0  0  1  0  0  0  0  0  0  0  0  0
    4.0192   -0.3266    3.7407 C   0  0  1  0  0  0  0  0  0  0  0  0
    4.3601   -0.8766    5.1420 C   0  0  0  0  0  0  0  0  0  0  0  0
    4.9174   -2.2914    4.9265 C   0  0  0  0  0  0  0  0  0  0  0  0
    4.8587   -2.5297    3.4147 C   0  0  1  0  0  0  0  0  0  0  0  0
    4.6380   -3.8911    3.1117 O   0  0  0  0  0  0  0  0  0  0  0  0
    3.8750   -2.1981    0.7746 H   0  0  0  0  0  0  0  0  0  0  0  0
    5.0194   -0.9272    1.1891 H   0  0  0  0  0  0  0  0  0  0  0  0
    3.3206   -0.5427    0.9813 H   0  0  0  0  0  0  0  0  0  0  0  0
    2.1390   -2.9642    2.4567 H   0  0  0  0  0  0  0  0  0  0  0  0
    2.2569   -2.5133    4.1302 H   0  0  0  0  0  0  0  0  0  0  0  0
    1.2043   -0.7409    1.8799 H   0  0  0  0  0  0  0  0  0  0  0  0
    0.2756   -1.5051    3.1468 H   0  0  0  0  0  0  0  0  0  0  0  0
    1.3685   -0.1870    4.8717 H   0  0  0  0  0  0  0  0  0  0  0  0
   -0.9556    0.2697    2.3615 H   0  0  0  0  0  0  0  0  0  0  0  0
   -2.4916    2.1629    2.1590 H   0  0  0  0  0  0  0  0  0  0  0  0
   -2.7646    4.3971    2.5375 H   0  0  0  0  0  0  0  0  0  0  0  0
    0.0276    4.5358    4.7172 H   0  0  0  0  0  0  0  0  0  0  0  0
    2.1279    3.6480    5.4977 H   0  0  0  0  0  0  0  0  0  0  0  0
    1.7006    2.0793    6.1433 H   0  0  0  0  0  0  0  0  0  0  0  0
    3.6614    2.7238    3.9506 H   0  0  0  0  0  0  0  0  0  0  0  0
    3.9047    1.7495    5.3569 H   0  0  0  0  0  0  0  0  0  0  0  0
    2.9093    1.1249    2.6502 H   0  0  0  0  0  0  0  0  0  0  0  0
    4.9306    0.1477    3.3718 H   0  0  0  0  0  0  0  0  0  0  0  0
    5.0914   -0.2432    5.6459 H   0  0  0  0  0  0  0  0  0  0  0  0
    3.4721   -0.9240    5.7774 H   0  0  0  0  0  0  0  0  0  0  0  0
    5.9338   -2.3962    5.3073 H   0  0  0  0  0  0  0  0  0  0  0  0
    4.3025   -3.0130    5.4652 H   0  0  0  0  0  0  0  0  0  0  0  0
    5.8218   -2.2430    2.9902 H   0  0  0  0  0  0  0  0  0  0  0  0
    5.3847   -4.3884    3.4131 H   0  0  0  0  0  0  0  0  0  0  0  0
  2  1  1  6
  1 21  1  0
  1 22  1  0
  1 23  1  0
  2 16  1  0
  2 19  1  0
  2  3  1  0
  3  4  1  0
  3 24  1  0
  3 25  1  0
  4  5  1  0
  4 26  1  0
  4 27  1  0
  5 15  1  0
  5  6  1  0
  5 28  1  1
  6 12  2  0
  6  7  1  0
  7  8  2  0
  7 29  1  0
  8  9  1  0
  8 30  1  0
  9 10  1  0
  9 11  2  0
 10 31  1  0
 11 12  1  0
 11 32  1  0
 12 13  1  0
 13 14  1  0
 13 33  1  0
 13 34  1  0
 14 15  1  0
 14 35  1  0
 14 36  1  0
 15 16  1  0
 15 37  1  6
 16 17  1  0
 16 38  1  6
 17 18  1  0
 17 39  1  0
 17 40  1  0
 18 19  1  0
 18 41  1  0
 18 42  1  0
 19 20  1  0
 19 43  1  6
 20 44  1  0
M  END
>  <i_m_ct_stereo_status>  (141) 
1

>  <s_m_source_file>  (141) 
/var/tmp/pbs.5076255.sched01/tmpmalnbme9/37wob9dpop.sdf

>  <i_m_source_file_index>  (141) 
29

>  <i_lp_mmshare_version>  (141) 
48012

>  <i_f3d_flags>  (141) 
0

>  <s_epik_input>  (141) 
W09IXVtDQEBIXTFbQ0gyXVtDSDJdW0NAQEhdKFtDQEBdMTJbQ0gzXSlbQ0BIXTNbQ0BIXShbQ0gyXVtDSDJdMiljNGMoW0NIMl1bQ0gyXTMpW2NIXWMoW09IXSlbY0hdW2NIXTQ=

>  <s_epik_cmdline>  (141) 
J2VwaWtfcHl0aG9uJywgJy1waHQnLCAnMi4wJywgJy1waCcsICc3LjAnLCAnLXRuJywgJzgnLCAnLW1hJywgJzIwMCcsICctaW1hZScsICc8aW5maWxlLm1hZT4nLCAnLW9tYWUnLCAnPG91dGZpbGUubWFlPic=

>  <r_lp_tautomer_probability>  (141) 
1

>  <r_epik_Ionization_Penalty>  (141) 
0.000144805

>  <r_epik_Ionization_Penalty_Charging>  (141) 
0

>  <r_epik_Ionization_Penalty_Neutral>  (141) 
0.000144805

>  <r_epik_State_Penalty>  (141) 
-0

>  <r_epik_Charging_Adjusted_Penalty>  (141) 
0

>  <i_epik_Tot_Q>  (141) 
0

>  <i_epik_Tot_abs_Q>  (141) 
0

>  <s_lp_Force_Field>  (141) 
OPLS3e

>  <r_lp_Energy>  (141) 
35.5411

>  <b_lp_Chiralities_Consistent>  (141) 
1

>  <s_lp_Variant>  (141) 
50:0-1

>  <s_i_glide_gridfile>  (141) 
pfpi4k_grid

>  <i_i_glide_lignum>  (141) 
29

>  <i_i_glide_rotatable_bonds>  (141) 
2

>  <r_i_docking_score>  (141) 
-3.04216

>  <r_i_glide_ligand_efficiency>  (141) 
-0.152108

>  <r_i_glide_ligand_efficiency_sa>  (141) 
-0.412885

>  <r_i_glide_ligand_efficiency_ln>  (141) 
-0.761352

>  <r_i_glide_gscore>  (141) 
-3.04216

>  <r_i_glide_lipo>  (141) 
-0.102092

>  <r_i_glide_hbond>  (141) 
-0.16

>  <r_i_glide_metal>  (141) 
-0

>  <r_i_glide_rewards>  (141) 
-1.55194

>  <r_i_glide_evdw>  (141) 
-17.9181

>  <r_i_glide_ecoul>  (141) 
-2.21479

>  <r_i_glide_erotb>  (141) 
0

>  <r_i_glide_esite>  (141) 
0

>  <r_i_glide_emodel>  (141) 
-25.0075

>  <r_i_glide_energy>  (141) 
-20.1329

>  <r_i_glide_einternal>  (141) 
0.569644

>  <r_i_glide_intrahb_reward>  (141) 
-0

>  <i_i_glide_confnum>  (141) 
2

>  <i_i_glide_posenum>  (141) 
32

>  <r_i_glide_eff_state_penalty>  (141) 
0

>  <ligand_id>  (141) 
50

>  <original_smiles>  (141) 
CC12CCC3c4ccc(O)cc4CCC3C1CCC2O

>  <smiles>  (141) 
[H]Oc1c([H])c([H])c2c(c1[H])C([H])([H])C([H])([H])C1([H])C2([H])C([H])([H])C([H])([H])C2(C([H])([H])[H])C([H])(O[H])C([H])([H])C([H])([H])C12[H]

$$$$
50:0:2
     RDKit          3D

 44 47  0  0  1  0  0  0  0  0999 V2000
    4.9100   -0.5882    3.5559 C   0  0  0  0  0  0  0  0  0  0  0  0
    4.1158   -1.2024    4.7294 C   0  0  2  0  0  0  0  0  0  0  0  0
    2.8626   -1.9677    4.2225 C   0  0  0  0  0  0  0  0  0  0  0  0
    1.7571   -1.0411    3.6823 C   0  0  0  0  0  0  0  0  0  0  0  0
    1.3006   -0.0183    4.7459 C   0  0  2  0  0  0  0  0  0  0  0  0
    0.2314    0.9736    4.2718 C   0  0  0  0  0  0  0  0  0  0  0  0
   -0.4242    0.8709    3.0248 C   0  0  0  0  0  0  0  0  0  0  0  0
   -1.3812    1.8327    2.6419 C   0  0  0  0  0  0  0  0  0  0  0  0
   -1.6743    2.9206    3.4919 C   0  0  0  0  0  0  0  0  0  0  0  0
   -2.5752    3.8720    3.1083 O   0  0  0  0  0  0  0  0  0  0  0  0
   -1.0277    3.0255    4.7370 C   0  0  0  0  0  0  0  0  0  0  0  0
   -0.0818    2.0534    5.1257 C   0  0  0  0  0  0  0  0  0  0  0  0
    0.6085    2.1392    6.4694 C   0  0  0  0  0  0  0  0  0  0  0  0
    2.1132    1.8157    6.3957 C   0  0  0  0  0  0  0  0  0  0  0  0
    2.5099    0.7670    5.3195 C   0  0  1  0  0  0  0  0  0  0  0  0
    3.6959   -0.1340    5.7635 C   0  0  1  0  0  0  0  0  0  0  0  0
    3.5127   -0.9069    7.0865 C   0  0  0  0  0  0  0  0  0  0  0  0
    4.3948   -2.1622    6.9800 C   0  0  0  0  0  0  0  0  0  0  0  0
    5.0364   -2.0983    5.5898 C   0  0  1  0  0  0  0  0  0  0  0  0
    5.2997   -3.3752    5.0451 O   0  0  0  0  0  0  0  0  0  0  0  0
    5.2425   -1.3597    2.8617 H   0  0  0  0  0  0  0  0  0  0  0  0
    5.7982   -0.0619    3.9064 H   0  0  0  0  0  0  0  0  0  0  0  0
    4.3155    0.1304    2.9917 H   0  0  0  0  0  0  0  0  0  0  0  0
    3.1504   -2.6777    3.4477 H   0  0  0  0  0  0  0  0  0  0  0  0
    2.4406   -2.5648    5.0326 H   0  0  0  0  0  0  0  0  0  0  0  0
    2.1076   -0.5293    2.7856 H   0  0  0  0  0  0  0  0  0  0  0  0
    0.9094   -1.6539    3.3739 H   0  0  0  0  0  0  0  0  0  0  0  0
    0.8507   -0.5810    5.5625 H   0  0  0  0  0  0  0  0  0  0  0  0
   -0.2003    0.0714    2.3364 H   0  0  0  0  0  0  0  0  0  0  0  0
   -1.8733    1.7362    1.6859 H   0  0  0  0  0  0  0  0  0  0  0  0
   -2.8574    3.7421    2.2152 H   0  0  0  0  0  0  0  0  0  0  0  0
   -1.2575    3.8557    5.3904 H   0  0  0  0  0  0  0  0  0  0  0  0
    0.4418    3.1130    6.9303 H   0  0  0  0  0  0  0  0  0  0  0  0
    0.1221    1.4024    7.1096 H   0  0  0  0  0  0  0  0  0  0  0  0
    2.6466    2.7346    6.1608 H   0  0  0  0  0  0  0  0  0  0  0  0
    2.4625    1.5364    7.3899 H   0  0  0  0  0  0  0  0  0  0  0  0
    2.8808    1.3491    4.4731 H   0  0  0  0  0  0  0  0  0  0  0  0
    4.5532    0.5232    5.9168 H   0  0  0  0  0  0  0  0  0  0  0  0
    3.8013   -0.2975    7.9449 H   0  0  0  0  0  0  0  0  0  0  0  0
    2.4701   -1.1996    7.2344 H   0  0  0  0  0  0  0  0  0  0  0  0
    5.1583   -2.1897    7.7588 H   0  0  0  0  0  0  0  0  0  0  0  0
    3.7802   -3.0543    7.0998 H   0  0  0  0  0  0  0  0  0  0  0  0
    5.9987   -1.5970    5.7045 H   0  0  0  0  0  0  0  0  0  0  0  0
    4.4855   -3.8497    4.9757 H   0  0  0  0  0  0  0  0  0  0  0  0
  2  1  1  6
  1 21  1  0
  1 22  1  0
  1 23  1  0
  2 16  1  0
  2 19  1  0
  2  3  1  0
  3  4  1  0
  3 24  1  0
  3 25  1  0
  4  5  1  0
  4 26  1  0
  4 27  1  0
  5 15  1  0
  5  6  1  0
  5 28  1  1
  6 12  2  0
  6  7  1  0
  7  8  2  0
  7 29  1  0
  8  9  1  0
  8 30  1  0
  9 10  1  0
  9 11  2  0
 10 31  1  0
 11 12  1  0
 11 32  1  0
 12 13  1  0
 13 14  1  0
 13 33  1  0
 13 34  1  0
 14 15  1  0
 14 35  1  0
 14 36  1  0
 15 16  1  0
 15 37  1  6
 16 17  1  0
 16 38  1  1
 17 18  1  0
 17 39  1  0
 17 40  1  0
 18 19  1  0
 18 41  1  0
 18 42  1  0
 19 20  1  0
 19 43  1  1
 20 44  1  0
M  END
>  <i_m_ct_stereo_status>  (142) 
1

>  <s_m_source_file>  (142) 
/var/tmp/pbs.5076255.sched01/tmpmalnbme9/37wob9dpop.sdf

>  <i_m_source_file_index>  (142) 
29

>  <i_lp_mmshare_version>  (142) 
48012

>  <i_f3d_flags>  (142) 
0

>  <s_epik_input>  (142) 
W09IXVtDQEBIXTFbQ0gyXVtDSDJdW0NAQEhdKFtDQEBdMTJbQ0gzXSlbQ0BIXTNbQ0BIXShbQ0gyXVtDSDJdMiljNGMoW0NIMl1bQ0gyXTMpW2NIXWMoW09IXSlbY0hdW2NIXTQ=

>  <s_epik_cmdline>  (142) 
J2VwaWtfcHl0aG9uJywgJy1waHQnLCAnMi4wJywgJy1waCcsICc3LjAnLCAnLXRuJywgJzgnLCAnLW1hJywgJzIwMCcsICctaW1hZScsICc8aW5maWxlLm1hZT4nLCAnLW9tYWUnLCAnPG91dGZpbGUubWFlPic=

>  <r_lp_tautomer_probability>  (142) 
1

>  <r_epik_Ionization_Penalty>  (142) 
0.000144805

>  <r_epik_Ionization_Penalty_Charging>  (142) 
0

>  <r_epik_Ionization_Penalty_Neutral>  (142) 
0.000144805

>  <r_epik_State_Penalty>  (142) 
-0

>  <r_epik_Charging_Adjusted_Penalty>  (142) 
0

>  <i_epik_Tot_Q>  (142) 
0

>  <i_epik_Tot_abs_Q>  (142) 
0

>  <s_lp_Force_Field>  (142) 
OPLS3e

>  <r_lp_Energy>  (142) 
35.5411

>  <b_lp_Chiralities_Consistent>  (142) 
1

>  <s_lp_Variant>  (142) 
50:0-1

>  <s_i_glide_gridfile>  (142) 
pfpi4k_grid

>  <i_i_glide_lignum>  (142) 
29

>  <i_i_glide_rotatable_bonds>  (142) 
2

>  <r_i_docking_score>  (142) 
-2.65359

>  <r_i_glide_ligand_efficiency>  (142) 
-0.132679

>  <r_i_glide_ligand_efficiency_sa>  (142) 
-0.360147

>  <r_i_glide_ligand_efficiency_ln>  (142) 
-0.664105

>  <r_i_glide_gscore>  (142) 
-2.65359

>  <r_i_glide_lipo>  (142) 
-0.128027

>  <r_i_glide_hbond>  (142) 
0

>  <r_i_glide_metal>  (142) 
-0

>  <r_i_glide_rewards>  (142) 
-1.55194

>  <r_i_glide_evdw>  (142) 
-15.5634

>  <r_i_glide_ecoul>  (142) 
-1.30299

>  <r_i_glide_erotb>  (142) 
0

>  <r_i_glide_esite>  (142) 
0

>  <r_i_glide_emodel>  (142) 
-21.3815

>  <r_i_glide_energy>  (142) 
-16.8664

>  <r_i_glide_einternal>  (142) 
0.0527607

>  <r_i_glide_intrahb_reward>  (142) 
-0

>  <i_i_glide_confnum>  (142) 
1

>  <i_i_glide_posenum>  (142) 
14

>  <r_i_glide_eff_state_penalty>  (142) 
0

>  <ligand_id>  (142) 
50

>  <original_smiles>  (142) 
CC12CCC3c4ccc(O)cc4CCC3C1CCC2O

>  <smiles>  (142) 
[H]Oc1c([H])c([H])c2c(c1[H])C([H])([H])C([H])([H])C1([H])C2([H])C([H])([H])C([H])([H])C2(C([H])([H])[H])C([H])(O[H])C([H])([H])C([H])([H])C12[H]

$$$$
53:0:0
     RDKit          3D

 41 45  0  0  1  0  0  0  0  0999 V2000
    1.3211   -3.8309   -1.5180 C   0  0  0  0  0  0  0  0  0  0  0  0
    2.5304   -3.3333   -2.2003 C   0  0  0  0  0  0  0  0  0  0  0  0
    2.6633   -3.0965   -3.5124 C   0  0  0  0  0  0  0  0  0  0  0  0
    4.0556   -2.7899   -3.7813 C   0  0  0  0  0  0  0  0  0  0  0  0
    4.7083   -3.2030   -2.6734 C   0  0  0  0  0  0  0  0  0  0  0  0
    6.1999   -3.2264   -2.5041 C   0  0  0  0  0  0  0  0  0  0  0  0
    3.8386   -3.0645   -1.4555 C   0  0  2  0  0  0  0  0  0  0  0  0
    4.1869   -4.1001   -0.3615 C   0  0  0  0  0  0  0  0  0  0  0  0
    4.6307   -5.2220   -0.6549 O   0  0  0  0  0  0  0  0  0  0  0  0
    4.1096   -3.6806    1.0102 C   0  0  0  0  0  0  0  0  0  0  0  0
    5.1972   -3.3538    1.7352 C   0  0  0  0  0  0  0  0  0  0  0  0
    6.6404   -3.7412    1.4304 C   0  0  0  0  0  0  0  0  0  0  0  0
    4.9143   -2.4194    2.9060 C   0  0  1  0  0  0  0  0  0  0  0  0
    3.7150   -1.9833    3.6276 O   0  0  0  0  0  0  0  0  0  0  0  0
    3.5278   -3.1643    3.0389 C   0  0  1  0  0  0  0  0  0  0  0  0
    2.8524   -3.3220    1.6996 C   0  0  0  0  0  0  0  0  0  0  0  0
    5.1652   -1.0996    2.1830 C   0  0  0  0  0  0  0  0  0  0  0  0
    6.0165   -0.3189    2.5894 O   0  0  0  0  0  0  0  0  0  0  0  0
    4.2882   -0.8309    1.1490 O   0  0  0  0  0  0  0  0  0  0  0  0
    4.8223   -0.9602   -0.1143 C   0  0  0  0  0  0  0  0  0  0  0  0
    6.0133   -0.8141   -0.4083 O   0  0  0  0  0  0  0  0  0  0  0  0
    3.7949   -1.5214   -1.1215 C   0  0  1  0  0  0  0  0  0  0  0  0
    3.7167   -0.6484   -2.4306 C   0  0  0  0  0  0  0  0  0  0  0  0
    4.1023   -1.3427   -3.7636 C   0  0  0  0  0  0  0  0  0  0  0  0
    4.2962   -0.6629   -4.7461 O   0  0  0  0  0  0  0  0  0  0  0  0
    1.1518   -3.1363   -0.7022 H   0  0  0  0  0  0  0  0  0  0  0  0
    1.4613   -4.8442   -1.1667 H   0  0  0  0  0  0  0  0  0  0  0  0
    0.4703   -3.7714   -2.1357 H   0  0  0  0  0  0  0  0  0  0  0  0
    1.8886   -3.2105   -4.2788 H   0  0  0  0  0  0  0  0  0  0  0  0
    6.5506   -2.9463   -1.5212 H   0  0  0  0  0  0  0  0  0  0  0  0
    6.7074   -2.6587   -3.2720 H   0  0  0  0  0  0  0  0  0  0  0  0
    6.4637   -4.2380   -2.6842 H   0  0  0  0  0  0  0  0  0  0  0  0
    7.3092   -2.8867    1.4897 H   0  0  0  0  0  0  0  0  0  0  0  0
    6.8103   -4.2457    0.4787 H   0  0  0  0  0  0  0  0  0  0  0  0
    6.9328   -4.4389    2.2106 H   0  0  0  0  0  0  0  0  0  0  0  0
    3.5813   -4.0563    3.6527 H   0  0  0  0  0  0  0  0  0  0  0  0
    2.4102   -2.3836    1.3597 H   0  0  0  0  0  0  0  0  0  0  0  0
    2.1268   -4.1308    1.6904 H   0  0  0  0  0  0  0  0  0  0  0  0
    2.8559   -1.3359   -0.6150 H   0  0  0  0  0  0  0  0  0  0  0  0
    2.6776   -0.3541   -2.5769 H   0  0  0  0  0  0  0  0  0  0  0  0
    4.2870    0.2614   -2.3495 H   0  0  0  0  0  0  0  0  0  0  0  0
  1  2  1  0
  1 26  1  0
  1 27  1  0
  1 28  1  0
  7  2  1  6
  2  3  2  0
  3  4  1  0
  3 29  1  0
  4 24  1  0
  4  5  2  0
  5  6  1  0
  5  7  1  0
  6 30  1  0
  6 31  1  0
  6 32  1  0
  7 22  1  0
  7  8  1  0
  8  9  2  0
  8 10  1  0
 10 16  1  0
 10 11  2  0
 11 12  1  0
 11 13  1  0
 12 33  1  0
 12 34  1  0
 12 35  1  0
 13 15  1  0
 13 14  1  6
 13 17  1  0
 14 15  1  0
 15 16  1  0
 15 36  1  1
 16 37  1  0
 16 38  1  0
 17 18  2  0
 17 19  1  0
 19 20  1  0
 20 21  2  0
 20 22  1  0
 22 23  1  0
 22 39  1  1
 23 24  1  0
 23 40  1  0
 23 41  1  0
 24 25  2  0
M  END
>  <i_m_ct_stereo_status>  (143) 
1

>  <s_m_source_file>  (143) 
/var/tmp/pbs.5076255.sched01/tmpmalnbme9/37wob9dpop.sdf

>  <i_m_source_file_index>  (143) 
32

>  <i_lp_mmshare_version>  (143) 
48012

>  <i_f3d_flags>  (143) 
0

>  <s_epik_input>  (143) 
W0NIM11DMT1bQ0hdQyg9QzJbQ0gzXSlDKD1PKVtDSDJdW0NAQEhdKFtDQEBdMTIzKUMoPU8pT0MoPU8pW0NAXTQ1W0NAQEhdKE81KVtDSDJdQyhDMz1PKT1DNFtDSDNd

>  <s_epik_cmdline>  (143) 
J2VwaWtfcHl0aG9uJywgJy1waHQnLCAnMi4wJywgJy1waCcsICc3LjAnLCAnLXRuJywgJzgnLCAnLW1hJywgJzIwMCcsICctaW1hZScsICc8aW5maWxlLm1hZT4nLCAnLW9tYWUnLCAnPG91dGZpbGUubWFlPic=

>  <r_lp_tautomer_probability>  (143) 
1

>  <r_epik_Ionization_Penalty>  (143) 
0

>  <r_epik_Ionization_Penalty_Charging>  (143) 
0

>  <r_epik_Ionization_Penalty_Neutral>  (143) 
0

>  <r_epik_State_Penalty>  (143) 
-0

>  <r_epik_Charging_Adjusted_Penalty>  (143) 
0

>  <i_epik_Tot_Q>  (143) 
0

>  <i_epik_Tot_abs_Q>  (143) 
0

>  <s_lp_Force_Field>  (143) 
OPLS3e

>  <r_lp_Energy>  (143) 
170.315

>  <b_lp_Chiralities_Consistent>  (143) 
1

>  <s_lp_Variant>  (143) 
53:0-1

>  <s_i_glide_gridfile>  (143) 
pfpi4k_grid

>  <i_i_glide_lignum>  (143) 
32

>  <i_i_glide_rotatable_bonds>  (143) 
0

>  <r_i_docking_score>  (143) 
-4.17219

>  <r_i_glide_ligand_efficiency>  (143) 
-0.166888

>  <r_i_glide_ligand_efficiency_sa>  (143) 
-0.487982

>  <r_i_glide_ligand_efficiency_ln>  (143) 
-0.988934

>  <r_i_glide_gscore>  (143) 
-4.17219

>  <r_i_glide_lipo>  (143) 
-0.981023

>  <r_i_glide_hbond>  (143) 
-0.364021

>  <r_i_glide_metal>  (143) 
-0

>  <r_i_glide_rewards>  (143) 
-1.46632

>  <r_i_glide_evdw>  (143) 
-17.38

>  <r_i_glide_ecoul>  (143) 
-3.16815

>  <r_i_glide_erotb>  (143) 
0

>  <r_i_glide_esite>  (143) 
-0.0166064

>  <r_i_glide_emodel>  (143) 
-22.8058

>  <r_i_glide_energy>  (143) 
-20.5481

>  <r_i_glide_einternal>  (143) 
0

>  <r_i_glide_intrahb_reward>  (143) 
-0

>  <i_i_glide_confnum>  (143) 
1

>  <i_i_glide_posenum>  (143) 
19

>  <r_i_glide_eff_state_penalty>  (143) 
0

>  <ligand_id>  (143) 
53

>  <original_smiles>  (143) 
CC1=CC2=C(C)C13C(=O)C1=C(C)C4(OC4C1)C(=O)OC(=O)C3CC2=O

>  <smiles>  (143) 
[H]C1=C(C([H])([H])[H])C23C(=O)C4=C(C([H])([H])[H])C5(OC5([H])C4([H])[H])C(=O)OC(=O)C2([H])C([H])([H])C(=O)C1=C3C([H])([H])[H]

$$$$
53:0:1
     RDKit          3D

 41 45  0  0  1  0  0  0  0  0999 V2000
    5.1239   -0.3351    1.0681 C   0  0  0  0  0  0  0  0  0  0  0  0
    4.5624   -1.2128   -0.0241 C   0  0  0  0  0  0  0  0  0  0  0  0
    4.3296   -0.8641   -1.3081 C   0  0  0  0  0  0  0  0  0  0  0  0
    3.6336   -1.9333   -1.9729 C   0  0  0  0  0  0  0  0  0  0  0  0
    3.1447   -2.6945   -0.9761 C   0  0  0  0  0  0  0  0  0  0  0  0
    2.1758   -3.8516   -1.1282 C   0  0  0  0  0  0  0  0  0  0  0  0
    4.1045   -2.6350    0.2038 C   0  0  2  0  0  0  0  0  0  0  0  0
    3.3589   -2.8286    1.5604 C   0  0  0  0  0  0  0  0  0  0  0  0
    2.2841   -2.2732    1.7760 O   0  0  0  0  0  0  0  0  0  0  0  0
    4.0194   -3.6625    2.5576 C   0  0  0  0  0  0  0  0  0  0  0  0
    3.7557   -4.9604    2.8012 C   0  0  0  0  0  0  0  0  0  0  0  0
    2.4810   -5.7230    2.4546 C   0  0  0  0  0  0  0  0  0  0  0  0
    4.9045   -5.7467    3.4146 C   0  0  1  0  0  0  0  0  0  0  0  0
    6.1678   -5.4039    4.0894 O   0  0  0  0  0  0  0  0  0  0  0  0
    5.2751   -4.4022    4.1758 C   0  0  1  0  0  0  0  0  0  0  0  0
    5.2582   -3.2182    3.2460 C   0  0  0  0  0  0  0  0  0  0  0  0
    5.5198   -6.2668    2.1118 C   0  0  0  0  0  0  0  0  0  0  0  0
    5.5592   -7.4681    1.8434 O   0  0  0  0  0  0  0  0  0  0  0  0
    6.0334   -5.2740    1.3140 O   0  0  0  0  0  0  0  0  0  0  0  0
    5.3337   -5.0344    0.1514 C   0  0  0  0  0  0  0  0  0  0  0  0
    4.6179   -5.8565   -0.4416 O   0  0  0  0  0  0  0  0  0  0  0  0
    5.3416   -3.5393   -0.2176 C   0  0  1  0  0  0  0  0  0  0  0  0
    5.7492   -3.3250   -1.7390 C   0  0  0  0  0  0  0  0  0  0  0  0
    4.6179   -2.7747   -2.6586 C   0  0  0  0  0  0  0  0  0  0  0  0
    4.5845   -3.0461   -3.8577 O   0  0  0  0  0  0  0  0  0  0  0  0
    5.9509   -0.8207    1.5833 H   0  0  0  0  0  0  0  0  0  0  0  0
    4.3621   -0.0664    1.8028 H   0  0  0  0  0  0  0  0  0  0  0  0
    5.5084    0.5825    0.6461 H   0  0  0  0  0  0  0  0  0  0  0  0
    4.5221    0.1039   -1.7452 H   0  0  0  0  0  0  0  0  0  0  0  0
    2.4072   -4.6915   -0.4775 H   0  0  0  0  0  0  0  0  0  0  0  0
    2.1110   -4.1873   -2.1620 H   0  0  0  0  0  0  0  0  0  0  0  0
    1.1926   -3.4762   -0.8942 H   0  0  0  0  0  0  0  0  0  0  0  0
    2.6967   -6.6739    1.9640 H   0  0  0  0  0  0  0  0  0  0  0  0
    1.7806   -5.1552    1.8440 H   0  0  0  0  0  0  0  0  0  0  0  0
    1.9817   -5.9637    3.3934 H   0  0  0  0  0  0  0  0  0  0  0  0
    4.7572   -4.2683    5.1155 H   0  0  0  0  0  0  0  0  0  0  0  0
    6.1365   -3.2089    2.6017 H   0  0  0  0  0  0  0  0  0  0  0  0
    5.1573   -2.2695    3.7720 H   0  0  0  0  0  0  0  0  0  0  0  0
    6.1855   -3.1459    0.3423 H   0  0  0  0  0  0  0  0  0  0  0  0
    6.5787   -2.6085   -1.7932 H   0  0  0  0  0  0  0  0  0  0  0  0
    6.1262   -4.2513   -2.1757 H   0  0  0  0  0  0  0  0  0  0  0  0
  1  2  1  0
  1 26  1  0
  1 27  1  0
  1 28  1  0
  7  2  1  1
  2  3  2  0
  3  4  1  0
  3 29  1  0
  4 24  1  0
  4  5  2  0
  5  6  1  0
  5  7  1  0
  6 30  1  0
  6 31  1  0
  6 32  1  0
  7 22  1  0
  7  8  1  0
  8  9  2  0
  8 10  1  0
 10 16  1  0
 10 11  2  0
 11 12  1  0
 11 13  1  0
 12 33  1  0
 12 34  1  0
 12 35  1  0
 13 15  1  0
 13 14  1  6
 13 17  1  0
 14 15  1  0
 15 16  1  0
 15 36  1  1
 16 37  1  0
 16 38  1  0
 17 18  2  0
 17 19  1  0
 19 20  1  0
 20 21  2  0
 20 22  1  0
 22 23  1  0
 22 39  1  1
 23 24  1  0
 23 40  1  0
 23 41  1  0
 24 25  2  0
M  END
>  <i_m_ct_stereo_status>  (144) 
1

>  <s_m_source_file>  (144) 
/var/tmp/pbs.5076255.sched01/tmpmalnbme9/37wob9dpop.sdf

>  <i_m_source_file_index>  (144) 
32

>  <i_lp_mmshare_version>  (144) 
48012

>  <i_f3d_flags>  (144) 
0

>  <s_epik_input>  (144) 
W0NIM11DMT1bQ0hdQyg9QzJbQ0gzXSlDKD1PKVtDSDJdW0NAQEhdKFtDQEBdMTIzKUMoPU8pT0MoPU8pW0NAXTQ1W0NAQEhdKE81KVtDSDJdQyhDMz1PKT1DNFtDSDNd

>  <s_epik_cmdline>  (144) 
J2VwaWtfcHl0aG9uJywgJy1waHQnLCAnMi4wJywgJy1waCcsICc3LjAnLCAnLXRuJywgJzgnLCAnLW1hJywgJzIwMCcsICctaW1hZScsICc8aW5maWxlLm1hZT4nLCAnLW9tYWUnLCAnPG91dGZpbGUubWFlPic=

>  <r_lp_tautomer_probability>  (144) 
1

>  <r_epik_Ionization_Penalty>  (144) 
0

>  <r_epik_Ionization_Penalty_Charging>  (144) 
0

>  <r_epik_Ionization_Penalty_Neutral>  (144) 
0

>  <r_epik_State_Penalty>  (144) 
-0

>  <r_epik_Charging_Adjusted_Penalty>  (144) 
0

>  <i_epik_Tot_Q>  (144) 
0

>  <i_epik_Tot_abs_Q>  (144) 
0

>  <s_lp_Force_Field>  (144) 
OPLS3e

>  <r_lp_Energy>  (144) 
170.315

>  <b_lp_Chiralities_Consistent>  (144) 
1

>  <s_lp_Variant>  (144) 
53:0-1

>  <s_i_glide_gridfile>  (144) 
pfpi4k_grid

>  <i_i_glide_lignum>  (144) 
32

>  <i_i_glide_rotatable_bonds>  (144) 
0

>  <r_i_docking_score>  (144) 
-2.9293

>  <r_i_glide_ligand_efficiency>  (144) 
-0.117172

>  <r_i_glide_ligand_efficiency_sa>  (144) 
-0.342613

>  <r_i_glide_ligand_efficiency_ln>  (144) 
-0.694331

>  <r_i_glide_gscore>  (144) 
-2.9293

>  <r_i_glide_lipo>  (144) 
-0.436698

>  <r_i_glide_hbond>  (144) 
-0.0262563

>  <r_i_glide_metal>  (144) 
-0

>  <r_i_glide_rewards>  (144) 
-1.3586

>  <r_i_glide_evdw>  (144) 
-23.1473

>  <r_i_glide_ecoul>  (144) 
0.360841

>  <r_i_glide_erotb>  (144) 
0

>  <r_i_glide_esite>  (144) 
-0.00450387

>  <r_i_glide_emodel>  (144) 
-24.8677

>  <r_i_glide_energy>  (144) 
-22.7864

>  <r_i_glide_einternal>  (144) 
0

>  <r_i_glide_intrahb_reward>  (144) 
-0

>  <i_i_glide_confnum>  (144) 
1

>  <i_i_glide_posenum>  (144) 
1

>  <r_i_glide_eff_state_penalty>  (144) 
0

>  <ligand_id>  (144) 
53

>  <original_smiles>  (144) 
CC1=CC2=C(C)C13C(=O)C1=C(C)C4(OC4C1)C(=O)OC(=O)C3CC2=O

>  <smiles>  (144) 
[H]C1=C(C([H])([H])[H])C23C(=O)C4=C(C([H])([H])[H])C5(OC5([H])C4([H])[H])C(=O)OC(=O)C2([H])C([H])([H])C(=O)C1=C3C([H])([H])[H]

$$$$
53:0:2
     RDKit          3D

 41 45  0  0  1  0  0  0  0  0999 V2000
    1.6703   -4.4297   -1.1071 C   0  0  0  0  0  0  0  0  0  0  0  0
    2.9660   -3.6864   -1.1565 C   0  0  0  0  0  0  0  0  0  0  0  0
    3.4853   -3.1460   -2.2509 C   0  0  0  0  0  0  0  0  0  0  0  0
    4.8122   -2.7247   -1.9241 C   0  0  0  0  0  0  0  0  0  0  0  0
    5.1801   -3.4199   -0.8373 C   0  0  0  0  0  0  0  0  0  0  0  0
    6.5527   -3.4067   -0.1813 C   0  0  0  0  0  0  0  0  0  0  0  0
    3.9312   -3.5915    0.0083 C   0  0  2  0  0  0  0  0  0  0  0  0
    3.9948   -4.8995    0.8360 C   0  0  0  0  0  0  0  0  0  0  0  0
    4.4647   -5.9286    0.3606 O   0  0  0  0  0  0  0  0  0  0  0  0
    3.4634   -4.8475    2.2004 C   0  0  0  0  0  0  0  0  0  0  0  0
    4.1889   -4.6901    3.3177 C   0  0  0  0  0  0  0  0  0  0  0  0
    5.6831   -4.9267    3.4951 C   0  0  0  0  0  0  0  0  0  0  0  0
    3.4369   -4.0487    4.4835 C   0  0  1  0  0  0  0  0  0  0  0  0
    2.0142   -3.8486    4.8200 O   0  0  0  0  0  0  0  0  0  0  0  0
    2.1968   -4.8697    3.9626 C   0  0  1  0  0  0  0  0  0  0  0  0
    2.0152   -4.7211    2.4783 C   0  0  0  0  0  0  0  0  0  0  0  0
    3.7767   -2.5802    4.2149 C   0  0  0  0  0  0  0  0  0  0  0  0
    4.4479   -1.9132    5.0068 O   0  0  0  0  0  0  0  0  0  0  0  0
    3.2722   -2.1245    3.0333 O   0  0  0  0  0  0  0  0  0  0  0  0
    4.1870   -1.8542    2.0536 C   0  0  0  0  0  0  0  0  0  0  0  0
    5.3622   -1.5102    2.1933 O   0  0  0  0  0  0  0  0  0  0  0  0
    3.5898   -2.1894    0.6720 C   0  0  1  0  0  0  0  0  0  0  0  0
    3.8183   -1.0178   -0.3379 C   0  0  0  0  0  0  0  0  0  0  0  0
    4.7469   -1.3344   -1.5237 C   0  0  0  0  0  0  0  0  0  0  0  0
    5.3587   -0.4673   -2.1152 O   0  0  0  0  0  0  0  0  0  0  0  0
    1.1069   -4.0887   -0.3252 H   0  0  0  0  0  0  0  0  0  0  0  0
    1.7941   -5.4946   -0.9084 H   0  0  0  0  0  0  0  0  0  0  0  0
    1.0737   -4.2687   -1.9941 H   0  0  0  0  0  0  0  0  0  0  0  0
    3.0360   -3.1191   -3.2348 H   0  0  0  0  0  0  0  0  0  0  0  0
    6.4792   -3.3612    0.9022 H   0  0  0  0  0  0  0  0  0  0  0  0
    7.1793   -2.5922   -0.5425 H   0  0  0  0  0  0  0  0  0  0  0  0
    7.0309   -4.3526   -0.4184 H   0  0  0  0  0  0  0  0  0  0  0  0
    6.1743   -4.0905    3.9929 H   0  0  0  0  0  0  0  0  0  0  0  0
    6.2179   -5.1598    2.5725 H   0  0  0  0  0  0  0  0  0  0  0  0
    5.7869   -5.7782    4.1621 H   0  0  0  0  0  0  0  0  0  0  0  0
    2.1248   -5.8887    4.3398 H   0  0  0  0  0  0  0  0  0  0  0  0
    1.6060   -3.7430    2.2311 H   0  0  0  0  0  0  0  0  0  0  0  0
    1.4293   -5.5203    2.0357 H   0  0  0  0  0  0  0  0  0  0  0  0
    2.5095   -2.1920    0.8301 H   0  0  0  0  0  0  0  0  0  0  0  0
    2.8673   -0.7544   -0.7931 H   0  0  0  0  0  0  0  0  0  0  0  0
    4.1546   -0.1260    0.1580 H   0  0  0  0  0  0  0  0  0  0  0  0
  1  2  1  0
  1 26  1  0
  1 27  1  0
  1 28  1  0
  7  2  1  6
  2  3  2  0
  3  4  1  0
  3 29  1  0
  4 24  1  0
  4  5  2  0
  5  6  1  0
  5  7  1  0
  6 30  1  0
  6 31  1  0
  6 32  1  0
  7 22  1  0
  7  8  1  0
  8  9  2  0
  8 10  1  0
 10 16  1  0
 10 11  2  0
 11 12  1  0
 11 13  1  0
 12 33  1  0
 12 34  1  0
 12 35  1  0
 13 15  1  0
 13 14  1  6
 13 17  1  0
 14 15  1  0
 15 16  1  0
 15 36  1  1
 16 37  1  0
 16 38  1  0
 17 18  2  0
 17 19  1  0
 19 20  1  0
 20 21  2  0
 20 22  1  0
 22 23  1  0
 22 39  1  1
 23 24  1  0
 23 40  1  0
 23 41  1  0
 24 25  2  0
M  END
>  <i_m_ct_stereo_status>  (145) 
1

>  <s_m_source_file>  (145) 
/var/tmp/pbs.5076255.sched01/tmpmalnbme9/37wob9dpop.sdf

>  <i_m_source_file_index>  (145) 
32

>  <i_lp_mmshare_version>  (145) 
48012

>  <i_f3d_flags>  (145) 
0

>  <s_epik_input>  (145) 
W0NIM11DMT1bQ0hdQyg9QzJbQ0gzXSlDKD1PKVtDSDJdW0NAQEhdKFtDQEBdMTIzKUMoPU8pT0MoPU8pW0NAXTQ1W0NAQEhdKE81KVtDSDJdQyhDMz1PKT1DNFtDSDNd

>  <s_epik_cmdline>  (145) 
J2VwaWtfcHl0aG9uJywgJy1waHQnLCAnMi4wJywgJy1waCcsICc3LjAnLCAnLXRuJywgJzgnLCAnLW1hJywgJzIwMCcsICctaW1hZScsICc8aW5maWxlLm1hZT4nLCAnLW9tYWUnLCAnPG91dGZpbGUubWFlPic=

>  <r_lp_tautomer_probability>  (145) 
1

>  <r_epik_Ionization_Penalty>  (145) 
0

>  <r_epik_Ionization_Penalty_Charging>  (145) 
0

>  <r_epik_Ionization_Penalty_Neutral>  (145) 
0

>  <r_epik_State_Penalty>  (145) 
-0

>  <r_epik_Charging_Adjusted_Penalty>  (145) 
0

>  <i_epik_Tot_Q>  (145) 
0

>  <i_epik_Tot_abs_Q>  (145) 
0

>  <s_lp_Force_Field>  (145) 
OPLS3e

>  <r_lp_Energy>  (145) 
170.315

>  <b_lp_Chiralities_Consistent>  (145) 
1

>  <s_lp_Variant>  (145) 
53:0-1

>  <s_i_glide_gridfile>  (145) 
pfpi4k_grid

>  <i_i_glide_lignum>  (145) 
32

>  <i_i_glide_rotatable_bonds>  (145) 
0

>  <r_i_docking_score>  (145) 
-1.79944

>  <r_i_glide_ligand_efficiency>  (145) 
-0.0719776

>  <r_i_glide_ligand_efficiency_sa>  (145) 
-0.210464

>  <r_i_glide_ligand_efficiency_ln>  (145) 
-0.426521

>  <r_i_glide_gscore>  (145) 
-1.79944

>  <r_i_glide_lipo>  (145) 
-0.230638

>  <r_i_glide_hbond>  (145) 
-0.000474719

>  <r_i_glide_metal>  (145) 
-0

>  <r_i_glide_rewards>  (145) 
-1.12339

>  <r_i_glide_evdw>  (145) 
-3.34205

>  <r_i_glide_ecoul>  (145) 
-1.53843

>  <r_i_glide_erotb>  (145) 
0

>  <r_i_glide_esite>  (145) 
-0.0470667

>  <r_i_glide_emodel>  (145) 
-5.11005

>  <r_i_glide_energy>  (145) 
-4.88049

>  <r_i_glide_einternal>  (145) 
0

>  <r_i_glide_intrahb_reward>  (145) 
-0

>  <i_i_glide_confnum>  (145) 
2

>  <i_i_glide_posenum>  (145) 
25

>  <r_i_glide_eff_state_penalty>  (145) 
0

>  <ligand_id>  (145) 
53

>  <original_smiles>  (145) 
CC1=CC2=C(C)C13C(=O)C1=C(C)C4(OC4C1)C(=O)OC(=O)C3CC2=O

>  <smiles>  (145) 
[H]C1=C(C([H])([H])[H])C23C(=O)C4=C(C([H])([H])[H])C5(OC5([H])C4([H])[H])C(=O)OC(=O)C2([H])C([H])([H])C(=O)C1=C3C([H])([H])[H]

$$$$
54:0:0
     RDKit          3D

 90 98  0  0  1  0  0  0  0  0999 V2000
    6.5838   -0.0678    6.8429 C   0  0  0  0  0  0  0  0  0  0  0  0
    5.4078    0.7384    6.7966 O   0  0  0  0  0  0  0  0  0  0  0  0
    4.3446    0.3369    7.6628 C   0  0  2  0  0  0  0  0  0  0  0  0
    3.6410   -0.8712    6.9687 C   0  0  0  0  0  0  0  0  0  0  0  0
    2.3247   -1.4286    7.5345 C   0  0  2  0  0  0  0  0  0  0  0  0
    1.8955   -2.6287    6.7225 C   0  0  0  0  0  0  0  0  0  0  0  0
    0.6788   -2.5169    6.2025 C   0  0  0  0  0  0  0  0  0  0  0  0
   -0.0330   -3.5099    5.3106 C   0  0  0  0  0  0  0  0  0  0  0  0
    0.0136   -1.2211    6.5644 C   0  0  0  0  0  0  0  0  0  0  0  0
    1.0109   -0.5556    7.5597 C   0  0  1  0  0  0  0  0  0  0  0  0
    0.4173   -1.0083    8.7817 O   0  0  0  0  0  0  0  0  0  0  0  0
    1.1014    1.0515    7.6226 C   0  0  1  0  0  0  0  0  0  0  0  0
   -0.3720    1.5111    7.9795 C   0  0  0  0  0  0  0  0  0  0  0  0
   -0.6931    1.7432    9.4521 C   0  0  0  0  0  0  0  0  0  0  0  0
    0.2330    2.8016   10.0164 C   0  0  0  0  0  0  0  0  0  0  0  0
    1.7425    2.4196    9.9784 C   0  0  2  0  0  0  0  0  0  0  0  0
    1.9776    1.7358   11.3614 C   0  0  0  0  0  0  0  0  0  0  0  0
    2.6137    3.7467   10.0049 C   0  0  0  0  0  0  0  0  0  0  0  0
    3.4484    4.1550    8.7399 C   0  0  1  0  0  0  0  0  0  0  0  0
    4.7303    4.5675    9.1734 O   0  0  0  0  0  0  0  0  0  0  0  0
    3.4747    3.0579    7.6050 C   0  0  1  0  0  0  0  0  0  0  0  0
    4.5750    3.2917    6.7469 O   0  0  0  0  0  0  0  0  0  0  0  0
    3.5882    1.6208    8.2882 C   0  0  2  0  0  0  0  0  0  0  0  0
    4.4612    1.7469    9.4132 O   0  0  0  0  0  0  0  0  0  0  0  0
    2.1473    1.3664    8.8286 C   0  0  2  0  0  0  0  0  0  0  0  0
    2.1814    3.2426    6.6882 C   0  0  1  0  0  0  0  0  0  0  0  0
    1.1654    3.9080    7.4066 O   0  0  0  0  0  0  0  0  0  0  0  0
    2.2415    4.3805    5.6578 C   0  0  1  0  0  0  0  0  0  0  0  0
    2.4447    4.1299    4.2680 O   0  0  0  0  0  0  0  0  0  0  0  0
    1.1148    4.5280    4.6542 C   0  0  2  0  0  0  0  0  0  0  0  0
    0.7050    5.9409    4.2813 C   0  0  0  0  0  0  0  0  0  0  0  0
   -0.0229    3.4694    4.7195 C   0  0  1  0  0  0  0  0  0  0  0  0
   -1.1195    3.2858    3.5978 C   0  0  1  0  0  0  0  0  0  0  0  0
   -1.4307    4.4671    2.8963 O   0  0  0  0  0  0  0  0  0  0  0  0
   -1.0135    2.0890    2.5935 C   0  0  0  0  0  0  0  0  0  0  0  0
   -0.2152    0.8498    3.0770 C   0  0  0  0  0  0  0  0  0  0  0  0
    1.0518    1.3590    3.7817 C   0  0  2  0  0  0  0  0  0  0  0  0
    1.8985    2.0804    2.6872 C   0  0  0  0  0  0  0  0  0  0  0  0
    2.0340    0.4058    4.4126 C   0  0  0  0  0  0  0  0  0  0  0  0
    2.5518    1.1668    5.5179 O   0  0  0  0  0  0  0  0  0  0  0  0
    1.5466    1.8691    6.2520 C   0  0  1  0  0  0  0  0  0  0  0  0
    0.5276    2.0689    5.0654 C   0  0  1  0  0  0  0  0  0  0  0  0
    7.3122    0.2865    6.1066 H   0  0  0  0  0  0  0  0  0  0  0  0
    6.3877   -1.1182    6.6116 H   0  0  0  0  0  0  0  0  0  0  0  0
    7.0510   -0.0153    7.8285 H   0  0  0  0  0  0  0  0  0  0  0  0
    4.8044   -0.2055    8.5007 H   0  0  0  0  0  0  0  0  0  0  0  0
    3.6267   -0.7838    5.8923 H   0  0  0  0  0  0  0  0  0  0  0  0
    4.3304   -1.7111    7.0618 H   0  0  0  0  0  0  0  0  0  0  0  0
    2.5740   -1.8004    8.5315 H   0  0  0  0  0  0  0  0  0  0  0  0
    2.5446   -3.4745    6.5701 H   0  0  0  0  0  0  0  0  0  0  0  0
   -0.2714   -3.0406    4.3539 H   0  0  0  0  0  0  0  0  0  0  0  0
   -0.9589   -3.8342    5.7843 H   0  0  0  0  0  0  0  0  0  0  0  0
    0.5831   -4.3886    5.1156 H   0  0  0  0  0  0  0  0  0  0  0  0
   -0.1931   -0.6316    5.6855 H   0  0  0  0  0  0  0  0  0  0  0  0
   -0.9622   -1.4345    6.9944 H   0  0  0  0  0  0  0  0  0  0  0  0
    0.9796   -0.7463    9.4951 H   0  0  0  0  0  0  0  0  0  0  0  0
   -0.6578    2.4258    7.4720 H   0  0  0  0  0  0  0  0  0  0  0  0
   -1.1072    0.8186    7.5906 H   0  0  0  0  0  0  0  0  0  0  0  0
   -1.7211    2.0911    9.5403 H   0  0  0  0  0  0  0  0  0  0  0  0
   -0.6694    0.8385   10.0531 H   0  0  0  0  0  0  0  0  0  0  0  0
    0.0254    3.7417    9.5062 H   0  0  0  0  0  0  0  0  0  0  0  0
   -0.0854    3.0122   11.0336 H   0  0  0  0  0  0  0  0  0  0  0  0
    3.0107    1.4161   11.5011 H   0  0  0  0  0  0  0  0  0  0  0  0
    1.3424    0.8572   11.5036 H   0  0  0  0  0  0  0  0  0  0  0  0
    1.7603    2.4189   12.1856 H   0  0  0  0  0  0  0  0  0  0  0  0
    1.9990    4.5937   10.2911 H   0  0  0  0  0  0  0  0  0  0  0  0
    3.3135    3.6712   10.8490 H   0  0  0  0  0  0  0  0  0  0  0  0
    3.0533    5.0836    8.3394 H   0  0  0  0  0  0  0  0  0  0  0  0
    5.1603    3.7850    9.4816 H   0  0  0  0  0  0  0  0  0  0  0  0
    4.5925    2.5936    6.1080 H   0  0  0  0  0  0  0  0  0  0  0  0
    4.4210    0.9381    9.8976 H   0  0  0  0  0  0  0  0  0  0  0  0
    2.2591    0.4421    9.3903 H   0  0  0  0  0  0  0  0  0  0  0  0
    1.4851    4.7579    7.6586 H   0  0  0  0  0  0  0  0  0  0  0  0
    2.7357    5.2901    6.0040 H   0  0  0  0  0  0  0  0  0  0  0  0
   -0.1839    6.2479    4.8371 H   0  0  0  0  0  0  0  0  0  0  0  0
    0.5062    6.0322    3.2101 H   0  0  0  0  0  0  0  0  0  0  0  0
    1.5033    6.6501    4.5103 H   0  0  0  0  0  0  0  0  0  0  0  0
   -0.6082    3.8078    5.5749 H   0  0  0  0  0  0  0  0  0  0  0  0
   -2.0236    3.0702    4.1618 H   0  0  0  0  0  0  0  0  0  0  0  0
   -0.8239    4.5362    2.1610 H   0  0  0  0  0  0  0  0  0  0  0  0
   -2.0137    1.7805    2.2946 H   0  0  0  0  0  0  0  0  0  0  0  0
   -0.5462    2.4358    1.6815 H   0  0  0  0  0  0  0  0  0  0  0  0
   -0.8381    0.2401    3.7263 H   0  0  0  0  0  0  0  0  0  0  0  0
    0.0354    0.2151    2.2278 H   0  0  0  0  0  0  0  0  0  0  0  0
    2.9269    2.2686    3.0027 H   0  0  0  0  0  0  0  0  0  0  0  0
    1.4656    3.0226    2.3505 H   0  0  0  0  0  0  0  0  0  0  0  0
    1.9838    1.4463    1.8044 H   0  0  0  0  0  0  0  0  0  0  0  0
    1.5919   -0.5297    4.6990 H   0  0  0  0  0  0  0  0  0  0  0  0
    2.8520    0.1249    3.7497 H   0  0  0  0  0  0  0  0  0  0  0  0
   -0.3553    1.5283    5.3911 H   0  0  0  0  0  0  0  0  0  0  0  0
  1  2  1  0
  1 43  1  0
  1 44  1  0
  1 45  1  0
  2  3  1  0
  3 23  1  0
  3  4  1  0
  3 46  1  1
  4  5  1  0
  4 47  1  0
  4 48  1  0
  5 10  1  0
  5  6  1  0
  5 49  1  1
  6  7  2  0
  6 50  1  0
  7  8  1  0
  7  9  1  0
  8 51  1  0
  8 52  1  0
  8 53  1  0
  9 10  1  0
  9 54  1  0
  9 55  1  0
 10 11  1  1
 10 12  1  0
 11 56  1  0
 12 25  1  0
 12 41  1  0
 12 13  1  1
 13 14  1  0
 13 57  1  0
 13 58  1  0
 14 15  1  0
 14 59  1  0
 14 60  1  0
 15 16  1  0
 15 61  1  0
 15 62  1  0
 16 25  1  0
 16 17  1  1
 16 18  1  0
 17 63  1  0
 17 64  1  0
 17 65  1  0
 18 19  1  0
 18 66  1  0
 18 67  1  0
 19 20  1  0
 19 21  1  0
 19 68  1  6
 20 69  1  0
 21 22  1  6
 21 23  1  0
 21 26  1  0
 22 70  1  0
 23 24  1  1
 23 25  1  0
 24 71  1  0
 25 72  1  1
 26 41  1  0
 26 27  1  1
 26 28  1  0
 27 73  1  0
 28 30  1  0
 28 29  1  0
 28 74  1  1
 29 30  1  0
 30 31  1  6
 30 32  1  0
 31 75  1  0
 31 76  1  0
 31 77  1  0
 32 42  1  0
 32 33  1  0
 32 78  1  1
 33 34  1  0
 33 35  1  0
 33 79  1  1
 34 80  1  0
 35 36  1  0
 35 81  1  0
 35 82  1  0
 36 37  1  0
 36 83  1  0
 36 84  1  0
 37 42  1  0
 37 38  1  6
 37 39  1  0
 38 85  1  0
 38 86  1  0
 38 87  1  0
 39 40  1  0
 39 88  1  0
 39 89  1  0
 41 40  1  6
 41 42  1  0
 42 90  1  1
M  END
>  <i_m_ct_stereo_status>  (146) 
1

>  <s_m_source_file>  (146) 
/var/tmp/pbs.5076255.sched01/tmpmalnbme9/37wob9dpop.sdf

>  <i_m_source_file_index>  (146) 
33

>  <i_lp_mmshare_version>  (146) 
48012

>  <i_f3d_flags>  (146) 
0

>  <s_epik_input>  (146) 
W0NIXTE9QyhbQ0gzXSlbQ0gyXVtDQEBdMihbT0hdKVtDQEBIXTFbQ0gyXVtDQEBIXShPW0NIM10pW0NAXShbT0hdKShbQ0BIXTNbQ0BdKFtDSDNdKShbQ0gyXVtDSDJdW0NIMl00KVtDSDJdW0NASF01W09IXSlbQ0BAXTUoW09IXSlbQ0BdKFtPSF0pKFtDQF02N1tDQEBdMjM0KVtDQEBIXThbQ0BdKE84KShbQ0gzXSlbQ0BASF05W0NASF03W0NAQF0oW0NIM10pKFtDSDJdTzYpW0NIMl1bQ0gyXVtDQEBIXTlbT0hd

>  <s_epik_cmdline>  (146) 
J2VwaWtfcHl0aG9uJywgJy1waHQnLCAnMi4wJywgJy1waCcsICc3LjAnLCAnLXRuJywgJzgnLCAnLW1hJywgJzIwMCcsICctaW1hZScsICc8aW5maWxlLm1hZT4nLCAnLW9tYWUnLCAnPG91dGZpbGUubWFlPic=

>  <r_lp_tautomer_probability>  (146) 
1

>  <r_epik_Ionization_Penalty>  (146) 
6.27858e-07

>  <r_epik_Ionization_Penalty_Charging>  (146) 
0

>  <r_epik_Ionization_Penalty_Neutral>  (146) 
6.27858e-07

>  <r_epik_State_Penalty>  (146) 
-0

>  <r_epik_Charging_Adjusted_Penalty>  (146) 
0

>  <i_epik_Tot_Q>  (146) 
0

>  <i_epik_Tot_abs_Q>  (146) 
0

>  <s_lp_Force_Field>  (146) 
OPLS3e

>  <r_lp_Energy>  (146) 
174.906

>  <b_lp_Chiralities_Consistent>  (146) 
1

>  <s_lp_Variant>  (146) 
54:0-1

>  <s_i_glide_gridfile>  (146) 
pfpi4k_grid

>  <i_i_glide_lignum>  (146) 
33

>  <i_i_glide_rotatable_bonds>  (146) 
7

>  <r_i_docking_score>  (146) 
-2.79898

>  <r_i_glide_ligand_efficiency>  (146) 
-0.0666423

>  <r_i_glide_ligand_efficiency_sa>  (146) 
-0.23165

>  <r_i_glide_ligand_efficiency_ln>  (146) 
-0.590792

>  <r_i_glide_gscore>  (146) 
-2.79898

>  <r_i_glide_lipo>  (146) 
-0.0653301

>  <r_i_glide_hbond>  (146) 
-0.197367

>  <r_i_glide_metal>  (146) 
-0

>  <r_i_glide_rewards>  (146) 
-0.5

>  <r_i_glide_evdw>  (146) 
-17.347

>  <r_i_glide_ecoul>  (146) 
-7.79287

>  <r_i_glide_erotb>  (146) 
0

>  <r_i_glide_esite>  (146) 
0

>  <r_i_glide_emodel>  (146) 
-34.3639

>  <r_i_glide_energy>  (146) 
-25.1398

>  <r_i_glide_einternal>  (146) 
1.24037

>  <r_i_glide_intrahb_reward>  (146) 
-0.5

>  <i_i_glide_confnum>  (146) 
2

>  <i_i_glide_posenum>  (146) 
10

>  <r_i_glide_eff_state_penalty>  (146) 
0

>  <ligand_id>  (146) 
54

>  <original_smiles>  (146) 
COC1CC2C=C(C)CC2(O)C23CCCC4(C)CC(O)C(O)(C1(O)C42)C1(O)C2OC2(C)C2C(O)CCC4(C)COC13C24

>  <smiles>  (146) 
[H]OC1([H])C([H])([H])C([H])([H])C2(C([H])([H])[H])C([H])([H])OC34C2([H])C1([H])C1(C([H])([H])[H])OC1([H])C3(O[H])C1(O[H])C([H])(O[H])C([H])([H])C2(C([H])([H])[H])C([H])([H])C([H])([H])C([H])([H])C43C2([H])C1(O[H])C([H])(OC([H])([H])[H])C([H])([H])C1([H])C([H])=C(C([H])([H])[H])C([H])([H])C13O[H]

$$$$
54:0:1
     RDKit          3D

 90 98  0  0  1  0  0  0  0  0999 V2000
    5.4644    0.3677    5.5391 C   0  0  0  0  0  0  0  0  0  0  0  0
    5.4118    0.7399    6.9103 O   0  0  0  0  0  0  0  0  0  0  0  0
    4.2677    0.3772    7.6836 C   0  0  2  0  0  0  0  0  0  0  0  0
    3.5801   -0.8825    7.0555 C   0  0  0  0  0  0  0  0  0  0  0  0
    2.2530   -1.4479    7.6610 C   0  0  2  0  0  0  0  0  0  0  0  0
    1.8446   -2.6475    6.8278 C   0  0  0  0  0  0  0  0  0  0  0  0
    0.6627   -2.5310    6.2474 C   0  0  0  0  0  0  0  0  0  0  0  0
   -0.0209   -3.5115    5.3172 C   0  0  0  0  0  0  0  0  0  0  0  0
   -0.0048   -1.2234    6.5940 C   0  0  0  0  0  0  0  0  0  0  0  0
    0.9482   -0.5759    7.6261 C   0  0  1  0  0  0  0  0  0  0  0  0
    0.3212   -1.0079    8.8245 O   0  0  0  0  0  0  0  0  0  0  0  0
    1.0334    1.0408    7.6728 C   0  0  1  0  0  0  0  0  0  0  0  0
   -0.4443    1.5038    8.0029 C   0  0  0  0  0  0  0  0  0  0  0  0
   -0.7911    1.7325    9.4693 C   0  0  0  0  0  0  0  0  0  0  0  0
    0.1233    2.7933   10.0516 C   0  0  0  0  0  0  0  0  0  0  0  0
    1.6405    2.4167   10.0417 C   0  0  2  0  0  0  0  0  0  0  0  0
    1.8475    1.7267   11.4261 C   0  0  0  0  0  0  0  0  0  0  0  0
    2.5016    3.7443   10.0960 C   0  0  0  0  0  0  0  0  0  0  0  0
    3.3546    4.1532    8.8491 C   0  0  1  0  0  0  0  0  0  0  0  0
    4.6306    4.5826    9.2981 O   0  0  0  0  0  0  0  0  0  0  0  0
    3.3986    3.0603    7.6967 C   0  0  1  0  0  0  0  0  0  0  0  0
    4.5238    3.3239    6.8771 O   0  0  0  0  0  0  0  0  0  0  0  0
    3.5040    1.6162    8.3627 C   0  0  2  0  0  0  0  0  0  0  0  0
    4.3440    1.7203    9.5032 O   0  0  0  0  0  0  0  0  0  0  0  0
    2.0607    1.3646    8.8892 C   0  0  2  0  0  0  0  0  0  0  0  0
    2.1205    3.2473    6.7593 C   0  0  1  0  0  0  0  0  0  0  0  0
    1.0988    3.9112    7.4667 O   0  0  0  0  0  0  0  0  0  0  0  0
    2.2243    4.3859    5.7289 C   0  0  1  0  0  0  0  0  0  0  0  0
    2.4299    4.1408    4.3740 O   0  0  0  0  0  0  0  0  0  0  0  0
    1.1079    4.5303    4.6922 C   0  0  2  0  0  0  0  0  0  0  0  0
    0.7037    5.9492    4.3317 C   0  0  0  0  0  0  0  0  0  0  0  0
   -0.0299    3.4629    4.7603 C   0  0  1  0  0  0  0  0  0  0  0  0
   -1.1058    3.2927    3.6140 C   0  0  1  0  0  0  0  0  0  0  0  0
   -1.4167    4.4826    2.9253 O   0  0  0  0  0  0  0  0  0  0  0  0
   -0.9764    2.0981    2.5975 C   0  0  0  0  0  0  0  0  0  0  0  0
   -0.1893    0.8570    3.0929 C   0  0  0  0  0  0  0  0  0  0  0  0
    1.0539    1.3715    3.8316 C   0  0  2  0  0  0  0  0  0  0  0  0
    1.9286    2.0934    2.7573 C   0  0  0  0  0  0  0  0  0  0  0  0
    2.0053    0.4046    4.4723 C   0  0  0  0  0  0  0  0  0  0  0  0
    2.5310    1.1454    5.5968 O   0  0  0  0  0  0  0  0  0  0  0  0
    1.5018    1.8680    6.3160 C   0  0  1  0  0  0  0  0  0  0  0  0
    0.5050    2.0630    5.1130 C   0  0  1  0  0  0  0  0  0  0  0  0
    6.3837    0.7385    5.0711 H   0  0  0  0  0  0  0  0  0  0  0  0
    4.6190    0.8029    4.9840 H   0  0  0  0  0  0  0  0  0  0  0  0
    5.3968   -0.7177    5.4222 H   0  0  0  0  0  0  0  0  0  0  0  0
    4.7442   -0.1516    8.5047 H   0  0  0  0  0  0  0  0  0  0  0  0
    3.6101   -0.8075    5.9665 H   0  0  0  0  0  0  0  0  0  0  0  0
    4.2731   -1.7239    7.1945 H   0  0  0  0  0  0  0  0  0  0  0  0
    2.4690   -1.8316    8.6779 H   0  0  0  0  0  0  0  0  0  0  0  0
    2.5091   -3.4842    6.6604 H   0  0  0  0  0  0  0  0  0  0  0  0
   -0.2404   -3.0431    4.3620 H   0  0  0  0  0  0  0  0  0  0  0  0
   -0.9495   -3.8401    5.7718 H   0  0  0  0  0  0  0  0  0  0  0  0
    0.6028   -4.3881    5.1394 H   0  0  0  0  0  0  0  0  0  0  0  0
   -0.2059   -0.6362    5.7073 H   0  0  0  0  0  0  0  0  0  0  0  0
   -0.9895   -1.4610    6.9966 H   0  0  0  0  0  0  0  0  0  0  0  0
    0.8959   -0.7705    9.5434 H   0  0  0  0  0  0  0  0  0  0  0  0
   -0.7239    2.4262    7.4861 H   0  0  0  0  0  0  0  0  0  0  0  0
   -1.1609    0.8085    7.6046 H   0  0  0  0  0  0  0  0  0  0  0  0
   -1.8220    2.0758    9.5368 H   0  0  0  0  0  0  0  0  0  0  0  0
   -0.7766    0.8165   10.0751 H   0  0  0  0  0  0  0  0  0  0  0  0
   -0.0785    3.7426    9.5298 H   0  0  0  0  0  0  0  0  0  0  0  0
   -0.2165    2.9895   11.0590 H   0  0  0  0  0  0  0  0  0  0  0  0
    2.8747    1.4047   11.5868 H   0  0  0  0  0  0  0  0  0  0  0  0
    1.2128    0.8477   11.5514 H   0  0  0  0  0  0  0  0  0  0  0  0
    1.6101    2.4041   12.2469 H   0  0  0  0  0  0  0  0  0  0  0  0
    1.8725    4.5800   10.3496 H   0  0  0  0  0  0  0  0  0  0  0  0
    3.1822    3.6812   10.9644 H   0  0  0  0  0  0  0  0  0  0  0  0
    2.9629    5.0905    8.4381 H   0  0  0  0  0  0  0  0  0  0  0  0
    5.1283    3.8017    9.5257 H   0  0  0  0  0  0  0  0  0  0  0  0
    4.5106    2.6712    6.1840 H   0  0  0  0  0  0  0  0  0  0  0  0
    3.9014    2.2778   10.1321 H   0  0  0  0  0  0  0  0  0  0  0  0
    2.1774    0.4474    9.4552 H   0  0  0  0  0  0  0  0  0  0  0  0
    1.4119    4.7758    7.7081 H   0  0  0  0  0  0  0  0  0  0  0  0
    2.6853    5.2864    6.0906 H   0  0  0  0  0  0  0  0  0  0  0  0
   -0.1945    6.2487    4.8795 H   0  0  0  0  0  0  0  0  0  0  0  0
    0.5224    6.0394    3.2612 H   0  0  0  0  0  0  0  0  0  0  0  0
    1.4935    6.6548    4.5787 H   0  0  0  0  0  0  0  0  0  0  0  0
   -0.6440    3.8130    5.6017 H   0  0  0  0  0  0  0  0  0  0  0  0
   -2.0166    3.0570    4.1549 H   0  0  0  0  0  0  0  0  0  0  0  0
   -0.8052    4.5472    2.1880 H   0  0  0  0  0  0  0  0  0  0  0  0
   -1.9703    1.7802    2.2769 H   0  0  0  0  0  0  0  0  0  0  0  0
   -0.4940    2.4387    1.6836 H   0  0  0  0  0  0  0  0  0  0  0  0
   -0.8191    0.2405    3.7297 H   0  0  0  0  0  0  0  0  0  0  0  0
    0.0888    0.2181    2.2478 H   0  0  0  0  0  0  0  0  0  0  0  0
    2.9469    2.2757    3.0954 H   0  0  0  0  0  0  0  0  0  0  0  0
    1.5085    3.0318    2.4077 H   0  0  0  0  0  0  0  0  0  0  0  0
    2.0397    1.4622    1.8734 H   0  0  0  0  0  0  0  0  0  0  0  0
    1.5481   -0.5331    4.7317 H   0  0  0  0  0  0  0  0  0  0  0  0
    2.8299    0.1325    3.8215 H   0  0  0  0  0  0  0  0  0  0  0  0
   -0.3912    1.5305    5.4060 H   0  0  0  0  0  0  0  0  0  0  0  0
  1  2  1  0
  1 43  1  0
  1 44  1  0
  1 45  1  0
  2  3  1  0
  3 23  1  0
  3  4  1  0
  3 46  1  1
  4  5  1  0
  4 47  1  0
  4 48  1  0
  5 10  1  0
  5  6  1  0
  5 49  1  1
  6  7  2  0
  6 50  1  0
  7  8  1  0
  7  9  1  0
  8 51  1  0
  8 52  1  0
  8 53  1  0
  9 10  1  0
  9 54  1  0
  9 55  1  0
 10 11  1  1
 10 12  1  0
 11 56  1  0
 12 25  1  0
 12 41  1  0
 12 13  1  1
 13 14  1  0
 13 57  1  0
 13 58  1  0
 14 15  1  0
 14 59  1  0
 14 60  1  0
 15 16  1  0
 15 61  1  0
 15 62  1  0
 16 25  1  0
 16 17  1  1
 16 18  1  0
 17 63  1  0
 17 64  1  0
 17 65  1  0
 18 19  1  0
 18 66  1  0
 18 67  1  0
 19 20  1  0
 19 21  1  0
 19 68  1  6
 20 69  1  0
 21 22  1  6
 21 23  1  0
 21 26  1  0
 22 70  1  0
 23 24  1  1
 23 25  1  0
 24 71  1  0
 25 72  1  1
 26 41  1  0
 26 27  1  1
 26 28  1  0
 27 73  1  0
 28 30  1  0
 28 29  1  0
 28 74  1  1
 29 30  1  0
 30 31  1  6
 30 32  1  0
 31 75  1  0
 31 76  1  0
 31 77  1  0
 32 42  1  0
 32 33  1  0
 32 78  1  1
 33 34  1  0
 33 35  1  0
 33 79  1  1
 34 80  1  0
 35 36  1  0
 35 81  1  0
 35 82  1  0
 36 37  1  0
 36 83  1  0
 36 84  1  0
 37 42  1  0
 37 38  1  6
 37 39  1  0
 38 85  1  0
 38 86  1  0
 38 87  1  0
 39 40  1  0
 39 88  1  0
 39 89  1  0
 41 40  1  6
 41 42  1  0
 42 90  1  1
M  END
>  <i_m_ct_stereo_status>  (147) 
1

>  <s_m_source_file>  (147) 
/var/tmp/pbs.5076255.sched01/tmpmalnbme9/37wob9dpop.sdf

>  <i_m_source_file_index>  (147) 
33

>  <i_lp_mmshare_version>  (147) 
48012

>  <i_f3d_flags>  (147) 
0

>  <s_epik_input>  (147) 
W0NIXTE9QyhbQ0gzXSlbQ0gyXVtDQEBdMihbT0hdKVtDQEBIXTFbQ0gyXVtDQEBIXShPW0NIM10pW0NAXShbT0hdKShbQ0BIXTNbQ0BdKFtDSDNdKShbQ0gyXVtDSDJdW0NIMl00KVtDSDJdW0NASF01W09IXSlbQ0BAXTUoW09IXSlbQ0BdKFtPSF0pKFtDQF02N1tDQEBdMjM0KVtDQEBIXThbQ0BdKE84KShbQ0gzXSlbQ0BASF05W0NASF03W0NAQF0oW0NIM10pKFtDSDJdTzYpW0NIMl1bQ0gyXVtDQEBIXTlbT0hd

>  <s_epik_cmdline>  (147) 
J2VwaWtfcHl0aG9uJywgJy1waHQnLCAnMi4wJywgJy1waCcsICc3LjAnLCAnLXRuJywgJzgnLCAnLW1hJywgJzIwMCcsICctaW1hZScsICc8aW5maWxlLm1hZT4nLCAnLW9tYWUnLCAnPG91dGZpbGUubWFlPic=

>  <r_lp_tautomer_probability>  (147) 
1

>  <r_epik_Ionization_Penalty>  (147) 
6.27858e-07

>  <r_epik_Ionization_Penalty_Charging>  (147) 
0

>  <r_epik_Ionization_Penalty_Neutral>  (147) 
6.27858e-07

>  <r_epik_State_Penalty>  (147) 
-0

>  <r_epik_Charging_Adjusted_Penalty>  (147) 
0

>  <i_epik_Tot_Q>  (147) 
0

>  <i_epik_Tot_abs_Q>  (147) 
0

>  <s_lp_Force_Field>  (147) 
OPLS3e

>  <r_lp_Energy>  (147) 
174.906

>  <b_lp_Chiralities_Consistent>  (147) 
1

>  <s_lp_Variant>  (147) 
54:0-1

>  <s_i_glide_gridfile>  (147) 
pfpi4k_grid

>  <i_i_glide_lignum>  (147) 
33

>  <i_i_glide_rotatable_bonds>  (147) 
7

>  <r_i_docking_score>  (147) 
-2.39999

>  <r_i_glide_ligand_efficiency>  (147) 
-0.0571426

>  <r_i_glide_ligand_efficiency_sa>  (147) 
-0.198629

>  <r_i_glide_ligand_efficiency_ln>  (147) 
-0.506576

>  <r_i_glide_gscore>  (147) 
-2.39999

>  <r_i_glide_lipo>  (147) 
-0.0652243

>  <r_i_glide_hbond>  (147) 
-0.227052

>  <r_i_glide_metal>  (147) 
-0

>  <r_i_glide_rewards>  (147) 
0

>  <r_i_glide_evdw>  (147) 
-17.1917

>  <r_i_glide_ecoul>  (147) 
-8.32084

>  <r_i_glide_erotb>  (147) 
0

>  <r_i_glide_esite>  (147) 
0

>  <r_i_glide_emodel>  (147) 
-18.2393

>  <r_i_glide_energy>  (147) 
-25.5126

>  <r_i_glide_einternal>  (147) 
20.1247

>  <r_i_glide_intrahb_reward>  (147) 
-0

>  <i_i_glide_confnum>  (147) 
1

>  <i_i_glide_posenum>  (147) 
2

>  <r_i_glide_eff_state_penalty>  (147) 
0

>  <ligand_id>  (147) 
54

>  <original_smiles>  (147) 
COC1CC2C=C(C)CC2(O)C23CCCC4(C)CC(O)C(O)(C1(O)C42)C1(O)C2OC2(C)C2C(O)CCC4(C)COC13C24

>  <smiles>  (147) 
[H]OC1([H])C([H])([H])C([H])([H])C2(C([H])([H])[H])C([H])([H])OC34C2([H])C1([H])C1(C([H])([H])[H])OC1([H])C3(O[H])C1(O[H])C([H])(O[H])C([H])([H])C2(C([H])([H])[H])C([H])([H])C([H])([H])C([H])([H])C43C2([H])C1(O[H])C([H])(OC([H])([H])[H])C([H])([H])C1([H])C([H])=C(C([H])([H])[H])C([H])([H])C13O[H]

$$$$
54:0:2
     RDKit          3D

 90 98  0  0  1  0  0  0  0  0999 V2000
    4.9945   -3.4252    3.5746 C   0  0  0  0  0  0  0  0  0  0  0  0
    4.6379   -2.1114    4.0053 O   0  0  0  0  0  0  0  0  0  0  0  0
    4.1393   -2.0068    5.3395 C   0  0  2  0  0  0  0  0  0  0  0  0
    2.7452   -2.6905    5.3840 C   0  0  0  0  0  0  0  0  0  0  0  0
    1.8742   -2.5673    6.6245 C   0  0  2  0  0  0  0  0  0  0  0  0
    0.6338   -3.3912    6.4239 C   0  0  0  0  0  0  0  0  0  0  0  0
   -0.4804   -2.6864    6.5899 C   0  0  0  0  0  0  0  0  0  0  0  0
   -1.8680   -3.2208    6.4571 C   0  0  0  0  0  0  0  0  0  0  0  0
   -0.2317   -1.2366    6.8666 C   0  0  0  0  0  0  0  0  0  0  0  0
    1.2960   -1.1719    7.0667 C   0  0  1  0  0  0  0  0  0  0  0  0
    1.3410   -1.3542    8.4754 O   0  0  0  0  0  0  0  0  0  0  0  0
    2.0531    0.1992    6.7293 C   0  0  1  0  0  0  0  0  0  0  0  0
    1.3410    1.2824    7.6364 C   0  0  0  0  0  0  0  0  0  0  0  0
    1.9836    1.5758    8.9805 C   0  0  0  0  0  0  0  0  0  0  0  0
    3.3986    2.0619    8.7569 C   0  0  0  0  0  0  0  0  0  0  0  0
    4.3267    0.9960    8.0939 C   0  0  2  0  0  0  0  0  0  0  0  0
    4.9551    0.2359    9.2984 C   0  0  0  0  0  0  0  0  0  0  0  0
    5.5412    1.7317    7.4226 C   0  0  0  0  0  0  0  0  0  0  0  0
    5.6527    1.7291    5.8778 C   0  0  1  0  0  0  0  0  0  0  0  0
    7.0095    1.4133    5.6110 O   0  0  0  0  0  0  0  0  0  0  0  0
    4.6158    0.8144    5.1216 C   0  0  1  0  0  0  0  0  0  0  0  0
    5.1052    0.5438    3.8351 O   0  0  0  0  0  0  0  0  0  0  0  0
    4.4477   -0.5448    5.9412 C   0  0  2  0  0  0  0  0  0  0  0  0
    5.7287   -0.8761    6.4625 O   0  0  0  0  0  0  0  0  0  0  0  0
    3.5836   -0.0836    7.1607 C   0  0  2  0  0  0  0  0  0  0  0  0
    3.2513    1.6092    4.9344 C   0  0  1  0  0  0  0  0  0  0  0  0
    3.1578    2.6538    5.8713 O   0  0  0  0  0  0  0  0  0  0  0  0
    3.1803    2.6526    3.8008 C   0  0  1  0  0  0  0  0  0  0  0  0
    2.5444    2.3842    2.5597 O   0  0  0  0  0  0  0  0  0  0  0  0
    1.9164    3.3465    3.4308 C   0  0  2  0  0  0  0  0  0  0  0  0
    2.0426    4.8174    3.0258 C   0  0  0  0  0  0  0  0  0  0  0  0
    0.6641    2.9646    4.2755 C   0  0  1  0  0  0  0  0  0  0  0  0
   -0.8181    3.3484    3.9026 C   0  0  1  0  0  0  0  0  0  0  0  0
   -0.9682    4.6125    3.2780 O   0  0  0  0  0  0  0  0  0  0  0  0
   -1.7519    2.2768    3.2449 C   0  0  0  0  0  0  0  0  0  0  0  0
   -1.3871    0.8082    3.5751 C   0  0  0  0  0  0  0  0  0  0  0  0
    0.1116    0.6297    3.4549 C   0  0  2  0  0  0  0  0  0  0  0  0
    0.4333    0.8991    1.9617 C   0  0  0  0  0  0  0  0  0  0  0  0
    0.7456   -0.7131    3.7057 C   0  0  0  0  0  0  0  0  0  0  0  0
    2.0243   -0.3362    4.2280 O   0  0  0  0  0  0  0  0  0  0  0  0
    1.9783    0.7353    5.1728 C   0  0  1  0  0  0  0  0  0  0  0  0
    0.6793    1.4588    4.6314 C   0  0  1  0  0  0  0  0  0  0  0  0
    5.3359   -3.3960    2.5400 H   0  0  0  0  0  0  0  0  0  0  0  0
    4.1695   -4.1406    3.5978 H   0  0  0  0  0  0  0  0  0  0  0  0
    5.8022   -3.8239    4.1933 H   0  0  0  0  0  0  0  0  0  0  0  0
    4.7165   -2.7133    5.9512 H   0  0  0  0  0  0  0  0  0  0  0  0
    2.2032   -2.5718    4.4603 H   0  0  0  0  0  0  0  0  0  0  0  0
    2.9459   -3.7575    5.3486 H   0  0  0  0  0  0  0  0  0  0  0  0
    2.4386   -3.0541    7.4267 H   0  0  0  0  0  0  0  0  0  0  0  0
    0.6600   -4.4434    6.1751 H   0  0  0  0  0  0  0  0  0  0  0  0
   -2.3970   -2.6636    5.6857 H   0  0  0  0  0  0  0  0  0  0  0  0
   -2.4905   -3.1609    7.3277 H   0  0  0  0  0  0  0  0  0  0  0  0
   -1.7941   -4.2907    6.2388 H   0  0  0  0  0  0  0  0  0  0  0  0
   -0.6260   -0.6240    6.0728 H   0  0  0  0  0  0  0  0  0  0  0  0
   -0.7507   -0.9138    7.7502 H   0  0  0  0  0  0  0  0  0  0  0  0
    1.2437   -2.2806    8.6660 H   0  0  0  0  0  0  0  0  0  0  0  0
    1.2135    2.2335    7.1264 H   0  0  0  0  0  0  0  0  0  0  0  0
    0.3099    1.0159    7.8337 H   0  0  0  0  0  0  0  0  0  0  0  0
    1.4124    2.3567    9.4728 H   0  0  0  0  0  0  0  0  0  0  0  0
    1.9472    0.7350    9.6706 H   0  0  0  0  0  0  0  0  0  0  0  0
    3.3802    3.0153    8.2332 H   0  0  0  0  0  0  0  0  0  0  0  0
    3.7940    2.3349    9.7337 H   0  0  0  0  0  0  0  0  0  0  0  0
    5.6580   -0.5412    8.9868 H   0  0  0  0  0  0  0  0  0  0  0  0
    4.1992   -0.2424    9.9220 H   0  0  0  0  0  0  0  0  0  0  0  0
    5.5245    0.9117    9.9447 H   0  0  0  0  0  0  0  0  0  0  0  0
    5.5747    2.7774    7.7322 H   0  0  0  0  0  0  0  0  0  0  0  0
    6.4764    1.3496    7.8468 H   0  0  0  0  0  0  0  0  0  0  0  0
    5.5116    2.7586    5.5671 H   0  0  0  0  0  0  0  0  0  0  0  0
    7.1234    0.4645    5.5991 H   0  0  0  0  0  0  0  0  0  0  0  0
    4.9730    1.3148    3.2952 H   0  0  0  0  0  0  0  0  0  0  0  0
    6.0050   -0.1607    7.0216 H   0  0  0  0  0  0  0  0  0  0  0  0
    3.5798   -0.9653    7.7961 H   0  0  0  0  0  0  0  0  0  0  0  0
    3.1541    2.2720    6.7423 H   0  0  0  0  0  0  0  0  0  0  0  0
    4.0534    3.2934    3.7427 H   0  0  0  0  0  0  0  0  0  0  0  0
    1.7969    5.4711    3.8606 H   0  0  0  0  0  0  0  0  0  0  0  0
    1.4186    5.0847    2.1805 H   0  0  0  0  0  0  0  0  0  0  0  0
    3.0690    5.0162    2.7102 H   0  0  0  0  0  0  0  0  0  0  0  0
    0.8282    3.5082    5.2045 H   0  0  0  0  0  0  0  0  0  0  0  0
   -1.2833    3.5115    4.8761 H   0  0  0  0  0  0  0  0  0  0  0  0
   -0.6185    4.5582    2.3998 H   0  0  0  0  0  0  0  0  0  0  0  0
   -2.7829    2.4695    3.5546 H   0  0  0  0  0  0  0  0  0  0  0  0
   -1.7746    2.4001    2.1630 H   0  0  0  0  0  0  0  0  0  0  0  0
   -1.7878    0.5331    4.5498 H   0  0  0  0  0  0  0  0  0  0  0  0
   -1.7878    0.1147    2.8619 H   0  0  0  0  0  0  0  0  0  0  0  0
    1.4266    0.5614    1.6602 H   0  0  0  0  0  0  0  0  0  0  0  0
    0.3129    1.9352    1.6479 H   0  0  0  0  0  0  0  0  0  0  0  0
   -0.2457    0.3118    1.3481 H   0  0  0  0  0  0  0  0  0  0  0  0
    0.1695   -1.3359    4.3646 H   0  0  0  0  0  0  0  0  0  0  0  0
    0.8660   -1.3151    2.8028 H   0  0  0  0  0  0  0  0  0  0  0  0
   -0.0317    1.3757    5.4519 H   0  0  0  0  0  0  0  0  0  0  0  0
  1  2  1  0
  1 43  1  0
  1 44  1  0
  1 45  1  0
  2  3  1  0
  3 23  1  0
  3  4  1  0
  3 46  1  1
  4  5  1  0
  4 47  1  0
  4 48  1  0
  5 10  1  0
  5  6  1  0
  5 49  1  1
  6  7  2  0
  6 50  1  0
  7  8  1  0
  7  9  1  0
  8 51  1  0
  8 52  1  0
  8 53  1  0
  9 10  1  0
  9 54  1  0
  9 55  1  0
 10 11  1  1
 10 12  1  0
 11 56  1  0
 12 25  1  0
 12 41  1  0
 12 13  1  1
 13 14  1  0
 13 57  1  0
 13 58  1  0
 14 15  1  0
 14 59  1  0
 14 60  1  0
 15 16  1  0
 15 61  1  0
 15 62  1  0
 16 25  1  0
 16 17  1  1
 16 18  1  0
 17 63  1  0
 17 64  1  0
 17 65  1  0
 18 19  1  0
 18 66  1  0
 18 67  1  0
 19 20  1  0
 19 21  1  0
 19 68  1  6
 20 69  1  0
 21 22  1  6
 21 23  1  0
 21 26  1  0
 22 70  1  0
 23 24  1  1
 23 25  1  0
 24 71  1  0
 25 72  1  1
 26 41  1  0
 26 27  1  1
 26 28  1  0
 27 73  1  0
 28 30  1  0
 28 29  1  0
 28 74  1  6
 29 30  1  0
 30 31  1  6
 30 32  1  0
 31 75  1  0
 31 76  1  0
 31 77  1  0
 32 42  1  0
 32 33  1  0
 32 78  1  1
 33 34  1  0
 33 35  1  0
 33 79  1  1
 34 80  1  0
 35 36  1  0
 35 81  1  0
 35 82  1  0
 36 37  1  0
 36 83  1  0
 36 84  1  0
 37 42  1  0
 37 38  1  6
 37 39  1  0
 38 85  1  0
 38 86  1  0
 38 87  1  0
 39 40  1  0
 39 88  1  0
 39 89  1  0
 41 40  1  6
 41 42  1  0
 42 90  1  1
M  END
>  <i_m_ct_stereo_status>  (148) 
1

>  <s_m_source_file>  (148) 
/var/tmp/pbs.5076255.sched01/tmpmalnbme9/37wob9dpop.sdf

>  <i_m_source_file_index>  (148) 
33

>  <i_lp_mmshare_version>  (148) 
48012

>  <i_f3d_flags>  (148) 
0

>  <s_epik_input>  (148) 
W0NIXTE9QyhbQ0gzXSlbQ0gyXVtDQEBdMihbT0hdKVtDQEBIXTFbQ0gyXVtDQEBIXShPW0NIM10pW0NAXShbT0hdKShbQ0BIXTNbQ0BdKFtDSDNdKShbQ0gyXVtDSDJdW0NIMl00KVtDSDJdW0NASF01W09IXSlbQ0BAXTUoW09IXSlbQ0BdKFtPSF0pKFtDQF02N1tDQEBdMjM0KVtDQEBIXThbQ0BdKE84KShbQ0gzXSlbQ0BASF05W0NASF03W0NAQF0oW0NIM10pKFtDSDJdTzYpW0NIMl1bQ0gyXVtDQEBIXTlbT0hd

>  <s_epik_cmdline>  (148) 
J2VwaWtfcHl0aG9uJywgJy1waHQnLCAnMi4wJywgJy1waCcsICc3LjAnLCAnLXRuJywgJzgnLCAnLW1hJywgJzIwMCcsICctaW1hZScsICc8aW5maWxlLm1hZT4nLCAnLW9tYWUnLCAnPG91dGZpbGUubWFlPic=

>  <r_lp_tautomer_probability>  (148) 
1

>  <r_epik_Ionization_Penalty>  (148) 
6.27858e-07

>  <r_epik_Ionization_Penalty_Charging>  (148) 
0

>  <r_epik_Ionization_Penalty_Neutral>  (148) 
6.27858e-07

>  <r_epik_State_Penalty>  (148) 
-0

>  <r_epik_Charging_Adjusted_Penalty>  (148) 
0

>  <i_epik_Tot_Q>  (148) 
0

>  <i_epik_Tot_abs_Q>  (148) 
0

>  <s_lp_Force_Field>  (148) 
OPLS3e

>  <r_lp_Energy>  (148) 
174.906

>  <b_lp_Chiralities_Consistent>  (148) 
1

>  <s_lp_Variant>  (148) 
54:0-1

>  <s_i_glide_gridfile>  (148) 
pfpi4k_grid

>  <i_i_glide_lignum>  (148) 
33

>  <i_i_glide_rotatable_bonds>  (148) 
7

>  <r_i_docking_score>  (148) 
-1.95205

>  <r_i_glide_ligand_efficiency>  (148) 
-0.0464775

>  <r_i_glide_ligand_efficiency_sa>  (148) 
-0.161557

>  <r_i_glide_ligand_efficiency_ln>  (148) 
-0.412028

>  <r_i_glide_gscore>  (148) 
-1.95205

>  <r_i_glide_lipo>  (148) 
-0.0887786

>  <r_i_glide_hbond>  (148) 
-0.185389

>  <r_i_glide_metal>  (148) 
-0

>  <r_i_glide_rewards>  (148) 
0

>  <r_i_glide_evdw>  (148) 
-15.3848

>  <r_i_glide_ecoul>  (148) 
-6.05764

>  <r_i_glide_erotb>  (148) 
0

>  <r_i_glide_esite>  (148) 
0

>  <r_i_glide_emodel>  (148) 
-21.5575

>  <r_i_glide_energy>  (148) 
-21.4424

>  <r_i_glide_einternal>  (148) 
1.84564

>  <r_i_glide_intrahb_reward>  (148) 
-0

>  <i_i_glide_confnum>  (148) 
2

>  <i_i_glide_posenum>  (148) 
1

>  <r_i_glide_eff_state_penalty>  (148) 
0

>  <ligand_id>  (148) 
54

>  <original_smiles>  (148) 
COC1CC2C=C(C)CC2(O)C23CCCC4(C)CC(O)C(O)(C1(O)C42)C1(O)C2OC2(C)C2C(O)CCC4(C)COC13C24

>  <smiles>  (148) 
[H]OC1([H])C([H])([H])C([H])([H])C2(C([H])([H])[H])C([H])([H])OC34C2([H])C1([H])C1(C([H])([H])[H])OC1([H])C3(O[H])C1(O[H])C([H])(O[H])C([H])([H])C2(C([H])([H])[H])C([H])([H])C([H])([H])C([H])([H])C43C2([H])C1(O[H])C([H])(OC([H])([H])[H])C([H])([H])C1([H])C([H])=C(C([H])([H])[H])C([H])([H])C13O[H]

$$$$
55:0:0
     RDKit          3D

 37 40  0  0  1  0  0  0  0  0999 V2000
    3.0821   -0.8411   -3.0764 C   0  0  0  0  0  0  0  0  0  0  0  0
    4.1213   -1.3097   -2.1267 N   0  0  2  0  0  0  0  0  0  0  0  0
    4.8143   -2.5201   -2.7244 C   0  0  0  0  0  0  0  0  0  0  0  0
    6.1822   -2.9984   -2.1366 C   0  0  0  0  0  0  0  0  0  0  0  0
    6.0361   -3.5043   -0.7182 C   0  0  0  0  0  0  0  0  0  0  0  0
    5.7699   -2.6600    0.2894 C   0  0  0  0  0  0  0  0  0  0  0  0
    5.9411   -1.1477    0.1402 C   0  0  0  0  0  0  0  0  0  0  0  0
    4.5016   -0.6682    0.3739 C   0  0  1  0  0  0  0  0  0  0  0  0
    3.5853   -1.3457   -0.7048 C   0  0  2  0  0  0  0  0  0  0  0  0
    3.3430   -2.7481   -0.0953 C   0  0  0  0  0  0  0  0  0  0  0  0
    4.4341   -2.7923    1.0114 C   0  0  1  0  0  0  0  0  0  0  0  0
    4.1874   -3.7720    2.1531 C   0  0  0  0  0  0  0  0  0  0  0  0
    3.0824   -3.0661    2.9860 C   0  0  0  0  0  0  0  0  0  0  0  0
    3.0409   -1.5725    2.5500 C   0  0  0  0  0  0  0  0  0  0  0  0
    4.3004   -1.4488    1.6834 C   0  0  2  0  0  0  0  0  0  0  0  0
    2.2734   -1.5712   -3.1489 H   0  0  0  0  0  0  0  0  0  0  0  0
    3.4914   -0.6950   -4.0771 H   0  0  0  0  0  0  0  0  0  0  0  0
    2.6575    0.1141   -2.7735 H   0  0  0  0  0  0  0  0  0  0  0  0
    4.1214   -3.3610   -2.8008 H   0  0  0  0  0  0  0  0  0  0  0  0
    5.0312   -2.2726   -3.7638 H   0  0  0  0  0  0  0  0  0  0  0  0
    6.5488   -3.8277   -2.7398 H   0  0  0  0  0  0  0  0  0  0  0  0
    6.9566   -2.2379   -2.2104 H   0  0  0  0  0  0  0  0  0  0  0  0
    5.5984   -4.4931   -0.6617 H   0  0  0  0  0  0  0  0  0  0  0  0
    6.6338   -0.7777    0.8988 H   0  0  0  0  0  0  0  0  0  0  0  0
    6.3137   -0.8051   -0.8135 H   0  0  0  0  0  0  0  0  0  0  0  0
    4.4065    0.4159    0.4614 H   0  0  0  0  0  0  0  0  0  0  0  0
    2.6606   -0.7830   -0.6477 H   0  0  0  0  0  0  0  0  0  0  0  0
    2.3409   -2.7839    0.3254 H   0  0  0  0  0  0  0  0  0  0  0  0
    3.3782   -3.5852   -0.7873 H   0  0  0  0  0  0  0  0  0  0  0  0
    3.8848   -4.7583    1.7982 H   0  0  0  0  0  0  0  0  0  0  0  0
    5.0932   -3.8912    2.7528 H   0  0  0  0  0  0  0  0  0  0  0  0
    2.1114   -3.5262    2.8061 H   0  0  0  0  0  0  0  0  0  0  0  0
    3.2886   -3.1669    4.0517 H   0  0  0  0  0  0  0  0  0  0  0  0
    2.1271   -1.3325    2.0016 H   0  0  0  0  0  0  0  0  0  0  0  0
    3.0826   -0.9068    3.4159 H   0  0  0  0  0  0  0  0  0  0  0  0
    5.1166   -1.2640    2.3872 H   0  0  0  0  0  0  0  0  0  0  0  0
    4.8085   -0.5665   -2.1187 H   0  0  0  0  0  0  0  0  0  0  0  0
  1  2  1  0
  1 16  1  0
  1 17  1  0
  1 18  1  0
  2  9  1  0
  2  3  1  0
  2 37  1  1
  3  4  1  0
  3 19  1  0
  3 20  1  0
  4  5  1  0
  4 21  1  0
  4 22  1  0
  5  6  2  3
  5 23  1  0
  6 11  1  0
  6  7  1  0
  7  8  1  0
  7 24  1  0
  7 25  1  0
  8 15  1  0
  8  9  1  0
  8 26  1  1
  9 10  1  0
  9 27  1  6
 11 10  1  6
 10 28  1  0
 10 29  1  0
 11 15  1  0
 11 12  1  0
 12 13  1  0
 12 30  1  0
 12 31  1  0
 13 14  1  0
 13 32  1  0
 13 33  1  0
 14 15  1  0
 14 34  1  0
 14 35  1  0
 15 36  1  1
M  CHG  1   2   1
M  END
>  <i_m_ct_stereo_status>  (149) 
1

>  <s_m_source_file>  (149) 
/var/tmp/pbs.5076255.sched01/tmpmalnbme9/37wob9dpop.sdf

>  <i_m_source_file_index>  (149) 
34

>  <i_lp_mmshare_version>  (149) 
48012

>  <i_f3d_flags>  (149) 
0

>  <s_epik_input>  (149) 
W0NAXTEyM0MvND1bQ0hdXFtDSDJdW0NIMl1OKFtDSDNdKVtDQEBIXShbQ0gyXTEpW0NASF0oW0NIMl00KVtDQEhdM1tDSDJdW0NIMl1bQ0gyXTI=

>  <s_epik_cmdline>  (149) 
J2VwaWtfcHl0aG9uJywgJy1waHQnLCAnMi4wJywgJy1waCcsICc3LjAnLCAnLXRuJywgJzgnLCAnLW1hJywgJzIwMCcsICctaW1hZScsICc8aW5maWxlLm1hZT4nLCAnLW9tYWUnLCAnPG91dGZpbGUubWFlPic=

>  <r_epik_Ionization_Penalty>  (149) 
0.000709291

>  <r_epik_Ionization_Penalty_Charging>  (149) 
0.000709291

>  <r_epik_Ionization_Penalty_Neutral>  (149) 
0

>  <r_epik_State_Penalty>  (149) 
0.00045179

>  <r_epik_Charging_Adjusted_Penalty>  (149) 
0.00116108

>  <i_epik_Tot_Q>  (149) 
1

>  <i_epik_Tot_abs_Q>  (149) 
1

>  <s_lp_Force_Field>  (149) 
OPLS3e

>  <r_lp_Energy>  (149) 
103.78

>  <b_lp_Chiralities_Consistent>  (149) 
1

>  <s_lp_Variant>  (149) 
55:0-1

>  <s_i_glide_gridfile>  (149) 
pfpi4k_grid

>  <i_i_glide_lignum>  (149) 
34

>  <i_i_glide_rotatable_bonds>  (149) 
0

>  <r_i_docking_score>  (149) 
-3.63394

>  <r_i_glide_ligand_efficiency>  (149) 
-0.242263

>  <r_i_glide_ligand_efficiency_sa>  (149) 
-0.597472

>  <r_i_glide_ligand_efficiency_ln>  (149) 
-0.980015

>  <r_i_glide_gscore>  (149) 
-3.63394

>  <r_i_glide_lipo>  (149) 
-0.531498

>  <r_i_glide_hbond>  (149) 
0

>  <r_i_glide_metal>  (149) 
-0

>  <r_i_glide_rewards>  (149) 
-2.01592

>  <r_i_glide_evdw>  (149) 
-12.7975

>  <r_i_glide_ecoul>  (149) 
-2.69597

>  <r_i_glide_erotb>  (149) 
0

>  <r_i_glide_esite>  (149) 
-0.0422501

>  <r_i_glide_emodel>  (149) 
-19.0286

>  <r_i_glide_energy>  (149) 
-15.4935

>  <r_i_glide_einternal>  (149) 
0

>  <r_i_glide_intrahb_reward>  (149) 
-0

>  <i_i_glide_confnum>  (149) 
1

>  <i_i_glide_posenum>  (149) 
1

>  <r_i_glide_eff_state_penalty>  (149) 
0

>  <ligand_id>  (149) 
55

>  <original_smiles>  (149) 
CN1CCC=C2CC3C1CC21CCCC31

>  <smiles>  (149) 
[H]C1=C2C([H])([H])C3([H])C4([H])C([H])([H])C([H])([H])C([H])([H])C24C([H])([H])C3([H])[N+]([H])(C([H])([H])[H])C([H])([H])C1([H])[H]

$$$$
57:0:0
     RDKit          3D

105113  0  0  1  0  0  0  0  0999 V2000
    2.9963   -5.3092    8.6263 C   0  0  0  0  0  0  0  0  0  0  0  0
    3.0178   -4.9434    7.1443 C   0  0  0  0  0  0  0  0  0  0  0  0
    4.0391   -5.3629    6.3409 C   0  0  0  0  0  0  0  0  0  0  0  0
    4.0591   -4.9503    4.8819 C   0  0  1  0  0  0  0  0  0  0  0  0
    2.7638   -5.8037    4.4650 C   0  0  0  0  0  0  0  0  0  0  0  0
    1.3409   -5.2553    4.6565 C   0  0  1  0  0  0  0  0  0  0  0  0
    0.4504   -6.2428    5.4805 C   0  0  0  0  0  0  0  0  0  0  0  0
    1.4605   -3.7888    5.1291 C   0  0  1  0  0  0  0  0  0  0  0  0
    1.8238   -4.0932    6.6777 C   0  0  0  0  0  0  0  0  0  0  0  0
    1.0086   -3.6901    7.4798 O   0  0  0  0  0  0  0  0  0  0  0  0
    2.1147   -2.5556    4.1031 C   0  0  1  0  0  0  0  0  0  0  0  0
    0.9512   -1.8951    3.2830 C   0  0  0  0  0  0  0  0  0  0  0  0
    0.1644   -0.6878    3.8412 C   0  0  0  0  0  0  0  0  0  0  0  0
    1.0236    0.4307    4.4779 C   0  0  1  0  0  0  0  0  0  0  0  0
    1.9157    1.0394    3.3524 C   0  0  0  0  0  0  0  0  0  0  0  0
    0.1791    1.6605    4.9644 C   0  0  1  0  0  0  0  0  0  0  0  0
   -0.5954    2.2449    3.9278 O   0  0  0  0  0  0  0  0  0  0  0  0
   -1.1164    3.5204    4.2021 C   0  0  0  0  0  0  0  0  0  0  0  0
   -0.0054    4.5946    4.1308 C   0  0  0  0  0  0  0  0  0  0  0  0
   -2.1871    3.7776    3.1363 C   0  0  0  0  0  0  0  0  0  0  0  0
   -1.7798    3.5774    5.4381 O   0  0  0  0  0  0  0  0  0  0  0  0
   -1.1163    2.9883    6.5501 C   0  0  0  0  0  0  0  0  0  0  0  0
   -0.7136    1.5313    6.2165 C   0  0  1  0  0  0  0  0  0  0  0  0
   -2.0467    0.7715    5.9774 C   0  0  0  0  0  0  0  0  0  0  0  0
    0.1659    0.9125    7.3384 C   0  0  1  0  0  0  0  0  0  0  0  0
   -0.5745    0.6877    8.5241 O   0  0  0  0  0  0  0  0  0  0  0  0
    0.9498   -0.3856    6.9281 C   0  0  1  0  0  0  0  0  0  0  0  0
   -0.0179   -1.3860    6.7722 O   0  0  0  0  0  0  0  0  0  0  0  0
    1.8735   -0.2036    5.6563 C   0  0  2  0  0  0  0  0  0  0  0  0
    2.9848    0.7902    6.1302 C   0  0  0  0  0  0  0  0  0  0  0  0
    2.6815   -1.4689    5.0864 C   0  0  1  0  0  0  0  0  0  0  0  0
    3.7628   -2.1679    5.9741 C   0  0  0  0  0  0  0  0  0  0  0  0
    4.4356   -3.4048    5.2249 C   0  0  2  0  0  0  0  0  0  0  0  0
    4.6556   -2.8522    3.9484 C   0  0  0  0  0  0  0  0  0  0  0  0
    3.3655   -3.0378    2.9958 C   0  0  1  0  0  0  0  0  0  0  0  0
    2.4894   -4.0912    2.2006 C   0  0  0  0  0  0  0  0  0  0  0  0
    2.9992   -5.2755    1.5959 O   0  0  0  0  0  0  0  0  0  0  0  0
    4.2741   -5.1048    1.0804 C   0  0  2  0  0  0  0  0  0  0  0  0
    5.3138   -4.9304    2.2092 C   0  0  2  0  0  0  0  0  0  0  0  0
    5.1662   -5.4826    3.7857 C   0  0  0  0  0  0  0  0  0  0  0  0
    5.5309   -3.5217    1.8703 O   0  0  0  0  0  0  0  0  0  0  0  0
    4.3015   -2.7449    1.6363 C   0  0  2  0  0  0  0  0  0  0  0  0
    4.5868   -1.2424    1.2960 C   0  0  0  0  0  0  0  0  0  0  0  0
    3.4725   -0.5978    0.4743 C   0  0  0  0  0  0  0  0  0  0  0  0
    5.9358   -0.9515    0.6123 C   0  0  0  0  0  0  0  0  0  0  0  0
    4.2027   -3.7226    0.3710 C   0  0  1  0  0  0  0  0  0  0  0  0
    5.1942   -3.6360   -0.6290 O   0  0  0  0  0  0  0  0  0  0  0  0
    3.0346   -4.4115    9.2361 H   0  0  0  0  0  0  0  0  0  0  0  0
    3.8423   -5.9303    8.8929 H   0  0  0  0  0  0  0  0  0  0  0  0
    2.0885   -5.8530    8.8752 H   0  0  0  0  0  0  0  0  0  0  0  0
    4.8615   -5.9506    6.6951 H   0  0  0  0  0  0  0  0  0  0  0  0
    2.8556   -6.2842    3.5064 H   0  0  0  0  0  0  0  0  0  0  0  0
    2.8045   -6.7482    5.0164 H   0  0  0  0  0  0  0  0  0  0  0  0
    0.7155   -5.3631    3.7797 H   0  0  0  0  0  0  0  0  0  0  0  0
    0.8740   -6.5574    6.4351 H   0  0  0  0  0  0  0  0  0  0  0  0
    0.2907   -7.1644    4.9162 H   0  0  0  0  0  0  0  0  0  0  0  0
   -0.5329   -5.8159    5.6765 H   0  0  0  0  0  0  0  0  0  0  0  0
    0.4208   -3.4780    5.2200 H   0  0  0  0  0  0  0  0  0  0  0  0
    1.3577   -1.5631    2.3409 H   0  0  0  0  0  0  0  0  0  0  0  0
    0.2162   -2.6445    3.0201 H   0  0  0  0  0  0  0  0  0  0  0  0
   -0.4213   -0.2475    3.0344 H   0  0  0  0  0  0  0  0  0  0  0  0
   -0.5975   -1.0758    4.5026 H   0  0  0  0  0  0  0  0  0  0  0  0
    2.5215    1.8785    3.6953 H   0  0  0  0  0  0  0  0  0  0  0  0
    1.3042    1.4164    2.5299 H   0  0  0  0  0  0  0  0  0  0  0  0
    2.5964    0.3289    2.9037 H   0  0  0  0  0  0  0  0  0  0  0  0
    0.9301    2.4020    5.2258 H   0  0  0  0  0  0  0  0  0  0  0  0
    0.6831    4.5396    4.9672 H   0  0  0  0  0  0  0  0  0  0  0  0
   -0.4426    5.5948    4.1260 H   0  0  0  0  0  0  0  0  0  0  0  0
    0.5660    4.4735    3.2095 H   0  0  0  0  0  0  0  0  0  0  0  0
   -2.9681    3.0205    3.2022 H   0  0  0  0  0  0  0  0  0  0  0  0
   -1.7518    3.7398    2.1356 H   0  0  0  0  0  0  0  0  0  0  0  0
   -2.6378    4.7617    3.2801 H   0  0  0  0  0  0  0  0  0  0  0  0
   -0.2516    3.5911    6.8301 H   0  0  0  0  0  0  0  0  0  0  0  0
   -1.7987    3.0212    7.4005 H   0  0  0  0  0  0  0  0  0  0  0  0
   -2.7484    0.9515    6.7925 H   0  0  0  0  0  0  0  0  0  0  0  0
   -1.9646   -0.3027    5.8824 H   0  0  0  0  0  0  0  0  0  0  0  0
   -2.5196    1.1157    5.0591 H   0  0  0  0  0  0  0  0  0  0  0  0
    0.9064    1.6585    7.6271 H   0  0  0  0  0  0  0  0  0  0  0  0
   -0.6657    1.5199    8.9795 H   0  0  0  0  0  0  0  0  0  0  0  0
    1.5670   -0.6937    7.7777 H   0  0  0  0  0  0  0  0  0  0  0  0
    0.4386   -2.2233    6.6831 H   0  0  0  0  0  0  0  0  0  0  0  0
    3.4708    0.4276    7.0412 H   0  0  0  0  0  0  0  0  0  0  0  0
    2.6227    1.7910    6.3573 H   0  0  0  0  0  0  0  0  0  0  0  0
    3.7780    0.9272    5.3908 H   0  0  0  0  0  0  0  0  0  0  0  0
    3.2699   -0.8825    4.3981 H   0  0  0  0  0  0  0  0  0  0  0  0
    4.5610   -1.4428    6.1072 H   0  0  0  0  0  0  0  0  0  0  0  0
    3.4976   -2.3237    7.0190 H   0  0  0  0  0  0  0  0  0  0  0  0
    5.3997   -3.4621    5.7448 H   0  0  0  0  0  0  0  0  0  0  0  0
    4.9407   -1.8141    3.9920 H   0  0  0  0  0  0  0  0  0  0  0  0
    5.7082   -3.1099    3.8414 H   0  0  0  0  0  0  0  0  0  0  0  0
    1.4940   -4.2630    2.4964 H   0  0  0  0  0  0  0  0  0  0  0  0
    2.0597   -3.5073    1.3920 H   0  0  0  0  0  0  0  0  0  0  0  0
    4.5332   -5.9278    0.4043 H   0  0  0  0  0  0  0  0  0  0  0  0
    6.2281   -5.4030    1.8512 H   0  0  0  0  0  0  0  0  0  0  0  0
    6.1437   -5.3186    4.2426 H   0  0  0  0  0  0  0  0  0  0  0  0
    5.1021   -6.5700    3.7340 H   0  0  0  0  0  0  0  0  0  0  0  0
    4.6304   -0.6866    2.2286 H   0  0  0  0  0  0  0  0  0  0  0  0
    3.4225   -0.9843   -0.5439 H   0  0  0  0  0  0  0  0  0  0  0  0
    3.6280    0.4786    0.4698 H   0  0  0  0  0  0  0  0  0  0  0  0
    2.4886   -0.7414    0.8853 H   0  0  0  0  0  0  0  0  0  0  0  0
    5.9766   -1.3218   -0.4088 H   0  0  0  0  0  0  0  0  0  0  0  0
    6.7768   -1.3734    1.1623 H   0  0  0  0  0  0  0  0  0  0  0  0
    6.1022    0.1219    0.5321 H   0  0  0  0  0  0  0  0  0  0  0  0
    3.2899   -3.6020   -0.2170 H   0  0  0  0  0  0  0  0  0  0  0  0
    4.9740   -4.2661   -1.3169 H   0  0  0  0  0  0  0  0  0  0  0  0
  1  2  1  0
  1 48  1  0
  1 49  1  0
  1 50  1  0
  2  9  1  0
  2  3  2  0
  3  4  1  0
  3 51  1  0
  4 33  1  0
  4 40  1  6
  4  5  1  0
  5  6  1  0
  5 52  1  0
  5 53  1  0
  6  7  1  0
  6  8  1  0
  6 54  1  6
  7 55  1  0
  7 56  1  0
  7 57  1  0
  8  9  1  0
  8 11  1  0
  8 58  1  1
  9 10  2  0
 11 31  1  0
 11 35  1  0
 11 12  1  6
 12 13  1  0
 12 59  1  0
 12 60  1  0
 13 14  1  0
 13 61  1  0
 13 62  1  0
 14 29  1  0
 14 15  1  6
 14 16  1  0
 15 63  1  0
 15 64  1  0
 15 65  1  0
 16 23  1  0
 16 17  1  0
 16 66  1  1
 17 18  1  0
 18 19  1  0
 18 20  1  0
 18 21  1  0
 19 67  1  0
 19 68  1  0
 19 69  1  0
 20 70  1  0
 20 71  1  0
 20 72  1  0
 21 22  1  0
 22 23  1  0
 22 73  1  0
 22 74  1  0
 23 24  1  6
 23 25  1  0
 24 75  1  0
 24 76  1  0
 24 77  1  0
 25 26  1  0
 25 27  1  0
 25 78  1  1
 26 79  1  0
 27 28  1  0
 27 29  1  0
 27 80  1  1
 28 81  1  0
 29 30  1  1
 29 31  1  0
 30 82  1  0
 30 83  1  0
 30 84  1  0
 31 32  1  0
 31 85  1  6
 32 33  1  0
 32 86  1  0
 32 87  1  0
 33 34  1  0
 33 88  1  1
 34 35  1  0
 34 89  1  0
 34 90  1  0
 35 42  1  0
 35 36  1  6
 36 37  1  0
 36 91  1  0
 36 92  1  0
 37 38  1  0
 38 46  1  0
 38 39  1  0
 38 93  1  6
 39 40  1  0
 39 41  1  0
 39 94  1  6
 40 95  1  0
 40 96  1  0
 41 42  1  0
 42 43  1  6
 42 46  1  0
 43 44  1  0
 43 45  1  0
 43 97  1  0
 44 98  1  0
 44 99  1  0
 44100  1  0
 45101  1  0
 45102  1  0
 45103  1  0
 46 47  1  0
 46104  1  6
 47105  1  0
M  END
>  <i_m_ct_stereo_status>  (150) 
1

>  <s_m_source_file>  (150) 
/var/tmp/pbs.5076255.sched01/tmpmalnbme9/37wob9dpop.sdf

>  <i_m_source_file_index>  (150) 
36

>  <i_lp_mmshare_version>  (150) 
48012

>  <i_f3d_flags>  (150) 
0

>  <s_epik_input>  (150) 
W0NIMl0xT1tDQEBIXShbQ0BASF0yW09IXSlbQ0BIXShbQ0gyXTMpT1tDQF0yKFtDSF0oW0NIM10pW0NIM10pQzEoW0NIMl00KVtDQF0oW0NAQEhdNVtDSDJdW0NASF00W0NAQF0zNjcpKFtDQEBIXShbQ0BASF0oW0NIMl03KVtDSDNdKUMoPU8pQyhbQ0gzXSk9W0NIXTYpW0NIMl1bQ0gyXVtDQEBdOChbQ0gzXSlbQ0BASF05W0NAXShbQ0gzXSkoW0NIMl1PQyhPOSkoW0NIM10pW0NIM10pW0NAQEhdKFtPSF0pW0NAQEhdKFtPSF0pW0NAQF01OFtDSDNd

>  <s_epik_cmdline>  (150) 
J2VwaWtfcHl0aG9uJywgJy1waHQnLCAnMi4wJywgJy1waCcsICc3LjAnLCAnLXRuJywgJzgnLCAnLW1hJywgJzIwMCcsICctaW1hZScsICc8aW5maWxlLm1hZT4nLCAnLW9tYWUnLCAnPG91dGZpbGUubWFlPic=

>  <r_lp_tautomer_probability>  (150) 
1

>  <r_epik_Ionization_Penalty>  (150) 
3.70537e-07

>  <r_epik_Ionization_Penalty_Charging>  (150) 
0

>  <r_epik_Ionization_Penalty_Neutral>  (150) 
3.70537e-07

>  <r_epik_State_Penalty>  (150) 
-0

>  <r_epik_Charging_Adjusted_Penalty>  (150) 
0

>  <i_epik_Tot_Q>  (150) 
0

>  <i_epik_Tot_abs_Q>  (150) 
0

>  <s_lp_Force_Field>  (150) 
OPLS3e

>  <r_lp_Energy>  (150) 
442.705

>  <b_lp_Chiralities_Consistent>  (150) 
1

>  <s_lp_Variant>  (150) 
57:0-1

>  <s_i_glide_gridfile>  (150) 
pfpi4k_grid

>  <i_i_glide_lignum>  (150) 
36

>  <i_i_glide_rotatable_bonds>  (150) 
4

>  <r_i_docking_score>  (150) 
-3.06025

>  <r_i_glide_ligand_efficiency>  (150) 
-0.0651117

>  <r_i_glide_ligand_efficiency_sa>  (150) 
-0.234977

>  <r_i_glide_ligand_efficiency_ln>  (150) 
-0.63096

>  <r_i_glide_gscore>  (150) 
-3.06025

>  <r_i_glide_lipo>  (150) 
-0.310706

>  <r_i_glide_hbond>  (150) 
0

>  <r_i_glide_metal>  (150) 
-0

>  <r_i_glide_rewards>  (150) 
-0.5

>  <r_i_glide_evdw>  (150) 
-26.6094

>  <r_i_glide_ecoul>  (150) 
-5.80628

>  <r_i_glide_erotb>  (150) 
0

>  <r_i_glide_esite>  (150) 
-0.048134

>  <r_i_glide_emodel>  (150) 
-42.6527

>  <r_i_glide_energy>  (150) 
-32.4157

>  <r_i_glide_einternal>  (150) 
1.52197

>  <r_i_glide_intrahb_reward>  (150) 
-0.5

>  <i_i_glide_confnum>  (150) 
1

>  <i_i_glide_posenum>  (150) 
36

>  <r_i_glide_eff_state_penalty>  (150) 
0

>  <ligand_id>  (150) 
57

>  <original_smiles>  (150) 
CC1=CC23CC(C)C(C1=O)C14CCC5(C)C6OC(C)(C)OCC6(C)C(O)C(O)C5(C)C1CC2CC41COC2C(C3)OC1(C(C)C)C2O

>  <smiles>  (150) 
[H]OC1([H])C2([H])OC([H])([H])C34C([H])([H])C5([H])C([H])([H])C6([H])C7(C([H])([H])[H])C([H])(O[H])C([H])(O[H])C8(C([H])([H])[H])C([H])([H])OC(C([H])([H])[H])(C([H])([H])[H])OC8([H])C7(C([H])([H])[H])C([H])([H])C([H])([H])C63C3([H])C(=O)C(C([H])([H])[H])=C([H])C5(C([H])([H])C2([H])OC14C([H])(C([H])([H])[H])C([H])([H])[H])C([H])([H])C3([H])C([H])([H])[H]

$$$$
57:0:1
     RDKit          3D

105113  0  0  1  0  0  0  0  0999 V2000
    3.0079   -5.3039    8.6244 C   0  0  0  0  0  0  0  0  0  0  0  0
    3.0325   -4.9358    7.1444 C   0  0  0  0  0  0  0  0  0  0  0  0
    4.0566   -5.3508    6.3416 C   0  0  0  0  0  0  0  0  0  0  0  0
    4.0804   -4.9357    4.8845 C   0  0  1  0  0  0  0  0  0  0  0  0
    2.7867   -5.7901    4.4628 C   0  0  0  0  0  0  0  0  0  0  0  0
    1.3619   -5.2447    4.6521 C   0  0  1  0  0  0  0  0  0  0  0  0
    0.4713   -6.2352    5.4718 C   0  0  0  0  0  0  0  0  0  0  0  0
    1.4778   -3.7790    5.1283 C   0  0  1  0  0  0  0  0  0  0  0  0
    1.8397   -4.0864    6.6748 C   0  0  0  0  0  0  0  0  0  0  0  0
    1.0238   -3.6828    7.4786 O   0  0  0  0  0  0  0  0  0  0  0  0
    2.1330   -2.5428    4.1072 C   0  0  1  0  0  0  0  0  0  0  0  0
    0.9740   -1.8801    3.2826 C   0  0  0  0  0  0  0  0  0  0  0  0
    0.1809   -0.6789    3.8443 C   0  0  0  0  0  0  0  0  0  0  0  0
    1.0368    0.4400    4.4844 C   0  0  1  0  0  0  0  0  0  0  0  0
    1.9295    1.0528    3.3608 C   0  0  0  0  0  0  0  0  0  0  0  0
    0.1881    1.6667    4.9709 C   0  0  1  0  0  0  0  0  0  0  0  0
   -0.5843    2.2533    3.9341 O   0  0  0  0  0  0  0  0  0  0  0  0
   -1.1090    3.5272    4.2111 C   0  0  0  0  0  0  0  0  0  0  0  0
    0.0006    4.6041    4.1447 C   0  0  0  0  0  0  0  0  0  0  0  0
   -2.1781    3.7850    3.1427 C   0  0  0  0  0  0  0  0  0  0  0  0
   -1.7753    3.5800    5.4464 O   0  0  0  0  0  0  0  0  0  0  0  0
   -1.1140    2.9866    6.5585 C   0  0  0  0  0  0  0  0  0  0  0  0
   -0.7072    1.5307    6.2203 C   0  0  1  0  0  0  0  0  0  0  0  0
   -2.0381    0.7702    5.9771 C   0  0  0  0  0  0  0  0  0  0  0  0
    0.1727    0.9139    7.3427 C   0  0  1  0  0  0  0  0  0  0  0  0
   -0.5875    0.6900    8.5168 O   0  0  0  0  0  0  0  0  0  0  0  0
    0.9642   -0.3806    6.9348 C   0  0  1  0  0  0  0  0  0  0  0  0
   -0.0028   -1.3831    6.7819 O   0  0  0  0  0  0  0  0  0  0  0  0
    1.8858   -0.1948    5.6630 C   0  0  2  0  0  0  0  0  0  0  0  0
    2.9929    0.8005    6.1419 C   0  0  0  0  0  0  0  0  0  0  0  0
    2.6976   -1.4570    5.0922 C   0  0  1  0  0  0  0  0  0  0  0  0
    3.7766   -2.1562    5.9820 C   0  0  0  0  0  0  0  0  0  0  0  0
    4.4530   -3.3902    5.2317 C   0  0  2  0  0  0  0  0  0  0  0  0
    4.6752   -2.8352    3.9556 C   0  0  0  0  0  0  0  0  0  0  0  0
    3.3868   -3.0212    3.0016 C   0  0  1  0  0  0  0  0  0  0  0  0
    2.5153   -4.0737    2.2006 C   0  0  0  0  0  0  0  0  0  0  0  0
    3.0308   -5.2554    1.5951 O   0  0  0  0  0  0  0  0  0  0  0  0
    4.3054   -5.0809    1.0822 C   0  0  2  0  0  0  0  0  0  0  0  0
    5.3416   -4.9074    2.2144 C   0  0  2  0  0  0  0  0  0  0  0  0
    5.1908   -5.4638    3.7894 C   0  0  0  0  0  0  0  0  0  0  0  0
    5.5561   -3.4985    1.8786 O   0  0  0  0  0  0  0  0  0  0  0  0
    4.3263   -2.7232    1.6448 C   0  0  2  0  0  0  0  0  0  0  0  0
    4.6076   -1.2188    1.3087 C   0  0  0  0  0  0  0  0  0  0  0  0
    3.4967   -0.5791    0.4763 C   0  0  0  0  0  0  0  0  0  0  0  0
    5.9645   -0.9251    0.6428 C   0  0  0  0  0  0  0  0  0  0  0  0
    4.2306   -3.6966    0.3764 C   0  0  1  0  0  0  0  0  0  0  0  0
    5.2223   -3.6009   -0.6231 O   0  0  0  0  0  0  0  0  0  0  0  0
    3.0436   -4.4072    9.2377 H   0  0  0  0  0  0  0  0  0  0  0  0
    3.8549   -5.9249    8.8923 H   0  0  0  0  0  0  0  0  0  0  0  0
    2.1000   -5.8506    8.8708 H   0  0  0  0  0  0  0  0  0  0  0  0
    4.8780   -5.9383    6.6987 H   0  0  0  0  0  0  0  0  0  0  0  0
    2.8816   -6.2683    3.5029 H   0  0  0  0  0  0  0  0  0  0  0  0
    2.8276   -6.7356    5.0108 H   0  0  0  0  0  0  0  0  0  0  0  0
    0.7392   -5.3518    3.7730 H   0  0  0  0  0  0  0  0  0  0  0  0
    0.8932   -6.5510    6.4258 H   0  0  0  0  0  0  0  0  0  0  0  0
    0.3146   -7.1557    4.9049 H   0  0  0  0  0  0  0  0  0  0  0  0
   -0.5128   -5.8109    5.6658 H   0  0  0  0  0  0  0  0  0  0  0  0
    0.4375   -3.4684    5.2161 H   0  0  0  0  0  0  0  0  0  0  0  0
    1.3829   -1.5431    2.3454 H   0  0  0  0  0  0  0  0  0  0  0  0
    0.2352   -2.6297    3.0114 H   0  0  0  0  0  0  0  0  0  0  0  0
   -0.4060   -0.2421    3.0369 H   0  0  0  0  0  0  0  0  0  0  0  0
   -0.5775   -1.0721    4.5071 H   0  0  0  0  0  0  0  0  0  0  0  0
    2.5347    1.8904    3.7067 H   0  0  0  0  0  0  0  0  0  0  0  0
    1.3186    1.4328    2.5390 H   0  0  0  0  0  0  0  0  0  0  0  0
    2.6104    0.3443    2.9087 H   0  0  0  0  0  0  0  0  0  0  0  0
    0.9369    2.4094    5.2374 H   0  0  0  0  0  0  0  0  0  0  0  0
    0.6868    4.5479    4.9830 H   0  0  0  0  0  0  0  0  0  0  0  0
   -0.4382    5.6033    4.1412 H   0  0  0  0  0  0  0  0  0  0  0  0
    0.5743    4.4858    3.2248 H   0  0  0  0  0  0  0  0  0  0  0  0
   -2.9581    3.0274    3.2056 H   0  0  0  0  0  0  0  0  0  0  0  0
   -1.7398    3.7469    2.1441 H   0  0  0  0  0  0  0  0  0  0  0  0
   -2.6298    4.7684    3.2836 H   0  0  0  0  0  0  0  0  0  0  0  0
   -0.2504    3.5906    6.8432 H   0  0  0  0  0  0  0  0  0  0  0  0
   -1.7967    3.0158    7.4087 H   0  0  0  0  0  0  0  0  0  0  0  0
   -2.7409    0.9502    6.7914 H   0  0  0  0  0  0  0  0  0  0  0  0
   -1.9540   -0.3042    5.8818 H   0  0  0  0  0  0  0  0  0  0  0  0
   -2.5099    1.1171    5.0590 H   0  0  0  0  0  0  0  0  0  0  0  0
    0.8999    1.6718    7.6344 H   0  0  0  0  0  0  0  0  0  0  0  0
    0.0074    0.6920    9.2652 H   0  0  0  0  0  0  0  0  0  0  0  0
    1.5837   -0.6886    7.7831 H   0  0  0  0  0  0  0  0  0  0  0  0
    0.4515   -2.2240    6.7143 H   0  0  0  0  0  0  0  0  0  0  0  0
    3.4783    0.4378    7.0533 H   0  0  0  0  0  0  0  0  0  0  0  0
    2.6279    1.7997    6.3714 H   0  0  0  0  0  0  0  0  0  0  0  0
    3.7879    0.9414    5.4054 H   0  0  0  0  0  0  0  0  0  0  0  0
    3.2840   -0.8677    4.4068 H   0  0  0  0  0  0  0  0  0  0  0  0
    4.5729   -1.4295    6.1188 H   0  0  0  0  0  0  0  0  0  0  0  0
    3.5096   -2.3148    7.0253 H   0  0  0  0  0  0  0  0  0  0  0  0
    5.4163   -3.4468    5.7528 H   0  0  0  0  0  0  0  0  0  0  0  0
    4.9579   -1.7951    4.0026 H   0  0  0  0  0  0  0  0  0  0  0  0
    5.7274   -3.0898    3.8517 H   0  0  0  0  0  0  0  0  0  0  0  0
    1.5193   -4.2485    2.4937 H   0  0  0  0  0  0  0  0  0  0  0  0
    2.0855   -3.4894    1.3923 H   0  0  0  0  0  0  0  0  0  0  0  0
    4.5659   -5.9019    0.4044 H   0  0  0  0  0  0  0  0  0  0  0  0
    6.2570   -5.3785    1.8575 H   0  0  0  0  0  0  0  0  0  0  0  0
    6.1662   -5.2993    4.2489 H   0  0  0  0  0  0  0  0  0  0  0  0
    5.1285   -6.5508    3.7355 H   0  0  0  0  0  0  0  0  0  0  0  0
    4.6378   -0.6643    2.2438 H   0  0  0  0  0  0  0  0  0  0  0  0
    3.4596   -0.9665   -0.5419 H   0  0  0  0  0  0  0  0  0  0  0  0
    3.6490    0.4979    0.4713 H   0  0  0  0  0  0  0  0  0  0  0  0
    2.5108   -0.7279    0.8779 H   0  0  0  0  0  0  0  0  0  0  0  0
    6.0224   -1.2981   -0.3760 H   0  0  0  0  0  0  0  0  0  0  0  0
    6.7990   -1.3401    1.2063 H   0  0  0  0  0  0  0  0  0  0  0  0
    6.1268    0.1472    0.5613 H   0  0  0  0  0  0  0  0  0  0  0  0
    3.3192   -3.5756   -0.2120 H   0  0  0  0  0  0  0  0  0  0  0  0
    4.9887   -4.2046   -1.3288 H   0  0  0  0  0  0  0  0  0  0  0  0
  1  2  1  0
  1 48  1  0
  1 49  1  0
  1 50  1  0
  2  9  1  0
  2  3  2  0
  3  4  1  0
  3 51  1  0
  4 33  1  0
  4 40  1  6
  4  5  1  0
  5  6  1  0
  5 52  1  0
  5 53  1  0
  6  7  1  0
  6  8  1  0
  6 54  1  6
  7 55  1  0
  7 56  1  0
  7 57  1  0
  8  9  1  0
  8 11  1  0
  8 58  1  1
  9 10  2  0
 11 31  1  0
 11 35  1  0
 11 12  1  6
 12 13  1  0
 12 59  1  0
 12 60  1  0
 13 14  1  0
 13 61  1  0
 13 62  1  0
 14 29  1  0
 14 15  1  6
 14 16  1  0
 15 63  1  0
 15 64  1  0
 15 65  1  0
 16 23  1  0
 16 17  1  0
 16 66  1  1
 17 18  1  0
 18 19  1  0
 18 20  1  0
 18 21  1  0
 19 67  1  0
 19 68  1  0
 19 69  1  0
 20 70  1  0
 20 71  1  0
 20 72  1  0
 21 22  1  0
 22 23  1  0
 22 73  1  0
 22 74  1  0
 23 24  1  6
 23 25  1  0
 24 75  1  0
 24 76  1  0
 24 77  1  0
 25 26  1  0
 25 27  1  0
 25 78  1  1
 26 79  1  0
 27 28  1  0
 27 29  1  0
 27 80  1  1
 28 81  1  0
 29 30  1  1
 29 31  1  0
 30 82  1  0
 30 83  1  0
 30 84  1  0
 31 32  1  0
 31 85  1  6
 32 33  1  0
 32 86  1  0
 32 87  1  0
 33 34  1  0
 33 88  1  1
 34 35  1  0
 34 89  1  0
 34 90  1  0
 35 42  1  0
 35 36  1  6
 36 37  1  0
 36 91  1  0
 36 92  1  0
 37 38  1  0
 38 46  1  0
 38 39  1  0
 38 93  1  6
 39 40  1  0
 39 41  1  0
 39 94  1  6
 40 95  1  0
 40 96  1  0
 41 42  1  0
 42 43  1  6
 42 46  1  0
 43 44  1  0
 43 45  1  0
 43 97  1  0
 44 98  1  0
 44 99  1  0
 44100  1  0
 45101  1  0
 45102  1  0
 45103  1  0
 46 47  1  0
 46104  1  6
 47105  1  0
M  END
>  <i_m_ct_stereo_status>  (151) 
1

>  <s_m_source_file>  (151) 
/var/tmp/pbs.5076255.sched01/tmpmalnbme9/37wob9dpop.sdf

>  <i_m_source_file_index>  (151) 
36

>  <i_lp_mmshare_version>  (151) 
48012

>  <i_f3d_flags>  (151) 
0

>  <s_epik_input>  (151) 
W0NIMl0xT1tDQEBIXShbQ0BASF0yW09IXSlbQ0BIXShbQ0gyXTMpT1tDQF0yKFtDSF0oW0NIM10pW0NIM10pQzEoW0NIMl00KVtDQF0oW0NAQEhdNVtDSDJdW0NASF00W0NAQF0zNjcpKFtDQEBIXShbQ0BASF0oW0NIMl03KVtDSDNdKUMoPU8pQyhbQ0gzXSk9W0NIXTYpW0NIMl1bQ0gyXVtDQEBdOChbQ0gzXSlbQ0BASF05W0NAXShbQ0gzXSkoW0NIMl1PQyhPOSkoW0NIM10pW0NIM10pW0NAQEhdKFtPSF0pW0NAQEhdKFtPSF0pW0NAQF01OFtDSDNd

>  <s_epik_cmdline>  (151) 
J2VwaWtfcHl0aG9uJywgJy1waHQnLCAnMi4wJywgJy1waCcsICc3LjAnLCAnLXRuJywgJzgnLCAnLW1hJywgJzIwMCcsICctaW1hZScsICc8aW5maWxlLm1hZT4nLCAnLW9tYWUnLCAnPG91dGZpbGUubWFlPic=

>  <r_lp_tautomer_probability>  (151) 
1

>  <r_epik_Ionization_Penalty>  (151) 
3.70537e-07

>  <r_epik_Ionization_Penalty_Charging>  (151) 
0

>  <r_epik_Ionization_Penalty_Neutral>  (151) 
3.70537e-07

>  <r_epik_State_Penalty>  (151) 
-0

>  <r_epik_Charging_Adjusted_Penalty>  (151) 
0

>  <i_epik_Tot_Q>  (151) 
0

>  <i_epik_Tot_abs_Q>  (151) 
0

>  <s_lp_Force_Field>  (151) 
OPLS3e

>  <r_lp_Energy>  (151) 
442.705

>  <b_lp_Chiralities_Consistent>  (151) 
1

>  <s_lp_Variant>  (151) 
57:0-1

>  <s_i_glide_gridfile>  (151) 
pfpi4k_grid

>  <i_i_glide_lignum>  (151) 
36

>  <i_i_glide_rotatable_bonds>  (151) 
4

>  <r_i_docking_score>  (151) 
-3.05775

>  <r_i_glide_ligand_efficiency>  (151) 
-0.0650586

>  <r_i_glide_ligand_efficiency_sa>  (151) 
-0.234785

>  <r_i_glide_ligand_efficiency_ln>  (151) 
-0.630446

>  <r_i_glide_gscore>  (151) 
-3.05775

>  <r_i_glide_lipo>  (151) 
-0.318797

>  <r_i_glide_hbond>  (151) 
0

>  <r_i_glide_metal>  (151) 
-0

>  <r_i_glide_rewards>  (151) 
-0.5

>  <r_i_glide_evdw>  (151) 
-26.5853

>  <r_i_glide_ecoul>  (151) 
-5.74576

>  <r_i_glide_erotb>  (151) 
0

>  <r_i_glide_esite>  (151) 
-0.0478273

>  <r_i_glide_emodel>  (151) 
-42.7091

>  <r_i_glide_energy>  (151) 
-32.3311

>  <r_i_glide_einternal>  (151) 
1.38512

>  <r_i_glide_intrahb_reward>  (151) 
-0.5

>  <i_i_glide_confnum>  (151) 
1

>  <i_i_glide_posenum>  (151) 
25

>  <r_i_glide_eff_state_penalty>  (151) 
0

>  <ligand_id>  (151) 
57

>  <original_smiles>  (151) 
CC1=CC23CC(C)C(C1=O)C14CCC5(C)C6OC(C)(C)OCC6(C)C(O)C(O)C5(C)C1CC2CC41COC2C(C3)OC1(C(C)C)C2O

>  <smiles>  (151) 
[H]OC1([H])C2([H])OC([H])([H])C34C([H])([H])C5([H])C([H])([H])C6([H])C7(C([H])([H])[H])C([H])(O[H])C([H])(O[H])C8(C([H])([H])[H])C([H])([H])OC(C([H])([H])[H])(C([H])([H])[H])OC8([H])C7(C([H])([H])[H])C([H])([H])C([H])([H])C63C3([H])C(=O)C(C([H])([H])[H])=C([H])C5(C([H])([H])C2([H])OC14C([H])(C([H])([H])[H])C([H])([H])[H])C([H])([H])C3([H])C([H])([H])[H]

$$$$
57:0:2
     RDKit          3D

105113  0  0  1  0  0  0  0  0999 V2000
    3.0836   -5.2679    8.6560 C   0  0  0  0  0  0  0  0  0  0  0  0
    3.1153   -4.9069    7.1834 C   0  0  0  0  0  0  0  0  0  0  0  0
    4.1532   -5.3182    6.3898 C   0  0  0  0  0  0  0  0  0  0  0  0
    4.1884   -4.9219    4.9375 C   0  0  1  0  0  0  0  0  0  0  0  0
    2.9040   -5.7860    4.5022 C   0  0  0  0  0  0  0  0  0  0  0  0
    1.4682   -5.2575    4.6784 C   0  0  1  0  0  0  0  0  0  0  0  0
    0.5833   -6.2532    5.4979 C   0  0  0  0  0  0  0  0  0  0  0  0
    1.5624   -3.7815    5.1459 C   0  0  1  0  0  0  0  0  0  0  0  0
    1.9138   -4.0728    6.6905 C   0  0  0  0  0  0  0  0  0  0  0  0
    1.0893   -3.6828    7.5093 O   0  0  0  0  0  0  0  0  0  0  0  0
    2.2105   -2.5447    4.1172 C   0  0  1  0  0  0  0  0  0  0  0  0
    1.0494   -1.9012    3.2738 C   0  0  0  0  0  0  0  0  0  0  0  0
    0.2377   -0.7087    3.8295 C   0  0  0  0  0  0  0  0  0  0  0  0
    1.0791    0.4254    4.4666 C   0  0  1  0  0  0  0  0  0  0  0  0
    1.9731    1.0378    3.3434 C   0  0  0  0  0  0  0  0  0  0  0  0
    0.2124    1.6436    4.9427 C   0  0  1  0  0  0  0  0  0  0  0  0
   -0.5625    2.2121    3.8948 O   0  0  0  0  0  0  0  0  0  0  0  0
   -1.1087    3.4828    4.1608 C   0  0  0  0  0  0  0  0  0  0  0  0
   -0.0070    4.5710    4.0945 C   0  0  0  0  0  0  0  0  0  0  0  0
   -2.1750    3.7172    3.0860 C   0  0  0  0  0  0  0  0  0  0  0  0
   -1.7797    3.5423    5.3937 O   0  0  0  0  0  0  0  0  0  0  0  0
   -1.1187    2.9536    6.5143 C   0  0  0  0  0  0  0  0  0  0  0  0
   -0.6930    1.5018    6.1836 C   0  0  1  0  0  0  0  0  0  0  0  0
   -2.0127    0.7243    5.9341 C   0  0  0  0  0  0  0  0  0  0  0  0
    0.1831    0.9018    7.3182 C   0  0  1  0  0  0  0  0  0  0  0  0
   -0.5858    0.6784    8.4897 O   0  0  0  0  0  0  0  0  0  0  0  0
    0.9931   -0.3826    6.9236 C   0  0  1  0  0  0  0  0  0  0  0  0
    0.0466   -1.4068    6.7700 O   0  0  0  0  0  0  0  0  0  0  0  0
    1.9230   -0.1897    5.6609 C   0  0  2  0  0  0  0  0  0  0  0  0
    3.0182    0.8207    6.1424 C   0  0  0  0  0  0  0  0  0  0  0  0
    2.7492   -1.4493    5.1138 C   0  0  1  0  0  0  0  0  0  0  0  0
    3.8408   -2.1305    6.0082 C   0  0  0  0  0  0  0  0  0  0  0  0
    4.5372   -3.3620    5.2715 C   0  0  2  0  0  0  0  0  0  0  0  0
    4.7566   -2.8035    3.9953 C   0  0  0  0  0  0  0  0  0  0  0  0
    3.4781   -3.0174    3.0288 C   0  0  1  0  0  0  0  0  0  0  0  0
    2.6247   -4.0900    2.2301 C   0  0  0  0  0  0  0  0  0  0  0  0
    3.1604   -5.2688    1.6428 O   0  0  0  0  0  0  0  0  0  0  0  0
    4.4396   -5.0792    1.1324 C   0  0  2  0  0  0  0  0  0  0  0  0
    5.4692   -4.8845    2.2683 C   0  0  2  0  0  0  0  0  0  0  0  0
    5.3103   -5.4342    3.8456 C   0  0  0  0  0  0  0  0  0  0  0  0
    5.6661   -3.4753    1.9197 O   0  0  0  0  0  0  0  0  0  0  0  0
    4.4258   -2.7231    1.6732 C   0  0  2  0  0  0  0  0  0  0  0  0
    4.6914   -1.2172    1.3341 C   0  0  0  0  0  0  0  0  0  0  0  0
    3.5737   -0.5940    0.4899 C   0  0  0  0  0  0  0  0  0  0  0  0
    6.0555   -0.9120    0.6768 C   0  0  0  0  0  0  0  0  0  0  0  0
    4.3486   -3.7079    0.4164 C   0  0  1  0  0  0  0  0  0  0  0  0
    5.3414   -3.6090   -0.5923 O   0  0  0  0  0  0  0  0  0  0  0  0
    3.1083   -4.3692    9.2720 H   0  0  0  0  0  0  0  0  0  0  0  0
    3.9376   -5.8818    8.9426 H   0  0  0  0  0  0  0  0  0  0  0  0
    2.1818   -5.8242    8.9073 H   0  0  0  0  0  0  0  0  0  0  0  0
    4.9815   -5.8984    6.7677 H   0  0  0  0  0  0  0  0  0  0  0  0
    3.0100   -6.2707    3.5470 H   0  0  0  0  0  0  0  0  0  0  0  0
    2.9504   -6.7292    5.0562 H   0  0  0  0  0  0  0  0  0  0  0  0
    0.8561   -5.3777    3.7951 H   0  0  0  0  0  0  0  0  0  0  0  0
    1.0014   -6.5561    6.4579 H   0  0  0  0  0  0  0  0  0  0  0  0
    0.4417   -7.1808    4.9374 H   0  0  0  0  0  0  0  0  0  0  0  0
   -0.4071   -5.8385    5.6831 H   0  0  0  0  0  0  0  0  0  0  0  0
    0.5172   -3.4867    5.2254 H   0  0  0  0  0  0  0  0  0  0  0  0
    1.4738   -1.5577    2.3431 H   0  0  0  0  0  0  0  0  0  0  0  0
    0.3238   -2.6654    2.9971 H   0  0  0  0  0  0  0  0  0  0  0  0
   -0.3446   -0.2775    3.0183 H   0  0  0  0  0  0  0  0  0  0  0  0
   -0.5194   -1.1079    4.4874 H   0  0  0  0  0  0  0  0  0  0  0  0
    2.5645    1.8841    3.6919 H   0  0  0  0  0  0  0  0  0  0  0  0
    1.3619    1.4052    2.5185 H   0  0  0  0  0  0  0  0  0  0  0  0
    2.6621    0.3318    2.9008 H   0  0  0  0  0  0  0  0  0  0  0  0
    0.9503    2.3956    5.2088 H   0  0  0  0  0  0  0  0  0  0  0  0
    0.6754    4.5283    4.9406 H   0  0  0  0  0  0  0  0  0  0  0  0
   -0.4580    5.5610    4.0825 H   0  0  0  0  0  0  0  0  0  0  0  0
    0.5736    4.4527    3.1820 H   0  0  0  0  0  0  0  0  0  0  0  0
   -2.9399    2.9459    3.1510 H   0  0  0  0  0  0  0  0  0  0  0  0
   -1.7232    3.6829    2.0932 H   0  0  0  0  0  0  0  0  0  0  0  0
   -2.6404    4.6903    3.2263 H   0  0  0  0  0  0  0  0  0  0  0  0
   -0.2695    3.5728    6.8024 H   0  0  0  0  0  0  0  0  0  0  0  0
   -1.8095    2.9813    7.3554 H   0  0  0  0  0  0  0  0  0  0  0  0
   -2.7238    0.9027    6.7422 H   0  0  0  0  0  0  0  0  0  0  0  0
   -1.9153   -0.3501    5.8487 H   0  0  0  0  0  0  0  0  0  0  0  0
   -2.4852    1.0591    5.0119 H   0  0  0  0  0  0  0  0  0  0  0  0
    0.8982    1.6708    7.6159 H   0  0  0  0  0  0  0  0  0  0  0  0
   -0.0021    0.6842    9.2390 H   0  0  0  0  0  0  0  0  0  0  0  0
    1.6049   -0.6790    7.7791 H   0  0  0  0  0  0  0  0  0  0  0  0
    0.5066   -2.2368    6.7236 H   0  0  0  0  0  0  0  0  0  0  0  0
    3.4973    0.4686    7.0598 H   0  0  0  0  0  0  0  0  0  0  0  0
    2.6356    1.8155    6.3600 H   0  0  0  0  0  0  0  0  0  0  0  0
    3.8153    0.9644    5.4101 H   0  0  0  0  0  0  0  0  0  0  0  0
    3.3319   -0.8644    4.4204 H   0  0  0  0  0  0  0  0  0  0  0  0
    4.6259   -1.3876    6.1476 H   0  0  0  0  0  0  0  0  0  0  0  0
    3.5632   -2.2872    7.0468 H   0  0  0  0  0  0  0  0  0  0  0  0
    5.4980   -3.4040    5.7984 H   0  0  0  0  0  0  0  0  0  0  0  0
    5.0308   -1.7576    4.0287 H   0  0  0  0  0  0  0  0  0  0  0  0
    5.8080   -3.0542    3.8950 H   0  0  0  0  0  0  0  0  0  0  0  0
    1.6279   -4.2775    2.5143 H   0  0  0  0  0  0  0  0  0  0  0  0
    2.1883   -3.5192    1.4137 H   0  0  0  0  0  0  0  0  0  0  0  0
    4.7139   -5.8957    0.4583 H   0  0  0  0  0  0  0  0  0  0  0  0
    6.3909   -5.3495    1.9210 H   0  0  0  0  0  0  0  0  0  0  0  0
    6.2780   -5.2566    4.3133 H   0  0  0  0  0  0  0  0  0  0  0  0
    5.2600   -6.5217    3.7986 H   0  0  0  0  0  0  0  0  0  0  0  0
    4.7081   -0.6544    2.2661 H   0  0  0  0  0  0  0  0  0  0  0  0
    3.5519   -0.9866   -0.5285 H   0  0  0  0  0  0  0  0  0  0  0  0
    3.7145    0.4868    0.4769 H   0  0  0  0  0  0  0  0  0  0  0  0
    2.5885   -0.7594    0.8963 H   0  0  0  0  0  0  0  0  0  0  0  0
    6.1351   -1.2982   -0.3356 H   0  0  0  0  0  0  0  0  0  0  0  0
    6.8873   -1.3070    1.2604 H   0  0  0  0  0  0  0  0  0  0  0  0
    6.2038    0.1620    0.5922 H   0  0  0  0  0  0  0  0  0  0  0  0
    3.4358   -3.6036   -0.1729 H   0  0  0  0  0  0  0  0  0  0  0  0
    5.1640   -2.8213   -1.0782 H   0  0  0  0  0  0  0  0  0  0  0  0
  1  2  1  0
  1 48  1  0
  1 49  1  0
  1 50  1  0
  2  9  1  0
  2  3  2  0
  3  4  1  0
  3 51  1  0
  4 33  1  0
  4 40  1  6
  4  5  1  0
  5  6  1  0
  5 52  1  0
  5 53  1  0
  6  7  1  0
  6  8  1  0
  6 54  1  6
  7 55  1  0
  7 56  1  0
  7 57  1  0
  8  9  1  0
  8 11  1  0
  8 58  1  1
  9 10  2  0
 11 31  1  0
 11 35  1  0
 11 12  1  6
 12 13  1  0
 12 59  1  0
 12 60  1  0
 13 14  1  0
 13 61  1  0
 13 62  1  0
 14 29  1  0
 14 15  1  6
 14 16  1  0
 15 63  1  0
 15 64  1  0
 15 65  1  0
 16 23  1  0
 16 17  1  0
 16 66  1  1
 17 18  1  0
 18 19  1  0
 18 20  1  0
 18 21  1  0
 19 67  1  0
 19 68  1  0
 19 69  1  0
 20 70  1  0
 20 71  1  0
 20 72  1  0
 21 22  1  0
 22 23  1  0
 22 73  1  0
 22 74  1  0
 23 24  1  6
 23 25  1  0
 24 75  1  0
 24 76  1  0
 24 77  1  0
 25 26  1  0
 25 27  1  0
 25 78  1  1
 26 79  1  0
 27 28  1  0
 27 29  1  0
 27 80  1  1
 28 81  1  0
 29 30  1  1
 29 31  1  0
 30 82  1  0
 30 83  1  0
 30 84  1  0
 31 32  1  0
 31 85  1  6
 32 33  1  0
 32 86  1  0
 32 87  1  0
 33 34  1  0
 33 88  1  1
 34 35  1  0
 34 89  1  0
 34 90  1  0
 35 42  1  0
 35 36  1  6
 36 37  1  0
 36 91  1  0
 36 92  1  0
 37 38  1  0
 38 46  1  0
 38 39  1  0
 38 93  1  6
 39 40  1  0
 39 41  1  0
 39 94  1  6
 40 95  1  0
 40 96  1  0
 41 42  1  0
 42 43  1  6
 42 46  1  0
 43 44  1  0
 43 45  1  0
 43 97  1  0
 44 98  1  0
 44 99  1  0
 44100  1  0
 45101  1  0
 45102  1  0
 45103  1  0
 46 47  1  0
 46104  1  6
 47105  1  0
M  END
>  <i_m_ct_stereo_status>  (152) 
1

>  <s_m_source_file>  (152) 
/var/tmp/pbs.5076255.sched01/tmpmalnbme9/37wob9dpop.sdf

>  <i_m_source_file_index>  (152) 
36

>  <i_lp_mmshare_version>  (152) 
48012

>  <i_f3d_flags>  (152) 
0

>  <s_epik_input>  (152) 
W0NIMl0xT1tDQEBIXShbQ0BASF0yW09IXSlbQ0BIXShbQ0gyXTMpT1tDQF0yKFtDSF0oW0NIM10pW0NIM10pQzEoW0NIMl00KVtDQF0oW0NAQEhdNVtDSDJdW0NASF00W0NAQF0zNjcpKFtDQEBIXShbQ0BASF0oW0NIMl03KVtDSDNdKUMoPU8pQyhbQ0gzXSk9W0NIXTYpW0NIMl1bQ0gyXVtDQEBdOChbQ0gzXSlbQ0BASF05W0NAXShbQ0gzXSkoW0NIMl1PQyhPOSkoW0NIM10pW0NIM10pW0NAQEhdKFtPSF0pW0NAQEhdKFtPSF0pW0NAQF01OFtDSDNd

>  <s_epik_cmdline>  (152) 
J2VwaWtfcHl0aG9uJywgJy1waHQnLCAnMi4wJywgJy1waCcsICc3LjAnLCAnLXRuJywgJzgnLCAnLW1hJywgJzIwMCcsICctaW1hZScsICc8aW5maWxlLm1hZT4nLCAnLW9tYWUnLCAnPG91dGZpbGUubWFlPic=

>  <r_lp_tautomer_probability>  (152) 
1

>  <r_epik_Ionization_Penalty>  (152) 
3.70537e-07

>  <r_epik_Ionization_Penalty_Charging>  (152) 
0

>  <r_epik_Ionization_Penalty_Neutral>  (152) 
3.70537e-07

>  <r_epik_State_Penalty>  (152) 
-0

>  <r_epik_Charging_Adjusted_Penalty>  (152) 
0

>  <i_epik_Tot_Q>  (152) 
0

>  <i_epik_Tot_abs_Q>  (152) 
0

>  <s_lp_Force_Field>  (152) 
OPLS3e

>  <r_lp_Energy>  (152) 
442.705

>  <b_lp_Chiralities_Consistent>  (152) 
1

>  <s_lp_Variant>  (152) 
57:0-1

>  <s_i_glide_gridfile>  (152) 
pfpi4k_grid

>  <i_i_glide_lignum>  (152) 
36

>  <i_i_glide_rotatable_bonds>  (152) 
4

>  <r_i_docking_score>  (152) 
-2.93359

>  <r_i_glide_ligand_efficiency>  (152) 
-0.0624169

>  <r_i_glide_ligand_efficiency_sa>  (152) 
-0.225252

>  <r_i_glide_ligand_efficiency_ln>  (152) 
-0.604846

>  <r_i_glide_gscore>  (152) 
-2.93359

>  <r_i_glide_lipo>  (152) 
-0.345773

>  <r_i_glide_hbond>  (152) 
0

>  <r_i_glide_metal>  (152) 
-0

>  <r_i_glide_rewards>  (152) 
-0.5

>  <r_i_glide_evdw>  (152) 
-26.6124

>  <r_i_glide_ecoul>  (152) 
-4.71852

>  <r_i_glide_erotb>  (152) 
0

>  <r_i_glide_esite>  (152) 
-0.0494255

>  <r_i_glide_emodel>  (152) 
-41.4175

>  <r_i_glide_energy>  (152) 
-31.3309

>  <r_i_glide_einternal>  (152) 
1.45216

>  <r_i_glide_intrahb_reward>  (152) 
-0.5

>  <i_i_glide_confnum>  (152) 
2

>  <i_i_glide_posenum>  (152) 
23

>  <r_i_glide_eff_state_penalty>  (152) 
0

>  <ligand_id>  (152) 
57

>  <original_smiles>  (152) 
CC1=CC23CC(C)C(C1=O)C14CCC5(C)C6OC(C)(C)OCC6(C)C(O)C(O)C5(C)C1CC2CC41COC2C(C3)OC1(C(C)C)C2O

>  <smiles>  (152) 
[H]OC1([H])C2([H])OC([H])([H])C34C([H])([H])C5([H])C([H])([H])C6([H])C7(C([H])([H])[H])C([H])(O[H])C([H])(O[H])C8(C([H])([H])[H])C([H])([H])OC(C([H])([H])[H])(C([H])([H])[H])OC8([H])C7(C([H])([H])[H])C([H])([H])C([H])([H])C63C3([H])C(=O)C(C([H])([H])[H])=C([H])C5(C([H])([H])C2([H])OC14C([H])(C([H])([H])[H])C([H])([H])[H])C([H])([H])C3([H])C([H])([H])[H]

$$$$
58:0:0
     RDKit          3D

 51 54  0  0  1  0  0  0  0  0999 V2000
    2.1193   -9.0640    1.7426 C   0  0  0  0  0  0  0  0  0  0  0  0
    2.6981   -7.8548    1.7424 C   0  0  0  0  0  0  0  0  0  0  0  0
    2.0312   -6.5482    1.7093 C   0  0  0  0  0  0  0  0  0  0  0  0
    0.8303   -6.2799    1.6102 O   0  0  0  0  0  0  0  0  0  0  0  0
    3.1560   -5.4988    1.8206 C   0  0  1  0  0  0  0  0  0  0  0  0
    4.0894   -6.2601    2.7715 C   0  0  0  0  0  0  0  0  0  0  0  0
    4.1626   -7.5060    1.8829 C   0  0  2  0  0  0  0  0  0  0  0  0
    4.6482   -6.8963    0.5437 C   0  0  0  0  0  0  0  0  0  0  0  0
    3.9468   -5.4973    0.4827 C   0  0  2  0  0  0  0  0  0  0  0  0
    4.8551   -4.2324    0.1463 C   0  0  2  0  0  0  0  0  0  0  0  0
    5.0071   -4.2934   -1.3976 C   0  0  0  0  0  0  0  0  0  0  0  0
    6.2893   -4.2967    0.7659 C   0  0  0  0  0  0  0  0  0  0  0  0
    7.1360   -3.0269    0.5835 C   0  0  0  0  0  0  0  0  0  0  0  0
    6.3997   -1.7546    1.0257 C   0  0  0  0  0  0  0  0  0  0  0  0
    5.0234   -1.5830    0.3492 C   0  0  0  0  0  0  0  0  0  0  0  0
    4.3580   -0.2943    0.8941 C   0  0  0  0  0  0  0  0  0  0  0  0
    5.1983   -1.2940   -1.1657 C   0  0  0  0  0  0  0  0  0  0  0  0
    4.1628   -2.8867    0.6347 C   0  0  2  0  0  0  0  0  0  0  0  0
    3.7510   -3.0770    2.1410 C   0  0  1  0  0  0  0  0  0  0  0  0
    3.1957   -1.9413    2.7910 O   0  0  0  0  0  0  0  0  0  0  0  0
    3.7186   -1.4935    3.9595 C   0  0  0  0  0  0  0  0  0  0  0  0
    4.6852   -1.9680    4.5526 O   0  0  0  0  0  0  0  0  0  0  0  0
    2.6548   -4.1308    2.2668 C   0  0  0  0  0  0  0  0  0  0  0  0
    2.6917   -9.9775    1.8091 H   0  0  0  0  0  0  0  0  0  0  0  0
    1.0518   -9.1766    1.6782 H   0  0  0  0  0  0  0  0  0  0  0  0
    5.0534   -5.7892    2.9443 H   0  0  0  0  0  0  0  0  0  0  0  0
    3.6349   -6.4599    3.7461 H   0  0  0  0  0  0  0  0  0  0  0  0
    4.7698   -8.3253    2.2756 H   0  0  0  0  0  0  0  0  0  0  0  0
    5.7326   -6.8442    0.5590 H   0  0  0  0  0  0  0  0  0  0  0  0
    4.3623   -7.5253   -0.3026 H   0  0  0  0  0  0  0  0  0  0  0  0
    3.1924   -5.5446   -0.3086 H   0  0  0  0  0  0  0  0  0  0  0  0
    5.9352   -3.8703   -1.7688 H   0  0  0  0  0  0  0  0  0  0  0  0
    4.1668   -3.8167   -1.9053 H   0  0  0  0  0  0  0  0  0  0  0  0
    5.0199   -5.3267   -1.7437 H   0  0  0  0  0  0  0  0  0  0  0  0
    6.2454   -4.5023    1.8301 H   0  0  0  0  0  0  0  0  0  0  0  0
    6.8596   -5.1120    0.3285 H   0  0  0  0  0  0  0  0  0  0  0  0
    8.0424   -3.1381    1.1750 H   0  0  0  0  0  0  0  0  0  0  0  0
    7.4760   -2.9388   -0.4453 H   0  0  0  0  0  0  0  0  0  0  0  0
    6.2640   -1.8050    2.1065 H   0  0  0  0  0  0  0  0  0  0  0  0
    7.0261   -0.8783    0.8511 H   0  0  0  0  0  0  0  0  0  0  0  0
    3.2785   -0.2939    0.7217 H   0  0  0  0  0  0  0  0  0  0  0  0
    4.7656    0.6124    0.4617 H   0  0  0  0  0  0  0  0  0  0  0  0
    4.5714   -0.1357    1.9450 H   0  0  0  0  0  0  0  0  0  0  0  0
    4.2814   -1.4804   -1.7234 H   0  0  0  0  0  0  0  0  0  0  0  0
    6.0159   -1.8353   -1.6271 H   0  0  0  0  0  0  0  0  0  0  0  0
    5.4642   -0.2589   -1.3472 H   0  0  0  0  0  0  0  0  0  0  0  0
    3.2392   -2.7592    0.0677 H   0  0  0  0  0  0  0  0  0  0  0  0
    4.6169   -3.4295    2.6952 H   0  0  0  0  0  0  0  0  0  0  0  0
    3.1568   -0.6140    4.2840 H   0  0  0  0  0  0  0  0  0  0  0  0
    1.8194   -3.8129    1.6514 H   0  0  0  0  0  0  0  0  0  0  0  0
    2.2780   -4.1790    3.2924 H   0  0  0  0  0  0  0  0  0  0  0  0
  1  2  2  0
  1 24  1  0
  1 25  1  0
  2  7  1  0
  2  3  1  0
  3  4  2  0
  3  5  1  0
  5  9  1  0
  5 23  1  1
  5  6  1  0
  6  7  1  0
  6 26  1  0
  6 27  1  0
  7  8  1  0
  7 28  1  1
  8  9  1  0
  8 29  1  0
  8 30  1  0
  9 10  1  0
  9 31  1  6
 10 18  1  0
 10 11  1  6
 10 12  1  0
 11 32  1  0
 11 33  1  0
 11 34  1  0
 12 13  1  0
 12 35  1  0
 12 36  1  0
 13 14  1  0
 13 37  1  0
 13 38  1  0
 14 15  1  0
 14 39  1  0
 14 40  1  0
 15 16  1  0
 15 17  1  0
 15 18  1  0
 16 41  1  0
 16 42  1  0
 16 43  1  0
 17 44  1  0
 17 45  1  0
 17 46  1  0
 18 19  1  0
 18 47  1  6
 19 20  1  0
 19 23  1  0
 19 48  1  1
 20 21  1  0
 21 22  2  0
 21 49  1  0
 23 50  1  0
 23 51  1  0
M  END
>  <i_m_ct_stereo_status>  (153) 
1

>  <s_m_source_file>  (153) 
/var/tmp/pbs.5076255.sched01/tmpmalnbme9/37wob9dpop.sdf

>  <i_m_source_file_index>  (153) 
37

>  <i_lp_mmshare_version>  (153) 
48012

>  <i_f3d_flags>  (153) 
0

>  <s_epik_input>  (153) 
Tz1DMUMoPVtDSDJdKVtDQEhdKFtDSDJdMilbQ0gyXVtDQEBIXShbQ0BAXTEyMylbQ0BAXTQoW0NIM10pW0NAQEhdKFtDQEhdKFtDSDJdMylPW0NIXT1PKUMoW0NIM10pKFtDSDNdKVtDSDJdW0NIMl1bQ0gyXTQ=

>  <s_epik_cmdline>  (153) 
J2VwaWtfcHl0aG9uJywgJy1waHQnLCAnMi4wJywgJy1waCcsICc3LjAnLCAnLXRuJywgJzgnLCAnLW1hJywgJzIwMCcsICctaW1hZScsICc8aW5maWxlLm1hZT4nLCAnLW9tYWUnLCAnPG91dGZpbGUubWFlPic=

>  <r_lp_tautomer_probability>  (153) 
1

>  <r_epik_Ionization_Penalty>  (153) 
0

>  <r_epik_Ionization_Penalty_Charging>  (153) 
0

>  <r_epik_Ionization_Penalty_Neutral>  (153) 
0

>  <r_epik_State_Penalty>  (153) 
-0

>  <r_epik_Charging_Adjusted_Penalty>  (153) 
0

>  <i_epik_Tot_Q>  (153) 
0

>  <i_epik_Tot_abs_Q>  (153) 
0

>  <s_epik_Chemistry_Notes>  (153) 
This compound has an ester and may undergo hydrolysis at high or low pH.

>  <s_lp_Force_Field>  (153) 
OPLS3e

>  <r_lp_Energy>  (153) 
68.545

>  <b_lp_Chiralities_Consistent>  (153) 
1

>  <s_lp_Variant>  (153) 
58:0-1

>  <s_i_glide_gridfile>  (153) 
pfpi4k_grid

>  <i_i_glide_lignum>  (153) 
37

>  <i_i_glide_rotatable_bonds>  (153) 
2

>  <r_i_docking_score>  (153) 
-3.79204

>  <r_i_glide_ligand_efficiency>  (153) 
-0.164871

>  <r_i_glide_ligand_efficiency_sa>  (153) 
-0.468872

>  <r_i_glide_ligand_efficiency_ln>  (153) 
-0.91695

>  <r_i_glide_gscore>  (153) 
-3.79204

>  <r_i_glide_lipo>  (153) 
-0.773078

>  <r_i_glide_hbond>  (153) 
-0.14811

>  <r_i_glide_metal>  (153) 
-0

>  <r_i_glide_rewards>  (153) 
-1.25183

>  <r_i_glide_evdw>  (153) 
-25.1781

>  <r_i_glide_ecoul>  (153) 
-3.48469

>  <r_i_glide_erotb>  (153) 
0.185924

>  <r_i_glide_esite>  (153) 
-0.0233424

>  <r_i_glide_emodel>  (153) 
-35.1396

>  <r_i_glide_energy>  (153) 
-28.6628

>  <r_i_glide_einternal>  (153) 
0.242052

>  <r_i_glide_intrahb_reward>  (153) 
-0

>  <i_i_glide_confnum>  (153) 
1

>  <i_i_glide_posenum>  (153) 
10

>  <r_i_glide_eff_state_penalty>  (153) 
0

>  <ligand_id>  (153) 
58

>  <original_smiles>  (153) 
C=C1C(=O)C23CC1CC2C1(C)CCCC(C)(C)C1C(OC=O)C3

>  <smiles>  (153) 
[H]C(=O)OC1([H])C([H])([H])C23C(=O)C(=C([H])[H])C([H])(C([H])([H])C2([H])C2(C([H])([H])[H])C([H])([H])C([H])([H])C([H])([H])C(C([H])([H])[H])(C([H])([H])[H])C12[H])C3([H])[H]

$$$$
58:0:1
     RDKit          3D

 51 54  0  0  1  0  0  0  0  0999 V2000
    0.0397   -6.1138    5.7036 C   0  0  0  0  0  0  0  0  0  0  0  0
    1.0183   -5.5091    5.0131 C   0  0  0  0  0  0  0  0  0  0  0  0
    1.0739   -4.0970    4.6390 C   0  0  0  0  0  0  0  0  0  0  0  0
    0.2388   -3.2171    4.8475 O   0  0  0  0  0  0  0  0  0  0  0  0
    2.4329   -3.8974    3.9401 C   0  0  1  0  0  0  0  0  0  0  0  0
    3.2714   -4.8521    4.7998 C   0  0  0  0  0  0  0  0  0  0  0  0
    2.3528   -6.0571    4.5532 C   0  0  2  0  0  0  0  0  0  0  0  0
    2.3404   -6.1237    3.0046 C   0  0  0  0  0  0  0  0  0  0  0  0
    2.3960   -4.6190    2.5653 C   0  0  2  0  0  0  0  0  0  0  0  0
    3.4670   -4.2167    1.4600 C   0  0  2  0  0  0  0  0  0  0  0  0
    2.7914   -4.6606    0.1311 C   0  0  0  0  0  0  0  0  0  0  0  0
    4.8302   -4.9781    1.5920 C   0  0  0  0  0  0  0  0  0  0  0  0
    5.9487   -4.5026    0.6485 C   0  0  0  0  0  0  0  0  0  0  0  0
    6.1666   -2.9851    0.7006 C   0  0  0  0  0  0  0  0  0  0  0  0
    4.8727   -2.1800    0.4501 C   0  0  0  0  0  0  0  0  0  0  0  0
    5.2085   -0.6700    0.5692 C   0  0  0  0  0  0  0  0  0  0  0  0
    4.4147   -2.3371   -1.0288 C   0  0  0  0  0  0  0  0  0  0  0  0
    3.7777   -2.6524    1.5041 C   0  0  2  0  0  0  0  0  0  0  0  0
    4.0951   -2.2576    2.9960 C   0  0  1  0  0  0  0  0  0  0  0  0
    4.4876   -0.9072    3.2053 O   0  0  0  0  0  0  0  0  0  0  0  0
    5.3093   -0.5997    4.2290 C   0  0  0  0  0  0  0  0  0  0  0  0
    5.7546    0.5273    4.4497 O   0  0  0  0  0  0  0  0  0  0  0  0
    2.8559   -2.4333    3.8766 C   0  0  0  0  0  0  0  0  0  0  0  0
    0.1072   -7.1526    5.9857 H   0  0  0  0  0  0  0  0  0  0  0  0
   -0.8414   -5.5793    6.0171 H   0  0  0  0  0  0  0  0  0  0  0  0
    4.2925   -5.0068    4.4603 H   0  0  0  0  0  0  0  0  0  0  0  0
    3.3128   -4.5572    5.8522 H   0  0  0  0  0  0  0  0  0  0  0  0
    2.6475   -6.9782    5.0599 H   0  0  0  0  0  0  0  0  0  0  0  0
    3.1848   -6.7201    2.6679 H   0  0  0  0  0  0  0  0  0  0  0  0
    1.4362   -6.6148    2.6417 H   0  0  0  0  0  0  0  0  0  0  0  0
    1.4214   -4.3674    2.1405 H   0  0  0  0  0  0  0  0  0  0  0  0
    3.5070   -4.9368   -0.6365 H   0  0  0  0  0  0  0  0  0  0  0  0
    2.1413   -3.8857   -0.2745 H   0  0  0  0  0  0  0  0  0  0  0  0
    2.1817   -5.5561    0.2587 H   0  0  0  0  0  0  0  0  0  0  0  0
    5.2161   -4.9030    2.6027 H   0  0  0  0  0  0  0  0  0  0  0  0
    4.6947   -6.0401    1.3994 H   0  0  0  0  0  0  0  0  0  0  0  0
    6.8756   -5.0017    0.9282 H   0  0  0  0  0  0  0  0  0  0  0  0
    5.7474   -4.8266   -0.3690 H   0  0  0  0  0  0  0  0  0  0  0  0
    6.5647   -2.7333    1.6839 H   0  0  0  0  0  0  0  0  0  0  0  0
    6.9381   -2.6967   -0.0149 H   0  0  0  0  0  0  0  0  0  0  0  0
    4.3097   -0.0726    0.7312 H   0  0  0  0  0  0  0  0  0  0  0  0
    5.6969   -0.2753   -0.3217 H   0  0  0  0  0  0  0  0  0  0  0  0
    5.9131   -0.4685    1.3746 H   0  0  0  0  0  0  0  0  0  0  0  0
    3.3644   -2.0695   -1.1561 H   0  0  0  0  0  0  0  0  0  0  0  0
    4.5595   -3.3374   -1.4242 H   0  0  0  0  0  0  0  0  0  0  0  0
    4.9870   -1.7094   -1.7139 H   0  0  0  0  0  0  0  0  0  0  0  0
    2.8605   -2.1241    1.2362 H   0  0  0  0  0  0  0  0  0  0  0  0
    4.8957   -2.8969    3.3651 H   0  0  0  0  0  0  0  0  0  0  0  0
    5.5277   -1.4830    4.8318 H   0  0  0  0  0  0  0  0  0  0  0  0
    2.0496   -1.8153    3.4738 H   0  0  0  0  0  0  0  0  0  0  0  0
    3.0300   -2.0653    4.8882 H   0  0  0  0  0  0  0  0  0  0  0  0
  1  2  2  0
  1 24  1  0
  1 25  1  0
  2  7  1  0
  2  3  1  0
  3  4  2  0
  3  5  1  0
  5  9  1  0
  5 23  1  6
  5  6  1  0
  6  7  1  0
  6 26  1  0
  6 27  1  0
  7  8  1  0
  7 28  1  1
  8  9  1  0
  8 29  1  0
  8 30  1  0
  9 10  1  0
  9 31  1  6
 10 18  1  0
 10 11  1  6
 10 12  1  0
 11 32  1  0
 11 33  1  0
 11 34  1  0
 12 13  1  0
 12 35  1  0
 12 36  1  0
 13 14  1  0
 13 37  1  0
 13 38  1  0
 14 15  1  0
 14 39  1  0
 14 40  1  0
 15 16  1  0
 15 17  1  0
 15 18  1  0
 16 41  1  0
 16 42  1  0
 16 43  1  0
 17 44  1  0
 17 45  1  0
 17 46  1  0
 18 19  1  0
 18 47  1  6
 19 20  1  0
 19 23  1  0
 19 48  1  1
 20 21  1  0
 21 22  2  0
 21 49  1  0
 23 50  1  0
 23 51  1  0
M  END
>  <i_m_ct_stereo_status>  (154) 
1

>  <s_m_source_file>  (154) 
/var/tmp/pbs.5076255.sched01/tmpmalnbme9/37wob9dpop.sdf

>  <i_m_source_file_index>  (154) 
37

>  <i_lp_mmshare_version>  (154) 
48012

>  <i_f3d_flags>  (154) 
0

>  <s_epik_input>  (154) 
Tz1DMUMoPVtDSDJdKVtDQEhdKFtDSDJdMilbQ0gyXVtDQEBIXShbQ0BAXTEyMylbQ0BAXTQoW0NIM10pW0NAQEhdKFtDQEhdKFtDSDJdMylPW0NIXT1PKUMoW0NIM10pKFtDSDNdKVtDSDJdW0NIMl1bQ0gyXTQ=

>  <s_epik_cmdline>  (154) 
J2VwaWtfcHl0aG9uJywgJy1waHQnLCAnMi4wJywgJy1waCcsICc3LjAnLCAnLXRuJywgJzgnLCAnLW1hJywgJzIwMCcsICctaW1hZScsICc8aW5maWxlLm1hZT4nLCAnLW9tYWUnLCAnPG91dGZpbGUubWFlPic=

>  <r_lp_tautomer_probability>  (154) 
1

>  <r_epik_Ionization_Penalty>  (154) 
0

>  <r_epik_Ionization_Penalty_Charging>  (154) 
0

>  <r_epik_Ionization_Penalty_Neutral>  (154) 
0

>  <r_epik_State_Penalty>  (154) 
-0

>  <r_epik_Charging_Adjusted_Penalty>  (154) 
0

>  <i_epik_Tot_Q>  (154) 
0

>  <i_epik_Tot_abs_Q>  (154) 
0

>  <s_epik_Chemistry_Notes>  (154) 
This compound has an ester and may undergo hydrolysis at high or low pH.

>  <s_lp_Force_Field>  (154) 
OPLS3e

>  <r_lp_Energy>  (154) 
68.545

>  <b_lp_Chiralities_Consistent>  (154) 
1

>  <s_lp_Variant>  (154) 
58:0-1

>  <s_i_glide_gridfile>  (154) 
pfpi4k_grid

>  <i_i_glide_lignum>  (154) 
37

>  <i_i_glide_rotatable_bonds>  (154) 
2

>  <r_i_docking_score>  (154) 
-2.61278

>  <r_i_glide_ligand_efficiency>  (154) 
-0.113599

>  <r_i_glide_ligand_efficiency_sa>  (154) 
-0.323061

>  <r_i_glide_ligand_efficiency_ln>  (154) 
-0.631795

>  <r_i_glide_gscore>  (154) 
-2.61278

>  <r_i_glide_lipo>  (154) 
-0.368696

>  <r_i_glide_hbond>  (154) 
0

>  <r_i_glide_metal>  (154) 
-0

>  <r_i_glide_rewards>  (154) 
-1.3634

>  <r_i_glide_evdw>  (154) 
-21.4116

>  <r_i_glide_ecoul>  (154) 
0.0264885

>  <r_i_glide_erotb>  (154) 
0.185924

>  <r_i_glide_esite>  (154) 
0

>  <r_i_glide_emodel>  (154) 
-24.6968

>  <r_i_glide_energy>  (154) 
-21.3851

>  <r_i_glide_einternal>  (154) 
2.66625

>  <r_i_glide_intrahb_reward>  (154) 
-0

>  <i_i_glide_confnum>  (154) 
1

>  <i_i_glide_posenum>  (154) 
25

>  <r_i_glide_eff_state_penalty>  (154) 
0

>  <ligand_id>  (154) 
58

>  <original_smiles>  (154) 
C=C1C(=O)C23CC1CC2C1(C)CCCC(C)(C)C1C(OC=O)C3

>  <smiles>  (154) 
[H]C(=O)OC1([H])C([H])([H])C23C(=O)C(=C([H])[H])C([H])(C([H])([H])C2([H])C2(C([H])([H])[H])C([H])([H])C([H])([H])C([H])([H])C(C([H])([H])[H])(C([H])([H])[H])C12[H])C3([H])[H]

$$$$
58:0:2
     RDKit          3D

 51 54  0  0  1  0  0  0  0  0999 V2000
    0.2619   -8.6136    3.6600 C   0  0  0  0  0  0  0  0  0  0  0  0
    1.1607   -7.6422    3.4274 C   0  0  0  0  0  0  0  0  0  0  0  0
    1.0462   -6.2439    3.8268 C   0  0  0  0  0  0  0  0  0  0  0  0
    0.1121   -5.6819    4.3970 O   0  0  0  0  0  0  0  0  0  0  0  0
    2.3682   -5.5664    3.4049 C   0  0  1  0  0  0  0  0  0  0  0  0
    3.3179   -6.7341    3.6972 C   0  0  0  0  0  0  0  0  0  0  0  0
    2.5462   -7.7319    2.8236 C   0  0  2  0  0  0  0  0  0  0  0  0
    2.5244   -6.9970    1.4632 C   0  0  0  0  0  0  0  0  0  0  0  0
    2.4052   -5.4834    1.8509 C   0  0  2  0  0  0  0  0  0  0  0  0
    3.4077   -4.4589    1.1575 C   0  0  2  0  0  0  0  0  0  0  0  0
    2.7739   -4.2243   -0.2458 C   0  0  0  0  0  0  0  0  0  0  0  0
    4.8492   -5.0349    0.9516 C   0  0  0  0  0  0  0  0  0  0  0  0
    5.8960   -4.0289    0.4422 C   0  0  0  0  0  0  0  0  0  0  0  0
    5.9320   -2.7387    1.2713 C   0  0  0  0  0  0  0  0  0  0  0  0
    4.5536   -2.0584    1.3978 C   0  0  0  0  0  0  0  0  0  0  0  0
    4.7122   -0.7973    2.2871 C   0  0  0  0  0  0  0  0  0  0  0  0
    4.1036   -1.4825    0.0246 C   0  0  0  0  0  0  0  0  0  0  0  0
    3.5307   -3.1181    2.0068 C   0  0  2  0  0  0  0  0  0  0  0  0
    3.8185   -3.5164    3.5048 C   0  0  1  0  0  0  0  0  0  0  0  0
    4.0623   -2.4386    4.3952 O   0  0  0  0  0  0  0  0  0  0  0  0
    4.9752   -2.5759    5.3826 C   0  0  0  0  0  0  0  0  0  0  0  0
    5.2871   -1.6775    6.1610 O   0  0  0  0  0  0  0  0  0  0  0  0
    2.6183   -4.2417    4.1126 C   0  0  0  0  0  0  0  0  0  0  0  0
    0.4501   -9.6376    3.3745 H   0  0  0  0  0  0  0  0  0  0  0  0
   -0.6743   -8.4133    4.1539 H   0  0  0  0  0  0  0  0  0  0  0  0
    4.3465   -6.5860    3.3779 H   0  0  0  0  0  0  0  0  0  0  0  0
    3.3356   -7.0193    4.7525 H   0  0  0  0  0  0  0  0  0  0  0  0
    2.9501   -8.7467    2.7982 H   0  0  0  0  0  0  0  0  0  0  0  0
    3.4221   -7.2445    0.9010 H   0  0  0  0  0  0  0  0  0  0  0  0
    1.6675   -7.3233    0.8766 H   0  0  0  0  0  0  0  0  0  0  0  0
    1.4109   -5.1487    1.5605 H   0  0  0  0  0  0  0  0  0  0  0  0
    3.5072   -4.0020   -1.0157 H   0  0  0  0  0  0  0  0  0  0  0  0
    2.0384   -3.4197   -0.2343 H   0  0  0  0  0  0  0  0  0  0  0  0
    2.2604   -5.1103   -0.6181 H   0  0  0  0  0  0  0  0  0  0  0  0
    5.2324   -5.4490    1.8770 H   0  0  0  0  0  0  0  0  0  0  0  0
    4.8357   -5.8575    0.2393 H   0  0  0  0  0  0  0  0  0  0  0  0
    6.8774   -4.4987    0.4808 H   0  0  0  0  0  0  0  0  0  0  0  0
    5.7282   -3.8070   -0.6074 H   0  0  0  0  0  0  0  0  0  0  0  0
    6.2959   -2.9865    2.2682 H   0  0  0  0  0  0  0  0  0  0  0  0
    6.6600   -2.0442    0.8507 H   0  0  0  0  0  0  0  0  0  0  0  0
    3.7531   -0.4663    2.6892 H   0  0  0  0  0  0  0  0  0  0  0  0
    5.1412    0.0475    1.7469 H   0  0  0  0  0  0  0  0  0  0  0  0
    5.4006   -0.9593    3.1152 H   0  0  0  0  0  0  0  0  0  0  0  0
    3.0286   -1.2988   -0.0034 H   0  0  0  0  0  0  0  0  0  0  0  0
    4.3592   -2.1174   -0.8168 H   0  0  0  0  0  0  0  0  0  0  0  0
    4.5900   -0.5366   -0.2141 H   0  0  0  0  0  0  0  0  0  0  0  0
    2.5559   -2.6280    2.0004 H   0  0  0  0  0  0  0  0  0  0  0  0
    4.6834   -4.1779    3.5271 H   0  0  0  0  0  0  0  0  0  0  0  0
    5.3993   -3.5821    5.3891 H   0  0  0  0  0  0  0  0  0  0  0  0
    1.7407   -3.5951    4.0384 H   0  0  0  0  0  0  0  0  0  0  0  0
    2.7651   -4.4209    5.1784 H   0  0  0  0  0  0  0  0  0  0  0  0
  1  2  2  0
  1 24  1  0
  1 25  1  0
  2  7  1  0
  2  3  1  0
  3  4  2  0
  3  5  1  0
  5  9  1  0
  5 23  1  1
  5  6  1  0
  6  7  1  0
  6 26  1  0
  6 27  1  0
  7  8  1  0
  7 28  1  6
  8  9  1  0
  8 29  1  0
  8 30  1  0
  9 10  1  0
  9 31  1  6
 10 18  1  0
 10 11  1  6
 10 12  1  0
 11 32  1  0
 11 33  1  0
 11 34  1  0
 12 13  1  0
 12 35  1  0
 12 36  1  0
 13 14  1  0
 13 37  1  0
 13 38  1  0
 14 15  1  0
 14 39  1  0
 14 40  1  0
 15 16  1  0
 15 17  1  0
 15 18  1  0
 16 41  1  0
 16 42  1  0
 16 43  1  0
 17 44  1  0
 17 45  1  0
 17 46  1  0
 18 19  1  0
 18 47  1  1
 19 20  1  0
 19 23  1  0
 19 48  1  6
 20 21  1  0
 21 22  2  0
 21 49  1  0
 23 50  1  0
 23 51  1  0
M  END
>  <i_m_ct_stereo_status>  (155) 
1

>  <s_m_source_file>  (155) 
/var/tmp/pbs.5076255.sched01/tmpmalnbme9/37wob9dpop.sdf

>  <i_m_source_file_index>  (155) 
37

>  <i_lp_mmshare_version>  (155) 
48012

>  <i_f3d_flags>  (155) 
0

>  <s_epik_input>  (155) 
Tz1DMUMoPVtDSDJdKVtDQEhdKFtDSDJdMilbQ0gyXVtDQEBIXShbQ0BAXTEyMylbQ0BAXTQoW0NIM10pW0NAQEhdKFtDQEhdKFtDSDJdMylPW0NIXT1PKUMoW0NIM10pKFtDSDNdKVtDSDJdW0NIMl1bQ0gyXTQ=

>  <s_epik_cmdline>  (155) 
J2VwaWtfcHl0aG9uJywgJy1waHQnLCAnMi4wJywgJy1waCcsICc3LjAnLCAnLXRuJywgJzgnLCAnLW1hJywgJzIwMCcsICctaW1hZScsICc8aW5maWxlLm1hZT4nLCAnLW9tYWUnLCAnPG91dGZpbGUubWFlPic=

>  <r_lp_tautomer_probability>  (155) 
1

>  <r_epik_Ionization_Penalty>  (155) 
0

>  <r_epik_Ionization_Penalty_Charging>  (155) 
0

>  <r_epik_Ionization_Penalty_Neutral>  (155) 
0

>  <r_epik_State_Penalty>  (155) 
-0

>  <r_epik_Charging_Adjusted_Penalty>  (155) 
0

>  <i_epik_Tot_Q>  (155) 
0

>  <i_epik_Tot_abs_Q>  (155) 
0

>  <s_epik_Chemistry_Notes>  (155) 
This compound has an ester and may undergo hydrolysis at high or low pH.

>  <s_lp_Force_Field>  (155) 
OPLS3e

>  <r_lp_Energy>  (155) 
68.545

>  <b_lp_Chiralities_Consistent>  (155) 
1

>  <s_lp_Variant>  (155) 
58:0-1

>  <s_i_glide_gridfile>  (155) 
pfpi4k_grid

>  <i_i_glide_lignum>  (155) 
37

>  <i_i_glide_rotatable_bonds>  (155) 
2

>  <r_i_docking_score>  (155) 
-2.56243

>  <r_i_glide_ligand_efficiency>  (155) 
-0.11141

>  <r_i_glide_ligand_efficiency_sa>  (155) 
-0.316835

>  <r_i_glide_ligand_efficiency_ln>  (155) 
-0.619618

>  <r_i_glide_gscore>  (155) 
-2.56243

>  <r_i_glide_lipo>  (155) 
-0.339234

>  <r_i_glide_hbond>  (155) 
0

>  <r_i_glide_metal>  (155) 
-0

>  <r_i_glide_rewards>  (155) 
-1.28426

>  <r_i_glide_evdw>  (155) 
-20.8317

>  <r_i_glide_ecoul>  (155) 
-0.437248

>  <r_i_glide_erotb>  (155) 
0.185924

>  <r_i_glide_esite>  (155) 
-0.0176804

>  <r_i_glide_emodel>  (155) 
-24.5444

>  <r_i_glide_energy>  (155) 
-21.269

>  <r_i_glide_einternal>  (155) 
2.56192

>  <r_i_glide_intrahb_reward>  (155) 
-0

>  <i_i_glide_confnum>  (155) 
3

>  <i_i_glide_posenum>  (155) 
19

>  <r_i_glide_eff_state_penalty>  (155) 
0

>  <ligand_id>  (155) 
58

>  <original_smiles>  (155) 
C=C1C(=O)C23CC1CC2C1(C)CCCC(C)(C)C1C(OC=O)C3

>  <smiles>  (155) 
[H]C(=O)OC1([H])C([H])([H])C23C(=O)C(=C([H])[H])C([H])(C([H])([H])C2([H])C2(C([H])([H])[H])C([H])([H])C([H])([H])C([H])([H])C(C([H])([H])[H])(C([H])([H])[H])C12[H])C3([H])[H]

$$$$
60:0:0
     RDKit          3D

 67 72  0  0  1  0  0  0  0  0999 V2000
    4.9082   -5.0875    4.9622 C   0  0  0  0  0  0  0  0  0  0  0  0
    4.5131   -4.5236    3.5589 C   0  0  2  0  0  0  0  0  0  0  0  0
    5.7670   -4.6969    2.6599 C   0  0  0  0  0  0  0  0  0  0  0  0
    5.5917   -4.1272    1.3792 O   0  0  0  0  0  0  0  0  0  0  0  0
    6.3961   -3.0130    0.9999 C   0  0  1  0  0  0  0  0  0  0  0  0
    6.2010   -2.8651   -0.5285 C   0  0  0  0  0  0  0  0  0  0  0  0
    5.1181   -1.7605   -0.7404 C   0  0  1  0  0  0  0  0  0  0  0  0
    4.2223   -1.8844   -1.9206 N   0  0  0  0  0  0  0  0  0  0  0  0
    3.7336   -3.0442   -2.4757 C   0  0  0  0  0  0  0  0  0  0  0  0
    2.7895   -2.6934   -3.4018 C   0  0  0  0  0  0  0  0  0  0  0  0
    2.9198   -1.3350   -3.5920 N   0  0  0  0  0  0  0  0  0  0  0  0
    3.7943   -0.8434   -2.6744 C   0  0  0  0  0  0  0  0  0  0  0  0
    4.5477   -1.4382    0.6987 C   0  0  2  0  0  0  0  0  0  0  0  0
    5.8268   -1.6651    1.4820 C   0  0  1  0  0  0  0  0  0  0  0  0
    5.8604   -1.1705    2.9219 C   0  0  1  0  0  0  0  0  0  0  0  0
    5.3866    0.1392    3.0849 O   0  0  0  0  0  0  0  0  0  0  0  0
    5.3745   -2.0708    4.0654 C   0  0  0  0  0  0  0  0  0  0  0  0
    4.2155   -2.9996    3.7401 C   0  0  1  0  0  0  0  0  0  0  0  0
    3.0961   -2.3686    2.8875 C   0  0  2  0  0  0  0  0  0  0  0  0
    1.7902   -3.1122    3.4033 C   0  0  1  0  0  0  0  0  0  0  0  0
    0.5778   -2.6303    3.0105 O   0  0  0  0  0  0  0  0  0  0  0  0
    1.8598   -4.6660    3.3874 C   0  0  0  0  0  0  0  0  0  0  0  0
    3.2284   -5.3416    3.1048 C   0  0  1  0  0  0  0  0  0  0  0  0
    3.3085   -6.2255    1.8253 C   0  0  0  0  0  0  0  0  0  0  0  0
    2.5838   -5.7773    0.5709 C   0  0  1  0  0  0  0  0  0  0  0  0
    1.1827   -5.9608    0.5510 O   0  0  0  0  0  0  0  0  0  0  0  0
    2.9854   -4.4556   -0.0046 C   0  0  0  0  0  0  0  0  0  0  0  0
    2.4488   -3.0941    0.4325 C   0  0  0  0  0  0  0  0  0  0  0  0
    3.1889   -2.0352    1.3190 C   0  0  2  0  0  0  0  0  0  0  0  0
    2.2686   -0.7681    1.2587 C   0  0  0  0  0  0  0  0  0  0  0  0
    5.1821   -6.1411    4.9115 H   0  0  0  0  0  0  0  0  0  0  0  0
    4.0931   -5.0125    5.6830 H   0  0  0  0  0  0  0  0  0  0  0  0
    5.7600   -4.5796    5.4094 H   0  0  0  0  0  0  0  0  0  0  0  0
    6.6016   -4.2738    3.1316 H   0  0  0  0  0  0  0  0  0  0  0  0
    6.0424   -5.7449    2.5635 H   0  0  0  0  0  0  0  0  0  0  0  0
    7.4499   -3.1689    1.2688 H   0  0  0  0  0  0  0  0  0  0  0  0
    7.1418   -2.5551   -0.9772 H   0  0  0  0  0  0  0  0  0  0  0  0
    5.9831   -3.8269   -0.9852 H   0  0  0  0  0  0  0  0  0  0  0  0
    5.7132   -0.8732   -0.9894 H   0  0  0  0  0  0  0  0  0  0  0  0
    4.0350   -3.9894   -2.1557 H   0  0  0  0  0  0  0  0  0  0  0  0
    2.0882   -3.2910   -3.9637 H   0  0  0  0  0  0  0  0  0  0  0  0
    4.1187    0.2025   -2.6162 H   0  0  0  0  0  0  0  0  0  0  0  0
    4.4560   -0.3528    0.7000 H   0  0  0  0  0  0  0  0  0  0  0  0
    6.5545   -0.9603    1.0621 H   0  0  0  0  0  0  0  0  0  0  0  0
    6.9094   -0.9375    3.0472 H   0  0  0  0  0  0  0  0  0  0  0  0
    4.4655    0.1338    2.9023 H   0  0  0  0  0  0  0  0  0  0  0  0
    6.1738   -2.6601    4.4949 H   0  0  0  0  0  0  0  0  0  0  0  0
    5.1007   -1.4290    4.9068 H   0  0  0  0  0  0  0  0  0  0  0  0
    3.7579   -2.9949    4.7297 H   0  0  0  0  0  0  0  0  0  0  0  0
    2.9767   -1.3905    3.3568 H   0  0  0  0  0  0  0  0  0  0  0  0
    1.7154   -2.8579    4.4734 H   0  0  0  0  0  0  0  0  0  0  0  0
    0.6210   -1.6747    2.9567 H   0  0  0  0  0  0  0  0  0  0  0  0
    1.5489   -4.9727    4.3831 H   0  0  0  0  0  0  0  0  0  0  0  0
    1.0608   -5.0755    2.7730 H   0  0  0  0  0  0  0  0  0  0  0  0
    3.1813   -6.1631    3.8173 H   0  0  0  0  0  0  0  0  0  0  0  0
    4.3430   -6.4370    1.5458 H   0  0  0  0  0  0  0  0  0  0  0  0
    2.9162   -7.2202    2.0535 H   0  0  0  0  0  0  0  0  0  0  0  0
    2.9652   -6.4793   -0.1701 H   0  0  0  0  0  0  0  0  0  0  0  0
    1.0044   -6.8698    0.7518 H   0  0  0  0  0  0  0  0  0  0  0  0
    4.0473   -4.4532   -0.1736 H   0  0  0  0  0  0  0  0  0  0  0  0
    2.5040   -4.6088   -0.9832 H   0  0  0  0  0  0  0  0  0  0  0  0
    2.1529   -2.6352   -0.5001 H   0  0  0  0  0  0  0  0  0  0  0  0
    1.4966   -3.2763    0.8444 H   0  0  0  0  0  0  0  0  0  0  0  0
    1.2058   -0.9742    1.3451 H   0  0  0  0  0  0  0  0  0  0  0  0
    2.3278   -0.3424    0.2532 H   0  0  0  0  0  0  0  0  0  0  0  0
    2.5318    0.0877    1.8727 H   0  0  0  0  0  0  0  0  0  0  0  0
    2.4398   -0.7893   -4.3182 H   0  0  0  0  0  0  0  0  0  0  0  0
  2  1  1  1
  1 31  1  0
  1 32  1  0
  1 33  1  0
  2 18  1  0
  2 23  1  0
  2  3  1  0
  3  4  1  0
  3 34  1  0
  3 35  1  0
  4  5  1  0
  5 14  1  0
  5  6  1  0
  5 36  1  6
  6  7  1  0
  6 37  1  0
  6 38  1  0
  7  8  1  0
  7 13  1  0
  7 39  1  6
  8 12  1  0
  8  9  1  0
  9 10  2  0
  9 40  1  0
 10 11  1  0
 10 41  1  0
 11 12  2  0
 11 67  1  0
 12 42  1  0
 13 29  1  0
 13 14  1  0
 13 43  1  6
 14 15  1  0
 14 44  1  6
 15 16  1  0
 15 17  1  0
 15 45  1  1
 16 46  1  0
 17 18  1  0
 17 47  1  0
 17 48  1  0
 18 19  1  0
 18 49  1  1
 19 29  1  0
 19 20  1  0
 19 50  1  1
 20 21  1  0
 20 22  1  0
 20 51  1  1
 21 52  1  0
 22 23  1  0
 22 53  1  0
 22 54  1  0
 23 24  1  0
 23 55  1  1
 24 25  1  0
 24 56  1  0
 24 57  1  0
 25 26  1  0
 25 27  1  0
 25 58  1  6
 26 59  1  0
 27 28  1  0
 27 60  1  0
 27 61  1  0
 28 29  1  0
 28 62  1  0
 28 63  1  0
 29 30  1  1
 30 64  1  0
 30 65  1  0
 30 66  1  0
M  CHG  1  11   1
M  END
>  <i_m_ct_stereo_status>  (156) 
1

>  <s_m_source_file>  (156) 
/var/tmp/pbs.5076255.sched01/tmpj5h_4zim/74m36hq9q5.sdf

>  <i_m_source_file_index>  (156) 
2

>  <i_lp_mmshare_version>  (156) 
48012

>  <i_f3d_flags>  (156) 
0

>  <s_epik_input>  (156) 
W09IXVtDQEhdMVtDSDJdW0NIXTJbQ0gyXVtDQEBIXShbT0hdKVtDSDJdW0NIMl1bQ0BAXShbQ0gzXSkoW0NIXTFbQ0BIXTNbQ0BAXTI0W0NIM10pW0NASF01W0NAQEhdKFtDQEBIXShbT0hdKVtDSDJdMylbQ0BASF0oT1tDSDJdNClbQ0gyXVtDQEhdNW42W2NIXVtjSF1uW2NIXTY=

>  <s_epik_cmdline>  (156) 
J2VwaWtfcHl0aG9uJywgJy1waHQnLCAnMi4wJywgJy1waCcsICc3LjAnLCAnLXRuJywgJzgnLCAnLW1hJywgJzIwMCcsICctaW1hZScsICc8aW5maWxlLm1hZT4nLCAnLW9tYWUnLCAnPG91dGZpbGUubWFlPic=

>  <r_lp_tautomer_probability>  (156) 
1

>  <r_epik_Ionization_Penalty>  (156) 
0.163534

>  <r_epik_Ionization_Penalty_Charging>  (156) 
0

>  <r_epik_Ionization_Penalty_Neutral>  (156) 
0.163534

>  <r_epik_State_Penalty>  (156) 
0.152859

>  <r_epik_Charging_Adjusted_Penalty>  (156) 
0.152859

>  <i_epik_Tot_Q>  (156) 
1

>  <i_epik_Tot_abs_Q>  (156) 
1

>  <s_lp_Force_Field>  (156) 
OPLS3e

>  <r_lp_Energy>  (156) 
147.447

>  <b_lp_Chiralities_Consistent>  (156) 
1

>  <s_lp_Variant>  (156) 
60:0-1

>  <s_i_glide_gridfile>  (156) 
pfpi4k_grid

>  <i_i_glide_lignum>  (156) 
2

>  <i_i_glide_rotatable_bonds>  (156) 
4

>  <r_i_docking_score>  (156) 
-1.65825

>  <r_i_glide_ligand_efficiency>  (156) 
-0.0552751

>  <r_i_glide_ligand_efficiency_sa>  (156) 
-0.171753

>  <r_i_glide_ligand_efficiency_ln>  (156) 
-0.376773

>  <r_i_glide_gscore>  (156) 
-1.65825

>  <r_i_glide_lipo>  (156) 
-0.621988

>  <r_i_glide_hbond>  (156) 
-0.285125

>  <r_i_glide_metal>  (156) 
-0

>  <r_i_glide_rewards>  (156) 
-0.56208

>  <r_i_glide_evdw>  (156) 
6.07324

>  <r_i_glide_ecoul>  (156) 
-6.45656

>  <r_i_glide_erotb>  (156) 
0.113366

>  <r_i_glide_esite>  (156) 
-0.0306291

>  <r_i_glide_emodel>  (156) 
2.56337

>  <r_i_glide_energy>  (156) 
-0.383319

>  <r_i_glide_einternal>  (156) 
1.80471

>  <r_i_glide_intrahb_reward>  (156) 
-0

>  <i_i_glide_confnum>  (156) 
4

>  <i_i_glide_posenum>  (156) 
11

>  <r_i_glide_eff_state_penalty>  (156) 
0

>  <ligand_id>  (156) 
60

>  <original_smiles>  (156) 
CC12COC3CC(n4ccnc4)C4C3C(O)CC1C1C(O)CC2CC(O)CCC41C

>  <smiles>  (156) 
[H]OC1([H])C([H])([H])C([H])([H])C2(C([H])([H])[H])C3([H])C([H])(O[H])C([H])([H])C([H])(C1([H])[H])C1(C([H])([H])[H])C([H])([H])OC4([H])C([H])([H])C([H])(n5c([H])c([H])[n+]([H])c5[H])C2([H])C4([H])C([H])(O[H])C([H])([H])C31[H]

$$$$
60:1:0
     RDKit          3D

 66 71  0  0  1  0  0  0  0  0999 V2000
    2.4935   -3.3955    6.0143 C   0  0  0  0  0  0  0  0  0  0  0  0
    2.8529   -3.1532    4.5147 C   0  0  2  0  0  0  0  0  0  0  0  0
    1.9623   -4.1511    3.7196 C   0  0  0  0  0  0  0  0  0  0  0  0
    2.2329   -4.0852    2.3350 O   0  0  0  0  0  0  0  0  0  0  0  0
    2.8062   -5.2250    1.7062 C   0  0  1  0  0  0  0  0  0  0  0  0
    2.6853   -4.9547    0.1908 C   0  0  0  0  0  0  0  0  0  0  0  0
    4.0754   -4.4116   -0.2783 C   0  0  1  0  0  0  0  0  0  0  0  0
    4.1041   -3.4358   -1.3744 N   0  0  0  0  0  0  0  0  0  0  0  0
    3.0854   -2.5868   -1.7486 C   0  0  0  0  0  0  0  0  0  0  0  0
    3.5975   -1.7659   -2.7710 C   0  0  0  0  0  0  0  0  0  0  0  0
    4.8753   -2.1732   -3.0754 N   0  0  0  0  0  0  0  0  0  0  0  0
    5.1139   -3.1756   -2.2356 C   0  0  0  0  0  0  0  0  0  0  0  0
    4.9136   -4.1674    1.0299 C   0  0  2  0  0  0  0  0  0  0  0  0
    4.3299   -5.3240    1.8631 C   0  0  1  0  0  0  0  0  0  0  0  0
    5.0095   -5.7875    3.1674 C   0  0  1  0  0  0  0  0  0  0  0  0
    6.4068   -5.8669    2.9630 O   0  0  0  0  0  0  0  0  0  0  0  0
    4.7349   -5.0096    4.4449 C   0  0  0  0  0  0  0  0  0  0  0  0
    4.3572   -3.5221    4.3047 C   0  0  1  0  0  0  0  0  0  0  0  0
    5.1950   -2.6400    3.3190 C   0  0  2  0  0  0  0  0  0  0  0  0
    5.2049   -1.2305    4.0010 C   0  0  1  0  0  0  0  0  0  0  0  0
    6.0305   -0.2443    3.4287 O   0  0  0  0  0  0  0  0  0  0  0  0
    3.8234   -0.6574    4.3753 C   0  0  0  0  0  0  0  0  0  0  0  0
    2.5910   -1.6050    4.2598 C   0  0  1  0  0  0  0  0  0  0  0  0
    1.5094   -1.1679    3.2339 C   0  0  0  0  0  0  0  0  0  0  0  0
    1.9447   -0.5799    1.8785 C   0  0  1  0  0  0  0  0  0  0  0  0
    2.3600    0.7698    1.9270 O   0  0  0  0  0  0  0  0  0  0  0  0
    2.8138   -1.4460    0.9650 C   0  0  0  0  0  0  0  0  0  0  0  0
    4.3347   -1.4888    1.1077 C   0  0  0  0  0  0  0  0  0  0  0  0
    5.1194   -2.7159    1.7111 C   0  0  2  0  0  0  0  0  0  0  0  0
    6.5759   -2.3894    1.2262 C   0  0  0  0  0  0  0  0  0  0  0  0
    1.4389   -3.1967    6.2051 H   0  0  0  0  0  0  0  0  0  0  0  0
    3.0659   -2.7436    6.6793 H   0  0  0  0  0  0  0  0  0  0  0  0
    2.6785   -4.4176    6.3349 H   0  0  0  0  0  0  0  0  0  0  0  0
    2.0635   -5.1726    4.0873 H   0  0  0  0  0  0  0  0  0  0  0  0
    0.9098   -3.9249    3.8735 H   0  0  0  0  0  0  0  0  0  0  0  0
    2.2824   -6.1424    1.9913 H   0  0  0  0  0  0  0  0  0  0  0  0
    2.4858   -5.8983   -0.3185 H   0  0  0  0  0  0  0  0  0  0  0  0
    1.8404   -4.3115   -0.0342 H   0  0  0  0  0  0  0  0  0  0  0  0
    4.5355   -5.2868   -0.7309 H   0  0  0  0  0  0  0  0  0  0  0  0
    2.1696   -2.5748   -1.2584 H   0  0  0  0  0  0  0  0  0  0  0  0
    3.1185   -0.9380   -3.2476 H   0  0  0  0  0  0  0  0  0  0  0  0
    6.0321   -3.7303   -2.2196 H   0  0  0  0  0  0  0  0  0  0  0  0
    5.9037   -4.5420    0.7678 H   0  0  0  0  0  0  0  0  0  0  0  0
    4.5585   -6.2189    1.2743 H   0  0  0  0  0  0  0  0  0  0  0  0
    4.6860   -6.8151    3.3599 H   0  0  0  0  0  0  0  0  0  0  0  0
    6.7946   -6.3243    3.7019 H   0  0  0  0  0  0  0  0  0  0  0  0
    3.9677   -5.5405    5.0017 H   0  0  0  0  0  0  0  0  0  0  0  0
    5.6040   -5.0948    5.0997 H   0  0  0  0  0  0  0  0  0  0  0  0
    4.7664   -3.2060    5.2629 H   0  0  0  0  0  0  0  0  0  0  0  0
    6.1900   -3.0160    3.5157 H   0  0  0  0  0  0  0  0  0  0  0  0
    5.7069   -1.3690    4.9588 H   0  0  0  0  0  0  0  0  0  0  0  0
    5.9599    0.5458    3.9440 H   0  0  0  0  0  0  0  0  0  0  0  0
    3.8927   -0.3236    5.4132 H   0  0  0  0  0  0  0  0  0  0  0  0
    3.6630    0.2740    3.8456 H   0  0  0  0  0  0  0  0  0  0  0  0
    2.0405   -1.2914    5.1466 H   0  0  0  0  0  0  0  0  0  0  0  0
    0.8170   -1.9735    3.0202 H   0  0  0  0  0  0  0  0  0  0  0  0
    0.8651   -0.4164    3.6984 H   0  0  0  0  0  0  0  0  0  0  0  0
    1.0006   -0.5096    1.3407 H   0  0  0  0  0  0  0  0  0  0  0  0
    1.6036    1.3258    1.7770 H   0  0  0  0  0  0  0  0  0  0  0  0
    2.3605   -2.4108    0.8066 H   0  0  0  0  0  0  0  0  0  0  0  0
    2.6715   -0.9789   -0.0008 H   0  0  0  0  0  0  0  0  0  0  0  0
    4.6934   -1.3659    0.0926 H   0  0  0  0  0  0  0  0  0  0  0  0
    4.6506   -0.5453    1.5427 H   0  0  0  0  0  0  0  0  0  0  0  0
    6.9047   -1.3829    1.4754 H   0  0  0  0  0  0  0  0  0  0  0  0
    6.6739   -2.4707    0.1421 H   0  0  0  0  0  0  0  0  0  0  0  0
    7.3144   -3.0679    1.6493 H   0  0  0  0  0  0  0  0  0  0  0  0
  2  1  1  1
  1 31  1  0
  1 32  1  0
  1 33  1  0
  2 18  1  0
  2 23  1  0
  2  3  1  0
  3  4  1  0
  3 34  1  0
  3 35  1  0
  4  5  1  0
  5 14  1  0
  5  6  1  0
  5 36  1  6
  6  7  1  0
  6 37  1  0
  6 38  1  0
  7  8  1  0
  7 13  1  0
  7 39  1  6
  8 12  1  0
  8  9  1  0
  9 10  2  0
  9 40  1  0
 10 11  1  0
 10 41  1  0
 11 12  2  0
 12 42  1  0
 13 29  1  0
 13 14  1  0
 13 43  1  6
 14 15  1  0
 14 44  1  6
 15 16  1  0
 15 17  1  0
 15 45  1  1
 16 46  1  0
 17 18  1  0
 17 47  1  0
 17 48  1  0
 18 19  1  0
 18 49  1  1
 19 29  1  0
 19 20  1  0
 19 50  1  6
 20 21  1  0
 20 22  1  0
 20 51  1  1
 21 52  1  0
 22 23  1  0
 22 53  1  0
 22 54  1  0
 23 24  1  0
 23 55  1  1
 24 25  1  0
 24 56  1  0
 24 57  1  0
 25 26  1  0
 25 27  1  0
 25 58  1  6
 26 59  1  0
 27 28  1  0
 27 60  1  0
 27 61  1  0
 28 29  1  0
 28 62  1  0
 28 63  1  0
 29 30  1  6
 30 64  1  0
 30 65  1  0
 30 66  1  0
M  END
>  <i_m_ct_stereo_status>  (157) 
1

>  <s_m_source_file>  (157) 
/var/tmp/pbs.5076255.sched01/tmpj5h_4zim/74m36hq9q5.sdf

>  <i_m_source_file_index>  (157) 
3

>  <i_lp_mmshare_version>  (157) 
48012

>  <i_f3d_flags>  (157) 
0

>  <s_epik_input>  (157) 
W09IXVtDQEhdMVtDSDJdW0NIXTJbQ0gyXVtDQEBIXShbT0hdKVtDSDJdW0NIMl1bQ0BAXShbQ0gzXSkoW0NIXTFbQ0BIXTNbQ0BAXTI0W0NIM10pW0NASF01W0NAQEhdKFtDQEBIXShbT0hdKVtDSDJdMylbQ0BASF0oT1tDSDJdNClbQ0gyXVtDQEhdNW42W2NIXVtjSF1uW2NIXTY=

>  <s_epik_cmdline>  (157) 
J2VwaWtfcHl0aG9uJywgJy1waHQnLCAnMi4wJywgJy1waCcsICc3LjAnLCAnLXRuJywgJzgnLCAnLW1hJywgJzIwMCcsICctaW1hZScsICc8aW5maWxlLm1hZT4nLCAnLW9tYWUnLCAnPG91dGZpbGUubWFlPic=

>  <r_lp_tautomer_probability>  (157) 
1

>  <r_epik_Ionization_Penalty>  (157) 
0.842614

>  <r_epik_Ionization_Penalty_Charging>  (157) 
0.84261

>  <r_epik_Ionization_Penalty_Neutral>  (157) 
3.78845e-06

>  <r_epik_State_Penalty>  (157) 
0.877492

>  <r_epik_Charging_Adjusted_Penalty>  (157) 
1.7201

>  <i_epik_Tot_Q>  (157) 
0

>  <i_epik_Tot_abs_Q>  (157) 
0

>  <s_lp_Force_Field>  (157) 
OPLS3e

>  <r_lp_Energy>  (157) 
141.147

>  <b_lp_Chiralities_Consistent>  (157) 
1

>  <s_lp_Variant>  (157) 
60:0-2

>  <s_i_glide_gridfile>  (157) 
pfpi4k_grid

>  <i_i_glide_lignum>  (157) 
3

>  <i_i_glide_rotatable_bonds>  (157) 
4

>  <r_i_docking_score>  (157) 
-2.42119

>  <r_i_glide_ligand_efficiency>  (157) 
-0.0807063

>  <r_i_glide_ligand_efficiency_sa>  (157) 
-0.250773

>  <r_i_glide_ligand_efficiency_ln>  (157) 
-0.55012

>  <r_i_glide_gscore>  (157) 
-2.42119

>  <r_i_glide_lipo>  (157) 
-0.297955

>  <r_i_glide_hbond>  (157) 
0

>  <r_i_glide_metal>  (157) 
-0

>  <r_i_glide_rewards>  (157) 
-0.775058

>  <r_i_glide_evdw>  (157) 
-22.4987

>  <r_i_glide_ecoul>  (157) 
-2.14267

>  <r_i_glide_erotb>  (157) 
0.113862

>  <r_i_glide_esite>  (157) 
-0.0157018

>  <r_i_glide_emodel>  (157) 
-25.8862

>  <r_i_glide_energy>  (157) 
-24.6414

>  <r_i_glide_einternal>  (157) 
2.14812

>  <r_i_glide_intrahb_reward>  (157) 
-0

>  <i_i_glide_confnum>  (157) 
3

>  <i_i_glide_posenum>  (157) 
9

>  <r_i_glide_eff_state_penalty>  (157) 
0

>  <ligand_id>  (157) 
60

>  <original_smiles>  (157) 
CC12COC3CC(n4ccnc4)C4C3C(O)CC1C1C(O)CC2CC(O)CCC41C

>  <smiles>  (157) 
[H]OC1([H])C([H])([H])C([H])([H])C2(C([H])([H])[H])C3([H])C([H])(O[H])C([H])([H])C([H])(C1([H])[H])C1(C([H])([H])[H])C([H])([H])OC4([H])C([H])([H])C([H])(n5c([H])nc([H])c5[H])C2([H])C4([H])C([H])(O[H])C([H])([H])C31[H]

$$$$
60:1:1
     RDKit          3D

 66 71  0  0  1  0  0  0  0  0999 V2000
    2.5373   -3.8903    5.9756 C   0  0  0  0  0  0  0  0  0  0  0  0
    2.8290   -3.3638    4.5379 C   0  0  2  0  0  0  0  0  0  0  0  0
    1.9848   -4.2649    3.5975 C   0  0  0  0  0  0  0  0  0  0  0  0
    2.2101   -3.9349    2.2440 O   0  0  0  0  0  0  0  0  0  0  0  0
    2.8238   -4.8982    1.4084 C   0  0  1  0  0  0  0  0  0  0  0  0
    2.6467   -4.3667   -0.0459 C   0  0  0  0  0  0  0  0  0  0  0  0
    3.9633   -3.6382   -0.4488 C   0  0  1  0  0  0  0  0  0  0  0  0
    3.8476   -2.4955   -1.3987 N   0  0  0  0  0  0  0  0  0  0  0  0
    4.7801   -1.4768   -1.5935 C   0  0  0  0  0  0  0  0  0  0  0  0
    4.2768   -0.6552   -2.5694 C   0  0  0  0  0  0  0  0  0  0  0  0
    3.1091   -1.2333   -3.1235 N   0  0  0  0  0  0  0  0  0  0  0  0
    2.9197   -2.3275   -2.3864 C   0  0  0  0  0  0  0  0  0  0  0  0
    4.8237   -3.5603    0.8763 C   0  0  2  0  0  0  0  0  0  0  0  0
    4.3540   -4.9044    1.5044 C   0  0  1  0  0  0  0  0  0  0  0  0
    5.1109   -5.5439    2.6858 C   0  0  1  0  0  0  0  0  0  0  0  0
    6.5080   -5.4791    2.4379 O   0  0  0  0  0  0  0  0  0  0  0  0
    4.8312   -5.0326    4.0884 C   0  0  0  0  0  0  0  0  0  0  0  0
    4.3390   -3.5755    4.2357 C   0  0  1  0  0  0  0  0  0  0  0  0
    5.0716   -2.4701    3.4034 C   0  0  2  0  0  0  0  0  0  0  0  0
    5.0113   -1.2116    4.3408 C   0  0  1  0  0  0  0  0  0  0  0  0
    5.7701   -0.0723    3.9836 O   0  0  0  0  0  0  0  0  0  0  0  0
    3.6200   -0.8144    4.8512 C   0  0  0  0  0  0  0  0  0  0  0  0
    2.4661   -1.8154    4.5408 C   0  0  1  0  0  0  0  0  0  0  0  0
    1.3101   -1.2900    3.6339 C   0  0  0  0  0  0  0  0  0  0  0  0
    1.6116   -0.4605    2.3785 C   0  0  1  0  0  0  0  0  0  0  0  0
    1.9719    0.8816    2.6578 O   0  0  0  0  0  0  0  0  0  0  0  0
    2.5449   -1.0880    1.3412 C   0  0  0  0  0  0  0  0  0  0  0  0
    4.0748   -0.9877    1.4951 C   0  0  0  0  0  0  0  0  0  0  0  0
    4.9744   -2.2444    1.8172 C   0  0  2  0  0  0  0  0  0  0  0  0
    6.4349   -1.7664    1.4297 C   0  0  0  0  0  0  0  0  0  0  0  0
    1.4800   -3.8117    6.2281 H   0  0  0  0  0  0  0  0  0  0  0  0
    3.0865   -3.3324    6.7366 H   0  0  0  0  0  0  0  0  0  0  0  0
    2.8060   -4.9363    6.1026 H   0  0  0  0  0  0  0  0  0  0  0  0
    2.1709   -5.3233    3.7738 H   0  0  0  0  0  0  0  0  0  0  0  0
    0.9254   -4.1468    3.8126 H   0  0  0  0  0  0  0  0  0  0  0  0
    2.3755   -5.8876    1.5355 H   0  0  0  0  0  0  0  0  0  0  0  0
    2.4611   -5.2081   -0.7060 H   0  0  0  0  0  0  0  0  0  0  0  0
    1.7769   -3.7265   -0.1573 H   0  0  0  0  0  0  0  0  0  0  0  0
    4.4582   -4.4061   -1.0473 H   0  0  0  0  0  0  0  0  0  0  0  0
    5.7265   -1.3938   -1.0874 H   0  0  0  0  0  0  0  0  0  0  0  0
    4.6664    0.2696   -2.8729 H   0  0  0  0  0  0  0  0  0  0  0  0
    2.0936   -3.0206   -2.5832 H   0  0  0  0  0  0  0  0  0  0  0  0
    5.8243   -3.7970    0.5197 H   0  0  0  0  0  0  0  0  0  0  0  0
    4.6247   -5.6572    0.7553 H   0  0  0  0  0  0  0  0  0  0  0  0
    4.8768   -6.6050    2.6994 H   0  0  0  0  0  0  0  0  0  0  0  0
    6.7681   -4.5851    2.4306 H   0  0  0  0  0  0  0  0  0  0  0  0
    4.1229   -5.7098    4.5619 H   0  0  0  0  0  0  0  0  0  0  0  0
    5.7275   -5.1717    4.6970 H   0  0  0  0  0  0  0  0  0  0  0  0
    4.7616   -3.4072    5.2342 H   0  0  0  0  0  0  0  0  0  0  0  0
    6.0887   -2.8127    3.5353 H   0  0  0  0  0  0  0  0  0  0  0  0
    5.5588   -1.4934    5.2347 H   0  0  0  0  0  0  0  0  0  0  0  0
    5.3483    0.3365    3.2480 H   0  0  0  0  0  0  0  0  0  0  0  0
    3.7034   -0.6677    5.9380 H   0  0  0  0  0  0  0  0  0  0  0  0
    3.3799    0.1709    4.4693 H   0  0  0  0  0  0  0  0  0  0  0  0
    1.9239   -1.7078    5.4701 H   0  0  0  0  0  0  0  0  0  0  0  0
    0.6605   -2.1010    3.3179 H   0  0  0  0  0  0  0  0  0  0  0  0
    0.6452   -0.6702    4.2399 H   0  0  0  0  0  0  0  0  0  0  0  0
    0.6458   -0.3572    1.8744 H   0  0  0  0  0  0  0  0  0  0  0  0
    1.8192    1.3940    1.8830 H   0  0  0  0  0  0  0  0  0  0  0  0
    2.1675   -2.0353    0.9948 H   0  0  0  0  0  0  0  0  0  0  0  0
    2.3708   -0.4359    0.4948 H   0  0  0  0  0  0  0  0  0  0  0  0
    4.4238   -0.5508    0.5713 H   0  0  0  0  0  0  0  0  0  0  0  0
    4.2460   -0.1658    2.1862 H   0  0  0  0  0  0  0  0  0  0  0  0
    6.6616   -0.8013    1.8955 H   0  0  0  0  0  0  0  0  0  0  0  0
    6.7233   -1.7117    0.4145 H   0  0  0  0  0  0  0  0  0  0  0  0
    7.1421   -2.5193    1.7331 H   0  0  0  0  0  0  0  0  0  0  0  0
  2  1  1  1
  1 31  1  0
  1 32  1  0
  1 33  1  0
  2 18  1  0
  2 23  1  0
  2  3  1  0
  3  4  1  0
  3 34  1  0
  3 35  1  0
  4  5  1  0
  5 14  1  0
  5  6  1  0
  5 36  1  6
  6  7  1  0
  6 37  1  0
  6 38  1  0
  7  8  1  0
  7 13  1  0
  7 39  1  6
  8 12  1  0
  8  9  1  0
  9 10  2  0
  9 40  1  0
 10 11  1  0
 10 41  1  0
 11 12  2  0
 12 42  1  0
 13 29  1  0
 13 14  1  0
 13 43  1  6
 14 15  1  0
 14 44  1  6
 15 16  1  0
 15 17  1  0
 15 45  1  1
 16 46  1  0
 17 18  1  0
 17 47  1  0
 17 48  1  0
 18 19  1  0
 18 49  1  1
 19 29  1  0
 19 20  1  0
 19 50  1  6
 20 21  1  0
 20 22  1  0
 20 51  1  1
 21 52  1  0
 22 23  1  0
 22 53  1  0
 22 54  1  0
 23 24  1  0
 23 55  1  1
 24 25  1  0
 24 56  1  0
 24 57  1  0
 25 26  1  0
 25 27  1  0
 25 58  1  6
 26 59  1  0
 27 28  1  0
 27 60  1  0
 27 61  1  0
 28 29  1  0
 28 62  1  0
 28 63  1  0
 29 30  1  6
 30 64  1  0
 30 65  1  0
 30 66  1  0
M  END
>  <i_m_ct_stereo_status>  (158) 
1

>  <s_m_source_file>  (158) 
/var/tmp/pbs.5076255.sched01/tmpj5h_4zim/74m36hq9q5.sdf

>  <i_m_source_file_index>  (158) 
3

>  <i_lp_mmshare_version>  (158) 
48012

>  <i_f3d_flags>  (158) 
0

>  <s_epik_input>  (158) 
W09IXVtDQEhdMVtDSDJdW0NIXTJbQ0gyXVtDQEBIXShbT0hdKVtDSDJdW0NIMl1bQ0BAXShbQ0gzXSkoW0NIXTFbQ0BIXTNbQ0BAXTI0W0NIM10pW0NASF01W0NAQEhdKFtDQEBIXShbT0hdKVtDSDJdMylbQ0BASF0oT1tDSDJdNClbQ0gyXVtDQEhdNW42W2NIXVtjSF1uW2NIXTY=

>  <s_epik_cmdline>  (158) 
J2VwaWtfcHl0aG9uJywgJy1waHQnLCAnMi4wJywgJy1waCcsICc3LjAnLCAnLXRuJywgJzgnLCAnLW1hJywgJzIwMCcsICctaW1hZScsICc8aW5maWxlLm1hZT4nLCAnLW9tYWUnLCAnPG91dGZpbGUubWFlPic=

>  <r_lp_tautomer_probability>  (158) 
1

>  <r_epik_Ionization_Penalty>  (158) 
0.842614

>  <r_epik_Ionization_Penalty_Charging>  (158) 
0.84261

>  <r_epik_Ionization_Penalty_Neutral>  (158) 
3.78845e-06

>  <r_epik_State_Penalty>  (158) 
0.877492

>  <r_epik_Charging_Adjusted_Penalty>  (158) 
1.7201

>  <i_epik_Tot_Q>  (158) 
0

>  <i_epik_Tot_abs_Q>  (158) 
0

>  <s_lp_Force_Field>  (158) 
OPLS3e

>  <r_lp_Energy>  (158) 
141.147

>  <b_lp_Chiralities_Consistent>  (158) 
1

>  <s_lp_Variant>  (158) 
60:0-2

>  <s_i_glide_gridfile>  (158) 
pfpi4k_grid

>  <i_i_glide_lignum>  (158) 
3

>  <i_i_glide_rotatable_bonds>  (158) 
4

>  <r_i_docking_score>  (158) 
-2.31065

>  <r_i_glide_ligand_efficiency>  (158) 
-0.0770215

>  <r_i_glide_ligand_efficiency_sa>  (158) 
-0.239324

>  <r_i_glide_ligand_efficiency_ln>  (158) 
-0.525004

>  <r_i_glide_gscore>  (158) 
-2.31065

>  <r_i_glide_lipo>  (158) 
-0.426599

>  <r_i_glide_hbond>  (158) 
0

>  <r_i_glide_metal>  (158) 
-0

>  <r_i_glide_rewards>  (158) 
-0.568952

>  <r_i_glide_evdw>  (158) 
-25.3039

>  <r_i_glide_ecoul>  (158) 
-0.519916

>  <r_i_glide_erotb>  (158) 
0.113862

>  <r_i_glide_esite>  (158) 
-0.0857741

>  <r_i_glide_emodel>  (158) 
-25.8525

>  <r_i_glide_energy>  (158) 
-25.8238

>  <r_i_glide_einternal>  (158) 
1.34539

>  <r_i_glide_intrahb_reward>  (158) 
-0

>  <i_i_glide_confnum>  (158) 
3

>  <i_i_glide_posenum>  (158) 
16

>  <r_i_glide_eff_state_penalty>  (158) 
0

>  <ligand_id>  (158) 
60

>  <original_smiles>  (158) 
CC12COC3CC(n4ccnc4)C4C3C(O)CC1C1C(O)CC2CC(O)CCC41C

>  <smiles>  (158) 
[H]OC1([H])C([H])([H])C([H])([H])C2(C([H])([H])[H])C3([H])C([H])(O[H])C([H])([H])C([H])(C1([H])[H])C1(C([H])([H])[H])C([H])([H])OC4([H])C([H])([H])C([H])(n5c([H])nc([H])c5[H])C2([H])C4([H])C([H])(O[H])C([H])([H])C31[H]

$$$$
60:1:2
     RDKit          3D

 66 71  0  0  1  0  0  0  0  0999 V2000
    2.4842   -3.5982    5.9417 C   0  0  0  0  0  0  0  0  0  0  0  0
    2.8134   -3.1199    4.4949 C   0  0  2  0  0  0  0  0  0  0  0  0
    1.9498   -4.0127    3.5647 C   0  0  0  0  0  0  0  0  0  0  0  0
    2.2163   -3.7231    2.2095 O   0  0  0  0  0  0  0  0  0  0  0  0
    2.7908   -4.7384    1.4002 C   0  0  1  0  0  0  0  0  0  0  0  0
    2.6552   -4.2334   -0.0629 C   0  0  0  0  0  0  0  0  0  0  0  0
    3.9928   -3.5673   -0.4712 C   0  0  1  0  0  0  0  0  0  0  0  0
    3.9239   -2.4577   -1.4375 N   0  0  0  0  0  0  0  0  0  0  0  0
    4.8951   -1.4723   -1.6773 C   0  0  0  0  0  0  0  0  0  0  0  0
    4.4273   -0.6603   -2.6400 C   0  0  0  0  0  0  0  0  0  0  0  0
    3.2542   -1.2115   -3.2049 N   0  0  0  0  0  0  0  0  0  0  0  0
    3.0205   -2.2701   -2.4396 C   0  0  0  0  0  0  0  0  0  0  0  0
    4.8438   -3.4861    0.8666 C   0  0  2  0  0  0  0  0  0  0  0  0
    4.3169   -4.8011    1.5209 C   0  0  1  0  0  0  0  0  0  0  0  0
    5.0321   -5.4362    2.7297 C   0  0  1  0  0  0  0  0  0  0  0  0
    6.4300   -5.4357    2.4978 O   0  0  0  0  0  0  0  0  0  0  0  0
    4.7540   -4.8740    4.1140 C   0  0  0  0  0  0  0  0  0  0  0  0
    4.3198   -3.3958    4.2189 C   0  0  1  0  0  0  0  0  0  0  0  0
    5.1054   -2.3428    3.3645 C   0  0  2  0  0  0  0  0  0  0  0  0
    5.0785   -1.0580    4.2683 C   0  0  1  0  0  0  0  0  0  0  0  0
    5.8894    0.0349    3.8834 O   0  0  0  0  0  0  0  0  0  0  0  0
    3.6952   -0.5934    4.7473 C   0  0  0  0  0  0  0  0  0  0  0  0
    2.5083   -1.5618    4.4508 C   0  0  1  0  0  0  0  0  0  0  0  0
    1.3820   -1.0160    3.5147 C   0  0  0  0  0  0  0  0  0  0  0  0
    1.7262   -0.2269    2.2430 C   0  0  1  0  0  0  0  0  0  0  0  0
    2.1286    1.1072    2.4974 O   0  0  0  0  0  0  0  0  0  0  0  0
    2.6480   -0.9131    1.2330 C   0  0  0  0  0  0  0  0  0  0  0  0
    4.1757   -0.8754    1.4198 C   0  0  0  0  0  0  0  0  0  0  0  0
    5.0277   -2.1553    1.7754 C   0  0  2  0  0  0  0  0  0  0  0  0
    6.5106   -1.7403    1.4005 C   0  0  0  0  0  0  0  0  0  0  0  0
    1.4278   -3.4706    6.1779 H   0  0  0  0  0  0  0  0  0  0  0  0
    3.0455   -3.0434    6.6964 H   0  0  0  0  0  0  0  0  0  0  0  0
    2.7084   -4.6505    6.0998 H   0  0  0  0  0  0  0  0  0  0  0  0
    2.0911   -5.0730    3.7723 H   0  0  0  0  0  0  0  0  0  0  0  0
    0.8893   -3.8523    3.7617 H   0  0  0  0  0  0  0  0  0  0  0  0
    2.3010   -5.7031    1.5485 H   0  0  0  0  0  0  0  0  0  0  0  0
    2.4416   -5.0862   -0.7153 H   0  0  0  0  0  0  0  0  0  0  0  0
    1.8024   -3.5698   -0.2007 H   0  0  0  0  0  0  0  0  0  0  0  0
    4.4720   -4.3659   -1.0428 H   0  0  0  0  0  0  0  0  0  0  0  0
    5.8446   -1.4066   -1.1263 H   0  0  0  0  0  0  0  0  0  0  0  0
    4.8300    0.2647   -2.9609 H   0  0  0  0  0  0  0  0  0  0  0  0
    2.1801   -2.9330   -2.6438 H   0  0  0  0  0  0  0  0  0  0  0  0
    5.8384   -3.7702    0.5355 H   0  0  0  0  0  0  0  0  0  0  0  0
    4.5630   -5.5789    0.7919 H   0  0  0  0  0  0  0  0  0  0  0  0
    4.7510   -6.4883    2.7701 H   0  0  0  0  0  0  0  0  0  0  0  0
    6.6138   -5.9745    1.7512 H   0  0  0  0  0  0  0  0  0  0  0  0
    4.0187   -5.5131    4.5971 H   0  0  0  0  0  0  0  0  0  0  0  0
    5.6410   -5.0300    4.7341 H   0  0  0  0  0  0  0  0  0  0  0  0
    4.7351   -3.2199    5.2182 H   0  0  0  0  0  0  0  0  0  0  0  0
    6.1097   -2.7260    3.5197 H   0  0  0  0  0  0  0  0  0  0  0  0
    5.6006   -1.3259    5.1823 H   0  0  0  0  0  0  0  0  0  0  0  0
    5.8055    0.1412    2.9540 H   0  0  0  0  0  0  0  0  0  0  0  0
    3.7716   -0.4244    5.8282 H   0  0  0  0  0  0  0  0  0  0  0  0
    3.4993    0.3923    4.3405 H   0  0  0  0  0  0  0  0  0  0  0  0
    1.9601   -1.4062    5.3731 H   0  0  0  0  0  0  0  0  0  0  0  0
    0.7072   -1.8118    3.2123 H   0  0  0  0  0  0  0  0  0  0  0  0
    0.7342   -0.3587    4.0991 H   0  0  0  0  0  0  0  0  0  0  0  0
    0.7681   -0.1029    1.7271 H   0  0  0  0  0  0  0  0  0  0  0  0
    1.9814    1.6100    1.7168 H   0  0  0  0  0  0  0  0  0  0  0  0
    2.2337   -1.8579    0.9207 H   0  0  0  0  0  0  0  0  0  0  0  0
    2.5278   -0.3046    0.3392 H   0  0  0  0  0  0  0  0  0  0  0  0
    4.5567   -0.4681    0.4874 H   0  0  0  0  0  0  0  0  0  0  0  0
    4.3743   -0.0376    2.0775 H   0  0  0  0  0  0  0  0  0  0  0  0
    6.7831   -0.7747    1.8250 H   0  0  0  0  0  0  0  0  0  0  0  0
    6.8310   -1.7294    0.3736 H   0  0  0  0  0  0  0  0  0  0  0  0
    7.1966   -2.5161    1.6755 H   0  0  0  0  0  0  0  0  0  0  0  0
  2  1  1  1
  1 31  1  0
  1 32  1  0
  1 33  1  0
  2 18  1  0
  2 23  1  0
  2  3  1  0
  3  4  1  0
  3 34  1  0
  3 35  1  0
  4  5  1  0
  5 14  1  0
  5  6  1  0
  5 36  1  6
  6  7  1  0
  6 37  1  0
  6 38  1  0
  7  8  1  0
  7 13  1  0
  7 39  1  6
  8 12  1  0
  8  9  1  0
  9 10  2  0
  9 40  1  0
 10 11  1  0
 10 41  1  0
 11 12  2  0
 12 42  1  0
 13 29  1  0
 13 14  1  0
 13 43  1  6
 14 15  1  0
 14 44  1  6
 15 16  1  0
 15 17  1  0
 15 45  1  1
 16 46  1  0
 17 18  1  0
 17 47  1  0
 17 48  1  0
 18 19  1  0
 18 49  1  1
 19 29  1  0
 19 20  1  0
 19 50  1  6
 20 21  1  0
 20 22  1  0
 20 51  1  1
 21 52  1  0
 22 23  1  0
 22 53  1  0
 22 54  1  0
 23 24  1  0
 23 55  1  1
 24 25  1  0
 24 56  1  0
 24 57  1  0
 25 26  1  0
 25 27  1  0
 25 58  1  6
 26 59  1  0
 27 28  1  0
 27 60  1  0
 27 61  1  0
 28 29  1  0
 28 62  1  0
 28 63  1  0
 29 30  1  6
 30 64  1  0
 30 65  1  0
 30 66  1  0
M  END
>  <i_m_ct_stereo_status>  (159) 
1

>  <s_m_source_file>  (159) 
/var/tmp/pbs.5076255.sched01/tmpj5h_4zim/74m36hq9q5.sdf

>  <i_m_source_file_index>  (159) 
3

>  <i_lp_mmshare_version>  (159) 
48012

>  <i_f3d_flags>  (159) 
0

>  <s_epik_input>  (159) 
W09IXVtDQEhdMVtDSDJdW0NIXTJbQ0gyXVtDQEBIXShbT0hdKVtDSDJdW0NIMl1bQ0BAXShbQ0gzXSkoW0NIXTFbQ0BIXTNbQ0BAXTI0W0NIM10pW0NASF01W0NAQEhdKFtDQEBIXShbT0hdKVtDSDJdMylbQ0BASF0oT1tDSDJdNClbQ0gyXVtDQEhdNW42W2NIXVtjSF1uW2NIXTY=

>  <s_epik_cmdline>  (159) 
J2VwaWtfcHl0aG9uJywgJy1waHQnLCAnMi4wJywgJy1waCcsICc3LjAnLCAnLXRuJywgJzgnLCAnLW1hJywgJzIwMCcsICctaW1hZScsICc8aW5maWxlLm1hZT4nLCAnLW9tYWUnLCAnPG91dGZpbGUubWFlPic=

>  <r_lp_tautomer_probability>  (159) 
1

>  <r_epik_Ionization_Penalty>  (159) 
0.842614

>  <r_epik_Ionization_Penalty_Charging>  (159) 
0.84261

>  <r_epik_Ionization_Penalty_Neutral>  (159) 
3.78845e-06

>  <r_epik_State_Penalty>  (159) 
0.877492

>  <r_epik_Charging_Adjusted_Penalty>  (159) 
1.7201

>  <i_epik_Tot_Q>  (159) 
0

>  <i_epik_Tot_abs_Q>  (159) 
0

>  <s_lp_Force_Field>  (159) 
OPLS3e

>  <r_lp_Energy>  (159) 
141.147

>  <b_lp_Chiralities_Consistent>  (159) 
1

>  <s_lp_Variant>  (159) 
60:0-2

>  <s_i_glide_gridfile>  (159) 
pfpi4k_grid

>  <i_i_glide_lignum>  (159) 
3

>  <i_i_glide_rotatable_bonds>  (159) 
4

>  <r_i_docking_score>  (159) 
-2.29682

>  <r_i_glide_ligand_efficiency>  (159) 
-0.0765606

>  <r_i_glide_ligand_efficiency_sa>  (159) 
-0.237892

>  <r_i_glide_ligand_efficiency_ln>  (159) 
-0.521862

>  <r_i_glide_gscore>  (159) 
-2.29682

>  <r_i_glide_lipo>  (159) 
-0.441461

>  <r_i_glide_hbond>  (159) 
0

>  <r_i_glide_metal>  (159) 
-0

>  <r_i_glide_rewards>  (159) 
-0.568952

>  <r_i_glide_evdw>  (159) 
-26.0863

>  <r_i_glide_ecoul>  (159) 
-0.0987374

>  <r_i_glide_erotb>  (159) 
0.113862

>  <r_i_glide_esite>  (159) 
-0.0811418

>  <r_i_glide_emodel>  (159) 
-25.3405

>  <r_i_glide_energy>  (159) 
-26.185

>  <r_i_glide_einternal>  (159) 
2.07271

>  <r_i_glide_intrahb_reward>  (159) 
-0

>  <i_i_glide_confnum>  (159) 
1

>  <i_i_glide_posenum>  (159) 
12

>  <r_i_glide_eff_state_penalty>  (159) 
0

>  <ligand_id>  (159) 
60

>  <original_smiles>  (159) 
CC12COC3CC(n4ccnc4)C4C3C(O)CC1C1C(O)CC2CC(O)CCC41C

>  <smiles>  (159) 
[H]OC1([H])C([H])([H])C([H])([H])C2(C([H])([H])[H])C3([H])C([H])(O[H])C([H])([H])C([H])(C1([H])[H])C1(C([H])([H])[H])C([H])([H])OC4([H])C([H])([H])C([H])(n5c([H])nc([H])c5[H])C2([H])C4([H])C([H])(O[H])C([H])([H])C31[H]

$$$$
61:0:0
     RDKit          3D

 31 37  0  0  1  0  0  0  0  0999 V2000
    3.5567   -1.5457    0.4656 C   0  0  0  0  0  0  0  0  0  0  0  0
    4.8788   -0.8366    0.0983 C   0  0  1  0  0  0  0  0  0  0  0  0
    6.1243   -1.4272    0.8494 C   0  0  0  0  0  0  0  0  0  0  0  0
    6.8261   -2.5198   -0.0910 C   0  0  1  0  0  0  0  0  0  0  0  0
    6.0636   -3.4936   -0.1773 C   0  0  1  0  0  0  0  0  0  0  0  0
    4.6339   -3.9005    0.0008 C   0  0  1  0  0  0  0  0  0  0  0  0
    3.4200   -2.9823   -0.0650 C   0  0  2  0  0  0  0  0  0  0  0  0
    3.3544   -3.2960   -1.5744 C   0  0  1  0  0  0  0  0  0  0  0  0
    3.1487   -2.1673   -2.5446 C   0  0  2  0  0  0  0  0  0  0  0  0
    4.1812   -1.8839   -3.5172 O   0  0  0  0  0  0  0  0  0  0  0  0
    4.0543   -0.9972   -2.3966 C   0  0  2  0  0  0  0  0  0  0  0  0
    5.2005   -1.0040   -1.4054 C   0  0  2  0  0  0  0  0  0  0  0  0
    6.2045   -2.1669   -1.4553 C   0  0  2  0  0  0  0  0  0  0  0  0
    6.1552   -3.3822   -1.5751 C   0  0  2  0  0  0  0  0  0  0  0  0
    4.7123   -4.0256   -1.4657 C   0  0  1  0  0  0  0  0  0  0  0  0
    2.7260   -0.9433    0.0964 H   0  0  0  0  0  0  0  0  0  0  0  0
    3.4370   -1.5414    1.5507 H   0  0  0  0  0  0  0  0  0  0  0  0
    4.7616    0.2149    0.3548 H   0  0  0  0  0  0  0  0  0  0  0  0
    6.8418   -0.6488    1.0788 H   0  0  0  0  0  0  0  0  0  0  0  0
    5.8314   -1.8573    1.8074 H   0  0  0  0  0  0  0  0  0  0  0  0
    7.8575   -2.7792    0.1723 H   0  0  0  0  0  0  0  0  0  0  0  0
    6.7423   -4.3346    0.1622 H   0  0  0  0  0  0  0  0  0  0  0  0
    4.4731   -4.8515    0.5094 H   0  0  0  0  0  0  0  0  0  0  0  0
    2.5754   -3.4903    0.3985 H   0  0  0  0  0  0  0  0  0  0  0  0
    2.5835   -4.0556   -1.7181 H   0  0  0  0  0  0  0  0  0  0  0  0
    2.1281   -1.9463   -2.8485 H   0  0  0  0  0  0  0  0  0  0  0  0
    3.6513   -0.0235   -2.6585 H   0  0  0  0  0  0  0  0  0  0  0  0
    5.7786   -0.1341   -1.6955 H   0  0  0  0  0  0  0  0  0  0  0  0
    7.0778   -1.9084   -2.1060 H   0  0  0  0  0  0  0  0  0  0  0  0
    6.8373   -3.7990   -2.3325 H   0  0  0  0  0  0  0  0  0  0  0  0
    4.6787   -5.0637   -1.7870 H   0  0  0  0  0  0  0  0  0  0  0  0
  1  7  1  0
  1  2  1  0
  1 16  1  0
  1 17  1  0
  2 12  1  0
  2  3  1  0
  2 18  1  6
  3  4  1  0
  3 19  1  0
  3 20  1  0
  4 14  1  0
  4  5  1  0
  4 21  1  1
  5 13  1  0
  5  6  1  0
  5 22  1  6
  6 15  1  0
  6  7  1  0
  6 23  1  1
  7  8  1  0
  7 24  1  1
  8 15  1  0
  8  9  1  0
  8 25  1  1
  9 11  1  0
  9 10  1  0
  9 26  1  6
 10 11  1  0
 11 12  1  0
 11 27  1  6
 12 13  1  0
 12 28  1  6
 13 14  1  0
 13 29  1  1
 14 15  1  0
 14 30  1  6
 15 31  1  1
M  END
>  <i_m_ct_stereo_status>  (160) 
1

>  <s_m_source_file>  (160) 
/var/tmp/pbs.5076255.sched01/tmpj5h_4zim/74m36hq9q5.sdf

>  <i_m_source_file_index>  (160) 
4

>  <i_lp_mmshare_version>  (160) 
48012

>  <i_f3d_flags>  (160) 
0

>  <s_epik_input>  (160) 
W0NIXTEyW0NASF0oW0NAQEhdMzQpW0NAQEhdKFtDSDJdNSlbQ0hdMVtDQEhdM1tDQEBIXShbQ0gyXTYpW0NASF00W0NASF0oTzcpW0NASF03W0NASF0yW0NASF01Ng==

>  <s_epik_cmdline>  (160) 
J2VwaWtfcHl0aG9uJywgJy1waHQnLCAnMi4wJywgJy1waCcsICc3LjAnLCAnLXRuJywgJzgnLCAnLW1hJywgJzIwMCcsICctaW1hZScsICc8aW5maWxlLm1hZT4nLCAnLW9tYWUnLCAnPG91dGZpbGUubWFlPic=

>  <r_lp_tautomer_probability>  (160) 
1

>  <r_epik_Ionization_Penalty>  (160) 
5.39743e-11

>  <r_epik_Ionization_Penalty_Charging>  (160) 
0

>  <r_epik_Ionization_Penalty_Neutral>  (160) 
5.39743e-11

>  <r_epik_State_Penalty>  (160) 
-0

>  <r_epik_Charging_Adjusted_Penalty>  (160) 
0

>  <i_epik_Tot_Q>  (160) 
0

>  <i_epik_Tot_abs_Q>  (160) 
0

>  <s_lp_Force_Field>  (160) 
OPLS3e

>  <r_lp_Energy>  (160) 
407.872

>  <b_lp_Chiralities_Consistent>  (160) 
1

>  <s_lp_Variant>  (160) 
61:0-1

>  <s_i_glide_gridfile>  (160) 
pfpi4k_grid

>  <i_i_glide_lignum>  (160) 
4

>  <i_i_glide_rotatable_bonds>  (160) 
0

>  <r_i_docking_score>  (160) 
-3.90379

>  <r_i_glide_ligand_efficiency>  (160) 
-0.260252

>  <r_i_glide_ligand_efficiency_sa>  (160) 
-0.641837

>  <r_i_glide_ligand_efficiency_ln>  (160) 
-1.05279

>  <r_i_glide_gscore>  (160) 
-3.90379

>  <r_i_glide_lipo>  (160) 
-0.540343

>  <r_i_glide_hbond>  (160) 
0

>  <r_i_glide_metal>  (160) 
-0

>  <r_i_glide_rewards>  (160) 
-2.04357

>  <r_i_glide_evdw>  (160) 
-18.2543

>  <r_i_glide_ecoul>  (160) 
-2.71439

>  <r_i_glide_erotb>  (160) 
0

>  <r_i_glide_esite>  (160) 
0

>  <r_i_glide_emodel>  (160) 
-25.7573

>  <r_i_glide_energy>  (160) 
-20.9686

>  <r_i_glide_einternal>  (160) 
0

>  <r_i_glide_intrahb_reward>  (160) 
-0

>  <i_i_glide_confnum>  (160) 
2

>  <i_i_glide_posenum>  (160) 
4

>  <r_i_glide_eff_state_penalty>  (160) 
0

>  <ligand_id>  (160) 
61

>  <original_smiles>  (160) 
C1C2CC3C4C5C1C1C6OC6C2C4C3C15

>  <smiles>  (160) 
[H]C1([H])C2([H])C([H])([H])C3([H])C4([H])C5([H])C1([H])C1([H])C6([H])OC6([H])C2([H])C4([H])C3([H])C15[H]

$$$$
61:0:1
     RDKit          3D

 31 37  0  0  1  0  0  0  0  0999 V2000
    5.1184   -0.8209    0.7302 C   0  0  0  0  0  0  0  0  0  0  0  0
    3.8904   -1.1537   -0.1534 C   0  0  1  0  0  0  0  0  0  0  0  0
    4.1848   -1.0591   -1.6912 C   0  0  0  0  0  0  0  0  0  0  0  0
    4.5872   -2.5209   -2.2226 C   0  0  1  0  0  0  0  0  0  0  0  0
    5.6847   -2.8262   -1.7383 C   0  0  1  0  0  0  0  0  0  0  0  0
    6.6314   -2.4947   -0.6262 C   0  0  1  0  0  0  0  0  0  0  0  0
    6.2578   -1.8551    0.7009 C   0  0  2  0  0  0  0  0  0  0  0  0
    6.0705   -3.2811    1.2516 C   0  0  1  0  0  0  0  0  0  0  0  0
    4.8373   -3.5615    2.0674 C   0  0  2  0  0  0  0  0  0  0  0  0
    3.8954   -4.5427    1.5853 O   0  0  0  0  0  0  0  0  0  0  0  0
    3.5247   -3.1578    1.4816 C   0  0  2  0  0  0  0  0  0  0  0  0
    3.4065   -2.5994    0.0739 C   0  0  2  0  0  0  0  0  0  0  0  0
    4.0542   -3.3958   -1.0760 C   0  0  2  0  0  0  0  0  0  0  0  0
    5.1025   -4.0121   -1.2677 C   0  0  2  0  0  0  0  0  0  0  0  0
    6.2407   -3.8399   -0.1741 C   0  0  1  0  0  0  0  0  0  0  0  0
    4.7869   -0.6755    1.7603 H   0  0  0  0  0  0  0  0  0  0  0  0
    5.5109    0.1486    0.4311 H   0  0  0  0  0  0  0  0  0  0  0  0
    3.0932   -0.4576    0.1065 H   0  0  0  0  0  0  0  0  0  0  0  0
    3.2976   -0.7051   -2.2141 H   0  0  0  0  0  0  0  0  0  0  0  0
    4.9736   -0.3398   -1.8946 H   0  0  0  0  0  0  0  0  0  0  0  0
    4.5171   -2.6714   -3.3045 H   0  0  0  0  0  0  0  0  0  0  0  0
    6.2736   -3.0685   -2.6743 H   0  0  0  0  0  0  0  0  0  0  0  0
    7.6827   -2.4172   -0.9071 H   0  0  0  0  0  0  0  0  0  0  0  0
    7.1591   -1.4517    1.1615 H   0  0  0  0  0  0  0  0  0  0  0  0
    6.9733   -3.5701    1.7945 H   0  0  0  0  0  0  0  0  0  0  0  0
    4.9321   -3.4943    3.1503 H   0  0  0  0  0  0  0  0  0  0  0  0
    2.7546   -2.8490    2.1826 H   0  0  0  0  0  0  0  0  0  0  0  0
    2.3311   -2.6019   -0.1226 H   0  0  0  0  0  0  0  0  0  0  0  0
    3.3047   -4.0728   -1.5542 H   0  0  0  0  0  0  0  0  0  0  0  0
    4.9886   -5.0087   -1.7208 H   0  0  0  0  0  0  0  0  0  0  0  0
    7.0624   -4.5525   -0.2641 H   0  0  0  0  0  0  0  0  0  0  0  0
  1  7  1  0
  1  2  1  0
  1 16  1  0
  1 17  1  0
  2 12  1  0
  2  3  1  0
  2 18  1  1
  3  4  1  0
  3 19  1  0
  3 20  1  0
  4 14  1  0
  4  5  1  0
  4 21  1  6
  5 13  1  0
  5  6  1  0
  5 22  1  6
  6 15  1  0
  6  7  1  0
  6 23  1  6
  7  8  1  0
  7 24  1  1
  8 15  1  0
  8  9  1  0
  8 25  1  1
  9 11  1  0
  9 10  1  0
  9 26  1  1
 10 11  1  0
 11 12  1  0
 11 27  1  1
 12 13  1  0
 12 28  1  6
 13 14  1  0
 13 29  1  6
 14 15  1  0
 14 30  1  6
 15 31  1  1
M  END
>  <i_m_ct_stereo_status>  (161) 
1

>  <s_m_source_file>  (161) 
/var/tmp/pbs.5076255.sched01/tmpj5h_4zim/74m36hq9q5.sdf

>  <i_m_source_file_index>  (161) 
4

>  <i_lp_mmshare_version>  (161) 
48012

>  <i_f3d_flags>  (161) 
0

>  <s_epik_input>  (161) 
W0NIXTEyW0NASF0oW0NAQEhdMzQpW0NAQEhdKFtDSDJdNSlbQ0hdMVtDQEhdM1tDQEBIXShbQ0gyXTYpW0NASF00W0NASF0oTzcpW0NASF03W0NASF0yW0NASF01Ng==

>  <s_epik_cmdline>  (161) 
J2VwaWtfcHl0aG9uJywgJy1waHQnLCAnMi4wJywgJy1waCcsICc3LjAnLCAnLXRuJywgJzgnLCAnLW1hJywgJzIwMCcsICctaW1hZScsICc8aW5maWxlLm1hZT4nLCAnLW9tYWUnLCAnPG91dGZpbGUubWFlPic=

>  <r_lp_tautomer_probability>  (161) 
1

>  <r_epik_Ionization_Penalty>  (161) 
5.39743e-11

>  <r_epik_Ionization_Penalty_Charging>  (161) 
0

>  <r_epik_Ionization_Penalty_Neutral>  (161) 
5.39743e-11

>  <r_epik_State_Penalty>  (161) 
-0

>  <r_epik_Charging_Adjusted_Penalty>  (161) 
0

>  <i_epik_Tot_Q>  (161) 
0

>  <i_epik_Tot_abs_Q>  (161) 
0

>  <s_lp_Force_Field>  (161) 
OPLS3e

>  <r_lp_Energy>  (161) 
407.872

>  <b_lp_Chiralities_Consistent>  (161) 
1

>  <s_lp_Variant>  (161) 
61:0-1

>  <s_i_glide_gridfile>  (161) 
pfpi4k_grid

>  <i_i_glide_lignum>  (161) 
4

>  <i_i_glide_rotatable_bonds>  (161) 
0

>  <r_i_docking_score>  (161) 
-3.6346

>  <r_i_glide_ligand_efficiency>  (161) 
-0.242307

>  <r_i_glide_ligand_efficiency_sa>  (161) 
-0.59758

>  <r_i_glide_ligand_efficiency_ln>  (161) 
-0.980192

>  <r_i_glide_gscore>  (161) 
-3.6346

>  <r_i_glide_lipo>  (161) 
-0.492532

>  <r_i_glide_hbond>  (161) 
0

>  <r_i_glide_metal>  (161) 
-0

>  <r_i_glide_rewards>  (161) 
-2.04357

>  <r_i_glide_evdw>  (161) 
-19.3959

>  <r_i_glide_ecoul>  (161) 
-0.858033

>  <r_i_glide_erotb>  (161) 
0

>  <r_i_glide_esite>  (161) 
0

>  <r_i_glide_emodel>  (161) 
-24.7393

>  <r_i_glide_energy>  (161) 
-20.2539

>  <r_i_glide_einternal>  (161) 
0

>  <r_i_glide_intrahb_reward>  (161) 
-0

>  <i_i_glide_confnum>  (161) 
1

>  <i_i_glide_posenum>  (161) 
15

>  <r_i_glide_eff_state_penalty>  (161) 
0

>  <ligand_id>  (161) 
61

>  <original_smiles>  (161) 
C1C2CC3C4C5C1C1C6OC6C2C4C3C15

>  <smiles>  (161) 
[H]C1([H])C2([H])C([H])([H])C3([H])C4([H])C5([H])C1([H])C1([H])C6([H])OC6([H])C2([H])C4([H])C3([H])C15[H]

$$$$
61:0:2
     RDKit          3D

 31 37  0  0  1  0  0  0  0  0999 V2000
    5.3489   -2.0259   -1.5289 C   0  0  0  0  0  0  0  0  0  0  0  0
    3.8360   -1.7788   -1.3235 C   0  0  1  0  0  0  0  0  0  0  0  0
    2.9517   -3.0048   -1.7319 C   0  0  0  0  0  0  0  0  0  0  0  0
    2.6665   -3.8870   -0.4230 C   0  0  1  0  0  0  0  0  0  0  0  0
    3.7341   -4.4087   -0.0690 C   0  0  1  0  0  0  0  0  0  0  0  0
    5.2181   -4.3044   -0.2177 C   0  0  1  0  0  0  0  0  0  0  0  0
    5.9918   -3.0422   -0.5657 C   0  0  2  0  0  0  0  0  0  0  0  0
    6.0910   -2.7796    0.9506 C   0  0  1  0  0  0  0  0  0  0  0  0
    5.7990   -1.3853    1.4372 C   0  0  2  0  0  0  0  0  0  0  0  0
    4.6924   -1.1891    2.3423 O   0  0  0  0  0  0  0  0  0  0  0  0
    4.5253   -0.7561    0.9803 C   0  0  2  0  0  0  0  0  0  0  0  0
    3.4995   -1.5139    0.1600 C   0  0  2  0  0  0  0  0  0  0  0  0
    3.0217   -2.8843    0.6875 C   0  0  2  0  0  0  0  0  0  0  0  0
    3.5288   -3.8830    1.2058 C   0  0  2  0  0  0  0  0  0  0  0  0
    5.1180   -3.9509    1.2087 C   0  0  1  0  0  0  0  0  0  0  0  0
    5.8659   -1.0700   -1.4451 H   0  0  0  0  0  0  0  0  0  0  0  0
    5.5169   -2.3474   -2.5585 H   0  0  0  0  0  0  0  0  0  0  0  0
    3.5539   -0.9177   -1.9270 H   0  0  0  0  0  0  0  0  0  0  0  0
    2.0111   -2.6555   -2.1554 H   0  0  0  0  0  0  0  0  0  0  0  0
    3.4357   -3.5991   -2.5033 H   0  0  0  0  0  0  0  0  0  0  0  0
    1.8371   -4.5957   -0.5095 H   0  0  0  0  0  0  0  0  0  0  0  0
    3.4392   -5.5014   -0.0644 H   0  0  0  0  0  0  0  0  0  0  0  0
    5.7379   -5.2439   -0.4095 H   0  0  0  0  0  0  0  0  0  0  0  0
    6.9868   -3.3290   -0.9051 H   0  0  0  0  0  0  0  0  0  0  0  0
    7.0726   -3.1140    1.2988 H   0  0  0  0  0  0  0  0  0  0  0  0
    6.6464   -0.7205    1.5889 H   0  0  0  0  0  0  0  0  0  0  0  0
    4.5311    0.3231    0.8539 H   0  0  0  0  0  0  0  0  0  0  0  0
    2.6238   -0.8609    0.1651 H   0  0  0  0  0  0  0  0  0  0  0  0
    2.0818   -2.7783    1.2807 H   0  0  0  0  0  0  0  0  0  0  0  0
    3.0029   -4.2637    2.0953 H   0  0  0  0  0  0  0  0  0  0  0  0
    5.5319   -4.7327    1.8497 H   0  0  0  0  0  0  0  0  0  0  0  0
  1  7  1  0
  1  2  1  0
  1 16  1  0
  1 17  1  0
  2 12  1  0
  2  3  1  0
  2 18  1  6
  3  4  1  0
  3 19  1  0
  3 20  1  0
  4 14  1  0
  4  5  1  0
  4 21  1  1
  5 13  1  0
  5  6  1  0
  5 22  1  1
  6 15  1  0
  6  7  1  0
  6 23  1  1
  7  8  1  0
  7 24  1  6
  8 15  1  0
  8  9  1  0
  8 25  1  1
  9 11  1  0
  9 10  1  0
  9 26  1  1
 10 11  1  0
 11 12  1  0
 11 27  1  1
 12 13  1  0
 12 28  1  6
 13 14  1  0
 13 29  1  1
 14 15  1  0
 14 30  1  1
 15 31  1  1
M  END
>  <i_m_ct_stereo_status>  (162) 
1

>  <s_m_source_file>  (162) 
/var/tmp/pbs.5076255.sched01/tmpj5h_4zim/74m36hq9q5.sdf

>  <i_m_source_file_index>  (162) 
4

>  <i_lp_mmshare_version>  (162) 
48012

>  <i_f3d_flags>  (162) 
0

>  <s_epik_input>  (162) 
W0NIXTEyW0NASF0oW0NAQEhdMzQpW0NAQEhdKFtDSDJdNSlbQ0hdMVtDQEhdM1tDQEBIXShbQ0gyXTYpW0NASF00W0NASF0oTzcpW0NASF03W0NASF0yW0NASF01Ng==

>  <s_epik_cmdline>  (162) 
J2VwaWtfcHl0aG9uJywgJy1waHQnLCAnMi4wJywgJy1waCcsICc3LjAnLCAnLXRuJywgJzgnLCAnLW1hJywgJzIwMCcsICctaW1hZScsICc8aW5maWxlLm1hZT4nLCAnLW9tYWUnLCAnPG91dGZpbGUubWFlPic=

>  <r_lp_tautomer_probability>  (162) 
1

>  <r_epik_Ionization_Penalty>  (162) 
5.39743e-11

>  <r_epik_Ionization_Penalty_Charging>  (162) 
0

>  <r_epik_Ionization_Penalty_Neutral>  (162) 
5.39743e-11

>  <r_epik_State_Penalty>  (162) 
-0

>  <r_epik_Charging_Adjusted_Penalty>  (162) 
0

>  <i_epik_Tot_Q>  (162) 
0

>  <i_epik_Tot_abs_Q>  (162) 
0

>  <s_lp_Force_Field>  (162) 
OPLS3e

>  <r_lp_Energy>  (162) 
407.872

>  <b_lp_Chiralities_Consistent>  (162) 
1

>  <s_lp_Variant>  (162) 
61:0-1

>  <s_i_glide_gridfile>  (162) 
pfpi4k_grid

>  <i_i_glide_lignum>  (162) 
4

>  <i_i_glide_rotatable_bonds>  (162) 
0

>  <r_i_docking_score>  (162) 
-3.50856

>  <r_i_glide_ligand_efficiency>  (162) 
-0.233904

>  <r_i_glide_ligand_efficiency_sa>  (162) 
-0.576856

>  <r_i_glide_ligand_efficiency_ln>  (162) 
-0.9462

>  <r_i_glide_gscore>  (162) 
-3.50856

>  <r_i_glide_lipo>  (162) 
-0.494432

>  <r_i_glide_hbond>  (162) 
0

>  <r_i_glide_metal>  (162) 
-0

>  <r_i_glide_rewards>  (162) 
-2.04357

>  <r_i_glide_evdw>  (162) 
-18.4412

>  <r_i_glide_ecoul>  (162) 
-0.323292

>  <r_i_glide_erotb>  (162) 
0

>  <r_i_glide_esite>  (162) 
0

>  <r_i_glide_emodel>  (162) 
-23.0801

>  <r_i_glide_energy>  (162) 
-18.7645

>  <r_i_glide_einternal>  (162) 
0

>  <r_i_glide_intrahb_reward>  (162) 
-0

>  <i_i_glide_confnum>  (162) 
2

>  <i_i_glide_posenum>  (162) 
17

>  <r_i_glide_eff_state_penalty>  (162) 
0

>  <ligand_id>  (162) 
61

>  <original_smiles>  (162) 
C1C2CC3C4C5C1C1C6OC6C2C4C3C15

>  <smiles>  (162) 
[H]C1([H])C2([H])C([H])([H])C3([H])C4([H])C5([H])C1([H])C1([H])C6([H])OC6([H])C2([H])C4([H])C3([H])C15[H]

$$$$
62:0:0
     RDKit          3D

 54 57  0  0  1  0  0  0  0  0999 V2000
    0.4250   -7.5636    1.9682 C   0  0  0  0  0  0  0  0  0  0  0  0
    1.1975   -6.6754    1.0057 C   0  0  0  0  0  0  0  0  0  0  0  0
    0.6261   -6.0988    0.0844 O   0  0  0  0  0  0  0  0  0  0  0  0
    2.5075   -6.6335    1.2783 O   0  0  0  0  0  0  0  0  0  0  0  0
    3.4141   -5.7594    0.6023 C   0  0  0  0  0  0  0  0  0  0  0  0
    3.8951   -4.5576    1.4902 C   0  0  1  0  0  0  0  0  0  0  0  0
    4.3761   -5.2625    2.8007 C   0  0  0  0  0  0  0  0  0  0  0  0
    3.5831   -5.5383    3.6793 O   0  0  0  0  0  0  0  0  0  0  0  0
    5.8090   -5.8613    2.8703 C   0  0  0  0  0  0  0  0  0  0  0  0
    6.3216   -5.7146    4.3231 C   0  0  0  0  0  0  0  0  0  0  0  0
    5.7913   -7.3644    2.5160 C   0  0  0  0  0  0  0  0  0  0  0  0
    6.7641   -5.1562    1.9344 C   0  0  0  0  0  0  0  0  0  0  0  0
    6.4345   -4.1885    1.0477 C   0  0  0  0  0  0  0  0  0  0  0  0
    5.0168   -3.7016    0.8313 C   0  0  1  0  0  0  0  0  0  0  0  0
    4.6960   -3.6695   -0.5815 O   0  0  0  0  0  0  0  0  0  0  0  0
    3.6180   -2.7491   -0.8046 C   0  0  0  0  0  0  0  0  0  0  0  0
    4.0624   -1.6575   -1.8053 C   0  0  0  0  0  0  0  0  0  0  0  0
    2.3698   -3.3794   -1.4458 C   0  0  0  0  0  0  0  0  0  0  0  0
    3.4024   -2.2745    0.6407 C   0  0  1  0  0  0  0  0  0  0  0  0
    2.8639   -3.3612    1.6437 C   0  0  2  0  0  0  0  0  0  0  0  0
    3.0139   -2.4893    2.9134 C   0  0  1  0  0  0  0  0  0  0  0  0
    2.6918   -3.0058    4.1824 O   0  0  0  0  0  0  0  0  0  0  0  0
    4.4373   -1.9304    2.7711 C   0  0  1  0  0  0  0  0  0  0  0  0
    5.3981   -2.4664    3.6536 O   0  0  0  0  0  0  0  0  0  0  0  0
    4.7797   -2.2224    1.2818 C   0  0  1  0  0  0  0  0  0  0  0  0
    5.8141   -1.1833    0.7945 C   0  0  0  0  0  0  0  0  0  0  0  0
    0.5709   -7.2267    2.9943 H   0  0  0  0  0  0  0  0  0  0  0  0
    0.7773   -8.5914    1.8833 H   0  0  0  0  0  0  0  0  0  0  0  0
   -0.6443   -7.5505    1.7381 H   0  0  0  0  0  0  0  0  0  0  0  0
    4.2803   -6.3432    0.2956 H   0  0  0  0  0  0  0  0  0  0  0  0
    2.9810   -5.4571   -0.3436 H   0  0  0  0  0  0  0  0  0  0  0  0
    6.3256   -4.6704    4.6247 H   0  0  0  0  0  0  0  0  0  0  0  0
    7.3439   -6.0850    4.4314 H   0  0  0  0  0  0  0  0  0  0  0  0
    5.6955   -6.2477    5.0429 H   0  0  0  0  0  0  0  0  0  0  0  0
    5.6332   -7.5190    1.4515 H   0  0  0  0  0  0  0  0  0  0  0  0
    5.0114   -7.9111    3.0472 H   0  0  0  0  0  0  0  0  0  0  0  0
    6.7451   -7.8364    2.7636 H   0  0  0  0  0  0  0  0  0  0  0  0
    7.7925   -5.4654    2.0093 H   0  0  0  0  0  0  0  0  0  0  0  0
    7.1973   -3.7521    0.4254 H   0  0  0  0  0  0  0  0  0  0  0  0
    3.3511   -0.8304   -1.8038 H   0  0  0  0  0  0  0  0  0  0  0  0
    4.0805   -2.0530   -2.8225 H   0  0  0  0  0  0  0  0  0  0  0  0
    5.0467   -1.2378   -1.6369 H   0  0  0  0  0  0  0  0  0  0  0  0
    1.7360   -2.6356   -1.9125 H   0  0  0  0  0  0  0  0  0  0  0  0
    1.7253   -3.9093   -0.7561 H   0  0  0  0  0  0  0  0  0  0  0  0
    2.6616   -4.0284   -2.2592 H   0  0  0  0  0  0  0  0  0  0  0  0
    2.8498   -1.3301    0.6708 H   0  0  0  0  0  0  0  0  0  0  0  0
    1.8281   -3.6541    1.4785 H   0  0  0  0  0  0  0  0  0  0  0  0
    2.3226   -1.6499    2.8122 H   0  0  0  0  0  0  0  0  0  0  0  0
    1.7748   -3.2802    4.1645 H   0  0  0  0  0  0  0  0  0  0  0  0
    4.4061   -0.8586    2.9727 H   0  0  0  0  0  0  0  0  0  0  0  0
    5.0431   -2.3659    4.5468 H   0  0  0  0  0  0  0  0  0  0  0  0
    5.3352   -0.2394    0.5242 H   0  0  0  0  0  0  0  0  0  0  0  0
    6.3924   -1.5457   -0.0530 H   0  0  0  0  0  0  0  0  0  0  0  0
    6.5430   -0.9606    1.5766 H   0  0  0  0  0  0  0  0  0  0  0  0
  1  2  1  0
  1 27  1  0
  1 28  1  0
  1 29  1  0
  2  3  2  0
  2  4  1  0
  4  5  1  0
  6  5  1  6
  5 30  1  0
  5 31  1  0
  6 14  1  0
  6 20  1  0
  6  7  1  0
  7  8  2  0
  7  9  1  0
  9 10  1  0
  9 11  1  0
  9 12  1  0
 10 32  1  0
 10 33  1  0
 10 34  1  0
 11 35  1  0
 11 36  1  0
 11 37  1  0
 12 13  2  0
 12 38  1  0
 13 14  1  0
 13 39  1  0
 14 25  1  0
 14 15  1  6
 15 16  1  0
 16 17  1  0
 16 18  1  0
 16 19  1  0
 17 40  1  0
 17 41  1  0
 17 42  1  0
 18 43  1  0
 18 44  1  0
 18 45  1  0
 19 25  1  0
 19 20  1  0
 19 46  1  6
 20 21  1  0
 20 47  1  6
 21 22  1  0
 21 23  1  0
 21 48  1  6
 22 49  1  0
 23 24  1  0
 23 25  1  0
 23 50  1  6
 24 51  1  0
 25 26  1  6
 26 52  1  0
 26 53  1  0
 26 54  1  0
M  END
>  <i_m_ct_stereo_status>  (163) 
1

>  <s_m_source_file>  (163) 
/var/tmp/pbs.5076255.sched01/tmpj5h_4zim/74m36hq9q5.sdf

>  <i_m_source_file_index>  (163) 
5

>  <i_lp_mmshare_version>  (163) 
48012

>  <i_f3d_flags>  (163) 
2

>  <s_epik_input>  (163) 
W0NIM11DKD1PKU9bQ0gyXVtDQF0oW0NAQF0xMjMpKEMoPU8pQyhbQ0gzXSkoW0NIM10pW0NIXT1bQ0hdMSlbQ0BASF00W0NASF0oQyhPMikoW0NIM10pW0NIM10pW0NAXTMoW0NIM10pW0NASF0oW09IXSlbQ0BASF00W09IXQ==

>  <s_epik_cmdline>  (163) 
J2VwaWtfcHl0aG9uJywgJy1waHQnLCAnMi4wJywgJy1waCcsICc3LjAnLCAnLXRuJywgJzgnLCAnLW1hJywgJzIwMCcsICctaW1hZScsICc8aW5maWxlLm1hZT4nLCAnLW9tYWUnLCAnPG91dGZpbGUubWFlPic=

>  <r_lp_tautomer_probability>  (163) 
1

>  <r_epik_Ionization_Penalty>  (163) 
9.81728e-08

>  <r_epik_Ionization_Penalty_Charging>  (163) 
0

>  <r_epik_Ionization_Penalty_Neutral>  (163) 
9.81728e-08

>  <r_epik_State_Penalty>  (163) 
-0

>  <r_epik_Charging_Adjusted_Penalty>  (163) 
0

>  <i_epik_Tot_Q>  (163) 
0

>  <i_epik_Tot_abs_Q>  (163) 
0

>  <s_epik_Chemistry_Notes>  (163) 
This compound has an ester and may undergo hydrolysis at high or low pH.

>  <s_lp_Force_Field>  (163) 
OPLS3e

>  <r_lp_Energy>  (163) 
55.8223

>  <b_lp_Chiralities_Consistent>  (163) 
0

>  <s_lp_Variant>  (163) 
62:0-1

>  <s_i_glide_gridfile>  (163) 
pfpi4k_grid

>  <i_i_glide_lignum>  (163) 
5

>  <i_i_glide_rotatable_bonds>  (163) 
5

>  <r_i_docking_score>  (163) 
-3.61745

>  <r_i_glide_ligand_efficiency>  (163) 
-0.139133

>  <r_i_glide_ligand_efficiency_sa>  (163) 
-0.41218

>  <r_i_glide_ligand_efficiency_ln>  (163) 
-0.849547

>  <r_i_glide_gscore>  (163) 
-3.61745

>  <r_i_glide_lipo>  (163) 
-0.511814

>  <r_i_glide_hbond>  (163) 
-0.410795

>  <r_i_glide_metal>  (163) 
-0

>  <r_i_glide_rewards>  (163) 
-0.925023

>  <r_i_glide_evdw>  (163) 
-21.399

>  <r_i_glide_ecoul>  (163) 
-6.13224

>  <r_i_glide_erotb>  (163) 
0.289505

>  <r_i_glide_esite>  (163) 
-0.0695407

>  <r_i_glide_emodel>  (163) 
-31.5022

>  <r_i_glide_energy>  (163) 
-27.5312

>  <r_i_glide_einternal>  (163) 
3.89669

>  <r_i_glide_intrahb_reward>  (163) 
-0

>  <i_i_glide_confnum>  (163) 
6

>  <i_i_glide_posenum>  (163) 
1

>  <r_i_glide_eff_state_penalty>  (163) 
0

>  <ligand_id>  (163) 
62

>  <original_smiles>  (163) 
CC(=O)OCC12C(=O)C(C)(C)C=CC13OC(C)(C)C1C2C(O)C(O)C13C

>  <smiles>  (163) 
[H]OC1([H])C([H])(O[H])C2(C([H])([H])[H])C34OC(C([H])([H])[H])(C([H])([H])[H])C2([H])C1([H])C3(C([H])([H])OC(=O)C([H])([H])[H])C(=O)C(C([H])([H])[H])(C([H])([H])[H])C([H])=C4[H]

$$$$
64:0:0
     RDKit          3D

 52 60  0  0  1  0  0  0  0  0999 V2000
    2.8933   -2.6628   -2.8439 C   0  0  0  0  0  0  0  0  0  0  0  0
    3.8884   -1.7168   -2.7095 C   0  0  0  0  0  0  0  0  0  0  0  0
    4.5060   -0.8709   -1.3507 C   0  0  1  0  0  0  0  0  0  0  0  0
    3.5670   -0.9443   -0.1131 C   0  0  1  0  0  0  0  0  0  0  0  0
    3.4130   -2.3498   -0.0094 O   0  0  0  0  0  0  0  0  0  0  0  0
    4.6288   -3.3395   -0.2575 N   0  0  0  0  0  0  0  0  0  0  0  0
    5.8562   -2.8300   -0.8248 C   0  0  0  0  0  0  0  0  0  0  0  0
    5.7170   -1.4296   -0.4228 C   0  0  2  0  0  0  0  0  0  0  0  0
    5.4551   -1.3850    1.2114 C   0  0  1  0  0  0  0  0  0  0  0  0
    6.1071   -2.5410    2.0805 C   0  0  0  0  0  0  0  0  0  0  0  0
    5.7940   -4.1396    2.0861 C   0  0  0  0  0  0  0  0  0  0  0  0
    4.4820   -5.1884    2.1146 C   0  0  2  0  0  0  0  0  0  0  0  0
    5.2110   -6.4118    1.5104 C   0  0  0  0  0  0  0  0  0  0  0  0
    5.3352   -5.8656   -0.0074 C   0  0  0  0  0  0  0  0  0  0  0  0
    4.2498   -4.7070   -0.3900 C   0  0  1  0  0  0  0  0  0  0  0  0
    2.9142   -4.5858    0.4168 C   0  0  1  0  0  0  0  0  0  0  0  0
    1.8124   -4.3085   -0.7624 C   0  0  0  0  0  0  0  0  0  0  0  0
    1.9278   -3.5623   -1.9147 C   0  0  0  0  0  0  0  0  0  0  0  0
    3.1573   -5.7783    1.1843 C   0  0  0  0  0  0  0  0  0  0  0  0
    2.6436   -3.8647    1.8667 C   0  0  2  0  0  0  0  0  0  0  0  0
    3.1335   -2.4846    2.5557 C   0  0  1  0  0  0  0  0  0  0  0  0
    3.4892   -3.3249    3.7983 C   0  0  0  0  0  0  0  0  0  0  0  0
    3.4026   -4.6473    3.0134 C   0  0  2  0  0  0  0  0  0  0  0  0
    4.2038   -1.3869    2.2063 C   0  0  2  0  0  0  0  0  0  0  0  0
    4.2155   -0.5014    1.1327 C   0  0  2  0  0  0  0  0  0  0  0  0
    2.8209   -3.0858   -3.8361 H   0  0  0  0  0  0  0  0  0  0  0  0
    3.8335   -1.7564   -1.8006 H   0  0  0  0  0  0  0  0  0  0  0  0
    4.6458    0.1381   -1.6575 H   0  0  0  0  0  0  0  0  0  0  0  0
    2.6237   -0.4509   -0.2958 H   0  0  0  0  0  0  0  0  0  0  0  0
    6.7113   -3.3015   -0.3460 H   0  0  0  0  0  0  0  0  0  0  0  0
    5.9694   -2.9884   -1.8949 H   0  0  0  0  0  0  0  0  0  0  0  0
    6.6260   -0.8955   -0.6796 H   0  0  0  0  0  0  0  0  0  0  0  0
    7.1469   -2.4985    1.7937 H   0  0  0  0  0  0  0  0  0  0  0  0
    6.1826   -2.2251    3.1293 H   0  0  0  0  0  0  0  0  0  0  0  0
    6.6037   -4.4853    1.4539 H   0  0  0  0  0  0  0  0  0  0  0  0
    6.2308   -4.4190    3.0451 H   0  0  0  0  0  0  0  0  0  0  0  0
    6.2086   -6.5712    1.9250 H   0  0  0  0  0  0  0  0  0  0  0  0
    4.7618   -7.4043    1.6201 H   0  0  0  0  0  0  0  0  0  0  0  0
    6.3465   -5.5825   -0.2927 H   0  0  0  0  0  0  0  0  0  0  0  0
    5.1524   -6.6968   -0.6840 H   0  0  0  0  0  0  0  0  0  0  0  0
    4.0690   -4.9242   -1.4428 H   0  0  0  0  0  0  0  0  0  0  0  0
    0.9124   -4.8390   -0.5261 H   0  0  0  0  0  0  0  0  0  0  0  0
    2.9188   -3.4538   -1.7891 H   0  0  0  0  0  0  0  0  0  0  0  0
    3.1855   -6.6625    0.5349 H   0  0  0  0  0  0  0  0  0  0  0  0
    2.2804   -6.1538    1.7469 H   0  0  0  0  0  0  0  0  0  0  0  0
    1.5710   -3.9300    2.0454 H   0  0  0  0  0  0  0  0  0  0  0  0
    2.2224   -1.9135    2.7577 H   0  0  0  0  0  0  0  0  0  0  0  0
    4.4689   -3.1263    4.2310 H   0  0  0  0  0  0  0  0  0  0  0  0
    2.7549   -3.2363    4.5971 H   0  0  0  0  0  0  0  0  0  0  0  0
    2.8494   -5.3964    3.5925 H   0  0  0  0  0  0  0  0  0  0  0  0
    4.3948   -0.8437    3.1305 H   0  0  0  0  0  0  0  0  0  0  0  0
    4.3098    0.5737    1.2608 H   0  0  0  0  0  0  0  0  0  0  0  0
  1 18  1  0
  1  2  2  3
  1 26  1  0
  2  3  1  0
  2 27  1  0
  3  8  1  0
  3  4  1  0
  3 28  1  6
  4 25  1  0
  4  5  1  0
  4 29  1  6
  5  6  1  0
  6 15  1  0
  6  7  1  0
  7  8  1  0
  7 30  1  0
  7 31  1  0
  8  9  1  0
  8 32  1  1
  9 24  1  0
  9 25  1  0
  9 10  1  1
 10 11  1  0
 10 33  1  0
 10 34  1  0
 11 12  1  0
 11 35  1  0
 11 36  1  0
 12 19  1  0
 12 23  1  0
 12 13  1  1
 13 14  1  0
 13 37  1  0
 13 38  1  0
 14 15  1  0
 14 39  1  0
 14 40  1  0
 15 16  1  0
 15 41  1  6
 16 17  1  0
 16 19  1  1
 16 20  1  0
 17 18  2  3
 17 42  1  0
 18 43  1  0
 19 44  1  0
 19 45  1  0
 20 23  1  0
 20 21  1  0
 20 46  1  1
 21 22  1  0
 21 24  1  0
 21 47  1  1
 22 23  1  0
 22 48  1  0
 22 49  1  0
 23 50  1  1
 24 25  1  0
 24 51  1  1
 25 52  1  1
M  END
>  <i_m_ct_stereo_status>  (164) 
1

>  <s_m_source_file>  (164) 
/var/tmp/pbs.5076255.sched01/tmpj5h_4zim/74m36hq9q5.sdf

>  <i_m_source_file_index>  (164) 
7

>  <i_lp_mmshare_version>  (164) 
48012

>  <i_f3d_flags>  (164) 
1

>  <s_epik_input>  (164) 
W0NIMl0xW0NIMl1bQ0BdKFtDSDJdMikoW0NASF0zW0NIMl00KVtDSDJdW0NIMl1bQ0BIXShOKE81KVtDSDJdNilbQ0BdMihcW0NIXT1bQ0hdL1tDSF09W0NIXVw3KVtDQEBIXTNbQ0BASF00W0NAQEhdOFtDQEBIXTlbQ0BIXTVbQ0BIXTdbQ0BIXTZbQ0BdMTg5

>  <s_epik_cmdline>  (164) 
J2VwaWtfcHl0aG9uJywgJy1waHQnLCAnMi4wJywgJy1waCcsICc3LjAnLCAnLXRuJywgJzgnLCAnLW1hJywgJzIwMCcsICctaW1hZScsICc8aW5maWxlLm1hZT4nLCAnLW9tYWUnLCAnPG91dGZpbGUubWFlPic=

>  <r_epik_Ionization_Penalty>  (164) 
0.0641179

>  <r_epik_Ionization_Penalty_Charging>  (164) 
0

>  <r_epik_Ionization_Penalty_Neutral>  (164) 
0.0641179

>  <r_epik_State_Penalty>  (164) 
0.0558314

>  <r_epik_Charging_Adjusted_Penalty>  (164) 
0.0558314

>  <i_epik_Tot_Q>  (164) 
0

>  <i_epik_Tot_abs_Q>  (164) 
0

>  <s_epik_Chemistry_Notes>  (164) 
This compound has a N-S or N-O group and may undergo hydrolysis at high or low pH.

>  <s_lp_Force_Field>  (164) 
OPLS3e

>  <r_lp_Energy>  (164) 
520.37

>  <b_lp_Chiralities_Consistent>  (164) 
1

>  <s_lp_Variant>  (164) 
64:0-1

>  <s_i_glide_gridfile>  (164) 
pfpi4k_grid

>  <i_i_glide_lignum>  (164) 
7

>  <i_i_glide_rotatable_bonds>  (164) 
0

>  <r_i_docking_score>  (164) 
2.51748

>  <r_i_glide_ligand_efficiency>  (164) 
0.100699

>  <r_i_glide_ligand_efficiency_sa>  (164) 
0.294446

>  <r_i_glide_ligand_efficiency_ln>  (164) 
0.596718

>  <r_i_glide_gscore>  (164) 
2.51748

>  <r_i_glide_lipo>  (164) 
-0.52342

>  <r_i_glide_hbond>  (164) 
0

>  <r_i_glide_metal>  (164) 
-0

>  <r_i_glide_rewards>  (164) 
-1.19114

>  <r_i_glide_evdw>  (164) 
-6.77687

>  <r_i_glide_ecoul>  (164) 
1.53579

>  <r_i_glide_erotb>  (164) 
0

>  <r_i_glide_esite>  (164) 
-0.0485821

>  <r_i_glide_emodel>  (164) 
16.0617

>  <r_i_glide_energy>  (164) 
-5.24107

>  <r_i_glide_einternal>  (164) 
0

>  <r_i_glide_intrahb_reward>  (164) 
-0

>  <i_i_glide_confnum>  (164) 
1

>  <i_i_glide_posenum>  (164) 
1

>  <r_i_glide_eff_state_penalty>  (164) 
0

>  <ligand_id>  (164) 
64

>  <original_smiles>  (164) 
C1=CC2C3ON4CC2C25CCC67CCC4C(C=C1)(C6)C1C(CC17)C2C35

>  <smiles>  (164) 
[H]C1=C([H])C2([H])C3([H])ON4C([H])([H])C2([H])C25C([H])([H])C([H])([H])C67C([H])([H])C([H])([H])C4([H])C(C([H])=C1[H])(C6([H])[H])C1([H])C([H])(C([H])([H])C17[H])C2([H])C35[H]

$$$$
64:1:0
     RDKit          3D

 53 61  0  0  1  0  0  0  0  0999 V2000
    4.8789   -0.5739    4.0586 C   0  0  0  0  0  0  0  0  0  0  0  0
    4.5978   -1.8494    4.5383 C   0  0  0  0  0  0  0  0  0  0  0  0
    3.3464   -2.6956    4.0478 C   0  0  1  0  0  0  0  0  0  0  0  0
    2.8917   -3.9350    3.0563 C   0  0  1  0  0  0  0  0  0  0  0  0
    2.2584   -3.5978    1.4983 O   0  0  0  0  0  0  0  0  0  0  0  0
    2.4656   -2.0522    0.9360 N   0  0  1  0  0  0  0  0  0  0  0  0
    2.7892   -1.5880    2.1639 C   0  0  0  0  0  0  0  0  0  0  0  0
    3.9130   -2.6707    2.6821 C   0  0  2  0  0  0  0  0  0  0  0  0
    4.5070   -4.2320    2.1921 C   0  0  1  0  0  0  0  0  0  0  0  0
    4.3532   -5.2810    0.8589 C   0  0  0  0  0  0  0  0  0  0  0  0
    5.1410   -5.0358   -0.5810 C   0  0  0  0  0  0  0  0  0  0  0  0
    5.6045   -3.5410   -1.0398 C   0  0  1  0  0  0  0  0  0  0  0  0
    4.8811   -2.6463   -2.2095 C   0  0  0  0  0  0  0  0  0  0  0  0
    3.8295   -1.4293   -1.7405 C   0  0  0  0  0  0  0  0  0  0  0  0
    3.5518   -1.3243   -0.1017 C   0  0  2  0  0  0  0  0  0  0  0  0
    5.2094   -1.3345    0.3450 C   0  0  2  0  0  0  0  0  0  0  0  0
    5.2574   -0.3224    1.6112 C   0  0  0  0  0  0  0  0  0  0  0  0
    5.8032   -0.4288    2.8827 C   0  0  0  0  0  0  0  0  0  0  0  0
    4.8756   -2.8227   -0.0750 C   0  0  0  0  0  0  0  0  0  0  0  0
    6.5049   -2.2681    0.7113 C   0  0  1  0  0  0  0  0  0  0  0  0
    6.6473   -3.6785    1.6042 C   0  0  1  0  0  0  0  0  0  0  0  0
    7.7892   -3.9567    0.5592 C   0  0  0  0  0  0  0  0  0  0  0  0
    6.9546   -3.1094   -0.4712 C   0  0  1  0  0  0  0  0  0  0  0  0
    5.7916   -4.3616    2.8087 C   0  0  2  0  0  0  0  0  0  0  0  0
    4.1921   -4.8304    3.2191 C   0  0  1  0  0  0  0  0  0  0  0  0
    4.0046    0.0438    3.9186 H   0  0  0  0  0  0  0  0  0  0  0  0
    5.4593   -2.4606    4.6972 H   0  0  0  0  0  0  0  0  0  0  0  0
    2.4581   -2.1618    4.3763 H   0  0  0  0  0  0  0  0  0  0  0  0
    2.0941   -4.4814    3.5719 H   0  0  0  0  0  0  0  0  0  0  0  0
    2.9485   -0.5236    2.1972 H   0  0  0  0  0  0  0  0  0  0  0  0
    1.7931   -1.6252    2.6242 H   0  0  0  0  0  0  0  0  0  0  0  0
    4.8648   -2.3708    2.4933 H   0  0  0  0  0  0  0  0  0  0  0  0
    4.7078   -6.2555    1.1851 H   0  0  0  0  0  0  0  0  0  0  0  0
    3.3042   -5.4504    0.6376 H   0  0  0  0  0  0  0  0  0  0  0  0
    6.0101   -5.6718   -0.5666 H   0  0  0  0  0  0  0  0  0  0  0  0
    4.5986   -5.4540   -1.4039 H   0  0  0  0  0  0  0  0  0  0  0  0
    5.6463   -2.2416   -2.8687 H   0  0  0  0  0  0  0  0  0  0  0  0
    4.3136   -3.3460   -2.8233 H   0  0  0  0  0  0  0  0  0  0  0  0
    4.3431   -0.5035   -1.9775 H   0  0  0  0  0  0  0  0  0  0  0  0
    2.9421   -1.4061   -2.3874 H   0  0  0  0  0  0  0  0  0  0  0  0
    2.7904   -1.9333   -0.6096 H   0  0  0  0  0  0  0  0  0  0  0  0
    4.5177    0.4611    1.5237 H   0  0  0  0  0  0  0  0  0  0  0  0
    6.6142   -1.1298    2.9648 H   0  0  0  0  0  0  0  0  0  0  0  0
    3.9620   -3.3312   -0.4789 H   0  0  0  0  0  0  0  0  0  0  0  0
    4.2058   -3.2169    0.4502 H   0  0  0  0  0  0  0  0  0  0  0  0
    7.3488   -1.6256    0.9560 H   0  0  0  0  0  0  0  0  0  0  0  0
    6.5233   -4.6367    1.1789 H   0  0  0  0  0  0  0  0  0  0  0  0
    8.7137   -3.4563    0.8219 H   0  0  0  0  0  0  0  0  0  0  0  0
    8.0262   -4.9701    0.1997 H   0  0  0  0  0  0  0  0  0  0  0  0
    7.5849   -2.5723   -1.1760 H   0  0  0  0  0  0  0  0  0  0  0  0
    6.1581   -4.0777    3.7860 H   0  0  0  0  0  0  0  0  0  0  0  0
    4.0121   -5.8949    3.2032 H   0  0  0  0  0  0  0  0  0  0  0  0
    1.5886   -1.6421    0.6379 H   0  0  0  0  0  0  0  0  0  0  0  0
  1 18  1  0
  1  2  2  3
  1 26  1  0
  2  3  1  0
  2 27  1  0
  3  8  1  0
  3  4  1  0
  3 28  1  6
  4 25  1  0
  4  5  1  0
  4 29  1  1
  5  6  1  0
  6 15  1  0
  6  7  1  0
  6 53  1  6
  7  8  1  0
  7 30  1  0
  7 31  1  0
  8  9  1  0
  8 32  1  1
  9 24  1  0
  9 25  1  0
  9 10  1  6
 10 11  1  0
 10 33  1  0
 10 34  1  0
 11 12  1  0
 11 35  1  0
 11 36  1  0
 12 19  1  0
 12 23  1  0
 12 13  1  6
 13 14  1  0
 13 37  1  0
 13 38  1  0
 14 15  1  0
 14 39  1  0
 14 40  1  0
 15 16  1  0
 15 41  1  6
 16 17  1  0
 16 19  1  1
 16 20  1  0
 17 18  2  3
 17 42  1  0
 18 43  1  0
 19 44  1  0
 19 45  1  0
 20 23  1  0
 20 21  1  0
 20 46  1  1
 21 22  1  0
 21 24  1  0
 21 47  1  1
 22 23  1  0
 22 48  1  0
 22 49  1  0
 23 50  1  6
 24 25  1  0
 24 51  1  1
 25 52  1  6
M  CHG  1   6   1
M  END
>  <i_m_ct_stereo_status>  (165) 
1

>  <s_m_source_file>  (165) 
/var/tmp/pbs.5076255.sched01/tmpj5h_4zim/74m36hq9q5.sdf

>  <i_m_source_file_index>  (165) 
8

>  <i_lp_mmshare_version>  (165) 
48012

>  <i_f3d_flags>  (165) 
2

>  <s_epik_input>  (165) 
W0NIMl0xW0NIMl1bQ0BdKFtDSDJdMikoW0NASF0zW0NIMl00KVtDSDJdW0NIMl1bQ0BIXShOKE81KVtDSDJdNilbQ0BdMihcW0NIXT1bQ0hdL1tDSF09W0NIXVw3KVtDQEBIXTNbQ0BASF00W0NAQEhdOFtDQEBIXTlbQ0BIXTVbQ0BIXTdbQ0BIXTZbQ0BdMTg5

>  <s_epik_cmdline>  (165) 
J2VwaWtfcHl0aG9uJywgJy1waHQnLCAnMi4wJywgJy1waCcsICc3LjAnLCAnLXRuJywgJzgnLCAnLW1hJywgJzIwMCcsICctaW1hZScsICc8aW5maWxlLm1hZT4nLCAnLW9tYWUnLCAnPG91dGZpbGUubWFlPic=

>  <r_epik_Ionization_Penalty>  (165) 
1.34922

>  <r_epik_Ionization_Penalty_Charging>  (165) 
1.34922

>  <r_epik_Ionization_Penalty_Neutral>  (165) 
0

>  <r_epik_State_Penalty>  (165) 
1.42714

>  <r_epik_Charging_Adjusted_Penalty>  (165) 
2.77637

>  <i_epik_Tot_Q>  (165) 
1

>  <i_epik_Tot_abs_Q>  (165) 
1

>  <s_epik_Chemistry_Notes>  (165) 
This compound has a N-S or N-O group and may undergo hydrolysis at high or low pH.

>  <s_lp_Force_Field>  (165) 
OPLS3e

>  <r_lp_Energy>  (165) 
1070.23

>  <b_lp_Chiralities_Consistent>  (165) 
0

>  <s_lp_Variant>  (165) 
64:0-2

>  <s_i_glide_gridfile>  (165) 
pfpi4k_grid

>  <i_i_glide_lignum>  (165) 
8

>  <i_i_glide_rotatable_bonds>  (165) 
0

>  <r_i_docking_score>  (165) 
-4.1115

>  <r_i_glide_ligand_efficiency>  (165) 
-0.16446

>  <r_i_glide_ligand_efficiency_sa>  (165) 
-0.480884

>  <r_i_glide_ligand_efficiency_ln>  (165) 
-0.974548

>  <r_i_glide_gscore>  (165) 
-4.1115

>  <r_i_glide_lipo>  (165) 
-1.03257

>  <r_i_glide_hbond>  (165) 
-0.176228

>  <r_i_glide_metal>  (165) 
-0

>  <r_i_glide_rewards>  (165) 
-1.12858

>  <r_i_glide_evdw>  (165) 
-16.4447

>  <r_i_glide_ecoul>  (165) 
-5.93863

>  <r_i_glide_erotb>  (165) 
0

>  <r_i_glide_esite>  (165) 
-0.0610832

>  <r_i_glide_emodel>  (165) 
-27.1101

>  <r_i_glide_energy>  (165) 
-22.3834

>  <r_i_glide_einternal>  (165) 
0

>  <r_i_glide_intrahb_reward>  (165) 
-0

>  <i_i_glide_confnum>  (165) 
1

>  <i_i_glide_posenum>  (165) 
8

>  <r_i_glide_eff_state_penalty>  (165) 
0

>  <ligand_id>  (165) 
64

>  <original_smiles>  (165) 
C1=CC2C3ON4CC2C25CCC67CCC4C(C=C1)(C6)C1C(CC17)C2C35

>  <smiles>  (165) 
[H]C1=C([H])C2([H])C3([H])O[N+]4([H])C([H])([H])C2([H])C25C([H])([H])C([H])([H])C67C([H])([H])C([H])([H])C4([H])C(C([H])=C1[H])(C6([H])[H])C1([H])C([H])(C([H])([H])C17[H])C2([H])C35[H]

$$$$
64:1:1
     RDKit          3D

 53 61  0  0  1  0  0  0  0  0999 V2000
    3.4551   -3.8212    4.3490 C   0  0  0  0  0  0  0  0  0  0  0  0
    4.7848   -4.1794    4.1774 C   0  0  0  0  0  0  0  0  0  0  0  0
    5.2498   -5.3838    3.2346 C   0  0  1  0  0  0  0  0  0  0  0  0
    5.8949   -5.7445    1.7673 C   0  0  1  0  0  0  0  0  0  0  0  0
    4.8568   -6.1953    0.4930 O   0  0  0  0  0  0  0  0  0  0  0  0
    3.2368   -5.9294    0.6799 N   0  0  1  0  0  0  0  0  0  0  0  0
    3.3771   -5.7125    1.9943 C   0  0  0  0  0  0  0  0  0  0  0  0
    4.6568   -4.6714    2.0740 C   0  0  2  0  0  0  0  0  0  0  0  0
    5.8599   -4.0136    1.0157 C   0  0  1  0  0  0  0  0  0  0  0  0
    6.2063   -3.9975   -0.6350 C   0  0  0  0  0  0  0  0  0  0  0  0
    5.3995   -3.0933   -1.7791 C   0  0  0  0  0  0  0  0  0  0  0  0
    3.8940   -2.5872   -1.4553 C   0  0  1  0  0  0  0  0  0  0  0  0
    2.5247   -3.1600   -2.1601 C   0  0  0  0  0  0  0  0  0  0  0  0
    1.5766   -4.2313   -1.2933 C   0  0  0  0  0  0  0  0  0  0  0  0
    2.2194   -4.7021    0.1868 C   0  0  2  0  0  0  0  0  0  0  0  0
    2.5286   -3.1148    0.7409 C   0  0  2  0  0  0  0  0  0  0  0  0
    2.1911   -3.1503    2.3330 C   0  0  0  0  0  0  0  0  0  0  0  0
    2.8823   -2.7501    3.4663 C   0  0  0  0  0  0  0  0  0  0  0  0
    3.6493   -3.4097   -0.3318 C   0  0  0  0  0  0  0  0  0  0  0  0
    3.5868   -1.8753    0.7664 C   0  0  1  0  0  0  0  0  0  0  0  0
    5.2399   -1.8022    0.9930 C   0  0  1  0  0  0  0  0  0  0  0  0
    5.0961   -0.6273   -0.0094 C   0  0  0  0  0  0  0  0  0  0  0  0
    3.8415   -1.3292   -0.6309 C   0  0  1  0  0  0  0  0  0  0  0  0
    6.3281   -2.8227    1.6496 C   0  0  2  0  0  0  0  0  0  0  0  0
    6.8267   -4.4742    1.6198 C   0  0  1  0  0  0  0  0  0  0  0  0
    2.7773   -4.6608    4.4065 H   0  0  0  0  0  0  0  0  0  0  0  0
    5.4485   -3.3438    4.1278 H   0  0  0  0  0  0  0  0  0  0  0  0
    4.8588   -6.2891    3.6923 H   0  0  0  0  0  0  0  0  0  0  0  0
    6.5502   -6.6025    1.9021 H   0  0  0  0  0  0  0  0  0  0  0  0
    2.4545   -5.5306    2.5130 H   0  0  0  0  0  0  0  0  0  0  0  0
    3.5502   -6.7445    2.3171 H   0  0  0  0  0  0  0  0  0  0  0  0
    4.3597   -3.7034    2.1464 H   0  0  0  0  0  0  0  0  0  0  0  0
    7.2640   -3.7581   -0.7781 H   0  0  0  0  0  0  0  0  0  0  0  0
    6.0803   -5.0168   -0.9575 H   0  0  0  0  0  0  0  0  0  0  0  0
    6.0051   -2.2287   -2.0441 H   0  0  0  0  0  0  0  0  0  0  0  0
    5.3680   -3.6732   -2.7011 H   0  0  0  0  0  0  0  0  0  0  0  0
    1.9101   -2.3227   -2.4922 H   0  0  0  0  0  0  0  0  0  0  0  0
    2.8250   -3.6695   -3.0829 H   0  0  0  0  0  0  0  0  0  0  0  0
    0.6822   -3.6450   -1.1204 H   0  0  0  0  0  0  0  0  0  0  0  0
    1.1685   -5.0350   -1.9146 H   0  0  0  0  0  0  0  0  0  0  0  0
    2.4702   -5.4083   -0.6062 H   0  0  0  0  0  0  0  0  0  0  0  0
    1.4024   -3.8557    2.5337 H   0  0  0  0  0  0  0  0  0  0  0  0
    3.6201   -1.9781    3.3199 H   0  0  0  0  0  0  0  0  0  0  0  0
    3.8510   -4.2707   -1.0119 H   0  0  0  0  0  0  0  0  0  0  0  0
    4.1740   -4.1923   -0.1423 H   0  0  0  0  0  0  0  0  0  0  0  0
    3.1477   -1.0505    1.3299 H   0  0  0  0  0  0  0  0  0  0  0  0
    5.9122   -1.9141    0.1833 H   0  0  0  0  0  0  0  0  0  0  0  0
    4.8174    0.2894    0.5093 H   0  0  0  0  0  0  0  0  0  0  0  0
    5.8601   -0.3608   -0.7565 H   0  0  0  0  0  0  0  0  0  0  0  0
    3.0615   -0.6553   -0.9492 H   0  0  0  0  0  0  0  0  0  0  0  0
    6.4597   -2.5494    2.6762 H   0  0  0  0  0  0  0  0  0  0  0  0
    7.7704   -4.6718    1.1120 H   0  0  0  0  0  0  0  0  0  0  0  0
    2.7359   -6.7961    0.5529 H   0  0  0  0  0  0  0  0  0  0  0  0
  1 18  1  0
  1  2  2  3
  1 26  1  0
  2  3  1  0
  2 27  1  0
  3  8  1  0
  3  4  1  0
  3 28  1  1
  4 25  1  0
  4  5  1  0
  4 29  1  1
  5  6  1  0
  6 15  1  0
  6  7  1  0
  6 53  1  1
  7  8  1  0
  7 30  1  0
  7 31  1  0
  8  9  1  0
  8 32  1  1
  9 24  1  0
  9 25  1  0
  9 10  1  6
 10 11  1  0
 10 33  1  0
 10 34  1  0
 11 12  1  0
 11 35  1  0
 11 36  1  0
 12 19  1  0
 12 23  1  0
 12 13  1  6
 13 14  1  0
 13 37  1  0
 13 38  1  0
 14 15  1  0
 14 39  1  0
 14 40  1  0
 15 16  1  0
 15 41  1  1
 16 17  1  0
 16 19  1  1
 16 20  1  0
 17 18  2  3
 17 42  1  0
 18 43  1  0
 19 44  1  0
 19 45  1  0
 20 23  1  0
 20 21  1  0
 20 46  1  1
 21 22  1  0
 21 24  1  0
 21 47  1  1
 22 23  1  0
 22 48  1  0
 22 49  1  0
 23 50  1  6
 24 25  1  0
 24 51  1  1
 25 52  1  6
M  CHG  1   6   1
M  END
>  <i_m_ct_stereo_status>  (166) 
1

>  <s_m_source_file>  (166) 
/var/tmp/pbs.5076255.sched01/tmpj5h_4zim/74m36hq9q5.sdf

>  <i_m_source_file_index>  (166) 
8

>  <i_lp_mmshare_version>  (166) 
48012

>  <i_f3d_flags>  (166) 
2

>  <s_epik_input>  (166) 
W0NIMl0xW0NIMl1bQ0BdKFtDSDJdMikoW0NASF0zW0NIMl00KVtDSDJdW0NIMl1bQ0BIXShOKE81KVtDSDJdNilbQ0BdMihcW0NIXT1bQ0hdL1tDSF09W0NIXVw3KVtDQEBIXTNbQ0BASF00W0NAQEhdOFtDQEBIXTlbQ0BIXTVbQ0BIXTdbQ0BIXTZbQ0BdMTg5

>  <s_epik_cmdline>  (166) 
J2VwaWtfcHl0aG9uJywgJy1waHQnLCAnMi4wJywgJy1waCcsICc3LjAnLCAnLXRuJywgJzgnLCAnLW1hJywgJzIwMCcsICctaW1hZScsICc8aW5maWxlLm1hZT4nLCAnLW9tYWUnLCAnPG91dGZpbGUubWFlPic=

>  <r_epik_Ionization_Penalty>  (166) 
1.34922

>  <r_epik_Ionization_Penalty_Charging>  (166) 
1.34922

>  <r_epik_Ionization_Penalty_Neutral>  (166) 
0

>  <r_epik_State_Penalty>  (166) 
1.42714

>  <r_epik_Charging_Adjusted_Penalty>  (166) 
2.77637

>  <i_epik_Tot_Q>  (166) 
1

>  <i_epik_Tot_abs_Q>  (166) 
1

>  <s_epik_Chemistry_Notes>  (166) 
This compound has a N-S or N-O group and may undergo hydrolysis at high or low pH.

>  <s_lp_Force_Field>  (166) 
OPLS3e

>  <r_lp_Energy>  (166) 
1070.23

>  <b_lp_Chiralities_Consistent>  (166) 
0

>  <s_lp_Variant>  (166) 
64:0-2

>  <s_i_glide_gridfile>  (166) 
pfpi4k_grid

>  <i_i_glide_lignum>  (166) 
8

>  <i_i_glide_rotatable_bonds>  (166) 
0

>  <r_i_docking_score>  (166) 
-2.43284

>  <r_i_glide_ligand_efficiency>  (166) 
-0.0973137

>  <r_i_glide_ligand_efficiency_sa>  (166) 
-0.284547

>  <r_i_glide_ligand_efficiency_ln>  (166) 
-0.576657

>  <r_i_glide_gscore>  (166) 
-2.43284

>  <r_i_glide_lipo>  (166) 
-0.645294

>  <r_i_glide_hbond>  (166) 
0

>  <r_i_glide_metal>  (166) 
-0

>  <r_i_glide_rewards>  (166) 
-1.12858

>  <r_i_glide_evdw>  (166) 
-8.80234

>  <r_i_glide_ecoul>  (166) 
-1.40801

>  <r_i_glide_erotb>  (166) 
0

>  <r_i_glide_esite>  (166) 
-0.0076463

>  <r_i_glide_emodel>  (166) 
-12.4898

>  <r_i_glide_energy>  (166) 
-10.2103

>  <r_i_glide_einternal>  (166) 
0

>  <r_i_glide_intrahb_reward>  (166) 
-0

>  <i_i_glide_confnum>  (166) 
2

>  <i_i_glide_posenum>  (166) 
6

>  <r_i_glide_eff_state_penalty>  (166) 
0

>  <ligand_id>  (166) 
64

>  <original_smiles>  (166) 
C1=CC2C3ON4CC2C25CCC67CCC4C(C=C1)(C6)C1C(CC17)C2C35

>  <smiles>  (166) 
[H]C1=C([H])C2([H])C3([H])O[N+]4([H])C([H])([H])C2([H])C25C([H])([H])C([H])([H])C67C([H])([H])C([H])([H])C4([H])C(C([H])=C1[H])(C6([H])[H])C1([H])C([H])(C([H])([H])C17[H])C2([H])C35[H]

$$$$
65:0:0
     RDKit          3D

 45 48  0  0  1  0  0  0  0  0999 V2000
    4.1669   -6.6349    2.4586 C   0  0  0  0  0  0  0  0  0  0  0  0
    4.8041   -5.3301    1.9309 C   0  0  2  0  0  0  0  0  0  0  0  0
    4.4820   -4.1521    2.8596 C   0  0  0  0  0  0  0  0  0  0  0  0
    5.1741   -2.8740    2.3798 C   0  0  0  0  0  0  0  0  0  0  0  0
    5.1968   -2.5870    0.8420 C   0  0  2  0  0  0  0  0  0  0  0  0
    6.3162   -1.4989    0.7363 C   0  0  0  0  0  0  0  0  0  0  0  0
    3.8412   -2.1418    0.2841 C   0  0  0  0  0  0  0  0  0  0  0  0
    2.7878   -2.9691    0.2967 C   0  0  0  0  0  0  0  0  0  0  0  0
    2.9512   -4.4763    0.4088 C   0  0  0  0  0  0  0  0  0  0  0  0
    4.4472   -4.9359    0.4615 C   0  0  2  0  0  0  0  0  0  0  0  0
    4.6154   -6.1203   -0.2856 O   0  0  0  0  0  0  0  0  0  0  0  0
    5.4687   -3.8294   -0.0354 C   0  0  1  0  0  0  0  0  0  0  0  0
    5.4910   -3.3815   -1.5679 C   0  0  1  0  0  0  0  0  0  0  0  0
    5.0139   -4.2737   -2.5358 O   0  0  0  0  0  0  0  0  0  0  0  0
    4.9504   -1.9765   -1.9330 C   0  0  2  0  0  0  0  0  0  0  0  0
    4.0050   -1.3086   -0.9429 C   0  0  1  0  0  0  0  0  0  0  0  0
    3.5604   -1.5959   -2.3838 C   0  0  0  0  0  0  0  0  0  0  0  0
    3.4447   -0.4093   -3.3335 C   0  0  0  0  0  0  0  0  0  0  0  0
    2.5420   -2.6410   -2.8168 C   0  0  0  0  0  0  0  0  0  0  0  0
    3.0761   -6.6117    2.4479 H   0  0  0  0  0  0  0  0  0  0  0  0
    4.4820   -6.8205    3.4848 H   0  0  0  0  0  0  0  0  0  0  0  0
    4.4863   -7.4996    1.8774 H   0  0  0  0  0  0  0  0  0  0  0  0
    5.8802   -5.5029    1.9767 H   0  0  0  0  0  0  0  0  0  0  0  0
    3.4058   -3.9838    2.9421 H   0  0  0  0  0  0  0  0  0  0  0  0
    4.8140   -4.3799    3.8750 H   0  0  0  0  0  0  0  0  0  0  0  0
    4.7651   -2.0173    2.9232 H   0  0  0  0  0  0  0  0  0  0  0  0
    6.2037   -2.9747    2.7238 H   0  0  0  0  0  0  0  0  0  0  0  0
    7.2496   -1.8325    1.1966 H   0  0  0  0  0  0  0  0  0  0  0  0
    6.0186   -0.5838    1.2535 H   0  0  0  0  0  0  0  0  0  0  0  0
    6.5990   -1.2062   -0.2695 H   0  0  0  0  0  0  0  0  0  0  0  0
    1.9086   -2.6730   -0.2481 H   0  0  0  0  0  0  0  0  0  0  0  0
    2.3425   -4.8494    1.2336 H   0  0  0  0  0  0  0  0  0  0  0  0
    2.4932   -4.8956   -0.4816 H   0  0  0  0  0  0  0  0  0  0  0  0
    4.2515   -6.0059   -1.1535 H   0  0  0  0  0  0  0  0  0  0  0  0
    6.4684   -4.2048    0.1971 H   0  0  0  0  0  0  0  0  0  0  0  0
    6.5540   -3.3227   -1.8037 H   0  0  0  0  0  0  0  0  0  0  0  0
    4.1109   -4.4967   -2.3566 H   0  0  0  0  0  0  0  0  0  0  0  0
    5.7299   -1.3508   -2.3314 H   0  0  0  0  0  0  0  0  0  0  0  0
    4.2626   -0.2946   -0.6819 H   0  0  0  0  0  0  0  0  0  0  0  0
    2.4677    0.0604   -3.2306 H   0  0  0  0  0  0  0  0  0  0  0  0
    3.5840   -0.7139   -4.3716 H   0  0  0  0  0  0  0  0  0  0  0  0
    4.1926    0.3426   -3.0909 H   0  0  0  0  0  0  0  0  0  0  0  0
    1.5350   -2.2608   -2.6574 H   0  0  0  0  0  0  0  0  0  0  0  0
    2.6420   -3.5592   -2.2529 H   0  0  0  0  0  0  0  0  0  0  0  0
    2.6542   -2.8792   -3.8774 H   0  0  0  0  0  0  0  0  0  0  0  0
  1  2  1  0
  1 20  1  0
  1 21  1  0
  1 22  1  0
  2 10  1  0
  2  3  1  0
  2 23  1  6
  3  4  1  0
  3 24  1  0
  3 25  1  0
  4  5  1  0
  4 26  1  0
  4 27  1  0
  5 12  1  0
  5  6  1  1
  5  7  1  0
  6 28  1  0
  6 29  1  0
  6 30  1  0
  7 16  1  0
  7  8  2  0
  8  9  1  0
  8 31  1  0
  9 10  1  0
  9 32  1  0
  9 33  1  0
 10 11  1  6
 10 12  1  0
 11 34  1  0
 12 13  1  0
 12 35  1  1
 13 14  1  0
 13 15  1  0
 13 36  1  6
 14 37  1  0
 15 17  1  0
 15 16  1  0
 15 38  1  6
 16 17  1  0
 16 39  1  1
 17 18  1  0
 17 19  1  0
 18 40  1  0
 18 41  1  0
 18 42  1  0
 19 43  1  0
 19 44  1  0
 19 45  1  0
M  END
>  <i_m_ct_stereo_status>  (167) 
1

>  <s_m_source_file>  (167) 
/var/tmp/pbs.5076255.sched01/tmpj5h_4zim/74m36hq9q5.sdf

>  <i_m_source_file_index>  (167) 
9

>  <i_lp_mmshare_version>  (167) 
48012

>  <i_f3d_flags>  (167) 
0

>  <s_epik_input>  (167) 
W0NIMl0xW0NIMl1bQ0BASF0oW0NIM10pW0NAQF0oW09IXSkoW0NIMl1bQ0hdMilbQ0BIXTNbQ0BASF0oW09IXSlbQ0BASF0oQzQoW0NIM10pW0NIM10pW0NAQEhdNEM9MltDQEBdMTNbQ0gzXQ==

>  <s_epik_cmdline>  (167) 
J2VwaWtfcHl0aG9uJywgJy1waHQnLCAnMi4wJywgJy1waCcsICc3LjAnLCAnLXRuJywgJzgnLCAnLW1hJywgJzIwMCcsICctaW1hZScsICc8aW5maWxlLm1hZT4nLCAnLW9tYWUnLCAnPG91dGZpbGUubWFlPic=

>  <r_lp_tautomer_probability>  (167) 
1

>  <r_epik_Ionization_Penalty>  (167) 
2.82435e-06

>  <r_epik_Ionization_Penalty_Charging>  (167) 
0

>  <r_epik_Ionization_Penalty_Neutral>  (167) 
2.82435e-06

>  <r_epik_State_Penalty>  (167) 
-0

>  <r_epik_Charging_Adjusted_Penalty>  (167) 
0

>  <i_epik_Tot_Q>  (167) 
0

>  <i_epik_Tot_abs_Q>  (167) 
0

>  <s_lp_Force_Field>  (167) 
OPLS3e

>  <r_lp_Energy>  (167) 
86.2285

>  <b_lp_Chiralities_Consistent>  (167) 
1

>  <s_lp_Variant>  (167) 
65:0-1

>  <s_i_glide_gridfile>  (167) 
pfpi4k_grid

>  <i_i_glide_lignum>  (167) 
9

>  <i_i_glide_rotatable_bonds>  (167) 
2

>  <r_i_docking_score>  (167) 
-4.12338

>  <r_i_glide_ligand_efficiency>  (167) 
-0.21702

>  <r_i_glide_ligand_efficiency_sa>  (167) 
-0.579097

>  <r_i_glide_ligand_efficiency_ln>  (167) 
-1.04537

>  <r_i_glide_gscore>  (167) 
-4.12338

>  <r_i_glide_lipo>  (167) 
-0.59715

>  <r_i_glide_hbond>  (167) 
0

>  <r_i_glide_metal>  (167) 
-0

>  <r_i_glide_rewards>  (167) 
-1.62009

>  <r_i_glide_evdw>  (167) 
-22.3105

>  <r_i_glide_ecoul>  (167) 
-5.27081

>  <r_i_glide_erotb>  (167) 
0

>  <r_i_glide_esite>  (167) 
0

>  <r_i_glide_emodel>  (167) 
-34.2612

>  <r_i_glide_energy>  (167) 
-27.5813

>  <r_i_glide_einternal>  (167) 
0.236049

>  <r_i_glide_intrahb_reward>  (167) 
-0

>  <i_i_glide_confnum>  (167) 
2

>  <i_i_glide_posenum>  (167) 
2

>  <r_i_glide_eff_state_penalty>  (167) 
0

>  <ligand_id>  (167) 
65

>  <original_smiles>  (167) 
CC1CCC2(C)C3=CCC1(O)C2C(O)C1C3C1(C)C

>  <smiles>  (167) 
[H]OC1([H])C2([H])C3(O[H])C([H])([H])C([H])=C(C4([H])C1([H])C4(C([H])([H])[H])C([H])([H])[H])C2(C([H])([H])[H])C([H])([H])C([H])([H])C3([H])C([H])([H])[H]

$$$$
65:0:1
     RDKit          3D

 45 48  0  0  1  0  0  0  0  0999 V2000
    3.8511   -1.4817   -3.8121 C   0  0  0  0  0  0  0  0  0  0  0  0
    3.8909   -1.4881   -2.2659 C   0  0  2  0  0  0  0  0  0  0  0  0
    5.2010   -0.8874   -1.7634 C   0  0  0  0  0  0  0  0  0  0  0  0
    5.2282   -0.7869   -0.2334 C   0  0  0  0  0  0  0  0  0  0  0  0
    4.6682   -1.9998    0.5756 C   0  0  2  0  0  0  0  0  0  0  0  0
    4.4603   -1.3734    1.9937 C   0  0  0  0  0  0  0  0  0  0  0  0
    5.5867   -3.2214    0.5710 C   0  0  0  0  0  0  0  0  0  0  0  0
    5.8633   -3.8621   -0.5771 C   0  0  0  0  0  0  0  0  0  0  0  0
    4.9640   -3.7457   -1.8015 C   0  0  0  0  0  0  0  0  0  0  0  0
    3.6901   -2.8681   -1.5704 C   0  0  2  0  0  0  0  0  0  0  0  0
    2.5759   -3.4461   -2.2318 O   0  0  0  0  0  0  0  0  0  0  0  0
    3.3831   -2.6113   -0.0328 C   0  0  1  0  0  0  0  0  0  0  0  0
    2.8901   -3.8222    0.8766 C   0  0  1  0  0  0  0  0  0  0  0  0
    2.2155   -4.8643    0.2041 O   0  0  0  0  0  0  0  0  0  0  0  0
    3.8697   -4.3739    1.9552 C   0  0  2  0  0  0  0  0  0  0  0  0
    5.3606   -4.0808    1.7636 C   0  0  1  0  0  0  0  0  0  0  0  0
    4.8532   -5.5232    1.8477 C   0  0  0  0  0  0  0  0  0  0  0  0
    5.1664   -6.2930    3.1245 C   0  0  0  0  0  0  0  0  0  0  0  0
    4.7765   -6.5131    0.7012 C   0  0  0  0  0  0  0  0  0  0  0  0
    4.6075   -2.1289   -4.2531 H   0  0  0  0  0  0  0  0  0  0  0  0
    4.0133   -0.4747   -4.1961 H   0  0  0  0  0  0  0  0  0  0  0  0
    2.8775   -1.7993   -4.1825 H   0  0  0  0  0  0  0  0  0  0  0  0
    3.0842   -0.8247   -1.9574 H   0  0  0  0  0  0  0  0  0  0  0  0
    6.0680   -1.4529   -2.1058 H   0  0  0  0  0  0  0  0  0  0  0  0
    5.3174    0.1037   -2.2010 H   0  0  0  0  0  0  0  0  0  0  0  0
    6.2401   -0.5413    0.1005 H   0  0  0  0  0  0  0  0  0  0  0  0
    4.6296    0.0948    0.0008 H   0  0  0  0  0  0  0  0  0  0  0  0
    3.8502   -0.4679    1.9465 H   0  0  0  0  0  0  0  0  0  0  0  0
    5.4183   -1.0869    2.4333 H   0  0  0  0  0  0  0  0  0  0  0  0
    3.9596   -2.0071    2.7203 H   0  0  0  0  0  0  0  0  0  0  0  0
    6.3527   -4.8141   -0.5055 H   0  0  0  0  0  0  0  0  0  0  0  0
    5.5514   -3.4693   -2.6771 H   0  0  0  0  0  0  0  0  0  0  0  0
    4.6327   -4.7530   -2.0161 H   0  0  0  0  0  0  0  0  0  0  0  0
    2.6920   -4.3877   -2.3245 H   0  0  0  0  0  0  0  0  0  0  0  0
    2.6124   -1.8469    0.0195 H   0  0  0  0  0  0  0  0  0  0  0  0
    2.0982   -3.3761    1.4793 H   0  0  0  0  0  0  0  0  0  0  0  0
    2.7954   -5.2235   -0.4551 H   0  0  0  0  0  0  0  0  0  0  0  0
    3.4829   -4.2305    2.9567 H   0  0  0  0  0  0  0  0  0  0  0  0
    5.9105   -3.7126    2.6181 H   0  0  0  0  0  0  0  0  0  0  0  0
    6.1418   -6.7750    3.0512 H   0  0  0  0  0  0  0  0  0  0  0  0
    4.4096   -7.0563    3.3113 H   0  0  0  0  0  0  0  0  0  0  0  0
    5.1810   -5.6239    3.9826 H   0  0  0  0  0  0  0  0  0  0  0  0
    5.7590   -6.9507    0.5265 H   0  0  0  0  0  0  0  0  0  0  0  0
    4.4382   -6.0395   -0.2118 H   0  0  0  0  0  0  0  0  0  0  0  0
    4.0674   -7.3092    0.9360 H   0  0  0  0  0  0  0  0  0  0  0  0
  1  2  1  0
  1 20  1  0
  1 21  1  0
  1 22  1  0
  2 10  1  0
  2  3  1  0
  2 23  1  1
  3  4  1  0
  3 24  1  0
  3 25  1  0
  4  5  1  0
  4 26  1  0
  4 27  1  0
  5 12  1  0
  5  6  1  1
  5  7  1  0
  6 28  1  0
  6 29  1  0
  6 30  1  0
  7 16  1  0
  7  8  2  0
  8  9  1  0
  8 31  1  0
  9 10  1  0
  9 32  1  0
  9 33  1  0
 10 11  1  6
 10 12  1  0
 11 34  1  0
 12 13  1  0
 12 35  1  6
 13 14  1  0
 13 15  1  0
 13 36  1  1
 14 37  1  0
 15 17  1  0
 15 16  1  0
 15 38  1  1
 16 17  1  0
 16 39  1  1
 17 18  1  0
 17 19  1  0
 18 40  1  0
 18 41  1  0
 18 42  1  0
 19 43  1  0
 19 44  1  0
 19 45  1  0
M  END
>  <i_m_ct_stereo_status>  (168) 
1

>  <s_m_source_file>  (168) 
/var/tmp/pbs.5076255.sched01/tmpj5h_4zim/74m36hq9q5.sdf

>  <i_m_source_file_index>  (168) 
9

>  <i_lp_mmshare_version>  (168) 
48012

>  <i_f3d_flags>  (168) 
0

>  <s_epik_input>  (168) 
W0NIMl0xW0NIMl1bQ0BASF0oW0NIM10pW0NAQF0oW09IXSkoW0NIMl1bQ0hdMilbQ0BIXTNbQ0BASF0oW09IXSlbQ0BASF0oQzQoW0NIM10pW0NIM10pW0NAQEhdNEM9MltDQEBdMTNbQ0gzXQ==

>  <s_epik_cmdline>  (168) 
J2VwaWtfcHl0aG9uJywgJy1waHQnLCAnMi4wJywgJy1waCcsICc3LjAnLCAnLXRuJywgJzgnLCAnLW1hJywgJzIwMCcsICctaW1hZScsICc8aW5maWxlLm1hZT4nLCAnLW9tYWUnLCAnPG91dGZpbGUubWFlPic=

>  <r_lp_tautomer_probability>  (168) 
1

>  <r_epik_Ionization_Penalty>  (168) 
2.82435e-06

>  <r_epik_Ionization_Penalty_Charging>  (168) 
0

>  <r_epik_Ionization_Penalty_Neutral>  (168) 
2.82435e-06

>  <r_epik_State_Penalty>  (168) 
-0

>  <r_epik_Charging_Adjusted_Penalty>  (168) 
0

>  <i_epik_Tot_Q>  (168) 
0

>  <i_epik_Tot_abs_Q>  (168) 
0

>  <s_lp_Force_Field>  (168) 
OPLS3e

>  <r_lp_Energy>  (168) 
86.2285

>  <b_lp_Chiralities_Consistent>  (168) 
1

>  <s_lp_Variant>  (168) 
65:0-1

>  <s_i_glide_gridfile>  (168) 
pfpi4k_grid

>  <i_i_glide_lignum>  (168) 
9

>  <i_i_glide_rotatable_bonds>  (168) 
2

>  <r_i_docking_score>  (168) 
-4.10118

>  <r_i_glide_ligand_efficiency>  (168) 
-0.215852

>  <r_i_glide_ligand_efficiency_sa>  (168) 
-0.575979

>  <r_i_glide_ligand_efficiency_ln>  (168) 
-1.03974

>  <r_i_glide_gscore>  (168) 
-4.10118

>  <r_i_glide_lipo>  (168) 
-0.471186

>  <r_i_glide_hbond>  (168) 
0

>  <r_i_glide_metal>  (168) 
-0

>  <r_i_glide_rewards>  (168) 
-1.62009

>  <r_i_glide_evdw>  (168) 
-21.6699

>  <r_i_glide_ecoul>  (168) 
-6.17609

>  <r_i_glide_erotb>  (168) 
0

>  <r_i_glide_esite>  (168) 
0

>  <r_i_glide_emodel>  (168) 
-33.8931

>  <r_i_glide_energy>  (168) 
-27.846

>  <r_i_glide_einternal>  (168) 
1.10589

>  <r_i_glide_intrahb_reward>  (168) 
-0

>  <i_i_glide_confnum>  (168) 
2

>  <i_i_glide_posenum>  (168) 
22

>  <r_i_glide_eff_state_penalty>  (168) 
0

>  <ligand_id>  (168) 
65

>  <original_smiles>  (168) 
CC1CCC2(C)C3=CCC1(O)C2C(O)C1C3C1(C)C

>  <smiles>  (168) 
[H]OC1([H])C2([H])C3(O[H])C([H])([H])C([H])=C(C4([H])C1([H])C4(C([H])([H])[H])C([H])([H])[H])C2(C([H])([H])[H])C([H])([H])C([H])([H])C3([H])C([H])([H])[H]

$$$$
65:0:2
     RDKit          3D

 45 48  0  0  1  0  0  0  0  0999 V2000
    3.6179   -1.5177   -3.4932 C   0  0  0  0  0  0  0  0  0  0  0  0
    3.7745   -1.4880   -1.9556 C   0  0  2  0  0  0  0  0  0  0  0  0
    5.1147   -0.8802   -1.5560 C   0  0  0  0  0  0  0  0  0  0  0  0
    5.2303   -0.7516   -0.0332 C   0  0  0  0  0  0  0  0  0  0  0  0
    4.7247   -1.9491    0.8367 C   0  0  2  0  0  0  0  0  0  0  0  0
    4.6171   -1.3001    2.2550 C   0  0  0  0  0  0  0  0  0  0  0  0
    5.6395   -3.1800    0.7893 C   0  0  0  0  0  0  0  0  0  0  0  0
    5.8401   -3.8441   -0.3609 C   0  0  0  0  0  0  0  0  0  0  0  0
    4.8593   -3.7459   -1.5194 C   0  0  0  0  0  0  0  0  0  0  0  0
    3.6111   -2.8436   -1.2098 C   0  0  2  0  0  0  0  0  0  0  0  0
    2.4366   -3.4151   -1.7461 O   0  0  0  0  0  0  0  0  0  0  0  0
    3.3979   -2.5672    0.3380 C   0  0  1  0  0  0  0  0  0  0  0  0
    2.9700   -3.7675    1.2974 C   0  0  1  0  0  0  0  0  0  0  0  0
    2.2553   -4.8287    0.6894 O   0  0  0  0  0  0  0  0  0  0  0  0
    4.0256   -4.3001    2.3143 C   0  0  2  0  0  0  0  0  0  0  0  0
    5.5064   -4.0128    2.0134 C   0  0  1  0  0  0  0  0  0  0  0  0
    5.0049   -5.4505    2.1595 C   0  0  0  0  0  0  0  0  0  0  0  0
    5.4065   -6.1977    3.4192 C   0  0  0  0  0  0  0  0  0  0  0  0
    4.8538   -6.4612    1.0330 C   0  0  0  0  0  0  0  0  0  0  0  0
    4.3430   -2.1707   -3.9760 H   0  0  0  0  0  0  0  0  0  0  0  0
    3.7500   -0.5163   -3.9009 H   0  0  0  0  0  0  0  0  0  0  0  0
    2.6198   -1.8405   -3.7893 H   0  0  0  0  0  0  0  0  0  0  0  0
    2.9987   -0.8096   -1.5996 H   0  0  0  0  0  0  0  0  0  0  0  0
    5.9545   -1.4532   -1.9481 H   0  0  0  0  0  0  0  0  0  0  0  0
    5.1931    0.1076   -2.0183 H   0  0  0  0  0  0  0  0  0  0  0  0
    6.2617   -0.5050    0.2337 H   0  0  0  0  0  0  0  0  0  0  0  0
    4.6434    0.1353    0.2173 H   0  0  0  0  0  0  0  0  0  0  0  0
    4.0038   -0.3962    2.2360 H   0  0  0  0  0  0  0  0  0  0  0  0
    5.6040   -1.0051    2.6209 H   0  0  0  0  0  0  0  0  0  0  0  0
    4.1682   -1.9185    3.0265 H   0  0  0  0  0  0  0  0  0  0  0  0
    6.3558   -4.7883   -0.3198 H   0  0  0  0  0  0  0  0  0  0  0  0
    5.3831   -3.4779   -2.4394 H   0  0  0  0  0  0  0  0  0  0  0  0
    4.5223   -4.7631   -1.6837 H   0  0  0  0  0  0  0  0  0  0  0  0
    1.7487   -2.7633   -1.6825 H   0  0  0  0  0  0  0  0  0  0  0  0
    2.6140   -1.8098    0.4225 H   0  0  0  0  0  0  0  0  0  0  0  0
    2.2137   -3.3192    1.9446 H   0  0  0  0  0  0  0  0  0  0  0  0
    2.7902   -5.1785   -0.0122 H   0  0  0  0  0  0  0  0  0  0  0  0
    3.7073   -4.1372    3.3415 H   0  0  0  0  0  0  0  0  0  0  0  0
    6.1066   -3.6233    2.8289 H   0  0  0  0  0  0  0  0  0  0  0  0
    6.3749   -6.6820    3.2853 H   0  0  0  0  0  0  0  0  0  0  0  0
    4.6636   -6.9581    3.6695 H   0  0  0  0  0  0  0  0  0  0  0  0
    5.4798   -5.5110    4.2633 H   0  0  0  0  0  0  0  0  0  0  0  0
    5.8224   -6.9099    0.8020 H   0  0  0  0  0  0  0  0  0  0  0  0
    4.4520   -6.0119    0.1301 H   0  0  0  0  0  0  0  0  0  0  0  0
    4.1652   -7.2563    1.3315 H   0  0  0  0  0  0  0  0  0  0  0  0
  1  2  1  0
  1 20  1  0
  1 21  1  0
  1 22  1  0
  2 10  1  0
  2  3  1  0
  2 23  1  1
  3  4  1  0
  3 24  1  0
  3 25  1  0
  4  5  1  0
  4 26  1  0
  4 27  1  0
  5 12  1  0
  5  6  1  1
  5  7  1  0
  6 28  1  0
  6 29  1  0
  6 30  1  0
  7 16  1  0
  7  8  2  0
  8  9  1  0
  8 31  1  0
  9 10  1  0
  9 32  1  0
  9 33  1  0
 10 11  1  6
 10 12  1  0
 11 34  1  0
 12 13  1  0
 12 35  1  6
 13 14  1  0
 13 15  1  0
 13 36  1  1
 14 37  1  0
 15 17  1  0
 15 16  1  0
 15 38  1  1
 16 17  1  0
 16 39  1  1
 17 18  1  0
 17 19  1  0
 18 40  1  0
 18 41  1  0
 18 42  1  0
 19 43  1  0
 19 44  1  0
 19 45  1  0
M  END
>  <i_m_ct_stereo_status>  (169) 
1

>  <s_m_source_file>  (169) 
/var/tmp/pbs.5076255.sched01/tmpj5h_4zim/74m36hq9q5.sdf

>  <i_m_source_file_index>  (169) 
9

>  <i_lp_mmshare_version>  (169) 
48012

>  <i_f3d_flags>  (169) 
0

>  <s_epik_input>  (169) 
W0NIMl0xW0NIMl1bQ0BASF0oW0NIM10pW0NAQF0oW09IXSkoW0NIMl1bQ0hdMilbQ0BIXTNbQ0BASF0oW09IXSlbQ0BASF0oQzQoW0NIM10pW0NIM10pW0NAQEhdNEM9MltDQEBdMTNbQ0gzXQ==

>  <s_epik_cmdline>  (169) 
J2VwaWtfcHl0aG9uJywgJy1waHQnLCAnMi4wJywgJy1waCcsICc3LjAnLCAnLXRuJywgJzgnLCAnLW1hJywgJzIwMCcsICctaW1hZScsICc8aW5maWxlLm1hZT4nLCAnLW9tYWUnLCAnPG91dGZpbGUubWFlPic=

>  <r_lp_tautomer_probability>  (169) 
1

>  <r_epik_Ionization_Penalty>  (169) 
2.82435e-06

>  <r_epik_Ionization_Penalty_Charging>  (169) 
0

>  <r_epik_Ionization_Penalty_Neutral>  (169) 
2.82435e-06

>  <r_epik_State_Penalty>  (169) 
-0

>  <r_epik_Charging_Adjusted_Penalty>  (169) 
0

>  <i_epik_Tot_Q>  (169) 
0

>  <i_epik_Tot_abs_Q>  (169) 
0

>  <s_lp_Force_Field>  (169) 
OPLS3e

>  <r_lp_Energy>  (169) 
86.2285

>  <b_lp_Chiralities_Consistent>  (169) 
1

>  <s_lp_Variant>  (169) 
65:0-1

>  <s_i_glide_gridfile>  (169) 
pfpi4k_grid

>  <i_i_glide_lignum>  (169) 
9

>  <i_i_glide_rotatable_bonds>  (169) 
2

>  <r_i_docking_score>  (169) 
-3.47321

>  <r_i_glide_ligand_efficiency>  (169) 
-0.1828

>  <r_i_glide_ligand_efficiency_sa>  (169) 
-0.487785

>  <r_i_glide_ligand_efficiency_ln>  (169) 
-0.880533

>  <r_i_glide_gscore>  (169) 
-3.47321

>  <r_i_glide_lipo>  (169) 
-0.544827

>  <r_i_glide_hbond>  (169) 
0

>  <r_i_glide_metal>  (169) 
-0

>  <r_i_glide_rewards>  (169) 
-1.62009

>  <r_i_glide_evdw>  (169) 
-21.5466

>  <r_i_glide_ecoul>  (169) 
-1.53976

>  <r_i_glide_erotb>  (169) 
0

>  <r_i_glide_esite>  (169) 
0

>  <r_i_glide_emodel>  (169) 
-28.7576

>  <r_i_glide_energy>  (169) 
-23.0864

>  <r_i_glide_einternal>  (169) 
0.149383

>  <r_i_glide_intrahb_reward>  (169) 
-0

>  <i_i_glide_confnum>  (169) 
2

>  <i_i_glide_posenum>  (169) 
5

>  <r_i_glide_eff_state_penalty>  (169) 
0

>  <ligand_id>  (169) 
65

>  <original_smiles>  (169) 
CC1CCC2(C)C3=CCC1(O)C2C(O)C1C3C1(C)C

>  <smiles>  (169) 
[H]OC1([H])C2([H])C3(O[H])C([H])([H])C([H])=C(C4([H])C1([H])C4(C([H])([H])[H])C([H])([H])[H])C2(C([H])([H])[H])C([H])([H])C([H])([H])C3([H])C([H])([H])[H]

$$$$
66:0:0
     RDKit          3D

 69 72  0  0  1  0  0  0  0  0999 V2000
    6.1667   -8.8611    2.3692 C   0  0  0  0  0  0  0  0  0  0  0  0
    4.9990   -8.2061    3.1716 C   0  0  2  0  0  0  0  0  0  0  0  0
    3.6669   -9.0264    2.9472 C   0  0  0  0  0  0  0  0  0  0  0  0
    2.4048   -8.3988    3.6492 C   0  0  0  0  0  0  0  0  0  0  0  0
    1.0547   -8.8168    3.0064 C   0  0  2  0  0  0  0  0  0  0  0  0
    0.9747   -8.2617    1.7061 O   0  0  0  0  0  0  0  0  0  0  0  0
   -0.2014   -8.3684    3.8231 C   0  0  0  0  0  0  0  0  0  0  0  0
   -0.2224   -6.8591    4.1565 C   0  0  0  0  0  0  0  0  0  0  0  0
   -1.5106   -8.7640    3.1151 C   0  0  0  0  0  0  0  0  0  0  0  0
   -0.1913   -9.0630    5.0561 O   0  0  0  0  0  0  0  0  0  0  0  0
    4.9042   -6.6443    2.9472 C   0  0  1  0  0  0  0  0  0  0  0  0
    4.5680   -6.1525    4.2618 O   0  0  0  0  0  0  0  0  0  0  0  0
    6.1337   -5.9088    2.3285 C   0  0  0  0  0  0  0  0  0  0  0  0
    5.1990   -4.8695    1.7174 C   0  0  1  0  0  0  0  0  0  0  0  0
    5.0818   -3.6213    2.6476 C   0  0  0  0  0  0  0  0  0  0  0  0
    5.2894   -4.3433    0.2736 C   0  0  2  0  0  0  0  0  0  0  0  0
    6.5027   -3.4513   -0.1088 C   0  0  0  0  0  0  0  0  0  0  0  0
    6.2862   -2.7894   -1.4693 C   0  0  0  0  0  0  0  0  0  0  0  0
    5.0423   -2.4024   -1.7784 C   0  0  0  0  0  0  0  0  0  0  0  0
    4.2871   -1.9873   -2.9439 C   0  0  0  0  0  0  0  0  0  0  0  0
    4.5483   -1.4740   -4.0334 O   0  0  0  0  0  0  0  0  0  0  0  0
    2.9950   -2.4185   -2.2551 C   0  0  0  0  0  0  0  0  0  0  0  0
    3.7987   -2.5467   -0.9128 C   0  0  2  0  0  0  0  0  0  0  0  0
    3.6662   -1.3651    0.0461 C   0  0  0  0  0  0  0  0  0  0  0  0
    3.8622   -3.9232   -0.2571 C   0  0  2  0  0  0  0  0  0  0  0  0
    2.6325   -4.2190    0.6925 C   0  0  0  0  0  0  0  0  0  0  0  0
    2.7696   -5.3008    1.8125 C   0  0  0  0  0  0  0  0  0  0  0  0
    4.1231   -5.9944    1.7473 C   0  0  2  0  0  0  0  0  0  0  0  0
    3.9852   -6.9585    0.5157 C   0  0  0  0  0  0  0  0  0  0  0  0
    5.9692   -8.8722    1.2965 H   0  0  0  0  0  0  0  0  0  0  0  0
    6.3360   -9.8950    2.6758 H   0  0  0  0  0  0  0  0  0  0  0  0
    7.1085   -8.3229    2.5309 H   0  0  0  0  0  0  0  0  0  0  0  0
    5.2868   -8.3644    4.2096 H   0  0  0  0  0  0  0  0  0  0  0  0
    3.4866   -9.1907    1.8906 H   0  0  0  0  0  0  0  0  0  0  0  0
    3.8086  -10.0288    3.3672 H   0  0  0  0  0  0  0  0  0  0  0  0
    2.4218   -8.6556    4.7058 H   0  0  0  0  0  0  0  0  0  0  0  0
    2.4163   -7.3139    3.6273 H   0  0  0  0  0  0  0  0  0  0  0  0
    1.0579   -9.9034    2.9046 H   0  0  0  0  0  0  0  0  0  0  0  0
    0.5473   -8.8997    1.1170 H   0  0  0  0  0  0  0  0  0  0  0  0
   -0.2028   -6.2493    3.2527 H   0  0  0  0  0  0  0  0  0  0  0  0
    0.6246   -6.5588    4.7746 H   0  0  0  0  0  0  0  0  0  0  0  0
   -1.1211   -6.5945    4.7171 H   0  0  0  0  0  0  0  0  0  0  0  0
   -1.5939   -8.3041    2.1284 H   0  0  0  0  0  0  0  0  0  0  0  0
   -2.3807   -8.4446    3.6893 H   0  0  0  0  0  0  0  0  0  0  0  0
   -1.5722   -9.8443    2.9813 H   0  0  0  0  0  0  0  0  0  0  0  0
   -0.7654   -9.8098    4.9933 H   0  0  0  0  0  0  0  0  0  0  0  0
    4.3091   -6.8855    4.7729 H   0  0  0  0  0  0  0  0  0  0  0  0
    6.8438   -5.5318    3.0818 H   0  0  0  0  0  0  0  0  0  0  0  0
    6.6508   -6.4387    1.5196 H   0  0  0  0  0  0  0  0  0  0  0  0
    6.0200   -3.0579    2.6710 H   0  0  0  0  0  0  0  0  0  0  0  0
    4.8752   -3.8726    3.6869 H   0  0  0  0  0  0  0  0  0  0  0  0
    4.2831   -2.9503    2.3424 H   0  0  0  0  0  0  0  0  0  0  0  0
    5.5537   -5.2107   -0.3262 H   0  0  0  0  0  0  0  0  0  0  0  0
    6.6480   -2.6593    0.6084 H   0  0  0  0  0  0  0  0  0  0  0  0
    7.4119   -4.0518   -0.1156 H   0  0  0  0  0  0  0  0  0  0  0  0
    7.1027   -2.7790   -2.1722 H   0  0  0  0  0  0  0  0  0  0  0  0
    2.2708   -1.6105   -2.2996 H   0  0  0  0  0  0  0  0  0  0  0  0
    2.5944   -3.3415   -2.6891 H   0  0  0  0  0  0  0  0  0  0  0  0
    2.6656   -1.3159    0.4846 H   0  0  0  0  0  0  0  0  0  0  0  0
    3.8195   -0.4267   -0.4760 H   0  0  0  0  0  0  0  0  0  0  0  0
    4.4022   -1.4024    0.8413 H   0  0  0  0  0  0  0  0  0  0  0  0
    3.7112   -4.6128   -1.0922 H   0  0  0  0  0  0  0  0  0  0  0  0
    2.2945   -3.3109    1.1841 H   0  0  0  0  0  0  0  0  0  0  0  0
    1.8179   -4.5228    0.0433 H   0  0  0  0  0  0  0  0  0  0  0  0
    2.6498   -4.8064    2.7833 H   0  0  0  0  0  0  0  0  0  0  0  0
    1.9383   -6.0009    1.7672 H   0  0  0  0  0  0  0  0  0  0  0  0
    3.6300   -6.4366   -0.3623 H   0  0  0  0  0  0  0  0  0  0  0  0
    3.2680   -7.7297    0.6985 H   0  0  0  0  0  0  0  0  0  0  0  0
    4.9515   -7.3806    0.2178 H   0  0  0  0  0  0  0  0  0  0  0  0
  1  2  1  0
  1 30  1  0
  1 31  1  0
  1 32  1  0
  2  3  1  0
  2 11  1  0
  2 33  1  1
  3  4  1  0
  3 34  1  0
  3 35  1  0
  4  5  1  0
  4 36  1  0
  4 37  1  0
  5  6  1  0
  5  7  1  0
  5 38  1  6
  6 39  1  0
  7  8  1  0
  7  9  1  0
  7 10  1  0
  8 40  1  0
  8 41  1  0
  8 42  1  0
  9 43  1  0
  9 44  1  0
  9 45  1  0
 10 46  1  0
 11 28  1  0
 11 12  1  1
 11 13  1  0
 12 47  1  0
 13 14  1  0
 13 48  1  0
 13 49  1  0
 14 28  1  0
 14 15  1  1
 14 16  1  0
 15 50  1  0
 15 51  1  0
 15 52  1  0
 16 25  1  0
 16 17  1  0
 16 53  1  6
 17 18  1  0
 17 54  1  0
 17 55  1  0
 18 19  2  0
 18 56  1  0
 19 23  1  0
 19 20  1  0
 20 21  2  0
 20 22  1  0
 22 23  1  0
 22 57  1  0
 22 58  1  0
 23 24  1  1
 23 25  1  0
 24 59  1  0
 24 60  1  0
 24 61  1  0
 25 26  1  0
 25 62  1  6
 26 27  1  0
 26 63  1  0
 26 64  1  0
 27 28  1  0
 27 65  1  0
 27 66  1  0
 28 29  1  6
 29 67  1  0
 29 68  1  0
 29 69  1  0
M  END
>  <i_m_ct_stereo_status>  (170) 
1

>  <s_m_source_file>  (170) 
/var/tmp/pbs.5076255.sched01/tmpj5h_4zim/74m36hq9q5.sdf

>  <i_m_source_file_index>  (170) 
10

>  <i_lp_mmshare_version>  (170) 
48012

>  <i_f3d_flags>  (170) 
0

>  <s_epik_input>  (170) 
W0NIM11DKFtDSDNdKShbT0hdKVtDQEBIXShbT0hdKVtDSDJdW0NIMl1bQ0BASF0oW0NIM10pW0NAQF0oW09IXSkoW0NIMl0xKVtDQEBdMihbQ0gzXSlbQ0gyXVtDSDJdW0NASF0oW0NAQEhdM1tDQF0xMltDSDNdKVtDQEBdNChbQ0gzXSlDKD1bQ0hdW0NIMl0zKUMoPU8pW0NIMl00

>  <s_epik_cmdline>  (170) 
J2VwaWtfcHl0aG9uJywgJy1waHQnLCAnMi4wJywgJy1waCcsICc3LjAnLCAnLXRuJywgJzgnLCAnLW1hJywgJzIwMCcsICctaW1hZScsICc8aW5maWxlLm1hZT4nLCAnLW9tYWUnLCAnPG91dGZpbGUubWFlPic=

>  <r_lp_tautomer_probability>  (170) 
1

>  <r_epik_Ionization_Penalty>  (170) 
3.45408e-06

>  <r_epik_Ionization_Penalty_Charging>  (170) 
0

>  <r_epik_Ionization_Penalty_Neutral>  (170) 
3.45408e-06

>  <r_epik_State_Penalty>  (170) 
-0

>  <r_epik_Charging_Adjusted_Penalty>  (170) 
0

>  <i_epik_Tot_Q>  (170) 
0

>  <i_epik_Tot_abs_Q>  (170) 
0

>  <s_lp_Force_Field>  (170) 
OPLS3e

>  <r_lp_Energy>  (170) 
75.2478

>  <b_lp_Chiralities_Consistent>  (170) 
1

>  <s_lp_Variant>  (170) 
66:0-1

>  <s_i_glide_gridfile>  (170) 
pfpi4k_grid

>  <i_i_glide_lignum>  (170) 
10

>  <i_i_glide_rotatable_bonds>  (170) 
8

>  <r_i_docking_score>  (170) 
-3.94481

>  <r_i_glide_ligand_efficiency>  (170) 
-0.136028

>  <r_i_glide_ligand_efficiency_sa>  (170) 
-0.417921

>  <r_i_glide_ligand_efficiency_ln>  (170) 
-0.903262

>  <r_i_glide_gscore>  (170) 
-3.94481

>  <r_i_glide_lipo>  (170) 
-0.453695

>  <r_i_glide_hbond>  (170) 
-0.525823

>  <r_i_glide_metal>  (170) 
-0

>  <r_i_glide_rewards>  (170) 
-0.753719

>  <r_i_glide_evdw>  (170) 
-26.7087

>  <r_i_glide_ecoul>  (170) 
-9.84136

>  <r_i_glide_erotb>  (170) 
0.600062

>  <r_i_glide_esite>  (170) 
0

>  <r_i_glide_emodel>  (170) 
-37.9049

>  <r_i_glide_energy>  (170) 
-36.5501

>  <r_i_glide_einternal>  (170) 
12.3982

>  <r_i_glide_intrahb_reward>  (170) 
-0

>  <i_i_glide_confnum>  (170) 
2

>  <i_i_glide_posenum>  (170) 
16

>  <r_i_glide_eff_state_penalty>  (170) 
0

>  <ligand_id>  (170) 
66

>  <original_smiles>  (170) 
CC(CCC(O)C(C)(C)O)C1(O)CC2(C)C3CC=C4C(=O)CC4(C)C3CCC21C

>  <smiles>  (170) 
[H]OC([H])(C([H])([H])C([H])([H])C([H])(C([H])([H])[H])C1(O[H])C([H])([H])C2(C([H])([H])[H])C3([H])C([H])([H])C([H])=C4C(=O)C([H])([H])C4(C([H])([H])[H])C3([H])C([H])([H])C([H])([H])C12C([H])([H])[H])C(O[H])(C([H])([H])[H])C([H])([H])[H]

$$$$
66:0:1
     RDKit          3D

 69 72  0  0  1  0  0  0  0  0999 V2000
    6.1738   -8.9130    2.3649 C   0  0  0  0  0  0  0  0  0  0  0  0
    5.0149   -8.2370    3.1559 C   0  0  2  0  0  0  0  0  0  0  0  0
    3.6804   -9.0503    2.9722 C   0  0  0  0  0  0  0  0  0  0  0  0
    2.4096   -8.4240    3.6600 C   0  0  0  0  0  0  0  0  0  0  0  0
    1.0650   -8.8397    3.0219 C   0  0  2  0  0  0  0  0  0  0  0  0
    0.9905   -8.2975    1.7051 O   0  0  0  0  0  0  0  0  0  0  0  0
   -0.1865   -8.3548    3.8232 C   0  0  0  0  0  0  0  0  0  0  0  0
   -0.1886   -6.8514    4.1741 C   0  0  0  0  0  0  0  0  0  0  0  0
   -1.5059   -8.7277    3.1113 C   0  0  0  0  0  0  0  0  0  0  0  0
   -0.1979   -9.0249    5.0647 O   0  0  0  0  0  0  0  0  0  0  0  0
    4.9346   -6.6799    2.9268 C   0  0  1  0  0  0  0  0  0  0  0  0
    4.6032   -6.2102    4.2345 O   0  0  0  0  0  0  0  0  0  0  0  0
    6.1461   -5.9283    2.3214 C   0  0  0  0  0  0  0  0  0  0  0  0
    5.2114   -4.8862    1.7274 C   0  0  1  0  0  0  0  0  0  0  0  0
    5.0896   -3.6350    2.6556 C   0  0  0  0  0  0  0  0  0  0  0  0
    5.3027   -4.3429    0.2911 C   0  0  2  0  0  0  0  0  0  0  0  0
    6.5183   -3.4507   -0.0873 C   0  0  0  0  0  0  0  0  0  0  0  0
    6.2977   -2.7879   -1.4569 C   0  0  0  0  0  0  0  0  0  0  0  0
    5.0284   -2.3972   -1.7696 C   0  0  0  0  0  0  0  0  0  0  0  0
    4.2688   -2.0088   -2.9195 C   0  0  0  0  0  0  0  0  0  0  0  0
    4.4895   -1.4643   -4.0109 O   0  0  0  0  0  0  0  0  0  0  0  0
    2.9786   -2.4394   -2.2318 C   0  0  0  0  0  0  0  0  0  0  0  0
    3.8116   -2.5678   -0.8791 C   0  0  2  0  0  0  0  0  0  0  0  0
    3.6833   -1.3808    0.0662 C   0  0  0  0  0  0  0  0  0  0  0  0
    3.8785   -3.9291   -0.2433 C   0  0  2  0  0  0  0  0  0  0  0  0
    2.6416   -4.2286    0.7038 C   0  0  0  0  0  0  0  0  0  0  0  0
    2.7837   -5.3189    1.8151 C   0  0  0  0  0  0  0  0  0  0  0  0
    4.1393   -6.0067    1.7523 C   0  0  2  0  0  0  0  0  0  0  0  0
    4.0070   -6.9569    0.5240 C   0  0  0  0  0  0  0  0  0  0  0  0
    5.9649   -8.9170    1.2910 H   0  0  0  0  0  0  0  0  0  0  0  0
    6.3142   -9.9465    2.6896 H   0  0  0  0  0  0  0  0  0  0  0  0
    7.1129   -8.3719    2.5275 H   0  0  0  0  0  0  0  0  0  0  0  0
    5.3020   -8.3733    4.1939 H   0  0  0  0  0  0  0  0  0  0  0  0
    3.4907   -9.2368    1.9004 H   0  0  0  0  0  0  0  0  0  0  0  0
    3.8238  -10.0394    3.4313 H   0  0  0  0  0  0  0  0  0  0  0  0
    2.4208   -8.6695    4.7175 H   0  0  0  0  0  0  0  0  0  0  0  0
    2.4296   -7.3499    3.6322 H   0  0  0  0  0  0  0  0  0  0  0  0
    1.0483   -9.9271    2.9160 H   0  0  0  0  0  0  0  0  0  0  0  0
    0.5695   -8.9132    1.1244 H   0  0  0  0  0  0  0  0  0  0  0  0
   -0.1558   -6.2312    3.2804 H   0  0  0  0  0  0  0  0  0  0  0  0
    0.6593   -6.5760    4.8025 H   0  0  0  0  0  0  0  0  0  0  0  0
   -1.0825   -6.5830    4.7357 H   0  0  0  0  0  0  0  0  0  0  0  0
   -1.5806   -8.2530    2.1306 H   0  0  0  0  0  0  0  0  0  0  0  0
   -2.3689   -8.4041    3.6919 H   0  0  0  0  0  0  0  0  0  0  0  0
   -1.5738   -9.8055    2.9644 H   0  0  0  0  0  0  0  0  0  0  0  0
   -0.7649   -9.7928    4.9829 H   0  0  0  0  0  0  0  0  0  0  0  0
    4.4082   -5.2912    4.1665 H   0  0  0  0  0  0  0  0  0  0  0  0
    6.8490   -5.5415    3.0876 H   0  0  0  0  0  0  0  0  0  0  0  0
    6.6847   -6.4494    1.5180 H   0  0  0  0  0  0  0  0  0  0  0  0
    6.0289   -3.0638    2.6801 H   0  0  0  0  0  0  0  0  0  0  0  0
    4.8865   -3.8821    3.7022 H   0  0  0  0  0  0  0  0  0  0  0  0
    4.2892   -2.9596    2.3541 H   0  0  0  0  0  0  0  0  0  0  0  0
    5.5721   -5.2022   -0.3189 H   0  0  0  0  0  0  0  0  0  0  0  0
    6.6618   -2.6508    0.6248 H   0  0  0  0  0  0  0  0  0  0  0  0
    7.4212   -4.0550   -0.1083 H   0  0  0  0  0  0  0  0  0  0  0  0
    7.1013   -2.7834   -2.1618 H   0  0  0  0  0  0  0  0  0  0  0  0
    2.2760   -1.6401   -2.2777 H   0  0  0  0  0  0  0  0  0  0  0  0
    2.5995   -3.3565   -2.6630 H   0  0  0  0  0  0  0  0  0  0  0  0
    2.6710   -1.3281    0.5119 H   0  0  0  0  0  0  0  0  0  0  0  0
    3.8332   -0.4445   -0.4565 H   0  0  0  0  0  0  0  0  0  0  0  0
    4.4242   -1.4280    0.8610 H   0  0  0  0  0  0  0  0  0  0  0  0
    3.7317   -4.6029   -1.0820 H   0  0  0  0  0  0  0  0  0  0  0  0
    2.2924   -3.3236    1.1905 H   0  0  0  0  0  0  0  0  0  0  0  0
    1.8294   -4.5476    0.0465 H   0  0  0  0  0  0  0  0  0  0  0  0
    2.6541   -4.8352    2.7951 H   0  0  0  0  0  0  0  0  0  0  0  0
    1.9571   -6.0217    1.7467 H   0  0  0  0  0  0  0  0  0  0  0  0
    3.6502   -6.4483   -0.3492 H   0  0  0  0  0  0  0  0  0  0  0  0
    3.2934   -7.7434    0.6989 H   0  0  0  0  0  0  0  0  0  0  0  0
    4.9667   -7.3757    0.2035 H   0  0  0  0  0  0  0  0  0  0  0  0
  1  2  1  0
  1 30  1  0
  1 31  1  0
  1 32  1  0
  2  3  1  0
  2 11  1  0
  2 33  1  1
  3  4  1  0
  3 34  1  0
  3 35  1  0
  4  5  1  0
  4 36  1  0
  4 37  1  0
  5  6  1  0
  5  7  1  0
  5 38  1  6
  6 39  1  0
  7  8  1  0
  7  9  1  0
  7 10  1  0
  8 40  1  0
  8 41  1  0
  8 42  1  0
  9 43  1  0
  9 44  1  0
  9 45  1  0
 10 46  1  0
 11 28  1  0
 11 12  1  1
 11 13  1  0
 12 47  1  0
 13 14  1  0
 13 48  1  0
 13 49  1  0
 14 28  1  0
 14 15  1  1
 14 16  1  0
 15 50  1  0
 15 51  1  0
 15 52  1  0
 16 25  1  0
 16 17  1  0
 16 53  1  6
 17 18  1  0
 17 54  1  0
 17 55  1  0
 18 19  2  0
 18 56  1  0
 19 23  1  0
 19 20  1  0
 20 21  2  0
 20 22  1  0
 22 23  1  0
 22 57  1  0
 22 58  1  0
 23 24  1  1
 23 25  1  0
 24 59  1  0
 24 60  1  0
 24 61  1  0
 25 26  1  0
 25 62  1  6
 26 27  1  0
 26 63  1  0
 26 64  1  0
 27 28  1  0
 27 65  1  0
 27 66  1  0
 28 29  1  6
 29 67  1  0
 29 68  1  0
 29 69  1  0
M  END
>  <i_m_ct_stereo_status>  (171) 
1

>  <s_m_source_file>  (171) 
/var/tmp/pbs.5076255.sched01/tmpj5h_4zim/74m36hq9q5.sdf

>  <i_m_source_file_index>  (171) 
10

>  <i_lp_mmshare_version>  (171) 
48012

>  <i_f3d_flags>  (171) 
0

>  <s_epik_input>  (171) 
W0NIM11DKFtDSDNdKShbT0hdKVtDQEBIXShbT0hdKVtDSDJdW0NIMl1bQ0BASF0oW0NIM10pW0NAQF0oW09IXSkoW0NIMl0xKVtDQEBdMihbQ0gzXSlbQ0gyXVtDSDJdW0NASF0oW0NAQEhdM1tDQF0xMltDSDNdKVtDQEBdNChbQ0gzXSlDKD1bQ0hdW0NIMl0zKUMoPU8pW0NIMl00

>  <s_epik_cmdline>  (171) 
J2VwaWtfcHl0aG9uJywgJy1waHQnLCAnMi4wJywgJy1waCcsICc3LjAnLCAnLXRuJywgJzgnLCAnLW1hJywgJzIwMCcsICctaW1hZScsICc8aW5maWxlLm1hZT4nLCAnLW9tYWUnLCAnPG91dGZpbGUubWFlPic=

>  <r_lp_tautomer_probability>  (171) 
1

>  <r_epik_Ionization_Penalty>  (171) 
3.45408e-06

>  <r_epik_Ionization_Penalty_Charging>  (171) 
0

>  <r_epik_Ionization_Penalty_Neutral>  (171) 
3.45408e-06

>  <r_epik_State_Penalty>  (171) 
-0

>  <r_epik_Charging_Adjusted_Penalty>  (171) 
0

>  <i_epik_Tot_Q>  (171) 
0

>  <i_epik_Tot_abs_Q>  (171) 
0

>  <s_lp_Force_Field>  (171) 
OPLS3e

>  <r_lp_Energy>  (171) 
75.2478

>  <b_lp_Chiralities_Consistent>  (171) 
1

>  <s_lp_Variant>  (171) 
66:0-1

>  <s_i_glide_gridfile>  (171) 
pfpi4k_grid

>  <i_i_glide_lignum>  (171) 
10

>  <i_i_glide_rotatable_bonds>  (171) 
8

>  <r_i_docking_score>  (171) 
-3.91756

>  <r_i_glide_ligand_efficiency>  (171) 
-0.135088

>  <r_i_glide_ligand_efficiency_sa>  (171) 
-0.415034

>  <r_i_glide_ligand_efficiency_ln>  (171) 
-0.897022

>  <r_i_glide_gscore>  (171) 
-3.91756

>  <r_i_glide_lipo>  (171) 
-0.457099

>  <r_i_glide_hbond>  (171) 
-0.514462

>  <r_i_glide_metal>  (171) 
-0

>  <r_i_glide_rewards>  (171) 
-0.755484

>  <r_i_glide_evdw>  (171) 
-26.9779

>  <r_i_glide_ecoul>  (171) 
-9.61121

>  <r_i_glide_erotb>  (171) 
0.600062

>  <r_i_glide_esite>  (171) 
0

>  <r_i_glide_emodel>  (171) 
-38.5328

>  <r_i_glide_energy>  (171) 
-36.5891

>  <r_i_glide_einternal>  (171) 
11.0691

>  <r_i_glide_intrahb_reward>  (171) 
-0

>  <i_i_glide_confnum>  (171) 
2

>  <i_i_glide_posenum>  (171) 
28

>  <r_i_glide_eff_state_penalty>  (171) 
0

>  <ligand_id>  (171) 
66

>  <original_smiles>  (171) 
CC(CCC(O)C(C)(C)O)C1(O)CC2(C)C3CC=C4C(=O)CC4(C)C3CCC21C

>  <smiles>  (171) 
[H]OC([H])(C([H])([H])C([H])([H])C([H])(C([H])([H])[H])C1(O[H])C([H])([H])C2(C([H])([H])[H])C3([H])C([H])([H])C([H])=C4C(=O)C([H])([H])C4(C([H])([H])[H])C3([H])C([H])([H])C([H])([H])C12C([H])([H])[H])C(O[H])(C([H])([H])[H])C([H])([H])[H]

$$$$
66:0:2
     RDKit          3D

 69 72  0  0  1  0  0  0  0  0999 V2000
    4.2585   -3.7144    3.2317 C   0  0  0  0  0  0  0  0  0  0  0  0
    3.4628   -2.9727    2.1246 C   0  0  2  0  0  0  0  0  0  0  0  0
    4.1060   -3.3034    0.7414 C   0  0  0  0  0  0  0  0  0  0  0  0
    3.4276   -2.6292   -0.4833 C   0  0  0  0  0  0  0  0  0  0  0  0
    4.2582   -2.6834   -1.7983 C   0  0  2  0  0  0  0  0  0  0  0  0
    5.3393   -1.7760   -1.5958 O   0  0  0  0  0  0  0  0  0  0  0  0
    3.4423   -2.2236   -3.0550 C   0  0  0  0  0  0  0  0  0  0  0  0
    2.0960   -2.9618   -3.2100 C   0  0  0  0  0  0  0  0  0  0  0  0
    3.2039   -0.7056   -3.1728 C   0  0  0  0  0  0  0  0  0  0  0  0
    4.2003   -2.6113   -4.1748 O   0  0  0  0  0  0  0  0  0  0  0  0
    3.2437   -1.4555    2.3990 C   0  0  1  0  0  0  0  0  0  0  0  0
    4.5423   -0.9208    2.1601 O   0  0  0  0  0  0  0  0  0  0  0  0
    2.0563   -0.7472    1.6757 C   0  0  0  0  0  0  0  0  0  0  0  0
    1.9346    0.2229    2.8307 C   0  0  1  0  0  0  0  0  0  0  0  0
    2.7418    1.5193    2.5167 C   0  0  0  0  0  0  0  0  0  0  0  0
    0.6162    0.6790    3.4499 C   0  0  2  0  0  0  0  0  0  0  0  0
   -0.3216    1.5822    2.5898 C   0  0  0  0  0  0  0  0  0  0  0  0
   -1.4180    2.1625    3.4439 C   0  0  0  0  0  0  0  0  0  0  0  0
   -1.0958    2.5337    4.6823 C   0  0  0  0  0  0  0  0  0  0  0  0
   -1.8386    2.8721    5.8401 C   0  0  0  0  0  0  0  0  0  0  0  0
   -3.0029    3.3038    5.9721 O   0  0  0  0  0  0  0  0  0  0  0  0
   -0.6292    2.4769    6.7183 C   0  0  0  0  0  0  0  0  0  0  0  0
    0.2329    2.3996    5.4035 C   0  0  2  0  0  0  0  0  0  0  0  0
    1.0937    3.6255    5.0800 C   0  0  0  0  0  0  0  0  0  0  0  0
    0.8407    1.0472    4.9740 C   0  0  2  0  0  0  0  0  0  0  0  0
    2.2863    0.7804    5.5733 C   0  0  0  0  0  0  0  0  0  0  0  0
    3.2268   -0.2638    4.8816 C   0  0  0  0  0  0  0  0  0  0  0  0
    2.5414   -0.9300    3.6984 C   0  0  2  0  0  0  0  0  0  0  0  0
    1.5705   -1.9972    4.3114 C   0  0  0  0  0  0  0  0  0  0  0  0
    5.3345   -3.5217    3.1469 H   0  0  0  0  0  0  0  0  0  0  0  0
    4.1059   -4.7917    3.1261 H   0  0  0  0  0  0  0  0  0  0  0  0
    3.9756   -3.4475    4.2492 H   0  0  0  0  0  0  0  0  0  0  0  0
    2.4661   -3.4169    2.1061 H   0  0  0  0  0  0  0  0  0  0  0  0
    5.1665   -3.0378    0.7584 H   0  0  0  0  0  0  0  0  0  0  0  0
    4.0949   -4.3947    0.6115 H   0  0  0  0  0  0  0  0  0  0  0  0
    2.4630   -3.1455   -0.5880 H   0  0  0  0  0  0  0  0  0  0  0  0
    3.2532   -1.5877   -0.3533 H   0  0  0  0  0  0  0  0  0  0  0  0
    4.6690   -3.6944   -1.9554 H   0  0  0  0  0  0  0  0  0  0  0  0
    4.9736   -0.9426   -1.3570 H   0  0  0  0  0  0  0  0  0  0  0  0
    1.3968   -2.7158   -2.4120 H   0  0  0  0  0  0  0  0  0  0  0  0
    2.2265   -4.0405   -3.2146 H   0  0  0  0  0  0  0  0  0  0  0  0
    1.5870   -2.6852   -4.1364 H   0  0  0  0  0  0  0  0  0  0  0  0
    2.6340   -0.3272   -2.3249 H   0  0  0  0  0  0  0  0  0  0  0  0
    2.6221   -0.4668   -4.0677 H   0  0  0  0  0  0  0  0  0  0  0  0
    4.1323   -0.1371   -3.2471 H   0  0  0  0  0  0  0  0  0  0  0  0
    4.3642   -3.5282   -4.0755 H   0  0  0  0  0  0  0  0  0  0  0  0
    4.4702   -0.0049    2.2698 H   0  0  0  0  0  0  0  0  0  0  0  0
    2.2592   -0.1832    0.7691 H   0  0  0  0  0  0  0  0  0  0  0  0
    1.1921   -1.4092    1.5580 H   0  0  0  0  0  0  0  0  0  0  0  0
    2.2859    2.0852    1.7035 H   0  0  0  0  0  0  0  0  0  0  0  0
    3.7431    1.3162    2.1680 H   0  0  0  0  0  0  0  0  0  0  0  0
    2.8558    2.1838    3.3649 H   0  0  0  0  0  0  0  0  0  0  0  0
   -0.0072   -0.2072    3.4780 H   0  0  0  0  0  0  0  0  0  0  0  0
    0.1927    2.4276    2.1455 H   0  0  0  0  0  0  0  0  0  0  0  0
   -0.7553    1.0067    1.7733 H   0  0  0  0  0  0  0  0  0  0  0  0
   -2.4402    2.1754    3.0792 H   0  0  0  0  0  0  0  0  0  0  0  0
   -0.2621    3.2420    7.4011 H   0  0  0  0  0  0  0  0  0  0  0  0
   -0.7039    1.5205    7.2447 H   0  0  0  0  0  0  0  0  0  0  0  0
    1.9702    3.6919    5.7290 H   0  0  0  0  0  0  0  0  0  0  0  0
    0.5298    4.5425    5.2430 H   0  0  0  0  0  0  0  0  0  0  0  0
    1.4183    3.6438    4.0381 H   0  0  0  0  0  0  0  0  0  0  0  0
    0.2152    0.3038    5.4723 H   0  0  0  0  0  0  0  0  0  0  0  0
    2.8385    1.7182    5.6464 H   0  0  0  0  0  0  0  0  0  0  0  0
    2.1465    0.4586    6.5994 H   0  0  0  0  0  0  0  0  0  0  0  0
    4.1024    0.2805    4.5280 H   0  0  0  0  0  0  0  0  0  0  0  0
    3.6181   -0.9945    5.5882 H   0  0  0  0  0  0  0  0  0  0  0  0
    0.9599   -1.5926    5.1148 H   0  0  0  0  0  0  0  0  0  0  0  0
    2.0917   -2.8380    4.7578 H   0  0  0  0  0  0  0  0  0  0  0  0
    0.8902   -2.3921    3.5558 H   0  0  0  0  0  0  0  0  0  0  0  0
  1  2  1  0
  1 30  1  0
  1 31  1  0
  1 32  1  0
  2  3  1  0
  2 11  1  0
  2 33  1  6
  3  4  1  0
  3 34  1  0
  3 35  1  0
  4  5  1  0
  4 36  1  0
  4 37  1  0
  5  6  1  0
  5  7  1  0
  5 38  1  6
  6 39  1  0
  7  8  1  0
  7  9  1  0
  7 10  1  0
  8 40  1  0
  8 41  1  0
  8 42  1  0
  9 43  1  0
  9 44  1  0
  9 45  1  0
 10 46  1  0
 11 28  1  0
 11 12  1  6
 11 13  1  0
 12 47  1  0
 13 14  1  0
 13 48  1  0
 13 49  1  0
 14 28  1  0
 14 15  1  6
 14 16  1  0
 15 50  1  0
 15 51  1  0
 15 52  1  0
 16 25  1  0
 16 17  1  0
 16 53  1  1
 17 18  1  0
 17 54  1  0
 17 55  1  0
 18 19  2  0
 18 56  1  0
 19 23  1  0
 19 20  1  0
 20 21  2  0
 20 22  1  0
 22 23  1  0
 22 57  1  0
 22 58  1  0
 23 24  1  1
 23 25  1  0
 24 59  1  0
 24 60  1  0
 24 61  1  0
 25 26  1  0
 25 62  1  1
 26 27  1  0
 26 63  1  0
 26 64  1  0
 27 28  1  0
 27 65  1  0
 27 66  1  0
 28 29  1  1
 29 67  1  0
 29 68  1  0
 29 69  1  0
M  END
>  <i_m_ct_stereo_status>  (172) 
1

>  <s_m_source_file>  (172) 
/var/tmp/pbs.5076255.sched01/tmpj5h_4zim/74m36hq9q5.sdf

>  <i_m_source_file_index>  (172) 
10

>  <i_lp_mmshare_version>  (172) 
48012

>  <i_f3d_flags>  (172) 
0

>  <s_epik_input>  (172) 
W0NIM11DKFtDSDNdKShbT0hdKVtDQEBIXShbT0hdKVtDSDJdW0NIMl1bQ0BASF0oW0NIM10pW0NAQF0oW09IXSkoW0NIMl0xKVtDQEBdMihbQ0gzXSlbQ0gyXVtDSDJdW0NASF0oW0NAQEhdM1tDQF0xMltDSDNdKVtDQEBdNChbQ0gzXSlDKD1bQ0hdW0NIMl0zKUMoPU8pW0NIMl00

>  <s_epik_cmdline>  (172) 
J2VwaWtfcHl0aG9uJywgJy1waHQnLCAnMi4wJywgJy1waCcsICc3LjAnLCAnLXRuJywgJzgnLCAnLW1hJywgJzIwMCcsICctaW1hZScsICc8aW5maWxlLm1hZT4nLCAnLW9tYWUnLCAnPG91dGZpbGUubWFlPic=

>  <r_lp_tautomer_probability>  (172) 
1

>  <r_epik_Ionization_Penalty>  (172) 
3.45408e-06

>  <r_epik_Ionization_Penalty_Charging>  (172) 
0

>  <r_epik_Ionization_Penalty_Neutral>  (172) 
3.45408e-06

>  <r_epik_State_Penalty>  (172) 
-0

>  <r_epik_Charging_Adjusted_Penalty>  (172) 
0

>  <i_epik_Tot_Q>  (172) 
0

>  <i_epik_Tot_abs_Q>  (172) 
0

>  <s_lp_Force_Field>  (172) 
OPLS3e

>  <r_lp_Energy>  (172) 
75.2478

>  <b_lp_Chiralities_Consistent>  (172) 
1

>  <s_lp_Variant>  (172) 
66:0-1

>  <s_i_glide_gridfile>  (172) 
pfpi4k_grid

>  <i_i_glide_lignum>  (172) 
10

>  <i_i_glide_rotatable_bonds>  (172) 
8

>  <r_i_docking_score>  (172) 
-2.92154

>  <r_i_glide_ligand_efficiency>  (172) 
-0.100743

>  <r_i_glide_ligand_efficiency_sa>  (172) 
-0.309513

>  <r_i_glide_ligand_efficiency_ln>  (172) 
-0.668958

>  <r_i_glide_gscore>  (172) 
-2.92154

>  <r_i_glide_lipo>  (172) 
-0.33154

>  <r_i_glide_hbond>  (172) 
0

>  <r_i_glide_metal>  (172) 
-0

>  <r_i_glide_rewards>  (172) 
-0.712251

>  <r_i_glide_evdw>  (172) 
-26.6615

>  <r_i_glide_ecoul>  (172) 
-7.63157

>  <r_i_glide_erotb>  (172) 
0.600062

>  <r_i_glide_esite>  (172) 
0

>  <r_i_glide_emodel>  (172) 
-37.132

>  <r_i_glide_energy>  (172) 
-34.293

>  <r_i_glide_einternal>  (172) 
6.27828

>  <r_i_glide_intrahb_reward>  (172) 
-0

>  <i_i_glide_confnum>  (172) 
5

>  <i_i_glide_posenum>  (172) 
34

>  <r_i_glide_eff_state_penalty>  (172) 
0

>  <ligand_id>  (172) 
66

>  <original_smiles>  (172) 
CC(CCC(O)C(C)(C)O)C1(O)CC2(C)C3CC=C4C(=O)CC4(C)C3CCC21C

>  <smiles>  (172) 
[H]OC([H])(C([H])([H])C([H])([H])C([H])(C([H])([H])[H])C1(O[H])C([H])([H])C2(C([H])([H])[H])C3([H])C([H])([H])C([H])=C4C(=O)C([H])([H])C4(C([H])([H])[H])C3([H])C([H])([H])C([H])([H])C12C([H])([H])[H])C(O[H])(C([H])([H])[H])C([H])([H])[H]

$$$$
67:0:0
     RDKit          3D

 94101  0  0  1  0  0  0  0  0999 V2000
    0.1532   -0.5751    9.9360 C   0  0  0  0  0  0  0  0  0  0  0  0
    0.1371   -1.1796    8.6429 O   0  0  0  0  0  0  0  0  0  0  0  0
    0.6023   -0.3361    7.5880 C   0  0  2  0  0  0  0  0  0  0  0  0
   -0.5698    0.5940    7.1489 C   0  0  2  0  0  0  0  0  0  0  0  0
   -1.3190    0.0147    5.9279 C   0  0  0  0  0  0  0  0  0  0  0  0
   -0.4298   -0.1888    4.7047 C   0  0  0  0  0  0  0  0  0  0  0  0
    1.0467   -0.4937    5.0428 C   0  0  1  0  0  0  0  0  0  0  0  0
    2.0438    0.6465    4.7325 C   0  0  1  0  0  0  0  0  0  0  0  0
    1.9968    1.1138    3.2606 C   0  0  0  0  0  0  0  0  0  0  0  0
    2.1173    1.8128    5.7258 C   0  0  0  0  0  0  0  0  0  0  0  0
    0.8319    2.6089    6.0655 C   0  0  1  0  0  0  0  0  0  0  0  0
    0.0214    3.0102    4.9718 O   0  0  0  0  0  0  0  0  0  0  0  0
   -1.2217    3.3157    5.3459 C   0  0  0  0  0  0  0  0  0  0  0  0
   -2.1470    3.7233    4.6574 O   0  0  0  0  0  0  0  0  0  0  0  0
   -1.3100    3.1119    6.8453 C   0  0  1  0  0  0  0  0  0  0  0  0
   -2.7259    2.8254    7.4018 C   0  0  0  0  0  0  0  0  0  0  0  0
   -0.1796    2.1128    7.1273 C   0  0  1  0  0  0  0  0  0  0  0  0
    1.1764   -1.2292    6.4225 C   0  0  1  0  0  0  0  0  0  0  0  0
    2.5061   -2.0510    6.7296 C   0  0  1  0  0  0  0  0  0  0  0  0
    3.5998   -1.1253    7.3737 C   0  0  0  0  0  0  0  0  0  0  0  0
    2.1791   -3.1797    7.7880 C   0  0  0  0  0  0  0  0  0  0  0  0
    2.8729   -4.5619    7.5944 C   0  0  0  0  0  0  0  0  0  0  0  0
    4.0658   -4.5354    6.6802 C   0  0  0  0  0  0  0  0  0  0  0  0
    4.3666   -3.4772    5.9092 C   0  0  0  0  0  0  0  0  0  0  0  0
    5.5325   -3.7174    4.9977 C   0  0  0  0  0  0  0  0  0  0  0  0
    5.8409   -5.2021    5.2340 C   0  0  0  0  0  0  0  0  0  0  0  0
    4.5625   -5.7263    5.9290 C   0  0  2  0  0  0  0  0  0  0  0  0
    3.4544   -6.1489    4.8898 C   0  0  0  0  0  0  0  0  0  0  0  0
    2.7068   -5.0713    3.9674 C   0  0  1  0  0  0  0  0  0  0  0  0
    2.1959   -3.7575    4.6903 C   0  0  0  0  0  0  0  0  0  0  0  0
    3.1511   -2.7394    5.4629 C   0  0  1  0  0  0  0  0  0  0  0  0
    3.5457   -4.7200    2.7710 N   0  0  0  0  0  0  0  0  0  0  0  0
    3.0440   -5.4273    1.5326 C   0  0  1  0  0  0  0  0  0  0  0  0
    4.1426   -6.0407    0.6589 C   0  0  0  0  0  0  0  0  0  0  0  0
    2.1279   -6.4798    2.0950 C   0  0  2  0  0  0  0  0  0  0  0  0
    0.9486   -7.1865    1.4284 C   0  0  0  0  0  0  0  0  0  0  0  0
    0.0535   -7.3883    2.6460 C   0  0  0  0  0  0  0  0  0  0  0  0
   -1.1117   -8.3385    2.5419 C   0  0  0  0  0  0  0  0  0  0  0  0
    0.4288   -6.6060    3.6821 C   0  0  0  0  0  0  0  0  0  0  0  0
    1.4979   -5.6767    3.1951 C   0  0  1  0  0  0  0  0  0  0  0  0
   -0.2389   -1.2755   10.6752 H   0  0  0  0  0  0  0  0  0  0  0  0
   -0.4622    0.3243    9.9791 H   0  0  0  0  0  0  0  0  0  0  0  0
    1.1682   -0.3083   10.2354 H   0  0  0  0  0  0  0  0  0  0  0  0
    1.3783    0.3028    8.0028 H   0  0  0  0  0  0  0  0  0  0  0  0
   -1.3037    0.5579    7.9493 H   0  0  0  0  0  0  0  0  0  0  0  0
   -1.7056   -0.9655    6.2092 H   0  0  0  0  0  0  0  0  0  0  0  0
   -2.1884    0.6007    5.6449 H   0  0  0  0  0  0  0  0  0  0  0  0
   -0.8477   -1.0078    4.1182 H   0  0  0  0  0  0  0  0  0  0  0  0
   -0.5189    0.6861    4.0702 H   0  0  0  0  0  0  0  0  0  0  0  0
    1.2955   -1.1972    4.2663 H   0  0  0  0  0  0  0  0  0  0  0  0
    3.0249    0.1876    4.8075 H   0  0  0  0  0  0  0  0  0  0  0  0
    1.1150    1.7039    3.0255 H   0  0  0  0  0  0  0  0  0  0  0  0
    2.0141    0.2706    2.5709 H   0  0  0  0  0  0  0  0  0  0  0  0
    2.8621    1.7331    3.0206 H   0  0  0  0  0  0  0  0  0  0  0  0
    2.5798    1.4766    6.6548 H   0  0  0  0  0  0  0  0  0  0  0  0
    2.8406    2.5223    5.3237 H   0  0  0  0  0  0  0  0  0  0  0  0
    1.2099    3.5503    6.4650 H   0  0  0  0  0  0  0  0  0  0  0  0
   -1.0015    4.0616    7.2763 H   0  0  0  0  0  0  0  0  0  0  0  0
   -3.3670    3.6942    7.2472 H   0  0  0  0  0  0  0  0  0  0  0  0
   -2.6954    2.6304    8.4730 H   0  0  0  0  0  0  0  0  0  0  0  0
   -3.2187    1.9881    6.9110 H   0  0  0  0  0  0  0  0  0  0  0  0
    0.2388    2.3377    8.1148 H   0  0  0  0  0  0  0  0  0  0  0  0
    0.4278   -2.0143    6.2971 H   0  0  0  0  0  0  0  0  0  0  0  0
    4.4376   -1.6984    7.7673 H   0  0  0  0  0  0  0  0  0  0  0  0
    3.2559   -0.5596    8.2362 H   0  0  0  0  0  0  0  0  0  0  0  0
    4.0210   -0.4192    6.6641 H   0  0  0  0  0  0  0  0  0  0  0  0
    2.4470   -2.8144    8.7774 H   0  0  0  0  0  0  0  0  0  0  0  0
    1.1063   -3.3583    7.8608 H   0  0  0  0  0  0  0  0  0  0  0  0
    3.1792   -4.9814    8.5556 H   0  0  0  0  0  0  0  0  0  0  0  0
    2.1470   -5.2548    7.1775 H   0  0  0  0  0  0  0  0  0  0  0  0
    5.3187   -3.4743    3.9561 H   0  0  0  0  0  0  0  0  0  0  0  0
    6.3613   -3.0845    5.3145 H   0  0  0  0  0  0  0  0  0  0  0  0
    6.1367   -5.7626    4.3427 H   0  0  0  0  0  0  0  0  0  0  0  0
    6.6703   -5.2736    5.9457 H   0  0  0  0  0  0  0  0  0  0  0  0
    4.7865   -6.5415    6.6278 H   0  0  0  0  0  0  0  0  0  0  0  0
    3.8933   -6.9337    4.2769 H   0  0  0  0  0  0  0  0  0  0  0  0
    2.6744   -6.6506    5.4585 H   0  0  0  0  0  0  0  0  0  0  0  0
    1.6597   -3.1965    3.9357 H   0  0  0  0  0  0  0  0  0  0  0  0
    1.4141   -4.0773    5.3780 H   0  0  0  0  0  0  0  0  0  0  0  0
    3.5212   -1.9828    4.7680 H   0  0  0  0  0  0  0  0  0  0  0  0
    3.4466   -3.7445    2.5744 H   0  0  0  0  0  0  0  0  0  0  0  0
    2.4493   -4.7373    0.9291 H   0  0  0  0  0  0  0  0  0  0  0  0
    3.6788   -6.5999   -0.1684 H   0  0  0  0  0  0  0  0  0  0  0  0
    4.7647   -6.7609    1.2044 H   0  0  0  0  0  0  0  0  0  0  0  0
    4.7925   -5.2882    0.2033 H   0  0  0  0  0  0  0  0  0  0  0  0
    2.7348   -7.2735    2.5330 H   0  0  0  0  0  0  0  0  0  0  0  0
    0.4587   -6.5728    0.6761 H   0  0  0  0  0  0  0  0  0  0  0  0
    1.2495   -8.1351    0.9820 H   0  0  0  0  0  0  0  0  0  0  0  0
   -1.7632   -8.0341    1.7169 H   0  0  0  0  0  0  0  0  0  0  0  0
   -1.7065   -8.3668    3.4570 H   0  0  0  0  0  0  0  0  0  0  0  0
   -0.7570   -9.3499    2.3145 H   0  0  0  0  0  0  0  0  0  0  0  0
   -0.0779   -6.5438    4.6377 H   0  0  0  0  0  0  0  0  0  0  0  0
    0.9245   -4.8555    2.7469 H   0  0  0  0  0  0  0  0  0  0  0  0
    4.5061   -4.9572    2.9242 H   0  0  0  0  0  0  0  0  0  0  0  0
  1  2  1  0
  1 41  1  0
  1 42  1  0
  1 43  1  0
  2  3  1  0
  3 18  1  0
  3  4  1  0
  3 44  1  1
  4 17  1  0
  4  5  1  0
  4 45  1  1
  5  6  1  0
  5 46  1  0
  5 47  1  0
  6  7  1  0
  6 48  1  0
  6 49  1  0
  7  8  1  0
  7 18  1  0
  7 50  1  6
  8  9  1  0
  8 10  1  0
  8 51  1  6
  9 52  1  0
  9 53  1  0
  9 54  1  0
 10 11  1  0
 10 55  1  0
 10 56  1  0
 11 17  1  0
 11 12  1  0
 11 57  1  1
 12 13  1  0
 13 14  2  0
 13 15  1  0
 15 16  1  0
 15 17  1  0
 15 58  1  1
 16 59  1  0
 16 60  1  0
 16 61  1  0
 17 62  1  1
 18 19  1  0
 18 63  1  6
 19 31  1  0
 19 20  1  1
 19 21  1  0
 20 64  1  0
 20 65  1  0
 20 66  1  0
 21 22  1  0
 21 67  1  0
 21 68  1  0
 22 23  1  0
 22 69  1  0
 22 70  1  0
 23 27  1  0
 23 24  2  0
 24 31  1  0
 24 25  1  0
 25 26  1  0
 25 71  1  0
 25 72  1  0
 26 27  1  0
 26 73  1  0
 26 74  1  0
 27 28  1  0
 27 75  1  1
 29 28  1  1
 28 76  1  0
 28 77  1  0
 29 40  1  0
 29 30  1  0
 29 32  1  0
 30 31  1  0
 30 78  1  0
 30 79  1  0
 31 80  1  6
 32 33  1  0
 32 81  1  0
 32 94  1  0
 33 34  1  0
 33 35  1  0
 33 82  1  6
 34 83  1  0
 34 84  1  0
 34 85  1  0
 35 40  1  0
 35 36  1  0
 35 86  1  1
 36 37  1  0
 36 87  1  0
 36 88  1  0
 37 38  1  0
 37 39  2  0
 38 89  1  0
 38 90  1  0
 38 91  1  0
 39 40  1  0
 39 92  1  0
 40 93  1  6
M  CHG  1  32   1
M  END
>  <i_m_ct_stereo_status>  (173) 
1

>  <s_m_source_file>  (173) 
/var/tmp/pbs.5076255.sched01/tmpj5h_4zim/74m36hq9q5.sdf

>  <i_m_source_file_index>  (173) 
11

>  <i_lp_mmshare_version>  (173) 
48012

>  <i_f3d_flags>  (173) 
0

>  <s_epik_input>  (173) 
W0NIM11bQ0BASF0xQyg9TylPW0NAQEhdKFtDQEBIXTFbQ0BIXTIzKVtDSDJdW0NASF0oW0NIM10pW0NIXShbQ0gyXVtDSDJdMylbQ0BIXShbQ0BASF0yT1tDSDNdKVtDQEBdKFtDSDNdKShbQ0gyXVtDSDJdNClbQ0BIXShbQ0gyXTUpQyhbQ0gyXVtDSDJdNik9QzRbQ0BIXTZbQ0gyXVtDQEBdNTdbQ0BIXThbQ0BIXShbQ0BASF0oW05IXTcpW0NIM10pW0NIMl1DKFtDSDNdKT1bQ0hdOA==

>  <s_epik_cmdline>  (173) 
J2VwaWtfcHl0aG9uJywgJy1waHQnLCAnMi4wJywgJy1waCcsICc3LjAnLCAnLXRuJywgJzgnLCAnLW1hJywgJzIwMCcsICctaW1hZScsICc8aW5maWxlLm1hZT4nLCAnLW9tYWUnLCAnPG91dGZpbGUubWFlPic=

>  <r_lp_tautomer_probability>  (173) 
1

>  <r_epik_Ionization_Penalty>  (173) 
2.09793e-05

>  <r_epik_Ionization_Penalty_Charging>  (173) 
2.09793e-05

>  <r_epik_Ionization_Penalty_Neutral>  (173) 
2.68603e-11

>  <r_epik_State_Penalty>  (173) 
-0

>  <r_epik_Charging_Adjusted_Penalty>  (173) 
2.09793e-05

>  <i_epik_Tot_Q>  (173) 
1

>  <i_epik_Tot_abs_Q>  (173) 
1

>  <s_epik_Chemistry_Notes>  (173) 
This compound has an ester and may undergo hydrolysis at high or low pH.

>  <s_lp_Force_Field>  (173) 
OPLS3e

>  <r_lp_Energy>  (173) 
110.514

>  <b_lp_Chiralities_Consistent>  (173) 
1

>  <s_lp_Variant>  (173) 
67:0-1

>  <s_i_glide_gridfile>  (173) 
pfpi4k_grid

>  <i_i_glide_lignum>  (173) 
11

>  <i_i_glide_rotatable_bonds>  (173) 
2

>  <r_i_docking_score>  (173) 
-2.04837

>  <r_i_glide_ligand_efficiency>  (173) 
-0.0512092

>  <r_i_glide_ligand_efficiency_sa>  (173) 
-0.175133

>  <r_i_glide_ligand_efficiency_ln>  (173) 
-0.436857

>  <r_i_glide_gscore>  (173) 
-2.04837

>  <r_i_glide_lipo>  (173) 
-0.304033

>  <r_i_glide_hbond>  (173) 
-0.0784503

>  <r_i_glide_metal>  (173) 
-0

>  <r_i_glide_rewards>  (173) 
0

>  <r_i_glide_evdw>  (173) 
-23.4586

>  <r_i_glide_ecoul>  (173) 
-3.67515

>  <r_i_glide_erotb>  (173) 
0.068804

>  <r_i_glide_esite>  (173) 
-0.0104866

>  <r_i_glide_emodel>  (173) 
-29.7155

>  <r_i_glide_energy>  (173) 
-27.1338

>  <r_i_glide_einternal>  (173) 
0.692691

>  <r_i_glide_intrahb_reward>  (173) 
-0

>  <i_i_glide_confnum>  (173) 
3

>  <i_i_glide_posenum>  (173) 
2

>  <r_i_glide_eff_state_penalty>  (173) 
0

>  <ligand_id>  (173) 
67

>  <original_smiles>  (173) 
COC1C2CCC(C(C)CC3OC(=O)C(C)C32)C1C1(C)CCC2=C3CCC2CC2(CC31)NC(C)C1CC(C)=CC12

>  <smiles>  (173) 
[H]C1=C(C([H])([H])[H])C([H])([H])C2([H])C1([H])C1(C([H])([H])C3([H])C4=C(C([H])([H])C3([H])[H])C([H])(C1([H])[H])C(C([H])([H])[H])(C1([H])C([H])(OC([H])([H])[H])C3([H])C([H])([H])C([H])([H])C1([H])C([H])(C([H])([H])[H])C([H])([H])C1([H])OC(=O)C([H])(C([H])([H])[H])C13[H])C([H])([H])C4([H])[H])[N+]([H])([H])C2([H])C([H])([H])[H]

$$$$
67:0:1
     RDKit          3D

 94101  0  0  1  0  0  0  0  0999 V2000
    0.7347   -1.1782    9.0678 C   0  0  0  0  0  0  0  0  0  0  0  0
    1.0942   -2.1721    8.1159 O   0  0  0  0  0  0  0  0  0  0  0  0
    2.5000   -2.3759    7.9676 C   0  0  2  0  0  0  0  0  0  0  0  0
    3.0264   -1.2985    6.9711 C   0  0  2  0  0  0  0  0  0  0  0  0
    3.0988   -1.8573    5.5357 C   0  0  0  0  0  0  0  0  0  0  0  0
    4.0188   -3.0701    5.3949 C   0  0  0  0  0  0  0  0  0  0  0  0
    4.0936   -3.9660    6.6555 C   0  0  1  0  0  0  0  0  0  0  0  0
    5.4490   -3.8630    7.4100 C   0  0  1  0  0  0  0  0  0  0  0  0
    6.6795   -4.1925    6.5402 C   0  0  0  0  0  0  0  0  0  0  0  0
    5.6803   -2.6267    8.3105 C   0  0  0  0  0  0  0  0  0  0  0  0
    5.5958   -1.2013    7.7076 C   0  0  1  0  0  0  0  0  0  0  0  0
    6.2696   -0.9880    6.4784 O   0  0  0  0  0  0  0  0  0  0  0  0
    5.8181    0.0928    5.8368 C   0  0  0  0  0  0  0  0  0  0  0  0
    6.2173    0.5361    4.7655 O   0  0  0  0  0  0  0  0  0  0  0  0
    4.7144    0.7110    6.6828 C   0  0  1  0  0  0  0  0  0  0  0  0
    3.6855    1.5536    5.9032 C   0  0  0  0  0  0  0  0  0  0  0  0
    4.2394   -0.4812    7.5289 C   0  0  1  0  0  0  0  0  0  0  0  0
    2.7765   -3.8576    7.5015 C   0  0  1  0  0  0  0  0  0  0  0  0
    2.4768   -5.0057    8.5640 C   0  0  1  0  0  0  0  0  0  0  0  0
    3.2785   -4.7930    9.8943 C   0  0  0  0  0  0  0  0  0  0  0  0
    0.9485   -4.9633    8.9497 C   0  0  0  0  0  0  0  0  0  0  0  0
    0.1998   -6.3100    9.1325 C   0  0  0  0  0  0  0  0  0  0  0  0
    1.1276   -7.4895    9.3263 C   0  0  0  0  0  0  0  0  0  0  0  0
    2.4307   -7.4334    9.1046 C   0  0  0  0  0  0  0  0  0  0  0  0
    3.1291   -8.7612    9.2593 C   0  0  0  0  0  0  0  0  0  0  0  0
    1.9399   -9.7015    9.4746 C   0  0  0  0  0  0  0  0  0  0  0  0
    0.7184   -8.8855    9.0001 C   0  0  2  0  0  0  0  0  0  0  0  0
    0.4891   -8.9931    7.4445 C   0  0  0  0  0  0  0  0  0  0  0  0
    1.5278   -8.3572    6.4017 C   0  0  1  0  0  0  0  0  0  0  0  0
    2.0402   -6.8747    6.7005 C   0  0  0  0  0  0  0  0  0  0  0  0
    2.8114   -6.4566    8.0320 C   0  0  1  0  0  0  0  0  0  0  0  0
    2.6832   -9.2962    6.1582 N   0  0  0  0  0  0  0  0  0  0  0  0
    2.5342  -10.0341    4.8543 C   0  0  1  0  0  0  0  0  0  0  0  0
    2.8841  -11.5271    4.9231 C   0  0  0  0  0  0  0  0  0  0  0  0
    1.0863   -9.7979    4.5162 C   0  0  2  0  0  0  0  0  0  0  0  0
    0.4322   -9.8382    3.1360 C   0  0  0  0  0  0  0  0  0  0  0  0
   -0.6459   -8.7888    3.3371 C   0  0  0  0  0  0  0  0  0  0  0  0
   -1.7810   -8.6949    2.3421 C   0  0  0  0  0  0  0  0  0  0  0  0
   -0.4032   -8.0179    4.4212 C   0  0  0  0  0  0  0  0  0  0  0  0
    0.9652   -8.3659    4.9486 C   0  0  1  0  0  0  0  0  0  0  0  0
   -0.3498   -1.1029    9.1139 H   0  0  0  0  0  0  0  0  0  0  0  0
    1.1243   -0.1967    8.8001 H   0  0  0  0  0  0  0  0  0  0  0  0
    1.0906   -1.4383   10.0649 H   0  0  0  0  0  0  0  0  0  0  0  0
    2.9527   -2.2002    8.9398 H   0  0  0  0  0  0  0  0  0  0  0  0
    2.2405   -0.5504    6.9000 H   0  0  0  0  0  0  0  0  0  0  0  0
    2.0889   -2.1644    5.2526 H   0  0  0  0  0  0  0  0  0  0  0  0
    3.3840   -1.1042    4.8047 H   0  0  0  0  0  0  0  0  0  0  0  0
    3.6646   -3.6638    4.5522 H   0  0  0  0  0  0  0  0  0  0  0  0
    5.0021   -2.7260    5.0909 H   0  0  0  0  0  0  0  0  0  0  0  0
    4.1195   -4.9723    6.2456 H   0  0  0  0  0  0  0  0  0  0  0  0
    5.4446   -4.7090    8.0895 H   0  0  0  0  0  0  0  0  0  0  0  0
    6.9304   -3.4010    5.8406 H   0  0  0  0  0  0  0  0  0  0  0  0
    6.5256   -5.1058    5.9683 H   0  0  0  0  0  0  0  0  0  0  0  0
    7.5593   -4.3535    7.1636 H   0  0  0  0  0  0  0  0  0  0  0  0
    5.0374   -2.6820    9.1892 H   0  0  0  0  0  0  0  0  0  0  0  0
    6.6818   -2.7304    8.7325 H   0  0  0  0  0  0  0  0  0  0  0  0
    6.1370   -0.5827    8.4243 H   0  0  0  0  0  0  0  0  0  0  0  0
    5.2312    1.3935    7.3530 H   0  0  0  0  0  0  0  0  0  0  0  0
    4.1688    2.4334    5.4742 H   0  0  0  0  0  0  0  0  0  0  0  0
    2.8936    1.9085    6.5622 H   0  0  0  0  0  0  0  0  0  0  0  0
    3.2217    1.0205    5.0721 H   0  0  0  0  0  0  0  0  0  0  0  0
    3.9265   -0.0955    8.5020 H   0  0  0  0  0  0  0  0  0  0  0  0
    2.0171   -4.0341    6.7390 H   0  0  0  0  0  0  0  0  0  0  0  0
    2.9198   -5.4396   10.6959 H   0  0  0  0  0  0  0  0  0  0  0  0
    3.1956   -3.7875   10.2977 H   0  0  0  0  0  0  0  0  0  0  0  0
    4.3353   -5.0213    9.8050 H   0  0  0  0  0  0  0  0  0  0  0  0
    0.8334   -4.3832    9.8648 H   0  0  0  0  0  0  0  0  0  0  0  0
    0.3750   -4.4173    8.2046 H   0  0  0  0  0  0  0  0  0  0  0  0
   -0.4759   -6.2475    9.9833 H   0  0  0  0  0  0  0  0  0  0  0  0
   -0.4141   -6.4910    8.2522 H   0  0  0  0  0  0  0  0  0  0  0  0
    3.7290   -9.0198    8.3920 H   0  0  0  0  0  0  0  0  0  0  0  0
    3.7918   -8.7530   10.1268 H   0  0  0  0  0  0  0  0  0  0  0  0
    2.0508  -10.6568    8.9636 H   0  0  0  0  0  0  0  0  0  0  0  0
    1.8346   -9.9115   10.5425 H   0  0  0  0  0  0  0  0  0  0  0  0
   -0.1830   -9.1391    9.5586 H   0  0  0  0  0  0  0  0  0  0  0  0
    0.3407  -10.0514    7.2310 H   0  0  0  0  0  0  0  0  0  0  0  0
   -0.4768   -8.5422    7.2390 H   0  0  0  0  0  0  0  0  0  0  0  0
    2.6637   -6.5458    5.8726 H   0  0  0  0  0  0  0  0  0  0  0  0
    1.1577   -6.2470    6.6079 H   0  0  0  0  0  0  0  0  0  0  0  0
    3.8883   -6.5668    7.8948 H   0  0  0  0  0  0  0  0  0  0  0  0
    3.5354   -8.7523    6.0907 H   0  0  0  0  0  0  0  0  0  0  0  0
    3.1607   -9.5492    4.1005 H   0  0  0  0  0  0  0  0  0  0  0  0
    2.6690  -11.9872    3.9523 H   0  0  0  0  0  0  0  0  0  0  0  0
    2.2828  -12.0464    5.6736 H   0  0  0  0  0  0  0  0  0  0  0  0
    3.9406  -11.6976    5.1501 H   0  0  0  0  0  0  0  0  0  0  0  0
    0.4723  -10.4357    5.1495 H   0  0  0  0  0  0  0  0  0  0  0  0
    1.1110   -9.5552    2.3311 H   0  0  0  0  0  0  0  0  0  0  0  0
    0.0171  -10.8232    2.9172 H   0  0  0  0  0  0  0  0  0  0  0  0
   -1.3638   -8.5251    1.3466 H   0  0  0  0  0  0  0  0  0  0  0  0
   -2.4624   -7.8803    2.5793 H   0  0  0  0  0  0  0  0  0  0  0  0
   -2.3302   -9.6390    2.3172 H   0  0  0  0  0  0  0  0  0  0  0  0
   -0.9967   -7.1893    4.7599 H   0  0  0  0  0  0  0  0  0  0  0  0
    1.6255   -7.7588    4.3175 H   0  0  0  0  0  0  0  0  0  0  0  0
    2.7468   -9.9628    6.9155 H   0  0  0  0  0  0  0  0  0  0  0  0
  1  2  1  0
  1 41  1  0
  1 42  1  0
  1 43  1  0
  2  3  1  0
  3 18  1  0
  3  4  1  0
  3 44  1  1
  4 17  1  0
  4  5  1  0
  4 45  1  6
  5  6  1  0
  5 46  1  0
  5 47  1  0
  6  7  1  0
  6 48  1  0
  6 49  1  0
  7  8  1  0
  7 18  1  0
  7 50  1  6
  8  9  1  0
  8 10  1  0
  8 51  1  1
  9 52  1  0
  9 53  1  0
  9 54  1  0
 10 11  1  0
 10 55  1  0
 10 56  1  0
 11 17  1  0
 11 12  1  0
 11 57  1  1
 12 13  1  0
 13 14  2  0
 13 15  1  0
 15 16  1  0
 15 17  1  0
 15 58  1  1
 16 59  1  0
 16 60  1  0
 16 61  1  0
 17 62  1  1
 18 19  1  0
 18 63  1  6
 19 31  1  0
 19 20  1  1
 19 21  1  0
 20 64  1  0
 20 65  1  0
 20 66  1  0
 21 22  1  0
 21 67  1  0
 21 68  1  0
 22 23  1  0
 22 69  1  0
 22 70  1  0
 23 27  1  0
 23 24  2  0
 24 31  1  0
 24 25  1  0
 25 26  1  0
 25 71  1  0
 25 72  1  0
 26 27  1  0
 26 73  1  0
 26 74  1  0
 27 28  1  0
 27 75  1  1
 29 28  1  1
 28 76  1  0
 28 77  1  0
 29 40  1  0
 29 30  1  0
 29 32  1  0
 30 31  1  0
 30 78  1  0
 30 79  1  0
 31 80  1  6
 32 33  1  0
 32 81  1  0
 32 94  1  0
 33 34  1  0
 33 35  1  0
 33 82  1  6
 34 83  1  0
 34 84  1  0
 34 85  1  0
 35 40  1  0
 35 36  1  0
 35 86  1  1
 36 37  1  0
 36 87  1  0
 36 88  1  0
 37 38  1  0
 37 39  2  0
 38 89  1  0
 38 90  1  0
 38 91  1  0
 39 40  1  0
 39 92  1  0
 40 93  1  6
M  CHG  1  32   1
M  END
>  <i_m_ct_stereo_status>  (174) 
1

>  <s_m_source_file>  (174) 
/var/tmp/pbs.5076255.sched01/tmpj5h_4zim/74m36hq9q5.sdf

>  <i_m_source_file_index>  (174) 
11

>  <i_lp_mmshare_version>  (174) 
48012

>  <i_f3d_flags>  (174) 
0

>  <s_epik_input>  (174) 
W0NIM11bQ0BASF0xQyg9TylPW0NAQEhdKFtDQEBIXTFbQ0BIXTIzKVtDSDJdW0NASF0oW0NIM10pW0NIXShbQ0gyXVtDSDJdMylbQ0BIXShbQ0BASF0yT1tDSDNdKVtDQEBdKFtDSDNdKShbQ0gyXVtDSDJdNClbQ0BIXShbQ0gyXTUpQyhbQ0gyXVtDSDJdNik9QzRbQ0BIXTZbQ0gyXVtDQEBdNTdbQ0BIXThbQ0BIXShbQ0BASF0oW05IXTcpW0NIM10pW0NIMl1DKFtDSDNdKT1bQ0hdOA==

>  <s_epik_cmdline>  (174) 
J2VwaWtfcHl0aG9uJywgJy1waHQnLCAnMi4wJywgJy1waCcsICc3LjAnLCAnLXRuJywgJzgnLCAnLW1hJywgJzIwMCcsICctaW1hZScsICc8aW5maWxlLm1hZT4nLCAnLW9tYWUnLCAnPG91dGZpbGUubWFlPic=

>  <r_lp_tautomer_probability>  (174) 
1

>  <r_epik_Ionization_Penalty>  (174) 
2.09793e-05

>  <r_epik_Ionization_Penalty_Charging>  (174) 
2.09793e-05

>  <r_epik_Ionization_Penalty_Neutral>  (174) 
2.68603e-11

>  <r_epik_State_Penalty>  (174) 
-0

>  <r_epik_Charging_Adjusted_Penalty>  (174) 
2.09793e-05

>  <i_epik_Tot_Q>  (174) 
1

>  <i_epik_Tot_abs_Q>  (174) 
1

>  <s_epik_Chemistry_Notes>  (174) 
This compound has an ester and may undergo hydrolysis at high or low pH.

>  <s_lp_Force_Field>  (174) 
OPLS3e

>  <r_lp_Energy>  (174) 
110.514

>  <b_lp_Chiralities_Consistent>  (174) 
1

>  <s_lp_Variant>  (174) 
67:0-1

>  <s_i_glide_gridfile>  (174) 
pfpi4k_grid

>  <i_i_glide_lignum>  (174) 
11

>  <i_i_glide_rotatable_bonds>  (174) 
2

>  <r_i_docking_score>  (174) 
-1.76424

>  <r_i_glide_ligand_efficiency>  (174) 
-0.0441061

>  <r_i_glide_ligand_efficiency_sa>  (174) 
-0.150841

>  <r_i_glide_ligand_efficiency_ln>  (174) 
-0.376261

>  <r_i_glide_gscore>  (174) 
-1.76424

>  <r_i_glide_lipo>  (174) 
-0.258798

>  <r_i_glide_hbond>  (174) 
0

>  <r_i_glide_metal>  (174) 
-0

>  <r_i_glide_rewards>  (174) 
-0.0830491

>  <r_i_glide_evdw>  (174) 
-21.8486

>  <r_i_glide_ecoul>  (174) 
-2.44077

>  <r_i_glide_erotb>  (174) 
0.068804

>  <r_i_glide_esite>  (174) 
-0.0326524

>  <r_i_glide_emodel>  (174) 
-26.7811

>  <r_i_glide_energy>  (174) 
-24.2894

>  <r_i_glide_einternal>  (174) 
0.00631516

>  <r_i_glide_intrahb_reward>  (174) 
-0

>  <i_i_glide_confnum>  (174) 
3

>  <i_i_glide_posenum>  (174) 
34

>  <r_i_glide_eff_state_penalty>  (174) 
0

>  <ligand_id>  (174) 
67

>  <original_smiles>  (174) 
COC1C2CCC(C(C)CC3OC(=O)C(C)C32)C1C1(C)CCC2=C3CCC2CC2(CC31)NC(C)C1CC(C)=CC12

>  <smiles>  (174) 
[H]C1=C(C([H])([H])[H])C([H])([H])C2([H])C1([H])C1(C([H])([H])C3([H])C4=C(C([H])([H])C3([H])[H])C([H])(C1([H])[H])C(C([H])([H])[H])(C1([H])C([H])(OC([H])([H])[H])C3([H])C([H])([H])C([H])([H])C1([H])C([H])(C([H])([H])[H])C([H])([H])C1([H])OC(=O)C([H])(C([H])([H])[H])C13[H])C([H])([H])C4([H])[H])[N+]([H])([H])C2([H])C([H])([H])[H]

$$$$
67:0:2
     RDKit          3D

 94101  0  0  1  0  0  0  0  0999 V2000
   -0.1959    0.2605    8.6523 C   0  0  0  0  0  0  0  0  0  0  0  0
   -0.0081   -0.4566    7.4316 O   0  0  0  0  0  0  0  0  0  0  0  0
    0.5243    0.3006    6.3426 C   0  0  2  0  0  0  0  0  0  0  0  0
   -0.6167    1.1948    5.7946 C   0  0  2  0  0  0  0  0  0  0  0  0
   -1.3462    0.5418    4.6199 C   0  0  0  0  0  0  0  0  0  0  0  0
   -0.4394    0.2797    3.4363 C   0  0  0  0  0  0  0  0  0  0  0  0
    1.0220   -0.0135    3.8123 C   0  0  1  0  0  0  0  0  0  0  0  0
    2.0097    1.1027    3.4288 C   0  0  1  0  0  0  0  0  0  0  0  0
    1.9475    1.4855    1.9361 C   0  0  0  0  0  0  0  0  0  0  0  0
    2.0742    2.3353    4.3491 C   0  0  0  0  0  0  0  0  0  0  0  0
    0.7945    3.1479    4.6056 C   0  0  1  0  0  0  0  0  0  0  0  0
   -0.0402    3.4541    3.5016 O   0  0  0  0  0  0  0  0  0  0  0  0
   -1.2657    3.7603    3.8845 C   0  0  0  0  0  0  0  0  0  0  0  0
   -2.2071    4.1451    3.1927 O   0  0  0  0  0  0  0  0  0  0  0  0
   -1.3346    3.6369    5.3992 C   0  0  1  0  0  0  0  0  0  0  0  0
   -2.7039    3.3270    5.9796 C   0  0  0  0  0  0  0  0  0  0  0  0
   -0.1862    2.6869    5.7103 C   0  0  1  0  0  0  0  0  0  0  0  0
    1.1228   -0.6530    5.2377 C   0  0  1  0  0  0  0  0  0  0  0  0
    2.4613   -1.4419    5.6004 C   0  0  1  0  0  0  0  0  0  0  0  0
    3.5845   -0.4677    6.0929 C   0  0  0  0  0  0  0  0  0  0  0  0
    2.1511   -2.4547    6.7734 C   0  0  0  0  0  0  0  0  0  0  0  0
    2.8435   -3.8548    6.7280 C   0  0  0  0  0  0  0  0  0  0  0  0
    4.0129   -3.9446    5.7698 C   0  0  0  0  0  0  0  0  0  0  0  0
    4.2539   -3.0084    4.8544 C   0  0  0  0  0  0  0  0  0  0  0  0
    5.3933   -3.3299    3.9469 C   0  0  0  0  0  0  0  0  0  0  0  0
    5.7322   -4.7692    4.3545 C   0  0  0  0  0  0  0  0  0  0  0  0
    4.4988   -5.2144    5.1644 C   0  0  2  0  0  0  0  0  0  0  0  0
    3.3618   -5.7436    4.2118 C   0  0  0  0  0  0  0  0  0  0  0  0
    2.6136   -4.7507    3.2130 C   0  0  1  0  0  0  0  0  0  0  0  0
    2.0748   -3.3512    3.7744 C   0  0  0  0  0  0  0  0  0  0  0  0
    3.0568   -2.2768    4.3941 C   0  0  1  0  0  0  0  0  0  0  0  0
    3.3792   -4.5407    1.9367 N   0  0  0  0  0  0  0  0  0  0  0  0
    2.8999   -5.3748    0.8210 C   0  0  1  0  0  0  0  0  0  0  0  0
    4.0587   -6.0308    0.0661 C   0  0  0  0  0  0  0  0  0  0  0  0
    1.9904   -6.3600    1.5290 C   0  0  2  0  0  0  0  0  0  0  0  0
    0.7780   -7.1236    0.9576 C   0  0  0  0  0  0  0  0  0  0  0  0
   -0.0570   -7.2126    2.2226 C   0  0  0  0  0  0  0  0  0  0  0  0
   -1.2092   -8.2014    2.3070 C   0  0  0  0  0  0  0  0  0  0  0  0
    0.3232   -6.3321    3.1655 C   0  0  0  0  0  0  0  0  0  0  0  0
    1.4080   -5.4611    2.5870 C   0  0  1  0  0  0  0  0  0  0  0  0
   -0.4851   -0.4508    9.4293 H   0  0  0  0  0  0  0  0  0  0  0  0
   -1.0051    0.9899    8.5870 H   0  0  0  0  0  0  0  0  0  0  0  0
    0.7051    0.7749    8.9940 H   0  0  0  0  0  0  0  0  0  0  0  0
    1.2964    0.9500    6.7384 H   0  0  0  0  0  0  0  0  0  0  0  0
   -1.4231    1.1954    6.5181 H   0  0  0  0  0  0  0  0  0  0  0  0
   -1.7224   -0.4168    4.9722 H   0  0  0  0  0  0  0  0  0  0  0  0
   -2.2256    1.0889    4.2865 H   0  0  0  0  0  0  0  0  0  0  0  0
   -0.8206   -0.5868    2.9234 H   0  0  0  0  0  0  0  0  0  0  0  0
   -0.5328    1.1126    2.7512 H   0  0  0  0  0  0  0  0  0  0  0  0
    1.2751   -0.7780    3.0851 H   0  0  0  0  0  0  0  0  0  0  0  0
    2.9906    0.6495    3.5117 H   0  0  0  0  0  0  0  0  0  0  0  0
    1.0663    2.0622    1.6645 H   0  0  0  0  0  0  0  0  0  0  0  0
    1.9842    0.6105    1.2825 H   0  0  0  0  0  0  0  0  0  0  0  0
    2.8027    2.0974    1.6758 H   0  0  0  0  0  0  0  0  0  0  0  0
    2.5277    2.0526    5.2981 H   0  0  0  0  0  0  0  0  0  0  0  0
    2.7848    3.0203    3.8895 H   0  0  0  0  0  0  0  0  0  0  0  0
    1.1444    4.1197    4.9658 H   0  0  0  0  0  0  0  0  0  0  0  0
   -1.0687    4.6305    5.7324 H   0  0  0  0  0  0  0  0  0  0  0  0
   -3.3359    4.1456    5.6947 H   0  0  0  0  0  0  0  0  0  0  0  0
   -2.7094    3.2139    7.0714 H   0  0  0  0  0  0  0  0  0  0  0  0
   -3.2163    2.5186    5.4841 H   0  0  0  0  0  0  0  0  0  0  0  0
    0.1821    2.9832    6.6924 H   0  0  0  0  0  0  0  0  0  0  0  0
    0.4030   -1.4635    5.1492 H   0  0  0  0  0  0  0  0  0  0  0  0
    4.4324   -0.9987    6.5343 H   0  0  0  0  0  0  0  0  0  0  0  0
    3.2655    0.2040    6.8838 H   0  0  0  0  0  0  0  0  0  0  0  0
    4.0049    0.1492    5.3011 H   0  0  0  0  0  0  0  0  0  0  0  0
    2.4664   -1.9813    7.7020 H   0  0  0  0  0  0  0  0  0  0  0  0
    1.0748   -2.6111    6.8846 H   0  0  0  0  0  0  0  0  0  0  0  0
    3.1908   -4.1624    7.7269 H   0  0  0  0  0  0  0  0  0  0  0  0
    2.0963   -4.5871    6.4016 H   0  0  0  0  0  0  0  0  0  0  0  0
    5.1547   -3.2086    2.9023 H   0  0  0  0  0  0  0  0  0  0  0  0
    6.2112   -2.6091    4.2059 H   0  0  0  0  0  0  0  0  0  0  0  0
    6.0120   -5.4420    3.5618 H   0  0  0  0  0  0  0  0  0  0  0  0
    6.5704   -4.7353    5.0479 H   0  0  0  0  0  0  0  0  0  0  0  0
    4.7252   -5.9502    5.9526 H   0  0  0  0  0  0  0  0  0  0  0  0
    3.7801   -6.5929    3.6581 H   0  0  0  0  0  0  0  0  0  0  0  0
    2.5828   -6.1736    4.8459 H   0  0  0  0  0  0  0  0  0  0  0  0
    1.5340   -2.8672    2.9635 H   0  0  0  0  0  0  0  0  0  0  0  0
    1.3127   -3.6016    4.5120 H   0  0  0  0  0  0  0  0  0  0  0  0
    3.4307   -1.6032    3.6218 H   0  0  0  0  0  0  0  0  0  0  0  0
    3.2823   -3.5612    1.6499 H   0  0  0  0  0  0  0  0  0  0  0  0
    2.2867   -4.7734    0.1422 H   0  0  0  0  0  0  0  0  0  0  0  0
    3.5170   -6.5939   -0.7103 H   0  0  0  0  0  0  0  0  0  0  0  0
    4.6614   -6.6918    0.7023 H   0  0  0  0  0  0  0  0  0  0  0  0
    4.6803   -5.3210   -0.4943 H   0  0  0  0  0  0  0  0  0  0  0  0
    2.6002   -7.1306    1.9870 H   0  0  0  0  0  0  0  0  0  0  0  0
    0.2522   -6.6032    0.1519 H   0  0  0  0  0  0  0  0  0  0  0  0
    1.0407   -8.1269    0.6264 H   0  0  0  0  0  0  0  0  0  0  0  0
   -1.8195   -8.0615    1.4372 H   0  0  0  0  0  0  0  0  0  0  0  0
   -1.8324   -8.0832    3.2015 H   0  0  0  0  0  0  0  0  0  0  0  0
   -0.8557   -9.2257    2.1901 H   0  0  0  0  0  0  0  0  0  0  0  0
   -0.1423   -6.1475    4.1079 H   0  0  0  0  0  0  0  0  0  0  0  0
    0.8356   -4.6767    2.1119 H   0  0  0  0  0  0  0  0  0  0  0  0
    4.3561   -4.7652    2.1153 H   0  0  0  0  0  0  0  0  0  0  0  0
  1  2  1  0
  1 41  1  0
  1 42  1  0
  1 43  1  0
  2  3  1  0
  3 18  1  0
  3  4  1  0
  3 44  1  1
  4 17  1  0
  4  5  1  0
  4 45  1  1
  5  6  1  0
  5 46  1  0
  5 47  1  0
  6  7  1  0
  6 48  1  0
  6 49  1  0
  7  8  1  0
  7 18  1  0
  7 50  1  6
  8  9  1  0
  8 10  1  0
  8 51  1  6
  9 52  1  0
  9 53  1  0
  9 54  1  0
 10 11  1  0
 10 55  1  0
 10 56  1  0
 11 17  1  0
 11 12  1  0
 11 57  1  1
 12 13  1  0
 13 14  2  0
 13 15  1  0
 15 16  1  0
 15 17  1  0
 15 58  1  1
 16 59  1  0
 16 60  1  0
 16 61  1  0
 17 62  1  1
 18 19  1  0
 18 63  1  6
 19 31  1  0
 19 20  1  1
 19 21  1  0
 20 64  1  0
 20 65  1  0
 20 66  1  0
 21 22  1  0
 21 67  1  0
 21 68  1  0
 22 23  1  0
 22 69  1  0
 22 70  1  0
 23 27  1  0
 23 24  2  0
 24 31  1  0
 24 25  1  0
 25 26  1  0
 25 71  1  0
 25 72  1  0
 26 27  1  0
 26 73  1  0
 26 74  1  0
 27 28  1  0
 27 75  1  1
 29 28  1  1
 28 76  1  0
 28 77  1  0
 29 40  1  0
 29 30  1  0
 29 32  1  0
 30 31  1  0
 30 78  1  0
 30 79  1  0
 31 80  1  6
 32 33  1  0
 32 81  1  0
 32 94  1  0
 33 34  1  0
 33 35  1  0
 33 82  1  6
 34 83  1  0
 34 84  1  0
 34 85  1  0
 35 40  1  0
 35 36  1  0
 35 86  1  1
 36 37  1  0
 36 87  1  0
 36 88  1  0
 37 38  1  0
 37 39  2  0
 38 89  1  0
 38 90  1  0
 38 91  1  0
 39 40  1  0
 39 92  1  0
 40 93  1  6
M  CHG  1  32   1
M  END
>  <i_m_ct_stereo_status>  (175) 
1

>  <s_m_source_file>  (175) 
/var/tmp/pbs.5076255.sched01/tmpj5h_4zim/74m36hq9q5.sdf

>  <i_m_source_file_index>  (175) 
11

>  <i_lp_mmshare_version>  (175) 
48012

>  <i_f3d_flags>  (175) 
0

>  <s_epik_input>  (175) 
W0NIM11bQ0BASF0xQyg9TylPW0NAQEhdKFtDQEBIXTFbQ0BIXTIzKVtDSDJdW0NASF0oW0NIM10pW0NIXShbQ0gyXVtDSDJdMylbQ0BIXShbQ0BASF0yT1tDSDNdKVtDQEBdKFtDSDNdKShbQ0gyXVtDSDJdNClbQ0BIXShbQ0gyXTUpQyhbQ0gyXVtDSDJdNik9QzRbQ0BIXTZbQ0gyXVtDQEBdNTdbQ0BIXThbQ0BIXShbQ0BASF0oW05IXTcpW0NIM10pW0NIMl1DKFtDSDNdKT1bQ0hdOA==

>  <s_epik_cmdline>  (175) 
J2VwaWtfcHl0aG9uJywgJy1waHQnLCAnMi4wJywgJy1waCcsICc3LjAnLCAnLXRuJywgJzgnLCAnLW1hJywgJzIwMCcsICctaW1hZScsICc8aW5maWxlLm1hZT4nLCAnLW9tYWUnLCAnPG91dGZpbGUubWFlPic=

>  <r_lp_tautomer_probability>  (175) 
1

>  <r_epik_Ionization_Penalty>  (175) 
2.09793e-05

>  <r_epik_Ionization_Penalty_Charging>  (175) 
2.09793e-05

>  <r_epik_Ionization_Penalty_Neutral>  (175) 
2.68603e-11

>  <r_epik_State_Penalty>  (175) 
-0

>  <r_epik_Charging_Adjusted_Penalty>  (175) 
2.09793e-05

>  <i_epik_Tot_Q>  (175) 
1

>  <i_epik_Tot_abs_Q>  (175) 
1

>  <s_epik_Chemistry_Notes>  (175) 
This compound has an ester and may undergo hydrolysis at high or low pH.

>  <s_lp_Force_Field>  (175) 
OPLS3e

>  <r_lp_Energy>  (175) 
110.514

>  <b_lp_Chiralities_Consistent>  (175) 
1

>  <s_lp_Variant>  (175) 
67:0-1

>  <s_i_glide_gridfile>  (175) 
pfpi4k_grid

>  <i_i_glide_lignum>  (175) 
11

>  <i_i_glide_rotatable_bonds>  (175) 
2

>  <r_i_docking_score>  (175) 
-1.51906

>  <r_i_glide_ligand_efficiency>  (175) 
-0.0379765

>  <r_i_glide_ligand_efficiency_sa>  (175) 
-0.129878

>  <r_i_glide_ligand_efficiency_ln>  (175) 
-0.32397

>  <r_i_glide_gscore>  (175) 
-1.51906

>  <r_i_glide_lipo>  (175) 
-0.114557

>  <r_i_glide_hbond>  (175) 
-0.053841

>  <r_i_glide_metal>  (175) 
-0

>  <r_i_glide_rewards>  (175) 
0

>  <r_i_glide_evdw>  (175) 
-15.7066

>  <r_i_glide_ecoul>  (175) 
-3.73985

>  <r_i_glide_erotb>  (175) 
0.068804

>  <r_i_glide_esite>  (175) 
-0.0731585

>  <r_i_glide_emodel>  (175) 
-18.6607

>  <r_i_glide_energy>  (175) 
-19.4464

>  <r_i_glide_einternal>  (175) 
2.32326

>  <r_i_glide_intrahb_reward>  (175) 
-0

>  <i_i_glide_confnum>  (175) 
3

>  <i_i_glide_posenum>  (175) 
15

>  <r_i_glide_eff_state_penalty>  (175) 
0

>  <ligand_id>  (175) 
67

>  <original_smiles>  (175) 
COC1C2CCC(C(C)CC3OC(=O)C(C)C32)C1C1(C)CCC2=C3CCC2CC2(CC31)NC(C)C1CC(C)=CC12

>  <smiles>  (175) 
[H]C1=C(C([H])([H])[H])C([H])([H])C2([H])C1([H])C1(C([H])([H])C3([H])C4=C(C([H])([H])C3([H])[H])C([H])(C1([H])[H])C(C([H])([H])[H])(C1([H])C([H])(OC([H])([H])[H])C3([H])C([H])([H])C([H])([H])C1([H])C([H])(C([H])([H])[H])C([H])([H])C1([H])OC(=O)C([H])(C([H])([H])[H])C13[H])C([H])([H])C4([H])[H])[N+]([H])([H])C2([H])C([H])([H])[H]

$$$$
68:0:0
     RDKit          3D

 14 14  0  0  1  0  0  0  0  0999 V2000
    5.2637   -1.3099   -0.9300 C   0  0  0  0  0  0  0  0  0  0  0  0
    4.3166   -1.5954   -2.0164 N   0  0  0  0  0  0  0  0  0  0  0  0
    3.9813   -0.6620   -2.9968 C   0  0  0  0  0  0  0  0  0  0  0  0
    3.0747   -1.1514   -3.8986 C   0  0  0  0  0  0  0  0  0  0  0  0
    2.6175   -2.7871   -3.5188 S   0  0  0  0  0  0  0  0  0  0  0  0
    3.6740   -2.7717   -2.1369 C   0  0  0  0  0  0  0  0  0  0  0  0
    3.8228   -3.7918   -1.2963 N   0  0  0  0  0  0  0  0  0  0  0  0
    5.6251   -0.2879   -1.0338 H   0  0  0  0  0  0  0  0  0  0  0  0
    6.1095   -2.0019   -0.9812 H   0  0  0  0  0  0  0  0  0  0  0  0
    4.7616   -1.4017    0.0369 H   0  0  0  0  0  0  0  0  0  0  0  0
    4.4078    0.3270   -2.9444 H   0  0  0  0  0  0  0  0  0  0  0  0
    2.6127   -0.6348   -4.7259 H   0  0  0  0  0  0  0  0  0  0  0  0
    4.4695   -3.7658   -0.5231 H   0  0  0  0  0  0  0  0  0  0  0  0
    3.4129   -4.6960   -1.5103 H   0  0  0  0  0  0  0  0  0  0  0  0
  1  2  1  0
  1  8  1  0
  1  9  1  0
  1 10  1  0
  2  6  2  0
  2  3  1  0
  3  4  2  0
  3 11  1  0
  4  5  1  0
  4 12  1  0
  5  6  1  0
  6  7  1  0
  7 13  1  0
  7 14  1  0
M  CHG  1   2   1
M  END
>  <i_m_ct_stereo_status>  (176) 
1

>  <s_m_source_file>  (176) 
/var/tmp/pbs.5076255.sched01/tmpj5h_4zim/74m36hq9q5.sdf

>  <i_m_source_file_index>  (176) 
12

>  <i_lp_mmshare_version>  (176) 
48012

>  <i_f3d_flags>  (176) 
0

>  <s_epik_input>  (176) 
W0NIM11uMVtjSF1bY0hdc2NcMT1OL1tIXQ==

>  <s_epik_cmdline>  (176) 
J2VwaWtfcHl0aG9uJywgJy1waHQnLCAnMi4wJywgJy1waCcsICc3LjAnLCAnLXRuJywgJzgnLCAnLW1hJywgJzIwMCcsICctaW1hZScsICc8aW5maWxlLm1hZT4nLCAnLW9tYWUnLCAnPG91dGZpbGUubWFlPic=

>  <r_lp_tautomer_probability>  (176) 
1

>  <r_epik_Ionization_Penalty>  (176) 
0.00386605

>  <r_epik_Ionization_Penalty_Charging>  (176) 
0

>  <r_epik_Ionization_Penalty_Neutral>  (176) 
0.00386605

>  <r_epik_State_Penalty>  (176) 
0.00551028

>  <r_epik_Charging_Adjusted_Penalty>  (176) 
0.00551028

>  <i_epik_Tot_Q>  (176) 
1

>  <i_epik_Tot_abs_Q>  (176) 
1

>  <s_lp_Force_Field>  (176) 
OPLS3e

>  <r_lp_Energy>  (176) 
6.62173

>  <b_lp_Chiralities_Consistent>  (176) 
1

>  <s_lp_Variant>  (176) 
68:0-1

>  <s_i_glide_gridfile>  (176) 
pfpi4k_grid

>  <i_i_glide_lignum>  (176) 
12

>  <i_i_glide_rotatable_bonds>  (176) 
0

>  <r_i_docking_score>  (176) 
-4.9861

>  <r_i_glide_ligand_efficiency>  (176) 
-0.712299

>  <r_i_glide_ligand_efficiency_sa>  (176) 
-1.36258

>  <r_i_glide_ligand_efficiency_ln>  (176) 
-1.69255

>  <r_i_glide_gscore>  (176) 
-4.9861

>  <r_i_glide_lipo>  (176) 
-0.518287

>  <r_i_glide_hbond>  (176) 
-0.32

>  <r_i_glide_metal>  (176) 
-0

>  <r_i_glide_rewards>  (176) 
-2.25

>  <r_i_glide_evdw>  (176) 
-14.1888

>  <r_i_glide_ecoul>  (176) 
-7.56215

>  <r_i_glide_erotb>  (176) 
0

>  <r_i_glide_esite>  (176) 
-0.0540468

>  <r_i_glide_emodel>  (176) 
-29.556

>  <r_i_glide_energy>  (176) 
-21.7509

>  <r_i_glide_einternal>  (176) 
0

>  <r_i_glide_intrahb_reward>  (176) 
-0

>  <i_i_glide_confnum>  (176) 
1

>  <i_i_glide_posenum>  (176) 
6

>  <r_i_glide_eff_state_penalty>  (176) 
0

>  <ligand_id>  (176) 
68

>  <original_smiles>  (176) 
Cn1ccsc1=N

>  <smiles>  (176) 
[H]c1sc(N([H])[H])[n+](C([H])([H])[H])c1[H]

$$$$
68:0:1
     RDKit          3D

 14 14  0  0  1  0  0  0  0  0999 V2000
    3.3885    1.9777    4.5670 C   0  0  0  0  0  0  0  0  0  0  0  0
    2.4849    1.3335    3.5977 N   0  0  0  0  0  0  0  0  0  0  0  0
    2.2717   -0.0433    3.5746 C   0  0  0  0  0  0  0  0  0  0  0  0
    1.3872   -0.4224    2.6002 C   0  0  0  0  0  0  0  0  0  0  0  0
    0.7962    0.9454    1.7074 S   0  0  0  0  0  0  0  0  0  0  0  0
    1.7803    2.0046    2.6621 C   0  0  0  0  0  0  0  0  0  0  0  0
    1.8200    3.3229    2.4877 N   0  0  0  0  0  0  0  0  0  0  0  0
    3.8303    1.2104    5.2076 H   0  0  0  0  0  0  0  0  0  0  0  0
    2.8299    2.6817    5.1875 H   0  0  0  0  0  0  0  0  0  0  0  0
    4.1971    2.4983    4.0532 H   0  0  0  0  0  0  0  0  0  0  0  0
    2.7993   -0.6635    4.2872 H   0  0  0  0  0  0  0  0  0  0  0  0
    1.0448   -1.4091    2.3415 H   0  0  0  0  0  0  0  0  0  0  0  0
    2.3990    3.9315    3.0520 H   0  0  0  0  0  0  0  0  0  0  0  0
    1.1969    3.7775    1.8078 H   0  0  0  0  0  0  0  0  0  0  0  0
  1  2  1  0
  1  8  1  0
  1  9  1  0
  1 10  1  0
  2  6  2  0
  2  3  1  0
  3  4  2  0
  3 11  1  0
  4  5  1  0
  4 12  1  0
  5  6  1  0
  6  7  1  0
  7 13  1  0
  7 14  1  0
M  CHG  1   2   1
M  END
>  <i_m_ct_stereo_status>  (177) 
1

>  <s_m_source_file>  (177) 
/var/tmp/pbs.5076255.sched01/tmpj5h_4zim/74m36hq9q5.sdf

>  <i_m_source_file_index>  (177) 
12

>  <i_lp_mmshare_version>  (177) 
48012

>  <i_f3d_flags>  (177) 
0

>  <s_epik_input>  (177) 
W0NIM11uMVtjSF1bY0hdc2NcMT1OL1tIXQ==

>  <s_epik_cmdline>  (177) 
J2VwaWtfcHl0aG9uJywgJy1waHQnLCAnMi4wJywgJy1waCcsICc3LjAnLCAnLXRuJywgJzgnLCAnLW1hJywgJzIwMCcsICctaW1hZScsICc8aW5maWxlLm1hZT4nLCAnLW9tYWUnLCAnPG91dGZpbGUubWFlPic=

>  <r_lp_tautomer_probability>  (177) 
1

>  <r_epik_Ionization_Penalty>  (177) 
0.00386605

>  <r_epik_Ionization_Penalty_Charging>  (177) 
0

>  <r_epik_Ionization_Penalty_Neutral>  (177) 
0.00386605

>  <r_epik_State_Penalty>  (177) 
0.00551028

>  <r_epik_Charging_Adjusted_Penalty>  (177) 
0.00551028

>  <i_epik_Tot_Q>  (177) 
1

>  <i_epik_Tot_abs_Q>  (177) 
1

>  <s_lp_Force_Field>  (177) 
OPLS3e

>  <r_lp_Energy>  (177) 
6.62173

>  <b_lp_Chiralities_Consistent>  (177) 
1

>  <s_lp_Variant>  (177) 
68:0-1

>  <s_i_glide_gridfile>  (177) 
pfpi4k_grid

>  <i_i_glide_lignum>  (177) 
12

>  <i_i_glide_rotatable_bonds>  (177) 
0

>  <r_i_docking_score>  (177) 
-4.27812

>  <r_i_glide_ligand_efficiency>  (177) 
-0.61116

>  <r_i_glide_ligand_efficiency_sa>  (177) 
-1.16911

>  <r_i_glide_ligand_efficiency_ln>  (177) 
-1.45222

>  <r_i_glide_gscore>  (177) 
-4.27812

>  <r_i_glide_lipo>  (177) 
0

>  <r_i_glide_hbond>  (177) 
-0.16

>  <r_i_glide_metal>  (177) 
-0

>  <r_i_glide_rewards>  (177) 
-2.25

>  <r_i_glide_evdw>  (177) 
-6.86027

>  <r_i_glide_ecoul>  (177) 
-9.45284

>  <r_i_glide_erotb>  (177) 
0

>  <r_i_glide_esite>  (177) 
-0.107177

>  <r_i_glide_emodel>  (177) 
-22.9855

>  <r_i_glide_energy>  (177) 
-16.3131

>  <r_i_glide_einternal>  (177) 
0

>  <r_i_glide_intrahb_reward>  (177) 
-0

>  <i_i_glide_confnum>  (177) 
1

>  <i_i_glide_posenum>  (177) 
5

>  <r_i_glide_eff_state_penalty>  (177) 
0

>  <ligand_id>  (177) 
68

>  <original_smiles>  (177) 
Cn1ccsc1=N

>  <smiles>  (177) 
[H]c1sc(N([H])[H])[n+](C([H])([H])[H])c1[H]

$$$$
68:0:2
     RDKit          3D

 14 14  0  0  1  0  0  0  0  0999 V2000
    3.4666    1.0777    3.6894 C   0  0  0  0  0  0  0  0  0  0  0  0
    2.0204    0.9580    3.4617 N   0  0  0  0  0  0  0  0  0  0  0  0
    1.2680   -0.0799    3.9939 C   0  0  0  0  0  0  0  0  0  0  0  0
   -0.0596    0.0130    3.6626 C   0  0  0  0  0  0  0  0  0  0  0  0
   -0.3692    1.3724    2.6322 S   0  0  0  0  0  0  0  0  0  0  0  0
    1.3013    1.8287    2.7235 C   0  0  0  0  0  0  0  0  0  0  0  0
    1.8153    2.9119    2.1409 N   0  0  0  0  0  0  0  0  0  0  0  0
    3.8024    0.2533    4.3208 H   0  0  0  0  0  0  0  0  0  0  0  0
    3.6974    2.0221    4.1885 H   0  0  0  0  0  0  0  0  0  0  0  0
    3.9888    0.9940    2.7357 H   0  0  0  0  0  0  0  0  0  0  0  0
    1.7682   -0.8283    4.5930 H   0  0  0  0  0  0  0  0  0  0  0  0
   -0.8605   -0.6497    3.9417 H   0  0  0  0  0  0  0  0  0  0  0  0
    2.7961    3.1470    2.1646 H   0  0  0  0  0  0  0  0  0  0  0  0
    1.2156    3.5300    1.5727 H   0  0  0  0  0  0  0  0  0  0  0  0
  1  2  1  0
  1  8  1  0
  1  9  1  0
  1 10  1  0
  2  6  2  0
  2  3  1  0
  3  4  2  0
  3 11  1  0
  4  5  1  0
  4 12  1  0
  5  6  1  0
  6  7  1  0
  7 13  1  0
  7 14  1  0
M  CHG  1   2   1
M  END
>  <i_m_ct_stereo_status>  (178) 
1

>  <s_m_source_file>  (178) 
/var/tmp/pbs.5076255.sched01/tmpj5h_4zim/74m36hq9q5.sdf

>  <i_m_source_file_index>  (178) 
12

>  <i_lp_mmshare_version>  (178) 
48012

>  <i_f3d_flags>  (178) 
0

>  <s_epik_input>  (178) 
W0NIM11uMVtjSF1bY0hdc2NcMT1OL1tIXQ==

>  <s_epik_cmdline>  (178) 
J2VwaWtfcHl0aG9uJywgJy1waHQnLCAnMi4wJywgJy1waCcsICc3LjAnLCAnLXRuJywgJzgnLCAnLW1hJywgJzIwMCcsICctaW1hZScsICc8aW5maWxlLm1hZT4nLCAnLW9tYWUnLCAnPG91dGZpbGUubWFlPic=

>  <r_lp_tautomer_probability>  (178) 
1

>  <r_epik_Ionization_Penalty>  (178) 
0.00386605

>  <r_epik_Ionization_Penalty_Charging>  (178) 
0

>  <r_epik_Ionization_Penalty_Neutral>  (178) 
0.00386605

>  <r_epik_State_Penalty>  (178) 
0.00551028

>  <r_epik_Charging_Adjusted_Penalty>  (178) 
0.00551028

>  <i_epik_Tot_Q>  (178) 
1

>  <i_epik_Tot_abs_Q>  (178) 
1

>  <s_lp_Force_Field>  (178) 
OPLS3e

>  <r_lp_Energy>  (178) 
6.62173

>  <b_lp_Chiralities_Consistent>  (178) 
1

>  <s_lp_Variant>  (178) 
68:0-1

>  <s_i_glide_gridfile>  (178) 
pfpi4k_grid

>  <i_i_glide_lignum>  (178) 
12

>  <i_i_glide_rotatable_bonds>  (178) 
0

>  <r_i_docking_score>  (178) 
-4.16325

>  <r_i_glide_ligand_efficiency>  (178) 
-0.59475

>  <r_i_glide_ligand_efficiency_sa>  (178) 
-1.13772

>  <r_i_glide_ligand_efficiency_ln>  (178) 
-1.41323

>  <r_i_glide_gscore>  (178) 
-4.16325

>  <r_i_glide_lipo>  (178) 
0

>  <r_i_glide_hbond>  (178) 
-0.16

>  <r_i_glide_metal>  (178) 
-0

>  <r_i_glide_rewards>  (178) 
-2.25

>  <r_i_glide_evdw>  (178) 
-6.47532

>  <r_i_glide_ecoul>  (178) 
-8.9311

>  <r_i_glide_erotb>  (178) 
0

>  <r_i_glide_esite>  (178) 
-0.0898197

>  <r_i_glide_emodel>  (178) 
-21.9141

>  <r_i_glide_energy>  (178) 
-15.4064

>  <r_i_glide_einternal>  (178) 
0

>  <r_i_glide_intrahb_reward>  (178) 
-0

>  <i_i_glide_confnum>  (178) 
2

>  <i_i_glide_posenum>  (178) 
38

>  <r_i_glide_eff_state_penalty>  (178) 
0

>  <ligand_id>  (178) 
68

>  <original_smiles>  (178) 
Cn1ccsc1=N

>  <smiles>  (178) 
[H]c1sc(N([H])[H])[n+](C([H])([H])[H])c1[H]

$$$$
69:0:0
     RDKit          3D

 67 73  0  0  1  0  0  0  0  0999 V2000
    3.4836   -1.8887    7.4363 C   0  0  0  0  0  0  0  0  0  0  0  0
    3.9371   -0.8527    6.3910 C   0  0  2  0  0  0  0  0  0  0  0  0
    4.1574    0.5072    7.0808 C   0  0  0  0  0  0  0  0  0  0  0  0
    4.6455    1.5877    6.0975 C   0  0  0  0  0  0  0  0  0  0  0  0
    3.7864    1.6991    4.8099 C   0  0  2  0  0  0  0  0  0  0  0  0
    2.5131    2.5684    4.9820 C   0  0  2  0  0  0  0  0  0  0  0  0
    1.8013    2.2687    6.1921 O   0  0  0  0  0  0  0  0  0  0  0  0
    0.5010    2.5959    5.9762 C   0  0  0  0  0  0  0  0  0  0  0  0
    0.2291    2.8363    4.6362 C   0  0  0  0  0  0  0  0  0  0  0  0
   -1.0404    3.2579    4.2125 C   0  0  0  0  0  0  0  0  0  0  0  0
   -2.0506    3.4017    5.1907 C   0  0  0  0  0  0  0  0  0  0  0  0
   -1.7786    3.1552    6.5568 C   0  0  0  0  0  0  0  0  0  0  0  0
   -0.4922    2.7216    6.9617 C   0  0  0  0  0  0  0  0  0  0  0  0
   -0.2399    2.4678    8.3759 C   0  0  0  0  0  0  0  0  0  0  0  0
   -1.1439    2.8743    9.2754 C   0  0  0  0  0  0  0  0  0  0  0  0
   -2.3954    3.6175    8.8387 C   0  0  0  0  0  0  0  0  0  0  0  0
   -3.5838    3.2285    9.7244 C   0  0  0  0  0  0  0  0  0  0  0  0
   -2.1456    5.1364    8.8981 C   0  0  0  0  0  0  0  0  0  0  0  0
   -2.7800    3.3233    7.4884 O   0  0  0  0  0  0  0  0  0  0  0  0
    1.4609    2.5551    3.8103 C   0  0  1  0  0  0  0  0  0  0  0  0
    1.7782    3.5873    2.8843 O   0  0  0  0  0  0  0  0  0  0  0  0
    1.3437    1.1614    3.1271 C   0  0  1  0  0  0  0  0  0  0  0  0
    0.4570    1.1819    1.8660 C   0  0  0  0  0  0  0  0  0  0  0  0
    2.7315    0.5363    2.8486 C   0  0  2  0  0  0  0  0  0  0  0  0
    2.5520   -0.6889    2.1460 O   0  0  0  0  0  0  0  0  0  0  0  0
    3.6069   -1.6224    2.3278 C   0  0  2  0  0  0  0  0  0  0  0  0
    3.7769   -2.3748    0.9969 C   0  0  0  0  0  0  0  0  0  0  0  0
    3.2190   -2.6001    3.4613 C   0  0  0  0  0  0  0  0  0  0  0  0
    2.3813   -1.9571    4.5744 C   0  0  0  0  0  0  0  0  0  0  0  0
    2.9512   -0.6652    5.1979 C   0  0  2  0  0  0  0  0  0  0  0  0
    3.5478    0.3254    4.1542 C   0  0  2  0  0  0  0  0  0  0  0  0
    4.8517   -0.1707    3.8285 O   0  0  0  0  0  0  0  0  0  0  0  0
    4.8560   -0.9722    2.5309 O   0  0  0  0  0  0  0  0  0  0  0  0
    2.4640   -1.7011    7.7779 H   0  0  0  0  0  0  0  0  0  0  0  0
    4.1365   -1.8721    8.3120 H   0  0  0  0  0  0  0  0  0  0  0  0
    3.5342   -2.9029    7.0366 H   0  0  0  0  0  0  0  0  0  0  0  0
    4.9031   -1.1975    6.0182 H   0  0  0  0  0  0  0  0  0  0  0  0
    3.2349    0.8323    7.5601 H   0  0  0  0  0  0  0  0  0  0  0  0
    4.8865    0.4090    7.8856 H   0  0  0  0  0  0  0  0  0  0  0  0
    4.6921    2.5523    6.6051 H   0  0  0  0  0  0  0  0  0  0  0  0
    5.6740    1.3466    5.8185 H   0  0  0  0  0  0  0  0  0  0  0  0
    4.3852    2.2624    4.0961 H   0  0  0  0  0  0  0  0  0  0  0  0
    2.8470    3.5980    5.1275 H   0  0  0  0  0  0  0  0  0  0  0  0
   -1.2347    3.4797    3.1709 H   0  0  0  0  0  0  0  0  0  0  0  0
   -3.0357    3.7224    4.9024 H   0  0  0  0  0  0  0  0  0  0  0  0
    0.6589    1.9403    8.6565 H   0  0  0  0  0  0  0  0  0  0  0  0
   -1.0240    2.6916   10.3339 H   0  0  0  0  0  0  0  0  0  0  0  0
   -3.4027    3.4765   10.7739 H   0  0  0  0  0  0  0  0  0  0  0  0
   -3.7657    2.1558    9.6801 H   0  0  0  0  0  0  0  0  0  0  0  0
   -4.4972    3.7338    9.4019 H   0  0  0  0  0  0  0  0  0  0  0  0
   -1.8904    5.4684    9.9070 H   0  0  0  0  0  0  0  0  0  0  0  0
   -3.0196    5.6988    8.5600 H   0  0  0  0  0  0  0  0  0  0  0  0
   -1.3127    5.4031    8.2431 H   0  0  0  0  0  0  0  0  0  0  0  0
    1.0950    3.6759    2.2194 H   0  0  0  0  0  0  0  0  0  0  0  0
    0.8428    0.4953    3.8257 H   0  0  0  0  0  0  0  0  0  0  0  0
    0.9175    1.7467    1.0625 H   0  0  0  0  0  0  0  0  0  0  0  0
   -0.5288    1.6095    2.0472 H   0  0  0  0  0  0  0  0  0  0  0  0
    0.2935    0.1716    1.4887 H   0  0  0  0  0  0  0  0  0  0  0  0
    3.2858    1.2044    2.1862 H   0  0  0  0  0  0  0  0  0  0  0  0
    4.0911   -1.6844    0.2143 H   0  0  0  0  0  0  0  0  0  0  0  0
    2.8472   -2.8412    0.6658 H   0  0  0  0  0  0  0  0  0  0  0  0
    4.5371   -3.1540    1.0733 H   0  0  0  0  0  0  0  0  0  0  0  0
    2.5948   -3.3915    3.0399 H   0  0  0  0  0  0  0  0  0  0  0  0
    4.1007   -3.0989    3.8607 H   0  0  0  0  0  0  0  0  0  0  0  0
    1.4068   -1.7146    4.1503 H   0  0  0  0  0  0  0  0  0  0  0  0
    2.1466   -2.6971    5.3339 H   0  0  0  0  0  0  0  0  0  0  0  0
    2.0776   -0.1888    5.6331 H   0  0  0  0  0  0  0  0  0  0  0  0
  1  2  1  0
  1 34  1  0
  1 35  1  0
  1 36  1  0
  2 30  1  0
  2  3  1  0
  2 37  1  6
  3  4  1  0
  3 38  1  0
  3 39  1  0
  4  5  1  0
  4 40  1  0
  4 41  1  0
  5 31  1  0
  5  6  1  0
  5 42  1  6
  6 20  1  0
  6  7  1  0
  6 43  1  1
  7  8  1  0
  8 13  1  0
  8  9  2  0
  9 10  1  0
  9 20  1  0
 10 11  2  0
 10 44  1  0
 11 12  1  0
 11 45  1  0
 12 19  1  0
 12 13  2  0
 13 14  1  0
 14 15  2  0
 14 46  1  0
 15 16  1  0
 15 47  1  0
 16 17  1  0
 16 18  1  0
 16 19  1  0
 17 48  1  0
 17 49  1  0
 17 50  1  0
 18 51  1  0
 18 52  1  0
 18 53  1  0
 20 21  1  6
 20 22  1  0
 21 54  1  0
 22 23  1  0
 22 24  1  0
 22 55  1  1
 23 56  1  0
 23 57  1  0
 23 58  1  0
 24 31  1  0
 24 25  1  0
 24 59  1  6
 25 26  1  0
 26 33  1  0
 26 27  1  6
 26 28  1  0
 27 60  1  0
 27 61  1  0
 27 62  1  0
 28 29  1  0
 28 63  1  0
 28 64  1  0
 29 30  1  0
 29 65  1  0
 29 66  1  0
 30 31  1  0
 30 67  1  1
 31 32  1  6
 32 33  1  0
M  END
>  <i_m_ct_stereo_status>  (179) 
1

>  <s_m_source_file>  (179) 
/var/tmp/pbs.5076255.sched01/tmpj5h_4zim/74m36hq9q5.sdf

>  <i_m_source_file_index>  (179) 
13

>  <i_lp_mmshare_version>  (179) 
48012

>  <i_f3d_flags>  (179) 
0

>  <s_epik_input>  (179) 
W0NIMl0xW0NIMl1bQ0BASF0oW0NIM10pW0NAQEhdMltDSDJdW0NIMl1bQ0BdKFtDSDNdKShPTzMpT1tDQEhdNFtDQEhdKFtDSDNdKVtDQF0oW09IXSkoW0NAQEhdNVtDQEBIXTFbQ0BdMjM0KWM2YyhPNSljN2MoW2NIXVtjSF02KU9DKFtDSDNdKShbQ0gzXSlbQ0hdPVtDSF03

>  <s_epik_cmdline>  (179) 
J2VwaWtfcHl0aG9uJywgJy1waHQnLCAnMi4wJywgJy1waCcsICc3LjAnLCAnLXRuJywgJzgnLCAnLW1hJywgJzIwMCcsICctaW1hZScsICc8aW5maWxlLm1hZT4nLCAnLW9tYWUnLCAnPG91dGZpbGUubWFlPic=

>  <r_lp_tautomer_probability>  (179) 
1

>  <r_epik_Ionization_Penalty>  (179) 
1.06334e-07

>  <r_epik_Ionization_Penalty_Charging>  (179) 
0

>  <r_epik_Ionization_Penalty_Neutral>  (179) 
1.06334e-07

>  <r_epik_State_Penalty>  (179) 
-0

>  <r_epik_Charging_Adjusted_Penalty>  (179) 
0

>  <i_epik_Tot_Q>  (179) 
0

>  <i_epik_Tot_abs_Q>  (179) 
0

>  <s_lp_Force_Field>  (179) 
OPLS3e

>  <r_lp_Energy>  (179) 
55.5243

>  <b_lp_Chiralities_Consistent>  (179) 
1

>  <s_lp_Variant>  (179) 
69:0-1

>  <s_i_glide_gridfile>  (179) 
pfpi4k_grid

>  <i_i_glide_lignum>  (179) 
13

>  <i_i_glide_rotatable_bonds>  (179) 
1

>  <r_i_docking_score>  (179) 
-2.51183

>  <r_i_glide_ligand_efficiency>  (179) 
-0.0761161

>  <r_i_glide_ligand_efficiency_sa>  (179) 
-0.244145

>  <r_i_glide_ligand_efficiency_ln>  (179) 
-0.558618

>  <r_i_glide_gscore>  (179) 
-2.51183

>  <r_i_glide_lipo>  (179) 
-0.0733079

>  <r_i_glide_hbond>  (179) 
-0.16

>  <r_i_glide_metal>  (179) 
-0

>  <r_i_glide_rewards>  (179) 
-0.30985

>  <r_i_glide_evdw>  (179) 
-27.7921

>  <r_i_glide_ecoul>  (179) 
-3.84686

>  <r_i_glide_erotb>  (179) 
0

>  <r_i_glide_esite>  (179) 
-0.00203932

>  <r_i_glide_emodel>  (179) 
-36.0974

>  <r_i_glide_energy>  (179) 
-31.639

>  <r_i_glide_einternal>  (179) 
0.602256

>  <r_i_glide_intrahb_reward>  (179) 
-0

>  <i_i_glide_confnum>  (179) 
1

>  <i_i_glide_posenum>  (179) 
14

>  <r_i_glide_eff_state_penalty>  (179) 
0

>  <ligand_id>  (179) 
69

>  <original_smiles>  (179) 
CC1CCC2C3Oc4c(ccc5c4C=CC(C)(C)O5)C3(O)C(C)C3OC4(C)CCC1C23OO4

>  <smiles>  (179) 
[H]OC12c3c([H])c([H])c4c(c3OC1([H])C1([H])C([H])([H])C([H])([H])C([H])(C([H])([H])[H])C3([H])C([H])([H])C([H])([H])C5(C([H])([H])[H])OOC13C([H])(O5)C2([H])C([H])([H])[H])C([H])=C([H])C(C([H])([H])[H])(C([H])([H])[H])O4

$$$$
69:0:1
     RDKit          3D

 67 73  0  0  1  0  0  0  0  0999 V2000
    2.1239    4.5911    3.2778 C   0  0  0  0  0  0  0  0  0  0  0  0
    2.1134    3.7953    4.5949 C   0  0  2  0  0  0  0  0  0  0  0  0
    3.5124    3.2139    4.8453 C   0  0  0  0  0  0  0  0  0  0  0  0
    3.6062    2.4267    6.1615 C   0  0  0  0  0  0  0  0  0  0  0  0
    2.4877    1.3734    6.3381 C   0  0  2  0  0  0  0  0  0  0  0  0
    2.7911    0.0281    5.6222 C   0  0  2  0  0  0  0  0  0  0  0  0
    3.2864    0.2015    4.2873 O   0  0  0  0  0  0  0  0  0  0  0  0
    2.9530   -0.9157    3.5904 C   0  0  0  0  0  0  0  0  0  0  0  0
    2.0419   -1.7099    4.2606 C   0  0  0  0  0  0  0  0  0  0  0  0
    1.6426   -2.9550    3.7489 C   0  0  0  0  0  0  0  0  0  0  0  0
    2.1795   -3.3728    2.5126 C   0  0  0  0  0  0  0  0  0  0  0  0
    3.0964   -2.5514    1.8028 C   0  0  0  0  0  0  0  0  0  0  0  0
    3.4752   -1.3012    2.3388 C   0  0  0  0  0  0  0  0  0  0  0  0
    4.4257   -0.4853    1.5960 C   0  0  0  0  0  0  0  0  0  0  0  0
    5.0780   -1.0196    0.5587 C   0  0  0  0  0  0  0  0  0  0  0  0
    4.8610   -2.4703    0.1664 C   0  0  0  0  0  0  0  0  0  0  0  0
    4.9291   -2.6348   -1.3607 C   0  0  0  0  0  0  0  0  0  0  0  0
    5.9099   -3.3524    0.8622 C   0  0  0  0  0  0  0  0  0  0  0  0
    3.5904   -2.9786    0.5938 O   0  0  0  0  0  0  0  0  0  0  0  0
    1.6259   -1.0189    5.5296 C   0  0  1  0  0  0  0  0  0  0  0  0
    1.6483   -1.8688    6.6584 O   0  0  0  0  0  0  0  0  0  0  0  0
    0.2239   -0.3614    5.3492 C   0  0  1  0  0  0  0  0  0  0  0  0
   -0.9424   -1.3670    5.4690 C   0  0  0  0  0  0  0  0  0  0  0  0
    0.0282    0.8472    6.2967 C   0  0  2  0  0  0  0  0  0  0  0  0
   -1.2962    1.3392    6.1459 O   0  0  0  0  0  0  0  0  0  0  0  0
   -1.4241    2.7188    6.4549 C   0  0  2  0  0  0  0  0  0  0  0  0
   -2.8017    2.9100    7.0923 C   0  0  0  0  0  0  0  0  0  0  0  0
   -1.3104    3.5515    5.1610 C   0  0  0  0  0  0  0  0  0  0  0  0
   -0.3405    2.9645    4.1272 C   0  0  0  0  0  0  0  0  0  0  0  0
    1.0759    2.6323    4.6402 C   0  0  2  0  0  0  0  0  0  0  0  0
    1.0935    1.9541    6.0405 C   0  0  2  0  0  0  0  0  0  0  0  0
    0.9231    3.0150    6.9849 O   0  0  0  0  0  0  0  0  0  0  0  0
   -0.5204    3.1065    7.4796 O   0  0  0  0  0  0  0  0  0  0  0  0
    2.1954    3.9380    2.4054 H   0  0  0  0  0  0  0  0  0  0  0  0
    2.9644    5.2871    3.2396 H   0  0  0  0  0  0  0  0  0  0  0  0
    1.2201    5.1930    3.1715 H   0  0  0  0  0  0  0  0  0  0  0  0
    1.9052    4.5140    5.3883 H   0  0  0  0  0  0  0  0  0  0  0  0
    3.7926    2.5719    4.0110 H   0  0  0  0  0  0  0  0  0  0  0  0
    4.2527    4.0128    4.8676 H   0  0  0  0  0  0  0  0  0  0  0  0
    4.5836    1.9518    6.2352 H   0  0  0  0  0  0  0  0  0  0  0  0
    3.5529    3.1416    6.9836 H   0  0  0  0  0  0  0  0  0  0  0  0
    2.4845    1.1156    7.3995 H   0  0  0  0  0  0  0  0  0  0  0  0
    3.6278   -0.4326    6.1464 H   0  0  0  0  0  0  0  0  0  0  0  0
    0.9569   -3.5838    4.2984 H   0  0  0  0  0  0  0  0  0  0  0  0
    1.8933   -4.3164    2.0811 H   0  0  0  0  0  0  0  0  0  0  0  0
    4.5446    0.5396    1.9024 H   0  0  0  0  0  0  0  0  0  0  0  0
    5.7749   -0.4390   -0.0375 H   0  0  0  0  0  0  0  0  0  0  0  0
    5.9039   -2.3327   -1.7540 H   0  0  0  0  0  0  0  0  0  0  0  0
    4.1671   -2.0253   -1.8477 H   0  0  0  0  0  0  0  0  0  0  0  0
    4.7574   -3.6728   -1.6516 H   0  0  0  0  0  0  0  0  0  0  0  0
    6.9300   -3.0768    0.5817 H   0  0  0  0  0  0  0  0  0  0  0  0
    5.7486   -4.4089    0.6339 H   0  0  0  0  0  0  0  0  0  0  0  0
    5.8243   -3.2401    1.9458 H   0  0  0  0  0  0  0  0  0  0  0  0
    2.5292   -2.1963    6.7754 H   0  0  0  0  0  0  0  0  0  0  0  0
    0.1783    0.0321    4.3351 H   0  0  0  0  0  0  0  0  0  0  0  0
   -1.0392   -1.7537    6.4837 H   0  0  0  0  0  0  0  0  0  0  0  0
   -0.8217   -2.2153    4.7979 H   0  0  0  0  0  0  0  0  0  0  0  0
   -1.8889   -0.8944    5.1997 H   0  0  0  0  0  0  0  0  0  0  0  0
    0.1239    0.5002    7.3298 H   0  0  0  0  0  0  0  0  0  0  0  0
   -2.8687    2.3535    8.0257 H   0  0  0  0  0  0  0  0  0  0  0  0
   -3.6122    2.5652    6.4485 H   0  0  0  0  0  0  0  0  0  0  0  0
   -2.9749    3.9614    7.3281 H   0  0  0  0  0  0  0  0  0  0  0  0
   -2.2882    3.5732    4.6676 H   0  0  0  0  0  0  0  0  0  0  0  0
   -1.0681    4.5881    5.3889 H   0  0  0  0  0  0  0  0  0  0  0  0
   -0.7828    2.0381    3.7547 H   0  0  0  0  0  0  0  0  0  0  0  0
   -0.3047    3.5968    3.2410 H   0  0  0  0  0  0  0  0  0  0  0  0
    1.4382    1.9070    3.9167 H   0  0  0  0  0  0  0  0  0  0  0  0
  1  2  1  0
  1 34  1  0
  1 35  1  0
  1 36  1  0
  2 30  1  0
  2  3  1  0
  2 37  1  1
  3  4  1  0
  3 38  1  0
  3 39  1  0
  4  5  1  0
  4 40  1  0
  4 41  1  0
  5 31  1  0
  5  6  1  0
  5 42  1  1
  6 20  1  0
  6  7  1  0
  6 43  1  1
  7  8  1  0
  8 13  1  0
  8  9  2  0
  9 10  1  0
  9 20  1  0
 10 11  2  0
 10 44  1  0
 11 12  1  0
 11 45  1  0
 12 19  1  0
 12 13  2  0
 13 14  1  0
 14 15  2  0
 14 46  1  0
 15 16  1  0
 15 47  1  0
 16 17  1  0
 16 18  1  0
 16 19  1  0
 17 48  1  0
 17 49  1  0
 17 50  1  0
 18 51  1  0
 18 52  1  0
 18 53  1  0
 20 21  1  1
 20 22  1  0
 21 54  1  0
 22 23  1  0
 22 24  1  0
 22 55  1  6
 23 56  1  0
 23 57  1  0
 23 58  1  0
 24 31  1  0
 24 25  1  0
 24 59  1  1
 25 26  1  0
 26 33  1  0
 26 27  1  1
 26 28  1  0
 27 60  1  0
 27 61  1  0
 27 62  1  0
 28 29  1  0
 28 63  1  0
 28 64  1  0
 29 30  1  0
 29 65  1  0
 29 66  1  0
 30 31  1  0
 30 67  1  6
 31 32  1  1
 32 33  1  0
M  END
>  <i_m_ct_stereo_status>  (180) 
1

>  <s_m_source_file>  (180) 
/var/tmp/pbs.5076255.sched01/tmpj5h_4zim/74m36hq9q5.sdf

>  <i_m_source_file_index>  (180) 
13

>  <i_lp_mmshare_version>  (180) 
48012

>  <i_f3d_flags>  (180) 
0

>  <s_epik_input>  (180) 
W0NIMl0xW0NIMl1bQ0BASF0oW0NIM10pW0NAQEhdMltDSDJdW0NIMl1bQ0BdKFtDSDNdKShPTzMpT1tDQEhdNFtDQEhdKFtDSDNdKVtDQF0oW09IXSkoW0NAQEhdNVtDQEBIXTFbQ0BdMjM0KWM2YyhPNSljN2MoW2NIXVtjSF02KU9DKFtDSDNdKShbQ0gzXSlbQ0hdPVtDSF03

>  <s_epik_cmdline>  (180) 
J2VwaWtfcHl0aG9uJywgJy1waHQnLCAnMi4wJywgJy1waCcsICc3LjAnLCAnLXRuJywgJzgnLCAnLW1hJywgJzIwMCcsICctaW1hZScsICc8aW5maWxlLm1hZT4nLCAnLW9tYWUnLCAnPG91dGZpbGUubWFlPic=

>  <r_lp_tautomer_probability>  (180) 
1

>  <r_epik_Ionization_Penalty>  (180) 
1.06334e-07

>  <r_epik_Ionization_Penalty_Charging>  (180) 
0

>  <r_epik_Ionization_Penalty_Neutral>  (180) 
1.06334e-07

>  <r_epik_State_Penalty>  (180) 
-0

>  <r_epik_Charging_Adjusted_Penalty>  (180) 
0

>  <i_epik_Tot_Q>  (180) 
0

>  <i_epik_Tot_abs_Q>  (180) 
0

>  <s_lp_Force_Field>  (180) 
OPLS3e

>  <r_lp_Energy>  (180) 
55.5243

>  <b_lp_Chiralities_Consistent>  (180) 
1

>  <s_lp_Variant>  (180) 
69:0-1

>  <s_i_glide_gridfile>  (180) 
pfpi4k_grid

>  <i_i_glide_lignum>  (180) 
13

>  <i_i_glide_rotatable_bonds>  (180) 
1

>  <r_i_docking_score>  (180) 
-2.25706

>  <r_i_glide_ligand_efficiency>  (180) 
-0.0683957

>  <r_i_glide_ligand_efficiency_sa>  (180) 
-0.219381

>  <r_i_glide_ligand_efficiency_ln>  (180) 
-0.501958

>  <r_i_glide_gscore>  (180) 
-2.25706

>  <r_i_glide_lipo>  (180) 
-0.487811

>  <r_i_glide_hbond>  (180) 
0

>  <r_i_glide_metal>  (180) 
-0

>  <r_i_glide_rewards>  (180) 
-0.360356

>  <r_i_glide_evdw>  (180) 
-28.743

>  <r_i_glide_ecoul>  (180) 
0.188393

>  <r_i_glide_erotb>  (180) 
0

>  <r_i_glide_esite>  (180) 
0

>  <r_i_glide_emodel>  (180) 
-32.4733

>  <r_i_glide_energy>  (180) 
-28.5546

>  <r_i_glide_einternal>  (180) 
0.649833

>  <r_i_glide_intrahb_reward>  (180) 
-0

>  <i_i_glide_confnum>  (180) 
1

>  <i_i_glide_posenum>  (180) 
22

>  <r_i_glide_eff_state_penalty>  (180) 
0

>  <ligand_id>  (180) 
69

>  <original_smiles>  (180) 
CC1CCC2C3Oc4c(ccc5c4C=CC(C)(C)O5)C3(O)C(C)C3OC4(C)CCC1C23OO4

>  <smiles>  (180) 
[H]OC12c3c([H])c([H])c4c(c3OC1([H])C1([H])C([H])([H])C([H])([H])C([H])(C([H])([H])[H])C3([H])C([H])([H])C([H])([H])C5(C([H])([H])[H])OOC13C([H])(O5)C2([H])C([H])([H])[H])C([H])=C([H])C(C([H])([H])[H])(C([H])([H])[H])O4

$$$$
69:0:2
     RDKit          3D

 67 73  0  0  1  0  0  0  0  0999 V2000
    1.8093    4.5025    3.2906 C   0  0  0  0  0  0  0  0  0  0  0  0
    1.9407    3.6951    4.5952 C   0  0  2  0  0  0  0  0  0  0  0  0
    3.3877    3.1878    4.7310 C   0  0  0  0  0  0  0  0  0  0  0  0
    3.6120    2.3995    6.0332 C   0  0  0  0  0  0  0  0  0  0  0  0
    2.5621    1.2858    6.2853 C   0  0  2  0  0  0  0  0  0  0  0  0
    2.8759   -0.0355    5.5337 C   0  0  2  0  0  0  0  0  0  0  0  0
    3.2640    0.1747    4.1684 O   0  0  0  0  0  0  0  0  0  0  0  0
    2.9419   -0.9550    3.4840 C   0  0  0  0  0  0  0  0  0  0  0  0
    2.1205   -1.8015    4.2120 C   0  0  0  0  0  0  0  0  0  0  0  0
    1.7468   -3.0638    3.7215 C   0  0  0  0  0  0  0  0  0  0  0  0
    2.2148   -3.4427    2.4425 C   0  0  0  0  0  0  0  0  0  0  0  0
    3.0250   -2.5697    1.6810 C   0  0  0  0  0  0  0  0  0  0  0  0
    3.3842   -1.3020    2.1958 C   0  0  0  0  0  0  0  0  0  0  0  0
    4.2270   -0.4290    1.3927 C   0  0  0  0  0  0  0  0  0  0  0  0
    4.8291   -0.9261    0.3091 C   0  0  0  0  0  0  0  0  0  0  0  0
    4.6586   -2.3874   -0.0801 C   0  0  0  0  0  0  0  0  0  0  0  0
    4.6230   -2.5396   -1.6114 C   0  0  0  0  0  0  0  0  0  0  0  0
    5.8004   -3.2200    0.5302 C   0  0  0  0  0  0  0  0  0  0  0  0
    3.4481   -2.9635    0.4280 O   0  0  0  0  0  0  0  0  0  0  0  0
    1.7580   -1.1406    5.5161 C   0  0  1  0  0  0  0  0  0  0  0  0
    1.9273   -1.9961    6.6308 O   0  0  0  0  0  0  0  0  0  0  0  0
    0.3153   -0.5560    5.4507 C   0  0  1  0  0  0  0  0  0  0  0  0
   -0.7870   -1.6231    5.6472 C   0  0  0  0  0  0  0  0  0  0  0  0
    0.1341    0.6369    6.4192 C   0  0  2  0  0  0  0  0  0  0  0  0
   -1.2291    1.0615    6.3845 O   0  0  0  0  0  0  0  0  0  0  0  0
   -1.4039    2.4357    6.7044 C   0  0  2  0  0  0  0  0  0  0  0  0
   -2.7449    2.5490    7.4452 C   0  0  0  0  0  0  0  0  0  0  0  0
   -1.4282    3.2772    5.4068 C   0  0  0  0  0  0  0  0  0  0  0  0
   -0.5023    2.7457    4.3044 C   0  0  0  0  0  0  0  0  0  0  0  0
    0.9644    2.4844    4.7101 C   0  0  2  0  0  0  0  0  0  0  0  0
    1.1177    1.7990    6.1015 C   0  0  2  0  0  0  0  0  0  0  0  0
    0.9628    2.8355    7.0760 O   0  0  0  0  0  0  0  0  0  0  0  0
   -0.4465    2.8754    7.6571 O   0  0  0  0  0  0  0  0  0  0  0  0
    1.8459    3.8588    2.4099 H   0  0  0  0  0  0  0  0  0  0  0  0
    2.6050    5.2442    3.1947 H   0  0  0  0  0  0  0  0  0  0  0  0
    0.8703    5.0573    3.2603 H   0  0  0  0  0  0  0  0  0  0  0  0
    1.7553    4.3971    5.4098 H   0  0  0  0  0  0  0  0  0  0  0  0
    3.6429    2.5692    3.8718 H   0  0  0  0  0  0  0  0  0  0  0  0
    4.0840    4.0251    4.7032 H   0  0  0  0  0  0  0  0  0  0  0  0
    4.6176    1.9773    6.0363 H   0  0  0  0  0  0  0  0  0  0  0  0
    3.5821    3.1082    6.8628 H   0  0  0  0  0  0  0  0  0  0  0  0
    2.6578    1.0230    7.3413 H   0  0  0  0  0  0  0  0  0  0  0  0
    3.7716   -0.4623    5.9928 H   0  0  0  0  0  0  0  0  0  0  0  0
    1.1351   -3.7378    4.3048 H   0  0  0  0  0  0  0  0  0  0  0  0
    1.9415   -4.3998    2.0262 H   0  0  0  0  0  0  0  0  0  0  0  0
    4.3074    0.6042    1.6857 H   0  0  0  0  0  0  0  0  0  0  0  0
    5.4399   -0.3088   -0.3331 H   0  0  0  0  0  0  0  0  0  0  0  0
    5.5462   -2.1842   -2.0727 H   0  0  0  0  0  0  0  0  0  0  0  0
    3.7959   -1.9668   -2.0353 H   0  0  0  0  0  0  0  0  0  0  0  0
    4.4823   -3.5829   -1.9037 H   0  0  0  0  0  0  0  0  0  0  0  0
    6.7799   -2.8927    0.1788 H   0  0  0  0  0  0  0  0  0  0  0  0
    5.6800   -4.2834    0.3050 H   0  0  0  0  0  0  0  0  0  0  0  0
    5.7910   -3.1199    1.6187 H   0  0  0  0  0  0  0  0  0  0  0  0
    1.3564   -2.7402    6.5321 H   0  0  0  0  0  0  0  0  0  0  0  0
    0.1748   -0.1635    4.4452 H   0  0  0  0  0  0  0  0  0  0  0  0
   -0.8003   -2.0177    6.6618 H   0  0  0  0  0  0  0  0  0  0  0  0
   -0.6761   -2.4591    4.9573 H   0  0  0  0  0  0  0  0  0  0  0  0
   -1.7698   -1.1953    5.4464 H   0  0  0  0  0  0  0  0  0  0  0  0
    0.3242    0.2877    7.4370 H   0  0  0  0  0  0  0  0  0  0  0  0
   -2.7042    1.9905    8.3785 H   0  0  0  0  0  0  0  0  0  0  0  0
   -3.5737    2.1511    6.8634 H   0  0  0  0  0  0  0  0  0  0  0  0
   -2.9799    3.5837    7.6964 H   0  0  0  0  0  0  0  0  0  0  0  0
   -2.4370    3.2514    4.9889 H   0  0  0  0  0  0  0  0  0  0  0  0
   -1.2230    4.3233    5.6262 H   0  0  0  0  0  0  0  0  0  0  0  0
   -0.9211    1.8013    3.9566 H   0  0  0  0  0  0  0  0  0  0  0  0
   -0.5629    3.3831    3.4250 H   0  0  0  0  0  0  0  0  0  0  0  0
    1.3093    1.7801    3.9587 H   0  0  0  0  0  0  0  0  0  0  0  0
  1  2  1  0
  1 34  1  0
  1 35  1  0
  1 36  1  0
  2 30  1  0
  2  3  1  0
  2 37  1  1
  3  4  1  0
  3 38  1  0
  3 39  1  0
  4  5  1  0
  4 40  1  0
  4 41  1  0
  5 31  1  0
  5  6  1  0
  5 42  1  1
  6 20  1  0
  6  7  1  0
  6 43  1  1
  7  8  1  0
  8 13  1  0
  8  9  2  0
  9 10  1  0
  9 20  1  0
 10 11  2  0
 10 44  1  0
 11 12  1  0
 11 45  1  0
 12 19  1  0
 12 13  2  0
 13 14  1  0
 14 15  2  0
 14 46  1  0
 15 16  1  0
 15 47  1  0
 16 17  1  0
 16 18  1  0
 16 19  1  0
 17 48  1  0
 17 49  1  0
 17 50  1  0
 18 51  1  0
 18 52  1  0
 18 53  1  0
 20 21  1  1
 20 22  1  0
 21 54  1  0
 22 23  1  0
 22 24  1  0
 22 55  1  6
 23 56  1  0
 23 57  1  0
 23 58  1  0
 24 31  1  0
 24 25  1  0
 24 59  1  1
 25 26  1  0
 26 33  1  0
 26 27  1  1
 26 28  1  0
 27 60  1  0
 27 61  1  0
 27 62  1  0
 28 29  1  0
 28 63  1  0
 28 64  1  0
 29 30  1  0
 29 65  1  0
 29 66  1  0
 30 31  1  0
 30 67  1  6
 31 32  1  1
 32 33  1  0
M  END
>  <i_m_ct_stereo_status>  (181) 
1

>  <s_m_source_file>  (181) 
/var/tmp/pbs.5076255.sched01/tmpj5h_4zim/74m36hq9q5.sdf

>  <i_m_source_file_index>  (181) 
13

>  <i_lp_mmshare_version>  (181) 
48012

>  <i_f3d_flags>  (181) 
0

>  <s_epik_input>  (181) 
W0NIMl0xW0NIMl1bQ0BASF0oW0NIM10pW0NAQEhdMltDSDJdW0NIMl1bQ0BdKFtDSDNdKShPTzMpT1tDQEhdNFtDQEhdKFtDSDNdKVtDQF0oW09IXSkoW0NAQEhdNVtDQEBIXTFbQ0BdMjM0KWM2YyhPNSljN2MoW2NIXVtjSF02KU9DKFtDSDNdKShbQ0gzXSlbQ0hdPVtDSF03

>  <s_epik_cmdline>  (181) 
J2VwaWtfcHl0aG9uJywgJy1waHQnLCAnMi4wJywgJy1waCcsICc3LjAnLCAnLXRuJywgJzgnLCAnLW1hJywgJzIwMCcsICctaW1hZScsICc8aW5maWxlLm1hZT4nLCAnLW9tYWUnLCAnPG91dGZpbGUubWFlPic=

>  <r_lp_tautomer_probability>  (181) 
1

>  <r_epik_Ionization_Penalty>  (181) 
1.06334e-07

>  <r_epik_Ionization_Penalty_Charging>  (181) 
0

>  <r_epik_Ionization_Penalty_Neutral>  (181) 
1.06334e-07

>  <r_epik_State_Penalty>  (181) 
-0

>  <r_epik_Charging_Adjusted_Penalty>  (181) 
0

>  <i_epik_Tot_Q>  (181) 
0

>  <i_epik_Tot_abs_Q>  (181) 
0

>  <s_lp_Force_Field>  (181) 
OPLS3e

>  <r_lp_Energy>  (181) 
55.5243

>  <b_lp_Chiralities_Consistent>  (181) 
1

>  <s_lp_Variant>  (181) 
69:0-1

>  <s_i_glide_gridfile>  (181) 
pfpi4k_grid

>  <i_i_glide_lignum>  (181) 
13

>  <i_i_glide_rotatable_bonds>  (181) 
1

>  <r_i_docking_score>  (181) 
-2.15564

>  <r_i_glide_ligand_efficiency>  (181) 
-0.0653225

>  <r_i_glide_ligand_efficiency_sa>  (181) 
-0.209524

>  <r_i_glide_ligand_efficiency_ln>  (181) 
-0.479404

>  <r_i_glide_gscore>  (181) 
-2.15564

>  <r_i_glide_lipo>  (181) 
-0.402507

>  <r_i_glide_hbond>  (181) 
0

>  <r_i_glide_metal>  (181) 
-0

>  <r_i_glide_rewards>  (181) 
-0.319481

>  <r_i_glide_evdw>  (181) 
-28.6588

>  <r_i_glide_ecoul>  (181) 
-0.00477793

>  <r_i_glide_erotb>  (181) 
0

>  <r_i_glide_esite>  (181) 
0

>  <r_i_glide_emodel>  (181) 
-32.3803

>  <r_i_glide_energy>  (181) 
-28.6636

>  <r_i_glide_einternal>  (181) 
0.653117

>  <r_i_glide_intrahb_reward>  (181) 
-0

>  <i_i_glide_confnum>  (181) 
1

>  <i_i_glide_posenum>  (181) 
27

>  <r_i_glide_eff_state_penalty>  (181) 
0

>  <ligand_id>  (181) 
69

>  <original_smiles>  (181) 
CC1CCC2C3Oc4c(ccc5c4C=CC(C)(C)O5)C3(O)C(C)C3OC4(C)CCC1C23OO4

>  <smiles>  (181) 
[H]OC12c3c([H])c([H])c4c(c3OC1([H])C1([H])C([H])([H])C([H])([H])C([H])(C([H])([H])[H])C3([H])C([H])([H])C([H])([H])C5(C([H])([H])[H])OOC13C([H])(O5)C2([H])C([H])([H])[H])C([H])=C([H])C(C([H])([H])[H])(C([H])([H])[H])O4

$$$$
70:0:0
     RDKit          3D

 35 37  0  0  1  0  0  0  0  0999 V2000
    3.4651   -1.7739   -4.2915 C   0  0  0  0  0  0  0  0  0  0  0  0
    3.7466   -1.8030   -2.8139 C   0  0  0  0  0  0  0  0  0  0  0  0
    4.6773   -1.1195   -2.1563 C   0  0  0  0  0  0  0  0  0  0  0  0
    4.6838   -1.4196   -0.6837 C   0  0  2  0  0  0  0  0  0  0  0  0
    5.7976   -2.3354   -0.2045 C   0  0  0  0  0  0  0  0  0  0  0  0
    6.9816   -2.0213   -0.3424 O   0  0  0  0  0  0  0  0  0  0  0  0
    5.3021   -3.4582    0.3573 N   0  0  0  0  0  0  0  0  0  0  0  0
    3.8456   -3.4501    0.4070 C   0  0  1  0  0  0  0  0  0  0  0  0
    3.4432   -3.2902    1.8831 C   0  0  0  0  0  0  0  0  0  0  0  0
    3.9815   -4.3888    2.6145 O   0  0  0  0  0  0  0  0  0  0  0  0
    5.4069   -4.4432    2.5829 C   0  0  0  0  0  0  0  0  0  0  0  0
    5.9464   -4.5424    1.1341 C   0  0  0  0  0  0  0  0  0  0  0  0
    5.5855   -5.9050    0.5109 C   0  0  0  0  0  0  0  0  0  0  0  0
    7.4897   -4.4470    1.1705 C   0  0  0  0  0  0  0  0  0  0  0  0
    3.4147   -2.2685   -0.4741 C   0  0  2  0  0  0  0  0  0  0  0  0
    2.9328   -2.6745   -1.8994 C   0  0  0  0  0  0  0  0  0  0  0  0
    2.4470   -1.4232   -4.4608 H   0  0  0  0  0  0  0  0  0  0  0  0
    3.5516   -2.7819   -4.6987 H   0  0  0  0  0  0  0  0  0  0  0  0
    4.1554   -1.1086   -4.8102 H   0  0  0  0  0  0  0  0  0  0  0  0
    5.3812   -0.4452   -2.6109 H   0  0  0  0  0  0  0  0  0  0  0  0
    4.6627   -0.4993   -0.1005 H   0  0  0  0  0  0  0  0  0  0  0  0
    3.4193   -4.3796    0.0174 H   0  0  0  0  0  0  0  0  0  0  0  0
    3.8138   -2.3475    2.2925 H   0  0  0  0  0  0  0  0  0  0  0  0
    2.3572   -3.2839    1.9818 H   0  0  0  0  0  0  0  0  0  0  0  0
    5.8080   -3.5561    3.0764 H   0  0  0  0  0  0  0  0  0  0  0  0
    5.7372   -5.3039    3.1680 H   0  0  0  0  0  0  0  0  0  0  0  0
    6.1367   -6.7241    0.9774 H   0  0  0  0  0  0  0  0  0  0  0  0
    5.8157   -5.8864   -0.5508 H   0  0  0  0  0  0  0  0  0  0  0  0
    4.5281   -6.1492    0.6119 H   0  0  0  0  0  0  0  0  0  0  0  0
    7.9289   -5.2665    1.7436 H   0  0  0  0  0  0  0  0  0  0  0  0
    7.8066   -3.5213    1.6507 H   0  0  0  0  0  0  0  0  0  0  0  0
    7.9281   -4.4727    0.1712 H   0  0  0  0  0  0  0  0  0  0  0  0
    2.6443   -1.6815    0.0302 H   0  0  0  0  0  0  0  0  0  0  0  0
    1.8695   -2.4729   -2.0442 H   0  0  0  0  0  0  0  0  0  0  0  0
    3.0995   -3.7279   -2.1416 H   0  0  0  0  0  0  0  0  0  0  0  0
  1  2  1  0
  1 17  1  0
  1 18  1  0
  1 19  1  0
  2 16  1  0
  2  3  2  0
  3  4  1  0
  3 20  1  0
  4 15  1  0
  4  5  1  0
  4 21  1  1
  5  6  2  0
  5  7  1  0
  7 12  1  0
  7  8  1  0
  8  9  1  0
  8 15  1  0
  8 22  1  6
  9 10  1  0
  9 23  1  0
  9 24  1  0
 10 11  1  0
 11 12  1  0
 11 25  1  0
 11 26  1  0
 12 13  1  0
 12 14  1  0
 13 27  1  0
 13 28  1  0
 13 29  1  0
 14 30  1  0
 14 31  1  0
 14 32  1  0
 15 16  1  0
 15 33  1  1
 16 34  1  0
 16 35  1  0
M  END
>  <i_m_ct_stereo_status>  (182) 
1

>  <s_m_source_file>  (182) 
/var/tmp/pbs.5076255.sched01/tmpj5h_4zim/74m36hq9q5.sdf

>  <i_m_source_file_index>  (182) 
14

>  <i_lp_mmshare_version>  (182) 
48012

>  <i_f3d_flags>  (182) 
0

>  <s_epik_input>  (182) 
W0NIM11DKD1bQ0hdMSlbQ0gyXVtDQEhdKFtDQEhdMTIpW0NASF0zTihDMj1PKUMoW0NIM10pKFtDSDNdKVtDSDJdT1tDSDJdMw==

>  <s_epik_cmdline>  (182) 
J2VwaWtfcHl0aG9uJywgJy1waHQnLCAnMi4wJywgJy1waCcsICc3LjAnLCAnLXRuJywgJzgnLCAnLW1hJywgJzIwMCcsICctaW1hZScsICc8aW5maWxlLm1hZT4nLCAnLW9tYWUnLCAnPG91dGZpbGUubWFlPic=

>  <r_lp_tautomer_probability>  (182) 
1

>  <r_epik_Ionization_Penalty>  (182) 
1.19718e-08

>  <r_epik_Ionization_Penalty_Charging>  (182) 
0

>  <r_epik_Ionization_Penalty_Neutral>  (182) 
1.19718e-08

>  <r_epik_State_Penalty>  (182) 
-0

>  <r_epik_Charging_Adjusted_Penalty>  (182) 
0

>  <i_epik_Tot_Q>  (182) 
0

>  <i_epik_Tot_abs_Q>  (182) 
0

>  <s_lp_Force_Field>  (182) 
OPLS3e

>  <r_lp_Energy>  (182) 
-3.2306

>  <b_lp_Chiralities_Consistent>  (182) 
1

>  <s_lp_Variant>  (182) 
70:0-1

>  <s_i_glide_gridfile>  (182) 
pfpi4k_grid

>  <i_i_glide_lignum>  (182) 
14

>  <i_i_glide_rotatable_bonds>  (182) 
0

>  <r_i_docking_score>  (182) 
-3.76527

>  <r_i_glide_ligand_efficiency>  (182) 
-0.235329

>  <r_i_glide_ligand_efficiency_sa>  (182) 
-0.592992

>  <r_i_glide_ligand_efficiency_ln>  (182) 
-0.998059

>  <r_i_glide_gscore>  (182) 
-3.76527

>  <r_i_glide_lipo>  (182) 
-0.334374

>  <r_i_glide_hbond>  (182) 
-0.135569

>  <r_i_glide_metal>  (182) 
-0

>  <r_i_glide_rewards>  (182) 
-1.95965

>  <r_i_glide_evdw>  (182) 
-19.7206

>  <r_i_glide_ecoul>  (182) 
-2.28864

>  <r_i_glide_erotb>  (182) 
0

>  <r_i_glide_esite>  (182) 
-0.0063471

>  <r_i_glide_emodel>  (182) 
-27.0143

>  <r_i_glide_energy>  (182) 
-22.0092

>  <r_i_glide_einternal>  (182) 
0

>  <r_i_glide_intrahb_reward>  (182) 
-0

>  <i_i_glide_confnum>  (182) 
2

>  <i_i_glide_posenum>  (182) 
7

>  <r_i_glide_eff_state_penalty>  (182) 
0

>  <ligand_id>  (182) 
70

>  <original_smiles>  (182) 
CC1=CC2C(=O)N3C(COCC3(C)C)C2C1

>  <smiles>  (182) 
[H]C1=C(C([H])([H])[H])C([H])([H])C2([H])C1([H])C(=O)N1C2([H])C([H])([H])OC([H])([H])C1(C([H])([H])[H])C([H])([H])[H]

$$$$
70:0:1
     RDKit          3D

 35 37  0  0  1  0  0  0  0  0999 V2000
    3.6508   -3.3637   -3.9605 C   0  0  0  0  0  0  0  0  0  0  0  0
    4.2735   -2.7929   -2.7138 C   0  0  0  0  0  0  0  0  0  0  0  0
    5.4417   -3.1251   -2.1708 C   0  0  0  0  0  0  0  0  0  0  0  0
    5.7105   -2.3832   -0.8887 C   0  0  2  0  0  0  0  0  0  0  0  0
    5.5173   -3.1846    0.3895 C   0  0  0  0  0  0  0  0  0  0  0  0
    6.1967   -4.1823    0.6280 O   0  0  0  0  0  0  0  0  0  0  0  0
    4.5623   -2.6456    1.1747 N   0  0  0  0  0  0  0  0  0  0  0  0
    4.0409   -1.4033    0.6165 C   0  0  1  0  0  0  0  0  0  0  0  0
    4.5498   -0.2613    1.5100 C   0  0  0  0  0  0  0  0  0  0  0  0
    4.0826   -0.4800    2.8389 O   0  0  0  0  0  0  0  0  0  0  0  0
    4.5626   -1.6930    3.4159 C   0  0  0  0  0  0  0  0  0  0  0  0
    4.1630   -2.9323    2.5733 C   0  0  0  0  0  0  0  0  0  0  0  0
    2.6381   -3.1835    2.6355 C   0  0  0  0  0  0  0  0  0  0  0  0
    4.8572   -4.1761    3.1821 C   0  0  0  0  0  0  0  0  0  0  0  0
    4.5817   -1.3344   -0.8237 C   0  0  2  0  0  0  0  0  0  0  0  0
    3.5558   -1.7394   -1.9188 C   0  0  0  0  0  0  0  0  0  0  0  0
    3.4803   -2.5677   -4.6858 H   0  0  0  0  0  0  0  0  0  0  0  0
    2.6875   -3.8239   -3.7341 H   0  0  0  0  0  0  0  0  0  0  0  0
    4.3008   -4.1172   -4.4072 H   0  0  0  0  0  0  0  0  0  0  0  0
    6.1178   -3.8650   -2.5663 H   0  0  0  0  0  0  0  0  0  0  0  0
    6.6997   -1.9277   -0.8986 H   0  0  0  0  0  0  0  0  0  0  0  0
    2.9489   -1.3922    0.6080 H   0  0  0  0  0  0  0  0  0  0  0  0
    5.6412   -0.2102    1.4992 H   0  0  0  0  0  0  0  0  0  0  0  0
    4.1730    0.6934    1.1420 H   0  0  0  0  0  0  0  0  0  0  0  0
    5.6482   -1.6320    3.5143 H   0  0  0  0  0  0  0  0  0  0  0  0
    4.1625   -1.7788    4.4275 H   0  0  0  0  0  0  0  0  0  0  0  0
    2.3201   -3.4929    3.6322 H   0  0  0  0  0  0  0  0  0  0  0  0
    2.3411   -3.9605    1.9306 H   0  0  0  0  0  0  0  0  0  0  0  0
    2.0675   -2.2865    2.3969 H   0  0  0  0  0  0  0  0  0  0  0  0
    4.5286   -4.3567    4.2076 H   0  0  0  0  0  0  0  0  0  0  0  0
    5.9384   -4.0487    3.2190 H   0  0  0  0  0  0  0  0  0  0  0  0
    4.6512   -5.0816    2.6090 H   0  0  0  0  0  0  0  0  0  0  0  0
    4.9700   -0.3392   -1.0449 H   0  0  0  0  0  0  0  0  0  0  0  0
    3.2882   -0.8902   -2.5505 H   0  0  0  0  0  0  0  0  0  0  0  0
    2.6334   -2.1662   -1.5169 H   0  0  0  0  0  0  0  0  0  0  0  0
  1  2  1  0
  1 17  1  0
  1 18  1  0
  1 19  1  0
  2 16  1  0
  2  3  2  0
  3  4  1  0
  3 20  1  0
  4 15  1  0
  4  5  1  0
  4 21  1  6
  5  6  2  0
  5  7  1  0
  7 12  1  0
  7  8  1  0
  8  9  1  0
  8 15  1  0
  8 22  1  6
  9 10  1  0
  9 23  1  0
  9 24  1  0
 10 11  1  0
 11 12  1  0
 11 25  1  0
 11 26  1  0
 12 13  1  0
 12 14  1  0
 13 27  1  0
 13 28  1  0
 13 29  1  0
 14 30  1  0
 14 31  1  0
 14 32  1  0
 15 16  1  0
 15 33  1  6
 16 34  1  0
 16 35  1  0
M  END
>  <i_m_ct_stereo_status>  (183) 
1

>  <s_m_source_file>  (183) 
/var/tmp/pbs.5076255.sched01/tmpj5h_4zim/74m36hq9q5.sdf

>  <i_m_source_file_index>  (183) 
14

>  <i_lp_mmshare_version>  (183) 
48012

>  <i_f3d_flags>  (183) 
0

>  <s_epik_input>  (183) 
W0NIM11DKD1bQ0hdMSlbQ0gyXVtDQEhdKFtDQEhdMTIpW0NASF0zTihDMj1PKUMoW0NIM10pKFtDSDNdKVtDSDJdT1tDSDJdMw==

>  <s_epik_cmdline>  (183) 
J2VwaWtfcHl0aG9uJywgJy1waHQnLCAnMi4wJywgJy1waCcsICc3LjAnLCAnLXRuJywgJzgnLCAnLW1hJywgJzIwMCcsICctaW1hZScsICc8aW5maWxlLm1hZT4nLCAnLW9tYWUnLCAnPG91dGZpbGUubWFlPic=

>  <r_lp_tautomer_probability>  (183) 
1

>  <r_epik_Ionization_Penalty>  (183) 
1.19718e-08

>  <r_epik_Ionization_Penalty_Charging>  (183) 
0

>  <r_epik_Ionization_Penalty_Neutral>  (183) 
1.19718e-08

>  <r_epik_State_Penalty>  (183) 
-0

>  <r_epik_Charging_Adjusted_Penalty>  (183) 
0

>  <i_epik_Tot_Q>  (183) 
0

>  <i_epik_Tot_abs_Q>  (183) 
0

>  <s_lp_Force_Field>  (183) 
OPLS3e

>  <r_lp_Energy>  (183) 
-3.2306

>  <b_lp_Chiralities_Consistent>  (183) 
1

>  <s_lp_Variant>  (183) 
70:0-1

>  <s_i_glide_gridfile>  (183) 
pfpi4k_grid

>  <i_i_glide_lignum>  (183) 
14

>  <i_i_glide_rotatable_bonds>  (183) 
0

>  <r_i_docking_score>  (183) 
-3.58657

>  <r_i_glide_ligand_efficiency>  (183) 
-0.224161

>  <r_i_glide_ligand_efficiency_sa>  (183) 
-0.56485

>  <r_i_glide_ligand_efficiency_ln>  (183) 
-0.950693

>  <r_i_glide_gscore>  (183) 
-3.58657

>  <r_i_glide_lipo>  (183) 
-0.444083

>  <r_i_glide_hbond>  (183) 
0

>  <r_i_glide_metal>  (183) 
-0

>  <r_i_glide_rewards>  (183) 
-1.98614

>  <r_i_glide_evdw>  (183) 
-22.187

>  <r_i_glide_ecoul>  (183) 
-0.313351

>  <r_i_glide_erotb>  (183) 
0

>  <r_i_glide_esite>  (183) 
0

>  <r_i_glide_emodel>  (183) 
-27.2831

>  <r_i_glide_energy>  (183) 
-22.5004

>  <r_i_glide_einternal>  (183) 
0

>  <r_i_glide_intrahb_reward>  (183) 
-0

>  <i_i_glide_confnum>  (183) 
2

>  <i_i_glide_posenum>  (183) 
1

>  <r_i_glide_eff_state_penalty>  (183) 
0

>  <ligand_id>  (183) 
70

>  <original_smiles>  (183) 
CC1=CC2C(=O)N3C(COCC3(C)C)C2C1

>  <smiles>  (183) 
[H]C1=C(C([H])([H])[H])C([H])([H])C2([H])C1([H])C(=O)N1C2([H])C([H])([H])OC([H])([H])C1(C([H])([H])[H])C([H])([H])[H]

$$$$
70:0:2
     RDKit          3D

 35 37  0  0  1  0  0  0  0  0999 V2000
    3.2943   -2.4783   -3.9059 C   0  0  0  0  0  0  0  0  0  0  0  0
    3.9861   -2.4393   -2.5643 C   0  0  0  0  0  0  0  0  0  0  0  0
    4.5486   -3.4556   -1.9134 C   0  0  0  0  0  0  0  0  0  0  0  0
    5.0892   -3.0547   -0.5679 C   0  0  2  0  0  0  0  0  0  0  0  0
    4.2520   -3.4747    0.6335 C   0  0  0  0  0  0  0  0  0  0  0  0
    4.0374   -4.6595    0.8849 O   0  0  0  0  0  0  0  0  0  0  0  0
    3.8316   -2.4094    1.3423 N   0  0  0  0  0  0  0  0  0  0  0  0
    4.3572   -1.1626    0.8055 C   0  0  1  0  0  0  0  0  0  0  0  0
    5.3996   -0.6527    1.8110 C   0  0  0  0  0  0  0  0  0  0  0  0
    4.7573   -0.4425    3.0649 O   0  0  0  0  0  0  0  0  0  0  0  0
    4.2159   -1.6368    3.6240 C   0  0  0  0  0  0  0  0  0  0  0  0
    3.1870   -2.3059    2.6747 C   0  0  0  0  0  0  0  0  0  0  0  0
    1.8993   -1.4577    2.5584 C   0  0  0  0  0  0  0  0  0  0  0  0
    2.7872   -3.6727    3.2837 C   0  0  0  0  0  0  0  0  0  0  0  0
    4.9666   -1.5183   -0.5634 C   0  0  2  0  0  0  0  0  0  0  0  0
    4.0794   -1.1546   -1.7881 C   0  0  0  0  0  0  0  0  0  0  0  0
    3.7912   -1.8005   -4.5994 H   0  0  0  0  0  0  0  0  0  0  0  0
    2.2538   -2.1632   -3.8070 H   0  0  0  0  0  0  0  0  0  0  0  0
    3.3072   -3.4875   -4.3179 H   0  0  0  0  0  0  0  0  0  0  0  0
    4.5939   -4.4734   -2.2701 H   0  0  0  0  0  0  0  0  0  0  0  0
    6.1200   -3.3864   -0.4486 H   0  0  0  0  0  0  0  0  0  0  0  0
    3.5710   -0.4147    0.6853 H   0  0  0  0  0  0  0  0  0  0  0  0
    6.2335   -1.3485    1.9221 H   0  0  0  0  0  0  0  0  0  0  0  0
    5.8131    0.2869    1.4503 H   0  0  0  0  0  0  0  0  0  0  0  0
    5.0371   -2.3219    3.8447 H   0  0  0  0  0  0  0  0  0  0  0  0
    3.7480   -1.3930    4.5798 H   0  0  0  0  0  0  0  0  0  0  0  0
    1.3408   -1.4377    3.4953 H   0  0  0  0  0  0  0  0  0  0  0  0
    1.2419   -1.8461    1.7798 H   0  0  0  0  0  0  0  0  0  0  0  0
    2.1179   -0.4195    2.3103 H   0  0  0  0  0  0  0  0  0  0  0  0
    2.3043   -3.5503    4.2550 H   0  0  0  0  0  0  0  0  0  0  0  0
    3.6606   -4.3066    3.4473 H   0  0  0  0  0  0  0  0  0  0  0  0
    2.0931   -4.2168    2.6410 H   0  0  0  0  0  0  0  0  0  0  0  0
    5.9482   -1.0575   -0.6802 H   0  0  0  0  0  0  0  0  0  0  0  0
    4.5322   -0.3662   -2.3929 H   0  0  0  0  0  0  0  0  0  0  0  0
    3.0714   -0.8401   -1.5086 H   0  0  0  0  0  0  0  0  0  0  0  0
  1  2  1  0
  1 17  1  0
  1 18  1  0
  1 19  1  0
  2 16  1  0
  2  3  2  0
  3  4  1  0
  3 20  1  0
  4 15  1  0
  4  5  1  0
  4 21  1  1
  5  6  2  0
  5  7  1  0
  7 12  1  0
  7  8  1  0
  8  9  1  0
  8 15  1  0
  8 22  1  6
  9 10  1  0
  9 23  1  0
  9 24  1  0
 10 11  1  0
 11 12  1  0
 11 25  1  0
 11 26  1  0
 12 13  1  0
 12 14  1  0
 13 27  1  0
 13 28  1  0
 13 29  1  0
 14 30  1  0
 14 31  1  0
 14 32  1  0
 15 16  1  0
 15 33  1  6
 16 34  1  0
 16 35  1  0
M  END
>  <i_m_ct_stereo_status>  (184) 
1

>  <s_m_source_file>  (184) 
/var/tmp/pbs.5076255.sched01/tmpj5h_4zim/74m36hq9q5.sdf

>  <i_m_source_file_index>  (184) 
14

>  <i_lp_mmshare_version>  (184) 
48012

>  <i_f3d_flags>  (184) 
0

>  <s_epik_input>  (184) 
W0NIM11DKD1bQ0hdMSlbQ0gyXVtDQEhdKFtDQEhdMTIpW0NASF0zTihDMj1PKUMoW0NIM10pKFtDSDNdKVtDSDJdT1tDSDJdMw==

>  <s_epik_cmdline>  (184) 
J2VwaWtfcHl0aG9uJywgJy1waHQnLCAnMi4wJywgJy1waCcsICc3LjAnLCAnLXRuJywgJzgnLCAnLW1hJywgJzIwMCcsICctaW1hZScsICc8aW5maWxlLm1hZT4nLCAnLW9tYWUnLCAnPG91dGZpbGUubWFlPic=

>  <r_lp_tautomer_probability>  (184) 
1

>  <r_epik_Ionization_Penalty>  (184) 
1.19718e-08

>  <r_epik_Ionization_Penalty_Charging>  (184) 
0

>  <r_epik_Ionization_Penalty_Neutral>  (184) 
1.19718e-08

>  <r_epik_State_Penalty>  (184) 
-0

>  <r_epik_Charging_Adjusted_Penalty>  (184) 
0

>  <i_epik_Tot_Q>  (184) 
0

>  <i_epik_Tot_abs_Q>  (184) 
0

>  <s_lp_Force_Field>  (184) 
OPLS3e

>  <r_lp_Energy>  (184) 
-3.2306

>  <b_lp_Chiralities_Consistent>  (184) 
1

>  <s_lp_Variant>  (184) 
70:0-1

>  <s_i_glide_gridfile>  (184) 
pfpi4k_grid

>  <i_i_glide_lignum>  (184) 
14

>  <i_i_glide_rotatable_bonds>  (184) 
0

>  <r_i_docking_score>  (184) 
-3.38396

>  <r_i_glide_ligand_efficiency>  (184) 
-0.211498

>  <r_i_glide_ligand_efficiency_sa>  (184) 
-0.532941

>  <r_i_glide_ligand_efficiency_ln>  (184) 
-0.896987

>  <r_i_glide_gscore>  (184) 
-3.38396

>  <r_i_glide_lipo>  (184) 
-0.306452

>  <r_i_glide_hbond>  (184) 
0

>  <r_i_glide_metal>  (184) 
-0

>  <r_i_glide_rewards>  (184) 
-1.92883

>  <r_i_glide_evdw>  (184) 
-21.9687

>  <r_i_glide_ecoul>  (184) 
-0.305047

>  <r_i_glide_erotb>  (184) 
0

>  <r_i_glide_esite>  (184) 
-0.0044939

>  <r_i_glide_emodel>  (184) 
-26.7773

>  <r_i_glide_energy>  (184) 
-22.2738

>  <r_i_glide_einternal>  (184) 
0

>  <r_i_glide_intrahb_reward>  (184) 
-0

>  <i_i_glide_confnum>  (184) 
1

>  <i_i_glide_posenum>  (184) 
11

>  <r_i_glide_eff_state_penalty>  (184) 
0

>  <ligand_id>  (184) 
70

>  <original_smiles>  (184) 
CC1=CC2C(=O)N3C(COCC3(C)C)C2C1

>  <smiles>  (184) 
[H]C1=C(C([H])([H])[H])C([H])([H])C2([H])C1([H])C(=O)N1C2([H])C([H])([H])OC([H])([H])C1(C([H])([H])[H])C([H])([H])[H]

$$$$
71:0:0
     RDKit          3D

 32 37  0  0  1  0  0  0  0  0999 V2000
    3.8789   -1.2911   -1.0272 C   0  0  0  0  0  0  0  0  0  0  0  0
    4.8834   -1.5580   -2.1469 C   0  0  2  0  0  0  0  0  0  0  0  0
    4.2482   -2.4601   -3.2006 C   0  0  0  0  0  0  0  0  0  0  0  0
    4.7545   -3.5766   -2.2996 C   0  0  1  0  0  0  0  0  0  0  0  0
    5.9629   -2.6884   -1.9969 C   0  0  2  0  0  0  0  0  0  0  0  0
    6.5429   -3.2698   -0.6833 C   0  0  1  0  0  0  0  0  0  0  0  0
    6.6301   -2.6195    0.7238 C   0  0  1  0  0  0  0  0  0  0  0  0
    6.2859   -1.1710    1.0245 C   0  0  0  0  0  0  0  0  0  0  0  0
    4.9111   -1.2335    1.7309 C   0  0  0  0  0  0  0  0  0  0  0  0
    4.2609   -2.5515    1.2606 C   0  0  1  0  0  0  0  0  0  0  0  0
    3.6260   -2.5767   -0.1779 C   0  0  2  0  0  0  0  0  0  0  0  0
    4.1737   -3.8635   -0.9064 C   0  0  2  0  0  0  0  0  0  0  0  0
    5.4338   -4.1824   -0.1495 C   0  0  2  0  0  0  0  0  0  0  0  0
    5.4416   -3.4580    1.1596 C   0  0  1  0  0  0  0  0  0  0  0  0
    2.9400   -1.0166   -1.5000 H   0  0  0  0  0  0  0  0  0  0  0  0
    4.1477   -0.3916   -0.4871 H   0  0  0  0  0  0  0  0  0  0  0  0
    5.2790   -0.6528   -2.6041 H   0  0  0  0  0  0  0  0  0  0  0  0
    3.1638   -2.4328   -3.2656 H   0  0  0  0  0  0  0  0  0  0  0  0
    4.7235   -2.4374   -4.1862 H   0  0  0  0  0  0  0  0  0  0  0  0
    5.0403   -4.4629   -2.8556 H   0  0  0  0  0  0  0  0  0  0  0  0
    6.7001   -2.6832   -2.8143 H   0  0  0  0  0  0  0  0  0  0  0  0
    7.4397   -3.8536   -0.8766 H   0  0  0  0  0  0  0  0  0  0  0  0
    7.5372   -2.9701    1.2244 H   0  0  0  0  0  0  0  0  0  0  0  0
    7.0239   -0.7023    1.6720 H   0  0  0  0  0  0  0  0  0  0  0  0
    6.2511   -0.5789    0.1130 H   0  0  0  0  0  0  0  0  0  0  0  0
    5.0914   -1.3271    2.8022 H   0  0  0  0  0  0  0  0  0  0  0  0
    4.2881   -0.3432    1.6171 H   0  0  0  0  0  0  0  0  0  0  0  0
    3.5378   -2.9221    1.9842 H   0  0  0  0  0  0  0  0  0  0  0  0
    2.5416   -2.6582   -0.0686 H   0  0  0  0  0  0  0  0  0  0  0  0
    3.4489   -4.6731   -0.8970 H   0  0  0  0  0  0  0  0  0  0  0  0
    5.7303   -5.2297   -0.0954 H   0  0  0  0  0  0  0  0  0  0  0  0
    5.6636   -4.0856    2.0214 H   0  0  0  0  0  0  0  0  0  0  0  0
  1 11  1  0
  1  2  1  0
  1 15  1  0
  1 16  1  0
  2  5  1  0
  2  3  1  0
  2 17  1  6
  3  4  1  0
  3 18  1  0
  3 19  1  0
  4 12  1  0
  4  5  1  0
  4 20  1  6
  5  6  1  0
  5 21  1  6
  6 13  1  0
  6  7  1  0
  6 22  1  6
  7 14  1  0
  7  8  1  0
  7 23  1  1
  8  9  1  0
  8 24  1  0
  8 25  1  0
  9 10  1  0
  9 26  1  0
  9 27  1  0
 10 14  1  0
 10 11  1  0
 10 28  1  1
 11 12  1  0
 11 29  1  1
 12 13  1  0
 12 30  1  6
 13 14  1  0
 13 31  1  1
 14 32  1  1
M  END
>  <i_m_ct_stereo_status>  (185) 
1

>  <s_m_source_file>  (185) 
/var/tmp/pbs.5076255.sched01/tmpj5h_4zim/74m36hq9q5.sdf

>  <i_m_source_file_index>  (185) 
15

>  <i_lp_mmshare_version>  (185) 
48012

>  <i_f3d_flags>  (185) 
0

>  <s_epik_input>  (185) 
W0NAQEhdMTJbQ0BASF0zW0NASF0oW0NIMl0yKVtDQEBIXTRbQ0BIXShbQ0gyXTEpW0NASF01W0NAQEhdNltDQEBIXShbQ0BIXTNbQ0BIXTQ2KVtDSDJdW0NIMl01

>  <s_epik_cmdline>  (185) 
J2VwaWtfcHl0aG9uJywgJy1waHQnLCAnMi4wJywgJy1waCcsICc3LjAnLCAnLXRuJywgJzgnLCAnLW1hJywgJzIwMCcsICctaW1hZScsICc8aW5maWxlLm1hZT4nLCAnLW9tYWUnLCAnPG91dGZpbGUubWFlPic=

>  <r_lp_tautomer_probability>  (185) 
1

>  <r_epik_Ionization_Penalty>  (185) 
0

>  <r_epik_Ionization_Penalty_Charging>  (185) 
0

>  <r_epik_Ionization_Penalty_Neutral>  (185) 
0

>  <r_epik_State_Penalty>  (185) 
-0

>  <r_epik_Charging_Adjusted_Penalty>  (185) 
0

>  <i_epik_Tot_Q>  (185) 
0

>  <i_epik_Tot_abs_Q>  (185) 
0

>  <s_lp_Force_Field>  (185) 
OPLS3e

>  <r_lp_Energy>  (185) 
80.9948

>  <b_lp_Chiralities_Consistent>  (185) 
1

>  <s_lp_Variant>  (185) 
71:0-1

>  <s_i_glide_gridfile>  (185) 
pfpi4k_grid

>  <i_i_glide_lignum>  (185) 
15

>  <i_i_glide_rotatable_bonds>  (185) 
0

>  <r_i_docking_score>  (185) 
-3.92707

>  <r_i_glide_ligand_efficiency>  (185) 
-0.280505

>  <r_i_glide_ligand_efficiency_sa>  (185) 
-0.676057

>  <r_i_glide_ligand_efficiency_ln>  (185) 
-1.07915

>  <r_i_glide_gscore>  (185) 
-3.92707

>  <r_i_glide_lipo>  (185) 
-0.668293

>  <r_i_glide_hbond>  (185) 
0

>  <r_i_glide_metal>  (185) 
-0

>  <r_i_glide_rewards>  (185) 
-2.13891

>  <r_i_glide_evdw>  (185) 
-19.0558

>  <r_i_glide_ecoul>  (185) 
-1.11385

>  <r_i_glide_erotb>  (185) 
0

>  <r_i_glide_esite>  (185) 
0

>  <r_i_glide_emodel>  (185) 
-25.0966

>  <r_i_glide_energy>  (185) 
-20.1696

>  <r_i_glide_einternal>  (185) 
0

>  <r_i_glide_intrahb_reward>  (185) 
-0

>  <i_i_glide_confnum>  (185) 
1

>  <i_i_glide_posenum>  (185) 
6

>  <r_i_glide_eff_state_penalty>  (185) 
0

>  <ligand_id>  (185) 
71

>  <original_smiles>  (185) 
C1C2CC3C2C2C4CCC5C1C3C2C54

>  <smiles>  (185) 
[H]C1([H])C2([H])C([H])([H])C3([H])C2([H])C2([H])C4([H])C([H])([H])C([H])([H])C5([H])C1([H])C3([H])C2([H])C54[H]

$$$$
71:0:1
     RDKit          3D

 32 37  0  0  1  0  0  0  0  0999 V2000
    3.2002   -3.9023   -0.2652 C   0  0  0  0  0  0  0  0  0  0  0  0
    4.2699   -4.7561    0.4183 C   0  0  2  0  0  0  0  0  0  0  0  0
    4.1287   -4.6378    1.9323 C   0  0  0  0  0  0  0  0  0  0  0  0
    5.0258   -3.4188    1.7590 C   0  0  1  0  0  0  0  0  0  0  0  0
    5.7231   -4.1914    0.6364 C   0  0  2  0  0  0  0  0  0  0  0  0
    6.4406   -3.0853   -0.1863 C   0  0  1  0  0  0  0  0  0  0  0  0
    6.1985   -2.6387   -1.6560 C   0  0  1  0  0  0  0  0  0  0  0  0
    5.2623   -3.3446   -2.6295 C   0  0  0  0  0  0  0  0  0  0  0  0
    4.0096   -2.4330   -2.6995 C   0  0  0  0  0  0  0  0  0  0  0  0
    3.9849   -1.6501   -1.3681 C   0  0  1  0  0  0  0  0  0  0  0  0
    3.4810   -2.3789   -0.0725 C   0  0  2  0  0  0  0  0  0  0  0  0
    4.5612   -2.1268    1.0624 C   0  0  2  0  0  0  0  0  0  0  0  0
    5.8030   -1.7746    0.2814 C   0  0  2  0  0  0  0  0  0  0  0  0
    5.4385   -1.4292   -1.1268 C   0  0  1  0  0  0  0  0  0  0  0  0
    2.2368   -4.1169    0.1997 H   0  0  0  0  0  0  0  0  0  0  0  0
    3.0401   -4.2400   -1.2821 H   0  0  0  0  0  0  0  0  0  0  0  0
    4.2701   -5.8010    0.0974 H   0  0  0  0  0  0  0  0  0  0  0  0
    3.1326   -4.3928    2.3008 H   0  0  0  0  0  0  0  0  0  0  0  0
    4.5916   -5.4466    2.4982 H   0  0  0  0  0  0  0  0  0  0  0  0
    5.6891   -3.2549    2.6101 H   0  0  0  0  0  0  0  0  0  0  0  0
    6.4092   -4.9583    1.0081 H   0  0  0  0  0  0  0  0  0  0  0  0
    7.5055   -3.0677    0.0399 H   0  0  0  0  0  0  0  0  0  0  0  0
    7.1466   -2.3377   -2.1104 H   0  0  0  0  0  0  0  0  0  0  0  0
    5.7167   -3.4685   -3.6131 H   0  0  0  0  0  0  0  0  0  0  0  0
    5.0180   -4.3465   -2.2785 H   0  0  0  0  0  0  0  0  0  0  0  0
    4.1658   -1.7080   -3.5006 H   0  0  0  0  0  0  0  0  0  0  0  0
    3.0780   -2.9411   -2.9482 H   0  0  0  0  0  0  0  0  0  0  0  0
    3.4625   -0.7047   -1.4780 H   0  0  0  0  0  0  0  0  0  0  0  0
    2.5465   -1.9119    0.2349 H   0  0  0  0  0  0  0  0  0  0  0  0
    4.2566   -1.3446    1.7577 H   0  0  0  0  0  0  0  0  0  0  0  0
    6.5116   -1.0986    0.7601 H   0  0  0  0  0  0  0  0  0  0  0  0
    5.8158   -0.4683   -1.4748 H   0  0  0  0  0  0  0  0  0  0  0  0
  1 11  1  0
  1  2  1  0
  1 15  1  0
  1 16  1  0
  2  5  1  0
  2  3  1  0
  2 17  1  1
  3  4  1  0
  3 18  1  0
  3 19  1  0
  4 12  1  0
  4  5  1  0
  4 20  1  1
  5  6  1  0
  5 21  1  1
  6 13  1  0
  6  7  1  0
  6 22  1  6
  7 14  1  0
  7  8  1  0
  7 23  1  6
  8  9  1  0
  8 24  1  0
  8 25  1  0
  9 10  1  0
  9 26  1  0
  9 27  1  0
 10 14  1  0
 10 11  1  0
 10 28  1  6
 11 12  1  0
 11 29  1  1
 12 13  1  0
 12 30  1  1
 13 14  1  0
 13 31  1  1
 14 32  1  6
M  END
>  <i_m_ct_stereo_status>  (186) 
1

>  <s_m_source_file>  (186) 
/var/tmp/pbs.5076255.sched01/tmpj5h_4zim/74m36hq9q5.sdf

>  <i_m_source_file_index>  (186) 
15

>  <i_lp_mmshare_version>  (186) 
48012

>  <i_f3d_flags>  (186) 
0

>  <s_epik_input>  (186) 
W0NAQEhdMTJbQ0BASF0zW0NASF0oW0NIMl0yKVtDQEBIXTRbQ0BIXShbQ0gyXTEpW0NASF01W0NAQEhdNltDQEBIXShbQ0BIXTNbQ0BIXTQ2KVtDSDJdW0NIMl01

>  <s_epik_cmdline>  (186) 
J2VwaWtfcHl0aG9uJywgJy1waHQnLCAnMi4wJywgJy1waCcsICc3LjAnLCAnLXRuJywgJzgnLCAnLW1hJywgJzIwMCcsICctaW1hZScsICc8aW5maWxlLm1hZT4nLCAnLW9tYWUnLCAnPG91dGZpbGUubWFlPic=

>  <r_lp_tautomer_probability>  (186) 
1

>  <r_epik_Ionization_Penalty>  (186) 
0

>  <r_epik_Ionization_Penalty_Charging>  (186) 
0

>  <r_epik_Ionization_Penalty_Neutral>  (186) 
0

>  <r_epik_State_Penalty>  (186) 
-0

>  <r_epik_Charging_Adjusted_Penalty>  (186) 
0

>  <i_epik_Tot_Q>  (186) 
0

>  <i_epik_Tot_abs_Q>  (186) 
0

>  <s_lp_Force_Field>  (186) 
OPLS3e

>  <r_lp_Energy>  (186) 
80.9948

>  <b_lp_Chiralities_Consistent>  (186) 
1

>  <s_lp_Variant>  (186) 
71:0-1

>  <s_i_glide_gridfile>  (186) 
pfpi4k_grid

>  <i_i_glide_lignum>  (186) 
15

>  <i_i_glide_rotatable_bonds>  (186) 
0

>  <r_i_docking_score>  (186) 
-3.85234

>  <r_i_glide_ligand_efficiency>  (186) 
-0.275167

>  <r_i_glide_ligand_efficiency_sa>  (186) 
-0.663193

>  <r_i_glide_ligand_efficiency_ln>  (186) 
-1.05861

>  <r_i_glide_gscore>  (186) 
-3.85234

>  <r_i_glide_lipo>  (186) 
-0.609616

>  <r_i_glide_hbond>  (186) 
0

>  <r_i_glide_metal>  (186) 
-0

>  <r_i_glide_rewards>  (186) 
-2.13891

>  <r_i_glide_evdw>  (186) 
-19.3239

>  <r_i_glide_ecoul>  (186) 
-0.917464

>  <r_i_glide_erotb>  (186) 
0

>  <r_i_glide_esite>  (186) 
0

>  <r_i_glide_emodel>  (186) 
-25.1002

>  <r_i_glide_energy>  (186) 
-20.2414

>  <r_i_glide_einternal>  (186) 
0

>  <r_i_glide_intrahb_reward>  (186) 
-0

>  <i_i_glide_confnum>  (186) 
1

>  <i_i_glide_posenum>  (186) 
28

>  <r_i_glide_eff_state_penalty>  (186) 
0

>  <ligand_id>  (186) 
71

>  <original_smiles>  (186) 
C1C2CC3C2C2C4CCC5C1C3C2C54

>  <smiles>  (186) 
[H]C1([H])C2([H])C([H])([H])C3([H])C2([H])C2([H])C4([H])C([H])([H])C([H])([H])C5([H])C1([H])C3([H])C2([H])C54[H]

$$$$
71:0:2
     RDKit          3D

 32 37  0  0  1  0  0  0  0  0999 V2000
    2.6350   -3.4003   -1.3060 C   0  0  0  0  0  0  0  0  0  0  0  0
    2.9489   -2.3513   -2.3860 C   0  0  2  0  0  0  0  0  0  0  0  0
    3.5385   -3.0180   -3.6190 C   0  0  0  0  0  0  0  0  0  0  0  0
    4.8512   -2.8404   -2.8699 C   0  0  1  0  0  0  0  0  0  0  0  0
    4.2756   -1.5265   -2.3384 C   0  0  2  0  0  0  0  0  0  0  0  0
    5.1405   -1.2079   -1.0951 C   0  0  1  0  0  0  0  0  0  0  0  0
    4.7586   -1.1303    0.4066 C   0  0  1  0  0  0  0  0  0  0  0  0
    3.3343   -1.2038    0.9265 C   0  0  0  0  0  0  0  0  0  0  0  0
    3.2052   -2.6355    1.5018 C   0  0  0  0  0  0  0  0  0  0  0  0
    4.2700   -3.4828    0.7704 C   0  0  1  0  0  0  0  0  0  0  0  0
    3.9554   -3.9644   -0.6943 C   0  0  2  0  0  0  0  0  0  0  0  0
    5.2089   -3.6064   -1.5839 C   0  0  2  0  0  0  0  0  0  0  0  0
    5.8858   -2.5131   -0.8025 C   0  0  2  0  0  0  0  0  0  0  0  0
    5.3824   -2.5004    0.6073 C   0  0  1  0  0  0  0  0  0  0  0  0
    2.0894   -4.2168   -1.7765 H   0  0  0  0  0  0  0  0  0  0  0  0
    1.9087   -3.0132   -0.6033 H   0  0  0  0  0  0  0  0  0  0  0  0
    2.1012   -1.7345   -2.6734 H   0  0  0  0  0  0  0  0  0  0  0  0
    3.2615   -4.0520   -3.7728 H   0  0  0  0  0  0  0  0  0  0  0  0
    3.4543   -2.4192   -4.5325 H   0  0  0  0  0  0  0  0  0  0  0  0
    5.6927   -2.6582   -3.5152 H   0  0  0  0  0  0  0  0  0  0  0  0
    4.2820   -0.7145   -3.0836 H   0  0  0  0  0  0  0  0  0  0  0  0
    5.8229   -0.4002   -1.3189 H   0  0  0  0  0  0  0  0  0  0  0  0
    5.3651   -0.3604    0.8936 H   0  0  0  0  0  0  0  0  0  0  0  0
    3.1273   -0.4491    1.6860 H   0  0  0  0  0  0  0  0  0  0  0  0
    2.6281   -1.0278    0.1197 H   0  0  0  0  0  0  0  0  0  0  0  0
    3.4874   -2.5986    2.5545 H   0  0  0  0  0  0  0  0  0  0  0  0
    2.1948   -3.0541    1.4868 H   0  0  0  0  0  0  0  0  0  0  0  0
    4.5827   -4.3356    1.3727 H   0  0  0  0  0  0  0  0  0  0  0  0
    3.8314   -5.0506   -0.6713 H   0  0  0  0  0  0  0  0  0  0  0  0
    5.8218   -4.4752   -1.7689 H   0  0  0  0  0  0  0  0  0  0  0  0
    6.9669   -2.4276   -0.8963 H   0  0  0  0  0  0  0  0  0  0  0  0
    6.1640   -2.4945    1.3647 H   0  0  0  0  0  0  0  0  0  0  0  0
  1 11  1  0
  1  2  1  0
  1 15  1  0
  1 16  1  0
  2  5  1  0
  2  3  1  0
  2 17  1  6
  3  4  1  0
  3 18  1  0
  3 19  1  0
  4 12  1  0
  4  5  1  0
  4 20  1  6
  5  6  1  0
  5 21  1  6
  6 13  1  0
  6  7  1  0
  6 22  1  6
  7 14  1  0
  7  8  1  0
  7 23  1  1
  8  9  1  0
  8 24  1  0
  8 25  1  0
  9 10  1  0
  9 26  1  0
  9 27  1  0
 10 14  1  0
 10 11  1  0
 10 28  1  1
 11 12  1  0
 11 29  1  1
 12 13  1  0
 12 30  1  6
 13 14  1  0
 13 31  1  1
 14 32  1  1
M  END
>  <i_m_ct_stereo_status>  (187) 
1

>  <s_m_source_file>  (187) 
/var/tmp/pbs.5076255.sched01/tmpj5h_4zim/74m36hq9q5.sdf

>  <i_m_source_file_index>  (187) 
15

>  <i_lp_mmshare_version>  (187) 
48012

>  <i_f3d_flags>  (187) 
0

>  <s_epik_input>  (187) 
W0NAQEhdMTJbQ0BASF0zW0NASF0oW0NIMl0yKVtDQEBIXTRbQ0BIXShbQ0gyXTEpW0NASF01W0NAQEhdNltDQEBIXShbQ0BIXTNbQ0BIXTQ2KVtDSDJdW0NIMl01

>  <s_epik_cmdline>  (187) 
J2VwaWtfcHl0aG9uJywgJy1waHQnLCAnMi4wJywgJy1waCcsICc3LjAnLCAnLXRuJywgJzgnLCAnLW1hJywgJzIwMCcsICctaW1hZScsICc8aW5maWxlLm1hZT4nLCAnLW9tYWUnLCAnPG91dGZpbGUubWFlPic=

>  <r_lp_tautomer_probability>  (187) 
1

>  <r_epik_Ionization_Penalty>  (187) 
0

>  <r_epik_Ionization_Penalty_Charging>  (187) 
0

>  <r_epik_Ionization_Penalty_Neutral>  (187) 
0

>  <r_epik_State_Penalty>  (187) 
-0

>  <r_epik_Charging_Adjusted_Penalty>  (187) 
0

>  <i_epik_Tot_Q>  (187) 
0

>  <i_epik_Tot_abs_Q>  (187) 
0

>  <s_lp_Force_Field>  (187) 
OPLS3e

>  <r_lp_Energy>  (187) 
80.9948

>  <b_lp_Chiralities_Consistent>  (187) 
1

>  <s_lp_Variant>  (187) 
71:0-1

>  <s_i_glide_gridfile>  (187) 
pfpi4k_grid

>  <i_i_glide_lignum>  (187) 
15

>  <i_i_glide_rotatable_bonds>  (187) 
0

>  <r_i_docking_score>  (187) 
-3.79319

>  <r_i_glide_ligand_efficiency>  (187) 
-0.270942

>  <r_i_glide_ligand_efficiency_sa>  (187) 
-0.653009

>  <r_i_glide_ligand_efficiency_ln>  (187) 
-1.04235

>  <r_i_glide_gscore>  (187) 
-3.79319

>  <r_i_glide_lipo>  (187) 
-0.598687

>  <r_i_glide_hbond>  (187) 
0

>  <r_i_glide_metal>  (187) 
-0

>  <r_i_glide_rewards>  (187) 
-2.13891

>  <r_i_glide_evdw>  (187) 
-19.4549

>  <r_i_glide_ecoul>  (187) 
-0.552277

>  <r_i_glide_erotb>  (187) 
0

>  <r_i_glide_esite>  (187) 
0

>  <r_i_glide_emodel>  (187) 
-24.758

>  <r_i_glide_energy>  (187) 
-20.0072

>  <r_i_glide_einternal>  (187) 
0

>  <r_i_glide_intrahb_reward>  (187) 
-0

>  <i_i_glide_confnum>  (187) 
1

>  <i_i_glide_posenum>  (187) 
1

>  <r_i_glide_eff_state_penalty>  (187) 
0

>  <ligand_id>  (187) 
71

>  <original_smiles>  (187) 
C1C2CC3C2C2C4CCC5C1C3C2C54

>  <smiles>  (187) 
[H]C1([H])C2([H])C([H])([H])C3([H])C2([H])C2([H])C4([H])C([H])([H])C([H])([H])C5([H])C1([H])C3([H])C2([H])C54[H]

$$$$
72:0:0
     RDKit          3D

 79 85  0  0  1  0  0  0  0  0999 V2000
    2.1940    1.3060    2.5042 C   0  0  0  0  0  0  0  0  0  0  0  0
    2.7068   -0.1183    2.4252 C   0  0  0  0  0  0  0  0  0  0  0  0
    2.8706   -0.9478    3.4726 C   0  0  0  0  0  0  0  0  0  0  0  0
    3.2978   -2.4121    3.3329 C   0  0  1  0  0  0  0  0  0  0  0  0
    4.6951   -2.6348    3.8142 C   0  0  0  0  0  0  0  0  0  0  0  0
    5.1907   -2.0018    5.1079 C   0  0  0  0  0  0  0  0  0  0  0  0
    5.1753   -3.7051    3.1884 C   0  0  0  0  0  0  0  0  0  0  0  0
    5.4250   -4.9331    4.0054 C   0  0  0  0  0  0  0  0  0  0  0  0
    4.1717   -5.4070    4.8624 C   0  0  1  0  0  0  0  0  0  0  0  0
    4.6224   -5.2132    6.3342 C   0  0  0  0  0  0  0  0  0  0  0  0
    2.7575   -4.6586    4.7232 C   0  0  0  0  0  0  0  0  0  0  0  0
    2.4024   -3.4578    4.0919 C   0  0  0  0  0  0  0  0  0  0  0  0
    0.9493   -2.9631    4.0927 C   0  0  0  0  0  0  0  0  0  0  0  0
    1.7398   -5.3851    5.3839 N   0  0  0  0  0  0  0  0  0  0  0  0
    1.2438   -4.8202    6.6588 C   0  0  0  0  0  0  0  0  0  0  0  0
    0.9009   -5.7289    7.8744 C   0  0  0  0  0  0  0  0  0  0  0  0
    1.6021   -7.0794    8.0716 C   0  0  0  0  0  0  0  0  0  0  0  0
    1.2941   -8.1499    7.0074 C   0  0  0  0  0  0  0  0  0  0  0  0
    1.8097   -7.8574    5.5704 C   0  0  2  0  0  0  0  0  0  0  0  0
    3.3540   -7.8578    5.6142 C   0  0  0  0  0  0  0  0  0  0  0  0
    4.0812   -6.9751    4.5959 C   0  0  1  0  0  0  0  0  0  0  0  0
    3.6457   -7.4123    3.1922 C   0  0  0  0  0  0  0  0  0  0  0  0
    2.5922   -6.6173    2.7240 O   0  0  0  0  0  0  0  0  0  0  0  0
    1.2920   -6.7286    3.2177 C   0  0  1  0  0  0  0  0  0  0  0  0
    0.6149   -5.6426    2.6501 O   0  0  0  0  0  0  0  0  0  0  0  0
    0.6503   -8.0038    2.6016 C   0  0  0  0  0  0  0  0  0  0  0  0
   -0.8599   -8.0652    2.9291 C   0  0  1  0  0  0  0  0  0  0  0  0
   -1.5047   -9.3442    2.3838 C   0  0  0  0  0  0  0  0  0  0  0  0
   -1.0820   -7.9386    4.4354 C   0  0  0  0  0  0  0  0  0  0  0  0
   -0.4076   -6.6786    5.0129 C   0  0  0  0  0  0  0  0  0  0  0  0
    1.1527   -6.6351    4.8283 C   0  0  2  0  0  0  0  0  0  0  0  0
    4.4204   -3.8843    1.9379 C   0  0  0  0  0  0  0  0  0  0  0  0
    4.5676   -4.7560    1.0877 O   0  0  0  0  0  0  0  0  0  0  0  0
    3.3724   -2.7932    1.8437 C   0  0  2  0  0  0  0  0  0  0  0  0
    3.8577   -1.6112    0.9786 C   0  0  0  0  0  0  0  0  0  0  0  0
    3.0423   -0.4576    1.1395 O   0  0  0  0  0  0  0  0  0  0  0  0
    1.8890    1.5735    3.5110 H   0  0  0  0  0  0  0  0  0  0  0  0
    1.3413    1.4396    1.8403 H   0  0  0  0  0  0  0  0  0  0  0  0
    2.9686    1.9989    2.1843 H   0  0  0  0  0  0  0  0  0  0  0  0
    2.6379   -0.6061    4.4675 H   0  0  0  0  0  0  0  0  0  0  0  0
    5.5603   -1.0028    4.8691 H   0  0  0  0  0  0  0  0  0  0  0  0
    6.0338   -2.5523    5.5347 H   0  0  0  0  0  0  0  0  0  0  0  0
    4.4061   -1.9047    5.8594 H   0  0  0  0  0  0  0  0  0  0  0  0
    5.7786   -5.7058    3.3222 H   0  0  0  0  0  0  0  0  0  0  0  0
    6.2891   -4.7469    4.6485 H   0  0  0  0  0  0  0  0  0  0  0  0
    5.5373   -5.7606    6.5537 H   0  0  0  0  0  0  0  0  0  0  0  0
    3.8816   -5.5401    7.0505 H   0  0  0  0  0  0  0  0  0  0  0  0
    4.8038   -4.1694    6.5684 H   0  0  0  0  0  0  0  0  0  0  0  0
    0.6747   -2.5986    3.0992 H   0  0  0  0  0  0  0  0  0  0  0  0
    0.8211   -2.1441    4.8018 H   0  0  0  0  0  0  0  0  0  0  0  0
    0.2149   -3.7254    4.3387 H   0  0  0  0  0  0  0  0  0  0  0  0
    1.9960   -4.1121    7.0024 H   0  0  0  0  0  0  0  0  0  0  0  0
    0.3612   -4.2156    6.4536 H   0  0  0  0  0  0  0  0  0  0  0  0
    1.1018   -5.1406    8.7720 H   0  0  0  0  0  0  0  0  0  0  0  0
   -0.1746   -5.8905    7.9255 H   0  0  0  0  0  0  0  0  0  0  0  0
    2.6669   -6.9423    8.2370 H   0  0  0  0  0  0  0  0  0  0  0  0
    1.2479   -7.4821    9.0229 H   0  0  0  0  0  0  0  0  0  0  0  0
    1.7546   -9.0795    7.3414 H   0  0  0  0  0  0  0  0  0  0  0  0
    0.2315   -8.3838    7.0127 H   0  0  0  0  0  0  0  0  0  0  0  0
    1.5362   -8.7523    5.0176 H   0  0  0  0  0  0  0  0  0  0  0  0
    3.7533   -7.6830    6.6065 H   0  0  0  0  0  0  0  0  0  0  0  0
    3.6588   -8.8887    5.4301 H   0  0  0  0  0  0  0  0  0  0  0  0
    5.0994   -7.3479    4.6916 H   0  0  0  0  0  0  0  0  0  0  0  0
    4.4637   -7.2716    2.4895 H   0  0  0  0  0  0  0  0  0  0  0  0
    3.4087   -8.4755    3.1335 H   0  0  0  0  0  0  0  0  0  0  0  0
    1.0197   -4.8708    3.0197 H   0  0  0  0  0  0  0  0  0  0  0  0
    0.7767   -7.9563    1.5196 H   0  0  0  0  0  0  0  0  0  0  0  0
    1.1614   -8.9083    2.9242 H   0  0  0  0  0  0  0  0  0  0  0  0
   -1.3689   -7.2374    2.4399 H   0  0  0  0  0  0  0  0  0  0  0  0
   -1.0507  -10.2360    2.8180 H   0  0  0  0  0  0  0  0  0  0  0  0
   -1.3894   -9.4015    1.3019 H   0  0  0  0  0  0  0  0  0  0  0  0
   -2.5744   -9.3788    2.5934 H   0  0  0  0  0  0  0  0  0  0  0  0
   -2.1518   -7.8839    4.6180 H   0  0  0  0  0  0  0  0  0  0  0  0
   -0.7469   -8.8444    4.9387 H   0  0  0  0  0  0  0  0  0  0  0  0
   -0.8798   -5.7963    4.5948 H   0  0  0  0  0  0  0  0  0  0  0  0
   -0.6832   -6.6402    6.0539 H   0  0  0  0  0  0  0  0  0  0  0  0
    2.4213   -3.1825    1.4743 H   0  0  0  0  0  0  0  0  0  0  0  0
    4.8797   -1.3210    1.2245 H   0  0  0  0  0  0  0  0  0  0  0  0
    3.8685   -1.8852   -0.0753 H   0  0  0  0  0  0  0  0  0  0  0  0
  1  2  1  0
  1 37  1  0
  1 38  1  0
  1 39  1  0
  2 36  1  0
  2  3  2  0
  4  3  1  6
  3 40  1  0
  4 12  1  0
  4 34  1  0
  4  5  1  0
  5  6  1  0
  5  7  2  0
  6 41  1  0
  6 42  1  0
  6 43  1  0
  7  8  1  0
  7 32  1  0
  8  9  1  0
  8 44  1  0
  8 45  1  0
  9 21  1  0
  9 10  1  1
  9 11  1  0
 10 46  1  0
 10 47  1  0
 10 48  1  0
 11 12  2  0
 11 14  1  0
 12 13  1  0
 13 49  1  0
 13 50  1  0
 13 51  1  0
 14 31  1  0
 14 15  1  0
 15 16  1  0
 15 52  1  0
 15 53  1  0
 16 17  1  0
 16 54  1  0
 16 55  1  0
 17 18  1  0
 17 56  1  0
 17 57  1  0
 18 19  1  0
 18 58  1  0
 18 59  1  0
 19 31  1  0
 19 20  1  0
 19 60  1  6
 20 21  1  0
 20 61  1  0
 20 62  1  0
 21 22  1  0
 21 63  1  6
 22 23  1  0
 22 64  1  0
 22 65  1  0
 23 24  1  0
 24 31  1  0
 24 25  1  6
 24 26  1  0
 25 66  1  0
 26 27  1  0
 26 67  1  0
 26 68  1  0
 27 28  1  0
 27 29  1  0
 27 69  1  6
 28 70  1  0
 28 71  1  0
 28 72  1  0
 29 30  1  0
 29 73  1  0
 29 74  1  0
 31 30  1  6
 30 75  1  0
 30 76  1  0
 32 33  2  0
 32 34  1  0
 34 35  1  0
 34 77  1  6
 35 36  1  0
 35 78  1  0
 35 79  1  0
M  END
>  <i_m_ct_stereo_status>  (188) 
1

>  <s_m_source_file>  (188) 
/var/tmp/pbs.5076255.sched01/tmpj5h_4zim/74m36hq9q5.sdf

>  <i_m_source_file_index>  (188) 
16

>  <i_lp_mmshare_version>  (188) 
48012

>  <i_f3d_flags>  (188) 
1

>  <s_epik_input>  (188) 
W0NIM11DKD1bQ0hdMSlPW0NIMl1bQ0BIXShbQ0BdMTIzKUMoPU8pQyg9QzJbQ0gzXSlbQ0gyXVtDQEBdNChbQ0gzXSlDKD1DM1tDSDNdKU41W0NAXTY3W0NASF0oW0NIMl1bQ0gyXVtDSDJdW0NIMl01KVtDSDJdW0NASF00W0NIMl1PW0NAQF02KFtPSF0pW0NIMl1bQ0BASF0oW0NIM10pW0NIMl1bQ0gyXTc=

>  <s_epik_cmdline>  (188) 
J2VwaWtfcHl0aG9uJywgJy1waHQnLCAnMi4wJywgJy1waCcsICc3LjAnLCAnLXRuJywgJzgnLCAnLW1hJywgJzIwMCcsICctaW1hZScsICc8aW5maWxlLm1hZT4nLCAnLW9tYWUnLCAnPG91dGZpbGUubWFlPic=

>  <r_lp_tautomer_probability>  (188) 
1

>  <r_epik_Ionization_Penalty>  (188) 
6.2421e-05

>  <r_epik_Ionization_Penalty_Charging>  (188) 
5.90407e-12

>  <r_epik_Ionization_Penalty_Neutral>  (188) 
6.2421e-05

>  <r_epik_State_Penalty>  (188) 
-0

>  <r_epik_Charging_Adjusted_Penalty>  (188) 
5.90407e-12

>  <i_epik_Tot_Q>  (188) 
0

>  <i_epik_Tot_abs_Q>  (188) 
0

>  <s_epik_Chemistry_Notes>  (188) 
This compound has an imine and may undergo hydrolysis.

>  <s_lp_Force_Field>  (188) 
OPLS3e

>  <r_lp_Energy>  (188) 
134.695

>  <b_lp_Chiralities_Consistent>  (188) 
1

>  <s_lp_Variant>  (188) 
72:0-1

>  <s_i_glide_gridfile>  (188) 
pfpi4k_grid

>  <i_i_glide_lignum>  (188) 
16

>  <i_i_glide_rotatable_bonds>  (188) 
1

>  <r_i_docking_score>  (188) 
-2.21152

>  <r_i_glide_ligand_efficiency>  (188) 
-0.061431

>  <r_i_glide_ligand_efficiency_sa>  (188) 
-0.202841

>  <r_i_glide_ligand_efficiency_ln>  (188) 
-0.482493

>  <r_i_glide_gscore>  (188) 
-2.21152

>  <r_i_glide_lipo>  (188) 
-0.491045

>  <r_i_glide_hbond>  (188) 
0

>  <r_i_glide_metal>  (188) 
-0

>  <r_i_glide_rewards>  (188) 
-0.0643266

>  <r_i_glide_evdw>  (188) 
-27.2684

>  <r_i_glide_ecoul>  (188) 
-1.81651

>  <r_i_glide_erotb>  (188) 
0

>  <r_i_glide_esite>  (188) 
-0.0202476

>  <r_i_glide_emodel>  (188) 
-32.7814

>  <r_i_glide_energy>  (188) 
-29.0849

>  <r_i_glide_einternal>  (188) 
0.0222713

>  <r_i_glide_intrahb_reward>  (188) 
-0

>  <i_i_glide_confnum>  (188) 
1

>  <i_i_glide_posenum>  (188) 
5

>  <r_i_glide_eff_state_penalty>  (188) 
0

>  <ligand_id>  (188) 
72

>  <original_smiles>  (188) 
CC1=CC23C(C)=C(CC4(C)C(=C2C)N2CCCCC5CC4COC4(O)CC(C)CCC524)C(=O)C3CO1

>  <smiles>  (188) 
[H]OC12OC([H])([H])C3([H])C([H])([H])C4([H])C([H])([H])C([H])([H])C([H])([H])C([H])([H])N(C5=C(C([H])([H])[H])C67C([H])=C(C([H])([H])[H])OC([H])([H])C6([H])C(=O)C(=C7C([H])([H])[H])C([H])([H])C53C([H])([H])[H])C14C([H])([H])C([H])([H])C([H])(C([H])([H])[H])C2([H])[H]

$$$$
72:0:1
     RDKit          3D

 79 85  0  0  1  0  0  0  0  0999 V2000
    1.3990   -6.9070    2.1978 C   0  0  0  0  0  0  0  0  0  0  0  0
    1.0897   -6.0444    3.4059 C   0  0  0  0  0  0  0  0  0  0  0  0
    1.9214   -5.1071    3.9202 C   0  0  0  0  0  0  0  0  0  0  0  0
    1.5330   -4.1987    5.0929 C   0  0  1  0  0  0  0  0  0  0  0  0
    2.2945   -4.5199    6.3420 C   0  0  0  0  0  0  0  0  0  0  0  0
    3.7835   -4.8268    6.2944 C   0  0  0  0  0  0  0  0  0  0  0  0
    1.5751   -4.1518    7.3986 C   0  0  0  0  0  0  0  0  0  0  0  0
    2.0863   -2.9896    8.1894 C   0  0  0  0  0  0  0  0  0  0  0  0
    2.4248   -1.6991    7.3295 C   0  0  1  0  0  0  0  0  0  0  0  0
    3.9613   -1.5433    7.4644 C   0  0  0  0  0  0  0  0  0  0  0  0
    2.1098   -1.6436    5.7626 C   0  0  0  0  0  0  0  0  0  0  0  0
    1.7271   -2.6604    4.8599 C   0  0  0  0  0  0  0  0  0  0  0  0
    1.4738   -2.3370    3.3785 C   0  0  0  0  0  0  0  0  0  0  0  0
    2.2713   -0.3408    5.2582 N   0  0  0  0  0  0  0  0  0  0  0  0
    3.4556   -0.0930    4.4138 C   0  0  0  0  0  0  0  0  0  0  0  0
    4.2640    1.2281    4.5274 C   0  0  0  0  0  0  0  0  0  0  0  0
    4.2977    2.0312    5.8352 C   0  0  0  0  0  0  0  0  0  0  0  0
    2.9529    2.6566    6.2584 C   0  0  0  0  0  0  0  0  0  0  0  0
    1.8272    1.6589    6.6475 C   0  0  2  0  0  0  0  0  0  0  0  0
    2.2846    0.9229    7.9296 C   0  0  0  0  0  0  0  0  0  0  0  0
    1.7561   -0.5003    8.1357 C   0  0  1  0  0  0  0  0  0  0  0  0
    0.2247   -0.4338    8.1327 C   0  0  0  0  0  0  0  0  0  0  0  0
   -0.3130   -0.7234    6.8677 O   0  0  0  0  0  0  0  0  0  0  0  0
   -0.2131    0.1701    5.7868 C   0  0  1  0  0  0  0  0  0  0  0  0
   -0.6884   -0.5474    4.6665 O   0  0  0  0  0  0  0  0  0  0  0  0
   -1.2731    1.2896    6.0271 C   0  0  0  0  0  0  0  0  0  0  0  0
   -1.3891    2.1950    4.7796 C   0  0  1  0  0  0  0  0  0  0  0  0
   -2.3991    3.3334    5.0014 C   0  0  0  0  0  0  0  0  0  0  0  0
   -0.0138    2.7428    4.3839 C   0  0  0  0  0  0  0  0  0  0  0  0
    1.0212    1.6138    4.1958 C   0  0  0  0  0  0  0  0  0  0  0  0
    1.2746    0.7461    5.4858 C   0  0  2  0  0  0  0  0  0  0  0  0
    0.1634   -4.0616    6.9657 C   0  0  0  0  0  0  0  0  0  0  0  0
   -0.8163   -3.7410    7.6212 O   0  0  0  0  0  0  0  0  0  0  0  0
    0.0835   -4.4594    5.5021 C   0  0  2  0  0  0  0  0  0  0  0  0
   -0.3057   -5.9424    5.3266 C   0  0  0  0  0  0  0  0  0  0  0  0
   -0.1032   -6.3759    3.9853 O   0  0  0  0  0  0  0  0  0  0  0  0
    2.3241   -6.6158    1.7148 H   0  0  0  0  0  0  0  0  0  0  0  0
    0.5933   -6.8388    1.4744 H   0  0  0  0  0  0  0  0  0  0  0  0
    1.4823   -7.9531    2.4945 H   0  0  0  0  0  0  0  0  0  0  0  0
    2.8671   -4.9124    3.4567 H   0  0  0  0  0  0  0  0  0  0  0  0
    3.9152   -5.8863    6.0643 H   0  0  0  0  0  0  0  0  0  0  0  0
    4.2658   -4.6544    7.2592 H   0  0  0  0  0  0  0  0  0  0  0  0
    4.2940   -4.2477    5.5248 H   0  0  0  0  0  0  0  0  0  0  0  0
    1.3471   -2.7895    8.9668 H   0  0  0  0  0  0  0  0  0  0  0  0
    2.9577   -3.3352    8.7488 H   0  0  0  0  0  0  0  0  0  0  0  0
    4.2745   -1.4752    8.5069 H   0  0  0  0  0  0  0  0  0  0  0  0
    4.3463   -0.6650    6.9647 H   0  0  0  0  0  0  0  0  0  0  0  0
    4.4911   -2.3786    7.0192 H   0  0  0  0  0  0  0  0  0  0  0  0
    0.5691   -2.8450    3.0431 H   0  0  0  0  0  0  0  0  0  0  0  0
    2.3046   -2.6706    2.7509 H   0  0  0  0  0  0  0  0  0  0  0  0
    1.3065   -1.2886    3.1680 H   0  0  0  0  0  0  0  0  0  0  0  0
    4.1608   -0.8990    4.6162 H   0  0  0  0  0  0  0  0  0  0  0  0
    3.1849   -0.2080    3.3651 H   0  0  0  0  0  0  0  0  0  0  0  0
    5.3001    0.9802    4.2881 H   0  0  0  0  0  0  0  0  0  0  0  0
    3.9751    1.8987    3.7217 H   0  0  0  0  0  0  0  0  0  0  0  0
    4.7743    1.4647    6.6278 H   0  0  0  0  0  0  0  0  0  0  0  0
    4.9845    2.8673    5.6752 H   0  0  0  0  0  0  0  0  0  0  0  0
    3.1568    3.2921    7.1222 H   0  0  0  0  0  0  0  0  0  0  0  0
    2.6231    3.3664    5.5009 H   0  0  0  0  0  0  0  0  0  0  0  0
    1.0163    2.3100    6.9630 H   0  0  0  0  0  0  0  0  0  0  0  0
    3.3587    0.9458    8.0779 H   0  0  0  0  0  0  0  0  0  0  0  0
    1.9366    1.5297    8.7670 H   0  0  0  0  0  0  0  0  0  0  0  0
    2.0250   -0.6613    9.1785 H   0  0  0  0  0  0  0  0  0  0  0  0
   -0.1636   -1.1887    8.8096 H   0  0  0  0  0  0  0  0  0  0  0  0
   -0.1557    0.5061    8.5380 H   0  0  0  0  0  0  0  0  0  0  0  0
   -0.5297   -0.0006    3.9035 H   0  0  0  0  0  0  0  0  0  0  0  0
   -2.2346    0.8063    6.2015 H   0  0  0  0  0  0  0  0  0  0  0  0
   -1.0587    1.8678    6.9223 H   0  0  0  0  0  0  0  0  0  0  0  0
   -1.7767    1.6160    3.9410 H   0  0  0  0  0  0  0  0  0  0  0  0
   -2.0985    3.9812    5.8248 H   0  0  0  0  0  0  0  0  0  0  0  0
   -3.3902    2.9475    5.2375 H   0  0  0  0  0  0  0  0  0  0  0  0
   -2.5031    3.9442    4.1058 H   0  0  0  0  0  0  0  0  0  0  0  0
   -0.1015    3.2868    3.4465 H   0  0  0  0  0  0  0  0  0  0  0  0
    0.3196    3.4739    5.1168 H   0  0  0  0  0  0  0  0  0  0  0  0
    0.7490    0.9956    3.3504 H   0  0  0  0  0  0  0  0  0  0  0  0
    1.9185    2.1066    3.8539 H   0  0  0  0  0  0  0  0  0  0  0  0
   -0.5834   -3.7978    4.9498 H   0  0  0  0  0  0  0  0  0  0  0  0
    0.2687   -6.6033    5.9776 H   0  0  0  0  0  0  0  0  0  0  0  0
   -1.3482   -6.1084    5.5825 H   0  0  0  0  0  0  0  0  0  0  0  0
  1  2  1  0
  1 37  1  0
  1 38  1  0
  1 39  1  0
  2 36  1  0
  2  3  2  0
  4  3  1  6
  3 40  1  0
  4 12  1  0
  4 34  1  0
  4  5  1  0
  5  6  1  0
  5  7  2  0
  6 41  1  0
  6 42  1  0
  6 43  1  0
  7  8  1  0
  7 32  1  0
  8  9  1  0
  8 44  1  0
  8 45  1  0
  9 21  1  0
  9 10  1  6
  9 11  1  0
 10 46  1  0
 10 47  1  0
 10 48  1  0
 11 12  2  0
 11 14  1  0
 12 13  1  0
 13 49  1  0
 13 50  1  0
 13 51  1  0
 14 31  1  0
 14 15  1  0
 15 16  1  0
 15 52  1  0
 15 53  1  0
 16 17  1  0
 16 54  1  0
 16 55  1  0
 17 18  1  0
 17 56  1  0
 17 57  1  0
 18 19  1  0
 18 58  1  0
 18 59  1  0
 19 31  1  0
 19 20  1  0
 19 60  1  1
 20 21  1  0
 20 61  1  0
 20 62  1  0
 21 22  1  0
 21 63  1  1
 22 23  1  0
 22 64  1  0
 22 65  1  0
 23 24  1  0
 24 31  1  0
 24 25  1  6
 24 26  1  0
 25 66  1  0
 26 27  1  0
 26 67  1  0
 26 68  1  0
 27 28  1  0
 27 29  1  0
 27 69  1  6
 28 70  1  0
 28 71  1  0
 28 72  1  0
 29 30  1  0
 29 73  1  0
 29 74  1  0
 31 30  1  6
 30 75  1  0
 30 76  1  0
 32 33  2  0
 32 34  1  0
 34 35  1  0
 34 77  1  6
 35 36  1  0
 35 78  1  0
 35 79  1  0
M  END
>  <i_m_ct_stereo_status>  (189) 
1

>  <s_m_source_file>  (189) 
/var/tmp/pbs.5076255.sched01/tmpj5h_4zim/74m36hq9q5.sdf

>  <i_m_source_file_index>  (189) 
16

>  <i_lp_mmshare_version>  (189) 
48012

>  <i_f3d_flags>  (189) 
1

>  <s_epik_input>  (189) 
W0NIM11DKD1bQ0hdMSlPW0NIMl1bQ0BIXShbQ0BdMTIzKUMoPU8pQyg9QzJbQ0gzXSlbQ0gyXVtDQEBdNChbQ0gzXSlDKD1DM1tDSDNdKU41W0NAXTY3W0NASF0oW0NIMl1bQ0gyXVtDSDJdW0NIMl01KVtDSDJdW0NASF00W0NIMl1PW0NAQF02KFtPSF0pW0NIMl1bQ0BASF0oW0NIM10pW0NIMl1bQ0gyXTc=

>  <s_epik_cmdline>  (189) 
J2VwaWtfcHl0aG9uJywgJy1waHQnLCAnMi4wJywgJy1waCcsICc3LjAnLCAnLXRuJywgJzgnLCAnLW1hJywgJzIwMCcsICctaW1hZScsICc8aW5maWxlLm1hZT4nLCAnLW9tYWUnLCAnPG91dGZpbGUubWFlPic=

>  <r_lp_tautomer_probability>  (189) 
1

>  <r_epik_Ionization_Penalty>  (189) 
6.2421e-05

>  <r_epik_Ionization_Penalty_Charging>  (189) 
5.90407e-12

>  <r_epik_Ionization_Penalty_Neutral>  (189) 
6.2421e-05

>  <r_epik_State_Penalty>  (189) 
-0

>  <r_epik_Charging_Adjusted_Penalty>  (189) 
5.90407e-12

>  <i_epik_Tot_Q>  (189) 
0

>  <i_epik_Tot_abs_Q>  (189) 
0

>  <s_epik_Chemistry_Notes>  (189) 
This compound has an imine and may undergo hydrolysis.

>  <s_lp_Force_Field>  (189) 
OPLS3e

>  <r_lp_Energy>  (189) 
134.695

>  <b_lp_Chiralities_Consistent>  (189) 
1

>  <s_lp_Variant>  (189) 
72:0-1

>  <s_i_glide_gridfile>  (189) 
pfpi4k_grid

>  <i_i_glide_lignum>  (189) 
16

>  <i_i_glide_rotatable_bonds>  (189) 
1

>  <r_i_docking_score>  (189) 
-1.80799

>  <r_i_glide_ligand_efficiency>  (189) 
-0.0502219

>  <r_i_glide_ligand_efficiency_sa>  (189) 
-0.165829

>  <r_i_glide_ligand_efficiency_ln>  (189) 
-0.394455

>  <r_i_glide_gscore>  (189) 
-1.80799

>  <r_i_glide_lipo>  (189) 
-0.0508884

>  <r_i_glide_hbond>  (189) 
-0.0100631

>  <r_i_glide_metal>  (189) 
-0

>  <r_i_glide_rewards>  (189) 
-0.0431085

>  <r_i_glide_evdw>  (189) 
-23.9991

>  <r_i_glide_ecoul>  (189) 
-3.15559

>  <r_i_glide_erotb>  (189) 
0

>  <r_i_glide_esite>  (189) 
-0.0306394

>  <r_i_glide_emodel>  (189) 
-29.1626

>  <r_i_glide_energy>  (189) 
-27.1546

>  <r_i_glide_einternal>  (189) 
1.64882

>  <r_i_glide_intrahb_reward>  (189) 
-0

>  <i_i_glide_confnum>  (189) 
2

>  <i_i_glide_posenum>  (189) 
17

>  <r_i_glide_eff_state_penalty>  (189) 
0

>  <ligand_id>  (189) 
72

>  <original_smiles>  (189) 
CC1=CC23C(C)=C(CC4(C)C(=C2C)N2CCCCC5CC4COC4(O)CC(C)CCC524)C(=O)C3CO1

>  <smiles>  (189) 
[H]OC12OC([H])([H])C3([H])C([H])([H])C4([H])C([H])([H])C([H])([H])C([H])([H])C([H])([H])N(C5=C(C([H])([H])[H])C67C([H])=C(C([H])([H])[H])OC([H])([H])C6([H])C(=O)C(=C7C([H])([H])[H])C([H])([H])C53C([H])([H])[H])C14C([H])([H])C([H])([H])C([H])(C([H])([H])[H])C2([H])[H]

$$$$
72:0:2
     RDKit          3D

 79 85  0  0  1  0  0  0  0  0999 V2000
    1.3824   -6.8978    2.1574 C   0  0  0  0  0  0  0  0  0  0  0  0
    1.0777   -6.0427    3.3720 C   0  0  0  0  0  0  0  0  0  0  0  0
    1.9135   -5.1123    3.8917 C   0  0  0  0  0  0  0  0  0  0  0  0
    1.5294   -4.2098    5.0712 C   0  0  1  0  0  0  0  0  0  0  0  0
    2.2899   -4.5416    6.3188 C   0  0  0  0  0  0  0  0  0  0  0  0
    3.7774   -4.8517    6.2675 C   0  0  0  0  0  0  0  0  0  0  0  0
    1.5717   -4.1777    7.3781 C   0  0  0  0  0  0  0  0  0  0  0  0
    2.0834   -3.0200    8.1748 C   0  0  0  0  0  0  0  0  0  0  0  0
    2.4246   -1.7250    7.3223 C   0  0  1  0  0  0  0  0  0  0  0  0
    3.9612   -1.5744    7.4566 C   0  0  0  0  0  0  0  0  0  0  0  0
    2.1081   -1.6596    5.7559 C   0  0  0  0  0  0  0  0  0  0  0  0
    1.7235   -2.6703    4.8475 C   0  0  0  0  0  0  0  0  0  0  0  0
    1.4667   -2.3343    3.3680 C   0  0  0  0  0  0  0  0  0  0  0  0
    2.2690   -0.3541    5.2565 N   0  0  0  0  0  0  0  0  0  0  0  0
    3.4566   -0.1044    4.4171 C   0  0  0  0  0  0  0  0  0  0  0  0
    4.2696    1.2134    4.5388 C   0  0  0  0  0  0  0  0  0  0  0  0
    4.3071    2.0094    5.8504 C   0  0  0  0  0  0  0  0  0  0  0  0
    2.9655    2.6366    6.2797 C   0  0  0  0  0  0  0  0  0  0  0  0
    1.8376    1.6406    6.6639 C   0  0  2  0  0  0  0  0  0  0  0  0
    2.2924    0.8927    7.9402 C   0  0  0  0  0  0  0  0  0  0  0  0
    1.7587   -0.5298    8.1368 C   0  0  1  0  0  0  0  0  0  0  0  0
    0.2295   -0.4591    8.1333 C   0  0  0  0  0  0  0  0  0  0  0  0
   -0.3041   -0.7369    6.8653 O   0  0  0  0  0  0  0  0  0  0  0  0
   -0.2025    0.1642    5.7936 C   0  0  1  0  0  0  0  0  0  0  0  0
   -0.6484   -0.5560    4.6682 O   0  0  0  0  0  0  0  0  0  0  0  0
   -1.2682    1.2791    6.0383 C   0  0  0  0  0  0  0  0  0  0  0  0
   -1.3798    2.1949    4.7992 C   0  0  1  0  0  0  0  0  0  0  0  0
   -2.3908    3.3324    5.0294 C   0  0  0  0  0  0  0  0  0  0  0  0
   -0.0032    2.7449    4.4086 C   0  0  0  0  0  0  0  0  0  0  0  0
    1.0293    1.6161    4.2121 C   0  0  0  0  0  0  0  0  0  0  0  0
    1.2824    0.7399    5.4969 C   0  0  2  0  0  0  0  0  0  0  0  0
    0.1603   -4.0818    6.9448 C   0  0  0  0  0  0  0  0  0  0  0  0
   -0.8180   -3.7578    7.5992 O   0  0  0  0  0  0  0  0  0  0  0  0
    0.0781   -4.4684    5.4771 C   0  0  2  0  0  0  0  0  0  0  0  0
   -0.3153   -5.9508    5.2949 C   0  0  0  0  0  0  0  0  0  0  0  0
   -0.1159   -6.3741    3.9499 O   0  0  0  0  0  0  0  0  0  0  0  0
    2.3080   -6.6058    1.6756 H   0  0  0  0  0  0  0  0  0  0  0  0
    0.5761   -6.8223    1.4354 H   0  0  0  0  0  0  0  0  0  0  0  0
    1.4632   -7.9460    2.4467 H   0  0  0  0  0  0  0  0  0  0  0  0
    2.8585   -4.9166    3.4269 H   0  0  0  0  0  0  0  0  0  0  0  0
    3.9057   -5.9103    6.0299 H   0  0  0  0  0  0  0  0  0  0  0  0
    4.2608   -4.6857    7.2332 H   0  0  0  0  0  0  0  0  0  0  0  0
    4.2873   -4.2685    5.5000 H   0  0  0  0  0  0  0  0  0  0  0  0
    1.3449   -2.8236    8.9538 H   0  0  0  0  0  0  0  0  0  0  0  0
    2.9543   -3.3715    8.7314 H   0  0  0  0  0  0  0  0  0  0  0  0
    4.2755   -1.5143    8.4994 H   0  0  0  0  0  0  0  0  0  0  0  0
    4.3490   -0.6940    6.9626 H   0  0  0  0  0  0  0  0  0  0  0  0
    4.4890   -2.4087    7.0064 H   0  0  0  0  0  0  0  0  0  0  0  0
    0.5624   -2.8398    3.0259 H   0  0  0  0  0  0  0  0  0  0  0  0
    2.2971   -2.6686    2.7405 H   0  0  0  0  0  0  0  0  0  0  0  0
    1.3122   -1.2843    3.1520 H   0  0  0  0  0  0  0  0  0  0  0  0
    4.1594   -0.9136    4.6139 H   0  0  0  0  0  0  0  0  0  0  0  0
    3.1882   -0.2103    3.3668 H   0  0  0  0  0  0  0  0  0  0  0  0
    5.3049    0.9644    4.2971 H   0  0  0  0  0  0  0  0  0  0  0  0
    3.9837    1.8900    3.7371 H   0  0  0  0  0  0  0  0  0  0  0  0
    4.7838    1.4379    6.6394 H   0  0  0  0  0  0  0  0  0  0  0  0
    4.9949    2.8444    5.6893 H   0  0  0  0  0  0  0  0  0  0  0  0
    3.1714    3.2654    7.1473 H   0  0  0  0  0  0  0  0  0  0  0  0
    2.6360    3.3511    5.5267 H   0  0  0  0  0  0  0  0  0  0  0  0
    1.0274    2.2911    6.9835 H   0  0  0  0  0  0  0  0  0  0  0  0
    3.3661    0.9114    8.0877 H   0  0  0  0  0  0  0  0  0  0  0  0
    1.9458    1.4952    8.7816 H   0  0  0  0  0  0  0  0  0  0  0  0
    2.0275   -0.6994    9.1782 H   0  0  0  0  0  0  0  0  0  0  0  0
   -0.1637   -1.2183    8.8036 H   0  0  0  0  0  0  0  0  0  0  0  0
   -0.1510    0.4790    8.5447 H   0  0  0  0  0  0  0  0  0  0  0  0
    0.0852   -1.1020    4.4057 H   0  0  0  0  0  0  0  0  0  0  0  0
   -2.2296    0.7960    6.2081 H   0  0  0  0  0  0  0  0  0  0  0  0
   -1.0541    1.8525    6.9369 H   0  0  0  0  0  0  0  0  0  0  0  0
   -1.7619    1.6153    3.9581 H   0  0  0  0  0  0  0  0  0  0  0  0
   -2.0855    3.9758    5.8569 H   0  0  0  0  0  0  0  0  0  0  0  0
   -3.3811    2.9456    5.2625 H   0  0  0  0  0  0  0  0  0  0  0  0
   -2.4906    3.9514    4.1369 H   0  0  0  0  0  0  0  0  0  0  0  0
   -0.0905    3.2932    3.4730 H   0  0  0  0  0  0  0  0  0  0  0  0
    0.3325    3.4706    5.1458 H   0  0  0  0  0  0  0  0  0  0  0  0
    0.7432    1.0015    3.3682 H   0  0  0  0  0  0  0  0  0  0  0  0
    1.9276    2.1043    3.8675 H   0  0  0  0  0  0  0  0  0  0  0  0
   -0.5882   -3.8037    4.9264 H   0  0  0  0  0  0  0  0  0  0  0  0
    0.2552   -6.6203    5.9400 H   0  0  0  0  0  0  0  0  0  0  0  0
   -1.3589   -6.1134    5.5493 H   0  0  0  0  0  0  0  0  0  0  0  0
  1  2  1  0
  1 37  1  0
  1 38  1  0
  1 39  1  0
  2 36  1  0
  2  3  2  0
  4  3  1  6
  3 40  1  0
  4 12  1  0
  4 34  1  0
  4  5  1  0
  5  6  1  0
  5  7  2  0
  6 41  1  0
  6 42  1  0
  6 43  1  0
  7  8  1  0
  7 32  1  0
  8  9  1  0
  8 44  1  0
  8 45  1  0
  9 21  1  0
  9 10  1  6
  9 11  1  0
 10 46  1  0
 10 47  1  0
 10 48  1  0
 11 12  2  0
 11 14  1  0
 12 13  1  0
 13 49  1  0
 13 50  1  0
 13 51  1  0
 14 31  1  0
 14 15  1  0
 15 16  1  0
 15 52  1  0
 15 53  1  0
 16 17  1  0
 16 54  1  0
 16 55  1  0
 17 18  1  0
 17 56  1  0
 17 57  1  0
 18 19  1  0
 18 58  1  0
 18 59  1  0
 19 31  1  0
 19 20  1  0
 19 60  1  1
 20 21  1  0
 20 61  1  0
 20 62  1  0
 21 22  1  0
 21 63  1  1
 22 23  1  0
 22 64  1  0
 22 65  1  0
 23 24  1  0
 24 31  1  0
 24 25  1  6
 24 26  1  0
 25 66  1  0
 26 27  1  0
 26 67  1  0
 26 68  1  0
 27 28  1  0
 27 29  1  0
 27 69  1  6
 28 70  1  0
 28 71  1  0
 28 72  1  0
 29 30  1  0
 29 73  1  0
 29 74  1  0
 31 30  1  6
 30 75  1  0
 30 76  1  0
 32 33  2  0
 32 34  1  0
 34 35  1  0
 34 77  1  6
 35 36  1  0
 35 78  1  0
 35 79  1  0
M  END
>  <i_m_ct_stereo_status>  (190) 
1

>  <s_m_source_file>  (190) 
/var/tmp/pbs.5076255.sched01/tmpj5h_4zim/74m36hq9q5.sdf

>  <i_m_source_file_index>  (190) 
16

>  <i_lp_mmshare_version>  (190) 
48012

>  <i_f3d_flags>  (190) 
1

>  <s_epik_input>  (190) 
W0NIM11DKD1bQ0hdMSlPW0NIMl1bQ0BIXShbQ0BdMTIzKUMoPU8pQyg9QzJbQ0gzXSlbQ0gyXVtDQEBdNChbQ0gzXSlDKD1DM1tDSDNdKU41W0NAXTY3W0NASF0oW0NIMl1bQ0gyXVtDSDJdW0NIMl01KVtDSDJdW0NASF00W0NIMl1PW0NAQF02KFtPSF0pW0NIMl1bQ0BASF0oW0NIM10pW0NIMl1bQ0gyXTc=

>  <s_epik_cmdline>  (190) 
J2VwaWtfcHl0aG9uJywgJy1waHQnLCAnMi4wJywgJy1waCcsICc3LjAnLCAnLXRuJywgJzgnLCAnLW1hJywgJzIwMCcsICctaW1hZScsICc8aW5maWxlLm1hZT4nLCAnLW9tYWUnLCAnPG91dGZpbGUubWFlPic=

>  <r_lp_tautomer_probability>  (190) 
1

>  <r_epik_Ionization_Penalty>  (190) 
6.2421e-05

>  <r_epik_Ionization_Penalty_Charging>  (190) 
5.90407e-12

>  <r_epik_Ionization_Penalty_Neutral>  (190) 
6.2421e-05

>  <r_epik_State_Penalty>  (190) 
-0

>  <r_epik_Charging_Adjusted_Penalty>  (190) 
5.90407e-12

>  <i_epik_Tot_Q>  (190) 
0

>  <i_epik_Tot_abs_Q>  (190) 
0

>  <s_epik_Chemistry_Notes>  (190) 
This compound has an imine and may undergo hydrolysis.

>  <s_lp_Force_Field>  (190) 
OPLS3e

>  <r_lp_Energy>  (190) 
134.695

>  <b_lp_Chiralities_Consistent>  (190) 
1

>  <s_lp_Variant>  (190) 
72:0-1

>  <s_i_glide_gridfile>  (190) 
pfpi4k_grid

>  <i_i_glide_lignum>  (190) 
16

>  <i_i_glide_rotatable_bonds>  (190) 
1

>  <r_i_docking_score>  (190) 
-1.78864

>  <r_i_glide_ligand_efficiency>  (190) 
-0.0496843

>  <r_i_glide_ligand_efficiency_sa>  (190) 
-0.164054

>  <r_i_glide_ligand_efficiency_ln>  (190) 
-0.390232

>  <r_i_glide_gscore>  (190) 
-1.78864

>  <r_i_glide_lipo>  (190) 
-0.0505501

>  <r_i_glide_hbond>  (190) 
-0.0173678

>  <r_i_glide_metal>  (190) 
-0

>  <r_i_glide_rewards>  (190) 
-0.0431085

>  <r_i_glide_evdw>  (190) 
-23.9684

>  <r_i_glide_ecoul>  (190) 
-2.99312

>  <r_i_glide_erotb>  (190) 
0

>  <r_i_glide_esite>  (190) 
-0.0302226

>  <r_i_glide_emodel>  (190) 
-29.6214

>  <r_i_glide_energy>  (190) 
-26.9615

>  <r_i_glide_einternal>  (190) 
0.135067

>  <r_i_glide_intrahb_reward>  (190) 
-0

>  <i_i_glide_confnum>  (190) 
2

>  <i_i_glide_posenum>  (190) 
1

>  <r_i_glide_eff_state_penalty>  (190) 
0

>  <ligand_id>  (190) 
72

>  <original_smiles>  (190) 
CC1=CC23C(C)=C(CC4(C)C(=C2C)N2CCCCC5CC4COC4(O)CC(C)CCC524)C(=O)C3CO1

>  <smiles>  (190) 
[H]OC12OC([H])([H])C3([H])C([H])([H])C4([H])C([H])([H])C([H])([H])C([H])([H])C([H])([H])N(C5=C(C([H])([H])[H])C67C([H])=C(C([H])([H])[H])OC([H])([H])C6([H])C(=O)C(=C7C([H])([H])[H])C([H])([H])C53C([H])([H])[H])C14C([H])([H])C([H])([H])C([H])(C([H])([H])[H])C2([H])[H]

$$$$
73:0:0
     RDKit          3D

 90 98  0  0  1  0  0  0  0  0999 V2000
    8.0845   -7.8097    1.5276 C   0  0  0  0  0  0  0  0  0  0  0  0
    6.9958   -6.9090    1.3578 O   0  0  0  0  0  0  0  0  0  0  0  0
    6.1204   -6.6822    2.4729 C   0  0  2  0  0  0  0  0  0  0  0  0
    6.9783   -5.9356    3.5437 C   0  0  0  0  0  0  0  0  0  0  0  0
    7.4132   -6.8220    4.7252 C   0  0  0  0  0  0  0  0  0  0  0  0
    6.2515   -7.2894    5.6100 C   0  0  0  0  0  0  0  0  0  0  0  0
    6.4796   -7.8741    6.6622 O   0  0  0  0  0  0  0  0  0  0  0  0
    4.7975   -6.9930    5.1621 C   0  0  2  0  0  0  0  0  0  0  0  0
    3.9860   -7.0069    6.3254 O   0  0  0  0  0  0  0  0  0  0  0  0
    2.6076   -6.8289    6.0746 C   0  0  2  0  0  0  0  0  0  0  0  0
    2.0671   -5.9025    7.1974 C   0  0  0  0  0  0  0  0  0  0  0  0
    1.9832   -8.2099    6.2699 C   0  0  0  0  0  0  0  0  0  0  0  0
    2.8425   -9.3996    5.7849 C   0  0  0  0  0  0  0  0  0  0  0  0
    3.8891   -9.2537    4.6301 C   0  0  1  0  0  0  0  0  0  0  0  0
    4.0655  -10.6315    3.8836 C   0  0  0  0  0  0  0  0  0  0  0  0
    2.8763  -11.1475    3.0418 C   0  0  0  0  0  0  0  0  0  0  0  0
    4.4639  -11.7639    4.8602 C   0  0  0  0  0  0  0  0  0  0  0  0
    4.1361   -7.7979    3.9400 C   0  0  2  0  0  0  0  0  0  0  0  0
    5.3893   -7.9982    2.9500 C   0  0  1  0  0  0  0  0  0  0  0  0
    4.8714   -8.5758    1.6607 C   0  0  0  0  0  0  0  0  0  0  0  0
    4.3859   -7.3183    1.0559 C   0  0  0  0  0  0  0  0  0  0  0  0
    4.9020   -6.0257    1.8781 C   0  0  1  0  0  0  0  0  0  0  0  0
    4.5270   -4.7722    2.8403 C   0  0  0  0  0  0  0  0  0  0  0  0
    4.8614   -3.8234    1.7973 C   0  0  0  0  0  0  0  0  0  0  0  0
    4.9860   -2.4608    2.0046 C   0  0  0  0  0  0  0  0  0  0  0  0
    4.6806   -2.0669    3.3355 C   0  0  0  0  0  0  0  0  0  0  0  0
    3.9912   -2.9408    4.2188 C   0  0  0  0  0  0  0  0  0  0  0  0
    3.4849   -2.4163    5.3611 O   0  0  0  0  0  0  0  0  0  0  0  0
    3.7729   -4.3353    3.9623 C   0  0  0  0  0  0  0  0  0  0  0  0
    2.8384   -4.9134    4.7929 O   0  0  0  0  0  0  0  0  0  0  0  0
    2.3034   -6.2223    4.6802 C   0  0  1  0  0  0  0  0  0  0  0  0
    2.6641   -7.0720    3.4049 C   0  0  2  0  0  0  0  0  0  0  0  0
    1.6843   -8.2276    3.2482 N   0  0  0  0  0  0  0  0  0  0  0  0
    0.3901   -8.2828    3.1050 C   0  0  0  0  0  0  0  0  0  0  0  0
   -0.2956   -9.6127    2.9563 C   0  0  0  0  0  0  0  0  0  0  0  0
   -1.7236   -9.2046    2.5549 C   0  0  0  0  0  0  0  0  0  0  0  0
   -1.9230   -7.8023    3.0912 C   0  0  0  0  0  0  0  0  0  0  0  0
   -0.5769   -7.1358    3.0479 C   0  0  0  0  0  0  0  0  0  0  0  0
    2.2085   -6.0374    2.1063 C   0  0  0  0  0  0  0  0  0  0  0  0
    2.9322   -5.1166    0.9050 C   0  0  0  0  0  0  0  0  0  0  0  0
    4.5303   -4.9404    0.8625 C   0  0  2  0  0  0  0  0  0  0  0  0
    5.1476   -4.7374   -0.5056 C   0  0  0  0  0  0  0  0  0  0  0  0
    8.5706   -7.9320    0.5553 H   0  0  0  0  0  0  0  0  0  0  0  0
    7.7539   -8.7926    1.8568 H   0  0  0  0  0  0  0  0  0  0  0  0
    8.8210   -7.4425    2.2430 H   0  0  0  0  0  0  0  0  0  0  0  0
    7.8739   -5.5452    3.0542 H   0  0  0  0  0  0  0  0  0  0  0  0
    6.5589   -5.0332    3.9816 H   0  0  0  0  0  0  0  0  0  0  0  0
    7.9553   -7.6929    4.3599 H   0  0  0  0  0  0  0  0  0  0  0  0
    8.1081   -6.2510    5.3486 H   0  0  0  0  0  0  0  0  0  0  0  0
    4.9327   -5.9601    4.9397 H   0  0  0  0  0  0  0  0  0  0  0  0
    0.9982   -5.7091    7.0834 H   0  0  0  0  0  0  0  0  0  0  0  0
    2.5662   -4.9315    7.1993 H   0  0  0  0  0  0  0  0  0  0  0  0
    2.2165   -6.3273    8.1929 H   0  0  0  0  0  0  0  0  0  0  0  0
    1.7968   -8.3864    7.3341 H   0  0  0  0  0  0  0  0  0  0  0  0
    0.9887   -8.2446    5.8210 H   0  0  0  0  0  0  0  0  0  0  0  0
    3.3961   -9.7397    6.6677 H   0  0  0  0  0  0  0  0  0  0  0  0
    2.1511  -10.2166    5.5710 H   0  0  0  0  0  0  0  0  0  0  0  0
    4.7990   -9.3428    5.2153 H   0  0  0  0  0  0  0  0  0  0  0  0
    4.9345  -10.5672    3.2339 H   0  0  0  0  0  0  0  0  0  0  0  0
    2.0252  -11.4128    3.6664 H   0  0  0  0  0  0  0  0  0  0  0  0
    3.1891  -12.0552    2.5218 H   0  0  0  0  0  0  0  0  0  0  0  0
    2.5149  -10.4917    2.2567 H   0  0  0  0  0  0  0  0  0  0  0  0
    3.6598  -12.0176    5.5532 H   0  0  0  0  0  0  0  0  0  0  0  0
    5.3482  -11.5251    5.4525 H   0  0  0  0  0  0  0  0  0  0  0  0
    4.6892  -12.6781    4.3104 H   0  0  0  0  0  0  0  0  0  0  0  0
    6.1082   -8.7126    3.3718 H   0  0  0  0  0  0  0  0  0  0  0  0
    5.6582   -9.0241    1.0513 H   0  0  0  0  0  0  0  0  0  0  0  0
    4.0650   -9.2752    1.7284 H   0  0  0  0  0  0  0  0  0  0  0  0
    4.8910   -7.3165    0.0904 H   0  0  0  0  0  0  0  0  0  0  0  0
    3.3823   -7.4867    0.7098 H   0  0  0  0  0  0  0  0  0  0  0  0
    5.3904   -1.7939    1.2574 H   0  0  0  0  0  0  0  0  0  0  0  0
    4.8945   -1.0578    3.6527 H   0  0  0  0  0  0  0  0  0  0  0  0
    3.6575   -1.4958    5.4794 H   0  0  0  0  0  0  0  0  0  0  0  0
    1.2469   -6.0335    4.7047 H   0  0  0  0  0  0  0  0  0  0  0  0
    0.1555  -10.2376    2.1859 H   0  0  0  0  0  0  0  0  0  0  0  0
   -0.3036  -10.1471    3.9064 H   0  0  0  0  0  0  0  0  0  0  0  0
   -1.8295   -9.1949    1.4668 H   0  0  0  0  0  0  0  0  0  0  0  0
   -2.4996   -9.8481    2.9654 H   0  0  0  0  0  0  0  0  0  0  0  0
   -2.5963   -7.2229    2.4801 H   0  0  0  0  0  0  0  0  0  0  0  0
   -2.2993   -7.8212    4.1113 H   0  0  0  0  0  0  0  0  0  0  0  0
   -0.5716   -6.4478    3.8810 H   0  0  0  0  0  0  0  0  0  0  0  0
   -0.5272   -6.6335    2.0798 H   0  0  0  0  0  0  0  0  0  0  0  0
    1.6397   -6.6714    1.4298 H   0  0  0  0  0  0  0  0  0  0  0  0
    1.4582   -5.3526    2.5143 H   0  0  0  0  0  0  0  0  0  0  0  0
    2.6536   -5.5958   -0.0446 H   0  0  0  0  0  0  0  0  0  0  0  0
    2.4332   -4.1482    0.8163 H   0  0  0  0  0  0  0  0  0  0  0  0
    4.7667   -5.4947   -1.1901 H   0  0  0  0  0  0  0  0  0  0  0  0
    6.2233   -4.8395   -0.4805 H   0  0  0  0  0  0  0  0  0  0  0  0
    4.8859   -3.7829   -0.9411 H   0  0  0  0  0  0  0  0  0  0  0  0
    2.1442   -9.1324    3.3131 H   0  0  0  0  0  0  0  0  0  0  0  0
  1  2  1  0
  1 43  1  0
  1 44  1  0
  1 45  1  0
  3  2  1  6
  3 19  1  0
  3 22  1  0
  3  4  1  0
  4  5  1  0
  4 46  1  0
  4 47  1  0
  5  6  1  0
  5 48  1  0
  5 49  1  0
  6  7  2  0
  6  8  1  0
  8 18  1  0
  8  9  1  0
  8 50  1  6
  9 10  1  0
 10 31  1  0
 10 11  1  1
 10 12  1  0
 11 51  1  0
 11 52  1  0
 11 53  1  0
 12 13  1  0
 12 54  1  0
 12 55  1  0
 13 14  1  0
 13 56  1  0
 13 57  1  0
 14 15  1  0
 14 18  1  0
 14 58  1  1
 15 16  1  0
 15 17  1  0
 15 59  1  0
 16 60  1  0
 16 61  1  0
 16 62  1  0
 17 63  1  0
 17 64  1  0
 17 65  1  0
 18 32  1  6
 18 19  1  0
 19 20  1  0
 19 66  1  1
 20 21  1  0
 20 67  1  0
 20 68  1  0
 22 21  1  1
 21 69  1  0
 21 70  1  0
 22 41  1  0
 22 23  1  0
 23 29  2  0
 23 24  1  0
 24 41  1  0
 24 25  2  0
 25 26  1  0
 25 71  1  0
 26 27  2  0
 26 72  1  0
 27 28  1  0
 27 29  1  0
 28 73  1  0
 29 30  1  0
 30 31  1  0
 31 32  1  0
 31 74  1  1
 32 33  1  1
 32 39  1  0
 33 34  2  3
 33 90  1  0
 34 38  1  0
 34 35  1  0
 35 36  1  0
 35 75  1  0
 35 76  1  0
 36 37  1  0
 36 77  1  0
 36 78  1  0
 37 38  1  0
 37 79  1  0
 37 80  1  0
 38 81  1  0
 38 82  1  0
 39 40  1  0
 39 83  1  0
 39 84  1  0
 40 41  1  0
 40 85  1  0
 40 86  1  0
 41 42  1  6
 42 87  1  0
 42 88  1  0
 42 89  1  0
M  CHG  1  33   1
M  END
>  <i_m_ct_stereo_status>  (191) 
1

>  <s_m_source_file>  (191) 
/var/tmp/pbs.5076255.sched01/tmpj5h_4zim/74m36hq9q5.sdf

>  <i_m_source_file_index>  (191) 
17

>  <i_lp_mmshare_version>  (191) 
48012

>  <i_f3d_flags>  (191) 
0

>  <s_epik_input>  (191) 
W0NAQF0xMjNbQ0BASF00Qyg9TylbQ0gyXVtDSDJdW0NAXTUoT1tDSDNdKVtDQEBdNihbQ0gyXVtDSDJdW0NASF0yNSljN2M4W0NAXTYoW0NIM10pW0NIMl1bQ0gyXVtDQF0zKE49QzlbQ0gyXVtDSDJdW0NIMl1bQ0gyXTkpW0NASF0oT2M3YyhbT0hdKVtjSF1bY0hdOClbQ0BAXShPNCkoW0NIM10pW0NIMl1bQ0gyXVtDQEhdMVtDSF0oW0NIM10pW0NIM10=

>  <s_epik_cmdline>  (191) 
J2VwaWtfcHl0aG9uJywgJy1waHQnLCAnMi4wJywgJy1waCcsICc3LjAnLCAnLXRuJywgJzgnLCAnLW1hJywgJzIwMCcsICctaW1hZScsICc8aW5maWxlLm1hZT4nLCAnLW9tYWUnLCAnPG91dGZpbGUubWFlPic=

>  <r_lp_tautomer_probability>  (191) 
1

>  <r_epik_Ionization_Penalty>  (191) 
0.271025

>  <r_epik_Ionization_Penalty_Charging>  (191) 
0.270268

>  <r_epik_Ionization_Penalty_Neutral>  (191) 
0.000756756

>  <r_epik_State_Penalty>  (191) 
0.262381

>  <r_epik_Charging_Adjusted_Penalty>  (191) 
0.532649

>  <i_epik_Tot_Q>  (191) 
1

>  <i_epik_Tot_abs_Q>  (191) 
1

>  <s_epik_Chemistry_Notes>  (191) 
This compound has an imine and may undergo hydrolysis.

>  <s_lp_Force_Field>  (191) 
OPLS3e

>  <r_lp_Energy>  (191) 
340.113

>  <b_lp_Chiralities_Consistent>  (191) 
1

>  <s_lp_Variant>  (191) 
73:0-1

>  <s_i_glide_gridfile>  (191) 
pfpi4k_grid

>  <i_i_glide_lignum>  (191) 
17

>  <i_i_glide_rotatable_bonds>  (191) 
4

>  <r_i_docking_score>  (191) 
-2.19059

>  <r_i_glide_ligand_efficiency>  (191) 
-0.052157

>  <r_i_glide_ligand_efficiency_sa>  (191) 
-0.181299

>  <r_i_glide_ligand_efficiency_ln>  (191) 
-0.462378

>  <r_i_glide_gscore>  (191) 
-2.19059

>  <r_i_glide_lipo>  (191) 
-0.543833

>  <r_i_glide_hbond>  (191) 
0

>  <r_i_glide_metal>  (191) 
-0

>  <r_i_glide_rewards>  (191) 
0

>  <r_i_glide_evdw>  (191) 
-27.3154

>  <r_i_glide_ecoul>  (191) 
-2.01685

>  <r_i_glide_erotb>  (191) 
0.0631708

>  <r_i_glide_esite>  (191) 
-0.0416328

>  <r_i_glide_emodel>  (191) 
-30.6125

>  <r_i_glide_energy>  (191) 
-29.3323

>  <r_i_glide_einternal>  (191) 
1.38442

>  <r_i_glide_intrahb_reward>  (191) 
-0

>  <i_i_glide_confnum>  (191) 
3

>  <i_i_glide_posenum>  (191) 
26

>  <r_i_glide_eff_state_penalty>  (191) 
0

>  <ligand_id>  (191) 
73

>  <original_smiles>  (191) 
COC12CCC(=O)C3OC4(C)CCC(C(C)C)C35C1CCC21c2c3ccc(O)c2OC4C5(N=C2CCCC2)CCC31C

>  <smiles>  (191) 
[H]Oc1c([H])c([H])c2c3c1OC1([H])C4(C([H])([H])[H])OC5([H])C(=O)C([H])([H])C([H])([H])C6(OC([H])([H])[H])C7([H])C([H])([H])C([H])([H])C36C2(C([H])([H])[H])C([H])([H])C([H])([H])C1([N+]([H])=C1C([H])([H])C([H])([H])C([H])([H])C1([H])[H])C57C([H])(C([H])(C([H])([H])[H])C([H])([H])[H])C([H])([H])C4([H])[H]

$$$$
73:0:1
     RDKit          3D

 90 98  0  0  1  0  0  0  0  0999 V2000
    8.5539   -6.7696    0.4903 C   0  0  0  0  0  0  0  0  0  0  0  0
    7.2444   -6.3410    0.8136 O   0  0  0  0  0  0  0  0  0  0  0  0
    6.7596   -6.5918    2.1352 C   0  0  2  0  0  0  0  0  0  0  0  0
    7.5914   -5.6814    3.0812 C   0  0  0  0  0  0  0  0  0  0  0  0
    8.6630   -6.4191    3.9056 C   0  0  0  0  0  0  0  0  0  0  0  0
    8.0808   -7.3718    4.9562 C   0  0  0  0  0  0  0  0  0  0  0  0
    8.8257   -7.9099    5.7668 O   0  0  0  0  0  0  0  0  0  0  0  0
    6.5529   -7.6195    4.9884 C   0  0  2  0  0  0  0  0  0  0  0  0
    6.1976   -8.0391    6.2957 O   0  0  0  0  0  0  0  0  0  0  0  0
    4.8400   -8.4107    6.4667 C   0  0  2  0  0  0  0  0  0  0  0  0
    4.4278   -7.8524    7.8580 C   0  0  0  0  0  0  0  0  0  0  0  0
    4.8438   -9.9331    6.5313 C   0  0  0  0  0  0  0  0  0  0  0  0
    5.8592  -10.6399    5.6135 C   0  0  0  0  0  0  0  0  0  0  0  0
    6.3624  -10.0031    4.2806 C   0  0  1  0  0  0  0  0  0  0  0  0
    6.7610  -11.1292    3.2525 C   0  0  0  0  0  0  0  0  0  0  0  0
    5.6213  -11.9964    2.6819 C   0  0  0  0  0  0  0  0  0  0  0  0
    7.8206  -12.0988    3.8262 C   0  0  0  0  0  0  0  0  0  0  0  0
    5.8552   -8.5167    3.8505 C   0  0  2  0  0  0  0  0  0  0  0  0
    6.6974   -8.1307    2.5306 C   0  0  1  0  0  0  0  0  0  0  0  0
    6.0247   -8.7554    1.3508 C   0  0  0  0  0  0  0  0  0  0  0  0
    4.9805   -7.7327    1.1588 C   0  0  0  0  0  0  0  0  0  0  0  0
    5.2579   -6.4086    2.0584 C   0  0  1  0  0  0  0  0  0  0  0  0
    4.7750   -5.5113    3.3251 C   0  0  0  0  0  0  0  0  0  0  0  0
    4.4645   -4.4223    2.4731 C   0  0  0  0  0  0  0  0  0  0  0  0
    4.1737   -3.1268    2.8937 C   0  0  0  0  0  0  0  0  0  0  0  0
    4.1830   -3.0037    4.3043 C   0  0  0  0  0  0  0  0  0  0  0  0
    4.1668   -4.1337    5.1435 C   0  0  0  0  0  0  0  0  0  0  0  0
    3.8917   -3.9456    6.4603 O   0  0  0  0  0  0  0  0  0  0  0  0
    4.3385   -5.4594    4.6664 C   0  0  0  0  0  0  0  0  0  0  0  0
    3.9662   -6.4457    5.5591 O   0  0  0  0  0  0  0  0  0  0  0  0
    3.9068   -7.8691    5.3434 C   0  0  1  0  0  0  0  0  0  0  0  0
    4.1331   -8.3634    3.8775 C   0  0  2  0  0  0  0  0  0  0  0  0
    3.6237   -9.7873    3.7588 N   0  0  0  0  0  0  0  0  0  0  0  0
    2.4277  -10.3240    3.8052 C   0  0  0  0  0  0  0  0  0  0  0  0
    2.2022  -11.8091    3.6236 C   0  0  0  0  0  0  0  0  0  0  0  0
    0.6855  -11.9116    3.4738 C   0  0  0  0  0  0  0  0  0  0  0  0
    0.1328  -10.6609    4.1423 C   0  0  0  0  0  0  0  0  0  0  0  0
    1.1423   -9.5687    3.9832 C   0  0  0  0  0  0  0  0  0  0  0  0
    2.9414   -7.4896    2.9725 C   0  0  0  0  0  0  0  0  0  0  0  0
    2.8793   -6.2574    1.8421 C   0  0  0  0  0  0  0  0  0  0  0  0
    4.2114   -5.4428    1.4458 C   0  0  2  0  0  0  0  0  0  0  0  0
    4.2618   -4.9348   -0.0025 C   0  0  0  0  0  0  0  0  0  0  0  0
    8.7639   -6.6028   -0.5668 H   0  0  0  0  0  0  0  0  0  0  0  0
    8.6369   -7.8390    0.6473 H   0  0  0  0  0  0  0  0  0  0  0  0
    9.3237   -6.2339    1.0486 H   0  0  0  0  0  0  0  0  0  0  0  0
    8.0868   -4.9508    2.4595 H   0  0  0  0  0  0  0  0  0  0  0  0
    7.0420   -5.0653    3.7730 H   0  0  0  0  0  0  0  0  0  0  0  0
    9.3255   -6.9731    3.2384 H   0  0  0  0  0  0  0  0  0  0  0  0
    9.2769   -5.6739    4.4139 H   0  0  0  0  0  0  0  0  0  0  0  0
    6.2495   -6.5973    4.9510 H   0  0  0  0  0  0  0  0  0  0  0  0
    3.3861   -8.0798    8.0835 H   0  0  0  0  0  0  0  0  0  0  0  0
    4.5484   -6.7732    7.9235 H   0  0  0  0  0  0  0  0  0  0  0  0
    5.0357   -8.2744    8.6611 H   0  0  0  0  0  0  0  0  0  0  0  0
    5.0816  -10.2483    7.5516 H   0  0  0  0  0  0  0  0  0  0  0  0
    3.8348  -10.3127    6.3647 H   0  0  0  0  0  0  0  0  0  0  0  0
    6.7490  -10.8090    6.2295 H   0  0  0  0  0  0  0  0  0  0  0  0
    5.4637  -11.6373    5.4310 H   0  0  0  0  0  0  0  0  0  0  0  0
    7.3829   -9.7758    4.5652 H   0  0  0  0  0  0  0  0  0  0  0  0
    7.2855  -10.6782    2.4156 H   0  0  0  0  0  0  0  0  0  0  0  0
    5.1508  -12.6211    3.4411 H   0  0  0  0  0  0  0  0  0  0  0  0
    6.0188  -12.6601    1.9132 H   0  0  0  0  0  0  0  0  0  0  0  0
    4.8371  -11.4306    2.1976 H   0  0  0  0  0  0  0  0  0  0  0  0
    7.4220  -12.6970    4.6456 H   0  0  0  0  0  0  0  0  0  0  0  0
    8.7092  -11.5808    4.1866 H   0  0  0  0  0  0  0  0  0  0  0  0
    8.1466  -12.8023    3.0604 H   0  0  0  0  0  0  0  0  0  0  0  0
    7.7238   -8.5346    2.5986 H   0  0  0  0  0  0  0  0  0  0  0  0
    6.6793   -8.8396    0.4924 H   0  0  0  0  0  0  0  0  0  0  0  0
    5.5633   -9.7072    1.5077 H   0  0  0  0  0  0  0  0  0  0  0  0
    5.0826   -7.4378    0.1226 H   0  0  0  0  0  0  0  0  0  0  0  0
    4.0241   -8.2434    1.0674 H   0  0  0  0  0  0  0  0  0  0  0  0
    4.0452   -2.2740    2.2096 H   0  0  0  0  0  0  0  0  0  0  0  0
    4.1257   -2.0319    4.7606 H   0  0  0  0  0  0  0  0  0  0  0  0
    3.8102   -4.7373    6.9646 H   0  0  0  0  0  0  0  0  0  0  0  0
    2.9083   -8.1582    5.6561 H   0  0  0  0  0  0  0  0  0  0  0  0
    2.7257  -12.1851    2.7486 H   0  0  0  0  0  0  0  0  0  0  0  0
    2.5427  -12.3325    4.5098 H   0  0  0  0  0  0  0  0  0  0  0  0
    0.4007  -11.9096    2.4187 H   0  0  0  0  0  0  0  0  0  0  0  0
    0.2609  -12.8104    3.9185 H   0  0  0  0  0  0  0  0  0  0  0  0
   -0.7926  -10.3343    3.6781 H   0  0  0  0  0  0  0  0  0  0  0  0
   -0.0402  -10.8750    5.1987 H   0  0  0  0  0  0  0  0  0  0  0  0
    1.0995   -8.9298    4.8619 H   0  0  0  0  0  0  0  0  0  0  0  0
    0.9251   -9.0274    3.0734 H   0  0  0  0  0  0  0  0  0  0  0  0
    2.4228   -8.2194    2.3768 H   0  0  0  0  0  0  0  0  0  0  0  0
    2.1770   -7.1792    3.6867 H   0  0  0  0  0  0  0  0  0  0  0  0
    2.5110   -6.7070    0.9313 H   0  0  0  0  0  0  0  0  0  0  0  0
    2.1033   -5.5371    2.0971 H   0  0  0  0  0  0  0  0  0  0  0  0
    3.9597   -5.7149   -0.6947 H   0  0  0  0  0  0  0  0  0  0  0  0
    5.2582   -4.6098   -0.3123 H   0  0  0  0  0  0  0  0  0  0  0  0
    3.5615   -4.1165   -0.1491 H   0  0  0  0  0  0  0  0  0  0  0  0
    4.3665  -10.4719    3.6378 H   0  0  0  0  0  0  0  0  0  0  0  0
  1  2  1  0
  1 43  1  0
  1 44  1  0
  1 45  1  0
  3  2  1  6
  3 19  1  0
  3 22  1  0
  3  4  1  0
  4  5  1  0
  4 46  1  0
  4 47  1  0
  5  6  1  0
  5 48  1  0
  5 49  1  0
  6  7  2  0
  6  8  1  0
  8 18  1  0
  8  9  1  0
  8 50  1  6
  9 10  1  0
 10 31  1  0
 10 11  1  1
 10 12  1  0
 11 51  1  0
 11 52  1  0
 11 53  1  0
 12 13  1  0
 12 54  1  0
 12 55  1  0
 13 14  1  0
 13 56  1  0
 13 57  1  0
 14 15  1  0
 14 18  1  0
 14 58  1  1
 15 16  1  0
 15 17  1  0
 15 59  1  0
 16 60  1  0
 16 61  1  0
 16 62  1  0
 17 63  1  0
 17 64  1  0
 17 65  1  0
 18 32  1  6
 18 19  1  0
 19 20  1  0
 19 66  1  1
 20 21  1  0
 20 67  1  0
 20 68  1  0
 22 21  1  1
 21 69  1  0
 21 70  1  0
 22 41  1  0
 22 23  1  0
 23 29  2  0
 23 24  1  0
 24 41  1  0
 24 25  2  0
 25 26  1  0
 25 71  1  0
 26 27  2  0
 26 72  1  0
 27 28  1  0
 27 29  1  0
 28 73  1  0
 29 30  1  0
 30 31  1  0
 31 32  1  0
 31 74  1  1
 32 33  1  1
 32 39  1  0
 33 34  2  3
 33 90  1  0
 34 38  1  0
 34 35  1  0
 35 36  1  0
 35 75  1  0
 35 76  1  0
 36 37  1  0
 36 77  1  0
 36 78  1  0
 37 38  1  0
 37 79  1  0
 37 80  1  0
 38 81  1  0
 38 82  1  0
 39 40  1  0
 39 83  1  0
 39 84  1  0
 40 41  1  0
 40 85  1  0
 40 86  1  0
 41 42  1  6
 42 87  1  0
 42 88  1  0
 42 89  1  0
M  CHG  1  33   1
M  END
>  <i_m_ct_stereo_status>  (192) 
1

>  <s_m_source_file>  (192) 
/var/tmp/pbs.5076255.sched01/tmpj5h_4zim/74m36hq9q5.sdf

>  <i_m_source_file_index>  (192) 
17

>  <i_lp_mmshare_version>  (192) 
48012

>  <i_f3d_flags>  (192) 
0

>  <s_epik_input>  (192) 
W0NAQF0xMjNbQ0BASF00Qyg9TylbQ0gyXVtDSDJdW0NAXTUoT1tDSDNdKVtDQEBdNihbQ0gyXVtDSDJdW0NASF0yNSljN2M4W0NAXTYoW0NIM10pW0NIMl1bQ0gyXVtDQF0zKE49QzlbQ0gyXVtDSDJdW0NIMl1bQ0gyXTkpW0NASF0oT2M3YyhbT0hdKVtjSF1bY0hdOClbQ0BAXShPNCkoW0NIM10pW0NIMl1bQ0gyXVtDQEhdMVtDSF0oW0NIM10pW0NIM10=

>  <s_epik_cmdline>  (192) 
J2VwaWtfcHl0aG9uJywgJy1waHQnLCAnMi4wJywgJy1waCcsICc3LjAnLCAnLXRuJywgJzgnLCAnLW1hJywgJzIwMCcsICctaW1hZScsICc8aW5maWxlLm1hZT4nLCAnLW9tYWUnLCAnPG91dGZpbGUubWFlPic=

>  <r_lp_tautomer_probability>  (192) 
1

>  <r_epik_Ionization_Penalty>  (192) 
0.271025

>  <r_epik_Ionization_Penalty_Charging>  (192) 
0.270268

>  <r_epik_Ionization_Penalty_Neutral>  (192) 
0.000756756

>  <r_epik_State_Penalty>  (192) 
0.262381

>  <r_epik_Charging_Adjusted_Penalty>  (192) 
0.532649

>  <i_epik_Tot_Q>  (192) 
1

>  <i_epik_Tot_abs_Q>  (192) 
1

>  <s_epik_Chemistry_Notes>  (192) 
This compound has an imine and may undergo hydrolysis.

>  <s_lp_Force_Field>  (192) 
OPLS3e

>  <r_lp_Energy>  (192) 
340.113

>  <b_lp_Chiralities_Consistent>  (192) 
1

>  <s_lp_Variant>  (192) 
73:0-1

>  <s_i_glide_gridfile>  (192) 
pfpi4k_grid

>  <i_i_glide_lignum>  (192) 
17

>  <i_i_glide_rotatable_bonds>  (192) 
4

>  <r_i_docking_score>  (192) 
-2.05095

>  <r_i_glide_ligand_efficiency>  (192) 
-0.0488321

>  <r_i_glide_ligand_efficiency_sa>  (192) 
-0.169742

>  <r_i_glide_ligand_efficiency_ln>  (192) 
-0.432902

>  <r_i_glide_gscore>  (192) 
-2.05095

>  <r_i_glide_lipo>  (192) 
-0.349478

>  <r_i_glide_hbond>  (192) 
0

>  <r_i_glide_metal>  (192) 
-0

>  <r_i_glide_rewards>  (192) 
0

>  <r_i_glide_evdw>  (192) 
-20.4067

>  <r_i_glide_ecoul>  (192) 
-5.10749

>  <r_i_glide_erotb>  (192) 
0.0631708

>  <r_i_glide_esite>  (192) 
-0.0157583

>  <r_i_glide_emodel>  (192) 
-23.5737

>  <r_i_glide_energy>  (192) 
-25.5141

>  <r_i_glide_einternal>  (192) 
4.59881

>  <r_i_glide_intrahb_reward>  (192) 
-0

>  <i_i_glide_confnum>  (192) 
3

>  <i_i_glide_posenum>  (192) 
17

>  <r_i_glide_eff_state_penalty>  (192) 
0

>  <ligand_id>  (192) 
73

>  <original_smiles>  (192) 
COC12CCC(=O)C3OC4(C)CCC(C(C)C)C35C1CCC21c2c3ccc(O)c2OC4C5(N=C2CCCC2)CCC31C

>  <smiles>  (192) 
[H]Oc1c([H])c([H])c2c3c1OC1([H])C4(C([H])([H])[H])OC5([H])C(=O)C([H])([H])C([H])([H])C6(OC([H])([H])[H])C7([H])C([H])([H])C([H])([H])C36C2(C([H])([H])[H])C([H])([H])C([H])([H])C1([N+]([H])=C1C([H])([H])C([H])([H])C([H])([H])C1([H])[H])C57C([H])(C([H])(C([H])([H])[H])C([H])([H])[H])C([H])([H])C4([H])[H]

$$$$
73:0:2
     RDKit          3D

 90 98  0  0  1  0  0  0  0  0999 V2000
    8.3371   -7.4525    5.8821 C   0  0  0  0  0  0  0  0  0  0  0  0
    7.6511   -7.1173    4.6819 O   0  0  0  0  0  0  0  0  0  0  0  0
    6.3789   -6.4540    4.7628 C   0  0  2  0  0  0  0  0  0  0  0  0
    6.6534   -5.0443    5.3899 C   0  0  0  0  0  0  0  0  0  0  0  0
    6.2635   -4.9397    6.8698 C   0  0  0  0  0  0  0  0  0  0  0  0
    4.7560   -5.0184    7.1129 C   0  0  0  0  0  0  0  0  0  0  0  0
    4.2932   -4.7854    8.2223 O   0  0  0  0  0  0  0  0  0  0  0  0
    3.8183   -5.3526    5.9319 C   0  0  2  0  0  0  0  0  0  0  0  0
    2.5329   -4.8403    6.2401 O   0  0  0  0  0  0  0  0  0  0  0  0
    1.5395   -5.1190    5.2798 C   0  0  2  0  0  0  0  0  0  0  0  0
    0.6817   -3.8420    5.1243 C   0  0  0  0  0  0  0  0  0  0  0  0
    0.6744   -6.1936    5.9219 C   0  0  0  0  0  0  0  0  0  0  0  0
    1.4293   -7.2330    6.7680 C   0  0  0  0  0  0  0  0  0  0  0  0
    2.9224   -7.6085    6.5052 C   0  0  1  0  0  0  0  0  0  0  0  0
    3.2038   -9.0915    6.9609 C   0  0  0  0  0  0  0  0  0  0  0  0
    2.5903  -10.2511    6.1261 C   0  0  0  0  0  0  0  0  0  0  0  0
    2.7515   -9.3194    8.4282 C   0  0  0  0  0  0  0  0  0  0  0  0
    3.7582   -6.8487    5.3395 C   0  0  2  0  0  0  0  0  0  0  0  0
    5.2823   -7.3321    5.4870 C   0  0  1  0  0  0  0  0  0  0  0  0
    5.4316   -8.6563    4.7916 C   0  0  0  0  0  0  0  0  0  0  0  0
    5.5356   -8.1537    3.4008 C   0  0  0  0  0  0  0  0  0  0  0  0
    5.7745   -6.5500    3.3729 C   0  0  1  0  0  0  0  0  0  0  0  0
    5.1885   -5.0954    2.9821 C   0  0  0  0  0  0  0  0  0  0  0  0
    6.1448   -4.9207    1.9294 C   0  0  0  0  0  0  0  0  0  0  0  0
    6.3936   -3.7241    1.2594 C   0  0  0  0  0  0  0  0  0  0  0  0
    5.5262   -2.6949    1.6879 C   0  0  0  0  0  0  0  0  0  0  0  0
    4.3684   -2.9617    2.4506 C   0  0  0  0  0  0  0  0  0  0  0  0
    3.4297   -1.9847    2.5848 O   0  0  0  0  0  0  0  0  0  0  0  0
    4.0831   -4.2147    3.0368 C   0  0  0  0  0  0  0  0  0  0  0  0
    2.7883   -4.3584    3.4893 O   0  0  0  0  0  0  0  0  0  0  0  0
    2.1249   -5.5419    3.8964 C   0  0  1  0  0  0  0  0  0  0  0  0
    2.9219   -6.8987    3.8253 C   0  0  2  0  0  0  0  0  0  0  0  0
    1.9570   -8.0809    3.9245 N   0  0  0  0  0  0  0  0  0  0  0  0
    0.8901   -8.4361    3.2762 C   0  0  0  0  0  0  0  0  0  0  0  0
    0.1671   -9.7009    3.6320 C   0  0  0  0  0  0  0  0  0  0  0  0
   -0.8656   -9.8455    2.5022 C   0  0  0  0  0  0  0  0  0  0  0  0
   -1.0854   -8.4450    1.9583 C   0  0  0  0  0  0  0  0  0  0  0  0
    0.2195   -7.7080    2.1310 C   0  0  0  0  0  0  0  0  0  0  0  0
    3.3712   -6.9811    2.1674 C   0  0  0  0  0  0  0  0  0  0  0  0
    4.7671   -6.8599    1.2301 C   0  0  0  0  0  0  0  0  0  0  0  0
    6.1693   -6.3977    1.8909 C   0  0  2  0  0  0  0  0  0  0  0  0
    7.4471   -6.9616    1.2632 C   0  0  0  0  0  0  0  0  0  0  0  0
    9.2330   -8.0088    5.6161 H   0  0  0  0  0  0  0  0  0  0  0  0
    7.7517   -8.0883    6.5417 H   0  0  0  0  0  0  0  0  0  0  0  0
    8.6604   -6.5710    6.4278 H   0  0  0  0  0  0  0  0  0  0  0  0
    7.7248   -4.8733    5.3018 H   0  0  0  0  0  0  0  0  0  0  0  0
    6.2327   -4.1665    4.8925 H   0  0  0  0  0  0  0  0  0  0  0  0
    6.7509   -5.7256    7.4419 H   0  0  0  0  0  0  0  0  0  0  0  0
    6.6249   -3.9866    7.2497 H   0  0  0  0  0  0  0  0  0  0  0  0
    4.2298   -4.6616    5.2316 H   0  0  0  0  0  0  0  0  0  0  0  0
   -0.1210   -3.9909    4.3992 H   0  0  0  0  0  0  0  0  0  0  0  0
    1.2656   -2.9889    4.7764 H   0  0  0  0  0  0  0  0  0  0  0  0
    0.2132   -3.5414    6.0648 H   0  0  0  0  0  0  0  0  0  0  0  0
   -0.0589   -5.7222    6.5842 H   0  0  0  0  0  0  0  0  0  0  0  0
    0.0598   -6.6745    5.1655 H   0  0  0  0  0  0  0  0  0  0  0  0
    1.3830   -6.8588    7.7947 H   0  0  0  0  0  0  0  0  0  0  0  0
    0.8202   -8.1323    6.7567 H   0  0  0  0  0  0  0  0  0  0  0  0
    3.3726   -7.1454    7.3794 H   0  0  0  0  0  0  0  0  0  0  0  0
    4.2843   -9.2172    7.0095 H   0  0  0  0  0  0  0  0  0  0  0  0
    1.5055  -10.2733    6.2488 H   0  0  0  0  0  0  0  0  0  0  0  0
    2.9816  -11.1826    6.5414 H   0  0  0  0  0  0  0  0  0  0  0  0
    2.8130  -10.3040    5.0559 H   0  0  0  0  0  0  0  0  0  0  0  0
    1.6665   -9.3115    8.5330 H   0  0  0  0  0  0  0  0  0  0  0  0
    3.1515   -8.5909    9.1368 H   0  0  0  0  0  0  0  0  0  0  0  0
    3.0557  -10.3055    8.7739 H   0  0  0  0  0  0  0  0  0  0  0  0
    5.5449   -7.4764    6.5482 H   0  0  0  0  0  0  0  0  0  0  0  0
    6.3609   -9.1682    5.0762 H   0  0  0  0  0  0  0  0  0  0  0  0
    4.5877   -9.3326    4.8628 H   0  0  0  0  0  0  0  0  0  0  0  0
    6.4505   -8.6230    3.0484 H   0  0  0  0  0  0  0  0  0  0  0  0
    4.8286   -8.6898    2.7917 H   0  0  0  0  0  0  0  0  0  0  0  0
    7.2454   -3.5818    0.6150 H   0  0  0  0  0  0  0  0  0  0  0  0
    5.7308   -1.6713    1.4253 H   0  0  0  0  0  0  0  0  0  0  0  0
    3.6278   -1.1845    2.1136 H   0  0  0  0  0  0  0  0  0  0  0  0
    1.2707   -5.5726    3.2089 H   0  0  0  0  0  0  0  0  0  0  0  0
    0.8336  -10.5667    3.6725 H   0  0  0  0  0  0  0  0  0  0  0  0
   -0.3324   -9.5794    4.5968 H   0  0  0  0  0  0  0  0  0  0  0  0
   -0.4877  -10.4939    1.7044 H   0  0  0  0  0  0  0  0  0  0  0  0
   -1.8049  -10.2477    2.8639 H   0  0  0  0  0  0  0  0  0  0  0  0
   -1.3549   -8.4333    0.9106 H   0  0  0  0  0  0  0  0  0  0  0  0
   -1.8628   -7.9455    2.5440 H   0  0  0  0  0  0  0  0  0  0  0  0
   -0.1135   -6.6895    2.3418 H   0  0  0  0  0  0  0  0  0  0  0  0
    0.8049   -7.8004    1.2071 H   0  0  0  0  0  0  0  0  0  0  0  0
    3.0708   -7.9721    1.8262 H   0  0  0  0  0  0  0  0  0  0  0  0
    2.6670   -6.3429    1.6306 H   0  0  0  0  0  0  0  0  0  0  0  0
    4.9277   -7.8493    0.8055 H   0  0  0  0  0  0  0  0  0  0  0  0
    4.5714   -6.2536    0.3388 H   0  0  0  0  0  0  0  0  0  0  0  0
    7.3533   -8.0306    1.0910 H   0  0  0  0  0  0  0  0  0  0  0  0
    8.3345   -6.8180    1.8836 H   0  0  0  0  0  0  0  0  0  0  0  0
    7.6340   -6.5099    0.2916 H   0  0  0  0  0  0  0  0  0  0  0  0
    2.2063   -8.7180    4.6834 H   0  0  0  0  0  0  0  0  0  0  0  0
  1  2  1  0
  1 43  1  0
  1 44  1  0
  1 45  1  0
  3  2  1  6
  3 19  1  0
  3 22  1  0
  3  4  1  0
  4  5  1  0
  4 46  1  0
  4 47  1  0
  5  6  1  0
  5 48  1  0
  5 49  1  0
  6  7  2  0
  6  8  1  0
  8 18  1  0
  8  9  1  0
  8 50  1  6
  9 10  1  0
 10 31  1  0
 10 11  1  6
 10 12  1  0
 11 51  1  0
 11 52  1  0
 11 53  1  0
 12 13  1  0
 12 54  1  0
 12 55  1  0
 13 14  1  0
 13 56  1  0
 13 57  1  0
 14 15  1  0
 14 18  1  0
 14 58  1  1
 15 16  1  0
 15 17  1  0
 15 59  1  0
 16 60  1  0
 16 61  1  0
 16 62  1  0
 17 63  1  0
 17 64  1  0
 17 65  1  0
 18 32  1  6
 18 19  1  0
 19 20  1  0
 19 66  1  1
 20 21  1  0
 20 67  1  0
 20 68  1  0
 22 21  1  6
 21 69  1  0
 21 70  1  0
 22 41  1  0
 22 23  1  0
 23 29  2  0
 23 24  1  0
 24 41  1  0
 24 25  2  0
 25 26  1  0
 25 71  1  0
 26 27  2  0
 26 72  1  0
 27 28  1  0
 27 29  1  0
 28 73  1  0
 29 30  1  0
 30 31  1  0
 31 32  1  0
 31 74  1  6
 32 33  1  1
 32 39  1  0
 33 34  2  3
 33 90  1  0
 34 38  1  0
 34 35  1  0
 35 36  1  0
 35 75  1  0
 35 76  1  0
 36 37  1  0
 36 77  1  0
 36 78  1  0
 37 38  1  0
 37 79  1  0
 37 80  1  0
 38 81  1  0
 38 82  1  0
 39 40  1  0
 39 83  1  0
 39 84  1  0
 40 41  1  0
 40 85  1  0
 40 86  1  0
 41 42  1  6
 42 87  1  0
 42 88  1  0
 42 89  1  0
M  CHG  1  33   1
M  END
>  <i_m_ct_stereo_status>  (193) 
1

>  <s_m_source_file>  (193) 
/var/tmp/pbs.5076255.sched01/tmpj5h_4zim/74m36hq9q5.sdf

>  <i_m_source_file_index>  (193) 
17

>  <i_lp_mmshare_version>  (193) 
48012

>  <i_f3d_flags>  (193) 
0

>  <s_epik_input>  (193) 
W0NAQF0xMjNbQ0BASF00Qyg9TylbQ0gyXVtDSDJdW0NAXTUoT1tDSDNdKVtDQEBdNihbQ0gyXVtDSDJdW0NASF0yNSljN2M4W0NAXTYoW0NIM10pW0NIMl1bQ0gyXVtDQF0zKE49QzlbQ0gyXVtDSDJdW0NIMl1bQ0gyXTkpW0NASF0oT2M3YyhbT0hdKVtjSF1bY0hdOClbQ0BAXShPNCkoW0NIM10pW0NIMl1bQ0gyXVtDQEhdMVtDSF0oW0NIM10pW0NIM10=

>  <s_epik_cmdline>  (193) 
J2VwaWtfcHl0aG9uJywgJy1waHQnLCAnMi4wJywgJy1waCcsICc3LjAnLCAnLXRuJywgJzgnLCAnLW1hJywgJzIwMCcsICctaW1hZScsICc8aW5maWxlLm1hZT4nLCAnLW9tYWUnLCAnPG91dGZpbGUubWFlPic=

>  <r_lp_tautomer_probability>  (193) 
1

>  <r_epik_Ionization_Penalty>  (193) 
0.271025

>  <r_epik_Ionization_Penalty_Charging>  (193) 
0.270268

>  <r_epik_Ionization_Penalty_Neutral>  (193) 
0.000756756

>  <r_epik_State_Penalty>  (193) 
0.262381

>  <r_epik_Charging_Adjusted_Penalty>  (193) 
0.532649

>  <i_epik_Tot_Q>  (193) 
1

>  <i_epik_Tot_abs_Q>  (193) 
1

>  <s_epik_Chemistry_Notes>  (193) 
This compound has an imine and may undergo hydrolysis.

>  <s_lp_Force_Field>  (193) 
OPLS3e

>  <r_lp_Energy>  (193) 
340.113

>  <b_lp_Chiralities_Consistent>  (193) 
1

>  <s_lp_Variant>  (193) 
73:0-1

>  <s_i_glide_gridfile>  (193) 
pfpi4k_grid

>  <i_i_glide_lignum>  (193) 
17

>  <i_i_glide_rotatable_bonds>  (193) 
4

>  <r_i_docking_score>  (193) 
-1.87859

>  <r_i_glide_ligand_efficiency>  (193) 
-0.0447283

>  <r_i_glide_ligand_efficiency_sa>  (193) 
-0.155477

>  <r_i_glide_ligand_efficiency_ln>  (193) 
-0.396522

>  <r_i_glide_gscore>  (193) 
-1.87859

>  <r_i_glide_lipo>  (193) 
-0.465682

>  <r_i_glide_hbond>  (193) 
0

>  <r_i_glide_metal>  (193) 
-0

>  <r_i_glide_rewards>  (193) 
0

>  <r_i_glide_evdw>  (193) 
-22.4673

>  <r_i_glide_ecoul>  (193) 
-2.18324

>  <r_i_glide_erotb>  (193) 
0.0631708

>  <r_i_glide_esite>  (193) 
-0.0252257

>  <r_i_glide_emodel>  (193) 
-24.7918

>  <r_i_glide_energy>  (193) 
-24.6506

>  <r_i_glide_einternal>  (193) 
0.880822

>  <r_i_glide_intrahb_reward>  (193) 
-0

>  <i_i_glide_confnum>  (193) 
3

>  <i_i_glide_posenum>  (193) 
24

>  <r_i_glide_eff_state_penalty>  (193) 
0

>  <ligand_id>  (193) 
73

>  <original_smiles>  (193) 
COC12CCC(=O)C3OC4(C)CCC(C(C)C)C35C1CCC21c2c3ccc(O)c2OC4C5(N=C2CCCC2)CCC31C

>  <smiles>  (193) 
[H]Oc1c([H])c([H])c2c3c1OC1([H])C4(C([H])([H])[H])OC5([H])C(=O)C([H])([H])C([H])([H])C6(OC([H])([H])[H])C7([H])C([H])([H])C([H])([H])C36C2(C([H])([H])[H])C([H])([H])C([H])([H])C1([N+]([H])=C1C([H])([H])C([H])([H])C([H])([H])C1([H])[H])C57C([H])(C([H])(C([H])([H])[H])C([H])([H])[H])C([H])([H])C4([H])[H]

$$$$
73:1:0
     RDKit          3D

 89 97  0  0  1  0  0  0  0  0999 V2000
    3.6043    4.4517    7.9707 C   0  0  0  0  0  0  0  0  0  0  0  0
    3.1390    4.3284    6.6289 O   0  0  0  0  0  0  0  0  0  0  0  0
    2.0478    3.4132    6.3464 C   0  0  2  0  0  0  0  0  0  0  0  0
    0.7808    3.9866    7.0550 C   0  0  0  0  0  0  0  0  0  0  0  0
    0.4165    3.2456    8.3486 C   0  0  0  0  0  0  0  0  0  0  0  0
   -0.0875    1.8047    8.1391 C   0  0  0  0  0  0  0  0  0  0  0  0
   -0.5659    1.1841    9.0867 O   0  0  0  0  0  0  0  0  0  0  0  0
    0.0068    1.1572    6.7272 C   0  0  2  0  0  0  0  0  0  0  0  0
   -0.9617    0.1221    6.6532 O   0  0  0  0  0  0  0  0  0  0  0  0
   -0.9239   -0.6514    5.4645 C   0  0  2  0  0  0  0  0  0  0  0  0
   -2.4152   -0.8850    5.1127 C   0  0  0  0  0  0  0  0  0  0  0  0
   -0.2997   -1.9956    5.8557 C   0  0  0  0  0  0  0  0  0  0  0  0
    0.9115   -1.9428    6.8107 C   0  0  0  0  0  0  0  0  0  0  0  0
    1.7332   -0.6247    7.0655 C   0  0  1  0  0  0  0  0  0  0  0  0
    3.1650   -0.9883    7.6802 C   0  0  0  0  0  0  0  0  0  0  0  0
    4.2132   -1.6702    6.8237 C   0  0  0  0  0  0  0  0  0  0  0  0
    3.0876   -1.9264    8.8920 C   0  0  0  0  0  0  0  0  0  0  0  0
    1.4480    0.7167    6.1478 C   0  0  2  0  0  0  0  0  0  0  0  0
    2.3890    1.9221    6.7202 C   0  0  1  0  0  0  0  0  0  0  0  0
    3.7242    1.7880    6.1249 C   0  0  0  0  0  0  0  0  0  0  0  0
    3.4328    2.4634    4.8580 C   0  0  0  0  0  0  0  0  0  0  0  0
    2.0305    3.1598    4.8430 C   0  0  1  0  0  0  0  0  0  0  0  0
    0.4900    3.1719    4.3281 C   0  0  0  0  0  0  0  0  0  0  0  0
    0.7332    4.3856    3.6870 C   0  0  0  0  0  0  0  0  0  0  0  0
   -0.2731    5.2792    3.2541 C   0  0  0  0  0  0  0  0  0  0  0  0
   -1.5667    4.7030    3.3251 C   0  0  0  0  0  0  0  0  0  0  0  0
   -1.7738    3.3599    3.5987 C   0  0  0  0  0  0  0  0  0  0  0  0
   -3.0374    2.8574    3.4011 O   0  0  0  0  0  0  0  0  0  0  0  0
   -0.7259    2.4343    4.0175 C   0  0  0  0  0  0  0  0  0  0  0  0
   -1.0272    1.1243    3.9631 O   0  0  0  0  0  0  0  0  0  0  0  0
   -0.1551    0.0431    4.2840 C   0  0  1  0  0  0  0  0  0  0  0  0
    1.4006    0.3383    4.4379 C   0  0  2  0  0  0  0  0  0  0  0  0
    2.0994   -0.9650    4.2215 N   0  0  0  0  0  0  0  0  0  0  0  0
    3.3598   -1.1751    3.9071 C   0  0  0  0  0  0  0  0  0  0  0  0
    4.0089   -2.5374    3.7821 C   0  0  0  0  0  0  0  0  0  0  0  0
    5.5345   -2.3009    3.7680 C   0  0  0  0  0  0  0  0  0  0  0  0
    5.7453   -0.8912    3.2533 C   0  0  0  0  0  0  0  0  0  0  0  0
    4.5070   -0.1897    3.6437 C   0  0  0  0  0  0  0  0  0  0  0  0
    1.7342    1.1578    2.9552 C   0  0  0  0  0  0  0  0  0  0  0  0
    2.1968    2.6926    2.4794 C   0  0  0  0  0  0  0  0  0  0  0  0
    2.1422    3.9354    3.5248 C   0  0  2  0  0  0  0  0  0  0  0  0
    3.1832    5.0087    3.2627 C   0  0  0  0  0  0  0  0  0  0  0  0
    4.4689    5.1139    8.0026 H   0  0  0  0  0  0  0  0  0  0  0  0
    3.9245    3.5020    8.3944 H   0  0  0  0  0  0  0  0  0  0  0  0
    2.8511    4.8827    8.6241 H   0  0  0  0  0  0  0  0  0  0  0  0
    0.9564    5.0397    7.2570 H   0  0  0  0  0  0  0  0  0  0  0  0
   -0.1007    4.0166    6.4374 H   0  0  0  0  0  0  0  0  0  0  0  0
    1.2615    3.2287    9.0361 H   0  0  0  0  0  0  0  0  0  0  0  0
   -0.3657    3.8086    8.8491 H   0  0  0  0  0  0  0  0  0  0  0  0
   -0.4315    1.9488    6.1692 H   0  0  0  0  0  0  0  0  0  0  0  0
   -2.5195   -1.4297    4.1871 H   0  0  0  0  0  0  0  0  0  0  0  0
   -2.9594    0.0423    4.9643 H   0  0  0  0  0  0  0  0  0  0  0  0
   -2.9562   -1.4367    5.8797 H   0  0  0  0  0  0  0  0  0  0  0  0
   -1.0492   -2.6253    6.3383 H   0  0  0  0  0  0  0  0  0  0  0  0
   -0.0378   -2.5511    4.9550 H   0  0  0  0  0  0  0  0  0  0  0  0
    0.5451   -2.2863    7.7793 H   0  0  0  0  0  0  0  0  0  0  0  0
    1.5811   -2.7421    6.5024 H   0  0  0  0  0  0  0  0  0  0  0  0
    1.3063   -0.3335    8.0212 H   0  0  0  0  0  0  0  0  0  0  0  0
    3.6222   -0.0783    8.0626 H   0  0  0  0  0  0  0  0  0  0  0  0
    3.8972   -2.6407    6.4923 H   0  0  0  0  0  0  0  0  0  0  0  0
    5.2129   -1.7177    7.2261 H   0  0  0  0  0  0  0  0  0  0  0  0
    4.4946   -1.0699    5.9868 H   0  0  0  0  0  0  0  0  0  0  0  0
    2.7002   -2.9095    8.6188 H   0  0  0  0  0  0  0  0  0  0  0  0
    2.4700   -1.5040    9.6786 H   0  0  0  0  0  0  0  0  0  0  0  0
    4.0892   -2.0872    9.2957 H   0  0  0  0  0  0  0  0  0  0  0  0
    2.5477    1.8073    7.7854 H   0  0  0  0  0  0  0  0  0  0  0  0
    4.5779    2.1972    6.6633 H   0  0  0  0  0  0  0  0  0  0  0  0
    3.8852    0.7424    6.0910 H   0  0  0  0  0  0  0  0  0  0  0  0
    4.2489    3.1805    4.7737 H   0  0  0  0  0  0  0  0  0  0  0  0
    3.7373    1.9332    3.9825 H   0  0  0  0  0  0  0  0  0  0  0  0
   -0.0701    6.2508    2.8947 H   0  0  0  0  0  0  0  0  0  0  0  0
   -2.4055    5.3153    3.0148 H   0  0  0  0  0  0  0  0  0  0  0  0
   -3.0896    1.9176    3.3517 H   0  0  0  0  0  0  0  0  0  0  0  0
   -0.3038   -0.5979    3.4091 H   0  0  0  0  0  0  0  0  0  0  0  0
    3.7569   -3.2394    4.5843 H   0  0  0  0  0  0  0  0  0  0  0  0
    3.6785   -3.0189    2.8772 H   0  0  0  0  0  0  0  0  0  0  0  0
    5.9640   -2.3930    4.7708 H   0  0  0  0  0  0  0  0  0  0  0  0
    6.0608   -2.9845    3.1072 H   0  0  0  0  0  0  0  0  0  0  0  0
    6.6184   -0.3491    3.6565 H   0  0  0  0  0  0  0  0  0  0  0  0
    5.7641   -0.8148    2.1735 H   0  0  0  0  0  0  0  0  0  0  0  0
    4.3570    0.5085    2.8646 H   0  0  0  0  0  0  0  0  0  0  0  0
    4.9083    0.3156    4.5391 H   0  0  0  0  0  0  0  0  0  0  0  0
    2.4248    0.5648    2.3720 H   0  0  0  0  0  0  0  0  0  0  0  0
    0.9308    0.9048    2.2678 H   0  0  0  0  0  0  0  0  0  0  0  0
    3.2214    2.5927    2.1043 H   0  0  0  0  0  0  0  0  0  0  0  0
    1.6911    2.9208    1.5491 H   0  0  0  0  0  0  0  0  0  0  0  0
    4.1460    4.5474    3.0686 H   0  0  0  0  0  0  0  0  0  0  0  0
    3.3047    5.6492    4.1310 H   0  0  0  0  0  0  0  0  0  0  0  0
    2.9596    5.6037    2.3813 H   0  0  0  0  0  0  0  0  0  0  0  0
  1  2  1  0
  1 43  1  0
  1 44  1  0
  1 45  1  0
  3  2  1  6
  3 19  1  0
  3 22  1  0
  3  4  1  0
  4  5  1  0
  4 46  1  0
  4 47  1  0
  5  6  1  0
  5 48  1  0
  5 49  1  0
  6  7  2  0
  6  8  1  0
  8 18  1  0
  8  9  1  0
  8 50  1  6
  9 10  1  0
 10 31  1  0
 10 11  1  6
 10 12  1  0
 11 51  1  0
 11 52  1  0
 11 53  1  0
 12 13  1  0
 12 54  1  0
 12 55  1  0
 13 14  1  0
 13 56  1  0
 13 57  1  0
 14 15  1  0
 14 18  1  0
 14 58  1  1
 15 16  1  0
 15 17  1  0
 15 59  1  0
 16 60  1  0
 16 61  1  0
 16 62  1  0
 17 63  1  0
 17 64  1  0
 17 65  1  0
 18 32  1  6
 18 19  1  0
 19 20  1  0
 19 66  1  1
 20 21  1  0
 20 67  1  0
 20 68  1  0
 22 21  1  1
 21 69  1  0
 21 70  1  0
 22 41  1  0
 22 23  1  0
 23 29  2  0
 23 24  1  0
 24 41  1  0
 24 25  2  0
 25 26  1  0
 25 71  1  0
 26 27  2  0
 26 72  1  0
 27 28  1  0
 27 29  1  0
 28 73  1  0
 29 30  1  0
 30 31  1  0
 31 32  1  0
 31 74  1  6
 32 33  1  1
 32 39  1  0
 33 34  2  3
 34 38  1  0
 34 35  1  0
 35 36  1  0
 35 75  1  0
 35 76  1  0
 36 37  1  0
 36 77  1  0
 36 78  1  0
 37 38  1  0
 37 79  1  0
 37 80  1  0
 38 81  1  0
 38 82  1  0
 39 40  1  0
 39 83  1  0
 39 84  1  0
 40 41  1  0
 40 85  1  0
 40 86  1  0
 41 42  1  1
 42 87  1  0
 42 88  1  0
 42 89  1  0
M  END
>  <i_m_ct_stereo_status>  (194) 
1

>  <s_m_source_file>  (194) 
/var/tmp/pbs.5076255.sched01/tmpj5h_4zim/74m36hq9q5.sdf

>  <i_m_source_file_index>  (194) 
18

>  <i_lp_mmshare_version>  (194) 
48012

>  <i_f3d_flags>  (194) 
0

>  <s_epik_input>  (194) 
W0NAQF0xMjNbQ0BASF00Qyg9TylbQ0gyXVtDSDJdW0NAXTUoT1tDSDNdKVtDQEBdNihbQ0gyXVtDSDJdW0NASF0yNSljN2M4W0NAXTYoW0NIM10pW0NIMl1bQ0gyXVtDQF0zKE49QzlbQ0gyXVtDSDJdW0NIMl1bQ0gyXTkpW0NASF0oT2M3YyhbT0hdKVtjSF1bY0hdOClbQ0BAXShPNCkoW0NIM10pW0NIMl1bQ0gyXVtDQEhdMVtDSF0oW0NIM10pW0NIM10=

>  <s_epik_cmdline>  (194) 
J2VwaWtfcHl0aG9uJywgJy1waHQnLCAnMi4wJywgJy1waCcsICc3LjAnLCAnLXRuJywgJzgnLCAnLW1hJywgJzIwMCcsICctaW1hZScsICc8aW5maWxlLm1hZT4nLCAnLW9tYWUnLCAnPG91dGZpbGUubWFlPic=

>  <r_lp_tautomer_probability>  (194) 
0.499996

>  <r_epik_Ionization_Penalty>  (194) 
0.595125

>  <r_epik_Ionization_Penalty_Charging>  (194) 
0

>  <r_epik_Ionization_Penalty_Neutral>  (194) 
0.595125

>  <r_epik_State_Penalty>  (194) 
0.608954

>  <r_epik_Charging_Adjusted_Penalty>  (194) 
0.608954

>  <i_epik_Tot_Q>  (194) 
0

>  <i_epik_Tot_abs_Q>  (194) 
0

>  <s_epik_Chemistry_Notes>  (194) 
This compound has an imine and may undergo hydrolysis.

>  <s_lp_Force_Field>  (194) 
OPLS3e

>  <r_lp_Energy>  (194) 
342.157

>  <b_lp_Chiralities_Consistent>  (194) 
1

>  <s_lp_Variant>  (194) 
73:0-2

>  <s_i_glide_gridfile>  (194) 
pfpi4k_grid

>  <i_i_glide_lignum>  (194) 
18

>  <i_i_glide_rotatable_bonds>  (194) 
4

>  <r_i_docking_score>  (194) 
0.646384

>  <r_i_glide_ligand_efficiency>  (194) 
0.0153901

>  <r_i_glide_ligand_efficiency_sa>  (194) 
0.0534964

>  <r_i_glide_ligand_efficiency_ln>  (194) 
0.136435

>  <r_i_glide_gscore>  (194) 
0.646384

>  <r_i_glide_lipo>  (194) 
-0.30102

>  <r_i_glide_hbond>  (194) 
-0.0987819

>  <r_i_glide_metal>  (194) 
-0

>  <r_i_glide_rewards>  (194) 
-0.000940207

>  <r_i_glide_evdw>  (194) 
-12.9311

>  <r_i_glide_ecoul>  (194) 
-4.02085

>  <r_i_glide_erotb>  (194) 
0.0633764

>  <r_i_glide_esite>  (194) 
-0.00586191

>  <r_i_glide_emodel>  (194) 
-4.42122

>  <r_i_glide_energy>  (194) 
-16.952

>  <r_i_glide_einternal>  (194) 
2.27373

>  <r_i_glide_intrahb_reward>  (194) 
-0

>  <i_i_glide_confnum>  (194) 
1

>  <i_i_glide_posenum>  (194) 
7

>  <r_i_glide_eff_state_penalty>  (194) 
0

>  <ligand_id>  (194) 
73

>  <original_smiles>  (194) 
COC12CCC(=O)C3OC4(C)CCC(C(C)C)C35C1CCC21c2c3ccc(O)c2OC4C5(N=C2CCCC2)CCC31C

>  <smiles>  (194) 
[H]Oc1c([H])c([H])c2c3c1OC1([H])C4(N=C5C([H])([H])C([H])([H])C([H])([H])C5([H])[H])C([H])([H])C([H])([H])C2(C([H])([H])[H])C32C([H])([H])C([H])([H])C3([H])C2(OC([H])([H])[H])C([H])([H])C([H])([H])C(=O)C2([H])OC1(C([H])([H])[H])C([H])([H])C([H])([H])C([H])(C([H])(C([H])([H])[H])C([H])([H])[H])C234

$$$$
76:0:0
     RDKit          3D

 61 68  0  0  1  0  0  0  0  0999 V2000
    1.7593   -3.5052   -1.9500 C   0  0  0  0  0  0  0  0  0  0  0  0
    3.0830   -2.8921   -1.4833 C   0  0  2  0  0  0  0  0  0  0  0  0
    4.2918   -3.4227   -2.2628 C   0  0  0  0  0  0  0  0  0  0  0  0
    5.5384   -2.5831   -1.9468 C   0  0  0  0  0  0  0  0  0  0  0  0
    5.9396   -2.5274   -0.4445 C   0  0  2  0  0  0  0  0  0  0  0  0
    7.2271   -3.3731   -0.1424 C   0  0  1  0  0  0  0  0  0  0  0  0
    8.4712   -2.4883    0.0364 C   0  0  0  0  0  0  0  0  0  0  0  0
    7.0258   -4.3771    1.0167 C   0  0  2  0  0  0  0  0  0  0  0  0
    8.0474   -5.5049    1.2022 C   0  0  0  0  0  0  0  0  0  0  0  0
    7.2839   -6.6026    1.9784 C   0  0  1  0  0  0  0  0  0  0  0  0
    7.2888   -6.4048    3.4923 C   0  0  2  0  0  0  0  0  0  0  0  0
    8.6137   -6.3430    4.2360 C   0  0  2  0  0  0  0  0  0  0  0  0
    9.1876   -7.6984    4.6690 C   0  0  0  0  0  0  0  0  0  0  0  0
    7.7898   -7.6877    5.2961 C   0  0  1  0  0  0  0  0  0  0  0  0
    8.0377   -6.2908    5.5572 O   0  0  0  0  0  0  0  0  0  0  0  0
    6.7385   -7.6234    4.2028 C   0  0  1  0  0  0  0  0  0  0  0  0
    5.2782   -7.4333    4.5703 C   0  0  0  0  0  0  0  0  0  0  0  0
    4.4076   -7.5336    3.3498 C   0  0  0  0  0  0  0  0  0  0  0  0
    3.1898   -8.0522    3.3947 N   0  0  0  0  0  0  0  0  0  0  0  0
    2.7387   -7.9727    2.1072 N   0  0  0  0  0  0  0  0  0  0  0  0
    3.6272   -7.4307    1.3408 N   0  0  0  0  0  0  0  0  0  0  0  0
    4.7070   -7.1352    2.1066 N   0  0  0  0  0  0  0  0  0  0  0  0
    5.8490   -6.5335    1.3867 C   0  0  1  0  0  0  0  0  0  0  0  0
    5.6840   -5.0915    0.8391 C   0  0  1  0  0  0  0  0  0  0  0  0
    4.5773   -4.1019    1.2391 C   0  0  2  0  0  0  0  0  0  0  0  0
    4.2835   -4.0318    2.7461 C   0  0  0  0  0  0  0  0  0  0  0  0
    3.3548   -4.3614    0.5002 O   0  0  0  0  0  0  0  0  0  0  0  0
    3.3347   -2.9888    0.0184 C   0  0  1  0  0  0  0  0  0  0  0  0
    4.7476   -2.7509    0.5375 C   0  0  2  0  0  0  0  0  0  0  0  0
    1.7046   -4.5678   -1.7462 H   0  0  0  0  0  0  0  0  0  0  0  0
    1.6345   -3.3405   -3.0186 H   0  0  0  0  0  0  0  0  0  0  0  0
    0.8944   -3.0594   -1.4673 H   0  0  0  0  0  0  0  0  0  0  0  0
    3.0096   -1.8357   -1.7360 H   0  0  0  0  0  0  0  0  0  0  0  0
    4.4727   -4.4661   -2.0048 H   0  0  0  0  0  0  0  0  0  0  0  0
    4.0855   -3.3932   -3.3373 H   0  0  0  0  0  0  0  0  0  0  0  0
    6.3568   -2.9654   -2.5558 H   0  0  0  0  0  0  0  0  0  0  0  0
    5.3468   -1.5650   -2.3003 H   0  0  0  0  0  0  0  0  0  0  0  0
    6.2445   -1.4948   -0.3029 H   0  0  0  0  0  0  0  0  0  0  0  0
    7.4463   -3.9663   -1.0233 H   0  0  0  0  0  0  0  0  0  0  0  0
    8.3776   -1.8027    0.8745 H   0  0  0  0  0  0  0  0  0  0  0  0
    8.6346   -1.8787   -0.8488 H   0  0  0  0  0  0  0  0  0  0  0  0
    9.3756   -3.0811    0.1715 H   0  0  0  0  0  0  0  0  0  0  0  0
    6.9977   -3.8280    1.9582 H   0  0  0  0  0  0  0  0  0  0  0  0
    8.3505   -5.9001    0.2321 H   0  0  0  0  0  0  0  0  0  0  0  0
    8.9511   -5.1769    1.7167 H   0  0  0  0  0  0  0  0  0  0  0  0
    7.7427   -7.5678    1.7515 H   0  0  0  0  0  0  0  0  0  0  0  0
    6.7117   -5.5111    3.7334 H   0  0  0  0  0  0  0  0  0  0  0  0
    9.3209   -5.5491    4.0311 H   0  0  0  0  0  0  0  0  0  0  0  0
    9.3155   -8.4088    3.8526 H   0  0  0  0  0  0  0  0  0  0  0  0
   10.0281   -7.6500    5.3760 H   0  0  0  0  0  0  0  0  0  0  0  0
    7.6450   -8.3099    6.1761 H   0  0  0  0  0  0  0  0  0  0  0  0
    6.8351   -8.5356    3.6123 H   0  0  0  0  0  0  0  0  0  0  0  0
    4.9670   -8.2092    5.2695 H   0  0  0  0  0  0  0  0  0  0  0  0
    5.0951   -6.4669    5.0375 H   0  0  0  0  0  0  0  0  0  0  0  0
    5.9272   -7.1270    0.4812 H   0  0  0  0  0  0  0  0  0  0  0  0
    5.5647   -5.2599   -0.2319 H   0  0  0  0  0  0  0  0  0  0  0  0
    5.1804   -3.8059    3.3201 H   0  0  0  0  0  0  0  0  0  0  0  0
    3.8636   -4.9514    3.1397 H   0  0  0  0  0  0  0  0  0  0  0  0
    3.5609   -3.2508    2.9850 H   0  0  0  0  0  0  0  0  0  0  0  0
    2.6294   -2.3929    0.5948 H   0  0  0  0  0  0  0  0  0  0  0  0
    4.7059   -1.9696    1.2905 H   0  0  0  0  0  0  0  0  0  0  0  0
  1  2  1  0
  1 30  1  0
  1 31  1  0
  1 32  1  0
  2 28  1  0
  2  3  1  0
  2 33  1  6
  3  4  1  0
  3 34  1  0
  3 35  1  0
  4  5  1  0
  4 36  1  0
  4 37  1  0
  5 29  1  0
  5  6  1  0
  5 38  1  1
  6  7  1  0
  6  8  1  0
  6 39  1  6
  7 40  1  0
  7 41  1  0
  7 42  1  0
  8 24  1  0
  8  9  1  0
  8 43  1  1
  9 10  1  0
  9 44  1  0
  9 45  1  0
 10 23  1  0
 10 11  1  0
 10 46  1  1
 11 16  1  0
 11 12  1  0
 11 47  1  6
 12 15  1  0
 12 13  1  0
 12 48  1  6
 13 14  1  0
 13 49  1  0
 13 50  1  0
 14 15  1  0
 14 16  1  0
 14 51  1  1
 16 17  1  0
 16 52  1  6
 17 18  1  0
 17 53  1  0
 17 54  1  0
 18 22  1  0
 18 19  2  0
 19 20  1  0
 20 21  2  0
 21 22  1  0
 22 23  1  0
 23 24  1  0
 23 55  1  6
 24 25  1  0
 24 56  1  6
 25 29  1  0
 25 26  1  1
 25 27  1  0
 26 57  1  0
 26 58  1  0
 26 59  1  0
 27 28  1  0
 28 29  1  0
 28 60  1  1
 29 61  1  1
M  END
>  <i_m_ct_stereo_status>  (195) 
1

>  <s_m_source_file>  (195) 
/var/tmp/pbs.5076255.sched01/tmpj5h_4zim/74m36hq9q5.sdf

>  <i_m_source_file_index>  (195) 
21

>  <i_lp_mmshare_version>  (195) 
48012

>  <i_f3d_flags>  (195) 
0

>  <s_epik_input>  (195) 
W0NIMl0xW0NIMl1bQ0BASF0oW0NIM10pW0NAQEhdKE8yKVtDQEBIXTNbQ0BIXTFbQ0BASF0oW0NIM10pW0NAQEhdKFtDQEBIXTRbQ0BdMjNbQ0gzXSlbQ0gyXVtDQEhdNVtDQEBIXTZbQ0BASF03W0NIMl1bQ0BASF0oTzcpW0NASF02W0NIMl1jOG4oW0NAQEhdNDUpbm5uOA==

>  <s_epik_cmdline>  (195) 
J2VwaWtfcHl0aG9uJywgJy1waHQnLCAnMi4wJywgJy1waCcsICc3LjAnLCAnLXRuJywgJzgnLCAnLW1hJywgJzIwMCcsICctaW1hZScsICc8aW5maWxlLm1hZT4nLCAnLW9tYWUnLCAnPG91dGZpbGUubWFlPic=

>  <r_lp_tautomer_probability>  (195) 
1

>  <r_epik_Ionization_Penalty>  (195) 
9.00886e-08

>  <r_epik_Ionization_Penalty_Charging>  (195) 
0

>  <r_epik_Ionization_Penalty_Neutral>  (195) 
9.00886e-08

>  <r_epik_State_Penalty>  (195) 
-0

>  <r_epik_Charging_Adjusted_Penalty>  (195) 
0

>  <i_epik_Tot_Q>  (195) 
0

>  <i_epik_Tot_abs_Q>  (195) 
0

>  <s_lp_Force_Field>  (195) 
OPLS3e

>  <r_lp_Energy>  (195) 
76.0386

>  <b_lp_Chiralities_Consistent>  (195) 
1

>  <s_lp_Variant>  (195) 
76:0-1

>  <s_i_glide_gridfile>  (195) 
pfpi4k_grid

>  <i_i_glide_lignum>  (195) 
21

>  <i_i_glide_rotatable_bonds>  (195) 
0

>  <r_i_docking_score>  (195) 
-2.49207

>  <r_i_glide_ligand_efficiency>  (195) 
-0.0859333

>  <r_i_glide_ligand_efficiency_sa>  (195) 
-0.264014

>  <r_i_glide_ligand_efficiency_ln>  (195) 
-0.57062

>  <r_i_glide_gscore>  (195) 
-2.49207

>  <r_i_glide_lipo>  (195) 
-0.691504

>  <r_i_glide_hbond>  (195) 
0

>  <r_i_glide_metal>  (195) 
-0

>  <r_i_glide_rewards>  (195) 
-0.738246

>  <r_i_glide_evdw>  (195) 
-22.2183

>  <r_i_glide_ecoul>  (195) 
0.384697

>  <r_i_glide_erotb>  (195) 
0

>  <r_i_glide_esite>  (195) 
-0.00910533

>  <r_i_glide_emodel>  (195) 
-24.7595

>  <r_i_glide_energy>  (195) 
-21.8336

>  <r_i_glide_einternal>  (195) 
0

>  <r_i_glide_intrahb_reward>  (195) 
-0

>  <i_i_glide_confnum>  (195) 
1

>  <i_i_glide_posenum>  (195) 
2

>  <r_i_glide_eff_state_penalty>  (195) 
0

>  <ligand_id>  (195) 
76

>  <original_smiles>  (195) 
CC1CCC2C(C)C3CC4C5C6CC(O6)C5Cc5nnnn5C4C3C3(C)OC1C23

>  <smiles>  (195) 
[H]C([H])([H])C1([H])C([H])([H])C([H])([H])C2([H])C([H])(C([H])([H])[H])C3([H])C([H])([H])C4([H])C([H])(n5nnnc5C([H])([H])C5([H])C6([H])OC([H])(C6([H])[H])C54[H])C3([H])C3(C([H])([H])[H])OC1([H])C23[H]

$$$$
76:0:1
     RDKit          3D

 61 68  0  0  1  0  0  0  0  0999 V2000
    1.8311   -3.1017   -3.2244 C   0  0  0  0  0  0  0  0  0  0  0  0
    3.1957   -2.5847   -2.8717 C   0  0  2  0  0  0  0  0  0  0  0  0
    4.2579   -3.4727   -3.5069 C   0  0  0  0  0  0  0  0  0  0  0  0
    5.5589   -2.7224   -3.3198 C   0  0  0  0  0  0  0  0  0  0  0  0
    6.0494   -2.4442   -1.8551 C   0  0  2  0  0  0  0  0  0  0  0  0
    7.2346   -3.3943   -1.3879 C   0  0  1  0  0  0  0  0  0  0  0  0
    8.5951   -2.7211   -1.2954 C   0  0  0  0  0  0  0  0  0  0  0  0
    6.9069   -4.2573   -0.1103 C   0  0  2  0  0  0  0  0  0  0  0  0
    7.7876   -5.4284    0.4086 C   0  0  0  0  0  0  0  0  0  0  0  0
    6.8158   -6.2673    1.2693 C   0  0  1  0  0  0  0  0  0  0  0  0
    6.8554   -5.8398    2.7236 C   0  0  2  0  0  0  0  0  0  0  0  0
    8.1972   -5.8601    3.4534 C   0  0  2  0  0  0  0  0  0  0  0  0
    8.5204   -7.2204    4.0872 C   0  0  0  0  0  0  0  0  0  0  0  0
    7.1618   -6.8868    4.7086 C   0  0  1  0  0  0  0  0  0  0  0  0
    7.6121   -5.5184    4.7451 O   0  0  0  0  0  0  0  0  0  0  0  0
    6.1173   -6.8279    3.6031 C   0  0  1  0  0  0  0  0  0  0  0  0
    4.7147   -6.3293    3.9069 C   0  0  0  0  0  0  0  0  0  0  0  0
    3.8462   -6.4814    2.7186 C   0  0  0  0  0  0  0  0  0  0  0  0
    2.5565   -6.7924    2.8392 N   0  0  0  0  0  0  0  0  0  0  0  0
    2.0702   -6.7945    1.5513 N   0  0  0  0  0  0  0  0  0  0  0  0
    3.0236   -6.4795    0.7012 N   0  0  0  0  0  0  0  0  0  0  0  0
    4.1735   -6.3180    1.4060 N   0  0  0  0  0  0  0  0  0  0  0  0
    5.4067   -6.0492    0.6440 C   0  0  1  0  0  0  0  0  0  0  0  0
    5.4761   -4.7442   -0.1794 C   0  0  1  0  0  0  0  0  0  0  0  0
    4.5202   -3.5520    0.0472 C   0  0  2  0  0  0  0  0  0  0  0  0
    4.2517   -3.1659    1.5061 C   0  0  0  0  0  0  0  0  0  0  0  0
    3.2589   -3.7358   -0.6669 O   0  0  0  0  0  0  0  0  0  0  0  0
    3.4507   -2.4656   -1.3637 C   0  0  1  0  0  0  0  0  0  0  0  0
    4.8818   -2.3432   -0.8470 C   0  0  2  0  0  0  0  0  0  0  0  0
    1.7682   -4.1181   -2.8418 H   0  0  0  0  0  0  0  0  0  0  0  0
    1.6874   -3.0830   -4.3091 H   0  0  0  0  0  0  0  0  0  0  0  0
    1.0885   -2.4811   -2.7372 H   0  0  0  0  0  0  0  0  0  0  0  0
    3.2762   -1.5929   -3.3053 H   0  0  0  0  0  0  0  0  0  0  0  0
    4.2959   -4.4983   -3.1054 H   0  0  0  0  0  0  0  0  0  0  0  0
    4.0912   -3.5703   -4.5839 H   0  0  0  0  0  0  0  0  0  0  0  0
    6.2681   -3.2554   -3.9228 H   0  0  0  0  0  0  0  0  0  0  0  0
    5.3765   -1.7908   -3.8244 H   0  0  0  0  0  0  0  0  0  0  0  0
    6.5060   -1.4593   -1.9150 H   0  0  0  0  0  0  0  0  0  0  0  0
    7.3654   -3.9529   -2.2959 H   0  0  0  0  0  0  0  0  0  0  0  0
    8.6477   -1.9485   -0.5291 H   0  0  0  0  0  0  0  0  0  0  0  0
    8.8297   -2.3109   -2.2830 H   0  0  0  0  0  0  0  0  0  0  0  0
    9.3435   -3.4819   -1.0681 H   0  0  0  0  0  0  0  0  0  0  0  0
    6.9480   -3.5607    0.7210 H   0  0  0  0  0  0  0  0  0  0  0  0
    8.1514   -6.1056   -0.3565 H   0  0  0  0  0  0  0  0  0  0  0  0
    8.6696   -5.0721    0.9772 H   0  0  0  0  0  0  0  0  0  0  0  0
    7.0858   -7.3233    1.2002 H   0  0  0  0  0  0  0  0  0  0  0  0
    6.4295   -4.8368    2.7827 H   0  0  0  0  0  0  0  0  0  0  0  0
    9.0183   -5.2473    3.1065 H   0  0  0  0  0  0  0  0  0  0  0  0
    8.5624   -8.0726    3.4084 H   0  0  0  0  0  0  0  0  0  0  0  0
    9.3555   -7.1650    4.7860 H   0  0  0  0  0  0  0  0  0  0  0  0
    6.8978   -7.3361    5.6732 H   0  0  0  0  0  0  0  0  0  0  0  0
    6.0459   -7.8159    3.1304 H   0  0  0  0  0  0  0  0  0  0  0  0
    4.2881   -6.9192    4.7241 H   0  0  0  0  0  0  0  0  0  0  0  0
    4.6975   -5.2796    4.2027 H   0  0  0  0  0  0  0  0  0  0  0  0
    5.3389   -6.8018   -0.1334 H   0  0  0  0  0  0  0  0  0  0  0  0
    5.2978   -5.0710   -1.2047 H   0  0  0  0  0  0  0  0  0  0  0  0
    5.1813   -2.9907    2.0479 H   0  0  0  0  0  0  0  0  0  0  0  0
    3.6823   -3.9224    2.0263 H   0  0  0  0  0  0  0  0  0  0  0  0
    3.6637   -2.2490    1.5781 H   0  0  0  0  0  0  0  0  0  0  0  0
    2.8663   -1.6655   -0.9136 H   0  0  0  0  0  0  0  0  0  0  0  0
    4.9736   -1.4324   -0.2438 H   0  0  0  0  0  0  0  0  0  0  0  0
  1  2  1  0
  1 30  1  0
  1 31  1  0
  1 32  1  0
  2 28  1  0
  2  3  1  0
  2 33  1  6
  3  4  1  0
  3 34  1  0
  3 35  1  0
  4  5  1  0
  4 36  1  0
  4 37  1  0
  5 29  1  0
  5  6  1  0
  5 38  1  6
  6  7  1  0
  6  8  1  0
  6 39  1  6
  7 40  1  0
  7 41  1  0
  7 42  1  0
  8 24  1  0
  8  9  1  0
  8 43  1  1
  9 10  1  0
  9 44  1  0
  9 45  1  0
 10 23  1  0
 10 11  1  0
 10 46  1  1
 11 16  1  0
 11 12  1  0
 11 47  1  6
 12 15  1  0
 12 13  1  0
 12 48  1  6
 13 14  1  0
 13 49  1  0
 13 50  1  0
 14 15  1  0
 14 16  1  0
 14 51  1  1
 16 17  1  0
 16 52  1  6
 17 18  1  0
 17 53  1  0
 17 54  1  0
 18 22  1  0
 18 19  2  0
 19 20  1  0
 20 21  2  0
 21 22  1  0
 22 23  1  0
 23 24  1  0
 23 55  1  6
 24 25  1  0
 24 56  1  6
 25 29  1  0
 25 26  1  1
 25 27  1  0
 26 57  1  0
 26 58  1  0
 26 59  1  0
 27 28  1  0
 28 29  1  0
 28 60  1  1
 29 61  1  1
M  END
>  <i_m_ct_stereo_status>  (196) 
1

>  <s_m_source_file>  (196) 
/var/tmp/pbs.5076255.sched01/tmpj5h_4zim/74m36hq9q5.sdf

>  <i_m_source_file_index>  (196) 
21

>  <i_lp_mmshare_version>  (196) 
48012

>  <i_f3d_flags>  (196) 
0

>  <s_epik_input>  (196) 
W0NIMl0xW0NIMl1bQ0BASF0oW0NIM10pW0NAQEhdKE8yKVtDQEBIXTNbQ0BIXTFbQ0BASF0oW0NIM10pW0NAQEhdKFtDQEBIXTRbQ0BdMjNbQ0gzXSlbQ0gyXVtDQEhdNVtDQEBIXTZbQ0BASF03W0NIMl1bQ0BASF0oTzcpW0NASF02W0NIMl1jOG4oW0NAQEhdNDUpbm5uOA==

>  <s_epik_cmdline>  (196) 
J2VwaWtfcHl0aG9uJywgJy1waHQnLCAnMi4wJywgJy1waCcsICc3LjAnLCAnLXRuJywgJzgnLCAnLW1hJywgJzIwMCcsICctaW1hZScsICc8aW5maWxlLm1hZT4nLCAnLW9tYWUnLCAnPG91dGZpbGUubWFlPic=

>  <r_lp_tautomer_probability>  (196) 
1

>  <r_epik_Ionization_Penalty>  (196) 
9.00886e-08

>  <r_epik_Ionization_Penalty_Charging>  (196) 
0

>  <r_epik_Ionization_Penalty_Neutral>  (196) 
9.00886e-08

>  <r_epik_State_Penalty>  (196) 
-0

>  <r_epik_Charging_Adjusted_Penalty>  (196) 
0

>  <i_epik_Tot_Q>  (196) 
0

>  <i_epik_Tot_abs_Q>  (196) 
0

>  <s_lp_Force_Field>  (196) 
OPLS3e

>  <r_lp_Energy>  (196) 
76.0386

>  <b_lp_Chiralities_Consistent>  (196) 
1

>  <s_lp_Variant>  (196) 
76:0-1

>  <s_i_glide_gridfile>  (196) 
pfpi4k_grid

>  <i_i_glide_lignum>  (196) 
21

>  <i_i_glide_rotatable_bonds>  (196) 
0

>  <r_i_docking_score>  (196) 
-2.18373

>  <r_i_glide_ligand_efficiency>  (196) 
-0.0753011

>  <r_i_glide_ligand_efficiency_sa>  (196) 
-0.231349

>  <r_i_glide_ligand_efficiency_ln>  (196) 
-0.500019

>  <r_i_glide_gscore>  (196) 
-2.18373

>  <r_i_glide_lipo>  (196) 
-0.948731

>  <r_i_glide_hbond>  (196) 
0

>  <r_i_glide_metal>  (196) 
-0

>  <r_i_glide_rewards>  (196) 
-0.792594

>  <r_i_glide_evdw>  (196) 
-10.3542

>  <r_i_glide_ecoul>  (196) 
0.721508

>  <r_i_glide_erotb>  (196) 
0

>  <r_i_glide_esite>  (196) 
-0.032922

>  <r_i_glide_emodel>  (196) 
-10.9335

>  <r_i_glide_energy>  (196) 
-9.6327

>  <r_i_glide_einternal>  (196) 
0

>  <r_i_glide_intrahb_reward>  (196) 
-0

>  <i_i_glide_confnum>  (196) 
1

>  <i_i_glide_posenum>  (196) 
14

>  <r_i_glide_eff_state_penalty>  (196) 
0

>  <ligand_id>  (196) 
76

>  <original_smiles>  (196) 
CC1CCC2C(C)C3CC4C5C6CC(O6)C5Cc5nnnn5C4C3C3(C)OC1C23

>  <smiles>  (196) 
[H]C([H])([H])C1([H])C([H])([H])C([H])([H])C2([H])C([H])(C([H])([H])[H])C3([H])C([H])([H])C4([H])C([H])(n5nnnc5C([H])([H])C5([H])C6([H])OC([H])(C6([H])[H])C54[H])C3([H])C3(C([H])([H])[H])OC1([H])C23[H]

$$$$
76:0:2
     RDKit          3D

 61 68  0  0  1  0  0  0  0  0999 V2000
    5.7470   -8.6116    5.7330 C   0  0  0  0  0  0  0  0  0  0  0  0
    6.4142   -8.5335    4.3543 C   0  0  2  0  0  0  0  0  0  0  0  0
    7.6568   -7.6445    4.3445 C   0  0  0  0  0  0  0  0  0  0  0  0
    8.4177   -7.8086    3.0178 C   0  0  0  0  0  0  0  0  0  0  0  0
    7.6079   -7.4788    1.7239 C   0  0  2  0  0  0  0  0  0  0  0  0
    8.0479   -6.1069    1.0788 C   0  0  1  0  0  0  0  0  0  0  0  0
    8.8981   -6.2789   -0.1896 C   0  0  0  0  0  0  0  0  0  0  0  0
    6.8535   -5.1746    0.8057 C   0  0  2  0  0  0  0  0  0  0  0  0
    7.1632   -3.7105    0.4932 C   0  0  0  0  0  0  0  0  0  0  0  0
    5.8765   -2.9630    0.8708 C   0  0  1  0  0  0  0  0  0  0  0  0
    4.8259   -2.9474   -0.2352 C   0  0  2  0  0  0  0  0  0  0  0  0
    5.1772   -2.3458   -1.5914 C   0  0  2  0  0  0  0  0  0  0  0  0
    4.9481   -0.8348   -1.6788 C   0  0  0  0  0  0  0  0  0  0  0  0
    3.5756   -1.3578   -1.2553 C   0  0  1  0  0  0  0  0  0  0  0  0
    3.8409   -2.4806   -2.1425 O   0  0  0  0  0  0  0  0  0  0  0  0
    3.6963   -1.9994    0.1171 C   0  0  1  0  0  0  0  0  0  0  0  0
    2.5261   -2.7714    0.7267 C   0  0  0  0  0  0  0  0  0  0  0  0
    2.8277   -3.2133    2.1028 C   0  0  0  0  0  0  0  0  0  0  0  0
    1.8701   -3.2519    3.0410 N   0  0  0  0  0  0  0  0  0  0  0  0
    2.5140   -3.6738    4.1633 N   0  0  0  0  0  0  0  0  0  0  0  0
    3.7771   -3.8874    3.9384 N   0  0  0  0  0  0  0  0  0  0  0  0
    4.0087   -3.5936    2.6292 N   0  0  0  0  0  0  0  0  0  0  0  0
    5.3755   -3.7196    2.1370 C   0  0  1  0  0  0  0  0  0  0  0  0
    5.9726   -5.1471    2.0439 C   0  0  1  0  0  0  0  0  0  0  0  0
    5.1558   -6.4452    2.0689 C   0  0  2  0  0  0  0  0  0  0  0  0
    3.8903   -6.4567    1.2025 C   0  0  0  0  0  0  0  0  0  0  0  0
    4.8523   -6.8330    3.4402 O   0  0  0  0  0  0  0  0  0  0  0  0
    5.4693   -8.1370    3.2192 C   0  0  1  0  0  0  0  0  0  0  0  0
    6.0626   -7.6745    1.8880 C   0  0  2  0  0  0  0  0  0  0  0  0
    5.3789   -7.6389    6.0616 H   0  0  0  0  0  0  0  0  0  0  0  0
    6.4698   -8.9661    6.4692 H   0  0  0  0  0  0  0  0  0  0  0  0
    4.9170   -9.3202    5.7299 H   0  0  0  0  0  0  0  0  0  0  0  0
    6.7740   -9.5443    4.1510 H   0  0  0  0  0  0  0  0  0  0  0  0
    7.3756   -6.6013    4.4926 H   0  0  0  0  0  0  0  0  0  0  0  0
    8.3177   -7.9078    5.1773 H   0  0  0  0  0  0  0  0  0  0  0  0
    9.3193   -7.2035    3.0703 H   0  0  0  0  0  0  0  0  0  0  0  0
    8.7680   -8.8456    2.9623 H   0  0  0  0  0  0  0  0  0  0  0  0
    7.9374   -8.2373    1.0125 H   0  0  0  0  0  0  0  0  0  0  0  0
    8.6741   -5.5872    1.8098 H   0  0  0  0  0  0  0  0  0  0  0  0
    8.5283   -7.0116   -0.9014 H   0  0  0  0  0  0  0  0  0  0  0  0
    9.8247   -6.7372    0.0877 H   0  0  0  0  0  0  0  0  0  0  0  0
    9.2064   -5.3432   -0.6494 H   0  0  0  0  0  0  0  0  0  0  0  0
    6.2733   -5.5699   -0.0304 H   0  0  0  0  0  0  0  0  0  0  0  0
    7.9879   -3.3748    1.1217 H   0  0  0  0  0  0  0  0  0  0  0  0
    7.4588   -3.5614   -0.5421 H   0  0  0  0  0  0  0  0  0  0  0  0
    6.1371   -1.9378    1.1327 H   0  0  0  0  0  0  0  0  0  0  0  0
    4.4571   -3.9624   -0.3823 H   0  0  0  0  0  0  0  0  0  0  0  0
    5.9672   -2.7787   -2.2100 H   0  0  0  0  0  0  0  0  0  0  0  0
    5.4694   -0.2379   -0.9272 H   0  0  0  0  0  0  0  0  0  0  0  0
    4.9717   -0.4156   -2.6882 H   0  0  0  0  0  0  0  0  0  0  0  0
    2.7197   -0.7360   -1.5238 H   0  0  0  0  0  0  0  0  0  0  0  0
    3.9989   -1.2243    0.8308 H   0  0  0  0  0  0  0  0  0  0  0  0
    1.6659   -2.1115    0.8505 H   0  0  0  0  0  0  0  0  0  0  0  0
    2.2502   -3.6447    0.1227 H   0  0  0  0  0  0  0  0  0  0  0  0
    5.9605   -3.2504    2.9283 H   0  0  0  0  0  0  0  0  0  0  0  0
    6.6338   -5.1886    2.9074 H   0  0  0  0  0  0  0  0  0  0  0  0
    4.1044   -6.1955    0.1637 H   0  0  0  0  0  0  0  0  0  0  0  0
    3.1396   -5.7670    1.5728 H   0  0  0  0  0  0  0  0  0  0  0  0
    3.4107   -7.4371    1.1847 H   0  0  0  0  0  0  0  0  0  0  0  0
    4.7147   -8.8943    3.0205 H   0  0  0  0  0  0  0  0  0  0  0  0
    5.6621   -8.3131    1.0980 H   0  0  0  0  0  0  0  0  0  0  0  0
  1  2  1  0
  1 30  1  0
  1 31  1  0
  1 32  1  0
  2 28  1  0
  2  3  1  0
  2 33  1  6
  3  4  1  0
  3 34  1  0
  3 35  1  0
  4  5  1  0
  4 36  1  0
  4 37  1  0
  5 29  1  0
  5  6  1  0
  5 38  1  6
  6  7  1  0
  6  8  1  0
  6 39  1  1
  7 40  1  0
  7 41  1  0
  7 42  1  0
  8 24  1  0
  8  9  1  0
  8 43  1  6
  9 10  1  0
  9 44  1  0
  9 45  1  0
 10 23  1  0
 10 11  1  0
 10 46  1  1
 11 16  1  0
 11 12  1  0
 11 47  1  6
 12 15  1  0
 12 13  1  0
 12 48  1  6
 13 14  1  0
 13 49  1  0
 13 50  1  0
 14 15  1  0
 14 16  1  0
 14 51  1  6
 16 17  1  0
 16 52  1  1
 17 18  1  0
 17 53  1  0
 17 54  1  0
 18 22  1  0
 18 19  2  0
 19 20  1  0
 20 21  2  0
 21 22  1  0
 22 23  1  0
 23 24  1  0
 23 55  1  1
 24 25  1  0
 24 56  1  1
 25 29  1  0
 25 26  1  6
 25 27  1  0
 26 57  1  0
 26 58  1  0
 26 59  1  0
 27 28  1  0
 28 29  1  0
 28 60  1  6
 29 61  1  6
M  END
>  <i_m_ct_stereo_status>  (197) 
1

>  <s_m_source_file>  (197) 
/var/tmp/pbs.5076255.sched01/tmpj5h_4zim/74m36hq9q5.sdf

>  <i_m_source_file_index>  (197) 
21

>  <i_lp_mmshare_version>  (197) 
48012

>  <i_f3d_flags>  (197) 
0

>  <s_epik_input>  (197) 
W0NIMl0xW0NIMl1bQ0BASF0oW0NIM10pW0NAQEhdKE8yKVtDQEBIXTNbQ0BIXTFbQ0BASF0oW0NIM10pW0NAQEhdKFtDQEBIXTRbQ0BdMjNbQ0gzXSlbQ0gyXVtDQEhdNVtDQEBIXTZbQ0BASF03W0NIMl1bQ0BASF0oTzcpW0NASF02W0NIMl1jOG4oW0NAQEhdNDUpbm5uOA==

>  <s_epik_cmdline>  (197) 
J2VwaWtfcHl0aG9uJywgJy1waHQnLCAnMi4wJywgJy1waCcsICc3LjAnLCAnLXRuJywgJzgnLCAnLW1hJywgJzIwMCcsICctaW1hZScsICc8aW5maWxlLm1hZT4nLCAnLW9tYWUnLCAnPG91dGZpbGUubWFlPic=

>  <r_lp_tautomer_probability>  (197) 
1

>  <r_epik_Ionization_Penalty>  (197) 
9.00886e-08

>  <r_epik_Ionization_Penalty_Charging>  (197) 
0

>  <r_epik_Ionization_Penalty_Neutral>  (197) 
9.00886e-08

>  <r_epik_State_Penalty>  (197) 
-0

>  <r_epik_Charging_Adjusted_Penalty>  (197) 
0

>  <i_epik_Tot_Q>  (197) 
0

>  <i_epik_Tot_abs_Q>  (197) 
0

>  <s_lp_Force_Field>  (197) 
OPLS3e

>  <r_lp_Energy>  (197) 
76.0386

>  <b_lp_Chiralities_Consistent>  (197) 
1

>  <s_lp_Variant>  (197) 
76:0-1

>  <s_i_glide_gridfile>  (197) 
pfpi4k_grid

>  <i_i_glide_lignum>  (197) 
21

>  <i_i_glide_rotatable_bonds>  (197) 
0

>  <r_i_docking_score>  (197) 
-2.00359

>  <r_i_glide_ligand_efficiency>  (197) 
-0.0690895

>  <r_i_glide_ligand_efficiency_sa>  (197) 
-0.212265

>  <r_i_glide_ligand_efficiency_ln>  (197) 
-0.458772

>  <r_i_glide_gscore>  (197) 
-2.00359

>  <r_i_glide_lipo>  (197) 
-0.57955

>  <r_i_glide_hbond>  (197) 
0

>  <r_i_glide_metal>  (197) 
-0

>  <r_i_glide_rewards>  (197) 
-0.70746

>  <r_i_glide_evdw>  (197) 
-14.5263

>  <r_i_glide_ecoul>  (197) 
0.0872264

>  <r_i_glide_erotb>  (197) 
0

>  <r_i_glide_esite>  (197) 
-0.00335367

>  <r_i_glide_emodel>  (197) 
-16.3424

>  <r_i_glide_energy>  (197) 
-14.4391

>  <r_i_glide_einternal>  (197) 
0

>  <r_i_glide_intrahb_reward>  (197) 
-0

>  <i_i_glide_confnum>  (197) 
1

>  <i_i_glide_posenum>  (197) 
1

>  <r_i_glide_eff_state_penalty>  (197) 
0

>  <ligand_id>  (197) 
76

>  <original_smiles>  (197) 
CC1CCC2C(C)C3CC4C5C6CC(O6)C5Cc5nnnn5C4C3C3(C)OC1C23

>  <smiles>  (197) 
[H]C([H])([H])C1([H])C([H])([H])C([H])([H])C2([H])C([H])(C([H])([H])[H])C3([H])C([H])([H])C4([H])C([H])(n5nnnc5C([H])([H])C5([H])C6([H])OC([H])(C6([H])[H])C54[H])C3([H])C3(C([H])([H])[H])OC1([H])C23[H]

$$$$
78:0:0
     RDKit          3D

 22 23  0  0  1  0  0  0  0  0999 V2000
    4.6287   -4.2306   -3.7603 C   0  0  0  0  0  0  0  0  0  0  0  0
    4.4565   -2.9574   -2.9995 C   0  0  0  0  0  0  0  0  0  0  0  0
    4.2101   -1.7848   -3.7276 N   0  0  0  0  0  0  0  0  0  0  0  0
    4.0489   -0.7317   -2.9287 C   0  0  0  0  0  0  0  0  0  0  0  0
    4.2365   -1.0898   -1.2214 S   0  0  0  0  0  0  0  0  0  0  0  0
    4.5158   -2.7644   -1.6359 C   0  0  0  0  0  0  0  0  0  0  0  0
    4.7738   -3.7423   -0.5322 C   0  0  0  0  0  0  0  0  0  0  0  0
    3.6665   -4.6514   -0.3209 N   0  0  0  0  0  0  0  0  0  0  0  0
    3.0797   -5.0981    0.8549 C   0  0  0  0  0  0  0  0  0  0  0  0
    3.4273   -4.8146    2.1108 N   0  0  0  0  0  0  0  0  0  0  0  0
    2.4787   -5.4778    2.8739 C   0  0  0  0  0  0  0  0  0  0  0  0
    1.6181   -6.0952    2.0088 C   0  0  0  0  0  0  0  0  0  0  0  0
    0.0789   -7.0706    2.5260 Br  0  0  0  0  0  0  0  0  0  0  0  0
    1.9726   -5.8734    0.7072 O   0  0  0  0  0  0  0  0  0  0  0  0
    4.9167   -5.0510   -3.1062 H   0  0  0  0  0  0  0  0  0  0  0  0
    5.4154   -4.1315   -4.4973 H   0  0  0  0  0  0  0  0  0  0  0  0
    3.7211   -4.4908   -4.3035 H   0  0  0  0  0  0  0  0  0  0  0  0
    3.8434    0.2446   -3.3456 H   0  0  0  0  0  0  0  0  0  0  0  0
    5.6848   -4.3111   -0.7123 H   0  0  0  0  0  0  0  0  0  0  0  0
    4.9154   -3.1866    0.3929 H   0  0  0  0  0  0  0  0  0  0  0  0
    2.4777   -5.4443    3.9535 H   0  0  0  0  0  0  0  0  0  0  0  0
    3.3519   -5.1280   -1.1597 H   0  0  0  0  0  0  0  0  0  0  0  0
  1  2  1  0
  1 15  1  0
  1 16  1  0
  1 17  1  0
  2  6  2  0
  2  3  1  0
  3  4  2  0
  4  5  1  0
  4 18  1  0
  5  6  1  0
  6  7  1  0
  7  8  1  0
  7 19  1  0
  7 20  1  0
  8  9  1  0
  8 22  1  0
  9 14  1  0
  9 10  2  0
 10 11  1  0
 11 12  2  0
 11 21  1  0
 12 13  1  0
 12 14  1  0
M  END
>  <i_m_ct_stereo_status>  (198) 
1

>  <s_m_source_file>  (198) 
/var/tmp/pbs.5076255.sched01/tmpj5h_4zim/74m36hq9q5.sdf

>  <i_m_source_file_index>  (198) 
23

>  <i_lp_mmshare_version>  (198) 
48012

>  <i_f3d_flags>  (198) 
0

>  <s_epik_input>  (198) 
W0NIM11jMW5bY0hdc2MxW0NIMl0vTj1jMlxbbkhdW2NIXWMoQnIpbzI=

>  <s_epik_cmdline>  (198) 
J2VwaWtfcHl0aG9uJywgJy1waHQnLCAnMi4wJywgJy1waCcsICc3LjAnLCAnLXRuJywgJzgnLCAnLW1hJywgJzIwMCcsICctaW1hZScsICc8aW5maWxlLm1hZT4nLCAnLW9tYWUnLCAnPG91dGZpbGUubWFlPic=

>  <r_epik_Ionization_Penalty>  (198) 
0.000896266

>  <r_epik_Ionization_Penalty_Charging>  (198) 
0

>  <r_epik_Ionization_Penalty_Neutral>  (198) 
0.000896266

>  <r_epik_State_Penalty>  (198) 
0.000578251

>  <r_epik_Charging_Adjusted_Penalty>  (198) 
0.000578251

>  <i_epik_Tot_Q>  (198) 
0

>  <i_epik_Tot_abs_Q>  (198) 
0

>  <s_lp_Force_Field>  (198) 
OPLS3e

>  <r_lp_Energy>  (198) 
4.32811

>  <b_lp_Chiralities_Consistent>  (198) 
1

>  <s_lp_Variant>  (198) 
78:0-1

>  <s_i_glide_gridfile>  (198) 
pfpi4k_grid

>  <i_i_glide_lignum>  (198) 
23

>  <i_i_glide_rotatable_bonds>  (198) 
3

>  <r_i_docking_score>  (198) 
-3.45282

>  <r_i_glide_ligand_efficiency>  (198) 
-0.24663

>  <r_i_glide_ligand_efficiency_sa>  (198) 
-0.594414

>  <r_i_glide_ligand_efficiency_ln>  (198) 
-0.948824

>  <r_i_glide_gscore>  (198) 
-3.45282

>  <r_i_glide_lipo>  (198) 
-0.263973

>  <r_i_glide_hbond>  (198) 
-0.337306

>  <r_i_glide_metal>  (198) 
-0

>  <r_i_glide_rewards>  (198) 
-1.53996

>  <r_i_glide_evdw>  (198) 
-23.0201

>  <r_i_glide_ecoul>  (198) 
-5.6184

>  <r_i_glide_erotb>  (198) 
0.716613

>  <r_i_glide_esite>  (198) 
-0.0344282

>  <r_i_glide_emodel>  (198) 
-33.5262

>  <r_i_glide_energy>  (198) 
-28.6385

>  <r_i_glide_einternal>  (198) 
1.85393

>  <r_i_glide_intrahb_reward>  (198) 
-0

>  <i_i_glide_confnum>  (198) 
6

>  <i_i_glide_posenum>  (198) 
34

>  <r_i_glide_eff_state_penalty>  (198) 
0

>  <ligand_id>  (198) 
78

>  <original_smiles>  (198) 
Cc1ncsc1CN=c1[nH]cc(Br)o1

>  <smiles>  (198) 
[H]c1nc(C([H])([H])[H])c(C([H])([H])N([H])c2nc([H])c(Br)o2)s1

$$$$
78:0:1
     RDKit          3D

 22 23  0  0  1  0  0  0  0  0999 V2000
    5.1891   -5.1713    0.2675 C   0  0  0  0  0  0  0  0  0  0  0  0
    6.5369   -4.4937    0.3166 C   0  0  0  0  0  0  0  0  0  0  0  0
    7.4307   -4.9684    1.2804 N   0  0  0  0  0  0  0  0  0  0  0  0
    8.6045   -4.3374    1.2722 C   0  0  0  0  0  0  0  0  0  0  0  0
    8.7017   -3.0589    0.0702 S   0  0  0  0  0  0  0  0  0  0  0  0
    7.0865   -3.4786   -0.4621 C   0  0  0  0  0  0  0  0  0  0  0  0
    6.5469   -2.7187   -1.6264 C   0  0  0  0  0  0  0  0  0  0  0  0
    5.3594   -3.2861   -2.2275 N   0  0  0  0  0  0  0  0  0  0  0  0
    4.3433   -2.6888   -2.9242 C   0  0  0  0  0  0  0  0  0  0  0  0
    3.1251   -3.1580   -3.1944 N   0  0  0  0  0  0  0  0  0  0  0  0
    2.5397   -2.1263   -3.8983 C   0  0  0  0  0  0  0  0  0  0  0  0
    3.4673   -1.1183   -4.0164 C   0  0  0  0  0  0  0  0  0  0  0  0
    3.3038    0.4540   -5.0717 Br  0  0  0  0  0  0  0  0  0  0  0  0
    4.6143   -1.4389   -3.3720 O   0  0  0  0  0  0  0  0  0  0  0  0
    4.4609   -4.7714   -0.4361 H   0  0  0  0  0  0  0  0  0  0  0  0
    4.7055   -5.1010    1.2345 H   0  0  0  0  0  0  0  0  0  0  0  0
    5.3132   -6.2211    0.0193 H   0  0  0  0  0  0  0  0  0  0  0  0
    9.3747   -4.5893    2.0001 H   0  0  0  0  0  0  0  0  0  0  0  0
    6.3076   -1.7040   -1.3117 H   0  0  0  0  0  0  0  0  0  0  0  0
    7.2998   -2.6577   -2.4105 H   0  0  0  0  0  0  0  0  0  0  0  0
    1.5336   -2.1977   -4.2956 H   0  0  0  0  0  0  0  0  0  0  0  0
    5.1106   -4.2082   -1.8992 H   0  0  0  0  0  0  0  0  0  0  0  0
  1  2  1  0
  1 15  1  0
  1 16  1  0
  1 17  1  0
  2  6  2  0
  2  3  1  0
  3  4  2  0
  4  5  1  0
  4 18  1  0
  5  6  1  0
  6  7  1  0
  7  8  1  0
  7 19  1  0
  7 20  1  0
  8  9  1  0
  8 22  1  0
  9 14  1  0
  9 10  2  0
 10 11  1  0
 11 12  2  0
 11 21  1  0
 12 13  1  0
 12 14  1  0
M  END
>  <i_m_ct_stereo_status>  (199) 
1

>  <s_m_source_file>  (199) 
/var/tmp/pbs.5076255.sched01/tmpj5h_4zim/74m36hq9q5.sdf

>  <i_m_source_file_index>  (199) 
23

>  <i_lp_mmshare_version>  (199) 
48012

>  <i_f3d_flags>  (199) 
0

>  <s_epik_input>  (199) 
W0NIM11jMW5bY0hdc2MxW0NIMl0vTj1jMlxbbkhdW2NIXWMoQnIpbzI=

>  <s_epik_cmdline>  (199) 
J2VwaWtfcHl0aG9uJywgJy1waHQnLCAnMi4wJywgJy1waCcsICc3LjAnLCAnLXRuJywgJzgnLCAnLW1hJywgJzIwMCcsICctaW1hZScsICc8aW5maWxlLm1hZT4nLCAnLW9tYWUnLCAnPG91dGZpbGUubWFlPic=

>  <r_epik_Ionization_Penalty>  (199) 
0.000896266

>  <r_epik_Ionization_Penalty_Charging>  (199) 
0

>  <r_epik_Ionization_Penalty_Neutral>  (199) 
0.000896266

>  <r_epik_State_Penalty>  (199) 
0.000578251

>  <r_epik_Charging_Adjusted_Penalty>  (199) 
0.000578251

>  <i_epik_Tot_Q>  (199) 
0

>  <i_epik_Tot_abs_Q>  (199) 
0

>  <s_lp_Force_Field>  (199) 
OPLS3e

>  <r_lp_Energy>  (199) 
4.32811

>  <b_lp_Chiralities_Consistent>  (199) 
1

>  <s_lp_Variant>  (199) 
78:0-1

>  <s_i_glide_gridfile>  (199) 
pfpi4k_grid

>  <i_i_glide_lignum>  (199) 
23

>  <i_i_glide_rotatable_bonds>  (199) 
3

>  <r_i_docking_score>  (199) 
-3.13705

>  <r_i_glide_ligand_efficiency>  (199) 
-0.224075

>  <r_i_glide_ligand_efficiency_sa>  (199) 
-0.540052

>  <r_i_glide_ligand_efficiency_ln>  (199) 
-0.862049

>  <r_i_glide_gscore>  (199) 
-3.13705

>  <r_i_glide_lipo>  (199) 
-0.863123

>  <r_i_glide_hbond>  (199) 
0

>  <r_i_glide_metal>  (199) 
-0

>  <r_i_glide_rewards>  (199) 
-1.53996

>  <r_i_glide_evdw>  (199) 
-28.0968

>  <r_i_glide_ecoul>  (199) 
-0.304867

>  <r_i_glide_erotb>  (199) 
0.716613

>  <r_i_glide_esite>  (199) 
0

>  <r_i_glide_emodel>  (199) 
-32.5759

>  <r_i_glide_energy>  (199) 
-28.4017

>  <r_i_glide_einternal>  (199) 
2.10494

>  <r_i_glide_intrahb_reward>  (199) 
-0

>  <i_i_glide_confnum>  (199) 
2

>  <i_i_glide_posenum>  (199) 
4

>  <r_i_glide_eff_state_penalty>  (199) 
0

>  <ligand_id>  (199) 
78

>  <original_smiles>  (199) 
Cc1ncsc1CN=c1[nH]cc(Br)o1

>  <smiles>  (199) 
[H]c1nc(C([H])([H])[H])c(C([H])([H])N([H])c2nc([H])c(Br)o2)s1

$$$$
78:0:2
     RDKit          3D

 22 23  0  0  1  0  0  0  0  0999 V2000
    4.6718   -7.3108    0.7078 C   0  0  0  0  0  0  0  0  0  0  0  0
    3.3031   -7.1270    1.2823 C   0  0  0  0  0  0  0  0  0  0  0  0
    2.6168   -8.2735    1.6948 N   0  0  0  0  0  0  0  0  0  0  0  0
    1.4055   -7.9956    2.1688 C   0  0  0  0  0  0  0  0  0  0  0  0
    1.0096   -6.2884    2.1441 S   0  0  0  0  0  0  0  0  0  0  0  0
    2.5829   -5.9633    1.4509 C   0  0  0  0  0  0  0  0  0  0  0  0
    2.9855   -4.5564    1.1436 C   0  0  0  0  0  0  0  0  0  0  0  0
    3.0875   -4.2593   -0.2734 N   0  0  0  0  0  0  0  0  0  0  0  0
    3.5043   -3.0921   -0.8844 C   0  0  0  0  0  0  0  0  0  0  0  0
    4.0254   -2.0083   -0.3183 N   0  0  0  0  0  0  0  0  0  0  0  0
    4.2127   -1.1397   -1.3830 C   0  0  0  0  0  0  0  0  0  0  0  0
    3.7924   -1.7852   -2.5147 C   0  0  0  0  0  0  0  0  0  0  0  0
    3.8164   -1.0408   -4.2629 Br  0  0  0  0  0  0  0  0  0  0  0  0
    3.3529   -3.0473   -2.2347 O   0  0  0  0  0  0  0  0  0  0  0  0
    5.1185   -6.3820    0.3545 H   0  0  0  0  0  0  0  0  0  0  0  0
    4.6243   -7.9994   -0.1352 H   0  0  0  0  0  0  0  0  0  0  0  0
    5.3454   -7.7508    1.4432 H   0  0  0  0  0  0  0  0  0  0  0  0
    0.7613   -8.7890    2.5211 H   0  0  0  0  0  0  0  0  0  0  0  0
    2.2478   -3.8680    1.5567 H   0  0  0  0  0  0  0  0  0  0  0  0
    3.9356   -4.3185    1.6267 H   0  0  0  0  0  0  0  0  0  0  0  0
    4.6078   -0.1480   -1.2539 H   0  0  0  0  0  0  0  0  0  0  0  0
    2.8344   -4.9983   -0.9211 H   0  0  0  0  0  0  0  0  0  0  0  0
  1  2  1  0
  1 15  1  0
  1 16  1  0
  1 17  1  0
  2  6  2  0
  2  3  1  0
  3  4  2  0
  4  5  1  0
  4 18  1  0
  5  6  1  0
  6  7  1  0
  7  8  1  0
  7 19  1  0
  7 20  1  0
  8  9  1  0
  8 22  1  0
  9 14  1  0
  9 10  2  0
 10 11  1  0
 11 12  2  0
 11 21  1  0
 12 13  1  0
 12 14  1  0
M  END
>  <i_m_ct_stereo_status>  (200) 
1

>  <s_m_source_file>  (200) 
/var/tmp/pbs.5076255.sched01/tmpj5h_4zim/74m36hq9q5.sdf

>  <i_m_source_file_index>  (200) 
23

>  <i_lp_mmshare_version>  (200) 
48012

>  <i_f3d_flags>  (200) 
0

>  <s_epik_input>  (200) 
W0NIM11jMW5bY0hdc2MxW0NIMl0vTj1jMlxbbkhdW2NIXWMoQnIpbzI=

>  <s_epik_cmdline>  (200) 
J2VwaWtfcHl0aG9uJywgJy1waHQnLCAnMi4wJywgJy1waCcsICc3LjAnLCAnLXRuJywgJzgnLCAnLW1hJywgJzIwMCcsICctaW1hZScsICc8aW5maWxlLm1hZT4nLCAnLW9tYWUnLCAnPG91dGZpbGUubWFlPic=

>  <r_epik_Ionization_Penalty>  (200) 
0.000896266

>  <r_epik_Ionization_Penalty_Charging>  (200) 
0

>  <r_epik_Ionization_Penalty_Neutral>  (200) 
0.000896266

>  <r_epik_State_Penalty>  (200) 
0.000578251

>  <r_epik_Charging_Adjusted_Penalty>  (200) 
0.000578251

>  <i_epik_Tot_Q>  (200) 
0

>  <i_epik_Tot_abs_Q>  (200) 
0

>  <s_lp_Force_Field>  (200) 
OPLS3e

>  <r_lp_Energy>  (200) 
4.32811

>  <b_lp_Chiralities_Consistent>  (200) 
1

>  <s_lp_Variant>  (200) 
78:0-1

>  <s_i_glide_gridfile>  (200) 
pfpi4k_grid

>  <i_i_glide_lignum>  (200) 
23

>  <i_i_glide_rotatable_bonds>  (200) 
3

>  <r_i_docking_score>  (200) 
-3.0722

>  <r_i_glide_ligand_efficiency>  (200) 
-0.219443

>  <r_i_glide_ligand_efficiency_sa>  (200) 
-0.528888

>  <r_i_glide_ligand_efficiency_ln>  (200) 
-0.844229

>  <r_i_glide_gscore>  (200) 
-3.0722

>  <r_i_glide_lipo>  (200) 
-0.205754

>  <r_i_glide_hbond>  (200) 
-0.32

>  <r_i_glide_metal>  (200) 
-0

>  <r_i_glide_rewards>  (200) 
-1.53996

>  <r_i_glide_evdw>  (200) 
-23.6916

>  <r_i_glide_ecoul>  (200) 
-3.36772

>  <r_i_glide_erotb>  (200) 
0.716613

>  <r_i_glide_esite>  (200) 
-0.0333583

>  <r_i_glide_emodel>  (200) 
-32.0223

>  <r_i_glide_energy>  (200) 
-27.0593

>  <r_i_glide_einternal>  (200) 
0.451105

>  <r_i_glide_intrahb_reward>  (200) 
-0

>  <i_i_glide_confnum>  (200) 
3

>  <i_i_glide_posenum>  (200) 
33

>  <r_i_glide_eff_state_penalty>  (200) 
0

>  <ligand_id>  (200) 
78

>  <original_smiles>  (200) 
Cc1ncsc1CN=c1[nH]cc(Br)o1

>  <smiles>  (200) 
[H]c1nc(C([H])([H])[H])c(C([H])([H])N([H])c2nc([H])c(Br)o2)s1

$$$$
79:0:0
     RDKit          3D

 64 68  0  0  1  0  0  0  0  0999 V2000
    3.5317   -2.8405   -0.9140 C   0  0  0  0  0  0  0  0  0  0  0  0
    4.3745   -2.4129    0.3073 C   0  0  0  0  0  0  0  0  0  0  0  0
    5.5511   -1.5349   -0.1683 C   0  0  0  0  0  0  0  0  0  0  0  0
    3.5294   -1.6802    1.3785 C   0  0  1  0  0  0  0  0  0  0  0  0
    2.6255   -0.7029    0.8873 O   0  0  0  0  0  0  0  0  0  0  0  0
    2.8584   -2.7642    2.2417 C   0  0  0  0  0  0  0  0  0  0  0  0
    3.6838   -4.0491    2.0067 C   0  0  1  0  0  0  0  0  0  0  0  0
    4.8724   -3.6191    1.1444 C   0  0  1  0  0  0  0  0  0  0  0  0
    5.4412   -4.8573    0.4361 C   0  0  0  0  0  0  0  0  0  0  0  0
    5.9239   -5.9104    1.4660 C   0  0  1  0  0  0  0  0  0  0  0  0
    7.2202   -5.5138    1.8650 O   0  0  0  0  0  0  0  0  0  0  0  0
    5.0298   -6.1177    2.7404 C   0  0  2  0  0  0  0  0  0  0  0  0
    4.1583   -7.3996    2.8087 C   0  0  2  0  0  0  0  0  0  0  0  0
    3.3638   -7.6717    1.5065 C   0  0  0  0  0  0  0  0  0  0  0  0
    1.9086   -8.0586    1.6833 C   0  0  0  0  0  0  0  0  0  0  0  0
    1.2979   -8.2720    2.8603 C   0  0  0  0  0  0  0  0  0  0  0  0
   -0.1769   -8.6474    2.9317 C   0  0  0  0  0  0  0  0  0  0  0  0
   -0.9370   -7.6359    3.7842 C   0  0  0  0  0  0  0  0  0  0  0  0
   -2.1462   -7.4528    3.6299 O   0  0  0  0  0  0  0  0  0  0  0  0
   -0.1517   -6.8560    4.8401 C   0  0  0  0  0  0  0  0  0  0  0  0
    1.0663   -7.6663    5.3239 C   0  0  0  0  0  0  0  0  0  0  0  0
    2.0395   -8.1307    4.1909 C   0  0  1  0  0  0  0  0  0  0  0  0
    2.5288   -9.5586    4.5531 C   0  0  0  0  0  0  0  0  0  0  0  0
    3.2527   -7.1388    4.0349 C   0  0  1  0  0  0  0  0  0  0  0  0
    4.0412   -7.2406    5.2081 O   0  0  0  0  0  0  0  0  0  0  0  0
    2.9010   -5.6388    3.8653 C   0  0  0  0  0  0  0  0  0  0  0  0
    4.1239   -4.9297    3.2182 C   0  0  2  0  0  0  0  0  0  0  0  0
    4.8753   -4.1040    4.2948 C   0  0  0  0  0  0  0  0  0  0  0  0
    3.1399   -1.9706   -1.4440 H   0  0  0  0  0  0  0  0  0  0  0  0
    2.6805   -3.4609   -0.6360 H   0  0  0  0  0  0  0  0  0  0  0  0
    4.1292   -3.4012   -1.6329 H   0  0  0  0  0  0  0  0  0  0  0  0
    6.1717   -1.2016    0.6654 H   0  0  0  0  0  0  0  0  0  0  0  0
    5.1883   -0.6406   -0.6764 H   0  0  0  0  0  0  0  0  0  0  0  0
    6.1956   -2.0750   -0.8627 H   0  0  0  0  0  0  0  0  0  0  0  0
    4.2208   -1.1539    2.0377 H   0  0  0  0  0  0  0  0  0  0  0  0
    2.0056   -1.0575    0.2409 H   0  0  0  0  0  0  0  0  0  0  0  0
    2.8101   -2.4575    3.2843 H   0  0  0  0  0  0  0  0  0  0  0  0
    1.8344   -2.9309    1.9188 H   0  0  0  0  0  0  0  0  0  0  0  0
    3.0455   -4.6678    1.3733 H   0  0  0  0  0  0  0  0  0  0  0  0
    5.6596   -3.2249    1.7883 H   0  0  0  0  0  0  0  0  0  0  0  0
    4.6719   -5.3004   -0.1959 H   0  0  0  0  0  0  0  0  0  0  0  0
    6.2557   -4.5786   -0.2336 H   0  0  0  0  0  0  0  0  0  0  0  0
    6.0517   -6.8652    0.9548 H   0  0  0  0  0  0  0  0  0  0  0  0
    7.6024   -6.2190    2.3676 H   0  0  0  0  0  0  0  0  0  0  0  0
    5.7464   -6.2924    3.5456 H   0  0  0  0  0  0  0  0  0  0  0  0
    4.7960   -8.2675    2.9946 H   0  0  0  0  0  0  0  0  0  0  0  0
    3.3682   -6.8040    0.8548 H   0  0  0  0  0  0  0  0  0  0  0  0
    3.8575   -8.4695    0.9511 H   0  0  0  0  0  0  0  0  0  0  0  0
    1.3438   -8.1861    0.7712 H   0  0  0  0  0  0  0  0  0  0  0  0
   -0.6077   -8.6633    1.9293 H   0  0  0  0  0  0  0  0  0  0  0  0
   -0.2967   -9.6438    3.3598 H   0  0  0  0  0  0  0  0  0  0  0  0
    0.1594   -5.8963    4.4288 H   0  0  0  0  0  0  0  0  0  0  0  0
   -0.8088   -6.6298    5.6784 H   0  0  0  0  0  0  0  0  0  0  0  0
    1.5998   -7.1088    6.0960 H   0  0  0  0  0  0  0  0  0  0  0  0
    0.6667   -8.5404    5.8431 H   0  0  0  0  0  0  0  0  0  0  0  0
    2.9934   -9.6061    5.5374 H   0  0  0  0  0  0  0  0  0  0  0  0
    3.2353   -9.9397    3.8166 H   0  0  0  0  0  0  0  0  0  0  0  0
    1.6923  -10.2621    4.5729 H   0  0  0  0  0  0  0  0  0  0  0  0
    4.2903   -8.1469    5.3117 H   0  0  0  0  0  0  0  0  0  0  0  0
    2.0489   -5.5514    3.1943 H   0  0  0  0  0  0  0  0  0  0  0  0
    2.5997   -5.1812    4.8066 H   0  0  0  0  0  0  0  0  0  0  0  0
    5.1270   -4.7161    5.1639 H   0  0  0  0  0  0  0  0  0  0  0  0
    4.2970   -3.2579    4.6623 H   0  0  0  0  0  0  0  0  0  0  0  0
    5.8127   -3.7107    3.9042 H   0  0  0  0  0  0  0  0  0  0  0  0
  1  2  1  0
  1 29  1  0
  1 30  1  0
  1 31  1  0
  2  8  1  0
  2  3  1  0
  2  4  1  0
  3 32  1  0
  3 33  1  0
  3 34  1  0
  4  5  1  0
  4  6  1  0
  4 35  1  1
  5 36  1  0
  6  7  1  0
  6 37  1  0
  6 38  1  0
  7 27  1  0
  7  8  1  0
  7 39  1  6
  8  9  1  0
  8 40  1  1
  9 10  1  0
  9 41  1  0
  9 42  1  0
 10 11  1  0
 10 12  1  0
 10 43  1  6
 11 44  1  0
 12 27  1  0
 12 13  1  0
 12 45  1  1
 13 24  1  0
 13 14  1  0
 13 46  1  1
 14 15  1  0
 14 47  1  0
 14 48  1  0
 15 16  2  0
 15 49  1  0
 16 22  1  0
 16 17  1  0
 17 18  1  0
 17 50  1  0
 17 51  1  0
 18 19  2  0
 18 20  1  0
 20 21  1  0
 20 52  1  0
 20 53  1  0
 21 22  1  0
 21 54  1  0
 21 55  1  0
 22 23  1  1
 22 24  1  0
 23 56  1  0
 23 57  1  0
 23 58  1  0
 24 25  1  1
 24 26  1  0
 25 59  1  0
 26 27  1  0
 26 60  1  0
 26 61  1  0
 27 28  1  1
 28 62  1  0
 28 63  1  0
 28 64  1  0
M  END
>  <i_m_ct_stereo_status>  (201) 
1

>  <s_m_source_file>  (201) 
/var/tmp/pbs.5076255.sched01/tmpj5h_4zim/74m36hq9q5.sdf

>  <i_m_source_file_index>  (201) 
24

>  <i_lp_mmshare_version>  (201) 
48012

>  <i_f3d_flags>  (201) 
0

>  <s_epik_input>  (201) 
W09IXVtDQEBIXShbQ0gyXTEpQyhbQ0gzXSkoW0NIM10pW0NASF0oW0NIMl1bQ0BIXTJbT0hdKVtDQEhdMVtDQEBdKFtDSDNdKShbQ0gyXVtDQF0zNFtPSF0pW0NASF0yW0NAQEhdM1tDSDJdW0NIXT1DKFtDQEBdNDVbQ0gzXSlbQ0gyXUMoPU8pW0NIMl1bQ0gyXTU=

>  <s_epik_cmdline>  (201) 
J2VwaWtfcHl0aG9uJywgJy1waHQnLCAnMi4wJywgJy1waCcsICc3LjAnLCAnLXRuJywgJzgnLCAnLW1hJywgJzIwMCcsICctaW1hZScsICc8aW5maWxlLm1hZT4nLCAnLW9tYWUnLCAnPG91dGZpbGUubWFlPic=

>  <r_lp_tautomer_probability>  (201) 
1

>  <r_epik_Ionization_Penalty>  (201) 
4.05e-06

>  <r_epik_Ionization_Penalty_Charging>  (201) 
0

>  <r_epik_Ionization_Penalty_Neutral>  (201) 
4.05e-06

>  <r_epik_State_Penalty>  (201) 
-0

>  <r_epik_Charging_Adjusted_Penalty>  (201) 
0

>  <i_epik_Tot_Q>  (201) 
0

>  <i_epik_Tot_abs_Q>  (201) 
0

>  <s_lp_Force_Field>  (201) 
OPLS3e

>  <r_lp_Energy>  (201) 
56.3215

>  <b_lp_Chiralities_Consistent>  (201) 
1

>  <s_lp_Variant>  (201) 
79:0-1

>  <s_i_glide_gridfile>  (201) 
pfpi4k_grid

>  <i_i_glide_lignum>  (201) 
24

>  <i_i_glide_rotatable_bonds>  (201) 
3

>  <r_i_docking_score>  (201) 
-3.49603

>  <r_i_glide_ligand_efficiency>  (201) 
-0.124858

>  <r_i_glide_ligand_efficiency_sa>  (201) 
-0.379143

>  <r_i_glide_ligand_efficiency_ln>  (201) 
-0.806985

>  <r_i_glide_gscore>  (201) 
-3.49603

>  <r_i_glide_lipo>  (201) 
-0.23919

>  <r_i_glide_hbond>  (201) 
-0.16

>  <r_i_glide_metal>  (201) 
-0

>  <r_i_glide_rewards>  (201) 
-0.759953

>  <r_i_glide_evdw>  (201) 
-26.6293

>  <r_i_glide_ecoul>  (201) 
-6.2817

>  <r_i_glide_erotb>  (201) 
0

>  <r_i_glide_esite>  (201) 
-0.0631642

>  <r_i_glide_emodel>  (201) 
-40.125

>  <r_i_glide_energy>  (201) 
-32.911

>  <r_i_glide_einternal>  (201) 
0.390056

>  <r_i_glide_intrahb_reward>  (201) 
-0

>  <i_i_glide_confnum>  (201) 
1

>  <i_i_glide_posenum>  (201) 
39

>  <r_i_glide_eff_state_penalty>  (201) 
0

>  <ligand_id>  (201) 
79

>  <original_smiles>  (201) 
CC1(C)C(O)CC2C1CC(O)C1C3CC=C4CC(=O)CCC4(C)C3(O)CC21C

>  <smiles>  (201) 
[H]OC1([H])C([H])([H])C2([H])C([H])(C([H])([H])C([H])(O[H])C2(C([H])([H])[H])C([H])([H])[H])C2(C([H])([H])[H])C([H])([H])C3(O[H])C([H])(C([H])([H])C([H])=C4C([H])([H])C(=O)C([H])([H])C([H])([H])C43C([H])([H])[H])C12[H]

$$$$
79:0:1
     RDKit          3D

 64 68  0  0  1  0  0  0  0  0999 V2000
    3.5190   -2.8498   -0.9305 C   0  0  0  0  0  0  0  0  0  0  0  0
    4.3656   -2.4196    0.2869 C   0  0  0  0  0  0  0  0  0  0  0  0
    5.5420   -1.5453   -0.1940 C   0  0  0  0  0  0  0  0  0  0  0  0
    3.5262   -1.6882    1.3637 C   0  0  1  0  0  0  0  0  0  0  0  0
    2.6166   -0.7105    0.8946 O   0  0  0  0  0  0  0  0  0  0  0  0
    2.8581   -2.7694    2.2322 C   0  0  0  0  0  0  0  0  0  0  0  0
    3.6812   -4.0526    1.9937 C   0  0  1  0  0  0  0  0  0  0  0  0
    4.8655   -3.6222    1.1230 C   0  0  1  0  0  0  0  0  0  0  0  0
    5.4294   -4.8641    0.4166 C   0  0  0  0  0  0  0  0  0  0  0  0
    5.9207   -5.9116    1.4469 C   0  0  1  0  0  0  0  0  0  0  0  0
    7.2236   -5.5232    1.8320 O   0  0  0  0  0  0  0  0  0  0  0  0
    5.0327   -6.1200    2.7251 C   0  0  2  0  0  0  0  0  0  0  0  0
    4.1581   -7.3995    2.7990 C   0  0  2  0  0  0  0  0  0  0  0  0
    3.3590   -7.6761    1.5013 C   0  0  0  0  0  0  0  0  0  0  0  0
    1.9005   -8.0607    1.6849 C   0  0  0  0  0  0  0  0  0  0  0  0
    1.2931   -8.2730    2.8629 C   0  0  0  0  0  0  0  0  0  0  0  0
   -0.1801   -8.6453    2.9421 C   0  0  0  0  0  0  0  0  0  0  0  0
   -0.9390   -7.6294    3.7933 C   0  0  0  0  0  0  0  0  0  0  0  0
   -2.1417   -7.4483    3.6411 O   0  0  0  0  0  0  0  0  0  0  0  0
   -0.1460   -6.8491    4.8443 C   0  0  0  0  0  0  0  0  0  0  0  0
    1.0693   -7.6573    5.3260 C   0  0  0  0  0  0  0  0  0  0  0  0
    2.0385   -8.1287    4.1914 C   0  0  1  0  0  0  0  0  0  0  0  0
    2.5293   -9.5535    4.5555 C   0  0  0  0  0  0  0  0  0  0  0  0
    3.2551   -7.1381    4.0298 C   0  0  1  0  0  0  0  0  0  0  0  0
    4.0455   -7.2362    5.2033 O   0  0  0  0  0  0  0  0  0  0  0  0
    2.9041   -5.6401    3.8575 C   0  0  0  0  0  0  0  0  0  0  0  0
    4.1269   -4.9323    3.2048 C   0  0  2  0  0  0  0  0  0  0  0  0
    4.8785   -4.1052    4.2772 C   0  0  0  0  0  0  0  0  0  0  0  0
    3.1267   -1.9819   -1.4613 H   0  0  0  0  0  0  0  0  0  0  0  0
    2.6703   -3.4711   -0.6489 H   0  0  0  0  0  0  0  0  0  0  0  0
    4.1164   -3.4126   -1.6472 H   0  0  0  0  0  0  0  0  0  0  0  0
    6.1679   -1.2117    0.6359 H   0  0  0  0  0  0  0  0  0  0  0  0
    5.1823   -0.6522   -0.7045 H   0  0  0  0  0  0  0  0  0  0  0  0
    6.1825   -2.0894   -0.8872 H   0  0  0  0  0  0  0  0  0  0  0  0
    4.2178   -1.1584    2.0197 H   0  0  0  0  0  0  0  0  0  0  0  0
    1.9985   -1.0552    0.2388 H   0  0  0  0  0  0  0  0  0  0  0  0
    2.8144   -2.4618    3.2748 H   0  0  0  0  0  0  0  0  0  0  0  0
    1.8321   -2.9391    1.9123 H   0  0  0  0  0  0  0  0  0  0  0  0
    3.0433   -4.6734    1.3636 H   0  0  0  0  0  0  0  0  0  0  0  0
    5.6533   -3.2261    1.7643 H   0  0  0  0  0  0  0  0  0  0  0  0
    4.6596   -5.3108   -0.2132 H   0  0  0  0  0  0  0  0  0  0  0  0
    6.2406   -4.5902   -0.2605 H   0  0  0  0  0  0  0  0  0  0  0  0
    6.0480   -6.8696    0.9420 H   0  0  0  0  0  0  0  0  0  0  0  0
    7.1679   -4.7231    2.3314 H   0  0  0  0  0  0  0  0  0  0  0  0
    5.7530   -6.2980    3.5258 H   0  0  0  0  0  0  0  0  0  0  0  0
    4.7924   -8.2680    2.9866 H   0  0  0  0  0  0  0  0  0  0  0  0
    3.3602   -6.8101    0.8480 H   0  0  0  0  0  0  0  0  0  0  0  0
    3.8487   -8.4773    0.9458 H   0  0  0  0  0  0  0  0  0  0  0  0
    1.3348   -8.1900    0.7773 H   0  0  0  0  0  0  0  0  0  0  0  0
   -0.6128   -8.6644    1.9427 H   0  0  0  0  0  0  0  0  0  0  0  0
   -0.2988   -9.6388    3.3711 H   0  0  0  0  0  0  0  0  0  0  0  0
    0.1650   -5.8915    4.4297 H   0  0  0  0  0  0  0  0  0  0  0  0
   -0.7996   -6.6207    5.6845 H   0  0  0  0  0  0  0  0  0  0  0  0
    1.6084   -7.1013    6.0956 H   0  0  0  0  0  0  0  0  0  0  0  0
    0.6743   -8.5312    5.8496 H   0  0  0  0  0  0  0  0  0  0  0  0
    2.9981   -9.6007    5.5385 H   0  0  0  0  0  0  0  0  0  0  0  0
    3.2345   -9.9390    3.8192 H   0  0  0  0  0  0  0  0  0  0  0  0
    1.6937  -10.2574    4.5808 H   0  0  0  0  0  0  0  0  0  0  0  0
    4.2908   -8.1430    5.3088 H   0  0  0  0  0  0  0  0  0  0  0  0
    2.0487   -5.5508    3.1894 H   0  0  0  0  0  0  0  0  0  0  0  0
    2.6062   -5.1766    4.7987 H   0  0  0  0  0  0  0  0  0  0  0  0
    5.1352   -4.7146    5.1461 H   0  0  0  0  0  0  0  0  0  0  0  0
    4.3027   -3.2591    4.6464 H   0  0  0  0  0  0  0  0  0  0  0  0
    5.8121   -3.7069    3.8846 H   0  0  0  0  0  0  0  0  0  0  0  0
  1  2  1  0
  1 29  1  0
  1 30  1  0
  1 31  1  0
  2  8  1  0
  2  3  1  0
  2  4  1  0
  3 32  1  0
  3 33  1  0
  3 34  1  0
  4  5  1  0
  4  6  1  0
  4 35  1  1
  5 36  1  0
  6  7  1  0
  6 37  1  0
  6 38  1  0
  7 27  1  0
  7  8  1  0
  7 39  1  6
  8  9  1  0
  8 40  1  1
  9 10  1  0
  9 41  1  0
  9 42  1  0
 10 11  1  0
 10 12  1  0
 10 43  1  6
 11 44  1  0
 12 27  1  0
 12 13  1  0
 12 45  1  1
 13 24  1  0
 13 14  1  0
 13 46  1  1
 14 15  1  0
 14 47  1  0
 14 48  1  0
 15 16  2  0
 15 49  1  0
 16 22  1  0
 16 17  1  0
 17 18  1  0
 17 50  1  0
 17 51  1  0
 18 19  2  0
 18 20  1  0
 20 21  1  0
 20 52  1  0
 20 53  1  0
 21 22  1  0
 21 54  1  0
 21 55  1  0
 22 23  1  1
 22 24  1  0
 23 56  1  0
 23 57  1  0
 23 58  1  0
 24 25  1  1
 24 26  1  0
 25 59  1  0
 26 27  1  0
 26 60  1  0
 26 61  1  0
 27 28  1  1
 28 62  1  0
 28 63  1  0
 28 64  1  0
M  END
>  <i_m_ct_stereo_status>  (202) 
1

>  <s_m_source_file>  (202) 
/var/tmp/pbs.5076255.sched01/tmpj5h_4zim/74m36hq9q5.sdf

>  <i_m_source_file_index>  (202) 
24

>  <i_lp_mmshare_version>  (202) 
48012

>  <i_f3d_flags>  (202) 
0

>  <s_epik_input>  (202) 
W09IXVtDQEBIXShbQ0gyXTEpQyhbQ0gzXSkoW0NIM10pW0NASF0oW0NIMl1bQ0BIXTJbT0hdKVtDQEhdMVtDQEBdKFtDSDNdKShbQ0gyXVtDQF0zNFtPSF0pW0NASF0yW0NAQEhdM1tDSDJdW0NIXT1DKFtDQEBdNDVbQ0gzXSlbQ0gyXUMoPU8pW0NIMl1bQ0gyXTU=

>  <s_epik_cmdline>  (202) 
J2VwaWtfcHl0aG9uJywgJy1waHQnLCAnMi4wJywgJy1waCcsICc3LjAnLCAnLXRuJywgJzgnLCAnLW1hJywgJzIwMCcsICctaW1hZScsICc8aW5maWxlLm1hZT4nLCAnLW9tYWUnLCAnPG91dGZpbGUubWFlPic=

>  <r_lp_tautomer_probability>  (202) 
1

>  <r_epik_Ionization_Penalty>  (202) 
4.05e-06

>  <r_epik_Ionization_Penalty_Charging>  (202) 
0

>  <r_epik_Ionization_Penalty_Neutral>  (202) 
4.05e-06

>  <r_epik_State_Penalty>  (202) 
-0

>  <r_epik_Charging_Adjusted_Penalty>  (202) 
0

>  <i_epik_Tot_Q>  (202) 
0

>  <i_epik_Tot_abs_Q>  (202) 
0

>  <s_lp_Force_Field>  (202) 
OPLS3e

>  <r_lp_Energy>  (202) 
56.3215

>  <b_lp_Chiralities_Consistent>  (202) 
1

>  <s_lp_Variant>  (202) 
79:0-1

>  <s_i_glide_gridfile>  (202) 
pfpi4k_grid

>  <i_i_glide_lignum>  (202) 
24

>  <i_i_glide_rotatable_bonds>  (202) 
3

>  <r_i_docking_score>  (202) 
-3.45894

>  <r_i_glide_ligand_efficiency>  (202) 
-0.123534

>  <r_i_glide_ligand_efficiency_sa>  (202) 
-0.375121

>  <r_i_glide_ligand_efficiency_ln>  (202) 
-0.798425

>  <r_i_glide_gscore>  (202) 
-3.45894

>  <r_i_glide_lipo>  (202) 
-0.240763

>  <r_i_glide_hbond>  (202) 
-0.16

>  <r_i_glide_metal>  (202) 
-0

>  <r_i_glide_rewards>  (202) 
-0.759953

>  <r_i_glide_evdw>  (202) 
-26.6575

>  <r_i_glide_ecoul>  (202) 
-6.01512

>  <r_i_glide_erotb>  (202) 
0

>  <r_i_glide_esite>  (202) 
-0.0630809

>  <r_i_glide_emodel>  (202) 
-39.976

>  <r_i_glide_energy>  (202) 
-32.6726

>  <r_i_glide_einternal>  (202) 
0.0513866

>  <r_i_glide_intrahb_reward>  (202) 
-0

>  <i_i_glide_confnum>  (202) 
1

>  <i_i_glide_posenum>  (202) 
7

>  <r_i_glide_eff_state_penalty>  (202) 
0

>  <ligand_id>  (202) 
79

>  <original_smiles>  (202) 
CC1(C)C(O)CC2C1CC(O)C1C3CC=C4CC(=O)CCC4(C)C3(O)CC21C

>  <smiles>  (202) 
[H]OC1([H])C([H])([H])C2([H])C([H])(C([H])([H])C([H])(O[H])C2(C([H])([H])[H])C([H])([H])[H])C2(C([H])([H])[H])C([H])([H])C3(O[H])C([H])(C([H])([H])C([H])=C4C([H])([H])C(=O)C([H])([H])C([H])([H])C43C([H])([H])[H])C12[H]

$$$$
79:0:2
     RDKit          3D

 64 68  0  0  1  0  0  0  0  0999 V2000
    2.3022   -3.2241   -3.0265 C   0  0  0  0  0  0  0  0  0  0  0  0
    3.8206   -2.9818   -2.9203 C   0  0  0  0  0  0  0  0  0  0  0  0
    4.6170   -3.8611   -3.8875 C   0  0  0  0  0  0  0  0  0  0  0  0
    4.1794   -1.5171   -3.2074 C   0  0  1  0  0  0  0  0  0  0  0  0
    3.4781   -0.9467   -4.3089 O   0  0  0  0  0  0  0  0  0  0  0  0
    3.9246   -0.7719   -1.9098 C   0  0  0  0  0  0  0  0  0  0  0  0
    3.9662   -1.8102   -0.7655 C   0  0  1  0  0  0  0  0  0  0  0  0
    4.3667   -3.0912   -1.4711 C   0  0  1  0  0  0  0  0  0  0  0  0
    3.9625   -4.2703   -0.5912 C   0  0  0  0  0  0  0  0  0  0  0  0
    4.6537   -4.2238    0.7907 C   0  0  1  0  0  0  0  0  0  0  0  0
    5.9490   -4.7668    0.5800 O   0  0  0  0  0  0  0  0  0  0  0  0
    4.7838   -2.8266    1.4686 C   0  0  2  0  0  0  0  0  0  0  0  0
    3.8438   -2.5037    2.6589 C   0  0  2  0  0  0  0  0  0  0  0  0
    2.3708   -2.8712    2.3812 C   0  0  0  0  0  0  0  0  0  0  0  0
    1.3376   -1.8340    2.7852 C   0  0  0  0  0  0  0  0  0  0  0  0
    1.6062   -0.6842    3.4254 C   0  0  0  0  0  0  0  0  0  0  0  0
    0.4779    0.3005    3.7539 C   0  0  0  0  0  0  0  0  0  0  0  0
    0.7961    1.6570    3.1381 C   0  0  0  0  0  0  0  0  0  0  0  0
   -0.1266    2.4640    2.9435 O   0  0  0  0  0  0  0  0  0  0  0  0
    2.2437    2.0126    2.8608 C   0  0  0  0  0  0  0  0  0  0  0  0
    3.1782    1.2573    3.8336 C   0  0  0  0  0  0  0  0  0  0  0  0
    3.0035   -0.2919    3.8223 C   0  0  1  0  0  0  0  0  0  0  0  0
    3.1831   -0.7893    5.2849 C   0  0  0  0  0  0  0  0  0  0  0  0
    4.0640   -0.9853    2.8804 C   0  0  1  0  0  0  0  0  0  0  0  0
    5.3572   -0.7734    3.4261 O   0  0  0  0  0  0  0  0  0  0  0  0
    4.1323   -0.4578    1.4225 C   0  0  0  0  0  0  0  0  0  0  0  0
    4.7883   -1.5658    0.5454 C   0  0  2  0  0  0  0  0  0  0  0  0
    6.2488   -1.1818    0.2386 C   0  0  0  0  0  0  0  0  0  0  0  0
    1.9377   -3.0544   -4.0393 H   0  0  0  0  0  0  0  0  0  0  0  0
    1.7162   -2.5759   -2.3801 H   0  0  0  0  0  0  0  0  0  0  0  0
    1.9975   -4.2414   -2.7885 H   0  0  0  0  0  0  0  0  0  0  0  0
    5.6776   -3.6402   -3.8591 H   0  0  0  0  0  0  0  0  0  0  0  0
    4.2700   -3.7367   -4.9064 H   0  0  0  0  0  0  0  0  0  0  0  0
    4.5422   -4.9195   -3.6542 H   0  0  0  0  0  0  0  0  0  0  0  0
    5.2285   -1.4403   -3.4031 H   0  0  0  0  0  0  0  0  0  0  0  0
    2.5747   -0.8977   -4.0953 H   0  0  0  0  0  0  0  0  0  0  0  0
    4.6076    0.0713   -1.7729 H   0  0  0  0  0  0  0  0  0  0  0  0
    2.9046   -0.4063   -2.0083 H   0  0  0  0  0  0  0  0  0  0  0  0
    2.9237   -1.9221   -0.4604 H   0  0  0  0  0  0  0  0  0  0  0  0
    5.4509   -3.1200   -1.5659 H   0  0  0  0  0  0  0  0  0  0  0  0
    2.8806   -4.2799   -0.4643 H   0  0  0  0  0  0  0  0  0  0  0  0
    4.2242   -5.1939   -1.0930 H   0  0  0  0  0  0  0  0  0  0  0  0
    4.1450   -4.9169    1.4636 H   0  0  0  0  0  0  0  0  0  0  0  0
    5.8543   -5.6554    0.3300 H   0  0  0  0  0  0  0  0  0  0  0  0
    5.7562   -2.8676    1.9589 H   0  0  0  0  0  0  0  0  0  0  0  0
    4.1619   -3.0589    3.5422 H   0  0  0  0  0  0  0  0  0  0  0  0
    2.2008   -3.0522    1.3235 H   0  0  0  0  0  0  0  0  0  0  0  0
    2.1191   -3.7997    2.8975 H   0  0  0  0  0  0  0  0  0  0  0  0
    0.3270   -2.0755    2.5327 H   0  0  0  0  0  0  0  0  0  0  0  0
   -0.4624   -0.0582    3.3656 H   0  0  0  0  0  0  0  0  0  0  0  0
    0.3868    0.4086    4.8297 H   0  0  0  0  0  0  0  0  0  0  0  0
    2.4901    1.7822    1.8241 H   0  0  0  0  0  0  0  0  0  0  0  0
    2.3865    3.0867    2.9736 H   0  0  0  0  0  0  0  0  0  0  0  0
    4.2161    1.5310    3.6684 H   0  0  0  0  0  0  0  0  0  0  0  0
    2.9675    1.6422    4.8316 H   0  0  0  0  0  0  0  0  0  0  0  0
    4.1359   -0.4907    5.7143 H   0  0  0  0  0  0  0  0  0  0  0  0
    3.0967   -1.8729    5.3547 H   0  0  0  0  0  0  0  0  0  0  0  0
    2.3985   -0.3719    5.9250 H   0  0  0  0  0  0  0  0  0  0  0  0
    5.9728   -1.1728    2.8656 H   0  0  0  0  0  0  0  0  0  0  0  0
    3.1204   -0.2805    1.0572 H   0  0  0  0  0  0  0  0  0  0  0  0
    4.6470    0.4973    1.3481 H   0  0  0  0  0  0  0  0  0  0  0  0
    6.8142   -0.9495    1.1423 H   0  0  0  0  0  0  0  0  0  0  0  0
    6.2714   -0.2914   -0.3750 H   0  0  0  0  0  0  0  0  0  0  0  0
    6.7894   -1.9857   -0.2656 H   0  0  0  0  0  0  0  0  0  0  0  0
  1  2  1  0
  1 29  1  0
  1 30  1  0
  1 31  1  0
  2  8  1  0
  2  3  1  0
  2  4  1  0
  3 32  1  0
  3 33  1  0
  3 34  1  0
  4  5  1  0
  4  6  1  0
  4 35  1  6
  5 36  1  0
  6  7  1  0
  6 37  1  0
  6 38  1  0
  7 27  1  0
  7  8  1  0
  7 39  1  1
  8  9  1  0
  8 40  1  6
  9 10  1  0
  9 41  1  0
  9 42  1  0
 10 11  1  0
 10 12  1  0
 10 43  1  1
 11 44  1  0
 12 27  1  0
 12 13  1  0
 12 45  1  1
 13 24  1  0
 13 14  1  0
 13 46  1  1
 14 15  1  0
 14 47  1  0
 14 48  1  0
 15 16  2  0
 15 49  1  0
 16 22  1  0
 16 17  1  0
 17 18  1  0
 17 50  1  0
 17 51  1  0
 18 19  2  0
 18 20  1  0
 20 21  1  0
 20 52  1  0
 20 53  1  0
 21 22  1  0
 21 54  1  0
 21 55  1  0
 22 23  1  1
 22 24  1  0
 23 56  1  0
 23 57  1  0
 23 58  1  0
 24 25  1  1
 24 26  1  0
 25 59  1  0
 26 27  1  0
 26 60  1  0
 26 61  1  0
 27 28  1  6
 28 62  1  0
 28 63  1  0
 28 64  1  0
M  END
>  <i_m_ct_stereo_status>  (203) 
1

>  <s_m_source_file>  (203) 
/var/tmp/pbs.5076255.sched01/tmpj5h_4zim/74m36hq9q5.sdf

>  <i_m_source_file_index>  (203) 
24

>  <i_lp_mmshare_version>  (203) 
48012

>  <i_f3d_flags>  (203) 
0

>  <s_epik_input>  (203) 
W09IXVtDQEBIXShbQ0gyXTEpQyhbQ0gzXSkoW0NIM10pW0NASF0oW0NIMl1bQ0BIXTJbT0hdKVtDQEhdMVtDQEBdKFtDSDNdKShbQ0gyXVtDQF0zNFtPSF0pW0NASF0yW0NAQEhdM1tDSDJdW0NIXT1DKFtDQEBdNDVbQ0gzXSlbQ0gyXUMoPU8pW0NIMl1bQ0gyXTU=

>  <s_epik_cmdline>  (203) 
J2VwaWtfcHl0aG9uJywgJy1waHQnLCAnMi4wJywgJy1waCcsICc3LjAnLCAnLXRuJywgJzgnLCAnLW1hJywgJzIwMCcsICctaW1hZScsICc8aW5maWxlLm1hZT4nLCAnLW9tYWUnLCAnPG91dGZpbGUubWFlPic=

>  <r_lp_tautomer_probability>  (203) 
1

>  <r_epik_Ionization_Penalty>  (203) 
4.05e-06

>  <r_epik_Ionization_Penalty_Charging>  (203) 
0

>  <r_epik_Ionization_Penalty_Neutral>  (203) 
4.05e-06

>  <r_epik_State_Penalty>  (203) 
-0

>  <r_epik_Charging_Adjusted_Penalty>  (203) 
0

>  <i_epik_Tot_Q>  (203) 
0

>  <i_epik_Tot_abs_Q>  (203) 
0

>  <s_lp_Force_Field>  (203) 
OPLS3e

>  <r_lp_Energy>  (203) 
56.3215

>  <b_lp_Chiralities_Consistent>  (203) 
1

>  <s_lp_Variant>  (203) 
79:0-1

>  <s_i_glide_gridfile>  (203) 
pfpi4k_grid

>  <i_i_glide_lignum>  (203) 
24

>  <i_i_glide_rotatable_bonds>  (203) 
3

>  <r_i_docking_score>  (203) 
-3.28647

>  <r_i_glide_ligand_efficiency>  (203) 
-0.117374

>  <r_i_glide_ligand_efficiency_sa>  (203) 
-0.356417

>  <r_i_glide_ligand_efficiency_ln>  (203) 
-0.758614

>  <r_i_glide_gscore>  (203) 
-3.28647

>  <r_i_glide_lipo>  (203) 
-0.516892

>  <r_i_glide_hbond>  (203) 
0

>  <r_i_glide_metal>  (203) 
-0

>  <r_i_glide_rewards>  (203) 
-0.759953

>  <r_i_glide_evdw>  (203) 
-28.4782

>  <r_i_glide_ecoul>  (203) 
-3.67947

>  <r_i_glide_erotb>  (203) 
0

>  <r_i_glide_esite>  (203) 
-0.0337952

>  <r_i_glide_emodel>  (203) 
-38.7677

>  <r_i_glide_energy>  (203) 
-32.1577

>  <r_i_glide_einternal>  (203) 
0.376761

>  <r_i_glide_intrahb_reward>  (203) 
-0

>  <i_i_glide_confnum>  (203) 
1

>  <i_i_glide_posenum>  (203) 
8

>  <r_i_glide_eff_state_penalty>  (203) 
0

>  <ligand_id>  (203) 
79

>  <original_smiles>  (203) 
CC1(C)C(O)CC2C1CC(O)C1C3CC=C4CC(=O)CCC4(C)C3(O)CC21C

>  <smiles>  (203) 
[H]OC1([H])C([H])([H])C2([H])C([H])(C([H])([H])C([H])(O[H])C2(C([H])([H])[H])C([H])([H])[H])C2(C([H])([H])[H])C([H])([H])C3(O[H])C([H])(C([H])([H])C([H])=C4C([H])([H])C(=O)C([H])([H])C([H])([H])C43C([H])([H])[H])C12[H]

$$$$
80:0:0
     RDKit          3D

 65 70  0  0  1  0  0  0  0  0999 V2000
    3.0493   -8.3418    3.0541 C   0  0  0  0  0  0  0  0  0  0  0  0
    2.7443   -6.8451    2.8205 C   0  0  1  0  0  0  0  0  0  0  0  0
    1.4970   -6.7567    1.8799 C   0  0  0  0  0  0  0  0  0  0  0  0
    1.4564   -6.1317    0.8242 O   0  0  0  0  0  0  0  0  0  0  0  0
    0.2209   -7.4684    2.3442 C   0  0  0  0  0  0  0  0  0  0  0  0
   -0.1292   -6.9799    3.7424 C   0  0  0  0  0  0  0  0  0  0  0  0
   -1.2861   -6.6910    4.0563 O   0  0  0  0  0  0  0  0  0  0  0  0
    1.0040   -6.8958    4.7614 C   0  0  0  0  0  0  0  0  0  0  0  0
    2.2734   -6.2499    4.1791 C   0  0  0  0  0  0  0  0  0  0  0  0
    2.8116   -5.2733    4.9508 C   0  0  0  0  0  0  0  0  0  0  0  0
    4.0682   -4.4357    4.8566 C   0  0  0  0  0  0  0  0  0  0  0  0
    4.8053   -4.3585    3.5294 C   0  0  1  0  0  0  0  0  0  0  0  0
    5.0675   -5.6953    2.9017 C   0  0  0  0  0  0  0  0  0  0  0  0
    4.0898   -6.3141    2.2210 C   0  0  0  0  0  0  0  0  0  0  0  0
    4.5094   -6.7132    0.8138 C   0  0  0  0  0  0  0  0  0  0  0  0
    5.4641   -5.6069    0.2452 C   0  0  2  0  0  0  0  0  0  0  0  0
    6.7943   -5.7503    0.9786 C   0  0  0  0  0  0  0  0  0  0  0  0
    6.5344   -5.9071    2.4867 C   0  0  0  0  0  0  0  0  0  0  0  0
    4.9563   -4.1181    0.0873 C   0  0  1  0  0  0  0  0  0  0  0  0
    3.6077   -4.1562   -0.6695 C   0  0  0  0  0  0  0  0  0  0  0  0
    2.5910   -3.0634   -0.3900 C   0  0  0  0  0  0  0  0  0  0  0  0
    2.8970   -2.2247    0.8527 C   0  0  1  0  0  0  0  0  0  0  0  0
    2.8702   -3.0711    2.1578 C   0  0  0  0  0  0  0  0  0  0  0  0
    4.3488   -3.2382    2.5417 C   0  0  2  0  0  0  0  0  0  0  0  0
    5.0988   -2.9672    1.2021 C   0  0  1  0  0  0  0  0  0  0  0  0
    6.5610   -2.5824    1.4373 C   0  0  0  0  0  0  0  0  0  0  0  0
    4.3286   -1.6760    0.7202 C   0  0  0  0  0  0  0  0  0  0  0  0
    4.7399   -1.1717   -0.6961 C   0  0  0  0  0  0  0  0  0  0  0  0
    4.4178   -0.3839    1.5945 C   0  0  0  0  0  0  0  0  0  0  0  0
    3.3017   -8.8476    2.1235 H   0  0  0  0  0  0  0  0  0  0  0  0
    2.2338   -8.9059    3.5010 H   0  0  0  0  0  0  0  0  0  0  0  0
    3.9054   -8.4453    3.7219 H   0  0  0  0  0  0  0  0  0  0  0  0
   -0.6039   -7.2440    1.6671 H   0  0  0  0  0  0  0  0  0  0  0  0
    0.6478   -6.3161    5.6117 H   0  0  0  0  0  0  0  0  0  0  0  0
    1.2333   -7.8904    5.1414 H   0  0  0  0  0  0  0  0  0  0  0  0
    2.3073   -5.0579    5.8798 H   0  0  0  0  0  0  0  0  0  0  0  0
    3.8313   -3.4254    5.1958 H   0  0  0  0  0  0  0  0  0  0  0  0
    4.7500   -4.8406    5.6067 H   0  0  0  0  0  0  0  0  0  0  0  0
    5.7860   -4.0162    3.8547 H   0  0  0  0  0  0  0  0  0  0  0  0
    5.0321   -7.6698    0.8758 H   0  0  0  0  0  0  0  0  0  0  0  0
    3.6855   -6.9163    0.1441 H   0  0  0  0  0  0  0  0  0  0  0  0
    5.6429   -5.9020   -0.7768 H   0  0  0  0  0  0  0  0  0  0  0  0
    7.3124   -6.6434    0.6155 H   0  0  0  0  0  0  0  0  0  0  0  0
    7.4796   -4.9414    0.7316 H   0  0  0  0  0  0  0  0  0  0  0  0
    7.2592   -5.3661    3.0905 H   0  0  0  0  0  0  0  0  0  0  0  0
    6.7190   -6.9578    2.7097 H   0  0  0  0  0  0  0  0  0  0  0  0
    5.6403   -3.7513   -0.6800 H   0  0  0  0  0  0  0  0  0  0  0  0
    3.7966   -4.1907   -1.7407 H   0  0  0  0  0  0  0  0  0  0  0  0
    3.0882   -5.0761   -0.4956 H   0  0  0  0  0  0  0  0  0  0  0  0
    2.5144   -2.4184   -1.2643 H   0  0  0  0  0  0  0  0  0  0  0  0
    1.6142   -3.5300   -0.3171 H   0  0  0  0  0  0  0  0  0  0  0  0
    2.1756   -1.4103    0.9186 H   0  0  0  0  0  0  0  0  0  0  0  0
    2.3323   -2.5557    2.9561 H   0  0  0  0  0  0  0  0  0  0  0  0
    2.3736   -4.0259    2.0059 H   0  0  0  0  0  0  0  0  0  0  0  0
    4.5660   -2.3847    3.1758 H   0  0  0  0  0  0  0  0  0  0  0  0
    6.6482   -1.6796    2.0329 H   0  0  0  0  0  0  0  0  0  0  0  0
    7.1130   -2.4256    0.5068 H   0  0  0  0  0  0  0  0  0  0  0  0
    7.0427   -3.3334    2.0463 H   0  0  0  0  0  0  0  0  0  0  0  0
    5.7456   -0.7565   -0.6757 H   0  0  0  0  0  0  0  0  0  0  0  0
    4.0727   -0.3783   -1.0314 H   0  0  0  0  0  0  0  0  0  0  0  0
    4.7283   -1.9255   -1.4786 H   0  0  0  0  0  0  0  0  0  0  0  0
    5.4295    0.0169    1.6438 H   0  0  0  0  0  0  0  0  0  0  0  0
    4.0396   -0.4867    2.6116 H   0  0  0  0  0  0  0  0  0  0  0  0
    3.8066    0.4054    1.1503 H   0  0  0  0  0  0  0  0  0  0  0  0
    0.3448   -8.5520    2.3470 H   0  0  0  0  0  0  0  0  0  0  0  0
  2  1  1  1
  1 30  1  0
  1 31  1  0
  1 32  1  0
  2  9  1  0
  2 14  1  0
  2  3  1  0
  3  4  2  0
  3  5  1  0
  5  6  1  0
  5 33  1  0
  5 65  1  0
  6  7  2  0
  6  8  1  0
  8  9  1  0
  8 34  1  0
  8 35  1  0
  9 10  2  0
 10 11  1  0
 10 36  1  0
 11 12  1  0
 11 37  1  0
 11 38  1  0
 12 24  1  0
 12 13  1  0
 12 39  1  1
 13 18  1  0
 13 14  2  0
 14 15  1  0
 15 16  1  0
 15 40  1  0
 15 41  1  0
 16 17  1  0
 16 19  1  0
 16 42  1  6
 17 18  1  0
 17 43  1  0
 17 44  1  0
 18 45  1  0
 18 46  1  0
 19 25  1  0
 19 20  1  0
 19 47  1  6
 20 21  1  0
 20 48  1  0
 20 49  1  0
 21 22  1  0
 21 50  1  0
 21 51  1  0
 22 27  1  0
 22 23  1  0
 22 52  1  1
 23 24  1  0
 23 53  1  0
 23 54  1  0
 24 25  1  0
 24 55  1  1
 25 26  1  1
 25 27  1  0
 26 56  1  0
 26 57  1  0
 26 58  1  0
 27 28  1  0
 27 29  1  0
 28 59  1  0
 28 60  1  0
 28 61  1  0
 29 62  1  0
 29 63  1  0
 29 64  1  0
M  END
>  <i_m_ct_stereo_status>  (204) 
1

>  <s_m_source_file>  (204) 
/var/tmp/pbs.5076255.sched01/tmpj5h_4zim/74m36hq9q5.sdf

>  <i_m_source_file_index>  (204) 
25

>  <i_lp_mmshare_version>  (204) 
48012

>  <i_f3d_flags>  (204) 
0

>  <s_epik_input>  (204) 
W09IXUMxPVtDSF1DKD1PKVtDSDJdQyhbQ0BAXTEyW0NIM10pPVtDSF1bQ0gyXVtDQEhdM0M0PUMyW0NIMl1bQ0BIXShbQ0gyXVtDSDJdNClbQ0BASF01W0NAXTYoW0NIM10pW0NASF0zW0NIMl1bQ0BIXShbQ0gyXVtDSDJdNSlDNihbQ0gzXSlbQ0gzXQ==

>  <s_epik_cmdline>  (204) 
J2VwaWtfcHl0aG9uJywgJy1waHQnLCAnMi4wJywgJy1waCcsICc3LjAnLCAnLXRuJywgJzgnLCAnLW1hJywgJzIwMCcsICctaW1hZScsICc8aW5maWxlLm1hZT4nLCAnLW9tYWUnLCAnPG91dGZpbGUubWFlPic=

>  <r_epik_Ionization_Penalty>  (204) 
0.00236382

>  <r_epik_Ionization_Penalty_Charging>  (204) 
0

>  <r_epik_Ionization_Penalty_Neutral>  (204) 
0.00236382

>  <r_epik_State_Penalty>  (204) 
0.0038519

>  <r_epik_Charging_Adjusted_Penalty>  (204) 
0.0038519

>  <i_epik_Tot_Q>  (204) 
0

>  <i_epik_Tot_abs_Q>  (204) 
0

>  <s_lp_Force_Field>  (204) 
OPLS3e

>  <r_lp_Energy>  (204) 
145.407

>  <b_lp_Chiralities_Consistent>  (204) 
1

>  <s_lp_Variant>  (204) 
80:0-1

>  <s_i_glide_gridfile>  (204) 
pfpi4k_grid

>  <i_i_glide_lignum>  (204) 
25

>  <i_i_glide_rotatable_bonds>  (204) 
0

>  <r_i_docking_score>  (204) 
-3.12492

>  <r_i_glide_ligand_efficiency>  (204) 
-0.107756

>  <r_i_glide_ligand_efficiency_sa>  (204) 
-0.33106

>  <r_i_glide_ligand_efficiency_ln>  (204) 
-0.715528

>  <r_i_glide_gscore>  (204) 
-3.12492

>  <r_i_glide_lipo>  (204) 
-0.607287

>  <r_i_glide_hbond>  (204) 
-0.165722

>  <r_i_glide_metal>  (204) 
-0

>  <r_i_glide_rewards>  (204) 
-0.732453

>  <r_i_glide_evdw>  (204) 
-23.2638

>  <r_i_glide_ecoul>  (204) 
-2.434

>  <r_i_glide_erotb>  (204) 
0

>  <r_i_glide_esite>  (204) 
-0.0911713

>  <r_i_glide_emodel>  (204) 
-30.4803

>  <r_i_glide_energy>  (204) 
-25.6978

>  <r_i_glide_einternal>  (204) 
0

>  <r_i_glide_intrahb_reward>  (204) 
-0

>  <i_i_glide_confnum>  (204) 
2

>  <i_i_glide_posenum>  (204) 
39

>  <r_i_glide_eff_state_penalty>  (204) 
0

>  <ligand_id>  (204) 
80

>  <original_smiles>  (204) 
CC12C(O)=CC(=O)CC1=CCC1C3=C2CC(CC3)C2CCC3CC1C2(C)C3(C)C

>  <smiles>  (204) 
[H]C1=C2C([H])([H])C(=O)C([H])([H])C(=O)C2(C([H])([H])[H])C2=C3C([H])([H])C([H])([H])C([H])(C2([H])[H])C2([H])C([H])([H])C([H])([H])C4([H])C([H])([H])C([H])(C3([H])C1([H])[H])C2(C([H])([H])[H])C4(C([H])([H])[H])C([H])([H])[H]

$$$$
80:0:1
     RDKit          3D

 65 70  0  0  1  0  0  0  0  0999 V2000
    1.5217  -10.2973    3.1843 C   0  0  0  0  0  0  0  0  0  0  0  0
    1.6301   -8.7646    3.2473 C   0  0  1  0  0  0  0  0  0  0  0  0
    0.7021   -8.1410    2.1531 C   0  0  0  0  0  0  0  0  0  0  0  0
    1.0517   -7.2539    1.3824 O   0  0  0  0  0  0  0  0  0  0  0  0
   -0.7661   -8.6021    2.1526 C   0  0  0  0  0  0  0  0  0  0  0  0
   -1.2996   -8.2480    3.5274 C   0  0  0  0  0  0  0  0  0  0  0  0
   -2.3438   -7.6077    3.6740 O   0  0  0  0  0  0  0  0  0  0  0  0
   -0.4848   -8.6784    4.7373 C   0  0  0  0  0  0  0  0  0  0  0  0
    0.9835   -8.3004    4.5832 C   0  0  0  0  0  0  0  0  0  0  0  0
    1.4889   -7.6286    5.6396 C   0  0  0  0  0  0  0  0  0  0  0  0
    2.8785   -7.1535    5.9996 C   0  0  0  0  0  0  0  0  0  0  0  0
    3.9049   -7.0371    4.8879 C   0  0  1  0  0  0  0  0  0  0  0  0
    4.0372   -8.2616    4.0380 C   0  0  0  0  0  0  0  0  0  0  0  0
    3.1579   -8.5024    3.0618 C   0  0  0  0  0  0  0  0  0  0  0  0
    3.7989   -8.7358    1.7079 C   0  0  0  0  0  0  0  0  0  0  0  0
    5.0714   -7.8304    1.5773 C   0  0  2  0  0  0  0  0  0  0  0  0
    6.1208   -8.4350    2.5094 C   0  0  0  0  0  0  0  0  0  0  0  0
    5.4835   -8.7505    3.8732 C   0  0  0  0  0  0  0  0  0  0  0  0
    4.9365   -6.2489    1.6743 C   0  0  1  0  0  0  0  0  0  0  0  0
    3.8094   -5.7952    0.6957 C   0  0  0  0  0  0  0  0  0  0  0  0
    2.9956   -4.5406    1.0360 C   0  0  0  0  0  0  0  0  0  0  0  0
    3.1979   -4.0423    2.4606 C   0  0  1  0  0  0  0  0  0  0  0  0
    2.6799   -5.0735    3.5015 C   0  0  0  0  0  0  0  0  0  0  0  0
    3.9443   -5.6943    4.1052 C   0  0  2  0  0  0  0  0  0  0  0  0
    5.0428   -5.4101    3.0474 C   0  0  1  0  0  0  0  0  0  0  0  0
    6.4406   -5.4803    3.7017 C   0  0  0  0  0  0  0  0  0  0  0  0
    4.7044   -3.8932    2.7417 C   0  0  0  0  0  0  0  0  0  0  0  0
    5.5470   -3.2593    1.5944 C   0  0  0  0  0  0  0  0  0  0  0  0
    4.8239   -2.8462    3.8916 C   0  0  0  0  0  0  0  0  0  0  0  0
    1.8885  -10.6501    2.2294 H   0  0  0  0  0  0  0  0  0  0  0  0
    0.5221  -10.7033    3.3046 H   0  0  0  0  0  0  0  0  0  0  0  0
    2.1408  -10.7454    3.9607 H   0  0  0  0  0  0  0  0  0  0  0  0
   -1.3212   -8.0580    1.3878 H   0  0  0  0  0  0  0  0  0  0  0  0
   -0.9226   -8.2059    5.6112 H   0  0  0  0  0  0  0  0  0  0  0  0
   -0.5314   -9.7490    4.9038 H   0  0  0  0  0  0  0  0  0  0  0  0
    0.8265   -7.4542    6.4833 H   0  0  0  0  0  0  0  0  0  0  0  0
    2.7896   -6.1937    6.5159 H   0  0  0  0  0  0  0  0  0  0  0  0
    3.2504   -7.8679    6.7405 H   0  0  0  0  0  0  0  0  0  0  0  0
    4.8198   -7.0243    5.4766 H   0  0  0  0  0  0  0  0  0  0  0  0
    4.0686   -9.7928    1.6546 H   0  0  0  0  0  0  0  0  0  0  0  0
    3.0964   -8.5942    0.8999 H   0  0  0  0  0  0  0  0  0  0  0  0
    5.4250   -7.9989    0.5661 H   0  0  0  0  0  0  0  0  0  0  0  0
    6.5025   -9.3620    2.0714 H   0  0  0  0  0  0  0  0  0  0  0  0
    7.0023   -7.7972    2.5926 H   0  0  0  0  0  0  0  0  0  0  0  0
    6.1300   -8.5059    4.7145 H   0  0  0  0  0  0  0  0  0  0  0  0
    5.3716   -9.8345    3.8900 H   0  0  0  0  0  0  0  0  0  0  0  0
    5.8498   -5.9345    1.1642 H   0  0  0  0  0  0  0  0  0  0  0  0
    4.2485   -5.6420   -0.2854 H   0  0  0  0  0  0  0  0  0  0  0  0
    3.1227   -6.5932    0.4984 H   0  0  0  0  0  0  0  0  0  0  0  0
    3.2615   -3.7505    0.3367 H   0  0  0  0  0  0  0  0  0  0  0  0
    1.9417   -4.7344    0.8557 H   0  0  0  0  0  0  0  0  0  0  0  0
    2.6797   -3.0896    2.5792 H   0  0  0  0  0  0  0  0  0  0  0  0
    2.0923   -4.5976    4.2859 H   0  0  0  0  0  0  0  0  0  0  0  0
    2.0527   -5.8194    3.0318 H   0  0  0  0  0  0  0  0  0  0  0  0
    4.1931   -5.0581    4.9451 H   0  0  0  0  0  0  0  0  0  0  0  0
    6.5393   -4.7528    4.5016 H   0  0  0  0  0  0  0  0  0  0  0  0
    7.2278   -5.3112    2.9632 H   0  0  0  0  0  0  0  0  0  0  0  0
    6.6449   -6.4250    4.1898 H   0  0  0  0  0  0  0  0  0  0  0  0
    6.5841   -3.1322    1.9065 H   0  0  0  0  0  0  0  0  0  0  0  0
    5.1623   -2.2706    1.3394 H   0  0  0  0  0  0  0  0  0  0  0  0
    5.5689   -3.8240    0.6655 H   0  0  0  0  0  0  0  0  0  0  0  0
    5.8387   -2.7382    4.2563 H   0  0  0  0  0  0  0  0  0  0  0  0
    4.1828   -3.0251    4.7566 H   0  0  0  0  0  0  0  0  0  0  0  0
    4.5330   -1.8601    3.5227 H   0  0  0  0  0  0  0  0  0  0  0  0
   -0.8892   -9.6709    1.9279 H   0  0  0  0  0  0  0  0  0  0  0  0
  2  1  1  1
  1 30  1  0
  1 31  1  0
  1 32  1  0
  2  9  1  0
  2 14  1  0
  2  3  1  0
  3  4  2  0
  3  5  1  0
  5  6  1  0
  5 33  1  0
  5 65  1  0
  6  7  2  0
  6  8  1  0
  8  9  1  0
  8 34  1  0
  8 35  1  0
  9 10  2  0
 10 11  1  0
 10 36  1  0
 11 12  1  0
 11 37  1  0
 11 38  1  0
 12 24  1  0
 12 13  1  0
 12 39  1  1
 13 18  1  0
 13 14  2  0
 14 15  1  0
 15 16  1  0
 15 40  1  0
 15 41  1  0
 16 17  1  0
 16 19  1  0
 16 42  1  6
 17 18  1  0
 17 43  1  0
 17 44  1  0
 18 45  1  0
 18 46  1  0
 19 25  1  0
 19 20  1  0
 19 47  1  6
 20 21  1  0
 20 48  1  0
 20 49  1  0
 21 22  1  0
 21 50  1  0
 21 51  1  0
 22 27  1  0
 22 23  1  0
 22 52  1  6
 23 24  1  0
 23 53  1  0
 23 54  1  0
 24 25  1  0
 24 55  1  1
 25 26  1  1
 25 27  1  0
 26 56  1  0
 26 57  1  0
 26 58  1  0
 27 28  1  0
 27 29  1  0
 28 59  1  0
 28 60  1  0
 28 61  1  0
 29 62  1  0
 29 63  1  0
 29 64  1  0
M  END
>  <i_m_ct_stereo_status>  (205) 
1

>  <s_m_source_file>  (205) 
/var/tmp/pbs.5076255.sched01/tmpj5h_4zim/74m36hq9q5.sdf

>  <i_m_source_file_index>  (205) 
25

>  <i_lp_mmshare_version>  (205) 
48012

>  <i_f3d_flags>  (205) 
0

>  <s_epik_input>  (205) 
W09IXUMxPVtDSF1DKD1PKVtDSDJdQyhbQ0BAXTEyW0NIM10pPVtDSF1bQ0gyXVtDQEhdM0M0PUMyW0NIMl1bQ0BIXShbQ0gyXVtDSDJdNClbQ0BASF01W0NAXTYoW0NIM10pW0NASF0zW0NIMl1bQ0BIXShbQ0gyXVtDSDJdNSlDNihbQ0gzXSlbQ0gzXQ==

>  <s_epik_cmdline>  (205) 
J2VwaWtfcHl0aG9uJywgJy1waHQnLCAnMi4wJywgJy1waCcsICc3LjAnLCAnLXRuJywgJzgnLCAnLW1hJywgJzIwMCcsICctaW1hZScsICc8aW5maWxlLm1hZT4nLCAnLW9tYWUnLCAnPG91dGZpbGUubWFlPic=

>  <r_epik_Ionization_Penalty>  (205) 
0.00236382

>  <r_epik_Ionization_Penalty_Charging>  (205) 
0

>  <r_epik_Ionization_Penalty_Neutral>  (205) 
0.00236382

>  <r_epik_State_Penalty>  (205) 
0.0038519

>  <r_epik_Charging_Adjusted_Penalty>  (205) 
0.0038519

>  <i_epik_Tot_Q>  (205) 
0

>  <i_epik_Tot_abs_Q>  (205) 
0

>  <s_lp_Force_Field>  (205) 
OPLS3e

>  <r_lp_Energy>  (205) 
145.407

>  <b_lp_Chiralities_Consistent>  (205) 
1

>  <s_lp_Variant>  (205) 
80:0-1

>  <s_i_glide_gridfile>  (205) 
pfpi4k_grid

>  <i_i_glide_lignum>  (205) 
25

>  <i_i_glide_rotatable_bonds>  (205) 
0

>  <r_i_docking_score>  (205) 
-2.97638

>  <r_i_glide_ligand_efficiency>  (205) 
-0.102634

>  <r_i_glide_ligand_efficiency_sa>  (205) 
-0.315323

>  <r_i_glide_ligand_efficiency_ln>  (205) 
-0.681515

>  <r_i_glide_gscore>  (205) 
-2.97638

>  <r_i_glide_lipo>  (205) 
-0.398158

>  <r_i_glide_hbond>  (205) 
0

>  <r_i_glide_metal>  (205) 
-0

>  <r_i_glide_rewards>  (205) 
-0.732453

>  <r_i_glide_evdw>  (205) 
-25.6228

>  <r_i_glide_ecoul>  (205) 
-3.00352

>  <r_i_glide_erotb>  (205) 
0

>  <r_i_glide_esite>  (205) 
-0.114103

>  <r_i_glide_emodel>  (205) 
-33.3167

>  <r_i_glide_energy>  (205) 
-28.6263

>  <r_i_glide_einternal>  (205) 
0

>  <r_i_glide_intrahb_reward>  (205) 
-0

>  <i_i_glide_confnum>  (205) 
1

>  <i_i_glide_posenum>  (205) 
9

>  <r_i_glide_eff_state_penalty>  (205) 
0

>  <ligand_id>  (205) 
80

>  <original_smiles>  (205) 
CC12C(O)=CC(=O)CC1=CCC1C3=C2CC(CC3)C2CCC3CC1C2(C)C3(C)C

>  <smiles>  (205) 
[H]C1=C2C([H])([H])C(=O)C([H])([H])C(=O)C2(C([H])([H])[H])C2=C3C([H])([H])C([H])([H])C([H])(C2([H])[H])C2([H])C([H])([H])C([H])([H])C4([H])C([H])([H])C([H])(C3([H])C1([H])[H])C2(C([H])([H])[H])C4(C([H])([H])[H])C([H])([H])[H]

$$$$
80:0:2
     RDKit          3D

 65 70  0  0  1  0  0  0  0  0999 V2000
    2.2175   -8.2745    4.8568 C   0  0  0  0  0  0  0  0  0  0  0  0
    2.4817   -6.8209    4.4060 C   0  0  1  0  0  0  0  0  0  0  0  0
    1.1479   -6.2656    3.8076 C   0  0  0  0  0  0  0  0  0  0  0  0
    1.0239   -5.8147    2.6738 O   0  0  0  0  0  0  0  0  0  0  0  0
   -0.0913   -6.2968    4.7077 C   0  0  0  0  0  0  0  0  0  0  0  0
    0.2336   -5.5882    6.0147 C   0  0  0  0  0  0  0  0  0  0  0  0
   -0.5650   -4.8125    6.5467 O   0  0  0  0  0  0  0  0  0  0  0  0
    1.5559   -5.9465    6.6858 C   0  0  0  0  0  0  0  0  0  0  0  0
    2.7295   -5.9760    5.6948 C   0  0  0  0  0  0  0  0  0  0  0  0
    3.8193   -5.2814    6.0981 C   0  0  0  0  0  0  0  0  0  0  0  0
    5.2068   -5.0910    5.5322 C   0  0  0  0  0  0  0  0  0  0  0  0
    5.4576   -5.4443    4.0743 C   0  0  1  0  0  0  0  0  0  0  0  0
    4.9617   -6.8002    3.6723 C   0  0  0  0  0  0  0  0  0  0  0  0
    3.6630   -6.9798    3.3903 C   0  0  0  0  0  0  0  0  0  0  0  0
    3.4298   -7.6381    2.0339 C   0  0  0  0  0  0  0  0  0  0  0  0
    4.5150   -7.1164    1.0212 C   0  0  2  0  0  0  0  0  0  0  0  0
    5.8372   -7.7591    1.4393 C   0  0  0  0  0  0  0  0  0  0  0  0
    6.0197   -7.6616    2.9627 C   0  0  0  0  0  0  0  0  0  0  0  0
    4.6130   -5.5553    0.7134 C   0  0  1  0  0  0  0  0  0  0  0  0
    3.1858   -5.0271    0.3592 C   0  0  0  0  0  0  0  0  0  0  0  0
    2.8244   -3.5738    0.6837 C   0  0  0  0  0  0  0  0  0  0  0  0
    3.8342   -2.8804    1.5875 C   0  0  1  0  0  0  0  0  0  0  0  0
    3.8727   -3.5393    2.9943 C   0  0  0  0  0  0  0  0  0  0  0  0
    5.1927   -4.3207    3.0246 C   0  0  2  0  0  0  0  0  0  0  0  0
    5.5554   -4.5112    1.5190 C   0  0  1  0  0  0  0  0  0  0  0  0
    7.0728   -4.7938    1.3348 C   0  0  0  0  0  0  0  0  0  0  0  0
    5.2494   -3.0476    0.9970 C   0  0  0  0  0  0  0  0  0  0  0  0
    5.3703   -2.8779   -0.5477 C   0  0  0  0  0  0  0  0  0  0  0  0
    6.1137   -1.8643    1.5409 C   0  0  0  0  0  0  0  0  0  0  0  0
    1.9476   -8.9070    4.0125 H   0  0  0  0  0  0  0  0  0  0  0  0
    1.4251   -8.3858    5.5932 H   0  0  0  0  0  0  0  0  0  0  0  0
    3.1202   -8.6940    5.3013 H   0  0  0  0  0  0  0  0  0  0  0  0
   -0.9250   -5.7965    4.2197 H   0  0  0  0  0  0  0  0  0  0  0  0
    1.7418   -5.2098    7.4681 H   0  0  0  0  0  0  0  0  0  0  0  0
    1.4620   -6.9089    7.1873 H   0  0  0  0  0  0  0  0  0  0  0  0
    3.7557   -4.7954    7.0614 H   0  0  0  0  0  0  0  0  0  0  0  0
    5.5104   -4.0569    5.7108 H   0  0  0  0  0  0  0  0  0  0  0  0
    5.8663   -5.6978    6.1568 H   0  0  0  0  0  0  0  0  0  0  0  0
    6.5431   -5.5380    4.0747 H   0  0  0  0  0  0  0  0  0  0  0  0
    3.5227   -8.7182    2.1648 H   0  0  0  0  0  0  0  0  0  0  0  0
    2.4247   -7.5141    1.6525 H   0  0  0  0  0  0  0  0  0  0  0  0
    4.2596   -7.5659    0.0641 H   0  0  0  0  0  0  0  0  0  0  0  0
    5.8314   -8.8159    1.1565 H   0  0  0  0  0  0  0  0  0  0  0  0
    6.6767   -7.3456    0.8810 H   0  0  0  0  0  0  0  0  0  0  0  0
    7.0463   -7.4357    3.2496 H   0  0  0  0  0  0  0  0  0  0  0  0
    5.8360   -8.6647    3.3507 H   0  0  0  0  0  0  0  0  0  0  0  0
    5.1126   -5.5770   -0.2546 H   0  0  0  0  0  0  0  0  0  0  0  0
    2.9973   -5.1779   -0.7035 H   0  0  0  0  0  0  0  0  0  0  0  0
    2.4337   -5.6340    0.8223 H   0  0  0  0  0  0  0  0  0  0  0  0
    2.7229   -3.0187   -0.2455 H   0  0  0  0  0  0  0  0  0  0  0  0
    1.8433   -3.5270    1.1524 H   0  0  0  0  0  0  0  0  0  0  0  0
    3.5585   -1.8294    1.6685 H   0  0  0  0  0  0  0  0  0  0  0  0
    3.8705   -2.7877    3.7853 H   0  0  0  0  0  0  0  0  0  0  0  0
    3.0152   -4.1843    3.1611 H   0  0  0  0  0  0  0  0  0  0  0  0
    5.8928   -3.5921    3.4075 H   0  0  0  0  0  0  0  0  0  0  0  0
    7.6981   -3.9730    1.6741 H   0  0  0  0  0  0  0  0  0  0  0  0
    7.3255   -4.9754    0.2895 H   0  0  0  0  0  0  0  0  0  0  0  0
    7.4231   -5.6387    1.9165 H   0  0  0  0  0  0  0  0  0  0  0  0
    6.4115   -2.9518   -0.8615 H   0  0  0  0  0  0  0  0  0  0  0  0
    5.0063   -1.8976   -0.8545 H   0  0  0  0  0  0  0  0  0  0  0  0
    4.8175   -3.6041   -1.1350 H   0  0  0  0  0  0  0  0  0  0  0  0
    7.1645   -1.9429    1.2603 H   0  0  0  0  0  0  0  0  0  0  0  0
    6.0618   -1.7124    2.6197 H   0  0  0  0  0  0  0  0  0  0  0  0
    5.7639   -0.9208    1.1175 H   0  0  0  0  0  0  0  0  0  0  0  0
   -0.4076   -7.3201    4.9054 H   0  0  0  0  0  0  0  0  0  0  0  0
  2  1  1  1
  1 30  1  0
  1 31  1  0
  1 32  1  0
  2  9  1  0
  2 14  1  0
  2  3  1  0
  3  4  2  0
  3  5  1  0
  5  6  1  0
  5 33  1  0
  5 65  1  0
  6  7  2  0
  6  8  1  0
  8  9  1  0
  8 34  1  0
  8 35  1  0
  9 10  2  0
 10 11  1  0
 10 36  1  0
 11 12  1  0
 11 37  1  0
 11 38  1  0
 12 24  1  0
 12 13  1  0
 12 39  1  1
 13 18  1  0
 13 14  2  0
 14 15  1  0
 15 16  1  0
 15 40  1  0
 15 41  1  0
 16 17  1  0
 16 19  1  0
 16 42  1  6
 17 18  1  0
 17 43  1  0
 17 44  1  0
 18 45  1  0
 18 46  1  0
 19 25  1  0
 19 20  1  0
 19 47  1  6
 20 21  1  0
 20 48  1  0
 20 49  1  0
 21 22  1  0
 21 50  1  0
 21 51  1  0
 22 27  1  0
 22 23  1  0
 22 52  1  1
 23 24  1  0
 23 53  1  0
 23 54  1  0
 24 25  1  0
 24 55  1  1
 25 26  1  1
 25 27  1  0
 26 56  1  0
 26 57  1  0
 26 58  1  0
 27 28  1  0
 27 29  1  0
 28 59  1  0
 28 60  1  0
 28 61  1  0
 29 62  1  0
 29 63  1  0
 29 64  1  0
M  END
>  <i_m_ct_stereo_status>  (206) 
1

>  <s_m_source_file>  (206) 
/var/tmp/pbs.5076255.sched01/tmpj5h_4zim/74m36hq9q5.sdf

>  <i_m_source_file_index>  (206) 
25

>  <i_lp_mmshare_version>  (206) 
48012

>  <i_f3d_flags>  (206) 
0

>  <s_epik_input>  (206) 
W09IXUMxPVtDSF1DKD1PKVtDSDJdQyhbQ0BAXTEyW0NIM10pPVtDSF1bQ0gyXVtDQEhdM0M0PUMyW0NIMl1bQ0BIXShbQ0gyXVtDSDJdNClbQ0BASF01W0NAXTYoW0NIM10pW0NASF0zW0NIMl1bQ0BIXShbQ0gyXVtDSDJdNSlDNihbQ0gzXSlbQ0gzXQ==

>  <s_epik_cmdline>  (206) 
J2VwaWtfcHl0aG9uJywgJy1waHQnLCAnMi4wJywgJy1waCcsICc3LjAnLCAnLXRuJywgJzgnLCAnLW1hJywgJzIwMCcsICctaW1hZScsICc8aW5maWxlLm1hZT4nLCAnLW9tYWUnLCAnPG91dGZpbGUubWFlPic=

>  <r_epik_Ionization_Penalty>  (206) 
0.00236382

>  <r_epik_Ionization_Penalty_Charging>  (206) 
0

>  <r_epik_Ionization_Penalty_Neutral>  (206) 
0.00236382

>  <r_epik_State_Penalty>  (206) 
0.0038519

>  <r_epik_Charging_Adjusted_Penalty>  (206) 
0.0038519

>  <i_epik_Tot_Q>  (206) 
0

>  <i_epik_Tot_abs_Q>  (206) 
0

>  <s_lp_Force_Field>  (206) 
OPLS3e

>  <r_lp_Energy>  (206) 
145.407

>  <b_lp_Chiralities_Consistent>  (206) 
1

>  <s_lp_Variant>  (206) 
80:0-1

>  <s_i_glide_gridfile>  (206) 
pfpi4k_grid

>  <i_i_glide_lignum>  (206) 
25

>  <i_i_glide_rotatable_bonds>  (206) 
0

>  <r_i_docking_score>  (206) 
-2.78132

>  <r_i_glide_ligand_efficiency>  (206) 
-0.0959074

>  <r_i_glide_ligand_efficiency_sa>  (206) 
-0.294658

>  <r_i_glide_ligand_efficiency_ln>  (206) 
-0.636851

>  <r_i_glide_gscore>  (206) 
-2.78132

>  <r_i_glide_lipo>  (206) 
-0.688397

>  <r_i_glide_hbond>  (206) 
0

>  <r_i_glide_metal>  (206) 
-0

>  <r_i_glide_rewards>  (206) 
-0.732453

>  <r_i_glide_evdw>  (206) 
-22.9002

>  <r_i_glide_ecoul>  (206) 
-1.30508

>  <r_i_glide_erotb>  (206) 
0

>  <r_i_glide_esite>  (206) 
-0.0196962

>  <r_i_glide_emodel>  (206) 
-28.5474

>  <r_i_glide_energy>  (206) 
-24.2052

>  <r_i_glide_einternal>  (206) 
0

>  <r_i_glide_intrahb_reward>  (206) 
-0

>  <i_i_glide_confnum>  (206) 
1

>  <i_i_glide_posenum>  (206) 
17

>  <r_i_glide_eff_state_penalty>  (206) 
0

>  <ligand_id>  (206) 
80

>  <original_smiles>  (206) 
CC12C(O)=CC(=O)CC1=CCC1C3=C2CC(CC3)C2CCC3CC1C2(C)C3(C)C

>  <smiles>  (206) 
[H]C1=C2C([H])([H])C(=O)C([H])([H])C(=O)C2(C([H])([H])[H])C2=C3C([H])([H])C([H])([H])C([H])(C2([H])[H])C2([H])C([H])([H])C([H])([H])C4([H])C([H])([H])C([H])(C3([H])C1([H])[H])C2(C([H])([H])[H])C4(C([H])([H])[H])C([H])([H])[H]

$$$$
81:0:0
     RDKit          3D

 45 51  0  0  1  0  0  0  0  0999 V2000
    3.1762   -2.8806   -1.6189 C   0  0  0  0  0  0  0  0  0  0  0  0
    4.6715   -2.9515   -1.3934 C   0  0  0  0  0  0  0  0  0  0  0  0
    5.3046   -3.6023   -0.3965 C   0  0  0  0  0  0  0  0  0  0  0  0
    6.7661   -3.5114   -0.2412 C   0  0  0  0  0  0  0  0  0  0  0  0
    7.5132   -2.9497   -1.0412 O   0  0  0  0  0  0  0  0  0  0  0  0
    7.1488   -4.1476    1.0520 C   0  0  2  0  0  0  0  0  0  0  0  0
    7.6542   -5.5936    1.0483 C   0  0  1  0  0  0  0  0  0  0  0  0
    9.0070   -5.7940    1.4143 O   0  0  0  0  0  0  0  0  0  0  0  0
    6.5331   -5.9846    2.0442 C   0  0  2  0  0  0  0  0  0  0  0  0
    6.9459   -6.2394    3.5311 C   0  0  1  0  0  0  0  0  0  0  0  0
    5.8974   -5.7510    4.6046 C   0  0  0  0  0  0  0  0  0  0  0  0
    4.4252   -6.1534    4.3317 C   0  0  0  0  0  0  0  0  0  0  0  0
    3.4983   -5.4258    4.6844 O   0  0  0  0  0  0  0  0  0  0  0  0
    4.2474   -7.4095    3.5944 C   0  0  0  0  0  0  0  0  0  0  0  0
    4.8702   -8.4001    4.2694 C   0  0  0  0  0  0  0  0  0  0  0  0
    6.1857   -8.8314    3.7556 C   0  0  2  0  0  0  0  0  0  0  0  0
    7.2478   -7.7448    3.6019 C   0  0  1  0  0  0  0  0  0  0  0  0
    6.6014   -8.3763    2.3968 C   0  0  2  0  0  0  0  0  0  0  0  0
    5.8087   -7.2985    1.6993 C   0  0  1  0  0  0  0  0  0  0  0  0
    4.4416   -7.2371    2.2185 N   0  0  0  0  0  0  0  0  0  0  0  0
    3.4242   -6.6204    1.3676 C   0  0  0  0  0  0  0  0  0  0  0  0
    3.9521   -5.6652    0.2714 C   0  0  0  0  0  0  0  0  0  0  0  0
    4.6890   -4.3974    0.7539 C   0  0  1  0  0  0  0  0  0  0  0  0
    5.8651   -4.6118    1.7195 C   0  0  2  0  0  0  0  0  0  0  0  0
    2.8888   -1.8501   -1.8342 H   0  0  0  0  0  0  0  0  0  0  0  0
    2.6079   -3.2002   -0.7457 H   0  0  0  0  0  0  0  0  0  0  0  0
    2.8944   -3.4984   -2.4724 H   0  0  0  0  0  0  0  0  0  0  0  0
    5.2625   -2.4212   -2.1244 H   0  0  0  0  0  0  0  0  0  0  0  0
    7.7461   -3.5022    1.6876 H   0  0  0  0  0  0  0  0  0  0  0  0
    7.4806   -6.0506    0.0784 H   0  0  0  0  0  0  0  0  0  0  0  0
    9.2355   -6.7104    1.2829 H   0  0  0  0  0  0  0  0  0  0  0  0
    7.8765   -5.7155    3.7597 H   0  0  0  0  0  0  0  0  0  0  0  0
    6.1769   -6.1314    5.5893 H   0  0  0  0  0  0  0  0  0  0  0  0
    5.9313   -4.6641    4.6839 H   0  0  0  0  0  0  0  0  0  0  0  0
    4.8457   -8.4029    5.3525 H   0  0  0  0  0  0  0  0  0  0  0  0
    6.5130   -9.8069    4.1006 H   0  0  0  0  0  0  0  0  0  0  0  0
    8.2900   -8.0067    3.7779 H   0  0  0  0  0  0  0  0  0  0  0  0
    7.2202   -9.0265    1.7825 H   0  0  0  0  0  0  0  0  0  0  0  0
    5.8122   -7.5265    0.6345 H   0  0  0  0  0  0  0  0  0  0  0  0
    2.8751   -7.4344    0.8950 H   0  0  0  0  0  0  0  0  0  0  0  0
    2.6974   -6.0939    1.9882 H   0  0  0  0  0  0  0  0  0  0  0  0
    4.5553   -6.2009   -0.4621 H   0  0  0  0  0  0  0  0  0  0  0  0
    3.0785   -5.3577   -0.3022 H   0  0  0  0  0  0  0  0  0  0  0  0
    3.9505   -3.7567    1.2380 H   0  0  0  0  0  0  0  0  0  0  0  0
    5.7216   -4.0260    2.6255 H   0  0  0  0  0  0  0  0  0  0  0  0
  1  2  1  0
  1 25  1  0
  1 26  1  0
  1 27  1  0
  2  3  2  3
  2 28  1  0
  3 23  1  0
  3  4  1  0
  4  5  2  0
  4  6  1  0
  6 24  1  0
  6  7  1  0
  6 29  1  1
  7  8  1  0
  9  7  1  6
  7 30  1  6
  8 31  1  0
  9 19  1  0
  9 24  1  0
  9 10  1  0
 10 17  1  0
 10 11  1  0
 10 32  1  1
 11 12  1  0
 11 33  1  0
 11 34  1  0
 12 13  2  0
 12 14  1  0
 14 20  1  0
 14 15  2  0
 15 16  1  0
 15 35  1  0
 16 18  1  0
 16 17  1  0
 16 36  1  6
 17 18  1  0
 17 37  1  6
 18 19  1  0
 18 38  1  6
 19 20  1  0
 19 39  1  6
 20 21  1  0
 21 22  1  0
 21 40  1  0
 21 41  1  0
 22 23  1  0
 22 42  1  0
 22 43  1  0
 23 24  1  0
 23 44  1  1
 24 45  1  1
M  END
>  <i_m_ct_stereo_status>  (207) 
1

>  <s_m_source_file>  (207) 
/var/tmp/pbs.5076255.sched01/tmpj5h_4zim/74m36hq9q5.sdf

>  <i_m_source_file_index>  (207) 
26

>  <i_lp_mmshare_version>  (207) 
48012

>  <i_f3d_flags>  (207) 
2

>  <s_epik_input>  (207) 
W0NIM10vW0NIXT1DMVxDKD1PKVtDQEhdKFtDQEhdMltPSF0pW0NASF0zW0NAQEhdMVtDSDJdW0NIMl1OKEMoPVtDSF00KUMoPU8pW0NIMl01KVtDQEBIXTZbQ0BIXTdbQ0hdNFtDSF03W0NASF01W0NAXTIzNg==

>  <s_epik_cmdline>  (207) 
J2VwaWtfcHl0aG9uJywgJy1waHQnLCAnMi4wJywgJy1waCcsICc3LjAnLCAnLXRuJywgJzgnLCAnLW1hJywgJzIwMCcsICctaW1hZScsICc8aW5maWxlLm1hZT4nLCAnLW9tYWUnLCAnPG91dGZpbGUubWFlPic=

>  <r_lp_tautomer_probability>  (207) 
1

>  <r_epik_Ionization_Penalty>  (207) 
0.000231093

>  <r_epik_Ionization_Penalty_Charging>  (207) 
3.27699e-07

>  <r_epik_Ionization_Penalty_Neutral>  (207) 
0.000230765

>  <r_epik_State_Penalty>  (207) 
-0

>  <r_epik_Charging_Adjusted_Penalty>  (207) 
3.27699e-07

>  <i_epik_Tot_Q>  (207) 
0

>  <i_epik_Tot_abs_Q>  (207) 
0

>  <s_epik_Chemistry_Notes>  (207) 
This compound has an imine and may undergo hydrolysis.

>  <s_lp_Force_Field>  (207) 
OPLS3e

>  <r_lp_Energy>  (207) 
99.4368

>  <b_lp_Chiralities_Consistent>  (207) 
0

>  <s_lp_Variant>  (207) 
81:0-1

>  <s_i_glide_gridfile>  (207) 
pfpi4k_grid

>  <i_i_glide_lignum>  (207) 
26

>  <i_i_glide_rotatable_bonds>  (207) 
1

>  <r_i_docking_score>  (207) 
-3.57963

>  <r_i_glide_ligand_efficiency>  (207) 
-0.149151

>  <r_i_glide_ligand_efficiency_sa>  (207) 
-0.430227

>  <r_i_glide_ligand_efficiency_ln>  (207) 
-0.85677

>  <r_i_glide_gscore>  (207) 
-3.57963

>  <r_i_glide_lipo>  (207) 
-0.615448

>  <r_i_glide_hbond>  (207) 
-0.128619

>  <r_i_glide_metal>  (207) 
-0

>  <r_i_glide_rewards>  (207) 
-1.38676

>  <r_i_glide_evdw>  (207) 
-20.9894

>  <r_i_glide_ecoul>  (207) 
-2.66221

>  <r_i_glide_erotb>  (207) 
0

>  <r_i_glide_esite>  (207) 
0

>  <r_i_glide_emodel>  (207) 
-28.8962

>  <r_i_glide_energy>  (207) 
-23.6516

>  <r_i_glide_einternal>  (207) 
1.19977

>  <r_i_glide_intrahb_reward>  (207) 
-0

>  <i_i_glide_confnum>  (207) 
1

>  <i_i_glide_posenum>  (207) 
5

>  <r_i_glide_eff_state_penalty>  (207) 
0

>  <ligand_id>  (207) 
81

>  <original_smiles>  (207) 
CC=C1C(=O)C2C(O)C34C5CC(=O)C6=CC7C5C7C3N6CCC1C24

>  <smiles>  (207) 
[H]OC1([H])C2([H])C(=O)C(=C([H])C([H])([H])[H])C3([H])C([H])([H])C([H])([H])N4C5=C([H])C6([H])C7([H])C4([H])C1(C32[H])C([H])(C([H])([H])C5=O)C67[H]

$$$$
81:0:1
     RDKit          3D

 45 51  0  0  1  0  0  0  0  0999 V2000
    2.9943   -3.0027   -1.6287 C   0  0  0  0  0  0  0  0  0  0  0  0
    4.4896   -2.9702   -1.4027 C   0  0  0  0  0  0  0  0  0  0  0  0
    5.1619   -3.5759   -0.4039 C   0  0  0  0  0  0  0  0  0  0  0  0
    6.6123   -3.3871   -0.2496 C   0  0  0  0  0  0  0  0  0  0  0  0
    7.3293   -2.7839   -1.0482 O   0  0  0  0  0  0  0  0  0  0  0  0
    7.0241   -3.9755    1.0519 C   0  0  2  0  0  0  0  0  0  0  0  0
    7.6379   -5.3688    1.0597 C   0  0  1  0  0  0  0  0  0  0  0  0
    9.0063   -5.4465    1.4159 O   0  0  0  0  0  0  0  0  0  0  0  0
    6.5498   -5.8518    2.0534 C   0  0  2  0  0  0  0  0  0  0  0  0
    6.9719   -6.0791    3.5408 C   0  0  1  0  0  0  0  0  0  0  0  0
    5.8890   -5.6616    4.6102 C   0  0  0  0  0  0  0  0  0  0  0  0
    4.4481   -6.1636    4.3350 C   0  0  0  0  0  0  0  0  0  0  0  0
    3.4746   -5.4982    4.6829 O   0  0  0  0  0  0  0  0  0  0  0  0
    4.3595   -7.4311    3.6001 C   0  0  0  0  0  0  0  0  0  0  0  0
    5.0469   -8.3754    4.2786 C   0  0  0  0  0  0  0  0  0  0  0  0
    6.3897   -8.7173    3.7680 C   0  0  2  0  0  0  0  0  0  0  0  0
    7.3759   -7.5614    3.6137 C   0  0  1  0  0  0  0  0  0  0  0  0
    6.7742   -8.2358    2.4096 C   0  0  2  0  0  0  0  0  0  0  0  0
    5.9162   -7.2130    1.7087 C   0  0  1  0  0  0  0  0  0  0  0  0
    4.5454   -7.2474    2.2245 N   0  0  0  0  0  0  0  0  0  0  0  0
    3.4884   -6.7071    1.3701 C   0  0  0  0  0  0  0  0  0  0  0  0
    3.9503   -5.7210    0.2716 C   0  0  0  0  0  0  0  0  0  0  0  0
    4.5977   -4.4044    0.7499 C   0  0  1  0  0  0  0  0  0  0  0  0
    5.7808   -4.5333    1.7221 C   0  0  2  0  0  0  0  0  0  0  0  0
    2.6369   -1.9951   -1.8489 H   0  0  0  0  0  0  0  0  0  0  0  0
    2.4473   -3.3559   -0.7549 H   0  0  0  0  0  0  0  0  0  0  0  0
    2.7556   -3.6407   -2.4802 H   0  0  0  0  0  0  0  0  0  0  0  0
    5.0438   -2.4012   -2.1326 H   0  0  0  0  0  0  0  0  0  0  0  0
    7.5737   -3.2823    1.6801 H   0  0  0  0  0  0  0  0  0  0  0  0
    7.5014   -5.8503    0.0914 H   0  0  0  0  0  0  0  0  0  0  0  0
    9.0822   -5.2256    2.3333 H   0  0  0  0  0  0  0  0  0  0  0  0
    7.8621   -5.4937    3.7754 H   0  0  0  0  0  0  0  0  0  0  0  0
    6.1928   -6.0188    5.5958 H   0  0  0  0  0  0  0  0  0  0  0  0
    5.8493   -4.5750    4.6856 H   0  0  0  0  0  0  0  0  0  0  0  0
    5.0168   -8.3780    5.3616 H   0  0  0  0  0  0  0  0  0  0  0  0
    6.7824   -9.6667    4.1172 H   0  0  0  0  0  0  0  0  0  0  0  0
    8.4333   -7.7525    3.7885 H   0  0  0  0  0  0  0  0  0  0  0  0
    7.4273   -8.8475    1.7948 H   0  0  0  0  0  0  0  0  0  0  0  0
    5.9386   -7.4388    0.6458 H   0  0  0  0  0  0  0  0  0  0  0  0
    2.9965   -7.5582    0.8994 H   0  0  0  0  0  0  0  0  0  0  0  0
    2.7257   -6.2295    1.9875 H   0  0  0  0  0  0  0  0  0  0  0  0
    4.5895   -6.2161   -0.4598 H   0  0  0  0  0  0  0  0  0  0  0  0
    3.0593   -5.4737   -0.3035 H   0  0  0  0  0  0  0  0  0  0  0  0
    3.8172   -3.8139    1.2317 H   0  0  0  0  0  0  0  0  0  0  0  0
    5.5945   -3.9556    2.6261 H   0  0  0  0  0  0  0  0  0  0  0  0
  1  2  1  0
  1 25  1  0
  1 26  1  0
  1 27  1  0
  2  3  2  3
  2 28  1  0
  3 23  1  0
  3  4  1  0
  4  5  2  0
  4  6  1  0
  6 24  1  0
  6  7  1  0
  6 29  1  1
  7  8  1  0
  9  7  1  6
  7 30  1  6
  8 31  1  0
  9 19  1  0
  9 24  1  0
  9 10  1  0
 10 17  1  0
 10 11  1  0
 10 32  1  1
 11 12  1  0
 11 33  1  0
 11 34  1  0
 12 13  2  0
 12 14  1  0
 14 20  1  0
 14 15  2  0
 15 16  1  0
 15 35  1  0
 16 18  1  0
 16 17  1  0
 16 36  1  6
 17 18  1  0
 17 37  1  6
 18 19  1  0
 18 38  1  6
 19 20  1  0
 19 39  1  6
 20 21  1  0
 21 22  1  0
 21 40  1  0
 21 41  1  0
 22 23  1  0
 22 42  1  0
 22 43  1  0
 23 24  1  0
 23 44  1  1
 24 45  1  1
M  END
>  <i_m_ct_stereo_status>  (208) 
1

>  <s_m_source_file>  (208) 
/var/tmp/pbs.5076255.sched01/tmpj5h_4zim/74m36hq9q5.sdf

>  <i_m_source_file_index>  (208) 
26

>  <i_lp_mmshare_version>  (208) 
48012

>  <i_f3d_flags>  (208) 
2

>  <s_epik_input>  (208) 
W0NIM10vW0NIXT1DMVxDKD1PKVtDQEhdKFtDQEhdMltPSF0pW0NASF0zW0NAQEhdMVtDSDJdW0NIMl1OKEMoPVtDSF00KUMoPU8pW0NIMl01KVtDQEBIXTZbQ0BIXTdbQ0hdNFtDSF03W0NASF01W0NAXTIzNg==

>  <s_epik_cmdline>  (208) 
J2VwaWtfcHl0aG9uJywgJy1waHQnLCAnMi4wJywgJy1waCcsICc3LjAnLCAnLXRuJywgJzgnLCAnLW1hJywgJzIwMCcsICctaW1hZScsICc8aW5maWxlLm1hZT4nLCAnLW9tYWUnLCAnPG91dGZpbGUubWFlPic=

>  <r_lp_tautomer_probability>  (208) 
1

>  <r_epik_Ionization_Penalty>  (208) 
0.000231093

>  <r_epik_Ionization_Penalty_Charging>  (208) 
3.27699e-07

>  <r_epik_Ionization_Penalty_Neutral>  (208) 
0.000230765

>  <r_epik_State_Penalty>  (208) 
-0

>  <r_epik_Charging_Adjusted_Penalty>  (208) 
3.27699e-07

>  <i_epik_Tot_Q>  (208) 
0

>  <i_epik_Tot_abs_Q>  (208) 
0

>  <s_epik_Chemistry_Notes>  (208) 
This compound has an imine and may undergo hydrolysis.

>  <s_lp_Force_Field>  (208) 
OPLS3e

>  <r_lp_Energy>  (208) 
99.4368

>  <b_lp_Chiralities_Consistent>  (208) 
0

>  <s_lp_Variant>  (208) 
81:0-1

>  <s_i_glide_gridfile>  (208) 
pfpi4k_grid

>  <i_i_glide_lignum>  (208) 
26

>  <i_i_glide_rotatable_bonds>  (208) 
1

>  <r_i_docking_score>  (208) 
-3.42937

>  <r_i_glide_ligand_efficiency>  (208) 
-0.14289

>  <r_i_glide_ligand_efficiency_sa>  (208) 
-0.412167

>  <r_i_glide_ligand_efficiency_ln>  (208) 
-0.820806

>  <r_i_glide_gscore>  (208) 
-3.42937

>  <r_i_glide_lipo>  (208) 
-0.644816

>  <r_i_glide_hbond>  (208) 
-0.0532026

>  <r_i_glide_metal>  (208) 
-0

>  <r_i_glide_rewards>  (208) 
-1.38527

>  <r_i_glide_evdw>  (208) 
-20.974

>  <r_i_glide_ecoul>  (208) 
-1.98253

>  <r_i_glide_erotb>  (208) 
0

>  <r_i_glide_esite>  (208) 
0

>  <r_i_glide_emodel>  (208) 
-28.4978

>  <r_i_glide_energy>  (208) 
-22.9566

>  <r_i_glide_einternal>  (208) 
0.0852725

>  <r_i_glide_intrahb_reward>  (208) 
-0

>  <i_i_glide_confnum>  (208) 
1

>  <i_i_glide_posenum>  (208) 
1

>  <r_i_glide_eff_state_penalty>  (208) 
0

>  <ligand_id>  (208) 
81

>  <original_smiles>  (208) 
CC=C1C(=O)C2C(O)C34C5CC(=O)C6=CC7C5C7C3N6CCC1C24

>  <smiles>  (208) 
[H]OC1([H])C2([H])C(=O)C(=C([H])C([H])([H])[H])C3([H])C([H])([H])C([H])([H])N4C5=C([H])C6([H])C7([H])C4([H])C1(C32[H])C([H])(C([H])([H])C5=O)C67[H]

$$$$
82:0:0
     RDKit          3D

 50 54  0  0  1  0  0  0  0  0999 V2000
    3.4606   -1.8347   -1.8749 C   0  0  0  0  0  0  0  0  0  0  0  0
    3.8646   -2.6782   -0.6263 C   0  0  2  0  0  0  0  0  0  0  0  0
    2.8459   -2.3156    0.4754 C   0  0  0  0  0  0  0  0  0  0  0  0
    3.1026   -2.7967    1.9076 C   0  0  1  0  0  0  0  0  0  0  0  0
    2.6284   -4.2676    2.1352 C   0  0  0  0  0  0  0  0  0  0  0  0
    3.2072   -5.5062    2.1846 C   0  0  0  0  0  0  0  0  0  0  0  0
    4.6528   -6.0216    1.9941 C   0  0  2  0  0  0  0  0  0  0  0  0
    4.5943   -7.4258    1.8164 O   0  0  0  0  0  0  0  0  0  0  0  0
    5.4394   -5.7486    3.3003 C   0  0  1  0  0  0  0  0  0  0  0  0
    6.7169   -6.3387    3.4180 O   0  0  0  0  0  0  0  0  0  0  0  0
    5.5362   -4.2555    3.4548 C   0  0  0  0  0  0  0  0  0  0  0  0
    5.4056   -3.4192    2.3954 C   0  0  0  0  0  0  0  0  0  0  0  0
    4.4379   -2.2704    2.5349 C   0  0  2  0  0  0  0  0  0  0  0  0
    4.1598   -1.8397    4.0009 C   0  0  0  0  0  0  0  0  0  0  0  0
    5.0142   -1.0200    1.8429 C   0  0  0  0  0  0  0  0  0  0  0  0
    5.7333   -1.2806    0.4927 C   0  0  1  0  0  0  0  0  0  0  0  0
    7.1089   -1.0615    0.8044 O   0  0  0  0  0  0  0  0  0  0  0  0
    5.4016   -2.6778   -0.1731 C   0  0  2  0  0  0  0  0  0  0  0  0
    6.2822   -2.8430   -1.4734 C   0  0  0  0  0  0  0  0  0  0  0  0
    7.3801   -2.2552   -1.5517 O   0  0  0  0  0  0  0  0  0  0  0  0
    5.8310   -3.5460   -2.4124 O   0  0  0  0  0  0  0  0  0  0  0  0
    5.6767   -3.8479    0.9202 C   0  0  1  0  0  0  0  0  0  0  0  0
    7.1115   -4.4334    0.8586 C   0  0  0  0  0  0  0  0  0  0  0  0
    8.2568   -3.9953    0.9348 O   0  0  0  0  0  0  0  0  0  0  0  0
    6.7000   -5.7149    0.6355 O   0  0  0  0  0  0  0  0  0  0  0  0
    5.2899   -5.3455    0.7467 C   0  0  1  0  0  0  0  0  0  0  0  0
    4.6483   -5.9041   -0.5192 C   0  0  0  0  0  0  0  0  0  0  0  0
    3.7393   -0.7842   -1.7645 H   0  0  0  0  0  0  0  0  0  0  0  0
    2.3770   -1.8703   -2.0059 H   0  0  0  0  0  0  0  0  0  0  0  0
    3.8639   -2.2084   -2.8169 H   0  0  0  0  0  0  0  0  0  0  0  0
    3.6036   -3.6868   -0.9030 H   0  0  0  0  0  0  0  0  0  0  0  0
    2.7189   -1.2343    0.4949 H   0  0  0  0  0  0  0  0  0  0  0  0
    1.8694   -2.6731    0.1783 H   0  0  0  0  0  0  0  0  0  0  0  0
    2.3363   -2.2621    2.4696 H   0  0  0  0  0  0  0  0  0  0  0  0
    1.5716   -4.3060    2.2960 H   0  0  0  0  0  0  0  0  0  0  0  0
    2.5293   -6.3160    2.3776 H   0  0  0  0  0  0  0  0  0  0  0  0
    4.2887   -7.8156    2.6258 H   0  0  0  0  0  0  0  0  0  0  0  0
    4.8489   -6.1174    4.1397 H   0  0  0  0  0  0  0  0  0  0  0  0
    6.6160   -7.2820    3.3637 H   0  0  0  0  0  0  0  0  0  0  0  0
    5.2616   -3.9705    4.4491 H   0  0  0  0  0  0  0  0  0  0  0  0
    3.5681   -0.9282    4.0087 H   0  0  0  0  0  0  0  0  0  0  0  0
    5.0908   -1.6205    4.5320 H   0  0  0  0  0  0  0  0  0  0  0  0
    3.6029   -2.5865    4.5657 H   0  0  0  0  0  0  0  0  0  0  0  0
    4.2329   -0.2693    1.7266 H   0  0  0  0  0  0  0  0  0  0  0  0
    5.7081   -0.5505    2.5444 H   0  0  0  0  0  0  0  0  0  0  0  0
    5.4390   -0.4910   -0.2018 H   0  0  0  0  0  0  0  0  0  0  0  0
    7.2173   -0.1598    1.1237 H   0  0  0  0  0  0  0  0  0  0  0  0
    3.5676   -5.7942   -0.4665 H   0  0  0  0  0  0  0  0  0  0  0  0
    4.8558   -6.9601   -0.6512 H   0  0  0  0  0  0  0  0  0  0  0  0
    5.0170   -5.4236   -1.4099 H   0  0  0  0  0  0  0  0  0  0  0  0
  1  2  1  0
  1 28  1  0
  1 29  1  0
  1 30  1  0
  2 18  1  0
  2  3  1  0
  2 31  1  6
  3  4  1  0
  3 32  1  0
  3 33  1  0
  4 13  1  0
  4  5  1  0
  4 34  1  1
  5  6  2  3
  5 35  1  0
  6  7  1  0
  6 36  1  0
  7 26  1  0
  7  8  1  6
  7  9  1  0
  8 37  1  0
  9 10  1  0
  9 11  1  0
  9 38  1  1
 10 39  1  0
 11 12  2  0
 11 40  1  0
 12 22  1  0
 12 13  1  0
 13 14  1  1
 13 15  1  0
 14 41  1  0
 14 42  1  0
 14 43  1  0
 15 16  1  0
 15 44  1  0
 15 45  1  0
 16 17  1  0
 16 18  1  0
 16 46  1  6
 17 47  1  0
 18 19  1  6
 18 22  1  0
 19 20  2  0
 19 21  1  0
 22 26  1  0
 22 23  1  1
 23 24  2  0
 23 25  1  0
 25 26  1  0
 26 27  1  6
 27 48  1  0
 27 49  1  0
 27 50  1  0
M  CHG  1  21  -1
M  END
>  <i_m_ct_stereo_status>  (209) 
1

>  <s_m_source_file>  (209) 
/var/tmp/pbs.5076255.sched01/tmpj5h_4zim/74m36hq9q5.sdf

>  <i_m_source_file_index>  (209) 
27

>  <i_lp_mmshare_version>  (209) 
48012

>  <i_f3d_flags>  (209) 
0

>  <s_epik_input>  (209) 
W0NIMl0xW0NAQEhdKFtPSF0pW0NAXTIoQyg9TylbT0hdKVtDQEhdKFtDSDNdKVtDSDJdW0NIXShbQ0BdMShDM1tDQEBdMjQ1KVtDSDNdKS9bQ0hdPVtDSF1cW0NAXShbT0hdKShbQ0BASF0oW09IXSlbQ0hdPTMpW0NAXTUoW0NIM10pT0M0PU8=

>  <s_epik_cmdline>  (209) 
J2VwaWtfcHl0aG9uJywgJy1waHQnLCAnMi4wJywgJy1waCcsICc3LjAnLCAnLXRuJywgJzgnLCAnLW1hJywgJzIwMCcsICctaW1hZScsICc8aW5maWxlLm1hZT4nLCAnLW9tYWUnLCAnPG91dGZpbGUubWFlPic=

>  <r_epik_Ionization_Penalty>  (209) 
0.000529761

>  <r_epik_Ionization_Penalty_Charging>  (209) 
0.00052665

>  <r_epik_Ionization_Penalty_Neutral>  (209) 
3.1114e-06

>  <r_epik_State_Penalty>  (209) 
0.000328802

>  <r_epik_Charging_Adjusted_Penalty>  (209) 
0.000855452

>  <i_epik_Tot_Q>  (209) 
-1

>  <i_epik_Tot_abs_Q>  (209) 
1

>  <s_epik_Chemistry_Notes>  (209) 
This compound has an ester and may undergo hydrolysis at high or low pH.

>  <s_lp_Force_Field>  (209) 
OPLS3e

>  <r_lp_Energy>  (209) 
98.9845

>  <b_lp_Chiralities_Consistent>  (209) 
1

>  <s_lp_Variant>  (209) 
82:0-1

>  <s_i_glide_gridfile>  (209) 
pfpi4k_grid

>  <i_i_glide_lignum>  (209) 
27

>  <i_i_glide_rotatable_bonds>  (209) 
4

>  <r_i_docking_score>  (209) 
-3.66626

>  <r_i_glide_ligand_efficiency>  (209) 
-0.135787

>  <r_i_glide_ligand_efficiency_sa>  (209) 
-0.407362

>  <r_i_glide_ligand_efficiency_ln>  (209) 
-0.853445

>  <r_i_glide_gscore>  (209) 
-3.66626

>  <r_i_glide_lipo>  (209) 
-0.468795

>  <r_i_glide_hbond>  (209) 
-0.2

>  <r_i_glide_metal>  (209) 
-0

>  <r_i_glide_rewards>  (209) 
-1.02615

>  <r_i_glide_evdw>  (209) 
-17.7219

>  <r_i_glide_ecoul>  (209) 
-7.22201

>  <r_i_glide_erotb>  (209) 
0

>  <r_i_glide_esite>  (209) 
-0.00191391

>  <r_i_glide_emodel>  (209) 
-29.8382

>  <r_i_glide_energy>  (209) 
-24.944

>  <r_i_glide_einternal>  (209) 
3.99718

>  <r_i_glide_intrahb_reward>  (209) 
-0

>  <i_i_glide_confnum>  (209) 
1

>  <i_i_glide_posenum>  (209) 
40

>  <r_i_glide_eff_state_penalty>  (209) 
0

>  <ligand_id>  (209) 
82

>  <original_smiles>  (209) 
CC1CC2C=CC3(O)C(O)C=C4C2(C)CC(O)C1(C(=O)O)C41C(=O)OC31C

>  <smiles>  (209) 
[H]OC1([H])C([H])=C2C34C(=O)OC3(C([H])([H])[H])C1(O[H])C([H])=C([H])C1([H])C([H])([H])C([H])(C([H])([H])[H])C4(C(=O)[O-])C([H])(O[H])C([H])([H])C21C([H])([H])[H]

$$$$
82:0:1
     RDKit          3D

 50 54  0  0  1  0  0  0  0  0999 V2000
    3.8923   -0.9843   -1.7501 C   0  0  0  0  0  0  0  0  0  0  0  0
    3.9482   -1.7351   -0.3983 C   0  0  2  0  0  0  0  0  0  0  0  0
    3.3205   -0.8521    0.7003 C   0  0  0  0  0  0  0  0  0  0  0  0
    3.4633   -1.3181    2.1541 C   0  0  1  0  0  0  0  0  0  0  0  0
    2.3997   -2.3858    2.5546 C   0  0  0  0  0  0  0  0  0  0  0  0
    2.3628   -3.7432    2.7104 C   0  0  0  0  0  0  0  0  0  0  0  0
    3.3850   -4.8708    2.4867 C   0  0  2  0  0  0  0  0  0  0  0  0
    2.6760   -6.0940    2.4649 O   0  0  0  0  0  0  0  0  0  0  0  0
    4.3428   -4.9339    3.6977 C   0  0  1  0  0  0  0  0  0  0  0  0
    5.1872   -6.0646    3.7771 O   0  0  0  0  0  0  0  0  0  0  0  0
    5.1368   -3.6574    3.7044 C   0  0  0  0  0  0  0  0  0  0  0  0
    5.2654   -2.9133    2.5801 C   0  0  0  0  0  0  0  0  0  0  0  0
    4.9361   -1.4450    2.6677 C   0  0  2  0  0  0  0  0  0  0  0  0
    4.9966   -0.8275    4.0909 C   0  0  0  0  0  0  0  0  0  0  0  0
    5.9558   -0.6709    1.8427 C   0  0  0  0  0  0  0  0  0  0  0  0
    6.3297   -1.2737    0.4875 C   0  0  1  0  0  0  0  0  0  0  0  0
    7.6915   -1.6573    0.5943 O   0  0  0  0  0  0  0  0  0  0  0  0
    5.3394   -2.3840   -0.0237 C   0  0  2  0  0  0  0  0  0  0  0  0
    5.9431   -2.9212   -1.3748 C   0  0  0  0  0  0  0  0  0  0  0  0
    6.8620   -2.2606   -1.9209 O   0  0  0  0  0  0  0  0  0  0  0  0
    5.4300   -3.9182   -1.9155 O   0  0  0  0  0  0  0  0  0  0  0  0
    5.1370   -3.4858    1.1408 C   0  0  1  0  0  0  0  0  0  0  0  0
    6.1532   -4.6335    1.0491 C   0  0  0  0  0  0  0  0  0  0  0  0
    7.3792   -4.7114    1.0330 O   0  0  0  0  0  0  0  0  0  0  0  0
    5.2050   -5.6224    1.0173 O   0  0  0  0  0  0  0  0  0  0  0  0
    4.1088   -4.6552    1.1414 C   0  0  1  0  0  0  0  0  0  0  0  0
    3.1306   -4.9585   -0.0070 C   0  0  0  0  0  0  0  0  0  0  0  0
    4.5790   -0.1328   -1.7655 H   0  0  0  0  0  0  0  0  0  0  0  0
    2.8754   -0.6646   -1.9431 H   0  0  0  0  0  0  0  0  0  0  0  0
    4.1032   -1.6135   -2.6150 H   0  0  0  0  0  0  0  0  0  0  0  0
    3.2469   -2.5394   -0.5410 H   0  0  0  0  0  0  0  0  0  0  0  0
    3.7296    0.1514    0.6144 H   0  0  0  0  0  0  0  0  0  0  0  0
    2.2521   -0.7288    0.4964 H   0  0  0  0  0  0  0  0  0  0  0  0
    3.0858   -0.4601    2.7084 H   0  0  0  0  0  0  0  0  0  0  0  0
    1.4558   -1.9293    2.7576 H   0  0  0  0  0  0  0  0  0  0  0  0
    1.4139   -4.1516    3.0080 H   0  0  0  0  0  0  0  0  0  0  0  0
    3.3403   -6.7722    2.4213 H   0  0  0  0  0  0  0  0  0  0  0  0
    3.7292   -4.9217    4.6017 H   0  0  0  0  0  0  0  0  0  0  0  0
    5.6981   -6.1171    2.9692 H   0  0  0  0  0  0  0  0  0  0  0  0
    5.1048   -3.2076    4.6735 H   0  0  0  0  0  0  0  0  0  0  0  0
    4.8890    0.2545    4.0170 H   0  0  0  0  0  0  0  0  0  0  0  0
    5.9538   -1.0005    4.5767 H   0  0  0  0  0  0  0  0  0  0  0  0
    4.2111   -1.1975    4.7503 H   0  0  0  0  0  0  0  0  0  0  0  0
    5.5934    0.3393    1.6757 H   0  0  0  0  0  0  0  0  0  0  0  0
    6.8566   -0.5889    2.4582 H   0  0  0  0  0  0  0  0  0  0  0  0
    6.3087   -0.4618   -0.2391 H   0  0  0  0  0  0  0  0  0  0  0  0
    7.7321   -2.4627    1.1128 H   0  0  0  0  0  0  0  0  0  0  0  0
    2.2005   -4.3899    0.1072 H   0  0  0  0  0  0  0  0  0  0  0  0
    2.8902   -6.0261   -0.0511 H   0  0  0  0  0  0  0  0  0  0  0  0
    3.5236   -4.6873   -0.9727 H   0  0  0  0  0  0  0  0  0  0  0  0
  1  2  1  0
  1 28  1  0
  1 29  1  0
  1 30  1  0
  2 18  1  0
  2  3  1  0
  2 31  1  6
  3  4  1  0
  3 32  1  0
  3 33  1  0
  4 13  1  0
  4  5  1  0
  4 34  1  1
  5  6  2  3
  5 35  1  0
  6  7  1  0
  6 36  1  0
  7 26  1  0
  7  8  1  6
  7  9  1  0
  8 37  1  0
  9 10  1  0
  9 11  1  0
  9 38  1  1
 10 39  1  0
 11 12  2  0
 11 40  1  0
 12 22  1  0
 12 13  1  0
 13 14  1  1
 13 15  1  0
 14 41  1  0
 14 42  1  0
 14 43  1  0
 15 16  1  0
 15 44  1  0
 15 45  1  0
 16 17  1  0
 16 18  1  0
 16 46  1  6
 17 47  1  0
 18 19  1  6
 18 22  1  0
 19 20  2  0
 19 21  1  0
 22 26  1  0
 22 23  1  6
 23 24  2  0
 23 25  1  0
 25 26  1  0
 26 27  1  6
 27 48  1  0
 27 49  1  0
 27 50  1  0
M  CHG  1  21  -1
M  END
>  <i_m_ct_stereo_status>  (210) 
1

>  <s_m_source_file>  (210) 
/var/tmp/pbs.5076255.sched01/tmpj5h_4zim/74m36hq9q5.sdf

>  <i_m_source_file_index>  (210) 
27

>  <i_lp_mmshare_version>  (210) 
48012

>  <i_f3d_flags>  (210) 
0

>  <s_epik_input>  (210) 
W0NIMl0xW0NAQEhdKFtPSF0pW0NAXTIoQyg9TylbT0hdKVtDQEhdKFtDSDNdKVtDSDJdW0NIXShbQ0BdMShDM1tDQEBdMjQ1KVtDSDNdKS9bQ0hdPVtDSF1cW0NAXShbT0hdKShbQ0BASF0oW09IXSlbQ0hdPTMpW0NAXTUoW0NIM10pT0M0PU8=

>  <s_epik_cmdline>  (210) 
J2VwaWtfcHl0aG9uJywgJy1waHQnLCAnMi4wJywgJy1waCcsICc3LjAnLCAnLXRuJywgJzgnLCAnLW1hJywgJzIwMCcsICctaW1hZScsICc8aW5maWxlLm1hZT4nLCAnLW9tYWUnLCAnPG91dGZpbGUubWFlPic=

>  <r_epik_Ionization_Penalty>  (210) 
0.000529761

>  <r_epik_Ionization_Penalty_Charging>  (210) 
0.00052665

>  <r_epik_Ionization_Penalty_Neutral>  (210) 
3.1114e-06

>  <r_epik_State_Penalty>  (210) 
0.000328802

>  <r_epik_Charging_Adjusted_Penalty>  (210) 
0.000855452

>  <i_epik_Tot_Q>  (210) 
-1

>  <i_epik_Tot_abs_Q>  (210) 
1

>  <s_epik_Chemistry_Notes>  (210) 
This compound has an ester and may undergo hydrolysis at high or low pH.

>  <s_lp_Force_Field>  (210) 
OPLS3e

>  <r_lp_Energy>  (210) 
98.9845

>  <b_lp_Chiralities_Consistent>  (210) 
1

>  <s_lp_Variant>  (210) 
82:0-1

>  <s_i_glide_gridfile>  (210) 
pfpi4k_grid

>  <i_i_glide_lignum>  (210) 
27

>  <i_i_glide_rotatable_bonds>  (210) 
4

>  <r_i_docking_score>  (210) 
-3.32554

>  <r_i_glide_ligand_efficiency>  (210) 
-0.123168

>  <r_i_glide_ligand_efficiency_sa>  (210) 
-0.369504

>  <r_i_glide_ligand_efficiency_ln>  (210) 
-0.77413

>  <r_i_glide_gscore>  (210) 
-3.32554

>  <r_i_glide_lipo>  (210) 
-0.407919

>  <r_i_glide_hbond>  (210) 
-0.2

>  <r_i_glide_metal>  (210) 
-0

>  <r_i_glide_rewards>  (210) 
-1.5122

>  <r_i_glide_evdw>  (210) 
-18.2551

>  <r_i_glide_ecoul>  (210) 
-1.95112

>  <r_i_glide_erotb>  (210) 
0

>  <r_i_glide_esite>  (210) 
0

>  <r_i_glide_emodel>  (210) 
-30.625

>  <r_i_glide_energy>  (210) 
-20.2062

>  <r_i_glide_einternal>  (210) 
1.20092

>  <r_i_glide_intrahb_reward>  (210) 
-0.5

>  <i_i_glide_confnum>  (210) 
1

>  <i_i_glide_posenum>  (210) 
1

>  <r_i_glide_eff_state_penalty>  (210) 
0

>  <ligand_id>  (210) 
82

>  <original_smiles>  (210) 
CC1CC2C=CC3(O)C(O)C=C4C2(C)CC(O)C1(C(=O)O)C41C(=O)OC31C

>  <smiles>  (210) 
[H]OC1([H])C([H])=C2C34C(=O)OC3(C([H])([H])[H])C1(O[H])C([H])=C([H])C1([H])C([H])([H])C([H])(C([H])([H])[H])C4(C(=O)[O-])C([H])(O[H])C([H])([H])C21C([H])([H])[H]

$$$$
82:1:0
     RDKit          3D

 50 54  0  0  1  0  0  0  0  0999 V2000
    1.3038   -0.9369    6.5353 C   0  0  0  0  0  0  0  0  0  0  0  0
    1.0579    0.5454    6.1670 C   0  0  2  0  0  0  0  0  0  0  0  0
    1.9515    1.3893    7.1236 C   0  0  0  0  0  0  0  0  0  0  0  0
    1.7996    2.9293    7.1922 C   0  0  1  0  0  0  0  0  0  0  0  0
    2.4759    3.7248    6.0396 C   0  0  0  0  0  0  0  0  0  0  0  0
    2.3923    3.3217    4.7469 C   0  0  0  0  0  0  0  0  0  0  0  0
    1.2858    3.7992    3.7540 C   0  0  2  0  0  0  0  0  0  0  0  0
    1.8778    4.0236    2.4816 O   0  0  0  0  0  0  0  0  0  0  0  0
    0.5594    5.1142    4.2041 C   0  0  1  0  0  0  0  0  0  0  0  0
   -0.3726    5.6475    3.2751 O   0  0  0  0  0  0  0  0  0  0  0  0
   -0.1234    4.9096    5.5441 C   0  0  0  0  0  0  0  0  0  0  0  0
   -0.2800    3.6601    6.0545 C   0  0  0  0  0  0  0  0  0  0  0  0
    0.3109    3.4016    7.4453 C   0  0  2  0  0  0  0  0  0  0  0  0
    0.3557    4.6539    8.3640 C   0  0  0  0  0  0  0  0  0  0  0  0
   -0.5517    2.3918    8.2177 C   0  0  0  0  0  0  0  0  0  0  0  0
   -1.1159    1.2434    7.3785 C   0  0  1  0  0  0  0  0  0  0  0  0
   -2.5264    1.4399    7.3179 O   0  0  0  0  0  0  0  0  0  0  0  0
   -0.4407    1.0261    5.9777 C   0  0  2  0  0  0  0  0  0  0  0  0
   -1.2458   -0.1822    5.3148 C   0  0  0  0  0  0  0  0  0  0  0  0
   -1.4173   -0.2359    4.0852 O   0  0  0  0  0  0  0  0  0  0  0  0
   -1.6919   -1.0820    6.0649 O   0  0  0  0  0  0  0  0  0  0  0  0
   -0.4310    2.3987    5.1401 C   0  0  1  0  0  0  0  0  0  0  0  0
   -1.6940    2.7258    4.3040 C   0  0  0  0  0  0  0  0  0  0  0  0
   -2.8913    2.8606    4.5428 O   0  0  0  0  0  0  0  0  0  0  0  0
   -1.0059    2.9709    3.1518 O   0  0  0  0  0  0  0  0  0  0  0  0
    0.2787    2.6105    3.7463 C   0  0  1  0  0  0  0  0  0  0  0  0
    0.7785    1.4805    2.8021 C   0  0  0  0  0  0  0  0  0  0  0  0
    0.7973   -1.2237    7.4558 H   0  0  0  0  0  0  0  0  0  0  0  0
    2.3699   -1.1120    6.6836 H   0  0  0  0  0  0  0  0  0  0  0  0
    0.9970   -1.6151    5.7382 H   0  0  0  0  0  0  0  0  0  0  0  0
    1.5220    0.6163    5.1953 H   0  0  0  0  0  0  0  0  0  0  0  0
    1.8103    1.0064    8.1347 H   0  0  0  0  0  0  0  0  0  0  0  0
    3.0005    1.1684    6.9187 H   0  0  0  0  0  0  0  0  0  0  0  0
    2.3746    3.2240    8.0714 H   0  0  0  0  0  0  0  0  0  0  0  0
    2.3099    4.7768    6.2117 H   0  0  0  0  0  0  0  0  0  0  0  0
    2.5907    2.2779    4.5974 H   0  0  0  0  0  0  0  0  0  0  0  0
    1.1760    4.1322    1.8241 H   0  0  0  0  0  0  0  0  0  0  0  0
    1.3469    5.8592    4.3527 H   0  0  0  0  0  0  0  0  0  0  0  0
   -0.0764    5.4382    2.3913 H   0  0  0  0  0  0  0  0  0  0  0  0
    0.0764    5.7524    6.1790 H   0  0  0  0  0  0  0  0  0  0  0  0
    0.6233    4.3657    9.3826 H   0  0  0  0  0  0  0  0  0  0  0  0
   -0.6241    5.1324    8.4210 H   0  0  0  0  0  0  0  0  0  0  0  0
    1.0870    5.4030    8.0544 H   0  0  0  0  0  0  0  0  0  0  0  0
    0.0254    1.9934    9.0528 H   0  0  0  0  0  0  0  0  0  0  0  0
   -1.3779    2.9156    8.7028 H   0  0  0  0  0  0  0  0  0  0  0  0
   -0.9501    0.3495    7.9772 H   0  0  0  0  0  0  0  0  0  0  0  0
   -2.7064    2.1996    6.7829 H   0  0  0  0  0  0  0  0  0  0  0  0
    1.7384    1.0654    3.1092 H   0  0  0  0  0  0  0  0  0  0  0  0
    0.8964    1.8538    1.7810 H   0  0  0  0  0  0  0  0  0  0  0  0
    0.0921    0.6551    2.6783 H   0  0  0  0  0  0  0  0  0  0  0  0
  1  2  1  0
  1 28  1  0
  1 29  1  0
  1 30  1  0
  2 18  1  0
  2  3  1  0
  2 31  1  6
  3  4  1  0
  3 32  1  0
  3 33  1  0
  4 13  1  0
  4  5  1  0
  4 34  1  1
  5  6  2  3
  5 35  1  0
  6  7  1  0
  6 36  1  0
  7 26  1  0
  7  8  1  6
  7  9  1  0
  8 37  1  0
  9 10  1  0
  9 11  1  0
  9 38  1  1
 10 39  1  0
 11 12  2  0
 11 40  1  0
 12 22  1  0
 12 13  1  0
 13 14  1  1
 13 15  1  0
 14 41  1  0
 14 42  1  0
 14 43  1  0
 15 16  1  0
 15 44  1  0
 15 45  1  0
 16 17  1  0
 16 18  1  0
 16 46  1  1
 17 47  1  0
 18 19  1  6
 18 22  1  0
 19 20  2  0
 19 21  1  0
 22 26  1  0
 22 23  1  6
 23 24  2  0
 23 25  1  0
 25 26  1  0
 26 27  1  6
 27 48  1  0
 27 49  1  0
 27 50  1  0
M  CHG  1  21  -1
M  END
>  <i_m_ct_stereo_status>  (211) 
1

>  <s_m_source_file>  (211) 
/var/tmp/pbs.5076255.sched01/tmpj5h_4zim/74m36hq9q5.sdf

>  <i_m_source_file_index>  (211) 
28

>  <i_lp_mmshare_version>  (211) 
48012

>  <i_f3d_flags>  (211) 
0

>  <s_epik_input>  (211) 
W0NIMl0xW0NAQEhdKFtPSF0pW0NAXTIoQyg9TylbT0hdKVtDQEhdKFtDSDNdKVtDSDJdW0NIXShbQ0BdMShDM1tDQEBdMjQ1KVtDSDNdKS9bQ0hdPVtDSF1cW0NAXShbT0hdKShbQ0BASF0oW09IXSlbQ0hdPTMpW0NAXTUoW0NIM10pT0M0PU8=

>  <s_epik_cmdline>  (211) 
J2VwaWtfcHl0aG9uJywgJy1waHQnLCAnMi4wJywgJy1waCcsICc3LjAnLCAnLXRuJywgJzgnLCAnLW1hJywgJzIwMCcsICctaW1hZScsICc8aW5maWxlLm1hZT4nLCAnLW9tYWUnLCAnPG91dGZpbGUubWFlPic=

>  <r_epik_Ionization_Penalty>  (211) 
0.000529761

>  <r_epik_Ionization_Penalty_Charging>  (211) 
0.00052665

>  <r_epik_Ionization_Penalty_Neutral>  (211) 
3.1114e-06

>  <r_epik_State_Penalty>  (211) 
0.000328802

>  <r_epik_Charging_Adjusted_Penalty>  (211) 
0.000855452

>  <i_epik_Tot_Q>  (211) 
-1

>  <i_epik_Tot_abs_Q>  (211) 
1

>  <s_epik_Chemistry_Notes>  (211) 
This compound has an ester and may undergo hydrolysis at high or low pH.

>  <s_lp_Force_Field>  (211) 
OPLS3e

>  <r_lp_Energy>  (211) 
130.928

>  <b_lp_Chiralities_Consistent>  (211) 
1

>  <s_lp_Variant>  (211) 
82:0-2

>  <s_i_glide_gridfile>  (211) 
pfpi4k_grid

>  <i_i_glide_lignum>  (211) 
28

>  <i_i_glide_rotatable_bonds>  (211) 
4

>  <r_i_docking_score>  (211) 
-4.10839

>  <r_i_glide_ligand_efficiency>  (211) 
-0.152163

>  <r_i_glide_ligand_efficiency_sa>  (211) 
-0.456488

>  <r_i_glide_ligand_efficiency_ln>  (211) 
-0.956365

>  <r_i_glide_gscore>  (211) 
-4.10839

>  <r_i_glide_lipo>  (211) 
0

>  <r_i_glide_hbond>  (211) 
-0.084719

>  <r_i_glide_metal>  (211) 
-0

>  <r_i_glide_rewards>  (211) 
-1.3496

>  <r_i_glide_evdw>  (211) 
-14.452

>  <r_i_glide_ecoul>  (211) 
-12.5637

>  <r_i_glide_erotb>  (211) 
0

>  <r_i_glide_esite>  (211) 
-0.0669139

>  <r_i_glide_emodel>  (211) 
-44.5376

>  <r_i_glide_energy>  (211) 
-27.0157

>  <r_i_glide_einternal>  (211) 
1.82838

>  <r_i_glide_intrahb_reward>  (211) 
-0.5

>  <i_i_glide_confnum>  (211) 
1

>  <i_i_glide_posenum>  (211) 
17

>  <r_i_glide_eff_state_penalty>  (211) 
0

>  <ligand_id>  (211) 
82

>  <original_smiles>  (211) 
CC1CC2C=CC3(O)C(O)C=C4C2(C)CC(O)C1(C(=O)O)C41C(=O)OC31C

>  <smiles>  (211) 
[H]OC1([H])C([H])=C2C34C(=O)OC3(C([H])([H])[H])C1(O[H])C([H])=C([H])C1([H])C([H])([H])C([H])(C([H])([H])[H])C4(C(=O)[O-])C([H])(O[H])C([H])([H])C21C([H])([H])[H]

$$$$
82:1:1
     RDKit          3D

 50 54  0  0  1  0  0  0  0  0999 V2000
    1.2618   -1.8681    6.0275 C   0  0  0  0  0  0  0  0  0  0  0  0
    1.2209   -0.3471    5.7515 C   0  0  2  0  0  0  0  0  0  0  0  0
    2.3908    0.2790    6.5702 C   0  0  0  0  0  0  0  0  0  0  0  0
    2.5199    1.8159    6.7087 C   0  0  1  0  0  0  0  0  0  0  0  0
    3.1317    2.5501    5.4878 C   0  0  0  0  0  0  0  0  0  0  0  0
    2.7670    2.2420    4.2178 C   0  0  0  0  0  0  0  0  0  0  0  0
    1.6202    2.9563    3.4399 C   0  0  2  0  0  0  0  0  0  0  0  0
    2.0386    3.1478    2.1038 O   0  0  0  0  0  0  0  0  0  0  0  0
    1.2272    4.3555    4.0335 C   0  0  1  0  0  0  0  0  0  0  0  0
    0.2907    5.1211    3.2802 O   0  0  0  0  0  0  0  0  0  0  0  0
    0.7318    4.1889    5.4589 C   0  0  0  0  0  0  0  0  0  0  0  0
    0.4422    2.9583    5.9592 C   0  0  0  0  0  0  0  0  0  0  0  0
    1.2014    2.5183    7.2201 C   0  0  2  0  0  0  0  0  0  0  0  0
    1.6105    3.6862    8.1578 C   0  0  0  0  0  0  0  0  0  0  0  0
    0.3062    1.6217    8.0939 C   0  0  0  0  0  0  0  0  0  0  0  0
   -0.5752    0.6346    7.3236 C   0  0  1  0  0  0  0  0  0  0  0  0
   -1.9132    1.0807    7.4999 O   0  0  0  0  0  0  0  0  0  0  0  0
   -0.1863    0.3855    5.8230 C   0  0  2  0  0  0  0  0  0  0  0  0
   -1.2826   -0.6196    5.2839 C   0  0  0  0  0  0  0  0  0  0  0  0
   -1.6800   -1.5255    6.0654 O   0  0  0  0  0  0  0  0  0  0  0  0
   -1.7406   -0.5470    4.1251 O   0  0  0  0  0  0  0  0  0  0  0  0
   -0.0739    1.7897    5.0482 C   0  0  1  0  0  0  0  0  0  0  0  0
   -1.3858    2.3614    4.4531 C   0  0  0  0  0  0  0  0  0  0  0  0
   -2.5016    2.6229    4.8819 O   0  0  0  0  0  0  0  0  0  0  0  0
   -0.8510    2.5866    3.2074 O   0  0  0  0  0  0  0  0  0  0  0  0
    0.4261    1.9644    3.5602 C   0  0  1  0  0  0  0  0  0  0  0  0
    0.5538    0.8149    2.5196 C   0  0  0  0  0  0  0  0  0  0  0  0
    0.8651   -2.1191    7.0103 H   0  0  0  0  0  0  0  0  0  0  0  0
    2.2880   -2.2337    5.9905 H   0  0  0  0  0  0  0  0  0  0  0  0
    0.7146   -2.4369    5.2741 H   0  0  0  0  0  0  0  0  0  0  0  0
    1.5313   -0.2947    4.7172 H   0  0  0  0  0  0  0  0  0  0  0  0
    2.3458   -0.1338    7.5774 H   0  0  0  0  0  0  0  0  0  0  0  0
    3.3361   -0.1043    6.1854 H   0  0  0  0  0  0  0  0  0  0  0  0
    3.2724    1.9564    7.4835 H   0  0  0  0  0  0  0  0  0  0  0  0
    3.1833    3.6055    5.7107 H   0  0  0  0  0  0  0  0  0  0  0  0
    2.7567    1.1889    3.9944 H   0  0  0  0  0  0  0  0  0  0  0  0
    1.2978    3.5089    1.6115 H   0  0  0  0  0  0  0  0  0  0  0  0
    2.1547    4.9342    4.0812 H   0  0  0  0  0  0  0  0  0  0  0  0
    0.3189    4.8781    2.3477 H   0  0  0  0  0  0  0  0  0  0  0  0
    1.1712    4.9451    6.0807 H   0  0  0  0  0  0  0  0  0  0  0  0
    1.9847    3.3028    9.1082 H   0  0  0  0  0  0  0  0  0  0  0  0
    0.7528    4.3174    8.3947 H   0  0  0  0  0  0  0  0  0  0  0  0
    2.4005    4.3201    7.7531 H   0  0  0  0  0  0  0  0  0  0  0  0
    0.9304    1.0811    8.8130 H   0  0  0  0  0  0  0  0  0  0  0  0
   -0.3297    2.2461    8.7290 H   0  0  0  0  0  0  0  0  0  0  0  0
   -0.4890   -0.3063    7.8627 H   0  0  0  0  0  0  0  0  0  0  0  0
   -2.0191    1.9245    7.0803 H   0  0  0  0  0  0  0  0  0  0  0  0
    1.4649    0.2277    2.6482 H   0  0  0  0  0  0  0  0  0  0  0  0
    0.5718    1.2154    1.4970 H   0  0  0  0  0  0  0  0  0  0  0  0
   -0.2848    0.1220    2.5180 H   0  0  0  0  0  0  0  0  0  0  0  0
  1  2  1  0
  1 28  1  0
  1 29  1  0
  1 30  1  0
  2 18  1  0
  2  3  1  0
  2 31  1  6
  3  4  1  0
  3 32  1  0
  3 33  1  0
  4 13  1  0
  4  5  1  0
  4 34  1  1
  5  6  2  3
  5 35  1  0
  6  7  1  0
  6 36  1  0
  7 26  1  0
  7  8  1  6
  7  9  1  0
  8 37  1  0
  9 10  1  0
  9 11  1  0
  9 38  1  1
 10 39  1  0
 11 12  2  0
 11 40  1  0
 12 22  1  0
 12 13  1  0
 13 14  1  1
 13 15  1  0
 14 41  1  0
 14 42  1  0
 14 43  1  0
 15 16  1  0
 15 44  1  0
 15 45  1  0
 16 17  1  0
 16 18  1  0
 16 46  1  1
 17 47  1  0
 18 19  1  6
 18 22  1  0
 19 20  2  0
 19 21  1  0
 22 26  1  0
 22 23  1  6
 23 24  2  0
 23 25  1  0
 25 26  1  0
 26 27  1  6
 27 48  1  0
 27 49  1  0
 27 50  1  0
M  CHG  1  21  -1
M  END
>  <i_m_ct_stereo_status>  (212) 
1

>  <s_m_source_file>  (212) 
/var/tmp/pbs.5076255.sched01/tmpj5h_4zim/74m36hq9q5.sdf

>  <i_m_source_file_index>  (212) 
28

>  <i_lp_mmshare_version>  (212) 
48012

>  <i_f3d_flags>  (212) 
0

>  <s_epik_input>  (212) 
W0NIMl0xW0NAQEhdKFtPSF0pW0NAXTIoQyg9TylbT0hdKVtDQEhdKFtDSDNdKVtDSDJdW0NIXShbQ0BdMShDM1tDQEBdMjQ1KVtDSDNdKS9bQ0hdPVtDSF1cW0NAXShbT0hdKShbQ0BASF0oW09IXSlbQ0hdPTMpW0NAXTUoW0NIM10pT0M0PU8=

>  <s_epik_cmdline>  (212) 
J2VwaWtfcHl0aG9uJywgJy1waHQnLCAnMi4wJywgJy1waCcsICc3LjAnLCAnLXRuJywgJzgnLCAnLW1hJywgJzIwMCcsICctaW1hZScsICc8aW5maWxlLm1hZT4nLCAnLW9tYWUnLCAnPG91dGZpbGUubWFlPic=

>  <r_epik_Ionization_Penalty>  (212) 
0.000529761

>  <r_epik_Ionization_Penalty_Charging>  (212) 
0.00052665

>  <r_epik_Ionization_Penalty_Neutral>  (212) 
3.1114e-06

>  <r_epik_State_Penalty>  (212) 
0.000328802

>  <r_epik_Charging_Adjusted_Penalty>  (212) 
0.000855452

>  <i_epik_Tot_Q>  (212) 
-1

>  <i_epik_Tot_abs_Q>  (212) 
1

>  <s_epik_Chemistry_Notes>  (212) 
This compound has an ester and may undergo hydrolysis at high or low pH.

>  <s_lp_Force_Field>  (212) 
OPLS3e

>  <r_lp_Energy>  (212) 
130.928

>  <b_lp_Chiralities_Consistent>  (212) 
1

>  <s_lp_Variant>  (212) 
82:0-2

>  <s_i_glide_gridfile>  (212) 
pfpi4k_grid

>  <i_i_glide_lignum>  (212) 
28

>  <i_i_glide_rotatable_bonds>  (212) 
4

>  <r_i_docking_score>  (212) 
-3.97866

>  <r_i_glide_ligand_efficiency>  (212) 
-0.147358

>  <r_i_glide_ligand_efficiency_sa>  (212) 
-0.442073

>  <r_i_glide_ligand_efficiency_ln>  (212) 
-0.926166

>  <r_i_glide_gscore>  (212) 
-3.97866

>  <r_i_glide_lipo>  (212) 
0

>  <r_i_glide_hbond>  (212) 
-0.06833

>  <r_i_glide_metal>  (212) 
-0

>  <r_i_glide_rewards>  (212) 
-1.3496

>  <r_i_glide_evdw>  (212) 
-12.1152

>  <r_i_glide_ecoul>  (212) 
-12.6057

>  <r_i_glide_erotb>  (212) 
0

>  <r_i_glide_esite>  (212) 
-0.0641208

>  <r_i_glide_emodel>  (212) 
-42.161

>  <r_i_glide_energy>  (212) 
-24.7209

>  <r_i_glide_einternal>  (212) 
1.22517

>  <r_i_glide_intrahb_reward>  (212) 
-0.5

>  <i_i_glide_confnum>  (212) 
2

>  <i_i_glide_posenum>  (212) 
1

>  <r_i_glide_eff_state_penalty>  (212) 
0

>  <ligand_id>  (212) 
82

>  <original_smiles>  (212) 
CC1CC2C=CC3(O)C(O)C=C4C2(C)CC(O)C1(C(=O)O)C41C(=O)OC31C

>  <smiles>  (212) 
[H]OC1([H])C([H])=C2C34C(=O)OC3(C([H])([H])[H])C1(O[H])C([H])=C([H])C1([H])C([H])([H])C([H])(C([H])([H])[H])C4(C(=O)[O-])C([H])(O[H])C([H])([H])C21C([H])([H])[H]

$$$$
82:1:2
     RDKit          3D

 50 54  0  0  1  0  0  0  0  0999 V2000
   -2.1592    2.7511    3.0959 C   0  0  0  0  0  0  0  0  0  0  0  0
   -0.9166    1.9796    3.6249 C   0  0  2  0  0  0  0  0  0  0  0  0
   -1.3429    0.4875    3.6498 C   0  0  0  0  0  0  0  0  0  0  0  0
   -0.4517   -0.5885    4.3094 C   0  0  1  0  0  0  0  0  0  0  0  0
    0.7610   -1.0552    3.4626 C   0  0  0  0  0  0  0  0  0  0  0  0
    1.5207   -0.1742    2.7708 C   0  0  0  0  0  0  0  0  0  0  0  0
    2.8104    0.4718    3.3454 C   0  0  2  0  0  0  0  0  0  0  0  0
    3.7685    0.5420    2.3096 O   0  0  0  0  0  0  0  0  0  0  0  0
    3.4179   -0.2967    4.5723 C   0  0  1  0  0  0  0  0  0  0  0  0
    4.6794    0.1566    5.0237 O   0  0  0  0  0  0  0  0  0  0  0  0
    2.4278   -0.3253    5.7258 C   0  0  0  0  0  0  0  0  0  0  0  0
    1.3211    0.4627    5.6959 C   0  0  0  0  0  0  0  0  0  0  0  0
   -0.0435   -0.2330    5.7968 C   0  0  2  0  0  0  0  0  0  0  0  0
   -0.0147   -1.5578    6.6089 C   0  0  0  0  0  0  0  0  0  0  0  0
   -1.0567    0.6679    6.5297 C   0  0  0  0  0  0  0  0  0  0  0  0
   -0.9711    2.1660    6.1995 C   0  0  1  0  0  0  0  0  0  0  0  0
   -0.5153    2.8131    7.3782 O   0  0  0  0  0  0  0  0  0  0  0  0
   -0.1505    2.5295    4.9104 C   0  0  2  0  0  0  0  0  0  0  0  0
   -0.1657    4.1157    4.8414 C   0  0  0  0  0  0  0  0  0  0  0  0
   -1.2851    4.6751    4.9177 O   0  0  0  0  0  0  0  0  0  0  0  0
    0.8821    4.7911    4.7711 O   0  0  0  0  0  0  0  0  0  0  0  0
    1.3131    1.8527    4.9811 C   0  0  1  0  0  0  0  0  0  0  0  0
    2.4276    2.6337    5.7134 C   0  0  0  0  0  0  0  0  0  0  0  0
    2.5591    3.1473    6.8245 O   0  0  0  0  0  0  0  0  0  0  0  0
    3.3388    2.5052    4.6998 O   0  0  0  0  0  0  0  0  0  0  0  0
    2.3499    1.8900    3.8035 C   0  0  1  0  0  0  0  0  0  0  0  0
    2.2391    2.8857    2.6141 C   0  0  0  0  0  0  0  0  0  0  0  0
   -2.9281    2.8714    3.8610 H   0  0  0  0  0  0  0  0  0  0  0  0
   -2.6184    2.2394    2.2479 H   0  0  0  0  0  0  0  0  0  0  0  0
   -1.8903    3.7358    2.7114 H   0  0  0  0  0  0  0  0  0  0  0  0
   -0.2369    2.0826    2.7937 H   0  0  0  0  0  0  0  0  0  0  0  0
   -2.3062    0.4334    4.1517 H   0  0  0  0  0  0  0  0  0  0  0  0
   -1.5520    0.1790    2.6237 H   0  0  0  0  0  0  0  0  0  0  0  0
   -1.0831   -1.4781    4.3502 H   0  0  0  0  0  0  0  0  0  0  0  0
    1.2995   -1.8058    4.0210 H   0  0  0  0  0  0  0  0  0  0  0  0
    0.9756    0.5466    2.1913 H   0  0  0  0  0  0  0  0  0  0  0  0
    4.0842    1.4398    2.2647 H   0  0  0  0  0  0  0  0  0  0  0  0
    3.5681   -1.3293    4.2597 H   0  0  0  0  0  0  0  0  0  0  0  0
    4.6094    1.0899    5.1926 H   0  0  0  0  0  0  0  0  0  0  0  0
    2.3977   -1.3113    6.1512 H   0  0  0  0  0  0  0  0  0  0  0  0
   -1.0244   -1.9320    6.7795 H   0  0  0  0  0  0  0  0  0  0  0  0
    0.4439   -1.4064    7.5885 H   0  0  0  0  0  0  0  0  0  0  0  0
    0.5187   -2.3674    6.1065 H   0  0  0  0  0  0  0  0  0  0  0  0
   -2.0662    0.3096    6.3352 H   0  0  0  0  0  0  0  0  0  0  0  0
   -0.9332    0.5393    7.6051 H   0  0  0  0  0  0  0  0  0  0  0  0
   -1.9945    2.5201    6.0691 H   0  0  0  0  0  0  0  0  0  0  0  0
    0.4091    2.6268    7.4991 H   0  0  0  0  0  0  0  0  0  0  0  0
    1.5745    2.5467    1.8233 H   0  0  0  0  0  0  0  0  0  0  0  0
    3.2020    3.0505    2.1438 H   0  0  0  0  0  0  0  0  0  0  0  0
    1.9088    3.8769    2.8961 H   0  0  0  0  0  0  0  0  0  0  0  0
  1  2  1  0
  1 28  1  0
  1 29  1  0
  1 30  1  0
  2 18  1  0
  2  3  1  0
  2 31  1  6
  3  4  1  0
  3 32  1  0
  3 33  1  0
  4 13  1  0
  4  5  1  0
  4 34  1  1
  5  6  2  3
  5 35  1  0
  6  7  1  0
  6 36  1  0
  7 26  1  0
  7  8  1  6
  7  9  1  0
  8 37  1  0
  9 10  1  0
  9 11  1  0
  9 38  1  6
 10 39  1  0
 11 12  2  0
 11 40  1  0
 12 22  1  0
 12 13  1  0
 13 14  1  1
 13 15  1  0
 14 41  1  0
 14 42  1  0
 14 43  1  0
 15 16  1  0
 15 44  1  0
 15 45  1  0
 16 17  1  0
 16 18  1  0
 16 46  1  6
 17 47  1  0
 18 19  1  6
 18 22  1  0
 19 20  2  0
 19 21  1  0
 22 26  1  0
 22 23  1  1
 23 24  2  0
 23 25  1  0
 25 26  1  0
 26 27  1  6
 27 48  1  0
 27 49  1  0
 27 50  1  0
M  CHG  1  21  -1
M  END
>  <i_m_ct_stereo_status>  (213) 
1

>  <s_m_source_file>  (213) 
/var/tmp/pbs.5076255.sched01/tmpj5h_4zim/74m36hq9q5.sdf

>  <i_m_source_file_index>  (213) 
28

>  <i_lp_mmshare_version>  (213) 
48012

>  <i_f3d_flags>  (213) 
0

>  <s_epik_input>  (213) 
W0NIMl0xW0NAQEhdKFtPSF0pW0NAXTIoQyg9TylbT0hdKVtDQEhdKFtDSDNdKVtDSDJdW0NIXShbQ0BdMShDM1tDQEBdMjQ1KVtDSDNdKS9bQ0hdPVtDSF1cW0NAXShbT0hdKShbQ0BASF0oW09IXSlbQ0hdPTMpW0NAXTUoW0NIM10pT0M0PU8=

>  <s_epik_cmdline>  (213) 
J2VwaWtfcHl0aG9uJywgJy1waHQnLCAnMi4wJywgJy1waCcsICc3LjAnLCAnLXRuJywgJzgnLCAnLW1hJywgJzIwMCcsICctaW1hZScsICc8aW5maWxlLm1hZT4nLCAnLW9tYWUnLCAnPG91dGZpbGUubWFlPic=

>  <r_epik_Ionization_Penalty>  (213) 
0.000529761

>  <r_epik_Ionization_Penalty_Charging>  (213) 
0.00052665

>  <r_epik_Ionization_Penalty_Neutral>  (213) 
3.1114e-06

>  <r_epik_State_Penalty>  (213) 
0.000328802

>  <r_epik_Charging_Adjusted_Penalty>  (213) 
0.000855452

>  <i_epik_Tot_Q>  (213) 
-1

>  <i_epik_Tot_abs_Q>  (213) 
1

>  <s_epik_Chemistry_Notes>  (213) 
This compound has an ester and may undergo hydrolysis at high or low pH.

>  <s_lp_Force_Field>  (213) 
OPLS3e

>  <r_lp_Energy>  (213) 
130.928

>  <b_lp_Chiralities_Consistent>  (213) 
1

>  <s_lp_Variant>  (213) 
82:0-2

>  <s_i_glide_gridfile>  (213) 
pfpi4k_grid

>  <i_i_glide_lignum>  (213) 
28

>  <i_i_glide_rotatable_bonds>  (213) 
4

>  <r_i_docking_score>  (213) 
-3.39616

>  <r_i_glide_ligand_efficiency>  (213) 
-0.125784

>  <r_i_glide_ligand_efficiency_sa>  (213) 
-0.377352

>  <r_i_glide_ligand_efficiency_ln>  (213) 
-0.790571

>  <r_i_glide_gscore>  (213) 
-3.39616

>  <r_i_glide_lipo>  (213) 
-0.000130665

>  <r_i_glide_hbond>  (213) 
-0.0354675

>  <r_i_glide_metal>  (213) 
-0

>  <r_i_glide_rewards>  (213) 
-1.8496

>  <r_i_glide_evdw>  (213) 
-16.172

>  <r_i_glide_ecoul>  (213) 
-4.46942

>  <r_i_glide_erotb>  (213) 
0

>  <r_i_glide_esite>  (213) 
-0.031955

>  <r_i_glide_emodel>  (213) 
-40.8583

>  <r_i_glide_energy>  (213) 
-20.6414

>  <r_i_glide_einternal>  (213) 
1.48576

>  <r_i_glide_intrahb_reward>  (213) 
-1

>  <i_i_glide_confnum>  (213) 
1

>  <i_i_glide_posenum>  (213) 
8

>  <r_i_glide_eff_state_penalty>  (213) 
0

>  <ligand_id>  (213) 
82

>  <original_smiles>  (213) 
CC1CC2C=CC3(O)C(O)C=C4C2(C)CC(O)C1(C(=O)O)C41C(=O)OC31C

>  <smiles>  (213) 
[H]OC1([H])C([H])=C2C34C(=O)OC3(C([H])([H])[H])C1(O[H])C([H])=C([H])C1([H])C([H])([H])C([H])(C([H])([H])[H])C4(C(=O)[O-])C([H])(O[H])C([H])([H])C21C([H])([H])[H]

$$$$
83:0:0
     RDKit          3D

 49 51  0  0  1  0  0  0  0  0999 V2000
    3.2495   -1.0396   -2.8824 C   0  0  0  0  0  0  0  0  0  0  0  0
    4.3646   -2.0767   -2.7886 C   0  0  2  0  0  0  0  0  0  0  0  0
    3.8309   -3.4486   -2.3515 C   0  0  0  0  0  0  0  0  0  0  0  0
    3.3149   -3.4215   -0.9113 C   0  0  0  0  0  0  0  0  0  0  0  0
    4.3978   -2.9261    0.1194 C   0  0  2  0  0  0  0  0  0  0  0  0
    5.4726   -4.0651    0.2710 C   0  0  0  0  0  0  0  0  0  0  0  0
    6.5558   -3.9958   -0.2972 O   0  0  0  0  0  0  0  0  0  0  0  0
    5.0598   -5.1675    1.0176 O   0  0  0  0  0  0  0  0  0  0  0  0
    4.4000   -4.9479    2.2309 C   0  0  0  0  0  0  0  0  0  0  0  0
    3.8842   -6.2834    2.8007 C   0  0  0  0  0  0  0  0  0  0  0  0
    5.4448   -4.5696    3.3323 C   0  0  0  0  0  0  0  0  0  0  0  0
    3.3007   -4.0014    2.0558 N   0  0  0  0  0  0  0  0  0  0  0  0
    3.7192   -2.7155    1.4972 C   0  0  0  0  0  0  0  0  0  0  0  0
    2.5419   -1.7806    1.3638 C   0  0  0  0  0  0  0  0  0  0  0  0
    2.6808   -0.6959    2.4169 C   0  0  0  0  0  0  0  0  0  0  0  0
    4.1451   -0.5590    2.6694 C   0  0  0  0  0  0  0  0  0  0  0  0
    4.5992   -1.9923    2.5462 C   0  0  0  0  0  0  0  0  0  0  0  0
    5.0282   -1.5398   -0.3834 C   0  0  1  0  0  0  0  0  0  0  0  0
    6.2696   -1.0344    0.3823 C   0  0  0  0  0  0  0  0  0  0  0  0
    5.4589   -1.5949   -1.8427 C   0  0  0  0  0  0  0  0  0  0  0  0
    2.7292   -0.9125   -1.9302 H   0  0  0  0  0  0  0  0  0  0  0  0
    2.5103   -1.3497   -3.6131 H   0  0  0  0  0  0  0  0  0  0  0  0
    3.6418   -0.0622   -3.1556 H   0  0  0  0  0  0  0  0  0  0  0  0
    4.8073   -2.1706   -3.7779 H   0  0  0  0  0  0  0  0  0  0  0  0
    3.0236   -3.7543   -3.0175 H   0  0  0  0  0  0  0  0  0  0  0  0
    4.6057   -4.2092   -2.4319 H   0  0  0  0  0  0  0  0  0  0  0  0
    2.4162   -2.8148   -0.9246 H   0  0  0  0  0  0  0  0  0  0  0  0
    2.9332   -4.3982   -0.6128 H   0  0  0  0  0  0  0  0  0  0  0  0
    3.4247   -6.1071    3.7731 H   0  0  0  0  0  0  0  0  0  0  0  0
    4.7241   -6.9666    2.9652 H   0  0  0  0  0  0  0  0  0  0  0  0
    3.1548   -6.7492    2.1470 H   0  0  0  0  0  0  0  0  0  0  0  0
    4.9211   -4.2137    4.2177 H   0  0  0  0  0  0  0  0  0  0  0  0
    6.1674   -3.8782    2.9520 H   0  0  0  0  0  0  0  0  0  0  0  0
    6.1357   -5.3555    3.5986 H   0  0  0  0  0  0  0  0  0  0  0  0
    2.8338   -3.8097    2.9391 H   0  0  0  0  0  0  0  0  0  0  0  0
    2.5575   -1.2664    0.4152 H   0  0  0  0  0  0  0  0  0  0  0  0
    1.5841   -2.2998    1.3586 H   0  0  0  0  0  0  0  0  0  0  0  0
    2.2927    0.2554    2.0602 H   0  0  0  0  0  0  0  0  0  0  0  0
    2.2041   -1.0391    3.3216 H   0  0  0  0  0  0  0  0  0  0  0  0
    4.4673    0.1451    1.9076 H   0  0  0  0  0  0  0  0  0  0  0  0
    4.4740   -0.1675    3.6288 H   0  0  0  0  0  0  0  0  0  0  0  0
    4.4900   -2.3506    3.5507 H   0  0  0  0  0  0  0  0  0  0  0  0
    5.6364   -2.1479    2.3716 H   0  0  0  0  0  0  0  0  0  0  0  0
    4.3064   -0.7326   -0.3448 H   0  0  0  0  0  0  0  0  0  0  0  0
    6.9589   -1.8350    0.6424 H   0  0  0  0  0  0  0  0  0  0  0  0
    6.1448   -0.5925    1.3478 H   0  0  0  0  0  0  0  0  0  0  0  0
    6.6914   -0.1158    0.0038 H   0  0  0  0  0  0  0  0  0  0  0  0
    6.3419   -2.2213   -1.9215 H   0  0  0  0  0  0  0  0  0  0  0  0
    5.8018   -0.5978   -2.1225 H   0  0  0  0  0  0  0  0  0  0  0  0
  1  2  1  0
  1 21  1  0
  1 22  1  0
  1 23  1  0
  2 20  1  0
  2  3  1  0
  2 24  1  6
  3  4  1  0
  3 25  1  0
  3 26  1  0
  5  4  1  6
  4 27  1  0
  4 28  1  0
  5 13  1  0
  5  6  1  0
  5 18  1  0
  6  7  2  0
  6  8  1  0
  8  9  1  0
  9 10  1  0
  9 11  1  0
  9 12  1  0
 10 29  1  0
 10 30  1  0
 10 31  1  0
 11 32  1  0
 11 33  1  0
 11 34  1  0
 12 13  1  0
 12 35  1  0
 13 17  1  0
 13 14  1  0
 14 15  1  0
 14 36  1  0
 14 37  1  0
 15 16  1  0
 15 38  1  0
 15 39  1  0
 16 17  1  0
 16 40  1  0
 16 41  1  0
 17 42  1  0
 17 43  1  0
 18 19  1  0
 18 20  1  0
 18 44  1  6
 19 45  1  0
 19 46  1  0
 19 47  1  0
 20 48  1  0
 20 49  1  0
M  END
>  <i_m_ct_stereo_status>  (214) 
1

>  <s_m_source_file>  (214) 
/var/tmp/pbs.5076255.sched01/tmpj5h_4zim/74m36hq9q5.sdf

>  <i_m_source_file_index>  (214) 
29

>  <i_lp_mmshare_version>  (214) 
48012

>  <i_f3d_flags>  (214) 
0

>  <s_epik_input>  (214) 
W0NIM11bQ0BIXTFbQ0gyXVtDQEhdKFtDSDNdKVtDSDJdW0NIMl1bQ0BdMTJDMyhbTkhdQyhbQ0gzXSkoW0NIM10pT0MyPU8pW0NIMl1bQ0gyXVtDSDJdW0NIMl0z

>  <s_epik_cmdline>  (214) 
J2VwaWtfcHl0aG9uJywgJy1waHQnLCAnMi4wJywgJy1waCcsICc3LjAnLCAnLXRuJywgJzgnLCAnLW1hJywgJzIwMCcsICctaW1hZScsICc8aW5maWxlLm1hZT4nLCAnLW9tYWUnLCAnPG91dGZpbGUubWFlPic=

>  <r_epik_Ionization_Penalty>  (214) 
0.27607

>  <r_epik_Ionization_Penalty_Charging>  (214) 
0

>  <r_epik_Ionization_Penalty_Neutral>  (214) 
0.27607

>  <r_epik_State_Penalty>  (214) 
0.268433

>  <r_epik_Charging_Adjusted_Penalty>  (214) 
0.268433

>  <i_epik_Tot_Q>  (214) 
0

>  <i_epik_Tot_abs_Q>  (214) 
0

>  <s_epik_Chemistry_Notes>  (214) 
This compound has an ester and may undergo hydrolysis at high or low pH.

>  <s_lp_Force_Field>  (214) 
OPLS3e

>  <r_lp_Energy>  (214) 
45.6529

>  <b_lp_Chiralities_Consistent>  (214) 
1

>  <s_lp_Variant>  (214) 
83:0-1

>  <s_i_glide_gridfile>  (214) 
pfpi4k_grid

>  <i_i_glide_lignum>  (214) 
29

>  <i_i_glide_rotatable_bonds>  (214) 
0

>  <r_i_docking_score>  (214) 
-2.1328

>  <r_i_glide_ligand_efficiency>  (214) 
-0.10664

>  <r_i_glide_ligand_efficiency_sa>  (214) 
-0.289465

>  <r_i_glide_ligand_efficiency_ln>  (214) 
-0.533769

>  <r_i_glide_gscore>  (214) 
-2.1328

>  <r_i_glide_lipo>  (214) 
-0.301441

>  <r_i_glide_hbond>  (214) 
0

>  <r_i_glide_metal>  (214) 
-0

>  <r_i_glide_rewards>  (214) 
-1.59746

>  <r_i_glide_evdw>  (214) 
-22.0558

>  <r_i_glide_ecoul>  (214) 
-1.17612

>  <r_i_glide_erotb>  (214) 
0

>  <r_i_glide_esite>  (214) 
0

>  <r_i_glide_emodel>  (214) 
-20.0686

>  <r_i_glide_energy>  (214) 
-23.232

>  <r_i_glide_einternal>  (214) 
0

>  <r_i_glide_intrahb_reward>  (214) 
-0

>  <i_i_glide_confnum>  (214) 
5

>  <i_i_glide_posenum>  (214) 
12

>  <r_i_glide_eff_state_penalty>  (214) 
0

>  <ligand_id>  (214) 
83

>  <original_smiles>  (214) 
CC1CCC2(C(=O)OC(C)(C)NC23CCCC3)C(C)C1

>  <smiles>  (214) 
[H]N1C(C([H])([H])[H])(C([H])([H])[H])OC(=O)C2(C([H])([H])C([H])([H])C([H])(C([H])([H])[H])C([H])([H])C2([H])C([H])([H])[H])C12C([H])([H])C([H])([H])C([H])([H])C2([H])[H]

$$$$
83:0:1
     RDKit          3D

 49 51  0  0  1  0  0  0  0  0999 V2000
    3.9814   -1.0641   -3.3069 C   0  0  0  0  0  0  0  0  0  0  0  0
    4.0698   -2.5861   -3.2263 C   0  0  2  0  0  0  0  0  0  0  0  0
    2.8616   -3.1383   -2.4532 C   0  0  0  0  0  0  0  0  0  0  0  0
    2.9044   -2.7122   -0.9818 C   0  0  0  0  0  0  0  0  0  0  0  0
    4.2199   -3.1291   -0.2939 C   0  0  2  0  0  0  0  0  0  0  0  0
    4.2492   -4.6665   -0.1686 C   0  0  0  0  0  0  0  0  0  0  0  0
    5.0031   -5.3282   -0.8869 O   0  0  0  0  0  0  0  0  0  0  0  0
    3.3581   -5.2333    0.8434 O   0  0  0  0  0  0  0  0  0  0  0  0
    3.3654   -4.5366    2.1553 C   0  0  0  0  0  0  0  0  0  0  0  0
    2.2781   -5.1161    3.0717 C   0  0  0  0  0  0  0  0  0  0  0  0
    4.6382   -4.9382    2.9189 C   0  0  0  0  0  0  0  0  0  0  0  0
    3.2082   -3.0726    2.0240 N   0  0  0  0  0  0  0  0  0  0  0  0
    4.2511   -2.5690    1.1333 C   0  0  0  0  0  0  0  0  0  0  0  0
    4.0642   -1.0723    0.9723 C   0  0  0  0  0  0  0  0  0  0  0  0
    4.6943   -0.4546    2.1950 C   0  0  0  0  0  0  0  0  0  0  0  0
    5.7977   -1.4213    2.6327 C   0  0  0  0  0  0  0  0  0  0  0  0
    5.5393   -2.6668    1.8781 C   0  0  0  0  0  0  0  0  0  0  0  0
    5.4416   -2.5757   -1.0989 C   0  0  1  0  0  0  0  0  0  0  0  0
    6.7866   -3.0438   -0.5627 C   0  0  0  0  0  0  0  0  0  0  0  0
    5.3916   -2.9965   -2.5651 C   0  0  0  0  0  0  0  0  0  0  0  0
    3.9462   -0.5950   -2.3240 H   0  0  0  0  0  0  0  0  0  0  0  0
    3.0862   -0.7595   -3.8419 H   0  0  0  0  0  0  0  0  0  0  0  0
    4.8382   -0.6559   -3.8330 H   0  0  0  0  0  0  0  0  0  0  0  0
    4.0461   -2.9518   -4.2548 H   0  0  0  0  0  0  0  0  0  0  0  0
    1.9352   -2.8005   -2.9144 H   0  0  0  0  0  0  0  0  0  0  0  0
    2.8510   -4.2241   -2.5117 H   0  0  0  0  0  0  0  0  0  0  0  0
    2.7697   -1.6320   -0.9211 H   0  0  0  0  0  0  0  0  0  0  0  0
    2.0612   -3.1432   -0.4385 H   0  0  0  0  0  0  0  0  0  0  0  0
    2.3164   -4.6450    4.0607 H   0  0  0  0  0  0  0  0  0  0  0  0
    2.4151   -6.1885    3.2056 H   0  0  0  0  0  0  0  0  0  0  0  0
    1.2984   -4.9406    2.6413 H   0  0  0  0  0  0  0  0  0  0  0  0
    4.7931   -4.2359    3.7913 H   0  0  0  0  0  0  0  0  0  0  0  0
    5.4911   -4.9922    2.1902 H   0  0  0  0  0  0  0  0  0  0  0  0
    4.7271   -5.9072    3.2123 H   0  0  0  0  0  0  0  0  0  0  0  0
    3.2700   -2.5830    2.9299 H   0  0  0  0  0  0  0  0  0  0  0  0
    4.4878   -0.6673    0.0746 H   0  0  0  0  0  0  0  0  0  0  0  0
    3.0071   -0.8360    0.9031 H   0  0  0  0  0  0  0  0  0  0  0  0
    5.0668    0.5436    1.9859 H   0  0  0  0  0  0  0  0  0  0  0  0
    3.9486   -0.3619    2.9896 H   0  0  0  0  0  0  0  0  0  0  0  0
    6.7965   -1.0112    2.4879 H   0  0  0  0  0  0  0  0  0  0  0  0
    5.6791   -1.5878    3.7099 H   0  0  0  0  0  0  0  0  0  0  0  0
    5.8610   -3.3178    2.5147 H   0  0  0  0  0  0  0  0  0  0  0  0
    6.1511   -3.0380    1.3755 H   0  0  0  0  0  0  0  0  0  0  0  0
    5.4881   -1.5082   -1.0783 H   0  0  0  0  0  0  0  0  0  0  0  0
    6.7765   -4.1095   -0.2803 H   0  0  0  0  0  0  0  0  0  0  0  0
    7.2402   -2.4107    0.2288 H   0  0  0  0  0  0  0  0  0  0  0  0
    7.6024   -2.8030   -1.0957 H   0  0  0  0  0  0  0  0  0  0  0  0
    5.5323   -4.0724   -2.6437 H   0  0  0  0  0  0  0  0  0  0  0  0
    6.2283   -2.5517   -3.0976 H   0  0  0  0  0  0  0  0  0  0  0  0
  1  2  1  0
  1 21  1  0
  1 22  1  0
  1 23  1  0
  2 20  1  0
  2  3  1  0
  2 24  1  6
  3  4  1  0
  3 25  1  0
  3 26  1  0
  5  4  1  6
  4 27  1  0
  4 28  1  0
  5 13  1  0
  5  6  1  0
  5 18  1  0
  6  7  2  0
  6  8  1  0
  8  9  1  0
  9 10  1  0
  9 11  1  0
  9 12  1  0
 10 29  1  0
 10 30  1  0
 10 31  1  0
 11 32  1  0
 11 33  1  0
 11 34  1  0
 12 13  1  0
 12 35  1  0
 13 17  1  0
 13 14  1  0
 14 15  1  0
 14 36  1  0
 14 37  1  0
 15 16  1  0
 15 38  1  0
 15 39  1  0
 16 17  1  0
 16 40  1  0
 16 41  1  0
 17 42  1  0
 17 43  1  0
 18 19  1  0
 18 20  1  0
 18 44  1  6
 19 45  1  0
 19 46  1  0
 19 47  1  0
 20 48  1  0
 20 49  1  0
M  END
>  <i_m_ct_stereo_status>  (215) 
1

>  <s_m_source_file>  (215) 
/var/tmp/pbs.5076255.sched01/tmpj5h_4zim/74m36hq9q5.sdf

>  <i_m_source_file_index>  (215) 
29

>  <i_lp_mmshare_version>  (215) 
48012

>  <i_f3d_flags>  (215) 
0

>  <s_epik_input>  (215) 
W0NIM11bQ0BIXTFbQ0gyXVtDQEhdKFtDSDNdKVtDSDJdW0NIMl1bQ0BdMTJDMyhbTkhdQyhbQ0gzXSkoW0NIM10pT0MyPU8pW0NIMl1bQ0gyXVtDSDJdW0NIMl0z

>  <s_epik_cmdline>  (215) 
J2VwaWtfcHl0aG9uJywgJy1waHQnLCAnMi4wJywgJy1waCcsICc3LjAnLCAnLXRuJywgJzgnLCAnLW1hJywgJzIwMCcsICctaW1hZScsICc8aW5maWxlLm1hZT4nLCAnLW9tYWUnLCAnPG91dGZpbGUubWFlPic=

>  <r_epik_Ionization_Penalty>  (215) 
0.27607

>  <r_epik_Ionization_Penalty_Charging>  (215) 
0

>  <r_epik_Ionization_Penalty_Neutral>  (215) 
0.27607

>  <r_epik_State_Penalty>  (215) 
0.268433

>  <r_epik_Charging_Adjusted_Penalty>  (215) 
0.268433

>  <i_epik_Tot_Q>  (215) 
0

>  <i_epik_Tot_abs_Q>  (215) 
0

>  <s_epik_Chemistry_Notes>  (215) 
This compound has an ester and may undergo hydrolysis at high or low pH.

>  <s_lp_Force_Field>  (215) 
OPLS3e

>  <r_lp_Energy>  (215) 
45.6529

>  <b_lp_Chiralities_Consistent>  (215) 
1

>  <s_lp_Variant>  (215) 
83:0-1

>  <s_i_glide_gridfile>  (215) 
pfpi4k_grid

>  <i_i_glide_lignum>  (215) 
29

>  <i_i_glide_rotatable_bonds>  (215) 
0

>  <r_i_docking_score>  (215) 
1.5233

>  <r_i_glide_ligand_efficiency>  (215) 
0.0761648

>  <r_i_glide_ligand_efficiency_sa>  (215) 
0.206743

>  <r_i_glide_ligand_efficiency_ln>  (215) 
0.381231

>  <r_i_glide_gscore>  (215) 
1.5233

>  <r_i_glide_lipo>  (215) 
-0.84562

>  <r_i_glide_hbond>  (215) 
0

>  <r_i_glide_metal>  (215) 
-0

>  <r_i_glide_rewards>  (215) 
-1.50564

>  <r_i_glide_evdw>  (215) 
-18.1886

>  <r_i_glide_ecoul>  (215) 
0.81096

>  <r_i_glide_erotb>  (215) 
0

>  <r_i_glide_esite>  (215) 
-0.0144495

>  <r_i_glide_emodel>  (215) 
0.350494

>  <r_i_glide_energy>  (215) 
-17.3776

>  <r_i_glide_einternal>  (215) 
0

>  <r_i_glide_intrahb_reward>  (215) 
-0

>  <i_i_glide_confnum>  (215) 
1

>  <i_i_glide_posenum>  (215) 
29

>  <r_i_glide_eff_state_penalty>  (215) 
0

>  <ligand_id>  (215) 
83

>  <original_smiles>  (215) 
CC1CCC2(C(=O)OC(C)(C)NC23CCCC3)C(C)C1

>  <smiles>  (215) 
[H]N1C(C([H])([H])[H])(C([H])([H])[H])OC(=O)C2(C([H])([H])C([H])([H])C([H])(C([H])([H])[H])C([H])([H])C2([H])C([H])([H])[H])C12C([H])([H])C([H])([H])C([H])([H])C2([H])[H]

$$$$
83:0:2
     RDKit          3D

 49 51  0  0  1  0  0  0  0  0999 V2000
    3.4071   -0.9880   -3.1355 C   0  0  0  0  0  0  0  0  0  0  0  0
    4.2846   -2.0018   -2.4149 C   0  0  2  0  0  0  0  0  0  0  0  0
    3.4311   -3.1373   -1.8178 C   0  0  0  0  0  0  0  0  0  0  0  0
    4.2110   -4.0718   -0.8957 C   0  0  0  0  0  0  0  0  0  0  0  0
    5.0914   -3.3565    0.1559 C   0  0  2  0  0  0  0  0  0  0  0  0
    5.9041   -4.4242    0.9334 C   0  0  0  0  0  0  0  0  0  0  0  0
    7.1153   -4.5478    0.7490 O   0  0  0  0  0  0  0  0  0  0  0  0
    5.1447   -5.2070    1.8759 O   0  0  0  0  0  0  0  0  0  0  0  0
    4.2110   -4.4711    2.7355 C   0  0  0  0  0  0  0  0  0  0  0  0
    3.3590   -5.4368    3.5732 C   0  0  0  0  0  0  0  0  0  0  0  0
    5.0193   -3.7655    3.8409 C   0  0  0  0  0  0  0  0  0  0  0  0
    3.3636   -3.5527    1.9813 N   0  0  0  0  0  0  0  0  0  0  0  0
    4.2080   -2.6541    1.1961 C   0  0  0  0  0  0  0  0  0  0  0  0
    3.2656   -1.7434    0.5529 C   0  0  0  0  0  0  0  0  0  0  0  0
    2.9002   -0.6148    1.3406 C   0  0  0  0  0  0  0  0  0  0  0  0
    4.0370   -0.5088    2.3315 C   0  0  0  0  0  0  0  0  0  0  0  0
    4.9568   -1.6725    2.0736 C   0  0  0  0  0  0  0  0  0  0  0  0
    6.0115   -2.3059   -0.5671 C   0  0  1  0  0  0  0  0  0  0  0  0
    7.0109   -2.9766   -1.4817 C   0  0  0  0  0  0  0  0  0  0  0  0
    5.2667   -1.2690   -1.4178 C   0  0  0  0  0  0  0  0  0  0  0  0
    2.7009   -0.4802   -2.4751 H   0  0  0  0  0  0  0  0  0  0  0  0
    2.8281   -1.4771   -3.9139 H   0  0  0  0  0  0  0  0  0  0  0  0
    4.0257   -0.2289   -3.6040 H   0  0  0  0  0  0  0  0  0  0  0  0
    4.8981   -2.4911   -3.1429 H   0  0  0  0  0  0  0  0  0  0  0  0
    2.5999   -2.6911   -1.4013 H   0  0  0  0  0  0  0  0  0  0  0  0
    2.7857   -3.6090   -2.4847 H   0  0  0  0  0  0  0  0  0  0  0  0
    3.5497   -4.7727   -0.3919 H   0  0  0  0  0  0  0  0  0  0  0  0
    4.8274   -4.6590   -1.5661 H   0  0  0  0  0  0  0  0  0  0  0  0
    2.7046   -4.8794    4.2568 H   0  0  0  0  0  0  0  0  0  0  0  0
    3.9912   -6.0883    4.1759 H   0  0  0  0  0  0  0  0  0  0  0  0
    2.7439   -6.0455    2.9234 H   0  0  0  0  0  0  0  0  0  0  0  0
    4.3740   -2.9921    4.3467 H   0  0  0  0  0  0  0  0  0  0  0  0
    5.9687   -3.3878    3.4006 H   0  0  0  0  0  0  0  0  0  0  0  0
    5.4921   -4.3552    4.5417 H   0  0  0  0  0  0  0  0  0  0  0  0
    2.7400   -2.9809    2.5745 H   0  0  0  0  0  0  0  0  0  0  0  0
    3.4824   -1.4902   -0.3556 H   0  0  0  0  0  0  0  0  0  0  0  0
    2.3760   -2.2217    0.3018 H   0  0  0  0  0  0  0  0  0  0  0  0
    2.7050    0.2910    0.7799 H   0  0  0  0  0  0  0  0  0  0  0  0
    1.9727   -0.9118    1.8280 H   0  0  0  0  0  0  0  0  0  0  0  0
    4.5842    0.4232    2.2334 H   0  0  0  0  0  0  0  0  0  0  0  0
    3.5827   -0.5045    3.3304 H   0  0  0  0  0  0  0  0  0  0  0  0
    5.1817   -1.8220    3.0436 H   0  0  0  0  0  0  0  0  0  0  0  0
    5.9179   -1.4302    1.7383 H   0  0  0  0  0  0  0  0  0  0  0  0
    6.6187   -1.7755    0.1373 H   0  0  0  0  0  0  0  0  0  0  0  0
    6.5386   -3.6876   -2.1496 H   0  0  0  0  0  0  0  0  0  0  0  0
    7.8034   -3.4923   -0.9655 H   0  0  0  0  0  0  0  0  0  0  0  0
    7.5230   -2.2530   -2.0817 H   0  0  0  0  0  0  0  0  0  0  0  0
    5.8466   -0.5647   -1.8911 H   0  0  0  0  0  0  0  0  0  0  0  0
    4.8339   -0.4568   -0.7738 H   0  0  0  0  0  0  0  0  0  0  0  0
  1  2  1  0
  1 21  1  0
  1 22  1  0
  1 23  1  0
  2 20  1  0
  2  3  1  0
  2 24  1  6
  3  4  1  0
  3 25  1  0
  3 26  1  0
  5  4  1  6
  4 27  1  0
  4 28  1  0
  5 13  1  0
  5  6  1  0
  5 18  1  0
  6  7  2  0
  6  8  1  0
  8  9  1  0
  9 10  1  0
  9 11  1  0
  9 12  1  0
 10 29  1  0
 10 30  1  0
 10 31  1  0
 11 32  1  0
 11 33  1  0
 11 34  1  0
 12 13  1  0
 12 35  1  0
 13 17  1  0
 13 14  1  0
 14 15  1  0
 14 36  1  0
 14 37  1  0
 15 16  1  0
 15 38  1  0
 15 39  1  0
 16 17  1  0
 16 40  1  0
 16 41  1  0
 17 42  1  0
 17 43  1  0
 18 19  1  0
 18 20  1  0
 18 44  1  1
 19 45  1  0
 19 46  1  0
 19 47  1  0
 20 48  1  0
 20 49  1  0
M  END
>  <i_m_ct_stereo_status>  (216) 
1

>  <s_m_source_file>  (216) 
/var/tmp/pbs.5076255.sched01/tmpj5h_4zim/74m36hq9q5.sdf

>  <i_m_source_file_index>  (216) 
29

>  <i_lp_mmshare_version>  (216) 
48012

>  <i_f3d_flags>  (216) 
0

>  <s_epik_input>  (216) 
W0NIM11bQ0BIXTFbQ0gyXVtDQEhdKFtDSDNdKVtDSDJdW0NIMl1bQ0BdMTJDMyhbTkhdQyhbQ0gzXSkoW0NIM10pT0MyPU8pW0NIMl1bQ0gyXVtDSDJdW0NIMl0z

>  <s_epik_cmdline>  (216) 
J2VwaWtfcHl0aG9uJywgJy1waHQnLCAnMi4wJywgJy1waCcsICc3LjAnLCAnLXRuJywgJzgnLCAnLW1hJywgJzIwMCcsICctaW1hZScsICc8aW5maWxlLm1hZT4nLCAnLW9tYWUnLCAnPG91dGZpbGUubWFlPic=

>  <r_epik_Ionization_Penalty>  (216) 
0.27607

>  <r_epik_Ionization_Penalty_Charging>  (216) 
0

>  <r_epik_Ionization_Penalty_Neutral>  (216) 
0.27607

>  <r_epik_State_Penalty>  (216) 
0.268433

>  <r_epik_Charging_Adjusted_Penalty>  (216) 
0.268433

>  <i_epik_Tot_Q>  (216) 
0

>  <i_epik_Tot_abs_Q>  (216) 
0

>  <s_epik_Chemistry_Notes>  (216) 
This compound has an ester and may undergo hydrolysis at high or low pH.

>  <s_lp_Force_Field>  (216) 
OPLS3e

>  <r_lp_Energy>  (216) 
45.6529

>  <b_lp_Chiralities_Consistent>  (216) 
1

>  <s_lp_Variant>  (216) 
83:0-1

>  <s_i_glide_gridfile>  (216) 
pfpi4k_grid

>  <i_i_glide_lignum>  (216) 
29

>  <i_i_glide_rotatable_bonds>  (216) 
0

>  <r_i_docking_score>  (216) 
2.18255

>  <r_i_glide_ligand_efficiency>  (216) 
0.109127

>  <r_i_glide_ligand_efficiency_sa>  (216) 
0.296217

>  <r_i_glide_ligand_efficiency_ln>  (216) 
0.54622

>  <r_i_glide_gscore>  (216) 
2.18255

>  <r_i_glide_lipo>  (216) 
-0.239367

>  <r_i_glide_hbond>  (216) 
0

>  <r_i_glide_metal>  (216) 
-0

>  <r_i_glide_rewards>  (216) 
-1.61637

>  <r_i_glide_evdw>  (216) 
-24.012

>  <r_i_glide_ecoul>  (216) 
-0.905662

>  <r_i_glide_erotb>  (216) 
0

>  <r_i_glide_esite>  (216) 
0

>  <r_i_glide_emodel>  (216) 
-4.45883

>  <r_i_glide_energy>  (216) 
-24.9176

>  <r_i_glide_einternal>  (216) 
0

>  <r_i_glide_intrahb_reward>  (216) 
-0

>  <i_i_glide_confnum>  (216) 
2

>  <i_i_glide_posenum>  (216) 
20

>  <r_i_glide_eff_state_penalty>  (216) 
0

>  <ligand_id>  (216) 
83

>  <original_smiles>  (216) 
CC1CCC2(C(=O)OC(C)(C)NC23CCCC3)C(C)C1

>  <smiles>  (216) 
[H]N1C(C([H])([H])[H])(C([H])([H])[H])OC(=O)C2(C([H])([H])C([H])([H])C([H])(C([H])([H])[H])C([H])([H])C2([H])C([H])([H])[H])C12C([H])([H])C([H])([H])C([H])([H])C2([H])[H]

$$$$
83:1:0
     RDKit          3D

 50 52  0  0  1  0  0  0  0  0999 V2000
    3.8438   -3.3490   -3.8689 C   0  0  0  0  0  0  0  0  0  0  0  0
    3.0024   -2.4963   -2.9223 C   0  0  2  0  0  0  0  0  0  0  0  0
    3.8242   -1.3314   -2.3520 C   0  0  0  0  0  0  0  0  0  0  0  0
    4.9014   -1.8471   -1.4087 C   0  0  0  0  0  0  0  0  0  0  0  0
    4.3511   -2.7513   -0.2197 C   0  0  2  0  0  0  0  0  0  0  0  0
    3.5311   -1.9230    0.8166 C   0  0  0  0  0  0  0  0  0  0  0  0
    3.0964   -0.7971    0.5176 O   0  0  0  0  0  0  0  0  0  0  0  0
    3.2376   -2.5383    2.0213 O   0  0  0  0  0  0  0  0  0  0  0  0
    4.2603   -3.1643    2.7437 C   0  0  0  0  0  0  0  0  0  0  0  0
    5.2006   -2.1321    3.3474 C   0  0  0  0  0  0  0  0  0  0  0  0
    3.8333   -4.1033    3.8620 C   0  0  0  0  0  0  0  0  0  0  0  0
    5.1418   -4.0934    1.7549 N   0  0  0  0  0  0  0  0  0  0  0  0
    5.5706   -3.3647    0.5396 C   0  0  0  0  0  0  0  0  0  0  0  0
    6.2853   -4.3134   -0.3547 C   0  0  0  0  0  0  0  0  0  0  0  0
    7.7255   -4.2588    0.0700 C   0  0  0  0  0  0  0  0  0  0  0  0
    7.9559   -2.8048    0.4475 C   0  0  0  0  0  0  0  0  0  0  0  0
    6.6292   -2.3199    0.8729 C   0  0  0  0  0  0  0  0  0  0  0  0
    3.4710   -3.8896   -0.8358 C   0  0  1  0  0  0  0  0  0  0  0  0
    2.8000   -4.7824    0.2244 C   0  0  0  0  0  0  0  0  0  0  0  0
    2.4049   -3.3528   -1.7971 C   0  0  0  0  0  0  0  0  0  0  0  0
    4.7263   -3.7561   -3.3760 H   0  0  0  0  0  0  0  0  0  0  0  0
    4.1818   -2.7551   -4.7097 H   0  0  0  0  0  0  0  0  0  0  0  0
    3.2619   -4.1911   -4.2334 H   0  0  0  0  0  0  0  0  0  0  0  0
    2.1887   -2.0649   -3.5019 H   0  0  0  0  0  0  0  0  0  0  0  0
    4.2978   -0.7566   -3.1507 H   0  0  0  0  0  0  0  0  0  0  0  0
    3.1919   -0.6578   -1.8334 H   0  0  0  0  0  0  0  0  0  0  0  0
    5.6252   -2.3142   -2.0575 H   0  0  0  0  0  0  0  0  0  0  0  0
    5.4622   -0.9992   -1.0536 H   0  0  0  0  0  0  0  0  0  0  0  0
    6.1045   -2.6278    3.6930 H   0  0  0  0  0  0  0  0  0  0  0  0
    4.7272   -1.6416    4.1894 H   0  0  0  0  0  0  0  0  0  0  0  0
    5.3474   -1.3070    2.6722 H   0  0  0  0  0  0  0  0  0  0  0  0
    4.7002   -4.5544    4.3624 H   0  0  0  0  0  0  0  0  0  0  0  0
    3.1321   -4.8775    3.5679 H   0  0  0  0  0  0  0  0  0  0  0  0
    3.3559   -3.4534    4.6099 H   0  0  0  0  0  0  0  0  0  0  0  0
    5.9700   -4.5358    2.2091 H   0  0  0  0  0  0  0  0  0  0  0  0
    5.8420   -5.3131   -0.3942 H   0  0  0  0  0  0  0  0  0  0  0  0
    6.2619   -4.0172   -1.3992 H   0  0  0  0  0  0  0  0  0  0  0  0
    7.8355   -4.9231    0.9279 H   0  0  0  0  0  0  0  0  0  0  0  0
    8.3927   -4.5460   -0.7234 H   0  0  0  0  0  0  0  0  0  0  0  0
    8.6964   -2.7323    1.2308 H   0  0  0  0  0  0  0  0  0  0  0  0
    8.2513   -2.1675   -0.3947 H   0  0  0  0  0  0  0  0  0  0  0  0
    6.3556   -1.2833    0.6979 H   0  0  0  0  0  0  0  0  0  0  0  0
    6.9246   -2.2990    1.9016 H   0  0  0  0  0  0  0  0  0  0  0  0
    4.0782   -4.5693   -1.4341 H   0  0  0  0  0  0  0  0  0  0  0  0
    2.1755   -4.1971    0.8848 H   0  0  0  0  0  0  0  0  0  0  0  0
    3.5053   -5.3573    0.8033 H   0  0  0  0  0  0  0  0  0  0  0  0
    2.1663   -5.5414   -0.1900 H   0  0  0  0  0  0  0  0  0  0  0  0
    1.7034   -2.7760   -1.2173 H   0  0  0  0  0  0  0  0  0  0  0  0
    1.8255   -4.1749   -2.2209 H   0  0  0  0  0  0  0  0  0  0  0  0
    4.5992   -4.8674    1.4577 H   0  0  0  0  0  0  0  0  0  0  0  0
  1  2  1  0
  1 21  1  0
  1 22  1  0
  1 23  1  0
  2 20  1  0
  2  3  1  0
  2 24  1  6
  3  4  1  0
  3 25  1  0
  3 26  1  0
  5  4  1  6
  4 27  1  0
  4 28  1  0
  5 13  1  0
  5  6  1  0
  5 18  1  0
  6  7  2  0
  6  8  1  0
  8  9  1  0
  9 10  1  0
  9 11  1  0
  9 12  1  0
 10 29  1  0
 10 30  1  0
 10 31  1  0
 11 32  1  0
 11 33  1  0
 11 34  1  0
 12 13  1  0
 12 35  1  0
 12 50  1  0
 13 17  1  0
 13 14  1  0
 14 15  1  0
 14 36  1  0
 14 37  1  0
 15 16  1  0
 15 38  1  0
 15 39  1  0
 16 17  1  0
 16 40  1  0
 16 41  1  0
 17 42  1  0
 17 43  1  0
 18 19  1  0
 18 20  1  0
 18 44  1  6
 19 45  1  0
 19 46  1  0
 19 47  1  0
 20 48  1  0
 20 49  1  0
M  CHG  1  12   1
M  END
>  <i_m_ct_stereo_status>  (217) 
1

>  <s_m_source_file>  (217) 
/var/tmp/pbs.5076255.sched01/tmpj5h_4zim/74m36hq9q5.sdf

>  <i_m_source_file_index>  (217) 
30

>  <i_lp_mmshare_version>  (217) 
48012

>  <i_f3d_flags>  (217) 
0

>  <s_epik_input>  (217) 
W0NIM11bQ0BIXTFbQ0gyXVtDQEhdKFtDSDNdKVtDSDJdW0NIMl1bQ0BdMTJDMyhbTkhdQyhbQ0gzXSkoW0NIM10pT0MyPU8pW0NIMl1bQ0gyXVtDSDJdW0NIMl0z

>  <s_epik_cmdline>  (217) 
J2VwaWtfcHl0aG9uJywgJy1waHQnLCAnMi4wJywgJy1waCcsICc3LjAnLCAnLXRuJywgJzgnLCAnLW1hJywgJzIwMCcsICctaW1hZScsICc8aW5maWxlLm1hZT4nLCAnLW9tYWUnLCAnPG91dGZpbGUubWFlPic=

>  <r_epik_Ionization_Penalty>  (217) 
0.585149

>  <r_epik_Ionization_Penalty_Charging>  (217) 
0.585149

>  <r_epik_Ionization_Penalty_Neutral>  (217) 
0

>  <r_epik_State_Penalty>  (217) 
0.598244

>  <r_epik_Charging_Adjusted_Penalty>  (217) 
1.18339

>  <i_epik_Tot_Q>  (217) 
1

>  <i_epik_Tot_abs_Q>  (217) 
1

>  <s_epik_Chemistry_Notes>  (217) 
This compound has an ester and may undergo hydrolysis at high or low pH.

>  <s_lp_Force_Field>  (217) 
OPLS3e

>  <r_lp_Energy>  (217) 
45.8183

>  <b_lp_Chiralities_Consistent>  (217) 
1

>  <s_lp_Variant>  (217) 
83:0-2

>  <s_i_glide_gridfile>  (217) 
pfpi4k_grid

>  <i_i_glide_lignum>  (217) 
30

>  <i_i_glide_rotatable_bonds>  (217) 
0

>  <r_i_docking_score>  (217) 
-2.42548

>  <r_i_glide_ligand_efficiency>  (217) 
-0.121274

>  <r_i_glide_ligand_efficiency_sa>  (217) 
-0.329188

>  <r_i_glide_ligand_efficiency_ln>  (217) 
-0.607018

>  <r_i_glide_gscore>  (217) 
-2.42548

>  <r_i_glide_lipo>  (217) 
-0.836729

>  <r_i_glide_hbond>  (217) 
0

>  <r_i_glide_metal>  (217) 
-0

>  <r_i_glide_rewards>  (217) 
-1.50906

>  <r_i_glide_evdw>  (217) 
-16.2662

>  <r_i_glide_ecoul>  (217) 
0.11677

>  <r_i_glide_erotb>  (217) 
0

>  <r_i_glide_esite>  (217) 
-0.0337349

>  <r_i_glide_emodel>  (217) 
-12.7461

>  <r_i_glide_energy>  (217) 
-16.1494

>  <r_i_glide_einternal>  (217) 
0

>  <r_i_glide_intrahb_reward>  (217) 
-0

>  <i_i_glide_confnum>  (217) 
1

>  <i_i_glide_posenum>  (217) 
3

>  <r_i_glide_eff_state_penalty>  (217) 
0

>  <ligand_id>  (217) 
83

>  <original_smiles>  (217) 
CC1CCC2(C(=O)OC(C)(C)NC23CCCC3)C(C)C1

>  <smiles>  (217) 
[H]C([H])([H])C1([H])C([H])([H])C([H])([H])C2(C(=O)OC(C([H])([H])[H])(C([H])([H])[H])[N+]([H])([H])C23C([H])([H])C([H])([H])C([H])([H])C3([H])[H])C([H])(C([H])([H])[H])C1([H])[H]

$$$$
83:1:1
     RDKit          3D

 50 52  0  0  1  0  0  0  0  0999 V2000
    6.0891   -3.3208   -2.5465 C   0  0  0  0  0  0  0  0  0  0  0  0
    6.1172   -3.0212   -1.0567 C   0  0  2  0  0  0  0  0  0  0  0  0
    5.6616   -4.2883   -0.2351 C   0  0  0  0  0  0  0  0  0  0  0  0
    5.4904   -3.9208    1.2478 C   0  0  0  0  0  0  0  0  0  0  0  0
    4.6101   -2.6457    1.5298 C   0  0  2  0  0  0  0  0  0  0  0  0
    4.5744   -2.2809    3.0352 C   0  0  0  0  0  0  0  0  0  0  0  0
    5.4102   -2.7825    3.7954 O   0  0  0  0  0  0  0  0  0  0  0  0
    3.5557   -1.3359    3.4068 O   0  0  0  0  0  0  0  0  0  0  0  0
    2.2171   -1.5752    2.9543 C   0  0  0  0  0  0  0  0  0  0  0  0
    1.5712   -2.7788    3.6546 C   0  0  0  0  0  0  0  0  0  0  0  0
    1.2306   -0.4407    3.1927 C   0  0  0  0  0  0  0  0  0  0  0  0
    2.2147   -1.8349    1.3859 N   0  0  0  0  0  0  0  0  0  0  0  0
    3.1548   -2.9319    1.1162 C   0  0  0  0  0  0  0  0  0  0  0  0
    3.0295   -3.1208   -0.3161 C   0  0  0  0  0  0  0  0  0  0  0  0
    2.0802   -4.1236   -0.6703 C   0  0  0  0  0  0  0  0  0  0  0  0
    2.1179   -5.0668    0.5114 C   0  0  0  0  0  0  0  0  0  0  0  0
    2.6476   -4.2696    1.6504 C   0  0  0  0  0  0  0  0  0  0  0  0
    5.1800   -1.4404    0.7392 C   0  0  1  0  0  0  0  0  0  0  0  0
    6.5583   -1.0619    1.2497 C   0  0  0  0  0  0  0  0  0  0  0  0
    5.3729   -1.7009   -0.7549 C   0  0  0  0  0  0  0  0  0  0  0  0
    5.1058   -3.6147   -2.9126 H   0  0  0  0  0  0  0  0  0  0  0  0
    6.7689   -4.1327   -2.7623 H   0  0  0  0  0  0  0  0  0  0  0  0
    6.4157   -2.4644   -3.1183 H   0  0  0  0  0  0  0  0  0  0  0  0
    7.1315   -2.8241   -0.7718 H   0  0  0  0  0  0  0  0  0  0  0  0
    4.7553   -4.8304   -0.6242 H   0  0  0  0  0  0  0  0  0  0  0  0
    6.2443   -5.1151   -0.4252 H   0  0  0  0  0  0  0  0  0  0  0  0
    5.0955   -4.7774    1.7643 H   0  0  0  0  0  0  0  0  0  0  0  0
    6.4810   -3.7839    1.6471 H   0  0  0  0  0  0  0  0  0  0  0  0
    0.6281   -3.1102    3.1495 H   0  0  0  0  0  0  0  0  0  0  0  0
    1.3691   -2.6097    4.6566 H   0  0  0  0  0  0  0  0  0  0  0  0
    2.3002   -3.6030    3.7988 H   0  0  0  0  0  0  0  0  0  0  0  0
    0.2249   -0.6502    2.8196 H   0  0  0  0  0  0  0  0  0  0  0  0
    1.5677    0.4960    2.7905 H   0  0  0  0  0  0  0  0  0  0  0  0
    1.1462   -0.3267    4.2768 H   0  0  0  0  0  0  0  0  0  0  0  0
    1.2979   -2.0808    1.0193 H   0  0  0  0  0  0  0  0  0  0  0  0
    2.8534   -2.2484   -0.8672 H   0  0  0  0  0  0  0  0  0  0  0  0
    3.8825   -3.3077   -0.6959 H   0  0  0  0  0  0  0  0  0  0  0  0
    1.1534   -3.5704   -0.7263 H   0  0  0  0  0  0  0  0  0  0  0  0
    2.2327   -4.6036   -1.6162 H   0  0  0  0  0  0  0  0  0  0  0  0
    1.1255   -5.4949    0.6967 H   0  0  0  0  0  0  0  0  0  0  0  0
    2.7949   -5.8809    0.3241 H   0  0  0  0  0  0  0  0  0  0  0  0
    3.3349   -4.7720    2.3210 H   0  0  0  0  0  0  0  0  0  0  0  0
    1.7407   -4.2375    2.1481 H   0  0  0  0  0  0  0  0  0  0  0  0
    4.5279   -0.5816    0.9004 H   0  0  0  0  0  0  0  0  0  0  0  0
    7.2528   -1.8987    1.1819 H   0  0  0  0  0  0  0  0  0  0  0  0
    6.5279   -0.7160    2.2793 H   0  0  0  0  0  0  0  0  0  0  0  0
    6.9746   -0.2599    0.6627 H   0  0  0  0  0  0  0  0  0  0  0  0
    5.6906   -0.8752   -1.3086 H   0  0  0  0  0  0  0  0  0  0  0  0
    4.5040   -1.7064   -1.3181 H   0  0  0  0  0  0  0  0  0  0  0  0
    2.4743   -0.9865    0.8847 H   0  0  0  0  0  0  0  0  0  0  0  0
  1  2  1  0
  1 21  1  0
  1 22  1  0
  1 23  1  0
  2 20  1  0
  2  3  1  0
  2 24  1  1
  3  4  1  0
  3 25  1  0
  3 26  1  0
  5  4  1  1
  4 27  1  0
  4 28  1  0
  5 13  1  0
  5  6  1  0
  5 18  1  0
  6  7  2  0
  6  8  1  0
  8  9  1  0
  9 10  1  0
  9 11  1  0
  9 12  1  0
 10 29  1  0
 10 30  1  0
 10 31  1  0
 11 32  1  0
 11 33  1  0
 11 34  1  0
 12 13  1  0
 12 35  1  0
 12 50  1  0
 13 17  1  0
 13 14  1  0
 14 15  1  0
 14 36  1  0
 14 37  1  0
 15 16  1  0
 15 38  1  0
 15 39  1  0
 16 17  1  0
 16 40  1  0
 16 41  1  0
 17 42  1  0
 17 43  1  0
 18 19  1  0
 18 20  1  0
 18 44  1  6
 19 45  1  0
 19 46  1  0
 19 47  1  0
 20 48  1  0
 20 49  1  0
M  CHG  1  12   1
M  END
>  <i_m_ct_stereo_status>  (218) 
1

>  <s_m_source_file>  (218) 
/var/tmp/pbs.5076255.sched01/tmpj5h_4zim/74m36hq9q5.sdf

>  <i_m_source_file_index>  (218) 
30

>  <i_lp_mmshare_version>  (218) 
48012

>  <i_f3d_flags>  (218) 
0

>  <s_epik_input>  (218) 
W0NIM11bQ0BIXTFbQ0gyXVtDQEhdKFtDSDNdKVtDSDJdW0NIMl1bQ0BdMTJDMyhbTkhdQyhbQ0gzXSkoW0NIM10pT0MyPU8pW0NIMl1bQ0gyXVtDSDJdW0NIMl0z

>  <s_epik_cmdline>  (218) 
J2VwaWtfcHl0aG9uJywgJy1waHQnLCAnMi4wJywgJy1waCcsICc3LjAnLCAnLXRuJywgJzgnLCAnLW1hJywgJzIwMCcsICctaW1hZScsICc8aW5maWxlLm1hZT4nLCAnLW9tYWUnLCAnPG91dGZpbGUubWFlPic=

>  <r_epik_Ionization_Penalty>  (218) 
0.585149

>  <r_epik_Ionization_Penalty_Charging>  (218) 
0.585149

>  <r_epik_Ionization_Penalty_Neutral>  (218) 
0

>  <r_epik_State_Penalty>  (218) 
0.598244

>  <r_epik_Charging_Adjusted_Penalty>  (218) 
1.18339

>  <i_epik_Tot_Q>  (218) 
1

>  <i_epik_Tot_abs_Q>  (218) 
1

>  <s_epik_Chemistry_Notes>  (218) 
This compound has an ester and may undergo hydrolysis at high or low pH.

>  <s_lp_Force_Field>  (218) 
OPLS3e

>  <r_lp_Energy>  (218) 
45.8183

>  <b_lp_Chiralities_Consistent>  (218) 
1

>  <s_lp_Variant>  (218) 
83:0-2

>  <s_i_glide_gridfile>  (218) 
pfpi4k_grid

>  <i_i_glide_lignum>  (218) 
30

>  <i_i_glide_rotatable_bonds>  (218) 
0

>  <r_i_docking_score>  (218) 
0.395981

>  <r_i_glide_ligand_efficiency>  (218) 
0.019799

>  <r_i_glide_ligand_efficiency_sa>  (218) 
0.0537429

>  <r_i_glide_ligand_efficiency_ln>  (218) 
0.099101

>  <r_i_glide_gscore>  (218) 
0.395981

>  <r_i_glide_lipo>  (218) 
-0.659121

>  <r_i_glide_hbond>  (218) 
-0.0406841

>  <r_i_glide_metal>  (218) 
-0

>  <r_i_glide_rewards>  (218) 
-1.53907

>  <r_i_glide_evdw>  (218) 
-7.50288

>  <r_i_glide_ecoul>  (218) 
-5.53777

>  <r_i_glide_erotb>  (218) 
0

>  <r_i_glide_esite>  (218) 
-0.0794911

>  <r_i_glide_emodel>  (218) 
2.64884

>  <r_i_glide_energy>  (218) 
-13.0406

>  <r_i_glide_einternal>  (218) 
0

>  <r_i_glide_intrahb_reward>  (218) 
-0

>  <i_i_glide_confnum>  (218) 
3

>  <i_i_glide_posenum>  (218) 
2

>  <r_i_glide_eff_state_penalty>  (218) 
0

>  <ligand_id>  (218) 
83

>  <original_smiles>  (218) 
CC1CCC2(C(=O)OC(C)(C)NC23CCCC3)C(C)C1

>  <smiles>  (218) 
[H]C([H])([H])C1([H])C([H])([H])C([H])([H])C2(C(=O)OC(C([H])([H])[H])(C([H])([H])[H])[N+]([H])([H])C23C([H])([H])C([H])([H])C([H])([H])C3([H])[H])C([H])(C([H])([H])[H])C1([H])[H]

$$$$
83:1:2
     RDKit          3D

 50 52  0  0  1  0  0  0  0  0999 V2000
    4.5590   -1.3305   -3.4113 C   0  0  0  0  0  0  0  0  0  0  0  0
    5.3275   -1.8703   -2.2138 C   0  0  2  0  0  0  0  0  0  0  0  0
    5.2771   -3.4454   -2.1970 C   0  0  0  0  0  0  0  0  0  0  0  0
    5.8713   -3.9643   -0.8771 C   0  0  0  0  0  0  0  0  0  0  0  0
    5.2946   -3.3196    0.4375 C   0  0  2  0  0  0  0  0  0  0  0  0
    6.0136   -3.8341    1.7062 C   0  0  0  0  0  0  0  0  0  0  0  0
    7.0968   -4.4206    1.5877 O   0  0  0  0  0  0  0  0  0  0  0  0
    5.3503   -3.5260    2.9390 O   0  0  0  0  0  0  0  0  0  0  0  0
    3.9547   -3.8203    3.0540 C   0  0  0  0  0  0  0  0  0  0  0  0
    3.6601   -5.3166    3.1046 C   0  0  0  0  0  0  0  0  0  0  0  0
    3.2619   -3.2796    4.2955 C   0  0  0  0  0  0  0  0  0  0  0  0
    3.1692   -3.2025    1.8187 N   0  0  0  0  0  0  0  0  0  0  0  0
    3.8129   -3.7037    0.5944 C   0  0  0  0  0  0  0  0  0  0  0  0
    2.9832   -3.1375   -0.4525 C   0  0  0  0  0  0  0  0  0  0  0  0
    1.9392   -3.9924   -0.9474 C   0  0  0  0  0  0  0  0  0  0  0  0
    2.1315   -5.2427   -0.1306 C   0  0  0  0  0  0  0  0  0  0  0  0
    3.5331   -5.1666    0.3570 C   0  0  0  0  0  0  0  0  0  0  0  0
    5.4610   -1.7785    0.3545 C   0  0  1  0  0  0  0  0  0  0  0  0
    6.9277   -1.3905    0.3545 C   0  0  0  0  0  0  0  0  0  0  0  0
    4.8938   -1.1479   -0.9189 C   0  0  0  0  0  0  0  0  0  0  0  0
    3.5113   -1.6265   -3.4226 H   0  0  0  0  0  0  0  0  0  0  0  0
    5.0132   -1.7024   -4.3200 H   0  0  0  0  0  0  0  0  0  0  0  0
    4.6039   -0.2437   -3.4392 H   0  0  0  0  0  0  0  0  0  0  0  0
    6.3579   -1.6009   -2.3232 H   0  0  0  0  0  0  0  0  0  0  0  0
    4.2802   -3.9124   -2.4044 H   0  0  0  0  0  0  0  0  0  0  0  0
    5.6635   -3.8658   -3.0648 H   0  0  0  0  0  0  0  0  0  0  0  0
    5.7855   -5.0323   -0.8629 H   0  0  0  0  0  0  0  0  0  0  0  0
    6.9347   -3.8204   -0.9357 H   0  0  0  0  0  0  0  0  0  0  0  0
    2.5994   -5.5812    2.9020 H   0  0  0  0  0  0  0  0  0  0  0  0
    3.9908   -5.7685    3.9813 H   0  0  0  0  0  0  0  0  0  0  0  0
    4.4202   -5.8765    2.5513 H   0  0  0  0  0  0  0  0  0  0  0  0
    2.1932   -3.5127    4.3331 H   0  0  0  0  0  0  0  0  0  0  0  0
    3.3994   -2.2236    4.4228 H   0  0  0  0  0  0  0  0  0  0  0  0
    3.7227   -3.7843    5.1483 H   0  0  0  0  0  0  0  0  0  0  0  0
    2.1837   -3.4483    1.7968 H   0  0  0  0  0  0  0  0  0  0  0  0
    2.6068   -2.1849   -0.2442 H   0  0  0  0  0  0  0  0  0  0  0  0
    3.5379   -2.8587   -1.1857 H   0  0  0  0  0  0  0  0  0  0  0  0
    1.0142   -3.4885   -0.7284 H   0  0  0  0  0  0  0  0  0  0  0  0
    1.9735   -4.1653   -2.0156 H   0  0  0  0  0  0  0  0  0  0  0  0
    1.4172   -5.2557    0.6961 H   0  0  0  0  0  0  0  0  0  0  0  0
    1.9464   -6.1392   -0.7154 H   0  0  0  0  0  0  0  0  0  0  0  0
    4.2522   -5.6948   -0.1811 H   0  0  0  0  0  0  0  0  0  0  0  0
    3.4312   -5.8844    1.0628 H   0  0  0  0  0  0  0  0  0  0  0  0
    5.0056   -1.3368    1.2408 H   0  0  0  0  0  0  0  0  0  0  0  0
    7.4617   -1.8530   -0.4748 H   0  0  0  0  0  0  0  0  0  0  0  0
    7.4171   -1.6620    1.2807 H   0  0  0  0  0  0  0  0  0  0  0  0
    7.0358   -0.3188    0.2470 H   0  0  0  0  0  0  0  0  0  0  0  0
    4.9287   -0.1046   -0.9496 H   0  0  0  0  0  0  0  0  0  0  0  0
    3.8496   -1.0622   -0.9491 H   0  0  0  0  0  0  0  0  0  0  0  0
    3.1956   -2.1841    1.8523 H   0  0  0  0  0  0  0  0  0  0  0  0
  1  2  1  0
  1 21  1  0
  1 22  1  0
  1 23  1  0
  2 20  1  0
  2  3  1  0
  2 24  1  6
  3  4  1  0
  3 25  1  0
  3 26  1  0
  5  4  1  6
  4 27  1  0
  4 28  1  0
  5 13  1  0
  5  6  1  0
  5 18  1  0
  6  7  2  0
  6  8  1  0
  8  9  1  0
  9 10  1  0
  9 11  1  0
  9 12  1  0
 10 29  1  0
 10 30  1  0
 10 31  1  0
 11 32  1  0
 11 33  1  0
 11 34  1  0
 12 13  1  0
 12 35  1  0
 12 50  1  0
 13 17  1  0
 13 14  1  0
 14 15  1  0
 14 36  1  0
 14 37  1  0
 15 16  1  0
 15 38  1  0
 15 39  1  0
 16 17  1  0
 16 40  1  0
 16 41  1  0
 17 42  1  0
 17 43  1  0
 18 19  1  0
 18 20  1  0
 18 44  1  1
 19 45  1  0
 19 46  1  0
 19 47  1  0
 20 48  1  0
 20 49  1  0
M  CHG  1  12   1
M  END
>  <i_m_ct_stereo_status>  (219) 
1

>  <s_m_source_file>  (219) 
/var/tmp/pbs.5076255.sched01/tmpj5h_4zim/74m36hq9q5.sdf

>  <i_m_source_file_index>  (219) 
30

>  <i_lp_mmshare_version>  (219) 
48012

>  <i_f3d_flags>  (219) 
0

>  <s_epik_input>  (219) 
W0NIM11bQ0BIXTFbQ0gyXVtDQEhdKFtDSDNdKVtDSDJdW0NIMl1bQ0BdMTJDMyhbTkhdQyhbQ0gzXSkoW0NIM10pT0MyPU8pW0NIMl1bQ0gyXVtDSDJdW0NIMl0z

>  <s_epik_cmdline>  (219) 
J2VwaWtfcHl0aG9uJywgJy1waHQnLCAnMi4wJywgJy1waCcsICc3LjAnLCAnLXRuJywgJzgnLCAnLW1hJywgJzIwMCcsICctaW1hZScsICc8aW5maWxlLm1hZT4nLCAnLW9tYWUnLCAnPG91dGZpbGUubWFlPic=

>  <r_epik_Ionization_Penalty>  (219) 
0.585149

>  <r_epik_Ionization_Penalty_Charging>  (219) 
0.585149

>  <r_epik_Ionization_Penalty_Neutral>  (219) 
0

>  <r_epik_State_Penalty>  (219) 
0.598244

>  <r_epik_Charging_Adjusted_Penalty>  (219) 
1.18339

>  <i_epik_Tot_Q>  (219) 
1

>  <i_epik_Tot_abs_Q>  (219) 
1

>  <s_epik_Chemistry_Notes>  (219) 
This compound has an ester and may undergo hydrolysis at high or low pH.

>  <s_lp_Force_Field>  (219) 
OPLS3e

>  <r_lp_Energy>  (219) 
45.8183

>  <b_lp_Chiralities_Consistent>  (219) 
1

>  <s_lp_Variant>  (219) 
83:0-2

>  <s_i_glide_gridfile>  (219) 
pfpi4k_grid

>  <i_i_glide_lignum>  (219) 
30

>  <i_i_glide_rotatable_bonds>  (219) 
0

>  <r_i_docking_score>  (219) 
0.706167

>  <r_i_glide_ligand_efficiency>  (219) 
0.0353083

>  <r_i_glide_ligand_efficiency_sa>  (219) 
0.0958416

>  <r_i_glide_ligand_efficiency_ln>  (219) 
0.17673

>  <r_i_glide_gscore>  (219) 
0.706167

>  <r_i_glide_lipo>  (219) 
-0.374937

>  <r_i_glide_hbond>  (219) 
0

>  <r_i_glide_metal>  (219) 
-0

>  <r_i_glide_rewards>  (219) 
-1.57912

>  <r_i_glide_evdw>  (219) 
-10.0681

>  <r_i_glide_ecoul>  (219) 
-2.96798

>  <r_i_glide_erotb>  (219) 
0

>  <r_i_glide_esite>  (219) 
-0.000941091

>  <r_i_glide_emodel>  (219) 
2.11463

>  <r_i_glide_energy>  (219) 
-13.0361

>  <r_i_glide_einternal>  (219) 
0

>  <r_i_glide_intrahb_reward>  (219) 
-0

>  <i_i_glide_confnum>  (219) 
4

>  <i_i_glide_posenum>  (219) 
8

>  <r_i_glide_eff_state_penalty>  (219) 
0

>  <ligand_id>  (219) 
83

>  <original_smiles>  (219) 
CC1CCC2(C(=O)OC(C)(C)NC23CCCC3)C(C)C1

>  <smiles>  (219) 
[H]C([H])([H])C1([H])C([H])([H])C([H])([H])C2(C(=O)OC(C([H])([H])[H])(C([H])([H])[H])[N+]([H])([H])C23C([H])([H])C([H])([H])C([H])([H])C3([H])[H])C([H])(C([H])([H])[H])C1([H])[H]

$$$$
84:0:0
     RDKit          3D

 88 94  0  0  1  0  0  0  0  0999 V2000
   -0.6273    2.8363    3.4902 C   0  0  0  0  0  0  0  0  0  0  0  0
    0.6991    2.4682    4.1737 C   0  0  2  0  0  0  0  0  0  0  0  0
    1.8168    2.2490    3.1333 C   0  0  0  0  0  0  0  0  0  0  0  0
    1.5709    0.9893    2.2746 C   0  0  0  0  0  0  0  0  0  0  0  0
    1.4198   -0.2547    3.1727 C   0  0  0  0  0  0  0  0  0  0  0  0
    0.2986   -0.0565    4.2169 C   0  0  0  0  0  0  0  0  0  0  0  0
    0.5527    1.2192    5.0559 C   0  0  0  0  0  0  0  0  0  0  0  0
    1.1204   -1.4016    2.3592 O   0  0  0  0  0  0  0  0  0  0  0  0
    2.0608   -2.3801    2.8589 C   0  0  1  0  0  0  0  0  0  0  0  0
    2.7041   -3.5015    2.0311 C   0  0  0  0  0  0  0  0  0  0  0  0
    4.1033   -3.7372    2.7136 C   0  0  2  0  0  0  0  0  0  0  0  0
    5.2125   -3.7822    1.6385 C   0  0  0  0  0  0  0  0  0  0  0  0
    4.1058   -5.0135    3.6448 C   0  0  2  0  0  0  0  0  0  0  0  0
    5.3053   -5.0608    4.6177 C   0  0  0  0  0  0  0  0  0  0  0  0
    5.6136   -6.5301    4.8851 C   0  0  0  0  0  0  0  0  0  0  0  0
    4.4257   -7.3236    4.3126 C   0  0  2  0  0  0  0  0  0  0  0  0
    4.8119   -8.8423    4.1419 C   0  0  0  0  0  0  0  0  0  0  0  0
    3.8146   -9.9438    3.6024 C   0  0  2  0  0  0  0  0  0  0  0  0
    4.6683  -11.1867    3.1892 C   0  0  0  0  0  0  0  0  0  0  0  0
    5.5463  -10.9620    2.0947 O   0  0  0  0  0  0  0  0  0  0  0  0
    3.1626   -9.4332    2.3026 C   0  0  0  0  0  0  0  0  0  0  0  0
    2.1151   -8.3466    2.5395 C   0  0  1  0  0  0  0  0  0  0  0  0
    1.3959   -8.4465    3.8874 C   0  0  1  0  0  0  0  0  0  0  0  0
    0.3493   -7.3597    3.8038 C   0  0  0  0  0  0  0  0  0  0  0  0
    1.1957   -6.2414    3.1553 C   0  0  0  0  0  0  0  0  0  0  0  0
    2.5060   -6.8604    2.5156 C   0  0  1  0  0  0  0  0  0  0  0  0
    3.9599   -6.4821    3.0692 C   0  0  1  0  0  0  0  0  0  0  0  0
    4.9863   -6.6972    1.9165 C   0  0  0  0  0  0  0  0  0  0  0  0
    1.2065   -9.8710    4.4189 C   0  0  0  0  0  0  0  0  0  0  0  0
    0.4352   -9.8203    5.7596 C   0  0  0  0  0  0  0  0  0  0  0  0
    0.4030  -10.7793    3.4510 C   0  0  0  0  0  0  0  0  0  0  0  0
    2.6925  -10.3605    4.6754 C   0  0  1  0  0  0  0  0  0  0  0  0
    2.6720  -11.7406    4.9974 O   0  0  0  0  0  0  0  0  0  0  0  0
    4.2758   -2.4703    3.6115 C   0  0  0  0  0  0  0  0  0  0  0  0
    3.2387   -1.4714    3.0643 C   0  0  2  0  0  0  0  0  0  0  0  0
    2.6411   -0.4666    3.8436 O   0  0  0  0  0  0  0  0  0  0  0  0
   -0.9800    2.0458    2.8318 H   0  0  0  0  0  0  0  0  0  0  0  0
   -0.5173    3.7320    2.8821 H   0  0  0  0  0  0  0  0  0  0  0  0
   -1.4157    3.0130    4.2286 H   0  0  0  0  0  0  0  0  0  0  0  0
    0.9759    3.3003    4.7977 H   0  0  0  0  0  0  0  0  0  0  0  0
    1.9049    3.1282    2.4979 H   0  0  0  0  0  0  0  0  0  0  0  0
    2.7829    2.1535    3.6430 H   0  0  0  0  0  0  0  0  0  0  0  0
    0.6646    1.1197    1.6609 H   0  0  0  0  0  0  0  0  0  0  0  0
    2.3807    0.8493    1.5571 H   0  0  0  0  0  0  0  0  0  0  0  0
   -0.6738    0.0267    3.6980 H   0  0  0  0  0  0  0  0  0  0  0  0
    0.2134   -0.9355    4.8631 H   0  0  0  0  0  0  0  0  0  0  0  0
    1.4543    1.0777    5.6592 H   0  0  0  0  0  0  0  0  0  0  0  0
   -0.2605    1.3706    5.7650 H   0  0  0  0  0  0  0  0  0  0  0  0
    1.6935   -2.7688    3.8077 H   0  0  0  0  0  0  0  0  0  0  0  0
    2.0704   -4.3913    2.0261 H   0  0  0  0  0  0  0  0  0  0  0  0
    2.8290   -3.2187    0.9879 H   0  0  0  0  0  0  0  0  0  0  0  0
    6.1765   -3.8288    2.1106 H   0  0  0  0  0  0  0  0  0  0  0  0
    5.2013   -2.8653    1.0715 H   0  0  0  0  0  0  0  0  0  0  0  0
    5.0872   -4.5543    0.9661 H   0  0  0  0  0  0  0  0  0  0  0  0
    3.2794   -4.8828    4.3602 H   0  0  0  0  0  0  0  0  0  0  0  0
    6.1927   -4.5710    4.2297 H   0  0  0  0  0  0  0  0  0  0  0  0
    5.0780   -4.5523    5.5564 H   0  0  0  0  0  0  0  0  0  0  0  0
    6.5538   -6.8045    4.3915 H   0  0  0  0  0  0  0  0  0  0  0  0
    5.7554   -6.7205    5.9571 H   0  0  0  0  0  0  0  0  0  0  0  0
    3.7100   -7.2206    5.1232 H   0  0  0  0  0  0  0  0  0  0  0  0
    5.7025   -8.8587    3.5088 H   0  0  0  0  0  0  0  0  0  0  0  0
    5.1886   -9.1920    5.1112 H   0  0  0  0  0  0  0  0  0  0  0  0
    5.2573  -11.5556    4.0319 H   0  0  0  0  0  0  0  0  0  0  0  0
    4.0201  -12.0111    2.8813 H   0  0  0  0  0  0  0  0  0  0  0  0
    5.1006  -11.3120    1.3180 H   0  0  0  0  0  0  0  0  0  0  0  0
    3.8697   -9.1313    1.5441 H   0  0  0  0  0  0  0  0  0  0  0  0
    2.6881  -10.2703    1.8023 H   0  0  0  0  0  0  0  0  0  0  0  0
    1.3724   -8.4946    1.7484 H   0  0  0  0  0  0  0  0  0  0  0  0
    2.0084   -8.0433    4.6744 H   0  0  0  0  0  0  0  0  0  0  0  0
   -0.4826   -7.6514    3.1712 H   0  0  0  0  0  0  0  0  0  0  0  0
   -0.0251   -7.0610    4.7754 H   0  0  0  0  0  0  0  0  0  0  0  0
    0.5810   -5.7801    2.3855 H   0  0  0  0  0  0  0  0  0  0  0  0
    1.3880   -5.4691    3.8936 H   0  0  0  0  0  0  0  0  0  0  0  0
    2.4838   -6.5591    1.4644 H   0  0  0  0  0  0  0  0  0  0  0  0
    5.2823   -7.7326    1.7173 H   0  0  0  0  0  0  0  0  0  0  0  0
    5.9395   -6.2283    2.1259 H   0  0  0  0  0  0  0  0  0  0  0  0
    4.6189   -6.3149    0.9817 H   0  0  0  0  0  0  0  0  0  0  0  0
    0.3367  -10.8127    6.1929 H   0  0  0  0  0  0  0  0  0  0  0  0
   -0.5886   -9.4411    5.6257 H   0  0  0  0  0  0  0  0  0  0  0  0
    0.9320   -9.1840    6.4944 H   0  0  0  0  0  0  0  0  0  0  0  0
    0.1825  -11.7355    3.9229 H   0  0  0  0  0  0  0  0  0  0  0  0
    0.9164  -11.0182    2.5267 H   0  0  0  0  0  0  0  0  0  0  0  0
   -0.5495  -10.3169    3.1771 H   0  0  0  0  0  0  0  0  0  0  0  0
    3.0123   -9.9064    5.6129 H   0  0  0  0  0  0  0  0  0  0  0  0
    2.1869  -11.8623    5.8064 H   0  0  0  0  0  0  0  0  0  0  0  0
    4.0574   -2.6323    4.6753 H   0  0  0  0  0  0  0  0  0  0  0  0
    5.2834   -2.0354    3.5481 H   0  0  0  0  0  0  0  0  0  0  0  0
    3.5764   -1.0882    2.0991 H   0  0  0  0  0  0  0  0  0  0  0  0
  1  2  1  0
  1 37  1  0
  1 38  1  0
  1 39  1  0
  2  7  1  0
  2  3  1  0
  2 40  1  1
  3  4  1  0
  3 41  1  0
  3 42  1  0
  4  5  1  0
  4 43  1  0
  4 44  1  0
  5 36  1  0
  5  6  1  0
  5  8  1  0
  6  7  1  0
  6 45  1  0
  6 46  1  0
  7 47  1  0
  7 48  1  0
  8  9  1  0
  9 35  1  0
  9 10  1  0
  9 49  1  1
 10 11  1  0
 10 50  1  0
 10 51  1  0
 11 12  1  6
 11 13  1  0
 11 34  1  0
 12 52  1  0
 12 53  1  0
 12 54  1  0
 13 27  1  0
 13 14  1  0
 13 55  1  1
 14 15  1  0
 14 56  1  0
 14 57  1  0
 15 16  1  0
 15 58  1  0
 15 59  1  0
 16 27  1  0
 16 17  1  0
 16 60  1  1
 17 18  1  0
 17 61  1  0
 17 62  1  0
 18 32  1  0
 18 19  1  6
 18 21  1  0
 19 20  1  0
 19 63  1  0
 19 64  1  0
 20 65  1  0
 21 22  1  0
 21 66  1  0
 21 67  1  0
 22 26  1  0
 22 23  1  0
 22 68  1  6
 23 24  1  0
 23 29  1  0
 23 69  1  1
 24 25  1  0
 24 70  1  0
 24 71  1  0
 25 26  1  0
 25 72  1  0
 25 73  1  0
 26 27  1  0
 26 74  1  6
 27 28  1  6
 28 75  1  0
 28 76  1  0
 28 77  1  0
 29 30  1  0
 29 31  1  0
 29 32  1  0
 30 78  1  0
 30 79  1  0
 30 80  1  0
 31 81  1  0
 31 82  1  0
 31 83  1  0
 32 33  1  0
 32 84  1  1
 33 85  1  0
 34 35  1  0
 34 86  1  0
 34 87  1  0
 35 36  1  0
 35 88  1  6
M  END
>  <i_m_ct_stereo_status>  (220) 
1

>  <s_m_source_file>  (220) 
/var/tmp/pbs.5076255.sched01/tmpj5h_4zim/74m36hq9q5.sdf

>  <i_m_source_file_index>  (220) 
31

>  <i_lp_mmshare_version>  (220) 
48012

>  <i_f3d_flags>  (220) 
0

>  <s_epik_input>  (220) 
W0NIMl0xW0NIMl1bQ0hdKFtDSDNdKVtDSDJdW0NIMl1bQ0BAXTEyT1tDQEBIXTNbQ0BASF0oTzIpW0NIMl1bQ0BdKFtDSDJdMykoW0NIM10pW0NASF0oW0NIMl1bQ0gyXTQpW0NAQF0oW0NIM10pKFtDQEhdNFtDSDJdW0NAXTU2W0NIMl1bT0hdKVtDQEhdN1tDQEBIXShbQ0gyXTUpW0NAQEhdKFtDSDJdW0NIMl03KUMoW0NIM10pKFtDSDNdKVtDQEhdNltPSF0=

>  <s_epik_cmdline>  (220) 
J2VwaWtfcHl0aG9uJywgJy1waHQnLCAnMi4wJywgJy1waCcsICc3LjAnLCAnLXRuJywgJzgnLCAnLW1hJywgJzIwMCcsICctaW1hZScsICc8aW5maWxlLm1hZT4nLCAnLW9tYWUnLCAnPG91dGZpbGUubWFlPic=

>  <r_lp_tautomer_probability>  (220) 
1

>  <r_epik_Ionization_Penalty>  (220) 
1.93745e-06

>  <r_epik_Ionization_Penalty_Charging>  (220) 
0

>  <r_epik_Ionization_Penalty_Neutral>  (220) 
1.93745e-06

>  <r_epik_State_Penalty>  (220) 
-0

>  <r_epik_Charging_Adjusted_Penalty>  (220) 
0

>  <i_epik_Tot_Q>  (220) 
0

>  <i_epik_Tot_abs_Q>  (220) 
0

>  <s_lp_Force_Field>  (220) 
OPLS3e

>  <r_lp_Energy>  (220) 
116.104

>  <b_lp_Chiralities_Consistent>  (220) 
1

>  <s_lp_Variant>  (220) 
84:0-1

>  <s_i_glide_gridfile>  (220) 
pfpi4k_grid

>  <i_i_glide_lignum>  (220) 
31

>  <i_i_glide_rotatable_bonds>  (220) 
4

>  <r_i_docking_score>  (220) 
-2.08692

>  <r_i_glide_ligand_efficiency>  (220) 
-0.0579701

>  <r_i_glide_ligand_efficiency_sa>  (220) 
-0.191413

>  <r_i_glide_ligand_efficiency_ln>  (220) 
-0.45531

>  <r_i_glide_gscore>  (220) 
-2.08692

>  <r_i_glide_lipo>  (220) 
-0.0891675

>  <r_i_glide_hbond>  (220) 
-0.288536

>  <r_i_glide_metal>  (220) 
-0

>  <r_i_glide_rewards>  (220) 
0

>  <r_i_glide_evdw>  (220) 
-21.3818

>  <r_i_glide_ecoul>  (220) 
-5.2544

>  <r_i_glide_erotb>  (220) 
0.162883

>  <r_i_glide_esite>  (220) 
-0.0148548

>  <r_i_glide_emodel>  (220) 
-26.6527

>  <r_i_glide_energy>  (220) 
-26.6362

>  <r_i_glide_einternal>  (220) 
3.2279

>  <r_i_glide_intrahb_reward>  (220) 
-0

>  <i_i_glide_confnum>  (220) 
2

>  <i_i_glide_posenum>  (220) 
36

>  <r_i_glide_eff_state_penalty>  (220) 
0

>  <ligand_id>  (220) 
84

>  <original_smiles>  (220) 
CC1CCC2(CC1)OC1CC(C)(C3CCC4CC5(CO)CC6C(CCC6C43C)C(C)(C)C5O)CC1O2

>  <smiles>  (220) 
[H]OC([H])([H])C12C([H])([H])C3([H])C([H])(C([H])([H])C([H])([H])C3([H])C3(C([H])([H])[H])C([H])(C([H])([H])C([H])([H])C3([H])C3(C([H])([H])[H])C([H])([H])C4([H])OC5(OC4([H])C3([H])[H])C([H])([H])C([H])([H])C([H])(C([H])([H])[H])C([H])([H])C5([H])[H])C1([H])[H])C(C([H])([H])[H])(C([H])([H])[H])C2([H])O[H]

$$$$
84:0:1
     RDKit          3D

 88 94  0  0  1  0  0  0  0  0999 V2000
   -0.7527    2.7629    3.4859 C   0  0  0  0  0  0  0  0  0  0  0  0
    0.5575    2.4094    4.1866 C   0  0  2  0  0  0  0  0  0  0  0  0
    1.7120    2.2222    3.1813 C   0  0  0  0  0  0  0  0  0  0  0  0
    1.5070    0.9711    2.2976 C   0  0  0  0  0  0  0  0  0  0  0  0
    1.3615   -0.2970    3.1649 C   0  0  0  0  0  0  0  0  0  0  0  0
    0.2070   -0.1243    4.1890 C   0  0  0  0  0  0  0  0  0  0  0  0
    0.4191    1.1443    5.0516 C   0  0  0  0  0  0  0  0  0  0  0  0
    1.1127   -1.4274    2.3500 O   0  0  0  0  0  0  0  0  0  0  0  0
    2.0361   -2.3799    2.8363 C   0  0  1  0  0  0  0  0  0  0  0  0
    2.7249   -3.4970    2.0142 C   0  0  0  0  0  0  0  0  0  0  0  0
    4.1029   -3.7134    2.7328 C   0  0  2  0  0  0  0  0  0  0  0  0
    5.2434   -3.7139    1.6730 C   0  0  0  0  0  0  0  0  0  0  0  0
    4.1035   -5.0107    3.6417 C   0  0  2  0  0  0  0  0  0  0  0  0
    5.3083   -5.0653    4.6125 C   0  0  0  0  0  0  0  0  0  0  0  0
    5.6154   -6.5433    4.8614 C   0  0  0  0  0  0  0  0  0  0  0  0
    4.4288   -7.3276    4.2791 C   0  0  2  0  0  0  0  0  0  0  0  0
    4.8148   -8.8422    4.0868 C   0  0  0  0  0  0  0  0  0  0  0  0
    3.8085   -9.9393    3.5481 C   0  0  2  0  0  0  0  0  0  0  0  0
    4.6662  -11.1673    3.0971 C   0  0  0  0  0  0  0  0  0  0  0  0
    5.4358  -11.7161    4.1532 O   0  0  0  0  0  0  0  0  0  0  0  0
    3.1702   -9.4135    2.2496 C   0  0  0  0  0  0  0  0  0  0  0  0
    2.1203   -8.3245    2.4943 C   0  0  1  0  0  0  0  0  0  0  0  0
    1.3977   -8.4392    3.8387 C   0  0  1  0  0  0  0  0  0  0  0  0
    0.3556   -7.3481    3.7680 C   0  0  0  0  0  0  0  0  0  0  0  0
    1.1988   -6.2285    3.1413 C   0  0  0  0  0  0  0  0  0  0  0  0
    2.5089   -6.8374    2.4897 C   0  0  1  0  0  0  0  0  0  0  0  0
    3.9627   -6.4631    3.0444 C   0  0  1  0  0  0  0  0  0  0  0  0
    4.9820   -6.6828    1.8905 C   0  0  0  0  0  0  0  0  0  0  0  0
    1.2083   -9.8694    4.3529 C   0  0  0  0  0  0  0  0  0  0  0  0
    0.4369   -9.8345    5.6924 C   0  0  0  0  0  0  0  0  0  0  0  0
    0.3989  -10.7598    3.3758 C   0  0  0  0  0  0  0  0  0  0  0  0
    2.6862  -10.3686    4.6079 C   0  0  1  0  0  0  0  0  0  0  0  0
    2.6644  -11.7516    4.9086 O   0  0  0  0  0  0  0  0  0  0  0  0
    4.2395   -2.4570    3.6498 C   0  0  0  0  0  0  0  0  0  0  0  0
    3.1997   -1.4780    3.0936 C   0  0  2  0  0  0  0  0  0  0  0  0
    2.5607   -0.4817    3.8727 O   0  0  0  0  0  0  0  0  0  0  0  0
   -1.0790    1.9814    2.8045 H   0  0  0  0  0  0  0  0  0  0  0  0
   -0.6416    3.6716    2.8864 H   0  0  0  0  0  0  0  0  0  0  0  0
   -1.5561    2.9265    4.1957 H   0  0  0  0  0  0  0  0  0  0  0  0
    0.8130    3.2349    4.8380 H   0  0  0  0  0  0  0  0  0  0  0  0
    1.8010    3.1170    2.5571 H   0  0  0  0  0  0  0  0  0  0  0  0
    2.6646    2.1365    3.7140 H   0  0  0  0  0  0  0  0  0  0  0  0
    0.6210    1.0939    1.6644 H   0  0  0  0  0  0  0  0  0  0  0  0
    2.3404    0.8580    1.5984 H   0  0  0  0  0  0  0  0  0  0  0  0
   -0.7494   -0.0515    3.6485 H   0  0  0  0  0  0  0  0  0  0  0  0
    0.1241   -1.0144    4.8221 H   0  0  0  0  0  0  0  0  0  0  0  0
    1.3070    1.0101    5.6766 H   0  0  0  0  0  0  0  0  0  0  0  0
   -0.4181    1.2705    5.7472 H   0  0  0  0  0  0  0  0  0  0  0  0
    1.6585   -2.8022    3.7785 H   0  0  0  0  0  0  0  0  0  0  0  0
    2.1047   -4.3812    1.9714 H   0  0  0  0  0  0  0  0  0  0  0  0
    2.8749   -3.1757    0.9775 H   0  0  0  0  0  0  0  0  0  0  0  0
    6.2079   -3.7486    2.1743 H   0  0  0  0  0  0  0  0  0  0  0  0
    5.2384   -2.7817    1.1385 H   0  0  0  0  0  0  0  0  0  0  0  0
    5.1670   -4.4910    0.9860 H   0  0  0  0  0  0  0  0  0  0  0  0
    3.2867   -4.8868    4.3537 H   0  0  0  0  0  0  0  0  0  0  0  0
    6.1763   -4.5735    4.2339 H   0  0  0  0  0  0  0  0  0  0  0  0
    5.0776   -4.5722    5.5645 H   0  0  0  0  0  0  0  0  0  0  0  0
    6.5555   -6.8079    4.3608 H   0  0  0  0  0  0  0  0  0  0  0  0
    5.7610   -6.7496    5.9283 H   0  0  0  0  0  0  0  0  0  0  0  0
    3.7154   -7.2361    5.0894 H   0  0  0  0  0  0  0  0  0  0  0  0
    5.6984   -8.8652    3.4438 H   0  0  0  0  0  0  0  0  0  0  0  0
    5.1954   -9.1981    5.0514 H   0  0  0  0  0  0  0  0  0  0  0  0
    4.0277  -11.9556    2.6875 H   0  0  0  0  0  0  0  0  0  0  0  0
    5.3537  -10.8925    2.2925 H   0  0  0  0  0  0  0  0  0  0  0  0
    4.8187  -12.0888    4.7706 H   0  0  0  0  0  0  0  0  0  0  0  0
    3.8892   -9.1205    1.4979 H   0  0  0  0  0  0  0  0  0  0  0  0
    2.6929  -10.2420    1.7344 H   0  0  0  0  0  0  0  0  0  0  0  0
    1.3787   -8.4619    1.7008 H   0  0  0  0  0  0  0  0  0  0  0  0
    2.0104   -8.0473    4.6321 H   0  0  0  0  0  0  0  0  0  0  0  0
   -0.4805   -7.6326    3.1344 H   0  0  0  0  0  0  0  0  0  0  0  0
   -0.0234   -7.0663    4.7474 H   0  0  0  0  0  0  0  0  0  0  0  0
    0.5846   -5.7496    2.3744 H   0  0  0  0  0  0  0  0  0  0  0  0
    1.3937   -5.4604    3.8869 H   0  0  0  0  0  0  0  0  0  0  0  0
    2.4849   -6.5249    1.4435 H   0  0  0  0  0  0  0  0  0  0  0  0
    5.2798   -7.6932    1.6824 H   0  0  0  0  0  0  0  0  0  0  0  0
    5.9431   -6.1995    2.1049 H   0  0  0  0  0  0  0  0  0  0  0  0
    4.6178   -6.2591    0.9527 H   0  0  0  0  0  0  0  0  0  0  0  0
    0.3359  -10.8379    6.1058 H   0  0  0  0  0  0  0  0  0  0  0  0
   -0.5770   -9.4490    5.5636 H   0  0  0  0  0  0  0  0  0  0  0  0
    0.9374   -9.2119    6.4373 H   0  0  0  0  0  0  0  0  0  0  0  0
    0.1831  -11.7260    3.8331 H   0  0  0  0  0  0  0  0  0  0  0  0
    0.9180  -10.9864    2.4529 H   0  0  0  0  0  0  0  0  0  0  0  0
   -0.5526  -10.2940    3.1060 H   0  0  0  0  0  0  0  0  0  0  0  0
    3.0086   -9.9238    5.5479 H   0  0  0  0  0  0  0  0  0  0  0  0
    2.2141  -11.8775    5.7432 H   0  0  0  0  0  0  0  0  0  0  0  0
    3.9963   -2.6437    4.7053 H   0  0  0  0  0  0  0  0  0  0  0  0
    5.2422   -2.0042    3.6220 H   0  0  0  0  0  0  0  0  0  0  0  0
    3.5539   -1.0608    2.1462 H   0  0  0  0  0  0  0  0  0  0  0  0
  1  2  1  0
  1 37  1  0
  1 38  1  0
  1 39  1  0
  2  7  1  0
  2  3  1  0
  2 40  1  1
  3  4  1  0
  3 41  1  0
  3 42  1  0
  4  5  1  0
  4 43  1  0
  4 44  1  0
  5 36  1  0
  5  6  1  0
  5  8  1  0
  6  7  1  0
  6 45  1  0
  6 46  1  0
  7 47  1  0
  7 48  1  0
  8  9  1  0
  9 35  1  0
  9 10  1  0
  9 49  1  1
 10 11  1  0
 10 50  1  0
 10 51  1  0
 11 12  1  6
 11 13  1  0
 11 34  1  0
 12 52  1  0
 12 53  1  0
 12 54  1  0
 13 27  1  0
 13 14  1  0
 13 55  1  1
 14 15  1  0
 14 56  1  0
 14 57  1  0
 15 16  1  0
 15 58  1  0
 15 59  1  0
 16 27  1  0
 16 17  1  0
 16 60  1  1
 17 18  1  0
 17 61  1  0
 17 62  1  0
 18 32  1  0
 18 19  1  6
 18 21  1  0
 19 20  1  0
 19 63  1  0
 19 64  1  0
 20 65  1  0
 21 22  1  0
 21 66  1  0
 21 67  1  0
 22 26  1  0
 22 23  1  0
 22 68  1  6
 23 24  1  0
 23 29  1  0
 23 69  1  1
 24 25  1  0
 24 70  1  0
 24 71  1  0
 25 26  1  0
 25 72  1  0
 25 73  1  0
 26 27  1  0
 26 74  1  6
 27 28  1  6
 28 75  1  0
 28 76  1  0
 28 77  1  0
 29 30  1  0
 29 31  1  0
 29 32  1  0
 30 78  1  0
 30 79  1  0
 30 80  1  0
 31 81  1  0
 31 82  1  0
 31 83  1  0
 32 33  1  0
 32 84  1  1
 33 85  1  0
 34 35  1  0
 34 86  1  0
 34 87  1  0
 35 36  1  0
 35 88  1  6
M  END
>  <i_m_ct_stereo_status>  (221) 
1

>  <s_m_source_file>  (221) 
/var/tmp/pbs.5076255.sched01/tmpj5h_4zim/74m36hq9q5.sdf

>  <i_m_source_file_index>  (221) 
31

>  <i_lp_mmshare_version>  (221) 
48012

>  <i_f3d_flags>  (221) 
0

>  <s_epik_input>  (221) 
W0NIMl0xW0NIMl1bQ0hdKFtDSDNdKVtDSDJdW0NIMl1bQ0BAXTEyT1tDQEBIXTNbQ0BASF0oTzIpW0NIMl1bQ0BdKFtDSDJdMykoW0NIM10pW0NASF0oW0NIMl1bQ0gyXTQpW0NAQF0oW0NIM10pKFtDQEhdNFtDSDJdW0NAXTU2W0NIMl1bT0hdKVtDQEhdN1tDQEBIXShbQ0gyXTUpW0NAQEhdKFtDSDJdW0NIMl03KUMoW0NIM10pKFtDSDNdKVtDQEhdNltPSF0=

>  <s_epik_cmdline>  (221) 
J2VwaWtfcHl0aG9uJywgJy1waHQnLCAnMi4wJywgJy1waCcsICc3LjAnLCAnLXRuJywgJzgnLCAnLW1hJywgJzIwMCcsICctaW1hZScsICc8aW5maWxlLm1hZT4nLCAnLW9tYWUnLCAnPG91dGZpbGUubWFlPic=

>  <r_lp_tautomer_probability>  (221) 
1

>  <r_epik_Ionization_Penalty>  (221) 
1.93745e-06

>  <r_epik_Ionization_Penalty_Charging>  (221) 
0

>  <r_epik_Ionization_Penalty_Neutral>  (221) 
1.93745e-06

>  <r_epik_State_Penalty>  (221) 
-0

>  <r_epik_Charging_Adjusted_Penalty>  (221) 
0

>  <i_epik_Tot_Q>  (221) 
0

>  <i_epik_Tot_abs_Q>  (221) 
0

>  <s_lp_Force_Field>  (221) 
OPLS3e

>  <r_lp_Energy>  (221) 
116.104

>  <b_lp_Chiralities_Consistent>  (221) 
1

>  <s_lp_Variant>  (221) 
84:0-1

>  <s_i_glide_gridfile>  (221) 
pfpi4k_grid

>  <i_i_glide_lignum>  (221) 
31

>  <i_i_glide_rotatable_bonds>  (221) 
4

>  <r_i_docking_score>  (221) 
-1.79081

>  <r_i_glide_ligand_efficiency>  (221) 
-0.0497447

>  <r_i_glide_ligand_efficiency_sa>  (221) 
-0.164253

>  <r_i_glide_ligand_efficiency_ln>  (221) 
-0.390706

>  <r_i_glide_gscore>  (221) 
-1.79081

>  <r_i_glide_lipo>  (221) 
-0.0903328

>  <r_i_glide_hbond>  (221) 
0

>  <r_i_glide_metal>  (221) 
-0

>  <r_i_glide_rewards>  (221) 
-0.5

>  <r_i_glide_evdw>  (221) 
-23.6279

>  <r_i_glide_ecoul>  (221) 
-1.10746

>  <r_i_glide_erotb>  (221) 
0.162883

>  <r_i_glide_esite>  (221) 
-0.015847

>  <r_i_glide_emodel>  (221) 
-30.3922

>  <r_i_glide_energy>  (221) 
-24.7353

>  <r_i_glide_einternal>  (221) 
1.07593

>  <r_i_glide_intrahb_reward>  (221) 
-0.5

>  <i_i_glide_confnum>  (221) 
1

>  <i_i_glide_posenum>  (221) 
26

>  <r_i_glide_eff_state_penalty>  (221) 
0

>  <ligand_id>  (221) 
84

>  <original_smiles>  (221) 
CC1CCC2(CC1)OC1CC(C)(C3CCC4CC5(CO)CC6C(CCC6C43C)C(C)(C)C5O)CC1O2

>  <smiles>  (221) 
[H]OC([H])([H])C12C([H])([H])C3([H])C([H])(C([H])([H])C([H])([H])C3([H])C3(C([H])([H])[H])C([H])(C([H])([H])C([H])([H])C3([H])C3(C([H])([H])[H])C([H])([H])C4([H])OC5(OC4([H])C3([H])[H])C([H])([H])C([H])([H])C([H])(C([H])([H])[H])C([H])([H])C5([H])[H])C1([H])[H])C(C([H])([H])[H])(C([H])([H])[H])C2([H])O[H]

$$$$
84:0:2
     RDKit          3D

 88 94  0  0  1  0  0  0  0  0999 V2000
    3.1966   -1.4045   -3.8961 C   0  0  0  0  0  0  0  0  0  0  0  0
    3.2421   -1.1834   -2.3844 C   0  0  2  0  0  0  0  0  0  0  0  0
    4.6672   -0.9069   -1.8802 C   0  0  0  0  0  0  0  0  0  0  0  0
    5.5492   -2.1584   -2.0236 C   0  0  0  0  0  0  0  0  0  0  0  0
    4.9140   -3.3124   -1.2237 C   0  0  0  0  0  0  0  0  0  0  0  0
    3.4788   -3.6138   -1.7103 C   0  0  0  0  0  0  0  0  0  0  0  0
    2.6529   -2.3638   -1.6003 C   0  0  0  0  0  0  0  0  0  0  0  0
    5.6972   -4.4491   -1.4094 O   0  0  0  0  0  0  0  0  0  0  0  0
    5.8694   -4.9502   -0.1103 C   0  0  1  0  0  0  0  0  0  0  0  0
    7.0848   -5.7783    0.4425 C   0  0  0  0  0  0  0  0  0  0  0  0
    7.0971   -5.4357    1.9477 C   0  0  2  0  0  0  0  0  0  0  0  0
    8.5768   -5.1768    2.3406 C   0  0  0  0  0  0  0  0  0  0  0  0
    6.5109   -6.5693    2.8945 C   0  0  2  0  0  0  0  0  0  0  0  0
    7.5115   -7.7160    3.1785 C   0  0  0  0  0  0  0  0  0  0  0  0
    6.7013   -8.9716    3.4727 C   0  0  0  0  0  0  0  0  0  0  0  0
    5.2452   -8.5008    3.6367 C   0  0  2  0  0  0  0  0  0  0  0  0
    4.2634   -9.7242    3.5013 C   0  0  0  0  0  0  0  0  0  0  0  0
    2.6937   -9.5996    3.6713 C   0  0  2  0  0  0  0  0  0  0  0  0
    2.0729  -10.8898    3.0700 C   0  0  0  0  0  0  0  0  0  0  0  0
    2.4890  -12.0621    3.7288 O   0  0  0  0  0  0  0  0  0  0  0  0
    2.1997   -8.4601    2.7591 C   0  0  0  0  0  0  0  0  0  0  0  0
    2.5328   -7.0724    3.3094 C   0  0  1  0  0  0  0  0  0  0  0  0
    2.6090   -7.0093    4.8357 C   0  0  1  0  0  0  0  0  0  0  0  0
    2.8150   -5.5420    5.1121 C   0  0  0  0  0  0  0  0  0  0  0  0
    3.8327   -5.2195    4.0055 C   0  0  0  0  0  0  0  0  0  0  0  0
    3.8296   -6.3607    2.8996 C   0  0  1  0  0  0  0  0  0  0  0  0
    5.1160   -7.2882    2.6400 C   0  0  1  0  0  0  0  0  0  0  0  0
    5.0640   -7.9098    1.2014 C   0  0  0  0  0  0  0  0  0  0  0  0
    1.6678   -7.9557    5.5795 C   0  0  0  0  0  0  0  0  0  0  0  0
    1.8302   -7.7663    7.1045 C   0  0  0  0  0  0  0  0  0  0  0  0
    0.1718   -7.7255    5.2311 C   0  0  0  0  0  0  0  0  0  0  0  0
    2.2107   -9.3810    5.1816 C   0  0  1  0  0  0  0  0  0  0  0  0
    1.2709  -10.3202    5.6699 O   0  0  0  0  0  0  0  0  0  0  0  0
    6.2345   -4.1298    2.0129 C   0  0  0  0  0  0  0  0  0  0  0  0
    6.0884   -3.6556    0.5852 C   0  0  2  0  0  0  0  0  0  0  0  0
    4.9251   -2.9731    0.1431 O   0  0  0  0  0  0  0  0  0  0  0  0
    3.7561   -2.2911   -4.1873 H   0  0  0  0  0  0  0  0  0  0  0  0
    3.6193   -0.5518   -4.4266 H   0  0  0  0  0  0  0  0  0  0  0  0
    2.1765   -1.5510   -4.2372 H   0  0  0  0  0  0  0  0  0  0  0  0
    2.6292   -0.3044   -2.2116 H   0  0  0  0  0  0  0  0  0  0  0  0
    5.1038   -0.0824   -2.4422 H   0  0  0  0  0  0  0  0  0  0  0  0
    4.6536   -0.5958   -0.8367 H   0  0  0  0  0  0  0  0  0  0  0  0
    5.6546   -2.4625   -3.0635 H   0  0  0  0  0  0  0  0  0  0  0  0
    6.5566   -1.9913   -1.6542 H   0  0  0  0  0  0  0  0  0  0  0  0
    3.5002   -3.9318   -2.7555 H   0  0  0  0  0  0  0  0  0  0  0  0
    3.0354   -4.4194   -1.1103 H   0  0  0  0  0  0  0  0  0  0  0  0
    2.5830   -2.1298   -0.5387 H   0  0  0  0  0  0  0  0  0  0  0  0
    1.6476   -2.6128   -1.9758 H   0  0  0  0  0  0  0  0  0  0  0  0
    4.9034   -5.3270    0.2328 H   0  0  0  0  0  0  0  0  0  0  0  0
    7.0949   -6.8467    0.3340 H   0  0  0  0  0  0  0  0  0  0  0  0
    8.0228   -5.4607   -0.0231 H   0  0  0  0  0  0  0  0  0  0  0  0
    8.6935   -5.0268    3.4068 H   0  0  0  0  0  0  0  0  0  0  0  0
    9.0115   -4.3688    1.7399 H   0  0  0  0  0  0  0  0  0  0  0  0
    9.2248   -6.0426    2.2393 H   0  0  0  0  0  0  0  0  0  0  0  0
    6.4595   -6.1050    3.8826 H   0  0  0  0  0  0  0  0  0  0  0  0
    8.1772   -7.9176    2.3415 H   0  0  0  0  0  0  0  0  0  0  0  0
    8.1493   -7.4721    4.0331 H   0  0  0  0  0  0  0  0  0  0  0  0
    6.8094   -9.6671    2.6360 H   0  0  0  0  0  0  0  0  0  0  0  0
    7.0734   -9.4882    4.3610 H   0  0  0  0  0  0  0  0  0  0  0  0
    5.2655   -8.1523    4.6670 H   0  0  0  0  0  0  0  0  0  0  0  0
    4.4623  -10.1778    2.5283 H   0  0  0  0  0  0  0  0  0  0  0  0
    4.6073  -10.4838    4.2058 H   0  0  0  0  0  0  0  0  0  0  0  0
    0.9800  -10.8364    3.0242 H   0  0  0  0  0  0  0  0  0  0  0  0
    2.4271  -10.9954    2.0564 H   0  0  0  0  0  0  0  0  0  0  0  0
    2.0459  -12.8073    3.3278 H   0  0  0  0  0  0  0  0  0  0  0  0
    2.4820   -8.5681    1.7227 H   0  0  0  0  0  0  0  0  0  0  0  0
    1.1235   -8.5383    2.6499 H   0  0  0  0  0  0  0  0  0  0  0  0
    1.7076   -6.4325    2.9858 H   0  0  0  0  0  0  0  0  0  0  0  0
    3.5566   -7.3848    5.1798 H   0  0  0  0  0  0  0  0  0  0  0  0
    1.8952   -4.9674    4.9950 H   0  0  0  0  0  0  0  0  0  0  0  0
    3.2300   -5.3485    6.1031 H   0  0  0  0  0  0  0  0  0  0  0  0
    3.5303   -4.2604    3.5731 H   0  0  0  0  0  0  0  0  0  0  0  0
    4.8039   -5.0421    4.4606 H   0  0  0  0  0  0  0  0  0  0  0  0
    3.6185   -5.8606    1.9589 H   0  0  0  0  0  0  0  0  0  0  0  0
    4.3063   -8.6482    1.0191 H   0  0  0  0  0  0  0  0  0  0  0  0
    5.9850   -8.4310    0.9619 H   0  0  0  0  0  0  0  0  0  0  0  0
    4.8786   -7.2032    0.4173 H   0  0  0  0  0  0  0  0  0  0  0  0
    1.2316   -8.4918    7.6577 H   0  0  0  0  0  0  0  0  0  0  0  0
    1.5101   -6.7742    7.4178 H   0  0  0  0  0  0  0  0  0  0  0  0
    2.8664   -7.8948    7.4203 H   0  0  0  0  0  0  0  0  0  0  0  0
   -0.4721   -8.3322    5.8693 H   0  0  0  0  0  0  0  0  0  0  0  0
   -0.0953   -7.9940    4.2137 H   0  0  0  0  0  0  0  0  0  0  0  0
   -0.1123   -6.6847    5.3757 H   0  0  0  0  0  0  0  0  0  0  0  0
    3.1022   -9.5765    5.7810 H   0  0  0  0  0  0  0  0  0  0  0  0
    1.6997  -10.9133    6.2838 H   0  0  0  0  0  0  0  0  0  0  0  0
    5.2367   -4.3423    2.3430 H   0  0  0  0  0  0  0  0  0  0  0  0
    6.6135   -3.3157    2.6119 H   0  0  0  0  0  0  0  0  0  0  0  0
    7.0188   -3.1804    0.2415 H   0  0  0  0  0  0  0  0  0  0  0  0
  1  2  1  0
  1 37  1  0
  1 38  1  0
  1 39  1  0
  2  7  1  0
  2  3  1  0
  2 40  1  6
  3  4  1  0
  3 41  1  0
  3 42  1  0
  4  5  1  0
  4 43  1  0
  4 44  1  0
  5 36  1  0
  5  6  1  0
  5  8  1  0
  6  7  1  0
  6 45  1  0
  6 46  1  0
  7 47  1  0
  7 48  1  0
  8  9  1  0
  9 35  1  0
  9 10  1  0
  9 49  1  1
 10 11  1  0
 10 50  1  0
 10 51  1  0
 11 12  1  1
 11 13  1  0
 11 34  1  0
 12 52  1  0
 12 53  1  0
 12 54  1  0
 13 27  1  0
 13 14  1  0
 13 55  1  1
 14 15  1  0
 14 56  1  0
 14 57  1  0
 15 16  1  0
 15 58  1  0
 15 59  1  0
 16 27  1  0
 16 17  1  0
 16 60  1  1
 17 18  1  0
 17 61  1  0
 17 62  1  0
 18 32  1  0
 18 19  1  6
 18 21  1  0
 19 20  1  0
 19 63  1  0
 19 64  1  0
 20 65  1  0
 21 22  1  0
 21 66  1  0
 21 67  1  0
 22 26  1  0
 22 23  1  0
 22 68  1  6
 23 24  1  0
 23 29  1  0
 23 69  1  6
 24 25  1  0
 24 70  1  0
 24 71  1  0
 25 26  1  0
 25 72  1  0
 25 73  1  0
 26 27  1  0
 26 74  1  6
 27 28  1  6
 28 75  1  0
 28 76  1  0
 28 77  1  0
 29 30  1  0
 29 31  1  0
 29 32  1  0
 30 78  1  0
 30 79  1  0
 30 80  1  0
 31 81  1  0
 31 82  1  0
 31 83  1  0
 32 33  1  0
 32 84  1  1
 33 85  1  0
 34 35  1  0
 34 86  1  0
 34 87  1  0
 35 36  1  0
 35 88  1  6
M  END
>  <i_m_ct_stereo_status>  (222) 
1

>  <s_m_source_file>  (222) 
/var/tmp/pbs.5076255.sched01/tmpj5h_4zim/74m36hq9q5.sdf

>  <i_m_source_file_index>  (222) 
31

>  <i_lp_mmshare_version>  (222) 
48012

>  <i_f3d_flags>  (222) 
0

>  <s_epik_input>  (222) 
W0NIMl0xW0NIMl1bQ0hdKFtDSDNdKVtDSDJdW0NIMl1bQ0BAXTEyT1tDQEBIXTNbQ0BASF0oTzIpW0NIMl1bQ0BdKFtDSDJdMykoW0NIM10pW0NASF0oW0NIMl1bQ0gyXTQpW0NAQF0oW0NIM10pKFtDQEhdNFtDSDJdW0NAXTU2W0NIMl1bT0hdKVtDQEhdN1tDQEBIXShbQ0gyXTUpW0NAQEhdKFtDSDJdW0NIMl03KUMoW0NIM10pKFtDSDNdKVtDQEhdNltPSF0=

>  <s_epik_cmdline>  (222) 
J2VwaWtfcHl0aG9uJywgJy1waHQnLCAnMi4wJywgJy1waCcsICc3LjAnLCAnLXRuJywgJzgnLCAnLW1hJywgJzIwMCcsICctaW1hZScsICc8aW5maWxlLm1hZT4nLCAnLW9tYWUnLCAnPG91dGZpbGUubWFlPic=

>  <r_lp_tautomer_probability>  (222) 
1

>  <r_epik_Ionization_Penalty>  (222) 
1.93745e-06

>  <r_epik_Ionization_Penalty_Charging>  (222) 
0

>  <r_epik_Ionization_Penalty_Neutral>  (222) 
1.93745e-06

>  <r_epik_State_Penalty>  (222) 
-0

>  <r_epik_Charging_Adjusted_Penalty>  (222) 
0

>  <i_epik_Tot_Q>  (222) 
0

>  <i_epik_Tot_abs_Q>  (222) 
0

>  <s_lp_Force_Field>  (222) 
OPLS3e

>  <r_lp_Energy>  (222) 
116.104

>  <b_lp_Chiralities_Consistent>  (222) 
1

>  <s_lp_Variant>  (222) 
84:0-1

>  <s_i_glide_gridfile>  (222) 
pfpi4k_grid

>  <i_i_glide_lignum>  (222) 
31

>  <i_i_glide_rotatable_bonds>  (222) 
4

>  <r_i_docking_score>  (222) 
-1.60067

>  <r_i_glide_ligand_efficiency>  (222) 
-0.0444631

>  <r_i_glide_ligand_efficiency_sa>  (222) 
-0.146814

>  <r_i_glide_ligand_efficiency_ln>  (222) 
-0.349223

>  <r_i_glide_gscore>  (222) 
-1.60067

>  <r_i_glide_lipo>  (222) 
-0.583795

>  <r_i_glide_hbond>  (222) 
0

>  <r_i_glide_metal>  (222) 
-0

>  <r_i_glide_rewards>  (222) 
-0.0710763

>  <r_i_glide_evdw>  (222) 
-8.07941

>  <r_i_glide_ecoul>  (222) 
-4.69808

>  <r_i_glide_erotb>  (222) 
0.162883

>  <r_i_glide_esite>  (222) 
0

>  <r_i_glide_emodel>  (222) 
-9.39701

>  <r_i_glide_energy>  (222) 
-12.7775

>  <r_i_glide_einternal>  (222) 
8.08819

>  <r_i_glide_intrahb_reward>  (222) 
-0

>  <i_i_glide_confnum>  (222) 
1

>  <i_i_glide_posenum>  (222) 
19

>  <r_i_glide_eff_state_penalty>  (222) 
0

>  <ligand_id>  (222) 
84

>  <original_smiles>  (222) 
CC1CCC2(CC1)OC1CC(C)(C3CCC4CC5(CO)CC6C(CCC6C43C)C(C)(C)C5O)CC1O2

>  <smiles>  (222) 
[H]OC([H])([H])C12C([H])([H])C3([H])C([H])(C([H])([H])C([H])([H])C3([H])C3(C([H])([H])[H])C([H])(C([H])([H])C([H])([H])C3([H])C3(C([H])([H])[H])C([H])([H])C4([H])OC5(OC4([H])C3([H])[H])C([H])([H])C([H])([H])C([H])(C([H])([H])[H])C([H])([H])C5([H])[H])C1([H])[H])C(C([H])([H])[H])(C([H])([H])[H])C2([H])O[H]

$$$$
86:0:0
     RDKit          3D

 69 75  0  0  1  0  0  0  0  0999 V2000
    4.7865   -7.2199    4.3825 C   0  0  0  0  0  0  0  0  0  0  0  0
    3.8309   -6.7074    5.3121 O   0  0  0  0  0  0  0  0  0  0  0  0
    2.8806   -5.7047    4.9161 C   0  0  2  0  0  0  0  0  0  0  0  0
    1.7481   -5.7317    5.9790 C   0  0  2  0  0  0  0  0  0  0  0  0
    1.0200   -7.0942    5.7926 C   0  0  2  0  0  0  0  0  0  0  0  0
    1.8180   -8.1004    6.4802 O   0  0  0  0  0  0  0  0  0  0  0  0
    2.2365   -8.9999    5.5350 C   0  0  0  0  0  0  0  0  0  0  0  0
    2.8899  -10.2493    5.6519 C   0  0  0  0  0  0  0  0  0  0  0  0
    3.3966  -10.6600    6.8509 O   0  0  0  0  0  0  0  0  0  0  0  0
    2.9735  -11.1050    4.5130 C   0  0  0  0  0  0  0  0  0  0  0  0
    2.3276  -10.7743    3.2916 C   0  0  0  0  0  0  0  0  0  0  0  0
    1.7286   -9.4964    3.1852 C   0  0  0  0  0  0  0  0  0  0  0  0
    1.8252   -8.6615    4.2785 C   0  0  0  0  0  0  0  0  0  0  0  0
    1.0833   -7.3766    4.2556 C   0  0  2  0  0  0  0  0  0  0  0  0
    1.9818   -6.1839    3.7197 C   0  0  1  0  0  0  0  0  0  0  0  0
    1.1171   -4.9736    3.3220 C   0  0  0  0  0  0  0  0  0  0  0  0
    0.2794   -4.5306    4.3986 O   0  0  0  0  0  0  0  0  0  0  0  0
    0.8184   -4.5103    5.7284 C   0  0  1  0  0  0  0  0  0  0  0  0
   -0.4289   -4.4809    6.6325 C   0  0  0  0  0  0  0  0  0  0  0  0
    1.6164   -3.2203    5.9906 C   0  0  0  0  0  0  0  0  0  0  0  0
    2.7894   -3.0407    5.0325 C   0  0  0  0  0  0  0  0  0  0  0  0
    3.6753   -4.3102    4.8484 C   0  0  1  0  0  0  0  0  0  0  0  0
    4.7424   -4.2320    5.9778 C   0  0  0  0  0  0  0  0  0  0  0  0
    4.3904   -4.1402    3.5620 C   0  0  0  0  0  0  0  0  0  0  0  0
    4.9691   -3.9810    2.5007 C   0  0  0  0  0  0  0  0  0  0  0  0
    5.6704   -3.7867    1.2440 C   0  0  0  0  0  0  0  0  0  0  0  0
    4.9365   -3.5352    0.0690 C   0  0  0  0  0  0  0  0  0  0  0  0
    5.6370   -3.3244   -1.1360 C   0  0  0  0  0  0  0  0  0  0  0  0
    4.8828   -3.0791   -2.4229 C   0  0  0  0  0  0  0  0  0  0  0  0
    7.0462   -3.3539   -1.1110 C   0  0  0  0  0  0  0  0  0  0  0  0
    7.6865   -3.6243    0.1136 C   0  0  0  0  0  0  0  0  0  0  0  0
    7.0179   -3.8430    1.2646 N   0  0  0  0  0  0  0  0  0  0  0  0
   -0.1201   -7.9187    3.3736 C   0  0  1  0  0  0  0  0  0  0  0  0
   -1.1940   -8.6415    4.2101 C   0  0  0  0  0  0  0  0  0  0  0  0
   -0.8825   -7.0183    2.5927 O   0  0  0  0  0  0  0  0  0  0  0  0
    0.5807   -8.9206    2.3987 C   0  0  0  0  0  0  0  0  0  0  0  0
    5.2817   -8.0710    4.8476 H   0  0  0  0  0  0  0  0  0  0  0  0
    5.5664   -6.5010    4.1426 H   0  0  0  0  0  0  0  0  0  0  0  0
    4.3410   -7.5800    3.4567 H   0  0  0  0  0  0  0  0  0  0  0  0
    2.1627   -5.6707    6.9863 H   0  0  0  0  0  0  0  0  0  0  0  0
    0.0114   -7.1203    6.2013 H   0  0  0  0  0  0  0  0  0  0  0  0
    2.8302  -11.3291    7.2345 H   0  0  0  0  0  0  0  0  0  0  0  0
    3.4619  -12.0581    4.5986 H   0  0  0  0  0  0  0  0  0  0  0  0
    2.2496  -11.5181    2.5085 H   0  0  0  0  0  0  0  0  0  0  0  0
    2.5538   -6.4877    2.8407 H   0  0  0  0  0  0  0  0  0  0  0  0
    1.7257   -4.1757    2.9276 H   0  0  0  0  0  0  0  0  0  0  0  0
    0.5204   -5.1835    2.4497 H   0  0  0  0  0  0  0  0  0  0  0  0
   -0.1665   -4.5283    7.6908 H   0  0  0  0  0  0  0  0  0  0  0  0
   -1.1284   -5.2899    6.4116 H   0  0  0  0  0  0  0  0  0  0  0  0
   -0.9836   -3.5563    6.4746 H   0  0  0  0  0  0  0  0  0  0  0  0
    0.9697   -2.3419    5.9363 H   0  0  0  0  0  0  0  0  0  0  0  0
    1.9981   -3.2522    7.0100 H   0  0  0  0  0  0  0  0  0  0  0  0
    2.3956   -2.6602    4.0939 H   0  0  0  0  0  0  0  0  0  0  0  0
    3.3928   -2.2040    5.3872 H   0  0  0  0  0  0  0  0  0  0  0  0
    4.3010   -4.3234    6.9738 H   0  0  0  0  0  0  0  0  0  0  0  0
    5.2786   -3.2811    5.9555 H   0  0  0  0  0  0  0  0  0  0  0  0
    5.5170   -4.9958    5.8939 H   0  0  0  0  0  0  0  0  0  0  0  0
    3.8571   -3.5076    0.0927 H   0  0  0  0  0  0  0  0  0  0  0  0
    5.5588   -3.0751   -3.2763 H   0  0  0  0  0  0  0  0  0  0  0  0
    4.3761   -2.1158   -2.3799 H   0  0  0  0  0  0  0  0  0  0  0  0
    4.1342   -3.8555   -2.5839 H   0  0  0  0  0  0  0  0  0  0  0  0
    7.6286   -3.2241   -2.0115 H   0  0  0  0  0  0  0  0  0  0  0  0
    8.7645   -3.6857    0.1725 H   0  0  0  0  0  0  0  0  0  0  0  0
   -0.7439   -9.4226    4.8204 H   0  0  0  0  0  0  0  0  0  0  0  0
   -1.9508   -9.1189    3.5902 H   0  0  0  0  0  0  0  0  0  0  0  0
   -1.7200   -7.9608    4.8768 H   0  0  0  0  0  0  0  0  0  0  0  0
   -1.5512   -7.5154    2.1448 H   0  0  0  0  0  0  0  0  0  0  0  0
    1.0063   -8.3906    1.5475 H   0  0  0  0  0  0  0  0  0  0  0  0
   -0.1059   -9.6847    2.0347 H   0  0  0  0  0  0  0  0  0  0  0  0
  1  2  1  0
  1 37  1  0
  1 38  1  0
  1 39  1  0
  3  2  1  1
  3 15  1  0
  3 22  1  0
  3  4  1  0
  4 18  1  0
  4  5  1  0
  4 40  1  1
  5 14  1  0
  5  6  1  0
  5 41  1  1
  6  7  1  0
  7 13  2  0
  7  8  1  0
  8  9  1  0
  8 10  2  0
  9 42  1  0
 10 11  1  0
 10 43  1  0
 11 12  2  0
 11 44  1  0
 12 36  1  0
 12 13  1  0
 14 13  1  1
 14 15  1  0
 14 33  1  0
 15 16  1  0
 15 45  1  6
 16 17  1  0
 16 46  1  0
 16 47  1  0
 17 18  1  0
 18 19  1  1
 18 20  1  0
 19 48  1  0
 19 49  1  0
 19 50  1  0
 20 21  1  0
 20 51  1  0
 20 52  1  0
 21 22  1  0
 21 53  1  0
 21 54  1  0
 22 23  1  0
 22 24  1  6
 23 55  1  0
 23 56  1  0
 23 57  1  0
 24 25  3  0
 25 26  1  0
 26 32  1  0
 26 27  2  0
 27 28  1  0
 27 58  1  0
 28 29  1  0
 28 30  2  0
 29 59  1  0
 29 60  1  0
 29 61  1  0
 30 31  1  0
 30 62  1  0
 31 32  2  0
 31 63  1  0
 33 34  1  0
 33 35  1  6
 33 36  1  0
 34 64  1  0
 34 65  1  0
 34 66  1  0
 35 67  1  0
 36 68  1  0
 36 69  1  0
M  END
>  <i_m_ct_stereo_status>  (223) 
1

>  <s_m_source_file>  (223) 
/var/tmp/pbs.5076255.sched01/tmpj5h_4zim/74m36hq9q5.sdf

>  <i_m_source_file_index>  (223) 
33

>  <i_lp_mmshare_version>  (223) 
48012

>  <i_f3d_flags>  (223) 
0

>  <s_epik_input>  (223) 
W09IXWMxW2NIXVtjSF1jKFtDSDJdW0NAXTIoW0NIM10pW09IXSljM2MxT1tDQEhdKFtDQF0yMzQpW0NASF01W0NAQF02KE9bQ0gzXSlbQ0BASF00W0NIMl1PW0NAXTUoW0NIM10pW0NIMl1bQ0gyXVtDQF02KFtDSDNdKUMjQ2M3W2NIXWMoW0NIM10pW2NIXVtjSF1uNw==

>  <s_epik_cmdline>  (223) 
J2VwaWtfcHl0aG9uJywgJy1waHQnLCAnMi4wJywgJy1waCcsICc3LjAnLCAnLXRuJywgJzgnLCAnLW1hJywgJzIwMCcsICctaW1hZScsICc8aW5maWxlLm1hZT4nLCAnLW9tYWUnLCAnPG91dGZpbGUubWFlPic=

>  <r_lp_tautomer_probability>  (223) 
1

>  <r_epik_Ionization_Penalty>  (223) 
0.00546304

>  <r_epik_Ionization_Penalty_Charging>  (223) 
0

>  <r_epik_Ionization_Penalty_Neutral>  (223) 
0.00546304

>  <r_epik_State_Penalty>  (223) 
-0

>  <r_epik_Charging_Adjusted_Penalty>  (223) 
0

>  <i_epik_Tot_Q>  (223) 
0

>  <i_epik_Tot_abs_Q>  (223) 
0

>  <s_lp_Force_Field>  (223) 
OPLS3e

>  <r_lp_Energy>  (223) 
91.7192

>  <b_lp_Chiralities_Consistent>  (223) 
1

>  <s_lp_Variant>  (223) 
86:0-1

>  <s_i_glide_gridfile>  (223) 
pfpi4k_grid

>  <i_i_glide_lignum>  (223) 
33

>  <i_i_glide_rotatable_bonds>  (223) 
5

>  <r_i_docking_score>  (223) 
-2.89839

>  <r_i_glide_ligand_efficiency>  (223) 
-0.0805107

>  <r_i_glide_ligand_efficiency_sa>  (223) 
-0.265841

>  <r_i_glide_ligand_efficiency_ln>  (223) 
-0.632349

>  <r_i_glide_gscore>  (223) 
-2.89839

>  <r_i_glide_lipo>  (223) 
-0.735411

>  <r_i_glide_hbond>  (223) 
0

>  <r_i_glide_metal>  (223) 
-0

>  <r_i_glide_rewards>  (223) 
-0.084636

>  <r_i_glide_evdw>  (223) 
-24.9181

>  <r_i_glide_ecoul>  (223) 
-6.68974

>  <r_i_glide_erotb>  (223) 
0.17103

>  <r_i_glide_esite>  (223) 
0

>  <r_i_glide_emodel>  (223) 
-35.5354

>  <r_i_glide_energy>  (223) 
-31.6079

>  <r_i_glide_einternal>  (223) 
3.60422

>  <r_i_glide_intrahb_reward>  (223) 
-0

>  <i_i_glide_confnum>  (223) 
1

>  <i_i_glide_posenum>  (223) 
32

>  <r_i_glide_eff_state_penalty>  (223) 
0

>  <ligand_id>  (223) 
86

>  <original_smiles>  (223) 
COC12C3C4Oc5c(O)ccc6c5C4(C1COC3(C)CCC2(C)C#Cc1cc(C)ccn1)C(C)(O)C6

>  <smiles>  (223) 
[H]Oc1c([H])c([H])c2c3c1OC1([H])C4([H])C5(C([H])([H])[H])OC([H])([H])C([H])(C4(OC([H])([H])[H])C(C#Cc4nc([H])c([H])c(C([H])([H])[H])c4[H])(C([H])([H])[H])C([H])([H])C5([H])[H])C31C(O[H])(C([H])([H])[H])C2([H])[H]

$$$$
86:0:1
     RDKit          3D

 69 75  0  0  1  0  0  0  0  0999 V2000
    4.2055   -7.0166    6.9131 C   0  0  0  0  0  0  0  0  0  0  0  0
    3.8117   -6.6896    5.5472 O   0  0  0  0  0  0  0  0  0  0  0  0
    2.8126   -5.6831    5.2090 C   0  0  2  0  0  0  0  0  0  0  0  0
    1.5821   -5.7526    6.1551 C   0  0  2  0  0  0  0  0  0  0  0  0
    0.8440   -7.1179    5.8687 C   0  0  2  0  0  0  0  0  0  0  0  0
    1.5368   -8.2178    6.5395 O   0  0  0  0  0  0  0  0  0  0  0  0
    2.1102   -9.0284    5.5834 C   0  0  0  0  0  0  0  0  0  0  0  0
    2.8324  -10.2362    5.6738 C   0  0  0  0  0  0  0  0  0  0  0  0
    3.3205  -10.6518    6.8672 O   0  0  0  0  0  0  0  0  0  0  0  0
    3.0253  -11.0438    4.5055 C   0  0  0  0  0  0  0  0  0  0  0  0
    2.4376  -10.6776    3.2707 C   0  0  0  0  0  0  0  0  0  0  0  0
    1.8606   -9.3826    3.1745 C   0  0  0  0  0  0  0  0  0  0  0  0
    1.8435   -8.5974    4.3164 C   0  0  0  0  0  0  0  0  0  0  0  0
    1.0592   -7.3352    4.3276 C   0  0  2  0  0  0  0  0  0  0  0  0
    1.9842   -6.1217    3.9142 C   0  0  1  0  0  0  0  0  0  0  0  0
    1.1177   -4.9114    3.4699 C   0  0  0  0  0  0  0  0  0  0  0  0
    0.2145   -4.4979    4.5027 O   0  0  0  0  0  0  0  0  0  0  0  0
    0.6904   -4.5223    5.8598 C   0  0  1  0  0  0  0  0  0  0  0  0
   -0.5743   -4.5283    6.7309 C   0  0  0  0  0  0  0  0  0  0  0  0
    1.4688   -3.2274    6.1847 C   0  0  0  0  0  0  0  0  0  0  0  0
    2.6769   -2.9979    5.2768 C   0  0  0  0  0  0  0  0  0  0  0  0
    3.5885   -4.2533    5.1106 C   0  0  1  0  0  0  0  0  0  0  0  0
    4.6557   -4.0363    6.2184 C   0  0  0  0  0  0  0  0  0  0  0  0
    4.3366   -4.1033    3.8196 C   0  0  0  0  0  0  0  0  0  0  0  0
    4.9398   -3.9056    2.7992 C   0  0  0  0  0  0  0  0  0  0  0  0
    5.6446   -3.6673    1.5277 C   0  0  0  0  0  0  0  0  0  0  0  0
    5.0597   -2.8726    0.5288 C   0  0  0  0  0  0  0  0  0  0  0  0
    5.7469   -2.6820   -0.6922 C   0  0  0  0  0  0  0  0  0  0  0  0
    5.1356   -1.8623   -1.7993 C   0  0  0  0  0  0  0  0  0  0  0  0
    7.0181   -3.2944   -0.8418 C   0  0  0  0  0  0  0  0  0  0  0  0
    7.5119   -4.0632    0.2129 C   0  0  0  0  0  0  0  0  0  0  0  0
    6.8451   -4.2578    1.3730 N   0  0  0  0  0  0  0  0  0  0  0  0
   -0.0672   -7.8729    3.3634 C   0  0  1  0  0  0  0  0  0  0  0  0
   -1.1643   -8.6310    4.1518 C   0  0  0  0  0  0  0  0  0  0  0  0
   -0.8186   -6.9665    2.5684 O   0  0  0  0  0  0  0  0  0  0  0  0
    0.6920   -8.8444    2.3907 C   0  0  0  0  0  0  0  0  0  0  0  0
    5.0523   -7.7292    6.8614 H   0  0  0  0  0  0  0  0  0  0  0  0
    3.3911   -7.4731    7.4708 H   0  0  0  0  0  0  0  0  0  0  0  0
    4.4969   -6.1607    7.5156 H   0  0  0  0  0  0  0  0  0  0  0  0
    1.8573   -5.6734    7.2083 H   0  0  0  0  0  0  0  0  0  0  0  0
   -0.2189   -7.1099    6.1523 H   0  0  0  0  0  0  0  0  0  0  0  0
    2.7820  -11.3461    7.2390 H   0  0  0  0  0  0  0  0  0  0  0  0
    3.5353  -11.9707    4.6015 H   0  0  0  0  0  0  0  0  0  0  0  0
    2.3656  -11.4270    2.4907 H   0  0  0  0  0  0  0  0  0  0  0  0
    2.6491   -6.3830    3.0848 H   0  0  0  0  0  0  0  0  0  0  0  0
    1.7272   -4.0937    3.1180 H   0  0  0  0  0  0  0  0  0  0  0  0
    0.5799   -5.1076    2.5558 H   0  0  0  0  0  0  0  0  0  0  0  0
   -0.3227   -4.6078    7.7903 H   0  0  0  0  0  0  0  0  0  0  0  0
   -1.2455   -5.3462    6.4715 H   0  0  0  0  0  0  0  0  0  0  0  0
   -1.1331   -3.6062    6.5829 H   0  0  0  0  0  0  0  0  0  0  0  0
    0.8220   -2.3468    6.1437 H   0  0  0  0  0  0  0  0  0  0  0  0
    1.8288   -3.2812    7.2136 H   0  0  0  0  0  0  0  0  0  0  0  0
    2.3261   -2.5959    4.3292 H   0  0  0  0  0  0  0  0  0  0  0  0
    3.2555   -2.1590    5.6797 H   0  0  0  0  0  0  0  0  0  0  0  0
    4.1879   -4.0422    7.2096 H   0  0  0  0  0  0  0  0  0  0  0  0
    5.2074   -3.0895    6.1394 H   0  0  0  0  0  0  0  0  0  0  0  0
    5.4342   -4.7969    6.1552 H   0  0  0  0  0  0  0  0  0  0  0  0
    4.0918   -2.4145    0.6829 H   0  0  0  0  0  0  0  0  0  0  0  0
    5.7266   -1.9449   -2.7093 H   0  0  0  0  0  0  0  0  0  0  0  0
    5.0896   -0.8092   -1.5137 H   0  0  0  0  0  0  0  0  0  0  0  0
    4.1261   -2.2111   -2.0322 H   0  0  0  0  0  0  0  0  0  0  0  0
    7.5791   -3.2009   -1.7641 H   0  0  0  0  0  0  0  0  0  0  0  0
    8.4651   -4.5741    0.1373 H   0  0  0  0  0  0  0  0  0  0  0  0
   -0.7132   -9.4225    4.7530 H   0  0  0  0  0  0  0  0  0  0  0  0
   -1.9007   -9.1141    3.5045 H   0  0  0  0  0  0  0  0  0  0  0  0
   -1.7309   -7.9920    4.8376 H   0  0  0  0  0  0  0  0  0  0  0  0
   -1.4622   -7.4646    2.0852 H   0  0  0  0  0  0  0  0  0  0  0  0
    1.0978   -8.2586    1.5641 H   0  0  0  0  0  0  0  0  0  0  0  0
    0.0140   -9.6155    1.9993 H   0  0  0  0  0  0  0  0  0  0  0  0
  1  2  1  0
  1 37  1  0
  1 38  1  0
  1 39  1  0
  3  2  1  1
  3 15  1  0
  3 22  1  0
  3  4  1  0
  4 18  1  0
  4  5  1  0
  4 40  1  1
  5 14  1  0
  5  6  1  0
  5 41  1  6
  6  7  1  0
  7 13  2  0
  7  8  1  0
  8  9  1  0
  8 10  2  0
  9 42  1  0
 10 11  1  0
 10 43  1  0
 11 12  2  0
 11 44  1  0
 12 36  1  0
 12 13  1  0
 14 13  1  1
 14 15  1  0
 14 33  1  0
 15 16  1  0
 15 45  1  6
 16 17  1  0
 16 46  1  0
 16 47  1  0
 17 18  1  0
 18 19  1  1
 18 20  1  0
 19 48  1  0
 19 49  1  0
 19 50  1  0
 20 21  1  0
 20 51  1  0
 20 52  1  0
 21 22  1  0
 21 53  1  0
 21 54  1  0
 22 23  1  0
 22 24  1  6
 23 55  1  0
 23 56  1  0
 23 57  1  0
 24 25  3  0
 25 26  1  0
 26 32  1  0
 26 27  2  0
 27 28  1  0
 27 58  1  0
 28 29  1  0
 28 30  2  0
 29 59  1  0
 29 60  1  0
 29 61  1  0
 30 31  1  0
 30 62  1  0
 31 32  2  0
 31 63  1  0
 33 34  1  0
 33 35  1  6
 33 36  1  0
 34 64  1  0
 34 65  1  0
 34 66  1  0
 35 67  1  0
 36 68  1  0
 36 69  1  0
M  END
>  <i_m_ct_stereo_status>  (224) 
1

>  <s_m_source_file>  (224) 
/var/tmp/pbs.5076255.sched01/tmpj5h_4zim/74m36hq9q5.sdf

>  <i_m_source_file_index>  (224) 
33

>  <i_lp_mmshare_version>  (224) 
48012

>  <i_f3d_flags>  (224) 
0

>  <s_epik_input>  (224) 
W09IXWMxW2NIXVtjSF1jKFtDSDJdW0NAXTIoW0NIM10pW09IXSljM2MxT1tDQEhdKFtDQF0yMzQpW0NASF01W0NAQF02KE9bQ0gzXSlbQ0BASF00W0NIMl1PW0NAXTUoW0NIM10pW0NIMl1bQ0gyXVtDQF02KFtDSDNdKUMjQ2M3W2NIXWMoW0NIM10pW2NIXVtjSF1uNw==

>  <s_epik_cmdline>  (224) 
J2VwaWtfcHl0aG9uJywgJy1waHQnLCAnMi4wJywgJy1waCcsICc3LjAnLCAnLXRuJywgJzgnLCAnLW1hJywgJzIwMCcsICctaW1hZScsICc8aW5maWxlLm1hZT4nLCAnLW9tYWUnLCAnPG91dGZpbGUubWFlPic=

>  <r_lp_tautomer_probability>  (224) 
1

>  <r_epik_Ionization_Penalty>  (224) 
0.00546304

>  <r_epik_Ionization_Penalty_Charging>  (224) 
0

>  <r_epik_Ionization_Penalty_Neutral>  (224) 
0.00546304

>  <r_epik_State_Penalty>  (224) 
-0

>  <r_epik_Charging_Adjusted_Penalty>  (224) 
0

>  <i_epik_Tot_Q>  (224) 
0

>  <i_epik_Tot_abs_Q>  (224) 
0

>  <s_lp_Force_Field>  (224) 
OPLS3e

>  <r_lp_Energy>  (224) 
91.7192

>  <b_lp_Chiralities_Consistent>  (224) 
1

>  <s_lp_Variant>  (224) 
86:0-1

>  <s_i_glide_gridfile>  (224) 
pfpi4k_grid

>  <i_i_glide_lignum>  (224) 
33

>  <i_i_glide_rotatable_bonds>  (224) 
5

>  <r_i_docking_score>  (224) 
-2.52011

>  <r_i_glide_ligand_efficiency>  (224) 
-0.070003

>  <r_i_glide_ligand_efficiency_sa>  (224) 
-0.231145

>  <r_i_glide_ligand_efficiency_ln>  (224) 
-0.549819

>  <r_i_glide_gscore>  (224) 
-2.52011

>  <r_i_glide_lipo>  (224) 
-0.425677

>  <r_i_glide_hbond>  (224) 
0

>  <r_i_glide_metal>  (224) 
-0

>  <r_i_glide_rewards>  (224) 
-0.084636

>  <r_i_glide_evdw>  (224) 
-24.0593

>  <r_i_glide_ecoul>  (224) 
-6.51906

>  <r_i_glide_erotb>  (224) 
0.17103

>  <r_i_glide_esite>  (224) 
0

>  <r_i_glide_emodel>  (224) 
-28.8283

>  <r_i_glide_energy>  (224) 
-30.5784

>  <r_i_glide_einternal>  (224) 
11.5112

>  <r_i_glide_intrahb_reward>  (224) 
-0

>  <i_i_glide_confnum>  (224) 
2

>  <i_i_glide_posenum>  (224) 
23

>  <r_i_glide_eff_state_penalty>  (224) 
0

>  <ligand_id>  (224) 
86

>  <original_smiles>  (224) 
COC12C3C4Oc5c(O)ccc6c5C4(C1COC3(C)CCC2(C)C#Cc1cc(C)ccn1)C(C)(O)C6

>  <smiles>  (224) 
[H]Oc1c([H])c([H])c2c3c1OC1([H])C4([H])C5(C([H])([H])[H])OC([H])([H])C([H])(C4(OC([H])([H])[H])C(C#Cc4nc([H])c([H])c(C([H])([H])[H])c4[H])(C([H])([H])[H])C([H])([H])C5([H])[H])C31C(O[H])(C([H])([H])[H])C2([H])[H]

$$$$
86:0:2
     RDKit          3D

 69 75  0  0  1  0  0  0  0  0999 V2000
    4.1997   -6.4666    6.1638 C   0  0  0  0  0  0  0  0  0  0  0  0
    3.6996   -7.7980    6.0214 O   0  0  0  0  0  0  0  0  0  0  0  0
    2.8078   -8.1438    4.9441 C   0  0  2  0  0  0  0  0  0  0  0  0
    2.8360   -9.6904    4.8367 C   0  0  2  0  0  0  0  0  0  0  0  0
    4.2655  -10.0583    4.3416 C   0  0  2  0  0  0  0  0  0  0  0  0
    5.1510  -10.0221    5.4981 O   0  0  0  0  0  0  0  0  0  0  0  0
    6.0874   -9.0503    5.2612 C   0  0  0  0  0  0  0  0  0  0  0  0
    7.2678   -8.6971    5.9521 C   0  0  0  0  0  0  0  0  0  0  0  0
    7.5189   -9.2301    7.1799 O   0  0  0  0  0  0  0  0  0  0  0  0
    8.2023   -7.8056    5.3487 C   0  0  0  0  0  0  0  0  0  0  0  0
    8.0240   -7.3419    4.0156 C   0  0  0  0  0  0  0  0  0  0  0  0
    6.8118   -7.6692    3.3651 C   0  0  0  0  0  0  0  0  0  0  0  0
    5.8862   -8.4027    4.0789 C   0  0  0  0  0  0  0  0  0  0  0  0
    4.6693   -8.8895    3.3844 C   0  0  2  0  0  0  0  0  0  0  0  0
    3.4554   -7.8764    3.5338 C   0  0  1  0  0  0  0  0  0  0  0  0
    2.3538   -8.1530    2.4862 C   0  0  0  0  0  0  0  0  0  0  0  0
    1.8877   -9.5081    2.5490 O   0  0  0  0  0  0  0  0  0  0  0  0
    1.7180  -10.1226    3.8409 C   0  0  1  0  0  0  0  0  0  0  0  0
    1.7112  -11.6342    3.5428 C   0  0  0  0  0  0  0  0  0  0  0  0
    0.3552   -9.7687    4.4584 C   0  0  0  0  0  0  0  0  0  0  0  0
    0.1591   -8.2701    4.6574 C   0  0  0  0  0  0  0  0  0  0  0  0
    1.3667   -7.5442    5.3258 C   0  0  1  0  0  0  0  0  0  0  0  0
    1.1108   -7.6515    6.8575 C   0  0  0  0  0  0  0  0  0  0  0  0
    1.2508   -6.1129    4.9618 C   0  0  0  0  0  0  0  0  0  0  0  0
    1.1356   -4.9300    4.6814 C   0  0  0  0  0  0  0  0  0  0  0  0
    0.9865   -3.5193    4.3775 C   0  0  0  0  0  0  0  0  0  0  0  0
    1.7905   -2.9284    3.3794 C   0  0  0  0  0  0  0  0  0  0  0  0
    1.6153   -1.5599    3.0918 C   0  0  0  0  0  0  0  0  0  0  0  0
    2.4593   -0.8835    2.0311 C   0  0  0  0  0  0  0  0  0  0  0  0
    0.6413   -0.8401    3.8137 C   0  0  0  0  0  0  0  0  0  0  0  0
   -0.1087   -1.5220    4.7900 C   0  0  0  0  0  0  0  0  0  0  0  0
    0.0539   -2.8320    5.0700 N   0  0  0  0  0  0  0  0  0  0  0  0
    5.3791   -9.0661    1.9814 C   0  0  1  0  0  0  0  0  0  0  0  0
    6.1295  -10.4060    1.8389 C   0  0  0  0  0  0  0  0  0  0  0  0
    4.5669   -9.0606    0.8295 O   0  0  0  0  0  0  0  0  0  0  0  0
    6.3891   -7.8638    1.9298 C   0  0  0  0  0  0  0  0  0  0  0  0
    4.9716   -6.4804    6.9339 H   0  0  0  0  0  0  0  0  0  0  0  0
    3.4430   -5.7654    6.5006 H   0  0  0  0  0  0  0  0  0  0  0  0
    4.6608   -6.0825    5.2557 H   0  0  0  0  0  0  0  0  0  0  0  0
    2.6512  -10.1544    5.8069 H   0  0  0  0  0  0  0  0  0  0  0  0
    4.3333  -11.0439    3.8826 H   0  0  0  0  0  0  0  0  0  0  0  0
    6.8306   -9.8192    7.4548 H   0  0  0  0  0  0  0  0  0  0  0  0
    9.0928   -7.5462    5.8883 H   0  0  0  0  0  0  0  0  0  0  0  0
    8.8201   -6.8212    3.4995 H   0  0  0  0  0  0  0  0  0  0  0  0
    3.7841   -6.8440    3.4043 H   0  0  0  0  0  0  0  0  0  0  0  0
    1.5447   -7.4480    2.5896 H   0  0  0  0  0  0  0  0  0  0  0  0
    2.6587   -7.9144    1.4723 H   0  0  0  0  0  0  0  0  0  0  0  0
    1.6468  -12.2322    4.4550 H   0  0  0  0  0  0  0  0  0  0  0  0
    2.5877  -11.9569    2.9783 H   0  0  0  0  0  0  0  0  0  0  0  0
    0.8492  -11.8937    2.9281 H   0  0  0  0  0  0  0  0  0  0  0  0
   -0.4593  -10.1603    3.8433 H   0  0  0  0  0  0  0  0  0  0  0  0
    0.2659  -10.2671    5.4243 H   0  0  0  0  0  0  0  0  0  0  0  0
   -0.1116   -7.8464    3.6962 H   0  0  0  0  0  0  0  0  0  0  0  0
   -0.7499   -8.1244    5.2443 H   0  0  0  0  0  0  0  0  0  0  0  0
    1.1530   -8.6847    7.2157 H   0  0  0  0  0  0  0  0  0  0  0  0
    0.1261   -7.2650    7.1269 H   0  0  0  0  0  0  0  0  0  0  0  0
    1.8139   -7.0718    7.4559 H   0  0  0  0  0  0  0  0  0  0  0  0
    2.5211   -3.5125    2.8417 H   0  0  0  0  0  0  0  0  0  0  0  0
    2.2840    0.1907    2.0184 H   0  0  0  0  0  0  0  0  0  0  0  0
    2.2184   -1.2741    1.0410 H   0  0  0  0  0  0  0  0  0  0  0  0
    3.5171   -1.0531    2.2261 H   0  0  0  0  0  0  0  0  0  0  0  0
    0.4696    0.2087    3.6267 H   0  0  0  0  0  0  0  0  0  0  0  0
   -0.8681   -1.0104    5.3641 H   0  0  0  0  0  0  0  0  0  0  0  0
    6.8341  -10.5703    2.6518 H   0  0  0  0  0  0  0  0  0  0  0  0
    6.6905  -10.4591    0.9040 H   0  0  0  0  0  0  0  0  0  0  0  0
    5.4353  -11.2453    1.8451 H   0  0  0  0  0  0  0  0  0  0  0  0
    4.1949   -9.9325    0.7171 H   0  0  0  0  0  0  0  0  0  0  0  0
    5.8844   -6.9495    1.6187 H   0  0  0  0  0  0  0  0  0  0  0  0
    7.2287   -8.0378    1.2556 H   0  0  0  0  0  0  0  0  0  0  0  0
  1  2  1  0
  1 37  1  0
  1 38  1  0
  1 39  1  0
  3  2  1  1
  3 15  1  0
  3 22  1  0
  3  4  1  0
  4 18  1  0
  4  5  1  0
  4 40  1  1
  5 14  1  0
  5  6  1  0
  5 41  1  6
  6  7  1  0
  7 13  2  0
  7  8  1  0
  8  9  1  0
  8 10  2  0
  9 42  1  0
 10 11  1  0
 10 43  1  0
 11 12  2  0
 11 44  1  0
 12 36  1  0
 12 13  1  0
 14 13  1  1
 14 15  1  0
 14 33  1  0
 15 16  1  0
 15 45  1  1
 16 17  1  0
 16 46  1  0
 16 47  1  0
 17 18  1  0
 18 19  1  6
 18 20  1  0
 19 48  1  0
 19 49  1  0
 19 50  1  0
 20 21  1  0
 20 51  1  0
 20 52  1  0
 21 22  1  0
 21 53  1  0
 21 54  1  0
 22 23  1  0
 22 24  1  6
 23 55  1  0
 23 56  1  0
 23 57  1  0
 24 25  3  0
 25 26  1  0
 26 32  1  0
 26 27  2  0
 27 28  1  0
 27 58  1  0
 28 29  1  0
 28 30  2  0
 29 59  1  0
 29 60  1  0
 29 61  1  0
 30 31  1  0
 30 62  1  0
 31 32  2  0
 31 63  1  0
 33 34  1  0
 33 35  1  6
 33 36  1  0
 34 64  1  0
 34 65  1  0
 34 66  1  0
 35 67  1  0
 36 68  1  0
 36 69  1  0
M  END
>  <i_m_ct_stereo_status>  (225) 
1

>  <s_m_source_file>  (225) 
/var/tmp/pbs.5076255.sched01/tmpj5h_4zim/74m36hq9q5.sdf

>  <i_m_source_file_index>  (225) 
33

>  <i_lp_mmshare_version>  (225) 
48012

>  <i_f3d_flags>  (225) 
0

>  <s_epik_input>  (225) 
W09IXWMxW2NIXVtjSF1jKFtDSDJdW0NAXTIoW0NIM10pW09IXSljM2MxT1tDQEhdKFtDQF0yMzQpW0NASF01W0NAQF02KE9bQ0gzXSlbQ0BASF00W0NIMl1PW0NAXTUoW0NIM10pW0NIMl1bQ0gyXVtDQF02KFtDSDNdKUMjQ2M3W2NIXWMoW0NIM10pW2NIXVtjSF1uNw==

>  <s_epik_cmdline>  (225) 
J2VwaWtfcHl0aG9uJywgJy1waHQnLCAnMi4wJywgJy1waCcsICc3LjAnLCAnLXRuJywgJzgnLCAnLW1hJywgJzIwMCcsICctaW1hZScsICc8aW5maWxlLm1hZT4nLCAnLW9tYWUnLCAnPG91dGZpbGUubWFlPic=

>  <r_lp_tautomer_probability>  (225) 
1

>  <r_epik_Ionization_Penalty>  (225) 
0.00546304

>  <r_epik_Ionization_Penalty_Charging>  (225) 
0

>  <r_epik_Ionization_Penalty_Neutral>  (225) 
0.00546304

>  <r_epik_State_Penalty>  (225) 
-0

>  <r_epik_Charging_Adjusted_Penalty>  (225) 
0

>  <i_epik_Tot_Q>  (225) 
0

>  <i_epik_Tot_abs_Q>  (225) 
0

>  <s_lp_Force_Field>  (225) 
OPLS3e

>  <r_lp_Energy>  (225) 
91.7192

>  <b_lp_Chiralities_Consistent>  (225) 
1

>  <s_lp_Variant>  (225) 
86:0-1

>  <s_i_glide_gridfile>  (225) 
pfpi4k_grid

>  <i_i_glide_lignum>  (225) 
33

>  <i_i_glide_rotatable_bonds>  (225) 
5

>  <r_i_docking_score>  (225) 
-1.5896

>  <r_i_glide_ligand_efficiency>  (225) 
-0.0441555

>  <r_i_glide_ligand_efficiency_sa>  (225) 
-0.145798

>  <r_i_glide_ligand_efficiency_ln>  (225) 
-0.346807

>  <r_i_glide_gscore>  (225) 
-1.5896

>  <r_i_glide_lipo>  (225) 
-0.179842

>  <r_i_glide_hbond>  (225) 
0

>  <r_i_glide_metal>  (225) 
-0

>  <r_i_glide_rewards>  (225) 
-0.084636

>  <r_i_glide_evdw>  (225) 
-24.1553

>  <r_i_glide_ecoul>  (225) 
-1.92254

>  <r_i_glide_erotb>  (225) 
0.17103

>  <r_i_glide_esite>  (225) 
0

>  <r_i_glide_emodel>  (225) 
-29.0827

>  <r_i_glide_energy>  (225) 
-26.0779

>  <r_i_glide_einternal>  (225) 
0.74011

>  <r_i_glide_intrahb_reward>  (225) 
-0

>  <i_i_glide_confnum>  (225) 
2

>  <i_i_glide_posenum>  (225) 
28

>  <r_i_glide_eff_state_penalty>  (225) 
0

>  <ligand_id>  (225) 
86

>  <original_smiles>  (225) 
COC12C3C4Oc5c(O)ccc6c5C4(C1COC3(C)CCC2(C)C#Cc1cc(C)ccn1)C(C)(O)C6

>  <smiles>  (225) 
[H]Oc1c([H])c([H])c2c3c1OC1([H])C4([H])C5(C([H])([H])[H])OC([H])([H])C([H])(C4(OC([H])([H])[H])C(C#Cc4nc([H])c([H])c(C([H])([H])[H])c4[H])(C([H])([H])[H])C([H])([H])C5([H])[H])C31C(O[H])(C([H])([H])[H])C2([H])[H]

$$$$
87:0:0
     RDKit          3D

 42 46  0  0  1  0  0  0  0  0999 V2000
    6.0505   -3.1469   -3.1547 C   0  0  0  0  0  0  0  0  0  0  0  0
    5.8530   -3.2522   -1.7673 O   0  0  0  0  0  0  0  0  0  0  0  0
    4.7454   -4.0155   -1.3590 C   0  0  2  0  0  0  0  0  0  0  0  0
    3.5172   -3.4732   -2.1081 C   0  0  0  0  0  0  0  0  0  0  0  0
    2.4459   -3.3402   -1.0665 C   0  0  1  0  0  0  0  0  0  0  0  0
    1.7562   -4.5612   -0.9037 O   0  0  0  0  0  0  0  0  0  0  0  0
    3.2404   -2.9484    0.2057 C   0  0  2  0  0  0  0  0  0  0  0  0
    2.4013   -2.9045    1.4963 C   0  0  0  0  0  0  0  0  0  0  0  0
    3.9194   -1.6729    0.0725 O   0  0  0  0  0  0  0  0  0  0  0  0
    5.2334   -1.6747    0.4655 C   0  0  0  0  0  0  0  0  0  0  0  0
    6.0572   -0.7947    0.4195 O   0  0  0  0  0  0  0  0  0  0  0  0
    5.4930   -3.0827    0.9704 C   0  0  2  0  0  0  0  0  0  0  0  0
    6.8826   -3.6795    0.8694 C   0  0  0  0  0  0  0  0  0  0  0  0
    6.9825   -5.0247    1.0874 C   0  0  0  0  0  0  0  0  0  0  0  0
    5.7557   -5.7454    1.3340 C   0  0  0  0  0  0  0  0  0  0  0  0
    5.6243   -6.7157    2.2236 C   0  0  0  0  0  0  0  0  0  0  0  0
    4.1574   -6.8392    2.4688 C   0  0  0  0  0  0  0  0  0  0  0  0
    3.3549   -8.1131    2.4533 C   0  0  0  0  0  0  0  0  0  0  0  0
    3.5444   -7.3542    3.7495 C   0  0  0  0  0  0  0  0  0  0  0  0
    3.5049   -5.7111    1.8457 O   0  0  0  0  0  0  0  0  0  0  0  0
    4.4013   -5.3453    0.7982 C   0  0  1  0  0  0  0  0  0  0  0  0
    4.4594   -3.8987    0.1969 C   0  0  2  0  0  0  0  0  0  0  0  0
    7.0171   -2.6957   -3.1599 H   0  0  0  0  0  0  0  0  0  0  0  0
    5.3530   -2.4831   -3.6690 H   0  0  0  0  0  0  0  0  0  0  0  0
    6.0090   -4.1293   -3.6475 H   0  0  0  0  0  0  0  0  0  0  0  0
    4.9532   -5.0447   -1.6479 H   0  0  0  0  0  0  0  0  0  0  0  0
    3.6719   -2.4511   -2.4633 H   0  0  0  0  0  0  0  0  0  0  0  0
    3.2426   -4.0459   -2.9941 H   0  0  0  0  0  0  0  0  0  0  0  0
    1.7893   -2.6238   -1.5302 H   0  0  0  0  0  0  0  0  0  0  0  0
    2.1036   -5.1339   -1.5844 H   0  0  0  0  0  0  0  0  0  0  0  0
    1.8373   -3.8256    1.6501 H   0  0  0  0  0  0  0  0  0  0  0  0
    1.6861   -2.0782    1.4326 H   0  0  0  0  0  0  0  0  0  0  0  0
    3.0167   -2.7474    2.3839 H   0  0  0  0  0  0  0  0  0  0  0  0
    5.2369   -3.0502    2.0188 H   0  0  0  0  0  0  0  0  0  0  0  0
    7.7289   -3.0338    0.6930 H   0  0  0  0  0  0  0  0  0  0  0  0
    7.9229   -5.5466    1.0811 H   0  0  0  0  0  0  0  0  0  0  0  0
    6.4548   -7.1220    2.8036 H   0  0  0  0  0  0  0  0  0  0  0  0
    2.3716   -8.0383    2.0057 H   0  0  0  0  0  0  0  0  0  0  0  0
    3.9079   -9.0458    2.2863 H   0  0  0  0  0  0  0  0  0  0  0  0
    4.2164   -7.7770    4.5030 H   0  0  0  0  0  0  0  0  0  0  0  0
    2.6721   -6.8365    4.1257 H   0  0  0  0  0  0  0  0  0  0  0  0
    4.1251   -6.0422    0.0086 H   0  0  0  0  0  0  0  0  0  0  0  0
  1  2  1  0
  1 23  1  0
  1 24  1  0
  1 25  1  0
  2  3  1  0
  3 22  1  0
  3  4  1  0
  3 26  1  6
  4  5  1  0
  4 27  1  0
  4 28  1  0
  5  6  1  0
  5  7  1  0
  5 29  1  6
  6 30  1  0
 22  7  1  6
  7  8  1  1
  7  9  1  0
  8 31  1  0
  8 32  1  0
  8 33  1  0
  9 10  1  0
 10 11  2  0
 10 12  1  0
 12 22  1  0
 12 13  1  0
 12 34  1  1
 13 14  2  0
 13 35  1  0
 14 15  1  0
 14 36  1  0
 15 21  1  0
 15 16  2  0
 16 17  1  0
 16 37  1  0
 17 19  1  0
 17 18  1  0
 17 20  1  0
 18 19  1  0
 18 38  1  0
 18 39  1  0
 19 40  1  0
 19 41  1  0
 20 21  1  0
 21 22  1  0
 21 42  1  6
M  END
>  <i_m_ct_stereo_status>  (226) 
1

>  <s_m_source_file>  (226) 
/var/tmp/pbs.5076255.sched01/tmpj5h_4zim/74m36hq9q5.sdf

>  <i_m_source_file_index>  (226) 
34

>  <i_lp_mmshare_version>  (226) 
48012

>  <i_f3d_flags>  (226) 
0

>  <s_epik_input>  (226) 
W0NIM11PW0NAQEhdMVtDSDJdW0NAQEhdKFtPSF0pW0NAXShbQ0gzXSkoT0MoPU8pW0NAQEhdMltDSF09W0NIXTMpW0NAQF0xMltDQEhdKE80KUMzPVtDSF1DNDVbQ0gyXVtDSDJdNQ==

>  <s_epik_cmdline>  (226) 
J2VwaWtfcHl0aG9uJywgJy1waHQnLCAnMi4wJywgJy1waCcsICc3LjAnLCAnLXRuJywgJzgnLCAnLW1hJywgJzIwMCcsICctaW1hZScsICc8aW5maWxlLm1hZT4nLCAnLW9tYWUnLCAnPG91dGZpbGUubWFlPic=

>  <r_lp_tautomer_probability>  (226) 
1

>  <r_epik_Ionization_Penalty>  (226) 
7.10078e-07

>  <r_epik_Ionization_Penalty_Charging>  (226) 
0

>  <r_epik_Ionization_Penalty_Neutral>  (226) 
7.10078e-07

>  <r_epik_State_Penalty>  (226) 
-0

>  <r_epik_Charging_Adjusted_Penalty>  (226) 
0

>  <i_epik_Tot_Q>  (226) 
0

>  <i_epik_Tot_abs_Q>  (226) 
0

>  <s_epik_Chemistry_Notes>  (226) 
This compound has an ester and may undergo hydrolysis at high or low pH.

>  <s_lp_Force_Field>  (226) 
OPLS3e

>  <r_lp_Energy>  (226) 
40.9414

>  <b_lp_Chiralities_Consistent>  (226) 
1

>  <s_lp_Variant>  (226) 
87:0-1

>  <s_i_glide_gridfile>  (226) 
pfpi4k_grid

>  <i_i_glide_lignum>  (226) 
34

>  <i_i_glide_rotatable_bonds>  (226) 
2

>  <r_i_docking_score>  (226) 
-3.62758

>  <r_i_glide_ligand_efficiency>  (226) 
-0.16489

>  <r_i_glide_ligand_efficiency_sa>  (226) 
-0.462028

>  <r_i_glide_ligand_efficiency_ln>  (226) 
-0.886713

>  <r_i_glide_gscore>  (226) 
-3.62758

>  <r_i_glide_lipo>  (226) 
-0.524784

>  <r_i_glide_hbond>  (226) 
0

>  <r_i_glide_metal>  (226) 
-0

>  <r_i_glide_rewards>  (226) 
-1.41557

>  <r_i_glide_evdw>  (226) 
-11.5714

>  <r_i_glide_ecoul>  (226) 
-7.39105

>  <r_i_glide_erotb>  (226) 
0

>  <r_i_glide_esite>  (226) 
0

>  <r_i_glide_emodel>  (226) 
-16.1906

>  <r_i_glide_energy>  (226) 
-18.9625

>  <r_i_glide_einternal>  (226) 
6.6678

>  <r_i_glide_intrahb_reward>  (226) 
-0

>  <i_i_glide_confnum>  (226) 
1

>  <i_i_glide_posenum>  (226) 
1

>  <r_i_glide_eff_state_penalty>  (226) 
0

>  <ligand_id>  (226) 
87

>  <original_smiles>  (226) 
COC1CC(O)C2(C)OC(=O)C3C=CC4=CC5(CC5)OC4C132

>  <smiles>  (226) 
[H]OC1([H])C([H])([H])C([H])(OC([H])([H])[H])C23C4([H])OC5(C([H])=C4C([H])=C([H])C2([H])C(=O)OC13C([H])([H])[H])C([H])([H])C5([H])[H]

$$$$
88:0:0
     RDKit          3D

 40 44  0  0  1  0  0  0  0  0999 V2000
    5.8151   -0.6650    0.9041 C   0  0  0  0  0  0  0  0  0  0  0  0
    5.1128   -1.8820    0.2465 C   0  0  2  0  0  0  0  0  0  0  0  0
    6.1738   -2.6066   -0.6430 C   0  0  1  0  0  0  0  0  0  0  0  0
    7.0222   -3.6620    0.0702 C   0  0  0  0  0  0  0  0  0  0  0  0
    6.1366   -4.6924    0.7578 C   0  0  0  0  0  0  0  0  0  0  0  0
    5.2598   -4.0148    1.8213 C   0  0  2  0  0  0  0  0  0  0  0  0
    4.2936   -5.0386    2.4270 C   0  0  0  0  0  0  0  0  0  0  0  0
    3.0440   -4.9972    1.5383 C   0  0  0  0  0  0  0  0  0  0  0  0
    3.1364   -3.7218    0.6670 C   0  0  2  0  0  0  0  0  0  0  0  0
    3.2359   -4.2002   -0.6771 O   0  0  0  0  0  0  0  0  0  0  0  0
    2.9550   -3.2846   -1.7423 C   0  0  0  0  0  0  0  0  0  0  0  0
    4.1334   -2.3551   -1.8606 C   0  0  1  0  0  0  0  0  0  0  0  0
    5.4471   -3.0915   -1.9008 C   0  0  0  0  0  0  0  0  0  0  0  0
    4.2009   -0.8717   -2.1489 C   0  0  0  0  0  0  0  0  0  0  0  0
    4.0802   -1.3710   -0.7312 C   0  0  2  0  0  0  0  0  0  0  0  0
    4.3510   -2.8780    1.2556 C   0  0  2  0  0  0  0  0  0  0  0  0
    3.7978   -2.0491    2.4656 C   0  0  0  0  0  0  0  0  0  0  0  0
    4.5812   -1.7966    3.4095 O   0  0  0  0  0  0  0  0  0  0  0  0
    2.6101   -1.6562    2.4457 O   0  0  0  0  0  0  0  0  0  0  0  0
    6.5296   -0.9755    1.6660 H   0  0  0  0  0  0  0  0  0  0  0  0
    5.1053    0.0205    1.3657 H   0  0  0  0  0  0  0  0  0  0  0  0
    6.3539   -0.0637    0.1732 H   0  0  0  0  0  0  0  0  0  0  0  0
    6.8789   -1.8583   -1.0020 H   0  0  0  0  0  0  0  0  0  0  0  0
    7.6949   -4.1442   -0.6411 H   0  0  0  0  0  0  0  0  0  0  0  0
    7.6546   -3.1830    0.8210 H   0  0  0  0  0  0  0  0  0  0  0  0
    5.5182   -5.2112    0.0232 H   0  0  0  0  0  0  0  0  0  0  0  0
    6.7611   -5.4590    1.2165 H   0  0  0  0  0  0  0  0  0  0  0  0
    5.9308   -3.6485    2.5980 H   0  0  0  0  0  0  0  0  0  0  0  0
    4.7240   -6.0395    2.4885 H   0  0  0  0  0  0  0  0  0  0  0  0
    4.0285   -4.7438    3.4439 H   0  0  0  0  0  0  0  0  0  0  0  0
    3.0029   -5.8905    0.9122 H   0  0  0  0  0  0  0  0  0  0  0  0
    2.1475   -5.0040    2.1587 H   0  0  0  0  0  0  0  0  0  0  0  0
    2.1779   -3.2080    0.7202 H   0  0  0  0  0  0  0  0  0  0  0  0
    2.8427   -3.8391   -2.6734 H   0  0  0  0  0  0  0  0  0  0  0  0
    2.0336   -2.7317   -1.5711 H   0  0  0  0  0  0  0  0  0  0  0  0
    5.9963   -2.8093   -2.7985 H   0  0  0  0  0  0  0  0  0  0  0  0
    5.2942   -4.1697   -1.9443 H   0  0  0  0  0  0  0  0  0  0  0  0
    5.1504   -0.4298   -2.4377 H   0  0  0  0  0  0  0  0  0  0  0  0
    3.3214   -0.4202   -2.6010 H   0  0  0  0  0  0  0  0  0  0  0  0
    3.1297   -1.0934   -0.2751 H   0  0  0  0  0  0  0  0  0  0  0  0
  2  1  1  1
  1 20  1  0
  1 21  1  0
  1 22  1  0
  2 15  1  0
  2 16  1  0
  2  3  1  0
  3 13  1  0
  3  4  1  0
  3 23  1  6
  4  5  1  0
  4 24  1  0
  4 25  1  0
  5  6  1  0
  5 26  1  0
  5 27  1  0
  6 16  1  0
  6  7  1  0
  6 28  1  1
  7  8  1  0
  7 29  1  0
  7 30  1  0
  8  9  1  0
  8 31  1  0
  8 32  1  0
  9 10  1  0
  9 16  1  0
  9 33  1  6
 10 11  1  0
 12 11  1  6
 11 34  1  0
 11 35  1  0
 12 15  1  0
 12 13  1  0
 12 14  1  0
 13 36  1  0
 13 37  1  0
 14 15  1  0
 14 38  1  0
 14 39  1  0
 15 40  1  1
 16 17  1  1
 17 18  2  0
 17 19  1  0
M  CHG  1  19  -1
M  END
>  <i_m_ct_stereo_status>  (227) 
1

>  <s_m_source_file>  (227) 
/var/tmp/pbs.5076255.sched01/tmpj5h_4zim/74m36hq9q5.sdf

>  <i_m_source_file_index>  (227) 
35

>  <i_lp_mmshare_version>  (227) 
48012

>  <i_f3d_flags>  (227) 
0

>  <s_epik_input>  (227) 
W0NAQF0xMjNbQ0BIXShbQ0gyXTMpW0NAXTQoW0NIM10pW0NASF0oW0NIMl0yKVtDSDJdW0NIMl1bQ0BIXTVbQ0BdNChDKD1PKVtPSF0pW0NASF0oW0NIMl1bQ0gyXTUpT1tDSDJdMQ==

>  <s_epik_cmdline>  (227) 
J2VwaWtfcHl0aG9uJywgJy1waHQnLCAnMi4wJywgJy1waCcsICc3LjAnLCAnLXRuJywgJzgnLCAnLW1hJywgJzIwMCcsICctaW1hZScsICc8aW5maWxlLm1hZT4nLCAnLW9tYWUnLCAnPG91dGZpbGUubWFlPic=

>  <r_epik_Ionization_Penalty>  (227) 
0.00393812

>  <r_epik_Ionization_Penalty_Charging>  (227) 
0.00393812

>  <r_epik_Ionization_Penalty_Neutral>  (227) 
1.54384e-10

>  <r_epik_State_Penalty>  (227) 
0.00281668

>  <r_epik_Charging_Adjusted_Penalty>  (227) 
0.0067548

>  <i_epik_Tot_Q>  (227) 
-1

>  <i_epik_Tot_abs_Q>  (227) 
1

>  <s_lp_Force_Field>  (227) 
OPLS3e

>  <r_lp_Energy>  (227) 
55.9542

>  <b_lp_Chiralities_Consistent>  (227) 
1

>  <s_lp_Variant>  (227) 
88:0-1

>  <s_i_glide_gridfile>  (227) 
pfpi4k_grid

>  <i_i_glide_lignum>  (227) 
35

>  <i_i_glide_rotatable_bonds>  (227) 
1

>  <r_i_docking_score>  (227) 
-2.93522

>  <r_i_glide_ligand_efficiency>  (227) 
-0.154485

>  <r_i_glide_ligand_efficiency_sa>  (227) 
-0.412228

>  <r_i_glide_ligand_efficiency_ln>  (227) 
-0.74414

>  <r_i_glide_gscore>  (227) 
-2.93522

>  <r_i_glide_lipo>  (227) 
-0.607181

>  <r_i_glide_hbond>  (227) 
0

>  <r_i_glide_metal>  (227) 
-0

>  <r_i_glide_rewards>  (227) 
-1.62725

>  <r_i_glide_evdw>  (227) 
-21.5089

>  <r_i_glide_ecoul>  (227) 
2.49905

>  <r_i_glide_erotb>  (227) 
0

>  <r_i_glide_esite>  (227) 
-0.000193461

>  <r_i_glide_emodel>  (227) 
-22.3569

>  <r_i_glide_energy>  (227) 
-19.0098

>  <r_i_glide_einternal>  (227) 
0.409698

>  <r_i_glide_intrahb_reward>  (227) 
-0

>  <i_i_glide_confnum>  (227) 
2

>  <i_i_glide_posenum>  (227) 
10

>  <r_i_glide_eff_state_penalty>  (227) 
0

>  <ligand_id>  (227) 
88

>  <original_smiles>  (227) 
CC12C3CCC4CCC(OCC5(C3)CC51)C42C(=O)O

>  <smiles>  (227) 
[H]C([H])([H])C12C3([H])C([H])([H])C([H])([H])C4([H])C([H])([H])C([H])([H])C([H])(OC([H])([H])C5(C3([H])[H])C([H])([H])C51[H])C42C(=O)[O-]

$$$$
88:0:1
     RDKit          3D

 40 44  0  0  1  0  0  0  0  0999 V2000
    5.8148   -0.6804    0.5019 C   0  0  0  0  0  0  0  0  0  0  0  0
    4.9972   -1.9854    0.3462 C   0  0  2  0  0  0  0  0  0  0  0  0
    5.8663   -2.9931   -0.4747 C   0  0  1  0  0  0  0  0  0  0  0  0
    6.8160   -3.8645    0.3514 C   0  0  0  0  0  0  0  0  0  0  0  0
    6.0579   -4.6017    1.4473 C   0  0  0  0  0  0  0  0  0  0  0  0
    5.4017   -3.5983    2.4065 C   0  0  2  0  0  0  0  0  0  0  0  0
    4.5583   -4.3448    3.4452 C   0  0  0  0  0  0  0  0  0  0  0  0
    3.1640   -4.4742    2.8201 C   0  0  0  0  0  0  0  0  0  0  0  0
    3.1019   -3.5045    1.6156 C   0  0  2  0  0  0  0  0  0  0  0  0
    2.9327   -4.3496    0.4715 O   0  0  0  0  0  0  0  0  0  0  0  0
    2.4918   -3.7362   -0.7416 C   0  0  0  0  0  0  0  0  0  0  0  0
    3.6401   -2.9568   -1.3323 C   0  0  1  0  0  0  0  0  0  0  0  0
    4.9105   -3.7642   -1.3910 C   0  0  0  0  0  0  0  0  0  0  0  0
    3.6662   -1.6179   -2.0366 C   0  0  0  0  0  0  0  0  0  0  0  0
    3.8156   -1.6987   -0.5428 C   0  0  2  0  0  0  0  0  0  0  0  0
    4.4183   -2.6122    1.7071 C   0  0  2  0  0  0  0  0  0  0  0  0
    4.1042   -1.4406    2.6982 C   0  0  0  0  0  0  0  0  0  0  0  0
    2.9626   -0.9302    2.6914 O   0  0  0  0  0  0  0  0  0  0  0  0
    5.0321   -1.0243    3.4301 O   0  0  0  0  0  0  0  0  0  0  0  0
    6.6599   -0.8121    1.1773 H   0  0  0  0  0  0  0  0  0  0  0  0
    5.2120    0.1479    0.8716 H   0  0  0  0  0  0  0  0  0  0  0  0
    6.2036   -0.3419   -0.4546 H   0  0  0  0  0  0  0  0  0  0  0  0
    6.4991   -2.4213   -1.1533 H   0  0  0  0  0  0  0  0  0  0  0  0
    7.3339   -4.5719   -0.2952 H   0  0  0  0  0  0  0  0  0  0  0  0
    7.5847   -3.2396    0.8110 H   0  0  0  0  0  0  0  0  0  0  0  0
    5.3098   -5.2648    1.0129 H   0  0  0  0  0  0  0  0  0  0  0  0
    6.7493   -5.2439    1.9939 H   0  0  0  0  0  0  0  0  0  0  0  0
    6.2110   -3.0644    2.8968 H   0  0  0  0  0  0  0  0  0  0  0  0
    4.9805   -5.3137    3.7152 H   0  0  0  0  0  0  0  0  0  0  0  0
    4.4934   -3.7607    4.3646 H   0  0  0  0  0  0  0  0  0  0  0  0
    2.9971   -5.5030    2.4961 H   0  0  0  0  0  0  0  0  0  0  0  0
    2.3980   -4.2500    3.5632 H   0  0  0  0  0  0  0  0  0  0  0  0
    2.1764   -2.9355    1.6983 H   0  0  0  0  0  0  0  0  0  0  0  0
    2.1654   -4.5008   -1.4364 H   0  0  0  0  0  0  0  0  0  0  0  0
    1.6415   -3.0788   -0.5774 H   0  0  0  0  0  0  0  0  0  0  0  0
    5.2833   -3.7784   -2.4160 H   0  0  0  0  0  0  0  0  0  0  0  0
    4.7387   -4.7977   -1.0958 H   0  0  0  0  0  0  0  0  0  0  0  0
    4.5488   -1.3467   -2.6163 H   0  0  0  0  0  0  0  0  0  0  0  0
    2.7216   -1.2510   -2.4292 H   0  0  0  0  0  0  0  0  0  0  0  0
    2.9780   -1.2361   -0.0198 H   0  0  0  0  0  0  0  0  0  0  0  0
  2  1  1  1
  1 20  1  0
  1 21  1  0
  1 22  1  0
  2 15  1  0
  2 16  1  0
  2  3  1  0
  3 13  1  0
  3  4  1  0
  3 23  1  6
  4  5  1  0
  4 24  1  0
  4 25  1  0
  5  6  1  0
  5 26  1  0
  5 27  1  0
  6 16  1  0
  6  7  1  0
  6 28  1  1
  7  8  1  0
  7 29  1  0
  7 30  1  0
  8  9  1  0
  8 31  1  0
  8 32  1  0
  9 10  1  0
  9 16  1  0
  9 33  1  1
 10 11  1  0
 12 11  1  1
 11 34  1  0
 11 35  1  0
 12 15  1  0
 12 13  1  0
 12 14  1  0
 13 36  1  0
 13 37  1  0
 14 15  1  0
 14 38  1  0
 14 39  1  0
 15 40  1  1
 16 17  1  1
 17 18  2  0
 17 19  1  0
M  CHG  1  19  -1
M  END
>  <i_m_ct_stereo_status>  (228) 
1

>  <s_m_source_file>  (228) 
/var/tmp/pbs.5076255.sched01/tmpj5h_4zim/74m36hq9q5.sdf

>  <i_m_source_file_index>  (228) 
35

>  <i_lp_mmshare_version>  (228) 
48012

>  <i_f3d_flags>  (228) 
0

>  <s_epik_input>  (228) 
W0NAQF0xMjNbQ0BIXShbQ0gyXTMpW0NAXTQoW0NIM10pW0NASF0oW0NIMl0yKVtDSDJdW0NIMl1bQ0BIXTVbQ0BdNChDKD1PKVtPSF0pW0NASF0oW0NIMl1bQ0gyXTUpT1tDSDJdMQ==

>  <s_epik_cmdline>  (228) 
J2VwaWtfcHl0aG9uJywgJy1waHQnLCAnMi4wJywgJy1waCcsICc3LjAnLCAnLXRuJywgJzgnLCAnLW1hJywgJzIwMCcsICctaW1hZScsICc8aW5maWxlLm1hZT4nLCAnLW9tYWUnLCAnPG91dGZpbGUubWFlPic=

>  <r_epik_Ionization_Penalty>  (228) 
0.00393812

>  <r_epik_Ionization_Penalty_Charging>  (228) 
0.00393812

>  <r_epik_Ionization_Penalty_Neutral>  (228) 
1.54384e-10

>  <r_epik_State_Penalty>  (228) 
0.00281668

>  <r_epik_Charging_Adjusted_Penalty>  (228) 
0.0067548

>  <i_epik_Tot_Q>  (228) 
-1

>  <i_epik_Tot_abs_Q>  (228) 
1

>  <s_lp_Force_Field>  (228) 
OPLS3e

>  <r_lp_Energy>  (228) 
55.9542

>  <b_lp_Chiralities_Consistent>  (228) 
1

>  <s_lp_Variant>  (228) 
88:0-1

>  <s_i_glide_gridfile>  (228) 
pfpi4k_grid

>  <i_i_glide_lignum>  (228) 
35

>  <i_i_glide_rotatable_bonds>  (228) 
1

>  <r_i_docking_score>  (228) 
-2.82217

>  <r_i_glide_ligand_efficiency>  (228) 
-0.148535

>  <r_i_glide_ligand_efficiency_sa>  (228) 
-0.396351

>  <r_i_glide_ligand_efficiency_ln>  (228) 
-0.71548

>  <r_i_glide_gscore>  (228) 
-2.82217

>  <r_i_glide_lipo>  (228) 
-0.434108

>  <r_i_glide_hbond>  (228) 
0

>  <r_i_glide_metal>  (228) 
-0

>  <r_i_glide_rewards>  (228) 
-1.62964

>  <r_i_glide_evdw>  (228) 
-18.4255

>  <r_i_glide_ecoul>  (228) 
1.08573

>  <r_i_glide_erotb>  (228) 
0

>  <r_i_glide_esite>  (228) 
0

>  <r_i_glide_emodel>  (228) 
-20.666

>  <r_i_glide_energy>  (228) 
-17.3398

>  <r_i_glide_einternal>  (228) 
0.215072

>  <r_i_glide_intrahb_reward>  (228) 
-0

>  <i_i_glide_confnum>  (228) 
1

>  <i_i_glide_posenum>  (228) 
32

>  <r_i_glide_eff_state_penalty>  (228) 
0

>  <ligand_id>  (228) 
88

>  <original_smiles>  (228) 
CC12C3CCC4CCC(OCC5(C3)CC51)C42C(=O)O

>  <smiles>  (228) 
[H]C([H])([H])C12C3([H])C([H])([H])C([H])([H])C4([H])C([H])([H])C([H])([H])C([H])(OC([H])([H])C5(C3([H])[H])C([H])([H])C51[H])C42C(=O)[O-]

$$$$
89:0:0
     RDKit          3D

 63 68  0  0  1  0  0  0  0  0999 V2000
    3.1726    1.9845    7.1079 C   0  0  0  0  0  0  0  0  0  0  0  0
    2.1736    2.1282    5.8718 C   0  0  1  0  0  0  0  0  0  0  0  0
    0.9823    1.0714    5.3509 C   0  0  0  0  0  0  0  0  0  0  0  0
    0.8218    0.0160    4.2130 C   0  0  2  0  0  0  0  0  0  0  0  0
   -0.3636   -0.9802    4.4727 C   0  0  0  0  0  0  0  0  0  0  0  0
   -1.7321   -0.2654    4.9176 C   0  0  1  0  0  0  0  0  0  0  0  0
   -2.0120   -0.7192    6.1082 F   0  0  0  0  0  0  0  0  0  0  0  0
   -1.7813    1.2881    4.8611 C   0  0  0  0  0  0  0  0  0  0  0  0
   -1.7274    1.7127    3.5744 C   0  0  0  0  0  0  0  0  0  0  0  0
   -0.9909    2.9080    3.0090 C   0  0  0  0  0  0  0  0  0  0  0  0
    0.2780    3.3824    3.8038 C   0  0  2  0  0  0  0  0  0  0  0  0
    0.4695    4.6837    3.2818 O   0  0  0  0  0  0  0  0  0  0  0  0
    1.8250    2.5773    3.4432 C   0  0  2  0  0  0  0  0  0  0  0  0
    1.9231    1.6624    2.1526 C   0  0  0  0  0  0  0  0  0  0  0  0
    2.4623    0.2402    2.4496 C   0  0  0  0  0  0  0  0  0  0  0  0
    3.6928   -0.0019    1.9671 F   0  0  0  0  0  0  0  0  0  0  0  0
    2.1719   -0.3153    3.6537 C   0  0  0  0  0  0  0  0  0  0  0  0
    3.0784    0.1505    4.7732 C   0  0  2  0  0  0  0  0  0  0  0  0
    2.7058   -0.7061    6.2184 C   0  0  0  0  0  0  0  0  0  0  0  0
    1.4727   -0.5814    7.4251 C   0  0  0  0  0  0  0  0  0  0  0  0
    0.6132    0.6888    8.1047 C   0  0  0  0  0  0  0  0  0  0  0  0
    0.9892    1.0459    9.2192 O   0  0  0  0  0  0  0  0  0  0  0  0
   -0.7708    1.4658    7.5422 C   0  0  0  0  0  0  0  0  0  0  0  0
   -1.3172    2.2347    6.0786 C   0  0  2  0  0  0  0  0  0  0  0  0
   -2.6726    2.8054    6.5732 C   0  0  0  0  0  0  0  0  0  0  0  0
   -0.4414    3.5135    5.3480 C   0  0  2  0  0  0  0  0  0  0  0  0
   -1.3691    4.4607    5.1461 F   0  0  0  0  0  0  0  0  0  0  0  0
    0.5435    4.2184    6.2740 C   0  0  1  0  0  0  0  0  0  0  0  0
    0.2046    4.2388    7.6495 O   0  0  0  0  0  0  0  0  0  0  0  0
    1.9406    3.6934    6.0282 C   0  0  0  0  0  0  0  0  0  0  0  0
    2.8342    1.8178    4.6055 C   0  0  2  0  0  0  0  0  0  0  0  0
    4.1079    2.4063    4.5079 O   0  0  0  0  0  0  0  0  0  0  0  0
    3.6513    1.0619    7.3753 H   0  0  0  0  0  0  0  0  0  0  0  0
    2.7246    2.3475    8.0299 H   0  0  0  0  0  0  0  0  0  0  0  0
    4.0433    2.6328    6.9772 H   0  0  0  0  0  0  0  0  0  0  0  0
    0.3338    0.5278    5.8919 H   0  0  0  0  0  0  0  0  0  0  0  0
    0.3860    1.5335    4.7875 H   0  0  0  0  0  0  0  0  0  0  0  0
    0.3297    0.4018    3.3264 H   0  0  0  0  0  0  0  0  0  0  0  0
   -0.5344   -1.5327    3.5594 H   0  0  0  0  0  0  0  0  0  0  0  0
   -0.0689   -1.7397    5.1964 H   0  0  0  0  0  0  0  0  0  0  0  0
   -2.5533   -0.6550    4.3183 H   0  0  0  0  0  0  0  0  0  0  0  0
   -1.9178    0.9938    2.7904 H   0  0  0  0  0  0  0  0  0  0  0  0
   -0.7275    2.6151    2.0017 H   0  0  0  0  0  0  0  0  0  0  0  0
   -1.7293    3.7048    2.8955 H   0  0  0  0  0  0  0  0  0  0  0  0
    0.4099    4.6107    2.3142 H   0  0  0  0  0  0  0  0  0  0  0  0
    2.4275    3.4355    3.1423 H   0  0  0  0  0  0  0  0  0  0  0  0
    0.9962    1.5856    1.5946 H   0  0  0  0  0  0  0  0  0  0  0  0
    2.6108    2.1282    1.4733 H   0  0  0  0  0  0  0  0  0  0  0  0
    4.0957   -0.1070    4.4825 H   0  0  0  0  0  0  0  0  0  0  0  0
    2.5570   -1.7231    5.8533 H   0  0  0  0  0  0  0  0  0  0  0  0
    3.6497   -0.8492    6.7425 H   0  0  0  0  0  0  0  0  0  0  0  0
    0.6953   -1.2798    7.1228 H   0  0  0  0  0  0  0  0  0  0  0  0
    1.9087   -1.0766    8.2931 H   0  0  0  0  0  0  0  0  0  0  0  0
   -1.5497    0.7594    7.8039 H   0  0  0  0  0  0  0  0  0  0  0  0
   -0.9204    2.2167    8.3147 H   0  0  0  0  0  0  0  0  0  0  0  0
   -2.5537    3.6026    7.3099 H   0  0  0  0  0  0  0  0  0  0  0  0
   -3.2923    2.0295    7.0226 H   0  0  0  0  0  0  0  0  0  0  0  0
   -3.2672    3.2062    5.7502 H   0  0  0  0  0  0  0  0  0  0  0  0
    0.5764    5.2745    5.9938 H   0  0  0  0  0  0  0  0  0  0  0  0
    0.2369    3.3558    7.9849 H   0  0  0  0  0  0  0  0  0  0  0  0
    2.5463    4.1499    6.8116 H   0  0  0  0  0  0  0  0  0  0  0  0
    2.3558    4.2425    5.1844 H   0  0  0  0  0  0  0  0  0  0  0  0
    4.3685    2.4211    3.5937 H   0  0  0  0  0  0  0  0  0  0  0  0
  2  1  1  1
  1 33  1  0
  1 34  1  0
  1 35  1  0
  2 30  1  0
  2 31  1  0
  2  3  1  0
  3  4  1  0
  3 36  1  0
  3 37  1  0
  4 17  1  0
  4  5  1  0
  4 38  1  6
  5  6  1  0
  5 39  1  0
  5 40  1  0
  6  7  1  0
  6  8  1  0
  6 41  1  6
  8 24  1  0
  8  9  2  0
  9 10  1  0
  9 42  1  0
 10 11  1  0
 10 43  1  0
 10 44  1  0
 11 26  1  0
 11 12  1  6
 11 13  1  0
 12 45  1  0
 13 31  1  0
 13 14  1  0
 13 46  1  6
 14 15  1  0
 14 47  1  0
 14 48  1  0
 15 16  1  0
 15 17  2  0
 17 18  1  0
 18 19  1  0
 18 31  1  0
 18 49  1  6
 19 20  1  0
 19 50  1  0
 19 51  1  0
 20 21  1  0
 20 52  1  0
 20 53  1  0
 21 22  2  0
 21 23  1  0
 23 24  1  0
 23 54  1  0
 23 55  1  0
 24 25  1  1
 24 26  1  0
 25 56  1  0
 25 57  1  0
 25 58  1  0
 26 27  1  6
 26 28  1  0
 28 29  1  0
 28 30  1  0
 28 59  1  6
 29 60  1  0
 30 61  1  0
 30 62  1  0
 31 32  1  1
 32 63  1  0
M  END
>  <i_m_ct_stereo_status>  (229) 
1

>  <s_m_source_file>  (229) 
/var/tmp/pbs.5076255.sched01/tmpj5h_4zim/74m36hq9q5.sdf

>  <i_m_source_file_index>  (229) 
36

>  <i_lp_mmshare_version>  (229) 
48012

>  <i_f3d_flags>  (229) 
1

>  <s_epik_input>  (229) 
W0NIM11bQ0BAXTEyW0NAXTMoW09IXSlbQ0BASF00W0NAXTUoW09IXSlbQ0BdKEYpKFtDQEBIXShbT0hdKVtDSDJdMilbQ0BAXTYoW0NIM10pQyg9W0NIXVtDSDJdNSlbQ0BIXShGKVtDSDJdW0NIXShbQ0gyXTEpQyg9QyhGKVtDSDJdNClbQ0BASF0zW0NIMl1bQ0gyXUMoPU8pW0NIMl02

>  <s_epik_cmdline>  (229) 
J2VwaWtfcHl0aG9uJywgJy1waHQnLCAnMi4wJywgJy1waCcsICc3LjAnLCAnLXRuJywgJzgnLCAnLW1hJywgJzIwMCcsICctaW1hZScsICc8aW5maWxlLm1hZT4nLCAnLW9tYWUnLCAnPG91dGZpbGUubWFlPic=

>  <r_lp_tautomer_probability>  (229) 
1

>  <r_epik_Ionization_Penalty>  (229) 
8.95451e-07

>  <r_epik_Ionization_Penalty_Charging>  (229) 
0

>  <r_epik_Ionization_Penalty_Neutral>  (229) 
8.95451e-07

>  <r_epik_State_Penalty>  (229) 
-0

>  <r_epik_Charging_Adjusted_Penalty>  (229) 
0

>  <i_epik_Tot_Q>  (229) 
0

>  <i_epik_Tot_abs_Q>  (229) 
0

>  <s_lp_Force_Field>  (229) 
OPLS3e

>  <r_lp_Energy>  (229) 
547.618

>  <b_lp_Chiralities_Consistent>  (229) 
1

>  <s_lp_Variant>  (229) 
89:0-1

>  <s_i_glide_gridfile>  (229) 
pfpi4k_grid

>  <i_i_glide_lignum>  (229) 
36

>  <i_i_glide_rotatable_bonds>  (229) 
3

>  <r_i_docking_score>  (229) 
-3.74932

>  <r_i_glide_ligand_efficiency>  (229) 
-0.117166

>  <r_i_glide_ligand_efficiency_sa>  (229) 
-0.37198

>  <r_i_glide_ligand_efficiency_ln>  (229) 
-0.839576

>  <r_i_glide_gscore>  (229) 
-3.74932

>  <r_i_glide_lipo>  (229) 
-0.18675

>  <r_i_glide_hbond>  (229) 
-0.456

>  <r_i_glide_metal>  (229) 
-0

>  <r_i_glide_rewards>  (229) 
-0.356668

>  <r_i_glide_evdw>  (229) 
-16.1627

>  <r_i_glide_ecoul>  (229) 
-11.9263

>  <r_i_glide_erotb>  (229) 
0

>  <r_i_glide_esite>  (229) 
-0.152824

>  <r_i_glide_emodel>  (229) 
-35.2343

>  <r_i_glide_energy>  (229) 
-28.089

>  <r_i_glide_einternal>  (229) 
0.664204

>  <r_i_glide_intrahb_reward>  (229) 
-0

>  <i_i_glide_confnum>  (229) 
1

>  <i_i_glide_posenum>  (229) 
24

>  <r_i_glide_eff_state_penalty>  (229) 
0

>  <ligand_id>  (229) 
89

>  <original_smiles>  (229) 
CC12CC3CC(F)C4=CCC5(O)C6CC(F)=C3C(CCC(=O)CC4(C)C5(F)C(O)C1)C62O

>  <smiles>  (229) 
[H]OC1([H])C([H])([H])C2(C([H])([H])[H])C([H])([H])C3([H])C4=C(F)C([H])([H])C5([H])C6(O[H])C([H])([H])C([H])=C(C([H])(F)C3([H])[H])C(C([H])([H])[H])(C([H])([H])C(=O)C([H])([H])C([H])([H])C4([H])C52O[H])C16F

$$$$
89:0:1
     RDKit          3D

 63 68  0  0  1  0  0  0  0  0999 V2000
    3.3471    3.8367    6.3744 C   0  0  0  0  0  0  0  0  0  0  0  0
    2.1354    3.2064    5.5452 C   0  0  1  0  0  0  0  0  0  0  0  0
    1.4542    1.6767    5.6664 C   0  0  0  0  0  0  0  0  0  0  0  0
    1.5200    0.3422    4.8550 C   0  0  2  0  0  0  0  0  0  0  0  0
    1.0095   -0.8957    5.6886 C   0  0  0  0  0  0  0  0  0  0  0  0
   -0.3594   -0.6369    6.5002 C   0  0  1  0  0  0  0  0  0  0  0  0
   -0.1232   -0.7443    7.8046 F   0  0  0  0  0  0  0  0  0  0  0  0
   -1.1420    0.6697    6.1406 C   0  0  0  0  0  0  0  0  0  0  0  0
   -1.5726    0.6560    4.8457 C   0  0  0  0  0  0  0  0  0  0  0  0
   -1.6045    1.8207    3.8393 C   0  0  0  0  0  0  0  0  0  0  0  0
   -0.5399    2.9636    4.0546 C   0  0  2  0  0  0  0  0  0  0  0  0
   -1.0519    4.0492    3.2836 O   0  0  0  0  0  0  0  0  0  0  0  0
    1.0827    2.7313    3.3448 C   0  0  2  0  0  0  0  0  0  0  0  0
    1.2790    1.5893    2.2664 C   0  0  0  0  0  0  0  0  0  0  0  0
    2.4245    0.6067    2.6269 C   0  0  0  0  0  0  0  0  0  0  0  0
    3.4718    0.6415    1.7870 F   0  0  0  0  0  0  0  0  0  0  0  0
    2.7038    0.3847    3.9373 C   0  0  0  0  0  0  0  0  0  0  0  0
    3.5453    1.4717    4.5796 C   0  0  2  0  0  0  0  0  0  0  0  0
    3.9446    1.0330    6.1941 C   0  0  0  0  0  0  0  0  0  0  0  0
    3.1104    1.0536    7.7047 C   0  0  0  0  0  0  0  0  0  0  0  0
    1.9591    2.0560    8.4018 C   0  0  0  0  0  0  0  0  0  0  0  0
    2.3871    2.8610    9.2266 O   0  0  0  0  0  0  0  0  0  0  0  0
    0.2834    2.0441    8.2195 C   0  0  0  0  0  0  0  0  0  0  0  0
   -0.8760    2.0586    6.9192 C   0  0  2  0  0  0  0  0  0  0  0  0
   -2.1864    2.2038    7.7389 C   0  0  0  0  0  0  0  0  0  0  0  0
   -0.8664    3.2813    5.7091 C   0  0  2  0  0  0  0  0  0  0  0  0
   -2.1371    3.7097    5.6766 F   0  0  0  0  0  0  0  0  0  0  0  0
   -0.1163    4.5484    6.1028 C   0  0  1  0  0  0  0  0  0  0  0  0
   -0.0991    4.8703    7.4799 O   0  0  0  0  0  0  0  0  0  0  0  0
    1.2671    4.5386    5.4916 C   0  0  0  0  0  0  0  0  0  0  0  0
    2.5609    2.7992    4.2115 C   0  0  2  0  0  0  0  0  0  0  0  0
    3.3987    3.7666    3.6067 O   0  0  0  0  0  0  0  0  0  0  0  0
    4.2388    3.2910    6.6158 H   0  0  0  0  0  0  0  0  0  0  0  0
    3.0127    4.2730    7.3115 H   0  0  0  0  0  0  0  0  0  0  0  0
    3.7740    4.6895    5.8422 H   0  0  0  0  0  0  0  0  0  0  0  0
    1.2738    1.1244    6.4845 H   0  0  0  0  0  0  0  0  0  0  0  0
    0.6035    1.6849    5.2627 H   0  0  0  0  0  0  0  0  0  0  0  0
    0.7174    0.2324    4.1299 H   0  0  0  0  0  0  0  0  0  0  0  0
    0.8463   -1.7232    4.9956 H   0  0  0  0  0  0  0  0  0  0  0  0
    1.7850   -1.2414    6.3712 H   0  0  0  0  0  0  0  0  0  0  0  0
   -1.0190   -1.4766    6.2814 H   0  0  0  0  0  0  0  0  0  0  0  0
   -1.6238   -0.3002    4.3426 H   0  0  0  0  0  0  0  0  0  0  0  0
   -1.5298    1.4048    2.8380 H   0  0  0  0  0  0  0  0  0  0  0  0
   -2.6200    2.2159    3.8788 H   0  0  0  0  0  0  0  0  0  0  0  0
   -0.6881    4.0184    2.3928 H   0  0  0  0  0  0  0  0  0  0  0  0
    1.1633    3.6214    2.7208 H   0  0  0  0  0  0  0  0  0  0  0  0
    0.3777    1.0155    2.0718 H   0  0  0  0  0  0  0  0  0  0  0  0
    1.5231    2.0468    1.3056 H   0  0  0  0  0  0  0  0  0  0  0  0
    4.4730    1.5251    4.0166 H   0  0  0  0  0  0  0  0  0  0  0  0
    4.1896   -0.0265    6.0891 H   0  0  0  0  0  0  0  0  0  0  0  0
    4.9459    1.4224    6.3761 H   0  0  0  0  0  0  0  0  0  0  0  0
    2.6814    0.0585    7.8204 H   0  0  0  0  0  0  0  0  0  0  0  0
    3.9125    1.0496    8.4460 H   0  0  0  0  0  0  0  0  0  0  0  0
   -0.0048    1.2163    8.8637 H   0  0  0  0  0  0  0  0  0  0  0  0
   -0.0025    2.8853    8.8486 H   0  0  0  0  0  0  0  0  0  0  0  0
   -2.2624    3.1724    8.2349 H   0  0  0  0  0  0  0  0  0  0  0  0
   -2.2592    1.4360    8.5102 H   0  0  0  0  0  0  0  0  0  0  0  0
   -3.0751    2.0859    7.1160 H   0  0  0  0  0  0  0  0  0  0  0  0
   -0.6242    5.3999    5.6472 H   0  0  0  0  0  0  0  0  0  0  0  0
    0.3816    4.2005    7.9461 H   0  0  0  0  0  0  0  0  0  0  0  0
    1.7634    5.4082    5.9260 H   0  0  0  0  0  0  0  0  0  0  0  0
    1.1841    4.9173    4.4750 H   0  0  0  0  0  0  0  0  0  0  0  0
    3.9013    3.3497    2.9128 H   0  0  0  0  0  0  0  0  0  0  0  0
  2  1  1  1
  1 33  1  0
  1 34  1  0
  1 35  1  0
  2 30  1  0
  2 31  1  0
  2  3  1  0
  3  4  1  0
  3 36  1  0
  3 37  1  0
  4 17  1  0
  4  5  1  0
  4 38  1  6
  5  6  1  0
  5 39  1  0
  5 40  1  0
  6  7  1  0
  6  8  1  0
  6 41  1  6
  8 24  1  0
  8  9  2  0
  9 10  1  0
  9 42  1  0
 10 11  1  0
 10 43  1  0
 10 44  1  0
 11 26  1  0
 11 12  1  6
 11 13  1  0
 12 45  1  0
 13 31  1  0
 13 14  1  0
 13 46  1  6
 14 15  1  0
 14 47  1  0
 14 48  1  0
 15 16  1  0
 15 17  2  0
 17 18  1  0
 18 19  1  0
 18 31  1  0
 18 49  1  6
 19 20  1  0
 19 50  1  0
 19 51  1  0
 20 21  1  0
 20 52  1  0
 20 53  1  0
 21 22  2  0
 21 23  1  0
 23 24  1  0
 23 54  1  0
 23 55  1  0
 24 25  1  1
 24 26  1  0
 25 56  1  0
 25 57  1  0
 25 58  1  0
 26 27  1  6
 26 28  1  0
 28 29  1  0
 28 30  1  0
 28 59  1  6
 29 60  1  0
 30 61  1  0
 30 62  1  0
 31 32  1  6
 32 63  1  0
M  END
>  <i_m_ct_stereo_status>  (230) 
1

>  <s_m_source_file>  (230) 
/var/tmp/pbs.5076255.sched01/tmpj5h_4zim/74m36hq9q5.sdf

>  <i_m_source_file_index>  (230) 
36

>  <i_lp_mmshare_version>  (230) 
48012

>  <i_f3d_flags>  (230) 
1

>  <s_epik_input>  (230) 
W0NIM11bQ0BAXTEyW0NAXTMoW09IXSlbQ0BASF00W0NAXTUoW09IXSlbQ0BdKEYpKFtDQEBIXShbT0hdKVtDSDJdMilbQ0BAXTYoW0NIM10pQyg9W0NIXVtDSDJdNSlbQ0BIXShGKVtDSDJdW0NIXShbQ0gyXTEpQyg9QyhGKVtDSDJdNClbQ0BASF0zW0NIMl1bQ0gyXUMoPU8pW0NIMl02

>  <s_epik_cmdline>  (230) 
J2VwaWtfcHl0aG9uJywgJy1waHQnLCAnMi4wJywgJy1waCcsICc3LjAnLCAnLXRuJywgJzgnLCAnLW1hJywgJzIwMCcsICctaW1hZScsICc8aW5maWxlLm1hZT4nLCAnLW9tYWUnLCAnPG91dGZpbGUubWFlPic=

>  <r_lp_tautomer_probability>  (230) 
1

>  <r_epik_Ionization_Penalty>  (230) 
8.95451e-07

>  <r_epik_Ionization_Penalty_Charging>  (230) 
0

>  <r_epik_Ionization_Penalty_Neutral>  (230) 
8.95451e-07

>  <r_epik_State_Penalty>  (230) 
-0

>  <r_epik_Charging_Adjusted_Penalty>  (230) 
0

>  <i_epik_Tot_Q>  (230) 
0

>  <i_epik_Tot_abs_Q>  (230) 
0

>  <s_lp_Force_Field>  (230) 
OPLS3e

>  <r_lp_Energy>  (230) 
547.618

>  <b_lp_Chiralities_Consistent>  (230) 
1

>  <s_lp_Variant>  (230) 
89:0-1

>  <s_i_glide_gridfile>  (230) 
pfpi4k_grid

>  <i_i_glide_lignum>  (230) 
36

>  <i_i_glide_rotatable_bonds>  (230) 
3

>  <r_i_docking_score>  (230) 
-3.45619

>  <r_i_glide_ligand_efficiency>  (230) 
-0.108006

>  <r_i_glide_ligand_efficiency_sa>  (230) 
-0.342897

>  <r_i_glide_ligand_efficiency_ln>  (230) 
-0.773934

>  <r_i_glide_gscore>  (230) 
-3.45619

>  <r_i_glide_lipo>  (230) 
0

>  <r_i_glide_hbond>  (230) 
-0.456

>  <r_i_glide_metal>  (230) 
-0

>  <r_i_glide_rewards>  (230) 
-0.445537

>  <r_i_glide_evdw>  (230) 
-22.1133

>  <r_i_glide_ecoul>  (230) 
-9.21715

>  <r_i_glide_erotb>  (230) 
0

>  <r_i_glide_esite>  (230) 
-0.0664125

>  <r_i_glide_emodel>  (230) 
-37.7693

>  <r_i_glide_energy>  (230) 
-31.3304

>  <r_i_glide_einternal>  (230) 
1.00656

>  <r_i_glide_intrahb_reward>  (230) 
-0

>  <i_i_glide_confnum>  (230) 
1

>  <i_i_glide_posenum>  (230) 
36

>  <r_i_glide_eff_state_penalty>  (230) 
0

>  <ligand_id>  (230) 
89

>  <original_smiles>  (230) 
CC12CC3CC(F)C4=CCC5(O)C6CC(F)=C3C(CCC(=O)CC4(C)C5(F)C(O)C1)C62O

>  <smiles>  (230) 
[H]OC1([H])C([H])([H])C2(C([H])([H])[H])C([H])([H])C3([H])C4=C(F)C([H])([H])C5([H])C6(O[H])C([H])([H])C([H])=C(C([H])(F)C3([H])[H])C(C([H])([H])[H])(C([H])([H])C(=O)C([H])([H])C([H])([H])C4([H])C52O[H])C16F

$$$$
89:0:2
     RDKit          3D

 63 68  0  0  1  0  0  0  0  0999 V2000
    3.2541    3.4347    6.5828 C   0  0  0  0  0  0  0  0  0  0  0  0
    2.0422    2.9933    5.6430 C   0  0  1  0  0  0  0  0  0  0  0  0
    1.2799    1.4993    5.5341 C   0  0  0  0  0  0  0  0  0  0  0  0
    1.3047    0.2860    4.5522 C   0  0  2  0  0  0  0  0  0  0  0  0
    0.6947   -1.0246    5.1829 C   0  0  0  0  0  0  0  0  0  0  0  0
   -0.6817   -0.8017    5.9867 C   0  0  1  0  0  0  0  0  0  0  0  0
   -0.4562   -1.0911    7.2624 F   0  0  0  0  0  0  0  0  0  0  0  0
   -1.3808    0.5864    5.7930 C   0  0  0  0  0  0  0  0  0  0  0  0
   -1.7632    0.7741    4.4976 C   0  0  0  0  0  0  0  0  0  0  0  0
   -1.7067    2.0644    3.6586 C   0  0  0  0  0  0  0  0  0  0  0  0
   -0.5922    3.0994    4.0649 C   0  0  2  0  0  0  0  0  0  0  0  0
   -1.0243    4.3019    3.4356 O   0  0  0  0  0  0  0  0  0  0  0  0
    1.0405    2.8761    3.3738 C   0  0  2  0  0  0  0  0  0  0  0  0
    1.2253    1.8767    2.1572 C   0  0  0  0  0  0  0  0  0  0  0  0
    2.3080    0.7973    2.4126 C   0  0  0  0  0  0  0  0  0  0  0  0
    3.3987    0.9104    1.6400 F   0  0  0  0  0  0  0  0  0  0  0  0
    2.5226    0.3852    3.6874 C   0  0  0  0  0  0  0  0  0  0  0  0
    3.3938    1.3297    4.4905 C   0  0  2  0  0  0  0  0  0  0  0  0
    3.7120    0.6533    6.0397 C   0  0  0  0  0  0  0  0  0  0  0  0
    2.8247    0.5153    7.5125 C   0  0  0  0  0  0  0  0  0  0  0  0
    1.7041    1.4770    8.3086 C   0  0  0  0  0  0  0  0  0  0  0  0
    2.1458    2.1152    9.2595 O   0  0  0  0  0  0  0  0  0  0  0  0
    0.0370    1.5858    8.0778 C   0  0  0  0  0  0  0  0  0  0  0  0
   -1.0726    1.8408    6.7602 C   0  0  2  0  0  0  0  0  0  0  0  0
   -2.4036    1.9566    7.5480 C   0  0  0  0  0  0  0  0  0  0  0  0
   -0.9568    3.2127    5.7314 C   0  0  2  0  0  0  0  0  0  0  0  0
   -2.1990    3.7169    5.7262 F   0  0  0  0  0  0  0  0  0  0  0  0
   -0.1598    4.3732    6.3119 C   0  0  1  0  0  0  0  0  0  0  0  0
   -0.1763    4.4824    7.7192 O   0  0  0  0  0  0  0  0  0  0  0  0
    1.2443    4.3654    5.7492 C   0  0  0  0  0  0  0  0  0  0  0  0
    2.4933    2.7463    4.2756 C   0  0  2  0  0  0  0  0  0  0  0  0
    3.3992    3.7295    3.8044 O   0  0  0  0  0  0  0  0  0  0  0  0
    4.1046    2.8103    6.7780 H   0  0  0  0  0  0  0  0  0  0  0  0
    2.9071    3.7546    7.5624 H   0  0  0  0  0  0  0  0  0  0  0  0
    3.7449    4.3251    6.1835 H   0  0  0  0  0  0  0  0  0  0  0  0
    1.0387    0.8530    6.2629 H   0  0  0  0  0  0  0  0  0  0  0  0
    0.4445    1.6105    5.1162 H   0  0  0  0  0  0  0  0  0  0  0  0
    0.5263    0.3201    3.7959 H   0  0  0  0  0  0  0  0  0  0  0  0
    0.5175   -1.7391    4.3779 H   0  0  0  0  0  0  0  0  0  0  0  0
    1.4278   -1.5026    5.8333 H   0  0  0  0  0  0  0  0  0  0  0  0
   -1.3850   -1.5620    5.6477 H   0  0  0  0  0  0  0  0  0  0  0  0
   -1.8417   -0.0984    3.8646 H   0  0  0  0  0  0  0  0  0  0  0  0
   -1.6106    1.7847    2.6136 H   0  0  0  0  0  0  0  0  0  0  0  0
   -2.7024    2.5050    3.7177 H   0  0  0  0  0  0  0  0  0  0  0  0
   -0.7091    4.2857    2.5339 H   0  0  0  0  0  0  0  0  0  0  0  0
    1.1782    3.8388    2.8809 H   0  0  0  0  0  0  0  0  0  0  0  0
    0.3033    1.3909    1.8492 H   0  0  0  0  0  0  0  0  0  0  0  0
    1.5359    2.4552    1.2889 H   0  0  0  0  0  0  0  0  0  0  0  0
    4.3417    1.4092    3.9621 H   0  0  0  0  0  0  0  0  0  0  0  0
    3.9026   -0.3936    5.7969 H   0  0  0  0  0  0  0  0  0  0  0  0
    4.7255    0.9542    6.3034 H   0  0  0  0  0  0  0  0  0  0  0  0
    2.3399   -0.4589    7.4788 H   0  0  0  0  0  0  0  0  0  0  0  0
    3.5974    0.3689    8.2688 H   0  0  0  0  0  0  0  0  0  0  0  0
   -0.3185    0.7010    8.5994 H   0  0  0  0  0  0  0  0  0  0  0  0
   -0.2178    2.3582    8.8003 H   0  0  0  0  0  0  0  0  0  0  0  0
   -2.4520    2.8470    8.1760 H   0  0  0  0  0  0  0  0  0  0  0  0
   -2.5420    1.0983    8.2012 H   0  0  0  0  0  0  0  0  0  0  0  0
   -3.2749    1.9700    6.8897 H   0  0  0  0  0  0  0  0  0  0  0  0
   -0.6044    5.3093    5.9666 H   0  0  0  0  0  0  0  0  0  0  0  0
   -1.0784    4.5147    8.0063 H   0  0  0  0  0  0  0  0  0  0  0  0
    1.7677    5.1376    6.3166 H   0  0  0  0  0  0  0  0  0  0  0  0
    1.2184    4.8826    4.7921 H   0  0  0  0  0  0  0  0  0  0  0  0
    3.8465    3.3903    3.0352 H   0  0  0  0  0  0  0  0  0  0  0  0
  2  1  1  1
  1 33  1  0
  1 34  1  0
  1 35  1  0
  2 30  1  0
  2 31  1  0
  2  3  1  0
  3  4  1  0
  3 36  1  0
  3 37  1  0
  4 17  1  0
  4  5  1  0
  4 38  1  6
  5  6  1  0
  5 39  1  0
  5 40  1  0
  6  7  1  0
  6  8  1  0
  6 41  1  6
  8 24  1  0
  8  9  2  0
  9 10  1  0
  9 42  1  0
 10 11  1  0
 10 43  1  0
 10 44  1  0
 11 26  1  0
 11 12  1  6
 11 13  1  0
 12 45  1  0
 13 31  1  0
 13 14  1  0
 13 46  1  6
 14 15  1  0
 14 47  1  0
 14 48  1  0
 15 16  1  0
 15 17  2  0
 17 18  1  0
 18 19  1  0
 18 31  1  0
 18 49  1  6
 19 20  1  0
 19 50  1  0
 19 51  1  0
 20 21  1  0
 20 52  1  0
 20 53  1  0
 21 22  2  0
 21 23  1  0
 23 24  1  0
 23 54  1  0
 23 55  1  0
 24 25  1  1
 24 26  1  0
 25 56  1  0
 25 57  1  0
 25 58  1  0
 26 27  1  6
 26 28  1  0
 28 29  1  0
 28 30  1  0
 28 59  1  6
 29 60  1  0
 30 61  1  0
 30 62  1  0
 31 32  1  6
 32 63  1  0
M  END
>  <i_m_ct_stereo_status>  (231) 
1

>  <s_m_source_file>  (231) 
/var/tmp/pbs.5076255.sched01/tmpj5h_4zim/74m36hq9q5.sdf

>  <i_m_source_file_index>  (231) 
36

>  <i_lp_mmshare_version>  (231) 
48012

>  <i_f3d_flags>  (231) 
1

>  <s_epik_input>  (231) 
W0NIM11bQ0BAXTEyW0NAXTMoW09IXSlbQ0BASF00W0NAXTUoW09IXSlbQ0BdKEYpKFtDQEBIXShbT0hdKVtDSDJdMilbQ0BAXTYoW0NIM10pQyg9W0NIXVtDSDJdNSlbQ0BIXShGKVtDSDJdW0NIXShbQ0gyXTEpQyg9QyhGKVtDSDJdNClbQ0BASF0zW0NIMl1bQ0gyXUMoPU8pW0NIMl02

>  <s_epik_cmdline>  (231) 
J2VwaWtfcHl0aG9uJywgJy1waHQnLCAnMi4wJywgJy1waCcsICc3LjAnLCAnLXRuJywgJzgnLCAnLW1hJywgJzIwMCcsICctaW1hZScsICc8aW5maWxlLm1hZT4nLCAnLW9tYWUnLCAnPG91dGZpbGUubWFlPic=

>  <r_lp_tautomer_probability>  (231) 
1

>  <r_epik_Ionization_Penalty>  (231) 
8.95451e-07

>  <r_epik_Ionization_Penalty_Charging>  (231) 
0

>  <r_epik_Ionization_Penalty_Neutral>  (231) 
8.95451e-07

>  <r_epik_State_Penalty>  (231) 
-0

>  <r_epik_Charging_Adjusted_Penalty>  (231) 
0

>  <i_epik_Tot_Q>  (231) 
0

>  <i_epik_Tot_abs_Q>  (231) 
0

>  <s_lp_Force_Field>  (231) 
OPLS3e

>  <r_lp_Energy>  (231) 
547.618

>  <b_lp_Chiralities_Consistent>  (231) 
1

>  <s_lp_Variant>  (231) 
89:0-1

>  <s_i_glide_gridfile>  (231) 
pfpi4k_grid

>  <i_i_glide_lignum>  (231) 
36

>  <i_i_glide_rotatable_bonds>  (231) 
3

>  <r_i_docking_score>  (231) 
-3.2617

>  <r_i_glide_ligand_efficiency>  (231) 
-0.101928

>  <r_i_glide_ligand_efficiency_sa>  (231) 
-0.323602

>  <r_i_glide_ligand_efficiency_ln>  (231) 
-0.730384

>  <r_i_glide_gscore>  (231) 
-3.2617

>  <r_i_glide_lipo>  (231) 
0

>  <r_i_glide_hbond>  (231) 
-0.456

>  <r_i_glide_metal>  (231) 
-0

>  <r_i_glide_rewards>  (231) 
-0.435417

>  <r_i_glide_evdw>  (231) 
-21.4897

>  <r_i_glide_ecoul>  (231) 
-8.13861

>  <r_i_glide_erotb>  (231) 
0

>  <r_i_glide_esite>  (231) 
-0.0750092

>  <r_i_glide_emodel>  (231) 
-35.8251

>  <r_i_glide_energy>  (231) 
-29.6283

>  <r_i_glide_einternal>  (231) 
0.9036

>  <r_i_glide_intrahb_reward>  (231) 
-0

>  <i_i_glide_confnum>  (231) 
2

>  <i_i_glide_posenum>  (231) 
7

>  <r_i_glide_eff_state_penalty>  (231) 
0

>  <ligand_id>  (231) 
89

>  <original_smiles>  (231) 
CC12CC3CC(F)C4=CCC5(O)C6CC(F)=C3C(CCC(=O)CC4(C)C5(F)C(O)C1)C62O

>  <smiles>  (231) 
[H]OC1([H])C([H])([H])C2(C([H])([H])[H])C([H])([H])C3([H])C4=C(F)C([H])([H])C5([H])C6(O[H])C([H])([H])C([H])=C(C([H])(F)C3([H])[H])C(C([H])([H])[H])(C([H])([H])C(=O)C([H])([H])C([H])([H])C4([H])C52O[H])C16F

$$$$
89:1:0
     RDKit          3D

 63 68  0  0  1  0  0  0  0  0999 V2000
    3.7791    1.9184    6.8829 C   0  0  0  0  0  0  0  0  0  0  0  0
    2.8023    1.5562    5.6367 C   0  0  1  0  0  0  0  0  0  0  0  0
    1.3377    0.5896    5.5364 C   0  0  0  0  0  0  0  0  0  0  0  0
    0.9698   -0.9400    5.5180 C   0  0  1  0  0  0  0  0  0  0  0  0
   -0.5504   -1.1654    5.0803 C   0  0  0  0  0  0  0  0  0  0  0  0
   -1.5926    0.0002    5.4103 C   0  0  1  0  0  0  0  0  0  0  0  0
   -1.7315    0.1454    6.7208 F   0  0  0  0  0  0  0  0  0  0  0  0
   -1.2141    1.3150    4.7040 C   0  0  0  0  0  0  0  0  0  0  0  0
   -1.0833    1.0780    3.3664 C   0  0  0  0  0  0  0  0  0  0  0  0
   -0.0179    1.5990    2.4193 C   0  0  0  0  0  0  0  0  0  0  0  0
    1.2940    2.0812    3.1135 C   0  0  2  0  0  0  0  0  0  0  0  0
    1.8234    2.9431    2.1071 O   0  0  0  0  0  0  0  0  0  0  0  0
    2.6245    0.9348    3.2660 C   0  0  2  0  0  0  0  0  0  0  0  0
    2.5374   -0.4514    2.5554 C   0  0  0  0  0  0  0  0  0  0  0  0
    2.0611   -1.5899    3.4614 C   0  0  0  0  0  0  0  0  0  0  0  0
    1.0835   -2.3502    2.9455 F   0  0  0  0  0  0  0  0  0  0  0  0
    2.1586   -1.5129    4.8117 C   0  0  0  0  0  0  0  0  0  0  0  0
    3.2898   -0.7773    5.5467 C   0  0  2  0  0  0  0  0  0  0  0  0
    2.9736   -0.7004    7.2368 C   0  0  0  0  0  0  0  0  0  0  0  0
    1.7617    0.1572    8.1556 C   0  0  0  0  0  0  0  0  0  0  0  0
    1.1362    1.7201    8.1090 C   0  0  0  0  0  0  0  0  0  0  0  0
    1.5832    2.4698    8.9707 O   0  0  0  0  0  0  0  0  0  0  0  0
   -0.0822    2.3942    7.1586 C   0  0  0  0  0  0  0  0  0  0  0  0
   -0.4622    2.5128    5.4595 C   0  0  2  0  0  0  0  0  0  0  0  0
   -1.6167    3.5544    5.5495 C   0  0  0  0  0  0  0  0  0  0  0  0
    0.6757    3.0486    4.3483 C   0  0  2  0  0  0  0  0  0  0  0  0
   -0.0105    3.9667    3.6598 F   0  0  0  0  0  0  0  0  0  0  0  0
    1.7846    3.9088    4.9180 C   0  0  1  0  0  0  0  0  0  0  0  0
    1.5036    4.5945    6.1225 O   0  0  0  0  0  0  0  0  0  0  0  0
    2.9906    3.0318    5.0302 C   0  0  0  0  0  0  0  0  0  0  0  0
    3.4220    0.6145    4.6962 C   0  0  2  0  0  0  0  0  0  0  0  0
    4.8066    0.8185    4.4797 O   0  0  0  0  0  0  0  0  0  0  0  0
    3.8911    1.3432    7.7810 H   0  0  0  0  0  0  0  0  0  0  0  0
    3.5031    2.8658    7.3484 H   0  0  0  0  0  0  0  0  0  0  0  0
    4.8155    2.0575    6.5714 H   0  0  0  0  0  0  0  0  0  0  0  0
    0.5755    0.5654    6.2170 H   0  0  0  0  0  0  0  0  0  0  0  0
    0.9140    0.5440    4.6032 H   0  0  0  0  0  0  0  0  0  0  0  0
    0.9169   -1.4634    6.4641 H   0  0  0  0  0  0  0  0  0  0  0  0
   -0.6173   -1.3755    4.0214 H   0  0  0  0  0  0  0  0  0  0  0  0
   -0.9000   -2.0847    5.5465 H   0  0  0  0  0  0  0  0  0  0  0  0
   -2.5771   -0.2972    5.0478 H   0  0  0  0  0  0  0  0  0  0  0  0
   -1.5846    0.2217    2.9432 H   0  0  0  0  0  0  0  0  0  0  0  0
    0.1882    0.8218    1.6872 H   0  0  0  0  0  0  0  0  0  0  0  0
   -0.5093    2.3890    1.8530 H   0  0  0  0  0  0  0  0  0  0  0  0
    1.1158    3.4791    1.7244 H   0  0  0  0  0  0  0  0  0  0  0  0
    3.3944    1.4027    2.6499 H   0  0  0  0  0  0  0  0  0  0  0  0
    1.9286   -0.4056    1.6533 H   0  0  0  0  0  0  0  0  0  0  0  0
    3.5328   -0.7302    2.2070 H   0  0  0  0  0  0  0  0  0  0  0  0
    4.1820   -1.3796    5.3825 H   0  0  0  0  0  0  0  0  0  0  0  0
    2.7749   -1.7407    7.4987 H   0  0  0  0  0  0  0  0  0  0  0  0
    3.9386   -0.6268    7.7358 H   0  0  0  0  0  0  0  0  0  0  0  0
    0.8787   -0.4751    8.2304 H   0  0  0  0  0  0  0  0  0  0  0  0
    2.1491    0.1010    9.1730 H   0  0  0  0  0  0  0  0  0  0  0  0
   -0.9856    2.0382    7.6482 H   0  0  0  0  0  0  0  0  0  0  0  0
   -0.0626    3.4262    7.5041 H   0  0  0  0  0  0  0  0  0  0  0  0
   -1.2644    4.5346    5.8726 H   0  0  0  0  0  0  0  0  0  0  0  0
   -2.3918    3.2353    6.2484 H   0  0  0  0  0  0  0  0  0  0  0  0
   -2.1313    3.6917    4.5956 H   0  0  0  0  0  0  0  0  0  0  0  0
    2.0418    4.6918    4.2004 H   0  0  0  0  0  0  0  0  0  0  0  0
    2.2260    5.1692    6.3210 H   0  0  0  0  0  0  0  0  0  0  0  0
    3.7551    3.6575    5.4944 H   0  0  0  0  0  0  0  0  0  0  0  0
    3.4803    3.0328    4.0613 H   0  0  0  0  0  0  0  0  0  0  0  0
    4.9121    1.5994    3.9577 H   0  0  0  0  0  0  0  0  0  0  0  0
  2  1  1  1
  1 33  1  0
  1 34  1  0
  1 35  1  0
  2 30  1  0
  2 31  1  0
  2  3  1  0
  3  4  1  0
  3 36  1  0
  3 37  1  0
  4 17  1  0
  4  5  1  0
  4 38  1  1
  5  6  1  0
  5 39  1  0
  5 40  1  0
  6  7  1  0
  6  8  1  0
  6 41  1  6
  8 24  1  0
  8  9  2  0
  9 10  1  0
  9 42  1  0
 10 11  1  0
 10 43  1  0
 10 44  1  0
 11 26  1  0
 11 12  1  6
 11 13  1  0
 12 45  1  0
 13 31  1  0
 13 14  1  0
 13 46  1  6
 14 15  1  0
 14 47  1  0
 14 48  1  0
 15 16  1  0
 15 17  2  0
 17 18  1  0
 18 19  1  0
 18 31  1  0
 18 49  1  1
 19 20  1  0
 19 50  1  0
 19 51  1  0
 20 21  1  0
 20 52  1  0
 20 53  1  0
 21 22  2  0
 21 23  1  0
 23 24  1  0
 23 54  1  0
 23 55  1  0
 24 25  1  1
 24 26  1  0
 25 56  1  0
 25 57  1  0
 25 58  1  0
 26 27  1  6
 26 28  1  0
 28 29  1  0
 28 30  1  0
 28 59  1  6
 29 60  1  0
 30 61  1  0
 30 62  1  0
 31 32  1  6
 32 63  1  0
M  END
>  <i_m_ct_stereo_status>  (232) 
1

>  <s_m_source_file>  (232) 
/var/tmp/pbs.5076255.sched01/tmpj5h_4zim/74m36hq9q5.sdf

>  <i_m_source_file_index>  (232) 
37

>  <i_lp_mmshare_version>  (232) 
48012

>  <i_f3d_flags>  (232) 
1

>  <s_epik_input>  (232) 
W0NIM11bQ0BAXTEyW0NAXTMoW09IXSlbQ0BASF00W0NAXTUoW09IXSlbQ0BdKEYpKFtDQEBIXShbT0hdKVtDSDJdMilbQ0BAXTYoW0NIM10pQyg9W0NIXVtDSDJdNSlbQ0BIXShGKVtDSDJdW0NIXShbQ0gyXTEpQyg9QyhGKVtDSDJdNClbQ0BASF0zW0NIMl1bQ0gyXUMoPU8pW0NIMl02

>  <s_epik_cmdline>  (232) 
J2VwaWtfcHl0aG9uJywgJy1waHQnLCAnMi4wJywgJy1waCcsICc3LjAnLCAnLXRuJywgJzgnLCAnLW1hJywgJzIwMCcsICctaW1hZScsICc8aW5maWxlLm1hZT4nLCAnLW9tYWUnLCAnPG91dGZpbGUubWFlPic=

>  <r_lp_tautomer_probability>  (232) 
1

>  <r_epik_Ionization_Penalty>  (232) 
8.95451e-07

>  <r_epik_Ionization_Penalty_Charging>  (232) 
0

>  <r_epik_Ionization_Penalty_Neutral>  (232) 
8.95451e-07

>  <r_epik_State_Penalty>  (232) 
-0

>  <r_epik_Charging_Adjusted_Penalty>  (232) 
0

>  <i_epik_Tot_Q>  (232) 
0

>  <i_epik_Tot_abs_Q>  (232) 
0

>  <s_lp_Force_Field>  (232) 
OPLS3e

>  <r_lp_Energy>  (232) 
535.856

>  <b_lp_Chiralities_Consistent>  (232) 
1

>  <s_lp_Variant>  (232) 
89:0-2

>  <s_i_glide_gridfile>  (232) 
pfpi4k_grid

>  <i_i_glide_lignum>  (232) 
37

>  <i_i_glide_rotatable_bonds>  (232) 
3

>  <r_i_docking_score>  (232) 
-2.95539

>  <r_i_glide_ligand_efficiency>  (232) 
-0.0923558

>  <r_i_glide_ligand_efficiency_sa>  (232) 
-0.293211

>  <r_i_glide_ligand_efficiency_ln>  (232) 
-0.661792

>  <r_i_glide_gscore>  (232) 
-2.95539

>  <r_i_glide_lipo>  (232) 
-0.00183719

>  <r_i_glide_hbond>  (232) 
-0.301714

>  <r_i_glide_metal>  (232) 
-0

>  <r_i_glide_rewards>  (232) 
-0.35953

>  <r_i_glide_evdw>  (232) 
-20.4315

>  <r_i_glide_ecoul>  (232) 
-7.1382

>  <r_i_glide_erotb>  (232) 
0

>  <r_i_glide_esite>  (232) 
-0.2

>  <r_i_glide_emodel>  (232) 
-33.332

>  <r_i_glide_energy>  (232) 
-27.5697

>  <r_i_glide_einternal>  (232) 
0.611284

>  <r_i_glide_intrahb_reward>  (232) 
-0

>  <i_i_glide_confnum>  (232) 
2

>  <i_i_glide_posenum>  (232) 
27

>  <r_i_glide_eff_state_penalty>  (232) 
0

>  <ligand_id>  (232) 
89

>  <original_smiles>  (232) 
CC12CC3CC(F)C4=CCC5(O)C6CC(F)=C3C(CCC(=O)CC4(C)C5(F)C(O)C1)C62O

>  <smiles>  (232) 
[H]OC1([H])C([H])([H])C2(C([H])([H])[H])C([H])([H])C3([H])C4=C(F)C([H])([H])C5([H])C6(O[H])C([H])([H])C([H])=C(C([H])(F)C3([H])[H])C(C([H])([H])[H])(C([H])([H])C(=O)C([H])([H])C([H])([H])C4([H])C52O[H])C16F

$$$$
89:1:1
     RDKit          3D

 63 68  0  0  1  0  0  0  0  0999 V2000
    2.4461    3.5404    7.7309 C   0  0  0  0  0  0  0  0  0  0  0  0
    2.0170    2.7900    6.3564 C   0  0  1  0  0  0  0  0  0  0  0  0
    0.9617    1.4200    6.0465 C   0  0  0  0  0  0  0  0  0  0  0  0
    1.0269   -0.1455    6.1999 C   0  0  1  0  0  0  0  0  0  0  0  0
   -0.1737   -0.8637    5.4281 C   0  0  0  0  0  0  0  0  0  0  0  0
   -1.5365   -0.0456    5.2818 C   0  0  1  0  0  0  0  0  0  0  0  0
   -2.0933    0.1473    6.4761 F   0  0  0  0  0  0  0  0  0  0  0  0
   -1.3232    1.2549    4.4707 C   0  0  0  0  0  0  0  0  0  0  0  0
   -0.7447    0.9485    3.2752 C   0  0  0  0  0  0  0  0  0  0  0  0
    0.3857    1.6751    2.5559 C   0  0  0  0  0  0  0  0  0  0  0  0
    1.2616    2.5999    3.4670 C   0  0  2  0  0  0  0  0  0  0  0  0
    1.8138    3.4776    2.4923 O   0  0  0  0  0  0  0  0  0  0  0  0
    2.7349    1.9265    4.1654 C   0  0  2  0  0  0  0  0  0  0  0  0
    3.2325    0.5174    3.7153 C   0  0  0  0  0  0  0  0  0  0  0  0
    2.8171   -0.6250    4.6478 C   0  0  0  0  0  0  0  0  0  0  0  0
    2.2770   -1.6891    4.0305 F   0  0  0  0  0  0  0  0  0  0  0  0
    2.4815   -0.3957    5.9426 C   0  0  0  0  0  0  0  0  0  0  0  0
    3.1052    0.7109    6.8076 C   0  0  2  0  0  0  0  0  0  0  0  0
    2.2870    0.8445    8.3143 C   0  0  0  0  0  0  0  0  0  0  0  0
    0.6718    1.3799    8.7213 C   0  0  0  0  0  0  0  0  0  0  0  0
   -0.2965    2.6661    8.2321 C   0  0  0  0  0  0  0  0  0  0  0  0
   -0.3345    3.6127    9.0161 O   0  0  0  0  0  0  0  0  0  0  0  0
   -1.3051    2.8493    6.8992 C   0  0  0  0  0  0  0  0  0  0  0  0
   -1.1702    2.6929    5.1690 C   0  0  2  0  0  0  0  0  0  0  0  0
   -2.5166    3.3448    4.7623 C   0  0  0  0  0  0  0  0  0  0  0  0
    0.0659    3.4401    4.3129 C   0  0  2  0  0  0  0  0  0  0  0  0
   -0.5929    4.0372    3.3143 F   0  0  0  0  0  0  0  0  0  0  0  0
    0.6818    4.6472    4.9956 C   0  0  1  0  0  0  0  0  0  0  0  0
   -0.1193    5.3365    5.9409 O   0  0  0  0  0  0  0  0  0  0  0  0
    1.9841    4.1915    5.5709 C   0  0  0  0  0  0  0  0  0  0  0  0
    3.1187    1.9929    5.7909 C   0  0  2  0  0  0  0  0  0  0  0  0
    4.3996    2.5857    5.9219 O   0  0  0  0  0  0  0  0  0  0  0  0
    2.4296    3.1112    8.7129 H   0  0  0  0  0  0  0  0  0  0  0  0
    1.8082    4.4021    7.9348 H   0  0  0  0  0  0  0  0  0  0  0  0
    3.4535    3.9562    7.6817 H   0  0  0  0  0  0  0  0  0  0  0  0
    0.0637    1.2271    6.4983 H   0  0  0  0  0  0  0  0  0  0  0  0
    0.8653    1.1613    5.0566 H   0  0  0  0  0  0  0  0  0  0  0  0
    0.8333   -0.5693    7.1770 H   0  0  0  0  0  0  0  0  0  0  0  0
    0.1337   -1.1719    4.4388 H   0  0  0  0  0  0  0  0  0  0  0  0
   -0.3903   -1.7968    5.9390 H   0  0  0  0  0  0  0  0  0  0  0  0
   -2.2528   -0.6505    4.7251 H   0  0  0  0  0  0  0  0  0  0  0  0
   -0.8404   -0.0543    2.8891 H   0  0  0  0  0  0  0  0  0  0  0  0
    1.0009    0.9329    2.0571 H   0  0  0  0  0  0  0  0  0  0  0  0
   -0.0959    2.2148    1.7417 H   0  0  0  0  0  0  0  0  0  0  0  0
    1.1178    3.7793    1.8937 H   0  0  0  0  0  0  0  0  0  0  0  0
    3.5018    2.5495    3.7020 H   0  0  0  0  0  0  0  0  0  0  0  0
    2.9322    0.2963    2.6928 H   0  0  0  0  0  0  0  0  0  0  0  0
    4.3224    0.5242    3.6979 H   0  0  0  0  0  0  0  0  0  0  0  0
    4.1307    0.3927    6.9901 H   0  0  0  0  0  0  0  0  0  0  0  0
    2.2979   -0.1770    8.6940 H   0  0  0  0  0  0  0  0  0  0  0  0
    3.0018    1.2524    9.0270 H   0  0  0  0  0  0  0  0  0  0  0  0
    0.0076    0.5182    8.6726 H   0  0  0  0  0  0  0  0  0  0  0  0
    0.7346    1.5344    9.7984 H   0  0  0  0  0  0  0  0  0  0  0  0
   -2.1827    2.2760    7.1828 H   0  0  0  0  0  0  0  0  0  0  0  0
   -1.6741    3.8596    7.0516 H   0  0  0  0  0  0  0  0  0  0  0  0
   -2.5212    4.4138    4.9657 H   0  0  0  0  0  0  0  0  0  0  0  0
   -3.3631    2.9179    5.2975 H   0  0  0  0  0  0  0  0  0  0  0  0
   -2.7421    3.2195    3.7010 H   0  0  0  0  0  0  0  0  0  0  0  0
    0.9318    5.4015    4.2449 H   0  0  0  0  0  0  0  0  0  0  0  0
   -0.2276    4.7819    6.6986 H   0  0  0  0  0  0  0  0  0  0  0  0
    2.3797    5.0575    6.1029 H   0  0  0  0  0  0  0  0  0  0  0  0
    2.7238    4.2500    4.7798 H   0  0  0  0  0  0  0  0  0  0  0  0
    4.3990    3.4051    5.4547 H   0  0  0  0  0  0  0  0  0  0  0  0
  2  1  1  1
  1 33  1  0
  1 34  1  0
  1 35  1  0
  2 30  1  0
  2 31  1  0
  2  3  1  0
  3  4  1  0
  3 36  1  0
  3 37  1  0
  4 17  1  0
  4  5  1  0
  4 38  1  1
  5  6  1  0
  5 39  1  0
  5 40  1  0
  6  7  1  0
  6  8  1  0
  6 41  1  6
  8 24  1  0
  8  9  2  0
  9 10  1  0
  9 42  1  0
 10 11  1  0
 10 43  1  0
 10 44  1  0
 11 26  1  0
 11 12  1  6
 11 13  1  0
 12 45  1  0
 13 31  1  0
 13 14  1  0
 13 46  1  6
 14 15  1  0
 14 47  1  0
 14 48  1  0
 15 16  1  0
 15 17  2  0
 17 18  1  0
 18 19  1  0
 18 31  1  0
 18 49  1  1
 19 20  1  0
 19 50  1  0
 19 51  1  0
 20 21  1  0
 20 52  1  0
 20 53  1  0
 21 22  2  0
 21 23  1  0
 23 24  1  0
 23 54  1  0
 23 55  1  0
 24 25  1  6
 24 26  1  0
 25 56  1  0
 25 57  1  0
 25 58  1  0
 26 27  1  6
 26 28  1  0
 28 29  1  0
 28 30  1  0
 28 59  1  6
 29 60  1  0
 30 61  1  0
 30 62  1  0
 31 32  1  6
 32 63  1  0
M  END
>  <i_m_ct_stereo_status>  (233) 
1

>  <s_m_source_file>  (233) 
/var/tmp/pbs.5076255.sched01/tmpj5h_4zim/74m36hq9q5.sdf

>  <i_m_source_file_index>  (233) 
37

>  <i_lp_mmshare_version>  (233) 
48012

>  <i_f3d_flags>  (233) 
1

>  <s_epik_input>  (233) 
W0NIM11bQ0BAXTEyW0NAXTMoW09IXSlbQ0BASF00W0NAXTUoW09IXSlbQ0BdKEYpKFtDQEBIXShbT0hdKVtDSDJdMilbQ0BAXTYoW0NIM10pQyg9W0NIXVtDSDJdNSlbQ0BIXShGKVtDSDJdW0NIXShbQ0gyXTEpQyg9QyhGKVtDSDJdNClbQ0BASF0zW0NIMl1bQ0gyXUMoPU8pW0NIMl02

>  <s_epik_cmdline>  (233) 
J2VwaWtfcHl0aG9uJywgJy1waHQnLCAnMi4wJywgJy1waCcsICc3LjAnLCAnLXRuJywgJzgnLCAnLW1hJywgJzIwMCcsICctaW1hZScsICc8aW5maWxlLm1hZT4nLCAnLW9tYWUnLCAnPG91dGZpbGUubWFlPic=

>  <r_lp_tautomer_probability>  (233) 
1

>  <r_epik_Ionization_Penalty>  (233) 
8.95451e-07

>  <r_epik_Ionization_Penalty_Charging>  (233) 
0

>  <r_epik_Ionization_Penalty_Neutral>  (233) 
8.95451e-07

>  <r_epik_State_Penalty>  (233) 
-0

>  <r_epik_Charging_Adjusted_Penalty>  (233) 
0

>  <i_epik_Tot_Q>  (233) 
0

>  <i_epik_Tot_abs_Q>  (233) 
0

>  <s_lp_Force_Field>  (233) 
OPLS3e

>  <r_lp_Energy>  (233) 
535.856

>  <b_lp_Chiralities_Consistent>  (233) 
1

>  <s_lp_Variant>  (233) 
89:0-2

>  <s_i_glide_gridfile>  (233) 
pfpi4k_grid

>  <i_i_glide_lignum>  (233) 
37

>  <i_i_glide_rotatable_bonds>  (233) 
3

>  <r_i_docking_score>  (233) 
-2.84539

>  <r_i_glide_ligand_efficiency>  (233) 
-0.0889185

>  <r_i_glide_ligand_efficiency_sa>  (233) 
-0.282299

>  <r_i_glide_ligand_efficiency_ln>  (233) 
-0.637161

>  <r_i_glide_gscore>  (233) 
-2.84539

>  <r_i_glide_lipo>  (233) 
-0.0227266

>  <r_i_glide_hbond>  (233) 
-0.16

>  <r_i_glide_metal>  (233) 
-0

>  <r_i_glide_rewards>  (233) 
-0.32382

>  <r_i_glide_evdw>  (233) 
-21.1921

>  <r_i_glide_ecoul>  (233) 
-7.19101

>  <r_i_glide_erotb>  (233) 
0

>  <r_i_glide_esite>  (233) 
-0.200589

>  <r_i_glide_emodel>  (233) 
-34.1798

>  <r_i_glide_energy>  (233) 
-28.3831

>  <r_i_glide_einternal>  (233) 
0.150447

>  <r_i_glide_intrahb_reward>  (233) 
-0

>  <i_i_glide_confnum>  (233) 
1

>  <i_i_glide_posenum>  (233) 
9

>  <r_i_glide_eff_state_penalty>  (233) 
0

>  <ligand_id>  (233) 
89

>  <original_smiles>  (233) 
CC12CC3CC(F)C4=CCC5(O)C6CC(F)=C3C(CCC(=O)CC4(C)C5(F)C(O)C1)C62O

>  <smiles>  (233) 
[H]OC1([H])C([H])([H])C2(C([H])([H])[H])C([H])([H])C3([H])C4=C(F)C([H])([H])C5([H])C6(O[H])C([H])([H])C([H])=C(C([H])(F)C3([H])[H])C(C([H])([H])[H])(C([H])([H])C(=O)C([H])([H])C([H])([H])C4([H])C52O[H])C16F

$$$$
89:1:2
     RDKit          3D

 63 68  0  0  1  0  0  0  0  0999 V2000
    2.9277    4.2485    6.8993 C   0  0  0  0  0  0  0  0  0  0  0  0
    1.9457    3.4856    5.8534 C   0  0  1  0  0  0  0  0  0  0  0  0
    1.3826    1.8230    5.7720 C   0  0  0  0  0  0  0  0  0  0  0  0
    1.9729    0.4311    5.3325 C   0  0  1  0  0  0  0  0  0  0  0  0
    0.8280   -0.6730    5.1964 C   0  0  0  0  0  0  0  0  0  0  0  0
   -0.4598   -0.5075    6.1270 C   0  0  1  0  0  0  0  0  0  0  0  0
   -0.1401   -0.6666    7.4100 F   0  0  0  0  0  0  0  0  0  0  0  0
   -1.2109    0.8114    5.8276 C   0  0  0  0  0  0  0  0  0  0  0  0
   -1.4908    0.8729    4.4936 C   0  0  0  0  0  0  0  0  0  0  0  0
   -1.3742    2.0696    3.5538 C   0  0  0  0  0  0  0  0  0  0  0  0
   -0.4150    3.2073    4.0426 C   0  0  2  0  0  0  0  0  0  0  0  0
   -0.9064    4.3153    3.2853 O   0  0  0  0  0  0  0  0  0  0  0  0
    1.2627    3.1727    3.5159 C   0  0  2  0  0  0  0  0  0  0  0  0
    1.7028    2.1451    2.4345 C   0  0  0  0  0  0  0  0  0  0  0  0
    2.3517    0.8733    2.9883 C   0  0  0  0  0  0  0  0  0  0  0  0
    1.8691   -0.2740    2.4827 F   0  0  0  0  0  0  0  0  0  0  0  0
    2.8960    0.8443    4.2301 C   0  0  0  0  0  0  0  0  0  0  0  0
    3.5860    2.0460    4.8936 C   0  0  2  0  0  0  0  0  0  0  0  0
    3.9587    1.7103    6.5390 C   0  0  0  0  0  0  0  0  0  0  0  0
    2.9386    1.4707    7.9371 C   0  0  0  0  0  0  0  0  0  0  0  0
    1.5777    2.2499    8.5467 C   0  0  0  0  0  0  0  0  0  0  0  0
    1.8035    3.0286    9.4742 O   0  0  0  0  0  0  0  0  0  0  0  0
   -0.0557    2.0814    8.1743 C   0  0  0  0  0  0  0  0  0  0  0  0
   -1.0495    2.1221    6.7410 C   0  0  2  0  0  0  0  0  0  0  0  0
   -2.4416    2.1701    7.4341 C   0  0  0  0  0  0  0  0  0  0  0  0
   -0.9480    3.3861    5.6352 C   0  0  2  0  0  0  0  0  0  0  0  0
   -2.2308    3.7193    5.4437 F   0  0  0  0  0  0  0  0  0  0  0  0
   -0.4025    4.6800    6.2025 C   0  0  1  0  0  0  0  0  0  0  0  0
   -0.5465    4.9025    7.5903 O   0  0  0  0  0  0  0  0  0  0  0  0
    1.0162    4.7901    5.7451 C   0  0  0  0  0  0  0  0  0  0  0  0
    2.5725    3.2827    4.5418 C   0  0  2  0  0  0  0  0  0  0  0  0
    3.3875    4.3584    4.1095 O   0  0  0  0  0  0  0  0  0  0  0  0
    3.6810    3.7847    7.5064 H   0  0  0  0  0  0  0  0  0  0  0  0
    2.3700    4.7351    7.7004 H   0  0  0  0  0  0  0  0  0  0  0  0
    3.4838    5.0586    6.4250 H   0  0  0  0  0  0  0  0  0  0  0  0
    1.1007    1.2325    6.5568 H   0  0  0  0  0  0  0  0  0  0  0  0
    0.7410    1.6250    4.9957 H   0  0  0  0  0  0  0  0  0  0  0  0
    2.5902   -0.1056    6.0413 H   0  0  0  0  0  0  0  0  0  0  0  0
    0.4846   -0.7514    4.1718 H   0  0  0  0  0  0  0  0  0  0  0  0
    1.2749   -1.6472    5.3972 H   0  0  0  0  0  0  0  0  0  0  0  0
   -1.1372   -1.3304    5.9043 H   0  0  0  0  0  0  0  0  0  0  0  0
   -1.5297   -0.0469    3.9292 H   0  0  0  0  0  0  0  0  0  0  0  0
   -1.0651    1.6960    2.5797 H   0  0  0  0  0  0  0  0  0  0  0  0
   -2.3946    2.4277    3.4004 H   0  0  0  0  0  0  0  0  0  0  0  0
   -0.5937    4.2380    2.3732 H   0  0  0  0  0  0  0  0  0  0  0  0
    1.3313    4.0904    2.9288 H   0  0  0  0  0  0  0  0  0  0  0  0
    0.8899    1.8909    1.7551 H   0  0  0  0  0  0  0  0  0  0  0  0
    2.4521    2.6178    1.8048 H   0  0  0  0  0  0  0  0  0  0  0  0
    4.5169    2.1771    4.3475 H   0  0  0  0  0  0  0  0  0  0  0  0
    4.5029    0.7662    6.4797 H   0  0  0  0  0  0  0  0  0  0  0  0
    4.8125    2.3342    6.8030 H   0  0  0  0  0  0  0  0  0  0  0  0
    2.6809    0.4130    7.9935 H   0  0  0  0  0  0  0  0  0  0  0  0
    3.6439    1.5584    8.7654 H   0  0  0  0  0  0  0  0  0  0  0  0
   -0.3196    1.1652    8.6992 H   0  0  0  0  0  0  0  0  0  0  0  0
   -0.4995    2.8217    8.8390 H   0  0  0  0  0  0  0  0  0  0  0  0
   -2.6167    3.1033    7.9707 H   0  0  0  0  0  0  0  0  0  0  0  0
   -2.5568    1.3532    8.1494 H   0  0  0  0  0  0  0  0  0  0  0  0
   -3.2638    2.0567    6.7277 H   0  0  0  0  0  0  0  0  0  0  0  0
   -0.9266    5.5181    5.7419 H   0  0  0  0  0  0  0  0  0  0  0  0
   -0.0531    4.2423    8.0588 H   0  0  0  0  0  0  0  0  0  0  0  0
    1.3897    5.7053    6.2108 H   0  0  0  0  0  0  0  0  0  0  0  0
    1.0037    5.2202    4.7484 H   0  0  0  0  0  0  0  0  0  0  0  0
    2.8308    5.0618    3.8045 H   0  0  0  0  0  0  0  0  0  0  0  0
  2  1  1  1
  1 33  1  0
  1 34  1  0
  1 35  1  0
  2 30  1  0
  2 31  1  0
  2  3  1  0
  3  4  1  0
  3 36  1  0
  3 37  1  0
  4 17  1  0
  4  5  1  0
  4 38  1  1
  5  6  1  0
  5 39  1  0
  5 40  1  0
  6  7  1  0
  6  8  1  0
  6 41  1  6
  8 24  1  0
  8  9  2  0
  9 10  1  0
  9 42  1  0
 10 11  1  0
 10 43  1  0
 10 44  1  0
 11 26  1  0
 11 12  1  6
 11 13  1  0
 12 45  1  0
 13 31  1  0
 13 14  1  0
 13 46  1  6
 14 15  1  0
 14 47  1  0
 14 48  1  0
 15 16  1  0
 15 17  2  0
 17 18  1  0
 18 19  1  0
 18 31  1  0
 18 49  1  6
 19 20  1  0
 19 50  1  0
 19 51  1  0
 20 21  1  0
 20 52  1  0
 20 53  1  0
 21 22  2  0
 21 23  1  0
 23 24  1  0
 23 54  1  0
 23 55  1  0
 24 25  1  1
 24 26  1  0
 25 56  1  0
 25 57  1  0
 25 58  1  0
 26 27  1  6
 26 28  1  0
 28 29  1  0
 28 30  1  0
 28 59  1  6
 29 60  1  0
 30 61  1  0
 30 62  1  0
 31 32  1  6
 32 63  1  0
M  END
>  <i_m_ct_stereo_status>  (234) 
1

>  <s_m_source_file>  (234) 
/var/tmp/pbs.5076255.sched01/tmpj5h_4zim/74m36hq9q5.sdf

>  <i_m_source_file_index>  (234) 
37

>  <i_lp_mmshare_version>  (234) 
48012

>  <i_f3d_flags>  (234) 
1

>  <s_epik_input>  (234) 
W0NIM11bQ0BAXTEyW0NAXTMoW09IXSlbQ0BASF00W0NAXTUoW09IXSlbQ0BdKEYpKFtDQEBIXShbT0hdKVtDSDJdMilbQ0BAXTYoW0NIM10pQyg9W0NIXVtDSDJdNSlbQ0BIXShGKVtDSDJdW0NIXShbQ0gyXTEpQyg9QyhGKVtDSDJdNClbQ0BASF0zW0NIMl1bQ0gyXUMoPU8pW0NIMl02

>  <s_epik_cmdline>  (234) 
J2VwaWtfcHl0aG9uJywgJy1waHQnLCAnMi4wJywgJy1waCcsICc3LjAnLCAnLXRuJywgJzgnLCAnLW1hJywgJzIwMCcsICctaW1hZScsICc8aW5maWxlLm1hZT4nLCAnLW9tYWUnLCAnPG91dGZpbGUubWFlPic=

>  <r_lp_tautomer_probability>  (234) 
1

>  <r_epik_Ionization_Penalty>  (234) 
8.95451e-07

>  <r_epik_Ionization_Penalty_Charging>  (234) 
0

>  <r_epik_Ionization_Penalty_Neutral>  (234) 
8.95451e-07

>  <r_epik_State_Penalty>  (234) 
-0

>  <r_epik_Charging_Adjusted_Penalty>  (234) 
0

>  <i_epik_Tot_Q>  (234) 
0

>  <i_epik_Tot_abs_Q>  (234) 
0

>  <s_lp_Force_Field>  (234) 
OPLS3e

>  <r_lp_Energy>  (234) 
535.856

>  <b_lp_Chiralities_Consistent>  (234) 
1

>  <s_lp_Variant>  (234) 
89:0-2

>  <s_i_glide_gridfile>  (234) 
pfpi4k_grid

>  <i_i_glide_lignum>  (234) 
37

>  <i_i_glide_rotatable_bonds>  (234) 
3

>  <r_i_docking_score>  (234) 
-2.69982

>  <r_i_glide_ligand_efficiency>  (234) 
-0.0843693

>  <r_i_glide_ligand_efficiency_sa>  (234) 
-0.267856

>  <r_i_glide_ligand_efficiency_ln>  (234) 
-0.604563

>  <r_i_glide_gscore>  (234) 
-2.69982

>  <r_i_glide_lipo>  (234) 
0

>  <r_i_glide_hbond>  (234) 
-0.16

>  <r_i_glide_metal>  (234) 
-0

>  <r_i_glide_rewards>  (234) 
-0.32382

>  <r_i_glide_evdw>  (234) 
-23.4171

>  <r_i_glide_ecoul>  (234) 
-6.26347

>  <r_i_glide_erotb>  (234) 
0

>  <r_i_glide_esite>  (234) 
-0.105622

>  <r_i_glide_emodel>  (234) 
-35.0199

>  <r_i_glide_energy>  (234) 
-29.6806

>  <r_i_glide_einternal>  (234) 
0.352743

>  <r_i_glide_intrahb_reward>  (234) 
-0

>  <i_i_glide_confnum>  (234) 
1

>  <i_i_glide_posenum>  (234) 
1

>  <r_i_glide_eff_state_penalty>  (234) 
0

>  <ligand_id>  (234) 
89

>  <original_smiles>  (234) 
CC12CC3CC(F)C4=CCC5(O)C6CC(F)=C3C(CCC(=O)CC4(C)C5(F)C(O)C1)C62O

>  <smiles>  (234) 
[H]OC1([H])C([H])([H])C2(C([H])([H])[H])C([H])([H])C3([H])C4=C(F)C([H])([H])C5([H])C6(O[H])C([H])([H])C([H])=C(C([H])(F)C3([H])[H])C(C([H])([H])[H])(C([H])([H])C(=O)C([H])([H])C([H])([H])C4([H])C52O[H])C16F

$$$$
90:0:0
     RDKit          3D

 62 68  0  0  1  0  0  0  0  0999 V2000
    0.8237   -6.7049    0.8073 C   0  0  0  0  0  0  0  0  0  0  0  0
    1.9600   -6.2009    0.1149 O   0  0  0  0  0  0  0  0  0  0  0  0
    3.2482   -6.4381    0.7057 C   0  0  2  0  0  0  0  0  0  0  0  0
    3.3730   -7.7282    1.5096 C   0  0  2  0  0  0  0  0  0  0  0  0
    2.5231   -7.8530    2.6669 O   0  0  0  0  0  0  0  0  0  0  0  0
    3.9201   -7.7084    2.9486 C   0  0  2  0  0  0  0  0  0  0  0  0
    4.2385   -6.3929    3.6009 C   0  0  1  0  0  0  0  0  0  0  0  0
    5.0981   -6.5746    4.7058 O   0  0  0  0  0  0  0  0  0  0  0  0
    4.7693   -5.3437    2.5921 C   0  0  1  0  0  0  0  0  0  0  0  0
    6.2995   -5.4936    2.1960 C   0  0  1  0  0  0  0  0  0  0  0  0
    6.6404   -6.8283    1.4990 C   0  0  0  0  0  0  0  0  0  0  0  0
    6.9837   -4.2504    1.4930 C   0  0  1  0  0  0  0  0  0  0  0  0
    8.3869   -4.4654    1.4750 O   0  0  0  0  0  0  0  0  0  0  0  0
    6.5439   -3.9014    0.0489 C   0  0  1  0  0  0  0  0  0  0  0  0
    5.3868   -4.6533   -0.1008 O   0  0  0  0  0  0  0  0  0  0  0  0
    4.2300   -4.0676    0.5101 C   0  0  1  0  0  0  0  0  0  0  0  0
    4.2378   -2.6052    1.1380 C   0  0  0  0  0  0  0  0  0  0  0  0
    4.6026   -2.2095   -0.2833 C   0  0  1  0  0  0  0  0  0  0  0  0
    4.4145   -0.9023   -1.0499 C   0  0  1  0  0  0  0  0  0  0  0  0
    5.8120   -0.6480   -1.5256 C   0  0  0  0  0  0  0  0  0  0  0  0
    6.5288   -1.9007   -1.5015 O   0  0  0  0  0  0  0  0  0  0  0  0
    6.1446   -2.4254   -0.2659 C   0  0  2  0  0  0  0  0  0  0  0  0
    3.4638   -0.9481   -2.2980 C   0  0  1  0  0  0  0  0  0  0  0  0
    3.5092    0.1732   -3.1514 O   0  0  0  0  0  0  0  0  0  0  0  0
    3.6045   -2.2603   -3.0827 C   0  0  0  0  0  0  0  0  0  0  0  0
    3.7105   -3.5593   -2.2437 C   0  0  1  0  0  0  0  0  0  0  0  0
    4.8968   -4.1981   -2.6730 O   0  0  0  0  0  0  0  0  0  0  0  0
    3.5855   -3.3306   -0.7025 C   0  0  1  0  0  0  0  0  0  0  0  0
    2.0830   -3.1690   -0.4676 C   0  0  0  0  0  0  0  0  0  0  0  0
    3.7125   -5.1545    1.4439 C   0  0  1  0  0  0  0  0  0  0  0  0
   -0.1011   -6.4913    0.2780 H   0  0  0  0  0  0  0  0  0  0  0  0
    0.7771   -6.2406    1.7944 H   0  0  0  0  0  0  0  0  0  0  0  0
    0.8663   -7.7927    0.9418 H   0  0  0  0  0  0  0  0  0  0  0  0
    3.9322   -6.5947   -0.1339 H   0  0  0  0  0  0  0  0  0  0  0  0
    3.4642   -8.6589    0.9536 H   0  0  0  0  0  0  0  0  0  0  0  0
    4.3717   -8.6048    3.3902 H   0  0  0  0  0  0  0  0  0  0  0  0
    3.2952   -6.0159    4.0036 H   0  0  0  0  0  0  0  0  0  0  0  0
    5.8365   -7.0622    4.4008 H   0  0  0  0  0  0  0  0  0  0  0  0
    4.7433   -4.4084    3.1563 H   0  0  0  0  0  0  0  0  0  0  0  0
    6.8103   -5.5457    3.1573 H   0  0  0  0  0  0  0  0  0  0  0  0
    6.1576   -6.9033    0.5271 H   0  0  0  0  0  0  0  0  0  0  0  0
    6.3355   -7.6866    2.0924 H   0  0  0  0  0  0  0  0  0  0  0  0
    7.7126   -6.9475    1.3529 H   0  0  0  0  0  0  0  0  0  0  0  0
    6.8039   -3.3622    2.0726 H   0  0  0  0  0  0  0  0  0  0  0  0
    8.5545   -5.3406    1.1936 H   0  0  0  0  0  0  0  0  0  0  0  0
    7.2857   -4.2235   -0.6706 H   0  0  0  0  0  0  0  0  0  0  0  0
    3.3001   -2.2104    1.5433 H   0  0  0  0  0  0  0  0  0  0  0  0
    5.0066   -2.3882    1.8943 H   0  0  0  0  0  0  0  0  0  0  0  0
    4.1446   -0.1023   -0.3779 H   0  0  0  0  0  0  0  0  0  0  0  0
    5.8369   -0.2528   -2.5253 H   0  0  0  0  0  0  0  0  0  0  0  0
    6.1875    0.1275   -0.8439 H   0  0  0  0  0  0  0  0  0  0  0  0
    6.6563   -1.7774    0.4590 H   0  0  0  0  0  0  0  0  0  0  0  0
    2.4470   -0.9515   -1.9682 H   0  0  0  0  0  0  0  0  0  0  0  0
    2.8527    0.8514   -2.9069 H   0  0  0  0  0  0  0  0  0  0  0  0
    2.7248   -2.3524   -3.7279 H   0  0  0  0  0  0  0  0  0  0  0  0
    4.4778   -2.1704   -3.7349 H   0  0  0  0  0  0  0  0  0  0  0  0
    2.8625   -4.1765   -2.5489 H   0  0  0  0  0  0  0  0  0  0  0  0
    4.7591   -5.1205   -2.5463 H   0  0  0  0  0  0  0  0  0  0  0  0
    1.5035   -3.0888   -1.3941 H   0  0  0  0  0  0  0  0  0  0  0  0
    1.8148   -2.3376    0.1696 H   0  0  0  0  0  0  0  0  0  0  0  0
    1.7527   -4.0582    0.0513 H   0  0  0  0  0  0  0  0  0  0  0  0
    2.8146   -4.7816    1.9449 H   0  0  0  0  0  0  0  0  0  0  0  0
  1  2  1  0
  1 31  1  0
  1 32  1  0
  1 33  1  0
  2  3  1  0
  3 30  1  0
  3  4  1  0
  3 34  1  6
  4  6  1  0
  4  5  1  0
  4 35  1  6
  5  6  1  0
  6  7  1  0
  6 36  1  6
  7  8  1  0
  7  9  1  0
  7 37  1  1
  8 38  1  0
  9 30  1  0
  9 10  1  0
  9 39  1  1
 10 11  1  0
 10 12  1  0
 10 40  1  1
 11 41  1  0
 11 42  1  0
 11 43  1  0
 12 13  1  0
 12 14  1  0
 12 44  1  1
 13 45  1  0
 14 22  1  0
 14 15  1  0
 14 46  1  6
 15 16  1  0
 16 28  1  0
 16 17  1  1
 16 30  1  0
 18 17  1  1
 17 47  1  0
 17 48  1  0
 18 22  1  0
 18 28  1  0
 18 19  1  0
 19 20  1  0
 19 23  1  0
 19 49  1  1
 20 21  1  0
 20 50  1  0
 20 51  1  0
 21 22  1  0
 22 52  1  1
 23 24  1  0
 23 25  1  0
 23 53  1  1
 24 54  1  0
 25 26  1  0
 25 55  1  0
 25 56  1  0
 26 27  1  0
 26 28  1  0
 26 57  1  6
 27 58  1  0
 28 29  1  1
 29 59  1  0
 29 60  1  0
 29 61  1  0
 30 62  1  1
M  END
>  <i_m_ct_stereo_status>  (235) 
1

>  <s_m_source_file>  (235) 
/var/tmp/pbs.5076255.sched01/tmp6zmtdo5c/111u4f9dq10.sdf

>  <i_m_source_file_index>  (235) 
1

>  <i_lp_mmshare_version>  (235) 
48012

>  <i_f3d_flags>  (235) 
0

>  <s_epik_input>  (235) 
W09IXVtDQEBIXTFbQ0BASF0oTzIpW0NAQEhdMltDQEBIXShPW0NIM10pW0NASF0zW0NAQEhdMVtDQEBIXShbQ0gzXSlbQ0BASF0oW09IXSlbQ0BASF0oTzQpW0NASF01T1tDSDJdW0NASF0oW0NAQF01KFtDSDJdNilbQ0BAXTcoW0NAQF0zNDYpW0NIM10pW0NAQEhdKFtPSF0pW0NIMl1bQ0BIXTdbT0hd

>  <s_epik_cmdline>  (235) 
J2VwaWtfcHl0aG9uJywgJy1waHQnLCAnMi4wJywgJy1waCcsICc3LjAnLCAnLXRuJywgJzgnLCAnLW1hJywgJzIwMCcsICctaW1hZScsICc8aW5maWxlLm1hZT4nLCAnLW9tYWUnLCAnPG91dGZpbGUubWFlPic=

>  <r_lp_tautomer_probability>  (235) 
1

>  <r_epik_Ionization_Penalty>  (235) 
3.70913e-07

>  <r_epik_Ionization_Penalty_Charging>  (235) 
0

>  <r_epik_Ionization_Penalty_Neutral>  (235) 
3.70913e-07

>  <r_epik_State_Penalty>  (235) 
-0

>  <r_epik_Charging_Adjusted_Penalty>  (235) 
0

>  <i_epik_Tot_Q>  (235) 
0

>  <i_epik_Tot_abs_Q>  (235) 
0

>  <s_lp_Force_Field>  (235) 
OPLS3e

>  <r_lp_Energy>  (235) 
126.334

>  <b_lp_Chiralities_Consistent>  (235) 
1

>  <s_lp_Variant>  (235) 
90:0-1

>  <s_i_glide_gridfile>  (235) 
pfpi4k_grid

>  <i_i_glide_lignum>  (235) 
1

>  <i_i_glide_rotatable_bonds>  (235) 
5

>  <r_i_docking_score>  (235) 
-3.04694

>  <r_i_glide_ligand_efficiency>  (235) 
-0.101565

>  <r_i_glide_ligand_efficiency_sa>  (235) 
-0.315585

>  <r_i_glide_ligand_efficiency_ln>  (235) 
-0.692298

>  <r_i_glide_gscore>  (235) 
-3.04694

>  <r_i_glide_lipo>  (235) 
-0.534791

>  <r_i_glide_hbond>  (235) 
-0.466806

>  <r_i_glide_metal>  (235) 
-0

>  <r_i_glide_rewards>  (235) 
-0.514877

>  <r_i_glide_evdw>  (235) 
0.0634096

>  <r_i_glide_ecoul>  (235) 
-10.2242

>  <r_i_glide_erotb>  (235) 
0

>  <r_i_glide_esite>  (235) 
0

>  <r_i_glide_emodel>  (235) 
-5.12966

>  <r_i_glide_energy>  (235) 
-10.1608

>  <r_i_glide_einternal>  (235) 
11.0683

>  <r_i_glide_intrahb_reward>  (235) 
-0

>  <i_i_glide_confnum>  (235) 
1

>  <i_i_glide_posenum>  (235) 
5

>  <r_i_glide_eff_state_penalty>  (235) 
0

>  <ligand_id>  (235) 
90

>  <original_smiles>  (235) 
COC1C2OC2C(O)C2C(C)C(O)C3OC4(CC56C(COC35)C(O)CC(O)C46C)C12

>  <smiles>  (235) 
[H]OC1([H])C2([H])OC3(C([H])([H])C45C2([H])OC([H])([H])C4([H])C([H])(O[H])C([H])([H])C([H])(O[H])C35C([H])([H])[H])C2([H])C([H])(OC([H])([H])[H])C3([H])OC3([H])C([H])(O[H])C2([H])C1([H])C([H])([H])[H]

$$$$
90:0:1
     RDKit          3D

 62 68  0  0  1  0  0  0  0  0999 V2000
    0.3497   -6.6410    0.6648 C   0  0  0  0  0  0  0  0  0  0  0  0
    1.5907   -6.2761    0.0775 O   0  0  0  0  0  0  0  0  0  0  0  0
    2.8248   -6.5670    0.7536 C   0  0  2  0  0  0  0  0  0  0  0  0
    2.7737   -7.8793    1.5027 C   0  0  2  0  0  0  0  0  0  0  0  0
    1.8481   -7.9476    2.5663 O   0  0  0  0  0  0  0  0  0  0  0  0
    3.2227   -7.9431    2.9663 C   0  0  2  0  0  0  0  0  0  0  0  0
    3.6261   -6.6726    3.6711 C   0  0  1  0  0  0  0  0  0  0  0  0
    4.3823   -6.9575    4.8227 O   0  0  0  0  0  0  0  0  0  0  0  0
    4.3034   -5.6470    2.7342 C   0  0  1  0  0  0  0  0  0  0  0  0
    5.8310   -5.9265    2.4334 C   0  0  1  0  0  0  0  0  0  0  0  0
    6.1061   -7.2635    1.7083 C   0  0  0  0  0  0  0  0  0  0  0  0
    6.6662   -4.7250    1.8373 C   0  0  1  0  0  0  0  0  0  0  0  0
    8.0415   -5.0498    1.9082 O   0  0  0  0  0  0  0  0  0  0  0  0
    6.3748   -4.2976    0.3707 C   0  0  1  0  0  0  0  0  0  0  0  0
    5.1708   -4.9452    0.0957 O   0  0  0  0  0  0  0  0  0  0  0  0
    4.0262   -4.2672    0.6592 C   0  0  1  0  0  0  0  0  0  0  0  0
    4.1195   -2.8317    1.3554 C   0  0  0  0  0  0  0  0  0  0  0  0
    4.6193   -2.4271    0.0070 C   0  0  1  0  0  0  0  0  0  0  0  0
    4.5924   -1.0816   -0.7250 C   0  0  1  0  0  0  0  0  0  0  0  0
    6.0480   -0.9752   -1.1273 C   0  0  0  0  0  0  0  0  0  0  0  0
    6.6285   -2.2667   -1.1169 O   0  0  0  0  0  0  0  0  0  0  0  0
    6.1381   -2.7841    0.0860 C   0  0  2  0  0  0  0  0  0  0  0  0
    3.6875   -1.0044   -2.0170 C   0  0  1  0  0  0  0  0  0  0  0  0
    3.9245    0.0943   -2.8920 O   0  0  0  0  0  0  0  0  0  0  0  0
    3.7750   -2.2994   -2.8678 C   0  0  0  0  0  0  0  0  0  0  0  0
    3.7455   -3.6288   -2.1021 C   0  0  1  0  0  0  0  0  0  0  0  0
    4.9416   -4.2203   -2.4717 O   0  0  0  0  0  0  0  0  0  0  0  0
    3.5443   -3.4452   -0.5709 C   0  0  1  0  0  0  0  0  0  0  0  0
    2.0530   -3.1717   -0.4437 C   0  0  0  0  0  0  0  0  0  0  0  0
    3.3407   -5.3310    1.5430 C   0  0  1  0  0  0  0  0  0  0  0  0
   -0.4740   -6.2629    0.0655 H   0  0  0  0  0  0  0  0  0  0  0  0
    0.2653   -6.2023    1.6546 H   0  0  0  0  0  0  0  0  0  0  0  0
    0.3123   -7.7219    0.7204 H   0  0  0  0  0  0  0  0  0  0  0  0
    3.5430   -6.6976   -0.0589 H   0  0  0  0  0  0  0  0  0  0  0  0
    2.8502   -8.7889    0.9217 H   0  0  0  0  0  0  0  0  0  0  0  0
    3.5972   -8.8851    3.3938 H   0  0  0  0  0  0  0  0  0  0  0  0
    2.6813   -6.2418    4.0143 H   0  0  0  0  0  0  0  0  0  0  0  0
    5.0880   -7.5213    4.5556 H   0  0  0  0  0  0  0  0  0  0  0  0
    4.3238   -4.7364    3.3281 H   0  0  0  0  0  0  0  0  0  0  0  0
    6.2656   -6.0568    3.4208 H   0  0  0  0  0  0  0  0  0  0  0  0
    5.6915   -7.2767    0.6994 H   0  0  0  0  0  0  0  0  0  0  0  0
    5.6943   -8.1140    2.2495 H   0  0  0  0  0  0  0  0  0  0  0  0
    7.1769   -7.4601    1.6274 H   0  0  0  0  0  0  0  0  0  0  0  0
    6.5299   -3.8587    2.4778 H   0  0  0  0  0  0  0  0  0  0  0  0
    8.2715   -5.1805    2.8110 H   0  0  0  0  0  0  0  0  0  0  0  0
    7.1185   -4.6957   -0.3070 H   0  0  0  0  0  0  0  0  0  0  0  0
    3.2011   -2.3839    1.6937 H   0  0  0  0  0  0  0  0  0  0  0  0
    4.8370   -2.7231    2.1542 H   0  0  0  0  0  0  0  0  0  0  0  0
    4.3539   -0.2577   -0.0648 H   0  0  0  0  0  0  0  0  0  0  0  0
    6.1076   -0.6082   -2.1446 H   0  0  0  0  0  0  0  0  0  0  0  0
    6.6159   -0.3300   -0.4345 H   0  0  0  0  0  0  0  0  0  0  0  0
    6.6435   -2.2122    0.8644 H   0  0  0  0  0  0  0  0  0  0  0  0
    2.6616   -0.9230   -1.6687 H   0  0  0  0  0  0  0  0  0  0  0  0
    3.0738    0.4865   -3.0787 H   0  0  0  0  0  0  0  0  0  0  0  0
    2.9621   -2.2880   -3.5934 H   0  0  0  0  0  0  0  0  0  0  0  0
    4.6957   -2.2286   -3.4494 H   0  0  0  0  0  0  0  0  0  0  0  0
    2.9080   -4.1597   -2.4891 H   0  0  0  0  0  0  0  0  0  0  0  0
    4.7935   -5.1468   -2.4427 H   0  0  0  0  0  0  0  0  0  0  0  0
    1.5776   -3.0083   -1.3997 H   0  0  0  0  0  0  0  0  0  0  0  0
    1.8107   -2.3470    0.2266 H   0  0  0  0  0  0  0  0  0  0  0  0
    1.6117   -4.0622   -0.0374 H   0  0  0  0  0  0  0  0  0  0  0  0
    2.4527   -4.8901    1.9915 H   0  0  0  0  0  0  0  0  0  0  0  0
  1  2  1  0
  1 31  1  0
  1 32  1  0
  1 33  1  0
  2  3  1  0
  3 30  1  0
  3  4  1  0
  3 34  1  6
  4  6  1  0
  4  5  1  0
  4 35  1  6
  5  6  1  0
  6  7  1  0
  6 36  1  6
  7  8  1  0
  7  9  1  0
  7 37  1  1
  8 38  1  0
  9 30  1  0
  9 10  1  0
  9 39  1  1
 10 11  1  0
 10 12  1  0
 10 40  1  1
 11 41  1  0
 11 42  1  0
 11 43  1  0
 12 13  1  0
 12 14  1  0
 12 44  1  1
 13 45  1  0
 14 22  1  0
 14 15  1  0
 14 46  1  6
 15 16  1  0
 16 28  1  0
 16 17  1  1
 16 30  1  0
 18 17  1  1
 17 47  1  0
 17 48  1  0
 18 22  1  0
 18 28  1  0
 18 19  1  0
 19 20  1  0
 19 23  1  0
 19 49  1  1
 20 21  1  0
 20 50  1  0
 20 51  1  0
 21 22  1  0
 22 52  1  1
 23 24  1  0
 23 25  1  0
 23 53  1  1
 24 54  1  0
 25 26  1  0
 25 55  1  0
 25 56  1  0
 26 27  1  0
 26 28  1  0
 26 57  1  6
 27 58  1  0
 28 29  1  6
 29 59  1  0
 29 60  1  0
 29 61  1  0
 30 62  1  1
M  END
>  <i_m_ct_stereo_status>  (236) 
1

>  <s_m_source_file>  (236) 
/var/tmp/pbs.5076255.sched01/tmp6zmtdo5c/111u4f9dq10.sdf

>  <i_m_source_file_index>  (236) 
1

>  <i_lp_mmshare_version>  (236) 
48012

>  <i_f3d_flags>  (236) 
0

>  <s_epik_input>  (236) 
W09IXVtDQEBIXTFbQ0BASF0oTzIpW0NAQEhdMltDQEBIXShPW0NIM10pW0NASF0zW0NAQEhdMVtDQEBIXShbQ0gzXSlbQ0BASF0oW09IXSlbQ0BASF0oTzQpW0NASF01T1tDSDJdW0NASF0oW0NAQF01KFtDSDJdNilbQ0BAXTcoW0NAQF0zNDYpW0NIM10pW0NAQEhdKFtPSF0pW0NIMl1bQ0BIXTdbT0hd

>  <s_epik_cmdline>  (236) 
J2VwaWtfcHl0aG9uJywgJy1waHQnLCAnMi4wJywgJy1waCcsICc3LjAnLCAnLXRuJywgJzgnLCAnLW1hJywgJzIwMCcsICctaW1hZScsICc8aW5maWxlLm1hZT4nLCAnLW9tYWUnLCAnPG91dGZpbGUubWFlPic=

>  <r_lp_tautomer_probability>  (236) 
1

>  <r_epik_Ionization_Penalty>  (236) 
3.70913e-07

>  <r_epik_Ionization_Penalty_Charging>  (236) 
0

>  <r_epik_Ionization_Penalty_Neutral>  (236) 
3.70913e-07

>  <r_epik_State_Penalty>  (236) 
-0

>  <r_epik_Charging_Adjusted_Penalty>  (236) 
0

>  <i_epik_Tot_Q>  (236) 
0

>  <i_epik_Tot_abs_Q>  (236) 
0

>  <s_lp_Force_Field>  (236) 
OPLS3e

>  <r_lp_Energy>  (236) 
126.334

>  <b_lp_Chiralities_Consistent>  (236) 
1

>  <s_lp_Variant>  (236) 
90:0-1

>  <s_i_glide_gridfile>  (236) 
pfpi4k_grid

>  <i_i_glide_lignum>  (236) 
1

>  <i_i_glide_rotatable_bonds>  (236) 
5

>  <r_i_docking_score>  (236) 
-2.73598

>  <r_i_glide_ligand_efficiency>  (236) 
-0.0911994

>  <r_i_glide_ligand_efficiency_sa>  (236) 
-0.283378

>  <r_i_glide_ligand_efficiency_ln>  (236) 
-0.621645

>  <r_i_glide_gscore>  (236) 
-2.73598

>  <r_i_glide_lipo>  (236) 
-0.46173

>  <r_i_glide_hbond>  (236) 
-0.425358

>  <r_i_glide_metal>  (236) 
-0

>  <r_i_glide_rewards>  (236) 
-0.514877

>  <r_i_glide_evdw>  (236) 
-4.53556

>  <r_i_glide_ecoul>  (236) 
-7.38158

>  <r_i_glide_erotb>  (236) 
0

>  <r_i_glide_esite>  (236) 
0

>  <r_i_glide_emodel>  (236) 
-6.49573

>  <r_i_glide_energy>  (236) 
-11.9171

>  <r_i_glide_einternal>  (236) 
11.0972

>  <r_i_glide_intrahb_reward>  (236) 
-0

>  <i_i_glide_confnum>  (236) 
2

>  <i_i_glide_posenum>  (236) 
13

>  <r_i_glide_eff_state_penalty>  (236) 
0

>  <ligand_id>  (236) 
90

>  <original_smiles>  (236) 
COC1C2OC2C(O)C2C(C)C(O)C3OC4(CC56C(COC35)C(O)CC(O)C46C)C12

>  <smiles>  (236) 
[H]OC1([H])C2([H])OC3(C([H])([H])C45C2([H])OC([H])([H])C4([H])C([H])(O[H])C([H])([H])C([H])(O[H])C35C([H])([H])[H])C2([H])C([H])(OC([H])([H])[H])C3([H])OC3([H])C([H])(O[H])C2([H])C1([H])C([H])([H])[H]

$$$$
90:0:2
     RDKit          3D

 62 68  0  0  1  0  0  0  0  0999 V2000
    2.4699   -1.7395    2.6580 C   0  0  0  0  0  0  0  0  0  0  0  0
    2.7983   -2.8018    1.7784 O   0  0  0  0  0  0  0  0  0  0  0  0
    4.1519   -2.8216    1.3370 C   0  0  2  0  0  0  0  0  0  0  0  0
    4.4152   -1.6152    0.4452 C   0  0  2  0  0  0  0  0  0  0  0  0
    3.6216   -1.4977   -0.7364 O   0  0  0  0  0  0  0  0  0  0  0  0
    5.0116   -1.7743   -0.9308 C   0  0  2  0  0  0  0  0  0  0  0  0
    5.2628   -3.1408   -1.5068 C   0  0  1  0  0  0  0  0  0  0  0  0
    6.2211   -3.0579   -2.5361 O   0  0  0  0  0  0  0  0  0  0  0  0
    5.5856   -4.1976   -0.4180 C   0  0  1  0  0  0  0  0  0  0  0  0
    7.0906   -4.2307    0.0931 C   0  0  1  0  0  0  0  0  0  0  0  0
    7.5473   -2.9205    0.7627 C   0  0  0  0  0  0  0  0  0  0  0  0
    7.5566   -5.5389    0.8605 C   0  0  1  0  0  0  0  0  0  0  0  0
    8.9760   -5.5358    0.9502 O   0  0  0  0  0  0  0  0  0  0  0  0
    6.9559   -5.7668    2.2883 C   0  0  1  0  0  0  0  0  0  0  0  0
    5.8802   -4.8819    2.3271 O   0  0  0  0  0  0  0  0  0  0  0  0
    4.7034   -5.3221    1.6426 C   0  0  1  0  0  0  0  0  0  0  0  0
    4.5888   -6.7911    1.0615 C   0  0  0  0  0  0  0  0  0  0  0  0
    4.7962   -7.1816    2.5043 C   0  0  1  0  0  0  0  0  0  0  0  0
    4.4158   -8.4429    3.2857 C   0  0  1  0  0  0  0  0  0  0  0  0
    5.7267   -8.8196    4.0065 C   0  0  0  0  0  0  0  0  0  0  0  0
    6.5214   -7.6372    3.9748 O   0  0  0  0  0  0  0  0  0  0  0  0
    6.3394   -7.1525    2.6638 C   0  0  2  0  0  0  0  0  0  0  0  0
    3.2913   -8.1598    4.3293 C   0  0  1  0  0  0  0  0  0  0  0  0
    3.0868   -9.2628    5.1931 O   0  0  0  0  0  0  0  0  0  0  0  0
    3.5292   -6.8576    5.1569 C   0  0  0  0  0  0  0  0  0  0  0  0
    3.8816   -5.5839    4.3138 C   0  0  1  0  0  0  0  0  0  0  0  0
    5.1052   -5.0914    4.8356 O   0  0  0  0  0  0  0  0  0  0  0  0
    3.8595   -5.9294    2.7918 C   0  0  1  0  0  0  0  0  0  0  0  0
    2.3335   -5.9610    2.4392 C   0  0  0  0  0  0  0  0  0  0  0  0
    4.4311   -4.1935    0.6527 C   0  0  1  0  0  0  0  0  0  0  0  0
    1.4193   -1.8060    2.9428 H   0  0  0  0  0  0  0  0  0  0  0  0
    2.6175   -0.7620    2.1959 H   0  0  0  0  0  0  0  0  0  0  0  0
    3.0728   -1.7948    3.5649 H   0  0  0  0  0  0  0  0  0  0  0  0
    4.7928   -2.7152    2.2110 H   0  0  0  0  0  0  0  0  0  0  0  0
    4.6027   -0.6752    0.9573 H   0  0  0  0  0  0  0  0  0  0  0  0
    5.5778   -0.9420   -1.3422 H   0  0  0  0  0  0  0  0  0  0  0  0
    4.3372   -3.4362   -2.0002 H   0  0  0  0  0  0  0  0  0  0  0  0
    6.3163   -3.9102   -2.9381 H   0  0  0  0  0  0  0  0  0  0  0  0
    5.4710   -5.1417   -0.9514 H   0  0  0  0  0  0  0  0  0  0  0  0
    7.7058   -4.2463   -0.8063 H   0  0  0  0  0  0  0  0  0  0  0  0
    7.0167   -2.7206    1.6883 H   0  0  0  0  0  0  0  0  0  0  0  0
    7.4075   -2.0618    0.1075 H   0  0  0  0  0  0  0  0  0  0  0  0
    8.6149   -2.9626    0.9735 H   0  0  0  0  0  0  0  0  0  0  0  0
    7.3375   -6.3907    0.2224 H   0  0  0  0  0  0  0  0  0  0  0  0
    9.2685   -6.3827    1.2685 H   0  0  0  0  0  0  0  0  0  0  0  0
    7.6671   -5.4549    3.0512 H   0  0  0  0  0  0  0  0  0  0  0  0
    3.6397   -7.0614    0.6050 H   0  0  0  0  0  0  0  0  0  0  0  0
    5.3741   -7.1140    0.3886 H   0  0  0  0  0  0  0  0  0  0  0  0
    4.1067   -9.2477    2.6197 H   0  0  0  0  0  0  0  0  0  0  0  0
    5.5931   -9.1742    5.0256 H   0  0  0  0  0  0  0  0  0  0  0  0
    6.2277   -9.6178    3.4567 H   0  0  0  0  0  0  0  0  0  0  0  0
    6.8110   -7.8896    2.0130 H   0  0  0  0  0  0  0  0  0  0  0  0
    2.3427   -8.0748    3.8034 H   0  0  0  0  0  0  0  0  0  0  0  0
    2.8209  -10.0099    4.6796 H   0  0  0  0  0  0  0  0  0  0  0  0
    2.6351   -6.6535    5.7451 H   0  0  0  0  0  0  0  0  0  0  0  0
    4.3138   -7.0586    5.8889 H   0  0  0  0  0  0  0  0  0  0  0  0
    3.1606   -4.7989    4.5304 H   0  0  0  0  0  0  0  0  0  0  0  0
    5.7757   -5.7304    4.6459 H   0  0  0  0  0  0  0  0  0  0  0  0
    1.6870   -5.8705    3.3116 H   0  0  0  0  0  0  0  0  0  0  0  0
    2.0238   -6.8835    1.9451 H   0  0  0  0  0  0  0  0  0  0  0  0
    2.0562   -5.1458    1.7754 H   0  0  0  0  0  0  0  0  0  0  0  0
    3.5294   -4.4351    0.0814 H   0  0  0  0  0  0  0  0  0  0  0  0
  1  2  1  0
  1 31  1  0
  1 32  1  0
  1 33  1  0
  2  3  1  0
  3 30  1  0
  3  4  1  0
  3 34  1  1
  4  6  1  0
  4  5  1  0
  4 35  1  1
  5  6  1  0
  6  7  1  0
  6 36  1  6
  7  8  1  0
  7  9  1  0
  7 37  1  6
  8 38  1  0
  9 30  1  0
  9 10  1  0
  9 39  1  6
 10 11  1  0
 10 12  1  0
 10 40  1  6
 11 41  1  0
 11 42  1  0
 11 43  1  0
 12 13  1  0
 12 14  1  0
 12 44  1  6
 13 45  1  0
 14 22  1  0
 14 15  1  0
 14 46  1  1
 15 16  1  0
 16 28  1  0
 16 17  1  6
 16 30  1  0
 18 17  1  6
 17 47  1  0
 17 48  1  0
 18 22  1  0
 18 28  1  0
 18 19  1  0
 19 20  1  0
 19 23  1  0
 19 49  1  6
 20 21  1  0
 20 50  1  0
 20 51  1  0
 21 22  1  0
 22 52  1  6
 23 24  1  0
 23 25  1  0
 23 53  1  6
 24 54  1  0
 25 26  1  0
 25 55  1  0
 25 56  1  0
 26 27  1  0
 26 28  1  0
 26 57  1  6
 27 58  1  0
 28 29  1  6
 29 59  1  0
 29 60  1  0
 29 61  1  0
 30 62  1  6
M  END
>  <i_m_ct_stereo_status>  (237) 
1

>  <s_m_source_file>  (237) 
/var/tmp/pbs.5076255.sched01/tmp6zmtdo5c/111u4f9dq10.sdf

>  <i_m_source_file_index>  (237) 
1

>  <i_lp_mmshare_version>  (237) 
48012

>  <i_f3d_flags>  (237) 
0

>  <s_epik_input>  (237) 
W09IXVtDQEBIXTFbQ0BASF0oTzIpW0NAQEhdMltDQEBIXShPW0NIM10pW0NASF0zW0NAQEhdMVtDQEBIXShbQ0gzXSlbQ0BASF0oW09IXSlbQ0BASF0oTzQpW0NASF01T1tDSDJdW0NASF0oW0NAQF01KFtDSDJdNilbQ0BAXTcoW0NAQF0zNDYpW0NIM10pW0NAQEhdKFtPSF0pW0NIMl1bQ0BIXTdbT0hd

>  <s_epik_cmdline>  (237) 
J2VwaWtfcHl0aG9uJywgJy1waHQnLCAnMi4wJywgJy1waCcsICc3LjAnLCAnLXRuJywgJzgnLCAnLW1hJywgJzIwMCcsICctaW1hZScsICc8aW5maWxlLm1hZT4nLCAnLW9tYWUnLCAnPG91dGZpbGUubWFlPic=

>  <r_lp_tautomer_probability>  (237) 
1

>  <r_epik_Ionization_Penalty>  (237) 
3.70913e-07

>  <r_epik_Ionization_Penalty_Charging>  (237) 
0

>  <r_epik_Ionization_Penalty_Neutral>  (237) 
3.70913e-07

>  <r_epik_State_Penalty>  (237) 
-0

>  <r_epik_Charging_Adjusted_Penalty>  (237) 
0

>  <i_epik_Tot_Q>  (237) 
0

>  <i_epik_Tot_abs_Q>  (237) 
0

>  <s_lp_Force_Field>  (237) 
OPLS3e

>  <r_lp_Energy>  (237) 
126.334

>  <b_lp_Chiralities_Consistent>  (237) 
1

>  <s_lp_Variant>  (237) 
90:0-1

>  <s_i_glide_gridfile>  (237) 
pfpi4k_grid

>  <i_i_glide_lignum>  (237) 
1

>  <i_i_glide_rotatable_bonds>  (237) 
5

>  <r_i_docking_score>  (237) 
-2.38921

>  <r_i_glide_ligand_efficiency>  (237) 
-0.0796404

>  <r_i_glide_ligand_efficiency_sa>  (237) 
-0.247461

>  <r_i_glide_ligand_efficiency_ln>  (237) 
-0.542855

>  <r_i_glide_gscore>  (237) 
-2.38921

>  <r_i_glide_lipo>  (237) 
-0.638598

>  <r_i_glide_hbond>  (237) 
0

>  <r_i_glide_metal>  (237) 
-0

>  <r_i_glide_rewards>  (237) 
-0.514877

>  <r_i_glide_evdw>  (237) 
-18.8582

>  <r_i_glide_ecoul>  (237) 
-1.95219

>  <r_i_glide_erotb>  (237) 
0

>  <r_i_glide_esite>  (237) 
0

>  <r_i_glide_emodel>  (237) 
-23.3174

>  <r_i_glide_energy>  (237) 
-20.8104

>  <r_i_glide_einternal>  (237) 
1.0646

>  <r_i_glide_intrahb_reward>  (237) 
-0

>  <i_i_glide_confnum>  (237) 
1

>  <i_i_glide_posenum>  (237) 
38

>  <r_i_glide_eff_state_penalty>  (237) 
0

>  <ligand_id>  (237) 
90

>  <original_smiles>  (237) 
COC1C2OC2C(O)C2C(C)C(O)C3OC4(CC56C(COC35)C(O)CC(O)C46C)C12

>  <smiles>  (237) 
[H]OC1([H])C2([H])OC3(C([H])([H])C45C2([H])OC([H])([H])C4([H])C([H])(O[H])C([H])([H])C([H])(O[H])C35C([H])([H])[H])C2([H])C([H])(OC([H])([H])[H])C3([H])OC3([H])C([H])(O[H])C2([H])C1([H])C([H])([H])[H]

$$$$
91:0:0
     RDKit          3D

 71 77  0  0  1  0  0  0  0  0999 V2000
    3.6274   -1.6613   -4.0803 C   0  0  0  0  0  0  0  0  0  0  0  0
    3.3415   -1.6223   -2.5598 C   0  0  0  0  0  0  0  0  0  0  0  0
    3.1521   -2.9792   -1.9493 N   0  0  2  0  0  0  0  0  0  0  0  0
    1.8710   -3.5613   -2.4413 C   0  0  0  0  0  0  0  0  0  0  0  0
    3.2440   -3.0526   -0.4460 C   0  0  2  0  0  0  0  0  0  0  0  0
    4.3845   -2.1641    0.2250 C   0  0  1  0  0  0  0  0  0  0  0  0
    3.8675   -1.1466    1.3006 C   0  0  1  0  0  0  0  0  0  0  0  0
    2.7834   -0.3821    0.8253 O   0  0  0  0  0  0  0  0  0  0  0  0
    3.6375   -1.5798    2.7806 C   0  0  1  0  0  0  0  0  0  0  0  0
    2.6658   -0.6447    3.5324 C   0  0  0  0  0  0  0  0  0  0  0  0
    2.8063   -0.8556    4.9289 O   0  0  0  0  0  0  0  0  0  0  0  0
    1.9416   -0.0467    5.7072 C   0  0  0  0  0  0  0  0  0  0  0  0
    3.2515   -3.0709    3.0163 C   0  0  0  0  0  0  0  0  0  0  0  0
    4.2746   -4.1773    2.6059 C   0  0  2  0  0  0  0  0  0  0  0  0
    5.6080   -3.6659    2.9897 C   0  0  0  0  0  0  0  0  0  0  0  0
    6.1593   -3.0222    1.9725 C   0  0  0  0  0  0  0  0  0  0  0  0
    5.3911   -3.2074    0.7262 C   0  0  1  0  0  0  0  0  0  0  0  0
    4.5594   -4.3847    1.1069 C   0  0  1  0  0  0  0  0  0  0  0  0
    5.2250   -5.6700    0.6374 C   0  0  0  0  0  0  0  0  0  0  0  0
    4.3779   -5.5196   -0.5952 C   0  0  0  0  0  0  0  0  0  0  0  0
    3.4360   -4.5165    0.1158 C   0  0  2  0  0  0  0  0  0  0  0  0
    2.1222   -5.1321    0.6348 C   0  0  0  0  0  0  0  0  0  0  0  0
    2.1051   -6.2040    1.7690 C   0  0  1  0  0  0  0  0  0  0  0  0
    2.3933   -7.6755    1.4093 C   0  0  0  0  0  0  0  0  0  0  0  0
    2.6609   -8.3042    2.7435 C   0  0  0  0  0  0  0  0  0  0  0  0
    2.7871   -9.6634    3.0182 C   0  0  0  0  0  0  0  0  0  0  0  0
    3.0307  -10.0508    4.3547 C   0  0  0  0  0  0  0  0  0  0  0  0
    3.1357   -9.0705    5.3802 C   0  0  0  0  0  0  0  0  0  0  0  0
    3.3727   -9.4691    6.6560 O   0  0  0  0  0  0  0  0  0  0  0  0
    3.0186   -7.7020    5.0749 C   0  0  0  0  0  0  0  0  0  0  0  0
    2.7861   -7.3370    3.7407 C   0  0  0  0  0  0  0  0  0  0  0  0
    2.7140   -5.9466    3.1869 C   0  0  1  0  0  0  0  0  0  0  0  0
    4.0321   -5.4258    3.2177 O   0  0  0  0  0  0  0  0  0  0  0  0
    3.8820   -0.6585   -4.4183 H   0  0  0  0  0  0  0  0  0  0  0  0
    2.7747   -1.9808   -4.6846 H   0  0  0  0  0  0  0  0  0  0  0  0
    4.4764   -2.3085   -4.3079 H   0  0  0  0  0  0  0  0  0  0  0  0
    4.1884   -1.0659   -2.1637 H   0  0  0  0  0  0  0  0  0  0  0  0
    2.4574   -1.0050   -2.3662 H   0  0  0  0  0  0  0  0  0  0  0  0
    1.0104   -3.0163   -2.0683 H   0  0  0  0  0  0  0  0  0  0  0  0
    1.7155   -4.5842   -2.1228 H   0  0  0  0  0  0  0  0  0  0  0  0
    1.8443   -3.5502   -3.5296 H   0  0  0  0  0  0  0  0  0  0  0  0
    2.2929   -2.6622   -0.0894 H   0  0  0  0  0  0  0  0  0  0  0  0
    4.9779   -1.5841   -0.4682 H   0  0  0  0  0  0  0  0  0  0  0  0
    4.6525   -0.3942    1.3591 H   0  0  0  0  0  0  0  0  0  0  0  0
    2.1224   -0.9180    0.3922 H   0  0  0  0  0  0  0  0  0  0  0  0
    4.5825   -1.3694    3.2856 H   0  0  0  0  0  0  0  0  0  0  0  0
    2.8859    0.4019    3.3119 H   0  0  0  0  0  0  0  0  0  0  0  0
    1.6388   -0.8349    3.2159 H   0  0  0  0  0  0  0  0  0  0  0  0
    2.0894   -0.2806    6.7613 H   0  0  0  0  0  0  0  0  0  0  0  0
    0.8953   -0.2378    5.4655 H   0  0  0  0  0  0  0  0  0  0  0  0
    2.1494    1.0150    5.5658 H   0  0  0  0  0  0  0  0  0  0  0  0
    3.1468   -3.1842    4.0959 H   0  0  0  0  0  0  0  0  0  0  0  0
    2.2651   -3.2527    2.6038 H   0  0  0  0  0  0  0  0  0  0  0  0
    6.0171   -3.8140    3.9717 H   0  0  0  0  0  0  0  0  0  0  0  0
    7.1190   -2.5600    1.9167 H   0  0  0  0  0  0  0  0  0  0  0  0
    6.1119   -3.4447   -0.0530 H   0  0  0  0  0  0  0  0  0  0  0  0
    6.2955   -5.6305    0.4245 H   0  0  0  0  0  0  0  0  0  0  0  0
    4.9804   -6.5554    1.2209 H   0  0  0  0  0  0  0  0  0  0  0  0
    4.9015   -5.1042   -1.4610 H   0  0  0  0  0  0  0  0  0  0  0  0
    3.9621   -6.5128   -0.7057 H   0  0  0  0  0  0  0  0  0  0  0  0
    1.5254   -4.3353    1.0398 H   0  0  0  0  0  0  0  0  0  0  0  0
    1.5507   -5.5327   -0.2033 H   0  0  0  0  0  0  0  0  0  0  0  0
    1.0419   -6.2494    2.0086 H   0  0  0  0  0  0  0  0  0  0  0  0
    1.5555   -8.1521    0.9028 H   0  0  0  0  0  0  0  0  0  0  0  0
    3.2888   -7.7980    0.8161 H   0  0  0  0  0  0  0  0  0  0  0  0
    2.7070  -10.4036    2.2301 H   0  0  0  0  0  0  0  0  0  0  0  0
    3.1339  -11.0921    4.6018 H   0  0  0  0  0  0  0  0  0  0  0  0
    3.2930   -8.7765    7.2987 H   0  0  0  0  0  0  0  0  0  0  0  0
    3.1226   -6.9413    5.8367 H   0  0  0  0  0  0  0  0  0  0  0  0
    2.0581   -5.3372    3.8066 H   0  0  0  0  0  0  0  0  0  0  0  0
    3.8960   -3.5712   -2.3035 H   0  0  0  0  0  0  0  0  0  0  0  0
  1  2  1  0
  1 34  1  0
  1 35  1  0
  1 36  1  0
  2  3  1  0
  2 37  1  0
  2 38  1  0
  3  4  1  0
  3  5  1  0
  3 71  1  6
  4 39  1  0
  4 40  1  0
  4 41  1  0
  5 21  1  0
  5  6  1  0
  5 42  1  1
  6 17  1  0
  6  7  1  0
  6 43  1  6
  7  8  1  0
  7  9  1  0
  7 44  1  1
  8 45  1  0
  9 10  1  0
  9 13  1  0
  9 46  1  1
 10 11  1  0
 10 47  1  0
 10 48  1  0
 11 12  1  0
 12 49  1  0
 12 50  1  0
 12 51  1  0
 13 14  1  0
 13 52  1  0
 13 53  1  0
 14 18  1  0
 14 33  1  1
 14 15  1  0
 15 16  2  0
 15 54  1  0
 16 17  1  0
 16 55  1  0
 17 18  1  0
 17 56  1  6
 18 21  1  0
 18 19  1  1
 19 20  1  0
 19 57  1  0
 19 58  1  0
 21 20  1  6
 20 59  1  0
 20 60  1  0
 21 22  1  0
 22 23  1  0
 22 61  1  0
 22 62  1  0
 23 32  1  0
 23 24  1  0
 23 63  1  1
 24 25  1  0
 24 64  1  0
 24 65  1  0
 25 31  2  0
 25 26  1  0
 26 27  2  0
 26 66  1  0
 27 28  1  0
 27 67  1  0
 28 29  1  0
 28 30  2  0
 29 68  1  0
 30 31  1  0
 30 69  1  0
 31 32  1  0
 32 33  1  0
 32 70  1  1
M  CHG  1   3   1
M  END
>  <i_m_ct_stereo_status>  (238) 
1

>  <s_m_source_file>  (238) 
/var/tmp/pbs.5076255.sched01/tmp6zmtdo5c/111u4f9dq10.sdf

>  <i_m_source_file_index>  (238) 
2

>  <i_lp_mmshare_version>  (238) 
48012

>  <i_f3d_flags>  (238) 
0

>  <s_epik_input>  (238) 
W0NIM11PW0NIMl1bQ0BASF0oW0NIMl0xKVtDQEhdKFtPSF0pW0NAQEhdKFtDQEhdMltDSF09W0NIXTMpW0NAQEhdKE4oW0NIM10pW0NIMl1bQ0gzXSlbQ0BdKFtDQF0yNFtDQF0xMzUpKFtDSDJdW0NIMl00KVtDSDJdW0NAQEhdNltDQEhdKE81KWM3YyhbQ0gyXTYpW2NIXVtjSF1jKFtPSF0pW2NIXTc=

>  <s_epik_cmdline>  (238) 
J2VwaWtfcHl0aG9uJywgJy1waHQnLCAnMi4wJywgJy1waCcsICc3LjAnLCAnLXRuJywgJzgnLCAnLW1hJywgJzIwMCcsICctaW1hZScsICc8aW5maWxlLm1hZT4nLCAnLW9tYWUnLCAnPG91dGZpbGUubWFlPic=

>  <r_lp_tautomer_probability>  (238) 
1

>  <r_epik_Ionization_Penalty>  (238) 
0.00423661

>  <r_epik_Ionization_Penalty_Charging>  (238) 
0.0038253

>  <r_epik_Ionization_Penalty_Neutral>  (238) 
0.00041131

>  <r_epik_State_Penalty>  (238) 
-0

>  <r_epik_Charging_Adjusted_Penalty>  (238) 
0.0038253

>  <i_epik_Tot_Q>  (238) 
1

>  <i_epik_Tot_abs_Q>  (238) 
1

>  <s_lp_Force_Field>  (238) 
OPLS3e

>  <r_lp_Energy>  (238) 
85.0306

>  <b_lp_Chiralities_Consistent>  (238) 
1

>  <s_lp_Variant>  (238) 
91:0-1

>  <s_i_glide_gridfile>  (238) 
pfpi4k_grid

>  <i_i_glide_lignum>  (238) 
2

>  <i_i_glide_rotatable_bonds>  (238) 
6

>  <r_i_docking_score>  (238) 
-2.13789

>  <r_i_glide_ligand_efficiency>  (238) 
-0.0647847

>  <r_i_glide_ligand_efficiency_sa>  (238) 
-0.207799

>  <r_i_glide_ligand_efficiency_ln>  (238) 
-0.475456

>  <r_i_glide_gscore>  (238) 
-2.13789

>  <r_i_glide_lipo>  (238) 
-0.393117

>  <r_i_glide_hbond>  (238) 
-0.150717

>  <r_i_glide_metal>  (238) 
-0

>  <r_i_glide_rewards>  (238) 
-0.323143

>  <r_i_glide_evdw>  (238) 
-9.12222

>  <r_i_glide_ecoul>  (238) 
-6.6414

>  <r_i_glide_erotb>  (238) 
0.195912

>  <r_i_glide_esite>  (238) 
-0.0145068

>  <r_i_glide_emodel>  (238) 
-10.8204

>  <r_i_glide_energy>  (238) 
-15.7636

>  <r_i_glide_einternal>  (238) 
6.20982

>  <r_i_glide_intrahb_reward>  (238) 
-0

>  <i_i_glide_confnum>  (238) 
4

>  <i_i_glide_posenum>  (238) 
18

>  <r_i_glide_eff_state_penalty>  (238) 
0

>  <ligand_id>  (238) 
91

>  <original_smiles>  (238) 
CCN(C)C1C2C(O)C(COC)CC34C=CC2C32CCC12CC1Cc2ccc(O)cc2C1O4

>  <smiles>  (238) 
[H]Oc1c([H])c([H])c2c(c1[H])C1([H])OC34C([H])=C([H])C5([H])C([H])(C([H])(O[H])C([H])(C([H])([H])OC([H])([H])[H])C3([H])[H])C([H])([N+]([H])(C([H])([H])[H])C([H])([H])C([H])([H])[H])C3(C([H])([H])C([H])([H])C543)C([H])([H])C1([H])C2([H])[H]

$$$$
93:0:0
     RDKit          3D

 80 87  0  0  1  0  0  0  0  0999 V2000
   -2.9055    3.3922    5.9524 C   0  0  0  0  0  0  0  0  0  0  0  0
   -1.6697    2.5325    6.1288 C   0  0  0  0  0  0  0  0  0  0  0  0
   -0.5815    3.3439    6.8512 C   0  0  0  0  0  0  0  0  0  0  0  0
   -1.9877    1.3400    6.9610 C   0  0  0  0  0  0  0  0  0  0  0  0
   -1.5061    0.2164    6.4071 C   0  0  0  0  0  0  0  0  0  0  0  0
   -0.8634    0.4190    5.0917 C   0  0  1  0  0  0  0  0  0  0  0  0
   -1.5484   -0.5486    4.1534 C   0  0  0  0  0  0  0  0  0  0  0  0
   -1.2451    1.8861    4.7783 C   0  0  2  0  0  0  0  0  0  0  0  0
   -0.2653    2.6358    3.8583 C   0  0  0  0  0  0  0  0  0  0  0  0
    1.2181    2.3547    4.1629 C   0  0  0  0  0  0  0  0  0  0  0  0
    1.5849    0.8486    4.1767 C   0  0  2  0  0  0  0  0  0  0  0  0
    1.5913    0.2875    2.7068 C   0  0  0  0  0  0  0  0  0  0  0  0
    0.6146   -0.1975    2.1555 O   0  0  0  0  0  0  0  0  0  0  0  0
    2.8519    0.2873    2.1910 O   0  0  0  0  0  0  0  0  0  0  0  0
    3.4477   -0.8226    1.5062 C   0  0  2  0  0  0  0  0  0  0  0  0
    3.0780   -2.2769    1.9868 C   0  0  0  0  0  0  0  0  0  0  0  0
    4.0580   -2.9061    3.0767 C   0  0  1  0  0  0  0  0  0  0  0  0
    3.2199   -3.9809    3.8391 C   0  0  0  0  0  0  0  0  0  0  0  0
    5.2836   -3.6856    2.3497 C   0  0  1  0  0  0  0  0  0  0  0  0
    4.9068   -5.0155    1.7731 C   0  0  0  0  0  0  0  0  0  0  0  0
    4.4193   -5.2801    0.4707 C   0  0  0  0  0  0  0  0  0  0  0  0
    4.2578   -6.6280    0.3887 C   0  0  0  0  0  0  0  0  0  0  0  0
    4.6031   -7.2392    1.5454 O   0  0  0  0  0  0  0  0  0  0  0  0
    5.0057   -6.2553    2.3823 C   0  0  0  0  0  0  0  0  0  0  0  0
    6.1690   -2.9560    1.2600 C   0  0  0  0  0  0  0  0  0  0  0  0
    5.4610   -1.7755    0.6672 C   0  0  2  0  0  0  0  0  0  0  0  0
    5.9591   -0.4386    0.7031 O   0  0  0  0  0  0  0  0  0  0  0  0
    4.9465   -0.7583    1.6969 C   0  0  1  0  0  0  0  0  0  0  0  0
    5.4353   -0.8795    3.1555 C   0  0  1  0  0  0  0  0  0  0  0  0
    6.0294    0.2308    3.7753 O   0  0  0  0  0  0  0  0  0  0  0  0
    4.5285   -1.7367    4.0970 C   0  0  2  0  0  0  0  0  0  0  0  0
    5.3606   -2.2902    5.2905 C   0  0  0  0  0  0  0  0  0  0  0  0
    3.2773   -0.9646    4.7640 C   0  0  1  0  0  0  0  0  0  0  0  0
    2.5548   -1.5089    6.0113 C   0  0  0  0  0  0  0  0  0  0  0  0
    1.0383   -1.2302    5.8292 C   0  0  0  0  0  0  0  0  0  0  0  0
    0.6590    0.1995    5.2773 C   0  0  2  0  0  0  0  0  0  0  0  0
    2.9926    0.5989    4.7916 C   0  0  1  0  0  0  0  0  0  0  0  0
    3.9159    1.5415    4.2829 O   0  0  0  0  0  0  0  0  0  0  0  0
   -2.6397    4.1867    5.2675 H   0  0  0  0  0  0  0  0  0  0  0  0
   -3.2029    3.8120    6.9113 H   0  0  0  0  0  0  0  0  0  0  0  0
   -3.7711    2.8939    5.5287 H   0  0  0  0  0  0  0  0  0  0  0  0
   -0.2502    4.1980    6.2590 H   0  0  0  0  0  0  0  0  0  0  0  0
    0.2790    2.7185    7.0736 H   0  0  0  0  0  0  0  0  0  0  0  0
   -0.9485    3.7175    7.8126 H   0  0  0  0  0  0  0  0  0  0  0  0
   -2.5447    1.4106    7.8642 H   0  0  0  0  0  0  0  0  0  0  0  0
   -1.5683   -0.7801    6.7529 H   0  0  0  0  0  0  0  0  0  0  0  0
   -1.5638   -0.1185    3.1573 H   0  0  0  0  0  0  0  0  0  0  0  0
   -2.5862   -0.7026    4.4380 H   0  0  0  0  0  0  0  0  0  0  0  0
   -1.0871   -1.5281    4.1198 H   0  0  0  0  0  0  0  0  0  0  0  0
   -2.1741    1.8543    4.2003 H   0  0  0  0  0  0  0  0  0  0  0  0
   -0.4669    2.3646    2.8158 H   0  0  0  0  0  0  0  0  0  0  0  0
   -0.4572    3.7085    3.9067 H   0  0  0  0  0  0  0  0  0  0  0  0
    1.7751    2.8640    3.3843 H   0  0  0  0  0  0  0  0  0  0  0  0
    1.5082    2.8354    5.1026 H   0  0  0  0  0  0  0  0  0  0  0  0
    3.1912   -0.7256    0.4581 H   0  0  0  0  0  0  0  0  0  0  0  0
    2.0310   -2.3500    2.2894 H   0  0  0  0  0  0  0  0  0  0  0  0
    3.1181   -2.9350    1.1223 H   0  0  0  0  0  0  0  0  0  0  0  0
    3.8029   -4.4554    4.6302 H   0  0  0  0  0  0  0  0  0  0  0  0
    2.8573   -4.7719    3.1809 H   0  0  0  0  0  0  0  0  0  0  0  0
    2.3124   -3.5684    4.2755 H   0  0  0  0  0  0  0  0  0  0  0  0
    5.9665   -4.0008    3.1329 H   0  0  0  0  0  0  0  0  0  0  0  0
    4.2335   -4.5901   -0.3403 H   0  0  0  0  0  0  0  0  0  0  0  0
    3.9583   -7.2776   -0.4027 H   0  0  0  0  0  0  0  0  0  0  0  0
    5.3306   -6.6105    3.3470 H   0  0  0  0  0  0  0  0  0  0  0  0
    7.1371   -2.6327    1.6413 H   0  0  0  0  0  0  0  0  0  0  0  0
    6.4731   -3.6372    0.4555 H   0  0  0  0  0  0  0  0  0  0  0  0
    4.8996   -1.9718   -0.2360 H   0  0  0  0  0  0  0  0  0  0  0  0
    6.3409   -1.4256    3.0764 H   0  0  0  0  0  0  0  0  0  0  0  0
    5.3435    0.8450    4.0258 H   0  0  0  0  0  0  0  0  0  0  0  0
    5.7143   -1.4607    5.8964 H   0  0  0  0  0  0  0  0  0  0  0  0
    6.1977   -2.8853    4.9526 H   0  0  0  0  0  0  0  0  0  0  0  0
    4.7648   -2.9216    5.9577 H   0  0  0  0  0  0  0  0  0  0  0  0
    2.5444   -1.3882    4.1217 H   0  0  0  0  0  0  0  0  0  0  0  0
    2.7284   -2.5748    6.1697 H   0  0  0  0  0  0  0  0  0  0  0  0
    2.9223   -1.0158    6.9138 H   0  0  0  0  0  0  0  0  0  0  0  0
    0.6117   -2.0152    5.2035 H   0  0  0  0  0  0  0  0  0  0  0  0
    0.5957   -1.3564    6.8146 H   0  0  0  0  0  0  0  0  0  0  0  0
    0.8611    0.8169    6.1614 H   0  0  0  0  0  0  0  0  0  0  0  0
    2.9666    0.9072    5.8394 H   0  0  0  0  0  0  0  0  0  0  0  0
    3.7753    1.6043    3.3453 H   0  0  0  0  0  0  0  0  0  0  0  0
  1  2  1  0
  1 39  1  0
  1 40  1  0
  1 41  1  0
  2  8  1  0
  2  3  1  0
  2  4  1  0
  3 42  1  0
  3 43  1  0
  3 44  1  0
  4  5  2  0
  4 45  1  0
  5  6  1  0
  5 46  1  0
  6 36  1  0
  6  7  1  6
  6  8  1  0
  7 47  1  0
  7 48  1  0
  7 49  1  0
  8  9  1  0
  8 50  1  6
  9 10  1  0
  9 51  1  0
  9 52  1  0
 11 10  1  6
 10 53  1  0
 10 54  1  0
 11 36  1  0
 11 37  1  0
 11 12  1  0
 12 13  2  0
 12 14  1  0
 14 15  1  0
 15 28  1  0
 15 16  1  0
 15 55  1  6
 16 17  1  0
 16 56  1  0
 16 57  1  0
 17 31  1  0
 17 18  1  1
 17 19  1  0
 18 58  1  0
 18 59  1  0
 18 60  1  0
 19 20  1  0
 19 25  1  0
 19 61  1  1
 20 24  2  0
 20 21  1  0
 21 22  2  0
 21 62  1  0
 22 23  1  0
 22 63  1  0
 23 24  1  0
 24 64  1  0
 25 26  1  0
 25 65  1  0
 25 66  1  0
 26 28  1  0
 26 27  1  0
 26 67  1  6
 28 27  1  6
 28 29  1  0
 29 30  1  0
 29 31  1  0
 29 68  1  6
 30 69  1  0
 31 32  1  1
 31 33  1  0
 32 70  1  0
 32 71  1  0
 32 72  1  0
 33 34  1  0
 33 37  1  0
 33 73  1  6
 34 35  1  0
 34 74  1  0
 34 75  1  0
 35 36  1  0
 35 76  1  0
 35 77  1  0
 36 78  1  1
 37 38  1  0
 37 79  1  1
 38 80  1  0
M  END
>  <i_m_ct_stereo_status>  (239) 
1

>  <s_m_source_file>  (239) 
/var/tmp/pbs.5076255.sched01/tmp6zmtdo5c/111u4f9dq10.sdf

>  <i_m_source_file_index>  (239) 
4

>  <i_lp_mmshare_version>  (239) 
48012

>  <i_f3d_flags>  (239) 
0

>  <s_epik_input>  (239) 
W0NIXTE9W0NIXUMoW0NIM10pKFtDSDNdKVtDQEBIXShbQ0gyXVtDSDJdMilbQ0BAXTEoW0NIM10pW0NASF0oW0NAXTIzNClbQ0gyXVtDSDJdW0NIXShbQ0BIXTRbT0hdKVtDQEBdNShbQ0gzXSlbQ0BAXTYoW0NIM10pW0NIMl1bQ0BASF0oT0MzPU8pW0NAQF03KFtDQEhdNVtPSF0pW0NAQEhdKE83KVtDSDJdW0NAQEhdNmM4W2NIXVtjSF1vW2NIXTg=

>  <s_epik_cmdline>  (239) 
J2VwaWtfcHl0aG9uJywgJy1waHQnLCAnMi4wJywgJy1waCcsICc3LjAnLCAnLXRuJywgJzgnLCAnLW1hJywgJzIwMCcsICctaW1hZScsICc8aW5maWxlLm1hZT4nLCAnLW9tYWUnLCAnPG91dGZpbGUubWFlPic=

>  <r_lp_tautomer_probability>  (239) 
1

>  <r_epik_Ionization_Penalty>  (239) 
1.46243e-07

>  <r_epik_Ionization_Penalty_Charging>  (239) 
0

>  <r_epik_Ionization_Penalty_Neutral>  (239) 
1.46243e-07

>  <r_epik_State_Penalty>  (239) 
-0

>  <r_epik_Charging_Adjusted_Penalty>  (239) 
0

>  <i_epik_Tot_Q>  (239) 
0

>  <i_epik_Tot_abs_Q>  (239) 
0

>  <s_epik_Chemistry_Notes>  (239) 
This compound has an ester and may undergo hydrolysis at high or low pH.

>  <s_lp_Force_Field>  (239) 
OPLS3e

>  <r_lp_Energy>  (239) 
158.307

>  <b_lp_Chiralities_Consistent>  (239) 
1

>  <s_lp_Variant>  (239) 
93:0-1

>  <s_i_glide_gridfile>  (239) 
pfpi4k_grid

>  <i_i_glide_lignum>  (239) 
4

>  <i_i_glide_rotatable_bonds>  (239) 
3

>  <r_i_docking_score>  (239) 
-2.90681

>  <r_i_glide_ligand_efficiency>  (239) 
-0.076495

>  <r_i_glide_ligand_efficiency_sa>  (239) 
-0.257174

>  <r_i_glide_ligand_efficiency_ln>  (239) 
-0.626794

>  <r_i_glide_gscore>  (239) 
-2.90681

>  <r_i_glide_lipo>  (239) 
-0.822294

>  <r_i_glide_hbond>  (239) 
0

>  <r_i_glide_metal>  (239) 
-0

>  <r_i_glide_rewards>  (239) 
-1

>  <r_i_glide_evdw>  (239) 
-24.1448

>  <r_i_glide_ecoul>  (239) 
0.467591

>  <r_i_glide_erotb>  (239) 
0.0752796

>  <r_i_glide_esite>  (239) 
-0.0226941

>  <r_i_glide_emodel>  (239) 
-37.3642

>  <r_i_glide_energy>  (239) 
-23.6772

>  <r_i_glide_einternal>  (239) 
0.221995

>  <r_i_glide_intrahb_reward>  (239) 
-1

>  <i_i_glide_confnum>  (239) 
2

>  <i_i_glide_posenum>  (239) 
31

>  <r_i_glide_eff_state_penalty>  (239) 
0

>  <ligand_id>  (239) 
93

>  <original_smiles>  (239) 
CC1(C)C=CC2(C)C1CCC13C(=O)OC4CC5(C)C(c6ccoc6)CC6OC46C(O)C5(C)C(CCC21)C3O

>  <smiles>  (239) 
[H]OC1([H])C2([H])C([H])([H])C([H])([H])C3([H])C1(C(=O)OC1([H])C([H])([H])C4(C([H])([H])[H])C([H])(c5c([H])oc([H])c5[H])C([H])([H])C5([H])OC51C([H])(O[H])C24C([H])([H])[H])C([H])([H])C([H])([H])C1([H])C(C([H])([H])[H])(C([H])([H])[H])C([H])=C([H])C13C([H])([H])[H]

$$$$
93:0:1
     RDKit          3D

 80 87  0  0  1  0  0  0  0  0999 V2000
   -1.2325    5.0241    8.0791 C   0  0  0  0  0  0  0  0  0  0  0  0
   -0.3071    3.8121    7.8811 C   0  0  0  0  0  0  0  0  0  0  0  0
    1.1153    4.1752    8.3523 C   0  0  0  0  0  0  0  0  0  0  0  0
   -0.7916    2.6326    8.6798 C   0  0  0  0  0  0  0  0  0  0  0  0
   -0.8439    1.5096    7.9759 C   0  0  0  0  0  0  0  0  0  0  0  0
   -0.4356    1.6711    6.5274 C   0  0  1  0  0  0  0  0  0  0  0  0
   -1.5504    1.0814    5.6374 C   0  0  0  0  0  0  0  0  0  0  0  0
   -0.3997    3.2313    6.4304 C   0  0  2  0  0  0  0  0  0  0  0  0
    0.5375    3.8139    5.3492 C   0  0  0  0  0  0  0  0  0  0  0  0
    1.9076    3.1203    5.2361 C   0  0  0  0  0  0  0  0  0  0  0  0
    1.8247    1.5774    5.0679 C   0  0  2  0  0  0  0  0  0  0  0  0
    1.3670    1.2346    3.6014 C   0  0  0  0  0  0  0  0  0  0  0  0
    0.1943    1.1095    3.2535 O   0  0  0  0  0  0  0  0  0  0  0  0
    2.4400    0.9580    2.7957 O   0  0  0  0  0  0  0  0  0  0  0  0
    2.5410   -0.1670    1.9093 C   0  0  2  0  0  0  0  0  0  0  0  0
    1.8930   -1.5256    2.3684 C   0  0  0  0  0  0  0  0  0  0  0  0
    2.8706   -2.5197    3.1387 C   0  0  1  0  0  0  0  0  0  0  0  0
    1.9375   -3.3990    4.0291 C   0  0  0  0  0  0  0  0  0  0  0  0
    3.6164   -3.4893    2.0575 C   0  0  1  0  0  0  0  0  0  0  0  0
    2.7597   -4.6224    1.5006 C   0  0  0  0  0  0  0  0  0  0  0  0
    2.3890   -5.8428    2.1438 C   0  0  0  0  0  0  0  0  0  0  0  0
    1.6056   -6.5342    1.2672 C   0  0  0  0  0  0  0  0  0  0  0  0
    1.4787   -5.8563    0.0991 O   0  0  0  0  0  0  0  0  0  0  0  0
    2.2271   -4.7224    0.2468 C   0  0  0  0  0  0  0  0  0  0  0  0
    4.4668   -2.8598    0.8741 C   0  0  0  0  0  0  0  0  0  0  0  0
    4.0200   -1.4572    0.5325 C   0  0  2  0  0  0  0  0  0  0  0  0
    4.8502   -0.2983    0.5517 O   0  0  0  0  0  0  0  0  0  0  0  0
    4.0245   -0.5135    1.7151 C   0  0  1  0  0  0  0  0  0  0  0  0
    4.7848   -0.9416    2.9979 C   0  0  1  0  0  0  0  0  0  0  0  0
    5.7751   -0.0378    3.4195 O   0  0  0  0  0  0  0  0  0  0  0  0
    3.8810   -1.6394    4.0720 C   0  0  2  0  0  0  0  0  0  0  0  0
    4.8088   -2.5277    4.9441 C   0  0  0  0  0  0  0  0  0  0  0  0
    3.0694   -0.6712    5.0884 C   0  0  1  0  0  0  0  0  0  0  0  0
    2.5042   -1.1660    6.4341 C   0  0  0  0  0  0  0  0  0  0  0  0
    1.1125   -0.4851    6.6719 C   0  0  0  0  0  0  0  0  0  0  0  0
    0.9913    1.0477    6.3127 C   0  0  2  0  0  0  0  0  0  0  0  0
    3.2220    0.9018    5.2943 C   0  0  1  0  0  0  0  0  0  0  0  0
    4.2329    1.6717    4.6847 O   0  0  0  0  0  0  0  0  0  0  0  0
   -0.9307    5.8526    7.4421 H   0  0  0  0  0  0  0  0  0  0  0  0
   -1.2052    5.3797    9.1081 H   0  0  0  0  0  0  0  0  0  0  0  0
   -2.2699    4.7835    7.8560 H   0  0  0  0  0  0  0  0  0  0  0  0
    1.5394    4.9821    7.7541 H   0  0  0  0  0  0  0  0  0  0  0  0
    1.7878    3.3205    8.3039 H   0  0  0  0  0  0  0  0  0  0  0  0
    1.1031    4.5039    9.3947 H   0  0  0  0  0  0  0  0  0  0  0  0
   -1.0715    2.7154    9.7190 H   0  0  0  0  0  0  0  0  0  0  0  0
   -1.1660    0.5609    8.3741 H   0  0  0  0  0  0  0  0  0  0  0  0
   -1.6568    1.6134    4.6956 H   0  0  0  0  0  0  0  0  0  0  0  0
   -2.5238    1.1693    6.1177 H   0  0  0  0  0  0  0  0  0  0  0  0
   -1.4083    0.0287    5.4051 H   0  0  0  0  0  0  0  0  0  0  0  0
   -1.3984    3.5276    6.0951 H   0  0  0  0  0  0  0  0  0  0  0  0
    0.0471    3.7558    4.3775 H   0  0  0  0  0  0  0  0  0  0  0  0
    0.6796    4.8810    5.5202 H   0  0  0  0  0  0  0  0  0  0  0  0
    2.4246    3.5650    4.3906 H   0  0  0  0  0  0  0  0  0  0  0  0
    2.5212    3.3760    6.0982 H   0  0  0  0  0  0  0  0  0  0  0  0
    2.0982    0.1341    0.9604 H   0  0  0  0  0  0  0  0  0  0  0  0
    0.9635   -1.3516    2.9157 H   0  0  0  0  0  0  0  0  0  0  0  0
    1.5396   -2.0454    1.4813 H   0  0  0  0  0  0  0  0  0  0  0  0
    2.5073   -4.1142    4.6225 H   0  0  0  0  0  0  0  0  0  0  0  0
    1.2079   -3.9536    3.4400 H   0  0  0  0  0  0  0  0  0  0  0  0
    1.3120   -2.8178    4.7031 H   0  0  0  0  0  0  0  0  0  0  0  0
    4.3401   -4.0535    2.6381 H   0  0  0  0  0  0  0  0  0  0  0  0
    2.6426   -6.1628    3.1457 H   0  0  0  0  0  0  0  0  0  0  0  0
    1.0846   -7.4820    1.3151 H   0  0  0  0  0  0  0  0  0  0  0  0
    2.2245   -4.0882   -0.6278 H   0  0  0  0  0  0  0  0  0  0  0  0
    5.5379   -2.8689    1.0927 H   0  0  0  0  0  0  0  0  0  0  0  0
    4.4380   -3.4652   -0.0346 H   0  0  0  0  0  0  0  0  0  0  0  0
    3.2187   -1.4044   -0.2056 H   0  0  0  0  0  0  0  0  0  0  0  0
    5.4986   -1.6985    2.7209 H   0  0  0  0  0  0  0  0  0  0  0  0
    6.4418   -0.0069    2.7469 H   0  0  0  0  0  0  0  0  0  0  0  0
    5.4679   -1.9022    5.5472 H   0  0  0  0  0  0  0  0  0  0  0  0
    5.4470   -3.1831    4.3494 H   0  0  0  0  0  0  0  0  0  0  0  0
    4.2582   -3.1650    5.6336 H   0  0  0  0  0  0  0  0  0  0  0  0
    2.1277   -0.8036    4.6163 H   0  0  0  0  0  0  0  0  0  0  0  0
    2.3876   -2.2487    6.4671 H   0  0  0  0  0  0  0  0  0  0  0  0
    3.1959   -0.9339    7.2459 H   0  0  0  0  0  0  0  0  0  0  0  0
    0.3491   -1.0430    6.1324 H   0  0  0  0  0  0  0  0  0  0  0  0
    0.8840   -0.6067    7.7305 H   0  0  0  0  0  0  0  0  0  0  0  0
    1.5446    1.4831    7.1485 H   0  0  0  0  0  0  0  0  0  0  0  0
    3.5102    1.0569    6.3329 H   0  0  0  0  0  0  0  0  0  0  0  0
    4.1038    1.6448    3.7427 H   0  0  0  0  0  0  0  0  0  0  0  0
  1  2  1  0
  1 39  1  0
  1 40  1  0
  1 41  1  0
  2  8  1  0
  2  3  1  0
  2  4  1  0
  3 42  1  0
  3 43  1  0
  3 44  1  0
  4  5  2  0
  4 45  1  0
  5  6  1  0
  5 46  1  0
  6 36  1  0
  6  7  1  6
  6  8  1  0
  7 47  1  0
  7 48  1  0
  7 49  1  0
  8  9  1  0
  8 50  1  6
  9 10  1  0
  9 51  1  0
  9 52  1  0
 11 10  1  6
 10 53  1  0
 10 54  1  0
 11 36  1  0
 11 37  1  0
 11 12  1  0
 12 13  2  0
 12 14  1  0
 14 15  1  0
 15 28  1  0
 15 16  1  0
 15 55  1  6
 16 17  1  0
 16 56  1  0
 16 57  1  0
 17 31  1  0
 17 18  1  1
 17 19  1  0
 18 58  1  0
 18 59  1  0
 18 60  1  0
 19 20  1  0
 19 25  1  0
 19 61  1  1
 20 24  2  0
 20 21  1  0
 21 22  2  0
 21 62  1  0
 22 23  1  0
 22 63  1  0
 23 24  1  0
 24 64  1  0
 25 26  1  0
 25 65  1  0
 25 66  1  0
 26 28  1  0
 26 27  1  0
 26 67  1  6
 28 27  1  6
 28 29  1  0
 29 30  1  0
 29 31  1  0
 29 68  1  6
 30 69  1  0
 31 32  1  1
 31 33  1  0
 32 70  1  0
 32 71  1  0
 32 72  1  0
 33 34  1  0
 33 37  1  0
 33 73  1  6
 34 35  1  0
 34 74  1  0
 34 75  1  0
 35 36  1  0
 35 76  1  0
 35 77  1  0
 36 78  1  1
 37 38  1  0
 37 79  1  1
 38 80  1  0
M  END
>  <i_m_ct_stereo_status>  (240) 
1

>  <s_m_source_file>  (240) 
/var/tmp/pbs.5076255.sched01/tmp6zmtdo5c/111u4f9dq10.sdf

>  <i_m_source_file_index>  (240) 
4

>  <i_lp_mmshare_version>  (240) 
48012

>  <i_f3d_flags>  (240) 
0

>  <s_epik_input>  (240) 
W0NIXTE9W0NIXUMoW0NIM10pKFtDSDNdKVtDQEBIXShbQ0gyXVtDSDJdMilbQ0BAXTEoW0NIM10pW0NASF0oW0NAXTIzNClbQ0gyXVtDSDJdW0NIXShbQ0BIXTRbT0hdKVtDQEBdNShbQ0gzXSlbQ0BAXTYoW0NIM10pW0NIMl1bQ0BASF0oT0MzPU8pW0NAQF03KFtDQEhdNVtPSF0pW0NAQEhdKE83KVtDSDJdW0NAQEhdNmM4W2NIXVtjSF1vW2NIXTg=

>  <s_epik_cmdline>  (240) 
J2VwaWtfcHl0aG9uJywgJy1waHQnLCAnMi4wJywgJy1waCcsICc3LjAnLCAnLXRuJywgJzgnLCAnLW1hJywgJzIwMCcsICctaW1hZScsICc8aW5maWxlLm1hZT4nLCAnLW9tYWUnLCAnPG91dGZpbGUubWFlPic=

>  <r_lp_tautomer_probability>  (240) 
1

>  <r_epik_Ionization_Penalty>  (240) 
1.46243e-07

>  <r_epik_Ionization_Penalty_Charging>  (240) 
0

>  <r_epik_Ionization_Penalty_Neutral>  (240) 
1.46243e-07

>  <r_epik_State_Penalty>  (240) 
-0

>  <r_epik_Charging_Adjusted_Penalty>  (240) 
0

>  <i_epik_Tot_Q>  (240) 
0

>  <i_epik_Tot_abs_Q>  (240) 
0

>  <s_epik_Chemistry_Notes>  (240) 
This compound has an ester and may undergo hydrolysis at high or low pH.

>  <s_lp_Force_Field>  (240) 
OPLS3e

>  <r_lp_Energy>  (240) 
158.307

>  <b_lp_Chiralities_Consistent>  (240) 
1

>  <s_lp_Variant>  (240) 
93:0-1

>  <s_i_glide_gridfile>  (240) 
pfpi4k_grid

>  <i_i_glide_lignum>  (240) 
4

>  <i_i_glide_rotatable_bonds>  (240) 
3

>  <r_i_docking_score>  (240) 
-2.8798

>  <r_i_glide_ligand_efficiency>  (240) 
-0.0757841

>  <r_i_glide_ligand_efficiency_sa>  (240) 
-0.254784

>  <r_i_glide_ligand_efficiency_ln>  (240) 
-0.620969

>  <r_i_glide_gscore>  (240) 
-2.8798

>  <r_i_glide_lipo>  (240) 
-0.192038

>  <r_i_glide_hbond>  (240) 
-0.199659

>  <r_i_glide_metal>  (240) 
-0

>  <r_i_glide_rewards>  (240) 
-0.5

>  <r_i_glide_evdw>  (240) 
-29.9157

>  <r_i_glide_ecoul>  (240) 
-3.69273

>  <r_i_glide_erotb>  (240) 
0.0752796

>  <r_i_glide_esite>  (240) 
-0.0136834

>  <r_i_glide_emodel>  (240) 
-43.2237

>  <r_i_glide_energy>  (240) 
-33.6085

>  <r_i_glide_einternal>  (240) 
1.28803

>  <r_i_glide_intrahb_reward>  (240) 
-0.5

>  <i_i_glide_confnum>  (240) 
2

>  <i_i_glide_posenum>  (240) 
4

>  <r_i_glide_eff_state_penalty>  (240) 
0

>  <ligand_id>  (240) 
93

>  <original_smiles>  (240) 
CC1(C)C=CC2(C)C1CCC13C(=O)OC4CC5(C)C(c6ccoc6)CC6OC46C(O)C5(C)C(CCC21)C3O

>  <smiles>  (240) 
[H]OC1([H])C2([H])C([H])([H])C([H])([H])C3([H])C1(C(=O)OC1([H])C([H])([H])C4(C([H])([H])[H])C([H])(c5c([H])oc([H])c5[H])C([H])([H])C5([H])OC51C([H])(O[H])C24C([H])([H])[H])C([H])([H])C([H])([H])C1([H])C(C([H])([H])[H])(C([H])([H])[H])C([H])=C([H])C13C([H])([H])[H]

$$$$
93:0:2
     RDKit          3D

 80 87  0  0  1  0  0  0  0  0999 V2000
   -1.3137    5.0079    8.2237 C   0  0  0  0  0  0  0  0  0  0  0  0
   -0.3608    3.8150    8.0368 C   0  0  0  0  0  0  0  0  0  0  0  0
    1.0222    4.1764    8.6023 C   0  0  0  0  0  0  0  0  0  0  0  0
   -0.8783    2.6064    8.7705 C   0  0  0  0  0  0  0  0  0  0  0  0
   -0.8754    1.5005    8.0271 C   0  0  0  0  0  0  0  0  0  0  0  0
   -0.3877    1.7139    6.6151 C   0  0  1  0  0  0  0  0  0  0  0  0
   -1.4482    1.1455    5.6438 C   0  0  0  0  0  0  0  0  0  0  0  0
   -0.3672    3.2784    6.5671 C   0  0  2  0  0  0  0  0  0  0  0  0
    0.6273    3.8989    5.5594 C   0  0  0  0  0  0  0  0  0  0  0  0
    2.0065    3.2187    5.5088 C   0  0  0  0  0  0  0  0  0  0  0  0
    1.9538    1.6841    5.2912 C   0  0  2  0  0  0  0  0  0  0  0  0
    1.5816    1.3829    3.7860 C   0  0  0  0  0  0  0  0  0  0  0  0
    0.4323    1.2549    3.3771 O   0  0  0  0  0  0  0  0  0  0  0  0
    2.6977    1.1434    3.0375 O   0  0  0  0  0  0  0  0  0  0  0  0
    2.8604    0.0515    2.1181 C   0  0  2  0  0  0  0  0  0  0  0  0
    2.2048   -1.3263    2.4939 C   0  0  0  0  0  0  0  0  0  0  0  0
    3.1438   -2.3326    3.2930 C   0  0  1  0  0  0  0  0  0  0  0  0
    2.1717   -3.2508    4.0940 C   0  0  0  0  0  0  0  0  0  0  0  0
    3.9701   -3.2614    2.2481 C   0  0  1  0  0  0  0  0  0  0  0  0
    3.1534   -4.3556    1.5874 C   0  0  0  0  0  0  0  0  0  0  0  0
    2.6064   -4.3609    0.2698 C   0  0  0  0  0  0  0  0  0  0  0  0
    1.9602   -5.5397    0.1074 C   0  0  0  0  0  0  0  0  0  0  0  0
    2.0582   -6.3030    1.2286 O   0  0  0  0  0  0  0  0  0  0  0  0
    2.8038   -5.5821    2.1064 C   0  0  0  0  0  0  0  0  0  0  0  0
    4.8691   -2.5996    1.1269 C   0  0  0  0  0  0  0  0  0  0  0  0
    4.4168   -1.1940    0.8027 C   0  0  2  0  0  0  0  0  0  0  0  0
    5.2481   -0.0530    0.8899 O   0  0  0  0  0  0  0  0  0  0  0  0
    4.3559   -0.2717    2.0010 C   0  0  1  0  0  0  0  0  0  0  0  0
    5.0349   -0.7324    3.3127 C   0  0  1  0  0  0  0  0  0  0  0  0
    5.9857    0.1443    3.8541 O   0  0  0  0  0  0  0  0  0  0  0  0
    4.0855   -1.4759    4.3103 C   0  0  2  0  0  0  0  0  0  0  0  0
    4.9777   -2.3807    5.2044 C   0  0  0  0  0  0  0  0  0  0  0  0
    3.2146   -0.5520    5.3129 C   0  0  1  0  0  0  0  0  0  0  0  0
    2.5738   -1.0948    6.6008 C   0  0  0  0  0  0  0  0  0  0  0  0
    1.1632   -0.4344    6.7674 C   0  0  0  0  0  0  0  0  0  0  0  0
    1.0517    1.1102    6.4614 C   0  0  2  0  0  0  0  0  0  0  0  0
    3.3381    1.0145    5.5817 C   0  0  1  0  0  0  0  0  0  0  0  0
    4.4063    1.7926    5.1012 O   0  0  0  0  0  0  0  0  0  0  0  0
   -0.9889    5.8639    7.6320 H   0  0  0  0  0  0  0  0  0  0  0  0
   -1.3516    5.3311    9.2657 H   0  0  0  0  0  0  0  0  0  0  0  0
   -2.3340    4.7634    7.9340 H   0  0  0  0  0  0  0  0  0  0  0  0
    1.4762    5.0054    8.0527 H   0  0  0  0  0  0  0  0  0  0  0  0
    1.7052    3.3269    8.5707 H   0  0  0  0  0  0  0  0  0  0  0  0
    0.9438    4.4731    9.6526 H   0  0  0  0  0  0  0  0  0  0  0  0
   -1.2199    2.6532    9.7913 H   0  0  0  0  0  0  0  0  0  0  0  0
   -1.2103    0.5407    8.3808 H   0  0  0  0  0  0  0  0  0  0  0  0
   -1.5088    1.7059    4.7148 H   0  0  0  0  0  0  0  0  0  0  0  0
   -2.4408    1.2144    6.0798 H   0  0  0  0  0  0  0  0  0  0  0  0
   -1.2853    0.1020    5.3878 H   0  0  0  0  0  0  0  0  0  0  0  0
   -1.3455    3.5773    6.1834 H   0  0  0  0  0  0  0  0  0  0  0  0
    0.1989    3.8575    4.5593 H   0  0  0  0  0  0  0  0  0  0  0  0
    0.7472    4.9599    5.7655 H   0  0  0  0  0  0  0  0  0  0  0  0
    2.5636    3.6909    4.7022 H   0  0  0  0  0  0  0  0  0  0  0  0
    2.5695    3.4580    6.4076 H   0  0  0  0  0  0  0  0  0  0  0  0
    2.4701    0.3787    1.1571 H   0  0  0  0  0  0  0  0  0  0  0  0
    1.2417   -1.1781    2.9896 H   0  0  0  0  0  0  0  0  0  0  0  0
    1.9092   -1.8226    1.5714 H   0  0  0  0  0  0  0  0  0  0  0  0
    2.7162   -3.9837    4.6920 H   0  0  0  0  0  0  0  0  0  0  0  0
    1.4854   -3.7920    3.4419 H   0  0  0  0  0  0  0  0  0  0  0  0
    1.5012   -2.6974    4.7512 H   0  0  0  0  0  0  0  0  0  0  0  0
    4.6612   -3.8507    2.8479 H   0  0  0  0  0  0  0  0  0  0  0  0
    2.6757   -3.5874   -0.4826 H   0  0  0  0  0  0  0  0  0  0  0  0
    1.4184   -5.9784   -0.7130 H   0  0  0  0  0  0  0  0  0  0  0  0
    2.9852   -6.0799    3.0499 H   0  0  0  0  0  0  0  0  0  0  0  0
    5.9275   -2.5940    1.3982 H   0  0  0  0  0  0  0  0  0  0  0  0
    4.8948   -3.1806    0.1985 H   0  0  0  0  0  0  0  0  0  0  0  0
    3.6662   -1.1237    0.0181 H   0  0  0  0  0  0  0  0  0  0  0  0
    5.7785   -1.4664    3.0538 H   0  0  0  0  0  0  0  0  0  0  0  0
    6.6655    0.2643    3.1896 H   0  0  0  0  0  0  0  0  0  0  0  0
    5.5923   -1.7650    5.8640 H   0  0  0  0  0  0  0  0  0  0  0  0
    5.6538   -3.0096    4.6229 H   0  0  0  0  0  0  0  0  0  0  0  0
    4.3885   -3.0442    5.8362 H   0  0  0  0  0  0  0  0  0  0  0  0
    2.3056   -0.6743    4.7747 H   0  0  0  0  0  0  0  0  0  0  0  0
    2.4805   -2.1790    6.5936 H   0  0  0  0  0  0  0  0  0  0  0  0
    3.2064   -0.8699    7.4631 H   0  0  0  0  0  0  0  0  0  0  0  0
    0.4363   -0.9746    6.1601 H   0  0  0  0  0  0  0  0  0  0  0  0
    0.8716   -0.5931    7.8069 H   0  0  0  0  0  0  0  0  0  0  0  0
    1.5504    1.5197    7.3423 H   0  0  0  0  0  0  0  0  0  0  0  0
    3.5450    1.1313    6.6445 H   0  0  0  0  0  0  0  0  0  0  0  0
    5.1843    1.2340    5.0544 H   0  0  0  0  0  0  0  0  0  0  0  0
  1  2  1  0
  1 39  1  0
  1 40  1  0
  1 41  1  0
  2  8  1  0
  2  3  1  0
  2  4  1  0
  3 42  1  0
  3 43  1  0
  3 44  1  0
  4  5  2  0
  4 45  1  0
  5  6  1  0
  5 46  1  0
  6 36  1  0
  6  7  1  6
  6  8  1  0
  7 47  1  0
  7 48  1  0
  7 49  1  0
  8  9  1  0
  8 50  1  6
  9 10  1  0
  9 51  1  0
  9 52  1  0
 11 10  1  6
 10 53  1  0
 10 54  1  0
 11 36  1  0
 11 37  1  0
 11 12  1  0
 12 13  2  0
 12 14  1  0
 14 15  1  0
 15 28  1  0
 15 16  1  0
 15 55  1  6
 16 17  1  0
 16 56  1  0
 16 57  1  0
 17 31  1  0
 17 18  1  1
 17 19  1  0
 18 58  1  0
 18 59  1  0
 18 60  1  0
 19 20  1  0
 19 25  1  0
 19 61  1  1
 20 24  2  0
 20 21  1  0
 21 22  2  0
 21 62  1  0
 22 23  1  0
 22 63  1  0
 23 24  1  0
 24 64  1  0
 25 26  1  0
 25 65  1  0
 25 66  1  0
 26 28  1  0
 26 27  1  0
 26 67  1  6
 28 27  1  6
 28 29  1  0
 29 30  1  0
 29 31  1  0
 29 68  1  6
 30 69  1  0
 31 32  1  1
 31 33  1  0
 32 70  1  0
 32 71  1  0
 32 72  1  0
 33 34  1  0
 33 37  1  0
 33 73  1  6
 34 35  1  0
 34 74  1  0
 34 75  1  0
 35 36  1  0
 35 76  1  0
 35 77  1  0
 36 78  1  1
 37 38  1  0
 37 79  1  1
 38 80  1  0
M  END
>  <i_m_ct_stereo_status>  (241) 
1

>  <s_m_source_file>  (241) 
/var/tmp/pbs.5076255.sched01/tmp6zmtdo5c/111u4f9dq10.sdf

>  <i_m_source_file_index>  (241) 
4

>  <i_lp_mmshare_version>  (241) 
48012

>  <i_f3d_flags>  (241) 
0

>  <s_epik_input>  (241) 
W0NIXTE9W0NIXUMoW0NIM10pKFtDSDNdKVtDQEBIXShbQ0gyXVtDSDJdMilbQ0BAXTEoW0NIM10pW0NASF0oW0NAXTIzNClbQ0gyXVtDSDJdW0NIXShbQ0BIXTRbT0hdKVtDQEBdNShbQ0gzXSlbQ0BAXTYoW0NIM10pW0NIMl1bQ0BASF0oT0MzPU8pW0NAQF03KFtDQEhdNVtPSF0pW0NAQEhdKE83KVtDSDJdW0NAQEhdNmM4W2NIXVtjSF1vW2NIXTg=

>  <s_epik_cmdline>  (241) 
J2VwaWtfcHl0aG9uJywgJy1waHQnLCAnMi4wJywgJy1waCcsICc3LjAnLCAnLXRuJywgJzgnLCAnLW1hJywgJzIwMCcsICctaW1hZScsICc8aW5maWxlLm1hZT4nLCAnLW9tYWUnLCAnPG91dGZpbGUubWFlPic=

>  <r_lp_tautomer_probability>  (241) 
1

>  <r_epik_Ionization_Penalty>  (241) 
1.46243e-07

>  <r_epik_Ionization_Penalty_Charging>  (241) 
0

>  <r_epik_Ionization_Penalty_Neutral>  (241) 
1.46243e-07

>  <r_epik_State_Penalty>  (241) 
-0

>  <r_epik_Charging_Adjusted_Penalty>  (241) 
0

>  <i_epik_Tot_Q>  (241) 
0

>  <i_epik_Tot_abs_Q>  (241) 
0

>  <s_epik_Chemistry_Notes>  (241) 
This compound has an ester and may undergo hydrolysis at high or low pH.

>  <s_lp_Force_Field>  (241) 
OPLS3e

>  <r_lp_Energy>  (241) 
158.307

>  <b_lp_Chiralities_Consistent>  (241) 
1

>  <s_lp_Variant>  (241) 
93:0-1

>  <s_i_glide_gridfile>  (241) 
pfpi4k_grid

>  <i_i_glide_lignum>  (241) 
4

>  <i_i_glide_rotatable_bonds>  (241) 
3

>  <r_i_docking_score>  (241) 
-2.25348

>  <r_i_glide_ligand_efficiency>  (241) 
-0.0593021

>  <r_i_glide_ligand_efficiency_sa>  (241) 
-0.199372

>  <r_i_glide_ligand_efficiency_ln>  (241) 
-0.485917

>  <r_i_glide_gscore>  (241) 
-2.25348

>  <r_i_glide_lipo>  (241) 
-0.275903

>  <r_i_glide_hbond>  (241) 
-0.128673

>  <r_i_glide_metal>  (241) 
-0

>  <r_i_glide_rewards>  (241) 
-0.5

>  <r_i_glide_evdw>  (241) 
-28.5172

>  <r_i_glide_ecoul>  (241) 
0.0814408

>  <r_i_glide_erotb>  (241) 
0.0752796

>  <r_i_glide_esite>  (241) 
-0.0105406

>  <r_i_glide_emodel>  (241) 
-36.6148

>  <r_i_glide_energy>  (241) 
-28.4358

>  <r_i_glide_einternal>  (241) 
1.41803

>  <r_i_glide_intrahb_reward>  (241) 
-0.5

>  <i_i_glide_confnum>  (241) 
4

>  <i_i_glide_posenum>  (241) 
8

>  <r_i_glide_eff_state_penalty>  (241) 
0

>  <ligand_id>  (241) 
93

>  <original_smiles>  (241) 
CC1(C)C=CC2(C)C1CCC13C(=O)OC4CC5(C)C(c6ccoc6)CC6OC46C(O)C5(C)C(CCC21)C3O

>  <smiles>  (241) 
[H]OC1([H])C2([H])C([H])([H])C([H])([H])C3([H])C1(C(=O)OC1([H])C([H])([H])C4(C([H])([H])[H])C([H])(c5c([H])oc([H])c5[H])C([H])([H])C5([H])OC51C([H])(O[H])C24C([H])([H])[H])C([H])([H])C([H])([H])C1([H])C(C([H])([H])[H])(C([H])([H])[H])C([H])=C([H])C13C([H])([H])[H]

$$$$
93:1:0
     RDKit          3D

 80 87  0  0  1  0  0  0  0  0999 V2000
    0.6385  -10.0802    5.7990 C   0  0  0  0  0  0  0  0  0  0  0  0
    1.7505   -9.3294    5.0928 C   0  0  0  0  0  0  0  0  0  0  0  0
    2.9260   -9.0736    6.0658 C   0  0  0  0  0  0  0  0  0  0  0  0
    2.2590  -10.1296    3.9303 C   0  0  0  0  0  0  0  0  0  0  0  0
    2.3147   -9.4311    2.8017 C   0  0  0  0  0  0  0  0  0  0  0  0
    1.8345   -8.0095    2.9624 C   0  0  1  0  0  0  0  0  0  0  0  0
    0.7627   -7.7428    1.8842 C   0  0  0  0  0  0  0  0  0  0  0  0
    1.1852   -8.0841    4.3724 C   0  0  2  0  0  0  0  0  0  0  0  0
    1.0934   -6.7662    5.1543 C   0  0  0  0  0  0  0  0  0  0  0  0
    2.3980   -5.9436    5.1356 C   0  0  0  0  0  0  0  0  0  0  0  0
    2.9769   -5.6816    3.7219 C   0  0  2  0  0  0  0  0  0  0  0  0
    2.1287   -4.6465    2.9963 C   0  0  0  0  0  0  0  0  0  0  0  0
    1.0660   -4.9500    2.4903 O   0  0  0  0  0  0  0  0  0  0  0  0
    2.6999   -3.4278    2.9626 O   0  0  0  0  0  0  0  0  0  0  0  0
    2.7138   -2.6158    1.7997 C   0  0  2  0  0  0  0  0  0  0  0  0
    3.0775   -3.3939    0.4923 C   0  0  0  0  0  0  0  0  0  0  0  0
    4.6063   -3.4158    0.1485 C   0  0  1  0  0  0  0  0  0  0  0  0
    4.8441   -4.5986   -0.8115 C   0  0  0  0  0  0  0  0  0  0  0  0
    4.9831   -2.0971   -0.7452 C   0  0  1  0  0  0  0  0  0  0  0  0
    4.3592   -2.0408   -2.1252 C   0  0  0  0  0  0  0  0  0  0  0  0
    3.2330   -1.3020   -2.5432 C   0  0  0  0  0  0  0  0  0  0  0  0
    3.0374   -1.5420   -3.8720 C   0  0  0  0  0  0  0  0  0  0  0  0
    3.9971   -2.3736   -4.3161 O   0  0  0  0  0  0  0  0  0  0  0  0
    4.8000   -2.6573   -3.2722 C   0  0  0  0  0  0  0  0  0  0  0  0
    4.8281   -0.6563   -0.1156 C   0  0  0  0  0  0  0  0  0  0  0  0
    3.6763   -0.6013    0.8584 C   0  0  2  0  0  0  0  0  0  0  0  0
    3.7353   -0.1916    2.2230 O   0  0  0  0  0  0  0  0  0  0  0  0
    3.8233   -1.5865    1.9503 C   0  0  1  0  0  0  0  0  0  0  0  0
    5.1846   -2.2113    2.2664 C   0  0  1  0  0  0  0  0  0  0  0  0
    5.3272   -2.1212    3.6434 O   0  0  0  0  0  0  0  0  0  0  0  0
    5.4405   -3.5757    1.5362 C   0  0  2  0  0  0  0  0  0  0  0  0
    6.9508   -3.6140    1.1320 C   0  0  0  0  0  0  0  0  0  0  0  0
    5.2657   -4.9266    2.4964 C   0  0  2  0  0  0  0  0  0  0  0  0
    5.2508   -6.3219    1.8083 C   0  0  0  0  0  0  0  0  0  0  0  0
    3.8420   -6.9515    1.6349 C   0  0  0  0  0  0  0  0  0  0  0  0
    3.0970   -7.0644    2.9874 C   0  0  2  0  0  0  0  0  0  0  0  0
    4.4407   -5.1601    3.8496 C   0  0  1  0  0  0  0  0  0  0  0  0
    4.5491   -4.2380    4.9118 O   0  0  0  0  0  0  0  0  0  0  0  0
    0.2583   -9.5516    6.6746 H   0  0  0  0  0  0  0  0  0  0  0  0
    1.0812  -11.0330    6.0507 H   0  0  0  0  0  0  0  0  0  0  0  0
   -0.1818  -10.3304    5.1535 H   0  0  0  0  0  0  0  0  0  0  0  0
    2.6274   -8.4565    6.9137 H   0  0  0  0  0  0  0  0  0  0  0  0
    3.7698   -8.5961    5.5675 H   0  0  0  0  0  0  0  0  0  0  0  0
    3.3052  -10.0179    6.4721 H   0  0  0  0  0  0  0  0  0  0  0  0
    2.5212  -11.1716    4.0197 H   0  0  0  0  0  0  0  0  0  0  0  0
    2.6267   -9.8423    1.8521 H   0  0  0  0  0  0  0  0  0  0  0  0
    0.0263   -7.0121    2.1947 H   0  0  0  0  0  0  0  0  0  0  0  0
    0.1784   -8.6444    1.7002 H   0  0  0  0  0  0  0  0  0  0  0  0
    1.1906   -7.4432    0.9311 H   0  0  0  0  0  0  0  0  0  0  0  0
    0.1372   -8.3457    4.1923 H   0  0  0  0  0  0  0  0  0  0  0  0
    0.2781   -6.1678    4.7631 H   0  0  0  0  0  0  0  0  0  0  0  0
    0.8097   -6.9749    6.1906 H   0  0  0  0  0  0  0  0  0  0  0  0
    2.1502   -4.9959    5.6126 H   0  0  0  0  0  0  0  0  0  0  0  0
    3.1343   -6.3974    5.7873 H   0  0  0  0  0  0  0  0  0  0  0  0
    1.7572   -2.1144    1.6873 H   0  0  0  0  0  0  0  0  0  0  0  0
    2.6725   -4.4069    0.4874 H   0  0  0  0  0  0  0  0  0  0  0  0
    2.5589   -2.9241   -0.3454 H   0  0  0  0  0  0  0  0  0  0  0  0
    5.8855   -4.6483   -1.1132 H   0  0  0  0  0  0  0  0  0  0  0  0
    4.2480   -4.5188   -1.7156 H   0  0  0  0  0  0  0  0  0  0  0  0
    4.5143   -5.5597   -0.4563 H   0  0  0  0  0  0  0  0  0  0  0  0
    6.0386   -2.1664   -0.9936 H   0  0  0  0  0  0  0  0  0  0  0  0
    2.6204   -0.6607   -1.9368 H   0  0  0  0  0  0  0  0  0  0  0  0
    2.3147   -1.1968   -4.5871 H   0  0  0  0  0  0  0  0  0  0  0  0
    5.6153   -3.3290   -3.4952 H   0  0  0  0  0  0  0  0  0  0  0  0
    5.7410   -0.2910    0.3663 H   0  0  0  0  0  0  0  0  0  0  0  0
    4.6350    0.0916   -0.8637 H   0  0  0  0  0  0  0  0  0  0  0  0
    2.6838   -0.4588    0.4148 H   0  0  0  0  0  0  0  0  0  0  0  0
    5.9806   -1.5337    1.9775 H   0  0  0  0  0  0  0  0  0  0  0  0
    5.4608   -1.2019    3.8402 H   0  0  0  0  0  0  0  0  0  0  0  0
    7.5752   -3.6470    2.0111 H   0  0  0  0  0  0  0  0  0  0  0  0
    7.2884   -2.7323    0.5860 H   0  0  0  0  0  0  0  0  0  0  0  0
    7.2369   -4.4942    0.5578 H   0  0  0  0  0  0  0  0  0  0  0  0
    6.2496   -4.9301    2.9570 H   0  0  0  0  0  0  0  0  0  0  0  0
    5.8236   -6.3419    0.8837 H   0  0  0  0  0  0  0  0  0  0  0  0
    5.8164   -7.0086    2.4473 H   0  0  0  0  0  0  0  0  0  0  0  0
    3.2297   -6.4020    0.9347 H   0  0  0  0  0  0  0  0  0  0  0  0
    3.9573   -7.9456    1.2028 H   0  0  0  0  0  0  0  0  0  0  0  0
    3.7985   -7.6293    3.6047 H   0  0  0  0  0  0  0  0  0  0  0  0
    4.9917   -5.9727    4.3187 H   0  0  0  0  0  0  0  0  0  0  0  0
    4.3244   -3.3762    4.5606 H   0  0  0  0  0  0  0  0  0  0  0  0
  1  2  1  0
  1 39  1  0
  1 40  1  0
  1 41  1  0
  2  8  1  0
  2  3  1  0
  2  4  1  0
  3 42  1  0
  3 43  1  0
  3 44  1  0
  4  5  2  0
  4 45  1  0
  5  6  1  0
  5 46  1  0
  6 36  1  0
  6  7  1  6
  6  8  1  0
  7 47  1  0
  7 48  1  0
  7 49  1  0
  8  9  1  0
  8 50  1  6
  9 10  1  0
  9 51  1  0
  9 52  1  0
 11 10  1  1
 10 53  1  0
 10 54  1  0
 11 36  1  0
 11 37  1  0
 11 12  1  0
 12 13  2  0
 12 14  1  0
 14 15  1  0
 15 28  1  0
 15 16  1  0
 15 55  1  6
 16 17  1  0
 16 56  1  0
 16 57  1  0
 17 31  1  0
 17 18  1  6
 17 19  1  0
 18 58  1  0
 18 59  1  0
 18 60  1  0
 19 20  1  0
 19 25  1  0
 19 61  1  6
 20 24  2  0
 20 21  1  0
 21 22  2  0
 21 62  1  0
 22 23  1  0
 22 63  1  0
 23 24  1  0
 24 64  1  0
 25 26  1  0
 25 65  1  0
 25 66  1  0
 26 28  1  0
 26 27  1  0
 26 67  1  6
 28 27  1  1
 28 29  1  0
 29 30  1  0
 29 31  1  0
 29 68  1  6
 30 69  1  0
 31 32  1  6
 31 33  1  0
 32 70  1  0
 32 71  1  0
 32 72  1  0
 33 34  1  0
 33 37  1  0
 33 73  1  1
 34 35  1  0
 34 74  1  0
 34 75  1  0
 35 36  1  0
 35 76  1  0
 35 77  1  0
 36 78  1  1
 37 38  1  0
 37 79  1  1
 38 80  1  0
M  END
>  <i_m_ct_stereo_status>  (242) 
1

>  <s_m_source_file>  (242) 
/var/tmp/pbs.5076255.sched01/tmp6zmtdo5c/111u4f9dq10.sdf

>  <i_m_source_file_index>  (242) 
5

>  <i_lp_mmshare_version>  (242) 
48012

>  <i_f3d_flags>  (242) 
0

>  <s_epik_input>  (242) 
W0NIXTE9W0NIXUMoW0NIM10pKFtDSDNdKVtDQEBIXShbQ0gyXVtDSDJdMilbQ0BAXTEoW0NIM10pW0NASF0oW0NAXTIzNClbQ0gyXVtDSDJdW0NIXShbQ0BIXTRbT0hdKVtDQEBdNShbQ0gzXSlbQ0BAXTYoW0NIM10pW0NIMl1bQ0BASF0oT0MzPU8pW0NAQF03KFtDQEhdNVtPSF0pW0NAQEhdKE83KVtDSDJdW0NAQEhdNmM4W2NIXVtjSF1vW2NIXTg=

>  <s_epik_cmdline>  (242) 
J2VwaWtfcHl0aG9uJywgJy1waHQnLCAnMi4wJywgJy1waCcsICc3LjAnLCAnLXRuJywgJzgnLCAnLW1hJywgJzIwMCcsICctaW1hZScsICc8aW5maWxlLm1hZT4nLCAnLW9tYWUnLCAnPG91dGZpbGUubWFlPic=

>  <r_lp_tautomer_probability>  (242) 
1

>  <r_epik_Ionization_Penalty>  (242) 
1.46243e-07

>  <r_epik_Ionization_Penalty_Charging>  (242) 
0

>  <r_epik_Ionization_Penalty_Neutral>  (242) 
1.46243e-07

>  <r_epik_State_Penalty>  (242) 
-0

>  <r_epik_Charging_Adjusted_Penalty>  (242) 
0

>  <i_epik_Tot_Q>  (242) 
0

>  <i_epik_Tot_abs_Q>  (242) 
0

>  <s_epik_Chemistry_Notes>  (242) 
This compound has an ester and may undergo hydrolysis at high or low pH.

>  <s_lp_Force_Field>  (242) 
OPLS3e

>  <r_lp_Energy>  (242) 
145.468

>  <b_lp_Chiralities_Consistent>  (242) 
1

>  <s_lp_Variant>  (242) 
93:0-2

>  <s_i_glide_gridfile>  (242) 
pfpi4k_grid

>  <i_i_glide_lignum>  (242) 
5

>  <i_i_glide_rotatable_bonds>  (242) 
3

>  <r_i_docking_score>  (242) 
-3.4531

>  <r_i_glide_ligand_efficiency>  (242) 
-0.090871

>  <r_i_glide_ligand_efficiency_sa>  (242) 
-0.305506

>  <r_i_glide_ligand_efficiency_ln>  (242) 
-0.744589

>  <r_i_glide_gscore>  (242) 
-3.4531

>  <r_i_glide_lipo>  (242) 
-0.579103

>  <r_i_glide_hbond>  (242) 
-0.341723

>  <r_i_glide_metal>  (242) 
-0

>  <r_i_glide_rewards>  (242) 
-0.5

>  <r_i_glide_evdw>  (242) 
-30.0861

>  <r_i_glide_ecoul>  (242) 
-3.98925

>  <r_i_glide_erotb>  (242) 
0.0752796

>  <r_i_glide_esite>  (242) 
-0.00485829

>  <r_i_glide_emodel>  (242) 
-44.9147

>  <r_i_glide_energy>  (242) 
-34.0754

>  <r_i_glide_einternal>  (242) 
0.870039

>  <r_i_glide_intrahb_reward>  (242) 
-0.5

>  <i_i_glide_confnum>  (242) 
3

>  <i_i_glide_posenum>  (242) 
20

>  <r_i_glide_eff_state_penalty>  (242) 
0

>  <ligand_id>  (242) 
93

>  <original_smiles>  (242) 
CC1(C)C=CC2(C)C1CCC13C(=O)OC4CC5(C)C(c6ccoc6)CC6OC46C(O)C5(C)C(CCC21)C3O

>  <smiles>  (242) 
[H]OC1([H])C2([H])C([H])([H])C([H])([H])C3([H])C1(C(=O)OC1([H])C([H])([H])C4(C([H])([H])[H])C([H])(c5c([H])oc([H])c5[H])C([H])([H])C5([H])OC51C([H])(O[H])C24C([H])([H])[H])C([H])([H])C([H])([H])C1([H])C(C([H])([H])[H])(C([H])([H])[H])C([H])=C([H])C13C([H])([H])[H]

$$$$
93:1:1
     RDKit          3D

 80 87  0  0  1  0  0  0  0  0999 V2000
   -0.0974   -9.4888    7.0480 C   0  0  0  0  0  0  0  0  0  0  0  0
    1.0742   -8.9718    6.2010 C   0  0  0  0  0  0  0  0  0  0  0  0
    2.2618   -8.6559    7.1373 C   0  0  0  0  0  0  0  0  0  0  0  0
    1.5217   -9.9798    5.1781 C   0  0  0  0  0  0  0  0  0  0  0  0
    1.6658   -9.4637    3.9572 C   0  0  0  0  0  0  0  0  0  0  0  0
    1.3190   -7.9960    3.8795 C   0  0  1  0  0  0  0  0  0  0  0  0
    0.3082   -7.8029    2.7243 C   0  0  0  0  0  0  0  0  0  0  0  0
    0.6308   -7.8059    5.2646 C   0  0  2  0  0  0  0  0  0  0  0  0
    0.6547   -6.3728    5.8237 C   0  0  0  0  0  0  0  0  0  0  0  0
    2.0207   -5.6630    5.7152 C   0  0  0  0  0  0  0  0  0  0  0  0
    2.6607   -5.6783    4.3072 C   0  0  2  0  0  0  0  0  0  0  0  0
    1.9313   -4.6759    3.4091 C   0  0  0  0  0  0  0  0  0  0  0  0
    0.8774   -4.9510    2.8642 O   0  0  0  0  0  0  0  0  0  0  0  0
    2.6131   -3.5284    3.2194 O   0  0  0  0  0  0  0  0  0  0  0  0
    2.7245   -2.9274    1.9362 C   0  0  2  0  0  0  0  0  0  0  0  0
    3.0469   -3.9479    0.7940 C   0  0  0  0  0  0  0  0  0  0  0  0
    4.5775   -4.1264    0.4903 C   0  0  1  0  0  0  0  0  0  0  0  0
    4.7501   -5.4598   -0.2700 C   0  0  0  0  0  0  0  0  0  0  0  0
    5.0775   -2.9861   -0.5766 C   0  0  1  0  0  0  0  0  0  0  0  0
    4.4816   -3.0814   -1.9760 C   0  0  0  0  0  0  0  0  0  0  0  0
    3.1749   -2.7390   -2.4129 C   0  0  0  0  0  0  0  0  0  0  0  0
    3.1016   -3.0430   -3.7455 C   0  0  0  0  0  0  0  0  0  0  0  0
    4.3038   -3.4893   -4.1943 O   0  0  0  0  0  0  0  0  0  0  0  0
    5.1356   -3.4861   -3.1199 C   0  0  0  0  0  0  0  0  0  0  0  0
    5.0431   -1.4592   -0.1983 C   0  0  0  0  0  0  0  0  0  0  0  0
    3.8754   -1.1639    0.7019 C   0  0  2  0  0  0  0  0  0  0  0  0
    3.9449   -0.5587    1.9912 O   0  0  0  0  0  0  0  0  0  0  0  0
    3.9200   -1.9920    1.9480 C   0  0  1  0  0  0  0  0  0  0  0  0
    5.2146   -2.6727    2.4160 C   0  0  1  0  0  0  0  0  0  0  0  0
    5.3487   -2.3942    3.7740 O   0  0  0  0  0  0  0  0  0  0  0  0
    5.3586   -4.1561    1.9094 C   0  0  2  0  0  0  0  0  0  0  0  0
    6.8631   -4.4059    1.5553 C   0  0  0  0  0  0  0  0  0  0  0  0
    5.0354   -5.3223    3.0576 C   0  0  2  0  0  0  0  0  0  0  0  0
    4.9033   -6.8000    2.5835 C   0  0  0  0  0  0  0  0  0  0  0  0
    3.4457   -7.3251    2.4630 C   0  0  0  0  0  0  0  0  0  0  0  0
    2.6628   -7.1652    3.7928 C   0  0  2  0  0  0  0  0  0  0  0  0
    4.1694   -5.2765    4.4075 C   0  0  1  0  0  0  0  0  0  0  0  0
    4.3329   -4.2145    5.3197 O   0  0  0  0  0  0  0  0  0  0  0  0
   -0.4578   -8.7378    7.7452 H   0  0  0  0  0  0  0  0  0  0  0  0
    0.2131  -10.3479    7.6364 H   0  0  0  0  0  0  0  0  0  0  0  0
   -0.9350   -9.8147    6.4432 H   0  0  0  0  0  0  0  0  0  0  0  0
    2.0027   -7.8880    7.8684 H   0  0  0  0  0  0  0  0  0  0  0  0
    3.1462   -8.3316    6.5885 H   0  0  0  0  0  0  0  0  0  0  0  0
    2.5520   -9.5535    7.6948 H   0  0  0  0  0  0  0  0  0  0  0  0
    1.7018  -11.0130    5.4329 H   0  0  0  0  0  0  0  0  0  0  0  0
    1.9699  -10.0274    3.0853 H   0  0  0  0  0  0  0  0  0  0  0  0
   -0.3591   -6.9657    2.8897 H   0  0  0  0  0  0  0  0  0  0  0  0
   -0.3520   -8.6656    2.6433 H   0  0  0  0  0  0  0  0  0  0  0  0
    0.7863   -7.6822    1.7541 H   0  0  0  0  0  0  0  0  0  0  0  0
   -0.4326   -8.0021    5.0880 H   0  0  0  0  0  0  0  0  0  0  0  0
   -0.0864   -5.7757    5.3126 H   0  0  0  0  0  0  0  0  0  0  0  0
    0.3282   -6.3799    6.8687 H   0  0  0  0  0  0  0  0  0  0  0  0
    1.8636   -4.6332    6.0438 H   0  0  0  0  0  0  0  0  0  0  0  0
    2.6950   -6.0727    6.4433 H   0  0  0  0  0  0  0  0  0  0  0  0
    1.8152   -2.3775    1.7112 H   0  0  0  0  0  0  0  0  0  0  0  0
    2.5813   -4.9201    0.9527 H   0  0  0  0  0  0  0  0  0  0  0  0
    2.5460   -3.6003   -0.1053 H   0  0  0  0  0  0  0  0  0  0  0  0
    5.7900   -5.6973   -0.5008 H   0  0  0  0  0  0  0  0  0  0  0  0
    4.2132   -5.4055   -1.1945 H   0  0  0  0  0  0  0  0  0  0  0  0
    4.2752   -6.3197    0.1834 H   0  0  0  0  0  0  0  0  0  0  0  0
    6.1257   -3.1899   -0.7798 H   0  0  0  0  0  0  0  0  0  0  0  0
    2.3509   -2.3533   -1.8387 H   0  0  0  0  0  0  0  0  0  0  0  0
    2.3156   -2.9904   -4.4743 H   0  0  0  0  0  0  0  0  0  0  0  0
    6.1364   -3.8197   -3.3271 H   0  0  0  0  0  0  0  0  0  0  0  0
    5.9826   -1.1147    0.2542 H   0  0  0  0  0  0  0  0  0  0  0  0
    4.9579   -0.8336   -1.0872 H   0  0  0  0  0  0  0  0  0  0  0  0
    2.9182   -1.0175    0.2013 H   0  0  0  0  0  0  0  0  0  0  0  0
    6.0767   -2.1164    2.0605 H   0  0  0  0  0  0  0  0  0  0  0  0
    5.5418   -1.4610    3.8425 H   0  0  0  0  0  0  0  0  0  0  0  0
    7.4769   -4.4217    2.4455 H   0  0  0  0  0  0  0  0  0  0  0  0
    7.2939   -3.6395    0.9056 H   0  0  0  0  0  0  0  0  0  0  0  0
    7.0557   -5.3774    1.0982 H   0  0  0  0  0  0  0  0  0  0  0  0
    6.0021   -5.3475    3.5560 H   0  0  0  0  0  0  0  0  0  0  0  0
    5.4950   -7.0162    1.6945 H   0  0  0  0  0  0  0  0  0  0  0  0
    5.3885   -7.4268    3.3372 H   0  0  0  0  0  0  0  0  0  0  0  0
    2.9022   -6.8477    1.6597 H   0  0  0  0  0  0  0  0  0  0  0  0
    3.4840   -8.3803    2.1931 H   0  0  0  0  0  0  0  0  0  0  0  0
    3.2988   -7.6826    4.5082 H   0  0  0  0  0  0  0  0  0  0  0  0
    4.6268   -6.0571    5.0127 H   0  0  0  0  0  0  0  0  0  0  0  0
    4.2524   -3.4022    4.8210 H   0  0  0  0  0  0  0  0  0  0  0  0
  1  2  1  0
  1 39  1  0
  1 40  1  0
  1 41  1  0
  2  8  1  0
  2  3  1  0
  2  4  1  0
  3 42  1  0
  3 43  1  0
  3 44  1  0
  4  5  2  0
  4 45  1  0
  5  6  1  0
  5 46  1  0
  6 36  1  0
  6  7  1  6
  6  8  1  0
  7 47  1  0
  7 48  1  0
  7 49  1  0
  8  9  1  0
  8 50  1  6
  9 10  1  0
  9 51  1  0
  9 52  1  0
 11 10  1  1
 10 53  1  0
 10 54  1  0
 11 36  1  0
 11 37  1  0
 11 12  1  0
 12 13  2  0
 12 14  1  0
 14 15  1  0
 15 28  1  0
 15 16  1  0
 15 55  1  6
 16 17  1  0
 16 56  1  0
 16 57  1  0
 17 31  1  0
 17 18  1  6
 17 19  1  0
 18 58  1  0
 18 59  1  0
 18 60  1  0
 19 20  1  0
 19 25  1  0
 19 61  1  6
 20 24  2  0
 20 21  1  0
 21 22  2  0
 21 62  1  0
 22 23  1  0
 22 63  1  0
 23 24  1  0
 24 64  1  0
 25 26  1  0
 25 65  1  0
 25 66  1  0
 26 28  1  0
 26 27  1  0
 26 67  1  6
 28 27  1  1
 28 29  1  0
 29 30  1  0
 29 31  1  0
 29 68  1  6
 30 69  1  0
 31 32  1  6
 31 33  1  0
 32 70  1  0
 32 71  1  0
 32 72  1  0
 33 34  1  0
 33 37  1  0
 33 73  1  1
 34 35  1  0
 34 74  1  0
 34 75  1  0
 35 36  1  0
 35 76  1  0
 35 77  1  0
 36 78  1  1
 37 38  1  0
 37 79  1  1
 38 80  1  0
M  END
>  <i_m_ct_stereo_status>  (243) 
1

>  <s_m_source_file>  (243) 
/var/tmp/pbs.5076255.sched01/tmp6zmtdo5c/111u4f9dq10.sdf

>  <i_m_source_file_index>  (243) 
5

>  <i_lp_mmshare_version>  (243) 
48012

>  <i_f3d_flags>  (243) 
0

>  <s_epik_input>  (243) 
W0NIXTE9W0NIXUMoW0NIM10pKFtDSDNdKVtDQEBIXShbQ0gyXVtDSDJdMilbQ0BAXTEoW0NIM10pW0NASF0oW0NAXTIzNClbQ0gyXVtDSDJdW0NIXShbQ0BIXTRbT0hdKVtDQEBdNShbQ0gzXSlbQ0BAXTYoW0NIM10pW0NIMl1bQ0BASF0oT0MzPU8pW0NAQF03KFtDQEhdNVtPSF0pW0NAQEhdKE83KVtDSDJdW0NAQEhdNmM4W2NIXVtjSF1vW2NIXTg=

>  <s_epik_cmdline>  (243) 
J2VwaWtfcHl0aG9uJywgJy1waHQnLCAnMi4wJywgJy1waCcsICc3LjAnLCAnLXRuJywgJzgnLCAnLW1hJywgJzIwMCcsICctaW1hZScsICc8aW5maWxlLm1hZT4nLCAnLW9tYWUnLCAnPG91dGZpbGUubWFlPic=

>  <r_lp_tautomer_probability>  (243) 
1

>  <r_epik_Ionization_Penalty>  (243) 
1.46243e-07

>  <r_epik_Ionization_Penalty_Charging>  (243) 
0

>  <r_epik_Ionization_Penalty_Neutral>  (243) 
1.46243e-07

>  <r_epik_State_Penalty>  (243) 
-0

>  <r_epik_Charging_Adjusted_Penalty>  (243) 
0

>  <i_epik_Tot_Q>  (243) 
0

>  <i_epik_Tot_abs_Q>  (243) 
0

>  <s_epik_Chemistry_Notes>  (243) 
This compound has an ester and may undergo hydrolysis at high or low pH.

>  <s_lp_Force_Field>  (243) 
OPLS3e

>  <r_lp_Energy>  (243) 
145.468

>  <b_lp_Chiralities_Consistent>  (243) 
1

>  <s_lp_Variant>  (243) 
93:0-2

>  <s_i_glide_gridfile>  (243) 
pfpi4k_grid

>  <i_i_glide_lignum>  (243) 
5

>  <i_i_glide_rotatable_bonds>  (243) 
3

>  <r_i_docking_score>  (243) 
-3.08723

>  <r_i_glide_ligand_efficiency>  (243) 
-0.0812428

>  <r_i_glide_ligand_efficiency_sa>  (243) 
-0.273136

>  <r_i_glide_ligand_efficiency_ln>  (243) 
-0.665697

>  <r_i_glide_gscore>  (243) 
-3.08723

>  <r_i_glide_lipo>  (243) 
-0.619529

>  <r_i_glide_hbond>  (243) 
-0.100191

>  <r_i_glide_metal>  (243) 
-0

>  <r_i_glide_rewards>  (243) 
-0.5

>  <r_i_glide_evdw>  (243) 
-30.1604

>  <r_i_glide_ecoul>  (243) 
-2.87723

>  <r_i_glide_erotb>  (243) 
0.0752796

>  <r_i_glide_esite>  (243) 
-0.00318091

>  <r_i_glide_emodel>  (243) 
-43.4146

>  <r_i_glide_energy>  (243) 
-33.0376

>  <r_i_glide_einternal>  (243) 
0.685173

>  <r_i_glide_intrahb_reward>  (243) 
-0.5

>  <i_i_glide_confnum>  (243) 
3

>  <i_i_glide_posenum>  (243) 
15

>  <r_i_glide_eff_state_penalty>  (243) 
0

>  <ligand_id>  (243) 
93

>  <original_smiles>  (243) 
CC1(C)C=CC2(C)C1CCC13C(=O)OC4CC5(C)C(c6ccoc6)CC6OC46C(O)C5(C)C(CCC21)C3O

>  <smiles>  (243) 
[H]OC1([H])C2([H])C([H])([H])C([H])([H])C3([H])C1(C(=O)OC1([H])C([H])([H])C4(C([H])([H])[H])C([H])(c5c([H])oc([H])c5[H])C([H])([H])C5([H])OC51C([H])(O[H])C24C([H])([H])[H])C([H])([H])C([H])([H])C1([H])C(C([H])([H])[H])(C([H])([H])[H])C([H])=C([H])C13C([H])([H])[H]

$$$$
93:1:2
     RDKit          3D

 80 87  0  0  1  0  0  0  0  0999 V2000
    0.2194    5.8093    4.3791 C   0  0  0  0  0  0  0  0  0  0  0  0
    0.4693    4.3899    4.9311 C   0  0  0  0  0  0  0  0  0  0  0  0
    1.5076    4.4684    6.0605 C   0  0  0  0  0  0  0  0  0  0  0  0
   -0.7971    3.7940    5.4877 C   0  0  0  0  0  0  0  0  0  0  0  0
   -1.0332    2.5528    5.0478 C   0  0  0  0  0  0  0  0  0  0  0  0
    0.0185    2.0418    4.0886 C   0  0  1  0  0  0  0  0  0  0  0  0
   -0.7069    1.5180    2.8206 C   0  0  0  0  0  0  0  0  0  0  0  0
    0.7745    3.3701    3.7877 C   0  0  2  0  0  0  0  0  0  0  0  0
    2.2391    3.1918    3.3395 C   0  0  0  0  0  0  0  0  0  0  0  0
    3.0369    2.1947    4.1839 C   0  0  0  0  0  0  0  0  0  0  0  0
    2.3960    0.7906    4.3311 C   0  0  2  0  0  0  0  0  0  0  0  0
    2.5382   -0.0049    3.0022 C   0  0  0  0  0  0  0  0  0  0  0  0
    1.8171    0.1526    2.0254 O   0  0  0  0  0  0  0  0  0  0  0  0
    3.4918   -0.9280    3.0904 O   0  0  0  0  0  0  0  0  0  0  0  0
    3.2962   -2.2367    2.6007 C   0  0  2  0  0  0  0  0  0  0  0  0
    1.9262   -2.8784    3.0058 C   0  0  0  0  0  0  0  0  0  0  0  0
    1.9487   -3.7244    4.3237 C   0  0  1  0  0  0  0  0  0  0  0  0
    0.4848   -3.8307    4.8263 C   0  0  0  0  0  0  0  0  0  0  0  0
    2.3874   -5.2590    3.9638 C   0  0  1  0  0  0  0  0  0  0  0  0
    1.3767   -6.0364    3.1161 C   0  0  0  0  0  0  0  0  0  0  0  0
    1.4089   -6.2689    1.7058 C   0  0  0  0  0  0  0  0  0  0  0  0
    0.3177   -7.0399    1.4099 C   0  0  0  0  0  0  0  0  0  0  0  0
   -0.4008   -7.3003    2.5266 O   0  0  0  0  0  0  0  0  0  0  0  0
    0.2763   -6.7245    3.5478 C   0  0  0  0  0  0  0  0  0  0  0  0
    3.8072   -5.5665    3.3795 C   0  0  0  0  0  0  0  0  0  0  0  0
    4.2702   -4.4165    2.4974 C   0  0  2  0  0  0  0  0  0  0  0  0
    5.5025   -3.7396    2.6261 O   0  0  0  0  0  0  0  0  0  0  0  0
    4.3727   -3.1223    3.2415 C   0  0  1  0  0  0  0  0  0  0  0  0
    4.3485   -3.1048    4.7865 C   0  0  1  0  0  0  0  0  0  0  0  0
    5.4065   -2.3915    5.3875 O   0  0  0  0  0  0  0  0  0  0  0  0
    2.9057   -2.9456    5.3904 C   0  0  2  0  0  0  0  0  0  0  0  0
    2.9296   -3.7875    6.7029 C   0  0  0  0  0  0  0  0  0  0  0  0
    2.5262   -1.4214    5.9014 C   0  0  2  0  0  0  0  0  0  0  0  0
    1.0629   -1.0906    6.3137 C   0  0  0  0  0  0  0  0  0  0  0  0
    0.2492   -0.3087    5.2510 C   0  0  0  0  0  0  0  0  0  0  0  0
    0.9295    1.0123    4.8397 C   0  0  2  0  0  0  0  0  0  0  0  0
    3.1311   -0.0149    5.4645 C   0  0  1  0  0  0  0  0  0  0  0  0
    4.5363    0.0702    5.3615 O   0  0  0  0  0  0  0  0  0  0  0  0
    1.1181    6.2123    3.9140 H   0  0  0  0  0  0  0  0  0  0  0  0
   -0.0640    6.4968    5.1725 H   0  0  0  0  0  0  0  0  0  0  0  0
   -0.5649    5.8260    3.6264 H   0  0  0  0  0  0  0  0  0  0  0  0
    2.4670    4.8355    5.6872 H   0  0  0  0  0  0  0  0  0  0  0  0
    1.6624    3.4944    6.5251 H   0  0  0  0  0  0  0  0  0  0  0  0
    1.1755    5.1445    6.8515 H   0  0  0  0  0  0  0  0  0  0  0  0
   -1.4449    4.3246    6.1524 H   0  0  0  0  0  0  0  0  0  0  0  0
   -1.8967    1.9760    5.3158 H   0  0  0  0  0  0  0  0  0  0  0  0
   -0.0886    1.5948    1.9313 H   0  0  0  0  0  0  0  0  0  0  0  0
   -1.5864    2.1189    2.6042 H   0  0  0  0  0  0  0  0  0  0  0  0
   -1.0434    0.4905    2.9214 H   0  0  0  0  0  0  0  0  0  0  0  0
    0.2878    3.8009    2.9193 H   0  0  0  0  0  0  0  0  0  0  0  0
    2.2541    2.8798    2.2850 H   0  0  0  0  0  0  0  0  0  0  0  0
    2.7321    4.1595    3.3322 H   0  0  0  0  0  0  0  0  0  0  0  0
    3.9830    2.0884    3.6849 H   0  0  0  0  0  0  0  0  0  0  0  0
    3.2754    2.6319    5.1720 H   0  0  0  0  0  0  0  0  0  0  0  0
    3.4111   -2.2208    1.5244 H   0  0  0  0  0  0  0  0  0  0  0  0
    1.1148   -2.1518    3.0085 H   0  0  0  0  0  0  0  0  0  0  0  0
    1.6365   -3.5425    2.1983 H   0  0  0  0  0  0  0  0  0  0  0  0
    0.4090   -4.3998    5.7561 H   0  0  0  0  0  0  0  0  0  0  0  0
   -0.1716   -4.3028    4.0954 H   0  0  0  0  0  0  0  0  0  0  0  0
   -0.0231   -2.8897    4.9401 H   0  0  0  0  0  0  0  0  0  0  0  0
    2.3322   -5.8237    4.8958 H   0  0  0  0  0  0  0  0  0  0  0  0
    2.1448   -5.9474    0.9854 H   0  0  0  0  0  0  0  0  0  0  0  0
   -0.0550   -7.4852    0.5012 H   0  0  0  0  0  0  0  0  0  0  0  0
   -0.1655   -6.9000    4.5260 H   0  0  0  0  0  0  0  0  0  0  0  0
    4.5492   -5.7737    4.1438 H   0  0  0  0  0  0  0  0  0  0  0  0
    3.8252   -6.4990    2.8081 H   0  0  0  0  0  0  0  0  0  0  0  0
    3.8983   -4.4545    1.4740 H   0  0  0  0  0  0  0  0  0  0  0  0
    4.7137   -4.0663    5.1051 H   0  0  0  0  0  0  0  0  0  0  0  0
    5.1679   -1.4506    5.4092 H   0  0  0  0  0  0  0  0  0  0  0  0
    3.6618   -3.3984    7.4152 H   0  0  0  0  0  0  0  0  0  0  0  0
    3.2219   -4.8189    6.5394 H   0  0  0  0  0  0  0  0  0  0  0  0
    1.9641   -3.7922    7.2082 H   0  0  0  0  0  0  0  0  0  0  0  0
    3.0160   -1.4549    6.8726 H   0  0  0  0  0  0  0  0  0  0  0  0
    0.5426   -1.9728    6.6545 H   0  0  0  0  0  0  0  0  0  0  0  0
    1.1071   -0.4601    7.2089 H   0  0  0  0  0  0  0  0  0  0  0  0
    0.0790   -0.8997    4.3616 H   0  0  0  0  0  0  0  0  0  0  0  0
   -0.7426   -0.0947    5.6573 H   0  0  0  0  0  0  0  0  0  0  0  0
    1.0770    1.5097    5.8042 H   0  0  0  0  0  0  0  0  0  0  0  0
    2.9761    0.6028    6.3535 H   0  0  0  0  0  0  0  0  0  0  0  0
    4.7562    0.0076    4.4222 H   0  0  0  0  0  0  0  0  0  0  0  0
  1  2  1  0
  1 39  1  0
  1 40  1  0
  1 41  1  0
  2  8  1  0
  2  3  1  0
  2  4  1  0
  3 42  1  0
  3 43  1  0
  3 44  1  0
  4  5  2  0
  4 45  1  0
  5  6  1  0
  5 46  1  0
  6 36  1  0
  6  7  1  6
  6  8  1  0
  7 47  1  0
  7 48  1  0
  7 49  1  0
  8  9  1  0
  8 50  1  6
  9 10  1  0
  9 51  1  0
  9 52  1  0
 11 10  1  6
 10 53  1  0
 10 54  1  0
 11 36  1  0
 11 37  1  0
 11 12  1  0
 12 13  2  0
 12 14  1  0
 14 15  1  0
 15 28  1  0
 15 16  1  0
 15 55  1  6
 16 17  1  0
 16 56  1  0
 16 57  1  0
 17 31  1  0
 17 18  1  1
 17 19  1  0
 18 58  1  0
 18 59  1  0
 18 60  1  0
 19 20  1  0
 19 25  1  0
 19 61  1  1
 20 24  2  0
 20 21  1  0
 21 22  2  0
 21 62  1  0
 22 23  1  0
 22 63  1  0
 23 24  1  0
 24 64  1  0
 25 26  1  0
 25 65  1  0
 25 66  1  0
 26 28  1  0
 26 27  1  0
 26 67  1  6
 28 27  1  1
 28 29  1  0
 29 30  1  0
 29 31  1  0
 29 68  1  1
 30 69  1  0
 31 32  1  1
 31 33  1  0
 32 70  1  0
 32 71  1  0
 32 72  1  0
 33 34  1  0
 33 37  1  0
 33 73  1  1
 34 35  1  0
 34 74  1  0
 34 75  1  0
 35 36  1  0
 35 76  1  0
 35 77  1  0
 36 78  1  1
 37 38  1  0
 37 79  1  1
 38 80  1  0
M  END
>  <i_m_ct_stereo_status>  (244) 
1

>  <s_m_source_file>  (244) 
/var/tmp/pbs.5076255.sched01/tmp6zmtdo5c/111u4f9dq10.sdf

>  <i_m_source_file_index>  (244) 
5

>  <i_lp_mmshare_version>  (244) 
48012

>  <i_f3d_flags>  (244) 
0

>  <s_epik_input>  (244) 
W0NIXTE9W0NIXUMoW0NIM10pKFtDSDNdKVtDQEBIXShbQ0gyXVtDSDJdMilbQ0BAXTEoW0NIM10pW0NASF0oW0NAXTIzNClbQ0gyXVtDSDJdW0NIXShbQ0BIXTRbT0hdKVtDQEBdNShbQ0gzXSlbQ0BAXTYoW0NIM10pW0NIMl1bQ0BASF0oT0MzPU8pW0NAQF03KFtDQEhdNVtPSF0pW0NAQEhdKE83KVtDSDJdW0NAQEhdNmM4W2NIXVtjSF1vW2NIXTg=

>  <s_epik_cmdline>  (244) 
J2VwaWtfcHl0aG9uJywgJy1waHQnLCAnMi4wJywgJy1waCcsICc3LjAnLCAnLXRuJywgJzgnLCAnLW1hJywgJzIwMCcsICctaW1hZScsICc8aW5maWxlLm1hZT4nLCAnLW9tYWUnLCAnPG91dGZpbGUubWFlPic=

>  <r_lp_tautomer_probability>  (244) 
1

>  <r_epik_Ionization_Penalty>  (244) 
1.46243e-07

>  <r_epik_Ionization_Penalty_Charging>  (244) 
0

>  <r_epik_Ionization_Penalty_Neutral>  (244) 
1.46243e-07

>  <r_epik_State_Penalty>  (244) 
-0

>  <r_epik_Charging_Adjusted_Penalty>  (244) 
0

>  <i_epik_Tot_Q>  (244) 
0

>  <i_epik_Tot_abs_Q>  (244) 
0

>  <s_epik_Chemistry_Notes>  (244) 
This compound has an ester and may undergo hydrolysis at high or low pH.

>  <s_lp_Force_Field>  (244) 
OPLS3e

>  <r_lp_Energy>  (244) 
145.468

>  <b_lp_Chiralities_Consistent>  (244) 
1

>  <s_lp_Variant>  (244) 
93:0-2

>  <s_i_glide_gridfile>  (244) 
pfpi4k_grid

>  <i_i_glide_lignum>  (244) 
5

>  <i_i_glide_rotatable_bonds>  (244) 
3

>  <r_i_docking_score>  (244) 
-2.23176

>  <r_i_glide_ligand_efficiency>  (244) 
-0.0587306

>  <r_i_glide_ligand_efficiency_sa>  (244) 
-0.197451

>  <r_i_glide_ligand_efficiency_ln>  (244) 
-0.481234

>  <r_i_glide_gscore>  (244) 
-2.23176

>  <r_i_glide_lipo>  (244) 
-0.0280721

>  <r_i_glide_hbond>  (244) 
-0.0247311

>  <r_i_glide_metal>  (244) 
-0

>  <r_i_glide_rewards>  (244) 
-0.5

>  <r_i_glide_evdw>  (244) 
-30.8029

>  <r_i_glide_ecoul>  (244) 
-1.39457

>  <r_i_glide_erotb>  (244) 
0.0752796

>  <r_i_glide_esite>  (244) 
-0.00490822

>  <r_i_glide_emodel>  (244) 
-41.3478

>  <r_i_glide_energy>  (244) 
-32.1975

>  <r_i_glide_einternal>  (244) 
0.383777

>  <r_i_glide_intrahb_reward>  (244) 
-0.5

>  <i_i_glide_confnum>  (244) 
3

>  <i_i_glide_posenum>  (244) 
1

>  <r_i_glide_eff_state_penalty>  (244) 
0

>  <ligand_id>  (244) 
93

>  <original_smiles>  (244) 
CC1(C)C=CC2(C)C1CCC13C(=O)OC4CC5(C)C(c6ccoc6)CC6OC46C(O)C5(C)C(CCC21)C3O

>  <smiles>  (244) 
[H]OC1([H])C2([H])C([H])([H])C([H])([H])C3([H])C1(C(=O)OC1([H])C([H])([H])C4(C([H])([H])[H])C([H])(c5c([H])oc([H])c5[H])C([H])([H])C5([H])OC51C([H])(O[H])C24C([H])([H])[H])C([H])([H])C([H])([H])C1([H])C(C([H])([H])[H])(C([H])([H])[H])C([H])=C([H])C13C([H])([H])[H]

$$$$
94:0:0
     RDKit          3D

 28 31  0  0  1  0  0  0  0  0999 V2000
   -7.9922   -8.9109   -9.6297 C   0  0  0  0  0  0  0  0  0  0  0  0
   -7.2055   -8.0881   -8.7162 N   0  0  0  0  0  0  0  0  0  0  0  0
   -5.8302   -8.6431   -8.3862 C   0  0  1  0  0  0  0  0  0  0  0  0
   -5.1611   -9.6667   -7.3047 C   0  0  0  0  0  0  0  0  0  0  0  0
   -5.4352   -9.5052   -5.9354 C   0  0  0  0  0  0  0  0  0  0  0  0
   -6.6796   -8.5955   -5.5221 C   0  0  1  0  0  0  0  0  0  0  0  0
   -6.8362   -7.0621   -5.3547 C   0  0  0  0  0  0  0  0  0  0  0  0
   -6.3800   -6.2619   -4.2951 C   0  0  0  0  0  0  0  0  0  0  0  0
   -6.7452   -4.8983   -4.2796 C   0  0  0  0  0  0  0  0  0  0  0  0
   -7.5343   -4.3492   -5.3170 C   0  0  0  0  0  0  0  0  0  0  0  0
   -7.9651   -5.1363   -6.4053 C   0  0  0  0  0  0  0  0  0  0  0  0
   -7.6141   -6.4961   -6.4226 C   0  0  0  0  0  0  0  0  0  0  0  0
   -8.0107   -7.5528   -7.5119 C   0  0  2  0  0  0  0  0  0  0  0  0
   -7.2439   -8.5519   -6.8715 C   0  0  1  0  0  0  0  0  0  0  0  0
   -5.9987   -7.8722   -7.4454 O   0  0  0  0  0  0  0  0  0  0  0  0
   -7.3855   -9.1884  -10.4860 H   0  0  0  0  0  0  0  0  0  0  0  0
   -8.8457   -8.3392   -9.9955 H   0  0  0  0  0  0  0  0  0  0  0  0
   -8.3559   -9.8257   -9.1573 H   0  0  0  0  0  0  0  0  0  0  0  0
   -5.0717   -8.2193   -9.0390 H   0  0  0  0  0  0  0  0  0  0  0  0
   -4.3994  -10.3541   -7.6445 H   0  0  0  0  0  0  0  0  0  0  0  0
   -4.9445  -10.0903   -5.1673 H   0  0  0  0  0  0  0  0  0  0  0  0
   -7.3851   -9.1591   -4.9345 H   0  0  0  0  0  0  0  0  0  0  0  0
   -5.8410   -6.6979   -3.4650 H   0  0  0  0  0  0  0  0  0  0  0  0
   -6.4586   -4.2725   -3.4454 H   0  0  0  0  0  0  0  0  0  0  0  0
   -7.8280   -3.3135   -5.2520 H   0  0  0  0  0  0  0  0  0  0  0  0
   -8.5660   -4.7152   -7.1974 H   0  0  0  0  0  0  0  0  0  0  0  0
   -9.0651   -7.8236   -7.4963 H   0  0  0  0  0  0  0  0  0  0  0  0
   -7.5762   -9.5835   -7.1102 H   0  0  0  0  0  0  0  0  0  0  0  0
  1  2  1  0
  1 16  1  0
  1 17  1  0
  1 18  1  0
  2 13  1  0
  2  3  1  0
  3 15  1  0
  3  4  1  0
  3 19  1  6
  4  5  2  0
  4 20  1  0
  5  6  1  0
  5 21  1  0
  6 14  1  0
  6  7  1  0
  6 22  1  1
  7 12  2  0
  7  8  1  0
  8  9  2  0
  8 23  1  0
  9 10  1  0
  9 24  1  0
 10 11  2  0
 10 25  1  0
 11 12  1  0
 11 26  1  0
 12 13  1  0
 13 14  1  0
 13 27  1  6
 14 15  1  0
 14 28  1  6
M  END
>  <i_m_ct_stereo_status>  (245) 
1

>  <s_m_source_file>  (245) 
/var/tmp/pbs.5076255.sched01/tmp6zmtdo5c/111u4f9dq10.sdf

>  <i_m_source_file_index>  (245) 
6

>  <i_lp_mmshare_version>  (245) 
48012

>  <i_f3d_flags>  (245) 
0

>  <s_epik_input>  (245) 
W0NIM11OKFtDQEhdMTIpW0NAQEhdM2M0YyhbQ0BASF0oW0NAQEhdM08yKVtDSF09W0NIXTEpW2NIXVtjSF1bY0hdW2NIXTQ=

>  <s_epik_cmdline>  (245) 
J2VwaWtfcHl0aG9uJywgJy1waHQnLCAnMi4wJywgJy1waCcsICc3LjAnLCAnLXRuJywgJzgnLCAnLW1hJywgJzIwMCcsICctaW1hZScsICc8aW5maWxlLm1hZT4nLCAnLW9tYWUnLCAnPG91dGZpbGUubWFlPic=

>  <r_epik_Ionization_Penalty>  (245) 
0.0441712

>  <r_epik_Ionization_Penalty_Charging>  (245) 
0

>  <r_epik_Ionization_Penalty_Neutral>  (245) 
0.0441712

>  <r_epik_State_Penalty>  (245) 
0.0374196

>  <r_epik_Charging_Adjusted_Penalty>  (245) 
0.0374196

>  <i_epik_Tot_Q>  (245) 
0

>  <i_epik_Tot_abs_Q>  (245) 
0

>  <s_epik_Chemistry_Notes>  (245) 
This compound contains an acetal/aminal-like group ( X-CH(R)-Y where X, Y are N, S, or O) that may be acid/base labile, releasing an aldehyde.

>  <s_lp_Force_Field>  (245) 
OPLS3e

>  <r_lp_Energy>  (245) 
248.549

>  <b_lp_Chiralities_Consistent>  (245) 
1

>  <s_lp_Variant>  (245) 
94:0-1

>  <s_i_glide_gridfile>  (245) 
pfpi4k_grid

>  <i_i_glide_lignum>  (245) 
6

>  <i_i_glide_rotatable_bonds>  (245) 
0

>  <r_i_docking_score>  (245) 
-6.62308

>  <r_i_glide_ligand_efficiency>  (245) 
-0.441539

>  <r_i_glide_ligand_efficiency_sa>  (245) 
-1.08893

>  <r_i_glide_ligand_efficiency_ln>  (245) 
-1.78614

>  <r_i_glide_gscore>  (245) 
-6.62308

>  <r_i_glide_lipo>  (245) 
-2.73149

>  <r_i_glide_hbond>  (245) 
0

>  <r_i_glide_metal>  (245) 
-0

>  <r_i_glide_rewards>  (245) 
-2.90872

>  <r_i_glide_evdw>  (245) 
-17.3472

>  <r_i_glide_ecoul>  (245) 
-0.770064

>  <r_i_glide_erotb>  (245) 
0

>  <r_i_glide_esite>  (245) 
0

>  <r_i_glide_emodel>  (245) 
-23.959

>  <r_i_glide_energy>  (245) 
-18.1173

>  <r_i_glide_einternal>  (245) 
0

>  <r_i_glide_intrahb_reward>  (245) 
-0

>  <i_i_glide_confnum>  (245) 
1

>  <i_i_glide_posenum>  (245) 
30

>  <r_i_glide_eff_state_penalty>  (245) 
0

>  <ligand_id>  (245) 
94

>  <original_smiles>  (245) 
CN1C2C=CC3c4ccccc4C1C3O2

>  <smiles>  (245) 
[H]C1=C([H])C2([H])c3c([H])c([H])c([H])c([H])c3C3([H])N(C([H])([H])[H])C1([H])OC23[H]

$$$$
94:1:0
     RDKit          3D

 29 32  0  0  1  0  0  0  0  0999 V2000
   -8.8250   -8.4223   -9.8657 C   0  0  0  0  0  0  0  0  0  0  0  0
   -7.9070   -7.6756   -8.9714 N   0  0  2  0  0  0  0  0  0  0  0  0
   -6.3877   -8.4089   -8.8780 C   0  0  1  0  0  0  0  0  0  0  0  0
   -5.5493   -9.3833   -7.8747 C   0  0  0  0  0  0  0  0  0  0  0  0
   -5.6364   -9.3022   -6.4806 C   0  0  0  0  0  0  0  0  0  0  0  0
   -6.8365   -8.4781   -5.8635 C   0  0  1  0  0  0  0  0  0  0  0  0
   -6.9574   -6.9649   -5.5964 C   0  0  0  0  0  0  0  0  0  0  0  0
   -6.3463   -6.2474   -4.5583 C   0  0  0  0  0  0  0  0  0  0  0  0
   -6.6797   -4.8850   -4.4112 C   0  0  0  0  0  0  0  0  0  0  0  0
   -7.6086   -4.2665   -5.2850 C   0  0  0  0  0  0  0  0  0  0  0  0
   -8.2124   -4.9782   -6.3432 C   0  0  0  0  0  0  0  0  0  0  0  0
   -7.8758   -6.3354   -6.5040 C   0  0  0  0  0  0  0  0  0  0  0  0
   -8.4546   -7.3396   -7.5740 C   0  0  2  0  0  0  0  0  0  0  0  0
   -7.6535   -8.4210   -7.0988 C   0  0  1  0  0  0  0  0  0  0  0  0
   -6.5495   -7.7130   -7.8524 O   0  0  0  0  0  0  0  0  0  0  0  0
   -9.0368   -9.4213   -9.4829 H   0  0  0  0  0  0  0  0  0  0  0  0
   -8.3614   -8.5356  -10.8475 H   0  0  0  0  0  0  0  0  0  0  0  0
   -9.7665   -7.8861   -9.9921 H   0  0  0  0  0  0  0  0  0  0  0  0
   -5.7257   -7.9020   -9.5770 H   0  0  0  0  0  0  0  0  0  0  0  0
   -4.7832   -9.9999   -8.3227 H   0  0  0  0  0  0  0  0  0  0  0  0
   -4.9907   -9.8701   -5.8201 H   0  0  0  0  0  0  0  0  0  0  0  0
   -7.3580   -9.0673   -5.1198 H   0  0  0  0  0  0  0  0  0  0  0  0
   -5.6841   -6.7417   -3.8621 H   0  0  0  0  0  0  0  0  0  0  0  0
   -6.2475   -4.3118   -3.6041 H   0  0  0  0  0  0  0  0  0  0  0  0
   -7.8725   -3.2328   -5.1170 H   0  0  0  0  0  0  0  0  0  0  0  0
   -8.9402   -4.5026   -6.9864 H   0  0  0  0  0  0  0  0  0  0  0  0
   -9.5217   -7.5177   -7.4953 H   0  0  0  0  0  0  0  0  0  0  0  0
   -7.9900   -9.4204   -7.4249 H   0  0  0  0  0  0  0  0  0  0  0  0
   -7.7850   -6.7741   -9.4139 H   0  0  0  0  0  0  0  0  0  0  0  0
  1  2  1  0
  1 16  1  0
  1 17  1  0
  1 18  1  0
  2 13  1  0
  2  3  1  0
  2 29  1  6
  3 15  1  0
  3  4  1  0
  3 19  1  6
  4  5  2  0
  4 20  1  0
  5  6  1  0
  5 21  1  0
  6 14  1  0
  6  7  1  0
  6 22  1  1
  7 12  2  0
  7  8  1  0
  8  9  2  0
  8 23  1  0
  9 10  1  0
  9 24  1  0
 10 11  2  0
 10 25  1  0
 11 12  1  0
 11 26  1  0
 12 13  1  0
 13 14  1  0
 13 27  1  6
 14 15  1  0
 14 28  1  6
M  CHG  1   2   1
M  END
>  <i_m_ct_stereo_status>  (246) 
1

>  <s_m_source_file>  (246) 
/var/tmp/pbs.5076255.sched01/tmp6zmtdo5c/111u4f9dq10.sdf

>  <i_m_source_file_index>  (246) 
7

>  <i_lp_mmshare_version>  (246) 
48012

>  <i_f3d_flags>  (246) 
0

>  <s_epik_input>  (246) 
W0NIM11OKFtDQEhdMTIpW0NAQEhdM2M0YyhbQ0BASF0oW0NAQEhdM08yKVtDSF09W0NIXTEpW2NIXVtjSF1bY0hdW2NIXTQ=

>  <s_epik_cmdline>  (246) 
J2VwaWtfcHl0aG9uJywgJy1waHQnLCAnMi4wJywgJy1waCcsICc3LjAnLCAnLXRuJywgJzgnLCAnLW1hJywgJzIwMCcsICctaW1hZScsICc8aW5maWxlLm1hZT4nLCAnLW9tYWUnLCAnPG91dGZpbGUubWFlPic=

>  <r_epik_Ionization_Penalty>  (246) 
1.56019

>  <r_epik_Ionization_Penalty_Charging>  (246) 
1.56019

>  <r_epik_Ionization_Penalty_Neutral>  (246) 
0

>  <r_epik_State_Penalty>  (246) 
1.65513

>  <r_epik_Charging_Adjusted_Penalty>  (246) 
3.21533

>  <i_epik_Tot_Q>  (246) 
1

>  <i_epik_Tot_abs_Q>  (246) 
1

>  <s_epik_Chemistry_Notes>  (246) 
This compound contains an acetal/aminal-like group ( X-CH(R)-Y where X, Y are N, S, or O) that may be acid/base labile, releasing an aldehyde.

>  <s_lp_Force_Field>  (246) 
OPLS3e

>  <r_lp_Energy>  (246) 
219.371

>  <b_lp_Chiralities_Consistent>  (246) 
1

>  <s_lp_Variant>  (246) 
94:0-2

>  <s_i_glide_gridfile>  (246) 
pfpi4k_grid

>  <i_i_glide_lignum>  (246) 
7

>  <i_i_glide_rotatable_bonds>  (246) 
0

>  <r_i_docking_score>  (246) 
-6.71479

>  <r_i_glide_ligand_efficiency>  (246) 
-0.447652

>  <r_i_glide_ligand_efficiency_sa>  (246) 
-1.10401

>  <r_i_glide_ligand_efficiency_ln>  (246) 
-1.81087

>  <r_i_glide_gscore>  (246) 
-6.71479

>  <r_i_glide_lipo>  (246) 
-2.70653

>  <r_i_glide_hbond>  (246) 
0

>  <r_i_glide_metal>  (246) 
-0

>  <r_i_glide_rewards>  (246) 
-2.9313

>  <r_i_glide_evdw>  (246) 
-18.1293

>  <r_i_glide_ecoul>  (246) 
-1.13659

>  <r_i_glide_erotb>  (246) 
0

>  <r_i_glide_esite>  (246) 
0

>  <r_i_glide_emodel>  (246) 
-30.4181

>  <r_i_glide_energy>  (246) 
-19.2659

>  <r_i_glide_einternal>  (246) 
0

>  <r_i_glide_intrahb_reward>  (246) 
-0

>  <i_i_glide_confnum>  (246) 
1

>  <i_i_glide_posenum>  (246) 
2

>  <r_i_glide_eff_state_penalty>  (246) 
0

>  <ligand_id>  (246) 
94

>  <original_smiles>  (246) 
CN1C2C=CC3c4ccccc4C1C3O2

>  <smiles>  (246) 
[H]C1=C([H])C2([H])OC3([H])C1([H])c1c([H])c([H])c([H])c([H])c1C3([H])[N+]2([H])C([H])([H])[H]

$$$$
94:1:1
     RDKit          3D

 29 32  0  0  1  0  0  0  0  0999 V2000
  -11.0833   -6.1645   -9.6886 C   0  0  0  0  0  0  0  0  0  0  0  0
   -9.7231   -5.9636   -9.1362 N   0  0  2  0  0  0  0  0  0  0  0  0
   -8.5638   -6.8634   -9.9695 C   0  0  1  0  0  0  0  0  0  0  0  0
   -7.7700   -8.2667   -9.8102 C   0  0  0  0  0  0  0  0  0  0  0  0
   -7.3096   -8.7386   -8.5722 C   0  0  0  0  0  0  0  0  0  0  0  0
   -7.8769   -8.0711   -7.2496 C   0  0  1  0  0  0  0  0  0  0  0  0
   -7.4379   -6.7924   -6.5093 C   0  0  0  0  0  0  0  0  0  0  0  0
   -6.3110   -6.6509   -5.6825 C   0  0  0  0  0  0  0  0  0  0  0  0
   -6.1432   -5.4268   -5.0066 C   0  0  0  0  0  0  0  0  0  0  0  0
   -7.0913   -4.3851   -5.1390 C   0  0  0  0  0  0  0  0  0  0  0  0
   -8.2279   -4.5194   -5.9657 C   0  0  0  0  0  0  0  0  0  0  0  0
   -8.3952   -5.7303   -6.6647 C   0  0  0  0  0  0  0  0  0  0  0  0
   -9.5945   -6.1336   -7.6089 C   0  0  2  0  0  0  0  0  0  0  0  0
   -9.0191   -7.4001   -7.9117 C   0  0  1  0  0  0  0  0  0  0  0  0
   -8.1078   -6.5978   -8.8301 O   0  0  0  0  0  0  0  0  0  0  0  0
  -11.4477   -7.1825   -9.5620 H   0  0  0  0  0  0  0  0  0  0  0  0
  -11.0958   -5.9282  -10.7507 H   0  0  0  0  0  0  0  0  0  0  0  0
  -11.7726   -5.4838   -9.1909 H   0  0  0  0  0  0  0  0  0  0  0  0
   -8.0876   -6.2671  -10.7485 H   0  0  0  0  0  0  0  0  0  0  0  0
   -7.4511   -8.7296  -10.7270 H   0  0  0  0  0  0  0  0  0  0  0  0
   -6.6622   -9.6006   -8.4837 H   0  0  0  0  0  0  0  0  0  0  0  0
   -8.2188   -8.8327   -6.5500 H   0  0  0  0  0  0  0  0  0  0  0  0
   -5.6085   -7.4629   -5.5587 H   0  0  0  0  0  0  0  0  0  0  0  0
   -5.2811   -5.2781   -4.3752 H   0  0  0  0  0  0  0  0  0  0  0  0
   -6.9337   -3.4703   -4.5882 H   0  0  0  0  0  0  0  0  0  0  0  0
   -8.9621   -3.7251   -6.0341 H   0  0  0  0  0  0  0  0  0  0  0  0
  -10.5590   -6.2041   -7.1158 H   0  0  0  0  0  0  0  0  0  0  0  0
   -9.7425   -8.1307   -8.3164 H   0  0  0  0  0  0  0  0  0  0  0  0
   -9.5136   -4.9893   -9.2761 H   0  0  0  0  0  0  0  0  0  0  0  0
  1  2  1  0
  1 16  1  0
  1 17  1  0
  1 18  1  0
  2 13  1  0
  2  3  1  0
  2 29  1  1
  3 15  1  0
  3  4  1  0
  3 19  1  6
  4  5  2  0
  4 20  1  0
  5  6  1  0
  5 21  1  0
  6 14  1  0
  6  7  1  0
  6 22  1  1
  7 12  2  0
  7  8  1  0
  8  9  2  0
  8 23  1  0
  9 10  1  0
  9 24  1  0
 10 11  2  0
 10 25  1  0
 11 12  1  0
 11 26  1  0
 12 13  1  0
 13 14  1  0
 13 27  1  1
 14 15  1  0
 14 28  1  6
M  CHG  1   2   1
M  END
>  <i_m_ct_stereo_status>  (247) 
1

>  <s_m_source_file>  (247) 
/var/tmp/pbs.5076255.sched01/tmp6zmtdo5c/111u4f9dq10.sdf

>  <i_m_source_file_index>  (247) 
7

>  <i_lp_mmshare_version>  (247) 
48012

>  <i_f3d_flags>  (247) 
0

>  <s_epik_input>  (247) 
W0NIM11OKFtDQEhdMTIpW0NAQEhdM2M0YyhbQ0BASF0oW0NAQEhdM08yKVtDSF09W0NIXTEpW2NIXVtjSF1bY0hdW2NIXTQ=

>  <s_epik_cmdline>  (247) 
J2VwaWtfcHl0aG9uJywgJy1waHQnLCAnMi4wJywgJy1waCcsICc3LjAnLCAnLXRuJywgJzgnLCAnLW1hJywgJzIwMCcsICctaW1hZScsICc8aW5maWxlLm1hZT4nLCAnLW9tYWUnLCAnPG91dGZpbGUubWFlPic=

>  <r_epik_Ionization_Penalty>  (247) 
1.56019

>  <r_epik_Ionization_Penalty_Charging>  (247) 
1.56019

>  <r_epik_Ionization_Penalty_Neutral>  (247) 
0

>  <r_epik_State_Penalty>  (247) 
1.65513

>  <r_epik_Charging_Adjusted_Penalty>  (247) 
3.21533

>  <i_epik_Tot_Q>  (247) 
1

>  <i_epik_Tot_abs_Q>  (247) 
1

>  <s_epik_Chemistry_Notes>  (247) 
This compound contains an acetal/aminal-like group ( X-CH(R)-Y where X, Y are N, S, or O) that may be acid/base labile, releasing an aldehyde.

>  <s_lp_Force_Field>  (247) 
OPLS3e

>  <r_lp_Energy>  (247) 
219.371

>  <b_lp_Chiralities_Consistent>  (247) 
1

>  <s_lp_Variant>  (247) 
94:0-2

>  <s_i_glide_gridfile>  (247) 
pfpi4k_grid

>  <i_i_glide_lignum>  (247) 
7

>  <i_i_glide_rotatable_bonds>  (247) 
0

>  <r_i_docking_score>  (247) 
-5.86524

>  <r_i_glide_ligand_efficiency>  (247) 
-0.391016

>  <r_i_glide_ligand_efficiency_sa>  (247) 
-0.964328

>  <r_i_glide_ligand_efficiency_ln>  (247) 
-1.58176

>  <r_i_glide_gscore>  (247) 
-5.86524

>  <r_i_glide_lipo>  (247) 
-2.3098

>  <r_i_glide_hbond>  (247) 
0

>  <r_i_glide_metal>  (247) 
-0

>  <r_i_glide_rewards>  (247) 
-2.55879

>  <r_i_glide_evdw>  (247) 
-18.9803

>  <r_i_glide_ecoul>  (247) 
-0.27589

>  <r_i_glide_erotb>  (247) 
0

>  <r_i_glide_esite>  (247) 
-0.00624315

>  <r_i_glide_emodel>  (247) 
-29.0043

>  <r_i_glide_energy>  (247) 
-19.2562

>  <r_i_glide_einternal>  (247) 
0

>  <r_i_glide_intrahb_reward>  (247) 
-0

>  <i_i_glide_confnum>  (247) 
2

>  <i_i_glide_posenum>  (247) 
20

>  <r_i_glide_eff_state_penalty>  (247) 
0

>  <ligand_id>  (247) 
94

>  <original_smiles>  (247) 
CN1C2C=CC3c4ccccc4C1C3O2

>  <smiles>  (247) 
[H]C1=C([H])C2([H])OC3([H])C1([H])c1c([H])c([H])c([H])c([H])c1C3([H])[N+]2([H])C([H])([H])[H]

$$$$
94:1:2
     RDKit          3D

 29 32  0  0  1  0  0  0  0  0999 V2000
    2.3924    0.7569    1.9503 C   0  0  0  0  0  0  0  0  0  0  0  0
    2.6129   -0.4862    1.1529 N   0  0  2  0  0  0  0  0  0  0  0  0
    2.6735   -1.8794    2.1302 C   0  0  1  0  0  0  0  0  0  0  0  0
    3.7895   -2.8513    2.8153 C   0  0  0  0  0  0  0  0  0  0  0  0
    4.9899   -3.1931    2.1713 C   0  0  0  0  0  0  0  0  0  0  0  0
    5.4374   -2.3490    0.8999 C   0  0  1  0  0  0  0  0  0  0  0  0
    5.0283   -2.4766   -0.5808 C   0  0  0  0  0  0  0  0  0  0  0  0
    5.4667   -3.4482   -1.4911 C   0  0  0  0  0  0  0  0  0  0  0  0
    5.0459   -3.3431   -2.8284 C   0  0  0  0  0  0  0  0  0  0  0  0
    4.2125   -2.2753   -3.2500 C   0  0  0  0  0  0  0  0  0  0  0  0
    3.7689   -1.2947   -2.3460 C   0  0  0  0  0  0  0  0  0  0  0  0
    4.1702   -1.4046   -0.9991 C   0  0  0  0  0  0  0  0  0  0  0  0
    3.8160   -0.4349    0.1857 C   0  0  2  0  0  0  0  0  0  0  0  0
    4.4995   -1.2300    1.1474 C   0  0  1  0  0  0  0  0  0  0  0  0
    3.2799   -2.1313    1.0587 O   0  0  0  0  0  0  0  0  0  0  0  0
    3.2201    0.9584    2.6333 H   0  0  0  0  0  0  0  0  0  0  0  0
    1.4932    0.6434    2.5589 H   0  0  0  0  0  0  0  0  0  0  0  0
    2.2566    1.6265    1.3098 H   0  0  0  0  0  0  0  0  0  0  0  0
    1.7024   -2.3712    2.1793 H   0  0  0  0  0  0  0  0  0  0  0  0
    3.4857   -3.3505    3.7210 H   0  0  0  0  0  0  0  0  0  0  0  0
    5.6718   -3.9423    2.5625 H   0  0  0  0  0  0  0  0  0  0  0  0
    6.4743   -2.0253    0.9892 H   0  0  0  0  0  0  0  0  0  0  0  0
    6.1253   -4.2329   -1.1556 H   0  0  0  0  0  0  0  0  0  0  0  0
    5.3657   -4.0886   -3.5396 H   0  0  0  0  0  0  0  0  0  0  0  0
    3.9215   -2.2167   -4.2858 H   0  0  0  0  0  0  0  0  0  0  0  0
    3.1442   -0.4679   -2.6735 H   0  0  0  0  0  0  0  0  0  0  0  0
    4.2601    0.5410    0.0760 H   0  0  0  0  0  0  0  0  0  0  0  0
    4.7434   -0.6889    2.0801 H   0  0  0  0  0  0  0  0  0  0  0  0
    1.8096   -0.5626    0.5264 H   0  0  0  0  0  0  0  0  0  0  0  0
  1  2  1  0
  1 16  1  0
  1 17  1  0
  1 18  1  0
  2 13  1  0
  2  3  1  0
  2 29  1  6
  3 15  1  0
  3  4  1  0
  3 19  1  6
  4  5  2  0
  4 20  1  0
  5  6  1  0
  5 21  1  0
  6 14  1  0
  6  7  1  0
  6 22  1  6
  7 12  2  0
  7  8  1  0
  8  9  2  0
  8 23  1  0
  9 10  1  0
  9 24  1  0
 10 11  2  0
 10 25  1  0
 11 12  1  0
 11 26  1  0
 12 13  1  0
 13 14  1  0
 13 27  1  6
 14 15  1  0
 14 28  1  1
M  CHG  1   2   1
M  END
>  <i_m_ct_stereo_status>  (248) 
1

>  <s_m_source_file>  (248) 
/var/tmp/pbs.5076255.sched01/tmp6zmtdo5c/111u4f9dq10.sdf

>  <i_m_source_file_index>  (248) 
7

>  <i_lp_mmshare_version>  (248) 
48012

>  <i_f3d_flags>  (248) 
0

>  <s_epik_input>  (248) 
W0NIM11OKFtDQEhdMTIpW0NAQEhdM2M0YyhbQ0BASF0oW0NAQEhdM08yKVtDSF09W0NIXTEpW2NIXVtjSF1bY0hdW2NIXTQ=

>  <s_epik_cmdline>  (248) 
J2VwaWtfcHl0aG9uJywgJy1waHQnLCAnMi4wJywgJy1waCcsICc3LjAnLCAnLXRuJywgJzgnLCAnLW1hJywgJzIwMCcsICctaW1hZScsICc8aW5maWxlLm1hZT4nLCAnLW9tYWUnLCAnPG91dGZpbGUubWFlPic=

>  <r_epik_Ionization_Penalty>  (248) 
1.56019

>  <r_epik_Ionization_Penalty_Charging>  (248) 
1.56019

>  <r_epik_Ionization_Penalty_Neutral>  (248) 
0

>  <r_epik_State_Penalty>  (248) 
1.65513

>  <r_epik_Charging_Adjusted_Penalty>  (248) 
3.21533

>  <i_epik_Tot_Q>  (248) 
1

>  <i_epik_Tot_abs_Q>  (248) 
1

>  <s_epik_Chemistry_Notes>  (248) 
This compound contains an acetal/aminal-like group ( X-CH(R)-Y where X, Y are N, S, or O) that may be acid/base labile, releasing an aldehyde.

>  <s_lp_Force_Field>  (248) 
OPLS3e

>  <r_lp_Energy>  (248) 
219.371

>  <b_lp_Chiralities_Consistent>  (248) 
1

>  <s_lp_Variant>  (248) 
94:0-2

>  <s_i_glide_gridfile>  (248) 
pfpi4k_grid

>  <i_i_glide_lignum>  (248) 
7

>  <i_i_glide_rotatable_bonds>  (248) 
0

>  <r_i_docking_score>  (248) 
-4.40539

>  <r_i_glide_ligand_efficiency>  (248) 
-0.293693

>  <r_i_glide_ligand_efficiency_sa>  (248) 
-0.724308

>  <r_i_glide_ligand_efficiency_ln>  (248) 
-1.18806

>  <r_i_glide_gscore>  (248) 
-4.40539

>  <r_i_glide_lipo>  (248) 
-0.583728

>  <r_i_glide_hbond>  (248) 
-0.2

>  <r_i_glide_metal>  (248) 
-0

>  <r_i_glide_rewards>  (248) 
-2.04371

>  <r_i_glide_evdw>  (248) 
-17.3661

>  <r_i_glide_ecoul>  (248) 
-4.1535

>  <r_i_glide_erotb>  (248) 
0

>  <r_i_glide_esite>  (248) 
-0.0866246

>  <r_i_glide_emodel>  (248) 
-28.8363

>  <r_i_glide_energy>  (248) 
-21.5196

>  <r_i_glide_einternal>  (248) 
0

>  <r_i_glide_intrahb_reward>  (248) 
-0

>  <i_i_glide_confnum>  (248) 
2

>  <i_i_glide_posenum>  (248) 
1

>  <r_i_glide_eff_state_penalty>  (248) 
0

>  <ligand_id>  (248) 
94

>  <original_smiles>  (248) 
CN1C2C=CC3c4ccccc4C1C3O2

>  <smiles>  (248) 
[H]C1=C([H])C2([H])OC3([H])C1([H])c1c([H])c([H])c([H])c([H])c1C3([H])[N+]2([H])C([H])([H])[H]

$$$$
95:0:0
     RDKit          3D

 75 81  0  0  1  0  0  0  0  0999 V2000
   -1.8558   -8.7222    1.9293 C   0  0  0  0  0  0  0  0  0  0  0  0
   -1.2707   -9.3625    3.1576 C   0  0  0  0  0  0  0  0  0  0  0  0
   -1.5148   -8.4341    4.3595 C   0  0  0  0  0  0  0  0  0  0  0  0
    0.1866   -9.8514    3.0442 C   0  0  2  0  0  0  0  0  0  0  0  0
    0.6954  -10.4781    4.3435 C   0  0  0  0  0  0  0  0  0  0  0  0
    1.9942  -10.1719    4.5950 C   0  0  0  0  0  0  0  0  0  0  0  0
    2.5454   -9.4485    3.4055 C   0  0  2  0  0  0  0  0  0  0  0  0
    3.2448  -10.4636    2.4847 C   0  0  0  0  0  0  0  0  0  0  0  0
    3.3223   -8.2798    3.5400 O   0  0  0  0  0  0  0  0  0  0  0  0
    3.1118   -7.5293    2.3182 C   0  0  2  0  0  0  0  0  0  0  0  0
    2.8969   -6.0145    2.6414 C   0  0  1  0  0  0  0  0  0  0  0  0
    4.0919   -5.1172    2.2472 C   0  0  2  0  0  0  0  0  0  0  0  0
    5.1481   -5.2470    3.3579 C   0  0  1  0  0  0  0  0  0  0  0  0
    6.1588   -6.1534    3.0059 O   0  0  0  0  0  0  0  0  0  0  0  0
    5.7397   -3.8617    3.4412 C   0  0  0  0  0  0  0  0  0  0  0  0
    4.6003   -2.9115    3.1830 C   0  0  1  0  0  0  0  0  0  0  0  0
    5.0165   -1.4439    2.9482 C   0  0  0  0  0  0  0  0  0  0  0  0
    5.7886   -1.2948    1.7654 O   0  0  0  0  0  0  0  0  0  0  0  0
    5.1251   -1.7003    0.5684 C   0  0  1  0  0  0  0  0  0  0  0  0
    6.2115   -1.6262   -0.5256 C   0  0  0  0  0  0  0  0  0  0  0  0
    5.4744   -1.3299   -1.8549 C   0  0  0  0  0  0  0  0  0  0  0  0
    4.0182   -1.1436   -1.4532 C   0  0  1  0  0  0  0  0  0  0  0  0
    3.2432   -2.4736   -1.5408 C   0  0  0  0  0  0  0  0  0  0  0  0
    3.8190   -3.5924   -0.6404 C   0  0  1  0  0  0  0  0  0  0  0  0
    4.6941   -4.3336   -1.4423 O   0  0  0  0  0  0  0  0  0  0  0  0
    4.5668   -3.1545    0.6589 C   0  0  2  0  0  0  0  0  0  0  0  0
    3.8687   -3.5641    2.0089 C   0  0  1  0  0  0  0  0  0  0  0  0
    2.4092   -3.0582    2.1086 C   0  0  0  0  0  0  0  0  0  0  0  0
    4.1374   -0.6626    0.0064 C   0  0  1  0  0  0  0  0  0  0  0  0
    2.9049   -0.5603    0.6633 O   0  0  0  0  0  0  0  0  0  0  0  0
    1.7474   -5.6803    1.9092 O   0  0  0  0  0  0  0  0  0  0  0  0
    1.1470   -6.6783    1.3039 C   0  0  0  0  0  0  0  0  0  0  0  0
    0.2770   -6.5451    0.4776 O   0  0  0  0  0  0  0  0  0  0  0  0
    1.7872   -8.0050    1.6962 C   0  0  2  0  0  0  0  0  0  0  0  0
    1.2745   -8.7687    2.9156 C   0  0  1  0  0  0  0  0  0  0  0  0
   -1.3019   -7.8347    1.6911 H   0  0  0  0  0  0  0  0  0  0  0  0
   -2.9344   -8.5765    2.0722 H   0  0  0  0  0  0  0  0  0  0  0  0
   -1.7741   -9.4513    1.1481 H   0  0  0  0  0  0  0  0  0  0  0  0
   -1.8854  -10.2505    3.2671 H   0  0  0  0  0  0  0  0  0  0  0  0
   -0.9989   -7.4761    4.2897 H   0  0  0  0  0  0  0  0  0  0  0  0
   -1.3051   -8.8869    5.3377 H   0  0  0  0  0  0  0  0  0  0  0  0
   -2.5579   -8.1658    4.3473 H   0  0  0  0  0  0  0  0  0  0  0  0
    0.2578  -10.6140    2.2622 H   0  0  0  0  0  0  0  0  0  0  0  0
    0.1088  -11.0589    5.0253 H   0  0  0  0  0  0  0  0  0  0  0  0
    2.5591  -10.4978    5.4418 H   0  0  0  0  0  0  0  0  0  0  0  0
    2.5996  -11.3215    2.3246 H   0  0  0  0  0  0  0  0  0  0  0  0
    4.1434  -10.8414    2.9700 H   0  0  0  0  0  0  0  0  0  0  0  0
    3.5160  -10.0506    1.5100 H   0  0  0  0  0  0  0  0  0  0  0  0
    3.9161   -7.7507    1.6095 H   0  0  0  0  0  0  0  0  0  0  0  0
    2.6533   -5.8761    3.7037 H   0  0  0  0  0  0  0  0  0  0  0  0
    4.5160   -5.5176    1.3153 H   0  0  0  0  0  0  0  0  0  0  0  0
    4.6845   -5.5090    4.3189 H   0  0  0  0  0  0  0  0  0  0  0  0
    5.8040   -7.0419    3.0939 H   0  0  0  0  0  0  0  0  0  0  0  0
    6.2016   -3.6875    4.4085 H   0  0  0  0  0  0  0  0  0  0  0  0
    6.4371   -3.7761    2.6088 H   0  0  0  0  0  0  0  0  0  0  0  0
    3.9647   -2.9393    4.0704 H   0  0  0  0  0  0  0  0  0  0  0  0
    4.1328   -0.8119    2.8867 H   0  0  0  0  0  0  0  0  0  0  0  0
    5.5944   -1.0688    3.7965 H   0  0  0  0  0  0  0  0  0  0  0  0
    6.8644   -0.7955   -0.2610 H   0  0  0  0  0  0  0  0  0  0  0  0
    6.8268   -2.5307   -0.5702 H   0  0  0  0  0  0  0  0  0  0  0  0
    5.7566   -0.3727   -2.2938 H   0  0  0  0  0  0  0  0  0  0  0  0
    5.6224   -2.1265   -2.5935 H   0  0  0  0  0  0  0  0  0  0  0  0
    3.5691   -0.4055   -2.1227 H   0  0  0  0  0  0  0  0  0  0  0  0
    2.2172   -2.2927   -1.2465 H   0  0  0  0  0  0  0  0  0  0  0  0
    3.1846   -2.8040   -2.5831 H   0  0  0  0  0  0  0  0  0  0  0  0
    3.0136   -4.2838   -0.3932 H   0  0  0  0  0  0  0  0  0  0  0  0
    4.1399   -4.9218   -1.9482 H   0  0  0  0  0  0  0  0  0  0  0  0
    5.4848   -3.7469    0.6630 H   0  0  0  0  0  0  0  0  0  0  0  0
    2.3073   -2.0011    2.3144 H   0  0  0  0  0  0  0  0  0  0  0  0
    1.8965   -3.4933    2.9600 H   0  0  0  0  0  0  0  0  0  0  0  0
    1.8704   -3.2706    1.1975 H   0  0  0  0  0  0  0  0  0  0  0  0
    4.5969    0.3223    0.0618 H   0  0  0  0  0  0  0  0  0  0  0  0
    2.1833   -0.6407    0.0382 H   0  0  0  0  0  0  0  0  0  0  0  0
    1.8458   -8.6497    0.8054 H   0  0  0  0  0  0  0  0  0  0  0  0
    1.0185   -7.9966    3.6565 H   0  0  0  0  0  0  0  0  0  0  0  0
  1  2  1  0
  1 36  1  0
  1 37  1  0
  1 38  1  0
  2  3  1  0
  2  4  1  0
  2 39  1  0
  3 40  1  0
  3 41  1  0
  3 42  1  0
  4 35  1  0
  4  5  1  0
  4 43  1  6
  5  6  2  0
  5 44  1  0
  6  7  1  0
  6 45  1  0
  7 35  1  0
  7  8  1  6
  7  9  1  0
  8 46  1  0
  8 47  1  0
  8 48  1  0
  9 10  1  0
 10 34  1  0
 10 11  1  0
 10 49  1  6
 11 12  1  0
 11 31  1  0
 11 50  1  1
 12 27  1  0
 12 13  1  0
 12 51  1  6
 13 14  1  0
 13 15  1  0
 13 52  1  1
 14 53  1  0
 15 16  1  0
 15 54  1  0
 15 55  1  0
 16 27  1  0
 16 17  1  0
 16 56  1  1
 17 18  1  0
 17 57  1  0
 17 58  1  0
 19 18  1  1
 19 26  1  0
 19 29  1  0
 19 20  1  0
 20 21  1  0
 20 59  1  0
 20 60  1  0
 21 22  1  0
 21 61  1  0
 21 62  1  0
 22 23  1  0
 22 29  1  0
 22 63  1  6
 23 24  1  0
 23 64  1  0
 23 65  1  0
 24 25  1  0
 24 26  1  0
 24 66  1  1
 25 67  1  0
 26 27  1  0
 26 68  1  6
 27 28  1  6
 28 69  1  0
 28 70  1  0
 28 71  1  0
 29 30  1  0
 29 72  1  6
 30 73  1  0
 31 32  1  0
 32 33  2  0
 32 34  1  0
 34 35  1  0
 34 74  1  6
 35 75  1  1
M  END
>  <i_m_ct_stereo_status>  (249) 
1

>  <s_m_source_file>  (249) 
/var/tmp/pbs.5076255.sched01/tmp6zmtdo5c/111u4f9dq10.sdf

>  <i_m_source_file_index>  (249) 
8

>  <i_lp_mmshare_version>  (249) 
48012

>  <i_f3d_flags>  (249) 
0

>  <s_epik_input>  (249) 
W0NIM11bQ0hdKFtDSDNdKVtDQEhdKFtDSF09W0NIXTEpW0NAQEhdKFtDQF0xMltDSDNdKVtDQEBIXTNbQ0BIXShPMilbQ0BIXShPQzM9TylbQ0BASF00W0NAQEhdKFtPSF0pW0NIMl1bQ0BASF0oW0NIMl1PNSlbQ0BAXTQoW0NIM10pW0NASF0oW0NAQF01NjcpW0NASF0oW09IXSlbQ0gyXVtDQEhdKFtDSDJdW0NIMl02KVtDQEhdN1tPSF0=

>  <s_epik_cmdline>  (249) 
J2VwaWtfcHl0aG9uJywgJy1waHQnLCAnMi4wJywgJy1waCcsICc3LjAnLCAnLXRuJywgJzgnLCAnLW1hJywgJzIwMCcsICctaW1hZScsICc8aW5maWxlLm1hZT4nLCAnLW9tYWUnLCAnPG91dGZpbGUubWFlPic=

>  <r_lp_tautomer_probability>  (249) 
1

>  <r_epik_Ionization_Penalty>  (249) 
4.59411e-07

>  <r_epik_Ionization_Penalty_Charging>  (249) 
0

>  <r_epik_Ionization_Penalty_Neutral>  (249) 
4.59411e-07

>  <r_epik_State_Penalty>  (249) 
-0

>  <r_epik_Charging_Adjusted_Penalty>  (249) 
0

>  <i_epik_Tot_Q>  (249) 
0

>  <i_epik_Tot_abs_Q>  (249) 
0

>  <s_epik_Chemistry_Notes>  (249) 
This compound has an ester and may undergo hydrolysis at high or low pH.

>  <s_lp_Force_Field>  (249) 
OPLS3e

>  <r_lp_Energy>  (249) 
69.4178

>  <b_lp_Chiralities_Consistent>  (249) 
1

>  <s_lp_Variant>  (249) 
95:0-1

>  <s_i_glide_gridfile>  (249) 
pfpi4k_grid

>  <i_i_glide_lignum>  (249) 
8

>  <i_i_glide_rotatable_bonds>  (249) 
5

>  <r_i_docking_score>  (249) 
-3.6329

>  <r_i_glide_ligand_efficiency>  (249) 
-0.103797

>  <r_i_glide_ligand_efficiency_sa>  (249) 
-0.339527

>  <r_i_glide_ligand_efficiency_ln>  (249) 
-0.797502

>  <r_i_glide_gscore>  (249) 
-3.6329

>  <r_i_glide_lipo>  (249) 
-0.360154

>  <r_i_glide_hbond>  (249) 
-0.533225

>  <r_i_glide_metal>  (249) 
-0

>  <r_i_glide_rewards>  (249) 
-0.0776386

>  <r_i_glide_evdw>  (249) 
-19.5265

>  <r_i_glide_ecoul>  (249) 
-11.3346

>  <r_i_glide_erotb>  (249) 
0.0851866

>  <r_i_glide_esite>  (249) 
-0.0705485

>  <r_i_glide_emodel>  (249) 
-33.3247

>  <r_i_glide_energy>  (249) 
-30.8611

>  <r_i_glide_einternal>  (249) 
6.67069

>  <r_i_glide_intrahb_reward>  (249) 
-0

>  <i_i_glide_confnum>  (249) 
1

>  <i_i_glide_posenum>  (249) 
2

>  <r_i_glide_eff_state_penalty>  (249) 
0

>  <ligand_id>  (249) 
95

>  <original_smiles>  (249) 
CC(C)C1C=CC2(C)OC3C(C4C(O)CC5COC67CCC(CC(O)C6C54C)C7O)OC(=O)C3C12

>  <smiles>  (249) 
[H]OC1([H])C([H])([H])C2([H])C([H])([H])OC34C([H])([H])C([H])([H])C([H])(C([H])([H])C([H])(O[H])C3([H])C2(C([H])([H])[H])C1([H])C1([H])OC(=O)C2([H])C1([H])OC1(C([H])([H])[H])C([H])=C([H])C([H])(C([H])(C([H])([H])[H])C([H])([H])[H])C21[H])C4([H])O[H]

$$$$
95:0:1
     RDKit          3D

 75 81  0  0  1  0  0  0  0  0999 V2000
    4.8664   -4.1640   -3.7176 C   0  0  0  0  0  0  0  0  0  0  0  0
    4.1868   -3.0687   -2.8806 C   0  0  0  0  0  0  0  0  0  0  0  0
    3.8181   -1.8698   -3.7640 C   0  0  0  0  0  0  0  0  0  0  0  0
    4.9868   -2.6171   -1.6274 C   0  0  2  0  0  0  0  0  0  0  0  0
    6.5106   -2.6227   -1.7862 C   0  0  0  0  0  0  0  0  0  0  0  0
    7.1350   -2.9812   -0.6502 C   0  0  0  0  0  0  0  0  0  0  0  0
    6.1111   -3.1472    0.4426 C   0  0  2  0  0  0  0  0  0  0  0  0
    6.0138   -1.8205    1.2414 C   0  0  0  0  0  0  0  0  0  0  0  0
    6.0978   -4.2696    1.3131 O   0  0  0  0  0  0  0  0  0  0  0  0
    4.7079   -4.4334    1.6947 C   0  0  2  0  0  0  0  0  0  0  0  0
    4.3152   -5.9284    1.6795 C   0  0  1  0  0  0  0  0  0  0  0  0
    4.1879   -6.5949    3.0817 C   0  0  2  0  0  0  0  0  0  0  0  0
    5.4734   -6.3362    3.9080 C   0  0  1  0  0  0  0  0  0  0  0  0
    5.3356   -5.2432    4.7898 O   0  0  0  0  0  0  0  0  0  0  0  0
    5.7575   -7.6058    4.6965 C   0  0  0  0  0  0  0  0  0  0  0  0
    5.2432   -8.6993    3.7710 C   0  0  1  0  0  0  0  0  0  0  0  0
    5.1171  -10.0799    4.4365 C   0  0  0  0  0  0  0  0  0  0  0  0
    4.1087  -10.0753    5.4345 O   0  0  0  0  0  0  0  0  0  0  0  0
    2.7960   -9.7888    4.9560 C   0  0  1  0  0  0  0  0  0  0  0  0
    1.9348   -9.6502    6.2329 C   0  0  0  0  0  0  0  0  0  0  0  0
    0.4994  -10.0569    5.8397 C   0  0  0  0  0  0  0  0  0  0  0  0
    0.6214  -10.5163    4.3851 C   0  0  1  0  0  0  0  0  0  0  0  0
    0.3813   -9.3441    3.3995 C   0  0  0  0  0  0  0  0  0  0  0  0
    1.3172   -8.1183    3.5965 C   0  0  1  0  0  0  0  0  0  0  0  0
    0.6719   -7.1761    4.4317 O   0  0  0  0  0  0  0  0  0  0  0  0
    2.7442   -8.4464    4.1494 C   0  0  2  0  0  0  0  0  0  0  0  0
    3.9312   -8.1554    3.1502 C   0  0  1  0  0  0  0  0  0  0  0  0
    3.7513   -8.8245    1.7576 C   0  0  0  0  0  0  0  0  0  0  0  0
    2.0712  -10.9982    4.3255 C   0  0  1  0  0  0  0  0  0  0  0  0
    2.4227  -11.3615    3.0160 O   0  0  0  0  0  0  0  0  0  0  0  0
    3.0953   -5.9544    0.9559 O   0  0  0  0  0  0  0  0  0  0  0  0
    2.8158   -4.8321    0.2967 C   0  0  0  0  0  0  0  0  0  0  0  0
    1.8481   -4.6575   -0.4311 O   0  0  0  0  0  0  0  0  0  0  0  0
    3.8448   -3.7654    0.6094 C   0  0  2  0  0  0  0  0  0  0  0  0
    4.9313   -3.5626   -0.4204 C   0  0  1  0  0  0  0  0  0  0  0  0
    5.8393   -3.8586   -4.0945 H   0  0  0  0  0  0  0  0  0  0  0  0
    4.2608   -4.4332   -4.5835 H   0  0  0  0  0  0  0  0  0  0  0  0
    5.0165   -5.0570   -3.1198 H   0  0  0  0  0  0  0  0  0  0  0  0
    3.2396   -3.4824   -2.5266 H   0  0  0  0  0  0  0  0  0  0  0  0
    4.7006   -1.3865   -4.1802 H   0  0  0  0  0  0  0  0  0  0  0  0
    3.2652   -1.1268   -3.1916 H   0  0  0  0  0  0  0  0  0  0  0  0
    3.1789   -2.1808   -4.5898 H   0  0  0  0  0  0  0  0  0  0  0  0
    4.6539   -1.6219   -1.3197 H   0  0  0  0  0  0  0  0  0  0  0  0
    7.0086   -2.3868   -2.7112 H   0  0  0  0  0  0  0  0  0  0  0  0
    8.1981   -3.0535   -0.4973 H   0  0  0  0  0  0  0  0  0  0  0  0
    5.8796   -0.9650    0.5788 H   0  0  0  0  0  0  0  0  0  0  0  0
    6.9409   -1.6470    1.7847 H   0  0  0  0  0  0  0  0  0  0  0  0
    5.1963   -1.8050    1.9632 H   0  0  0  0  0  0  0  0  0  0  0  0
    4.5002   -3.9480    2.6489 H   0  0  0  0  0  0  0  0  0  0  0  0
    5.0542   -6.4692    1.0870 H   0  0  0  0  0  0  0  0  0  0  0  0
    3.3665   -6.0839    3.5892 H   0  0  0  0  0  0  0  0  0  0  0  0
    6.3195   -6.1622    3.2384 H   0  0  0  0  0  0  0  0  0  0  0  0
    5.2740   -4.4499    4.2746 H   0  0  0  0  0  0  0  0  0  0  0  0
    6.8196   -7.7142    4.9217 H   0  0  0  0  0  0  0  0  0  0  0  0
    5.2152   -7.6084    5.6427 H   0  0  0  0  0  0  0  0  0  0  0  0
    5.9821   -8.7863    2.9741 H   0  0  0  0  0  0  0  0  0  0  0  0
    4.9153  -10.8512    3.6940 H   0  0  0  0  0  0  0  0  0  0  0  0
    6.0649  -10.3505    4.9071 H   0  0  0  0  0  0  0  0  0  0  0  0
    2.3018  -10.3506    6.9838 H   0  0  0  0  0  0  0  0  0  0  0  0
    1.9824   -8.6603    6.6874 H   0  0  0  0  0  0  0  0  0  0  0  0
    0.1560  -10.8866    6.4566 H   0  0  0  0  0  0  0  0  0  0  0  0
   -0.2276   -9.2529    5.9651 H   0  0  0  0  0  0  0  0  0  0  0  0
   -0.0738  -11.3274    4.1608 H   0  0  0  0  0  0  0  0  0  0  0  0
    0.5100   -9.7173    2.3831 H   0  0  0  0  0  0  0  0  0  0  0  0
   -0.6633   -9.0289    3.4533 H   0  0  0  0  0  0  0  0  0  0  0  0
    1.4016   -7.5981    2.6444 H   0  0  0  0  0  0  0  0  0  0  0  0
    0.5260   -7.5830    5.2768 H   0  0  0  0  0  0  0  0  0  0  0  0
    2.9239   -7.7121    4.9367 H   0  0  0  0  0  0  0  0  0  0  0  0
    3.9048   -9.8953    1.8032 H   0  0  0  0  0  0  0  0  0  0  0  0
    4.4902   -8.4858    1.0362 H   0  0  0  0  0  0  0  0  0  0  0  0
    2.7697   -8.6558    1.3217 H   0  0  0  0  0  0  0  0  0  0  0  0
    2.1991  -11.8823    4.9557 H   0  0  0  0  0  0  0  0  0  0  0  0
    2.1984  -12.2740    2.8821 H   0  0  0  0  0  0  0  0  0  0  0  0
    3.3935   -2.8311    0.9358 H   0  0  0  0  0  0  0  0  0  0  0  0
    5.1384   -4.5571   -0.8318 H   0  0  0  0  0  0  0  0  0  0  0  0
  1  2  1  0
  1 36  1  0
  1 37  1  0
  1 38  1  0
  2  3  1  0
  2  4  1  0
  2 39  1  0
  3 40  1  0
  3 41  1  0
  3 42  1  0
  4 35  1  0
  4  5  1  0
  4 43  1  1
  5  6  2  0
  5 44  1  0
  6  7  1  0
  6 45  1  0
  7 35  1  0
  7  8  1  1
  7  9  1  0
  8 46  1  0
  8 47  1  0
  8 48  1  0
  9 10  1  0
 10 34  1  0
 10 11  1  0
 10 49  1  1
 11 12  1  0
 11 31  1  0
 11 50  1  6
 12 27  1  0
 12 13  1  0
 12 51  1  1
 13 14  1  0
 13 15  1  0
 13 52  1  6
 14 53  1  0
 15 16  1  0
 15 54  1  0
 15 55  1  0
 16 27  1  0
 16 17  1  0
 16 56  1  6
 17 18  1  0
 17 57  1  0
 17 58  1  0
 19 18  1  1
 19 26  1  0
 19 29  1  0
 19 20  1  0
 20 21  1  0
 20 59  1  0
 20 60  1  0
 21 22  1  0
 21 61  1  0
 21 62  1  0
 22 23  1  0
 22 29  1  0
 22 63  1  6
 23 24  1  0
 23 64  1  0
 23 65  1  0
 24 25  1  0
 24 26  1  0
 24 66  1  6
 25 67  1  0
 26 27  1  0
 26 68  1  1
 27 28  1  6
 28 69  1  0
 28 70  1  0
 28 71  1  0
 29 30  1  0
 29 72  1  1
 30 73  1  0
 31 32  1  0
 32 33  2  0
 32 34  1  0
 34 35  1  0
 34 74  1  1
 35 75  1  6
M  END
>  <i_m_ct_stereo_status>  (250) 
1

>  <s_m_source_file>  (250) 
/var/tmp/pbs.5076255.sched01/tmp6zmtdo5c/111u4f9dq10.sdf

>  <i_m_source_file_index>  (250) 
8

>  <i_lp_mmshare_version>  (250) 
48012

>  <i_f3d_flags>  (250) 
0

>  <s_epik_input>  (250) 
W0NIM11bQ0hdKFtDSDNdKVtDQEhdKFtDSF09W0NIXTEpW0NAQEhdKFtDQF0xMltDSDNdKVtDQEBIXTNbQ0BIXShPMilbQ0BIXShPQzM9TylbQ0BASF00W0NAQEhdKFtPSF0pW0NIMl1bQ0BASF0oW0NIMl1PNSlbQ0BAXTQoW0NIM10pW0NASF0oW0NAQF01NjcpW0NASF0oW09IXSlbQ0gyXVtDQEhdKFtDSDJdW0NIMl02KVtDQEhdN1tPSF0=

>  <s_epik_cmdline>  (250) 
J2VwaWtfcHl0aG9uJywgJy1waHQnLCAnMi4wJywgJy1waCcsICc3LjAnLCAnLXRuJywgJzgnLCAnLW1hJywgJzIwMCcsICctaW1hZScsICc8aW5maWxlLm1hZT4nLCAnLW9tYWUnLCAnPG91dGZpbGUubWFlPic=

>  <r_lp_tautomer_probability>  (250) 
1

>  <r_epik_Ionization_Penalty>  (250) 
4.59411e-07

>  <r_epik_Ionization_Penalty_Charging>  (250) 
0

>  <r_epik_Ionization_Penalty_Neutral>  (250) 
4.59411e-07

>  <r_epik_State_Penalty>  (250) 
-0

>  <r_epik_Charging_Adjusted_Penalty>  (250) 
0

>  <i_epik_Tot_Q>  (250) 
0

>  <i_epik_Tot_abs_Q>  (250) 
0

>  <s_epik_Chemistry_Notes>  (250) 
This compound has an ester and may undergo hydrolysis at high or low pH.

>  <s_lp_Force_Field>  (250) 
OPLS3e

>  <r_lp_Energy>  (250) 
69.4178

>  <b_lp_Chiralities_Consistent>  (250) 
1

>  <s_lp_Variant>  (250) 
95:0-1

>  <s_i_glide_gridfile>  (250) 
pfpi4k_grid

>  <i_i_glide_lignum>  (250) 
8

>  <i_i_glide_rotatable_bonds>  (250) 
5

>  <r_i_docking_score>  (250) 
-2.46127

>  <r_i_glide_ligand_efficiency>  (250) 
-0.0703221

>  <r_i_glide_ligand_efficiency_sa>  (250) 
-0.230028

>  <r_i_glide_ligand_efficiency_ln>  (250) 
-0.540304

>  <r_i_glide_gscore>  (250) 
-2.46127

>  <r_i_glide_lipo>  (250) 
-0.560124

>  <r_i_glide_hbond>  (250) 
-0.0168461

>  <r_i_glide_metal>  (250) 
-0

>  <r_i_glide_rewards>  (250) 
-0.0776386

>  <r_i_glide_evdw>  (250) 
-28.182

>  <r_i_glide_ecoul>  (250) 
-2.97991

>  <r_i_glide_erotb>  (250) 
0.0851866

>  <r_i_glide_esite>  (250) 
-0.0357643

>  <r_i_glide_emodel>  (250) 
-34.7127

>  <r_i_glide_energy>  (250) 
-31.1619

>  <r_i_glide_einternal>  (250) 
2.54422

>  <r_i_glide_intrahb_reward>  (250) 
-0

>  <i_i_glide_confnum>  (250) 
2

>  <i_i_glide_posenum>  (250) 
28

>  <r_i_glide_eff_state_penalty>  (250) 
0

>  <ligand_id>  (250) 
95

>  <original_smiles>  (250) 
CC(C)C1C=CC2(C)OC3C(C4C(O)CC5COC67CCC(CC(O)C6C54C)C7O)OC(=O)C3C12

>  <smiles>  (250) 
[H]OC1([H])C([H])([H])C2([H])C([H])([H])OC34C([H])([H])C([H])([H])C([H])(C([H])([H])C([H])(O[H])C3([H])C2(C([H])([H])[H])C1([H])C1([H])OC(=O)C2([H])C1([H])OC1(C([H])([H])[H])C([H])=C([H])C([H])(C([H])(C([H])([H])[H])C([H])([H])[H])C21[H])C4([H])O[H]

$$$$
95:0:2
     RDKit          3D

 75 81  0  0  1  0  0  0  0  0999 V2000
    4.8491   -4.1703   -3.6867 C   0  0  0  0  0  0  0  0  0  0  0  0
    4.1743   -3.0809   -2.8385 C   0  0  0  0  0  0  0  0  0  0  0  0
    3.7795   -1.8882   -3.7188 C   0  0  0  0  0  0  0  0  0  0  0  0
    4.9933   -2.6188   -1.6031 C   0  0  2  0  0  0  0  0  0  0  0  0
    6.5155   -2.6406   -1.7777 C   0  0  0  0  0  0  0  0  0  0  0  0
    7.1486   -2.9898   -0.6461 C   0  0  0  0  0  0  0  0  0  0  0  0
    6.1355   -3.1311    0.4607 C   0  0  2  0  0  0  0  0  0  0  0  0
    6.0626   -1.7921    1.2410 C   0  0  0  0  0  0  0  0  0  0  0  0
    6.1204   -4.2411    1.3458 O   0  0  0  0  0  0  0  0  0  0  0  0
    4.7351   -4.3876    1.7487 C   0  0  2  0  0  0  0  0  0  0  0  0
    4.3318   -5.8810    1.7653 C   0  0  1  0  0  0  0  0  0  0  0  0
    4.2137   -6.5199    3.1779 C   0  0  2  0  0  0  0  0  0  0  0  0
    5.5270   -6.2946    3.9659 C   0  0  1  0  0  0  0  0  0  0  0  0
    5.4481   -5.1820    4.8331 O   0  0  0  0  0  0  0  0  0  0  0  0
    5.7861   -7.5608    4.7660 C   0  0  0  0  0  0  0  0  0  0  0  0
    5.2139   -8.6492    3.8688 C   0  0  1  0  0  0  0  0  0  0  0  0
    5.0609  -10.0159    4.5571 C   0  0  0  0  0  0  0  0  0  0  0  0
    4.0769   -9.9669    5.5793 O   0  0  0  0  0  0  0  0  0  0  0  0
    2.7634   -9.6405    5.1323 C   0  0  1  0  0  0  0  0  0  0  0  0
    1.9354   -9.4650    6.4275 C   0  0  0  0  0  0  0  0  0  0  0  0
    0.4801   -9.8292    6.0666 C   0  0  0  0  0  0  0  0  0  0  0  0
    0.5589  -10.2988    4.6125 C   0  0  1  0  0  0  0  0  0  0  0  0
    0.3301   -9.1311    3.6198 C   0  0  0  0  0  0  0  0  0  0  0  0
    1.3096   -7.9367    3.7789 C   0  0  1  0  0  0  0  0  0  0  0  0
    0.7095   -6.9653    4.6164 O   0  0  0  0  0  0  0  0  0  0  0  0
    2.7361   -8.3050    4.3072 C   0  0  2  0  0  0  0  0  0  0  0  0
    3.9069   -8.0713    3.2730 C   0  0  1  0  0  0  0  0  0  0  0  0
    3.6722   -8.7483    1.8917 C   0  0  0  0  0  0  0  0  0  0  0  0
    1.9852  -10.8281    4.5285 C   0  0  1  0  0  0  0  0  0  0  0  0
    2.2820  -11.2002    3.2086 O   0  0  0  0  0  0  0  0  0  0  0  0
    3.1044   -5.9085    1.0611 O   0  0  0  0  0  0  0  0  0  0  0  0
    2.8289   -4.8054    0.3813 C   0  0  0  0  0  0  0  0  0  0  0  0
    1.8557   -4.6534   -0.3503 O   0  0  0  0  0  0  0  0  0  0  0  0
    3.8636   -3.7321    0.6621 C   0  0  2  0  0  0  0  0  0  0  0  0
    4.9399   -3.5481   -0.3823 C   0  0  1  0  0  0  0  0  0  0  0  0
    5.8108   -3.8536   -4.0855 H   0  0  0  0  0  0  0  0  0  0  0  0
    4.2274   -4.4520   -4.5359 H   0  0  0  0  0  0  0  0  0  0  0  0
    5.0128   -5.0597   -3.0900 H   0  0  0  0  0  0  0  0  0  0  0  0
    3.2378   -3.5022   -2.4664 H   0  0  0  0  0  0  0  0  0  0  0  0
    4.6496   -1.3992   -4.1530 H   0  0  0  0  0  0  0  0  0  0  0  0
    3.2309   -1.1488   -3.1379 H   0  0  0  0  0  0  0  0  0  0  0  0
    3.1275   -2.2082   -4.5308 H   0  0  0  0  0  0  0  0  0  0  0  0
    4.6736   -1.6152   -1.3043 H   0  0  0  0  0  0  0  0  0  0  0  0
    7.0055   -2.4213   -2.7098 H   0  0  0  0  0  0  0  0  0  0  0  0
    8.2143   -3.0673   -0.5032 H   0  0  0  0  0  0  0  0  0  0  0  0
    5.9281   -0.9458    0.5678 H   0  0  0  0  0  0  0  0  0  0  0  0
    7.0005   -1.6198    1.7674 H   0  0  0  0  0  0  0  0  0  0  0  0
    5.2557   -1.7585    1.9739 H   0  0  0  0  0  0  0  0  0  0  0  0
    4.5460   -3.8853    2.6981 H   0  0  0  0  0  0  0  0  0  0  0  0
    5.0559   -6.4371    1.1691 H   0  0  0  0  0  0  0  0  0  0  0  0
    3.4223   -5.9750    3.6929 H   0  0  0  0  0  0  0  0  0  0  0  0
    6.3603   -6.1578    3.2739 H   0  0  0  0  0  0  0  0  0  0  0  0
    5.4201   -4.3972    4.3100 H   0  0  0  0  0  0  0  0  0  0  0  0
    6.8483   -7.7041    4.9693 H   0  0  0  0  0  0  0  0  0  0  0  0
    5.2652   -7.5326    5.7233 H   0  0  0  0  0  0  0  0  0  0  0  0
    5.9306   -8.7707    3.0553 H   0  0  0  0  0  0  0  0  0  0  0  0
    4.8175  -10.7879    3.8283 H   0  0  0  0  0  0  0  0  0  0  0  0
    6.0104  -10.3119    5.0077 H   0  0  0  0  0  0  0  0  0  0  0  0
    2.2832  -10.1807    7.1754 H   0  0  0  0  0  0  0  0  0  0  0  0
    2.0254   -8.4721    6.8708 H   0  0  0  0  0  0  0  0  0  0  0  0
    0.1321  -10.6497    6.6952 H   0  0  0  0  0  0  0  0  0  0  0  0
   -0.2181   -9.0006    6.2004 H   0  0  0  0  0  0  0  0  0  0  0  0
   -0.1665  -11.0926    4.4053 H   0  0  0  0  0  0  0  0  0  0  0  0
    0.4198   -9.5224    2.6050 H   0  0  0  0  0  0  0  0  0  0  0  0
   -0.7026   -8.7852    3.6960 H   0  0  0  0  0  0  0  0  0  0  0  0
    1.3876   -7.4309    2.8184 H   0  0  0  0  0  0  0  0  0  0  0  0
    0.5561   -7.3593    5.4613 H   0  0  0  0  0  0  0  0  0  0  0  0
    2.9573   -7.5656    5.0772 H   0  0  0  0  0  0  0  0  0  0  0  0
    3.7957   -9.8228    1.9416 H   0  0  0  0  0  0  0  0  0  0  0  0
    4.4032   -8.4397    1.1492 H   0  0  0  0  0  0  0  0  0  0  0  0
    2.6860   -8.5531    1.4776 H   0  0  0  0  0  0  0  0  0  0  0  0
    2.0849  -11.7151    5.1601 H   0  0  0  0  0  0  0  0  0  0  0  0
    3.0473  -11.7549    3.2110 H   0  0  0  0  0  0  0  0  0  0  0  0
    3.4189   -2.7892    0.9787 H   0  0  0  0  0  0  0  0  0  0  0  0
    5.1339   -4.5498   -0.7838 H   0  0  0  0  0  0  0  0  0  0  0  0
  1  2  1  0
  1 36  1  0
  1 37  1  0
  1 38  1  0
  2  3  1  0
  2  4  1  0
  2 39  1  0
  3 40  1  0
  3 41  1  0
  3 42  1  0
  4 35  1  0
  4  5  1  0
  4 43  1  1
  5  6  2  0
  5 44  1  0
  6  7  1  0
  6 45  1  0
  7 35  1  0
  7  8  1  1
  7  9  1  0
  8 46  1  0
  8 47  1  0
  8 48  1  0
  9 10  1  0
 10 34  1  0
 10 11  1  0
 10 49  1  1
 11 12  1  0
 11 31  1  0
 11 50  1  6
 12 27  1  0
 12 13  1  0
 12 51  1  1
 13 14  1  0
 13 15  1  0
 13 52  1  6
 14 53  1  0
 15 16  1  0
 15 54  1  0
 15 55  1  0
 16 27  1  0
 16 17  1  0
 16 56  1  6
 17 18  1  0
 17 57  1  0
 17 58  1  0
 19 18  1  1
 19 26  1  0
 19 29  1  0
 19 20  1  0
 20 21  1  0
 20 59  1  0
 20 60  1  0
 21 22  1  0
 21 61  1  0
 21 62  1  0
 22 23  1  0
 22 29  1  0
 22 63  1  1
 23 24  1  0
 23 64  1  0
 23 65  1  0
 24 25  1  0
 24 26  1  0
 24 66  1  6
 25 67  1  0
 26 27  1  0
 26 68  1  1
 27 28  1  6
 28 69  1  0
 28 70  1  0
 28 71  1  0
 29 30  1  0
 29 72  1  1
 30 73  1  0
 31 32  1  0
 32 33  2  0
 32 34  1  0
 34 35  1  0
 34 74  1  1
 35 75  1  6
M  END
>  <i_m_ct_stereo_status>  (251) 
1

>  <s_m_source_file>  (251) 
/var/tmp/pbs.5076255.sched01/tmp6zmtdo5c/111u4f9dq10.sdf

>  <i_m_source_file_index>  (251) 
8

>  <i_lp_mmshare_version>  (251) 
48012

>  <i_f3d_flags>  (251) 
0

>  <s_epik_input>  (251) 
W0NIM11bQ0hdKFtDSDNdKVtDQEhdKFtDSF09W0NIXTEpW0NAQEhdKFtDQF0xMltDSDNdKVtDQEBIXTNbQ0BIXShPMilbQ0BIXShPQzM9TylbQ0BASF00W0NAQEhdKFtPSF0pW0NIMl1bQ0BASF0oW0NIMl1PNSlbQ0BAXTQoW0NIM10pW0NASF0oW0NAQF01NjcpW0NASF0oW09IXSlbQ0gyXVtDQEhdKFtDSDJdW0NIMl02KVtDQEhdN1tPSF0=

>  <s_epik_cmdline>  (251) 
J2VwaWtfcHl0aG9uJywgJy1waHQnLCAnMi4wJywgJy1waCcsICc3LjAnLCAnLXRuJywgJzgnLCAnLW1hJywgJzIwMCcsICctaW1hZScsICc8aW5maWxlLm1hZT4nLCAnLW9tYWUnLCAnPG91dGZpbGUubWFlPic=

>  <r_lp_tautomer_probability>  (251) 
1

>  <r_epik_Ionization_Penalty>  (251) 
4.59411e-07

>  <r_epik_Ionization_Penalty_Charging>  (251) 
0

>  <r_epik_Ionization_Penalty_Neutral>  (251) 
4.59411e-07

>  <r_epik_State_Penalty>  (251) 
-0

>  <r_epik_Charging_Adjusted_Penalty>  (251) 
0

>  <i_epik_Tot_Q>  (251) 
0

>  <i_epik_Tot_abs_Q>  (251) 
0

>  <s_epik_Chemistry_Notes>  (251) 
This compound has an ester and may undergo hydrolysis at high or low pH.

>  <s_lp_Force_Field>  (251) 
OPLS3e

>  <r_lp_Energy>  (251) 
69.4178

>  <b_lp_Chiralities_Consistent>  (251) 
1

>  <s_lp_Variant>  (251) 
95:0-1

>  <s_i_glide_gridfile>  (251) 
pfpi4k_grid

>  <i_i_glide_lignum>  (251) 
8

>  <i_i_glide_rotatable_bonds>  (251) 
5

>  <r_i_docking_score>  (251) 
-2.36073

>  <r_i_glide_ligand_efficiency>  (251) 
-0.0674493

>  <r_i_glide_ligand_efficiency_sa>  (251) 
-0.220631

>  <r_i_glide_ligand_efficiency_ln>  (251) 
-0.518232

>  <r_i_glide_gscore>  (251) 
-2.36073

>  <r_i_glide_lipo>  (251) 
-0.577381

>  <r_i_glide_hbond>  (251) 
-0.0196819

>  <r_i_glide_metal>  (251) 
-0

>  <r_i_glide_rewards>  (251) 
-0.0776386

>  <r_i_glide_evdw>  (251) 
-28.3836

>  <r_i_glide_ecoul>  (251) 
-2.13446

>  <r_i_glide_erotb>  (251) 
0.0851866

>  <r_i_glide_esite>  (251) 
-0.0318622

>  <r_i_glide_emodel>  (251) 
-34.0223

>  <r_i_glide_energy>  (251) 
-30.5181

>  <r_i_glide_einternal>  (251) 
2.35922

>  <r_i_glide_intrahb_reward>  (251) 
-0

>  <i_i_glide_confnum>  (251) 
2

>  <i_i_glide_posenum>  (251) 
31

>  <r_i_glide_eff_state_penalty>  (251) 
0

>  <ligand_id>  (251) 
95

>  <original_smiles>  (251) 
CC(C)C1C=CC2(C)OC3C(C4C(O)CC5COC67CCC(CC(O)C6C54C)C7O)OC(=O)C3C12

>  <smiles>  (251) 
[H]OC1([H])C([H])([H])C2([H])C([H])([H])OC34C([H])([H])C([H])([H])C([H])(C([H])([H])C([H])(O[H])C3([H])C2(C([H])([H])[H])C1([H])C1([H])OC(=O)C2([H])C1([H])OC1(C([H])([H])[H])C([H])=C([H])C([H])(C([H])(C([H])([H])[H])C([H])([H])[H])C21[H])C4([H])O[H]

$$$$
96:0:0
     RDKit          3D

119129  0  0  1  0  0  0  0  0999 V2000
    5.9897   -4.2935   -0.1762 C   0  0  0  0  0  0  0  0  0  0  0  0
    7.3056   -4.2730    0.0708 C   0  0  0  0  0  0  0  0  0  0  0  0
    8.2414   -3.5220   -0.8536 C   0  0  0  0  0  0  0  0  0  0  0  0
    7.9501   -4.9954    1.2536 C   0  0  0  0  0  0  0  0  0  0  0  0
    6.9505   -5.4597    2.3369 C   0  0  0  0  0  0  0  0  0  0  0  0
    7.6225   -6.0487    3.6103 C   0  0  0  0  0  0  0  0  0  0  0  0
    6.6646   -6.2037    4.8792 C   0  0  2  0  0  0  0  0  0  0  0  0
    7.3963   -6.0070    6.4617 C   0  0  0  0  0  0  0  0  0  0  0  0
    6.4824   -5.8658    7.9620 C   0  0  1  0  0  0  0  0  0  0  0  0
    7.3099   -6.5369    9.1081 C   0  0  0  0  0  0  0  0  0  0  0  0
    5.5276   -4.7720    8.8140 C   0  0  1  0  0  0  0  0  0  0  0  0
    6.2659   -3.5607    9.4414 C   0  0  0  0  0  0  0  0  0  0  0  0
    3.8896   -4.4820    8.6303 C   0  0  0  0  0  0  0  0  0  0  0  0
    2.8938   -4.9158    7.5507 O   0  0  0  0  0  0  0  0  0  0  0  0
    2.7598   -6.0601    6.5237 C   0  0  2  0  0  0  0  0  0  0  0  0
    2.8123   -7.1545    7.4864 C   0  0  2  0  0  0  0  0  0  0  0  0
    4.1152   -6.9123    8.1384 O   0  0  0  0  0  0  0  0  0  0  0  0
    5.2715   -6.4080    7.3255 C   0  0  2  0  0  0  0  0  0  0  0  0
    5.7457   -8.0776    7.1756 C   0  0  1  0  0  0  0  0  0  0  0  0
    4.6105   -8.9626    7.2474 O   0  0  0  0  0  0  0  0  0  0  0  0
    3.5066   -9.3048    6.4305 C   0  0  1  0  0  0  0  0  0  0  0  0
    3.3967  -10.6229    6.9777 O   0  0  0  0  0  0  0  0  0  0  0  0
    2.3004   -8.5918    6.9955 C   0  0  1  0  0  0  0  0  0  0  0  0
    1.7416   -9.2315    8.3215 C   0  0  0  0  0  0  0  0  0  0  0  0
    1.1903   -8.8660    5.8977 C   0  0  0  0  0  0  0  0  0  0  0  0
    1.3326  -10.2380    5.0633 C   0  0  0  0  0  0  0  0  0  0  0  0
    2.7779  -10.6763    4.5068 C   0  0  1  0  0  0  0  0  0  0  0  0
    2.6064  -11.2687    3.2299 O   0  0  0  0  0  0  0  0  0  0  0  0
    3.6962   -9.3832    4.7052 C   0  0  1  0  0  0  0  0  0  0  0  0
    3.1269   -8.6762    3.3918 C   0  0  0  0  0  0  0  0  0  0  0  0
    5.1768   -8.8312    4.6393 C   0  0  2  0  0  0  0  0  0  0  0  0
    6.4612   -8.8816    3.7895 C   0  0  0  0  0  0  0  0  0  0  0  0
    7.6332   -8.7703    4.9276 C   0  0  0  0  0  0  0  0  0  0  0  0
    7.0414   -8.8926    6.4520 C   0  0  1  0  0  0  0  0  0  0  0  0
    8.1439   -8.9662    7.3259 O   0  0  0  0  0  0  0  0  0  0  0  0
    6.5551  -10.1520    6.4349 O   0  0  0  0  0  0  0  0  0  0  0  0
    5.7329  -10.2541    5.3060 C   0  0  0  0  0  0  0  0  0  0  0  0
    5.1597   -7.0195    4.7758 C   0  0  2  0  0  0  0  0  0  0  0  0
    5.0769   -6.2296    5.8954 O   0  0  0  0  0  0  0  0  0  0  0  0
    5.1510   -4.8233    6.3070 C   0  0  2  0  0  0  0  0  0  0  0  0
    6.2869   -3.6338    6.3744 C   0  0  0  0  0  0  0  0  0  0  0  0
    4.0099   -3.8356    5.4922 C   0  0  1  0  0  0  0  0  0  0  0  0
    4.2434   -2.4461    5.5510 O   0  0  0  0  0  0  0  0  0  0  0  0
    3.1064   -1.5732    5.5404 C   0  0  0  0  0  0  0  0  0  0  0  0
    3.8073   -4.1708    4.1255 N   0  0  0  0  0  0  0  0  0  0  0  0
    3.3515   -5.4189    3.8911 C   0  0  0  0  0  0  0  0  0  0  0  0
    2.8649   -5.4816    2.5990 C   0  0  0  0  0  0  0  0  0  0  0  0
    3.1590   -4.2165    1.9829 C   0  0  0  0  0  0  0  0  0  0  0  0
    2.9856   -3.6513    0.6792 C   0  0  0  0  0  0  0  0  0  0  0  0
    2.4059   -4.4136   -0.4768 C   0  0  0  0  0  0  0  0  0  0  0  0
    3.4544   -2.4037    0.4156 N   0  0  0  0  0  0  0  0  0  0  0  0
    4.0985   -1.6490    1.3107 C   0  0  0  0  0  0  0  0  0  0  0  0
    4.5933   -0.2799    0.8783 C   0  0  0  0  0  0  0  0  0  0  0  0
    4.2984   -2.1331    2.6223 C   0  0  0  0  0  0  0  0  0  0  0  0
    3.8179   -3.4239    2.9488 C   0  0  0  0  0  0  0  0  0  0  0  0
    3.5740   -6.3873    5.0262 C   0  0  2  0  0  0  0  0  0  0  0  0
    5.5507   -3.7653   -1.0120 H   0  0  0  0  0  0  0  0  0  0  0  0
    5.3242   -4.8568    0.4549 H   0  0  0  0  0  0  0  0  0  0  0  0
    8.9792   -4.2053   -1.2694 H   0  0  0  0  0  0  0  0  0  0  0  0
    8.7503   -2.7201   -0.3191 H   0  0  0  0  0  0  0  0  0  0  0  0
    7.6838   -3.0905   -1.6849 H   0  0  0  0  0  0  0  0  0  0  0  0
    8.5163   -5.8447    0.8666 H   0  0  0  0  0  0  0  0  0  0  0  0
    8.6697   -4.3100    1.7058 H   0  0  0  0  0  0  0  0  0  0  0  0
    6.3315   -4.6004    2.5792 H   0  0  0  0  0  0  0  0  0  0  0  0
    6.2712   -6.2130    1.9304 H   0  0  0  0  0  0  0  0  0  0  0  0
    8.1728   -6.9076    3.2199 H   0  0  0  0  0  0  0  0  0  0  0  0
    8.4186   -5.4112    3.9856 H   0  0  0  0  0  0  0  0  0  0  0  0
    6.4310   -5.2053    4.5537 H   0  0  0  0  0  0  0  0  0  0  0  0
    8.1402   -6.7627    6.6028 H   0  0  0  0  0  0  0  0  0  0  0  0
    8.1652   -5.2483    6.3774 H   0  0  0  0  0  0  0  0  0  0  0  0
    6.7115   -7.1279    9.8014 H   0  0  0  0  0  0  0  0  0  0  0  0
    7.8008   -5.7775    9.7119 H   0  0  0  0  0  0  0  0  0  0  0  0
    8.1400   -7.1333    8.7681 H   0  0  0  0  0  0  0  0  0  0  0  0
    5.4010   -5.3585    9.7203 H   0  0  0  0  0  0  0  0  0  0  0  0
    5.9805   -2.6108    8.9945 H   0  0  0  0  0  0  0  0  0  0  0  0
    7.3489   -3.6477    9.3670 H   0  0  0  0  0  0  0  0  0  0  0  0
    6.0234   -3.4675   10.4982 H   0  0  0  0  0  0  0  0  0  0  0  0
    3.4119   -4.7860    9.5616 H   0  0  0  0  0  0  0  0  0  0  0  0
    3.7750   -3.3992    8.6393 H   0  0  0  0  0  0  0  0  0  0  0  0
    1.7233   -5.9579    6.2209 H   0  0  0  0  0  0  0  0  0  0  0  0
    2.1057   -6.8728    8.2672 H   0  0  0  0  0  0  0  0  0  0  0  0
    5.9802   -8.3354    8.2013 H   0  0  0  0  0  0  0  0  0  0  0  0
    2.4907  -10.9150    6.9791 H   0  0  0  0  0  0  0  0  0  0  0  0
    1.3361  -10.2283    8.1887 H   0  0  0  0  0  0  0  0  0  0  0  0
    0.9113   -8.6438    8.7131 H   0  0  0  0  0  0  0  0  0  0  0  0
    2.5060   -9.2656    9.0974 H   0  0  0  0  0  0  0  0  0  0  0  0
    0.2146   -8.8879    6.3876 H   0  0  0  0  0  0  0  0  0  0  0  0
    1.0693   -8.0306    5.2102 H   0  0  0  0  0  0  0  0  0  0  0  0
    0.9515  -11.0599    5.6693 H   0  0  0  0  0  0  0  0  0  0  0  0
    0.6257  -10.1823    4.2358 H   0  0  0  0  0  0  0  0  0  0  0  0
    3.1225  -11.5955    4.9906 H   0  0  0  0  0  0  0  0  0  0  0  0
    2.2269  -12.1273    3.3448 H   0  0  0  0  0  0  0  0  0  0  0  0
    3.3371   -9.2600    2.4969 H   0  0  0  0  0  0  0  0  0  0  0  0
    3.6950   -7.8343    3.0253 H   0  0  0  0  0  0  0  0  0  0  0  0
    2.0611   -8.4716    3.3501 H   0  0  0  0  0  0  0  0  0  0  0  0
    6.5869   -9.7365    3.1110 H   0  0  0  0  0  0  0  0  0  0  0  0
    6.4231   -8.0992    3.0454 H   0  0  0  0  0  0  0  0  0  0  0  0
    8.2720   -9.6458    4.7867 H   0  0  0  0  0  0  0  0  0  0  0  0
    8.3693   -7.9811    4.8740 H   0  0  0  0  0  0  0  0  0  0  0  0
    7.8219   -9.2560    8.1634 H   0  0  0  0  0  0  0  0  0  0  0  0
    5.0532  -11.0620    5.5070 H   0  0  0  0  0  0  0  0  0  0  0  0
    6.2782  -10.9263    4.6423 H   0  0  0  0  0  0  0  0  0  0  0  0
    5.9055   -2.7543    6.8831 H   0  0  0  0  0  0  0  0  0  0  0  0
    6.6026   -3.3021    5.3891 H   0  0  0  0  0  0  0  0  0  0  0  0
    7.1805   -3.6916    6.9871 H   0  0  0  0  0  0  0  0  0  0  0  0
    2.9905   -3.8096    5.8188 H   0  0  0  0  0  0  0  0  0  0  0  0
    3.4473   -0.5399    5.5527 H   0  0  0  0  0  0  0  0  0  0  0  0
    2.4425   -1.7117    6.3972 H   0  0  0  0  0  0  0  0  0  0  0  0
    2.5010   -1.6933    4.6414 H   0  0  0  0  0  0  0  0  0  0  0  0
    2.4208   -6.3359    2.1160 H   0  0  0  0  0  0  0  0  0  0  0  0
    2.4080   -5.4878   -0.2876 H   0  0  0  0  0  0  0  0  0  0  0  0
    2.9998   -4.2384   -1.3712 H   0  0  0  0  0  0  0  0  0  0  0  0
    1.3973   -4.0886   -0.7200 H   0  0  0  0  0  0  0  0  0  0  0  0
    5.0685    0.2271    1.7152 H   0  0  0  0  0  0  0  0  0  0  0  0
    3.7500    0.3206    0.5394 H   0  0  0  0  0  0  0  0  0  0  0  0
    5.3178   -0.3599    0.0668 H   0  0  0  0  0  0  0  0  0  0  0  0
    4.8005   -1.5319    3.3574 H   0  0  0  0  0  0  0  0  0  0  0  0
    2.8115   -7.0752    4.8374 H   0  0  0  0  0  0  0  0  0  0  0  0
    3.3463   -2.0438   -0.5365 H   0  0  0  0  0  0  0  0  0  0  0  0
  1  2  2  0
  1 57  1  0
  1 58  1  0
  2  3  1  0
  2  4  1  0
  3 59  1  0
  3 60  1  0
  3 61  1  0
  4  5  1  0
  4 62  1  0
  4 63  1  0
  5  6  1  0
  5 64  1  0
  5 65  1  0
  6  7  1  0
  6 66  1  0
  6 67  1  0
  7 38  1  0
  7  8  1  0
  7 68  1  6
  8  9  1  0
  8 69  1  0
  8 70  1  0
  9 18  1  0
  9 10  1  1
  9 11  1  0
 10 71  1  0
 10 72  1  0
 10 73  1  0
 11 12  1  0
 11 13  1  0
 11 74  1  1
 12 75  1  0
 12 76  1  0
 12 77  1  0
 13 14  1  0
 13 78  1  0
 13 79  1  0
 14 15  1  0
 15 56  1  0
 15 16  1  0
 15 80  1  6
 16 23  1  0
 16 17  1  0
 16 81  1  1
 18 17  1  1
 18 40  1  0
 18 19  1  0
 19 34  1  0
 19 20  1  0
 19 82  1  1
 20 21  1  0
 21 29  1  0
 21 22  1  1
 21 23  1  0
 22 83  1  0
 23 24  1  1
 23 25  1  0
 24 84  1  0
 24 85  1  0
 24 86  1  0
 25 26  1  0
 25 87  1  0
 25 88  1  0
 26 27  1  0
 26 89  1  0
 26 90  1  0
 27 28  1  0
 27 29  1  0
 27 91  1  1
 28 92  1  0
 29 30  1  6
 29 31  1  0
 30 93  1  0
 30 94  1  0
 30 95  1  0
 31 37  1  1
 31 32  1  0
 31 38  1  0
 32 33  1  0
 32 96  1  0
 32 97  1  0
 33 34  1  0
 33 98  1  0
 33 99  1  0
 34 35  1  1
 34 36  1  0
 35100  1  0
 36 37  1  0
 37101  1  0
 37102  1  0
 38 56  1  0
 38 39  1  6
 39 40  1  0
 40 41  1  6
 40 42  1  0
 41103  1  0
 41104  1  0
 41105  1  0
 42 43  1  0
 42 45  1  0
 42106  1  1
 43 44  1  0
 44107  1  0
 44108  1  0
 44109  1  0
 45 55  1  0
 45 46  1  0
 46 47  2  0
 46 56  1  0
 47 48  1  0
 47110  1  0
 48 55  2  0
 48 49  1  0
 49 50  1  0
 49 51  2  0
 50111  1  0
 50112  1  0
 50113  1  0
 51 52  1  0
 51119  1  0
 52 53  1  0
 52 54  2  0
 53114  1  0
 53115  1  0
 53116  1  0
 54 55  1  0
 54117  1  0
 56118  1  6
M  CHG  1  51   1
M  END
>  <i_m_ct_stereo_status>  (252) 
1

>  <s_m_source_file>  (252) 
/var/tmp/pbs.5076255.sched01/tmp6zmtdo5c/111u4f9dq10.sdf

>  <i_m_source_file_index>  (252) 
9

>  <i_lp_mmshare_version>  (252) 
48012

>  <i_f3d_flags>  (252) 
0

>  <s_epik_input>  (252) 
W0NIMl09QyhbQ0gzXSlbQ0gyXVtDSDJdW0NIMl1bQ0BIXShbQ0gyXVtDQEBdMShbQ0BdMjM0KVtDSDNdKUM1NltDQEBdNzhbQ0BdOShbQ0gzXSlbQ0BAXShbT0hdKShPW0NASF0zW0NAXShbT0hdKShbQ0gyXVtDSDJdNylPW0NIMl04KVtDQF0oW0NIM10pKFtDSDJdW0NIMl1bQ0BIXTlbT0hdKVtDQEBIXShPMilbQ0BASF0oT1tDSDJdW0NAQEhdMVtDSDNdKVtDSF02YzFuKFtDQEBIXShbQ0BAXTQoTzUpW0NIM10pT1tDSDNdKWMyYyhbY0hdMSljKFtDSDNdKW5jKFtDSDNdKVtjSF0y

>  <s_epik_cmdline>  (252) 
J2VwaWtfcHl0aG9uJywgJy1waHQnLCAnMi4wJywgJy1waCcsICc3LjAnLCAnLXRuJywgJzgnLCAnLW1hJywgJzIwMCcsICctaW1hZScsICc8aW5maWxlLm1hZT4nLCAnLW9tYWUnLCAnPG91dGZpbGUubWFlPic=

>  <r_lp_tautomer_probability>  (252) 
1

>  <r_epik_Ionization_Penalty>  (252) 
0.00588737

>  <r_epik_Ionization_Penalty_Charging>  (252) 
0.0058843

>  <r_epik_Ionization_Penalty_Neutral>  (252) 
3.06965e-06

>  <r_epik_State_Penalty>  (252) 
0.00432565

>  <r_epik_Charging_Adjusted_Penalty>  (252) 
0.0102099

>  <i_epik_Tot_Q>  (252) 
1

>  <i_epik_Tot_abs_Q>  (252) 
1

>  <s_epik_Chemistry_Notes>  (252) 
This compound contains an acetal/aminal-like group ( X-CH(R)-Y where X, Y are N, S, or O) that may be acid/base labile, releasing an aldehyde.

>  <s_lp_Force_Field>  (252) 
OPLS3e

>  <r_lp_Energy>  (252) 
1142.71

>  <b_lp_Chiralities_Consistent>  (252) 
1

>  <s_lp_Variant>  (252) 
96:0-1

>  <s_i_glide_gridfile>  (252) 
pfpi4k_grid

>  <i_i_glide_lignum>  (252) 
9

>  <i_i_glide_rotatable_bonds>  (252) 
8

>  <r_i_docking_score>  (252) 
-2.61019

>  <r_i_glide_ligand_efficiency>  (252) 
-0.0466105

>  <r_i_glide_ligand_efficiency_sa>  (252) 
-0.178325

>  <r_i_glide_ligand_efficiency_ln>  (252) 
-0.519404

>  <r_i_glide_gscore>  (252) 
-2.61019

>  <r_i_glide_lipo>  (252) 
-0.573609

>  <r_i_glide_hbond>  (252) 
0

>  <r_i_glide_metal>  (252) 
-0

>  <r_i_glide_rewards>  (252) 
0

>  <r_i_glide_evdw>  (252) 
-25.2187

>  <r_i_glide_ecoul>  (252) 
-5.77132

>  <r_i_glide_erotb>  (252) 
0.144169

>  <r_i_glide_esite>  (252) 
-0.0541129

>  <r_i_glide_emodel>  (252) 
-33.2402

>  <r_i_glide_energy>  (252) 
-30.99

>  <r_i_glide_einternal>  (252) 
4.3804

>  <r_i_glide_intrahb_reward>  (252) 
-0

>  <i_i_glide_confnum>  (252) 
4

>  <i_i_glide_posenum>  (252) 
22

>  <r_i_glide_eff_state_penalty>  (252) 
0

>  <ligand_id>  (252) 
96

>  <original_smiles>  (252) 
C=C(C)CCCC1CC2(C)C(C)COC3C4OC25C2OC6(O)C4(C)CCC(O)C6(C)C4(CCC2(O)OC4)C12OC5(C)C(OC)n1c(cc4c(C)nc(C)cc41)C32

>  <smiles>  (252) 
[H]OC1([H])C([H])([H])C([H])([H])C2(C([H])([H])[H])C3([H])OC45C6([H])OC2(O[H])C1(C([H])([H])[H])C1(C([H])([H])OC6(O[H])C([H])([H])C1([H])[H])C12OC4(C([H])([H])[H])C([H])(OC([H])([H])[H])n4c(c([H])c6c(C([H])([H])[H])[n+]([H])c(C([H])([H])[H])c([H])c64)C1([H])C3([H])OC([H])([H])C([H])(C([H])([H])[H])C5(C([H])([H])[H])C([H])([H])C2([H])C([H])([H])C([H])([H])C([H])([H])C(=C([H])[H])C([H])([H])[H]

$$$$
96:0:1
     RDKit          3D

119129  0  0  1  0  0  0  0  0999 V2000
    8.2277   -3.3903   -0.7214 C   0  0  0  0  0  0  0  0  0  0  0  0
    7.4158   -4.2444   -0.0890 C   0  0  0  0  0  0  0  0  0  0  0  0
    5.9489   -4.2995   -0.4170 C   0  0  0  0  0  0  0  0  0  0  0  0
    7.8950   -5.1956    1.0017 C   0  0  0  0  0  0  0  0  0  0  0  0
    6.9274   -5.3470    2.2019 C   0  0  0  0  0  0  0  0  0  0  0  0
    7.5670   -6.0378    3.4437 C   0  0  0  0  0  0  0  0  0  0  0  0
    6.5997   -6.2014    4.7065 C   0  0  2  0  0  0  0  0  0  0  0  0
    7.3403   -6.0628    6.2918 C   0  0  0  0  0  0  0  0  0  0  0  0
    6.4239   -5.9455    7.7890 C   0  0  1  0  0  0  0  0  0  0  0  0
    7.2453   -6.6617    8.9221 C   0  0  0  0  0  0  0  0  0  0  0  0
    5.4921   -4.8629    8.6725 C   0  0  1  0  0  0  0  0  0  0  0  0
    6.2498   -3.6811    9.3369 C   0  0  0  0  0  0  0  0  0  0  0  0
    3.8618   -4.5405    8.4999 C   0  0  0  0  0  0  0  0  0  0  0  0
    2.8600   -4.9238    7.4112 O   0  0  0  0  0  0  0  0  0  0  0  0
    2.7119   -6.0367    6.3468 C   0  0  2  0  0  0  0  0  0  0  0  0
    2.7471   -7.1590    7.2839 C   0  0  2  0  0  0  0  0  0  0  0  0
    4.0513   -6.9554    7.9387 O   0  0  0  0  0  0  0  0  0  0  0  0
    5.2089   -6.4525    7.1373 C   0  0  2  0  0  0  0  0  0  0  0  0
    5.6492   -8.1169    6.9514 C   0  0  1  0  0  0  0  0  0  0  0  0
    4.5128   -8.9904    7.0001 O   0  0  0  0  0  0  0  0  0  0  0  0
    3.3947   -9.2881    6.1743 C   0  0  1  0  0  0  0  0  0  0  0  0
    3.2513  -10.6259    6.6771 O   0  0  0  0  0  0  0  0  0  0  0  0
    2.2004   -8.5528    6.7512 C   0  0  1  0  0  0  0  0  0  0  0  0
    1.6407   -9.1994    8.0642 C   0  0  0  0  0  0  0  0  0  0  0  0
    1.0931   -8.8003    5.6434 C   0  0  0  0  0  0  0  0  0  0  0  0
    1.2228  -10.1533    4.7748 C   0  0  0  0  0  0  0  0  0  0  0  0
    2.6579  -10.6008    4.1963 C   0  0  1  0  0  0  0  0  0  0  0  0
    2.4872  -11.1350    2.8929 O   0  0  0  0  0  0  0  0  0  0  0  0
    3.6032   -9.3328    4.4415 C   0  0  1  0  0  0  0  0  0  0  0  0
    3.0395   -8.5687    3.1497 C   0  0  0  0  0  0  0  0  0  0  0  0
    5.0898   -8.8016    4.3950 C   0  0  2  0  0  0  0  0  0  0  0  0
    6.3556   -8.8485    3.5372 C   0  0  0  0  0  0  0  0  0  0  0  0
    7.5263   -8.7863    4.6755 C   0  0  0  0  0  0  0  0  0  0  0  0
    6.9391   -8.9404    6.2096 C   0  0  1  0  0  0  0  0  0  0  0  0
    8.0481   -9.0578    7.0715 O   0  0  0  0  0  0  0  0  0  0  0  0
    6.4300  -10.1914    6.1475 O   0  0  0  0  0  0  0  0  0  0  0  0
    5.6123  -10.2505    5.0291 C   0  0  0  0  0  0  0  0  0  0  0  0
    5.0911   -6.9859    4.5851 C   0  0  2  0  0  0  0  0  0  0  0  0
    5.0196   -6.2363    5.7242 O   0  0  0  0  0  0  0  0  0  0  0  0
    5.1275   -4.8448    6.1701 C   0  0  2  0  0  0  0  0  0  0  0  0
    6.2763   -3.6711    6.2708 C   0  0  0  0  0  0  0  0  0  0  0  0
    4.0046   -3.8144    5.3838 C   0  0  1  0  0  0  0  0  0  0  0  0
    4.2531   -2.4299    5.4715 O   0  0  0  0  0  0  0  0  0  0  0  0
    3.1291   -1.5347    5.4924 C   0  0  0  0  0  0  0  0  0  0  0  0
    3.7822   -4.1050    4.0094 N   0  0  0  0  0  0  0  0  0  0  0  0
    3.3067   -5.3321    3.7261 C   0  0  0  0  0  0  0  0  0  0  0  0
    2.8187   -5.3647    2.4606 C   0  0  0  0  0  0  0  0  0  0  0  0
    3.1284   -4.0938    1.8579 C   0  0  0  0  0  0  0  0  0  0  0  0
    2.9687   -3.4753    0.5806 C   0  0  0  0  0  0  0  0  0  0  0  0
    2.3872   -4.2087   -0.6104 C   0  0  0  0  0  0  0  0  0  0  0  0
    3.4581   -2.2376    0.3475 N   0  0  0  0  0  0  0  0  0  0  0  0
    4.1146   -1.5039    1.2598 C   0  0  0  0  0  0  0  0  0  0  0  0
    4.6424   -0.1501    0.8681 C   0  0  0  0  0  0  0  0  0  0  0  0
    4.3050   -2.0429    2.5602 C   0  0  0  0  0  0  0  0  0  0  0  0
    3.8051   -3.3212    2.8438 C   0  0  0  0  0  0  0  0  0  0  0  0
    3.5189   -6.3335    4.8380 C   0  0  2  0  0  0  0  0  0  0  0  0
    7.8430   -2.7247   -1.4871 H   0  0  0  0  0  0  0  0  0  0  0  0
    9.2826   -3.3341   -0.4972 H   0  0  0  0  0  0  0  0  0  0  0  0
    5.4826   -4.0910    0.5292 H   0  0  0  0  0  0  0  0  0  0  0  0
    5.6110   -5.2801   -0.7551 H   0  0  0  0  0  0  0  0  0  0  0  0
    5.6409   -3.5224   -1.1188 H   0  0  0  0  0  0  0  0  0  0  0  0
    8.0628   -6.1724    0.5473 H   0  0  0  0  0  0  0  0  0  0  0  0
    8.8606   -4.8429    1.3728 H   0  0  0  0  0  0  0  0  0  0  0  0
    6.5611   -4.3548    2.4773 H   0  0  0  0  0  0  0  0  0  0  0  0
    6.0436   -5.9217    1.9009 H   0  0  0  0  0  0  0  0  0  0  0  0
    8.0809   -6.8885    3.0043 H   0  0  0  0  0  0  0  0  0  0  0  0
    8.3976   -5.4528    3.8364 H   0  0  0  0  0  0  0  0  0  0  0  0
    6.3819   -5.1967    4.4014 H   0  0  0  0  0  0  0  0  0  0  0  0
    8.0746   -6.8365    6.4116 H   0  0  0  0  0  0  0  0  0  0  0  0
    8.1281   -5.3148    6.2287 H   0  0  0  0  0  0  0  0  0  0  0  0
    6.6325   -7.2645    9.6031 H   0  0  0  0  0  0  0  0  0  0  0  0
    7.7481   -5.9272    9.5508 H   0  0  0  0  0  0  0  0  0  0  0  0
    8.0667   -7.2667    8.5682 H   0  0  0  0  0  0  0  0  0  0  0  0
    5.3552   -5.4713    9.5684 H   0  0  0  0  0  0  0  0  0  0  0  0
    5.9814   -2.7134    8.9152 H   0  0  0  0  0  0  0  0  0  0  0  0
    7.3335   -3.7840    9.2612 H   0  0  0  0  0  0  0  0  0  0  0  0
    6.0074   -3.6125   10.3972 H   0  0  0  0  0  0  0  0  0  0  0  0
    3.3770   -4.8606    9.4219 H   0  0  0  0  0  0  0  0  0  0  0  0
    3.7638   -3.4541    8.5379 H   0  0  0  0  0  0  0  0  0  0  0  0
    1.6687   -5.9118    6.0485 H   0  0  0  0  0  0  0  0  0  0  0  0
    2.0387   -6.8780    8.0687 H   0  0  0  0  0  0  0  0  0  0  0  0
    5.8866   -8.4172    7.9690 H   0  0  0  0  0  0  0  0  0  0  0  0
    2.3356  -10.8384    6.8359 H   0  0  0  0  0  0  0  0  0  0  0  0
    1.1705  -10.1472    7.8820 H   0  0  0  0  0  0  0  0  0  0  0  0
    0.8217   -8.6047    8.4776 H   0  0  0  0  0  0  0  0  0  0  0  0
    2.4038   -9.3041    8.8371 H   0  0  0  0  0  0  0  0  0  0  0  0
    0.1188   -8.8230    6.1329 H   0  0  0  0  0  0  0  0  0  0  0  0
    0.9818   -7.9489    4.9792 H   0  0  0  0  0  0  0  0  0  0  0  0
    0.8365  -10.9863    5.3623 H   0  0  0  0  0  0  0  0  0  0  0  0
    0.5120  -10.0758    3.9489 H   0  0  0  0  0  0  0  0  0  0  0  0
    2.9781  -11.5355    4.6550 H   0  0  0  0  0  0  0  0  0  0  0  0
    3.2992  -11.5340    2.6039 H   0  0  0  0  0  0  0  0  0  0  0  0
    3.2455   -9.1103    2.2306 H   0  0  0  0  0  0  0  0  0  0  0  0
    3.6202   -7.7233    2.8094 H   0  0  0  0  0  0  0  0  0  0  0  0
    1.9699   -8.3500    3.1135 H   0  0  0  0  0  0  0  0  0  0  0  0
    6.4718   -9.6851    2.8434 H   0  0  0  0  0  0  0  0  0  0  0  0
    6.3209   -8.0451    2.8144 H   0  0  0  0  0  0  0  0  0  0  0  0
    8.1601   -9.6679    4.5203 H   0  0  0  0  0  0  0  0  0  0  0  0
    8.2860   -8.0096    4.6529 H   0  0  0  0  0  0  0  0  0  0  0  0
    7.7088   -9.3652    7.9105 H   0  0  0  0  0  0  0  0  0  0  0  0
    4.9160  -11.0478    5.2076 H   0  0  0  0  0  0  0  0  0  0  0  0
    6.1454  -10.9115    4.3445 H   0  0  0  0  0  0  0  0  0  0  0  0
    5.9082   -2.7984    6.7992 H   0  0  0  0  0  0  0  0  0  0  0  0
    6.5938   -3.3232    5.2928 H   0  0  0  0  0  0  0  0  0  0  0  0
    7.1636   -3.7607    6.8822 H   0  0  0  0  0  0  0  0  0  0  0  0
    2.9750   -3.7745    5.7038 H   0  0  0  0  0  0  0  0  0  0  0  0
    3.4895   -0.5089    5.5317 H   0  0  0  0  0  0  0  0  0  0  0  0
    2.4673   -1.6890    6.3455 H   0  0  0  0  0  0  0  0  0  0  0  0
    2.5221   -1.6231    4.5896 H   0  0  0  0  0  0  0  0  0  0  0  0
    2.3652   -6.1926    1.9354 H   0  0  0  0  0  0  0  0  0  0  0  0
    2.3623   -5.2829   -0.4458 H   0  0  0  0  0  0  0  0  0  0  0  0
    2.9982   -4.0132   -1.4879 H   0  0  0  0  0  0  0  0  0  0  0  0
    1.3958   -3.8444   -0.8369 H   0  0  0  0  0  0  0  0  0  0  0  0
    5.1233    0.3224    1.7144 H   0  0  0  0  0  0  0  0  0  0  0  0
    3.8198    0.4821    0.5395 H   0  0  0  0  0  0  0  0  0  0  0  0
    5.3691   -0.2304    0.0560 H   0  0  0  0  0  0  0  0  0  0  0  0
    4.8298   -1.4701    3.3031 H   0  0  0  0  0  0  0  0  0  0  0  0
    2.7415   -7.0097    4.6421 H   0  0  0  0  0  0  0  0  0  0  0  0
    3.3496   -1.8449   -0.6013 H   0  0  0  0  0  0  0  0  0  0  0  0
  1  2  2  0
  1 57  1  0
  1 58  1  0
  2  3  1  0
  2  4  1  0
  3 59  1  0
  3 60  1  0
  3 61  1  0
  4  5  1  0
  4 62  1  0
  4 63  1  0
  5  6  1  0
  5 64  1  0
  5 65  1  0
  6  7  1  0
  6 66  1  0
  6 67  1  0
  7 38  1  0
  7  8  1  0
  7 68  1  6
  8  9  1  0
  8 69  1  0
  8 70  1  0
  9 18  1  0
  9 10  1  1
  9 11  1  0
 10 71  1  0
 10 72  1  0
 10 73  1  0
 11 12  1  0
 11 13  1  0
 11 74  1  1
 12 75  1  0
 12 76  1  0
 12 77  1  0
 13 14  1  0
 13 78  1  0
 13 79  1  0
 14 15  1  0
 15 56  1  0
 15 16  1  0
 15 80  1  6
 16 23  1  0
 16 17  1  0
 16 81  1  1
 18 17  1  1
 18 40  1  0
 18 19  1  0
 19 34  1  0
 19 20  1  0
 19 82  1  1
 20 21  1  0
 21 29  1  0
 21 22  1  1
 21 23  1  0
 22 83  1  0
 23 24  1  1
 23 25  1  0
 24 84  1  0
 24 85  1  0
 24 86  1  0
 25 26  1  0
 25 87  1  0
 25 88  1  0
 26 27  1  0
 26 89  1  0
 26 90  1  0
 27 28  1  0
 27 29  1  0
 27 91  1  1
 28 92  1  0
 29 30  1  6
 29 31  1  0
 30 93  1  0
 30 94  1  0
 30 95  1  0
 31 37  1  1
 31 32  1  0
 31 38  1  0
 32 33  1  0
 32 96  1  0
 32 97  1  0
 33 34  1  0
 33 98  1  0
 33 99  1  0
 34 35  1  1
 34 36  1  0
 35100  1  0
 36 37  1  0
 37101  1  0
 37102  1  0
 38 56  1  0
 38 39  1  6
 39 40  1  0
 40 41  1  6
 40 42  1  0
 41103  1  0
 41104  1  0
 41105  1  0
 42 43  1  0
 42 45  1  0
 42106  1  1
 43 44  1  0
 44107  1  0
 44108  1  0
 44109  1  0
 45 55  1  0
 45 46  1  0
 46 47  2  0
 46 56  1  0
 47 48  1  0
 47110  1  0
 48 55  2  0
 48 49  1  0
 49 50  1  0
 49 51  2  0
 50111  1  0
 50112  1  0
 50113  1  0
 51 52  1  0
 51119  1  0
 52 53  1  0
 52 54  2  0
 53114  1  0
 53115  1  0
 53116  1  0
 54 55  1  0
 54117  1  0
 56118  1  6
M  CHG  1  51   1
M  END
>  <i_m_ct_stereo_status>  (253) 
1

>  <s_m_source_file>  (253) 
/var/tmp/pbs.5076255.sched01/tmp6zmtdo5c/111u4f9dq10.sdf

>  <i_m_source_file_index>  (253) 
9

>  <i_lp_mmshare_version>  (253) 
48012

>  <i_f3d_flags>  (253) 
0

>  <s_epik_input>  (253) 
W0NIMl09QyhbQ0gzXSlbQ0gyXVtDSDJdW0NIMl1bQ0BIXShbQ0gyXVtDQEBdMShbQ0BdMjM0KVtDSDNdKUM1NltDQEBdNzhbQ0BdOShbQ0gzXSlbQ0BAXShbT0hdKShPW0NASF0zW0NAXShbT0hdKShbQ0gyXVtDSDJdNylPW0NIMl04KVtDQF0oW0NIM10pKFtDSDJdW0NIMl1bQ0BIXTlbT0hdKVtDQEBIXShPMilbQ0BASF0oT1tDSDJdW0NAQEhdMVtDSDNdKVtDSF02YzFuKFtDQEBIXShbQ0BAXTQoTzUpW0NIM10pT1tDSDNdKWMyYyhbY0hdMSljKFtDSDNdKW5jKFtDSDNdKVtjSF0y

>  <s_epik_cmdline>  (253) 
J2VwaWtfcHl0aG9uJywgJy1waHQnLCAnMi4wJywgJy1waCcsICc3LjAnLCAnLXRuJywgJzgnLCAnLW1hJywgJzIwMCcsICctaW1hZScsICc8aW5maWxlLm1hZT4nLCAnLW9tYWUnLCAnPG91dGZpbGUubWFlPic=

>  <r_lp_tautomer_probability>  (253) 
1

>  <r_epik_Ionization_Penalty>  (253) 
0.00588737

>  <r_epik_Ionization_Penalty_Charging>  (253) 
0.0058843

>  <r_epik_Ionization_Penalty_Neutral>  (253) 
3.06965e-06

>  <r_epik_State_Penalty>  (253) 
0.00432565

>  <r_epik_Charging_Adjusted_Penalty>  (253) 
0.0102099

>  <i_epik_Tot_Q>  (253) 
1

>  <i_epik_Tot_abs_Q>  (253) 
1

>  <s_epik_Chemistry_Notes>  (253) 
This compound contains an acetal/aminal-like group ( X-CH(R)-Y where X, Y are N, S, or O) that may be acid/base labile, releasing an aldehyde.

>  <s_lp_Force_Field>  (253) 
OPLS3e

>  <r_lp_Energy>  (253) 
1142.71

>  <b_lp_Chiralities_Consistent>  (253) 
1

>  <s_lp_Variant>  (253) 
96:0-1

>  <s_i_glide_gridfile>  (253) 
pfpi4k_grid

>  <i_i_glide_lignum>  (253) 
9

>  <i_i_glide_rotatable_bonds>  (253) 
8

>  <r_i_docking_score>  (253) 
-2.4645

>  <r_i_glide_ligand_efficiency>  (253) 
-0.0440089

>  <r_i_glide_ligand_efficiency_sa>  (253) 
-0.168372

>  <r_i_glide_ligand_efficiency_ln>  (253) 
-0.490413

>  <r_i_glide_gscore>  (253) 
-2.4645

>  <r_i_glide_lipo>  (253) 
-0.603613

>  <r_i_glide_hbond>  (253) 
0

>  <r_i_glide_metal>  (253) 
-0

>  <r_i_glide_rewards>  (253) 
0

>  <r_i_glide_evdw>  (253) 
-24.6629

>  <r_i_glide_ecoul>  (253) 
-4.74182

>  <r_i_glide_erotb>  (253) 
0.144169

>  <r_i_glide_esite>  (253) 
-0.0606365

>  <r_i_glide_emodel>  (253) 
-30.4805

>  <r_i_glide_energy>  (253) 
-29.4047

>  <r_i_glide_einternal>  (253) 
5.46376

>  <r_i_glide_intrahb_reward>  (253) 
-0

>  <i_i_glide_confnum>  (253) 
4

>  <i_i_glide_posenum>  (253) 
1

>  <r_i_glide_eff_state_penalty>  (253) 
0

>  <ligand_id>  (253) 
96

>  <original_smiles>  (253) 
C=C(C)CCCC1CC2(C)C(C)COC3C4OC25C2OC6(O)C4(C)CCC(O)C6(C)C4(CCC2(O)OC4)C12OC5(C)C(OC)n1c(cc4c(C)nc(C)cc41)C32

>  <smiles>  (253) 
[H]OC1([H])C([H])([H])C([H])([H])C2(C([H])([H])[H])C3([H])OC45C6([H])OC2(O[H])C1(C([H])([H])[H])C1(C([H])([H])OC6(O[H])C([H])([H])C1([H])[H])C12OC4(C([H])([H])[H])C([H])(OC([H])([H])[H])n4c(c([H])c6c(C([H])([H])[H])[n+]([H])c(C([H])([H])[H])c([H])c64)C1([H])C3([H])OC([H])([H])C([H])(C([H])([H])[H])C5(C([H])([H])[H])C([H])([H])C2([H])C([H])([H])C([H])([H])C([H])([H])C(=C([H])[H])C([H])([H])[H]

$$$$
96:0:2
     RDKit          3D

119129  0  0  1  0  0  0  0  0999 V2000
    7.7291    0.8464    5.0218 C   0  0  0  0  0  0  0  0  0  0  0  0
    6.4661    0.3968    5.0642 C   0  0  0  0  0  0  0  0  0  0  0  0
    5.6685    0.1464    3.7932 C   0  0  0  0  0  0  0  0  0  0  0  0
    5.7570    0.0933    6.3798 C   0  0  0  0  0  0  0  0  0  0  0  0
    5.0144   -1.2500    6.3069 C   0  0  0  0  0  0  0  0  0  0  0  0
    4.5991   -1.8111    7.7139 C   0  0  0  0  0  0  0  0  0  0  0  0
    3.5224   -2.9959    7.7230 C   0  0  2  0  0  0  0  0  0  0  0  0
    2.8533   -3.4783    9.2913 C   0  0  0  0  0  0  0  0  0  0  0  0
    1.4663   -4.5591    9.4926 C   0  0  1  0  0  0  0  0  0  0  0  0
    1.6766   -5.4047   10.7955 C   0  0  0  0  0  0  0  0  0  0  0  0
   -0.2138   -4.5769    9.3323 C   0  0  1  0  0  0  0  0  0  0  0  0
   -1.0072   -3.7737   10.3966 C   0  0  0  0  0  0  0  0  0  0  0  0
   -1.1068   -4.8394    7.9382 C   0  0  0  0  0  0  0  0  0  0  0  0
   -0.7032   -4.9108    6.4661 O   0  0  0  0  0  0  0  0  0  0  0  0
    0.5659   -5.2430    5.6484 C   0  0  2  0  0  0  0  0  0  0  0  0
    0.7801   -6.5812    6.1933 C   0  0  2  0  0  0  0  0  0  0  0  0
    0.8980   -6.2899    7.6366 O   0  0  0  0  0  0  0  0  0  0  0  0
    1.5905   -5.0466    8.1065 C   0  0  2  0  0  0  0  0  0  0  0  0
    3.0164   -6.0402    8.2676 C   0  0  1  0  0  0  0  0  0  0  0  0
    3.0101   -7.1435    7.3358 O   0  0  0  0  0  0  0  0  0  0  0  0
    3.1445   -7.3156    5.9395 C   0  0  1  0  0  0  0  0  0  0  0  0
    3.6413   -8.6429    6.0476 O   0  0  0  0  0  0  0  0  0  0  0  0
    1.7511   -7.5572    5.3859 C   0  0  1  0  0  0  0  0  0  0  0  0
    1.1613   -8.9854    5.6964 C   0  0  0  0  0  0  0  0  0  0  0  0
    2.0096   -7.5404    3.8194 C   0  0  0  0  0  0  0  0  0  0  0  0
    3.4659   -8.0369    3.3158 C   0  0  0  0  0  0  0  0  0  0  0  0
    4.7885   -7.5207    4.0794 C   0  0  1  0  0  0  0  0  0  0  0  0
    5.8283   -7.3075    3.1386 O   0  0  0  0  0  0  0  0  0  0  0  0
    4.2666   -6.3469    5.0348 C   0  0  1  0  0  0  0  0  0  0  0  0
    4.2634   -5.2798    3.8403 C   0  0  0  0  0  0  0  0  0  0  0  0
    4.6681   -5.3853    6.2265 C   0  0  2  0  0  0  0  0  0  0  0  0
    5.8199   -4.4844    6.7401 C   0  0  0  0  0  0  0  0  0  0  0  0
    5.6709   -4.6325    8.3740 C   0  0  0  0  0  0  0  0  0  0  0  0
    4.6042   -5.7808    8.8072 C   0  0  1  0  0  0  0  0  0  0  0  0
    4.7032   -5.9265   10.1988 O   0  0  0  0  0  0  0  0  0  0  0  0
    5.2152   -6.8917    8.3036 O   0  0  0  0  0  0  0  0  0  0  0  0
    5.5193   -6.6344    6.9546 C   0  0  0  0  0  0  0  0  0  0  0  0
    3.3754   -4.1110    6.4249 C   0  0  2  0  0  0  0  0  0  0  0  0
    2.1791   -4.1874    7.1028 O   0  0  0  0  0  0  0  0  0  0  0  0
    1.0543   -3.3342    7.5094 C   0  0  2  0  0  0  0  0  0  0  0  0
    0.7952   -2.0719    8.5375 C   0  0  0  0  0  0  0  0  0  0  0  0
    0.2848   -2.5548    6.1845 C   0  0  1  0  0  0  0  0  0  0  0  0
   -0.5803   -1.4864    6.5121 O   0  0  0  0  0  0  0  0  0  0  0  0
   -1.6995   -1.2171    5.6469 C   0  0  0  0  0  0  0  0  0  0  0  0
    1.1783   -2.1094    5.1736 N   0  0  0  0  0  0  0  0  0  0  0  0
    1.9143   -3.0651    4.5754 C   0  0  0  0  0  0  0  0  0  0  0  0
    2.4483   -2.5574    3.4054 C   0  0  0  0  0  0  0  0  0  0  0  0
    2.1430   -1.1556    3.3808 C   0  0  0  0  0  0  0  0  0  0  0  0
    2.4400   -0.0564    2.5206 C   0  0  0  0  0  0  0  0  0  0  0  0
    3.2699   -0.1902    1.2632 C   0  0  0  0  0  0  0  0  0  0  0  0
    1.9807    1.1812    2.8193 N   0  0  0  0  0  0  0  0  0  0  0  0
    1.2407    1.4640    3.9078 C   0  0  0  0  0  0  0  0  0  0  0  0
    0.7881    2.8893    4.1159 C   0  0  0  0  0  0  0  0  0  0  0  0
    0.9089    0.4290    4.8051 C   0  0  0  0  0  0  0  0  0  0  0  0
    1.3589   -0.8744    4.5388 C   0  0  0  0  0  0  0  0  0  0  0  0
    2.0329   -4.3465    5.3628 C   0  0  2  0  0  0  0  0  0  0  0  0
    8.2149    1.0572    4.0814 H   0  0  0  0  0  0  0  0  0  0  0  0
    8.3035    1.0012    5.9238 H   0  0  0  0  0  0  0  0  0  0  0  0
    4.7415    0.7128    3.8445 H   0  0  0  0  0  0  0  0  0  0  0  0
    5.4334   -0.9059    3.6515 H   0  0  0  0  0  0  0  0  0  0  0  0
    6.2099    0.4690    2.9064 H   0  0  0  0  0  0  0  0  0  0  0  0
    6.5141    0.0289    7.1681 H   0  0  0  0  0  0  0  0  0  0  0  0
    5.0663    0.8960    6.6302 H   0  0  0  0  0  0  0  0  0  0  0  0
    4.1197   -1.1801    5.6678 H   0  0  0  0  0  0  0  0  0  0  0  0
    5.7341   -1.8391    5.7759 H   0  0  0  0  0  0  0  0  0  0  0  0
    5.5365   -1.9860    8.2731 H   0  0  0  0  0  0  0  0  0  0  0  0
    4.1656   -1.0014    8.2896 H   0  0  0  0  0  0  0  0  0  0  0  0
    2.9266   -2.1606    7.3460 H   0  0  0  0  0  0  0  0  0  0  0  0
    3.6321   -3.8610    9.9108 H   0  0  0  0  0  0  0  0  0  0  0  0
    2.7739   -2.6052    9.9266 H   0  0  0  0  0  0  0  0  0  0  0  0
    1.3917   -6.4549   10.7023 H   0  0  0  0  0  0  0  0  0  0  0  0
    1.0774   -5.0181   11.6169 H   0  0  0  0  0  0  0  0  0  0  0  0
    2.6734   -5.3624   11.2082 H   0  0  0  0  0  0  0  0  0  0  0  0
   -0.4031   -5.5680    9.7414 H   0  0  0  0  0  0  0  0  0  0  0  0
   -1.5190   -2.9146    9.9815 H   0  0  0  0  0  0  0  0  0  0  0  0
   -0.3781   -3.3984   11.2009 H   0  0  0  0  0  0  0  0  0  0  0  0
   -1.7923   -4.3762   10.8581 H   0  0  0  0  0  0  0  0  0  0  0  0
   -1.6591   -5.7668    8.0817 H   0  0  0  0  0  0  0  0  0  0  0  0
   -1.8998   -4.0967    7.9402 H   0  0  0  0  0  0  0  0  0  0  0  0
    0.1489   -5.3695    4.6574 H   0  0  0  0  0  0  0  0  0  0  0  0
   -0.1896   -7.0687    6.1276 H   0  0  0  0  0  0  0  0  0  0  0  0
    2.7221   -6.7185    9.0550 H   0  0  0  0  0  0  0  0  0  0  0  0
    2.9688   -9.1694    6.4588 H   0  0  0  0  0  0  0  0  0  0  0  0
    1.7049   -9.8022    5.2179 H   0  0  0  0  0  0  0  0  0  0  0  0
    0.1544   -9.0907    5.3123 H   0  0  0  0  0  0  0  0  0  0  0  0
    1.1087   -9.2044    6.7675 H   0  0  0  0  0  0  0  0  0  0  0  0
    1.2695   -8.1826    3.3465 H   0  0  0  0  0  0  0  0  0  0  0  0
    1.7815   -6.5766    3.3834 H   0  0  0  0  0  0  0  0  0  0  0  0
    3.4854   -9.1242    3.3482 H   0  0  0  0  0  0  0  0  0  0  0  0
    3.5339   -7.7976    2.2564 H   0  0  0  0  0  0  0  0  0  0  0  0
    5.2913   -8.3510    4.5812 H   0  0  0  0  0  0  0  0  0  0  0  0
    6.0312   -8.1357    2.7315 H   0  0  0  0  0  0  0  0  0  0  0  0
    5.2510   -5.1344    3.4205 H   0  0  0  0  0  0  0  0  0  0  0  0
    4.1796   -4.2441    4.1320 H   0  0  0  0  0  0  0  0  0  0  0  0
    3.6233   -5.4828    2.9808 H   0  0  0  0  0  0  0  0  0  0  0  0
    6.8351   -4.7123    6.3945 H   0  0  0  0  0  0  0  0  0  0  0  0
    5.6594   -3.5628    6.3861 H   0  0  0  0  0  0  0  0  0  0  0  0
    6.6453   -4.9556    8.7416 H   0  0  0  0  0  0  0  0  0  0  0  0
    5.5193   -3.7557    8.9823 H   0  0  0  0  0  0  0  0  0  0  0  0
    4.2518   -6.7248   10.4313 H   0  0  0  0  0  0  0  0  0  0  0  0
    5.6006   -7.5765    6.4666 H   0  0  0  0  0  0  0  0  0  0  0  0
    6.6158   -6.5813    6.9261 H   0  0  0  0  0  0  0  0  0  0  0  0
   -0.2588   -1.8355    8.6123 H   0  0  0  0  0  0  0  0  0  0  0  0
    1.2812   -1.1507    8.2250 H   0  0  0  0  0  0  0  0  0  0  0  0
    0.9066   -2.1512    9.6108 H   0  0  0  0  0  0  0  0  0  0  0  0
   -0.4130   -3.0885    5.5532 H   0  0  0  0  0  0  0  0  0  0  0  0
   -2.2260   -0.3332    5.9953 H   0  0  0  0  0  0  0  0  0  0  0  0
   -2.4232   -2.0320    5.6247 H   0  0  0  0  0  0  0  0  0  0  0  0
   -1.3975   -1.0136    4.6217 H   0  0  0  0  0  0  0  0  0  0  0  0
    3.0551   -3.0695    2.6734 H   0  0  0  0  0  0  0  0  0  0  0  0
    3.8791   -1.0942    1.2588 H   0  0  0  0  0  0  0  0  0  0  0  0
    3.9404    0.6615    1.1460 H   0  0  0  0  0  0  0  0  0  0  0  0
    2.6137   -0.2253    0.3973 H   0  0  0  0  0  0  0  0  0  0  0  0
    0.2044    2.9902    5.0344 H   0  0  0  0  0  0  0  0  0  0  0  0
    0.1706    3.2108    3.2731 H   0  0  0  0  0  0  0  0  0  0  0  0
    1.6571    3.5474    4.1843 H   0  0  0  0  0  0  0  0  0  0  0  0
    0.3134    0.6368    5.6786 H   0  0  0  0  0  0  0  0  0  0  0  0
    2.2231   -5.0158    4.5888 H   0  0  0  0  0  0  0  0  0  0  0  0
    2.2065    1.9575    2.1851 H   0  0  0  0  0  0  0  0  0  0  0  0
  1  2  2  0
  1 57  1  0
  1 58  1  0
  2  3  1  0
  2  4  1  0
  3 59  1  0
  3 60  1  0
  3 61  1  0
  4  5  1  0
  4 62  1  0
  4 63  1  0
  5  6  1  0
  5 64  1  0
  5 65  1  0
  6  7  1  0
  6 66  1  0
  6 67  1  0
  7 38  1  0
  7  8  1  0
  7 68  1  6
  8  9  1  0
  8 69  1  0
  8 70  1  0
  9 18  1  0
  9 10  1  1
  9 11  1  0
 10 71  1  0
 10 72  1  0
 10 73  1  0
 11 12  1  0
 11 13  1  0
 11 74  1  1
 12 75  1  0
 12 76  1  0
 12 77  1  0
 13 14  1  0
 13 78  1  0
 13 79  1  0
 14 15  1  0
 15 56  1  0
 15 16  1  0
 15 80  1  6
 16 23  1  0
 16 17  1  0
 16 81  1  1
 18 17  1  1
 18 40  1  0
 18 19  1  0
 19 34  1  0
 19 20  1  0
 19 82  1  1
 20 21  1  0
 21 29  1  0
 21 22  1  1
 21 23  1  0
 22 83  1  0
 23 24  1  1
 23 25  1  0
 24 84  1  0
 24 85  1  0
 24 86  1  0
 25 26  1  0
 25 87  1  0
 25 88  1  0
 26 27  1  0
 26 89  1  0
 26 90  1  0
 27 28  1  0
 27 29  1  0
 27 91  1  1
 28 92  1  0
 29 30  1  6
 29 31  1  0
 30 93  1  0
 30 94  1  0
 30 95  1  0
 31 37  1  1
 31 32  1  0
 31 38  1  0
 32 33  1  0
 32 96  1  0
 32 97  1  0
 33 34  1  0
 33 98  1  0
 33 99  1  0
 34 35  1  1
 34 36  1  0
 35100  1  0
 36 37  1  0
 37101  1  0
 37102  1  0
 38 56  1  0
 38 39  1  6
 39 40  1  0
 40 41  1  1
 40 42  1  0
 41103  1  0
 41104  1  0
 41105  1  0
 42 43  1  0
 42 45  1  0
 42106  1  6
 43 44  1  0
 44107  1  0
 44108  1  0
 44109  1  0
 45 55  1  0
 45 46  1  0
 46 47  2  0
 46 56  1  0
 47 48  1  0
 47110  1  0
 48 55  2  0
 48 49  1  0
 49 50  1  0
 49 51  2  0
 50111  1  0
 50112  1  0
 50113  1  0
 51 52  1  0
 51119  1  0
 52 53  1  0
 52 54  2  0
 53114  1  0
 53115  1  0
 53116  1  0
 54 55  1  0
 54117  1  0
 56118  1  6
M  CHG  1  51   1
M  END
>  <i_m_ct_stereo_status>  (254) 
1

>  <s_m_source_file>  (254) 
/var/tmp/pbs.5076255.sched01/tmp6zmtdo5c/111u4f9dq10.sdf

>  <i_m_source_file_index>  (254) 
9

>  <i_lp_mmshare_version>  (254) 
48012

>  <i_f3d_flags>  (254) 
0

>  <s_epik_input>  (254) 
W0NIMl09QyhbQ0gzXSlbQ0gyXVtDSDJdW0NIMl1bQ0BIXShbQ0gyXVtDQEBdMShbQ0BdMjM0KVtDSDNdKUM1NltDQEBdNzhbQ0BdOShbQ0gzXSlbQ0BAXShbT0hdKShPW0NASF0zW0NAXShbT0hdKShbQ0gyXVtDSDJdNylPW0NIMl04KVtDQF0oW0NIM10pKFtDSDJdW0NIMl1bQ0BIXTlbT0hdKVtDQEBIXShPMilbQ0BASF0oT1tDSDJdW0NAQEhdMVtDSDNdKVtDSF02YzFuKFtDQEBIXShbQ0BAXTQoTzUpW0NIM10pT1tDSDNdKWMyYyhbY0hdMSljKFtDSDNdKW5jKFtDSDNdKVtjSF0y

>  <s_epik_cmdline>  (254) 
J2VwaWtfcHl0aG9uJywgJy1waHQnLCAnMi4wJywgJy1waCcsICc3LjAnLCAnLXRuJywgJzgnLCAnLW1hJywgJzIwMCcsICctaW1hZScsICc8aW5maWxlLm1hZT4nLCAnLW9tYWUnLCAnPG91dGZpbGUubWFlPic=

>  <r_lp_tautomer_probability>  (254) 
1

>  <r_epik_Ionization_Penalty>  (254) 
0.00588737

>  <r_epik_Ionization_Penalty_Charging>  (254) 
0.0058843

>  <r_epik_Ionization_Penalty_Neutral>  (254) 
3.06965e-06

>  <r_epik_State_Penalty>  (254) 
0.00432565

>  <r_epik_Charging_Adjusted_Penalty>  (254) 
0.0102099

>  <i_epik_Tot_Q>  (254) 
1

>  <i_epik_Tot_abs_Q>  (254) 
1

>  <s_epik_Chemistry_Notes>  (254) 
This compound contains an acetal/aminal-like group ( X-CH(R)-Y where X, Y are N, S, or O) that may be acid/base labile, releasing an aldehyde.

>  <s_lp_Force_Field>  (254) 
OPLS3e

>  <r_lp_Energy>  (254) 
1142.71

>  <b_lp_Chiralities_Consistent>  (254) 
1

>  <s_lp_Variant>  (254) 
96:0-1

>  <s_i_glide_gridfile>  (254) 
pfpi4k_grid

>  <i_i_glide_lignum>  (254) 
9

>  <i_i_glide_rotatable_bonds>  (254) 
8

>  <r_i_docking_score>  (254) 
-1.76984

>  <r_i_glide_ligand_efficiency>  (254) 
-0.0316043

>  <r_i_glide_ligand_efficiency_sa>  (254) 
-0.120914

>  <r_i_glide_ligand_efficiency_ln>  (254) 
-0.352182

>  <r_i_glide_gscore>  (254) 
-1.76984

>  <r_i_glide_lipo>  (254) 
-0.351457

>  <r_i_glide_hbond>  (254) 
0

>  <r_i_glide_metal>  (254) 
-0

>  <r_i_glide_rewards>  (254) 
0

>  <r_i_glide_evdw>  (254) 
-26.8099

>  <r_i_glide_ecoul>  (254) 
-2.25916

>  <r_i_glide_erotb>  (254) 
0.144169

>  <r_i_glide_esite>  (254) 
-0.0174914

>  <r_i_glide_emodel>  (254) 
-27.4693

>  <r_i_glide_energy>  (254) 
-29.069

>  <r_i_glide_einternal>  (254) 
2.25646

>  <r_i_glide_intrahb_reward>  (254) 
-0

>  <i_i_glide_confnum>  (254) 
3

>  <i_i_glide_posenum>  (254) 
17

>  <r_i_glide_eff_state_penalty>  (254) 
0

>  <ligand_id>  (254) 
96

>  <original_smiles>  (254) 
C=C(C)CCCC1CC2(C)C(C)COC3C4OC25C2OC6(O)C4(C)CCC(O)C6(C)C4(CCC2(O)OC4)C12OC5(C)C(OC)n1c(cc4c(C)nc(C)cc41)C32

>  <smiles>  (254) 
[H]OC1([H])C([H])([H])C([H])([H])C2(C([H])([H])[H])C3([H])OC45C6([H])OC2(O[H])C1(C([H])([H])[H])C1(C([H])([H])OC6(O[H])C([H])([H])C1([H])[H])C12OC4(C([H])([H])[H])C([H])(OC([H])([H])[H])n4c(c([H])c6c(C([H])([H])[H])[n+]([H])c(C([H])([H])[H])c([H])c64)C1([H])C3([H])OC([H])([H])C([H])(C([H])([H])[H])C5(C([H])([H])[H])C([H])([H])C2([H])C([H])([H])C([H])([H])C([H])([H])C(=C([H])[H])C([H])([H])[H]

$$$$
96:1:0
     RDKit          3D

119129  0  0  1  0  0  0  0  0999 V2000
   -0.8566   -3.9231    9.3230 C   0  0  0  0  0  0  0  0  0  0  0  0
   -0.8620   -3.8836    7.9867 C   0  0  0  0  0  0  0  0  0  0  0  0
   -2.0734   -4.3073    7.1664 C   0  0  0  0  0  0  0  0  0  0  0  0
    0.3668   -3.4301    7.2253 C   0  0  0  0  0  0  0  0  0  0  0  0
    0.9222   -4.5277    6.2971 C   0  0  0  0  0  0  0  0  0  0  0  0
    1.2043   -5.9218    6.9454 C   0  0  0  0  0  0  0  0  0  0  0  0
    1.9686   -7.0020    6.0114 C   0  0  0  0  0  0  0  0  0  0  0  0
    1.2024   -8.4807    5.6961 C   0  0  0  0  0  0  0  0  0  0  0  0
    1.6834   -9.5113    4.4691 C   0  0  1  0  0  0  0  0  0  0  0  0
    1.6351  -10.9731    5.0196 C   0  0  0  0  0  0  0  0  0  0  0  0
    1.3597   -9.7302    2.8815 C   0  0  1  0  0  0  0  0  0  0  0  0
   -0.1060  -10.0479    2.4859 C   0  0  0  0  0  0  0  0  0  0  0  0
    2.3172   -9.2616    1.6474 C   0  0  0  0  0  0  0  0  0  0  0  0
    3.3540   -8.1983    1.5567 O   0  0  0  0  0  0  0  0  0  0  0  0
    4.4748   -7.7871    2.4567 C   0  0  2  0  0  0  0  0  0  0  0  0
    5.1316   -8.9635    2.9317 C   0  0  2  0  0  0  0  0  0  0  0  0
    3.9455   -9.5398    3.5531 O   0  0  0  0  0  0  0  0  0  0  0  0
    2.9015   -8.7550    4.2692 C   0  0  2  0  0  0  0  0  0  0  0  0
    3.8223   -9.1626    5.7210 C   0  0  1  0  0  0  0  0  0  0  0  0
    5.2241   -9.3018    5.4722 O   0  0  0  0  0  0  0  0  0  0  0  0
    6.2873   -8.4436    5.1542 C   0  0  1  0  0  0  0  0  0  0  0  0
    7.2706   -9.2253    5.7927 O   0  0  0  0  0  0  0  0  0  0  0  0
    6.5620   -8.7475    3.6704 C   0  0  1  0  0  0  0  0  0  0  0  0
    7.2660  -10.1154    3.4028 C   0  0  0  0  0  0  0  0  0  0  0  0
    7.6463   -7.6229    3.3073 C   0  0  0  0  0  0  0  0  0  0  0  0
    8.5817   -7.0965    4.5218 C   0  0  0  0  0  0  0  0  0  0  0  0
    7.9499   -6.7659    5.9722 C   0  0  1  0  0  0  0  0  0  0  0  0
    8.5823   -5.6336    6.5321 O   0  0  0  0  0  0  0  0  0  0  0  0
    6.3484   -6.8044    5.7694 C   0  0  1  0  0  0  0  0  0  0  0  0
    6.3371   -5.3072    5.2125 C   0  0  0  0  0  0  0  0  0  0  0  0
    4.9163   -6.7068    6.5121 C   0  0  2  0  0  0  0  0  0  0  0  0
    4.1414   -6.1438    7.7194 C   0  0  0  0  0  0  0  0  0  0  0  0
    3.2770   -7.4647    8.2278 C   0  0  0  0  0  0  0  0  0  0  0  0
    3.6423   -8.8372    7.3969 C   0  0  1  0  0  0  0  0  0  0  0  0
    2.9008   -9.8337    8.0048 O   0  0  0  0  0  0  0  0  0  0  0  0
    4.9368   -9.0021    7.8142 O   0  0  0  0  0  0  0  0  0  0  0  0
    5.6158   -7.7713    7.6129 C   0  0  0  0  0  0  0  0  0  0  0  0
    3.6349   -6.6786    5.2766 C   0  0  2  0  0  0  0  0  0  0  0  0
    2.6503   -6.0238    4.5004 O   0  0  0  0  0  0  0  0  0  0  0  0
    2.0476   -7.0995    3.5797 C   0  0  2  0  0  0  0  0  0  0  0  0
    0.4186   -7.1322    3.4095 C   0  0  0  0  0  0  0  0  0  0  0  0
    2.1263   -6.0814    2.2267 C   0  0  1  0  0  0  0  0  0  0  0  0
    1.2506   -4.9872    2.3944 O   0  0  0  0  0  0  0  0  0  0  0  0
    1.4808   -3.8593    3.2683 C   0  0  0  0  0  0  0  0  0  0  0  0
    3.3266   -5.3758    1.9117 N   0  0  0  0  0  0  0  0  0  0  0  0
    4.3994   -5.4157    2.7336 C   0  0  0  0  0  0  0  0  0  0  0  0
    5.2958   -4.4405    2.3464 C   0  0  0  0  0  0  0  0  0  0  0  0
    4.7811   -3.8181    1.1555 C   0  0  0  0  0  0  0  0  0  0  0  0
    5.2275   -2.7994    0.2801 C   0  0  0  0  0  0  0  0  0  0  0  0
    6.5129   -2.0217    0.4523 C   0  0  0  0  0  0  0  0  0  0  0  0
    4.4686   -2.4819   -0.8159 N   0  0  0  0  0  0  0  0  0  0  0  0
    3.3118   -3.0823   -1.1125 C   0  0  0  0  0  0  0  0  0  0  0  0
    2.6016   -2.6547   -2.3874 C   0  0  0  0  0  0  0  0  0  0  0  0
    2.8008   -4.0928   -0.2752 C   0  0  0  0  0  0  0  0  0  0  0  0
    3.5566   -4.4652    0.8708 C   0  0  0  0  0  0  0  0  0  0  0  0
    4.4254   -6.6382    3.6335 C   0  0  2  0  0  0  0  0  0  0  0  0
   -1.7183   -4.2631    9.8813 H   0  0  0  0  0  0  0  0  0  0  0  0
    0.0260   -3.6201    9.8712 H   0  0  0  0  0  0  0  0  0  0  0  0
   -1.8229   -5.1188    6.4876 H   0  0  0  0  0  0  0  0  0  0  0  0
   -2.4612   -3.4738    6.5743 H   0  0  0  0  0  0  0  0  0  0  0  0
   -2.8710   -4.6891    7.8097 H   0  0  0  0  0  0  0  0  0  0  0  0
    0.1014   -2.5787    6.6003 H   0  0  0  0  0  0  0  0  0  0  0  0
    1.1499   -3.0797    7.8988 H   0  0  0  0  0  0  0  0  0  0  0  0
    0.2245   -4.6865    5.5313 H   0  0  0  0  0  0  0  0  0  0  0  0
    1.8257   -4.1566    5.8498 H   0  0  0  0  0  0  0  0  0  0  0  0
    1.6685   -5.6310    7.9140 H   0  0  0  0  0  0  0  0  0  0  0  0
    0.2637   -6.3667    7.2413 H   0  0  0  0  0  0  0  0  0  0  0  0
    1.0646   -6.6313    5.5303 H   0  0  0  0  0  0  0  0  0  0  0  0
    1.2276   -9.0170    6.6253 H   0  0  0  0  0  0  0  0  0  0  0  0
    0.1217   -8.3992    5.7208 H   0  0  0  0  0  0  0  0  0  0  0  0
    2.3989  -11.6370    4.6071 H   0  0  0  0  0  0  0  0  0  0  0  0
    0.6635  -11.4359    4.8618 H   0  0  0  0  0  0  0  0  0  0  0  0
    1.7745  -11.0111    6.0782 H   0  0  0  0  0  0  0  0  0  0  0  0
    1.7002  -10.7613    2.7851 H   0  0  0  0  0  0  0  0  0  0  0  0
   -0.6006   -9.2352    1.9632 H   0  0  0  0  0  0  0  0  0  0  0  0
   -0.7148  -10.2792    3.3551 H   0  0  0  0  0  0  0  0  0  0  0  0
   -0.1678  -10.9103    1.8188 H   0  0  0  0  0  0  0  0  0  0  0  0
    2.8073  -10.1405    1.2228 H   0  0  0  0  0  0  0  0  0  0  0  0
    1.6188   -8.9422    0.8913 H   0  0  0  0  0  0  0  0  0  0  0  0
    5.1655   -7.4035    1.7144 H   0  0  0  0  0  0  0  0  0  0  0  0
    5.3031   -9.5795    2.0571 H   0  0  0  0  0  0  0  0  0  0  0  0
    3.7561  -10.2395    5.7735 H   0  0  0  0  0  0  0  0  0  0  0  0
    7.2047  -10.1140    5.4460 H   0  0  0  0  0  0  0  0  0  0  0  0
    8.2842  -10.1697    3.7934 H   0  0  0  0  0  0  0  0  0  0  0  0
    7.3597  -10.2979    2.3446 H   0  0  0  0  0  0  0  0  0  0  0  0
    6.7027  -10.9674    3.8051 H   0  0  0  0  0  0  0  0  0  0  0  0
    8.3043   -8.0226    2.5416 H   0  0  0  0  0  0  0  0  0  0  0  0
    7.2119   -6.7682    2.8052 H   0  0  0  0  0  0  0  0  0  0  0  0
    9.3651   -7.8351    4.6776 H   0  0  0  0  0  0  0  0  0  0  0  0
    9.1197   -6.2261    4.1510 H   0  0  0  0  0  0  0  0  0  0  0  0
    8.3585   -7.4804    6.6873 H   0  0  0  0  0  0  0  0  0  0  0  0
    8.3377   -5.5780    7.4522 H   0  0  0  0  0  0  0  0  0  0  0  0
    6.5856   -4.6046    5.9945 H   0  0  0  0  0  0  0  0  0  0  0  0
    5.3769   -4.8571    4.9738 H   0  0  0  0  0  0  0  0  0  0  0  0
    7.0534   -5.1114    4.4177 H   0  0  0  0  0  0  0  0  0  0  0  0
    4.7239   -5.6852    8.5196 H   0  0  0  0  0  0  0  0  0  0  0  0
    3.5804   -5.2863    7.3763 H   0  0  0  0  0  0  0  0  0  0  0  0
    3.5970   -7.6438    9.2651 H   0  0  0  0  0  0  0  0  0  0  0  0
    2.2198   -7.4346    8.4037 H   0  0  0  0  0  0  0  0  0  0  0  0
    3.0095  -10.6427    7.5135 H   0  0  0  0  0  0  0  0  0  0  0  0
    6.6525   -8.0159    7.6230 H   0  0  0  0  0  0  0  0  0  0  0  0
    5.7578   -7.3717    8.6233 H   0  0  0  0  0  0  0  0  0  0  0  0
    0.0941   -7.2042    2.3666 H   0  0  0  0  0  0  0  0  0  0  0  0
   -0.0943   -6.2587    3.8062 H   0  0  0  0  0  0  0  0  0  0  0  0
   -0.1721   -7.9291    3.8225 H   0  0  0  0  0  0  0  0  0  0  0  0
    1.7661   -6.5801    1.3140 H   0  0  0  0  0  0  0  0  0  0  0  0
    0.7543   -3.8835    4.0387 H   0  0  0  0  0  0  0  0  0  0  0  0
    1.3500   -2.9035    2.7224 H   0  0  0  0  0  0  0  0  0  0  0  0
    2.4901   -3.8075    3.6603 H   0  0  0  0  0  0  0  0  0  0  0  0
    6.2572   -4.2132    2.7686 H   0  0  0  0  0  0  0  0  0  0  0  0
    7.1850   -2.5015    1.1701 H   0  0  0  0  0  0  0  0  0  0  0  0
    6.3126   -1.0104    0.8003 H   0  0  0  0  0  0  0  0  0  0  0  0
    7.0489   -1.9445   -0.4894 H   0  0  0  0  0  0  0  0  0  0  0  0
    1.6694   -3.2065   -2.5254 H   0  0  0  0  0  0  0  0  0  0  0  0
    3.2403   -2.8321   -3.2577 H   0  0  0  0  0  0  0  0  0  0  0  0
    2.3675   -1.5885   -2.3480 H   0  0  0  0  0  0  0  0  0  0  0  0
    1.8803   -4.5878   -0.5053 H   0  0  0  0  0  0  0  0  0  0  0  0
    5.4336   -6.6735    3.7176 H   0  0  0  0  0  0  0  0  0  0  0  0
    4.8094   -1.7551   -1.4474 H   0  0  0  0  0  0  0  0  0  0  0  0
  1  2  2  0
  1 57  1  0
  1 58  1  0
  2  3  1  0
  2  4  1  0
  3 59  1  0
  3 60  1  0
  3 61  1  0
  4  5  1  0
  4 62  1  0
  4 63  1  0
  5  6  1  0
  5 64  1  0
  5 65  1  0
  6  7  1  0
  6 66  1  0
  6 67  1  0
 38  7  1  6
  7  8  1  0
  7 68  1  0
  8  9  1  0
  8 69  1  0
  8 70  1  0
  9 18  1  0
  9 10  1  1
  9 11  1  0
 10 71  1  0
 10 72  1  0
 10 73  1  0
 11 12  1  0
 11 13  1  0
 11 74  1  1
 12 75  1  0
 12 76  1  0
 12 77  1  0
 13 14  1  0
 13 78  1  0
 13 79  1  0
 14 15  1  0
 15 56  1  0
 15 16  1  0
 15 80  1  6
 16 23  1  0
 16 17  1  0
 16 81  1  6
 18 17  1  6
 18 40  1  0
 18 19  1  0
 19 34  1  0
 19 20  1  0
 19 82  1  1
 20 21  1  0
 21 29  1  0
 21 22  1  1
 21 23  1  0
 22 83  1  0
 23 24  1  1
 23 25  1  0
 24 84  1  0
 24 85  1  0
 24 86  1  0
 25 26  1  0
 25 87  1  0
 25 88  1  0
 26 27  1  0
 26 89  1  0
 26 90  1  0
 27 28  1  0
 27 29  1  0
 27 91  1  1
 28 92  1  0
 29 30  1  6
 29 31  1  0
 30 93  1  0
 30 94  1  0
 30 95  1  0
 31 37  1  1
 31 32  1  0
 31 38  1  0
 32 33  1  0
 32 96  1  0
 32 97  1  0
 33 34  1  0
 33 98  1  0
 33 99  1  0
 34 35  1  1
 34 36  1  0
 35100  1  0
 36 37  1  0
 37101  1  0
 37102  1  0
 38 56  1  0
 38 39  1  0
 39 40  1  0
 40 41  1  1
 40 42  1  0
 41103  1  0
 41104  1  0
 41105  1  0
 42 43  1  0
 42 45  1  0
 42106  1  6
 43 44  1  0
 44107  1  0
 44108  1  0
 44109  1  0
 45 55  1  0
 45 46  1  0
 46 47  2  0
 46 56  1  0
 47 48  1  0
 47110  1  0
 48 55  2  0
 48 49  1  0
 49 50  1  0
 49 51  2  0
 50111  1  0
 50112  1  0
 50113  1  0
 51 52  1  0
 51119  1  0
 52 53  1  0
 52 54  2  0
 53114  1  0
 53115  1  0
 53116  1  0
 54 55  1  0
 54117  1  0
 56118  1  1
M  CHG  1  51   1
M  END
>  <i_m_ct_stereo_status>  (255) 
1

>  <s_m_source_file>  (255) 
/var/tmp/pbs.5076255.sched01/tmp6zmtdo5c/111u4f9dq10.sdf

>  <i_m_source_file_index>  (255) 
10

>  <i_lp_mmshare_version>  (255) 
48012

>  <i_f3d_flags>  (255) 
0

>  <s_epik_input>  (255) 
W0NIMl09QyhbQ0gzXSlbQ0gyXVtDSDJdW0NIMl1bQ0BIXShbQ0gyXVtDQEBdMShbQ0BdMjM0KVtDSDNdKUM1NltDQEBdNzhbQ0BdOShbQ0gzXSlbQ0BAXShbT0hdKShPW0NASF0zW0NAXShbT0hdKShbQ0gyXVtDSDJdNylPW0NIMl04KVtDQF0oW0NIM10pKFtDSDJdW0NIMl1bQ0BIXTlbT0hdKVtDQEBIXShPMilbQ0BASF0oT1tDSDJdW0NAQEhdMVtDSDNdKVtDSF02YzFuKFtDQEBIXShbQ0BAXTQoTzUpW0NIM10pT1tDSDNdKWMyYyhbY0hdMSljKFtDSDNdKW5jKFtDSDNdKVtjSF0y

>  <s_epik_cmdline>  (255) 
J2VwaWtfcHl0aG9uJywgJy1waHQnLCAnMi4wJywgJy1waCcsICc3LjAnLCAnLXRuJywgJzgnLCAnLW1hJywgJzIwMCcsICctaW1hZScsICc8aW5maWxlLm1hZT4nLCAnLW9tYWUnLCAnPG91dGZpbGUubWFlPic=

>  <r_lp_tautomer_probability>  (255) 
1

>  <r_epik_Ionization_Penalty>  (255) 
0.00588737

>  <r_epik_Ionization_Penalty_Charging>  (255) 
0.0058843

>  <r_epik_Ionization_Penalty_Neutral>  (255) 
3.06965e-06

>  <r_epik_State_Penalty>  (255) 
0.00432565

>  <r_epik_Charging_Adjusted_Penalty>  (255) 
0.0102099

>  <i_epik_Tot_Q>  (255) 
1

>  <i_epik_Tot_abs_Q>  (255) 
1

>  <s_epik_Chemistry_Notes>  (255) 
This compound contains an acetal/aminal-like group ( X-CH(R)-Y where X, Y are N, S, or O) that may be acid/base labile, releasing an aldehyde.

>  <s_lp_Force_Field>  (255) 
OPLS3e

>  <r_lp_Energy>  (255) 
1122.8

>  <b_lp_Chiralities_Consistent>  (255) 
1

>  <s_lp_Variant>  (255) 
96:0-2

>  <s_i_glide_gridfile>  (255) 
pfpi4k_grid

>  <i_i_glide_lignum>  (255) 
10

>  <i_i_glide_rotatable_bonds>  (255) 
8

>  <r_i_docking_score>  (255) 
-2.56903

>  <r_i_glide_ligand_efficiency>  (255) 
-0.0458755

>  <r_i_glide_ligand_efficiency_sa>  (255) 
-0.175513

>  <r_i_glide_ligand_efficiency_ln>  (255) 
-0.511214

>  <r_i_glide_gscore>  (255) 
-2.56903

>  <r_i_glide_lipo>  (255) 
-0.467594

>  <r_i_glide_hbond>  (255) 
-0.0251046

>  <r_i_glide_metal>  (255) 
-0

>  <r_i_glide_rewards>  (255) 
-0.00547394

>  <r_i_glide_evdw>  (255) 
-32.6299

>  <r_i_glide_ecoul>  (255) 
-3.69635

>  <r_i_glide_erotb>  (255) 
0.144169

>  <r_i_glide_esite>  (255) 
-0.0441508

>  <r_i_glide_emodel>  (255) 
-34.8015

>  <r_i_glide_energy>  (255) 
-36.3263

>  <r_i_glide_einternal>  (255) 
7.38648

>  <r_i_glide_intrahb_reward>  (255) 
-0

>  <i_i_glide_confnum>  (255) 
1

>  <i_i_glide_posenum>  (255) 
18

>  <r_i_glide_eff_state_penalty>  (255) 
0

>  <ligand_id>  (255) 
96

>  <original_smiles>  (255) 
C=C(C)CCCC1CC2(C)C(C)COC3C4OC25C2OC6(O)C4(C)CCC(O)C6(C)C4(CCC2(O)OC4)C12OC5(C)C(OC)n1c(cc4c(C)nc(C)cc41)C32

>  <smiles>  (255) 
[H]OC1([H])C([H])([H])C([H])([H])C2(C([H])([H])[H])C3([H])OC45C6([H])OC2(O[H])C1(C([H])([H])[H])C1(C([H])([H])OC6(O[H])C([H])([H])C1([H])[H])C12OC4(C([H])([H])[H])C([H])(OC([H])([H])[H])n4c(c([H])c6c(C([H])([H])[H])[n+]([H])c(C([H])([H])[H])c([H])c64)C1([H])C3([H])OC([H])([H])C([H])(C([H])([H])[H])C5(C([H])([H])[H])C([H])([H])C2([H])C([H])([H])C([H])([H])C([H])([H])C(=C([H])[H])C([H])([H])[H]

$$$$
96:1:1
     RDKit          3D

119129  0  0  1  0  0  0  0  0999 V2000
   -2.4806   -4.3321    8.5536 C   0  0  0  0  0  0  0  0  0  0  0  0
   -1.1790   -4.0142    8.4650 C   0  0  0  0  0  0  0  0  0  0  0  0
   -0.2761   -4.6322    7.4145 C   0  0  0  0  0  0  0  0  0  0  0  0
   -0.5344   -3.0223    9.4201 C   0  0  0  0  0  0  0  0  0  0  0  0
    0.2172   -1.8854    8.7017 C   0  0  0  0  0  0  0  0  0  0  0  0
    0.4808   -0.6419    9.6071 C   0  0  0  0  0  0  0  0  0  0  0  0
    1.6716    0.3653    9.1357 C   0  0  0  0  0  0  0  0  0  0  0  0
    2.8296    0.8464   10.2645 C   0  0  0  0  0  0  0  0  0  0  0  0
    4.2867    1.5106    9.8066 C   0  0  1  0  0  0  0  0  0  0  0  0
    4.5914    2.6902   10.8093 C   0  0  0  0  0  0  0  0  0  0  0  0
    5.7849    0.9777    9.3919 C   0  0  1  0  0  0  0  0  0  0  0  0
    6.5688    0.1435   10.4416 C   0  0  0  0  0  0  0  0  0  0  0  0
    6.3793    0.8630    7.8691 C   0  0  0  0  0  0  0  0  0  0  0  0
    5.6688    0.7462    6.5571 O   0  0  0  0  0  0  0  0  0  0  0  0
    4.4874    1.4458    5.9683 C   0  0  2  0  0  0  0  0  0  0  0  0
    4.5924    2.8523    6.2592 C   0  0  2  0  0  0  0  0  0  0  0  0
    4.6316    2.6824    7.7081 O   0  0  0  0  0  0  0  0  0  0  0  0
    3.8032    1.6796    8.4323 C   0  0  2  0  0  0  0  0  0  0  0  0
    2.6588    2.9991    8.6488 C   0  0  1  0  0  0  0  0  0  0  0  0
    2.6730    3.9223    7.5659 O   0  0  0  0  0  0  0  0  0  0  0  0
    2.2797    3.9130    6.2157 C   0  0  1  0  0  0  0  0  0  0  0  0
    1.9594    5.3040    6.1546 O   0  0  0  0  0  0  0  0  0  0  0  0
    3.5970    3.8385    5.4351 C   0  0  1  0  0  0  0  0  0  0  0  0
    4.3984    5.1956    5.4331 C   0  0  0  0  0  0  0  0  0  0  0  0
    3.0723    3.6459    3.9467 C   0  0  0  0  0  0  0  0  0  0  0  0
    1.6220    4.2394    3.5795 C   0  0  0  0  0  0  0  0  0  0  0  0
    0.3735    4.0354    4.5879 C   0  0  1  0  0  0  0  0  0  0  0  0
   -0.8290    3.8277    3.8478 O   0  0  0  0  0  0  0  0  0  0  0  0
    0.8622    2.9804    5.7091 C   0  0  1  0  0  0  0  0  0  0  0  0
    0.5498    1.7519    4.7350 C   0  0  0  0  0  0  0  0  0  0  0  0
    0.4888    2.2190    7.0805 C   0  0  2  0  0  0  0  0  0  0  0  0
   -0.6370    1.6978    7.9911 C   0  0  0  0  0  0  0  0  0  0  0  0
   -0.1927    2.2350    9.4752 C   0  0  0  0  0  0  0  0  0  0  0  0
    1.1505    3.1813    9.4354 C   0  0  1  0  0  0  0  0  0  0  0  0
    1.3569    3.6379   10.7560 O   0  0  0  0  0  0  0  0  0  0  0  0
    0.6336    4.2331    8.7494 O   0  0  0  0  0  0  0  0  0  0  0  0
    0.0200    3.7421    7.5872 C   0  0  0  0  0  0  0  0  0  0  0  0
    1.7672    0.9993    7.4187 C   0  0  2  0  0  0  0  0  0  0  0  0
    2.2516   -0.3146    7.4559 O   0  0  0  0  0  0  0  0  0  0  0  0
    3.6721   -0.2407    7.9792 C   0  0  2  0  0  0  0  0  0  0  0  0
    4.1600   -1.3026    9.1377 C   0  0  0  0  0  0  0  0  0  0  0  0
    4.2613   -1.3341    6.8323 C   0  0  1  0  0  0  0  0  0  0  0  0
    3.6499   -2.5856    7.1235 O   0  0  0  0  0  0  0  0  0  0  0  0
    4.3997   -3.7955    7.0707 C   0  0  0  0  0  0  0  0  0  0  0  0
    3.8455   -1.2092    5.4485 N   0  0  0  0  0  0  0  0  0  0  0  0
    2.9956   -0.2181    5.0692 C   0  0  0  0  0  0  0  0  0  0  0  0
    2.6233   -0.4095    3.7556 C   0  0  0  0  0  0  0  0  0  0  0  0
    3.3604   -1.5402    3.2709 C   0  0  0  0  0  0  0  0  0  0  0  0
    3.4885   -2.2370    2.0304 C   0  0  0  0  0  0  0  0  0  0  0  0
    2.6808   -1.8898    0.8036 C   0  0  0  0  0  0  0  0  0  0  0  0
    4.3647   -3.2619    1.9050 N   0  0  0  0  0  0  0  0  0  0  0  0
    5.1680   -3.6753    2.8968 C   0  0  0  0  0  0  0  0  0  0  0  0
    6.1141   -4.8240    2.6262 C   0  0  0  0  0  0  0  0  0  0  0  0
    5.1076   -3.0278    4.1440 C   0  0  0  0  0  0  0  0  0  0  0  0
    4.1819   -1.9815    4.3437 C   0  0  0  0  0  0  0  0  0  0  0  0
    2.9269    0.9439    6.0299 C   0  0  2  0  0  0  0  0  0  0  0  0
   -2.9339   -5.0386    7.8727 H   0  0  0  0  0  0  0  0  0  0  0  0
   -3.1199   -3.9043    9.3121 H   0  0  0  0  0  0  0  0  0  0  0  0
    0.5752   -5.1197    7.8899 H   0  0  0  0  0  0  0  0  0  0  0  0
    0.1039   -3.8729    6.7308 H   0  0  0  0  0  0  0  0  0  0  0  0
   -0.8080   -5.3787    6.8251 H   0  0  0  0  0  0  0  0  0  0  0  0
   -1.2923   -2.6290   10.1003 H   0  0  0  0  0  0  0  0  0  0  0  0
    0.1682   -3.5603   10.0571 H   0  0  0  0  0  0  0  0  0  0  0  0
    1.1457   -2.3159    8.3228 H   0  0  0  0  0  0  0  0  0  0  0  0
   -0.3253   -1.5602    7.8131 H   0  0  0  0  0  0  0  0  0  0  0  0
   -0.5270   -0.2722    9.7366 H   0  0  0  0  0  0  0  0  0  0  0  0
    0.6925   -0.9876   10.6371 H   0  0  0  0  0  0  0  0  0  0  0  0
    2.0171   -0.6190    9.3911 H   0  0  0  0  0  0  0  0  0  0  0  0
    2.3358    1.5245   10.9413 H   0  0  0  0  0  0  0  0  0  0  0  0
    2.9730    0.0949   11.0425 H   0  0  0  0  0  0  0  0  0  0  0  0
    5.1486    3.5107   10.3488 H   0  0  0  0  0  0  0  0  0  0  0  0
    5.1940    2.3400   11.6515 H   0  0  0  0  0  0  0  0  0  0  0  0
    3.7175    3.1340   11.2789 H   0  0  0  0  0  0  0  0  0  0  0  0
    6.3389    1.8981    9.5761 H   0  0  0  0  0  0  0  0  0  0  0  0
    6.6651   -0.9062   10.1726 H   0  0  0  0  0  0  0  0  0  0  0  0
    6.1114    0.1934   11.4298 H   0  0  0  0  0  0  0  0  0  0  0  0
    7.5921    0.5070   10.5336 H   0  0  0  0  0  0  0  0  0  0  0  0
    7.0796    1.6869    7.7156 H   0  0  0  0  0  0  0  0  0  0  0  0
    7.0356   -0.0092    7.8741 H   0  0  0  0  0  0  0  0  0  0  0  0
    4.7563    1.4013    4.9109 H   0  0  0  0  0  0  0  0  0  0  0  0
    5.6106    3.1459    5.9974 H   0  0  0  0  0  0  0  0  0  0  0  0
    3.2080    3.7363    9.2218 H   0  0  0  0  0  0  0  0  0  0  0  0
    2.7535    5.7708    6.3504 H   0  0  0  0  0  0  0  0  0  0  0  0
    3.8967    6.0026    4.8941 H   0  0  0  0  0  0  0  0  0  0  0  0
    5.3476    5.0811    4.9081 H   0  0  0  0  0  0  0  0  0  0  0  0
    4.6399    5.5460    6.4380 H   0  0  0  0  0  0  0  0  0  0  0  0
    3.7815    4.1191    3.2702 H   0  0  0  0  0  0  0  0  0  0  0  0
    3.1275    2.6102    3.6213 H   0  0  0  0  0  0  0  0  0  0  0  0
    1.7296    5.3134    3.4158 H   0  0  0  0  0  0  0  0  0  0  0  0
    1.3795    3.8506    2.5907 H   0  0  0  0  0  0  0  0  0  0  0  0
    0.0795    5.0159    4.9557 H   0  0  0  0  0  0  0  0  0  0  0  0
   -0.6102    3.8421    2.9229 H   0  0  0  0  0  0  0  0  0  0  0  0
   -0.5303    1.6550    4.6042 H   0  0  0  0  0  0  0  0  0  0  0  0
    0.6836    0.7492    5.1239 H   0  0  0  0  0  0  0  0  0  0  0  0
    0.9493    1.8249    3.7254 H   0  0  0  0  0  0  0  0  0  0  0  0
   -1.6559    1.9777    7.7086 H   0  0  0  0  0  0  0  0  0  0  0  0
   -0.7097    0.6263    7.8734 H   0  0  0  0  0  0  0  0  0  0  0  0
   -1.0093    2.8766    9.8146 H   0  0  0  0  0  0  0  0  0  0  0  0
   -0.1327    1.5915   10.3441 H   0  0  0  0  0  0  0  0  0  0  0  0
    1.9846    4.3440   10.7147 H   0  0  0  0  0  0  0  0  0  0  0  0
   -0.0659    4.5887    6.9307 H   0  0  0  0  0  0  0  0  0  0  0  0
   -1.0502    3.8667    7.7700 H   0  0  0  0  0  0  0  0  0  0  0  0
    5.1193   -1.7743    8.9190 H   0  0  0  0  0  0  0  0  0  0  0  0
    3.4605   -2.1240    9.3119 H   0  0  0  0  0  0  0  0  0  0  0  0
    4.3570   -0.9830   10.1458 H   0  0  0  0  0  0  0  0  0  0  0  0
    5.3415   -1.4742    6.8475 H   0  0  0  0  0  0  0  0  0  0  0  0
    4.0993   -4.3768    6.1971 H   0  0  0  0  0  0  0  0  0  0  0  0
    4.1721   -4.4109    7.9397 H   0  0  0  0  0  0  0  0  0  0  0  0
    5.4806   -3.6458    7.0576 H   0  0  0  0  0  0  0  0  0  0  0  0
    2.0007    0.1902    3.1170 H   0  0  0  0  0  0  0  0  0  0  0  0
    2.2238   -0.9067    0.9007 H   0  0  0  0  0  0  0  0  0  0  0  0
    1.8993   -2.6349    0.6484 H   0  0  0  0  0  0  0  0  0  0  0  0
    3.3098   -1.8904   -0.0903 H   0  0  0  0  0  0  0  0  0  0  0  0
    6.6930   -5.0697    3.5124 H   0  0  0  0  0  0  0  0  0  0  0  0
    6.8034   -4.5628    1.8260 H   0  0  0  0  0  0  0  0  0  0  0  0
    5.5559   -5.7110    2.3356 H   0  0  0  0  0  0  0  0  0  0  0  0
    5.7851   -3.3260    4.9230 H   0  0  0  0  0  0  0  0  0  0  0  0
    2.6755    1.6605    5.3421 H   0  0  0  0  0  0  0  0  0  0  0  0
    4.4248   -3.7399    1.0006 H   0  0  0  0  0  0  0  0  0  0  0  0
  1  2  2  0
  1 57  1  0
  1 58  1  0
  2  3  1  0
  2  4  1  0
  3 59  1  0
  3 60  1  0
  3 61  1  0
  4  5  1  0
  4 62  1  0
  4 63  1  0
  5  6  1  0
  5 64  1  0
  5 65  1  0
  6  7  1  0
  6 66  1  0
  6 67  1  0
 38  7  1  1
  7  8  1  0
  7 68  1  0
  8  9  1  0
  8 69  1  0
  8 70  1  0
  9 18  1  0
  9 10  1  1
  9 11  1  0
 10 71  1  0
 10 72  1  0
 10 73  1  0
 11 12  1  0
 11 13  1  0
 11 74  1  1
 12 75  1  0
 12 76  1  0
 12 77  1  0
 13 14  1  0
 13 78  1  0
 13 79  1  0
 14 15  1  0
 15 56  1  0
 15 16  1  0
 15 80  1  6
 16 23  1  0
 16 17  1  0
 16 81  1  6
 18 17  1  6
 18 40  1  0
 18 19  1  0
 19 34  1  0
 19 20  1  0
 19 82  1  1
 20 21  1  0
 21 29  1  0
 21 22  1  6
 21 23  1  0
 22 83  1  0
 23 24  1  6
 23 25  1  0
 24 84  1  0
 24 85  1  0
 24 86  1  0
 25 26  1  0
 25 87  1  0
 25 88  1  0
 26 27  1  0
 26 89  1  0
 26 90  1  0
 27 28  1  0
 27 29  1  0
 27 91  1  1
 28 92  1  0
 29 30  1  6
 29 31  1  0
 30 93  1  0
 30 94  1  0
 30 95  1  0
 31 37  1  1
 31 32  1  0
 31 38  1  0
 32 33  1  0
 32 96  1  0
 32 97  1  0
 33 34  1  0
 33 98  1  0
 33 99  1  0
 34 35  1  1
 34 36  1  0
 35100  1  0
 36 37  1  0
 37101  1  0
 37102  1  0
 38 56  1  0
 38 39  1  0
 39 40  1  0
 40 41  1  1
 40 42  1  0
 41103  1  0
 41104  1  0
 41105  1  0
 42 43  1  0
 42 45  1  0
 42106  1  6
 43 44  1  0
 44107  1  0
 44108  1  0
 44109  1  0
 45 55  1  0
 45 46  1  0
 46 47  2  0
 46 56  1  0
 47 48  1  0
 47110  1  0
 48 55  2  0
 48 49  1  0
 49 50  1  0
 49 51  2  0
 50111  1  0
 50112  1  0
 50113  1  0
 51 52  1  0
 51119  1  0
 52 53  1  0
 52 54  2  0
 53114  1  0
 53115  1  0
 53116  1  0
 54 55  1  0
 54117  1  0
 56118  1  6
M  CHG  1  51   1
M  END
>  <i_m_ct_stereo_status>  (256) 
1

>  <s_m_source_file>  (256) 
/var/tmp/pbs.5076255.sched01/tmp6zmtdo5c/111u4f9dq10.sdf

>  <i_m_source_file_index>  (256) 
10

>  <i_lp_mmshare_version>  (256) 
48012

>  <i_f3d_flags>  (256) 
0

>  <s_epik_input>  (256) 
W0NIMl09QyhbQ0gzXSlbQ0gyXVtDSDJdW0NIMl1bQ0BIXShbQ0gyXVtDQEBdMShbQ0BdMjM0KVtDSDNdKUM1NltDQEBdNzhbQ0BdOShbQ0gzXSlbQ0BAXShbT0hdKShPW0NASF0zW0NAXShbT0hdKShbQ0gyXVtDSDJdNylPW0NIMl04KVtDQF0oW0NIM10pKFtDSDJdW0NIMl1bQ0BIXTlbT0hdKVtDQEBIXShPMilbQ0BASF0oT1tDSDJdW0NAQEhdMVtDSDNdKVtDSF02YzFuKFtDQEBIXShbQ0BAXTQoTzUpW0NIM10pT1tDSDNdKWMyYyhbY0hdMSljKFtDSDNdKW5jKFtDSDNdKVtjSF0y

>  <s_epik_cmdline>  (256) 
J2VwaWtfcHl0aG9uJywgJy1waHQnLCAnMi4wJywgJy1waCcsICc3LjAnLCAnLXRuJywgJzgnLCAnLW1hJywgJzIwMCcsICctaW1hZScsICc8aW5maWxlLm1hZT4nLCAnLW9tYWUnLCAnPG91dGZpbGUubWFlPic=

>  <r_lp_tautomer_probability>  (256) 
1

>  <r_epik_Ionization_Penalty>  (256) 
0.00588737

>  <r_epik_Ionization_Penalty_Charging>  (256) 
0.0058843

>  <r_epik_Ionization_Penalty_Neutral>  (256) 
3.06965e-06

>  <r_epik_State_Penalty>  (256) 
0.00432565

>  <r_epik_Charging_Adjusted_Penalty>  (256) 
0.0102099

>  <i_epik_Tot_Q>  (256) 
1

>  <i_epik_Tot_abs_Q>  (256) 
1

>  <s_epik_Chemistry_Notes>  (256) 
This compound contains an acetal/aminal-like group ( X-CH(R)-Y where X, Y are N, S, or O) that may be acid/base labile, releasing an aldehyde.

>  <s_lp_Force_Field>  (256) 
OPLS3e

>  <r_lp_Energy>  (256) 
1122.8

>  <b_lp_Chiralities_Consistent>  (256) 
1

>  <s_lp_Variant>  (256) 
96:0-2

>  <s_i_glide_gridfile>  (256) 
pfpi4k_grid

>  <i_i_glide_lignum>  (256) 
10

>  <i_i_glide_rotatable_bonds>  (256) 
8

>  <r_i_docking_score>  (256) 
-1.83932

>  <r_i_glide_ligand_efficiency>  (256) 
-0.0328451

>  <r_i_glide_ligand_efficiency_sa>  (256) 
-0.125661

>  <r_i_glide_ligand_efficiency_ln>  (256) 
-0.366009

>  <r_i_glide_gscore>  (256) 
-1.83932

>  <r_i_glide_lipo>  (256) 
-0.123214

>  <r_i_glide_hbond>  (256) 
-0.0433184

>  <r_i_glide_metal>  (256) 
-0

>  <r_i_glide_rewards>  (256) 
0

>  <r_i_glide_evdw>  (256) 
-22.4397

>  <r_i_glide_ecoul>  (256) 
-4.63316

>  <r_i_glide_erotb>  (256) 
0.144169

>  <r_i_glide_esite>  (256) 
0

>  <r_i_glide_emodel>  (256) 
-29.1384

>  <r_i_glide_energy>  (256) 
-27.0729

>  <r_i_glide_einternal>  (256) 
3.71569

>  <r_i_glide_intrahb_reward>  (256) 
-0

>  <i_i_glide_confnum>  (256) 
1

>  <i_i_glide_posenum>  (256) 
14

>  <r_i_glide_eff_state_penalty>  (256) 
0

>  <ligand_id>  (256) 
96

>  <original_smiles>  (256) 
C=C(C)CCCC1CC2(C)C(C)COC3C4OC25C2OC6(O)C4(C)CCC(O)C6(C)C4(CCC2(O)OC4)C12OC5(C)C(OC)n1c(cc4c(C)nc(C)cc41)C32

>  <smiles>  (256) 
[H]OC1([H])C([H])([H])C([H])([H])C2(C([H])([H])[H])C3([H])OC45C6([H])OC2(O[H])C1(C([H])([H])[H])C1(C([H])([H])OC6(O[H])C([H])([H])C1([H])[H])C12OC4(C([H])([H])[H])C([H])(OC([H])([H])[H])n4c(c([H])c6c(C([H])([H])[H])[n+]([H])c(C([H])([H])[H])c([H])c64)C1([H])C3([H])OC([H])([H])C([H])(C([H])([H])[H])C5(C([H])([H])[H])C([H])([H])C2([H])C([H])([H])C([H])([H])C([H])([H])C(=C([H])[H])C([H])([H])[H]

$$$$
96:1:2
     RDKit          3D

119129  0  0  1  0  0  0  0  0999 V2000
   -1.7202   -7.7190    3.1359 C   0  0  0  0  0  0  0  0  0  0  0  0
   -0.7214   -7.3086    3.9365 C   0  0  0  0  0  0  0  0  0  0  0  0
    0.7043   -7.7820    3.7338 C   0  0  0  0  0  0  0  0  0  0  0  0
   -0.9469   -6.3724    5.1132 C   0  0  0  0  0  0  0  0  0  0  0  0
   -0.0466   -5.1212    5.0838 C   0  0  0  0  0  0  0  0  0  0  0  0
   -0.3117   -4.1448    6.2756 C   0  0  0  0  0  0  0  0  0  0  0  0
    0.7688   -2.9393    6.4731 C   0  0  0  0  0  0  0  0  0  0  0  0
    1.4407   -2.6801    7.9907 C   0  0  0  0  0  0  0  0  0  0  0  0
    2.8327   -1.7804    8.2146 C   0  0  1  0  0  0  0  0  0  0  0  0
    2.6203   -0.9062    9.5011 C   0  0  0  0  0  0  0  0  0  0  0  0
    4.4580   -2.0305    8.1863 C   0  0  1  0  0  0  0  0  0  0  0  0
    5.0389   -3.0485    9.2031 C   0  0  0  0  0  0  0  0  0  0  0  0
    5.4807   -1.6560    6.9559 C   0  0  0  0  0  0  0  0  0  0  0  0
    5.2109   -1.4663    5.4933 O   0  0  0  0  0  0  0  0  0  0  0  0
    4.1465   -0.7401    4.7361 C   0  0  2  0  0  0  0  0  0  0  0  0
    3.9047    0.5206    5.3862 C   0  0  2  0  0  0  0  0  0  0  0  0
    3.5713   -0.0365    6.6891 O   0  0  0  0  0  0  0  0  0  0  0  0
    2.7680   -1.2818    6.8426 C   0  0  2  0  0  0  0  0  0  0  0  0
    1.3883   -0.1737    6.9570 C   0  0  1  0  0  0  0  0  0  0  0  0
    1.5540    1.0377    6.2242 O   0  0  0  0  0  0  0  0  0  0  0  0
    1.5570    1.3606    4.8668 C   0  0  1  0  0  0  0  0  0  0  0  0
    1.0176    2.6699    5.0387 O   0  0  0  0  0  0  0  0  0  0  0  0
    3.0108    1.6146    4.5775 C   0  0  1  0  0  0  0  0  0  0  0  0
    3.5483    2.9909    5.1276 C   0  0  0  0  0  0  0  0  0  0  0  0
    2.9567    1.7793    3.0113 C   0  0  0  0  0  0  0  0  0  0  0  0
    1.6132    2.3436    2.3473 C   0  0  0  0  0  0  0  0  0  0  0  0
    0.1961    1.7389    2.7881 C   0  0  1  0  0  0  0  0  0  0  0  0
   -0.6551    1.6050    1.6634 O   0  0  0  0  0  0  0  0  0  0  0  0
    0.5667    0.4681    3.6846 C   0  0  1  0  0  0  0  0  0  0  0  0
    0.7736   -0.4546    2.3826 C   0  0  0  0  0  0  0  0  0  0  0  0
   -0.0399   -0.6675    4.6068 C   0  0  2  0  0  0  0  0  0  0  0  0
   -1.2407   -1.5551    4.8769 C   0  0  0  0  0  0  0  0  0  0  0  0
   -1.4028   -1.3911    6.4553 C   0  0  0  0  0  0  0  0  0  0  0  0
   -0.2833   -0.3387    7.1664 C   0  0  1  0  0  0  0  0  0  0  0  0
   -0.5023   -0.2468    8.5627 O   0  0  0  0  0  0  0  0  0  0  0  0
   -0.7549    0.8294    6.6556 O   0  0  0  0  0  0  0  0  0  0  0  0
   -0.9139    0.6249    5.2665 C   0  0  0  0  0  0  0  0  0  0  0  0
    1.2451   -1.8409    5.0734 C   0  0  2  0  0  0  0  0  0  0  0  0
    1.9405   -3.0678    4.9479 O   0  0  0  0  0  0  0  0  0  0  0  0
    3.1076   -2.9980    5.9240 C   0  0  2  0  0  0  0  0  0  0  0  0
    3.4145   -4.2945    6.8848 C   0  0  0  0  0  0  0  0  0  0  0  0
    4.1729   -3.6667    4.7825 C   0  0  1  0  0  0  0  0  0  0  0  0
    3.7260   -5.0011    4.5559 O   0  0  0  0  0  0  0  0  0  0  0  0
    4.6660   -6.0624    4.4604 C   0  0  0  0  0  0  0  0  0  0  0  0
    4.1534   -3.1885    3.4128 N   0  0  0  0  0  0  0  0  0  0  0  0
    3.2922   -2.2142    3.0262 C   0  0  0  0  0  0  0  0  0  0  0  0
    3.3468   -2.0765    1.6514 C   0  0  0  0  0  0  0  0  0  0  0  0
    4.3769   -2.9379    1.1813 C   0  0  0  0  0  0  0  0  0  0  0  0
    4.9699   -3.2294   -0.0808 C   0  0  0  0  0  0  0  0  0  0  0  0
    4.4981   -2.6317   -1.3879 C   0  0  0  0  0  0  0  0  0  0  0  0
    6.0097   -4.0836   -0.1421 N   0  0  0  0  0  0  0  0  0  0  0  0
    6.5677   -4.6847    0.9293 C   0  0  0  0  0  0  0  0  0  0  0  0
    7.7438   -5.6183    0.7283 C   0  0  0  0  0  0  0  0  0  0  0  0
    6.0330   -4.4338    2.2040 C   0  0  0  0  0  0  0  0  0  0  0  0
    4.9220   -3.5848    2.3272 C   0  0  0  0  0  0  0  0  0  0  0  0
    2.7475   -1.3848    4.1754 C   0  0  2  0  0  0  0  0  0  0  0  0
   -1.5316   -8.3866    2.3075 H   0  0  0  0  0  0  0  0  0  0  0  0
   -2.7389   -7.4084    3.2964 H   0  0  0  0  0  0  0  0  0  0  0  0
    1.0637   -8.2539    4.6499 H   0  0  0  0  0  0  0  0  0  0  0  0
    1.3685   -6.9533    3.4859 H   0  0  0  0  0  0  0  0  0  0  0  0
    0.7644   -8.5161    2.9299 H   0  0  0  0  0  0  0  0  0  0  0  0
   -2.0128   -6.1377    5.1902 H   0  0  0  0  0  0  0  0  0  0  0  0
   -0.6960   -6.9141    6.0231 H   0  0  0  0  0  0  0  0  0  0  0  0
    0.9877   -5.4537    5.1095 H   0  0  0  0  0  0  0  0  0  0  0  0
   -0.1724   -4.5785    4.1409 H   0  0  0  0  0  0  0  0  0  0  0  0
   -1.3548   -3.8633    6.1452 H   0  0  0  0  0  0  0  0  0  0  0  0
   -0.3655   -4.7270    7.1996 H   0  0  0  0  0  0  0  0  0  0  0  0
    1.2039   -3.9153    6.5876 H   0  0  0  0  0  0  0  0  0  0  0  0
    0.6609   -2.2577    8.5988 H   0  0  0  0  0  0  0  0  0  0  0  0
    1.4961   -3.6018    8.5747 H   0  0  0  0  0  0  0  0  0  0  0  0
    3.1318    0.0603    9.4536 H   0  0  0  0  0  0  0  0  0  0  0  0
    3.0129   -1.4229   10.3808 H   0  0  0  0  0  0  0  0  0  0  0  0
    1.5856   -0.6998    9.7568 H   0  0  0  0  0  0  0  0  0  0  0  0
    4.7606   -1.1490    8.7490 H   0  0  0  0  0  0  0  0  0  0  0  0
    5.3956   -3.9624    8.7337 H   0  0  0  0  0  0  0  0  0  0  0  0
    4.3087   -3.3228    9.9626 H   0  0  0  0  0  0  0  0  0  0  0  0
    5.9009   -2.6302    9.7259 H   0  0  0  0  0  0  0  0  0  0  0  0
    6.0268   -0.7538    7.2358 H   0  0  0  0  0  0  0  0  0  0  0  0
    6.2458   -2.4275    6.9621 H   0  0  0  0  0  0  0  0  0  0  0  0
    4.7044   -0.4549    3.8454 H   0  0  0  0  0  0  0  0  0  0  0  0
    4.8802    0.9828    5.5309 H   0  0  0  0  0  0  0  0  0  0  0  0
    1.6264    0.4209    7.8401 H   0  0  0  0  0  0  0  0  0  0  0  0
    1.1179    3.1216    4.2180 H   0  0  0  0  0  0  0  0  0  0  0  0
    3.0702    3.8488    4.6596 H   0  0  0  0  0  0  0  0  0  0  0  0
    4.6173    3.1033    4.9167 H   0  0  0  0  0  0  0  0  0  0  0  0
    3.4048    3.0615    6.1999 H   0  0  0  0  0  0  0  0  0  0  0  0
    3.6919    2.5433    2.8507 H   0  0  0  0  0  0  0  0  0  0  0  0
    3.3243    0.9154    2.4443 H   0  0  0  0  0  0  0  0  0  0  0  0
    1.5897    3.4209    2.4670 H   0  0  0  0  0  0  0  0  0  0  0  0
    1.7274    2.1972    1.2911 H   0  0  0  0  0  0  0  0  0  0  0  0
   -0.3724    2.5510    3.2525 H   0  0  0  0  0  0  0  0  0  0  0  0
   -0.5682    2.4076    1.1580 H   0  0  0  0  0  0  0  0  0  0  0  0
   -0.1804   -0.6096    1.8567 H   0  0  0  0  0  0  0  0  0  0  0  0
    0.9455   -1.5076    2.5691 H   0  0  0  0  0  0  0  0  0  0  0  0
    1.4704   -0.0539    1.6474 H   0  0  0  0  0  0  0  0  0  0  0  0
   -2.1845   -1.2853    4.4008 H   0  0  0  0  0  0  0  0  0  0  0  0
   -1.0779   -2.5618    4.5068 H   0  0  0  0  0  0  0  0  0  0  0  0
   -2.4706   -1.0258    6.4486 H   0  0  0  0  0  0  0  0  0  0  0  0
   -1.3956   -2.2347    7.1218 H   0  0  0  0  0  0  0  0  0  0  0  0
    0.1016    0.4043    8.9274 H   0  0  0  0  0  0  0  0  0  0  0  0
   -0.9975    1.6233    4.8653 H   0  0  0  0  0  0  0  0  0  0  0  0
   -1.9945    0.5839    5.1233 H   0  0  0  0  0  0  0  0  0  0  0  0
    4.4600   -4.5859    6.8769 H   0  0  0  0  0  0  0  0  0  0  0  0
    2.8471   -5.1907    6.6151 H   0  0  0  0  0  0  0  0  0  0  0  0
    3.2456   -4.2461    7.9406 H   0  0  0  0  0  0  0  0  0  0  0  0
    5.2008   -3.6915    5.1208 H   0  0  0  0  0  0  0  0  0  0  0  0
    4.7276   -6.3920    3.4241 H   0  0  0  0  0  0  0  0  0  0  0  0
    4.3099   -6.9173    5.0369 H   0  0  0  0  0  0  0  0  0  0  0  0
    5.6626   -5.8114    4.8288 H   0  0  0  0  0  0  0  0  0  0  0  0
    2.8210   -1.3809    1.0229 H   0  0  0  0  0  0  0  0  0  0  0  0
    3.8642   -1.7592   -1.2332 H   0  0  0  0  0  0  0  0  0  0  0  0
    3.9388   -3.3799   -1.9519 H   0  0  0  0  0  0  0  0  0  0  0  0
    5.3565   -2.3305   -1.9921 H   0  0  0  0  0  0  0  0  0  0  0  0
    8.0937   -6.0281    1.6763 H   0  0  0  0  0  0  0  0  0  0  0  0
    8.5739   -5.0916    0.2628 H   0  0  0  0  0  0  0  0  0  0  0  0
    7.4582   -6.4509    0.0887 H   0  0  0  0  0  0  0  0  0  0  0  0
    6.4969   -4.8878    3.0638 H   0  0  0  0  0  0  0  0  0  0  0  0
    2.6038   -0.5191    3.6535 H   0  0  0  0  0  0  0  0  0  0  0  0
    6.4062   -4.2856   -1.0621 H   0  0  0  0  0  0  0  0  0  0  0  0
  1  2  2  0
  1 57  1  0
  1 58  1  0
  2  3  1  0
  2  4  1  0
  3 59  1  0
  3 60  1  0
  3 61  1  0
  4  5  1  0
  4 62  1  0
  4 63  1  0
  5  6  1  0
  5 64  1  0
  5 65  1  0
  6  7  1  0
  6 66  1  0
  6 67  1  0
 38  7  1  1
  7  8  1  0
  7 68  1  0
  8  9  1  0
  8 69  1  0
  8 70  1  0
  9 18  1  0
  9 10  1  1
  9 11  1  0
 10 71  1  0
 10 72  1  0
 10 73  1  0
 11 12  1  0
 11 13  1  0
 11 74  1  1
 12 75  1  0
 12 76  1  0
 12 77  1  0
 13 14  1  0
 13 78  1  0
 13 79  1  0
 14 15  1  0
 15 56  1  0
 15 16  1  0
 15 80  1  6
 16 23  1  0
 16 17  1  0
 16 81  1  1
 18 17  1  1
 18 40  1  0
 18 19  1  0
 19 34  1  0
 19 20  1  0
 19 82  1  1
 20 21  1  0
 21 29  1  0
 21 22  1  1
 21 23  1  0
 22 83  1  0
 23 24  1  1
 23 25  1  0
 24 84  1  0
 24 85  1  0
 24 86  1  0
 25 26  1  0
 25 87  1  0
 25 88  1  0
 26 27  1  0
 26 89  1  0
 26 90  1  0
 27 28  1  0
 27 29  1  0
 27 91  1  1
 28 92  1  0
 29 30  1  6
 29 31  1  0
 30 93  1  0
 30 94  1  0
 30 95  1  0
 31 37  1  1
 31 32  1  0
 31 38  1  0
 32 33  1  0
 32 96  1  0
 32 97  1  0
 33 34  1  0
 33 98  1  0
 33 99  1  0
 34 35  1  1
 34 36  1  0
 35100  1  0
 36 37  1  0
 37101  1  0
 37102  1  0
 38 56  1  0
 38 39  1  0
 39 40  1  0
 40 41  1  1
 40 42  1  0
 41103  1  0
 41104  1  0
 41105  1  0
 42 43  1  0
 42 45  1  0
 42106  1  1
 43 44  1  0
 44107  1  0
 44108  1  0
 44109  1  0
 45 55  1  0
 45 46  1  0
 46 47  2  0
 46 56  1  0
 47 48  1  0
 47110  1  0
 48 55  2  0
 48 49  1  0
 49 50  1  0
 49 51  2  0
 50111  1  0
 50112  1  0
 50113  1  0
 51 52  1  0
 51119  1  0
 52 53  1  0
 52 54  2  0
 53114  1  0
 53115  1  0
 53116  1  0
 54 55  1  0
 54117  1  0
 56118  1  6
M  CHG  1  51   1
M  END
>  <i_m_ct_stereo_status>  (257) 
1

>  <s_m_source_file>  (257) 
/var/tmp/pbs.5076255.sched01/tmp6zmtdo5c/111u4f9dq10.sdf

>  <i_m_source_file_index>  (257) 
10

>  <i_lp_mmshare_version>  (257) 
48012

>  <i_f3d_flags>  (257) 
0

>  <s_epik_input>  (257) 
W0NIMl09QyhbQ0gzXSlbQ0gyXVtDSDJdW0NIMl1bQ0BIXShbQ0gyXVtDQEBdMShbQ0BdMjM0KVtDSDNdKUM1NltDQEBdNzhbQ0BdOShbQ0gzXSlbQ0BAXShbT0hdKShPW0NASF0zW0NAXShbT0hdKShbQ0gyXVtDSDJdNylPW0NIMl04KVtDQF0oW0NIM10pKFtDSDJdW0NIMl1bQ0BIXTlbT0hdKVtDQEBIXShPMilbQ0BASF0oT1tDSDJdW0NAQEhdMVtDSDNdKVtDSF02YzFuKFtDQEBIXShbQ0BAXTQoTzUpW0NIM10pT1tDSDNdKWMyYyhbY0hdMSljKFtDSDNdKW5jKFtDSDNdKVtjSF0y

>  <s_epik_cmdline>  (257) 
J2VwaWtfcHl0aG9uJywgJy1waHQnLCAnMi4wJywgJy1waCcsICc3LjAnLCAnLXRuJywgJzgnLCAnLW1hJywgJzIwMCcsICctaW1hZScsICc8aW5maWxlLm1hZT4nLCAnLW9tYWUnLCAnPG91dGZpbGUubWFlPic=

>  <r_lp_tautomer_probability>  (257) 
1

>  <r_epik_Ionization_Penalty>  (257) 
0.00588737

>  <r_epik_Ionization_Penalty_Charging>  (257) 
0.0058843

>  <r_epik_Ionization_Penalty_Neutral>  (257) 
3.06965e-06

>  <r_epik_State_Penalty>  (257) 
0.00432565

>  <r_epik_Charging_Adjusted_Penalty>  (257) 
0.0102099

>  <i_epik_Tot_Q>  (257) 
1

>  <i_epik_Tot_abs_Q>  (257) 
1

>  <s_epik_Chemistry_Notes>  (257) 
This compound contains an acetal/aminal-like group ( X-CH(R)-Y where X, Y are N, S, or O) that may be acid/base labile, releasing an aldehyde.

>  <s_lp_Force_Field>  (257) 
OPLS3e

>  <r_lp_Energy>  (257) 
1122.8

>  <b_lp_Chiralities_Consistent>  (257) 
1

>  <s_lp_Variant>  (257) 
96:0-2

>  <s_i_glide_gridfile>  (257) 
pfpi4k_grid

>  <i_i_glide_lignum>  (257) 
10

>  <i_i_glide_rotatable_bonds>  (257) 
8

>  <r_i_docking_score>  (257) 
-1.70516

>  <r_i_glide_ligand_efficiency>  (257) 
-0.0304493

>  <r_i_glide_ligand_efficiency_sa>  (257) 
-0.116495

>  <r_i_glide_ligand_efficiency_ln>  (257) 
-0.339311

>  <r_i_glide_gscore>  (257) 
-1.70516

>  <r_i_glide_lipo>  (257) 
-0.303461

>  <r_i_glide_hbond>  (257) 
-0.154971

>  <r_i_glide_metal>  (257) 
-0

>  <r_i_glide_rewards>  (257) 
-0.00431583

>  <r_i_glide_evdw>  (257) 
-10.9967

>  <r_i_glide_ecoul>  (257) 
-5.12708

>  <r_i_glide_erotb>  (257) 
0.144169

>  <r_i_glide_esite>  (257) 
-0.067684

>  <r_i_glide_emodel>  (257) 
-17.0839

>  <r_i_glide_energy>  (257) 
-16.1237

>  <r_i_glide_einternal>  (257) 
2.98747

>  <r_i_glide_intrahb_reward>  (257) 
-0

>  <i_i_glide_confnum>  (257) 
1

>  <i_i_glide_posenum>  (257) 
3

>  <r_i_glide_eff_state_penalty>  (257) 
0

>  <ligand_id>  (257) 
96

>  <original_smiles>  (257) 
C=C(C)CCCC1CC2(C)C(C)COC3C4OC25C2OC6(O)C4(C)CCC(O)C6(C)C4(CCC2(O)OC4)C12OC5(C)C(OC)n1c(cc4c(C)nc(C)cc41)C32

>  <smiles>  (257) 
[H]OC1([H])C([H])([H])C([H])([H])C2(C([H])([H])[H])C3([H])OC45C6([H])OC2(O[H])C1(C([H])([H])[H])C1(C([H])([H])OC6(O[H])C([H])([H])C1([H])[H])C12OC4(C([H])([H])[H])C([H])(OC([H])([H])[H])n4c(c([H])c6c(C([H])([H])[H])[n+]([H])c(C([H])([H])[H])c([H])c64)C1([H])C3([H])OC([H])([H])C([H])(C([H])([H])[H])C5(C([H])([H])[H])C([H])([H])C2([H])C([H])([H])C([H])([H])C([H])([H])C(=C([H])[H])C([H])([H])[H]

$$$$
98:0:0
     RDKit          3D

 34 39  0  0  1  0  0  0  0  0999 V2000
   -6.9837   -4.6537   -4.0194 C   0  0  0  0  0  0  0  0  0  0  0  0
   -6.5907   -5.1740   -5.1898 C   0  0  0  0  0  0  0  0  0  0  0  0
   -7.5300   -5.7202   -6.2376 C   0  0  0  0  0  0  0  0  0  0  0  0
   -7.2193   -7.0716   -6.4520 O   0  0  0  0  0  0  0  0  0  0  0  0
   -7.9156   -7.6962   -7.5091 C   0  0  0  0  0  0  0  0  0  0  0  0
   -7.5607   -9.1857   -7.5364 C   0  0  2  0  0  0  0  0  0  0  0  0
   -7.2124   -9.9390   -6.2338 C   0  0  2  0  0  0  0  0  0  0  0  0
   -5.7362   -9.5303   -6.5316 C   0  0  2  0  0  0  0  0  0  0  0  0
   -6.1646   -9.6564   -8.0010 C   0  0  1  0  0  0  0  0  0  0  0  0
   -5.8782  -11.1451   -8.3236 C   0  0  2  0  0  0  0  0  0  0  0  0
   -6.9028  -12.0294   -7.5963 C   0  0  2  0  0  0  0  0  0  0  0  0
   -7.4894  -11.4361   -6.3318 C   0  0  1  0  0  0  0  0  0  0  0  0
   -6.3753  -12.4536   -6.2399 C   0  0  2  0  0  0  0  0  0  0  0  0
   -4.9398  -12.0050   -6.1794 C   0  0  2  0  0  0  0  0  0  0  0  0
   -4.6342  -10.5269   -6.2806 C   0  0  1  0  0  0  0  0  0  0  0  0
   -4.6191  -11.4034   -7.5114 C   0  0  2  0  0  0  0  0  0  0  0  0
   -8.0325   -4.6017   -3.7592 H   0  0  0  0  0  0  0  0  0  0  0  0
   -6.2716   -4.2623   -3.3096 H   0  0  0  0  0  0  0  0  0  0  0  0
   -5.5352   -5.2188   -5.4166 H   0  0  0  0  0  0  0  0  0  0  0  0
   -8.5669   -5.6333   -5.9126 H   0  0  0  0  0  0  0  0  0  0  0  0
   -7.4043   -5.1546   -7.1589 H   0  0  0  0  0  0  0  0  0  0  0  0
   -8.9878   -7.5719   -7.3732 H   0  0  0  0  0  0  0  0  0  0  0  0
   -7.6626   -7.2213   -8.4565 H   0  0  0  0  0  0  0  0  0  0  0  0
   -8.3184   -9.7281   -8.1043 H   0  0  0  0  0  0  0  0  0  0  0  0
   -7.6170   -9.4593   -5.3407 H   0  0  0  0  0  0  0  0  0  0  0  0
   -5.4641   -8.5160   -6.2402 H   0  0  0  0  0  0  0  0  0  0  0  0
   -5.6581   -8.9324   -8.6429 H   0  0  0  0  0  0  0  0  0  0  0  0
   -5.7846  -11.3929   -9.3811 H   0  0  0  0  0  0  0  0  0  0  0  0
   -7.5036  -12.7269   -8.1796 H   0  0  0  0  0  0  0  0  0  0  0  0
   -8.4896  -11.7563   -6.0575 H   0  0  0  0  0  0  0  0  0  0  0  0
   -6.6282  -13.4566   -5.9045 H   0  0  0  0  0  0  0  0  0  0  0  0
   -4.1895  -12.6371   -5.7131 H   0  0  0  0  0  0  0  0  0  0  0  0
   -3.6809  -10.1514   -5.9175 H   0  0  0  0  0  0  0  0  0  0  0  0
   -3.6675  -11.5891   -8.0034 H   0  0  0  0  0  0  0  0  0  0  0  0
  1  2  2  0
  1 17  1  0
  1 18  1  0
  2  3  1  0
  2 19  1  0
  3  4  1  0
  3 20  1  0
  3 21  1  0
  4  5  1  0
  5  6  1  0
  5 22  1  0
  5 23  1  0
  6  9  1  0
  6  7  1  0
  6 24  1  6
  7 12  1  0
  7  8  1  0
  7 25  1  1
  8 15  1  0
  8  9  1  0
  8 26  1  6
  9 10  1  0
  9 27  1  6
 10 16  1  0
 10 11  1  0
 10 28  1  6
 11 13  1  0
 11 12  1  0
 11 29  1  6
 12 13  1  0
 12 30  1  1
 13 14  1  0
 13 31  1  1
 14 16  1  0
 14 15  1  0
 14 32  1  1
 15 16  1  0
 15 33  1  1
 16 34  1  6
M  END
>  <i_m_ct_stereo_status>  (258) 
1

>  <s_m_source_file>  (258) 
/var/tmp/pbs.5076255.sched01/tmp6zmtdo5c/111u4f9dq10.sdf

>  <i_m_source_file_index>  (258) 
12

>  <i_lp_mmshare_version>  (258) 
48012

>  <i_f3d_flags>  (258) 
2

>  <s_epik_input>  (258) 
W0NIMl09W0NIXVtDSDJdT1tDSDJdW0NASF0xW0NAQEhdKFtDQEhdMltDQEBIXTEzKVtDQEBIXTRbQ0BASF01W0NASF0zW0NAQEhdNVtDSF02W0NIXTJbQ0hdNDY=

>  <s_epik_cmdline>  (258) 
J2VwaWtfcHl0aG9uJywgJy1waHQnLCAnMi4wJywgJy1waCcsICc3LjAnLCAnLXRuJywgJzgnLCAnLW1hJywgJzIwMCcsICctaW1hZScsICc8aW5maWxlLm1hZT4nLCAnLW9tYWUnLCAnPG91dGZpbGUubWFlPic=

>  <r_lp_tautomer_probability>  (258) 
1

>  <r_epik_Ionization_Penalty>  (258) 
1.0585e-11

>  <r_epik_Ionization_Penalty_Charging>  (258) 
0

>  <r_epik_Ionization_Penalty_Neutral>  (258) 
1.0585e-11

>  <r_epik_State_Penalty>  (258) 
-0

>  <r_epik_Charging_Adjusted_Penalty>  (258) 
0

>  <i_epik_Tot_Q>  (258) 
0

>  <i_epik_Tot_abs_Q>  (258) 
0

>  <s_lp_Force_Field>  (258) 
OPLS3e

>  <r_lp_Energy>  (258) 
57.1043

>  <b_lp_Chiralities_Consistent>  (258) 
0

>  <s_lp_Variant>  (258) 
98:0-1

>  <s_i_glide_gridfile>  (258) 
pfpi4k_grid

>  <i_i_glide_lignum>  (258) 
12

>  <i_i_glide_rotatable_bonds>  (258) 
4

>  <r_i_docking_score>  (258) 
-4.01677

>  <r_i_glide_ligand_efficiency>  (258) 
-0.251048

>  <r_i_glide_ligand_efficiency_sa>  (258) 
-0.632601

>  <r_i_glide_ligand_efficiency_ln>  (258) 
-1.06472

>  <r_i_glide_gscore>  (258) 
-4.01677

>  <r_i_glide_lipo>  (258) 
-2.00123

>  <r_i_glide_hbond>  (258) 
0

>  <r_i_glide_metal>  (258) 
-0

>  <r_i_glide_rewards>  (258) 
-2.14068

>  <r_i_glide_evdw>  (258) 
-19.6906

>  <r_i_glide_ecoul>  (258) 
0.123055

>  <r_i_glide_erotb>  (258) 
1.09122

>  <r_i_glide_esite>  (258) 
0

>  <r_i_glide_emodel>  (258) 
-21.9012

>  <r_i_glide_energy>  (258) 
-19.5676

>  <r_i_glide_einternal>  (258) 
4.4666

>  <r_i_glide_intrahb_reward>  (258) 
-0

>  <i_i_glide_confnum>  (258) 
5

>  <i_i_glide_posenum>  (258) 
21

>  <r_i_glide_eff_state_penalty>  (258) 
0

>  <ligand_id>  (258) 
98

>  <original_smiles>  (258) 
C=CCOCC1C2C3C1C1C4C2C4C2C3C12

>  <smiles>  (258) 
[H]C([H])=C([H])C([H])([H])OC([H])([H])C1([H])C2([H])C3([H])C1([H])C1([H])C4([H])C2([H])C4([H])C2([H])C3([H])C12[H]

$$$$
98:0:1
     RDKit          3D

 34 39  0  0  1  0  0  0  0  0999 V2000
   -6.6538   -4.4427   -4.1091 C   0  0  0  0  0  0  0  0  0  0  0  0
   -6.2130   -5.1003   -5.1827 C   0  0  0  0  0  0  0  0  0  0  0  0
   -7.0369   -6.0771   -5.9922 C   0  0  0  0  0  0  0  0  0  0  0  0
   -6.4592   -7.3636   -5.9300 O   0  0  0  0  0  0  0  0  0  0  0  0
   -7.1884   -8.3300   -6.6599 C   0  0  0  0  0  0  0  0  0  0  0  0
   -6.5819   -9.6930   -6.3620 C   0  0  2  0  0  0  0  0  0  0  0  0
   -5.2382  -10.1056   -6.9792 C   0  0  2  0  0  0  0  0  0  0  0  0
   -6.0963  -10.6580   -8.1563 C   0  0  2  0  0  0  0  0  0  0  0  0
   -7.1032  -10.9740   -7.0422 C   0  0  1  0  0  0  0  0  0  0  0  0
   -6.7236  -12.3933   -6.5736 C   0  0  2  0  0  0  0  0  0  0  0  0
   -5.3960  -12.3134   -5.8093 C   0  0  2  0  0  0  0  0  0  0  0  0
   -4.4953  -11.1567   -6.1790 C   0  0  1  0  0  0  0  0  0  0  0  0
   -4.2157  -12.5309   -6.7315 C   0  0  2  0  0  0  0  0  0  0  0  0
   -4.7870  -12.9383   -8.0587 C   0  0  2  0  0  0  0  0  0  0  0  0
   -5.6927  -11.9769   -8.7857 C   0  0  1  0  0  0  0  0  0  0  0  0
   -6.2654  -13.0329   -7.8719 C   0  0  2  0  0  0  0  0  0  0  0  0
   -7.6600   -4.5724   -3.7328 H   0  0  0  0  0  0  0  0  0  0  0  0
   -6.0111   -3.7523   -3.5803 H   0  0  0  0  0  0  0  0  0  0  0  0
   -5.1975   -4.9315   -5.5133 H   0  0  0  0  0  0  0  0  0  0  0  0
   -8.0579   -6.1000   -5.6079 H   0  0  0  0  0  0  0  0  0  0  0  0
   -7.0879   -5.7340   -7.0260 H   0  0  0  0  0  0  0  0  0  0  0  0
   -8.2230   -8.3375   -6.3347 H   0  0  0  0  0  0  0  0  0  0  0  0
   -7.1824   -8.0913   -7.7231 H   0  0  0  0  0  0  0  0  0  0  0  0
   -6.5527   -9.8509   -5.2882 H   0  0  0  0  0  0  0  0  0  0  0  0
   -4.6499   -9.2368   -7.2614 H   0  0  0  0  0  0  0  0  0  0  0  0
   -6.4408   -9.8914   -8.8491 H   0  0  0  0  0  0  0  0  0  0  0  0
   -8.1273  -10.8736   -7.3979 H   0  0  0  0  0  0  0  0  0  0  0  0
   -7.5017  -12.9553   -6.0522 H   0  0  0  0  0  0  0  0  0  0  0  0
   -5.3621  -12.6918   -4.8016 H   0  0  0  0  0  0  0  0  0  0  0  0
   -3.8334  -10.7820   -5.3992 H   0  0  0  0  0  0  0  0  0  0  0  0
   -3.3776  -13.0805   -6.3195 H   0  0  0  0  0  0  0  0  0  0  0  0
   -4.3004  -13.7153   -8.6367 H   0  0  0  0  0  0  0  0  0  0  0  0
   -5.8544  -12.1049   -9.8564 H   0  0  0  0  0  0  0  0  0  0  0  0
   -6.8307  -13.8483   -8.3083 H   0  0  0  0  0  0  0  0  0  0  0  0
  1  2  2  0
  1 17  1  0
  1 18  1  0
  2  3  1  0
  2 19  1  0
  3  4  1  0
  3 20  1  0
  3 21  1  0
  4  5  1  0
  5  6  1  0
  5 22  1  0
  5 23  1  0
  6  9  1  0
  6  7  1  0
  6 24  1  1
  7 12  1  0
  7  8  1  0
  7 25  1  6
  8 15  1  0
  8  9  1  0
  8 26  1  6
  9 10  1  0
  9 27  1  6
 10 16  1  0
 10 11  1  0
 10 28  1  1
 11 13  1  0
 11 12  1  0
 11 29  1  1
 12 13  1  0
 12 30  1  1
 13 14  1  0
 13 31  1  1
 14 16  1  0
 14 15  1  0
 14 32  1  6
 15 16  1  0
 15 33  1  6
 16 34  1  6
M  END
>  <i_m_ct_stereo_status>  (259) 
1

>  <s_m_source_file>  (259) 
/var/tmp/pbs.5076255.sched01/tmp6zmtdo5c/111u4f9dq10.sdf

>  <i_m_source_file_index>  (259) 
12

>  <i_lp_mmshare_version>  (259) 
48012

>  <i_f3d_flags>  (259) 
2

>  <s_epik_input>  (259) 
W0NIMl09W0NIXVtDSDJdT1tDSDJdW0NASF0xW0NAQEhdKFtDQEhdMltDQEBIXTEzKVtDQEBIXTRbQ0BASF01W0NASF0zW0NAQEhdNVtDSF02W0NIXTJbQ0hdNDY=

>  <s_epik_cmdline>  (259) 
J2VwaWtfcHl0aG9uJywgJy1waHQnLCAnMi4wJywgJy1waCcsICc3LjAnLCAnLXRuJywgJzgnLCAnLW1hJywgJzIwMCcsICctaW1hZScsICc8aW5maWxlLm1hZT4nLCAnLW9tYWUnLCAnPG91dGZpbGUubWFlPic=

>  <r_lp_tautomer_probability>  (259) 
1

>  <r_epik_Ionization_Penalty>  (259) 
1.0585e-11

>  <r_epik_Ionization_Penalty_Charging>  (259) 
0

>  <r_epik_Ionization_Penalty_Neutral>  (259) 
1.0585e-11

>  <r_epik_State_Penalty>  (259) 
-0

>  <r_epik_Charging_Adjusted_Penalty>  (259) 
0

>  <i_epik_Tot_Q>  (259) 
0

>  <i_epik_Tot_abs_Q>  (259) 
0

>  <s_lp_Force_Field>  (259) 
OPLS3e

>  <r_lp_Energy>  (259) 
57.1043

>  <b_lp_Chiralities_Consistent>  (259) 
0

>  <s_lp_Variant>  (259) 
98:0-1

>  <s_i_glide_gridfile>  (259) 
pfpi4k_grid

>  <i_i_glide_lignum>  (259) 
12

>  <i_i_glide_rotatable_bonds>  (259) 
4

>  <r_i_docking_score>  (259) 
-3.72803

>  <r_i_glide_ligand_efficiency>  (259) 
-0.233002

>  <r_i_glide_ligand_efficiency_sa>  (259) 
-0.587128

>  <r_i_glide_ligand_efficiency_ln>  (259) 
-0.988188

>  <r_i_glide_gscore>  (259) 
-3.72803

>  <r_i_glide_lipo>  (259) 
-1.75831

>  <r_i_glide_hbond>  (259) 
0

>  <r_i_glide_metal>  (259) 
-0

>  <r_i_glide_rewards>  (259) 
-2.0646

>  <r_i_glide_evdw>  (259) 
-18.9532

>  <r_i_glide_ecoul>  (259) 
-0.324475

>  <r_i_glide_erotb>  (259) 
1.09122

>  <r_i_glide_esite>  (259) 
0

>  <r_i_glide_emodel>  (259) 
-23.1001

>  <r_i_glide_energy>  (259) 
-19.2776

>  <r_i_glide_einternal>  (259) 
1.12734

>  <r_i_glide_intrahb_reward>  (259) 
-0

>  <i_i_glide_confnum>  (259) 
5

>  <i_i_glide_posenum>  (259) 
1

>  <r_i_glide_eff_state_penalty>  (259) 
0

>  <ligand_id>  (259) 
98

>  <original_smiles>  (259) 
C=CCOCC1C2C3C1C1C4C2C4C2C3C12

>  <smiles>  (259) 
[H]C([H])=C([H])C([H])([H])OC([H])([H])C1([H])C2([H])C3([H])C1([H])C1([H])C4([H])C2([H])C4([H])C2([H])C3([H])C12[H]

$$$$
98:0:2
     RDKit          3D

 34 39  0  0  1  0  0  0  0  0999 V2000
   -6.8318   -4.2581   -4.4057 C   0  0  0  0  0  0  0  0  0  0  0  0
   -6.8519   -5.5645   -4.6602 C   0  0  0  0  0  0  0  0  0  0  0  0
   -5.6297   -6.4303   -4.7687 C   0  0  0  0  0  0  0  0  0  0  0  0
   -5.7298   -7.2556   -5.9022 O   0  0  0  0  0  0  0  0  0  0  0  0
   -4.7174   -8.2375   -5.9437 C   0  0  0  0  0  0  0  0  0  0  0  0
   -5.2148   -9.3520   -6.8625 C   0  0  2  0  0  0  0  0  0  0  0  0
   -6.4071  -10.2140   -6.4080 C   0  0  2  0  0  0  0  0  0  0  0  0
   -5.3268  -11.1133   -5.7474 C   0  0  2  0  0  0  0  0  0  0  0  0
   -4.4710  -10.7020   -6.9432 C   0  0  1  0  0  0  0  0  0  0  0  0
   -4.7902  -11.7771   -8.0034 C   0  0  2  0  0  0  0  0  0  0  0  0
   -6.2203  -11.5491   -8.5206 C   0  0  2  0  0  0  0  0  0  0  0  0
   -7.1631  -10.8660   -7.5547 C   0  0  1  0  0  0  0  0  0  0  0  0
   -7.2186  -12.3662   -7.7274 C   0  0  2  0  0  0  0  0  0  0  0  0
   -6.4157  -13.2573   -6.8245 C   0  0  2  0  0  0  0  0  0  0  0  0
   -5.5105  -12.6135   -5.8011 C   0  0  1  0  0  0  0  0  0  0  0  0
   -4.9792  -13.0182   -7.1524 C   0  0  2  0  0  0  0  0  0  0  0  0
   -5.9058   -3.7115   -4.2591 H   0  0  0  0  0  0  0  0  0  0  0  0
   -7.7600   -3.7064   -4.3300 H   0  0  0  0  0  0  0  0  0  0  0  0
   -7.8042   -6.0643   -4.7787 H   0  0  0  0  0  0  0  0  0  0  0  0
   -4.7255   -5.8236   -4.7997 H   0  0  0  0  0  0  0  0  0  0  0  0
   -5.5961   -7.0460   -3.8737 H   0  0  0  0  0  0  0  0  0  0  0  0
   -3.8072   -7.7795   -6.3048 H   0  0  0  0  0  0  0  0  0  0  0  0
   -4.4674   -8.6080   -4.9509 H   0  0  0  0  0  0  0  0  0  0  0  0
   -5.3997   -8.9822   -7.8688 H   0  0  0  0  0  0  0  0  0  0  0  0
   -7.0329   -9.7104   -5.6685 H   0  0  0  0  0  0  0  0  0  0  0  0
   -4.9452  -10.7213   -4.8035 H   0  0  0  0  0  0  0  0  0  0  0  0
   -3.4260  -10.6490   -6.6456 H   0  0  0  0  0  0  0  0  0  0  0  0
   -4.0445  -11.9076   -8.7902 H   0  0  0  0  0  0  0  0  0  0  0  0
   -6.3775  -11.4087   -9.5793 H   0  0  0  0  0  0  0  0  0  0  0  0
   -7.9738  -10.2821   -7.9842 H   0  0  0  0  0  0  0  0  0  0  0  0
   -8.0563  -12.7808   -8.2814 H   0  0  0  0  0  0  0  0  0  0  0  0
   -6.7280  -14.2821   -6.6534 H   0  0  0  0  0  0  0  0  0  0  0  0
   -5.2026  -13.1911   -4.9401 H   0  0  0  0  0  0  0  0  0  0  0  0
   -4.2689  -13.8379   -7.2102 H   0  0  0  0  0  0  0  0  0  0  0  0
  1  2  2  0
  1 17  1  0
  1 18  1  0
  2  3  1  0
  2 19  1  0
  3  4  1  0
  3 20  1  0
  3 21  1  0
  4  5  1  0
  5  6  1  0
  5 22  1  0
  5 23  1  0
  6  9  1  0
  6  7  1  0
  6 24  1  6
  7 12  1  0
  7  8  1  0
  7 25  1  1
  8 15  1  0
  8  9  1  0
  8 26  1  1
  9 10  1  0
  9 27  1  1
 10 16  1  0
 10 11  1  0
 10 28  1  6
 11 13  1  0
 11 12  1  0
 11 29  1  6
 12 13  1  0
 12 30  1  6
 13 14  1  0
 13 31  1  6
 14 16  1  0
 14 15  1  0
 14 32  1  1
 15 16  1  0
 15 33  1  1
 16 34  1  1
M  END
>  <i_m_ct_stereo_status>  (260) 
1

>  <s_m_source_file>  (260) 
/var/tmp/pbs.5076255.sched01/tmp6zmtdo5c/111u4f9dq10.sdf

>  <i_m_source_file_index>  (260) 
12

>  <i_lp_mmshare_version>  (260) 
48012

>  <i_f3d_flags>  (260) 
2

>  <s_epik_input>  (260) 
W0NIMl09W0NIXVtDSDJdT1tDSDJdW0NASF0xW0NAQEhdKFtDQEhdMltDQEBIXTEzKVtDQEBIXTRbQ0BASF01W0NASF0zW0NAQEhdNVtDSF02W0NIXTJbQ0hdNDY=

>  <s_epik_cmdline>  (260) 
J2VwaWtfcHl0aG9uJywgJy1waHQnLCAnMi4wJywgJy1waCcsICc3LjAnLCAnLXRuJywgJzgnLCAnLW1hJywgJzIwMCcsICctaW1hZScsICc8aW5maWxlLm1hZT4nLCAnLW9tYWUnLCAnPG91dGZpbGUubWFlPic=

>  <r_lp_tautomer_probability>  (260) 
1

>  <r_epik_Ionization_Penalty>  (260) 
1.0585e-11

>  <r_epik_Ionization_Penalty_Charging>  (260) 
0

>  <r_epik_Ionization_Penalty_Neutral>  (260) 
1.0585e-11

>  <r_epik_State_Penalty>  (260) 
-0

>  <r_epik_Charging_Adjusted_Penalty>  (260) 
0

>  <i_epik_Tot_Q>  (260) 
0

>  <i_epik_Tot_abs_Q>  (260) 
0

>  <s_lp_Force_Field>  (260) 
OPLS3e

>  <r_lp_Energy>  (260) 
57.1043

>  <b_lp_Chiralities_Consistent>  (260) 
0

>  <s_lp_Variant>  (260) 
98:0-1

>  <s_i_glide_gridfile>  (260) 
pfpi4k_grid

>  <i_i_glide_lignum>  (260) 
12

>  <i_i_glide_rotatable_bonds>  (260) 
4

>  <r_i_docking_score>  (260) 
-3.71489

>  <r_i_glide_ligand_efficiency>  (260) 
-0.232181

>  <r_i_glide_ligand_efficiency_sa>  (260) 
-0.585058

>  <r_i_glide_ligand_efficiency_ln>  (260) 
-0.984706

>  <r_i_glide_gscore>  (260) 
-3.71489

>  <r_i_glide_lipo>  (260) 
-1.76969

>  <r_i_glide_hbond>  (260) 
0

>  <r_i_glide_metal>  (260) 
-0

>  <r_i_glide_rewards>  (260) 
-2.04711

>  <r_i_glide_evdw>  (260) 
-17.6571

>  <r_i_glide_ecoul>  (260) 
-0.709648

>  <r_i_glide_erotb>  (260) 
1.09122

>  <r_i_glide_esite>  (260) 
0

>  <r_i_glide_emodel>  (260) 
-21.5434

>  <r_i_glide_energy>  (260) 
-18.3668

>  <r_i_glide_einternal>  (260) 
2.16902

>  <r_i_glide_intrahb_reward>  (260) 
-0

>  <i_i_glide_confnum>  (260) 
2

>  <i_i_glide_posenum>  (260) 
37

>  <r_i_glide_eff_state_penalty>  (260) 
0

>  <ligand_id>  (260) 
98

>  <original_smiles>  (260) 
C=CCOCC1C2C3C1C1C4C2C4C2C3C12

>  <smiles>  (260) 
[H]C([H])=C([H])C([H])([H])OC([H])([H])C1([H])C2([H])C3([H])C1([H])C1([H])C4([H])C2([H])C4([H])C2([H])C3([H])C12[H]

$$$$
99:0:0
     RDKit          3D

 18 19  0  0  1  0  0  0  0  0999 V2000
    3.2497   -0.3125   -5.0280 C   0  0  0  0  0  0  0  0  0  0  0  0
    4.2085   -0.8482   -4.0671 N   0  0  0  0  0  0  0  0  0  0  0  0
    3.9250   -0.3410   -2.7107 C   0  0  0  0  0  0  0  0  0  0  0  0
    4.1419   -1.6347   -2.0044 C   0  0  1  0  0  0  0  0  0  0  0  0
    5.5700   -1.9946   -1.9182 C   0  0  0  0  0  0  0  0  0  0  0  0
    6.6894   -2.2711   -1.8333 N   0  0  0  0  0  0  0  0  0  0  0  0
    3.4144   -2.3993   -0.8862 C   0  0  0  0  0  0  0  0  0  0  0  0
    3.1587   -2.2687    0.2946 O   0  0  0  0  0  0  0  0  0  0  0  0
    3.3032   -3.4491   -1.7807 N   0  0  0  0  0  0  0  0  0  0  0  0
    3.1977   -2.4652   -2.8527 C   0  0  2  0  0  0  0  0  0  0  0  0
    4.0078   -2.3168   -4.0040 O   0  0  0  0  0  0  0  0  0  0  0  0
    3.3310    0.7664   -5.0474 H   0  0  0  0  0  0  0  0  0  0  0  0
    2.2246   -0.5577   -4.7723 H   0  0  0  0  0  0  0  0  0  0  0  0
    3.4591   -0.6679   -6.0288 H   0  0  0  0  0  0  0  0  0  0  0  0
    4.5998    0.4650   -2.4295 H   0  0  0  0  0  0  0  0  0  0  0  0
    2.8886   -0.0154   -2.6503 H   0  0  0  0  0  0  0  0  0  0  0  0
    2.9999   -4.4165   -1.6928 H   0  0  0  0  0  0  0  0  0  0  0  0
    2.1851   -2.0575   -2.9899 H   0  0  0  0  0  0  0  0  0  0  0  0
  1  2  1  0
  1 12  1  0
  1 13  1  0
  1 14  1  0
  2 11  1  0
  2  3  1  0
  3  4  1  0
  3 15  1  0
  3 16  1  0
  4 10  1  0
  4  5  1  6
  4  7  1  0
  5  6  3  0
  7  8  2  0
  7  9  1  0
  9 10  1  0
  9 17  1  0
 10 11  1  0
 10 18  1  6
M  END
>  <i_m_ct_stereo_status>  (261) 
1

>  <s_m_source_file>  (261) 
/var/tmp/pbs.5076255.sched01/tmp6zmtdo5c/111u4f9dq10.sdf

>  <i_m_source_file_index>  (261) 
13

>  <i_lp_mmshare_version>  (261) 
48012

>  <i_f3d_flags>  (261) 
0

>  <s_epik_input>  (261) 
W0NIM11OKFtDSDJdMSlPW0NASF0oW0NAQF0xMkMjTilbTkhdQzI9Tw==

>  <s_epik_cmdline>  (261) 
J2VwaWtfcHl0aG9uJywgJy1waHQnLCAnMi4wJywgJy1waCcsICc3LjAnLCAnLXRuJywgJzgnLCAnLW1hJywgJzIwMCcsICctaW1hZScsICc8aW5maWxlLm1hZT4nLCAnLW9tYWUnLCAnPG91dGZpbGUubWFlPic=

>  <r_epik_Ionization_Penalty>  (261) 
0.000914245

>  <r_epik_Ionization_Penalty_Charging>  (261) 
0

>  <r_epik_Ionization_Penalty_Neutral>  (261) 
0.000914245

>  <r_epik_State_Penalty>  (261) 
0.000590878

>  <r_epik_Charging_Adjusted_Penalty>  (261) 
0.000590878

>  <i_epik_Tot_Q>  (261) 
0

>  <i_epik_Tot_abs_Q>  (261) 
0

>  <s_epik_Chemistry_Notes>  (261) 
This compound contains an acetal/aminal-like group ( X-CH(R)-Y where X, Y are N, S, or O) that may be acid/base labile, releasing an aldehyde. This compound has a N-S or N-O group and may undergo hydrolysis at high or low pH.

>  <s_lp_Force_Field>  (261) 
OPLS3e

>  <r_lp_Energy>  (261) 
35.5293

>  <b_lp_Chiralities_Consistent>  (261) 
1

>  <s_lp_Variant>  (261) 
99:0-1

>  <s_i_glide_gridfile>  (261) 
pfpi4k_grid

>  <i_i_glide_lignum>  (261) 
13

>  <i_i_glide_rotatable_bonds>  (261) 
1

>  <r_i_docking_score>  (261) 
-5.09633

>  <r_i_glide_ligand_efficiency>  (261) 
-0.463303

>  <r_i_glide_ligand_efficiency_sa>  (261) 
-1.03038

>  <r_i_glide_ligand_efficiency_ln>  (261) 
-1.49985

>  <r_i_glide_gscore>  (261) 
-5.09633

>  <r_i_glide_lipo>  (261) 
-0.318182

>  <r_i_glide_hbond>  (261) 
-0.437117

>  <r_i_glide_metal>  (261) 
-0

>  <r_i_glide_rewards>  (261) 
-2.43765

>  <r_i_glide_evdw>  (261) 
-15.0402

>  <r_i_glide_ecoul>  (261) 
-6.97786

>  <r_i_glide_erotb>  (261) 
0

>  <r_i_glide_esite>  (261) 
-0.104702

>  <r_i_glide_emodel>  (261) 
-28.8967

>  <r_i_glide_energy>  (261) 
-22.018

>  <r_i_glide_einternal>  (261) 
1.55922

>  <r_i_glide_intrahb_reward>  (261) 
-0

>  <i_i_glide_confnum>  (261) 
2

>  <i_i_glide_posenum>  (261) 
39

>  <r_i_glide_eff_state_penalty>  (261) 
0

>  <ligand_id>  (261) 
99

>  <original_smiles>  (261) 
CN1CC2(C#N)C(=O)NC2O1

>  <smiles>  (261) 
[H]N1C(=O)C2(C#N)C([H])([H])N(C([H])([H])[H])OC12[H]

$$$$
99:0:1
     RDKit          3D

 18 19  0  0  1  0  0  0  0  0999 V2000
    3.6837    0.8104   -4.5414 C   0  0  0  0  0  0  0  0  0  0  0  0
    4.2068   -0.3499   -3.8404 N   0  0  0  0  0  0  0  0  0  0  0  0
    3.4878   -0.6000   -2.5679 C   0  0  0  0  0  0  0  0  0  0  0  0
    3.4053   -2.0616   -2.7322 C   0  0  1  0  0  0  0  0  0  0  0  0
    4.7167   -2.7151   -2.5122 C   0  0  0  0  0  0  0  0  0  0  0  0
    5.7454   -3.2121   -2.3280 N   0  0  0  0  0  0  0  0  0  0  0  0
    2.2889   -3.0746   -2.5057 C   0  0  0  0  0  0  0  0  0  0  0  0
    1.5983   -3.4971   -1.5998 O   0  0  0  0  0  0  0  0  0  0  0  0
    2.4603   -3.4481   -3.8280 N   0  0  0  0  0  0  0  0  0  0  0  0
    2.7885   -2.0659   -4.1215 C   0  0  2  0  0  0  0  0  0  0  0  0
    3.9469   -1.5326   -4.7026 O   0  0  0  0  0  0  0  0  0  0  0  0
    3.8307    1.6946   -3.9307 H   0  0  0  0  0  0  0  0  0  0  0  0
    2.6164    0.7408   -4.7626 H   0  0  0  0  0  0  0  0  0  0  0  0
    4.2165    0.9722   -5.4770 H   0  0  0  0  0  0  0  0  0  0  0  0
    4.0633   -0.2686   -1.7042 H   0  0  0  0  0  0  0  0  0  0  0  0
    2.4797   -0.1863   -2.5495 H   0  0  0  0  0  0  0  0  0  0  0  0
    2.0067   -4.1811   -4.3563 H   0  0  0  0  0  0  0  0  0  0  0  0
    1.9119   -1.4397   -4.3178 H   0  0  0  0  0  0  0  0  0  0  0  0
  1  2  1  0
  1 12  1  0
  1 13  1  0
  1 14  1  0
  2 11  1  0
  2  3  1  0
  3  4  1  0
  3 15  1  0
  3 16  1  0
  4 10  1  0
  4  5  1  6
  4  7  1  0
  5  6  3  0
  7  8  2  0
  7  9  1  0
  9 10  1  0
  9 17  1  0
 10 11  1  0
 10 18  1  1
M  END
>  <i_m_ct_stereo_status>  (262) 
1

>  <s_m_source_file>  (262) 
/var/tmp/pbs.5076255.sched01/tmp6zmtdo5c/111u4f9dq10.sdf

>  <i_m_source_file_index>  (262) 
13

>  <i_lp_mmshare_version>  (262) 
48012

>  <i_f3d_flags>  (262) 
0

>  <s_epik_input>  (262) 
W0NIM11OKFtDSDJdMSlPW0NASF0oW0NAQF0xMkMjTilbTkhdQzI9Tw==

>  <s_epik_cmdline>  (262) 
J2VwaWtfcHl0aG9uJywgJy1waHQnLCAnMi4wJywgJy1waCcsICc3LjAnLCAnLXRuJywgJzgnLCAnLW1hJywgJzIwMCcsICctaW1hZScsICc8aW5maWxlLm1hZT4nLCAnLW9tYWUnLCAnPG91dGZpbGUubWFlPic=

>  <r_epik_Ionization_Penalty>  (262) 
0.000914245

>  <r_epik_Ionization_Penalty_Charging>  (262) 
0

>  <r_epik_Ionization_Penalty_Neutral>  (262) 
0.000914245

>  <r_epik_State_Penalty>  (262) 
0.000590878

>  <r_epik_Charging_Adjusted_Penalty>  (262) 
0.000590878

>  <i_epik_Tot_Q>  (262) 
0

>  <i_epik_Tot_abs_Q>  (262) 
0

>  <s_epik_Chemistry_Notes>  (262) 
This compound contains an acetal/aminal-like group ( X-CH(R)-Y where X, Y are N, S, or O) that may be acid/base labile, releasing an aldehyde. This compound has a N-S or N-O group and may undergo hydrolysis at high or low pH.

>  <s_lp_Force_Field>  (262) 
OPLS3e

>  <r_lp_Energy>  (262) 
35.5293

>  <b_lp_Chiralities_Consistent>  (262) 
1

>  <s_lp_Variant>  (262) 
99:0-1

>  <s_i_glide_gridfile>  (262) 
pfpi4k_grid

>  <i_i_glide_lignum>  (262) 
13

>  <i_i_glide_rotatable_bonds>  (262) 
1

>  <r_i_docking_score>  (262) 
-4.68011

>  <r_i_glide_ligand_efficiency>  (262) 
-0.425465

>  <r_i_glide_ligand_efficiency_sa>  (262) 
-0.946225

>  <r_i_glide_ligand_efficiency_ln>  (262) 
-1.37736

>  <r_i_glide_gscore>  (262) 
-4.68011

>  <r_i_glide_lipo>  (262) 
0

>  <r_i_glide_hbond>  (262) 
-0.0779266

>  <r_i_glide_metal>  (262) 
-0

>  <r_i_glide_rewards>  (262) 
-2.92397

>  <r_i_glide_evdw>  (262) 
-15.1376

>  <r_i_glide_ecoul>  (262) 
-5.61136

>  <r_i_glide_erotb>  (262) 
0

>  <r_i_glide_esite>  (262) 
-0.0796311

>  <r_i_glide_emodel>  (262) 
-27.0174

>  <r_i_glide_energy>  (262) 
-20.749

>  <r_i_glide_einternal>  (262) 
1.55729

>  <r_i_glide_intrahb_reward>  (262) 
-0

>  <i_i_glide_confnum>  (262) 
2

>  <i_i_glide_posenum>  (262) 
22

>  <r_i_glide_eff_state_penalty>  (262) 
0

>  <ligand_id>  (262) 
99

>  <original_smiles>  (262) 
CN1CC2(C#N)C(=O)NC2O1

>  <smiles>  (262) 
[H]N1C(=O)C2(C#N)C([H])([H])N(C([H])([H])[H])OC12[H]

$$$$
99:0:2
     RDKit          3D

 18 19  0  0  1  0  0  0  0  0999 V2000
    3.3451   -1.1463   -4.2889 C   0  0  0  0  0  0  0  0  0  0  0  0
    4.0764   -1.1772   -3.0321 N   0  0  0  0  0  0  0  0  0  0  0  0
    3.1852   -1.5243   -1.8958 C   0  0  0  0  0  0  0  0  0  0  0  0
    4.1455   -2.4403   -1.2353 C   0  0  1  0  0  0  0  0  0  0  0  0
    5.2675   -1.7098   -0.5913 C   0  0  0  0  0  0  0  0  0  0  0  0
    6.1364   -1.1334   -0.0894 N   0  0  0  0  0  0  0  0  0  0  0  0
    4.0034   -3.8128   -0.5745 C   0  0  0  0  0  0  0  0  0  0  0  0
    3.3973   -4.3287    0.3407 O   0  0  0  0  0  0  0  0  0  0  0  0
    4.9763   -4.2547   -1.4539 N   0  0  0  0  0  0  0  0  0  0  0  0
    4.4203   -3.3287   -2.4339 C   0  0  2  0  0  0  0  0  0  0  0  0
    5.0640   -2.2882   -3.1290 O   0  0  0  0  0  0  0  0  0  0  0  0
    2.5815   -0.3756   -4.2454 H   0  0  0  0  0  0  0  0  0  0  0  0
    2.8440   -2.0897   -4.5107 H   0  0  0  0  0  0  0  0  0  0  0  0
    4.0007   -0.8929   -5.1200 H   0  0  0  0  0  0  0  0  0  0  0  0
    2.9302   -0.6626   -1.2873 H   0  0  0  0  0  0  0  0  0  0  0  0
    2.2711   -2.0481   -2.2030 H   0  0  0  0  0  0  0  0  0  0  0  0
    5.4276   -5.1528   -1.5496 H   0  0  0  0  0  0  0  0  0  0  0  0
    3.5378   -3.7173   -2.9635 H   0  0  0  0  0  0  0  0  0  0  0  0
  1  2  1  0
  1 12  1  0
  1 13  1  0
  1 14  1  0
  2 11  1  0
  2  3  1  0
  3  4  1  0
  3 15  1  0
  3 16  1  0
  4 10  1  0
  4  5  1  1
  4  7  1  0
  5  6  3  0
  7  8  2  0
  7  9  1  0
  9 10  1  0
  9 17  1  0
 10 11  1  0
 10 18  1  6
M  END
>  <i_m_ct_stereo_status>  (263) 
1

>  <s_m_source_file>  (263) 
/var/tmp/pbs.5076255.sched01/tmp6zmtdo5c/111u4f9dq10.sdf

>  <i_m_source_file_index>  (263) 
13

>  <i_lp_mmshare_version>  (263) 
48012

>  <i_f3d_flags>  (263) 
0

>  <s_epik_input>  (263) 
W0NIM11OKFtDSDJdMSlPW0NASF0oW0NAQF0xMkMjTilbTkhdQzI9Tw==

>  <s_epik_cmdline>  (263) 
J2VwaWtfcHl0aG9uJywgJy1waHQnLCAnMi4wJywgJy1waCcsICc3LjAnLCAnLXRuJywgJzgnLCAnLW1hJywgJzIwMCcsICctaW1hZScsICc8aW5maWxlLm1hZT4nLCAnLW9tYWUnLCAnPG91dGZpbGUubWFlPic=

>  <r_epik_Ionization_Penalty>  (263) 
0.000914245

>  <r_epik_Ionization_Penalty_Charging>  (263) 
0

>  <r_epik_Ionization_Penalty_Neutral>  (263) 
0.000914245

>  <r_epik_State_Penalty>  (263) 
0.000590878

>  <r_epik_Charging_Adjusted_Penalty>  (263) 
0.000590878

>  <i_epik_Tot_Q>  (263) 
0

>  <i_epik_Tot_abs_Q>  (263) 
0

>  <s_epik_Chemistry_Notes>  (263) 
This compound contains an acetal/aminal-like group ( X-CH(R)-Y where X, Y are N, S, or O) that may be acid/base labile, releasing an aldehyde. This compound has a N-S or N-O group and may undergo hydrolysis at high or low pH.

>  <s_lp_Force_Field>  (263) 
OPLS3e

>  <r_lp_Energy>  (263) 
35.5293

>  <b_lp_Chiralities_Consistent>  (263) 
1

>  <s_lp_Variant>  (263) 
99:0-1

>  <s_i_glide_gridfile>  (263) 
pfpi4k_grid

>  <i_i_glide_lignum>  (263) 
13

>  <i_i_glide_rotatable_bonds>  (263) 
1

>  <r_i_docking_score>  (263) 
-3.77659

>  <r_i_glide_ligand_efficiency>  (263) 
-0.343326

>  <r_i_glide_ligand_efficiency_sa>  (263) 
-0.763551

>  <r_i_glide_ligand_efficiency_ln>  (263) 
-1.11145

>  <r_i_glide_gscore>  (263) 
-3.77659

>  <r_i_glide_lipo>  (263) 
-0.0215166

>  <r_i_glide_hbond>  (263) 
-0.0210117

>  <r_i_glide_metal>  (263) 
-0

>  <r_i_glide_rewards>  (263) 
-2.32148

>  <r_i_glide_evdw>  (263) 
-15.0769

>  <r_i_glide_ecoul>  (263) 
-3.92617

>  <r_i_glide_erotb>  (263) 
0

>  <r_i_glide_esite>  (263) 
-0.0698159

>  <r_i_glide_emodel>  (263) 
-23.9145

>  <r_i_glide_energy>  (263) 
-19.003

>  <r_i_glide_einternal>  (263) 
1.55857

>  <r_i_glide_intrahb_reward>  (263) 
-0

>  <i_i_glide_confnum>  (263) 
2

>  <i_i_glide_posenum>  (263) 
38

>  <r_i_glide_eff_state_penalty>  (263) 
0

>  <ligand_id>  (263) 
99

>  <original_smiles>  (263) 
CN1CC2(C#N)C(=O)NC2O1

>  <smiles>  (263) 
[H]N1C(=O)C2(C#N)C([H])([H])N(C([H])([H])[H])OC12[H]

$$$$
102:0:0
     RDKit          3D

 73 78  0  0  1  0  0  0  0  0999 V2000
    6.0343   -4.5074    7.0016 C   0  0  0  0  0  0  0  0  0  0  0  0
    4.5939   -4.6731    6.4895 C   0  0  2  0  0  0  0  0  0  0  0  0
    4.1625   -6.1137    6.3365 C   0  0  0  0  0  0  0  0  0  0  0  0
    2.9841   -6.1030    5.3385 C   0  0  2  0  0  0  0  0  0  0  0  0
    2.7829   -7.5156    4.6756 C   0  0  1  0  0  0  0  0  0  0  0  0
    2.1893   -8.6159    5.6398 C   0  0  1  0  0  0  0  0  0  0  0  0
    3.0144   -8.9715    6.8935 C   0  0  0  0  0  0  0  0  0  0  0  0
    0.7167   -8.3359    5.9646 C   0  0  0  0  0  0  0  0  0  0  0  0
    0.2739   -8.3343    7.1204 O   0  0  0  0  0  0  0  0  0  0  0  0
   -0.1897   -8.0593    4.7752 C   0  0  0  0  0  0  0  0  0  0  0  0
    0.4628   -7.0684    3.7819 C   0  0  0  0  0  0  0  0  0  0  0  0
    1.9395   -7.4161    3.3626 C   0  0  2  0  0  0  0  0  0  0  0  0
    1.8972   -8.7937    2.6337 C   0  0  0  0  0  0  0  0  0  0  0  0
    2.6806   -6.4343    2.3646 C   0  0  1  0  0  0  0  0  0  0  0  0
    1.8710   -5.9487    1.1353 C   0  0  0  0  0  0  0  0  0  0  0  0
    0.6881   -6.2557    0.9252 O   0  0  0  0  0  0  0  0  0  0  0  0
    2.6060   -5.1445    0.0861 C   0  0  0  0  0  0  0  0  0  0  0  0
    3.3336   -3.9931    0.7431 C   0  0  2  0  0  0  0  0  0  0  0  0
    3.9709   -2.8895   -0.1606 C   0  0  2  0  0  0  0  0  0  0  0  0
    4.7054   -3.3425   -1.4153 C   0  0  0  0  0  0  0  0  0  0  0  0
    5.9999   -3.0413   -1.4104 C   0  0  0  0  0  0  0  0  0  0  0  0
    6.3441   -2.4745   -0.1070 C   0  0  0  0  0  0  0  0  0  0  0  0
    7.4620   -2.1709    0.3057 O   0  0  0  0  0  0  0  0  0  0  0  0
    5.0764   -2.2397    0.7177 C   0  0  1  0  0  0  0  0  0  0  0  0
    4.8616   -0.7125    0.8047 C   0  0  0  0  0  0  0  0  0  0  0  0
    5.0474   -3.0466    2.0645 C   0  0  1  0  0  0  0  0  0  0  0  0
    4.2962   -2.2368    2.9355 O   0  0  0  0  0  0  0  0  0  0  0  0
    4.3638   -4.4464    1.7981 C   0  0  2  0  0  0  0  0  0  0  0  0
    5.4489   -5.3861    1.1836 C   0  0  0  0  0  0  0  0  0  0  0  0
    3.7013   -5.3684    2.9554 C   0  0  1  0  0  0  0  0  0  0  0  0
    3.2417   -4.8645    4.3743 C   0  0  1  0  0  0  0  0  0  0  0  0
    1.9794   -3.9679    4.2799 C   0  0  0  0  0  0  0  0  0  0  0  0
    4.3784   -4.0924    5.1029 C   0  0  0  0  0  0  0  0  0  0  0  0
    6.7557   -4.9858    6.3369 H   0  0  0  0  0  0  0  0  0  0  0  0
    6.1607   -4.9476    7.9905 H   0  0  0  0  0  0  0  0  0  0  0  0
    6.3083   -3.4560    7.0726 H   0  0  0  0  0  0  0  0  0  0  0  0
    3.8992   -4.1869    7.1801 H   0  0  0  0  0  0  0  0  0  0  0  0
    4.9882   -6.7010    5.9332 H   0  0  0  0  0  0  0  0  0  0  0  0
    3.9075   -6.5179    7.3135 H   0  0  0  0  0  0  0  0  0  0  0  0
    2.0960   -5.8769    5.9318 H   0  0  0  0  0  0  0  0  0  0  0  0
    3.7614   -7.8884    4.3807 H   0  0  0  0  0  0  0  0  0  0  0  0
    2.1911   -9.5511    5.0833 H   0  0  0  0  0  0  0  0  0  0  0  0
    2.7527   -9.9710    7.2464 H   0  0  0  0  0  0  0  0  0  0  0  0
    2.8245   -8.3020    7.7310 H   0  0  0  0  0  0  0  0  0  0  0  0
    4.0822   -8.9783    6.6859 H   0  0  0  0  0  0  0  0  0  0  0  0
   -0.4118   -9.0099    4.2857 H   0  0  0  0  0  0  0  0  0  0  0  0
   -1.1420   -7.6650    5.1272 H   0  0  0  0  0  0  0  0  0  0  0  0
   -0.2151   -7.0170    2.9384 H   0  0  0  0  0  0  0  0  0  0  0  0
    0.4217   -6.0977    4.2661 H   0  0  0  0  0  0  0  0  0  0  0  0
    1.3770   -8.7211    1.6779 H   0  0  0  0  0  0  0  0  0  0  0  0
    1.3755   -9.5809    3.1854 H   0  0  0  0  0  0  0  0  0  0  0  0
    2.9020   -9.1714    2.4344 H   0  0  0  0  0  0  0  0  0  0  0  0
    3.3581   -7.1139    1.8587 H   0  0  0  0  0  0  0  0  0  0  0  0
    3.2863   -5.8044   -0.4469 H   0  0  0  0  0  0  0  0  0  0  0  0
    1.8888   -4.7521   -0.6405 H   0  0  0  0  0  0  0  0  0  0  0  0
    2.5655   -3.4415    1.2983 H   0  0  0  0  0  0  0  0  0  0  0  0
    4.1825   -3.7567   -2.2707 H   0  0  0  0  0  0  0  0  0  0  0  0
    6.7097   -3.1956   -2.2216 H   0  0  0  0  0  0  0  0  0  0  0  0
    3.2421   -2.1501   -0.4777 H   0  0  0  0  0  0  0  0  0  0  0  0
    3.8446   -0.4434    1.0897 H   0  0  0  0  0  0  0  0  0  0  0  0
    5.0248   -0.2366   -0.1644 H   0  0  0  0  0  0  0  0  0  0  0  0
    5.5363   -0.2327    1.5080 H   0  0  0  0  0  0  0  0  0  0  0  0
    6.0383   -3.1583    2.4875 H   0  0  0  0  0  0  0  0  0  0  0  0
    3.4719   -2.0703    2.5154 H   0  0  0  0  0  0  0  0  0  0  0  0
    6.2936   -5.4995    1.8734 H   0  0  0  0  0  0  0  0  0  0  0  0
    5.8645   -5.0524    0.2388 H   0  0  0  0  0  0  0  0  0  0  0  0
    5.0731   -6.3890    0.9696 H   0  0  0  0  0  0  0  0  0  0  0  0
    4.5491   -5.9867    3.2692 H   0  0  0  0  0  0  0  0  0  0  0  0
    2.2190   -2.9393    4.0374 H   0  0  0  0  0  0  0  0  0  0  0  0
    1.4425   -3.9269    5.2275 H   0  0  0  0  0  0  0  0  0  0  0  0
    1.2814   -4.3029    3.5168 H   0  0  0  0  0  0  0  0  0  0  0  0
    4.1575   -3.0320    5.2172 H   0  0  0  0  0  0  0  0  0  0  0  0
    5.3034   -4.1684    4.5301 H   0  0  0  0  0  0  0  0  0  0  0  0
  1  2  1  0
  1 34  1  0
  1 35  1  0
  1 36  1  0
  2 33  1  0
  2  3  1  0
  2 37  1  1
  3  4  1  0
  3 38  1  0
  3 39  1  0
  4 31  1  0
  4  5  1  0
  4 40  1  1
  5 12  1  0
  5  6  1  0
  5 41  1  6
  6  7  1  0
  6  8  1  0
  6 42  1  6
  7 43  1  0
  7 44  1  0
  7 45  1  0
  8  9  2  0
  8 10  1  0
 10 11  1  0
 10 46  1  0
 10 47  1  0
 11 12  1  0
 11 48  1  0
 11 49  1  0
 12 13  1  6
 12 14  1  0
 13 50  1  0
 13 51  1  0
 13 52  1  0
 14 30  1  0
 14 15  1  0
 14 53  1  6
 15 16  2  0
 15 17  1  0
 17 18  1  0
 17 54  1  0
 17 55  1  0
 18 28  1  0
 18 56  1  1
 18 19  1  0
 19 59  1  6
 19 20  1  0
 19 24  1  0
 20 57  1  0
 20 21  2  0
 21 58  1  0
 21 22  1  0
 22 23  2  0
 22 24  1  0
 24 25  1  1
 24 26  1  0
 25 60  1  0
 25 61  1  0
 25 62  1  0
 26 27  1  0
 26 28  1  0
 26 63  1  1
 27 64  1  0
 28 29  1  6
 28 30  1  0
 29 65  1  0
 29 66  1  0
 29 67  1  0
 30 31  1  0
 30 68  1  1
 31 32  1  6
 31 33  1  0
 32 69  1  0
 32 70  1  0
 32 71  1  0
 33 72  1  0
 33 73  1  0
M  END
>  <i_m_ct_stereo_status>  (264) 
1

>  <s_m_source_file>  (264) 
/var/tmp/pbs.5076255.sched01/tmp6zmtdo5c/111u4f9dq10.sdf

>  <i_m_source_file_index>  (264) 
17

>  <i_lp_mmshare_version>  (264) 
48012

>  <i_f3d_flags>  (264) 
0

>  <s_epik_input>  (264) 
W0NIMl0xW0NIMl1DKD1PKVtDQEhdKFtDSDNdKVtDQEBIXShbQ0BAXTEyW0NIM10pW0NAQEhdM1tDQEBdKFtDSDNdKShbQ0gyXVtDQEhdKFtDSDNdKVtDSDJdMylbQ0BIXTRbQ0BASF0yQyg9TylbQ0gyXVtDQEBIXTVDPTZbQ0BdKFtDSDNdKShDKD1PKVtDSDJdW0NIXTYpW0NAQEhdKFtPSF0pW0NAQF00NVtDSDNd

>  <s_epik_cmdline>  (264) 
J2VwaWtfcHl0aG9uJywgJy1waHQnLCAnMi4wJywgJy1waCcsICc3LjAnLCAnLXRuJywgJzgnLCAnLW1hJywgJzIwMCcsICctaW1hZScsICc8aW5maWxlLm1hZT4nLCAnLW9tYWUnLCAnPG91dGZpbGUubWFlPic=

>  <r_lp_tautomer_probability>  (264) 
1

>  <r_epik_Ionization_Penalty>  (264) 
4.50075e-08

>  <r_epik_Ionization_Penalty_Charging>  (264) 
0

>  <r_epik_Ionization_Penalty_Neutral>  (264) 
4.50075e-08

>  <r_epik_State_Penalty>  (264) 
-0

>  <r_epik_Charging_Adjusted_Penalty>  (264) 
0

>  <i_epik_Tot_Q>  (264) 
0

>  <i_epik_Tot_abs_Q>  (264) 
0

>  <s_lp_Force_Field>  (264) 
OPLS3e

>  <r_lp_Energy>  (264) 
64.9728

>  <b_lp_Chiralities_Consistent>  (264) 
1

>  <s_lp_Variant>  (264) 
102:0-1

>  <s_i_glide_gridfile>  (264) 
pfpi4k_grid

>  <i_i_glide_lignum>  (264) 
17

>  <i_i_glide_rotatable_bonds>  (264) 
1

>  <r_i_docking_score>  (264) 
-3.38787

>  <r_i_glide_ligand_efficiency>  (264) 
-0.102663

>  <r_i_glide_ligand_efficiency_sa>  (264) 
-0.329294

>  <r_i_glide_ligand_efficiency_ln>  (264) 
-0.753445

>  <r_i_glide_gscore>  (264) 
-3.38787

>  <r_i_glide_lipo>  (264) 
-0.382485

>  <r_i_glide_hbond>  (264) 
-0.16

>  <r_i_glide_metal>  (264) 
-0

>  <r_i_glide_rewards>  (264) 
-0.326694

>  <r_i_glide_evdw>  (264) 
-30.6853

>  <r_i_glide_ecoul>  (264) 
-6.01646

>  <r_i_glide_erotb>  (264) 
0

>  <r_i_glide_esite>  (264) 
-0.0819572

>  <r_i_glide_emodel>  (264) 
-44.4393

>  <r_i_glide_energy>  (264) 
-36.7018

>  <r_i_glide_einternal>  (264) 
0.0152638

>  <r_i_glide_intrahb_reward>  (264) 
-0

>  <i_i_glide_confnum>  (264) 
1

>  <i_i_glide_posenum>  (264) 
18

>  <r_i_glide_eff_state_penalty>  (264) 
0

>  <ligand_id>  (264) 
102

>  <original_smiles>  (264) 
CC1CC2C3C(C)C(=O)CCC3(C)C3C(=O)CC4C5=CCC(=O)C5(C)C(O)C4(C)C3C2(C)C1

>  <smiles>  (264) 
[H]OC1([H])C2(C([H])([H])[H])C(=O)C([H])=C([H])C2([H])C2([H])C([H])([H])C(=O)C3([H])C([H])(C4(C([H])([H])[H])C([H])([H])C([H])(C([H])([H])[H])C([H])([H])C4([H])C4([H])C([H])(C([H])([H])[H])C(=O)C([H])([H])C([H])([H])C34C([H])([H])[H])C12C([H])([H])[H]

$$$$
102:0:1
     RDKit          3D

 73 78  0  0  1  0  0  0  0  0999 V2000
    6.2553   -4.4455    6.8480 C   0  0  0  0  0  0  0  0  0  0  0  0
    4.7984   -4.6420    6.3978 C   0  0  2  0  0  0  0  0  0  0  0  0
    4.3973   -6.0915    6.2448 C   0  0  0  0  0  0  0  0  0  0  0  0
    3.1751   -6.0982    5.2981 C   0  0  2  0  0  0  0  0  0  0  0  0
    2.9803   -7.5080    4.6261 C   0  0  1  0  0  0  0  0  0  0  0  0
    2.4570   -8.6343    5.5999 C   0  0  1  0  0  0  0  0  0  0  0  0
    3.3465   -8.9848    6.8101 C   0  0  0  0  0  0  0  0  0  0  0  0
    0.9934   -8.3950    5.9943 C   0  0  0  0  0  0  0  0  0  0  0  0
    0.6022   -8.4148    7.1659 O   0  0  0  0  0  0  0  0  0  0  0  0
    0.0292   -8.1290    4.8487 C   0  0  0  0  0  0  0  0  0  0  0  0
    0.6115   -7.1094    3.8414 C   0  0  0  0  0  0  0  0  0  0  0  0
    2.0769   -7.4106    3.3492 C   0  0  2  0  0  0  0  0  0  0  0  0
    2.0365   -8.7829    2.6067 C   0  0  0  0  0  0  0  0  0  0  0  0
    2.7448   -6.3952    2.3318 C   0  0  1  0  0  0  0  0  0  0  0  0
    1.8646   -5.9263    1.1551 C   0  0  0  0  0  0  0  0  0  0  0  0
    0.6984   -6.2631    0.9828 O   0  0  0  0  0  0  0  0  0  0  0  0
    2.5372   -5.0787    0.0749 C   0  0  0  0  0  0  0  0  0  0  0  0
    3.2722   -3.9232    0.7263 C   0  0  2  0  0  0  0  0  0  0  0  0
    3.8359   -2.7904   -0.1938 C   0  0  2  0  0  0  0  0  0  0  0  0
    4.5233   -3.2049   -1.4856 C   0  0  0  0  0  0  0  0  0  0  0  0
    5.8190   -2.8699   -1.5339 C   0  0  0  0  0  0  0  0  0  0  0  0
    6.1967   -2.3169   -0.2400 C   0  0  0  0  0  0  0  0  0  0  0  0
    7.3300   -1.9794    0.1254 O   0  0  0  0  0  0  0  0  0  0  0  0
    4.9630   -2.1304    0.6463 C   0  0  1  0  0  0  0  0  0  0  0  0
    4.7091   -0.6151    0.7671 C   0  0  0  0  0  0  0  0  0  0  0  0
    5.0129   -2.9570    1.9797 C   0  0  1  0  0  0  0  0  0  0  0  0
    4.2631   -2.1826    2.8849 O   0  0  0  0  0  0  0  0  0  0  0  0
    4.3548   -4.3677    1.7229 C   0  0  2  0  0  0  0  0  0  0  0  0
    5.4363   -5.2669    1.0484 C   0  0  0  0  0  0  0  0  0  0  0  0
    3.7674   -5.3159    2.8956 C   0  0  1  0  0  0  0  0  0  0  0  0
    3.3576   -4.8426    4.3429 C   0  0  1  0  0  0  0  0  0  0  0  0
    2.0699   -3.9787    4.3164 C   0  0  0  0  0  0  0  0  0  0  0  0
    4.5044   -4.0493    5.0308 C   0  0  0  0  0  0  0  0  0  0  0  0
    6.9583   -4.8963    6.1451 H   0  0  0  0  0  0  0  0  0  0  0  0
    6.4369   -4.8958    7.8238 H   0  0  0  0  0  0  0  0  0  0  0  0
    6.5058   -3.3886    6.9223 H   0  0  0  0  0  0  0  0  0  0  0  0
    4.1235   -4.1836    7.1265 H   0  0  0  0  0  0  0  0  0  0  0  0
    5.2195   -6.6531    5.7980 H   0  0  0  0  0  0  0  0  0  0  0  0
    4.1947   -6.5142    7.2265 H   0  0  0  0  0  0  0  0  0  0  0  0
    2.3094   -5.9046    5.9350 H   0  0  0  0  0  0  0  0  0  0  0  0
    3.9539   -7.8518    4.2823 H   0  0  0  0  0  0  0  0  0  0  0  0
    2.4567   -9.5624    5.0309 H   0  0  0  0  0  0  0  0  0  0  0  0
    3.1267   -9.9957    7.1601 H   0  0  0  0  0  0  0  0  0  0  0  0
    3.1781   -8.3314    7.6649 H   0  0  0  0  0  0  0  0  0  0  0  0
    4.4043   -8.9613    6.5547 H   0  0  0  0  0  0  0  0  0  0  0  0
   -0.1887   -9.0799    4.3558 H   0  0  0  0  0  0  0  0  0  0  0  0
   -0.9173   -7.7678    5.2497 H   0  0  0  0  0  0  0  0  0  0  0  0
   -0.1046   -7.0618    3.0301 H   0  0  0  0  0  0  0  0  0  0  0  0
    0.5688   -6.1463    4.3425 H   0  0  0  0  0  0  0  0  0  0  0  0
    1.4722   -8.7119    1.6749 H   0  0  0  0  0  0  0  0  0  0  0  0
    1.5612   -9.5900    3.1692 H   0  0  0  0  0  0  0  0  0  0  0  0
    3.0409   -9.1315    2.3571 H   0  0  0  0  0  0  0  0  0  0  0  0
    3.4175   -7.0527    1.7899 H   0  0  0  0  0  0  0  0  0  0  0  0
    3.2091   -5.7094   -0.4964 H   0  0  0  0  0  0  0  0  0  0  0  0
    1.7869   -4.6965   -0.6111 H   0  0  0  0  0  0  0  0  0  0  0  0
    2.5187   -3.3951    1.3208 H   0  0  0  0  0  0  0  0  0  0  0  0
    3.9740   -3.6159   -2.3201 H   0  0  0  0  0  0  0  0  0  0  0  0
    6.4822   -2.9939   -2.3771 H   0  0  0  0  0  0  0  0  0  0  0  0
    3.0752   -2.0696   -0.4599 H   0  0  0  0  0  0  0  0  0  0  0  0
    3.6974   -0.3811    1.0985 H   0  0  0  0  0  0  0  0  0  0  0  0
    4.8063   -0.1349   -0.2106 H   0  0  0  0  0  0  0  0  0  0  0  0
    5.4057   -0.1116    1.4338 H   0  0  0  0  0  0  0  0  0  0  0  0
    6.0241   -3.0355    2.3708 H   0  0  0  0  0  0  0  0  0  0  0  0
    4.6658   -1.3370    2.9368 H   0  0  0  0  0  0  0  0  0  0  0  0
    6.3125   -5.3658    1.6990 H   0  0  0  0  0  0  0  0  0  0  0  0
    5.7966   -4.9057    0.0917 H   0  0  0  0  0  0  0  0  0  0  0  0
    5.0724   -6.2731    0.8370 H   0  0  0  0  0  0  0  0  0  0  0  0
    4.6412   -5.9168    3.1646 H   0  0  0  0  0  0  0  0  0  0  0  0
    2.2722   -2.9422    4.0725 H   0  0  0  0  0  0  0  0  0  0  0  0
    1.5737   -3.9599    5.2874 H   0  0  0  0  0  0  0  0  0  0  0  0
    1.3476   -4.3210    3.5802 H   0  0  0  0  0  0  0  0  0  0  0  0
    4.2605   -2.9964    5.1683 H   0  0  0  0  0  0  0  0  0  0  0  0
    5.4049   -4.0935    4.4175 H   0  0  0  0  0  0  0  0  0  0  0  0
  1  2  1  0
  1 34  1  0
  1 35  1  0
  1 36  1  0
  2 33  1  0
  2  3  1  0
  2 37  1  1
  3  4  1  0
  3 38  1  0
  3 39  1  0
  4 31  1  0
  4  5  1  0
  4 40  1  1
  5 12  1  0
  5  6  1  0
  5 41  1  6
  6  7  1  0
  6  8  1  0
  6 42  1  6
  7 43  1  0
  7 44  1  0
  7 45  1  0
  8  9  2  0
  8 10  1  0
 10 11  1  0
 10 46  1  0
 10 47  1  0
 11 12  1  0
 11 48  1  0
 11 49  1  0
 12 13  1  6
 12 14  1  0
 13 50  1  0
 13 51  1  0
 13 52  1  0
 14 30  1  0
 14 15  1  0
 14 53  1  6
 15 16  2  0
 15 17  1  0
 17 18  1  0
 17 54  1  0
 17 55  1  0
 18 28  1  0
 18 56  1  1
 18 19  1  0
 19 59  1  6
 19 20  1  0
 19 24  1  0
 20 57  1  0
 20 21  2  0
 21 58  1  0
 21 22  1  0
 22 23  2  0
 22 24  1  0
 24 25  1  1
 24 26  1  0
 25 60  1  0
 25 61  1  0
 25 62  1  0
 26 27  1  0
 26 28  1  0
 26 63  1  1
 27 64  1  0
 28 29  1  6
 28 30  1  0
 29 65  1  0
 29 66  1  0
 29 67  1  0
 30 31  1  0
 30 68  1  1
 31 32  1  6
 31 33  1  0
 32 69  1  0
 32 70  1  0
 32 71  1  0
 33 72  1  0
 33 73  1  0
M  END
>  <i_m_ct_stereo_status>  (265) 
1

>  <s_m_source_file>  (265) 
/var/tmp/pbs.5076255.sched01/tmp6zmtdo5c/111u4f9dq10.sdf

>  <i_m_source_file_index>  (265) 
17

>  <i_lp_mmshare_version>  (265) 
48012

>  <i_f3d_flags>  (265) 
0

>  <s_epik_input>  (265) 
W0NIMl0xW0NIMl1DKD1PKVtDQEhdKFtDSDNdKVtDQEBIXShbQ0BAXTEyW0NIM10pW0NAQEhdM1tDQEBdKFtDSDNdKShbQ0gyXVtDQEhdKFtDSDNdKVtDSDJdMylbQ0BIXTRbQ0BASF0yQyg9TylbQ0gyXVtDQEBIXTVDPTZbQ0BdKFtDSDNdKShDKD1PKVtDSDJdW0NIXTYpW0NAQEhdKFtPSF0pW0NAQF00NVtDSDNd

>  <s_epik_cmdline>  (265) 
J2VwaWtfcHl0aG9uJywgJy1waHQnLCAnMi4wJywgJy1waCcsICc3LjAnLCAnLXRuJywgJzgnLCAnLW1hJywgJzIwMCcsICctaW1hZScsICc8aW5maWxlLm1hZT4nLCAnLW9tYWUnLCAnPG91dGZpbGUubWFlPic=

>  <r_lp_tautomer_probability>  (265) 
1

>  <r_epik_Ionization_Penalty>  (265) 
4.50075e-08

>  <r_epik_Ionization_Penalty_Charging>  (265) 
0

>  <r_epik_Ionization_Penalty_Neutral>  (265) 
4.50075e-08

>  <r_epik_State_Penalty>  (265) 
-0

>  <r_epik_Charging_Adjusted_Penalty>  (265) 
0

>  <i_epik_Tot_Q>  (265) 
0

>  <i_epik_Tot_abs_Q>  (265) 
0

>  <s_lp_Force_Field>  (265) 
OPLS3e

>  <r_lp_Energy>  (265) 
64.9728

>  <b_lp_Chiralities_Consistent>  (265) 
1

>  <s_lp_Variant>  (265) 
102:0-1

>  <s_i_glide_gridfile>  (265) 
pfpi4k_grid

>  <i_i_glide_lignum>  (265) 
17

>  <i_i_glide_rotatable_bonds>  (265) 
1

>  <r_i_docking_score>  (265) 
-3.22309

>  <r_i_glide_ligand_efficiency>  (265) 
-0.0976693

>  <r_i_glide_ligand_efficiency_sa>  (265) 
-0.313277

>  <r_i_glide_ligand_efficiency_ln>  (265) 
-0.716797

>  <r_i_glide_gscore>  (265) 
-3.22309

>  <r_i_glide_lipo>  (265) 
-0.308739

>  <r_i_glide_hbond>  (265) 
-0.204161

>  <r_i_glide_metal>  (265) 
-0

>  <r_i_glide_rewards>  (265) 
-0.323008

>  <r_i_glide_evdw>  (265) 
-30.4914

>  <r_i_glide_ecoul>  (265) 
-5.14725

>  <r_i_glide_erotb>  (265) 
0

>  <r_i_glide_esite>  (265) 
-0.0905164

>  <r_i_glide_emodel>  (265) 
-42.8337

>  <r_i_glide_energy>  (265) 
-35.6387

>  <r_i_glide_einternal>  (265) 
0.325252

>  <r_i_glide_intrahb_reward>  (265) 
-0

>  <i_i_glide_confnum>  (265) 
1

>  <i_i_glide_posenum>  (265) 
35

>  <r_i_glide_eff_state_penalty>  (265) 
0

>  <ligand_id>  (265) 
102

>  <original_smiles>  (265) 
CC1CC2C3C(C)C(=O)CCC3(C)C3C(=O)CC4C5=CCC(=O)C5(C)C(O)C4(C)C3C2(C)C1

>  <smiles>  (265) 
[H]OC1([H])C2(C([H])([H])[H])C(=O)C([H])=C([H])C2([H])C2([H])C([H])([H])C(=O)C3([H])C([H])(C4(C([H])([H])[H])C([H])([H])C([H])(C([H])([H])[H])C([H])([H])C4([H])C4([H])C([H])(C([H])([H])[H])C(=O)C([H])([H])C([H])([H])C34C([H])([H])[H])C12C([H])([H])[H]

$$$$
102:0:2
     RDKit          3D

 73 78  0  0  1  0  0  0  0  0999 V2000
    1.4365    0.9769    2.3683 C   0  0  0  0  0  0  0  0  0  0  0  0
    2.7459    0.1778    2.4682 C   0  0  2  0  0  0  0  0  0  0  0  0
    3.0155   -0.7126    1.2798 C   0  0  0  0  0  0  0  0  0  0  0  0
    3.9865   -1.8108    1.7565 C   0  0  2  0  0  0  0  0  0  0  0  0
    3.9185   -3.0781    0.8214 C   0  0  1  0  0  0  0  0  0  0  0  0
    4.5581   -2.8762   -0.6075 C   0  0  1  0  0  0  0  0  0  0  0  0
    3.9354   -1.7986   -1.5139 C   0  0  0  0  0  0  0  0  0  0  0  0
    6.0772   -2.7579   -0.5213 C   0  0  0  0  0  0  0  0  0  0  0  0
    6.7044   -1.8609   -1.1025 O   0  0  0  0  0  0  0  0  0  0  0  0
    6.7913   -3.8257    0.2847 C   0  0  0  0  0  0  0  0  0  0  0  0
    6.0772   -4.0975    1.6289 C   0  0  0  0  0  0  0  0  0  0  0  0
    4.5272   -4.3339    1.5279 C   0  0  2  0  0  0  0  0  0  0  0  0
    4.3075   -5.6134    0.6620 C   0  0  0  0  0  0  0  0  0  0  0  0
    3.7350   -4.5975    2.8808 C   0  0  1  0  0  0  0  0  0  0  0  0
    4.3651   -5.5912    3.8933 C   0  0  0  0  0  0  0  0  0  0  0  0
    5.4625   -6.1244    3.7280 O   0  0  0  0  0  0  0  0  0  0  0  0
    3.5388   -5.9998    5.1041 C   0  0  0  0  0  0  0  0  0  0  0  0
    3.0349   -4.7444    5.7877 C   0  0  2  0  0  0  0  0  0  0  0  0
    2.3677   -4.8539    7.1986 C   0  0  2  0  0  0  0  0  0  0  0  0
    1.3804   -5.9991    7.4157 C   0  0  0  0  0  0  0  0  0  0  0  0
    0.1363   -5.5924    7.6908 C   0  0  0  0  0  0  0  0  0  0  0  0
    0.0912   -4.1485    7.5371 C   0  0  0  0  0  0  0  0  0  0  0  0
   -0.9117   -3.4181    7.5663 O   0  0  0  0  0  0  0  0  0  0  0  0
    1.5028   -3.5762    7.3499 C   0  0  1  0  0  0  0  0  0  0  0  0
    1.8853   -2.8443    8.6474 C   0  0  0  0  0  0  0  0  0  0  0  0
    1.6928   -2.8030    6.0013 C   0  0  1  0  0  0  0  0  0  0  0  0
    2.6777   -1.8339    6.2975 O   0  0  0  0  0  0  0  0  0  0  0  0
    2.1834   -3.8243    4.8945 C   0  0  2  0  0  0  0  0  0  0  0  0
    0.9234   -4.5682    4.3735 C   0  0  0  0  0  0  0  0  0  0  0  0
    2.9394   -3.3808    3.5324 C   0  0  1  0  0  0  0  0  0  0  0  0
    3.6817   -2.0091    3.3005 C   0  0  1  0  0  0  0  0  0  0  0  0
    4.9859   -1.9228    4.1291 C   0  0  0  0  0  0  0  0  0  0  0  0
    2.7755   -0.7879    3.6382 C   0  0  0  0  0  0  0  0  0  0  0  0
    0.5696    0.3219    2.2617 H   0  0  0  0  0  0  0  0  0  0  0  0
    1.4397    1.6492    1.5101 H   0  0  0  0  0  0  0  0  0  0  0  0
    1.2778    1.5860    3.2581 H   0  0  0  0  0  0  0  0  0  0  0  0
    3.5862    0.8713    2.5657 H   0  0  0  0  0  0  0  0  0  0  0  0
    2.0839   -1.1728    0.9533 H   0  0  0  0  0  0  0  0  0  0  0  0
    3.4009   -0.1059    0.4679 H   0  0  0  0  0  0  0  0  0  0  0  0
    4.9793   -1.3696    1.6619 H   0  0  0  0  0  0  0  0  0  0  0  0
    2.8696   -3.3065    0.6407 H   0  0  0  0  0  0  0  0  0  0  0  0
    4.3735   -3.7952   -1.1615 H   0  0  0  0  0  0  0  0  0  0  0  0
    4.1530   -2.0112   -2.5613 H   0  0  0  0  0  0  0  0  0  0  0  0
    4.3255   -0.7997   -1.3205 H   0  0  0  0  0  0  0  0  0  0  0  0
    2.8526   -1.7758   -1.4170 H   0  0  0  0  0  0  0  0  0  0  0  0
    6.8221   -4.7405   -0.3101 H   0  0  0  0  0  0  0  0  0  0  0  0
    7.8284   -3.5393    0.4577 H   0  0  0  0  0  0  0  0  0  0  0  0
    6.6087   -4.9245    2.0822 H   0  0  0  0  0  0  0  0  0  0  0  0
    6.2840   -3.2305    2.2491 H   0  0  0  0  0  0  0  0  0  0  0  0
    4.6565   -6.5093    1.1781 H   0  0  0  0  0  0  0  0  0  0  0  0
    4.8349   -5.6109   -0.2941 H   0  0  0  0  0  0  0  0  0  0  0  0
    3.2522   -5.7627    0.4248 H   0  0  0  0  0  0  0  0  0  0  0  0
    2.9163   -5.2199    2.5355 H   0  0  0  0  0  0  0  0  0  0  0  0
    2.7338   -6.6635    4.7992 H   0  0  0  0  0  0  0  0  0  0  0  0
    4.1727   -6.5603    5.7942 H   0  0  0  0  0  0  0  0  0  0  0  0
    3.9367   -4.1528    6.0121 H   0  0  0  0  0  0  0  0  0  0  0  0
    1.6985   -7.0308    7.4944 H   0  0  0  0  0  0  0  0  0  0  0  0
   -0.7065   -6.1984    7.9723 H   0  0  0  0  0  0  0  0  0  0  0  0
    3.1103   -4.9373    7.9720 H   0  0  0  0  0  0  0  0  0  0  0  0
    2.9599   -2.6854    8.7298 H   0  0  0  0  0  0  0  0  0  0  0  0
    1.6044   -3.4278    9.5306 H   0  0  0  0  0  0  0  0  0  0  0  0
    1.3999   -1.8759    8.7383 H   0  0  0  0  0  0  0  0  0  0  0  0
    0.7930   -2.2734    5.6974 H   0  0  0  0  0  0  0  0  0  0  0  0
    2.8530   -1.3508    5.5206 H   0  0  0  0  0  0  0  0  0  0  0  0
    0.2182   -3.8486    3.9518 H   0  0  0  0  0  0  0  0  0  0  0  0
    0.3821   -5.1367    5.1219 H   0  0  0  0  0  0  0  0  0  0  0  0
    1.1487   -5.2964    3.5930 H   0  0  0  0  0  0  0  0  0  0  0  0
    2.1094   -3.2356    2.8399 H   0  0  0  0  0  0  0  0  0  0  0  0
    4.8291   -1.6067    5.1534 H   0  0  0  0  0  0  0  0  0  0  0  0
    5.6858   -1.1990    3.7031 H   0  0  0  0  0  0  0  0  0  0  0  0
    5.5024   -2.8789    4.1914 H   0  0  0  0  0  0  0  0  0  0  0  0
    3.1218   -0.2203    4.5018 H   0  0  0  0  0  0  0  0  0  0  0  0
    1.7568   -1.1225    3.8421 H   0  0  0  0  0  0  0  0  0  0  0  0
  1  2  1  0
  1 34  1  0
  1 35  1  0
  1 36  1  0
  2 33  1  0
  2  3  1  0
  2 37  1  1
  3  4  1  0
  3 38  1  0
  3 39  1  0
  4 31  1  0
  4  5  1  0
  4 40  1  1
  5 12  1  0
  5  6  1  0
  5 41  1  6
  6  7  1  0
  6  8  1  0
  6 42  1  6
  7 43  1  0
  7 44  1  0
  7 45  1  0
  8  9  2  0
  8 10  1  0
 10 11  1  0
 10 46  1  0
 10 47  1  0
 11 12  1  0
 11 48  1  0
 11 49  1  0
 12 13  1  6
 12 14  1  0
 13 50  1  0
 13 51  1  0
 13 52  1  0
 14 30  1  0
 14 15  1  0
 14 53  1  6
 15 16  2  0
 15 17  1  0
 17 18  1  0
 17 54  1  0
 17 55  1  0
 18 28  1  0
 18 56  1  1
 18 19  1  0
 19 59  1  1
 19 20  1  0
 19 24  1  0
 20 57  1  0
 20 21  2  0
 21 58  1  0
 21 22  1  0
 22 23  2  0
 22 24  1  0
 24 25  1  1
 24 26  1  0
 25 60  1  0
 25 61  1  0
 25 62  1  0
 26 27  1  0
 26 28  1  0
 26 63  1  6
 27 64  1  0
 28 29  1  6
 28 30  1  0
 29 65  1  0
 29 66  1  0
 29 67  1  0
 30 31  1  0
 30 68  1  6
 31 32  1  1
 31 33  1  0
 32 69  1  0
 32 70  1  0
 32 71  1  0
 33 72  1  0
 33 73  1  0
M  END
>  <i_m_ct_stereo_status>  (266) 
1

>  <s_m_source_file>  (266) 
/var/tmp/pbs.5076255.sched01/tmp6zmtdo5c/111u4f9dq10.sdf

>  <i_m_source_file_index>  (266) 
17

>  <i_lp_mmshare_version>  (266) 
48012

>  <i_f3d_flags>  (266) 
0

>  <s_epik_input>  (266) 
W0NIMl0xW0NIMl1DKD1PKVtDQEhdKFtDSDNdKVtDQEBIXShbQ0BAXTEyW0NIM10pW0NAQEhdM1tDQEBdKFtDSDNdKShbQ0gyXVtDQEhdKFtDSDNdKVtDSDJdMylbQ0BIXTRbQ0BASF0yQyg9TylbQ0gyXVtDQEBIXTVDPTZbQ0BdKFtDSDNdKShDKD1PKVtDSDJdW0NIXTYpW0NAQEhdKFtPSF0pW0NAQF00NVtDSDNd

>  <s_epik_cmdline>  (266) 
J2VwaWtfcHl0aG9uJywgJy1waHQnLCAnMi4wJywgJy1waCcsICc3LjAnLCAnLXRuJywgJzgnLCAnLW1hJywgJzIwMCcsICctaW1hZScsICc8aW5maWxlLm1hZT4nLCAnLW9tYWUnLCAnPG91dGZpbGUubWFlPic=

>  <r_lp_tautomer_probability>  (266) 
1

>  <r_epik_Ionization_Penalty>  (266) 
4.50075e-08

>  <r_epik_Ionization_Penalty_Charging>  (266) 
0

>  <r_epik_Ionization_Penalty_Neutral>  (266) 
4.50075e-08

>  <r_epik_State_Penalty>  (266) 
-0

>  <r_epik_Charging_Adjusted_Penalty>  (266) 
0

>  <i_epik_Tot_Q>  (266) 
0

>  <i_epik_Tot_abs_Q>  (266) 
0

>  <s_lp_Force_Field>  (266) 
OPLS3e

>  <r_lp_Energy>  (266) 
64.9728

>  <b_lp_Chiralities_Consistent>  (266) 
1

>  <s_lp_Variant>  (266) 
102:0-1

>  <s_i_glide_gridfile>  (266) 
pfpi4k_grid

>  <i_i_glide_lignum>  (266) 
17

>  <i_i_glide_rotatable_bonds>  (266) 
1

>  <r_i_docking_score>  (266) 
-2.97991

>  <r_i_glide_ligand_efficiency>  (266) 
-0.0903003

>  <r_i_glide_ligand_efficiency_sa>  (266) 
-0.289641

>  <r_i_glide_ligand_efficiency_ln>  (266) 
-0.662717

>  <r_i_glide_gscore>  (266) 
-2.97991

>  <r_i_glide_lipo>  (266) 
-0.325412

>  <r_i_glide_hbond>  (266) 
-0.189418

>  <r_i_glide_metal>  (266) 
-0

>  <r_i_glide_rewards>  (266) 
-0.323008

>  <r_i_glide_evdw>  (266) 
-25.7766

>  <r_i_glide_ecoul>  (266) 
-5.60435

>  <r_i_glide_erotb>  (266) 
0

>  <r_i_glide_esite>  (266) 
-0.012592

>  <r_i_glide_emodel>  (266) 
-37.9168

>  <r_i_glide_energy>  (266) 
-31.3809

>  <r_i_glide_einternal>  (266) 
0.320213

>  <r_i_glide_intrahb_reward>  (266) 
-0

>  <i_i_glide_confnum>  (266) 
1

>  <i_i_glide_posenum>  (266) 
21

>  <r_i_glide_eff_state_penalty>  (266) 
0

>  <ligand_id>  (266) 
102

>  <original_smiles>  (266) 
CC1CC2C3C(C)C(=O)CCC3(C)C3C(=O)CC4C5=CCC(=O)C5(C)C(O)C4(C)C3C2(C)C1

>  <smiles>  (266) 
[H]OC1([H])C2(C([H])([H])[H])C(=O)C([H])=C([H])C2([H])C2([H])C([H])([H])C(=O)C3([H])C([H])(C4(C([H])([H])[H])C([H])([H])C([H])(C([H])([H])[H])C([H])([H])C4([H])C4([H])C([H])(C([H])([H])[H])C(=O)C([H])([H])C([H])([H])C34C([H])([H])[H])C12C([H])([H])[H]

$$$$
103:0:0
     RDKit          3D

 82 88  0  0  1  0  0  0  0  0999 V2000
    4.2181   -1.9337   -2.5363 C   0  0  0  0  0  0  0  0  0  0  0  0
    3.9253   -1.9728   -1.0217 C   0  0  2  0  0  0  0  0  0  0  0  0
    5.0657   -1.3096   -0.2870 C   0  0  0  0  0  0  0  0  0  0  0  0
    5.6686   -1.8268    0.7983 C   0  0  0  0  0  0  0  0  0  0  0  0
    5.2242   -3.0995    1.5119 C   0  0  2  0  0  0  0  0  0  0  0  0
    5.1747   -2.8020    2.8993 O   0  0  0  0  0  0  0  0  0  0  0  0
    5.3967   -3.9679    3.6730 C   0  0  1  0  0  0  0  0  0  0  0  0
    4.0252   -4.5634    4.0244 C   0  0  0  0  0  0  0  0  0  0  0  0
    3.7252   -5.6346    2.9635 C   0  0  1  0  0  0  0  0  0  0  0  0
    5.1355   -6.1238    2.6786 C   0  0  0  0  0  0  0  0  0  0  0  0
    5.5574   -7.3982    2.7681 C   0  0  0  0  0  0  0  0  0  0  0  0
    4.6668   -8.5438    3.1826 C   0  0  0  0  0  0  0  0  0  0  0  0
    3.5053   -8.0873    4.1021 C   0  0  1  0  0  0  0  0  0  0  0  0
    3.7489   -8.1489    5.6715 C   0  0  2  0  0  0  0  0  0  0  0  0
    4.9075   -7.2209    6.1302 C   0  0  0  0  0  0  0  0  0  0  0  0
    4.1262   -9.6142    6.0703 C   0  0  0  0  0  0  0  0  0  0  0  0
    4.0551   -9.9237    7.5757 C   0  0  0  0  0  0  0  0  0  0  0  0
    2.6824   -9.5742    8.1501 C   0  0  0  0  0  0  0  0  0  0  0  0
    2.2738   -8.1116    7.9095 C   0  0  0  0  0  0  0  0  0  0  0  0
    0.8026   -7.9915    8.3809 C   0  0  0  0  0  0  0  0  0  0  0  0
    3.1237   -7.1783    8.8035 C   0  0  0  0  0  0  0  0  0  0  0  0
    2.3872   -7.8127    6.3708 C   0  0  1  0  0  0  0  0  0  0  0  0
    1.8552   -6.4371    5.9311 C   0  0  0  0  0  0  0  0  0  0  0  0
    1.5984   -6.3960    4.4178 C   0  0  0  0  0  0  0  0  0  0  0  0
    2.7553   -6.8488    3.4652 C   0  0  1  0  0  0  0  0  0  0  0  0
    2.0040   -7.4820    2.2337 C   0  0  0  0  0  0  0  0  0  0  0  0
    6.1132   -4.9751    2.7691 C   0  0  1  0  0  0  0  0  0  0  0  0
    6.3325   -4.1625    1.4918 C   0  0  1  0  0  0  0  0  0  0  0  0
    6.5624   -4.9308    0.1952 C   0  0  0  0  0  0  0  0  0  0  0  0
    3.1966   -4.8953    1.6614 C   0  0  1  0  0  0  0  0  0  0  0  0
    1.8484   -4.5654    1.9239 O   0  0  0  0  0  0  0  0  0  0  0  0
    3.7876   -3.5371    1.0706 C   0  0  2  0  0  0  0  0  0  0  0  0
    3.6146   -3.4040   -0.4937 C   0  0  1  0  0  0  0  0  0  0  0  0
    2.2214   -3.8357   -0.9983 C   0  0  0  0  0  0  0  0  0  0  0  0
    4.3982   -0.9112   -2.8715 H   0  0  0  0  0  0  0  0  0  0  0  0
    3.3892   -2.3133   -3.1320 H   0  0  0  0  0  0  0  0  0  0  0  0
    5.1033   -2.5225   -2.7793 H   0  0  0  0  0  0  0  0  0  0  0  0
    3.0530   -1.3417   -0.8360 H   0  0  0  0  0  0  0  0  0  0  0  0
    5.3880   -0.3591   -0.6834 H   0  0  0  0  0  0  0  0  0  0  0  0
    6.4791   -1.2755    1.2546 H   0  0  0  0  0  0  0  0  0  0  0  0
    5.9594   -3.7190    4.5713 H   0  0  0  0  0  0  0  0  0  0  0  0
    4.1286   -5.0143    4.9965 H   0  0  0  0  0  0  0  0  0  0  0  0
    3.2561   -3.8035    4.1157 H   0  0  0  0  0  0  0  0  0  0  0  0
    6.6071   -7.6327    2.6634 H   0  0  0  0  0  0  0  0  0  0  0  0
    4.2805   -9.0272    2.2810 H   0  0  0  0  0  0  0  0  0  0  0  0
    5.2870   -9.2925    3.6680 H   0  0  0  0  0  0  0  0  0  0  0  0
    2.8098   -8.9155    4.0019 H   0  0  0  0  0  0  0  0  0  0  0  0
    5.5614   -7.7032    6.8548 H   0  0  0  0  0  0  0  0  0  0  0  0
    4.5512   -6.3201    6.6229 H   0  0  0  0  0  0  0  0  0  0  0  0
    5.5529   -6.9069    5.3159 H   0  0  0  0  0  0  0  0  0  0  0  0
    3.4724  -10.3255    5.5650 H   0  0  0  0  0  0  0  0  0  0  0  0
    5.1379   -9.8555    5.7454 H   0  0  0  0  0  0  0  0  0  0  0  0
    4.2377  -10.9893    7.7301 H   0  0  0  0  0  0  0  0  0  0  0  0
    4.8441   -9.4149    8.1277 H   0  0  0  0  0  0  0  0  0  0  0  0
    1.9469  -10.2137    7.6627 H   0  0  0  0  0  0  0  0  0  0  0  0
    2.6462   -9.8274    9.2103 H   0  0  0  0  0  0  0  0  0  0  0  0
    0.4639   -6.9571    8.4154 H   0  0  0  0  0  0  0  0  0  0  0  0
    0.6753   -8.3995    9.3849 H   0  0  0  0  0  0  0  0  0  0  0  0
    0.1306   -8.5459    7.7223 H   0  0  0  0  0  0  0  0  0  0  0  0
    2.9379   -6.1274    8.5816 H   0  0  0  0  0  0  0  0  0  0  0  0
    4.1926   -7.3572    8.6842 H   0  0  0  0  0  0  0  0  0  0  0  0
    2.9075   -7.3447    9.8603 H   0  0  0  0  0  0  0  0  0  0  0  0
    1.6721   -8.5172    5.9400 H   0  0  0  0  0  0  0  0  0  0  0  0
    0.9009   -6.2334    6.4078 H   0  0  0  0  0  0  0  0  0  0  0  0
    2.5006   -5.6289    6.2548 H   0  0  0  0  0  0  0  0  0  0  0  0
    0.7259   -7.0236    4.2446 H   0  0  0  0  0  0  0  0  0  0  0  0
    1.2628   -5.3901    4.1791 H   0  0  0  0  0  0  0  0  0  0  0  0
    1.4613   -8.3924    2.5014 H   0  0  0  0  0  0  0  0  0  0  0  0
    2.6736   -7.7434    1.4152 H   0  0  0  0  0  0  0  0  0  0  0  0
    1.2196   -6.8501    1.8251 H   0  0  0  0  0  0  0  0  0  0  0  0
    7.0559   -5.3264    3.1785 H   0  0  0  0  0  0  0  0  0  0  0  0
    7.2653   -3.6179    1.6659 H   0  0  0  0  0  0  0  0  0  0  0  0
    5.7294   -5.5848   -0.0683 H   0  0  0  0  0  0  0  0  0  0  0  0
    7.4613   -5.5507    0.2773 H   0  0  0  0  0  0  0  0  0  0  0  0
    6.7325   -4.2377   -0.6314 H   0  0  0  0  0  0  0  0  0  0  0  0
    3.2461   -5.6227    0.8537 H   0  0  0  0  0  0  0  0  0  0  0  0
    1.8372   -3.8182    2.4994 H   0  0  0  0  0  0  0  0  0  0  0  0
    3.1729   -2.7288    1.4761 H   0  0  0  0  0  0  0  0  0  0  0  0
    4.3263   -4.0770   -0.9670 H   0  0  0  0  0  0  0  0  0  0  0  0
    1.4397   -3.2262   -0.5569 H   0  0  0  0  0  0  0  0  0  0  0  0
    2.0112   -4.8792   -0.7739 H   0  0  0  0  0  0  0  0  0  0  0  0
    2.1250   -3.7394   -2.0782 H   0  0  0  0  0  0  0  0  0  0  0  0
  1  2  1  0
  1 35  1  0
  1 36  1  0
  1 37  1  0
  2 33  1  0
  2  3  1  0
  2 38  1  6
  3  4  2  0
  3 39  1  0
  5  4  1  6
  4 40  1  0
  5 28  1  0
  5 32  1  0
  5  6  1  0
  6  7  1  0
  7 27  1  0
  7  8  1  0
  7 41  1  1
  9  8  1  1
  8 42  1  0
  8 43  1  0
  9 25  1  0
  9 10  1  0
  9 30  1  0
 10 11  2  0
 10 27  1  0
 11 12  1  0
 11 44  1  0
 12 13  1  0
 12 45  1  0
 12 46  1  0
 13 25  1  0
 13 14  1  0
 13 47  1  1
 14 22  1  0
 14 15  1  1
 14 16  1  0
 15 48  1  0
 15 49  1  0
 15 50  1  0
 16 17  1  0
 16 51  1  0
 16 52  1  0
 17 18  1  0
 17 53  1  0
 17 54  1  0
 18 19  1  0
 18 55  1  0
 18 56  1  0
 19 20  1  0
 19 21  1  0
 19 22  1  0
 20 57  1  0
 20 58  1  0
 20 59  1  0
 21 60  1  0
 21 61  1  0
 21 62  1  0
 22 23  1  0
 22 63  1  6
 23 24  1  0
 23 64  1  0
 23 65  1  0
 24 25  1  0
 24 66  1  0
 24 67  1  0
 25 26  1  6
 26 68  1  0
 26 69  1  0
 26 70  1  0
 27 28  1  0
 27 71  1  1
 28 29  1  0
 28 72  1  1
 29 73  1  0
 29 74  1  0
 29 75  1  0
 30 31  1  0
 30 32  1  0
 30 76  1  6
 31 77  1  0
 32 33  1  0
 32 78  1  1
 33 34  1  0
 33 79  1  6
 34 80  1  0
 34 81  1  0
 34 82  1  0
M  END
>  <i_m_ct_stereo_status>  (267) 
1

>  <s_m_source_file>  (267) 
/var/tmp/pbs.5076255.sched01/tmp6zmtdo5c/111u4f9dq10.sdf

>  <i_m_source_file_index>  (267) 
18

>  <i_lp_mmshare_version>  (267) 
48012

>  <i_f3d_flags>  (267) 
0

>  <s_epik_input>  (267) 
W0NIXTE9W0NIXVtDQEBIXShbQ0gzXSlbQ0BIXShbQ0gzXSlbQ0BIXShbQ0BAXTEyMylbQ0BIXShbT0hdKVtDQEBdNDVDKFtDQEhdKFtDQEBIXShPMilbQ0gyXTQpW0NASF0zW0NIM10pPVtDSF1bQ0gyXVtDQEhdNltDQEBdNyhbQ0gzXSlbQ0BASF0oQyhbQ0gzXSkoW0NIM10pW0NIMl1bQ0gyXVtDSDJdNylbQ0gyXVtDSDJdW0NAQF01NltDSDNd

>  <s_epik_cmdline>  (267) 
J2VwaWtfcHl0aG9uJywgJy1waHQnLCAnMi4wJywgJy1waCcsICc3LjAnLCAnLXRuJywgJzgnLCAnLW1hJywgJzIwMCcsICctaW1hZScsICc8aW5maWxlLm1hZT4nLCAnLW9tYWUnLCAnPG91dGZpbGUubWFlPic=

>  <r_lp_tautomer_probability>  (267) 
1

>  <r_epik_Ionization_Penalty>  (267) 
1.56839e-07

>  <r_epik_Ionization_Penalty_Charging>  (267) 
0

>  <r_epik_Ionization_Penalty_Neutral>  (267) 
1.56839e-07

>  <r_epik_State_Penalty>  (267) 
-0

>  <r_epik_Charging_Adjusted_Penalty>  (267) 
0

>  <i_epik_Tot_Q>  (267) 
0

>  <i_epik_Tot_abs_Q>  (267) 
0

>  <s_lp_Force_Field>  (267) 
OPLS3e

>  <r_lp_Energy>  (267) 
104.997

>  <b_lp_Chiralities_Consistent>  (267) 
1

>  <s_lp_Variant>  (267) 
103:0-1

>  <s_i_glide_gridfile>  (267) 
pfpi4k_grid

>  <i_i_glide_lignum>  (267) 
18

>  <i_i_glide_rotatable_bonds>  (267) 
1

>  <r_i_docking_score>  (267) 
-1.90307

>  <r_i_glide_ligand_efficiency>  (267) 
-0.0559728

>  <r_i_glide_ligand_efficiency_sa>  (267) 
-0.18133

>  <r_i_glide_ligand_efficiency_ln>  (267) 
-0.420442

>  <r_i_glide_gscore>  (267) 
-1.90307

>  <r_i_glide_lipo>  (267) 
-0.415609

>  <r_i_glide_hbond>  (267) 
-0.00732424

>  <r_i_glide_metal>  (267) 
-0

>  <r_i_glide_rewards>  (267) 
-0.24053

>  <r_i_glide_evdw>  (267) 
-20.7685

>  <r_i_glide_ecoul>  (267) 
-1.34123

>  <r_i_glide_erotb>  (267) 
0

>  <r_i_glide_esite>  (267) 
0

>  <r_i_glide_emodel>  (267) 
-24.2345

>  <r_i_glide_energy>  (267) 
-22.1098

>  <r_i_glide_einternal>  (267) 
0.0302587

>  <r_i_glide_intrahb_reward>  (267) 
-0

>  <i_i_glide_confnum>  (267) 
1

>  <i_i_glide_posenum>  (267) 
24

>  <r_i_glide_eff_state_penalty>  (267) 
0

>  <ligand_id>  (267) 
103

>  <original_smiles>  (267) 
CC1C=CC23OC4CC5(C(=CCC6C7(C)CCCC(C)(C)C7CCC65C)C4C2C)C(O)C3C1C

>  <smiles>  (267) 
[H]OC1([H])C2([H])C3(OC4([H])C([H])([H])C15C(=C([H])C([H])([H])C1([H])C6(C([H])([H])[H])C([H])([H])C([H])([H])C([H])([H])C(C([H])([H])[H])(C([H])([H])[H])C6([H])C([H])([H])C([H])([H])C15C([H])([H])[H])C4([H])C3([H])C([H])([H])[H])C([H])=C([H])C([H])(C([H])([H])[H])C2([H])C([H])([H])[H]

$$$$
103:0:1
     RDKit          3D

 82 88  0  0  1  0  0  0  0  0999 V2000
   -1.4485   -8.3350    2.5268 C   0  0  0  0  0  0  0  0  0  0  0  0
    0.0842   -8.5038    2.5068 C   0  0  2  0  0  0  0  0  0  0  0  0
    0.4097   -9.9775    2.5229 C   0  0  0  0  0  0  0  0  0  0  0  0
    1.3347  -10.5381    3.3164 C   0  0  0  0  0  0  0  0  0  0  0  0
    2.2578   -9.7638    4.2433 C   0  0  2  0  0  0  0  0  0  0  0  0
    3.5727  -10.2533    4.0344 O   0  0  0  0  0  0  0  0  0  0  0  0
    4.3505  -10.1268    5.2061 C   0  0  1  0  0  0  0  0  0  0  0  0
    5.1207   -8.7926    5.0863 C   0  0  0  0  0  0  0  0  0  0  0  0
    4.2849   -7.7262    5.8157 C   0  0  1  0  0  0  0  0  0  0  0  0
    3.6595   -8.5844    6.9005 C   0  0  0  0  0  0  0  0  0  0  0  0
    3.7534   -8.3636    8.2282 C   0  0  0  0  0  0  0  0  0  0  0  0
    4.4986   -7.1917    8.8279 C   0  0  0  0  0  0  0  0  0  0  0  0
    5.6565   -6.6999    7.9241 C   0  0  1  0  0  0  0  0  0  0  0  0
    7.0975   -7.3142    8.1864 C   0  0  2  0  0  0  0  0  0  0  0  0
    7.1339   -8.8518    7.9599 C   0  0  0  0  0  0  0  0  0  0  0  0
    7.5059   -7.0440    9.6729 C   0  0  0  0  0  0  0  0  0  0  0  0
    8.9949   -7.2616    9.9977 C   0  0  0  0  0  0  0  0  0  0  0  0
    9.8926   -6.4402    9.0725 C   0  0  0  0  0  0  0  0  0  0  0  0
    9.6389   -6.7345    7.5814 C   0  0  0  0  0  0  0  0  0  0  0  0
   10.4887   -5.7134    6.7881 C   0  0  0  0  0  0  0  0  0  0  0  0
   10.1790   -8.1413    7.2176 C   0  0  0  0  0  0  0  0  0  0  0  0
    8.1103   -6.5421    7.2788 C   0  0  1  0  0  0  0  0  0  0  0  0
    7.7137   -6.6278    5.7915 C   0  0  0  0  0  0  0  0  0  0  0  0
    6.3302   -6.0036    5.5493 C   0  0  0  0  0  0  0  0  0  0  0  0
    5.1443   -6.4883    6.4428 C   0  0  1  0  0  0  0  0  0  0  0  0
    4.2268   -5.2135    6.5643 C   0  0  0  0  0  0  0  0  0  0  0  0
    3.3869   -9.9869    6.3774 C   0  0  1  0  0  0  0  0  0  0  0  0
    2.0144  -10.1563    5.7025 C   0  0  1  0  0  0  0  0  0  0  0  0
    0.7698   -9.6152    6.4210 C   0  0  0  0  0  0  0  0  0  0  0  0
    3.1201   -7.2646    4.8316 C   0  0  1  0  0  0  0  0  0  0  0  0
    3.6745   -6.3639    3.8802 O   0  0  0  0  0  0  0  0  0  0  0  0
    2.2669   -8.2393    3.9051 C   0  0  2  0  0  0  0  0  0  0  0  0
    0.8074   -7.7139    3.6322 C   0  0  1  0  0  0  0  0  0  0  0  0
    0.7550   -6.2072    3.3163 C   0  0  0  0  0  0  0  0  0  0  0  0
   -1.9052   -8.8806    1.6986 H   0  0  0  0  0  0  0  0  0  0  0  0
   -1.7660   -7.2996    2.4309 H   0  0  0  0  0  0  0  0  0  0  0  0
   -1.8721   -8.7335    3.4502 H   0  0  0  0  0  0  0  0  0  0  0  0
    0.4473   -8.1399    1.5426 H   0  0  0  0  0  0  0  0  0  0  0  0
   -0.1546  -10.5962    1.8407 H   0  0  0  0  0  0  0  0  0  0  0  0
    1.4961  -11.6057    3.2521 H   0  0  0  0  0  0  0  0  0  0  0  0
    5.0183  -10.9788    5.3111 H   0  0  0  0  0  0  0  0  0  0  0  0
    6.0624   -8.9371    5.5896 H   0  0  0  0  0  0  0  0  0  0  0  0
    5.3519   -8.5393    4.0588 H   0  0  0  0  0  0  0  0  0  0  0  0
    3.3845   -9.0934    8.9336 H   0  0  0  0  0  0  0  0  0  0  0  0
    3.7846   -6.3842    9.0165 H   0  0  0  0  0  0  0  0  0  0  0  0
    4.8582   -7.4890    9.8104 H   0  0  0  0  0  0  0  0  0  0  0  0
    5.8237   -5.6995    8.3099 H   0  0  0  0  0  0  0  0  0  0  0  0
    7.6911   -9.3734    8.7361 H   0  0  0  0  0  0  0  0  0  0  0  0
    7.6209   -9.1244    7.0263 H   0  0  0  0  0  0  0  0  0  0  0  0
    6.1485   -9.3077    7.9493 H   0  0  0  0  0  0  0  0  0  0  0  0
    7.2611   -6.0203    9.9523 H   0  0  0  0  0  0  0  0  0  0  0  0
    6.9405   -7.6843   10.3513 H   0  0  0  0  0  0  0  0  0  0  0  0
    9.1865   -6.9636   11.0314 H   0  0  0  0  0  0  0  0  0  0  0  0
    9.2631   -8.3161    9.9528 H   0  0  0  0  0  0  0  0  0  0  0  0
    9.7005   -5.3836    9.2697 H   0  0  0  0  0  0  0  0  0  0  0  0
   10.9395   -6.6066    9.3280 H   0  0  0  0  0  0  0  0  0  0  0  0
   10.5160   -5.9345    5.7214 H   0  0  0  0  0  0  0  0  0  0  0  0
   11.5235   -5.6979    7.1339 H   0  0  0  0  0  0  0  0  0  0  0  0
   10.0984   -4.7001    6.9107 H   0  0  0  0  0  0  0  0  0  0  0  0
    9.9212   -8.4223    6.1961 H   0  0  0  0  0  0  0  0  0  0  0  0
    9.7862   -8.9173    7.8784 H   0  0  0  0  0  0  0  0  0  0  0  0
   11.2647   -8.1858    7.3144 H   0  0  0  0  0  0  0  0  0  0  0  0
    7.9573   -5.4871    7.5228 H   0  0  0  0  0  0  0  0  0  0  0  0
    8.4136   -6.0668    5.1802 H   0  0  0  0  0  0  0  0  0  0  0  0
    7.7704   -7.6420    5.4144 H   0  0  0  0  0  0  0  0  0  0  0  0
    6.4581   -4.9308    5.6636 H   0  0  0  0  0  0  0  0  0  0  0  0
    6.0963   -6.1385    4.4936 H   0  0  0  0  0  0  0  0  0  0  0  0
    4.7146   -4.4022    7.1135 H   0  0  0  0  0  0  0  0  0  0  0  0
    3.2841   -5.4111    7.0723 H   0  0  0  0  0  0  0  0  0  0  0  0
    3.9948   -4.7517    5.6065 H   0  0  0  0  0  0  0  0  0  0  0  0
    3.5315  -10.7252    7.1522 H   0  0  0  0  0  0  0  0  0  0  0  0
    1.8738  -11.2473    5.6746 H   0  0  0  0  0  0  0  0  0  0  0  0
    0.8072   -8.5411    6.5839 H   0  0  0  0  0  0  0  0  0  0  0  0
    0.6615  -10.1009    7.3961 H   0  0  0  0  0  0  0  0  0  0  0  0
   -0.1334   -9.8613    5.8594 H   0  0  0  0  0  0  0  0  0  0  0  0
    2.3975   -6.7358    5.4499 H   0  0  0  0  0  0  0  0  0  0  0  0
    4.3284   -6.8231    3.3911 H   0  0  0  0  0  0  0  0  0  0  0  0
    2.7479   -8.2352    2.9257 H   0  0  0  0  0  0  0  0  0  0  0  0
    0.2217   -7.8557    4.5356 H   0  0  0  0  0  0  0  0  0  0  0  0
    1.3674   -5.9531    2.4513 H   0  0  0  0  0  0  0  0  0  0  0  0
    1.0871   -5.5948    4.1544 H   0  0  0  0  0  0  0  0  0  0  0  0
   -0.2571   -5.8928    3.1172 H   0  0  0  0  0  0  0  0  0  0  0  0
  1  2  1  0
  1 35  1  0
  1 36  1  0
  1 37  1  0
  2 33  1  0
  2  3  1  0
  2 38  1  6
  3  4  2  0
  3 39  1  0
  5  4  1  6
  4 40  1  0
  5 28  1  0
  5 32  1  0
  5  6  1  0
  6  7  1  0
  7 27  1  0
  7  8  1  0
  7 41  1  1
  9  8  1  6
  8 42  1  0
  8 43  1  0
  9 25  1  0
  9 10  1  0
  9 30  1  0
 10 11  2  0
 10 27  1  0
 11 12  1  0
 11 44  1  0
 12 13  1  0
 12 45  1  0
 12 46  1  0
 13 25  1  0
 13 14  1  0
 13 47  1  1
 14 22  1  0
 14 15  1  6
 14 16  1  0
 15 48  1  0
 15 49  1  0
 15 50  1  0
 16 17  1  0
 16 51  1  0
 16 52  1  0
 17 18  1  0
 17 53  1  0
 17 54  1  0
 18 19  1  0
 18 55  1  0
 18 56  1  0
 19 20  1  0
 19 21  1  0
 19 22  1  0
 20 57  1  0
 20 58  1  0
 20 59  1  0
 21 60  1  0
 21 61  1  0
 21 62  1  0
 22 23  1  0
 22 63  1  1
 23 24  1  0
 23 64  1  0
 23 65  1  0
 24 25  1  0
 24 66  1  0
 24 67  1  0
 25 26  1  1
 26 68  1  0
 26 69  1  0
 26 70  1  0
 27 28  1  0
 27 71  1  1
 28 29  1  0
 28 72  1  6
 29 73  1  0
 29 74  1  0
 29 75  1  0
 30 31  1  0
 30 32  1  0
 30 76  1  1
 31 77  1  0
 32 33  1  0
 32 78  1  6
 33 34  1  0
 33 79  1  1
 34 80  1  0
 34 81  1  0
 34 82  1  0
M  END
>  <i_m_ct_stereo_status>  (268) 
1

>  <s_m_source_file>  (268) 
/var/tmp/pbs.5076255.sched01/tmp6zmtdo5c/111u4f9dq10.sdf

>  <i_m_source_file_index>  (268) 
18

>  <i_lp_mmshare_version>  (268) 
48012

>  <i_f3d_flags>  (268) 
0

>  <s_epik_input>  (268) 
W0NIXTE9W0NIXVtDQEBIXShbQ0gzXSlbQ0BIXShbQ0gzXSlbQ0BIXShbQ0BAXTEyMylbQ0BIXShbT0hdKVtDQEBdNDVDKFtDQEhdKFtDQEBIXShPMilbQ0gyXTQpW0NASF0zW0NIM10pPVtDSF1bQ0gyXVtDQEhdNltDQEBdNyhbQ0gzXSlbQ0BASF0oQyhbQ0gzXSkoW0NIM10pW0NIMl1bQ0gyXVtDSDJdNylbQ0gyXVtDSDJdW0NAQF01NltDSDNd

>  <s_epik_cmdline>  (268) 
J2VwaWtfcHl0aG9uJywgJy1waHQnLCAnMi4wJywgJy1waCcsICc3LjAnLCAnLXRuJywgJzgnLCAnLW1hJywgJzIwMCcsICctaW1hZScsICc8aW5maWxlLm1hZT4nLCAnLW9tYWUnLCAnPG91dGZpbGUubWFlPic=

>  <r_lp_tautomer_probability>  (268) 
1

>  <r_epik_Ionization_Penalty>  (268) 
1.56839e-07

>  <r_epik_Ionization_Penalty_Charging>  (268) 
0

>  <r_epik_Ionization_Penalty_Neutral>  (268) 
1.56839e-07

>  <r_epik_State_Penalty>  (268) 
-0

>  <r_epik_Charging_Adjusted_Penalty>  (268) 
0

>  <i_epik_Tot_Q>  (268) 
0

>  <i_epik_Tot_abs_Q>  (268) 
0

>  <s_lp_Force_Field>  (268) 
OPLS3e

>  <r_lp_Energy>  (268) 
104.997

>  <b_lp_Chiralities_Consistent>  (268) 
1

>  <s_lp_Variant>  (268) 
103:0-1

>  <s_i_glide_gridfile>  (268) 
pfpi4k_grid

>  <i_i_glide_lignum>  (268) 
18

>  <i_i_glide_rotatable_bonds>  (268) 
1

>  <r_i_docking_score>  (268) 
-1.58239

>  <r_i_glide_ligand_efficiency>  (268) 
-0.0465409

>  <r_i_glide_ligand_efficiency_sa>  (268) 
-0.150774

>  <r_i_glide_ligand_efficiency_ln>  (268) 
-0.349594

>  <r_i_glide_gscore>  (268) 
-1.58239

>  <r_i_glide_lipo>  (268) 
-0.265765

>  <r_i_glide_hbond>  (268) 
0

>  <r_i_glide_metal>  (268) 
-0

>  <r_i_glide_rewards>  (268) 
-0.24053

>  <r_i_glide_evdw>  (268) 
-20.6612

>  <r_i_glide_ecoul>  (268) 
-0.286899

>  <r_i_glide_erotb>  (268) 
0

>  <r_i_glide_esite>  (268) 
0

>  <r_i_glide_emodel>  (268) 
-22.6278

>  <r_i_glide_energy>  (268) 
-20.9481

>  <r_i_glide_einternal>  (268) 
0.0384191

>  <r_i_glide_intrahb_reward>  (268) 
-0

>  <i_i_glide_confnum>  (268) 
1

>  <i_i_glide_posenum>  (268) 
36

>  <r_i_glide_eff_state_penalty>  (268) 
0

>  <ligand_id>  (268) 
103

>  <original_smiles>  (268) 
CC1C=CC23OC4CC5(C(=CCC6C7(C)CCCC(C)(C)C7CCC65C)C4C2C)C(O)C3C1C

>  <smiles>  (268) 
[H]OC1([H])C2([H])C3(OC4([H])C([H])([H])C15C(=C([H])C([H])([H])C1([H])C6(C([H])([H])[H])C([H])([H])C([H])([H])C([H])([H])C(C([H])([H])[H])(C([H])([H])[H])C6([H])C([H])([H])C([H])([H])C15C([H])([H])[H])C4([H])C3([H])C([H])([H])[H])C([H])=C([H])C([H])(C([H])([H])[H])C2([H])C([H])([H])[H]

$$$$
103:0:2
     RDKit          3D

 82 88  0  0  1  0  0  0  0  0999 V2000
   -1.8673   -7.9239    2.7062 C   0  0  0  0  0  0  0  0  0  0  0  0
   -0.4272   -8.4458    2.6089 C   0  0  2  0  0  0  0  0  0  0  0  0
   -0.3670   -9.7992    3.2341 C   0  0  0  0  0  0  0  0  0  0  0  0
    0.5509  -10.2038    4.1252 C   0  0  0  0  0  0  0  0  0  0  0  0
    1.7488   -9.3866    4.5419 C   0  0  2  0  0  0  0  0  0  0  0  0
    2.8720  -10.2400    4.4597 O   0  0  0  0  0  0  0  0  0  0  0  0
    3.8647   -9.8416    5.3738 C   0  0  1  0  0  0  0  0  0  0  0  0
    4.8329   -8.9254    4.5870 C   0  0  0  0  0  0  0  0  0  0  0  0
    4.3757   -7.4774    4.8298 C   0  0  1  0  0  0  0  0  0  0  0  0
    3.8053   -7.6028    6.2264 C   0  0  0  0  0  0  0  0  0  0  0  0
    4.2000   -6.8816    7.2982 C   0  0  0  0  0  0  0  0  0  0  0  0
    5.2573   -5.8010    7.2296 C   0  0  0  0  0  0  0  0  0  0  0  0
    6.2934   -6.0489    6.1053 C   0  0  1  0  0  0  0  0  0  0  0  0
    7.6124   -6.8428    6.4908 C   0  0  2  0  0  0  0  0  0  0  0  0
    7.3098   -8.2856    6.9867 C   0  0  0  0  0  0  0  0  0  0  0  0
    8.3427   -6.0867    7.6494 C   0  0  0  0  0  0  0  0  0  0  0  0
    9.7957   -6.5227    7.9090 C   0  0  0  0  0  0  0  0  0  0  0  0
   10.6399   -6.4271    6.6399 C   0  0  0  0  0  0  0  0  0  0  0  0
   10.0491   -7.2418    5.4767 C   0  0  0  0  0  0  0  0  0  0  0  0
   10.9082   -6.9058    4.2396 C   0  0  0  0  0  0  0  0  0  0  0  0
   10.2346   -8.7617    5.7382 C   0  0  0  0  0  0  0  0  0  0  0  0
    8.5577   -6.8152    5.2501 C   0  0  1  0  0  0  0  0  0  0  0  0
    7.8758   -7.4147    4.0026 C   0  0  0  0  0  0  0  0  0  0  0  0
    6.6173   -6.6157    3.6268 C   0  0  0  0  0  0  0  0  0  0  0  0
    5.5581   -6.3594    4.7432 C   0  0  1  0  0  0  0  0  0  0  0  0
    4.9369   -4.9644    4.3479 C   0  0  0  0  0  0  0  0  0  0  0  0
    3.1970   -8.9873    6.4399 C   0  0  1  0  0  0  0  0  0  0  0  0
    1.7059   -9.0634    6.0452 C   0  0  1  0  0  0  0  0  0  0  0  0
    0.7505   -7.9788    6.5442 C   0  0  0  0  0  0  0  0  0  0  0  0
    3.1575   -7.1916    3.8510 C   0  0  1  0  0  0  0  0  0  0  0  0
    3.6620   -6.9743    2.5398 O   0  0  0  0  0  0  0  0  0  0  0  0
    1.9761   -8.2043    3.5465 C   0  0  2  0  0  0  0  0  0  0  0  0
    0.6244   -7.4774    3.1887 C   0  0  1  0  0  0  0  0  0  0  0  0
    0.7867   -6.2972    2.2115 C   0  0  0  0  0  0  0  0  0  0  0  0
   -2.5574   -8.6318    2.2421 H   0  0  0  0  0  0  0  0  0  0  0  0
   -1.9972   -6.9865    2.1801 H   0  0  0  0  0  0  0  0  0  0  0  0
   -2.1882   -7.7794    3.7381 H   0  0  0  0  0  0  0  0  0  0  0  0
   -0.2135   -8.6115    1.5556 H   0  0  0  0  0  0  0  0  0  0  0  0
   -1.1745  -10.4405    2.9572 H   0  0  0  0  0  0  0  0  0  0  0  0
    0.4642  -11.1977    4.5456 H   0  0  0  0  0  0  0  0  0  0  0  0
    4.3617  -10.7138    5.7894 H   0  0  0  0  0  0  0  0  0  0  0  0
    5.8078   -9.0829    5.0136 H   0  0  0  0  0  0  0  0  0  0  0  0
    4.8973   -9.1929    3.5398 H   0  0  0  0  0  0  0  0  0  0  0  0
    3.8438   -7.1212    8.2868 H   0  0  0  0  0  0  0  0  0  0  0  0
    4.7606   -4.8344    7.0923 H   0  0  0  0  0  0  0  0  0  0  0  0
    5.7359   -5.7398    8.2048 H   0  0  0  0  0  0  0  0  0  0  0  0
    6.7182   -5.0599    5.9772 H   0  0  0  0  0  0  0  0  0  0  0  0
    7.8962   -8.5567    7.8623 H   0  0  0  0  0  0  0  0  0  0  0  0
    7.5460   -9.0412    6.2399 H   0  0  0  0  0  0  0  0  0  0  0  0
    6.2726   -8.4345    7.2700 H   0  0  0  0  0  0  0  0  0  0  0  0
    8.3571   -5.0165    7.4536 H   0  0  0  0  0  0  0  0  0  0  0  0
    7.8075   -6.2147    8.5917 H   0  0  0  0  0  0  0  0  0  0  0  0
   10.2377   -5.8782    8.6736 H   0  0  0  0  0  0  0  0  0  0  0  0
    9.8446   -7.5287    8.3231 H   0  0  0  0  0  0  0  0  0  0  0  0
   10.6946   -5.3753    6.3510 H   0  0  0  0  0  0  0  0  0  0  0  0
   11.6646   -6.7351    6.8492 H   0  0  0  0  0  0  0  0  0  0  0  0
   10.6747   -7.5573    3.4037 H   0  0  0  0  0  0  0  0  0  0  0  0
   11.9726   -7.0197    4.4408 H   0  0  0  0  0  0  0  0  0  0  0  0
   10.7447   -5.8779    3.9072 H   0  0  0  0  0  0  0  0  0  0  0  0
    9.7361   -9.3685    4.9823 H   0  0  0  0  0  0  0  0  0  0  0  0
    9.8345   -9.0621    6.7111 H   0  0  0  0  0  0  0  0  0  0  0  0
   11.2886   -9.0394    5.7498 H   0  0  0  0  0  0  0  0  0  0  0  0
    8.6614   -5.7543    4.9960 H   0  0  0  0  0  0  0  0  0  0  0  0
    8.5377   -7.3655    3.1449 H   0  0  0  0  0  0  0  0  0  0  0  0
    7.6618   -8.4686    4.1250 H   0  0  0  0  0  0  0  0  0  0  0  0
    6.9629   -5.6708    3.2251 H   0  0  0  0  0  0  0  0  0  0  0  0
    6.1573   -7.1215    2.7737 H   0  0  0  0  0  0  0  0  0  0  0  0
    5.6681   -4.1519    4.4235 H   0  0  0  0  0  0  0  0  0  0  0  0
    4.0913   -4.6782    4.9705 H   0  0  0  0  0  0  0  0  0  0  0  0
    4.6178   -4.9106    3.3084 H   0  0  0  0  0  0  0  0  0  0  0  0
    3.3488   -9.3333    7.4433 H   0  0  0  0  0  0  0  0  0  0  0  0
    1.3560   -9.9932    6.5266 H   0  0  0  0  0  0  0  0  0  0  0  0
    1.0208   -6.9854    6.1886 H   0  0  0  0  0  0  0  0  0  0  0  0
    0.7332   -7.9533    7.6378 H   0  0  0  0  0  0  0  0  0  0  0  0
   -0.2644   -8.2012    6.2155 H   0  0  0  0  0  0  0  0  0  0  0  0
    2.6773   -6.2836    4.2062 H   0  0  0  0  0  0  0  0  0  0  0  0
    2.9420   -6.8264    1.9661 H   0  0  0  0  0  0  0  0  0  0  0  0
    2.2458   -8.7441    2.6370 H   0  0  0  0  0  0  0  0  0  0  0  0
    0.1994   -7.0764    4.1042 H   0  0  0  0  0  0  0  0  0  0  0  0
    1.2538   -6.6071    1.2770 H   0  0  0  0  0  0  0  0  0  0  0  0
    1.3668   -5.4859    2.6477 H   0  0  0  0  0  0  0  0  0  0  0  0
   -0.1750   -5.8675    1.9626 H   0  0  0  0  0  0  0  0  0  0  0  0
  1  2  1  0
  1 35  1  0
  1 36  1  0
  1 37  1  0
  2 33  1  0
  2  3  1  0
  2 38  1  6
  3  4  2  0
  3 39  1  0
  5  4  1  6
  4 40  1  0
  5 28  1  0
  5 32  1  0
  5  6  1  0
  6  7  1  0
  7 27  1  0
  7  8  1  0
  7 41  1  1
  9  8  1  6
  8 42  1  0
  8 43  1  0
  9 25  1  0
  9 10  1  0
  9 30  1  0
 10 11  2  0
 10 27  1  0
 11 12  1  0
 11 44  1  0
 12 13  1  0
 12 45  1  0
 12 46  1  0
 13 25  1  0
 13 14  1  0
 13 47  1  6
 14 22  1  0
 14 15  1  1
 14 16  1  0
 15 48  1  0
 15 49  1  0
 15 50  1  0
 16 17  1  0
 16 51  1  0
 16 52  1  0
 17 18  1  0
 17 53  1  0
 17 54  1  0
 18 19  1  0
 18 55  1  0
 18 56  1  0
 19 20  1  0
 19 21  1  0
 19 22  1  0
 20 57  1  0
 20 58  1  0
 20 59  1  0
 21 60  1  0
 21 61  1  0
 21 62  1  0
 22 23  1  0
 22 63  1  6
 23 24  1  0
 23 64  1  0
 23 65  1  0
 24 25  1  0
 24 66  1  0
 24 67  1  0
 25 26  1  6
 26 68  1  0
 26 69  1  0
 26 70  1  0
 27 28  1  0
 27 71  1  1
 28 29  1  0
 28 72  1  1
 29 73  1  0
 29 74  1  0
 29 75  1  0
 30 31  1  0
 30 32  1  0
 30 76  1  1
 31 77  1  0
 32 33  1  0
 32 78  1  6
 33 34  1  0
 33 79  1  1
 34 80  1  0
 34 81  1  0
 34 82  1  0
M  END
>  <i_m_ct_stereo_status>  (269) 
1

>  <s_m_source_file>  (269) 
/var/tmp/pbs.5076255.sched01/tmp6zmtdo5c/111u4f9dq10.sdf

>  <i_m_source_file_index>  (269) 
18

>  <i_lp_mmshare_version>  (269) 
48012

>  <i_f3d_flags>  (269) 
0

>  <s_epik_input>  (269) 
W0NIXTE9W0NIXVtDQEBIXShbQ0gzXSlbQ0BIXShbQ0gzXSlbQ0BIXShbQ0BAXTEyMylbQ0BIXShbT0hdKVtDQEBdNDVDKFtDQEhdKFtDQEBIXShPMilbQ0gyXTQpW0NASF0zW0NIM10pPVtDSF1bQ0gyXVtDQEhdNltDQEBdNyhbQ0gzXSlbQ0BASF0oQyhbQ0gzXSkoW0NIM10pW0NIMl1bQ0gyXVtDSDJdNylbQ0gyXVtDSDJdW0NAQF01NltDSDNd

>  <s_epik_cmdline>  (269) 
J2VwaWtfcHl0aG9uJywgJy1waHQnLCAnMi4wJywgJy1waCcsICc3LjAnLCAnLXRuJywgJzgnLCAnLW1hJywgJzIwMCcsICctaW1hZScsICc8aW5maWxlLm1hZT4nLCAnLW9tYWUnLCAnPG91dGZpbGUubWFlPic=

>  <r_lp_tautomer_probability>  (269) 
1

>  <r_epik_Ionization_Penalty>  (269) 
1.56839e-07

>  <r_epik_Ionization_Penalty_Charging>  (269) 
0

>  <r_epik_Ionization_Penalty_Neutral>  (269) 
1.56839e-07

>  <r_epik_State_Penalty>  (269) 
-0

>  <r_epik_Charging_Adjusted_Penalty>  (269) 
0

>  <i_epik_Tot_Q>  (269) 
0

>  <i_epik_Tot_abs_Q>  (269) 
0

>  <s_lp_Force_Field>  (269) 
OPLS3e

>  <r_lp_Energy>  (269) 
104.997

>  <b_lp_Chiralities_Consistent>  (269) 
1

>  <s_lp_Variant>  (269) 
103:0-1

>  <s_i_glide_gridfile>  (269) 
pfpi4k_grid

>  <i_i_glide_lignum>  (269) 
18

>  <i_i_glide_rotatable_bonds>  (269) 
1

>  <r_i_docking_score>  (269) 
-1.18315

>  <r_i_glide_ligand_efficiency>  (269) 
-0.0347985

>  <r_i_glide_ligand_efficiency_sa>  (269) 
-0.112734

>  <r_i_glide_ligand_efficiency_ln>  (269) 
-0.261391

>  <r_i_glide_gscore>  (269) 
-1.18315

>  <r_i_glide_lipo>  (269) 
-0.0278508

>  <r_i_glide_hbond>  (269) 
0

>  <r_i_glide_metal>  (269) 
-0

>  <r_i_glide_rewards>  (269) 
-0.24053

>  <r_i_glide_evdw>  (269) 
-20.6499

>  <r_i_glide_ecoul>  (269) 
0.784828

>  <r_i_glide_erotb>  (269) 
0

>  <r_i_glide_esite>  (269) 
0

>  <r_i_glide_emodel>  (269) 
-20.6418

>  <r_i_glide_energy>  (269) 
-19.865

>  <r_i_glide_einternal>  (269) 
0.461799

>  <r_i_glide_intrahb_reward>  (269) 
-0

>  <i_i_glide_confnum>  (269) 
1

>  <i_i_glide_posenum>  (269) 
22

>  <r_i_glide_eff_state_penalty>  (269) 
0

>  <ligand_id>  (269) 
103

>  <original_smiles>  (269) 
CC1C=CC23OC4CC5(C(=CCC6C7(C)CCCC(C)(C)C7CCC65C)C4C2C)C(O)C3C1C

>  <smiles>  (269) 
[H]OC1([H])C2([H])C3(OC4([H])C([H])([H])C15C(=C([H])C([H])([H])C1([H])C6(C([H])([H])[H])C([H])([H])C([H])([H])C([H])([H])C(C([H])([H])[H])(C([H])([H])[H])C6([H])C([H])([H])C([H])([H])C15C([H])([H])[H])C4([H])C3([H])C([H])([H])[H])C([H])=C([H])C([H])(C([H])([H])[H])C2([H])C([H])([H])[H]

$$$$
104:0:0
     RDKit          3D

 25 26  0  0  1  0  0  0  0  0999 V2000
   -8.5665  -10.8919   -6.5234 C   0  0  0  0  0  0  0  0  0  0  0  0
   -8.3369   -9.8479   -7.6005 C   0  0  0  0  0  0  0  0  0  0  0  0
   -9.3234   -9.3420   -8.2239 N   0  0  0  0  0  0  0  0  0  0  0  0
   -9.1394   -8.3266   -9.1579 C   0  0  0  0  0  0  0  0  0  0  0  0
  -10.0687   -7.7872   -9.7447 O   0  0  0  0  0  0  0  0  0  0  0  0
   -7.7046   -7.8454   -9.4867 C   0  0  0  0  0  0  0  0  0  0  0  0
   -6.7453   -8.0430   -8.3088 C   0  0  1  0  0  0  0  0  0  0  0  0
   -6.9852   -7.0665   -7.1731 C   0  0  0  0  0  0  0  0  0  0  0  0
   -8.0078   -6.1356   -7.0112 C   0  0  0  0  0  0  0  0  0  0  0  0
   -7.9301   -5.3978   -5.7975 C   0  0  0  0  0  0  0  0  0  0  0  0
   -6.8483   -5.7266   -5.0505 C   0  0  0  0  0  0  0  0  0  0  0  0
   -5.8906   -6.9910   -5.8202 S   0  0  0  0  0  0  0  0  0  0  0  0
   -6.8679   -9.4948   -7.8543 C   0  0  1  0  0  0  0  0  0  0  0  0
   -5.9638   -9.8897   -6.7913 C   0  0  0  0  0  0  0  0  0  0  0  0
   -5.2280  -10.2108   -5.9538 N   0  0  0  0  0  0  0  0  0  0  0  0
   -8.0758  -11.8241   -6.7828 H   0  0  0  0  0  0  0  0  0  0  0  0
   -9.6261  -11.0949   -6.3955 H   0  0  0  0  0  0  0  0  0  0  0  0
   -8.1760  -10.5496   -5.5666 H   0  0  0  0  0  0  0  0  0  0  0  0
   -7.3688   -8.4157  -10.3373 H   0  0  0  0  0  0  0  0  0  0  0  0
   -7.7329   -6.7999   -9.8130 H   0  0  0  0  0  0  0  0  0  0  0  0
   -5.7241   -7.8845   -8.6857 H   0  0  0  0  0  0  0  0  0  0  0  0
   -8.7848   -5.9981   -7.6991 H   0  0  0  0  0  0  0  0  0  0  0  0
   -8.7100   -4.6965   -5.5266 H   0  0  0  0  0  0  0  0  0  0  0  0
   -6.5888   -5.3377   -4.0577 H   0  0  0  0  0  0  0  0  0  0  0  0
   -6.5617  -10.1066   -8.6918 H   0  0  0  0  0  0  0  0  0  0  0  0
  1  2  1  0
  1 16  1  0
  1 17  1  0
  1 18  1  0
  2 13  1  0
  2  3  2  0
  3  4  1  0
  4  5  2  0
  4  6  1  0
  6  7  1  0
  6 19  1  0
  6 20  1  0
  7  8  1  0
  7 13  1  0
  7 21  1  6
  8 12  1  0
  8  9  2  0
  9 10  1  0
  9 22  1  0
 10 11  2  0
 10 23  1  0
 11 12  1  0
 11 24  1  0
 13 14  1  0
 13 25  1  6
 14 15  3  0
M  END
>  <i_m_ct_stereo_status>  (270) 
1

>  <s_m_source_file>  (270) 
/var/tmp/pbs.5076255.sched01/tmp6zmtdo5c/111u4f9dq10.sdf

>  <i_m_source_file_index>  (270) 
19

>  <i_lp_mmshare_version>  (270) 
48012

>  <i_f3d_flags>  (270) 
0

>  <s_epik_input>  (270) 
W0NIM11DMT1OQyg9TylbQ0gyXVtDQEhdKFtDQEhdMUMjTiljMltjSF1bY0hdW2NIXXMy

>  <s_epik_cmdline>  (270) 
J2VwaWtfcHl0aG9uJywgJy1waHQnLCAnMi4wJywgJy1waCcsICc3LjAnLCAnLXRuJywgJzgnLCAnLW1hJywgJzIwMCcsICctaW1hZScsICc8aW5maWxlLm1hZT4nLCAnLW9tYWUnLCAnPG91dGZpbGUubWFlPic=

>  <r_lp_tautomer_probability>  (270) 
1

>  <r_epik_Ionization_Penalty>  (270) 
1.99136e-06

>  <r_epik_Ionization_Penalty_Charging>  (270) 
0

>  <r_epik_Ionization_Penalty_Neutral>  (270) 
1.99136e-06

>  <r_epik_State_Penalty>  (270) 
-0

>  <r_epik_Charging_Adjusted_Penalty>  (270) 
0

>  <i_epik_Tot_Q>  (270) 
0

>  <i_epik_Tot_abs_Q>  (270) 
0

>  <s_epik_Chemistry_Notes>  (270) 
This compound has an imine and may undergo hydrolysis.

>  <s_lp_Force_Field>  (270) 
OPLS3e

>  <r_lp_Energy>  (270) 
10.5231

>  <b_lp_Chiralities_Consistent>  (270) 
1

>  <s_lp_Variant>  (270) 
104:0-1

>  <s_i_glide_gridfile>  (270) 
pfpi4k_grid

>  <i_i_glide_lignum>  (270) 
19

>  <i_i_glide_rotatable_bonds>  (270) 
2

>  <r_i_docking_score>  (270) 
-5.42516

>  <r_i_glide_ligand_efficiency>  (270) 
-0.361677

>  <r_i_glide_ligand_efficiency_sa>  (270) 
-0.891972

>  <r_i_glide_ligand_efficiency_ln>  (270) 
-1.46308

>  <r_i_glide_gscore>  (270) 
-5.42516

>  <r_i_glide_lipo>  (270) 
-1.93653

>  <r_i_glide_hbond>  (270) 
0

>  <r_i_glide_metal>  (270) 
-0

>  <r_i_glide_rewards>  (270) 
-2.93093

>  <r_i_glide_evdw>  (270) 
-22.2066

>  <r_i_glide_ecoul>  (270) 
1.33319

>  <r_i_glide_erotb>  (270) 
0.35266

>  <r_i_glide_esite>  (270) 
0

>  <r_i_glide_emodel>  (270) 
-27.514

>  <r_i_glide_energy>  (270) 
-20.8734

>  <r_i_glide_einternal>  (270) 
3.4504

>  <r_i_glide_intrahb_reward>  (270) 
-0

>  <i_i_glide_confnum>  (270) 
6

>  <i_i_glide_posenum>  (270) 
16

>  <r_i_glide_eff_state_penalty>  (270) 
0

>  <ligand_id>  (270) 
104

>  <original_smiles>  (270) 
CC1=NC(=O)CC(c2cccs2)C1C#N

>  <smiles>  (270) 
[H]c1sc(C2([H])C([H])([H])C(=O)N=C(C([H])([H])[H])C2([H])C#N)c([H])c1[H]

$$$$
104:0:1
     RDKit          3D

 25 26  0  0  1  0  0  0  0  0999 V2000
   -9.0223  -10.8967   -6.8463 C   0  0  0  0  0  0  0  0  0  0  0  0
   -8.6077   -9.7478   -7.7414 C   0  0  0  0  0  0  0  0  0  0  0  0
   -9.4878   -8.9260   -8.1745 N   0  0  0  0  0  0  0  0  0  0  0  0
   -9.1260   -7.8000   -8.9130 C   0  0  0  0  0  0  0  0  0  0  0  0
   -9.9356   -6.9463   -9.2684 O   0  0  0  0  0  0  0  0  0  0  0  0
   -7.6471   -7.5979   -9.2999 C   0  0  0  0  0  0  0  0  0  0  0  0
   -6.6723   -8.2332   -8.2892 C   0  0  1  0  0  0  0  0  0  0  0  0
   -6.5270   -7.4520   -6.9973 C   0  0  0  0  0  0  0  0  0  0  0  0
   -7.3621   -6.4915   -6.4767 C   0  0  0  0  0  0  0  0  0  0  0  0
   -6.9863   -6.0287   -5.1778 C   0  0  0  0  0  0  0  0  0  0  0  0
   -5.8517   -6.6088   -4.7189 C   0  0  0  0  0  0  0  0  0  0  0  0
   -5.1507   -7.6742   -5.9245 S   0  0  0  0  0  0  0  0  0  0  0  0
   -7.1211   -9.6851   -8.0653 C   0  0  1  0  0  0  0  0  0  0  0  0
   -6.2628  -10.4926   -7.1848 C   0  0  0  0  0  0  0  0  0  0  0  0
   -5.5852  -11.1411   -6.4991 N   0  0  0  0  0  0  0  0  0  0  0  0
   -8.7958  -11.8492   -7.3236 H   0  0  0  0  0  0  0  0  0  0  0  0
  -10.0900  -10.8622   -6.6275 H   0  0  0  0  0  0  0  0  0  0  0  0
   -8.4978  -10.8520   -5.8931 H   0  0  0  0  0  0  0  0  0  0  0  0
   -7.5076   -8.0353  -10.2899 H   0  0  0  0  0  0  0  0  0  0  0  0
   -7.4446   -6.5312   -9.4318 H   0  0  0  0  0  0  0  0  0  0  0  0
   -5.7015   -8.2551   -8.7915 H   0  0  0  0  0  0  0  0  0  0  0  0
   -8.2548   -6.1244   -6.9427 H   0  0  0  0  0  0  0  0  0  0  0  0
   -7.6202   -5.3271   -4.6529 H   0  0  0  0  0  0  0  0  0  0  0  0
   -5.3876   -6.4902   -3.7421 H   0  0  0  0  0  0  0  0  0  0  0  0
   -7.0277  -10.1749   -9.0326 H   0  0  0  0  0  0  0  0  0  0  0  0
  1  2  1  0
  1 16  1  0
  1 17  1  0
  1 18  1  0
  2 13  1  0
  2  3  2  0
  3  4  1  0
  4  5  2  0
  4  6  1  0
  6  7  1  0
  6 19  1  0
  6 20  1  0
  7  8  1  0
  7 13  1  0
  7 21  1  6
  8 12  1  0
  8  9  2  0
  9 10  1  0
  9 22  1  0
 10 11  2  0
 10 23  1  0
 11 12  1  0
 11 24  1  0
 13 14  1  0
 13 25  1  6
 14 15  3  0
M  END
>  <i_m_ct_stereo_status>  (271) 
1

>  <s_m_source_file>  (271) 
/var/tmp/pbs.5076255.sched01/tmp6zmtdo5c/111u4f9dq10.sdf

>  <i_m_source_file_index>  (271) 
19

>  <i_lp_mmshare_version>  (271) 
48012

>  <i_f3d_flags>  (271) 
0

>  <s_epik_input>  (271) 
W0NIM11DMT1OQyg9TylbQ0gyXVtDQEhdKFtDQEhdMUMjTiljMltjSF1bY0hdW2NIXXMy

>  <s_epik_cmdline>  (271) 
J2VwaWtfcHl0aG9uJywgJy1waHQnLCAnMi4wJywgJy1waCcsICc3LjAnLCAnLXRuJywgJzgnLCAnLW1hJywgJzIwMCcsICctaW1hZScsICc8aW5maWxlLm1hZT4nLCAnLW9tYWUnLCAnPG91dGZpbGUubWFlPic=

>  <r_lp_tautomer_probability>  (271) 
1

>  <r_epik_Ionization_Penalty>  (271) 
1.99136e-06

>  <r_epik_Ionization_Penalty_Charging>  (271) 
0

>  <r_epik_Ionization_Penalty_Neutral>  (271) 
1.99136e-06

>  <r_epik_State_Penalty>  (271) 
-0

>  <r_epik_Charging_Adjusted_Penalty>  (271) 
0

>  <i_epik_Tot_Q>  (271) 
0

>  <i_epik_Tot_abs_Q>  (271) 
0

>  <s_epik_Chemistry_Notes>  (271) 
This compound has an imine and may undergo hydrolysis.

>  <s_lp_Force_Field>  (271) 
OPLS3e

>  <r_lp_Energy>  (271) 
10.5231

>  <b_lp_Chiralities_Consistent>  (271) 
1

>  <s_lp_Variant>  (271) 
104:0-1

>  <s_i_glide_gridfile>  (271) 
pfpi4k_grid

>  <i_i_glide_lignum>  (271) 
19

>  <i_i_glide_rotatable_bonds>  (271) 
2

>  <r_i_docking_score>  (271) 
-5.15778

>  <r_i_glide_ligand_efficiency>  (271) 
-0.343852

>  <r_i_glide_ligand_efficiency_sa>  (271) 
-0.848012

>  <r_i_glide_ligand_efficiency_ln>  (271) 
-1.39097

>  <r_i_glide_gscore>  (271) 
-5.15778

>  <r_i_glide_lipo>  (271) 
-1.93948

>  <r_i_glide_hbond>  (271) 
0

>  <r_i_glide_metal>  (271) 
-0

>  <r_i_glide_rewards>  (271) 
-2.51064

>  <r_i_glide_evdw>  (271) 
-23.5194

>  <r_i_glide_ecoul>  (271) 
0.77098

>  <r_i_glide_erotb>  (271) 
0.35266

>  <r_i_glide_esite>  (271) 
0

>  <r_i_glide_emodel>  (271) 
-29.2542

>  <r_i_glide_energy>  (271) 
-22.7484

>  <r_i_glide_einternal>  (271) 
2.80476

>  <r_i_glide_intrahb_reward>  (271) 
-0

>  <i_i_glide_confnum>  (271) 
6

>  <i_i_glide_posenum>  (271) 
36

>  <r_i_glide_eff_state_penalty>  (271) 
0

>  <ligand_id>  (271) 
104

>  <original_smiles>  (271) 
CC1=NC(=O)CC(c2cccs2)C1C#N

>  <smiles>  (271) 
[H]c1sc(C2([H])C([H])([H])C(=O)N=C(C([H])([H])[H])C2([H])C#N)c([H])c1[H]

$$$$
104:0:2
     RDKit          3D

 25 26  0  0  1  0  0  0  0  0999 V2000
    5.9502   -4.2500    1.9954 C   0  0  0  0  0  0  0  0  0  0  0  0
    4.7238   -4.2550    1.1132 C   0  0  0  0  0  0  0  0  0  0  0  0
    3.7818   -5.0983    1.3096 N   0  0  0  0  0  0  0  0  0  0  0  0
    2.6286   -5.0765    0.5242 C   0  0  0  0  0  0  0  0  0  0  0  0
    1.6938   -5.8603    0.6951 O   0  0  0  0  0  0  0  0  0  0  0  0
    2.4884   -4.0126   -0.5903 C   0  0  0  0  0  0  0  0  0  0  0  0
    3.8453   -3.5650   -1.1434 C   0  0  1  0  0  0  0  0  0  0  0  0
    3.7262   -2.4761   -2.1869 C   0  0  0  0  0  0  0  0  0  0  0  0
    4.3463   -1.2552   -2.2462 C   0  0  0  0  0  0  0  0  0  0  0  0
    3.9007   -0.4346   -3.3112 C   0  0  0  0  0  0  0  0  0  0  0  0
    3.0132   -1.0640   -4.1314 C   0  0  0  0  0  0  0  0  0  0  0  0
    2.6505   -2.6711   -3.5495 S   0  0  0  0  0  0  0  0  0  0  0  0
    4.7341   -3.1729    0.0524 C   0  0  1  0  0  0  0  0  0  0  0  0
    4.3364   -1.9095    0.7114 C   0  0  0  0  0  0  0  0  0  0  0  0
    4.0370   -0.9294    1.2326 N   0  0  0  0  0  0  0  0  0  0  0  0
    6.8535   -4.4317    1.4173 H   0  0  0  0  0  0  0  0  0  0  0  0
    5.8827   -5.0117    2.7713 H   0  0  0  0  0  0  0  0  0  0  0  0
    6.0507   -3.2816    2.4817 H   0  0  0  0  0  0  0  0  0  0  0  0
    1.8531   -4.4285   -1.3671 H   0  0  0  0  0  0  0  0  0  0  0  0
    1.9613   -3.1521   -0.1818 H   0  0  0  0  0  0  0  0  0  0  0  0
    4.3137   -4.4228   -1.6346 H   0  0  0  0  0  0  0  0  0  0  0  0
    5.0634   -0.8720   -1.5392 H   0  0  0  0  0  0  0  0  0  0  0  0
    4.2401    0.5858   -3.4150 H   0  0  0  0  0  0  0  0  0  0  0  0
    2.5123   -0.6634   -5.0141 H   0  0  0  0  0  0  0  0  0  0  0  0
    5.7617   -3.0828   -0.3080 H   0  0  0  0  0  0  0  0  0  0  0  0
  1  2  1  0
  1 16  1  0
  1 17  1  0
  1 18  1  0
  2 13  1  0
  2  3  2  0
  3  4  1  0
  4  5  2  0
  4  6  1  0
  6  7  1  0
  6 19  1  0
  6 20  1  0
  7  8  1  0
  7 13  1  0
  7 21  1  6
  8 12  1  0
  8  9  2  0
  9 10  1  0
  9 22  1  0
 10 11  2  0
 10 23  1  0
 11 12  1  0
 11 24  1  0
 13 14  1  0
 13 25  1  6
 14 15  3  0
M  END
>  <i_m_ct_stereo_status>  (272) 
1

>  <s_m_source_file>  (272) 
/var/tmp/pbs.5076255.sched01/tmp6zmtdo5c/111u4f9dq10.sdf

>  <i_m_source_file_index>  (272) 
19

>  <i_lp_mmshare_version>  (272) 
48012

>  <i_f3d_flags>  (272) 
0

>  <s_epik_input>  (272) 
W0NIM11DMT1OQyg9TylbQ0gyXVtDQEhdKFtDQEhdMUMjTiljMltjSF1bY0hdW2NIXXMy

>  <s_epik_cmdline>  (272) 
J2VwaWtfcHl0aG9uJywgJy1waHQnLCAnMi4wJywgJy1waCcsICc3LjAnLCAnLXRuJywgJzgnLCAnLW1hJywgJzIwMCcsICctaW1hZScsICc8aW5maWxlLm1hZT4nLCAnLW9tYWUnLCAnPG91dGZpbGUubWFlPic=

>  <r_lp_tautomer_probability>  (272) 
1

>  <r_epik_Ionization_Penalty>  (272) 
1.99136e-06

>  <r_epik_Ionization_Penalty_Charging>  (272) 
0

>  <r_epik_Ionization_Penalty_Neutral>  (272) 
1.99136e-06

>  <r_epik_State_Penalty>  (272) 
-0

>  <r_epik_Charging_Adjusted_Penalty>  (272) 
0

>  <i_epik_Tot_Q>  (272) 
0

>  <i_epik_Tot_abs_Q>  (272) 
0

>  <s_epik_Chemistry_Notes>  (272) 
This compound has an imine and may undergo hydrolysis.

>  <s_lp_Force_Field>  (272) 
OPLS3e

>  <r_lp_Energy>  (272) 
10.5231

>  <b_lp_Chiralities_Consistent>  (272) 
1

>  <s_lp_Variant>  (272) 
104:0-1

>  <s_i_glide_gridfile>  (272) 
pfpi4k_grid

>  <i_i_glide_lignum>  (272) 
19

>  <i_i_glide_rotatable_bonds>  (272) 
2

>  <r_i_docking_score>  (272) 
-3.82948

>  <r_i_glide_ligand_efficiency>  (272) 
-0.255299

>  <r_i_glide_ligand_efficiency_sa>  (272) 
-0.629621

>  <r_i_glide_ligand_efficiency_ln>  (272) 
-1.03275

>  <r_i_glide_gscore>  (272) 
-3.82948

>  <r_i_glide_lipo>  (272) 
-0.619086

>  <r_i_glide_hbond>  (272) 
-0.104189

>  <r_i_glide_metal>  (272) 
-0

>  <r_i_glide_rewards>  (272) 
-1.96281

>  <r_i_glide_evdw>  (272) 
-23.7603

>  <r_i_glide_ecoul>  (272) 
-1.74418

>  <r_i_glide_erotb>  (272) 
0.35266

>  <r_i_glide_esite>  (272) 
-0.0464199

>  <r_i_glide_emodel>  (272) 
-29.2759

>  <r_i_glide_energy>  (272) 
-25.5045

>  <r_i_glide_einternal>  (272) 
4.17643

>  <r_i_glide_intrahb_reward>  (272) 
-0

>  <i_i_glide_confnum>  (272) 
2

>  <i_i_glide_posenum>  (272) 
2

>  <r_i_glide_eff_state_penalty>  (272) 
0

>  <ligand_id>  (272) 
104

>  <original_smiles>  (272) 
CC1=NC(=O)CC(c2cccs2)C1C#N

>  <smiles>  (272) 
[H]c1sc(C2([H])C([H])([H])C(=O)N=C(C([H])([H])[H])C2([H])C#N)c([H])c1[H]

$$$$
105:0:0
     RDKit          3D

 54 57  0  0  1  0  0  0  0  0999 V2000
    2.7819   -7.4838    5.7034 C   0  0  0  0  0  0  0  0  0  0  0  0
    2.4138   -6.5395    4.7033 O   0  0  0  0  0  0  0  0  0  0  0  0
    3.2623   -5.3950    4.7743 N   0  0  0  0  0  0  0  0  0  0  0  0
    3.9784   -5.2809    3.5807 C   0  0  0  0  0  0  0  0  0  0  0  0
    4.5676   -6.5926    2.9842 C   0  0  2  0  0  0  0  0  0  0  0  0
    6.1171   -6.6004    2.9801 C   0  0  0  0  0  0  0  0  0  0  0  0
    6.4355   -5.7789    1.7502 C   0  0  0  0  0  0  0  0  0  0  0  0
    5.2789   -5.4141    1.1624 C   0  0  0  0  0  0  0  0  0  0  0  0
    4.2775   -6.5370    1.4728 C   0  0  1  0  0  0  0  0  0  0  0  0
    4.7065   -7.8417    0.7300 C   0  0  0  0  0  0  0  0  0  0  0  0
    2.7813   -6.3119    1.0947 C   0  0  0  0  0  0  0  0  0  0  0  0
    1.9917   -7.3897    1.5455 O   0  0  0  0  0  0  0  0  0  0  0  0
    4.8296   -3.9646    1.5239 C   0  0  1  0  0  0  0  0  0  0  0  0
    5.9869   -2.9483    1.7933 C   0  0  0  0  0  0  0  0  0  0  0  0
    6.6655   -2.3829    0.5396 C   0  0  0  0  0  0  0  0  0  0  0  0
    5.6287   -1.6848   -0.3477 C   0  0  0  0  0  0  0  0  0  0  0  0
    4.4606   -2.6138   -0.7003 C   0  0  0  0  0  0  0  0  0  0  0  0
    3.4156   -1.8194   -1.4973 C   0  0  0  0  0  0  0  0  0  0  0  0
    4.9756   -3.7435   -1.6283 C   0  0  0  0  0  0  0  0  0  0  0  0
    3.8172   -3.2184    0.5942 C   0  0  2  0  0  0  0  0  0  0  0  0
    3.1326   -2.2321    1.6031 C   0  0  1  0  0  0  0  0  0  0  0  0
    1.8131   -1.8926    1.2865 O   0  0  0  0  0  0  0  0  0  0  0  0
    3.1587   -2.9930    2.9387 C   0  0  0  0  0  0  0  0  0  0  0  0
    2.4447   -2.7055    3.9034 O   0  0  0  0  0  0  0  0  0  0  0  0
    4.0799   -4.1254    2.8536 C   0  0  0  0  0  0  0  0  0  0  0  0
    2.1255   -8.3544    5.6565 H   0  0  0  0  0  0  0  0  0  0  0  0
    2.7095   -7.0542    6.7026 H   0  0  0  0  0  0  0  0  0  0  0  0
    3.8063   -7.8422    5.5755 H   0  0  0  0  0  0  0  0  0  0  0  0
    4.1725   -7.5155    3.4074 H   0  0  0  0  0  0  0  0  0  0  0  0
    6.5186   -6.1560    3.8899 H   0  0  0  0  0  0  0  0  0  0  0  0
    6.5189   -7.6054    2.8793 H   0  0  0  0  0  0  0  0  0  0  0  0
    7.3066   -5.1567    1.8454 H   0  0  0  0  0  0  0  0  0  0  0  0
    4.1763   -8.7148    1.1179 H   0  0  0  0  0  0  0  0  0  0  0  0
    5.7700   -8.0751    0.8183 H   0  0  0  0  0  0  0  0  0  0  0  0
    4.4962   -7.7666   -0.3405 H   0  0  0  0  0  0  0  0  0  0  0  0
    2.3288   -5.4308    1.5356 H   0  0  0  0  0  0  0  0  0  0  0  0
    2.6757   -6.2203    0.0125 H   0  0  0  0  0  0  0  0  0  0  0  0
    2.1416   -7.4981    2.4730 H   0  0  0  0  0  0  0  0  0  0  0  0
    5.6451   -2.0887    2.3671 H   0  0  0  0  0  0  0  0  0  0  0  0
    6.6668   -3.3845    2.4885 H   0  0  0  0  0  0  0  0  0  0  0  0
    7.4270   -1.6583    0.8301 H   0  0  0  0  0  0  0  0  0  0  0  0
    7.1841   -3.1743    0.0001 H   0  0  0  0  0  0  0  0  0  0  0  0
    5.2516   -0.8025    0.1713 H   0  0  0  0  0  0  0  0  0  0  0  0
    6.0945   -1.3247   -1.2617 H   0  0  0  0  0  0  0  0  0  0  0  0
    2.5456   -2.4272   -1.7458 H   0  0  0  0  0  0  0  0  0  0  0  0
    3.8372   -1.4568   -2.4312 H   0  0  0  0  0  0  0  0  0  0  0  0
    3.0704   -0.9461   -0.9453 H   0  0  0  0  0  0  0  0  0  0  0  0
    4.1827   -4.4286   -1.9022 H   0  0  0  0  0  0  0  0  0  0  0  0
    5.7559   -4.3504   -1.1707 H   0  0  0  0  0  0  0  0  0  0  0  0
    5.3910   -3.3348   -2.5497 H   0  0  0  0  0  0  0  0  0  0  0  0
    3.0440   -3.9005    0.2576 H   0  0  0  0  0  0  0  0  0  0  0  0
    3.7051   -1.3229    1.7436 H   0  0  0  0  0  0  0  0  0  0  0  0
    1.7133   -1.4637    0.4292 H   0  0  0  0  0  0  0  0  0  0  0  0
    2.6932   -4.5973    5.0259 H   0  0  0  0  0  0  0  0  0  0  0  0
  1  2  1  0
  1 26  1  0
  1 27  1  0
  1 28  1  0
  2  3  1  0
  3  4  1  0
  3 54  1  0
  4 25  2  0
  4  5  1  0
  5  9  1  0
  5  6  1  0
  5 29  1  1
  6  7  1  0
  6 30  1  0
  6 31  1  0
  7  8  2  0
  7 32  1  0
  8  9  1  0
  8 13  1  0
  9 10  1  6
  9 11  1  0
 10 33  1  0
 10 34  1  0
 10 35  1  0
 11 12  1  0
 11 36  1  0
 11 37  1  0
 12 38  1  0
 13 20  1  0
 13 14  1  1
 13 25  1  0
 14 15  1  0
 14 39  1  0
 14 40  1  0
 15 16  1  0
 15 41  1  0
 15 42  1  0
 16 17  1  0
 16 43  1  0
 16 44  1  0
 17 18  1  0
 17 19  1  0
 17 20  1  0
 18 45  1  0
 18 46  1  0
 18 47  1  0
 19 48  1  0
 19 49  1  0
 19 50  1  0
 20 21  1  0
 20 51  1  6
 21 22  1  0
 21 52  1  1
 21 23  1  0
 22 53  1  0
 23 24  2  0
 23 25  1  0
M  END
>  <i_m_ct_stereo_status>  (273) 
1

>  <s_m_source_file>  (273) 
/var/tmp/pbs.5076255.sched01/tmp6zmtdo5c/111u4f9dq10.sdf

>  <i_m_source_file_index>  (273) 
20

>  <i_lp_mmshare_version>  (273) 
48012

>  <i_f3d_flags>  (273) 
0

>  <s_epik_input>  (273) 
W0NAXTEyM0M0PVtDSF1bQ0gyXVtDQEBIXShbQ0BAXTQoW0NIM10pW0NIMl1bT0hdKS9DKD1OXE9bQ0gzXSlbQ0BASF0zQyg9TylbQ0BIXShbT0hdKVtDQEhdMkMoW0NIM10pKFtDSDNdKVtDSDJdW0NIMl1bQ0gyXTE=

>  <s_epik_cmdline>  (273) 
J2VwaWtfcHl0aG9uJywgJy1waHQnLCAnMi4wJywgJy1waCcsICc3LjAnLCAnLXRuJywgJzgnLCAnLW1hJywgJzIwMCcsICctaW1hZScsICc8aW5maWxlLm1hZT4nLCAnLW9tYWUnLCAnPG91dGZpbGUubWFlPic=

>  <r_lp_tautomer_probability>  (273) 
1

>  <r_epik_Ionization_Penalty>  (273) 
0.000431032

>  <r_epik_Ionization_Penalty_Charging>  (273) 
0

>  <r_epik_Ionization_Penalty_Neutral>  (273) 
0.000431032

>  <r_epik_State_Penalty>  (273) 
0.000257029

>  <r_epik_Charging_Adjusted_Penalty>  (273) 
0.000257029

>  <i_epik_Tot_Q>  (273) 
0

>  <i_epik_Tot_abs_Q>  (273) 
0

>  <s_epik_Chemistry_Notes>  (273) 
This compound has a N-S or N-O group and may undergo hydrolysis at high or low pH.

>  <s_lp_Force_Field>  (273) 
OPLS3e

>  <r_lp_Energy>  (273) 
95.7431

>  <b_lp_Chiralities_Consistent>  (273) 
1

>  <s_lp_Variant>  (273) 
105:0-1

>  <s_i_glide_gridfile>  (273) 
pfpi4k_grid

>  <i_i_glide_lignum>  (273) 
20

>  <i_i_glide_rotatable_bonds>  (273) 
5

>  <r_i_docking_score>  (273) 
-3.26667

>  <r_i_glide_ligand_efficiency>  (273) 
-0.130667

>  <r_i_glide_ligand_efficiency_sa>  (273) 
-0.382072

>  <r_i_glide_ligand_efficiency_ln>  (273) 
-0.774298

>  <r_i_glide_gscore>  (273) 
-3.26667

>  <r_i_glide_lipo>  (273) 
-0.418372

>  <r_i_glide_hbond>  (273) 
0

>  <r_i_glide_metal>  (273) 
-0

>  <r_i_glide_rewards>  (273) 
-2.04017

>  <r_i_glide_evdw>  (273) 
-12.7884

>  <r_i_glide_ecoul>  (273) 
-3.22592

>  <r_i_glide_erotb>  (273) 
0.315183

>  <r_i_glide_esite>  (273) 
0

>  <r_i_glide_emodel>  (273) 
-29.7549

>  <r_i_glide_energy>  (273) 
-16.0143

>  <r_i_glide_einternal>  (273) 
1.26367

>  <r_i_glide_intrahb_reward>  (273) 
-1

>  <i_i_glide_confnum>  (273) 
2

>  <i_i_glide_posenum>  (273) 
21

>  <r_i_glide_eff_state_penalty>  (273) 
0

>  <ligand_id>  (273) 
105

>  <original_smiles>  (273) 
CON=C1C2CC=C(C2(C)CO)C23CCCC(C)(C)C2C(O)C(=O)C13

>  <smiles>  (273) 
[H]OC([H])([H])C1(C([H])([H])[H])C2=C([H])C([H])([H])C1([H])C(N([H])OC([H])([H])[H])=C1C(=O)C([H])(O[H])C3([H])C12C([H])([H])C([H])([H])C([H])([H])C3(C([H])([H])[H])C([H])([H])[H]

$$$$
105:0:1
     RDKit          3D

 54 57  0  0  1  0  0  0  0  0999 V2000
    2.6512   -5.6486    5.9060 C   0  0  0  0  0  0  0  0  0  0  0  0
    2.4675   -4.8275    4.7601 O   0  0  0  0  0  0  0  0  0  0  0  0
    3.5819   -3.9478    4.6098 N   0  0  0  0  0  0  0  0  0  0  0  0
    4.2342   -4.2249    3.4131 C   0  0  0  0  0  0  0  0  0  0  0  0
    4.4047   -5.7236    3.0235 C   0  0  2  0  0  0  0  0  0  0  0  0
    5.8826   -6.1818    3.0088 C   0  0  0  0  0  0  0  0  0  0  0  0
    6.3562   -5.6813    1.6573 C   0  0  0  0  0  0  0  0  0  0  0  0
    5.3246   -5.0822    1.0393 C   0  0  0  0  0  0  0  0  0  0  0  0
    4.0619   -5.8183    1.5234 C   0  0  1  0  0  0  0  0  0  0  0  0
    4.0798   -7.2807    0.9879 C   0  0  0  0  0  0  0  0  0  0  0  0
    2.6679   -5.2334    1.1143 C   0  0  0  0  0  0  0  0  0  0  0  0
    1.6064   -5.9910    1.6558 O   0  0  0  0  0  0  0  0  0  0  0  0
    5.3249   -3.5315    1.1732 C   0  0  1  0  0  0  0  0  0  0  0  0
    6.7563   -2.8851    1.2663 C   0  0  0  0  0  0  0  0  0  0  0  0
    7.4709   -2.7199   -0.0747 C   0  0  0  0  0  0  0  0  0  0  0  0
    6.6138   -1.9091   -1.0439 C   0  0  0  0  0  0  0  0  0  0  0  0
    5.2009   -2.4775   -1.2372 C   0  0  0  0  0  0  0  0  0  0  0  0
    4.3964   -1.5210   -2.1393 C   0  0  0  0  0  0  0  0  0  0  0  0
    5.2913   -3.8180   -1.9877 C   0  0  0  0  0  0  0  0  0  0  0  0
    4.5069   -2.6790    0.1492 C   0  0  2  0  0  0  0  0  0  0  0  0
    4.1698   -1.4021    0.9868 C   0  0  1  0  0  0  0  0  0  0  0  0
    3.0163   -0.6827    0.5776 O   0  0  0  0  0  0  0  0  0  0  0  0
    4.0456   -1.9223    2.4266 C   0  0  0  0  0  0  0  0  0  0  0  0
    3.5018   -1.2955    3.3354 O   0  0  0  0  0  0  0  0  0  0  0  0
    4.6236   -3.2689    2.5114 C   0  0  0  0  0  0  0  0  0  0  0  0
    1.8012   -6.3207    6.0227 H   0  0  0  0  0  0  0  0  0  0  0  0
    2.7381   -5.0522    6.8140 H   0  0  0  0  0  0  0  0  0  0  0  0
    3.5473   -6.2676    5.8281 H   0  0  0  0  0  0  0  0  0  0  0  0
    3.7920   -6.4178    3.5939 H   0  0  0  0  0  0  0  0  0  0  0  0
    6.4481   -5.7409    3.8295 H   0  0  0  0  0  0  0  0  0  0  0  0
    5.9809   -7.2647    3.0622 H   0  0  0  0  0  0  0  0  0  0  0  0
    7.3796   -5.3474    1.6396 H   0  0  0  0  0  0  0  0  0  0  0  0
    3.3455   -7.9041    1.4966 H   0  0  0  0  0  0  0  0  0  0  0  0
    5.0362   -7.7946    1.0882 H   0  0  0  0  0  0  0  0  0  0  0  0
    3.8482   -7.2774   -0.0742 H   0  0  0  0  0  0  0  0  0  0  0  0
    2.4903   -4.2192    1.4572 H   0  0  0  0  0  0  0  0  0  0  0  0
    2.5620   -5.2297    0.0276 H   0  0  0  0  0  0  0  0  0  0  0  0
    1.8166   -6.1727    2.5629 H   0  0  0  0  0  0  0  0  0  0  0  0
    6.6958   -1.8887    1.7058 H   0  0  0  0  0  0  0  0  0  0  0  0
    7.4081   -3.4051    1.9558 H   0  0  0  0  0  0  0  0  0  0  0  0
    8.4182   -2.2025    0.0795 H   0  0  0  0  0  0  0  0  0  0  0  0
    7.7148   -3.6921   -0.4929 H   0  0  0  0  0  0  0  0  0  0  0  0
    6.5229   -0.8919   -0.6695 H   0  0  0  0  0  0  0  0  0  0  0  0
    7.1136   -1.8729   -2.0094 H   0  0  0  0  0  0  0  0  0  0  0  0
    3.3747   -1.8744   -2.2795 H   0  0  0  0  0  0  0  0  0  0  0  0
    4.8541   -1.4490   -3.1253 H   0  0  0  0  0  0  0  0  0  0  0  0
    4.3534   -0.5116   -1.7331 H   0  0  0  0  0  0  0  0  0  0  0  0
    4.3028   -4.2361   -2.1724 H   0  0  0  0  0  0  0  0  0  0  0  0
    5.8309   -4.5594   -1.4107 H   0  0  0  0  0  0  0  0  0  0  0  0
    5.8033   -3.7100   -2.9465 H   0  0  0  0  0  0  0  0  0  0  0  0
    3.5568   -3.1518   -0.0649 H   0  0  0  0  0  0  0  0  0  0  0  0
    4.9956   -0.6888    0.9889 H   0  0  0  0  0  0  0  0  0  0  0  0
    2.3333   -1.2504    0.2377 H   0  0  0  0  0  0  0  0  0  0  0  0
    3.2501   -2.9949    4.7311 H   0  0  0  0  0  0  0  0  0  0  0  0
  1  2  1  0
  1 26  1  0
  1 27  1  0
  1 28  1  0
  2  3  1  0
  3  4  1  0
  3 54  1  0
  4 25  2  0
  4  5  1  0
  5  9  1  0
  5  6  1  0
  5 29  1  1
  6  7  1  0
  6 30  1  0
  6 31  1  0
  7  8  2  0
  7 32  1  0
  8  9  1  0
  8 13  1  0
  9 10  1  6
  9 11  1  0
 10 33  1  0
 10 34  1  0
 10 35  1  0
 11 12  1  0
 11 36  1  0
 11 37  1  0
 12 38  1  0
 13 20  1  0
 13 14  1  1
 13 25  1  0
 14 15  1  0
 14 39  1  0
 14 40  1  0
 15 16  1  0
 15 41  1  0
 15 42  1  0
 16 17  1  0
 16 43  1  0
 16 44  1  0
 17 18  1  0
 17 19  1  0
 17 20  1  0
 18 45  1  0
 18 46  1  0
 18 47  1  0
 19 48  1  0
 19 49  1  0
 19 50  1  0
 20 21  1  0
 20 51  1  6
 21 22  1  0
 21 52  1  1
 21 23  1  0
 22 53  1  0
 23 24  2  0
 23 25  1  0
M  END
>  <i_m_ct_stereo_status>  (274) 
1

>  <s_m_source_file>  (274) 
/var/tmp/pbs.5076255.sched01/tmp6zmtdo5c/111u4f9dq10.sdf

>  <i_m_source_file_index>  (274) 
20

>  <i_lp_mmshare_version>  (274) 
48012

>  <i_f3d_flags>  (274) 
0

>  <s_epik_input>  (274) 
W0NAXTEyM0M0PVtDSF1bQ0gyXVtDQEBIXShbQ0BAXTQoW0NIM10pW0NIMl1bT0hdKS9DKD1OXE9bQ0gzXSlbQ0BASF0zQyg9TylbQ0BIXShbT0hdKVtDQEhdMkMoW0NIM10pKFtDSDNdKVtDSDJdW0NIMl1bQ0gyXTE=

>  <s_epik_cmdline>  (274) 
J2VwaWtfcHl0aG9uJywgJy1waHQnLCAnMi4wJywgJy1waCcsICc3LjAnLCAnLXRuJywgJzgnLCAnLW1hJywgJzIwMCcsICctaW1hZScsICc8aW5maWxlLm1hZT4nLCAnLW9tYWUnLCAnPG91dGZpbGUubWFlPic=

>  <r_lp_tautomer_probability>  (274) 
1

>  <r_epik_Ionization_Penalty>  (274) 
0.000431032

>  <r_epik_Ionization_Penalty_Charging>  (274) 
0

>  <r_epik_Ionization_Penalty_Neutral>  (274) 
0.000431032

>  <r_epik_State_Penalty>  (274) 
0.000257029

>  <r_epik_Charging_Adjusted_Penalty>  (274) 
0.000257029

>  <i_epik_Tot_Q>  (274) 
0

>  <i_epik_Tot_abs_Q>  (274) 
0

>  <s_epik_Chemistry_Notes>  (274) 
This compound has a N-S or N-O group and may undergo hydrolysis at high or low pH.

>  <s_lp_Force_Field>  (274) 
OPLS3e

>  <r_lp_Energy>  (274) 
95.7431

>  <b_lp_Chiralities_Consistent>  (274) 
1

>  <s_lp_Variant>  (274) 
105:0-1

>  <s_i_glide_gridfile>  (274) 
pfpi4k_grid

>  <i_i_glide_lignum>  (274) 
20

>  <i_i_glide_rotatable_bonds>  (274) 
5

>  <r_i_docking_score>  (274) 
-3.1765

>  <r_i_glide_ligand_efficiency>  (274) 
-0.12706

>  <r_i_glide_ligand_efficiency_sa>  (274) 
-0.371526

>  <r_i_glide_ligand_efficiency_ln>  (274) 
-0.752927

>  <r_i_glide_gscore>  (274) 
-3.1765

>  <r_i_glide_lipo>  (274) 
-0.541514

>  <r_i_glide_hbond>  (274) 
0

>  <r_i_glide_metal>  (274) 
-0

>  <r_i_glide_rewards>  (274) 
-1.541

>  <r_i_glide_evdw>  (274) 
-16.7237

>  <r_i_glide_ecoul>  (274) 
-3.8199

>  <r_i_glide_erotb>  (274) 
0.315183

>  <r_i_glide_esite>  (274) 
0

>  <r_i_glide_emodel>  (274) 
-27.9728

>  <r_i_glide_energy>  (274) 
-20.5436

>  <r_i_glide_einternal>  (274) 
3.35467

>  <r_i_glide_intrahb_reward>  (274) 
-0.5

>  <i_i_glide_confnum>  (274) 
6

>  <i_i_glide_posenum>  (274) 
1

>  <r_i_glide_eff_state_penalty>  (274) 
0

>  <ligand_id>  (274) 
105

>  <original_smiles>  (274) 
CON=C1C2CC=C(C2(C)CO)C23CCCC(C)(C)C2C(O)C(=O)C13

>  <smiles>  (274) 
[H]OC([H])([H])C1(C([H])([H])[H])C2=C([H])C([H])([H])C1([H])C(N([H])OC([H])([H])[H])=C1C(=O)C([H])(O[H])C3([H])C12C([H])([H])C([H])([H])C([H])([H])C3(C([H])([H])[H])C([H])([H])[H]

$$$$
105:0:2
     RDKit          3D

 54 57  0  0  1  0  0  0  0  0999 V2000
    3.2940   -5.4347    6.2330 C   0  0  0  0  0  0  0  0  0  0  0  0
    2.9593   -4.6149    5.1217 O   0  0  0  0  0  0  0  0  0  0  0  0
    4.0564   -3.7655    4.7916 N   0  0  0  0  0  0  0  0  0  0  0  0
    4.5135   -4.0705    3.5136 C   0  0  0  0  0  0  0  0  0  0  0  0
    4.5914   -5.5775    3.1231 C   0  0  2  0  0  0  0  0  0  0  0  0
    6.0426   -6.0700    2.8933 C   0  0  0  0  0  0  0  0  0  0  0  0
    6.3229   -5.5908    1.4821 C   0  0  0  0  0  0  0  0  0  0  0  0
    5.2216   -4.9759    1.0160 C   0  0  0  0  0  0  0  0  0  0  0  0
    4.0296   -5.6806    1.6928 C   0  0  1  0  0  0  0  0  0  0  0  0
    3.9392   -7.1481    1.1782 C   0  0  0  0  0  0  0  0  0  0  0  0
    2.6002   -5.0769    1.4784 C   0  0  0  0  0  0  0  0  0  0  0  0
    1.5949   -5.8409    2.1161 O   0  0  0  0  0  0  0  0  0  0  0  0
    5.2759   -3.4259    1.1293 C   0  0  1  0  0  0  0  0  0  0  0  0
    6.7226   -2.8045    1.0053 C   0  0  0  0  0  0  0  0  0  0  0  0
    7.2260   -2.6711   -0.4349 C   0  0  0  0  0  0  0  0  0  0  0  0
    6.2452   -1.8514   -1.2778 C   0  0  0  0  0  0  0  0  0  0  0  0
    4.8151   -2.4079   -1.2537 C   0  0  0  0  0  0  0  0  0  0  0  0
    3.8991   -1.4490   -2.0442 C   0  0  0  0  0  0  0  0  0  0  0  0
    4.7901   -3.7643   -1.9959 C   0  0  0  0  0  0  0  0  0  0  0  0
    4.3273   -2.5719    0.2237 C   0  0  2  0  0  0  0  0  0  0  0  0
    4.1465   -1.2761    1.0849 C   0  0  1  0  0  0  0  0  0  0  0  0
    2.9399   -0.5644    0.8846 O   0  0  0  0  0  0  0  0  0  0  0  0
    4.2404   -1.7733    2.5354 C   0  0  0  0  0  0  0  0  0  0  0  0
    3.8492   -1.1253    3.5083 O   0  0  0  0  0  0  0  0  0  0  0  0
    4.7848   -3.1343    2.5515 C   0  0  0  0  0  0  0  0  0  0  0  0
    2.4550   -6.0853    6.4805 H   0  0  0  0  0  0  0  0  0  0  0  0
    3.5309   -4.8345    7.1110 H   0  0  0  0  0  0  0  0  0  0  0  0
    4.1529   -6.0759    6.0241 H   0  0  0  0  0  0  0  0  0  0  0  0
    4.0506   -6.2493    3.7863 H   0  0  0  0  0  0  0  0  0  0  0  0
    6.7328   -5.6356    3.6154 H   0  0  0  0  0  0  0  0  0  0  0  0
    6.1237   -7.1545    2.9461 H   0  0  0  0  0  0  0  0  0  0  0  0
    7.3369   -5.2732    1.3074 H   0  0  0  0  0  0  0  0  0  0  0  0
    3.2901   -7.7604    1.8049 H   0  0  0  0  0  0  0  0  0  0  0  0
    4.8888   -7.6784    1.1223 H   0  0  0  0  0  0  0  0  0  0  0  0
    3.5505   -7.1287    0.1641 H   0  0  0  0  0  0  0  0  0  0  0  0
    2.4792   -4.0641    1.8555 H   0  0  0  0  0  0  0  0  0  0  0  0
    2.3646   -5.0517    0.4135 H   0  0  0  0  0  0  0  0  0  0  0  0
    1.7901   -6.7580    1.9797 H   0  0  0  0  0  0  0  0  0  0  0  0
    6.7386   -1.7990    1.4243 H   0  0  0  0  0  0  0  0  0  0  0  0
    7.4609   -3.3051    1.6269 H   0  0  0  0  0  0  0  0  0  0  0  0
    8.1986   -2.1789   -0.4357 H   0  0  0  0  0  0  0  0  0  0  0  0
    7.3835   -3.6532   -0.8724 H   0  0  0  0  0  0  0  0  0  0  0  0
    6.2145   -0.8241   -0.9115 H   0  0  0  0  0  0  0  0  0  0  0  0
    6.5954   -1.8250   -2.3080 H   0  0  0  0  0  0  0  0  0  0  0  0
    2.8593   -1.7743   -2.0287 H   0  0  0  0  0  0  0  0  0  0  0  0
    4.2045   -1.3910   -3.0889 H   0  0  0  0  0  0  0  0  0  0  0  0
    3.9445   -0.4353   -1.6528 H   0  0  0  0  0  0  0  0  0  0  0  0
    3.7891   -4.1902   -2.0015 H   0  0  0  0  0  0  0  0  0  0  0  0
    5.4427   -4.5088   -1.5445 H   0  0  0  0  0  0  0  0  0  0  0  0
    5.1174   -3.6578   -3.0320 H   0  0  0  0  0  0  0  0  0  0  0  0
    3.3449   -3.0235    0.1658 H   0  0  0  0  0  0  0  0  0  0  0  0
    4.9704   -0.5748    0.9369 H   0  0  0  0  0  0  0  0  0  0  0  0
    2.4298   -0.9188    0.1630 H   0  0  0  0  0  0  0  0  0  0  0  0
    3.7636   -2.8056    4.9428 H   0  0  0  0  0  0  0  0  0  0  0  0
  1  2  1  0
  1 26  1  0
  1 27  1  0
  1 28  1  0
  2  3  1  0
  3  4  1  0
  3 54  1  0
  4 25  2  0
  4  5  1  0
  5  9  1  0
  5  6  1  0
  5 29  1  1
  6  7  1  0
  6 30  1  0
  6 31  1  0
  7  8  2  0
  7 32  1  0
  8  9  1  0
  8 13  1  0
  9 10  1  6
  9 11  1  0
 10 33  1  0
 10 34  1  0
 10 35  1  0
 11 12  1  0
 11 36  1  0
 11 37  1  0
 12 38  1  0
 13 20  1  0
 13 14  1  1
 13 25  1  0
 14 15  1  0
 14 39  1  0
 14 40  1  0
 15 16  1  0
 15 41  1  0
 15 42  1  0
 16 17  1  0
 16 43  1  0
 16 44  1  0
 17 18  1  0
 17 19  1  0
 17 20  1  0
 18 45  1  0
 18 46  1  0
 18 47  1  0
 19 48  1  0
 19 49  1  0
 19 50  1  0
 20 21  1  0
 20 51  1  6
 21 22  1  0
 21 52  1  6
 21 23  1  0
 22 53  1  0
 23 24  2  0
 23 25  1  0
M  END
>  <i_m_ct_stereo_status>  (275) 
1

>  <s_m_source_file>  (275) 
/var/tmp/pbs.5076255.sched01/tmp6zmtdo5c/111u4f9dq10.sdf

>  <i_m_source_file_index>  (275) 
20

>  <i_lp_mmshare_version>  (275) 
48012

>  <i_f3d_flags>  (275) 
0

>  <s_epik_input>  (275) 
W0NAXTEyM0M0PVtDSF1bQ0gyXVtDQEBIXShbQ0BAXTQoW0NIM10pW0NIMl1bT0hdKS9DKD1OXE9bQ0gzXSlbQ0BASF0zQyg9TylbQ0BIXShbT0hdKVtDQEhdMkMoW0NIM10pKFtDSDNdKVtDSDJdW0NIMl1bQ0gyXTE=

>  <s_epik_cmdline>  (275) 
J2VwaWtfcHl0aG9uJywgJy1waHQnLCAnMi4wJywgJy1waCcsICc3LjAnLCAnLXRuJywgJzgnLCAnLW1hJywgJzIwMCcsICctaW1hZScsICc8aW5maWxlLm1hZT4nLCAnLW9tYWUnLCAnPG91dGZpbGUubWFlPic=

>  <r_lp_tautomer_probability>  (275) 
1

>  <r_epik_Ionization_Penalty>  (275) 
0.000431032

>  <r_epik_Ionization_Penalty_Charging>  (275) 
0

>  <r_epik_Ionization_Penalty_Neutral>  (275) 
0.000431032

>  <r_epik_State_Penalty>  (275) 
0.000257029

>  <r_epik_Charging_Adjusted_Penalty>  (275) 
0.000257029

>  <i_epik_Tot_Q>  (275) 
0

>  <i_epik_Tot_abs_Q>  (275) 
0

>  <s_epik_Chemistry_Notes>  (275) 
This compound has a N-S or N-O group and may undergo hydrolysis at high or low pH.

>  <s_lp_Force_Field>  (275) 
OPLS3e

>  <r_lp_Energy>  (275) 
95.7431

>  <b_lp_Chiralities_Consistent>  (275) 
1

>  <s_lp_Variant>  (275) 
105:0-1

>  <s_i_glide_gridfile>  (275) 
pfpi4k_grid

>  <i_i_glide_lignum>  (275) 
20

>  <i_i_glide_rotatable_bonds>  (275) 
5

>  <r_i_docking_score>  (275) 
-3.05904

>  <r_i_glide_ligand_efficiency>  (275) 
-0.122362

>  <r_i_glide_ligand_efficiency_sa>  (275) 
-0.357787

>  <r_i_glide_ligand_efficiency_ln>  (275) 
-0.725084

>  <r_i_glide_gscore>  (275) 
-3.05904

>  <r_i_glide_lipo>  (275) 
-0.432698

>  <r_i_glide_hbond>  (275) 
0

>  <r_i_glide_metal>  (275) 
-0

>  <r_i_glide_rewards>  (275) 
-1.55646

>  <r_i_glide_evdw>  (275) 
-18.0922

>  <r_i_glide_ecoul>  (275) 
-3.20304

>  <r_i_glide_erotb>  (275) 
0.315183

>  <r_i_glide_esite>  (275) 
0

>  <r_i_glide_emodel>  (275) 
-27.388

>  <r_i_glide_energy>  (275) 
-21.2952

>  <r_i_glide_einternal>  (275) 
3.8084

>  <r_i_glide_intrahb_reward>  (275) 
-0.5

>  <i_i_glide_confnum>  (275) 
2

>  <i_i_glide_posenum>  (275) 
33

>  <r_i_glide_eff_state_penalty>  (275) 
0

>  <ligand_id>  (275) 
105

>  <original_smiles>  (275) 
CON=C1C2CC=C(C2(C)CO)C23CCCC(C)(C)C2C(O)C(=O)C13

>  <smiles>  (275) 
[H]OC([H])([H])C1(C([H])([H])[H])C2=C([H])C([H])([H])C1([H])C(N([H])OC([H])([H])[H])=C1C(=O)C([H])(O[H])C3([H])C12C([H])([H])C([H])([H])C([H])([H])C3(C([H])([H])[H])C([H])([H])[H]

$$$$
105:1:0
     RDKit          3D

 54 57  0  0  1  0  0  0  0  0999 V2000
    2.8190   -3.2962   -3.8237 C   0  0  0  0  0  0  0  0  0  0  0  0
    2.7816   -2.6557   -2.5648 O   0  0  0  0  0  0  0  0  0  0  0  0
    2.2416   -3.5097   -1.5553 N   0  0  0  0  0  0  0  0  0  0  0  0
    3.1762   -3.6745   -0.5323 C   0  0  0  0  0  0  0  0  0  0  0  0
    4.2183   -2.5350   -0.3044 C   0  0  1  0  0  0  0  0  0  0  0  0
    3.7247   -1.6211    0.8524 C   0  0  0  0  0  0  0  0  0  0  0  0
    4.0875   -2.4609    2.0561 C   0  0  0  0  0  0  0  0  0  0  0  0
    4.7992   -3.5366    1.6611 C   0  0  0  0  0  0  0  0  0  0  0  0
    5.4603   -3.1682    0.3146 C   0  0  1  0  0  0  0  0  0  0  0  0
    6.0238   -4.2801   -0.6098 C   0  0  0  0  0  0  0  0  0  0  0  0
    6.6261   -2.1641    0.5735 C   0  0  0  0  0  0  0  0  0  0  0  0
    7.3306   -1.8556   -0.6140 O   0  0  0  0  0  0  0  0  0  0  0  0
    3.9937   -4.8555    1.6529 C   0  0  1  0  0  0  0  0  0  0  0  0
    4.9057   -6.1442    1.6335 C   0  0  0  0  0  0  0  0  0  0  0  0
    5.4031   -6.6333    3.0037 C   0  0  0  0  0  0  0  0  0  0  0  0
    4.2686   -6.8534    3.9995 C   0  0  0  0  0  0  0  0  0  0  0  0
    3.4079   -5.5991    4.1489 C   0  0  0  0  0  0  0  0  0  0  0  0
    2.2478   -5.9078    5.1193 C   0  0  0  0  0  0  0  0  0  0  0  0
    4.2357   -4.4743    4.8252 C   0  0  0  0  0  0  0  0  0  0  0  0
    2.8747   -5.1290    2.7477 C   0  0  2  0  0  0  0  0  0  0  0  0
    1.9233   -6.1209    2.0049 C   0  0  1  0  0  0  0  0  0  0  0  0
    0.5965   -6.1589    2.4967 O   0  0  0  0  0  0  0  0  0  0  0  0
    1.9699   -5.6003    0.5616 C   0  0  0  0  0  0  0  0  0  0  0  0
    1.0879   -5.8508   -0.2299 O   0  0  0  0  0  0  0  0  0  0  0  0
    3.1348   -4.7173    0.3743 C   0  0  0  0  0  0  0  0  0  0  0  0
    3.2242   -2.6103   -4.5681 H   0  0  0  0  0  0  0  0  0  0  0  0
    1.8134   -3.5729   -4.1429 H   0  0  0  0  0  0  0  0  0  0  0  0
    3.4524   -4.1841   -3.8029 H   0  0  0  0  0  0  0  0  0  0  0  0
    4.4984   -1.9497   -1.1806 H   0  0  0  0  0  0  0  0  0  0  0  0
    4.2307   -0.6562    0.8673 H   0  0  0  0  0  0  0  0  0  0  0  0
    2.6509   -1.4264    0.7967 H   0  0  0  0  0  0  0  0  0  0  0  0
    3.3552   -2.4631    2.8484 H   0  0  0  0  0  0  0  0  0  0  0  0
    6.2629   -3.8728   -1.5904 H   0  0  0  0  0  0  0  0  0  0  0  0
    5.3457   -5.0924   -0.8501 H   0  0  0  0  0  0  0  0  0  0  0  0
    6.9381   -4.6983   -0.1927 H   0  0  0  0  0  0  0  0  0  0  0  0
    6.3342   -1.2127    1.0211 H   0  0  0  0  0  0  0  0  0  0  0  0
    7.3210   -2.6169    1.2861 H   0  0  0  0  0  0  0  0  0  0  0  0
    7.6945   -2.6649   -0.9330 H   0  0  0  0  0  0  0  0  0  0  0  0
    4.3860   -6.9760    1.1514 H   0  0  0  0  0  0  0  0  0  0  0  0
    5.8091   -6.0238    1.0503 H   0  0  0  0  0  0  0  0  0  0  0  0
    5.9398   -7.5744    2.8729 H   0  0  0  0  0  0  0  0  0  0  0  0
    6.1367   -5.9346    3.4033 H   0  0  0  0  0  0  0  0  0  0  0  0
    3.6553   -7.6850    3.6591 H   0  0  0  0  0  0  0  0  0  0  0  0
    4.6714   -7.1569    4.9632 H   0  0  0  0  0  0  0  0  0  0  0  0
    1.5507   -5.0748    5.2164 H   0  0  0  0  0  0  0  0  0  0  0  0
    2.6296   -6.1269    6.1174 H   0  0  0  0  0  0  0  0  0  0  0  0
    1.6892   -6.7927    4.8177 H   0  0  0  0  0  0  0  0  0  0  0  0
    3.6504   -3.5746    5.0182 H   0  0  0  0  0  0  0  0  0  0  0  0
    5.0980   -4.1722    4.2320 H   0  0  0  0  0  0  0  0  0  0  0  0
    4.6439   -4.8111    5.7792 H   0  0  0  0  0  0  0  0  0  0  0  0
    2.2722   -4.2340    2.8964 H   0  0  0  0  0  0  0  0  0  0  0  0
    2.3047   -7.1382    1.9862 H   0  0  0  0  0  0  0  0  0  0  0  0
    0.6138   -6.6081    3.3338 H   0  0  0  0  0  0  0  0  0  0  0  0
    1.8901   -4.3660   -1.9769 H   0  0  0  0  0  0  0  0  0  0  0  0
  1  2  1  0
  1 26  1  0
  1 27  1  0
  1 28  1  0
  2  3  1  0
  3  4  1  0
  3 54  1  0
  4 25  2  0
  4  5  1  0
  5  9  1  0
  5  6  1  0
  5 29  1  6
  6  7  1  0
  6 30  1  0
  6 31  1  0
  7  8  2  0
  7 32  1  0
  8  9  1  0
  8 13  1  0
  9 10  1  6
  9 11  1  0
 10 33  1  0
 10 34  1  0
 10 35  1  0
 11 12  1  0
 11 36  1  0
 11 37  1  0
 12 38  1  0
 13 20  1  0
 13 14  1  6
 13 25  1  0
 14 15  1  0
 14 39  1  0
 14 40  1  0
 15 16  1  0
 15 41  1  0
 15 42  1  0
 16 17  1  0
 16 43  1  0
 16 44  1  0
 17 18  1  0
 17 19  1  0
 17 20  1  0
 18 45  1  0
 18 46  1  0
 18 47  1  0
 19 48  1  0
 19 49  1  0
 19 50  1  0
 20 21  1  0
 20 51  1  1
 21 22  1  0
 21 52  1  6
 21 23  1  0
 22 53  1  0
 23 24  2  0
 23 25  1  0
M  END
>  <i_m_ct_stereo_status>  (276) 
1

>  <s_m_source_file>  (276) 
/var/tmp/pbs.5076255.sched01/tmp6zmtdo5c/111u4f9dq10.sdf

>  <i_m_source_file_index>  (276) 
21

>  <i_lp_mmshare_version>  (276) 
48012

>  <i_f3d_flags>  (276) 
0

>  <s_epik_input>  (276) 
W0NAXTEyM0M0PVtDSF1bQ0gyXVtDQEBIXShbQ0BAXTQoW0NIM10pW0NIMl1bT0hdKS9DKD1OXE9bQ0gzXSlbQ0BASF0zQyg9TylbQ0BIXShbT0hdKVtDQEhdMkMoW0NIM10pKFtDSDNdKVtDSDJdW0NIMl1bQ0gyXTE=

>  <s_epik_cmdline>  (276) 
J2VwaWtfcHl0aG9uJywgJy1waHQnLCAnMi4wJywgJy1waCcsICc3LjAnLCAnLXRuJywgJzgnLCAnLW1hJywgJzIwMCcsICctaW1hZScsICc8aW5maWxlLm1hZT4nLCAnLW9tYWUnLCAnPG91dGZpbGUubWFlPic=

>  <r_lp_tautomer_probability>  (276) 
1

>  <r_epik_Ionization_Penalty>  (276) 
0.000431032

>  <r_epik_Ionization_Penalty_Charging>  (276) 
0

>  <r_epik_Ionization_Penalty_Neutral>  (276) 
0.000431032

>  <r_epik_State_Penalty>  (276) 
0.000257029

>  <r_epik_Charging_Adjusted_Penalty>  (276) 
0.000257029

>  <i_epik_Tot_Q>  (276) 
0

>  <i_epik_Tot_abs_Q>  (276) 
0

>  <s_epik_Chemistry_Notes>  (276) 
This compound has a N-S or N-O group and may undergo hydrolysis at high or low pH.

>  <s_lp_Force_Field>  (276) 
OPLS3e

>  <r_lp_Energy>  (276) 
92.2424

>  <b_lp_Chiralities_Consistent>  (276) 
1

>  <s_lp_Variant>  (276) 
105:0-2

>  <s_i_glide_gridfile>  (276) 
pfpi4k_grid

>  <i_i_glide_lignum>  (276) 
21

>  <i_i_glide_rotatable_bonds>  (276) 
5

>  <r_i_docking_score>  (276) 
-4.38975

>  <r_i_glide_ligand_efficiency>  (276) 
-0.17559

>  <r_i_glide_ligand_efficiency_sa>  (276) 
-0.513428

>  <r_i_glide_ligand_efficiency_ln>  (276) 
-1.0405

>  <r_i_glide_gscore>  (276) 
-4.38975

>  <r_i_glide_lipo>  (276) 
-0.373799

>  <r_i_glide_hbond>  (276) 
-0.775724

>  <r_i_glide_metal>  (276) 
-0

>  <r_i_glide_rewards>  (276) 
-1.04012

>  <r_i_glide_evdw>  (276) 
-17.4908

>  <r_i_glide_ecoul>  (276) 
-10.4703

>  <r_i_glide_erotb>  (276) 
0.315183

>  <r_i_glide_esite>  (276) 
-0.0702002

>  <r_i_glide_emodel>  (276) 
-34.4613

>  <r_i_glide_energy>  (276) 
-27.9611

>  <r_i_glide_einternal>  (276) 
2.17884

>  <r_i_glide_intrahb_reward>  (276) 
-0

>  <i_i_glide_confnum>  (276) 
1

>  <i_i_glide_posenum>  (276) 
5

>  <r_i_glide_eff_state_penalty>  (276) 
0

>  <ligand_id>  (276) 
105

>  <original_smiles>  (276) 
CON=C1C2CC=C(C2(C)CO)C23CCCC(C)(C)C2C(O)C(=O)C13

>  <smiles>  (276) 
[H]OC([H])([H])C1(C([H])([H])[H])C2=C([H])C([H])([H])C1([H])C(N([H])OC([H])([H])[H])=C1C(=O)C([H])(O[H])C3([H])C12C([H])([H])C([H])([H])C([H])([H])C3(C([H])([H])[H])C([H])([H])[H]

$$$$
105:1:1
     RDKit          3D

 54 57  0  0  1  0  0  0  0  0999 V2000
    2.4419   -2.2941   -3.0070 C   0  0  0  0  0  0  0  0  0  0  0  0
    3.0517   -3.4039   -2.3794 O   0  0  0  0  0  0  0  0  0  0  0  0
    2.3007   -3.7753   -1.2287 N   0  0  0  0  0  0  0  0  0  0  0  0
    3.2007   -3.9653   -0.1891 C   0  0  0  0  0  0  0  0  0  0  0  0
    4.2652   -2.8480   -0.0169 C   0  0  1  0  0  0  0  0  0  0  0  0
    3.7946   -1.8436    1.0641 C   0  0  0  0  0  0  0  0  0  0  0  0
    4.0906   -2.6273    2.3267 C   0  0  0  0  0  0  0  0  0  0  0  0
    4.7861   -3.7390    2.0208 C   0  0  0  0  0  0  0  0  0  0  0  0
    5.4869   -3.4637    0.6734 C   0  0  1  0  0  0  0  0  0  0  0  0
    6.0735   -4.6279   -0.1637 C   0  0  0  0  0  0  0  0  0  0  0  0
    6.6596   -2.4611    0.8869 C   0  0  0  0  0  0  0  0  0  0  0  0
    7.0071   -1.8581   -0.3389 O   0  0  0  0  0  0  0  0  0  0  0  0
    3.9498   -5.0398    2.0727 C   0  0  1  0  0  0  0  0  0  0  0  0
    4.8373   -6.3393    2.1536 C   0  0  0  0  0  0  0  0  0  0  0  0
    5.2870   -6.7490    3.5641 C   0  0  0  0  0  0  0  0  0  0  0  0
    4.1194   -6.8819    4.5393 C   0  0  0  0  0  0  0  0  0  0  0  0
    3.2815   -5.6008    4.5910 C   0  0  0  0  0  0  0  0  0  0  0  0
    2.0881   -5.8242    5.5439 C   0  0  0  0  0  0  0  0  0  0  0  0
    4.1198   -4.4540    5.2191 C   0  0  0  0  0  0  0  0  0  0  0  0
    2.7965   -5.2140    3.1476 C   0  0  2  0  0  0  0  0  0  0  0  0
    1.8355   -6.2244    2.4366 C   0  0  1  0  0  0  0  0  0  0  0  0
    0.4968   -6.1844    2.9010 O   0  0  0  0  0  0  0  0  0  0  0  0
    1.9288   -5.8057    0.9682 C   0  0  0  0  0  0  0  0  0  0  0  0
    1.0697   -6.1039    0.1494 O   0  0  0  0  0  0  0  0  0  0  0  0
    3.1166   -4.9515    0.7676 C   0  0  0  0  0  0  0  0  0  0  0  0
    3.0016   -2.0038   -3.8960 H   0  0  0  0  0  0  0  0  0  0  0  0
    2.4053   -1.4459   -2.3250 H   0  0  0  0  0  0  0  0  0  0  0  0
    1.4338   -2.5687   -3.3220 H   0  0  0  0  0  0  0  0  0  0  0  0
    4.5221   -2.3446   -0.9465 H   0  0  0  0  0  0  0  0  0  0  0  0
    4.3571   -0.9106    1.0394 H   0  0  0  0  0  0  0  0  0  0  0  0
    2.7332   -1.6134    0.9633 H   0  0  0  0  0  0  0  0  0  0  0  0
    3.3358   -2.5582    3.0952 H   0  0  0  0  0  0  0  0  0  0  0  0
    6.3753   -4.2372   -1.1275 H   0  0  0  0  0  0  0  0  0  0  0  0
    5.3834   -5.4329   -0.3958 H   0  0  0  0  0  0  0  0  0  0  0  0
    6.9610   -5.0555    0.2983 H   0  0  0  0  0  0  0  0  0  0  0  0
    6.4533   -1.6690    1.6107 H   0  0  0  0  0  0  0  0  0  0  0  0
    7.5246   -3.0009    1.2749 H   0  0  0  0  0  0  0  0  0  0  0  0
    6.1905   -1.5435   -0.7069 H   0  0  0  0  0  0  0  0  0  0  0  0
    4.3109   -7.1878    1.7121 H   0  0  0  0  0  0  0  0  0  0  0  0
    5.7578   -6.2734    1.5905 H   0  0  0  0  0  0  0  0  0  0  0  0
    5.8028   -7.7085    3.5120 H   0  0  0  0  0  0  0  0  0  0  0  0
    6.0231   -6.0426    3.9447 H   0  0  0  0  0  0  0  0  0  0  0  0
    3.4943   -7.7196    4.2376 H   0  0  0  0  0  0  0  0  0  0  0  0
    4.4861   -7.1323    5.5329 H   0  0  0  0  0  0  0  0  0  0  0  0
    1.4108   -4.9708    5.5666 H   0  0  0  0  0  0  0  0  0  0  0  0
    2.4385   -5.9871    6.5628 H   0  0  0  0  0  0  0  0  0  0  0  0
    1.5179   -6.7118    5.2792 H   0  0  0  0  0  0  0  0  0  0  0  0
    3.5467   -3.5325    5.3380 H   0  0  0  0  0  0  0  0  0  0  0  0
    5.0048   -4.2079    4.6305 H   0  0  0  0  0  0  0  0  0  0  0  0
    4.4905   -4.7414    6.2057 H   0  0  0  0  0  0  0  0  0  0  0  0
    2.2201   -4.2921    3.2228 H   0  0  0  0  0  0  0  0  0  0  0  0
    2.1998   -7.2493    2.5016 H   0  0  0  0  0  0  0  0  0  0  0  0
    0.4839   -6.5857    3.7600 H   0  0  0  0  0  0  0  0  0  0  0  0
    1.8060   -4.6391   -1.4826 H   0  0  0  0  0  0  0  0  0  0  0  0
  1  2  1  0
  1 26  1  0
  1 27  1  0
  1 28  1  0
  2  3  1  0
  3  4  1  0
  3 54  1  0
  4 25  2  0
  4  5  1  0
  5  9  1  0
  5  6  1  0
  5 29  1  6
  6  7  1  0
  6 30  1  0
  6 31  1  0
  7  8  2  0
  7 32  1  0
  8  9  1  0
  8 13  1  0
  9 10  1  6
  9 11  1  0
 10 33  1  0
 10 34  1  0
 10 35  1  0
 11 12  1  0
 11 36  1  0
 11 37  1  0
 12 38  1  0
 13 20  1  0
 13 14  1  6
 13 25  1  0
 14 15  1  0
 14 39  1  0
 14 40  1  0
 15 16  1  0
 15 41  1  0
 15 42  1  0
 16 17  1  0
 16 43  1  0
 16 44  1  0
 17 18  1  0
 17 19  1  0
 17 20  1  0
 18 45  1  0
 18 46  1  0
 18 47  1  0
 19 48  1  0
 19 49  1  0
 19 50  1  0
 20 21  1  0
 20 51  1  1
 21 22  1  0
 21 52  1  6
 21 23  1  0
 22 53  1  0
 23 24  2  0
 23 25  1  0
M  END
>  <i_m_ct_stereo_status>  (277) 
1

>  <s_m_source_file>  (277) 
/var/tmp/pbs.5076255.sched01/tmp6zmtdo5c/111u4f9dq10.sdf

>  <i_m_source_file_index>  (277) 
21

>  <i_lp_mmshare_version>  (277) 
48012

>  <i_f3d_flags>  (277) 
0

>  <s_epik_input>  (277) 
W0NAXTEyM0M0PVtDSF1bQ0gyXVtDQEBIXShbQ0BAXTQoW0NIM10pW0NIMl1bT0hdKS9DKD1OXE9bQ0gzXSlbQ0BASF0zQyg9TylbQ0BIXShbT0hdKVtDQEhdMkMoW0NIM10pKFtDSDNdKVtDSDJdW0NIMl1bQ0gyXTE=

>  <s_epik_cmdline>  (277) 
J2VwaWtfcHl0aG9uJywgJy1waHQnLCAnMi4wJywgJy1waCcsICc3LjAnLCAnLXRuJywgJzgnLCAnLW1hJywgJzIwMCcsICctaW1hZScsICc8aW5maWxlLm1hZT4nLCAnLW9tYWUnLCAnPG91dGZpbGUubWFlPic=

>  <r_lp_tautomer_probability>  (277) 
1

>  <r_epik_Ionization_Penalty>  (277) 
0.000431032

>  <r_epik_Ionization_Penalty_Charging>  (277) 
0

>  <r_epik_Ionization_Penalty_Neutral>  (277) 
0.000431032

>  <r_epik_State_Penalty>  (277) 
0.000257029

>  <r_epik_Charging_Adjusted_Penalty>  (277) 
0.000257029

>  <i_epik_Tot_Q>  (277) 
0

>  <i_epik_Tot_abs_Q>  (277) 
0

>  <s_epik_Chemistry_Notes>  (277) 
This compound has a N-S or N-O group and may undergo hydrolysis at high or low pH.

>  <s_lp_Force_Field>  (277) 
OPLS3e

>  <r_lp_Energy>  (277) 
92.2424

>  <b_lp_Chiralities_Consistent>  (277) 
1

>  <s_lp_Variant>  (277) 
105:0-2

>  <s_i_glide_gridfile>  (277) 
pfpi4k_grid

>  <i_i_glide_lignum>  (277) 
21

>  <i_i_glide_rotatable_bonds>  (277) 
5

>  <r_i_docking_score>  (277) 
-3.95378

>  <r_i_glide_ligand_efficiency>  (277) 
-0.158151

>  <r_i_glide_ligand_efficiency_sa>  (277) 
-0.462437

>  <r_i_glide_ligand_efficiency_ln>  (277) 
-0.937165

>  <r_i_glide_gscore>  (277) 
-3.95378

>  <r_i_glide_lipo>  (277) 
-0.231975

>  <r_i_glide_hbond>  (277) 
-0.591989

>  <r_i_glide_metal>  (277) 
-0

>  <r_i_glide_rewards>  (277) 
-1.54012

>  <r_i_glide_evdw>  (277) 
-17.5438

>  <r_i_glide_ecoul>  (277) 
-6.34393

>  <r_i_glide_erotb>  (277) 
0.315183

>  <r_i_glide_esite>  (277) 
-0.076101

>  <r_i_glide_emodel>  (277) 
-35.3367

>  <r_i_glide_energy>  (277) 
-23.8877

>  <r_i_glide_einternal>  (277) 
1.05794

>  <r_i_glide_intrahb_reward>  (277) 
-0.5

>  <i_i_glide_confnum>  (277) 
1

>  <i_i_glide_posenum>  (277) 
1

>  <r_i_glide_eff_state_penalty>  (277) 
0

>  <ligand_id>  (277) 
105

>  <original_smiles>  (277) 
CON=C1C2CC=C(C2(C)CO)C23CCCC(C)(C)C2C(O)C(=O)C13

>  <smiles>  (277) 
[H]OC([H])([H])C1(C([H])([H])[H])C2=C([H])C([H])([H])C1([H])C(N([H])OC([H])([H])[H])=C1C(=O)C([H])(O[H])C3([H])C12C([H])([H])C([H])([H])C([H])([H])C3(C([H])([H])[H])C([H])([H])[H]

$$$$
105:1:2
     RDKit          3D

 54 57  0  0  1  0  0  0  0  0999 V2000
    0.6249  -10.0259    2.9704 C   0  0  0  0  0  0  0  0  0  0  0  0
    1.9899   -9.8179    2.6286 O   0  0  0  0  0  0  0  0  0  0  0  0
    2.1095   -8.7752    1.6695 N   0  0  0  0  0  0  0  0  0  0  0  0
    3.1037   -7.9102    2.0966 C   0  0  0  0  0  0  0  0  0  0  0  0
    4.4350   -8.5425    2.5946 C   0  0  1  0  0  0  0  0  0  0  0  0
    5.4805   -8.5219    1.4341 C   0  0  0  0  0  0  0  0  0  0  0  0
    5.9091   -7.0723    1.4639 C   0  0  0  0  0  0  0  0  0  0  0  0
    5.3902   -6.4581    2.5412 C   0  0  0  0  0  0  0  0  0  0  0  0
    5.0729   -7.5507    3.5685 C   0  0  1  0  0  0  0  0  0  0  0  0
    4.1193   -7.3027    4.7673 C   0  0  0  0  0  0  0  0  0  0  0  0
    6.4124   -8.0646    4.1945 C   0  0  0  0  0  0  0  0  0  0  0  0
    7.0528   -7.0507    4.9499 O   0  0  0  0  0  0  0  0  0  0  0  0
    4.1937   -5.5370    2.1859 C   0  0  1  0  0  0  0  0  0  0  0  0
    3.8545   -4.5104    3.3395 C   0  0  0  0  0  0  0  0  0  0  0  0
    4.6691   -3.2110    3.3320 C   0  0  0  0  0  0  0  0  0  0  0  0
    4.6128   -2.4840    1.9922 C   0  0  0  0  0  0  0  0  0  0  0  0
    5.0287   -3.3913    0.8453 C   0  0  0  0  0  0  0  0  0  0  0  0
    4.8895   -2.6268   -0.4909 C   0  0  0  0  0  0  0  0  0  0  0  0
    6.5448   -3.7374    0.9668 C   0  0  0  0  0  0  0  0  0  0  0  0
    4.1781   -4.7135    0.8310 C   0  0  2  0  0  0  0  0  0  0  0  0
    2.6346   -4.5459    0.5896 C   0  0  1  0  0  0  0  0  0  0  0  0
    2.2624   -4.2514   -0.7276 O   0  0  0  0  0  0  0  0  0  0  0  0
    2.0790   -5.8724    1.0862 C   0  0  0  0  0  0  0  0  0  0  0  0
    0.9393   -6.2329    0.7688 O   0  0  0  0  0  0  0  0  0  0  0  0
    3.0439   -6.5500    1.9532 C   0  0  0  0  0  0  0  0  0  0  0  0
    0.5291  -10.8443    3.6856 H   0  0  0  0  0  0  0  0  0  0  0  0
    0.0386  -10.2891    2.0827 H   0  0  0  0  0  0  0  0  0  0  0  0
    0.1939   -9.1292    3.4245 H   0  0  0  0  0  0  0  0  0  0  0  0
    4.3167   -9.5417    3.0036 H   0  0  0  0  0  0  0  0  0  0  0  0
    6.3242   -9.1895    1.6154 H   0  0  0  0  0  0  0  0  0  0  0  0
    5.0417   -8.7962    0.4786 H   0  0  0  0  0  0  0  0  0  0  0  0
    6.0626   -6.6124    0.4998 H   0  0  0  0  0  0  0  0  0  0  0  0
    3.9339   -8.2449    5.2783 H   0  0  0  0  0  0  0  0  0  0  0  0
    3.1377   -6.9234    4.5003 H   0  0  0  0  0  0  0  0  0  0  0  0
    4.5509   -6.6249    5.5023 H   0  0  0  0  0  0  0  0  0  0  0  0
    6.2209   -8.9206    4.8434 H   0  0  0  0  0  0  0  0  0  0  0  0
    7.1447   -8.3979    3.4594 H   0  0  0  0  0  0  0  0  0  0  0  0
    7.8546   -7.3921    5.2880 H   0  0  0  0  0  0  0  0  0  0  0  0
    2.7988   -4.2410    3.3178 H   0  0  0  0  0  0  0  0  0  0  0  0
    4.0061   -4.9138    4.3326 H   0  0  0  0  0  0  0  0  0  0  0  0
    4.2899   -2.5398    4.1058 H   0  0  0  0  0  0  0  0  0  0  0  0
    5.7027   -3.4151    3.6083 H   0  0  0  0  0  0  0  0  0  0  0  0
    3.5945   -2.1290    1.8207 H   0  0  0  0  0  0  0  0  0  0  0  0
    5.2330   -1.5933    2.0158 H   0  0  0  0  0  0  0  0  0  0  0  0
    5.1018   -3.2472   -1.3572 H   0  0  0  0  0  0  0  0  0  0  0  0
    5.5682   -1.7741   -0.5175 H   0  0  0  0  0  0  0  0  0  0  0  0
    3.8852   -2.2151   -0.6069 H   0  0  0  0  0  0  0  0  0  0  0  0
    6.9125   -4.3375    0.1369 H   0  0  0  0  0  0  0  0  0  0  0  0
    6.7715   -4.2873    1.8850 H   0  0  0  0  0  0  0  0  0  0  0  0
    7.1451   -2.8253    1.0146 H   0  0  0  0  0  0  0  0  0  0  0  0
    4.5152   -5.3382    0.0093 H   0  0  0  0  0  0  0  0  0  0  0  0
    2.2268   -3.7558    1.2243 H   0  0  0  0  0  0  0  0  0  0  0  0
    2.5819   -4.9111   -1.3229 H   0  0  0  0  0  0  0  0  0  0  0  0
    1.1903   -8.4140    1.4350 H   0  0  0  0  0  0  0  0  0  0  0  0
  1  2  1  0
  1 26  1  0
  1 27  1  0
  1 28  1  0
  2  3  1  0
  3  4  1  0
  3 54  1  0
  4 25  2  0
  4  5  1  0
  5  9  1  0
  5  6  1  0
  5 29  1  1
  6  7  1  0
  6 30  1  0
  6 31  1  0
  7  8  2  0
  7 32  1  0
  8  9  1  0
  8 13  1  0
  9 10  1  1
  9 11  1  0
 10 33  1  0
 10 34  1  0
 10 35  1  0
 11 12  1  0
 11 36  1  0
 11 37  1  0
 12 38  1  0
 13 20  1  0
 13 14  1  1
 13 25  1  0
 14 15  1  0
 14 39  1  0
 14 40  1  0
 15 16  1  0
 15 41  1  0
 15 42  1  0
 16 17  1  0
 16 43  1  0
 16 44  1  0
 17 18  1  0
 17 19  1  0
 17 20  1  0
 18 45  1  0
 18 46  1  0
 18 47  1  0
 19 48  1  0
 19 49  1  0
 19 50  1  0
 20 21  1  0
 20 51  1  6
 21 22  1  0
 21 52  1  1
 21 23  1  0
 22 53  1  0
 23 24  2  0
 23 25  1  0
M  END
>  <i_m_ct_stereo_status>  (278) 
1

>  <s_m_source_file>  (278) 
/var/tmp/pbs.5076255.sched01/tmp6zmtdo5c/111u4f9dq10.sdf

>  <i_m_source_file_index>  (278) 
21

>  <i_lp_mmshare_version>  (278) 
48012

>  <i_f3d_flags>  (278) 
0

>  <s_epik_input>  (278) 
W0NAXTEyM0M0PVtDSF1bQ0gyXVtDQEBIXShbQ0BAXTQoW0NIM10pW0NIMl1bT0hdKS9DKD1OXE9bQ0gzXSlbQ0BASF0zQyg9TylbQ0BIXShbT0hdKVtDQEhdMkMoW0NIM10pKFtDSDNdKVtDSDJdW0NIMl1bQ0gyXTE=

>  <s_epik_cmdline>  (278) 
J2VwaWtfcHl0aG9uJywgJy1waHQnLCAnMi4wJywgJy1waCcsICc3LjAnLCAnLXRuJywgJzgnLCAnLW1hJywgJzIwMCcsICctaW1hZScsICc8aW5maWxlLm1hZT4nLCAnLW9tYWUnLCAnPG91dGZpbGUubWFlPic=

>  <r_lp_tautomer_probability>  (278) 
1

>  <r_epik_Ionization_Penalty>  (278) 
0.000431032

>  <r_epik_Ionization_Penalty_Charging>  (278) 
0

>  <r_epik_Ionization_Penalty_Neutral>  (278) 
0.000431032

>  <r_epik_State_Penalty>  (278) 
0.000257029

>  <r_epik_Charging_Adjusted_Penalty>  (278) 
0.000257029

>  <i_epik_Tot_Q>  (278) 
0

>  <i_epik_Tot_abs_Q>  (278) 
0

>  <s_epik_Chemistry_Notes>  (278) 
This compound has a N-S or N-O group and may undergo hydrolysis at high or low pH.

>  <s_lp_Force_Field>  (278) 
OPLS3e

>  <r_lp_Energy>  (278) 
92.2424

>  <b_lp_Chiralities_Consistent>  (278) 
1

>  <s_lp_Variant>  (278) 
105:0-2

>  <s_i_glide_gridfile>  (278) 
pfpi4k_grid

>  <i_i_glide_lignum>  (278) 
21

>  <i_i_glide_rotatable_bonds>  (278) 
5

>  <r_i_docking_score>  (278) 
-3.91814

>  <r_i_glide_ligand_efficiency>  (278) 
-0.156726

>  <r_i_glide_ligand_efficiency_sa>  (278) 
-0.458269

>  <r_i_glide_ligand_efficiency_ln>  (278) 
-0.928717

>  <r_i_glide_gscore>  (278) 
-3.91814

>  <r_i_glide_lipo>  (278) 
-0.447334

>  <r_i_glide_hbond>  (278) 
-0.16

>  <r_i_glide_metal>  (278) 
-0

>  <r_i_glide_rewards>  (278) 
-1.54012

>  <r_i_glide_evdw>  (278) 
-19.7167

>  <r_i_glide_ecoul>  (278) 
-7.06364

>  <r_i_glide_erotb>  (278) 
0.315183

>  <r_i_glide_esite>  (278) 
-0.0404861

>  <r_i_glide_emodel>  (278) 
-37.8117

>  <r_i_glide_energy>  (278) 
-26.7804

>  <r_i_glide_einternal>  (278) 
1.88027

>  <r_i_glide_intrahb_reward>  (278) 
-0.5

>  <i_i_glide_confnum>  (278) 
3

>  <i_i_glide_posenum>  (278) 
30

>  <r_i_glide_eff_state_penalty>  (278) 
0

>  <ligand_id>  (278) 
105

>  <original_smiles>  (278) 
CON=C1C2CC=C(C2(C)CO)C23CCCC(C)(C)C2C(O)C(=O)C13

>  <smiles>  (278) 
[H]OC([H])([H])C1(C([H])([H])[H])C2=C([H])C([H])([H])C1([H])C(N([H])OC([H])([H])[H])=C1C(=O)C([H])(O[H])C3([H])C12C([H])([H])C([H])([H])C([H])([H])C3(C([H])([H])[H])C([H])([H])[H]

$$$$
106:0:0
     RDKit          3D

 27 28  0  0  1  0  0  0  0  0999 V2000
   -6.3297   -4.5280   -4.4936 C   0  0  0  0  0  0  0  0  0  0  0  0
   -6.7870   -5.5755   -5.4022 N   0  0  0  0  0  0  0  0  0  0  0  0
   -7.8355   -5.4303   -6.2133 C   0  0  0  0  0  0  0  0  0  0  0  0
   -7.9632   -6.5711   -6.8933 N   0  0  0  0  0  0  0  0  0  0  0  0
   -6.9855   -7.4568   -6.5195 C   0  0  0  0  0  0  0  0  0  0  0  0
   -6.2439   -6.8223   -5.5707 C   0  0  0  0  0  0  0  0  0  0  0  0
   -5.0694   -7.4198   -4.9074 C   0  0  0  0  0  0  0  0  0  0  0  0
   -4.6189   -8.5979   -5.6547 N   0  0  0  0  0  0  0  0  0  0  0  0
   -5.3466   -9.3235   -6.5298 C   0  0  0  0  0  0  0  0  0  0  0  0
   -4.8993  -10.3737   -7.0013 O   0  0  0  0  0  0  0  0  0  0  0  0
   -6.7582   -8.8577   -6.9962 C   0  0  0  0  0  0  0  0  0  0  0  0
   -7.7913   -9.8099   -6.3629 C   0  0  0  0  0  0  0  0  0  0  0  0
   -6.8230   -8.9153   -8.5398 C   0  0  0  0  0  0  0  0  0  0  0  0
   -7.0587   -3.7057   -4.4448 H   0  0  0  0  0  0  0  0  0  0  0  0
   -5.3659   -4.1464   -4.8482 H   0  0  0  0  0  0  0  0  0  0  0  0
   -6.2072   -4.9588   -3.4967 H   0  0  0  0  0  0  0  0  0  0  0  0
   -8.4572   -4.5545   -6.2998 H   0  0  0  0  0  0  0  0  0  0  0  0
   -4.2804   -6.6750   -4.7862 H   0  0  0  0  0  0  0  0  0  0  0  0
   -5.3762   -7.7762   -3.9327 H   0  0  0  0  0  0  0  0  0  0  0  0
   -3.6728   -8.9008   -5.4770 H   0  0  0  0  0  0  0  0  0  0  0  0
   -7.7060   -9.7860   -5.2772 H   0  0  0  0  0  0  0  0  0  0  0  0
   -7.6187  -10.8461   -6.6611 H   0  0  0  0  0  0  0  0  0  0  0  0
   -8.8185   -9.5478   -6.6316 H   0  0  0  0  0  0  0  0  0  0  0  0
   -6.0733   -8.2615   -8.9839 H   0  0  0  0  0  0  0  0  0  0  0  0
   -7.7975   -8.6159   -8.9335 H   0  0  0  0  0  0  0  0  0  0  0  0
   -6.6235   -9.9210   -8.9150 H   0  0  0  0  0  0  0  0  0  0  0  0
   -8.6817   -6.7452   -7.5745 H   0  0  0  0  0  0  0  0  0  0  0  0
  1  2  1  0
  1 14  1  0
  1 15  1  0
  1 16  1  0
  2  6  1  0
  2  3  1  0
  3  4  2  0
  3 17  1  0
  4  5  1  0
  4 27  1  0
  5 11  1  0
  5  6  2  0
  6  7  1  0
  7  8  1  0
  7 18  1  0
  7 19  1  0
  8  9  1  0
  8 20  1  0
  9 10  2  0
  9 11  1  0
 11 12  1  0
 11 13  1  0
 12 21  1  0
 12 22  1  0
 12 23  1  0
 13 24  1  0
 13 25  1  0
 13 26  1  0
M  CHG  1   4   1
M  END
>  <i_m_ct_stereo_status>  (279) 
1

>  <s_m_source_file>  (279) 
/var/tmp/pbs.5076255.sched01/tmp6zmtdo5c/111u4f9dq10.sdf

>  <i_m_source_file_index>  (279) 
22

>  <i_lp_mmshare_version>  (279) 
48012

>  <i_f3d_flags>  (279) 
0

>  <s_epik_input>  (279) 
bjFbY0hdbihbQ0gzXSljKGMxMilbQ0gyXVtOSF1DKD1PKUMyKFtDSDNdKVtDSDNd

>  <s_epik_cmdline>  (279) 
J2VwaWtfcHl0aG9uJywgJy1waHQnLCAnMi4wJywgJy1waCcsICc3LjAnLCAnLXRuJywgJzgnLCAnLW1hJywgJzIwMCcsICctaW1hZScsICc8aW5maWxlLm1hZT4nLCAnLW9tYWUnLCAnPG91dGZpbGUubWFlPic=

>  <r_lp_tautomer_probability>  (279) 
1

>  <r_epik_Ionization_Penalty>  (279) 
0.143736

>  <r_epik_Ionization_Penalty_Charging>  (279) 
0

>  <r_epik_Ionization_Penalty_Neutral>  (279) 
0.143736

>  <r_epik_State_Penalty>  (279) 
0.133039

>  <r_epik_Charging_Adjusted_Penalty>  (279) 
0.133039

>  <i_epik_Tot_Q>  (279) 
1

>  <i_epik_Tot_abs_Q>  (279) 
1

>  <s_lp_Force_Field>  (279) 
OPLS3e

>  <r_lp_Energy>  (279) 
26.1984

>  <b_lp_Chiralities_Consistent>  (279) 
1

>  <s_lp_Variant>  (279) 
106:0-1

>  <s_i_glide_gridfile>  (279) 
pfpi4k_grid

>  <i_i_glide_lignum>  (279) 
22

>  <i_i_glide_rotatable_bonds>  (279) 
0

>  <r_i_docking_score>  (279) 
-6.29367

>  <r_i_glide_ligand_efficiency>  (279) 
-0.484128

>  <r_i_glide_ligand_efficiency_sa>  (279) 
-1.13835

>  <r_i_glide_ligand_efficiency_ln>  (279) 
-1.76543

>  <r_i_glide_gscore>  (279) 
-6.29367

>  <r_i_glide_lipo>  (279) 
-1.70847

>  <r_i_glide_hbond>  (279) 
0

>  <r_i_glide_metal>  (279) 
-0

>  <r_i_glide_rewards>  (279) 
-3.36121

>  <r_i_glide_evdw>  (279) 
-22.2475

>  <r_i_glide_ecoul>  (279) 
-0.744089

>  <r_i_glide_erotb>  (279) 
0

>  <r_i_glide_esite>  (279) 
0

>  <r_i_glide_emodel>  (279) 
-32.7558

>  <r_i_glide_energy>  (279) 
-22.9916

>  <r_i_glide_einternal>  (279) 
0

>  <r_i_glide_intrahb_reward>  (279) 
-0

>  <i_i_glide_confnum>  (279) 
1

>  <i_i_glide_posenum>  (279) 
30

>  <r_i_glide_eff_state_penalty>  (279) 
0

>  <ligand_id>  (279) 
106

>  <original_smiles>  (279) 
Cn1cnc2c1CNC(=O)C2(C)C

>  <smiles>  (279) 
[H]c1n(C([H])([H])[H])c2c([n+]1[H])C(C([H])([H])[H])(C([H])([H])[H])C(=O)N([H])C2([H])[H]

$$$$
106:0:1
     RDKit          3D

 27 28  0  0  1  0  0  0  0  0999 V2000
    4.1065   -1.6444    1.8588 C   0  0  0  0  0  0  0  0  0  0  0  0
    3.7925   -2.3518    0.6191 N   0  0  0  0  0  0  0  0  0  0  0  0
    3.2106   -3.5577    0.5837 C   0  0  0  0  0  0  0  0  0  0  0  0
    3.0862   -3.8972   -0.7043 N   0  0  0  0  0  0  0  0  0  0  0  0
    3.5776   -2.8982   -1.5019 C   0  0  0  0  0  0  0  0  0  0  0  0
    4.0238   -1.9272   -0.6598 C   0  0  0  0  0  0  0  0  0  0  0  0
    4.6371   -0.6771   -1.1218 C   0  0  0  0  0  0  0  0  0  0  0  0
    4.3386   -0.4592   -2.5444 N   0  0  0  0  0  0  0  0  0  0  0  0
    3.9899   -1.3969   -3.4507 C   0  0  0  0  0  0  0  0  0  0  0  0
    3.9154   -1.1114   -4.6464 O   0  0  0  0  0  0  0  0  0  0  0  0
    3.6685   -2.8479   -2.9983 C   0  0  0  0  0  0  0  0  0  0  0  0
    4.8198   -3.7491   -3.4859 C   0  0  0  0  0  0  0  0  0  0  0  0
    2.3224   -3.2471   -3.6287 C   0  0  0  0  0  0  0  0  0  0  0  0
    3.9637   -2.2946    2.7294 H   0  0  0  0  0  0  0  0  0  0  0  0
    3.4545   -0.7703    1.9366 H   0  0  0  0  0  0  0  0  0  0  0  0
    5.1472   -1.3118    1.8224 H   0  0  0  0  0  0  0  0  0  0  0  0
    2.9056   -4.1371    1.4312 H   0  0  0  0  0  0  0  0  0  0  0  0
    4.3122    0.1419   -0.4766 H   0  0  0  0  0  0  0  0  0  0  0  0
    5.7169   -0.7898   -1.0443 H   0  0  0  0  0  0  0  0  0  0  0  0
    4.3967    0.4925   -2.8739 H   0  0  0  0  0  0  0  0  0  0  0  0
    5.7632   -3.4130   -3.0561 H   0  0  0  0  0  0  0  0  0  0  0  0
    4.9302   -3.7185   -4.5690 H   0  0  0  0  0  0  0  0  0  0  0  0
    4.6839   -4.7870   -3.1966 H   0  0  0  0  0  0  0  0  0  0  0  0
    1.5090   -2.6069   -3.2922 H   0  0  0  0  0  0  0  0  0  0  0  0
    2.0386   -4.2577   -3.3496 H   0  0  0  0  0  0  0  0  0  0  0  0
    2.3485   -3.2147   -4.7190 H   0  0  0  0  0  0  0  0  0  0  0  0
    2.7076   -4.7726   -1.0518 H   0  0  0  0  0  0  0  0  0  0  0  0
  1  2  1  0
  1 14  1  0
  1 15  1  0
  1 16  1  0
  2  6  1  0
  2  3  1  0
  3  4  2  0
  3 17  1  0
  4  5  1  0
  4 27  1  0
  5 11  1  0
  5  6  2  0
  6  7  1  0
  7  8  1  0
  7 18  1  0
  7 19  1  0
  8  9  1  0
  8 20  1  0
  9 10  2  0
  9 11  1  0
 11 12  1  0
 11 13  1  0
 12 21  1  0
 12 22  1  0
 12 23  1  0
 13 24  1  0
 13 25  1  0
 13 26  1  0
M  CHG  1   4   1
M  END
>  <i_m_ct_stereo_status>  (280) 
1

>  <s_m_source_file>  (280) 
/var/tmp/pbs.5076255.sched01/tmp6zmtdo5c/111u4f9dq10.sdf

>  <i_m_source_file_index>  (280) 
22

>  <i_lp_mmshare_version>  (280) 
48012

>  <i_f3d_flags>  (280) 
0

>  <s_epik_input>  (280) 
bjFbY0hdbihbQ0gzXSljKGMxMilbQ0gyXVtOSF1DKD1PKUMyKFtDSDNdKVtDSDNd

>  <s_epik_cmdline>  (280) 
J2VwaWtfcHl0aG9uJywgJy1waHQnLCAnMi4wJywgJy1waCcsICc3LjAnLCAnLXRuJywgJzgnLCAnLW1hJywgJzIwMCcsICctaW1hZScsICc8aW5maWxlLm1hZT4nLCAnLW9tYWUnLCAnPG91dGZpbGUubWFlPic=

>  <r_lp_tautomer_probability>  (280) 
1

>  <r_epik_Ionization_Penalty>  (280) 
0.143736

>  <r_epik_Ionization_Penalty_Charging>  (280) 
0

>  <r_epik_Ionization_Penalty_Neutral>  (280) 
0.143736

>  <r_epik_State_Penalty>  (280) 
0.133039

>  <r_epik_Charging_Adjusted_Penalty>  (280) 
0.133039

>  <i_epik_Tot_Q>  (280) 
1

>  <i_epik_Tot_abs_Q>  (280) 
1

>  <s_lp_Force_Field>  (280) 
OPLS3e

>  <r_lp_Energy>  (280) 
26.1984

>  <b_lp_Chiralities_Consistent>  (280) 
1

>  <s_lp_Variant>  (280) 
106:0-1

>  <s_i_glide_gridfile>  (280) 
pfpi4k_grid

>  <i_i_glide_lignum>  (280) 
22

>  <i_i_glide_rotatable_bonds>  (280) 
0

>  <r_i_docking_score>  (280) 
-5.06373

>  <r_i_glide_ligand_efficiency>  (280) 
-0.389518

>  <r_i_glide_ligand_efficiency_sa>  (280) 
-0.915887

>  <r_i_glide_ligand_efficiency_ln>  (280) 
-1.42042

>  <r_i_glide_gscore>  (280) 
-5.06373

>  <r_i_glide_lipo>  (280) 
-0.360535

>  <r_i_glide_hbond>  (280) 
-0.32

>  <r_i_glide_metal>  (280) 
-0

>  <r_i_glide_rewards>  (280) 
-2.41421

>  <r_i_glide_evdw>  (280) 
-19.1221

>  <r_i_glide_ecoul>  (280) 
-6.47894

>  <r_i_glide_erotb>  (280) 
0

>  <r_i_glide_esite>  (280) 
-0.0410394

>  <r_i_glide_emodel>  (280) 
-33.3396

>  <r_i_glide_energy>  (280) 
-25.6011

>  <r_i_glide_einternal>  (280) 
0

>  <r_i_glide_intrahb_reward>  (280) 
-0

>  <i_i_glide_confnum>  (280) 
2

>  <i_i_glide_posenum>  (280) 
26

>  <r_i_glide_eff_state_penalty>  (280) 
0

>  <ligand_id>  (280) 
106

>  <original_smiles>  (280) 
Cn1cnc2c1CNC(=O)C2(C)C

>  <smiles>  (280) 
[H]c1n(C([H])([H])[H])c2c([n+]1[H])C(C([H])([H])[H])(C([H])([H])[H])C(=O)N([H])C2([H])[H]

$$$$
106:0:2
     RDKit          3D

 27 28  0  0  1  0  0  0  0  0999 V2000
    3.4747   -0.3635   -4.0962 C   0  0  0  0  0  0  0  0  0  0  0  0
    3.3933   -1.4949   -3.1739 N   0  0  0  0  0  0  0  0  0  0  0  0
    2.6450   -2.5857   -3.4027 C   0  0  0  0  0  0  0  0  0  0  0  0
    2.8146   -3.4078   -2.3569 N   0  0  0  0  0  0  0  0  0  0  0  0
    3.6687   -2.8313   -1.4462 C   0  0  0  0  0  0  0  0  0  0  0  0
    4.0288   -1.6252   -1.9709 C   0  0  0  0  0  0  0  0  0  0  0  0
    4.9504   -0.6866   -1.2948 C   0  0  0  0  0  0  0  0  0  0  0  0
    5.7246   -1.3881   -0.2639 N   0  0  0  0  0  0  0  0  0  0  0  0
    5.3636   -2.5210    0.3782 C   0  0  0  0  0  0  0  0  0  0  0  0
    6.0062   -2.9128    1.3534 O   0  0  0  0  0  0  0  0  0  0  0  0
    4.1420   -3.3589   -0.1220 C   0  0  0  0  0  0  0  0  0  0  0  0
    3.0195   -3.2115    0.9193 C   0  0  0  0  0  0  0  0  0  0  0  0
    4.5896   -4.8282   -0.2655 C   0  0  0  0  0  0  0  0  0  0  0  0
    2.7191   -0.4542   -4.8864 H   0  0  0  0  0  0  0  0  0  0  0  0
    4.4776   -0.3348   -4.5351 H   0  0  0  0  0  0  0  0  0  0  0  0
    3.2991    0.5472   -3.5253 H   0  0  0  0  0  0  0  0  0  0  0  0
    2.0369   -2.7785   -4.2665 H   0  0  0  0  0  0  0  0  0  0  0  0
    5.5960   -0.2223   -2.0390 H   0  0  0  0  0  0  0  0  0  0  0  0
    4.3546    0.0623   -0.7849 H   0  0  0  0  0  0  0  0  0  0  0  0
    6.5402   -0.9231    0.1019 H   0  0  0  0  0  0  0  0  0  0  0  0
    2.7344   -2.1628    1.0199 H   0  0  0  0  0  0  0  0  0  0  0  0
    3.3374   -3.5553    1.9063 H   0  0  0  0  0  0  0  0  0  0  0  0
    2.1282   -3.7727    0.6361 H   0  0  0  0  0  0  0  0  0  0  0  0
    5.4000   -4.9216   -0.9908 H   0  0  0  0  0  0  0  0  0  0  0  0
    3.7800   -5.4818   -0.5902 H   0  0  0  0  0  0  0  0  0  0  0  0
    4.9602   -5.2334    0.6809 H   0  0  0  0  0  0  0  0  0  0  0  0
    2.4287   -4.3472   -2.2983 H   0  0  0  0  0  0  0  0  0  0  0  0
  1  2  1  0
  1 14  1  0
  1 15  1  0
  1 16  1  0
  2  6  1  0
  2  3  1  0
  3  4  2  0
  3 17  1  0
  4  5  1  0
  4 27  1  0
  5 11  1  0
  5  6  2  0
  6  7  1  0
  7  8  1  0
  7 18  1  0
  7 19  1  0
  8  9  1  0
  8 20  1  0
  9 10  2  0
  9 11  1  0
 11 12  1  0
 11 13  1  0
 12 21  1  0
 12 22  1  0
 12 23  1  0
 13 24  1  0
 13 25  1  0
 13 26  1  0
M  CHG  1   4   1
M  END
>  <i_m_ct_stereo_status>  (281) 
1

>  <s_m_source_file>  (281) 
/var/tmp/pbs.5076255.sched01/tmp6zmtdo5c/111u4f9dq10.sdf

>  <i_m_source_file_index>  (281) 
22

>  <i_lp_mmshare_version>  (281) 
48012

>  <i_f3d_flags>  (281) 
0

>  <s_epik_input>  (281) 
bjFbY0hdbihbQ0gzXSljKGMxMilbQ0gyXVtOSF1DKD1PKUMyKFtDSDNdKVtDSDNd

>  <s_epik_cmdline>  (281) 
J2VwaWtfcHl0aG9uJywgJy1waHQnLCAnMi4wJywgJy1waCcsICc3LjAnLCAnLXRuJywgJzgnLCAnLW1hJywgJzIwMCcsICctaW1hZScsICc8aW5maWxlLm1hZT4nLCAnLW9tYWUnLCAnPG91dGZpbGUubWFlPic=

>  <r_lp_tautomer_probability>  (281) 
1

>  <r_epik_Ionization_Penalty>  (281) 
0.143736

>  <r_epik_Ionization_Penalty_Charging>  (281) 
0

>  <r_epik_Ionization_Penalty_Neutral>  (281) 
0.143736

>  <r_epik_State_Penalty>  (281) 
0.133039

>  <r_epik_Charging_Adjusted_Penalty>  (281) 
0.133039

>  <i_epik_Tot_Q>  (281) 
1

>  <i_epik_Tot_abs_Q>  (281) 
1

>  <s_lp_Force_Field>  (281) 
OPLS3e

>  <r_lp_Energy>  (281) 
26.1984

>  <b_lp_Chiralities_Consistent>  (281) 
1

>  <s_lp_Variant>  (281) 
106:0-1

>  <s_i_glide_gridfile>  (281) 
pfpi4k_grid

>  <i_i_glide_lignum>  (281) 
22

>  <i_i_glide_rotatable_bonds>  (281) 
0

>  <r_i_docking_score>  (281) 
-4.64384

>  <r_i_glide_ligand_efficiency>  (281) 
-0.357219

>  <r_i_glide_ligand_efficiency_sa>  (281) 
-0.839941

>  <r_i_glide_ligand_efficiency_ln>  (281) 
-1.30264

>  <r_i_glide_gscore>  (281) 
-4.64384

>  <r_i_glide_lipo>  (281) 
-0.341357

>  <r_i_glide_hbond>  (281) 
0

>  <r_i_glide_metal>  (281) 
-0

>  <r_i_glide_rewards>  (281) 
-2.54578

>  <r_i_glide_evdw>  (281) 
-18.5499

>  <r_i_glide_ecoul>  (281) 
-5.3536

>  <r_i_glide_erotb>  (281) 
0

>  <r_i_glide_esite>  (281) 
-0.0261686

>  <r_i_glide_emodel>  (281) 
-31.019

>  <r_i_glide_energy>  (281) 
-23.9035

>  <r_i_glide_einternal>  (281) 
0

>  <r_i_glide_intrahb_reward>  (281) 
-0

>  <i_i_glide_confnum>  (281) 
2

>  <i_i_glide_posenum>  (281) 
11

>  <r_i_glide_eff_state_penalty>  (281) 
0

>  <ligand_id>  (281) 
106

>  <original_smiles>  (281) 
Cn1cnc2c1CNC(=O)C2(C)C

>  <smiles>  (281) 
[H]c1n(C([H])([H])[H])c2c([n+]1[H])C(C([H])([H])[H])(C([H])([H])[H])C(=O)N([H])C2([H])[H]

$$$$
106:1:0
     RDKit          3D

 26 27  0  0  1  0  0  0  0  0999 V2000
   -6.8783   -4.2603   -4.5619 C   0  0  0  0  0  0  0  0  0  0  0  0
   -7.0519   -5.3999   -5.4365 N   0  0  0  0  0  0  0  0  0  0  0  0
   -7.9135   -5.5153   -6.4662 C   0  0  0  0  0  0  0  0  0  0  0  0
   -7.8611   -6.6808   -7.1069 N   0  0  0  0  0  0  0  0  0  0  0  0
   -6.8641   -7.3840   -6.4329 C   0  0  0  0  0  0  0  0  0  0  0  0
   -6.3706   -6.6067   -5.4170 C   0  0  0  0  0  0  0  0  0  0  0  0
   -5.3083   -7.0498   -4.4892 C   0  0  0  0  0  0  0  0  0  0  0  0
   -4.6237   -8.2369   -5.0042 N   0  0  0  0  0  0  0  0  0  0  0  0
   -5.1202   -9.1129   -5.9159 C   0  0  0  0  0  0  0  0  0  0  0  0
   -4.5435  -10.1596   -6.1590 O   0  0  0  0  0  0  0  0  0  0  0  0
   -6.4264   -8.8019   -6.7076 C   0  0  0  0  0  0  0  0  0  0  0  0
   -7.5135   -9.7859   -6.2417 C   0  0  0  0  0  0  0  0  0  0  0  0
   -6.1365   -8.9665   -8.2152 C   0  0  0  0  0  0  0  0  0  0  0  0
   -7.6754   -3.5367   -4.7235 H   0  0  0  0  0  0  0  0  0  0  0  0
   -5.9173   -3.7901   -4.7664 H   0  0  0  0  0  0  0  0  0  0  0  0
   -6.9060   -4.5865   -3.5232 H   0  0  0  0  0  0  0  0  0  0  0  0
   -8.5863   -4.7285   -6.7607 H   0  0  0  0  0  0  0  0  0  0  0  0
   -4.6188   -6.2301   -4.2748 H   0  0  0  0  0  0  0  0  0  0  0  0
   -5.7902   -7.3520   -3.5632 H   0  0  0  0  0  0  0  0  0  0  0  0
   -3.7178   -8.4585   -4.6078 H   0  0  0  0  0  0  0  0  0  0  0  0
   -7.6724   -9.6711   -5.1731 H   0  0  0  0  0  0  0  0  0  0  0  0
   -7.2229  -10.8219   -6.4025 H   0  0  0  0  0  0  0  0  0  0  0  0
   -8.4686   -9.6069   -6.7381 H   0  0  0  0  0  0  0  0  0  0  0  0
   -5.3588   -8.2719   -8.5308 H   0  0  0  0  0  0  0  0  0  0  0  0
   -7.0164   -8.7639   -8.8284 H   0  0  0  0  0  0  0  0  0  0  0  0
   -5.7956   -9.9723   -8.4548 H   0  0  0  0  0  0  0  0  0  0  0  0
  1  2  1  0
  1 14  1  0
  1 15  1  0
  1 16  1  0
  2  6  1  0
  2  3  1  0
  3  4  2  0
  3 17  1  0
  4  5  1  0
  5 11  1  0
  5  6  2  0
  6  7  1  0
  7  8  1  0
  7 18  1  0
  7 19  1  0
  8  9  1  0
  8 20  1  0
  9 10  2  0
  9 11  1  0
 11 12  1  0
 11 13  1  0
 12 21  1  0
 12 22  1  0
 12 23  1  0
 13 24  1  0
 13 25  1  0
 13 26  1  0
M  END
>  <i_m_ct_stereo_status>  (282) 
1

>  <s_m_source_file>  (282) 
/var/tmp/pbs.5076255.sched01/tmp6zmtdo5c/111u4f9dq10.sdf

>  <i_m_source_file_index>  (282) 
23

>  <i_lp_mmshare_version>  (282) 
48012

>  <i_f3d_flags>  (282) 
0

>  <s_epik_input>  (282) 
bjFbY0hdbihbQ0gzXSljKGMxMilbQ0gyXVtOSF1DKD1PKUMyKFtDSDNdKVtDSDNd

>  <s_epik_cmdline>  (282) 
J2VwaWtfcHl0aG9uJywgJy1waHQnLCAnMi4wJywgJy1waCcsICc3LjAnLCAnLXRuJywgJzgnLCAnLW1hJywgJzIwMCcsICctaW1hZScsICc8aW5maWxlLm1hZT4nLCAnLW9tYWUnLCAnPG91dGZpbGUubWFlPic=

>  <r_lp_tautomer_probability>  (282) 
1

>  <r_epik_Ionization_Penalty>  (282) 
0.909587

>  <r_epik_Ionization_Penalty_Charging>  (282) 
0.909587

>  <r_epik_Ionization_Penalty_Neutral>  (282) 
1.51841e-07

>  <r_epik_State_Penalty>  (282) 
0.950264

>  <r_epik_Charging_Adjusted_Penalty>  (282) 
1.85985

>  <i_epik_Tot_Q>  (282) 
0

>  <i_epik_Tot_abs_Q>  (282) 
0

>  <s_lp_Force_Field>  (282) 
OPLS3e

>  <r_lp_Energy>  (282) 
17.1664

>  <b_lp_Chiralities_Consistent>  (282) 
1

>  <s_lp_Variant>  (282) 
106:0-2

>  <s_i_glide_gridfile>  (282) 
pfpi4k_grid

>  <i_i_glide_lignum>  (282) 
23

>  <i_i_glide_rotatable_bonds>  (282) 
0

>  <r_i_docking_score>  (282) 
-6.48508

>  <r_i_glide_ligand_efficiency>  (282) 
-0.498852

>  <r_i_glide_ligand_efficiency_sa>  (282) 
-1.17297

>  <r_i_glide_ligand_efficiency_ln>  (282) 
-1.81912

>  <r_i_glide_gscore>  (282) 
-6.48508

>  <r_i_glide_lipo>  (282) 
-1.59211

>  <r_i_glide_hbond>  (282) 
-0.155843

>  <r_i_glide_metal>  (282) 
-0

>  <r_i_glide_rewards>  (282) 
-3.53162

>  <r_i_glide_evdw>  (282) 
-24.3085

>  <r_i_glide_ecoul>  (282) 
0.066132

>  <r_i_glide_erotb>  (282) 
0

>  <r_i_glide_esite>  (282) 
0

>  <r_i_glide_emodel>  (282) 
-33.6707

>  <r_i_glide_energy>  (282) 
-24.2424

>  <r_i_glide_einternal>  (282) 
0

>  <r_i_glide_intrahb_reward>  (282) 
-0

>  <i_i_glide_confnum>  (282) 
1

>  <i_i_glide_posenum>  (282) 
31

>  <r_i_glide_eff_state_penalty>  (282) 
0

>  <ligand_id>  (282) 
106

>  <original_smiles>  (282) 
Cn1cnc2c1CNC(=O)C2(C)C

>  <smiles>  (282) 
[H]c1nc2c(n1C([H])([H])[H])C([H])([H])N([H])C(=O)C2(C([H])([H])[H])C([H])([H])[H]

$$$$
106:1:1
     RDKit          3D

 26 27  0  0  1  0  0  0  0  0999 V2000
    4.0836   -1.6096    2.1220 C   0  0  0  0  0  0  0  0  0  0  0  0
    3.7831   -2.3316    0.9079 N   0  0  0  0  0  0  0  0  0  0  0  0
    3.1970   -3.5329    0.7964 C   0  0  0  0  0  0  0  0  0  0  0  0
    3.0392   -3.9666   -0.4516 N   0  0  0  0  0  0  0  0  0  0  0  0
    3.5712   -2.9286   -1.2238 C   0  0  0  0  0  0  0  0  0  0  0  0
    4.0318   -1.9453   -0.4014 C   0  0  0  0  0  0  0  0  0  0  0  0
    4.6776   -0.7116   -0.8899 C   0  0  0  0  0  0  0  0  0  0  0  0
    4.4415   -0.5317   -2.3234 N   0  0  0  0  0  0  0  0  0  0  0  0
    4.0992   -1.4871   -3.2124 C   0  0  0  0  0  0  0  0  0  0  0  0
    4.0871   -1.2431   -4.4152 O   0  0  0  0  0  0  0  0  0  0  0  0
    3.7030   -2.9144   -2.7270 C   0  0  0  0  0  0  0  0  0  0  0  0
    4.8324   -3.8570   -3.1743 C   0  0  0  0  0  0  0  0  0  0  0  0
    2.3496   -3.2695   -3.3812 C   0  0  0  0  0  0  0  0  0  0  0  0
    3.9327   -2.2541    2.9873 H   0  0  0  0  0  0  0  0  0  0  0  0
    3.4250   -0.7441    2.2013 H   0  0  0  0  0  0  0  0  0  0  0  0
    5.1231   -1.2788    2.1061 H   0  0  0  0  0  0  0  0  0  0  0  0
    2.8699   -4.1072    1.6463 H   0  0  0  0  0  0  0  0  0  0  0  0
    4.3531    0.1445   -0.2960 H   0  0  0  0  0  0  0  0  0  0  0  0
    5.7592   -0.8106   -0.7859 H   0  0  0  0  0  0  0  0  0  0  0  0
    4.5185    0.4094   -2.6803 H   0  0  0  0  0  0  0  0  0  0  0  0
    5.7737   -3.5515   -2.7205 H   0  0  0  0  0  0  0  0  0  0  0  0
    4.9752   -3.8596   -4.2558 H   0  0  0  0  0  0  0  0  0  0  0  0
    4.6531   -4.8766   -2.8533 H   0  0  0  0  0  0  0  0  0  0  0  0
    1.5707   -2.5756   -3.0622 H   0  0  0  0  0  0  0  0  0  0  0  0
    2.0048   -4.2487   -3.0815 H   0  0  0  0  0  0  0  0  0  0  0  0
    2.3904   -3.2520   -4.4725 H   0  0  0  0  0  0  0  0  0  0  0  0
  1  2  1  0
  1 14  1  0
  1 15  1  0
  1 16  1  0
  2  6  1  0
  2  3  1  0
  3  4  2  0
  3 17  1  0
  4  5  1  0
  5 11  1  0
  5  6  2  0
  6  7  1  0
  7  8  1  0
  7 18  1  0
  7 19  1  0
  8  9  1  0
  8 20  1  0
  9 10  2  0
  9 11  1  0
 11 12  1  0
 11 13  1  0
 12 21  1  0
 12 22  1  0
 12 23  1  0
 13 24  1  0
 13 25  1  0
 13 26  1  0
M  END
>  <i_m_ct_stereo_status>  (283) 
1

>  <s_m_source_file>  (283) 
/var/tmp/pbs.5076255.sched01/tmp6zmtdo5c/111u4f9dq10.sdf

>  <i_m_source_file_index>  (283) 
23

>  <i_lp_mmshare_version>  (283) 
48012

>  <i_f3d_flags>  (283) 
0

>  <s_epik_input>  (283) 
bjFbY0hdbihbQ0gzXSljKGMxMilbQ0gyXVtOSF1DKD1PKUMyKFtDSDNdKVtDSDNd

>  <s_epik_cmdline>  (283) 
J2VwaWtfcHl0aG9uJywgJy1waHQnLCAnMi4wJywgJy1waCcsICc3LjAnLCAnLXRuJywgJzgnLCAnLW1hJywgJzIwMCcsICctaW1hZScsICc8aW5maWxlLm1hZT4nLCAnLW9tYWUnLCAnPG91dGZpbGUubWFlPic=

>  <r_lp_tautomer_probability>  (283) 
1

>  <r_epik_Ionization_Penalty>  (283) 
0.909587

>  <r_epik_Ionization_Penalty_Charging>  (283) 
0.909587

>  <r_epik_Ionization_Penalty_Neutral>  (283) 
1.51841e-07

>  <r_epik_State_Penalty>  (283) 
0.950264

>  <r_epik_Charging_Adjusted_Penalty>  (283) 
1.85985

>  <i_epik_Tot_Q>  (283) 
0

>  <i_epik_Tot_abs_Q>  (283) 
0

>  <s_lp_Force_Field>  (283) 
OPLS3e

>  <r_lp_Energy>  (283) 
17.1664

>  <b_lp_Chiralities_Consistent>  (283) 
1

>  <s_lp_Variant>  (283) 
106:0-2

>  <s_i_glide_gridfile>  (283) 
pfpi4k_grid

>  <i_i_glide_lignum>  (283) 
23

>  <i_i_glide_rotatable_bonds>  (283) 
0

>  <r_i_docking_score>  (283) 
-4.10669

>  <r_i_glide_ligand_efficiency>  (283) 
-0.315899

>  <r_i_glide_ligand_efficiency_sa>  (283) 
-0.742785

>  <r_i_glide_ligand_efficiency_ln>  (283) 
-1.15196

>  <r_i_glide_gscore>  (283) 
-4.10669

>  <r_i_glide_lipo>  (283) 
-0.229045

>  <r_i_glide_hbond>  (283) 
-0.281336

>  <r_i_glide_metal>  (283) 
-0

>  <r_i_glide_rewards>  (283) 
-2.31536

>  <r_i_glide_evdw>  (283) 
-18.9138

>  <r_i_glide_ecoul>  (283) 
-2.10665

>  <r_i_glide_erotb>  (283) 
0

>  <r_i_glide_esite>  (283) 
-0.0192654

>  <r_i_glide_emodel>  (283) 
-26.9036

>  <r_i_glide_energy>  (283) 
-21.0205

>  <r_i_glide_einternal>  (283) 
0

>  <r_i_glide_intrahb_reward>  (283) 
-0

>  <i_i_glide_confnum>  (283) 
2

>  <i_i_glide_posenum>  (283) 
23

>  <r_i_glide_eff_state_penalty>  (283) 
0

>  <ligand_id>  (283) 
106

>  <original_smiles>  (283) 
Cn1cnc2c1CNC(=O)C2(C)C

>  <smiles>  (283) 
[H]c1nc2c(n1C([H])([H])[H])C([H])([H])N([H])C(=O)C2(C([H])([H])[H])C([H])([H])[H]

$$$$
106:1:2
     RDKit          3D

 26 27  0  0  1  0  0  0  0  0999 V2000
    3.6814   -0.6819    2.8407 C   0  0  0  0  0  0  0  0  0  0  0  0
    3.4306   -1.6376    1.7850 N   0  0  0  0  0  0  0  0  0  0  0  0
    2.6960   -2.7584    1.8532 C   0  0  0  0  0  0  0  0  0  0  0  0
    2.6487   -3.4775    0.7299 N   0  0  0  0  0  0  0  0  0  0  0  0
    3.4045   -2.7046   -0.1706 C   0  0  0  0  0  0  0  0  0  0  0  0
    3.8916   -1.6140    0.4699 C   0  0  0  0  0  0  0  0  0  0  0  0
    4.7679   -0.6043   -0.1686 C   0  0  0  0  0  0  0  0  0  0  0  0
    4.7370   -0.7540   -1.6266 N   0  0  0  0  0  0  0  0  0  0  0  0
    4.3588   -1.8410   -2.3156 C   0  0  0  0  0  0  0  0  0  0  0  0
    4.5247   -1.9010   -3.5374 O   0  0  0  0  0  0  0  0  0  0  0  0
    3.7125   -3.0715   -1.6080 C   0  0  0  0  0  0  0  0  0  0  0  0
    4.7284   -4.2243   -1.6261 C   0  0  0  0  0  0  0  0  0  0  0  0
    2.4045   -3.4272   -2.3462 C   0  0  0  0  0  0  0  0  0  0  0  0
    3.3346   -1.0766    3.7955 H   0  0  0  0  0  0  0  0  0  0  0  0
    3.1547    0.2457    2.6227 H   0  0  0  0  0  0  0  0  0  0  0  0
    4.7494   -0.4827    2.9092 H   0  0  0  0  0  0  0  0  0  0  0  0
    2.1796   -3.0694    2.7509 H   0  0  0  0  0  0  0  0  0  0  0  0
    4.5033    0.4013    0.1554 H   0  0  0  0  0  0  0  0  0  0  0  0
    5.7911   -0.8006    0.1274 H   0  0  0  0  0  0  0  0  0  0  0  0
    4.9946    0.0644   -2.1599 H   0  0  0  0  0  0  0  0  0  0  0  0
    5.6387   -3.9275   -1.1120 H   0  0  0  0  0  0  0  0  0  0  0  0
    4.9997   -4.5050   -2.6404 H   0  0  0  0  0  0  0  0  0  0  0  0
    4.3430   -5.1048   -1.1129 H   0  0  0  0  0  0  0  0  0  0  0  0
    1.7158   -2.5844   -2.3395 H   0  0  0  0  0  0  0  0  0  0  0  0
    1.8784   -4.2538   -1.8797 H   0  0  0  0  0  0  0  0  0  0  0  0
    2.5826   -3.6836   -3.3881 H   0  0  0  0  0  0  0  0  0  0  0  0
  1  2  1  0
  1 14  1  0
  1 15  1  0
  1 16  1  0
  2  6  1  0
  2  3  1  0
  3  4  2  0
  3 17  1  0
  4  5  1  0
  5 11  1  0
  5  6  2  0
  6  7  1  0
  7  8  1  0
  7 18  1  0
  7 19  1  0
  8  9  1  0
  8 20  1  0
  9 10  2  0
  9 11  1  0
 11 12  1  0
 11 13  1  0
 12 21  1  0
 12 22  1  0
 12 23  1  0
 13 24  1  0
 13 25  1  0
 13 26  1  0
M  END
>  <i_m_ct_stereo_status>  (284) 
1

>  <s_m_source_file>  (284) 
/var/tmp/pbs.5076255.sched01/tmp6zmtdo5c/111u4f9dq10.sdf

>  <i_m_source_file_index>  (284) 
23

>  <i_lp_mmshare_version>  (284) 
48012

>  <i_f3d_flags>  (284) 
0

>  <s_epik_input>  (284) 
bjFbY0hdbihbQ0gzXSljKGMxMilbQ0gyXVtOSF1DKD1PKUMyKFtDSDNdKVtDSDNd

>  <s_epik_cmdline>  (284) 
J2VwaWtfcHl0aG9uJywgJy1waHQnLCAnMi4wJywgJy1waCcsICc3LjAnLCAnLXRuJywgJzgnLCAnLW1hJywgJzIwMCcsICctaW1hZScsICc8aW5maWxlLm1hZT4nLCAnLW9tYWUnLCAnPG91dGZpbGUubWFlPic=

>  <r_lp_tautomer_probability>  (284) 
1

>  <r_epik_Ionization_Penalty>  (284) 
0.909587

>  <r_epik_Ionization_Penalty_Charging>  (284) 
0.909587

>  <r_epik_Ionization_Penalty_Neutral>  (284) 
1.51841e-07

>  <r_epik_State_Penalty>  (284) 
0.950264

>  <r_epik_Charging_Adjusted_Penalty>  (284) 
1.85985

>  <i_epik_Tot_Q>  (284) 
0

>  <i_epik_Tot_abs_Q>  (284) 
0

>  <s_lp_Force_Field>  (284) 
OPLS3e

>  <r_lp_Energy>  (284) 
17.1664

>  <b_lp_Chiralities_Consistent>  (284) 
1

>  <s_lp_Variant>  (284) 
106:0-2

>  <s_i_glide_gridfile>  (284) 
pfpi4k_grid

>  <i_i_glide_lignum>  (284) 
23

>  <i_i_glide_rotatable_bonds>  (284) 
0

>  <r_i_docking_score>  (284) 
-3.73733

>  <r_i_glide_ligand_efficiency>  (284) 
-0.287487

>  <r_i_glide_ligand_efficiency_sa>  (284) 
-0.675978

>  <r_i_glide_ligand_efficiency_ln>  (284) 
-1.04835

>  <r_i_glide_gscore>  (284) 
-3.73733

>  <r_i_glide_lipo>  (284) 
-0.173788

>  <r_i_glide_hbond>  (284) 
-0.0679878

>  <r_i_glide_metal>  (284) 
-0

>  <r_i_glide_rewards>  (284) 
-2.18714

>  <r_i_glide_evdw>  (284) 
-17.0347

>  <r_i_glide_ecoul>  (284) 
-2.45977

>  <r_i_glide_erotb>  (284) 
0

>  <r_i_glide_esite>  (284) 
-0.0877129

>  <r_i_glide_emodel>  (284) 
-24.7948

>  <r_i_glide_energy>  (284) 
-19.4944

>  <r_i_glide_einternal>  (284) 
0

>  <r_i_glide_intrahb_reward>  (284) 
-0

>  <i_i_glide_confnum>  (284) 
1

>  <i_i_glide_posenum>  (284) 
11

>  <r_i_glide_eff_state_penalty>  (284) 
0

>  <ligand_id>  (284) 
106

>  <original_smiles>  (284) 
Cn1cnc2c1CNC(=O)C2(C)C

>  <smiles>  (284) 
[H]c1nc2c(n1C([H])([H])[H])C([H])([H])N([H])C(=O)C2(C([H])([H])[H])C([H])([H])[H]

$$$$
107:0:0
     RDKit          3D

 35 36  0  0  1  0  0  0  0  0999 V2000
    0.4594  -10.1528    2.5150 C   0  0  0  0  0  0  0  0  0  0  0  0
   -0.0490   -8.9247    3.0305 O   0  0  0  0  0  0  0  0  0  0  0  0
   -0.3398   -7.9226    2.0558 C   0  0  0  0  0  0  0  0  0  0  0  0
    0.9441   -7.1614    1.6097 C   0  0  2  0  0  0  0  0  0  0  0  0
    1.5583   -6.4806    2.8420 C   0  0  0  0  0  0  0  0  0  0  0  0
    2.8296   -5.7626    2.4298 C   0  0  0  0  0  0  0  0  0  0  0  0
    2.5551   -4.7396    1.3350 C   0  0  2  0  0  0  0  0  0  0  0  0
    1.8930   -5.4986    0.1528 C   0  0  2  0  0  0  0  0  0  0  0  0
    1.5406   -4.5711   -0.8060 O   0  0  0  0  0  0  0  0  0  0  0  0
    2.5916   -3.7124   -1.2830 C   0  0  0  0  0  0  0  0  0  0  0  0
    3.2477   -2.9624   -0.1208 C   0  0  0  0  0  0  0  0  0  0  0  0
    3.7273   -3.9633    0.8387 N   0  0  0  0  0  0  0  0  0  0  0  0
    5.0318   -4.1604    1.1442 C   0  0  0  0  0  0  0  0  0  0  0  0
    6.1149   -3.3185    0.4467 C   0  0  0  0  0  0  0  0  0  0  0  0
    5.4548   -4.9839    1.9637 O   0  0  0  0  0  0  0  0  0  0  0  0
    0.7305   -6.1556    0.6242 O   0  0  0  0  0  0  0  0  0  0  0  0
    0.6654  -10.8484    3.3282 H   0  0  0  0  0  0  0  0  0  0  0  0
    1.3928  -10.0131    1.9709 H   0  0  0  0  0  0  0  0  0  0  0  0
   -0.2660  -10.6354    1.8608 H   0  0  0  0  0  0  0  0  0  0  0  0
   -0.9105   -8.3497    1.2262 H   0  0  0  0  0  0  0  0  0  0  0  0
   -1.0274   -7.2243    2.5421 H   0  0  0  0  0  0  0  0  0  0  0  0
    1.6634   -7.8636    1.1786 H   0  0  0  0  0  0  0  0  0  0  0  0
    0.8525   -5.7810    3.3034 H   0  0  0  0  0  0  0  0  0  0  0  0
    1.8108   -7.2302    3.5868 H   0  0  0  0  0  0  0  0  0  0  0  0
    3.2583   -5.2813    3.3164 H   0  0  0  0  0  0  0  0  0  0  0  0
    3.5253   -6.5367    2.0705 H   0  0  0  0  0  0  0  0  0  0  0  0
    1.8393   -4.0105    1.7082 H   0  0  0  0  0  0  0  0  0  0  0  0
    2.5846   -6.2258   -0.2967 H   0  0  0  0  0  0  0  0  0  0  0  0
    3.3555   -4.2496   -1.8261 H   0  0  0  0  0  0  0  0  0  0  0  0
    2.1607   -2.9976   -1.9828 H   0  0  0  0  0  0  0  0  0  0  0  0
    4.0155   -2.3094   -0.5401 H   0  0  0  0  0  0  0  0  0  0  0  0
    2.5285   -2.2960    0.3530 H   0  0  0  0  0  0  0  0  0  0  0  0
    6.0500   -3.4196   -0.6379 H   0  0  0  0  0  0  0  0  0  0  0  0
    7.0957   -3.6690    0.7627 H   0  0  0  0  0  0  0  0  0  0  0  0
    6.0129   -2.2749    0.7423 H   0  0  0  0  0  0  0  0  0  0  0  0
  1  2  1  0
  1 17  1  0
  1 18  1  0
  1 19  1  0
  2  3  1  0
  3  4  1  0
  3 20  1  0
  3 21  1  0
  4 16  1  0
  4  5  1  0
  4 22  1  6
  5  6  1  0
  5 23  1  0
  5 24  1  0
  6  7  1  0
  6 25  1  0
  6 26  1  0
  7 12  1  0
  7  8  1  0
  7 27  1  1
  8  9  1  0
  8 16  1  0
  8 28  1  6
  9 10  1  0
 10 11  1  0
 10 29  1  0
 10 30  1  0
 11 12  1  0
 11 31  1  0
 11 32  1  0
 12 13  1  0
 13 14  1  0
 13 15  2  0
 14 33  1  0
 14 34  1  0
 14 35  1  0
M  END
>  <i_m_ct_stereo_status>  (285) 
1

>  <s_m_source_file>  (285) 
/var/tmp/pbs.5076255.sched01/tmp6zmtdo5c/111u4f9dq10.sdf

>  <i_m_source_file_index>  (285) 
24

>  <i_lp_mmshare_version>  (285) 
48012

>  <i_f3d_flags>  (285) 
0

>  <s_epik_input>  (285) 
W0NIM11PW0NIMl1bQ0BIXShbQ0gyXVtDSDJdMSlPW0NASF0oW0NAQEhdMTIpT1tDSDJdW0NIMl1OMkMoPU8pW0NIM10=

>  <s_epik_cmdline>  (285) 
J2VwaWtfcHl0aG9uJywgJy1waHQnLCAnMi4wJywgJy1waCcsICc3LjAnLCAnLXRuJywgJzgnLCAnLW1hJywgJzIwMCcsICctaW1hZScsICc8aW5maWxlLm1hZT4nLCAnLW9tYWUnLCAnPG91dGZpbGUubWFlPic=

>  <r_lp_tautomer_probability>  (285) 
1

>  <r_epik_Ionization_Penalty>  (285) 
8.62513e-08

>  <r_epik_Ionization_Penalty_Charging>  (285) 
0

>  <r_epik_Ionization_Penalty_Neutral>  (285) 
8.62513e-08

>  <r_epik_State_Penalty>  (285) 
-0

>  <r_epik_Charging_Adjusted_Penalty>  (285) 
0

>  <i_epik_Tot_Q>  (285) 
0

>  <i_epik_Tot_abs_Q>  (285) 
0

>  <s_epik_Chemistry_Notes>  (285) 
This compound contains an acetal/aminal-like group ( X-CH(R)-Y where X, Y are N, S, or O) that may be acid/base labile, releasing an aldehyde.

>  <s_lp_Force_Field>  (285) 
OPLS3e

>  <r_lp_Energy>  (285) 
17.0356

>  <b_lp_Chiralities_Consistent>  (285) 
1

>  <s_lp_Variant>  (285) 
107:0-1

>  <s_i_glide_gridfile>  (285) 
pfpi4k_grid

>  <i_i_glide_lignum>  (285) 
24

>  <i_i_glide_rotatable_bonds>  (285) 
3

>  <r_i_docking_score>  (285) 
-3.49284

>  <r_i_glide_ligand_efficiency>  (285) 
-0.218302

>  <r_i_glide_ligand_efficiency_sa>  (285) 
-0.550088

>  <r_i_glide_ligand_efficiency_ln>  (285) 
-0.925847

>  <r_i_glide_gscore>  (285) 
-3.49284

>  <r_i_glide_lipo>  (285) 
-0.229529

>  <r_i_glide_hbond>  (285) 
-0.169937

>  <r_i_glide_metal>  (285) 
-0

>  <r_i_glide_rewards>  (285) 
-1.90044

>  <r_i_glide_evdw>  (285) 
-12.5835

>  <r_i_glide_ecoul>  (285) 
-5.31443

>  <r_i_glide_erotb>  (285) 
0.324532

>  <r_i_glide_esite>  (285) 
-0.0911235

>  <r_i_glide_emodel>  (285) 
-21.6273

>  <r_i_glide_energy>  (285) 
-17.8979

>  <r_i_glide_einternal>  (285) 
1.8921

>  <r_i_glide_intrahb_reward>  (285) 
-0

>  <i_i_glide_confnum>  (285) 
5

>  <i_i_glide_posenum>  (285) 
24

>  <r_i_glide_eff_state_penalty>  (285) 
0

>  <ligand_id>  (285) 
107

>  <original_smiles>  (285) 
COCC1CCC2C(OCCN2C(C)=O)O1

>  <smiles>  (285) 
[H]C([H])([H])OC([H])([H])C1([H])OC2([H])OC([H])([H])C([H])([H])N(C(=O)C([H])([H])[H])C2([H])C([H])([H])C1([H])[H]

$$$$
107:0:1
     RDKit          3D

 35 36  0  0  1  0  0  0  0  0999 V2000
    0.2318   -8.8433    2.7641 C   0  0  0  0  0  0  0  0  0  0  0  0
    1.0058   -7.9898    1.9283 O   0  0  0  0  0  0  0  0  0  0  0  0
    1.6688   -6.9734    2.6693 C   0  0  0  0  0  0  0  0  0  0  0  0
    2.6162   -6.1631    1.7842 C   0  0  2  0  0  0  0  0  0  0  0  0
    3.4027   -5.2383    2.6966 C   0  0  0  0  0  0  0  0  0  0  0  0
    4.3772   -4.4558    1.8519 C   0  0  0  0  0  0  0  0  0  0  0  0
    3.6683   -3.6302    0.7791 C   0  0  2  0  0  0  0  0  0  0  0  0
    2.8120   -4.6277   -0.0599 C   0  0  2  0  0  0  0  0  0  0  0  0
    2.0434   -3.8592   -0.9425 O   0  0  0  0  0  0  0  0  0  0  0  0
    2.8012   -3.0207   -1.8138 C   0  0  0  0  0  0  0  0  0  0  0  0
    3.6734   -2.0468   -0.9958 C   0  0  0  0  0  0  0  0  0  0  0  0
    4.5538   -2.8109   -0.0951 N   0  0  0  0  0  0  0  0  0  0  0  0
    5.9079   -2.7454   -0.2855 C   0  0  0  0  0  0  0  0  0  0  0  0
    6.9185   -3.3849    0.6777 C   0  0  0  0  0  0  0  0  0  0  0  0
    6.4050   -2.1183   -1.2289 O   0  0  0  0  0  0  0  0  0  0  0  0
    1.9389   -5.3558    0.8077 O   0  0  0  0  0  0  0  0  0  0  0  0
   -0.2757   -9.5618    2.1292 H   0  0  0  0  0  0  0  0  0  0  0  0
   -0.5194   -8.2815    3.3145 H   0  0  0  0  0  0  0  0  0  0  0  0
    0.8436   -9.3959    3.4783 H   0  0  0  0  0  0  0  0  0  0  0  0
    0.9679   -6.3287    3.2143 H   0  0  0  0  0  0  0  0  0  0  0  0
    2.2827   -7.4547    3.4285 H   0  0  0  0  0  0  0  0  0  0  0  0
    3.2918   -6.8400    1.2445 H   0  0  0  0  0  0  0  0  0  0  0  0
    2.7441   -4.6038    3.3061 H   0  0  0  0  0  0  0  0  0  0  0  0
    3.9897   -5.8498    3.3729 H   0  0  0  0  0  0  0  0  0  0  0  0
    4.9154   -3.8476    2.5775 H   0  0  0  0  0  0  0  0  0  0  0  0
    4.9935   -5.2154    1.3811 H   0  0  0  0  0  0  0  0  0  0  0  0
    2.9539   -2.9448    1.2427 H   0  0  0  0  0  0  0  0  0  0  0  0
    3.4687   -5.2913   -0.6493 H   0  0  0  0  0  0  0  0  0  0  0  0
    3.4061   -3.6055   -2.5234 H   0  0  0  0  0  0  0  0  0  0  0  0
    2.0576   -2.4602   -2.3852 H   0  0  0  0  0  0  0  0  0  0  0  0
    4.1812   -1.3905   -1.6997 H   0  0  0  0  0  0  0  0  0  0  0  0
    3.0299   -1.3887   -0.4169 H   0  0  0  0  0  0  0  0  0  0  0  0
    6.7360   -3.0359    1.6691 H   0  0  0  0  0  0  0  0  0  0  0  0
    7.9367   -3.0901    0.4319 H   0  0  0  0  0  0  0  0  0  0  0  0
    6.8770   -4.4508    0.6832 H   0  0  0  0  0  0  0  0  0  0  0  0
  1  2  1  0
  1 17  1  0
  1 18  1  0
  1 19  1  0
  2  3  1  0
  3  4  1  0
  3 20  1  0
  3 21  1  0
  4 16  1  0
  4  5  1  0
  4 22  1  6
  5  6  1  0
  5 23  1  0
  5 24  1  0
  6  7  1  0
  6 25  1  0
  6 26  1  0
  7 12  1  0
  7  8  1  0
  7 27  1  1
  8  9  1  0
  8 16  1  0
  8 28  1  6
  9 10  1  0
 10 11  1  0
 10 29  1  0
 10 30  1  0
 11 12  1  0
 11 31  1  0
 11 32  1  0
 12 13  1  0
 13 14  1  0
 13 15  2  0
 14 33  1  0
 14 34  1  0
 14 35  1  0
M  END
>  <i_m_ct_stereo_status>  (286) 
1

>  <s_m_source_file>  (286) 
/var/tmp/pbs.5076255.sched01/tmp6zmtdo5c/111u4f9dq10.sdf

>  <i_m_source_file_index>  (286) 
24

>  <i_lp_mmshare_version>  (286) 
48012

>  <i_f3d_flags>  (286) 
0

>  <s_epik_input>  (286) 
W0NIM11PW0NIMl1bQ0BIXShbQ0gyXVtDSDJdMSlPW0NASF0oW0NAQEhdMTIpT1tDSDJdW0NIMl1OMkMoPU8pW0NIM10=

>  <s_epik_cmdline>  (286) 
J2VwaWtfcHl0aG9uJywgJy1waHQnLCAnMi4wJywgJy1waCcsICc3LjAnLCAnLXRuJywgJzgnLCAnLW1hJywgJzIwMCcsICctaW1hZScsICc8aW5maWxlLm1hZT4nLCAnLW9tYWUnLCAnPG91dGZpbGUubWFlPic=

>  <r_lp_tautomer_probability>  (286) 
1

>  <r_epik_Ionization_Penalty>  (286) 
8.62513e-08

>  <r_epik_Ionization_Penalty_Charging>  (286) 
0

>  <r_epik_Ionization_Penalty_Neutral>  (286) 
8.62513e-08

>  <r_epik_State_Penalty>  (286) 
-0

>  <r_epik_Charging_Adjusted_Penalty>  (286) 
0

>  <i_epik_Tot_Q>  (286) 
0

>  <i_epik_Tot_abs_Q>  (286) 
0

>  <s_epik_Chemistry_Notes>  (286) 
This compound contains an acetal/aminal-like group ( X-CH(R)-Y where X, Y are N, S, or O) that may be acid/base labile, releasing an aldehyde.

>  <s_lp_Force_Field>  (286) 
OPLS3e

>  <r_lp_Energy>  (286) 
17.0356

>  <b_lp_Chiralities_Consistent>  (286) 
1

>  <s_lp_Variant>  (286) 
107:0-1

>  <s_i_glide_gridfile>  (286) 
pfpi4k_grid

>  <i_i_glide_lignum>  (286) 
24

>  <i_i_glide_rotatable_bonds>  (286) 
3

>  <r_i_docking_score>  (286) 
-3.28786

>  <r_i_glide_ligand_efficiency>  (286) 
-0.205492

>  <r_i_glide_ligand_efficiency_sa>  (286) 
-0.517806

>  <r_i_glide_ligand_efficiency_ln>  (286) 
-0.871514

>  <r_i_glide_gscore>  (286) 
-3.28786

>  <r_i_glide_lipo>  (286) 
-0.114499

>  <r_i_glide_hbond>  (286) 
-0.215714

>  <r_i_glide_metal>  (286) 
-0

>  <r_i_glide_rewards>  (286) 
-1.86142

>  <r_i_glide_evdw>  (286) 
-15.3881

>  <r_i_glide_ecoul>  (286) 
-4.04259

>  <r_i_glide_erotb>  (286) 
0.324532

>  <r_i_glide_esite>  (286) 
-0.0449731

>  <r_i_glide_emodel>  (286) 
-20.0022

>  <r_i_glide_energy>  (286) 
-19.4307

>  <r_i_glide_einternal>  (286) 
7.1554

>  <r_i_glide_intrahb_reward>  (286) 
-0

>  <i_i_glide_confnum>  (286) 
5

>  <i_i_glide_posenum>  (286) 
40

>  <r_i_glide_eff_state_penalty>  (286) 
0

>  <ligand_id>  (286) 
107

>  <original_smiles>  (286) 
COCC1CCC2C(OCCN2C(C)=O)O1

>  <smiles>  (286) 
[H]C([H])([H])OC([H])([H])C1([H])OC2([H])OC([H])([H])C([H])([H])N(C(=O)C([H])([H])[H])C2([H])C([H])([H])C1([H])[H]

$$$$
107:0:2
     RDKit          3D

 35 36  0  0  1  0  0  0  0  0999 V2000
    2.5225   -9.8716    2.1463 C   0  0  0  0  0  0  0  0  0  0  0  0
    2.2193   -8.7671    2.9900 O   0  0  0  0  0  0  0  0  0  0  0  0
    1.5853   -7.6587    2.3536 C   0  0  0  0  0  0  0  0  0  0  0  0
    2.6234   -6.7687    1.6125 C   0  0  2  0  0  0  0  0  0  0  0  0
    3.5974   -6.1742    2.6432 C   0  0  0  0  0  0  0  0  0  0  0  0
    4.6444   -5.3662    1.9179 C   0  0  0  0  0  0  0  0  0  0  0  0
    4.0048   -4.2605    1.0755 C   0  0  2  0  0  0  0  0  0  0  0  0
    2.9790   -4.9389    0.1123 C   0  0  2  0  0  0  0  0  0  0  0  0
    2.3094   -3.9309   -0.5675 O   0  0  0  0  0  0  0  0  0  0  0  0
    3.1460   -3.0466   -1.3030 C   0  0  0  0  0  0  0  0  0  0  0  0
    4.1300   -2.3489   -0.3534 C   0  0  0  0  0  0  0  0  0  0  0  0
    4.9219   -3.3864    0.3081 N   0  0  0  0  0  0  0  0  0  0  0  0
    6.2728   -3.5509    0.1436 C   0  0  0  0  0  0  0  0  0  0  0  0
    7.0305   -2.5736   -0.7678 C   0  0  0  0  0  0  0  0  0  0  0  0
    6.9456   -4.4177    0.6719 O   0  0  0  0  0  0  0  0  0  0  0  0
    2.0572   -5.6799    0.8825 O   0  0  0  0  0  0  0  0  0  0  0  0
    2.9718  -10.6841    2.7231 H   0  0  0  0  0  0  0  0  0  0  0  0
    3.2278   -9.6109    1.3608 H   0  0  0  0  0  0  0  0  0  0  0  0
    1.6112  -10.2492    1.6867 H   0  0  0  0  0  0  0  0  0  0  0  0
    0.7619   -7.9967    1.7219 H   0  0  0  0  0  0  0  0  0  0  0  0
    1.1241   -7.0803    3.1565 H   0  0  0  0  0  0  0  0  0  0  0  0
    3.1848   -7.3572    0.8786 H   0  0  0  0  0  0  0  0  0  0  0  0
    3.0673   -5.5618    3.3819 H   0  0  0  0  0  0  0  0  0  0  0  0
    4.0889   -6.9835    3.1776 H   0  0  0  0  0  0  0  0  0  0  0  0
    5.3309   -4.9412    2.6515 H   0  0  0  0  0  0  0  0  0  0  0  0
    5.1903   -6.0643    1.2663 H   0  0  0  0  0  0  0  0  0  0  0  0
    3.4004   -3.6249    1.7275 H   0  0  0  0  0  0  0  0  0  0  0  0
    3.5111   -5.5762   -0.6211 H   0  0  0  0  0  0  0  0  0  0  0  0
    3.6644   -3.5695   -2.1155 H   0  0  0  0  0  0  0  0  0  0  0  0
    2.4962   -2.2986   -1.7533 H   0  0  0  0  0  0  0  0  0  0  0  0
    4.6929   -1.6168   -0.9338 H   0  0  0  0  0  0  0  0  0  0  0  0
    3.5792   -1.7743    0.3925 H   0  0  0  0  0  0  0  0  0  0  0  0
    6.6227   -2.5664   -1.7824 H   0  0  0  0  0  0  0  0  0  0  0  0
    8.0733   -2.8910   -0.8301 H   0  0  0  0  0  0  0  0  0  0  0  0
    7.0052   -1.5762   -0.3266 H   0  0  0  0  0  0  0  0  0  0  0  0
  1  2  1  0
  1 17  1  0
  1 18  1  0
  1 19  1  0
  2  3  1  0
  3  4  1  0
  3 20  1  0
  3 21  1  0
  4 16  1  0
  4  5  1  0
  4 22  1  6
  5  6  1  0
  5 23  1  0
  5 24  1  0
  6  7  1  0
  6 25  1  0
  6 26  1  0
  7 12  1  0
  7  8  1  0
  7 27  1  1
  8  9  1  0
  8 16  1  0
  8 28  1  6
  9 10  1  0
 10 11  1  0
 10 29  1  0
 10 30  1  0
 11 12  1  0
 11 31  1  0
 11 32  1  0
 12 13  1  0
 13 14  1  0
 13 15  2  0
 14 33  1  0
 14 34  1  0
 14 35  1  0
M  END
>  <i_m_ct_stereo_status>  (287) 
1

>  <s_m_source_file>  (287) 
/var/tmp/pbs.5076255.sched01/tmp6zmtdo5c/111u4f9dq10.sdf

>  <i_m_source_file_index>  (287) 
24

>  <i_lp_mmshare_version>  (287) 
48012

>  <i_f3d_flags>  (287) 
0

>  <s_epik_input>  (287) 
W0NIM11PW0NIMl1bQ0BIXShbQ0gyXVtDSDJdMSlPW0NASF0oW0NAQEhdMTIpT1tDSDJdW0NIMl1OMkMoPU8pW0NIM10=

>  <s_epik_cmdline>  (287) 
J2VwaWtfcHl0aG9uJywgJy1waHQnLCAnMi4wJywgJy1waCcsICc3LjAnLCAnLXRuJywgJzgnLCAnLW1hJywgJzIwMCcsICctaW1hZScsICc8aW5maWxlLm1hZT4nLCAnLW9tYWUnLCAnPG91dGZpbGUubWFlPic=

>  <r_lp_tautomer_probability>  (287) 
1

>  <r_epik_Ionization_Penalty>  (287) 
8.62513e-08

>  <r_epik_Ionization_Penalty_Charging>  (287) 
0

>  <r_epik_Ionization_Penalty_Neutral>  (287) 
8.62513e-08

>  <r_epik_State_Penalty>  (287) 
-0

>  <r_epik_Charging_Adjusted_Penalty>  (287) 
0

>  <i_epik_Tot_Q>  (287) 
0

>  <i_epik_Tot_abs_Q>  (287) 
0

>  <s_epik_Chemistry_Notes>  (287) 
This compound contains an acetal/aminal-like group ( X-CH(R)-Y where X, Y are N, S, or O) that may be acid/base labile, releasing an aldehyde.

>  <s_lp_Force_Field>  (287) 
OPLS3e

>  <r_lp_Energy>  (287) 
17.0356

>  <b_lp_Chiralities_Consistent>  (287) 
1

>  <s_lp_Variant>  (287) 
107:0-1

>  <s_i_glide_gridfile>  (287) 
pfpi4k_grid

>  <i_i_glide_lignum>  (287) 
24

>  <i_i_glide_rotatable_bonds>  (287) 
3

>  <r_i_docking_score>  (287) 
-2.85412

>  <r_i_glide_ligand_efficiency>  (287) 
-0.178382

>  <r_i_glide_ligand_efficiency_sa>  (287) 
-0.449495

>  <r_i_glide_ligand_efficiency_ln>  (287) 
-0.756541

>  <r_i_glide_gscore>  (287) 
-2.85412

>  <r_i_glide_lipo>  (287) 
-0.0377474

>  <r_i_glide_hbond>  (287) 
-0.0191331

>  <r_i_glide_metal>  (287) 
-0

>  <r_i_glide_rewards>  (287) 
-2.0085

>  <r_i_glide_evdw>  (287) 
-15.1056

>  <r_i_glide_ecoul>  (287) 
-2.13565

>  <r_i_glide_erotb>  (287) 
0.324532

>  <r_i_glide_esite>  (287) 
-0.0376476

>  <r_i_glide_emodel>  (287) 
-20.2172

>  <r_i_glide_energy>  (287) 
-17.2412

>  <r_i_glide_einternal>  (287) 
1.73308

>  <r_i_glide_intrahb_reward>  (287) 
-0

>  <i_i_glide_confnum>  (287) 
2

>  <i_i_glide_posenum>  (287) 
7

>  <r_i_glide_eff_state_penalty>  (287) 
0

>  <ligand_id>  (287) 
107

>  <original_smiles>  (287) 
COCC1CCC2C(OCCN2C(C)=O)O1

>  <smiles>  (287) 
[H]C([H])([H])OC([H])([H])C1([H])OC2([H])OC([H])([H])C([H])([H])N(C(=O)C([H])([H])[H])C2([H])C([H])([H])C1([H])[H]

$$$$
108:0:0
     RDKit          3D

 77 83  0  0  1  0  0  0  0  0999 V2000
    0.4780   -3.1171    4.1351 C   0  0  0  0  0  0  0  0  0  0  0  0
    1.9700   -3.0095    4.4090 C   0  0  0  0  0  0  0  0  0  0  0  0
    2.5051   -3.3346    5.6164 C   0  0  0  0  0  0  0  0  0  0  0  0
    2.0327   -4.6529    6.2016 C   0  0  0  0  0  0  0  0  0  0  0  0
    2.6534   -5.8612    5.4061 C   0  0  2  0  0  0  0  0  0  0  0  0
    4.1634   -5.9067    5.7811 C   0  0  0  0  0  0  0  0  0  0  0  0
    2.4155   -5.8384    3.8426 C   0  0  0  0  0  0  0  0  0  0  0  0
    2.6236   -4.8360    2.9236 C   0  0  0  0  0  0  0  0  0  0  0  0
    2.5271   -5.1607    1.4280 C   0  0  0  0  0  0  0  0  0  0  0  0
    2.7931   -3.3180    3.2093 C   0  0  1  0  0  0  0  0  0  0  0  0
    3.2472   -2.4098    1.9877 C   0  0  1  0  0  0  0  0  0  0  0  0
    2.9955   -0.9735    1.5292 C   0  0  1  0  0  0  0  0  0  0  0  0
    1.6425   -0.5977    1.6827 O   0  0  0  0  0  0  0  0  0  0  0  0
    4.0402    0.1036    2.0070 C   0  0  0  0  0  0  0  0  0  0  0  0
    4.9844   -0.2811    3.2039 C   0  0  0  0  0  0  0  0  0  0  0  0
    4.2003   -1.2566    4.1066 C   0  0  2  0  0  0  0  0  0  0  0  0
    2.9820   -0.3468    4.5782 C   0  0  0  0  0  0  0  0  0  0  0  0
    4.7240   -1.7643    5.4455 C   0  0  0  0  0  0  0  0  0  0  0  0
    5.7848   -1.3701    5.9255 O   0  0  0  0  0  0  0  0  0  0  0  0
    3.8164   -2.8079    6.1941 C   0  0  0  0  0  0  0  0  0  0  0  0
    4.1771   -3.1017    7.3337 O   0  0  0  0  0  0  0  0  0  0  0  0
    4.0658   -2.5407    3.2151 C   0  0  1  0  0  0  0  0  0  0  0  0
    5.3675   -3.3487    3.0701 C   0  0  0  0  0  0  0  0  0  0  0  0
    1.7653   -7.2305    3.6253 C   0  0  1  0  0  0  0  0  0  0  0  0
    0.8246   -7.1181    4.8474 C   0  0  0  0  0  0  0  0  0  0  0  0
    1.9304   -7.2088    5.8391 C   0  0  1  0  0  0  0  0  0  0  0  0
    2.5132   -8.6027    5.3220 C   0  0  1  0  0  0  0  0  0  0  0  0
    3.6133   -8.9950    6.1155 O   0  0  0  0  0  0  0  0  0  0  0  0
    1.5176   -9.8345    5.2464 C   0  0  1  0  0  0  0  0  0  0  0  0
    0.6653   -9.8628    6.3813 O   0  0  0  0  0  0  0  0  0  0  0  0
    0.7404  -10.1626    3.8949 C   0  0  0  0  0  0  0  0  0  0  0  0
    0.0881   -9.1015    2.8995 C   0  0  1  0  0  0  0  0  0  0  0  0
   -1.4339   -8.9302    3.1395 C   0  0  0  0  0  0  0  0  0  0  0  0
    0.8548   -7.7682    2.4845 C   0  0  1  0  0  0  0  0  0  0  0  0
   -0.0747   -6.7919    2.0346 O   0  0  0  0  0  0  0  0  0  0  0  0
    2.9322   -8.2151    3.9116 C   0  0  1  0  0  0  0  0  0  0  0  0
    3.2516   -9.2233    2.9705 O   0  0  0  0  0  0  0  0  0  0  0  0
    0.1268   -2.2229    3.6161 H   0  0  0  0  0  0  0  0  0  0  0  0
   -0.0947   -3.1801    5.0577 H   0  0  0  0  0  0  0  0  0  0  0  0
    0.2312   -3.9891    3.5305 H   0  0  0  0  0  0  0  0  0  0  0  0
    2.2836   -4.7198    7.2606 H   0  0  0  0  0  0  0  0  0  0  0  0
    0.9444   -4.7008    6.1986 H   0  0  0  0  0  0  0  0  0  0  0  0
    4.3015   -5.7660    6.8522 H   0  0  0  0  0  0  0  0  0  0  0  0
    4.7302   -5.1331    5.2721 H   0  0  0  0  0  0  0  0  0  0  0  0
    4.6894   -6.8239    5.5486 H   0  0  0  0  0  0  0  0  0  0  0  0
    3.4412   -4.9038    0.8919 H   0  0  0  0  0  0  0  0  0  0  0  0
    1.6939   -4.6529    0.9477 H   0  0  0  0  0  0  0  0  0  0  0  0
    2.4400   -6.2259    1.2357 H   0  0  0  0  0  0  0  0  0  0  0  0
    3.7303   -2.9116    1.1552 H   0  0  0  0  0  0  0  0  0  0  0  0
    3.1131   -0.9959    0.4418 H   0  0  0  0  0  0  0  0  0  0  0  0
    1.2569   -0.6524    0.8034 H   0  0  0  0  0  0  0  0  0  0  0  0
    4.6625    0.3937    1.1586 H   0  0  0  0  0  0  0  0  0  0  0  0
    3.4884    1.0126    2.2601 H   0  0  0  0  0  0  0  0  0  0  0  0
    5.8998   -0.7284    2.8211 H   0  0  0  0  0  0  0  0  0  0  0  0
    5.3305    0.5997    3.7476 H   0  0  0  0  0  0  0  0  0  0  0  0
    2.1317   -0.2920    3.9159 H   0  0  0  0  0  0  0  0  0  0  0  0
    3.3249    0.6798    4.7146 H   0  0  0  0  0  0  0  0  0  0  0  0
    2.5540   -0.5914    5.5534 H   0  0  0  0  0  0  0  0  0  0  0  0
    6.1457   -2.7877    2.5564 H   0  0  0  0  0  0  0  0  0  0  0  0
    5.1954   -4.2541    2.4889 H   0  0  0  0  0  0  0  0  0  0  0  0
    5.7638   -3.6746    4.0295 H   0  0  0  0  0  0  0  0  0  0  0  0
    0.2513   -6.1903    4.8425 H   0  0  0  0  0  0  0  0  0  0  0  0
    0.0778   -7.8714    5.0265 H   0  0  0  0  0  0  0  0  0  0  0  0
    1.5926   -7.2215    6.8764 H   0  0  0  0  0  0  0  0  0  0  0  0
    3.2594   -9.4627    6.8596 H   0  0  0  0  0  0  0  0  0  0  0  0
    2.1252  -10.7287    5.3934 H   0  0  0  0  0  0  0  0  0  0  0  0
    0.6927  -10.7397    6.7452 H   0  0  0  0  0  0  0  0  0  0  0  0
    1.3987  -10.7921    3.2949 H   0  0  0  0  0  0  0  0  0  0  0  0
   -0.0282  -10.8920    4.1437 H   0  0  0  0  0  0  0  0  0  0  0  0
    0.0716   -9.6698    1.9731 H   0  0  0  0  0  0  0  0  0  0  0  0
   -1.6898   -8.3776    4.0419 H   0  0  0  0  0  0  0  0  0  0  0  0
   -1.8960   -9.9047    3.2513 H   0  0  0  0  0  0  0  0  0  0  0  0
   -1.9478   -8.4735    2.2934 H   0  0  0  0  0  0  0  0  0  0  0  0
    1.4615   -8.0252    1.6182 H   0  0  0  0  0  0  0  0  0  0  0  0
   -0.5827   -7.2116    1.3536 H   0  0  0  0  0  0  0  0  0  0  0  0
    3.8793   -7.6904    3.9094 H   0  0  0  0  0  0  0  0  0  0  0  0
    2.5552   -9.8623    2.9510 H   0  0  0  0  0  0  0  0  0  0  0  0
  1  2  1  0
  1 38  1  0
  1 39  1  0
  1 40  1  0
  2 10  1  0
  2  3  2  0
  3 20  1  0
  3  4  1  0
  4  5  1  0
  4 41  1  0
  4 42  1  0
  5 26  1  0
  5  6  1  6
  5  7  1  0
  6 43  1  0
  6 44  1  0
  6 45  1  0
  7  8  2  0
 24  7  1  6
  8  9  1  0
 10  8  1  6
  9 46  1  0
  9 47  1  0
  9 48  1  0
 10 22  1  0
 10 11  1  0
 11 22  1  0
 11 12  1  0
 11 49  1  6
 12 13  1  0
 12 14  1  0
 12 50  1  6
 13 51  1  0
 14 15  1  0
 14 52  1  0
 14 53  1  0
 15 16  1  0
 15 54  1  0
 15 55  1  0
 16 17  1  1
 16 18  1  0
 16 22  1  0
 17 56  1  0
 17 57  1  0
 17 58  1  0
 18 19  2  0
 18 20  1  0
 20 21  2  0
 22 23  1  6
 23 59  1  0
 23 60  1  0
 23 61  1  0
 24 34  1  0
 24 36  1  0
 24 25  1  0
 25 26  1  0
 25 62  1  0
 25 63  1  0
 26 27  1  0
 26 64  1  1
 27 28  1  1
 27 29  1  0
 27 36  1  0
 28 65  1  0
 29 30  1  0
 29 31  1  0
 29 66  1  1
 30 67  1  0
 31 32  1  0
 31 68  1  0
 31 69  1  0
 32 33  1  0
 32 34  1  0
 32 70  1  6
 33 71  1  0
 33 72  1  0
 33 73  1  0
 34 35  1  0
 34 74  1  6
 35 75  1  0
 36 37  1  0
 36 76  1  1
 37 77  1  0
M  END
>  <i_m_ct_stereo_status>  (288) 
1

>  <s_m_source_file>  (288) 
/var/tmp/pbs.5076255.sched01/tmp6zmtdo5c/111u4f9dq10.sdf

>  <i_m_source_file_index>  (288) 
25

>  <i_lp_mmshare_version>  (288) 
48012

>  <i_f3d_flags>  (288) 
0

>  <s_epik_input>  (288) 
W09IXVtDQEhdMVtDSDJdW0NIMl1bQ0BAXShbQ0gzXSkoW0NAQF0yKFtDQEhdMVtDQEBdMjM0KVtDSDNdKUMoPU8pQyg9TylDKD1DM1tDSDNdKVtDSDJdW0NAXTUoW0NIM10pQyg9QzRbQ0gzXSlbQ0BAXTY3W0NIMl1bQ0BIXTVbQ0BdKFtPSF0pKFtDQEhdN1tPSF0pW0NAQEhdKFtPSF0pW0NIMl1bQ0BASF0oW0NIM10pW0NASF02W09IXQ==

>  <s_epik_cmdline>  (288) 
J2VwaWtfcHl0aG9uJywgJy1waHQnLCAnMi4wJywgJy1waCcsICc3LjAnLCAnLXRuJywgJzgnLCAnLW1hJywgJzIwMCcsICctaW1hZScsICc8aW5maWxlLm1hZT4nLCAnLW9tYWUnLCAnPG91dGZpbGUubWFlPic=

>  <r_lp_tautomer_probability>  (288) 
1

>  <r_epik_Ionization_Penalty>  (288) 
5.8038e-07

>  <r_epik_Ionization_Penalty_Charging>  (288) 
0

>  <r_epik_Ionization_Penalty_Neutral>  (288) 
5.8038e-07

>  <r_epik_State_Penalty>  (288) 
-0

>  <r_epik_Charging_Adjusted_Penalty>  (288) 
0

>  <i_epik_Tot_Q>  (288) 
0

>  <i_epik_Tot_abs_Q>  (288) 
0

>  <s_lp_Force_Field>  (288) 
OPLS3e

>  <r_lp_Energy>  (288) 
217.694

>  <b_lp_Chiralities_Consistent>  (288) 
1

>  <s_lp_Variant>  (288) 
108:0-1

>  <s_i_glide_gridfile>  (288) 
pfpi4k_grid

>  <i_i_glide_lignum>  (288) 
25

>  <i_i_glide_rotatable_bonds>  (288) 
5

>  <r_i_docking_score>  (288) 
-3.37331

>  <r_i_glide_ligand_efficiency>  (288) 
-0.0911705

>  <r_i_glide_ligand_efficiency_sa>  (288) 
-0.3038

>  <r_i_glide_ligand_efficiency_ln>  (288) 
-0.731591

>  <r_i_glide_gscore>  (288) 
-3.37331

>  <r_i_glide_lipo>  (288) 
-0.219919

>  <r_i_glide_hbond>  (288) 
-0.257951

>  <r_i_glide_metal>  (288) 
-0

>  <r_i_glide_rewards>  (288) 
-0.0245849

>  <r_i_glide_evdw>  (288) 
-26.5348

>  <r_i_glide_ecoul>  (288) 
-10.2941

>  <r_i_glide_erotb>  (288) 
0

>  <r_i_glide_esite>  (288) 
0

>  <r_i_glide_emodel>  (288) 
-43.0436

>  <r_i_glide_energy>  (288) 
-36.8289

>  <r_i_glide_einternal>  (288) 
3.15031

>  <r_i_glide_intrahb_reward>  (288) 
-0

>  <i_i_glide_confnum>  (288) 
1

>  <i_i_glide_posenum>  (288) 
33

>  <r_i_glide_eff_state_penalty>  (288) 
0

>  <ligand_id>  (288) 
108

>  <original_smiles>  (288) 
CC1=C2CC3(C)C(=C(C)C14C1C(O)CCC(C)(C(=O)C2=O)C14C)C12CC3C(O)(C(O)CC(C)C1O)C2O

>  <smiles>  (288) 
[H]OC1([H])C([H])([H])C([H])([H])C2(C([H])([H])[H])C(=O)C(=O)C3=C(C([H])([H])[H])C4(C(C([H])([H])[H])=C5C67C([H])([H])C([H])(C(O[H])(C([H])(O[H])C([H])([H])C([H])(C([H])([H])[H])C6([H])O[H])C7([H])O[H])C5(C([H])([H])[H])C3([H])[H])C1([H])C42C([H])([H])[H]

$$$$
108:0:1
     RDKit          3D

 77 83  0  0  1  0  0  0  0  0999 V2000
   -1.0481   -4.7943    7.0369 C   0  0  0  0  0  0  0  0  0  0  0  0
    0.3099   -4.6693    7.7269 C   0  0  0  0  0  0  0  0  0  0  0  0
    0.7363   -5.5438    8.6744 C   0  0  0  0  0  0  0  0  0  0  0  0
    0.5692   -7.0148    8.3157 C   0  0  0  0  0  0  0  0  0  0  0  0
    1.5954   -7.4296    7.1984 C   0  0  2  0  0  0  0  0  0  0  0  0
    2.9960   -7.4732    7.8787 C   0  0  0  0  0  0  0  0  0  0  0  0
    1.5792   -6.5408    5.8888 C   0  0  0  0  0  0  0  0  0  0  0  0
    1.6259   -5.1689    5.7473 C   0  0  0  0  0  0  0  0  0  0  0  0
    1.8111   -4.5695    4.3499 C   0  0  0  0  0  0  0  0  0  0  0  0
    1.3552   -4.0929    6.8323 C   0  0  1  0  0  0  0  0  0  0  0  0
    1.7269   -2.5942    6.4704 C   0  0  1  0  0  0  0  0  0  0  0  0
    1.1715   -1.2091    6.7978 C   0  0  1  0  0  0  0  0  0  0  0  0
   -0.2389   -1.1731    6.7289 O   0  0  0  0  0  0  0  0  0  0  0  0
    1.8001   -0.4774    8.0455 C   0  0  0  0  0  0  0  0  0  0  0  0
    2.6345   -1.3574    9.0478 C   0  0  0  0  0  0  0  0  0  0  0  0
    2.0219   -2.7731    9.0364 C   0  0  2  0  0  0  0  0  0  0  0  0
    0.5535   -2.4912    9.5723 C   0  0  0  0  0  0  0  0  0  0  0  0
    2.4717   -3.8863    9.9739 C   0  0  0  0  0  0  0  0  0  0  0  0
    3.3285   -3.6993   10.8363 O   0  0  0  0  0  0  0  0  0  0  0  0
    1.7681   -5.2785    9.7704 C   0  0  0  0  0  0  0  0  0  0  0  0
    2.0319   -6.1308   10.6217 O   0  0  0  0  0  0  0  0  0  0  0  0
    2.3654   -3.3027    7.6027 C   0  0  1  0  0  0  0  0  0  0  0  0
    3.8466   -3.6827    7.4069 C   0  0  0  0  0  0  0  0  0  0  0  0
    1.3729   -7.6235    4.7965 C   0  0  1  0  0  0  0  0  0  0  0  0
    0.2703   -8.3717    5.5860 C   0  0  0  0  0  0  0  0  0  0  0  0
    1.2068   -8.8643    6.6276 C   0  0  1  0  0  0  0  0  0  0  0  0
    2.2178   -9.5989    5.6372 C   0  0  1  0  0  0  0  0  0  0  0  0
    3.2400  -10.2191    6.3858 O   0  0  0  0  0  0  0  0  0  0  0  0
    1.6277  -10.6775    4.6344 C   0  0  1  0  0  0  0  0  0  0  0  0
    0.6264  -11.4475    5.2678 O   0  0  0  0  0  0  0  0  0  0  0  0
    1.1505  -10.2692    3.1661 C   0  0  0  0  0  0  0  0  0  0  0  0
    0.3759   -8.9392    2.7605 C   0  0  1  0  0  0  0  0  0  0  0  0
   -1.1558   -9.1756    2.6359 C   0  0  0  0  0  0  0  0  0  0  0  0
    0.8115   -7.5259    3.3470 C   0  0  1  0  0  0  0  0  0  0  0  0
   -0.2861   -6.6382    3.2858 O   0  0  0  0  0  0  0  0  0  0  0  0
    2.7107   -8.4112    4.8236 C   0  0  1  0  0  0  0  0  0  0  0  0
    3.4091   -8.6341    3.6094 O   0  0  0  0  0  0  0  0  0  0  0  0
   -1.5379   -3.8216    7.0078 H   0  0  0  0  0  0  0  0  0  0  0  0
   -1.7097   -5.4400    7.6194 H   0  0  0  0  0  0  0  0  0  0  0  0
   -0.9958   -5.1853    6.0184 H   0  0  0  0  0  0  0  0  0  0  0  0
    0.6832   -7.6464    9.1990 H   0  0  0  0  0  0  0  0  0  0  0  0
   -0.4530   -7.2019    8.0069 H   0  0  0  0  0  0  0  0  0  0  0  0
    2.9417   -7.9668    8.8502 H   0  0  0  0  0  0  0  0  0  0  0  0
    3.3998   -6.4793    8.0364 H   0  0  0  0  0  0  0  0  0  0  0  0
    3.7783   -7.9994    7.3456 H   0  0  0  0  0  0  0  0  0  0  0  0
    2.6914   -3.9233    4.3024 H   0  0  0  0  0  0  0  0  0  0  0  0
    0.9342   -4.0130    4.0144 H   0  0  0  0  0  0  0  0  0  0  0  0
    2.0543   -5.3224    3.6077 H   0  0  0  0  0  0  0  0  0  0  0  0
    2.4330   -2.4483    5.6619 H   0  0  0  0  0  0  0  0  0  0  0  0
    1.4462   -0.5797    5.9506 H   0  0  0  0  0  0  0  0  0  0  0  0
   -0.4899   -1.3990    5.8449 H   0  0  0  0  0  0  0  0  0  0  0  0
    2.4432    0.3331    7.6966 H   0  0  0  0  0  0  0  0  0  0  0  0
    0.9967    0.0285    8.5906 H   0  0  0  0  0  0  0  0  0  0  0  0
    3.6807   -1.3646    8.7408 H   0  0  0  0  0  0  0  0  0  0  0  0
    2.6532   -0.9197   10.0502 H   0  0  0  0  0  0  0  0  0  0  0  0
   -0.1720   -2.1782    8.8364 H   0  0  0  0  0  0  0  0  0  0  0  0
    0.5847   -1.6993   10.3258 H   0  0  0  0  0  0  0  0  0  0  0  0
    0.0724   -3.3118   10.1055 H   0  0  0  0  0  0  0  0  0  0  0  0
    4.5089   -2.8230    7.5035 H   0  0  0  0  0  0  0  0  0  0  0  0
    4.0063   -4.0952    6.4113 H   0  0  0  0  0  0  0  0  0  0  0  0
    4.1838   -4.4409    8.1116 H   0  0  0  0  0  0  0  0  0  0  0  0
   -0.5241   -7.7052    5.9246 H   0  0  0  0  0  0  0  0  0  0  0  0
   -0.2693   -9.1831    5.1274 H   0  0  0  0  0  0  0  0  0  0  0  0
    0.7432   -9.5273    7.3635 H   0  0  0  0  0  0  0  0  0  0  0  0
    2.8553  -10.9576    6.8444 H   0  0  0  0  0  0  0  0  0  0  0  0
    2.4238  -11.4005    4.4448 H   0  0  0  0  0  0  0  0  0  0  0  0
    0.9349  -11.7430    6.1434 H   0  0  0  0  0  0  0  0  0  0  0  0
    2.0191  -10.3311    2.5130 H   0  0  0  0  0  0  0  0  0  0  0  0
    0.5672  -11.1104    2.7864 H   0  0  0  0  0  0  0  0  0  0  0  0
    0.6363   -8.8304    1.7076 H   0  0  0  0  0  0  0  0  0  0  0  0
   -1.6772   -9.2764    3.5850 H   0  0  0  0  0  0  0  0  0  0  0  0
   -1.3498  -10.0937    2.0803 H   0  0  0  0  0  0  0  0  0  0  0  0
   -1.6507   -8.3854    2.0692 H   0  0  0  0  0  0  0  0  0  0  0  0
    1.5786   -7.1319    2.6794 H   0  0  0  0  0  0  0  0  0  0  0  0
   -0.9317   -6.9606    3.8984 H   0  0  0  0  0  0  0  0  0  0  0  0
    3.4715   -7.8473    5.3508 H   0  0  0  0  0  0  0  0  0  0  0  0
    2.9254   -9.2585    3.0927 H   0  0  0  0  0  0  0  0  0  0  0  0
  1  2  1  0
  1 38  1  0
  1 39  1  0
  1 40  1  0
  2 10  1  0
  2  3  2  0
  3 20  1  0
  3  4  1  0
  4  5  1  0
  4 41  1  0
  4 42  1  0
  5 26  1  0
  5  6  1  1
  5  7  1  0
  6 43  1  0
  6 44  1  0
  6 45  1  0
  7  8  2  0
 24  7  1  1
  8  9  1  0
 10  8  1  6
  9 46  1  0
  9 47  1  0
  9 48  1  0
 10 22  1  0
 10 11  1  0
 11 22  1  0
 11 12  1  0
 11 49  1  6
 12 13  1  0
 12 14  1  0
 12 50  1  6
 13 51  1  0
 14 15  1  0
 14 52  1  0
 14 53  1  0
 15 16  1  0
 15 54  1  0
 15 55  1  0
 16 17  1  6
 16 18  1  0
 16 22  1  0
 17 56  1  0
 17 57  1  0
 17 58  1  0
 18 19  2  0
 18 20  1  0
 20 21  2  0
 22 23  1  6
 23 59  1  0
 23 60  1  0
 23 61  1  0
 24 34  1  0
 24 36  1  0
 24 25  1  0
 25 26  1  0
 25 62  1  0
 25 63  1  0
 26 27  1  0
 26 64  1  1
 27 28  1  1
 27 29  1  0
 27 36  1  0
 28 65  1  0
 29 30  1  0
 29 31  1  0
 29 66  1  6
 30 67  1  0
 31 32  1  0
 31 68  1  0
 31 69  1  0
 32 33  1  0
 32 34  1  0
 32 70  1  6
 33 71  1  0
 33 72  1  0
 33 73  1  0
 34 35  1  0
 34 74  1  6
 35 75  1  0
 36 37  1  0
 36 76  1  1
 37 77  1  0
M  END
>  <i_m_ct_stereo_status>  (289) 
1

>  <s_m_source_file>  (289) 
/var/tmp/pbs.5076255.sched01/tmp6zmtdo5c/111u4f9dq10.sdf

>  <i_m_source_file_index>  (289) 
25

>  <i_lp_mmshare_version>  (289) 
48012

>  <i_f3d_flags>  (289) 
0

>  <s_epik_input>  (289) 
W09IXVtDQEhdMVtDSDJdW0NIMl1bQ0BAXShbQ0gzXSkoW0NAQF0yKFtDQEhdMVtDQEBdMjM0KVtDSDNdKUMoPU8pQyg9TylDKD1DM1tDSDNdKVtDSDJdW0NAXTUoW0NIM10pQyg9QzRbQ0gzXSlbQ0BAXTY3W0NIMl1bQ0BIXTVbQ0BdKFtPSF0pKFtDQEhdN1tPSF0pW0NAQEhdKFtPSF0pW0NIMl1bQ0BASF0oW0NIM10pW0NASF02W09IXQ==

>  <s_epik_cmdline>  (289) 
J2VwaWtfcHl0aG9uJywgJy1waHQnLCAnMi4wJywgJy1waCcsICc3LjAnLCAnLXRuJywgJzgnLCAnLW1hJywgJzIwMCcsICctaW1hZScsICc8aW5maWxlLm1hZT4nLCAnLW9tYWUnLCAnPG91dGZpbGUubWFlPic=

>  <r_lp_tautomer_probability>  (289) 
1

>  <r_epik_Ionization_Penalty>  (289) 
5.8038e-07

>  <r_epik_Ionization_Penalty_Charging>  (289) 
0

>  <r_epik_Ionization_Penalty_Neutral>  (289) 
5.8038e-07

>  <r_epik_State_Penalty>  (289) 
-0

>  <r_epik_Charging_Adjusted_Penalty>  (289) 
0

>  <i_epik_Tot_Q>  (289) 
0

>  <i_epik_Tot_abs_Q>  (289) 
0

>  <s_lp_Force_Field>  (289) 
OPLS3e

>  <r_lp_Energy>  (289) 
217.694

>  <b_lp_Chiralities_Consistent>  (289) 
1

>  <s_lp_Variant>  (289) 
108:0-1

>  <s_i_glide_gridfile>  (289) 
pfpi4k_grid

>  <i_i_glide_lignum>  (289) 
25

>  <i_i_glide_rotatable_bonds>  (289) 
5

>  <r_i_docking_score>  (289) 
-2.93727

>  <r_i_glide_ligand_efficiency>  (289) 
-0.0793857

>  <r_i_glide_ligand_efficiency_sa>  (289) 
-0.264531

>  <r_i_glide_ligand_efficiency_ln>  (289) 
-0.637025

>  <r_i_glide_gscore>  (289) 
-2.93727

>  <r_i_glide_lipo>  (289) 
-0.256357

>  <r_i_glide_hbond>  (289) 
-0.131345

>  <r_i_glide_metal>  (289) 
-0

>  <r_i_glide_rewards>  (289) 
0

>  <r_i_glide_evdw>  (289) 
-24.0631

>  <r_i_glide_ecoul>  (289) 
-8.97607

>  <r_i_glide_erotb>  (289) 
0

>  <r_i_glide_esite>  (289) 
0

>  <r_i_glide_emodel>  (289) 
-39.7886

>  <r_i_glide_energy>  (289) 
-33.0392

>  <r_i_glide_einternal>  (289) 
0.879829

>  <r_i_glide_intrahb_reward>  (289) 
-0

>  <i_i_glide_confnum>  (289) 
2

>  <i_i_glide_posenum>  (289) 
38

>  <r_i_glide_eff_state_penalty>  (289) 
0

>  <ligand_id>  (289) 
108

>  <original_smiles>  (289) 
CC1=C2CC3(C)C(=C(C)C14C1C(O)CCC(C)(C(=O)C2=O)C14C)C12CC3C(O)(C(O)CC(C)C1O)C2O

>  <smiles>  (289) 
[H]OC1([H])C([H])([H])C([H])([H])C2(C([H])([H])[H])C(=O)C(=O)C3=C(C([H])([H])[H])C4(C(C([H])([H])[H])=C5C67C([H])([H])C([H])(C(O[H])(C([H])(O[H])C([H])([H])C([H])(C([H])([H])[H])C6([H])O[H])C7([H])O[H])C5(C([H])([H])[H])C3([H])[H])C1([H])C42C([H])([H])[H]

$$$$
108:0:2
     RDKit          3D

 77 83  0  0  1  0  0  0  0  0999 V2000
    0.5114   -2.6404    4.9052 C   0  0  0  0  0  0  0  0  0  0  0  0
    1.7893   -2.6791    5.7446 C   0  0  0  0  0  0  0  0  0  0  0  0
    1.8069   -3.1063    7.0365 C   0  0  0  0  0  0  0  0  0  0  0  0
    1.0722   -4.4178    7.2881 C   0  0  0  0  0  0  0  0  0  0  0  0
    1.8795   -5.6262    6.6880 C   0  0  2  0  0  0  0  0  0  0  0  0
    3.1226   -5.8317    7.6005 C   0  0  0  0  0  0  0  0  0  0  0  0
    2.2601   -5.4946    5.1517 C   0  0  0  0  0  0  0  0  0  0  0  0
    2.8572   -4.4584    4.4688 C   0  0  0  0  0  0  0  0  0  0  0  0
    3.3074   -4.6772    3.0204 C   0  0  0  0  0  0  0  0  0  0  0  0
    3.0066   -2.9834    4.9318 C   0  0  1  0  0  0  0  0  0  0  0  0
    3.9665   -2.0537    4.0729 C   0  0  1  0  0  0  0  0  0  0  0  0
    4.0090   -0.5730    3.6776 C   0  0  1  0  0  0  0  0  0  0  0  0
    2.7237   -0.0967    3.3357 O   0  0  0  0  0  0  0  0  0  0  0  0
    4.8498    0.3777    4.6143 C   0  0  0  0  0  0  0  0  0  0  0  0
    5.2253   -0.1682    6.0377 C   0  0  0  0  0  0  0  0  0  0  0  0
    4.0898   -1.1133    6.4831 C   0  0  2  0  0  0  0  0  0  0  0  0
    2.8425   -0.1313    6.5428 C   0  0  0  0  0  0  0  0  0  0  0  0
    4.0247   -1.7514    7.8647 C   0  0  0  0  0  0  0  0  0  0  0  0
    4.8631   -1.4991    8.7353 O   0  0  0  0  0  0  0  0  0  0  0  0
    2.8301   -2.7408    8.1134 C   0  0  0  0  0  0  0  0  0  0  0  0
    2.7035   -3.1394    9.2759 O   0  0  0  0  0  0  0  0  0  0  0  0
    4.2276   -2.3349    5.5049 C   0  0  1  0  0  0  0  0  0  0  0  0
    5.4344   -3.2490    5.7994 C   0  0  0  0  0  0  0  0  0  0  0  0
    1.6632   -6.8119    4.5910 C   0  0  1  0  0  0  0  0  0  0  0  0
    0.3335   -6.6764    5.3704 C   0  0  0  0  0  0  0  0  0  0  0  0
    0.9684   -6.9289    6.6901 C   0  0  1  0  0  0  0  0  0  0  0  0
    1.6186   -8.3379    6.3208 C   0  0  1  0  0  0  0  0  0  0  0  0
    2.3374   -8.8696    7.4146 O   0  0  0  0  0  0  0  0  0  0  0  0
    0.6561   -9.4643    5.7485 C   0  0  1  0  0  0  0  0  0  0  0  0
   -0.5830   -9.4524    6.4237 O   0  0  0  0  0  0  0  0  0  0  0  0
    0.4388   -9.6394    4.1786 C   0  0  0  0  0  0  0  0  0  0  0  0
    0.2730   -8.4782    3.1092 C   0  0  1  0  0  0  0  0  0  0  0  0
   -1.2222   -8.2064    2.7857 C   0  0  0  0  0  0  0  0  0  0  0  0
    1.2255   -7.2012    3.1468 C   0  0  1  0  0  0  0  0  0  0  0  0
    0.6191   -6.0978    2.4957 O   0  0  0  0  0  0  0  0  0  0  0  0
    2.5672   -7.9100    5.2133 C   0  0  1  0  0  0  0  0  0  0  0  0
    3.1324   -8.9050    4.3809 O   0  0  0  0  0  0  0  0  0  0  0  0
    0.4529   -1.6804    4.3912 H   0  0  0  0  0  0  0  0  0  0  0  0
   -0.3699   -2.6927    5.5456 H   0  0  0  0  0  0  0  0  0  0  0  0
    0.4353   -3.4311    4.1555 H   0  0  0  0  0  0  0  0  0  0  0  0
    0.8943   -4.5663    8.3548 H   0  0  0  0  0  0  0  0  0  0  0  0
    0.0691   -4.3652    6.8739 H   0  0  0  0  0  0  0  0  0  0  0  0
    2.8436   -5.7688    8.6529 H   0  0  0  0  0  0  0  0  0  0  0  0
    3.8867   -5.0859    7.4153 H   0  0  0  0  0  0  0  0  0  0  0  0
    3.6399   -6.7765    7.5073 H   0  0  0  0  0  0  0  0  0  0  0  0
    4.3709   -4.4714    2.9032 H   0  0  0  0  0  0  0  0  0  0  0  0
    2.7448   -4.0660    2.3106 H   0  0  0  0  0  0  0  0  0  0  0  0
    3.2545   -5.7184    2.7242 H   0  0  0  0  0  0  0  0  0  0  0  0
    4.6961   -2.5501    3.4433 H   0  0  0  0  0  0  0  0  0  0  0  0
    4.5240   -0.5475    2.7158 H   0  0  0  0  0  0  0  0  0  0  0  0
    2.8000    0.7535    2.9219 H   0  0  0  0  0  0  0  0  0  0  0  0
    5.7739    0.6541    4.1052 H   0  0  0  0  0  0  0  0  0  0  0  0
    4.3065    1.3200    4.7232 H   0  0  0  0  0  0  0  0  0  0  0  0
    6.1869   -0.6778    5.9932 H   0  0  0  0  0  0  0  0  0  0  0  0
    5.3874    0.6461    6.7495 H   0  0  0  0  0  0  0  0  0  0  0  0
    2.3164    0.0387    5.6159 H   0  0  0  0  0  0  0  0  0  0  0  0
    3.1706    0.8520    6.8874 H   0  0  0  0  0  0  0  0  0  0  0  0
    2.0580   -0.3922    7.2545 H   0  0  0  0  0  0  0  0  0  0  0  0
    6.3817   -2.7314    5.6773 H   0  0  0  0  0  0  0  0  0  0  0  0
    5.4456   -4.0970    5.1168 H   0  0  0  0  0  0  0  0  0  0  0  0
    5.4181   -3.6626    6.8056 H   0  0  0  0  0  0  0  0  0  0  0  0
   -0.1358   -5.7024    5.2293 H   0  0  0  0  0  0  0  0  0  0  0  0
   -0.4723   -7.3636    5.1785 H   0  0  0  0  0  0  0  0  0  0  0  0
    0.2567   -6.9731    7.5178 H   0  0  0  0  0  0  0  0  0  0  0  0
    2.3338   -9.8141    7.3308 H   0  0  0  0  0  0  0  0  0  0  0  0
    1.0814  -10.4254    6.0365 H   0  0  0  0  0  0  0  0  0  0  0  0
   -1.1694  -10.0661    5.9722 H   0  0  0  0  0  0  0  0  0  0  0  0
    1.2458  -10.2738    3.8152 H   0  0  0  0  0  0  0  0  0  0  0  0
   -0.4071  -10.3079    4.0411 H   0  0  0  0  0  0  0  0  0  0  0  0
    0.5828   -8.9674    2.1831 H   0  0  0  0  0  0  0  0  0  0  0  0
   -1.7627   -7.6678    3.5615 H   0  0  0  0  0  0  0  0  0  0  0  0
   -1.7538   -9.1465    2.6276 H   0  0  0  0  0  0  0  0  0  0  0  0
   -1.3322   -7.6468    1.8564 H   0  0  0  0  0  0  0  0  0  0  0  0
    2.1046   -7.4617    2.5586 H   0  0  0  0  0  0  0  0  0  0  0  0
    1.2500   -5.3902    2.5076 H   0  0  0  0  0  0  0  0  0  0  0  0
    3.4813   -7.4768    5.6068 H   0  0  0  0  0  0  0  0  0  0  0  0
    3.5636   -9.5396    4.9368 H   0  0  0  0  0  0  0  0  0  0  0  0
  1  2  1  0
  1 38  1  0
  1 39  1  0
  1 40  1  0
  2 10  1  0
  2  3  2  0
  3 20  1  0
  3  4  1  0
  4  5  1  0
  4 41  1  0
  4 42  1  0
  5 26  1  0
  5  6  1  1
  5  7  1  0
  6 43  1  0
  6 44  1  0
  6 45  1  0
  7  8  2  0
 24  7  1  6
  8  9  1  0
 10  8  1  6
  9 46  1  0
  9 47  1  0
  9 48  1  0
 10 22  1  0
 10 11  1  0
 11 22  1  0
 11 12  1  0
 11 49  1  6
 12 13  1  0
 12 14  1  0
 12 50  1  6
 13 51  1  0
 14 15  1  0
 14 52  1  0
 14 53  1  0
 15 16  1  0
 15 54  1  0
 15 55  1  0
 16 17  1  6
 16 18  1  0
 16 22  1  0
 17 56  1  0
 17 57  1  0
 17 58  1  0
 18 19  2  0
 18 20  1  0
 20 21  2  0
 22 23  1  6
 23 59  1  0
 23 60  1  0
 23 61  1  0
 24 34  1  0
 24 36  1  0
 24 25  1  0
 25 26  1  0
 25 62  1  0
 25 63  1  0
 26 27  1  0
 26 64  1  1
 27 28  1  1
 27 29  1  0
 27 36  1  0
 28 65  1  0
 29 30  1  0
 29 31  1  0
 29 66  1  1
 30 67  1  0
 31 32  1  0
 31 68  1  0
 31 69  1  0
 32 33  1  0
 32 34  1  0
 32 70  1  6
 33 71  1  0
 33 72  1  0
 33 73  1  0
 34 35  1  0
 34 74  1  6
 35 75  1  0
 36 37  1  0
 36 76  1  1
 37 77  1  0
M  END
>  <i_m_ct_stereo_status>  (290) 
1

>  <s_m_source_file>  (290) 
/var/tmp/pbs.5076255.sched01/tmp6zmtdo5c/111u4f9dq10.sdf

>  <i_m_source_file_index>  (290) 
25

>  <i_lp_mmshare_version>  (290) 
48012

>  <i_f3d_flags>  (290) 
0

>  <s_epik_input>  (290) 
W09IXVtDQEhdMVtDSDJdW0NIMl1bQ0BAXShbQ0gzXSkoW0NAQF0yKFtDQEhdMVtDQEBdMjM0KVtDSDNdKUMoPU8pQyg9TylDKD1DM1tDSDNdKVtDSDJdW0NAXTUoW0NIM10pQyg9QzRbQ0gzXSlbQ0BAXTY3W0NIMl1bQ0BIXTVbQ0BdKFtPSF0pKFtDQEhdN1tPSF0pW0NAQEhdKFtPSF0pW0NIMl1bQ0BASF0oW0NIM10pW0NASF02W09IXQ==

>  <s_epik_cmdline>  (290) 
J2VwaWtfcHl0aG9uJywgJy1waHQnLCAnMi4wJywgJy1waCcsICc3LjAnLCAnLXRuJywgJzgnLCAnLW1hJywgJzIwMCcsICctaW1hZScsICc8aW5maWxlLm1hZT4nLCAnLW9tYWUnLCAnPG91dGZpbGUubWFlPic=

>  <r_lp_tautomer_probability>  (290) 
1

>  <r_epik_Ionization_Penalty>  (290) 
5.8038e-07

>  <r_epik_Ionization_Penalty_Charging>  (290) 
0

>  <r_epik_Ionization_Penalty_Neutral>  (290) 
5.8038e-07

>  <r_epik_State_Penalty>  (290) 
-0

>  <r_epik_Charging_Adjusted_Penalty>  (290) 
0

>  <i_epik_Tot_Q>  (290) 
0

>  <i_epik_Tot_abs_Q>  (290) 
0

>  <s_lp_Force_Field>  (290) 
OPLS3e

>  <r_lp_Energy>  (290) 
217.694

>  <b_lp_Chiralities_Consistent>  (290) 
1

>  <s_lp_Variant>  (290) 
108:0-1

>  <s_i_glide_gridfile>  (290) 
pfpi4k_grid

>  <i_i_glide_lignum>  (290) 
25

>  <i_i_glide_rotatable_bonds>  (290) 
5

>  <r_i_docking_score>  (290) 
-2.59684

>  <r_i_glide_ligand_efficiency>  (290) 
-0.0701848

>  <r_i_glide_ligand_efficiency_sa>  (290) 
-0.233871

>  <r_i_glide_ligand_efficiency_ln>  (290) 
-0.563193

>  <r_i_glide_gscore>  (290) 
-2.59684

>  <r_i_glide_lipo>  (290) 
-0.125046

>  <r_i_glide_hbond>  (290) 
-0.0611203

>  <r_i_glide_metal>  (290) 
-0

>  <r_i_glide_rewards>  (290) 
0

>  <r_i_glide_evdw>  (290) 
-23.3779

>  <r_i_glide_ecoul>  (290) 
-8.27852

>  <r_i_glide_erotb>  (290) 
0

>  <r_i_glide_esite>  (290) 
0

>  <r_i_glide_emodel>  (290) 
-36.5647

>  <r_i_glide_energy>  (290) 
-31.6564

>  <r_i_glide_einternal>  (290) 
2.19243

>  <r_i_glide_intrahb_reward>  (290) 
-0

>  <i_i_glide_confnum>  (290) 
1

>  <i_i_glide_posenum>  (290) 
1

>  <r_i_glide_eff_state_penalty>  (290) 
0

>  <ligand_id>  (290) 
108

>  <original_smiles>  (290) 
CC1=C2CC3(C)C(=C(C)C14C1C(O)CCC(C)(C(=O)C2=O)C14C)C12CC3C(O)(C(O)CC(C)C1O)C2O

>  <smiles>  (290) 
[H]OC1([H])C([H])([H])C([H])([H])C2(C([H])([H])[H])C(=O)C(=O)C3=C(C([H])([H])[H])C4(C(C([H])([H])[H])=C5C67C([H])([H])C([H])(C(O[H])(C([H])(O[H])C([H])([H])C([H])(C([H])([H])[H])C6([H])O[H])C7([H])O[H])C5(C([H])([H])[H])C3([H])[H])C1([H])C42C([H])([H])[H]

$$$$
110:0:0
     RDKit          3D

 50 53  0  0  1  0  0  0  0  0999 V2000
    8.1140   -6.9193    2.5282 C   0  0  0  0  0  0  0  0  0  0  0  0
    7.1317   -5.8028    2.2110 C   0  0  0  0  0  0  0  0  0  0  0  0
    7.4949   -4.8530    1.3275 C   0  0  0  0  0  0  0  0  0  0  0  0
    6.7802   -3.5486    1.0404 C   0  0  0  0  0  0  0  0  0  0  0  0
    5.4077   -3.6274    0.3297 C   0  0  2  0  0  0  0  0  0  0  0  0
    4.7810   -2.1963    0.1399 C   0  0  0  0  0  0  0  0  0  0  0  0
    4.3649   -1.5245    1.4804 C   0  0  0  0  0  0  0  0  0  0  0  0
    5.8025   -1.2176   -0.4843 C   0  0  0  0  0  0  0  0  0  0  0  0
    3.5423   -2.2877   -0.8017 C   0  0  1  0  0  0  0  0  0  0  0  0
    3.8769   -2.2001   -2.1756 O   0  0  0  0  0  0  0  0  0  0  0  0
    2.6938   -3.5611   -0.6516 C   0  0  0  0  0  0  0  0  0  0  0  0
    2.9397   -4.3104    0.6597 C   0  0  0  0  0  0  0  0  0  0  0  0
    4.4267   -4.7134    0.9228 C   0  0  1  0  0  0  0  0  0  0  0  0
    4.6391   -6.0275    0.1135 C   0  0  0  0  0  0  0  0  0  0  0  0
    4.6737   -4.8681    2.4851 C   0  0  1  0  0  0  0  0  0  0  0  0
    3.5083   -5.4806    3.3094 C   0  0  1  0  0  0  0  0  0  0  0  0
    3.7534   -6.8739    3.1783 O   0  0  0  0  0  0  0  0  0  0  0  0
    5.0542   -7.1490    3.0127 C   0  0  0  0  0  0  0  0  0  0  0  0
    5.5449   -8.2708    2.9010 O   0  0  0  0  0  0  0  0  0  0  0  0
    5.8112   -5.8027    2.9912 C   0  0  1  0  0  0  0  0  0  0  0  0
    6.1042   -5.3877    4.3395 O   0  0  0  0  0  0  0  0  0  0  0  0
    5.0830   -5.3875    5.3550 C   0  0  0  0  0  0  0  0  0  0  0  0
    3.6938   -5.0882    4.7802 C   0  0  0  0  0  0  0  0  0  0  0  0
    2.7994   -4.5645    5.4407 O   0  0  0  0  0  0  0  0  0  0  0  0
    8.1776   -7.0845    3.6030 H   0  0  0  0  0  0  0  0  0  0  0  0
    9.1130   -6.6564    2.1884 H   0  0  0  0  0  0  0  0  0  0  0  0
    7.8493   -7.8564    2.0425 H   0  0  0  0  0  0  0  0  0  0  0  0
    8.4676   -4.9296    0.8690 H   0  0  0  0  0  0  0  0  0  0  0  0
    6.7138   -2.9967    1.9742 H   0  0  0  0  0  0  0  0  0  0  0  0
    7.4801   -2.9898    0.4202 H   0  0  0  0  0  0  0  0  0  0  0  0
    5.6469   -3.9428   -0.6875 H   0  0  0  0  0  0  0  0  0  0  0  0
    3.9275   -0.5387    1.3026 H   0  0  0  0  0  0  0  0  0  0  0  0
    5.2140   -1.3736    2.1464 H   0  0  0  0  0  0  0  0  0  0  0  0
    3.6229   -2.0787    2.0477 H   0  0  0  0  0  0  0  0  0  0  0  0
    5.3143   -0.2964   -0.8079 H   0  0  0  0  0  0  0  0  0  0  0  0
    6.2866   -1.6648   -1.3546 H   0  0  0  0  0  0  0  0  0  0  0  0
    6.5778   -0.9301    0.2296 H   0  0  0  0  0  0  0  0  0  0  0  0
    2.9255   -1.4162   -0.5931 H   0  0  0  0  0  0  0  0  0  0  0  0
    3.0699   -2.1074   -2.6557 H   0  0  0  0  0  0  0  0  0  0  0  0
    1.6433   -3.2951   -0.7318 H   0  0  0  0  0  0  0  0  0  0  0  0
    2.8645   -4.2462   -1.4774 H   0  0  0  0  0  0  0  0  0  0  0  0
    2.5304   -3.7150    1.4711 H   0  0  0  0  0  0  0  0  0  0  0  0
    2.3227   -5.2084    0.6533 H   0  0  0  0  0  0  0  0  0  0  0  0
    3.9759   -6.8333    0.4273 H   0  0  0  0  0  0  0  0  0  0  0  0
    5.6554   -6.4074    0.1611 H   0  0  0  0  0  0  0  0  0  0  0  0
    4.4613   -5.8668   -0.9483 H   0  0  0  0  0  0  0  0  0  0  0  0
    4.8488   -3.8626    2.8643 H   0  0  0  0  0  0  0  0  0  0  0  0
    2.5058   -5.2040    2.9828 H   0  0  0  0  0  0  0  0  0  0  0  0
    5.0573   -6.3560    5.8512 H   0  0  0  0  0  0  0  0  0  0  0  0
    5.3440   -4.6520    6.1135 H   0  0  0  0  0  0  0  0  0  0  0  0
  1  2  1  0
  1 25  1  0
  1 26  1  0
  1 27  1  0
  2 20  1  0
  2  3  2  0
  3  4  1  0
  3 28  1  0
  4  5  1  0
  4 29  1  0
  4 30  1  0
  5 13  1  0
  5  6  1  0
  5 31  1  6
  6  7  1  0
  6  8  1  0
  6  9  1  0
  7 32  1  0
  7 33  1  0
  7 34  1  0
  8 35  1  0
  8 36  1  0
  8 37  1  0
  9 10  1  0
  9 11  1  0
  9 38  1  1
 10 39  1  0
 11 12  1  0
 11 40  1  0
 11 41  1  0
 12 13  1  0
 12 42  1  0
 12 43  1  0
 13 14  1  6
 13 15  1  0
 14 44  1  0
 14 45  1  0
 14 46  1  0
 15 20  1  0
 15 16  1  0
 15 47  1  1
 16 23  1  0
 16 17  1  0
 16 48  1  6
 17 18  1  0
 18 19  2  0
 18 20  1  0
 20 21  1  1
 21 22  1  0
 22 23  1  0
 22 49  1  0
 22 50  1  0
 23 24  2  0
M  END
>  <i_m_ct_stereo_status>  (291) 
1

>  <s_m_source_file>  (291) 
/var/tmp/pbs.5076255.sched01/tmp6zmtdo5c/111u4f9dq10.sdf

>  <i_m_source_file_index>  (291) 
27

>  <i_lp_mmshare_version>  (291) 
48012

>  <i_f3d_flags>  (291) 
0

>  <s_epik_input>  (291) 
W0NIM11DMT1bQ0hdW0NIMl1bQ0BIXShDKFtDSDNdKShbQ0gzXSlbQ0BASF0oW09IXSlbQ0gyXVtDSDJdMilbQ0BAXTIoW0NIM10pW0NASF0oW0NAXTEzNClbQ0BASF0oT0MzPU8pQyg9TylbQ0gyXU80

>  <s_epik_cmdline>  (291) 
J2VwaWtfcHl0aG9uJywgJy1waHQnLCAnMi4wJywgJy1waCcsICc3LjAnLCAnLXRuJywgJzgnLCAnLW1hJywgJzIwMCcsICctaW1hZScsICc8aW5maWxlLm1hZT4nLCAnLW9tYWUnLCAnPG91dGZpbGUubWFlPic=

>  <r_lp_tautomer_probability>  (291) 
1

>  <r_epik_Ionization_Penalty>  (291) 
1.2466e-06

>  <r_epik_Ionization_Penalty_Charging>  (291) 
0

>  <r_epik_Ionization_Penalty_Neutral>  (291) 
1.2466e-06

>  <r_epik_State_Penalty>  (291) 
-0

>  <r_epik_Charging_Adjusted_Penalty>  (291) 
0

>  <i_epik_Tot_Q>  (291) 
0

>  <i_epik_Tot_abs_Q>  (291) 
0

>  <s_epik_Chemistry_Notes>  (291) 
This compound has an ester and may undergo hydrolysis at high or low pH.

>  <s_lp_Force_Field>  (291) 
OPLS3e

>  <r_lp_Energy>  (291) 
70.4225

>  <b_lp_Chiralities_Consistent>  (291) 
1

>  <s_lp_Variant>  (291) 
110:0-1

>  <s_i_glide_gridfile>  (291) 
pfpi4k_grid

>  <i_i_glide_lignum>  (291) 
27

>  <i_i_glide_rotatable_bonds>  (291) 
1

>  <r_i_docking_score>  (291) 
-2.79615

>  <r_i_glide_ligand_efficiency>  (291) 
-0.116506

>  <r_i_glide_ligand_efficiency_sa>  (291) 
-0.336063

>  <r_i_glide_ligand_efficiency_ln>  (291) 
-0.669248

>  <r_i_glide_gscore>  (291) 
-2.79615

>  <r_i_glide_lipo>  (291) 
-0.411957

>  <r_i_glide_hbond>  (291) 
0

>  <r_i_glide_metal>  (291) 
-0

>  <r_i_glide_rewards>  (291) 
-1.12904

>  <r_i_glide_evdw>  (291) 
-20.271

>  <r_i_glide_ecoul>  (291) 
-1.61066

>  <r_i_glide_erotb>  (291) 
0

>  <r_i_glide_esite>  (291) 
0

>  <r_i_glide_emodel>  (291) 
-25.4355

>  <r_i_glide_energy>  (291) 
-21.8817

>  <r_i_glide_einternal>  (291) 
0.336494

>  <r_i_glide_intrahb_reward>  (291) 
-0

>  <i_i_glide_confnum>  (291) 
1

>  <i_i_glide_posenum>  (291) 
12

>  <r_i_glide_eff_state_penalty>  (291) 
0

>  <ligand_id>  (291) 
110

>  <original_smiles>  (291) 
CC1=CCC2C(C)(C)C(O)CCC2(C)C2C3OC(=O)C12OCC3=O

>  <smiles>  (291) 
[H]OC1([H])C([H])([H])C([H])([H])C2(C([H])([H])[H])C3([H])C4([H])OC(=O)C3(OC([H])([H])C4=O)C(C([H])([H])[H])=C([H])C([H])([H])C2([H])C1(C([H])([H])[H])C([H])([H])[H]

$$$$
110:0:1
     RDKit          3D

 50 53  0  0  1  0  0  0  0  0999 V2000
    6.7765   -7.3464    3.1112 C   0  0  0  0  0  0  0  0  0  0  0  0
    6.0101   -6.1214    2.6337 C   0  0  0  0  0  0  0  0  0  0  0  0
    6.7001   -5.0755    2.1433 C   0  0  0  0  0  0  0  0  0  0  0  0
    6.1746   -3.6879    1.8403 C   0  0  0  0  0  0  0  0  0  0  0  0
    5.2169   -3.5318    0.6387 C   0  0  2  0  0  0  0  0  0  0  0  0
    4.7347   -2.0424    0.4711 C   0  0  0  0  0  0  0  0  0  0  0  0
    3.8150   -1.5677    1.6313 C   0  0  0  0  0  0  0  0  0  0  0  0
    5.9376   -1.0631    0.4983 C   0  0  0  0  0  0  0  0  0  0  0  0
    3.9767   -1.8828   -0.8877 C   0  0  1  0  0  0  0  0  0  0  0  0
    4.8542   -1.5956   -1.9627 O   0  0  0  0  0  0  0  0  0  0  0  0
    3.1453   -3.1017   -1.3194 C   0  0  0  0  0  0  0  0  0  0  0  0
    2.8350   -4.0664   -0.1741 C   0  0  0  0  0  0  0  0  0  0  0  0
    4.0798   -4.6202    0.5883 C   0  0  1  0  0  0  0  0  0  0  0  0
    4.6135   -5.7961   -0.2815 C   0  0  0  0  0  0  0  0  0  0  0  0
    3.6641   -5.0472    2.0634 C   0  0  1  0  0  0  0  0  0  0  0  0
    2.2596   -5.6893    2.2262 C   0  0  1  0  0  0  0  0  0  0  0  0
    2.5247   -7.0586    1.9552 O   0  0  0  0  0  0  0  0  0  0  0  0
    3.7769   -7.4072    2.2800 C   0  0  0  0  0  0  0  0  0  0  0  0
    4.2647   -8.5286    2.1670 O   0  0  0  0  0  0  0  0  0  0  0  0
    4.4860   -6.1400    2.8070 C   0  0  1  0  0  0  0  0  0  0  0  0
    4.2065   -5.9650    4.2088 O   0  0  0  0  0  0  0  0  0  0  0  0
    2.8588   -6.0511    4.7128 C   0  0  0  0  0  0  0  0  0  0  0  0
    1.8274   -5.5583    3.6915 C   0  0  0  0  0  0  0  0  0  0  0  0
    0.7379   -5.0880    4.0163 O   0  0  0  0  0  0  0  0  0  0  0  0
    6.3954   -7.6859    4.0737 H   0  0  0  0  0  0  0  0  0  0  0  0
    7.8327   -7.1191    3.2488 H   0  0  0  0  0  0  0  0  0  0  0  0
    6.7189   -8.1702    2.4026 H   0  0  0  0  0  0  0  0  0  0  0  0
    7.7764   -5.1518    2.1053 H   0  0  0  0  0  0  0  0  0  0  0  0
    5.7545   -3.2896    2.7619 H   0  0  0  0  0  0  0  0  0  0  0  0
    7.0691   -3.0998    1.6537 H   0  0  0  0  0  0  0  0  0  0  0  0
    5.8518   -3.6985   -0.2341 H   0  0  0  0  0  0  0  0  0  0  0  0
    3.4934   -0.5348    1.4741 H   0  0  0  0  0  0  0  0  0  0  0  0
    4.3217   -1.5979    2.5968 H   0  0  0  0  0  0  0  0  0  0  0  0
    2.9036   -2.1461    1.7461 H   0  0  0  0  0  0  0  0  0  0  0  0
    5.6405   -0.0618    0.1804 H   0  0  0  0  0  0  0  0  0  0  0  0
    6.7405   -1.4028   -0.1573 H   0  0  0  0  0  0  0  0  0  0  0  0
    6.3572   -0.9610    1.5012 H   0  0  0  0  0  0  0  0  0  0  0  0
    3.3056   -1.0265   -0.8067 H   0  0  0  0  0  0  0  0  0  0  0  0
    4.3198   -1.3783   -2.7132 H   0  0  0  0  0  0  0  0  0  0  0  0
    2.2089   -2.7532   -1.7523 H   0  0  0  0  0  0  0  0  0  0  0  0
    3.6331   -3.6564   -2.1178 H   0  0  0  0  0  0  0  0  0  0  0  0
    2.1460   -3.5734    0.5018 H   0  0  0  0  0  0  0  0  0  0  0  0
    2.2641   -4.8972   -0.5849 H   0  0  0  0  0  0  0  0  0  0  0  0
    3.8760   -6.5956   -0.3808 H   0  0  0  0  0  0  0  0  0  0  0  0
    5.5230   -6.2502    0.0878 H   0  0  0  0  0  0  0  0  0  0  0  0
    4.8524   -5.4594   -1.2910 H   0  0  0  0  0  0  0  0  0  0  0  0
    3.6755   -4.1329    2.6537 H   0  0  0  0  0  0  0  0  0  0  0  0
    1.4821   -5.2844    1.5796 H   0  0  0  0  0  0  0  0  0  0  0  0
    2.6299   -7.0824    4.9754 H   0  0  0  0  0  0  0  0  0  0  0  0
    2.7917   -5.4712    5.6307 H   0  0  0  0  0  0  0  0  0  0  0  0
  1  2  1  0
  1 25  1  0
  1 26  1  0
  1 27  1  0
  2 20  1  0
  2  3  2  0
  3  4  1  0
  3 28  1  0
  4  5  1  0
  4 29  1  0
  4 30  1  0
  5 13  1  0
  5  6  1  0
  5 31  1  6
  6  7  1  0
  6  8  1  0
  6  9  1  0
  7 32  1  0
  7 33  1  0
  7 34  1  0
  8 35  1  0
  8 36  1  0
  8 37  1  0
  9 10  1  0
  9 11  1  0
  9 38  1  1
 10 39  1  0
 11 12  1  0
 11 40  1  0
 11 41  1  0
 12 13  1  0
 12 42  1  0
 12 43  1  0
 13 14  1  6
 13 15  1  0
 14 44  1  0
 14 45  1  0
 14 46  1  0
 15 20  1  0
 15 16  1  0
 15 47  1  1
 16 23  1  0
 16 17  1  0
 16 48  1  6
 17 18  1  0
 18 19  2  0
 18 20  1  0
 20 21  1  1
 21 22  1  0
 22 23  1  0
 22 49  1  0
 22 50  1  0
 23 24  2  0
M  END
>  <i_m_ct_stereo_status>  (292) 
1

>  <s_m_source_file>  (292) 
/var/tmp/pbs.5076255.sched01/tmp6zmtdo5c/111u4f9dq10.sdf

>  <i_m_source_file_index>  (292) 
27

>  <i_lp_mmshare_version>  (292) 
48012

>  <i_f3d_flags>  (292) 
0

>  <s_epik_input>  (292) 
W0NIM11DMT1bQ0hdW0NIMl1bQ0BIXShDKFtDSDNdKShbQ0gzXSlbQ0BASF0oW09IXSlbQ0gyXVtDSDJdMilbQ0BAXTIoW0NIM10pW0NASF0oW0NAXTEzNClbQ0BASF0oT0MzPU8pQyg9TylbQ0gyXU80

>  <s_epik_cmdline>  (292) 
J2VwaWtfcHl0aG9uJywgJy1waHQnLCAnMi4wJywgJy1waCcsICc3LjAnLCAnLXRuJywgJzgnLCAnLW1hJywgJzIwMCcsICctaW1hZScsICc8aW5maWxlLm1hZT4nLCAnLW9tYWUnLCAnPG91dGZpbGUubWFlPic=

>  <r_lp_tautomer_probability>  (292) 
1

>  <r_epik_Ionization_Penalty>  (292) 
1.2466e-06

>  <r_epik_Ionization_Penalty_Charging>  (292) 
0

>  <r_epik_Ionization_Penalty_Neutral>  (292) 
1.2466e-06

>  <r_epik_State_Penalty>  (292) 
-0

>  <r_epik_Charging_Adjusted_Penalty>  (292) 
0

>  <i_epik_Tot_Q>  (292) 
0

>  <i_epik_Tot_abs_Q>  (292) 
0

>  <s_epik_Chemistry_Notes>  (292) 
This compound has an ester and may undergo hydrolysis at high or low pH.

>  <s_lp_Force_Field>  (292) 
OPLS3e

>  <r_lp_Energy>  (292) 
70.4225

>  <b_lp_Chiralities_Consistent>  (292) 
1

>  <s_lp_Variant>  (292) 
110:0-1

>  <s_i_glide_gridfile>  (292) 
pfpi4k_grid

>  <i_i_glide_lignum>  (292) 
27

>  <i_i_glide_rotatable_bonds>  (292) 
1

>  <r_i_docking_score>  (292) 
-2.69423

>  <r_i_glide_ligand_efficiency>  (292) 
-0.112259

>  <r_i_glide_ligand_efficiency_sa>  (292) 
-0.323812

>  <r_i_glide_ligand_efficiency_ln>  (292) 
-0.644852

>  <r_i_glide_gscore>  (292) 
-2.69423

>  <r_i_glide_lipo>  (292) 
-0.33452

>  <r_i_glide_hbond>  (292) 
0

>  <r_i_glide_metal>  (292) 
-0

>  <r_i_glide_rewards>  (292) 
-1.13794

>  <r_i_glide_evdw>  (292) 
-22.0178

>  <r_i_glide_ecoul>  (292) 
-0.769496

>  <r_i_glide_erotb>  (292) 
0

>  <r_i_glide_esite>  (292) 
-0.00544695

>  <r_i_glide_emodel>  (292) 
-26.1843

>  <r_i_glide_energy>  (292) 
-22.7873

>  <r_i_glide_einternal>  (292) 
0.337765

>  <r_i_glide_intrahb_reward>  (292) 
-0

>  <i_i_glide_confnum>  (292) 
1

>  <i_i_glide_posenum>  (292) 
36

>  <r_i_glide_eff_state_penalty>  (292) 
0

>  <ligand_id>  (292) 
110

>  <original_smiles>  (292) 
CC1=CCC2C(C)(C)C(O)CCC2(C)C2C3OC(=O)C12OCC3=O

>  <smiles>  (292) 
[H]OC1([H])C([H])([H])C([H])([H])C2(C([H])([H])[H])C3([H])C4([H])OC(=O)C3(OC([H])([H])C4=O)C(C([H])([H])[H])=C([H])C([H])([H])C2([H])C1(C([H])([H])[H])C([H])([H])[H]

$$$$
111:0:0
     RDKit          3D

 27 32  0  0  1  0  0  0  0  0999 V2000
    1.2022   -5.8582    0.4969 O   0  0  0  0  0  0  0  0  0  0  0  0
    2.2159   -5.4443    1.1202 C   0  0  0  0  0  0  0  0  0  0  0  0
    2.2254   -5.1665    2.3326 O   0  0  0  0  0  0  0  0  0  0  0  0
    3.5030   -5.2196    0.3229 C   0  0  2  0  0  0  0  0  0  0  0  0
    4.6830   -5.2253    1.2273 N   0  0  0  0  0  0  0  0  0  0  0  0
    5.3542   -4.1280    1.2132 C   0  0  0  0  0  0  0  0  0  0  0  0
    4.6428   -2.8369    1.5813 C   0  0  2  0  0  0  0  0  0  0  0  0
    3.5242   -2.6825    0.4533 C   0  0  1  0  0  0  0  0  0  0  0  0
    3.8674   -1.4014   -0.3300 C   0  0  0  0  0  0  0  0  0  0  0  0
    5.3572   -1.2626   -0.1547 C   0  0  1  0  0  0  0  0  0  0  0  0
    5.7299   -1.8096    1.2076 C   0  0  2  0  0  0  0  0  0  0  0  0
    6.7222   -2.6777    0.5215 C   0  0  2  0  0  0  0  0  0  0  0  0
    6.1488   -2.4235   -0.7519 C   0  0  1  0  0  0  0  0  0  0  0  0
    6.0205   -3.8614   -0.0966 C   0  0  1  0  0  0  0  0  0  0  0  0
    4.9278   -3.9663   -1.0676 O   0  0  0  0  0  0  0  0  0  0  0  0
    3.5610   -3.9128   -0.5327 C   0  0  1  0  0  0  0  0  0  0  0  0
    3.6380   -6.0691   -0.3322 H   0  0  0  0  0  0  0  0  0  0  0  0
    2.5300   -2.5927    0.8882 H   0  0  0  0  0  0  0  0  0  0  0  0
    3.5413   -1.4090   -1.3716 H   0  0  0  0  0  0  0  0  0  0  0  0
    3.3754   -0.5557    0.1461 H   0  0  0  0  0  0  0  0  0  0  0  0
    5.7934   -0.2859   -0.3661 H   0  0  0  0  0  0  0  0  0  0  0  0
    6.1040   -1.0803    1.9331 H   0  0  0  0  0  0  0  0  0  0  0  0
    7.7863   -2.5826    0.6841 H   0  0  0  0  0  0  0  0  0  0  0  0
    6.7993   -2.2585   -1.6016 H   0  0  0  0  0  0  0  0  0  0  0  0
    2.8194   -3.8704   -1.3281 H   0  0  0  0  0  0  0  0  0  0  0  0
    4.2812   -2.8051    2.6048 H   0  0  0  0  0  0  0  0  0  0  0  0
    5.2363   -6.0735    1.1341 H   0  0  0  0  0  0  0  0  0  0  0  0
  1  2  2  0
  2  3  1  0
  2  4  1  0
  4 16  1  0
  4 17  1  6
  4  5  1  0
  5  6  2  0
  5 27  1  0
  6  7  1  0
  6 14  1  0
  7 11  1  0
  7  8  1  0
  7 26  1  1
  8 16  1  0
  8  9  1  0
  8 18  1  1
  9 10  1  0
  9 19  1  0
  9 20  1  0
 10 13  1  0
 10 11  1  0
 10 21  1  1
 11 12  1  0
 11 22  1  1
 12 13  1  0
 12 23  1  6
 12 14  1  0
 13 24  1  6
 13 14  1  0
 14 15  1  6
 15 16  1  0
 16 25  1  6
M  CHG  2   3  -1   5   1
M  END
>  <i_m_ct_stereo_status>  (293) 
1

>  <s_m_source_file>  (293) 
/var/tmp/pbs.5076255.sched01/tmp6zmtdo5c/111u4f9dq10.sdf

>  <i_m_source_file_index>  (293) 
28

>  <i_lp_mmshare_version>  (293) 
48012

>  <i_f3d_flags>  (293) 
2

>  <s_epik_input>  (293) 
Tz1DKFtPSF0pW0NASF0oTj0xKVtDQEhdKE8yKVtDQEBIXShbQ0BIXTNDMUMyNDUpW0NIMl1bQ0BIXTZbQ0BASF0zW0NAQEhdNFtDQEBIXTU2

>  <s_epik_cmdline>  (293) 
J2VwaWtfcHl0aG9uJywgJy1waHQnLCAnMi4wJywgJy1waCcsICc3LjAnLCAnLXRuJywgJzgnLCAnLW1hJywgJzIwMCcsICctaW1hZScsICc8aW5maWxlLm1hZT4nLCAnLW9tYWUnLCAnPG91dGZpbGUubWFlPic=

>  <r_epik_Ionization_Penalty>  (293) 
13.1579

>  <r_epik_Ionization_Penalty_Charging>  (293) 
0.00375975

>  <r_epik_Ionization_Penalty_Neutral>  (293) 
13.1542

>  <r_epik_State_Penalty>  (293) 
0.00265958

>  <r_epik_Charging_Adjusted_Penalty>  (293) 
0.00641933

>  <i_epik_Tot_Q>  (293) 
0

>  <i_epik_Tot_abs_Q>  (293) 
2

>  <s_epik_Chemistry_Notes>  (293) 
This compound has an imine and may undergo hydrolysis.

>  <s_lp_Force_Field>  (293) 
OPLS3e

>  <r_lp_Energy>  (293) 
138.551

>  <b_lp_Chiralities_Consistent>  (293) 
0

>  <s_lp_Variant>  (293) 
111:0-1

>  <s_i_glide_gridfile>  (293) 
pfpi4k_grid

>  <i_i_glide_lignum>  (293) 
28

>  <i_i_glide_rotatable_bonds>  (293) 
1

>  <r_i_docking_score>  (293) 
-3.92798

>  <r_i_glide_ligand_efficiency>  (293) 
-0.245499

>  <r_i_glide_ligand_efficiency_sa>  (293) 
-0.618618

>  <r_i_glide_ligand_efficiency_ln>  (293) 
-1.04119

>  <r_i_glide_gscore>  (293) 
-3.92798

>  <r_i_glide_lipo>  (293) 
-0.309992

>  <r_i_glide_hbond>  (293) 
-0.2

>  <r_i_glide_metal>  (293) 
-0

>  <r_i_glide_rewards>  (293) 
-1.99362

>  <r_i_glide_evdw>  (293) 
-15.9452

>  <r_i_glide_ecoul>  (293) 
-3.89809

>  <r_i_glide_erotb>  (293) 
0

>  <r_i_glide_esite>  (293) 
-0.0423878

>  <r_i_glide_emodel>  (293) 
-26.947

>  <r_i_glide_energy>  (293) 
-19.8433

>  <r_i_glide_einternal>  (293) 
0.0428764

>  <r_i_glide_intrahb_reward>  (293) 
-0

>  <i_i_glide_confnum>  (293) 
1

>  <i_i_glide_posenum>  (293) 
9

>  <r_i_glide_eff_state_penalty>  (293) 
0

>  <ligand_id>  (293) 
111

>  <original_smiles>  (293) 
O=C(O)C1N=C2C3C4CC5C3C3C5C23OC14

>  <smiles>  (293) 
[H][N+]1=C2C3([H])C4([H])C([H])([H])C5([H])C3([H])C3([H])C2(OC4([H])C1([H])C(=O)[O-])C53[H]

$$$$
111:0:1
     RDKit          3D

 27 32  0  0  1  0  0  0  0  0999 V2000
    1.2422   -5.4554    2.6179 O   0  0  0  0  0  0  0  0  0  0  0  0
    1.8221   -5.5946    1.5196 C   0  0  0  0  0  0  0  0  0  0  0  0
    1.2273   -5.9027    0.4707 O   0  0  0  0  0  0  0  0  0  0  0  0
    3.3216   -5.2484    1.4917 C   0  0  2  0  0  0  0  0  0  0  0  0
    3.5674   -4.0205    2.2875 N   0  0  0  0  0  0  0  0  0  0  0  0
    4.1241   -3.0660    1.6127 C   0  0  0  0  0  0  0  0  0  0  0  0
    3.4004   -2.5334    0.3964 C   0  0  2  0  0  0  0  0  0  0  0  0
    3.3542   -3.7919   -0.5871 C   0  0  1  0  0  0  0  0  0  0  0  0
    4.1780   -3.4120   -1.8297 C   0  0  0  0  0  0  0  0  0  0  0  0
    5.1548   -2.3987   -1.3122 C   0  0  1  0  0  0  0  0  0  0  0  0
    4.4954   -1.6120   -0.1975 C   0  0  2  0  0  0  0  0  0  0  0  0
    5.6507   -1.9687    0.6585 C   0  0  2  0  0  0  0  0  0  0  0  0
    6.0981   -2.9578   -0.2531 C   0  0  1  0  0  0  0  0  0  0  0  0
    5.5046   -3.3797    1.1591 C   0  0  1  0  0  0  0  0  0  0  0  0
    5.3627   -4.6715    0.4778 O   0  0  0  0  0  0  0  0  0  0  0  0
    4.0013   -5.0637    0.0999 C   0  0  1  0  0  0  0  0  0  0  0  0
    3.8459   -6.0450    2.0116 H   0  0  0  0  0  0  0  0  0  0  0  0
    2.3320   -4.0012   -0.8897 H   0  0  0  0  0  0  0  0  0  0  0  0
    4.6394   -4.2656   -2.3283 H   0  0  0  0  0  0  0  0  0  0  0  0
    3.5142   -2.9378   -2.5540 H   0  0  0  0  0  0  0  0  0  0  0  0
    5.6595   -1.7745   -2.0459 H   0  0  0  0  0  0  0  0  0  0  0  0
    4.3044   -0.5548   -0.3988 H   0  0  0  0  0  0  0  0  0  0  0  0
    6.3367   -1.2150    1.0370 H   0  0  0  0  0  0  0  0  0  0  0  0
    7.1594   -3.0292   -0.4681 H   0  0  0  0  0  0  0  0  0  0  0  0
    4.0082   -5.9677   -0.5123 H   0  0  0  0  0  0  0  0  0  0  0  0
    2.4491   -2.0644    0.6164 H   0  0  0  0  0  0  0  0  0  0  0  0
    3.9933   -4.2258    3.1840 H   0  0  0  0  0  0  0  0  0  0  0  0
  1  2  2  0
  2  3  1  0
  2  4  1  0
  4 16  1  0
  4 17  1  1
  4  5  1  0
  5  6  2  0
  5 27  1  0
  6  7  1  0
  6 14  1  0
  7 11  1  0
  7  8  1  0
  7 26  1  1
  8 16  1  0
  8  9  1  0
  8 18  1  6
  9 10  1  0
  9 19  1  0
  9 20  1  0
 10 13  1  0
 10 11  1  0
 10 21  1  6
 11 12  1  0
 11 22  1  6
 12 13  1  0
 12 23  1  1
 12 14  1  0
 13 24  1  6
 13 14  1  0
 14 15  1  1
 15 16  1  0
 16 25  1  6
M  CHG  2   3  -1   5   1
M  END
>  <i_m_ct_stereo_status>  (294) 
1

>  <s_m_source_file>  (294) 
/var/tmp/pbs.5076255.sched01/tmp6zmtdo5c/111u4f9dq10.sdf

>  <i_m_source_file_index>  (294) 
28

>  <i_lp_mmshare_version>  (294) 
48012

>  <i_f3d_flags>  (294) 
2

>  <s_epik_input>  (294) 
Tz1DKFtPSF0pW0NASF0oTj0xKVtDQEhdKE8yKVtDQEBIXShbQ0BIXTNDMUMyNDUpW0NIMl1bQ0BIXTZbQ0BASF0zW0NAQEhdNFtDQEBIXTU2

>  <s_epik_cmdline>  (294) 
J2VwaWtfcHl0aG9uJywgJy1waHQnLCAnMi4wJywgJy1waCcsICc3LjAnLCAnLXRuJywgJzgnLCAnLW1hJywgJzIwMCcsICctaW1hZScsICc8aW5maWxlLm1hZT4nLCAnLW9tYWUnLCAnPG91dGZpbGUubWFlPic=

>  <r_epik_Ionization_Penalty>  (294) 
13.1579

>  <r_epik_Ionization_Penalty_Charging>  (294) 
0.00375975

>  <r_epik_Ionization_Penalty_Neutral>  (294) 
13.1542

>  <r_epik_State_Penalty>  (294) 
0.00265958

>  <r_epik_Charging_Adjusted_Penalty>  (294) 
0.00641933

>  <i_epik_Tot_Q>  (294) 
0

>  <i_epik_Tot_abs_Q>  (294) 
2

>  <s_epik_Chemistry_Notes>  (294) 
This compound has an imine and may undergo hydrolysis.

>  <s_lp_Force_Field>  (294) 
OPLS3e

>  <r_lp_Energy>  (294) 
138.551

>  <b_lp_Chiralities_Consistent>  (294) 
0

>  <s_lp_Variant>  (294) 
111:0-1

>  <s_i_glide_gridfile>  (294) 
pfpi4k_grid

>  <i_i_glide_lignum>  (294) 
28

>  <i_i_glide_rotatable_bonds>  (294) 
1

>  <r_i_docking_score>  (294) 
-3.88477

>  <r_i_glide_ligand_efficiency>  (294) 
-0.242798

>  <r_i_glide_ligand_efficiency_sa>  (294) 
-0.611813

>  <r_i_glide_ligand_efficiency_ln>  (294) 
-1.02974

>  <r_i_glide_gscore>  (294) 
-3.88477

>  <r_i_glide_lipo>  (294) 
-0.176063

>  <r_i_glide_hbond>  (294) 
-0.201769

>  <r_i_glide_metal>  (294) 
-0

>  <r_i_glide_rewards>  (294) 
-1.93555

>  <r_i_glide_evdw>  (294) 
-14.493

>  <r_i_glide_ecoul>  (294) 
-5.2432

>  <r_i_glide_erotb>  (294) 
0

>  <r_i_glide_esite>  (294) 
-0.0602542

>  <r_i_glide_emodel>  (294) 
-26.3038

>  <r_i_glide_energy>  (294) 
-19.7362

>  <r_i_glide_einternal>  (294) 
0.720472

>  <r_i_glide_intrahb_reward>  (294) 
-0

>  <i_i_glide_confnum>  (294) 
1

>  <i_i_glide_posenum>  (294) 
23

>  <r_i_glide_eff_state_penalty>  (294) 
0

>  <ligand_id>  (294) 
111

>  <original_smiles>  (294) 
O=C(O)C1N=C2C3C4CC5C3C3C5C23OC14

>  <smiles>  (294) 
[H][N+]1=C2C3([H])C4([H])C([H])([H])C5([H])C3([H])C3([H])C2(OC4([H])C1([H])C(=O)[O-])C53[H]

$$$$
111:0:2
     RDKit          3D

 27 32  0  0  1  0  0  0  0  0999 V2000
    1.5027   -5.4847    0.8931 O   0  0  0  0  0  0  0  0  0  0  0  0
    2.5409   -6.1231    1.2058 C   0  0  0  0  0  0  0  0  0  0  0  0
    2.5748   -7.3500    1.4460 O   0  0  0  0  0  0  0  0  0  0  0  0
    3.8595   -5.3746    1.3806 C   0  0  2  0  0  0  0  0  0  0  0  0
    3.6368   -4.1629    2.2057 N   0  0  0  0  0  0  0  0  0  0  0  0
    3.9381   -3.0679    1.5791 C   0  0  0  0  0  0  0  0  0  0  0  0
    3.2355   -2.7607    0.2799 C   0  0  2  0  0  0  0  0  0  0  0  0
    3.6803   -3.9360   -0.6912 C   0  0  1  0  0  0  0  0  0  0  0  0
    4.4664   -3.2899   -1.8436 C   0  0  0  0  0  0  0  0  0  0  0  0
    5.0272   -2.0394   -1.2203 C   0  0  1  0  0  0  0  0  0  0  0  0
    4.0381   -1.5433   -0.1879 C   0  0  2  0  0  0  0  0  0  0  0  0
    5.1587   -1.5213    0.7883 C   0  0  2  0  0  0  0  0  0  0  0  0
    5.9845   -2.3088   -0.0641 C   0  0  1  0  0  0  0  0  0  0  0  0
    5.4000   -2.9325    1.2807 C   0  0  1  0  0  0  0  0  0  0  0  0
    5.7275   -4.1804    0.5919 O   0  0  0  0  0  0  0  0  0  0  0  0
    4.6069   -4.9723    0.0634 C   0  0  1  0  0  0  0  0  0  0  0  0
    4.5321   -6.0040    1.9545 H   0  0  0  0  0  0  0  0  0  0  0  0
    2.8068   -4.4355   -1.0969 H   0  0  0  0  0  0  0  0  0  0  0  0
    5.2248   -3.9421   -2.2796 H   0  0  0  0  0  0  0  0  0  0  0  0
    3.7686   -3.0191   -2.6344 H   0  0  0  0  0  0  0  0  0  0  0  0
    5.3763   -1.2669   -1.8974 H   0  0  0  0  0  0  0  0  0  0  0  0
    3.5310   -0.6037   -0.4117 H   0  0  0  0  0  0  0  0  0  0  0  0
    5.5253   -0.6115    1.2387 H   0  0  0  0  0  0  0  0  0  0  0  0
    7.0342   -2.0378   -0.1534 H   0  0  0  0  0  0  0  0  0  0  0  0
    4.9401   -5.8109   -0.5436 H   0  0  0  0  0  0  0  0  0  0  0  0
    2.1630   -2.6214    0.4000 H   0  0  0  0  0  0  0  0  0  0  0  0
    4.0311   -4.2575    3.1349 H   0  0  0  0  0  0  0  0  0  0  0  0
  1  2  2  0
  2  3  1  0
  2  4  1  0
  4 16  1  0
  4 17  1  1
  4  5  1  0
  5  6  2  0
  5 27  1  0
  6  7  1  0
  6 14  1  0
  7 11  1  0
  7  8  1  0
  7 26  1  1
  8 16  1  0
  8  9  1  0
  8 18  1  6
  9 10  1  0
  9 19  1  0
  9 20  1  0
 10 13  1  0
 10 11  1  0
 10 21  1  6
 11 12  1  0
 11 22  1  6
 12 13  1  0
 12 23  1  1
 12 14  1  0
 13 24  1  6
 13 14  1  0
 14 15  1  1
 15 16  1  0
 16 25  1  6
M  CHG  2   3  -1   5   1
M  END
>  <i_m_ct_stereo_status>  (295) 
1

>  <s_m_source_file>  (295) 
/var/tmp/pbs.5076255.sched01/tmp6zmtdo5c/111u4f9dq10.sdf

>  <i_m_source_file_index>  (295) 
28

>  <i_lp_mmshare_version>  (295) 
48012

>  <i_f3d_flags>  (295) 
2

>  <s_epik_input>  (295) 
Tz1DKFtPSF0pW0NASF0oTj0xKVtDQEhdKE8yKVtDQEBIXShbQ0BIXTNDMUMyNDUpW0NIMl1bQ0BIXTZbQ0BASF0zW0NAQEhdNFtDQEBIXTU2

>  <s_epik_cmdline>  (295) 
J2VwaWtfcHl0aG9uJywgJy1waHQnLCAnMi4wJywgJy1waCcsICc3LjAnLCAnLXRuJywgJzgnLCAnLW1hJywgJzIwMCcsICctaW1hZScsICc8aW5maWxlLm1hZT4nLCAnLW9tYWUnLCAnPG91dGZpbGUubWFlPic=

>  <r_epik_Ionization_Penalty>  (295) 
13.1579

>  <r_epik_Ionization_Penalty_Charging>  (295) 
0.00375975

>  <r_epik_Ionization_Penalty_Neutral>  (295) 
13.1542

>  <r_epik_State_Penalty>  (295) 
0.00265958

>  <r_epik_Charging_Adjusted_Penalty>  (295) 
0.00641933

>  <i_epik_Tot_Q>  (295) 
0

>  <i_epik_Tot_abs_Q>  (295) 
2

>  <s_epik_Chemistry_Notes>  (295) 
This compound has an imine and may undergo hydrolysis.

>  <s_lp_Force_Field>  (295) 
OPLS3e

>  <r_lp_Energy>  (295) 
138.551

>  <b_lp_Chiralities_Consistent>  (295) 
0

>  <s_lp_Variant>  (295) 
111:0-1

>  <s_i_glide_gridfile>  (295) 
pfpi4k_grid

>  <i_i_glide_lignum>  (295) 
28

>  <i_i_glide_rotatable_bonds>  (295) 
1

>  <r_i_docking_score>  (295) 
-3.78275

>  <r_i_glide_ligand_efficiency>  (295) 
-0.236422

>  <r_i_glide_ligand_efficiency_sa>  (295) 
-0.595745

>  <r_i_glide_ligand_efficiency_ln>  (295) 
-1.00269

>  <r_i_glide_gscore>  (295) 
-3.78275

>  <r_i_glide_lipo>  (295) 
-0.15523

>  <r_i_glide_hbond>  (295) 
-0.15064

>  <r_i_glide_metal>  (295) 
-0

>  <r_i_glide_rewards>  (295) 
-1.93146

>  <r_i_glide_evdw>  (295) 
-15.1379

>  <r_i_glide_ecoul>  (295) 
-5.16044

>  <r_i_glide_erotb>  (295) 
0

>  <r_i_glide_esite>  (295) 
-0.0144515

>  <r_i_glide_emodel>  (295) 
-26.6875

>  <r_i_glide_energy>  (295) 
-20.2984

>  <r_i_glide_einternal>  (295) 
0.555852

>  <r_i_glide_intrahb_reward>  (295) 
-0

>  <i_i_glide_confnum>  (295) 
2

>  <i_i_glide_posenum>  (295) 
13

>  <r_i_glide_eff_state_penalty>  (295) 
0

>  <ligand_id>  (295) 
111

>  <original_smiles>  (295) 
O=C(O)C1N=C2C3C4CC5C3C3C5C23OC14

>  <smiles>  (295) 
[H][N+]1=C2C3([H])C4([H])C([H])([H])C5([H])C3([H])C3([H])C2(OC4([H])C1([H])C(=O)[O-])C53[H]

$$$$
112:0:0
     RDKit          3D

 66 73  0  0  1  0  0  0  0  0999 V2000
    0.3441    3.3634    3.3330 C   0  0  0  0  0  0  0  0  0  0  0  0
    0.8000    2.2186    4.1458 N   0  0  0  0  0  0  0  0  0  0  0  0
    1.7855    1.5450    3.4816 N   0  0  0  0  0  0  0  0  0  0  0  0
    2.6070    0.6834    4.0267 C   0  0  0  0  0  0  0  0  0  0  0  0
    2.7821    0.7432    5.6791 C   0  0  0  0  0  0  0  0  0  0  0  0
    4.1846    0.2685    6.1504 C   0  0  0  0  0  0  0  0  0  0  0  0
    2.9734    2.2225    6.1520 C   0  0  0  0  0  0  0  0  0  0  0  0
    1.4588    0.2592    6.6177 C   0  0  2  0  0  0  0  0  0  0  0  0
    1.1535   -1.0656    7.5374 C   0  0  1  0  0  0  0  0  0  0  0  0
    0.1652   -0.7688    8.5150 O   0  0  0  0  0  0  0  0  0  0  0  0
    0.7465   -2.5392    6.9049 C   0  0  1  0  0  0  0  0  0  0  0  0
   -0.3710   -2.7694    6.1495 O   0  0  0  0  0  0  0  0  0  0  0  0
    0.8031   -2.9604    5.2824 C   0  0  2  0  0  0  0  0  0  0  0  0
    0.3633   -1.9918    4.0954 C   0  0  2  0  0  0  0  0  0  0  0  0
    1.3953   -1.7279    2.8102 C   0  0  2  0  0  0  0  0  0  0  0  0
    1.9991   -2.9645    2.8664 O   0  0  0  0  0  0  0  0  0  0  0  0
    2.8918   -2.7647    3.9237 C   0  0  1  0  0  0  0  0  0  0  0  0
    3.6136   -4.1614    3.9432 C   0  0  0  0  0  0  0  0  0  0  0  0
    2.7930   -5.1928    4.4482 O   0  0  0  0  0  0  0  0  0  0  0  0
    3.7636   -1.6397    3.4103 C   0  0  1  0  0  0  0  0  0  0  0  0
    5.2737   -1.5064    3.5593 C   0  0  0  0  0  0  0  0  0  0  0  0
    4.6923   -2.0291    2.3768 O   0  0  0  0  0  0  0  0  0  0  0  0
    2.7133   -0.6227    2.9875 C   0  0  2  0  0  0  0  0  0  0  0  0
    3.0092   -0.0311    1.5518 C   0  0  0  0  0  0  0  0  0  0  0  0
    3.0118   -0.9527    0.4664 O   0  0  0  0  0  0  0  0  0  0  0  0
    2.0792   -2.2063    5.1901 C   0  0  2  0  0  0  0  0  0  0  0  0
    3.1827   -2.5873    6.2920 C   0  0  0  0  0  0  0  0  0  0  0  0
    0.8933   -1.0076    4.8954 C   0  0  2  0  0  0  0  0  0  0  0  0
    0.3207    0.1062    5.7103 C   0  0  2  0  0  0  0  0  0  0  0  0
   -0.1944    1.4281    4.9707 C   0  0  0  0  0  0  0  0  0  0  0  0
   -0.7790    2.3513    6.0744 C   0  0  0  0  0  0  0  0  0  0  0  0
   -1.4244    1.0421    4.0988 C   0  0  0  0  0  0  0  0  0  0  0  0
   -0.2853    4.0229    3.9234 H   0  0  0  0  0  0  0  0  0  0  0  0
   -0.2615    2.9891    2.5083 H   0  0  0  0  0  0  0  0  0  0  0  0
    1.1757    3.9355    2.9252 H   0  0  0  0  0  0  0  0  0  0  0  0
    4.2456    0.1291    7.2362 H   0  0  0  0  0  0  0  0  0  0  0  0
    4.9756    0.9752    5.8875 H   0  0  0  0  0  0  0  0  0  0  0  0
    4.5235   -0.6295    5.6881 H   0  0  0  0  0  0  0  0  0  0  0  0
    3.2757    2.2730    7.2057 H   0  0  0  0  0  0  0  0  0  0  0  0
    2.0865    2.8468    6.1142 H   0  0  0  0  0  0  0  0  0  0  0  0
    3.7398    2.7444    5.5817 H   0  0  0  0  0  0  0  0  0  0  0  0
    1.2424    1.0730    7.3090 H   0  0  0  0  0  0  0  0  0  0  0  0
    1.9671   -1.1807    8.2549 H   0  0  0  0  0  0  0  0  0  0  0  0
    0.4654   -0.0329    9.0336 H   0  0  0  0  0  0  0  0  0  0  0  0
    0.8759   -3.3334    7.6343 H   0  0  0  0  0  0  0  0  0  0  0  0
   -0.7116   -1.9970    3.8892 H   0  0  0  0  0  0  0  0  0  0  0  0
    0.8548   -1.5721    1.8794 H   0  0  0  0  0  0  0  0  0  0  0  0
    3.9186   -4.4357    2.9322 H   0  0  0  0  0  0  0  0  0  0  0  0
    4.5391   -4.1761    4.5186 H   0  0  0  0  0  0  0  0  0  0  0  0
    2.5743   -4.9809    5.3413 H   0  0  0  0  0  0  0  0  0  0  0  0
    5.7315   -0.5228    3.4889 H   0  0  0  0  0  0  0  0  0  0  0  0
    5.7999   -2.2524    4.1508 H   0  0  0  0  0  0  0  0  0  0  0  0
    2.2363    0.6728    1.2455 H   0  0  0  0  0  0  0  0  0  0  0  0
    3.9440    0.5278    1.5462 H   0  0  0  0  0  0  0  0  0  0  0  0
    2.1472   -1.0255    0.0869 H   0  0  0  0  0  0  0  0  0  0  0  0
    4.1914   -2.6488    5.8946 H   0  0  0  0  0  0  0  0  0  0  0  0
    3.0265   -3.5729    6.7372 H   0  0  0  0  0  0  0  0  0  0  0  0
    3.3573   -1.9013    7.0964 H   0  0  0  0  0  0  0  0  0  0  0  0
    0.5312   -0.4573    4.0445 H   0  0  0  0  0  0  0  0  0  0  0  0
   -0.5704   -0.2632    6.2104 H   0  0  0  0  0  0  0  0  0  0  0  0
   -1.4332    1.8182    6.7707 H   0  0  0  0  0  0  0  0  0  0  0  0
   -1.3770    3.1585    5.6473 H   0  0  0  0  0  0  0  0  0  0  0  0
   -0.0019    2.8351    6.6657 H   0  0  0  0  0  0  0  0  0  0  0  0
   -2.1350    0.4084    4.6291 H   0  0  0  0  0  0  0  0  0  0  0  0
   -1.1477    0.5245    3.1801 H   0  0  0  0  0  0  0  0  0  0  0  0
   -1.9883    1.9220    3.7837 H   0  0  0  0  0  0  0  0  0  0  0  0
  1  2  1  0
  1 33  1  0
  1 34  1  0
  1 35  1  0
  2 30  1  0
  2  3  1  0
  3  4  2  0
  4 23  1  0
  4  5  1  0
  5  6  1  0
  5  7  1  0
  5  8  1  0
  6 36  1  0
  6 37  1  0
  6 38  1  0
  7 39  1  0
  7 40  1  0
  7 41  1  0
  8 29  1  0
  8  9  1  0
  8 42  1  1
  9 10  1  0
  9 11  1  0
  9 43  1  1
 10 44  1  0
 11 13  1  0
 11 12  1  0
 11 45  1  1
 13 12  1  6
 13 26  1  0
 13 14  1  0
 14 28  1  0
 14 15  1  0
 14 46  1  6
 15 23  1  0
 15 16  1  0
 15 47  1  6
 16 17  1  0
 17 18  1  1
 17 20  1  0
 17 26  1  0
 18 19  1  0
 18 48  1  0
 18 49  1  0
 19 50  1  0
 20 22  1  6
 20 21  1  0
 20 23  1  0
 21 22  1  0
 21 51  1  0
 21 52  1  0
 23 24  1  6
 24 25  1  0
 24 53  1  0
 24 54  1  0
 25 55  1  0
 26 27  1  1
 26 28  1  0
 27 56  1  0
 27 57  1  0
 27 58  1  0
 28 29  1  0
 28 59  1  6
 29 30  1  0
 29 60  1  1
 30 31  1  0
 30 32  1  0
 31 61  1  0
 31 62  1  0
 31 63  1  0
 32 64  1  0
 32 65  1  0
 32 66  1  0
M  END
>  <i_m_ct_stereo_status>  (296) 
1

>  <s_m_source_file>  (296) 
/var/tmp/pbs.5076255.sched01/tmp6zmtdo5c/111u4f9dq10.sdf

>  <i_m_source_file_index>  (296) 
29

>  <i_lp_mmshare_version>  (296) 
48012

>  <i_f3d_flags>  (296) 
0

>  <s_epik_input>  (296) 
W0NIM11DMShbQ0gzXSlOKFtDSDNdKU49QyhDMihbQ0gzXSlbQ0gzXSlbQ0BAXShbQ0gyXVtPSF0pKFtDQEBdMyhbQ0gyXU8zKVtDQEBdKE80KShbQ0gyXVtPSF0pW0NAXTU2W0NIM10pW0NAQEhdNFtDQEBIXTdbQ0BIXTZbQ0BIXTFbQ0BIXTJbQ0BASF0oW09IXSlbQ0hdKE84KUM1Nzg=

>  <s_epik_cmdline>  (296) 
J2VwaWtfcHl0aG9uJywgJy1waHQnLCAnMi4wJywgJy1waCcsICc3LjAnLCAnLXRuJywgJzgnLCAnLW1hJywgJzIwMCcsICctaW1hZScsICc8aW5maWxlLm1hZT4nLCAnLW9tYWUnLCAnPG91dGZpbGUubWFlPic=

>  <r_lp_tautomer_probability>  (296) 
1

>  <r_epik_Ionization_Penalty>  (296) 
2.60811e-05

>  <r_epik_Ionization_Penalty_Charging>  (296) 
0

>  <r_epik_Ionization_Penalty_Neutral>  (296) 
2.60811e-05

>  <r_epik_State_Penalty>  (296) 
-0

>  <r_epik_Charging_Adjusted_Penalty>  (296) 
0

>  <i_epik_Tot_Q>  (296) 
0

>  <i_epik_Tot_abs_Q>  (296) 
0

>  <s_epik_Chemistry_Notes>  (296) 
This compound has an imine and may undergo hydrolysis.

>  <s_lp_Force_Field>  (296) 
OPLS3e

>  <r_lp_Energy>  (296) 
407.489

>  <b_lp_Chiralities_Consistent>  (296) 
1

>  <s_lp_Variant>  (296) 
112:0-1

>  <s_i_glide_gridfile>  (296) 
pfpi4k_grid

>  <i_i_glide_lignum>  (296) 
29

>  <i_i_glide_rotatable_bonds>  (296) 
5

>  <r_i_docking_score>  (296) 
-1.96655

>  <r_i_glide_ligand_efficiency>  (296) 
-0.0614548

>  <r_i_glide_ligand_efficiency_sa>  (296) 
-0.195107

>  <r_i_glide_ligand_efficiency_ln>  (296) 
-0.440365

>  <r_i_glide_gscore>  (296) 
-1.96655

>  <r_i_glide_lipo>  (296) 
-0.0941361

>  <r_i_glide_hbond>  (296) 
0

>  <r_i_glide_metal>  (296) 
-0

>  <r_i_glide_rewards>  (296) 
-0.364523

>  <r_i_glide_evdw>  (296) 
-16.0368

>  <r_i_glide_ecoul>  (296) 
-5.89741

>  <r_i_glide_erotb>  (296) 
0.20078

>  <r_i_glide_esite>  (296) 
-0.0222229

>  <r_i_glide_emodel>  (296) 
-23.4281

>  <r_i_glide_energy>  (296) 
-21.9342

>  <r_i_glide_einternal>  (296) 
1.74141

>  <r_i_glide_intrahb_reward>  (296) 
-0

>  <i_i_glide_confnum>  (296) 
4

>  <i_i_glide_posenum>  (296) 
35

>  <r_i_glide_eff_state_penalty>  (296) 
0

>  <ligand_id>  (296) 
112

>  <original_smiles>  (296) 
CN1N=C2C(C)(C)C3C(O)C4OC45C4C6OC(CO)(C7(CO7)C26CO)C5(C)C4C3C1(C)C

>  <smiles>  (296) 
[H]OC([H])([H])C12OC3([H])C4([H])C5([H])C6([H])C([H])(C([H])(O[H])C7([H])OC74C51C([H])([H])[H])C(C([H])([H])[H])(C([H])([H])[H])C(=NN(C([H])([H])[H])C6(C([H])([H])[H])C([H])([H])[H])C3(C([H])([H])O[H])C21OC1([H])[H]

$$$$
112:0:1
     RDKit          3D

 66 73  0  0  1  0  0  0  0  0999 V2000
   -0.4260    3.8277    3.3530 C   0  0  0  0  0  0  0  0  0  0  0  0
    0.1564    2.8080    4.2486 N   0  0  0  0  0  0  0  0  0  0  0  0
    1.2246    2.2289    3.6296 N   0  0  0  0  0  0  0  0  0  0  0  0
    2.1513    1.5211    4.2575 C   0  0  0  0  0  0  0  0  0  0  0  0
    2.2755    1.7286    5.9029 C   0  0  0  0  0  0  0  0  0  0  0  0
    3.7193    1.4825    6.4321 C   0  0  0  0  0  0  0  0  0  0  0  0
    2.2541    3.2480    6.2745 C   0  0  0  0  0  0  0  0  0  0  0  0
    1.0128    1.1244    6.8578 C   0  0  2  0  0  0  0  0  0  0  0  0
    0.8690   -0.1668    7.8525 C   0  0  1  0  0  0  0  0  0  0  0  0
   -0.1759    0.0533    8.7858 O   0  0  0  0  0  0  0  0  0  0  0  0
    0.6743   -1.7218    7.3154 C   0  0  1  0  0  0  0  0  0  0  0  0
   -0.3757   -2.1537    6.5625 O   0  0  0  0  0  0  0  0  0  0  0  0
    0.8286   -2.2330    5.7299 C   0  0  2  0  0  0  0  0  0  0  0  0
    0.2869   -1.4205    4.4687 C   0  0  2  0  0  0  0  0  0  0  0  0
    1.3078   -1.1059    3.1986 C   0  0  2  0  0  0  0  0  0  0  0  0
    2.0734   -2.2365    3.3524 O   0  0  0  0  0  0  0  0  0  0  0  0
    2.9076   -1.8452    4.4101 C   0  0  1  0  0  0  0  0  0  0  0  0
    3.8133   -3.1244    4.5337 C   0  0  0  0  0  0  0  0  0  0  0  0
    3.1459   -4.2186    5.1216 O   0  0  0  0  0  0  0  0  0  0  0  0
    3.6361   -0.6434    3.8369 C   0  0  1  0  0  0  0  0  0  0  0  0
    5.1116   -0.2830    4.0002 C   0  0  0  0  0  0  0  0  0  0  0  0
    4.6445   -0.9783    2.8578 O   0  0  0  0  0  0  0  0  0  0  0  0
    2.4574    0.1786    3.3264 C   0  0  2  0  0  0  0  0  0  0  0  0
    2.6943    0.6844    1.8534 C   0  0  0  0  0  0  0  0  0  0  0  0
    2.8982   -0.3179    0.8771 O   0  0  0  0  0  0  0  0  0  0  0  0
    1.9950   -1.3249    5.6124 C   0  0  2  0  0  0  0  0  0  0  0  0
    3.1145   -1.4746    6.7586 C   0  0  0  0  0  0  0  0  0  0  0  0
    0.6625   -0.3194    5.2188 C   0  0  2  0  0  0  0  0  0  0  0  0
   -0.0748    0.7679    5.9388 C   0  0  2  0  0  0  0  0  0  0  0  0
   -0.7467    1.9509    5.1043 C   0  0  0  0  0  0  0  0  0  0  0  0
   -1.4802    2.8483    6.1304 C   0  0  0  0  0  0  0  0  0  0  0  0
   -1.8769    1.3369    4.2377 C   0  0  0  0  0  0  0  0  0  0  0  0
   -1.1596    4.4309    3.8847 H   0  0  0  0  0  0  0  0  0  0  0  0
   -0.9537    3.3331    2.5350 H   0  0  0  0  0  0  0  0  0  0  0  0
    0.3369    4.4829    2.9257 H   0  0  0  0  0  0  0  0  0  0  0  0
    3.7642    1.4290    7.5241 H   0  0  0  0  0  0  0  0  0  0  0  0
    4.4104    2.2707    6.1341 H   0  0  0  0  0  0  0  0  0  0  0  0
    4.1872    0.6097    6.0458 H   0  0  0  0  0  0  0  0  0  0  0  0
    2.5184    3.4020    7.3250 H   0  0  0  0  0  0  0  0  0  0  0  0
    1.2918    3.7374    6.1816 H   0  0  0  0  0  0  0  0  0  0  0  0
    2.9564    3.8269    5.6827 H   0  0  0  0  0  0  0  0  0  0  0  0
    0.6699    1.9509    7.4818 H   0  0  0  0  0  0  0  0  0  0  0  0
    1.6723   -0.1171    8.5849 H   0  0  0  0  0  0  0  0  0  0  0  0
   -0.0141    0.8738    9.2321 H   0  0  0  0  0  0  0  0  0  0  0  0
    0.8963   -2.4413    8.0946 H   0  0  0  0  0  0  0  0  0  0  0  0
   -0.7703   -1.5831    4.2512 H   0  0  0  0  0  0  0  0  0  0  0  0
    0.7747   -1.0891    2.2494 H   0  0  0  0  0  0  0  0  0  0  0  0
    4.1571   -3.4237    3.5467 H   0  0  0  0  0  0  0  0  0  0  0  0
    4.7253   -2.9653    5.1070 H   0  0  0  0  0  0  0  0  0  0  0  0
    2.9234   -3.9872    6.0090 H   0  0  0  0  0  0  0  0  0  0  0  0
    5.4272    0.7469    3.8472 H   0  0  0  0  0  0  0  0  0  0  0  0
    5.7409   -0.8919    4.6471 H   0  0  0  0  0  0  0  0  0  0  0  0
    1.8348    1.2476    1.4828 H   0  0  0  0  0  0  0  0  0  0  0  0
    3.5289    1.3761    1.8325 H   0  0  0  0  0  0  0  0  0  0  0  0
    2.0641   -0.6104    0.5239 H   0  0  0  0  0  0  0  0  0  0  0  0
    4.1302   -1.4229    6.3769 H   0  0  0  0  0  0  0  0  0  0  0  0
    3.0799   -2.4370    7.2621 H   0  0  0  0  0  0  0  0  0  0  0  0
    3.1790   -0.7202    7.5107 H   0  0  0  0  0  0  0  0  0  0  0  0
    0.2386    0.1095    4.3256 H   0  0  0  0  0  0  0  0  0  0  0  0
   -0.9145    0.3128    6.4537 H   0  0  0  0  0  0  0  0  0  0  0  0
   -2.0702    2.2707    6.8437 H   0  0  0  0  0  0  0  0  0  0  0  0
   -2.1683    3.5291    5.6371 H   0  0  0  0  0  0  0  0  0  0  0  0
   -0.7924    3.4681    6.7015 H   0  0  0  0  0  0  0  0  0  0  0  0
   -2.4913    0.6379    4.7992 H   0  0  0  0  0  0  0  0  0  0  0  0
   -1.5085    0.8045    3.3607 H   0  0  0  0  0  0  0  0  0  0  0  0
   -2.5492    2.1068    3.8597 H   0  0  0  0  0  0  0  0  0  0  0  0
  1  2  1  0
  1 33  1  0
  1 34  1  0
  1 35  1  0
  2 30  1  0
  2  3  1  0
  3  4  2  0
  4 23  1  0
  4  5  1  0
  5  6  1  0
  5  7  1  0
  5  8  1  0
  6 36  1  0
  6 37  1  0
  6 38  1  0
  7 39  1  0
  7 40  1  0
  7 41  1  0
  8 29  1  0
  8  9  1  0
  8 42  1  1
  9 10  1  0
  9 11  1  0
  9 43  1  1
 10 44  1  0
 11 13  1  0
 11 12  1  0
 11 45  1  1
 13 12  1  6
 13 26  1  0
 13 14  1  0
 14 28  1  0
 14 15  1  0
 14 46  1  6
 15 23  1  0
 15 16  1  0
 15 47  1  6
 16 17  1  0
 17 18  1  1
 17 20  1  0
 17 26  1  0
 18 19  1  0
 18 48  1  0
 18 49  1  0
 19 50  1  0
 20 22  1  6
 20 21  1  0
 20 23  1  0
 21 22  1  0
 21 51  1  0
 21 52  1  0
 23 24  1  6
 24 25  1  0
 24 53  1  0
 24 54  1  0
 25 55  1  0
 26 27  1  1
 26 28  1  0
 27 56  1  0
 27 57  1  0
 27 58  1  0
 28 29  1  0
 28 59  1  6
 29 30  1  0
 29 60  1  1
 30 31  1  0
 30 32  1  0
 31 61  1  0
 31 62  1  0
 31 63  1  0
 32 64  1  0
 32 65  1  0
 32 66  1  0
M  END
>  <i_m_ct_stereo_status>  (297) 
1

>  <s_m_source_file>  (297) 
/var/tmp/pbs.5076255.sched01/tmp6zmtdo5c/111u4f9dq10.sdf

>  <i_m_source_file_index>  (297) 
29

>  <i_lp_mmshare_version>  (297) 
48012

>  <i_f3d_flags>  (297) 
0

>  <s_epik_input>  (297) 
W0NIM11DMShbQ0gzXSlOKFtDSDNdKU49QyhDMihbQ0gzXSlbQ0gzXSlbQ0BAXShbQ0gyXVtPSF0pKFtDQEBdMyhbQ0gyXU8zKVtDQEBdKE80KShbQ0gyXVtPSF0pW0NAXTU2W0NIM10pW0NAQEhdNFtDQEBIXTdbQ0BIXTZbQ0BIXTFbQ0BIXTJbQ0BASF0oW09IXSlbQ0hdKE84KUM1Nzg=

>  <s_epik_cmdline>  (297) 
J2VwaWtfcHl0aG9uJywgJy1waHQnLCAnMi4wJywgJy1waCcsICc3LjAnLCAnLXRuJywgJzgnLCAnLW1hJywgJzIwMCcsICctaW1hZScsICc8aW5maWxlLm1hZT4nLCAnLW9tYWUnLCAnPG91dGZpbGUubWFlPic=

>  <r_lp_tautomer_probability>  (297) 
1

>  <r_epik_Ionization_Penalty>  (297) 
2.60811e-05

>  <r_epik_Ionization_Penalty_Charging>  (297) 
0

>  <r_epik_Ionization_Penalty_Neutral>  (297) 
2.60811e-05

>  <r_epik_State_Penalty>  (297) 
-0

>  <r_epik_Charging_Adjusted_Penalty>  (297) 
0

>  <i_epik_Tot_Q>  (297) 
0

>  <i_epik_Tot_abs_Q>  (297) 
0

>  <s_epik_Chemistry_Notes>  (297) 
This compound has an imine and may undergo hydrolysis.

>  <s_lp_Force_Field>  (297) 
OPLS3e

>  <r_lp_Energy>  (297) 
407.489

>  <b_lp_Chiralities_Consistent>  (297) 
1

>  <s_lp_Variant>  (297) 
112:0-1

>  <s_i_glide_gridfile>  (297) 
pfpi4k_grid

>  <i_i_glide_lignum>  (297) 
29

>  <i_i_glide_rotatable_bonds>  (297) 
5

>  <r_i_docking_score>  (297) 
-1.86761

>  <r_i_glide_ligand_efficiency>  (297) 
-0.0583629

>  <r_i_glide_ligand_efficiency_sa>  (297) 
-0.185291

>  <r_i_glide_ligand_efficiency_ln>  (297) 
-0.41821

>  <r_i_glide_gscore>  (297) 
-1.86761

>  <r_i_glide_lipo>  (297) 
-0.187038

>  <r_i_glide_hbond>  (297) 
0

>  <r_i_glide_metal>  (297) 
-0

>  <r_i_glide_rewards>  (297) 
-0.364523

>  <r_i_glide_evdw>  (297) 
-16.7895

>  <r_i_glide_ecoul>  (297) 
-4.29215

>  <r_i_glide_erotb>  (297) 
0.20078

>  <r_i_glide_esite>  (297) 
-0.0335331

>  <r_i_glide_emodel>  (297) 
-22.6253

>  <r_i_glide_energy>  (297) 
-21.0817

>  <r_i_glide_einternal>  (297) 
1.4923

>  <r_i_glide_intrahb_reward>  (297) 
-0

>  <i_i_glide_confnum>  (297) 
4

>  <i_i_glide_posenum>  (297) 
22

>  <r_i_glide_eff_state_penalty>  (297) 
0

>  <ligand_id>  (297) 
112

>  <original_smiles>  (297) 
CN1N=C2C(C)(C)C3C(O)C4OC45C4C6OC(CO)(C7(CO7)C26CO)C5(C)C4C3C1(C)C

>  <smiles>  (297) 
[H]OC([H])([H])C12OC3([H])C4([H])C5([H])C6([H])C([H])(C([H])(O[H])C7([H])OC74C51C([H])([H])[H])C(C([H])([H])[H])(C([H])([H])[H])C(=NN(C([H])([H])[H])C6(C([H])([H])[H])C([H])([H])[H])C3(C([H])([H])O[H])C21OC1([H])[H]

$$$$
112:0:2
     RDKit          3D

 66 73  0  0  1  0  0  0  0  0999 V2000
   -0.8900    4.7586    3.9318 C   0  0  0  0  0  0  0  0  0  0  0  0
   -0.3723    3.6205    4.7005 N   0  0  0  0  0  0  0  0  0  0  0  0
    0.8384    3.9856    5.2628 N   0  0  0  0  0  0  0  0  0  0  0  0
    1.4422    3.3266    6.2007 C   0  0  0  0  0  0  0  0  0  0  0  0
    0.5077    2.3443    7.1830 C   0  0  0  0  0  0  0  0  0  0  0  0
    1.0895    2.2197    8.6196 C   0  0  0  0  0  0  0  0  0  0  0  0
   -0.7830    3.1193    7.6094 C   0  0  0  0  0  0  0  0  0  0  0  0
   -0.1293    0.9414    6.4805 C   0  0  2  0  0  0  0  0  0  0  0  0
    0.2095   -0.6583    6.6494 C   0  0  1  0  0  0  0  0  0  0  0  0
   -0.9322   -1.4222    6.2734 O   0  0  0  0  0  0  0  0  0  0  0  0
    1.5001   -1.4060    5.9631 C   0  0  1  0  0  0  0  0  0  0  0  0
    1.7286   -1.4717    4.6059 O   0  0  0  0  0  0  0  0  0  0  0  0
    2.7342   -0.5972    5.1977 C   0  0  2  0  0  0  0  0  0  0  0  0
    2.6419    0.6524    4.2290 C   0  0  2  0  0  0  0  0  0  0  0  0
    3.5307    2.0502    4.5131 C   0  0  2  0  0  0  0  0  0  0  0  0
    4.6243    1.4054    5.0428 O   0  0  0  0  0  0  0  0  0  0  0  0
    4.1747    1.1540    6.3397 C   0  0  1  0  0  0  0  0  0  0  0  0
    5.4288    0.4430    6.9489 C   0  0  0  0  0  0  0  0  0  0  0  0
    5.5872   -0.8696    6.4533 O   0  0  0  0  0  0  0  0  0  0  0  0
    3.9351    2.5717    6.8395 C   0  0  1  0  0  0  0  0  0  0  0  0
    4.2984    3.0780    8.2198 C   0  0  0  0  0  0  0  0  0  0  0  0
    5.1459    3.3138    7.0890 O   0  0  0  0  0  0  0  0  0  0  0  0
    3.0438    3.1452    5.7544 C   0  0  2  0  0  0  0  0  0  0  0  0
    3.5571    4.5465    5.2789 C   0  0  0  0  0  0  0  0  0  0  0  0
    3.4655    5.5656    6.2639 O   0  0  0  0  0  0  0  0  0  0  0  0
    2.7490    0.4076    6.2726 C   0  0  2  0  0  0  0  0  0  0  0  0
    2.7577   -0.1521    7.7691 C   0  0  0  0  0  0  0  0  0  0  0  0
    1.6250    0.9993    5.1057 C   0  0  2  0  0  0  0  0  0  0  0  0
    0.1005    1.0263    5.0278 C   0  0  2  0  0  0  0  0  0  0  0  0
   -0.6208    2.2100    4.2404 C   0  0  0  0  0  0  0  0  0  0  0  0
   -2.1344    1.9358    4.3154 C   0  0  0  0  0  0  0  0  0  0  0  0
   -0.2521    2.0784    2.7386 C   0  0  0  0  0  0  0  0  0  0  0  0
   -1.9393    4.6091    3.6892 H   0  0  0  0  0  0  0  0  0  0  0  0
   -0.3479    4.8421    2.9876 H   0  0  0  0  0  0  0  0  0  0  0  0
   -0.7687    5.7087    4.4664 H   0  0  0  0  0  0  0  0  0  0  0  0
    0.5877    1.4524    9.2082 H   0  0  0  0  0  0  0  0  0  0  0  0
    1.0001    3.1500    9.1844 H   0  0  0  0  0  0  0  0  0  0  0  0
    2.1407    2.0381    8.6592 H   0  0  0  0  0  0  0  0  0  0  0  0
   -1.3216    2.5828    8.3920 H   0  0  0  0  0  0  0  0  0  0  0  0
   -1.5183    3.2541    6.8273 H   0  0  0  0  0  0  0  0  0  0  0  0
   -0.5572    4.1140    7.9933 H   0  0  0  0  0  0  0  0  0  0  0  0
   -1.2048    0.9740    6.6538 H   0  0  0  0  0  0  0  0  0  0  0  0
    0.1560   -0.8988    7.7060 H   0  0  0  0  0  0  0  0  0  0  0  0
   -0.9914   -1.4125    5.3250 H   0  0  0  0  0  0  0  0  0  0  0  0
    1.7243   -2.3550    6.4293 H   0  0  0  0  0  0  0  0  0  0  0  0
    2.3825    0.4334    3.1949 H   0  0  0  0  0  0  0  0  0  0  0  0
    3.7687    2.5673    3.5867 H   0  0  0  0  0  0  0  0  0  0  0  0
    6.3278    1.0090    6.7009 H   0  0  0  0  0  0  0  0  0  0  0  0
    5.4266    0.3854    8.0354 H   0  0  0  0  0  0  0  0  0  0  0  0
    5.6753   -0.8056    5.5101 H   0  0  0  0  0  0  0  0  0  0  0  0
    3.7598    3.9328    8.6167 H   0  0  0  0  0  0  0  0  0  0  0  0
    4.6994    2.3680    8.9415 H   0  0  0  0  0  0  0  0  0  0  0  0
    4.5875    4.4958    4.9365 H   0  0  0  0  0  0  0  0  0  0  0  0
    3.0063    4.8817    4.4002 H   0  0  0  0  0  0  0  0  0  0  0  0
    4.0306    5.3180    6.9848 H   0  0  0  0  0  0  0  0  0  0  0  0
    3.3826    0.4122    8.4457 H   0  0  0  0  0  0  0  0  0  0  0  0
    3.1746   -1.1591    7.8272 H   0  0  0  0  0  0  0  0  0  0  0  0
    1.8411   -0.1526    8.3310 H   0  0  0  0  0  0  0  0  0  0  0  0
    1.5556    1.8008    4.3985 H   0  0  0  0  0  0  0  0  0  0  0  0
   -0.2123    0.1351    4.4919 H   0  0  0  0  0  0  0  0  0  0  0  0
   -2.3546    0.8909    4.0908 H   0  0  0  0  0  0  0  0  0  0  0  0
   -2.6911    2.5322    3.5906 H   0  0  0  0  0  0  0  0  0  0  0  0
   -2.5715    2.1582    5.2917 H   0  0  0  0  0  0  0  0  0  0  0  0
   -0.3370    1.0528    2.3787 H   0  0  0  0  0  0  0  0  0  0  0  0
    0.7602    2.4204    2.5097 H   0  0  0  0  0  0  0  0  0  0  0  0
   -0.9171    2.6685    2.1097 H   0  0  0  0  0  0  0  0  0  0  0  0
  1  2  1  0
  1 33  1  0
  1 34  1  0
  1 35  1  0
  2 30  1  0
  2  3  1  0
  3  4  2  0
  4 23  1  0
  4  5  1  0
  5  6  1  0
  5  7  1  0
  5  8  1  0
  6 36  1  0
  6 37  1  0
  6 38  1  0
  7 39  1  0
  7 40  1  0
  7 41  1  0
  8 29  1  0
  8  9  1  0
  8 42  1  6
  9 10  1  0
  9 11  1  0
  9 43  1  1
 10 44  1  0
 11 13  1  0
 11 12  1  0
 11 45  1  1
 13 12  1  1
 13 26  1  0
 13 14  1  0
 14 28  1  0
 14 15  1  0
 14 46  1  6
 15 23  1  0
 15 16  1  0
 15 47  1  6
 16 17  1  0
 17 18  1  1
 17 20  1  0
 17 26  1  0
 18 19  1  0
 18 48  1  0
 18 49  1  0
 19 50  1  0
 20 22  1  6
 20 21  1  0
 20 23  1  0
 21 22  1  0
 21 51  1  0
 21 52  1  0
 23 24  1  6
 24 25  1  0
 24 53  1  0
 24 54  1  0
 25 55  1  0
 26 27  1  1
 26 28  1  0
 27 56  1  0
 27 57  1  0
 27 58  1  0
 28 29  1  0
 28 59  1  1
 29 30  1  0
 29 60  1  6
 30 31  1  0
 30 32  1  0
 31 61  1  0
 31 62  1  0
 31 63  1  0
 32 64  1  0
 32 65  1  0
 32 66  1  0
M  END
>  <i_m_ct_stereo_status>  (298) 
1

>  <s_m_source_file>  (298) 
/var/tmp/pbs.5076255.sched01/tmp6zmtdo5c/111u4f9dq10.sdf

>  <i_m_source_file_index>  (298) 
29

>  <i_lp_mmshare_version>  (298) 
48012

>  <i_f3d_flags>  (298) 
0

>  <s_epik_input>  (298) 
W0NIM11DMShbQ0gzXSlOKFtDSDNdKU49QyhDMihbQ0gzXSlbQ0gzXSlbQ0BAXShbQ0gyXVtPSF0pKFtDQEBdMyhbQ0gyXU8zKVtDQEBdKE80KShbQ0gyXVtPSF0pW0NAXTU2W0NIM10pW0NAQEhdNFtDQEBIXTdbQ0BIXTZbQ0BIXTFbQ0BIXTJbQ0BASF0oW09IXSlbQ0hdKE84KUM1Nzg=

>  <s_epik_cmdline>  (298) 
J2VwaWtfcHl0aG9uJywgJy1waHQnLCAnMi4wJywgJy1waCcsICc3LjAnLCAnLXRuJywgJzgnLCAnLW1hJywgJzIwMCcsICctaW1hZScsICc8aW5maWxlLm1hZT4nLCAnLW9tYWUnLCAnPG91dGZpbGUubWFlPic=

>  <r_lp_tautomer_probability>  (298) 
1

>  <r_epik_Ionization_Penalty>  (298) 
2.60811e-05

>  <r_epik_Ionization_Penalty_Charging>  (298) 
0

>  <r_epik_Ionization_Penalty_Neutral>  (298) 
2.60811e-05

>  <r_epik_State_Penalty>  (298) 
-0

>  <r_epik_Charging_Adjusted_Penalty>  (298) 
0

>  <i_epik_Tot_Q>  (298) 
0

>  <i_epik_Tot_abs_Q>  (298) 
0

>  <s_epik_Chemistry_Notes>  (298) 
This compound has an imine and may undergo hydrolysis.

>  <s_lp_Force_Field>  (298) 
OPLS3e

>  <r_lp_Energy>  (298) 
407.489

>  <b_lp_Chiralities_Consistent>  (298) 
1

>  <s_lp_Variant>  (298) 
112:0-1

>  <s_i_glide_gridfile>  (298) 
pfpi4k_grid

>  <i_i_glide_lignum>  (298) 
29

>  <i_i_glide_rotatable_bonds>  (298) 
5

>  <r_i_docking_score>  (298) 
-1.20073

>  <r_i_glide_ligand_efficiency>  (298) 
-0.0375227

>  <r_i_glide_ligand_efficiency_sa>  (298) 
-0.119127

>  <r_i_glide_ligand_efficiency_ln>  (298) 
-0.268875

>  <r_i_glide_gscore>  (298) 
-1.20073

>  <r_i_glide_lipo>  (298) 
-0.00858889

>  <r_i_glide_hbond>  (298) 
0

>  <r_i_glide_metal>  (298) 
-0

>  <r_i_glide_rewards>  (298) 
-0.364523

>  <r_i_glide_evdw>  (298) 
-14.1554

>  <r_i_glide_ecoul>  (298) 
-1.94673

>  <r_i_glide_erotb>  (298) 
0.20078

>  <r_i_glide_esite>  (298) 
-0.028615

>  <r_i_glide_emodel>  (298) 
-17.4707

>  <r_i_glide_energy>  (298) 
-16.1021

>  <r_i_glide_einternal>  (298) 
0.0498509

>  <r_i_glide_intrahb_reward>  (298) 
-0

>  <i_i_glide_confnum>  (298) 
1

>  <i_i_glide_posenum>  (298) 
18

>  <r_i_glide_eff_state_penalty>  (298) 
0

>  <ligand_id>  (298) 
112

>  <original_smiles>  (298) 
CN1N=C2C(C)(C)C3C(O)C4OC45C4C6OC(CO)(C7(CO7)C26CO)C5(C)C4C3C1(C)C

>  <smiles>  (298) 
[H]OC([H])([H])C12OC3([H])C4([H])C5([H])C6([H])C([H])(C([H])(O[H])C7([H])OC74C51C([H])([H])[H])C(C([H])([H])[H])(C([H])([H])[H])C(=NN(C([H])([H])[H])C6(C([H])([H])[H])C([H])([H])[H])C3(C([H])([H])O[H])C21OC1([H])[H]

$$$$
112:1:0
     RDKit          3D

 66 73  0  0  1  0  0  0  0  0999 V2000
    2.2189    4.6962    3.4760 C   0  0  0  0  0  0  0  0  0  0  0  0
    1.7853    3.5177    4.2410 N   0  0  0  0  0  0  0  0  0  0  0  0
    2.5608    2.4695    3.8666 N   0  0  0  0  0  0  0  0  0  0  0  0
    2.6160    1.3273    4.5338 C   0  0  0  0  0  0  0  0  0  0  0  0
    2.1934    1.3636    6.1507 C   0  0  0  0  0  0  0  0  0  0  0  0
    3.0498    0.3509    6.9856 C   0  0  0  0  0  0  0  0  0  0  0  0
    2.8174    2.6273    6.8470 C   0  0  0  0  0  0  0  0  0  0  0  0
    0.5374    1.5647    6.5671 C   0  0  2  0  0  0  0  0  0  0  0  0
   -0.7115    0.5474    7.0500 C   0  0  1  0  0  0  0  0  0  0  0  0
   -1.6675    1.3228    7.7468 O   0  0  0  0  0  0  0  0  0  0  0  0
   -1.6335   -0.2307    5.9181 C   0  0  2  0  0  0  0  0  0  0  0  0
   -1.8582   -1.5794    5.7648 O   0  0  0  0  0  0  0  0  0  0  0  0
   -0.8304   -1.1544    4.7993 C   0  0  1  0  0  0  0  0  0  0  0  0
   -0.5147   -0.1266    3.6144 C   0  0  2  0  0  0  0  0  0  0  0  0
    0.9282   -0.4002    2.7510 C   0  0  2  0  0  0  0  0  0  0  0  0
    1.0070   -1.7709    2.8986 O   0  0  0  0  0  0  0  0  0  0  0  0
    1.4523   -1.9045    4.2244 C   0  0  1  0  0  0  0  0  0  0  0  0
    1.4761   -3.4588    4.4149 C   0  0  0  0  0  0  0  0  0  0  0  0
    0.1727   -3.9776    4.6362 O   0  0  0  0  0  0  0  0  0  0  0  0
    2.8141   -1.2791    4.0706 C   0  0  1  0  0  0  0  0  0  0  0  0
    4.1070   -1.7749    4.7076 C   0  0  0  0  0  0  0  0  0  0  0  0
    3.7776   -2.0957    3.3626 O   0  0  0  0  0  0  0  0  0  0  0  0
    2.4591    0.0701    3.4231 C   0  0  2  0  0  0  0  0  0  0  0  0
    3.4135    0.3853    2.2062 C   0  0  0  0  0  0  0  0  0  0  0  0
    3.3725   -0.5314    1.1200 O   0  0  0  0  0  0  0  0  0  0  0  0
    0.5581   -0.9701    5.1743 C   0  0  2  0  0  0  0  0  0  0  0  0
    0.8389   -1.6605    6.5810 C   0  0  0  0  0  0  0  0  0  0  0  0
    0.1596    0.6219    4.5793 C   0  0  2  0  0  0  0  0  0  0  0  0
   -0.1164    1.9498    5.2887 C   0  0  2  0  0  0  0  0  0  0  0  0
    0.3153    3.3232    4.5835 C   0  0  0  0  0  0  0  0  0  0  0  0
   -0.1462    4.4744    5.5211 C   0  0  0  0  0  0  0  0  0  0  0  0
   -0.5397    3.4915    3.3121 C   0  0  0  0  0  0  0  0  0  0  0  0
    1.7993    5.6074    3.8857 H   0  0  0  0  0  0  0  0  0  0  0  0
    1.8666    4.6045    2.4528 H   0  0  0  0  0  0  0  0  0  0  0  0
    3.3003    4.7904    3.4531 H   0  0  0  0  0  0  0  0  0  0  0  0
    2.7487    0.2990    8.0389 H   0  0  0  0  0  0  0  0  0  0  0  0
    4.1088    0.6153    6.9832 H   0  0  0  0  0  0  0  0  0  0  0  0
    3.0620   -0.6483    6.6042 H   0  0  0  0  0  0  0  0  0  0  0  0
    2.7237    2.5804    7.9386 H   0  0  0  0  0  0  0  0  0  0  0  0
    2.3430    3.5722    6.6043 H   0  0  0  0  0  0  0  0  0  0  0  0
    3.8758    2.7528    6.6128 H   0  0  0  0  0  0  0  0  0  0  0  0
    0.4667    2.3964    7.2626 H   0  0  0  0  0  0  0  0  0  0  0  0
   -0.4966   -0.0837    7.9058 H   0  0  0  0  0  0  0  0  0  0  0  0
   -1.7918    2.1450    7.3125 H   0  0  0  0  0  0  0  0  0  0  0  0
   -2.5034    0.3093    5.5996 H   0  0  0  0  0  0  0  0  0  0  0  0
   -1.3420    0.3014    3.0607 H   0  0  0  0  0  0  0  0  0  0  0  0
    0.8247   -0.1312    1.6973 H   0  0  0  0  0  0  0  0  0  0  0  0
    1.8844   -3.9203    3.5220 H   0  0  0  0  0  0  0  0  0  0  0  0
    2.1244   -3.7965    5.2294 H   0  0  0  0  0  0  0  0  0  0  0  0
   -0.3565   -3.7710    3.8770 H   0  0  0  0  0  0  0  0  0  0  0  0
    4.9388   -1.0840    4.8445 H   0  0  0  0  0  0  0  0  0  0  0  0
    4.0625   -2.6213    5.3921 H   0  0  0  0  0  0  0  0  0  0  0  0
    3.1356    1.3515    1.7743 H   0  0  0  0  0  0  0  0  0  0  0  0
    4.4398    0.4832    2.5623 H   0  0  0  0  0  0  0  0  0  0  0  0
    2.4888   -0.5577    0.7770 H   0  0  0  0  0  0  0  0  0  0  0  0
    1.7062   -2.3032    6.6026 H   0  0  0  0  0  0  0  0  0  0  0  0
    0.0305   -2.2942    6.9247 H   0  0  0  0  0  0  0  0  0  0  0  0
    1.1051   -1.0328    7.4023 H   0  0  0  0  0  0  0  0  0  0  0  0
    0.4035    1.2527    3.7406 H   0  0  0  0  0  0  0  0  0  0  0  0
   -1.1903    2.1213    5.3839 H   0  0  0  0  0  0  0  0  0  0  0  0
   -1.1830    4.3318    5.8319 H   0  0  0  0  0  0  0  0  0  0  0  0
   -0.0850    5.4413    5.0151 H   0  0  0  0  0  0  0  0  0  0  0  0
    0.4638    4.5416    6.4272 H   0  0  0  0  0  0  0  0  0  0  0  0
   -1.5839    3.2668    3.4679 H   0  0  0  0  0  0  0  0  0  0  0  0
   -0.1955    2.8473    2.4746 H   0  0  0  0  0  0  0  0  0  0  0  0
   -0.4965    4.5134    2.9128 H   0  0  0  0  0  0  0  0  0  0  0  0
  1  2  1  0
  1 33  1  0
  1 34  1  0
  1 35  1  0
  2 30  1  0
  2  3  1  0
  3  4  2  0
  4 23  1  0
  4  5  1  0
  5  6  1  0
  5  7  1  0
  5  8  1  0
  6 36  1  0
  6 37  1  0
  6 38  1  0
  7 39  1  0
  7 40  1  0
  7 41  1  0
  8 29  1  0
  8  9  1  0
  8 42  1  1
  9 10  1  0
  9 11  1  0
  9 43  1  1
 10 44  1  0
 11 13  1  0
 11 12  1  0
 11 45  1  6
 13 12  1  6
 13 26  1  0
 13 14  1  0
 14 28  1  0
 14 15  1  0
 14 46  1  6
 15 23  1  0
 15 16  1  0
 15 47  1  6
 16 17  1  0
 17 18  1  1
 17 20  1  0
 17 26  1  0
 18 19  1  0
 18 48  1  0
 18 49  1  0
 19 50  1  0
 20 22  1  6
 20 21  1  0
 20 23  1  0
 21 22  1  0
 21 51  1  0
 21 52  1  0
 23 24  1  6
 24 25  1  0
 24 53  1  0
 24 54  1  0
 25 55  1  0
 26 27  1  1
 26 28  1  0
 27 56  1  0
 27 57  1  0
 27 58  1  0
 28 29  1  0
 28 59  1  6
 29 30  1  0
 29 60  1  1
 30 31  1  0
 30 32  1  0
 31 61  1  0
 31 62  1  0
 31 63  1  0
 32 64  1  0
 32 65  1  0
 32 66  1  0
M  END
>  <i_m_ct_stereo_status>  (299) 
1

>  <s_m_source_file>  (299) 
/var/tmp/pbs.5076255.sched01/tmp6zmtdo5c/111u4f9dq10.sdf

>  <i_m_source_file_index>  (299) 
30

>  <i_lp_mmshare_version>  (299) 
48012

>  <i_f3d_flags>  (299) 
0

>  <s_epik_input>  (299) 
W0NIM11DMShbQ0gzXSlOKFtDSDNdKU49QyhDMihbQ0gzXSlbQ0gzXSlbQ0BAXShbQ0gyXVtPSF0pKFtDQEBdMyhbQ0gyXU8zKVtDQEBdKE80KShbQ0gyXVtPSF0pW0NAXTU2W0NIM10pW0NAQEhdNFtDQEBIXTdbQ0BIXTZbQ0BIXTFbQ0BIXTJbQ0BASF0oW09IXSlbQ0hdKE84KUM1Nzg=

>  <s_epik_cmdline>  (299) 
J2VwaWtfcHl0aG9uJywgJy1waHQnLCAnMi4wJywgJy1waCcsICc3LjAnLCAnLXRuJywgJzgnLCAnLW1hJywgJzIwMCcsICctaW1hZScsICc8aW5maWxlLm1hZT4nLCAnLW9tYWUnLCAnPG91dGZpbGUubWFlPic=

>  <r_lp_tautomer_probability>  (299) 
1

>  <r_epik_Ionization_Penalty>  (299) 
2.60811e-05

>  <r_epik_Ionization_Penalty_Charging>  (299) 
0

>  <r_epik_Ionization_Penalty_Neutral>  (299) 
2.60811e-05

>  <r_epik_State_Penalty>  (299) 
-0

>  <r_epik_Charging_Adjusted_Penalty>  (299) 
0

>  <i_epik_Tot_Q>  (299) 
0

>  <i_epik_Tot_abs_Q>  (299) 
0

>  <s_epik_Chemistry_Notes>  (299) 
This compound has an imine and may undergo hydrolysis.

>  <s_lp_Force_Field>  (299) 
OPLS3e

>  <r_lp_Energy>  (299) 
414.688

>  <b_lp_Chiralities_Consistent>  (299) 
1

>  <s_lp_Variant>  (299) 
112:0-2

>  <s_i_glide_gridfile>  (299) 
pfpi4k_grid

>  <i_i_glide_lignum>  (299) 
30

>  <i_i_glide_rotatable_bonds>  (299) 
5

>  <r_i_docking_score>  (299) 
-2.21103

>  <r_i_glide_ligand_efficiency>  (299) 
-0.0690946

>  <r_i_glide_ligand_efficiency_sa>  (299) 
-0.219362

>  <r_i_glide_ligand_efficiency_ln>  (299) 
-0.495109

>  <r_i_glide_gscore>  (299) 
-2.21103

>  <r_i_glide_lipo>  (299) 
-0.0662886

>  <r_i_glide_hbond>  (299) 
-0.104466

>  <r_i_glide_metal>  (299) 
-0

>  <r_i_glide_rewards>  (299) 
-0.364523

>  <r_i_glide_evdw>  (299) 
-19.9083

>  <r_i_glide_ecoul>  (299) 
-5.72726

>  <r_i_glide_erotb>  (299) 
0.20078

>  <r_i_glide_esite>  (299) 
-0.022024

>  <r_i_glide_emodel>  (299) 
-28.6326

>  <r_i_glide_energy>  (299) 
-25.6356

>  <r_i_glide_einternal>  (299) 
0.780142

>  <r_i_glide_intrahb_reward>  (299) 
-0

>  <i_i_glide_confnum>  (299) 
3

>  <i_i_glide_posenum>  (299) 
39

>  <r_i_glide_eff_state_penalty>  (299) 
0

>  <ligand_id>  (299) 
112

>  <original_smiles>  (299) 
CN1N=C2C(C)(C)C3C(O)C4OC45C4C6OC(CO)(C7(CO7)C26CO)C5(C)C4C3C1(C)C

>  <smiles>  (299) 
[H]OC([H])([H])C12OC3([H])C4([H])C5([H])C6([H])C([H])(C([H])(O[H])C7([H])OC74C51C([H])([H])[H])C(C([H])([H])[H])(C([H])([H])[H])C(=NN(C([H])([H])[H])C6(C([H])([H])[H])C([H])([H])[H])C3(C([H])([H])O[H])C21OC1([H])[H]

$$$$
112:1:1
     RDKit          3D

 66 73  0  0  1  0  0  0  0  0999 V2000
    2.5541    5.2342    2.9465 C   0  0  0  0  0  0  0  0  0  0  0  0
    2.0320    4.3693    4.0218 N   0  0  0  0  0  0  0  0  0  0  0  0
    2.3486    3.0983    3.7167 N   0  0  0  0  0  0  0  0  0  0  0  0
    2.2469    2.1014    4.5990 C   0  0  0  0  0  0  0  0  0  0  0  0
    2.3149    2.4990    6.2136 C   0  0  0  0  0  0  0  0  0  0  0  0
    3.0576    1.3956    7.0456 C   0  0  0  0  0  0  0  0  0  0  0  0
    3.4303    3.5778    6.4701 C   0  0  0  0  0  0  0  0  0  0  0  0
    0.9493    3.2647    6.9247 C   0  0  2  0  0  0  0  0  0  0  0  0
   -0.3525    2.7674    7.8762 C   0  0  1  0  0  0  0  0  0  0  0  0
   -0.8093    3.9421    8.5201 O   0  0  0  0  0  0  0  0  0  0  0  0
   -1.7167    2.1278    7.1717 C   0  0  2  0  0  0  0  0  0  0  0  0
   -2.3161    0.8748    7.2690 O   0  0  0  0  0  0  0  0  0  0  0  0
   -1.4830    0.8956    6.0893 C   0  0  1  0  0  0  0  0  0  0  0  0
   -1.2749    1.6047    4.6904 C   0  0  2  0  0  0  0  0  0  0  0  0
   -0.2403    0.7770    3.6265 C   0  0  2  0  0  0  0  0  0  0  0  0
   -0.5277   -0.5018    4.0571 O   0  0  0  0  0  0  0  0  0  0  0  0
    0.2249   -0.5940    5.2400 C   0  0  1  0  0  0  0  0  0  0  0  0
   -0.1335   -2.0442    5.7312 C   0  0  0  0  0  0  0  0  0  0  0  0
   -1.4917   -2.1818    6.0741 O   0  0  0  0  0  0  0  0  0  0  0  0
    1.6105   -0.4684    4.6947 C   0  0  1  0  0  0  0  0  0  0  0  0
    2.8402   -1.2569    5.1429 C   0  0  0  0  0  0  0  0  0  0  0  0
    2.0847   -1.6576    4.0170 O   0  0  0  0  0  0  0  0  0  0  0  0
    1.4781    0.8170    3.8492 C   0  0  2  0  0  0  0  0  0  0  0  0
    2.1120    0.6399    2.4255 C   0  0  0  0  0  0  0  0  0  0  0  0
    1.5787   -0.4622    1.7302 O   0  0  0  0  0  0  0  0  0  0  0  0
   -0.0709    0.7005    6.1371 C   0  0  2  0  0  0  0  0  0  0  0  0
    0.3585    0.1570    7.5688 C   0  0  0  0  0  0  0  0  0  0  0  0
   -0.1929    2.2352    5.3139 C   0  0  2  0  0  0  0  0  0  0  0  0
    0.1166    3.6605    5.7604 C   0  0  2  0  0  0  0  0  0  0  0  0
    0.7109    4.7076    4.6972 C   0  0  0  0  0  0  0  0  0  0  0  0
    0.8453    6.0665    5.4362 C   0  0  0  0  0  0  0  0  0  0  0  0
   -0.3737    4.9572    3.6085 C   0  0  0  0  0  0  0  0  0  0  0  0
    2.5208    6.2771    3.2332 H   0  0  0  0  0  0  0  0  0  0  0  0
    1.9211    5.1147    2.0766 H   0  0  0  0  0  0  0  0  0  0  0  0
    3.5707    4.9719    2.6675 H   0  0  0  0  0  0  0  0  0  0  0  0
    3.0491    1.5931    8.1243 H   0  0  0  0  0  0  0  0  0  0  0  0
    4.1055    1.3032    6.7574 H   0  0  0  0  0  0  0  0  0  0  0  0
    2.6908    0.4052    6.9016 H   0  0  0  0  0  0  0  0  0  0  0  0
    3.6253    3.7148    7.5402 H   0  0  0  0  0  0  0  0  0  0  0  0
    3.1893    4.5834    6.1392 H   0  0  0  0  0  0  0  0  0  0  0  0
    4.3775    3.3211    5.9933 H   0  0  0  0  0  0  0  0  0  0  0  0
    1.3047    4.1682    7.4159 H   0  0  0  0  0  0  0  0  0  0  0  0
   -0.0953    2.2578    8.7930 H   0  0  0  0  0  0  0  0  0  0  0  0
   -1.2894    3.7123    9.3008 H   0  0  0  0  0  0  0  0  0  0  0  0
   -2.4625    2.8666    6.9237 H   0  0  0  0  0  0  0  0  0  0  0  0
   -2.0733    2.2069    4.2616 H   0  0  0  0  0  0  0  0  0  0  0  0
   -0.5341    0.9038    2.5878 H   0  0  0  0  0  0  0  0  0  0  0  0
    0.0533   -2.7409    4.9244 H   0  0  0  0  0  0  0  0  0  0  0  0
    0.4668   -2.4036    6.5676 H   0  0  0  0  0  0  0  0  0  0  0  0
   -1.6569   -3.1093    6.1820 H   0  0  0  0  0  0  0  0  0  0  0  0
    3.8347   -0.8717    4.9276 H   0  0  0  0  0  0  0  0  0  0  0  0
    2.7639   -1.9383    5.9956 H   0  0  0  0  0  0  0  0  0  0  0  0
    1.8946    1.5338    1.8310 H   0  0  0  0  0  0  0  0  0  0  0  0
    3.2031    0.5818    2.4816 H   0  0  0  0  0  0  0  0  0  0  0  0
    1.4465   -0.2418    0.7954 H   0  0  0  0  0  0  0  0  0  0  0  0
    1.0002   -0.7018    7.5409 H   0  0  0  0  0  0  0  0  0  0  0  0
   -0.4640   -0.1308    8.2109 H   0  0  0  0  0  0  0  0  0  0  0  0
    0.9852    0.7913    8.1540 H   0  0  0  0  0  0  0  0  0  0  0  0
   -0.0340    2.6316    4.3351 H   0  0  0  0  0  0  0  0  0  0  0  0
   -0.7958    4.1802    6.0530 H   0  0  0  0  0  0  0  0  0  0  0  0
   -0.0655    6.3046    5.9858 H   0  0  0  0  0  0  0  0  0  0  0  0
    1.0286    6.8841    4.7332 H   0  0  0  0  0  0  0  0  0  0  0  0
    1.6688    6.0616    6.1547 H   0  0  0  0  0  0  0  0  0  0  0  0
   -1.3547    5.0877    4.0489 H   0  0  0  0  0  0  0  0  0  0  0  0
   -0.4596    4.1406    2.8879 H   0  0  0  0  0  0  0  0  0  0  0  0
   -0.1604    5.8516    3.0172 H   0  0  0  0  0  0  0  0  0  0  0  0
  1  2  1  0
  1 33  1  0
  1 34  1  0
  1 35  1  0
  2 30  1  0
  2  3  1  0
  3  4  2  0
  4 23  1  0
  4  5  1  0
  5  6  1  0
  5  7  1  0
  5  8  1  0
  6 36  1  0
  6 37  1  0
  6 38  1  0
  7 39  1  0
  7 40  1  0
  7 41  1  0
  8 29  1  0
  8  9  1  0
  8 42  1  1
  9 10  1  0
  9 11  1  0
  9 43  1  1
 10 44  1  0
 11 13  1  0
 11 12  1  0
 11 45  1  6
 13 12  1  6
 13 26  1  0
 13 14  1  0
 14 28  1  0
 14 15  1  0
 14 46  1  6
 15 23  1  0
 15 16  1  0
 15 47  1  6
 16 17  1  0
 17 18  1  1
 17 20  1  0
 17 26  1  0
 18 19  1  0
 18 48  1  0
 18 49  1  0
 19 50  1  0
 20 22  1  6
 20 21  1  0
 20 23  1  0
 21 22  1  0
 21 51  1  0
 21 52  1  0
 23 24  1  6
 24 25  1  0
 24 53  1  0
 24 54  1  0
 25 55  1  0
 26 27  1  1
 26 28  1  0
 27 56  1  0
 27 57  1  0
 27 58  1  0
 28 29  1  0
 28 59  1  6
 29 30  1  0
 29 60  1  1
 30 31  1  0
 30 32  1  0
 31 61  1  0
 31 62  1  0
 31 63  1  0
 32 64  1  0
 32 65  1  0
 32 66  1  0
M  END
>  <i_m_ct_stereo_status>  (300) 
1

>  <s_m_source_file>  (300) 
/var/tmp/pbs.5076255.sched01/tmp6zmtdo5c/111u4f9dq10.sdf

>  <i_m_source_file_index>  (300) 
30

>  <i_lp_mmshare_version>  (300) 
48012

>  <i_f3d_flags>  (300) 
0

>  <s_epik_input>  (300) 
W0NIM11DMShbQ0gzXSlOKFtDSDNdKU49QyhDMihbQ0gzXSlbQ0gzXSlbQ0BAXShbQ0gyXVtPSF0pKFtDQEBdMyhbQ0gyXU8zKVtDQEBdKE80KShbQ0gyXVtPSF0pW0NAXTU2W0NIM10pW0NAQEhdNFtDQEBIXTdbQ0BIXTZbQ0BIXTFbQ0BIXTJbQ0BASF0oW09IXSlbQ0hdKE84KUM1Nzg=

>  <s_epik_cmdline>  (300) 
J2VwaWtfcHl0aG9uJywgJy1waHQnLCAnMi4wJywgJy1waCcsICc3LjAnLCAnLXRuJywgJzgnLCAnLW1hJywgJzIwMCcsICctaW1hZScsICc8aW5maWxlLm1hZT4nLCAnLW9tYWUnLCAnPG91dGZpbGUubWFlPic=

>  <r_lp_tautomer_probability>  (300) 
1

>  <r_epik_Ionization_Penalty>  (300) 
2.60811e-05

>  <r_epik_Ionization_Penalty_Charging>  (300) 
0

>  <r_epik_Ionization_Penalty_Neutral>  (300) 
2.60811e-05

>  <r_epik_State_Penalty>  (300) 
-0

>  <r_epik_Charging_Adjusted_Penalty>  (300) 
0

>  <i_epik_Tot_Q>  (300) 
0

>  <i_epik_Tot_abs_Q>  (300) 
0

>  <s_epik_Chemistry_Notes>  (300) 
This compound has an imine and may undergo hydrolysis.

>  <s_lp_Force_Field>  (300) 
OPLS3e

>  <r_lp_Energy>  (300) 
414.688

>  <b_lp_Chiralities_Consistent>  (300) 
1

>  <s_lp_Variant>  (300) 
112:0-2

>  <s_i_glide_gridfile>  (300) 
pfpi4k_grid

>  <i_i_glide_lignum>  (300) 
30

>  <i_i_glide_rotatable_bonds>  (300) 
5

>  <r_i_docking_score>  (300) 
-1.9004

>  <r_i_glide_ligand_efficiency>  (300) 
-0.0593874

>  <r_i_glide_ligand_efficiency_sa>  (300) 
-0.188543

>  <r_i_glide_ligand_efficiency_ln>  (300) 
-0.425551

>  <r_i_glide_gscore>  (300) 
-1.9004

>  <r_i_glide_lipo>  (300) 
0

>  <r_i_glide_hbond>  (300) 
-0.16

>  <r_i_glide_metal>  (300) 
-0

>  <r_i_glide_rewards>  (300) 
-0.364523

>  <r_i_glide_evdw>  (300) 
-17.2957

>  <r_i_glide_ecoul>  (300) 
-4.53544

>  <r_i_glide_erotb>  (300) 
0.20078

>  <r_i_glide_esite>  (300) 
-0.0315511

>  <r_i_glide_emodel>  (300) 
-22.3049

>  <r_i_glide_energy>  (300) 
-21.8312

>  <r_i_glide_einternal>  (300) 
3.39527

>  <r_i_glide_intrahb_reward>  (300) 
-0

>  <i_i_glide_confnum>  (300) 
3

>  <i_i_glide_posenum>  (300) 
35

>  <r_i_glide_eff_state_penalty>  (300) 
0

>  <ligand_id>  (300) 
112

>  <original_smiles>  (300) 
CN1N=C2C(C)(C)C3C(O)C4OC45C4C6OC(CO)(C7(CO7)C26CO)C5(C)C4C3C1(C)C

>  <smiles>  (300) 
[H]OC([H])([H])C12OC3([H])C4([H])C5([H])C6([H])C([H])(C([H])(O[H])C7([H])OC74C51C([H])([H])[H])C(C([H])([H])[H])(C([H])([H])[H])C(=NN(C([H])([H])[H])C6(C([H])([H])[H])C([H])([H])[H])C3(C([H])([H])O[H])C21OC1([H])[H]

$$$$
112:1:2
     RDKit          3D

 66 73  0  0  1  0  0  0  0  0999 V2000
    2.1143    4.7523    3.4171 C   0  0  0  0  0  0  0  0  0  0  0  0
    1.7100    3.5555    4.1772 N   0  0  0  0  0  0  0  0  0  0  0  0
    2.4901    2.5341    3.7664 N   0  0  0  0  0  0  0  0  0  0  0  0
    2.5723    1.3730    4.4106 C   0  0  0  0  0  0  0  0  0  0  0  0
    2.2129    1.3883    6.0400 C   0  0  0  0  0  0  0  0  0  0  0  0
    3.1037    0.3712    6.8356 C   0  0  0  0  0  0  0  0  0  0  0  0
    2.8456    2.6486    6.7332 C   0  0  0  0  0  0  0  0  0  0  0  0
    0.5660    1.5659    6.5182 C   0  0  2  0  0  0  0  0  0  0  0  0
   -0.6484    0.5265    7.0415 C   0  0  1  0  0  0  0  0  0  0  0  0
   -1.5631    1.3377    7.7507 O   0  0  0  0  0  0  0  0  0  0  0  0
   -1.6089   -0.2518    5.9298 C   0  0  2  0  0  0  0  0  0  0  0  0
   -1.8244   -1.5937    5.7531 O   0  0  0  0  0  0  0  0  0  0  0  0
   -0.8409   -1.1454    4.7668 C   0  0  1  0  0  0  0  0  0  0  0  0
   -0.5628   -0.1021    3.5836 C   0  0  2  0  0  0  0  0  0  0  0  0
    0.8499   -0.3459    2.6682 C   0  0  2  0  0  0  0  0  0  0  0  0
    0.9403   -1.7193    2.8054 O   0  0  0  0  0  0  0  0  0  0  0  0
    1.4438   -1.8677    4.1034 C   0  0  1  0  0  0  0  0  0  0  0  0
    1.4874   -3.4329    4.2718 C   0  0  0  0  0  0  0  0  0  0  0  0
    0.2477   -3.9890    4.6663 O   0  0  0  0  0  0  0  0  0  0  0  0
    2.7879   -1.2219    3.9115 C   0  0  1  0  0  0  0  0  0  0  0  0
    4.1066   -1.7112    4.4981 C   0  0  0  0  0  0  0  0  0  0  0  0
    3.7302   -2.0247    3.1642 O   0  0  0  0  0  0  0  0  0  0  0  0
    2.3939    0.1318    3.2908 C   0  0  2  0  0  0  0  0  0  0  0  0
    3.2989    0.4612    2.0445 C   0  0  0  0  0  0  0  0  0  0  0  0
    3.2162   -0.4375    0.9501 O   0  0  0  0  0  0  0  0  0  0  0  0
    0.5620   -0.9539    5.0965 C   0  0  2  0  0  0  0  0  0  0  0  0
    0.8991   -1.6591    6.4846 C   0  0  0  0  0  0  0  0  0  0  0  0
    0.1297    0.6413    4.5365 C   0  0  2  0  0  0  0  0  0  0  0  0
   -0.1383    1.9595    5.2717 C   0  0  2  0  0  0  0  0  0  0  0  0
    0.2570    3.3483    4.5707 C   0  0  0  0  0  0  0  0  0  0  0  0
   -0.1863    4.4836    5.5325 C   0  0  0  0  0  0  0  0  0  0  0  0
   -0.6432    3.5214    3.3109 C   0  0  0  0  0  0  0  0  0  0  0  0
    1.6981    5.6532    3.8482 H   0  0  0  0  0  0  0  0  0  0  0  0
    1.7414    4.6674    2.4056 H   0  0  0  0  0  0  0  0  0  0  0  0
    3.1929    4.8557    3.3650 H   0  0  0  0  0  0  0  0  0  0  0  0
    2.8377    0.3056    7.8987 H   0  0  0  0  0  0  0  0  0  0  0  0
    4.1570    0.6471    6.8000 H   0  0  0  0  0  0  0  0  0  0  0  0
    3.1110   -0.6218    6.4424 H   0  0  0  0  0  0  0  0  0  0  0  0
    2.7868    2.5868    7.8271 H   0  0  0  0  0  0  0  0  0  0  0  0
    2.3509    3.5913    6.5185 H   0  0  0  0  0  0  0  0  0  0  0  0
    3.8917    2.7869    6.4620 H   0  0  0  0  0  0  0  0  0  0  0  0
    0.5153    2.3967    7.2210 H   0  0  0  0  0  0  0  0  0  0  0  0
   -0.3974   -0.1048    7.8854 H   0  0  0  0  0  0  0  0  0  0  0  0
   -1.1010    1.7797    8.4457 H   0  0  0  0  0  0  0  0  0  0  0  0
   -2.4934    0.2961    5.6418 H   0  0  0  0  0  0  0  0  0  0  0  0
   -1.4159    0.3166    3.0608 H   0  0  0  0  0  0  0  0  0  0  0  0
    0.7035   -0.0637    1.6275 H   0  0  0  0  0  0  0  0  0  0  0  0
    1.7808   -3.8783    3.3228 H   0  0  0  0  0  0  0  0  0  0  0  0
    2.2287   -3.7576    5.0048 H   0  0  0  0  0  0  0  0  0  0  0  0
    0.0338   -3.6729    5.5349 H   0  0  0  0  0  0  0  0  0  0  0  0
    4.9359   -1.0088    4.6066 H   0  0  0  0  0  0  0  0  0  0  0  0
    4.0984   -2.5678    5.1758 H   0  0  0  0  0  0  0  0  0  0  0  0
    3.0101    1.4409    1.6566 H   0  0  0  0  0  0  0  0  0  0  0  0
    4.3356    0.5458    2.3704 H   0  0  0  0  0  0  0  0  0  0  0  0
    2.3247   -0.4414    0.6238 H   0  0  0  0  0  0  0  0  0  0  0  0
    1.7687   -2.2975    6.4643 H   0  0  0  0  0  0  0  0  0  0  0  0
    0.1061   -2.2908    6.8600 H   0  0  0  0  0  0  0  0  0  0  0  0
    1.1953   -1.0357    7.3010 H   0  0  0  0  0  0  0  0  0  0  0  0
    0.3322    1.2905    3.7089 H   0  0  0  0  0  0  0  0  0  0  0  0
   -1.2130    2.1226    5.4091 H   0  0  0  0  0  0  0  0  0  0  0  0
   -1.2080    4.3186    5.8742 H   0  0  0  0  0  0  0  0  0  0  0  0
   -0.1513    5.4551    5.0334 H   0  0  0  0  0  0  0  0  0  0  0  0
    0.4561    4.5400    6.4148 H   0  0  0  0  0  0  0  0  0  0  0  0
   -1.6783    3.2845    3.5113 H   0  0  0  0  0  0  0  0  0  0  0  0
   -0.3223    2.8861    2.4844 H   0  0  0  0  0  0  0  0  0  0  0  0
   -0.6181    4.5465    2.9292 H   0  0  0  0  0  0  0  0  0  0  0  0
  1  2  1  0
  1 33  1  0
  1 34  1  0
  1 35  1  0
  2 30  1  0
  2  3  1  0
  3  4  2  0
  4 23  1  0
  4  5  1  0
  5  6  1  0
  5  7  1  0
  5  8  1  0
  6 36  1  0
  6 37  1  0
  6 38  1  0
  7 39  1  0
  7 40  1  0
  7 41  1  0
  8 29  1  0
  8  9  1  0
  8 42  1  1
  9 10  1  0
  9 11  1  0
  9 43  1  1
 10 44  1  0
 11 13  1  0
 11 12  1  0
 11 45  1  6
 13 12  1  6
 13 26  1  0
 13 14  1  0
 14 28  1  0
 14 15  1  0
 14 46  1  6
 15 23  1  0
 15 16  1  0
 15 47  1  6
 16 17  1  0
 17 18  1  1
 17 20  1  0
 17 26  1  0
 18 19  1  0
 18 48  1  0
 18 49  1  0
 19 50  1  0
 20 22  1  6
 20 21  1  0
 20 23  1  0
 21 22  1  0
 21 51  1  0
 21 52  1  0
 23 24  1  6
 24 25  1  0
 24 53  1  0
 24 54  1  0
 25 55  1  0
 26 27  1  1
 26 28  1  0
 27 56  1  0
 27 57  1  0
 27 58  1  0
 28 29  1  0
 28 59  1  6
 29 30  1  0
 29 60  1  1
 30 31  1  0
 30 32  1  0
 31 61  1  0
 31 62  1  0
 31 63  1  0
 32 64  1  0
 32 65  1  0
 32 66  1  0
M  END
>  <i_m_ct_stereo_status>  (301) 
1

>  <s_m_source_file>  (301) 
/var/tmp/pbs.5076255.sched01/tmp6zmtdo5c/111u4f9dq10.sdf

>  <i_m_source_file_index>  (301) 
30

>  <i_lp_mmshare_version>  (301) 
48012

>  <i_f3d_flags>  (301) 
0

>  <s_epik_input>  (301) 
W0NIM11DMShbQ0gzXSlOKFtDSDNdKU49QyhDMihbQ0gzXSlbQ0gzXSlbQ0BAXShbQ0gyXVtPSF0pKFtDQEBdMyhbQ0gyXU8zKVtDQEBdKE80KShbQ0gyXVtPSF0pW0NAXTU2W0NIM10pW0NAQEhdNFtDQEBIXTdbQ0BIXTZbQ0BIXTFbQ0BIXTJbQ0BASF0oW09IXSlbQ0hdKE84KUM1Nzg=

>  <s_epik_cmdline>  (301) 
J2VwaWtfcHl0aG9uJywgJy1waHQnLCAnMi4wJywgJy1waCcsICc3LjAnLCAnLXRuJywgJzgnLCAnLW1hJywgJzIwMCcsICctaW1hZScsICc8aW5maWxlLm1hZT4nLCAnLW9tYWUnLCAnPG91dGZpbGUubWFlPic=

>  <r_lp_tautomer_probability>  (301) 
1

>  <r_epik_Ionization_Penalty>  (301) 
2.60811e-05

>  <r_epik_Ionization_Penalty_Charging>  (301) 
0

>  <r_epik_Ionization_Penalty_Neutral>  (301) 
2.60811e-05

>  <r_epik_State_Penalty>  (301) 
-0

>  <r_epik_Charging_Adjusted_Penalty>  (301) 
0

>  <i_epik_Tot_Q>  (301) 
0

>  <i_epik_Tot_abs_Q>  (301) 
0

>  <s_epik_Chemistry_Notes>  (301) 
This compound has an imine and may undergo hydrolysis.

>  <s_lp_Force_Field>  (301) 
OPLS3e

>  <r_lp_Energy>  (301) 
414.688

>  <b_lp_Chiralities_Consistent>  (301) 
1

>  <s_lp_Variant>  (301) 
112:0-2

>  <s_i_glide_gridfile>  (301) 
pfpi4k_grid

>  <i_i_glide_lignum>  (301) 
30

>  <i_i_glide_rotatable_bonds>  (301) 
5

>  <r_i_docking_score>  (301) 
-1.44827

>  <r_i_glide_ligand_efficiency>  (301) 
-0.0452585

>  <r_i_glide_ligand_efficiency_sa>  (301) 
-0.143687

>  <r_i_glide_ligand_efficiency_ln>  (301) 
-0.324308

>  <r_i_glide_gscore>  (301) 
-1.44827

>  <r_i_glide_lipo>  (301) 
-0.0993234

>  <r_i_glide_hbond>  (301) 
-0.081283

>  <r_i_glide_metal>  (301) 
-0

>  <r_i_glide_rewards>  (301) 
-0.364523

>  <r_i_glide_evdw>  (301) 
-20.5854

>  <r_i_glide_ecoul>  (301) 
-0.321223

>  <r_i_glide_erotb>  (301) 
0.20078

>  <r_i_glide_esite>  (301) 
-0.0264715

>  <r_i_glide_emodel>  (301) 
-22.3435

>  <r_i_glide_energy>  (301) 
-20.9066

>  <r_i_glide_einternal>  (301) 
1.18893

>  <r_i_glide_intrahb_reward>  (301) 
-0

>  <i_i_glide_confnum>  (301) 
3

>  <i_i_glide_posenum>  (301) 
1

>  <r_i_glide_eff_state_penalty>  (301) 
0

>  <ligand_id>  (301) 
112

>  <original_smiles>  (301) 
CN1N=C2C(C)(C)C3C(O)C4OC45C4C6OC(CO)(C7(CO7)C26CO)C5(C)C4C3C1(C)C

>  <smiles>  (301) 
[H]OC([H])([H])C12OC3([H])C4([H])C5([H])C6([H])C([H])(C([H])(O[H])C7([H])OC74C51C([H])([H])[H])C(C([H])([H])[H])(C([H])([H])[H])C(=NN(C([H])([H])[H])C6(C([H])([H])[H])C([H])([H])[H])C3(C([H])([H])O[H])C21OC1([H])[H]

$$$$
112:2:0
     RDKit          3D

 66 73  0  0  1  0  0  0  0  0999 V2000
    4.4467   -0.4787    7.7114 C   0  0  0  0  0  0  0  0  0  0  0  0
    3.8135   -0.5035    6.3864 N   0  0  0  0  0  0  0  0  0  0  0  0
    2.5098   -0.9619    6.4854 N   0  0  0  0  0  0  0  0  0  0  0  0
    1.8033   -1.4464    5.5232 C   0  0  0  0  0  0  0  0  0  0  0  0
    2.5338   -1.9268    4.1497 C   0  0  0  0  0  0  0  0  0  0  0  0
    3.7194   -2.8812    4.4902 C   0  0  0  0  0  0  0  0  0  0  0  0
    1.6331   -2.9522    3.3719 C   0  0  0  0  0  0  0  0  0  0  0  0
    3.2038   -0.6833    3.2492 C   0  0  1  0  0  0  0  0  0  0  0  0
    2.7150   -0.1607    1.7810 C   0  0  1  0  0  0  0  0  0  0  0  0
    2.6224   -1.2574    0.8792 O   0  0  0  0  0  0  0  0  0  0  0  0
    1.4431    0.8171    1.6100 C   0  0  2  0  0  0  0  0  0  0  0  0
    1.5410    2.1216    2.0212 O   0  0  0  0  0  0  0  0  0  0  0  0
    0.5298    1.4203    2.7946 C   0  0  1  0  0  0  0  0  0  0  0  0
    0.7003    0.1400    3.5283 C   0  0  2  0  0  0  0  0  0  0  0  0
   -0.4105   -0.4239    4.3707 C   0  0  2  0  0  0  0  0  0  0  0  0
   -1.2075    0.7323    4.6020 O   0  0  0  0  0  0  0  0  0  0  0  0
   -0.3479    1.6141    5.3036 C   0  0  1  0  0  0  0  0  0  0  0  0
   -1.2187    2.7652    5.8824 C   0  0  0  0  0  0  0  0  0  0  0  0
   -1.6905    3.6663    4.8926 O   0  0  0  0  0  0  0  0  0  0  0  0
    0.0020    0.4853    6.3928 C   0  0  1  0  0  0  0  0  0  0  0  0
    0.5254    0.8458    7.7669 C   0  0  0  0  0  0  0  0  0  0  0  0
   -0.8370    0.4601    7.5618 O   0  0  0  0  0  0  0  0  0  0  0  0
    0.2493   -0.9273    5.6841 C   0  0  2  0  0  0  0  0  0  0  0  0
   -0.6026   -2.0677    6.3019 C   0  0  0  0  0  0  0  0  0  0  0  0
   -0.1829   -2.4486    7.6004 O   0  0  0  0  0  0  0  0  0  0  0  0
    0.8381    2.0204    4.2100 C   0  0  2  0  0  0  0  0  0  0  0  0
    1.3367    3.4654    4.3242 C   0  0  0  0  0  0  0  0  0  0  0  0
    1.8024    0.9346    4.3593 C   0  0  2  0  0  0  0  0  0  0  0  0
    3.2617    0.6232    4.0577 C   0  0  1  0  0  0  0  0  0  0  0  0
    4.1693    0.5445    5.3511 C   0  0  0  0  0  0  0  0  0  0  0  0
    4.1856    1.9558    5.9981 C   0  0  0  0  0  0  0  0  0  0  0  0
    5.6258    0.3007    4.8964 C   0  0  0  0  0  0  0  0  0  0  0  0
    5.5235   -0.3731    7.6192 H   0  0  0  0  0  0  0  0  0  0  0  0
    4.2274   -1.3758    8.2987 H   0  0  0  0  0  0  0  0  0  0  0  0
    4.0851    0.3866    8.2656 H   0  0  0  0  0  0  0  0  0  0  0  0
    4.1484   -3.3112    3.5810 H   0  0  0  0  0  0  0  0  0  0  0  0
    3.4079   -3.7132    5.1219 H   0  0  0  0  0  0  0  0  0  0  0  0
    4.5515   -2.4104    4.9979 H   0  0  0  0  0  0  0  0  0  0  0  0
    2.0559   -3.2188    2.4028 H   0  0  0  0  0  0  0  0  0  0  0  0
    0.6019   -2.6663    3.1970 H   0  0  0  0  0  0  0  0  0  0  0  0
    1.5356   -3.8896    3.9219 H   0  0  0  0  0  0  0  0  0  0  0  0
    4.2284   -0.9832    3.0411 H   0  0  0  0  0  0  0  0  0  0  0  0
    3.5491    0.4099    1.3585 H   0  0  0  0  0  0  0  0  0  0  0  0
    1.9724   -1.0588    0.2022 H   0  0  0  0  0  0  0  0  0  0  0  0
    0.9932    0.7666    0.6294 H   0  0  0  0  0  0  0  0  0  0  0  0
    0.8409   -0.7239    2.9101 H   0  0  0  0  0  0  0  0  0  0  0  0
   -0.9929   -1.1740    3.8459 H   0  0  0  0  0  0  0  0  0  0  0  0
   -2.0932    2.3661    6.3998 H   0  0  0  0  0  0  0  0  0  0  0  0
   -0.6604    3.3402    6.6209 H   0  0  0  0  0  0  0  0  0  0  0  0
   -1.9190    3.1480    4.1350 H   0  0  0  0  0  0  0  0  0  0  0  0
    1.1393    0.1354    8.3226 H   0  0  0  0  0  0  0  0  0  0  0  0
    0.7254    1.8946    7.9423 H   0  0  0  0  0  0  0  0  0  0  0  0
   -1.6493   -1.7665    6.3594 H   0  0  0  0  0  0  0  0  0  0  0  0
   -0.5821   -2.9506    5.6655 H   0  0  0  0  0  0  0  0  0  0  0  0
    0.6898   -2.8131    7.5445 H   0  0  0  0  0  0  0  0  0  0  0  0
    1.5406    3.7148    5.3700 H   0  0  0  0  0  0  0  0  0  0  0  0
    0.6198    4.1987    3.9498 H   0  0  0  0  0  0  0  0  0  0  0  0
    2.2739    3.6310    3.7899 H   0  0  0  0  0  0  0  0  0  0  0  0
    1.8755    1.0980    5.4128 H   0  0  0  0  0  0  0  0  0  0  0  0
    3.6596    1.4256    3.4392 H   0  0  0  0  0  0  0  0  0  0  0  0
    4.3422    2.7378    5.2514 H   0  0  0  0  0  0  0  0  0  0  0  0
    4.9969    2.0641    6.7172 H   0  0  0  0  0  0  0  0  0  0  0  0
    3.2690    2.1991    6.5345 H   0  0  0  0  0  0  0  0  0  0  0  0
    5.9202    0.9447    4.0690 H   0  0  0  0  0  0  0  0  0  0  0  0
    5.7947   -0.7206    4.5583 H   0  0  0  0  0  0  0  0  0  0  0  0
    6.3396    0.4754    5.7048 H   0  0  0  0  0  0  0  0  0  0  0  0
  1  2  1  0
  1 33  1  0
  1 34  1  0
  1 35  1  0
  2 30  1  0
  2  3  1  0
  3  4  2  0
  4 23  1  0
  4  5  1  0
  5  6  1  0
  5  7  1  0
  5  8  1  0
  6 36  1  0
  6 37  1  0
  6 38  1  0
  7 39  1  0
  7 40  1  0
  7 41  1  0
  8 29  1  0
  8  9  1  0
  8 42  1  6
  9 10  1  0
  9 11  1  0
  9 43  1  6
 10 44  1  0
 11 13  1  0
 11 12  1  0
 11 45  1  6
 13 12  1  6
 13 26  1  0
 13 14  1  0
 14 28  1  0
 14 15  1  0
 14 46  1  6
 15 23  1  0
 15 16  1  0
 15 47  1  6
 16 17  1  0
 17 18  1  1
 17 20  1  0
 17 26  1  0
 18 19  1  0
 18 48  1  0
 18 49  1  0
 19 50  1  0
 20 22  1  1
 20 21  1  0
 20 23  1  0
 21 22  1  0
 21 51  1  0
 21 52  1  0
 23 24  1  1
 24 25  1  0
 24 53  1  0
 24 54  1  0
 25 55  1  0
 26 27  1  6
 26 28  1  0
 27 56  1  0
 27 57  1  0
 27 58  1  0
 28 29  1  0
 28 59  1  1
 29 30  1  0
 29 60  1  6
 30 31  1  0
 30 32  1  0
 31 61  1  0
 31 62  1  0
 31 63  1  0
 32 64  1  0
 32 65  1  0
 32 66  1  0
M  END
>  <i_m_ct_stereo_status>  (302) 
1

>  <s_m_source_file>  (302) 
/var/tmp/pbs.5076255.sched01/tmp6zmtdo5c/111u4f9dq10.sdf

>  <i_m_source_file_index>  (302) 
31

>  <i_lp_mmshare_version>  (302) 
48012

>  <i_f3d_flags>  (302) 
2

>  <s_epik_input>  (302) 
W0NIM11DMShbQ0gzXSlOKFtDSDNdKU49QyhDMihbQ0gzXSlbQ0gzXSlbQ0BAXShbQ0gyXVtPSF0pKFtDQEBdMyhbQ0gyXU8zKVtDQEBdKE80KShbQ0gyXVtPSF0pW0NAXTU2W0NIM10pW0NAQEhdNFtDQEBIXTdbQ0BIXTZbQ0BIXTFbQ0BIXTJbQ0BASF0oW09IXSlbQ0hdKE84KUM1Nzg=

>  <s_epik_cmdline>  (302) 
J2VwaWtfcHl0aG9uJywgJy1waHQnLCAnMi4wJywgJy1waCcsICc3LjAnLCAnLXRuJywgJzgnLCAnLW1hJywgJzIwMCcsICctaW1hZScsICc8aW5maWxlLm1hZT4nLCAnLW9tYWUnLCAnPG91dGZpbGUubWFlPic=

>  <r_lp_tautomer_probability>  (302) 
1

>  <r_epik_Ionization_Penalty>  (302) 
2.60811e-05

>  <r_epik_Ionization_Penalty_Charging>  (302) 
0

>  <r_epik_Ionization_Penalty_Neutral>  (302) 
2.60811e-05

>  <r_epik_State_Penalty>  (302) 
-0

>  <r_epik_Charging_Adjusted_Penalty>  (302) 
0

>  <i_epik_Tot_Q>  (302) 
0

>  <i_epik_Tot_abs_Q>  (302) 
0

>  <s_epik_Chemistry_Notes>  (302) 
This compound has an imine and may undergo hydrolysis.

>  <s_lp_Force_Field>  (302) 
OPLS3e

>  <r_lp_Energy>  (302) 
261.615

>  <b_lp_Chiralities_Consistent>  (302) 
0

>  <s_lp_Variant>  (302) 
112:0-3

>  <s_i_glide_gridfile>  (302) 
pfpi4k_grid

>  <i_i_glide_lignum>  (302) 
31

>  <i_i_glide_rotatable_bonds>  (302) 
5

>  <r_i_docking_score>  (302) 
-2.96818

>  <r_i_glide_ligand_efficiency>  (302) 
-0.0927557

>  <r_i_glide_ligand_efficiency_sa>  (302) 
-0.294481

>  <r_i_glide_ligand_efficiency_ln>  (302) 
-0.664657

>  <r_i_glide_gscore>  (302) 
-2.96818

>  <r_i_glide_lipo>  (302) 
-0.147025

>  <r_i_glide_hbond>  (302) 
-0.249546

>  <r_i_glide_metal>  (302) 
-0

>  <r_i_glide_rewards>  (302) 
-0.364523

>  <r_i_glide_evdw>  (302) 
-16.128

>  <r_i_glide_ecoul>  (302) 
-10.676

>  <r_i_glide_erotb>  (302) 
0.20078

>  <r_i_glide_esite>  (302) 
-7.16395e-05

>  <r_i_glide_emodel>  (302) 
-30.5309

>  <r_i_glide_energy>  (302) 
-26.804

>  <r_i_glide_einternal>  (302) 
1.92858

>  <r_i_glide_intrahb_reward>  (302) 
-0

>  <i_i_glide_confnum>  (302) 
5

>  <i_i_glide_posenum>  (302) 
32

>  <r_i_glide_eff_state_penalty>  (302) 
0

>  <ligand_id>  (302) 
112

>  <original_smiles>  (302) 
CN1N=C2C(C)(C)C3C(O)C4OC45C4C6OC(CO)(C7(CO7)C26CO)C5(C)C4C3C1(C)C

>  <smiles>  (302) 
[H]OC([H])([H])C12OC3([H])C4([H])C5([H])C6([H])C([H])(C([H])(O[H])C7([H])OC74C51C([H])([H])[H])C(C([H])([H])[H])(C([H])([H])[H])C(=NN(C([H])([H])[H])C6(C([H])([H])[H])C([H])([H])[H])C3(C([H])([H])O[H])C21OC1([H])[H]

$$$$
112:2:1
     RDKit          3D

 66 73  0  0  1  0  0  0  0  0999 V2000
    4.5183   -0.4652    7.6945 C   0  0  0  0  0  0  0  0  0  0  0  0
    3.8684   -0.4998    6.3746 N   0  0  0  0  0  0  0  0  0  0  0  0
    2.5690   -0.9566    6.4893 N   0  0  0  0  0  0  0  0  0  0  0  0
    1.8451   -1.4408    5.5246 C   0  0  0  0  0  0  0  0  0  0  0  0
    2.5668   -1.9210    4.1518 C   0  0  0  0  0  0  0  0  0  0  0  0
    3.7559   -2.8748    4.4799 C   0  0  0  0  0  0  0  0  0  0  0  0
    1.6569   -2.9479    3.3838 C   0  0  0  0  0  0  0  0  0  0  0  0
    3.2274   -0.6768    3.2438 C   0  0  1  0  0  0  0  0  0  0  0  0
    2.7279   -0.1602    1.7785 C   0  0  1  0  0  0  0  0  0  0  0  0
    2.6083   -1.2667    0.9042 O   0  0  0  0  0  0  0  0  0  0  0  0
    1.4497    0.8152    1.6201 C   0  0  2  0  0  0  0  0  0  0  0  0
    1.5517    2.1186    2.0304 O   0  0  0  0  0  0  0  0  0  0  0  0
    0.5418    1.4235    2.8121 C   0  0  1  0  0  0  0  0  0  0  0  0
    0.7290    0.1445    3.5463 C   0  0  2  0  0  0  0  0  0  0  0  0
   -0.3706   -0.4204    4.3977 C   0  0  2  0  0  0  0  0  0  0  0  0
   -1.1707    0.7300    4.6355 O   0  0  0  0  0  0  0  0  0  0  0  0
   -0.3092    1.6185    5.3238 C   0  0  1  0  0  0  0  0  0  0  0  0
   -1.1704    2.7734    5.9140 C   0  0  0  0  0  0  0  0  0  0  0  0
   -1.6344    3.6868    4.9346 O   0  0  0  0  0  0  0  0  0  0  0  0
    0.0575    0.4929    6.4173 C   0  0  1  0  0  0  0  0  0  0  0  0
    0.5974    0.8597    7.7838 C   0  0  0  0  0  0  0  0  0  0  0  0
   -0.7676    0.4740    7.5981 O   0  0  0  0  0  0  0  0  0  0  0  0
    0.2969   -0.9191    5.7093 C   0  0  2  0  0  0  0  0  0  0  0  0
   -0.5556   -2.0574    6.3353 C   0  0  0  0  0  0  0  0  0  0  0  0
   -0.1885   -2.3850    7.6615 O   0  0  0  0  0  0  0  0  0  0  0  0
    0.8704    2.0254    4.2242 C   0  0  2  0  0  0  0  0  0  0  0  0
    1.3744    3.4720    4.3299 C   0  0  0  0  0  0  0  0  0  0  0  0
    1.8383    0.9385    4.3631 C   0  0  2  0  0  0  0  0  0  0  0  0
    3.2925    0.6295    4.0511 C   0  0  1  0  0  0  0  0  0  0  0  0
    4.2149    0.5503    5.3349 C   0  0  0  0  0  0  0  0  0  0  0  0
    4.2390    1.9650    5.9754 C   0  0  0  0  0  0  0  0  0  0  0  0
    5.6661    0.3065    4.8638 C   0  0  0  0  0  0  0  0  0  0  0  0
    5.5945   -0.3590    7.5862 H   0  0  0  0  0  0  0  0  0  0  0  0
    4.3048   -1.3606    8.2838 H   0  0  0  0  0  0  0  0  0  0  0  0
    4.1628    0.4037    8.2494 H   0  0  0  0  0  0  0  0  0  0  0  0
    4.1765   -3.3073    3.5683 H   0  0  0  0  0  0  0  0  0  0  0  0
    3.4525   -3.7060    5.1164 H   0  0  0  0  0  0  0  0  0  0  0  0
    4.5931   -2.4039    4.9791 H   0  0  0  0  0  0  0  0  0  0  0  0
    2.0702   -3.2158    2.4111 H   0  0  0  0  0  0  0  0  0  0  0  0
    0.6233   -2.6624    3.2193 H   0  0  0  0  0  0  0  0  0  0  0  0
    1.5666   -3.8845    3.9360 H   0  0  0  0  0  0  0  0  0  0  0  0
    4.2485   -0.9782    3.0246 H   0  0  0  0  0  0  0  0  0  0  0  0
    3.5586    0.4091    1.3445 H   0  0  0  0  0  0  0  0  0  0  0  0
    1.9766   -1.0569    0.2049 H   0  0  0  0  0  0  0  0  0  0  0  0
    0.9968    0.7625    0.6417 H   0  0  0  0  0  0  0  0  0  0  0  0
    0.8652   -0.7189    2.9256 H   0  0  0  0  0  0  0  0  0  0  0  0
   -0.9653   -1.1684    3.8836 H   0  0  0  0  0  0  0  0  0  0  0  0
   -2.0401    2.3919    6.4509 H   0  0  0  0  0  0  0  0  0  0  0  0
   -0.5902    3.3408    6.6426 H   0  0  0  0  0  0  0  0  0  0  0  0
   -0.9404    3.7881    4.3009 H   0  0  0  0  0  0  0  0  0  0  0  0
    1.2192    0.1497    8.3280 H   0  0  0  0  0  0  0  0  0  0  0  0
    0.8004    1.9101    7.9520 H   0  0  0  0  0  0  0  0  0  0  0  0
   -1.6124   -1.7831    6.3430 H   0  0  0  0  0  0  0  0  0  0  0  0
   -0.4878   -2.9637    5.7357 H   0  0  0  0  0  0  0  0  0  0  0  0
    0.7210   -2.6673    7.6649 H   0  0  0  0  0  0  0  0  0  0  0  0
    1.5896    3.7198    5.3734 H   0  0  0  0  0  0  0  0  0  0  0  0
    0.6665    4.2138    3.9583 H   0  0  0  0  0  0  0  0  0  0  0  0
    2.3074    3.6318    3.7881 H   0  0  0  0  0  0  0  0  0  0  0  0
    1.9200    1.0985    5.4148 H   0  0  0  0  0  0  0  0  0  0  0  0
    3.6831    1.4288    3.4245 H   0  0  0  0  0  0  0  0  0  0  0  0
    4.3886    2.7474    5.2276 H   0  0  0  0  0  0  0  0  0  0  0  0
    5.0578    2.0743    6.6857 H   0  0  0  0  0  0  0  0  0  0  0  0
    3.3290    2.2088    6.5220 H   0  0  0  0  0  0  0  0  0  0  0  0
    5.9565    0.9475    4.0328 H   0  0  0  0  0  0  0  0  0  0  0  0
    5.8248   -0.7155    4.5278 H   0  0  0  0  0  0  0  0  0  0  0  0
    6.3893    0.4813    5.6631 H   0  0  0  0  0  0  0  0  0  0  0  0
  1  2  1  0
  1 33  1  0
  1 34  1  0
  1 35  1  0
  2 30  1  0
  2  3  1  0
  3  4  2  0
  4 23  1  0
  4  5  1  0
  5  6  1  0
  5  7  1  0
  5  8  1  0
  6 36  1  0
  6 37  1  0
  6 38  1  0
  7 39  1  0
  7 40  1  0
  7 41  1  0
  8 29  1  0
  8  9  1  0
  8 42  1  6
  9 10  1  0
  9 11  1  0
  9 43  1  6
 10 44  1  0
 11 13  1  0
 11 12  1  0
 11 45  1  6
 13 12  1  6
 13 26  1  0
 13 14  1  0
 14 28  1  0
 14 15  1  0
 14 46  1  6
 15 23  1  0
 15 16  1  0
 15 47  1  6
 16 17  1  0
 17 18  1  1
 17 20  1  0
 17 26  1  0
 18 19  1  0
 18 48  1  0
 18 49  1  0
 19 50  1  0
 20 22  1  1
 20 21  1  0
 20 23  1  0
 21 22  1  0
 21 51  1  0
 21 52  1  0
 23 24  1  1
 24 25  1  0
 24 53  1  0
 24 54  1  0
 25 55  1  0
 26 27  1  6
 26 28  1  0
 27 56  1  0
 27 57  1  0
 27 58  1  0
 28 29  1  0
 28 59  1  1
 29 30  1  0
 29 60  1  6
 30 31  1  0
 30 32  1  0
 31 61  1  0
 31 62  1  0
 31 63  1  0
 32 64  1  0
 32 65  1  0
 32 66  1  0
M  END
>  <i_m_ct_stereo_status>  (303) 
1

>  <s_m_source_file>  (303) 
/var/tmp/pbs.5076255.sched01/tmp6zmtdo5c/111u4f9dq10.sdf

>  <i_m_source_file_index>  (303) 
31

>  <i_lp_mmshare_version>  (303) 
48012

>  <i_f3d_flags>  (303) 
2

>  <s_epik_input>  (303) 
W0NIM11DMShbQ0gzXSlOKFtDSDNdKU49QyhDMihbQ0gzXSlbQ0gzXSlbQ0BAXShbQ0gyXVtPSF0pKFtDQEBdMyhbQ0gyXU8zKVtDQEBdKE80KShbQ0gyXVtPSF0pW0NAXTU2W0NIM10pW0NAQEhdNFtDQEBIXTdbQ0BIXTZbQ0BIXTFbQ0BIXTJbQ0BASF0oW09IXSlbQ0hdKE84KUM1Nzg=

>  <s_epik_cmdline>  (303) 
J2VwaWtfcHl0aG9uJywgJy1waHQnLCAnMi4wJywgJy1waCcsICc3LjAnLCAnLXRuJywgJzgnLCAnLW1hJywgJzIwMCcsICctaW1hZScsICc8aW5maWxlLm1hZT4nLCAnLW9tYWUnLCAnPG91dGZpbGUubWFlPic=

>  <r_lp_tautomer_probability>  (303) 
1

>  <r_epik_Ionization_Penalty>  (303) 
2.60811e-05

>  <r_epik_Ionization_Penalty_Charging>  (303) 
0

>  <r_epik_Ionization_Penalty_Neutral>  (303) 
2.60811e-05

>  <r_epik_State_Penalty>  (303) 
-0

>  <r_epik_Charging_Adjusted_Penalty>  (303) 
0

>  <i_epik_Tot_Q>  (303) 
0

>  <i_epik_Tot_abs_Q>  (303) 
0

>  <s_epik_Chemistry_Notes>  (303) 
This compound has an imine and may undergo hydrolysis.

>  <s_lp_Force_Field>  (303) 
OPLS3e

>  <r_lp_Energy>  (303) 
261.615

>  <b_lp_Chiralities_Consistent>  (303) 
0

>  <s_lp_Variant>  (303) 
112:0-3

>  <s_i_glide_gridfile>  (303) 
pfpi4k_grid

>  <i_i_glide_lignum>  (303) 
31

>  <i_i_glide_rotatable_bonds>  (303) 
5

>  <r_i_docking_score>  (303) 
-2.93191

>  <r_i_glide_ligand_efficiency>  (303) 
-0.0916221

>  <r_i_glide_ligand_efficiency_sa>  (303) 
-0.290882

>  <r_i_glide_ligand_efficiency_ln>  (303) 
-0.656534

>  <r_i_glide_gscore>  (303) 
-2.93191

>  <r_i_glide_lipo>  (303) 
-0.150119

>  <r_i_glide_hbond>  (303) 
-0.231639

>  <r_i_glide_metal>  (303) 
-0

>  <r_i_glide_rewards>  (303) 
-0.364523

>  <r_i_glide_evdw>  (303) 
-15.964

>  <r_i_glide_ecoul>  (303) 
-10.5876

>  <r_i_glide_erotb>  (303) 
0.20078

>  <r_i_glide_esite>  (303) 
-6.28922e-05

>  <r_i_glide_emodel>  (303) 
-29.9345

>  <r_i_glide_energy>  (303) 
-26.5516

>  <r_i_glide_einternal>  (303) 
1.90626

>  <r_i_glide_intrahb_reward>  (303) 
-0

>  <i_i_glide_confnum>  (303) 
5

>  <i_i_glide_posenum>  (303) 
22

>  <r_i_glide_eff_state_penalty>  (303) 
0

>  <ligand_id>  (303) 
112

>  <original_smiles>  (303) 
CN1N=C2C(C)(C)C3C(O)C4OC45C4C6OC(CO)(C7(CO7)C26CO)C5(C)C4C3C1(C)C

>  <smiles>  (303) 
[H]OC([H])([H])C12OC3([H])C4([H])C5([H])C6([H])C([H])(C([H])(O[H])C7([H])OC74C51C([H])([H])[H])C(C([H])([H])[H])(C([H])([H])[H])C(=NN(C([H])([H])[H])C6(C([H])([H])[H])C([H])([H])[H])C3(C([H])([H])O[H])C21OC1([H])[H]

$$$$
112:2:2
     RDKit          3D

 66 73  0  0  1  0  0  0  0  0999 V2000
   -1.5064    1.7191    8.7047 C   0  0  0  0  0  0  0  0  0  0  0  0
   -0.6563    1.3956    7.5445 N   0  0  0  0  0  0  0  0  0  0  0  0
   -1.0080    2.1751    6.4624 N   0  0  0  0  0  0  0  0  0  0  0  0
   -0.7064    1.9316    5.2102 C   0  0  0  0  0  0  0  0  0  0  0  0
   -0.2440    0.4310    4.8077 C   0  0  0  0  0  0  0  0  0  0  0  0
   -1.2487   -0.6212    5.3651 C   0  0  0  0  0  0  0  0  0  0  0  0
   -0.4885    0.1877    3.2799 C   0  0  0  0  0  0  0  0  0  0  0  0
    1.2538   -0.0154    5.4036 C   0  0  1  0  0  0  0  0  0  0  0  0
    2.6155   -0.2773    4.5422 C   0  0  1  0  0  0  0  0  0  0  0  0
    2.3576   -1.1796    3.4779 O   0  0  0  0  0  0  0  0  0  0  0  0
    3.5345    0.9414    3.9958 C   0  0  2  0  0  0  0  0  0  0  0  0
    4.2888    1.6553    4.8981 O   0  0  0  0  0  0  0  0  0  0  0  0
    3.2952    2.5263    4.2681 C   0  0  1  0  0  0  0  0  0  0  0  0
    1.8401    2.2513    4.1694 C   0  0  2  0  0  0  0  0  0  0  0  0
    0.9315    3.2707    3.5530 C   0  0  2  0  0  0  0  0  0  0  0  0
    1.7175    4.4460    3.6793 O   0  0  0  0  0  0  0  0  0  0  0  0
    1.8701    4.6210    5.0819 C   0  0  1  0  0  0  0  0  0  0  0  0
    2.4496    6.0556    5.2950 C   0  0  0  0  0  0  0  0  0  0  0  0
    2.5587    6.4330    6.6632 O   0  0  0  0  0  0  0  0  0  0  0  0
    0.2772    4.5070    5.3546 C   0  0  1  0  0  0  0  0  0  0  0  0
   -0.3712    5.0357    6.6216 C   0  0  0  0  0  0  0  0  0  0  0  0
   -0.4866    5.7362    5.3920 O   0  0  0  0  0  0  0  0  0  0  0  0
   -0.3397    3.3390    4.4559 C   0  0  2  0  0  0  0  0  0  0  0  0
   -1.5869    3.7956    3.6467 C   0  0  0  0  0  0  0  0  0  0  0  0
   -1.3979    4.9795    2.8982 O   0  0  0  0  0  0  0  0  0  0  0  0
    2.8341    3.3283    5.5250 C   0  0  2  0  0  0  0  0  0  0  0  0
    3.8554    3.6647    6.6127 C   0  0  0  0  0  0  0  0  0  0  0  0
    1.8509    2.2780    5.7670 C   0  0  2  0  0  0  0  0  0  0  0  0
    1.7370    0.9536    6.4919 C   0  0  1  0  0  0  0  0  0  0  0  0
    0.7951    1.0175    7.7645 C   0  0  0  0  0  0  0  0  0  0  0  0
    1.4743    1.9711    8.7872 C   0  0  0  0  0  0  0  0  0  0  0  0
    0.8505   -0.3728    8.4477 C   0  0  0  0  0  0  0  0  0  0  0  0
   -1.3871    0.9555    9.4710 H   0  0  0  0  0  0  0  0  0  0  0  0
   -2.5561    1.8158    8.4300 H   0  0  0  0  0  0  0  0  0  0  0  0
   -1.1715    2.6590    9.1443 H   0  0  0  0  0  0  0  0  0  0  0  0
   -1.0148   -1.6208    4.9884 H   0  0  0  0  0  0  0  0  0  0  0  0
   -2.2797   -0.4047    5.0773 H   0  0  0  0  0  0  0  0  0  0  0  0
   -1.2420   -0.7258    6.4430 H   0  0  0  0  0  0  0  0  0  0  0  0
   -0.0912   -0.7718    2.9548 H   0  0  0  0  0  0  0  0  0  0  0  0
   -0.1156    0.9326    2.5872 H   0  0  0  0  0  0  0  0  0  0  0  0
   -1.5541    0.1673    3.0521 H   0  0  0  0  0  0  0  0  0  0  0  0
    1.1092   -0.9849    5.8721 H   0  0  0  0  0  0  0  0  0  0  0  0
    3.2778   -0.8678    5.1832 H   0  0  0  0  0  0  0  0  0  0  0  0
    1.8919   -0.7201    2.7949 H   0  0  0  0  0  0  0  0  0  0  0  0
    4.1300    0.6653    3.1443 H   0  0  0  0  0  0  0  0  0  0  0  0
    1.5611    1.4328    3.5409 H   0  0  0  0  0  0  0  0  0  0  0  0
    0.7283    3.0397    2.5051 H   0  0  0  0  0  0  0  0  0  0  0  0
    3.4244    6.1775    4.8092 H   0  0  0  0  0  0  0  0  0  0  0  0
    1.7973    6.8015    4.8249 H   0  0  0  0  0  0  0  0  0  0  0  0
    2.8725    7.3246    6.7147 H   0  0  0  0  0  0  0  0  0  0  0  0
   -1.2986    4.6253    6.9977 H   0  0  0  0  0  0  0  0  0  0  0  0
    0.2927    5.4601    7.3568 H   0  0  0  0  0  0  0  0  0  0  0  0
   -1.9031    3.0152    2.9501 H   0  0  0  0  0  0  0  0  0  0  0  0
   -2.4179    3.9634    4.3272 H   0  0  0  0  0  0  0  0  0  0  0  0
   -0.7649    4.8125    2.1942 H   0  0  0  0  0  0  0  0  0  0  0  0
    3.3729    4.1697    7.4507 H   0  0  0  0  0  0  0  0  0  0  0  0
    4.6554    4.3177    6.2514 H   0  0  0  0  0  0  0  0  0  0  0  0
    4.2975    2.7752    7.0582 H   0  0  0  0  0  0  0  0  0  0  0  0
    1.3114    2.9033    6.4395 H   0  0  0  0  0  0  0  0  0  0  0  0
    2.7278    0.6629    6.8323 H   0  0  0  0  0  0  0  0  0  0  0  0
    2.5427    1.7710    8.8829 H   0  0  0  0  0  0  0  0  0  0  0  0
    1.0597    1.8530    9.7877 H   0  0  0  0  0  0  0  0  0  0  0  0
    1.3620    3.0234    8.5349 H   0  0  0  0  0  0  0  0  0  0  0  0
    1.8741   -0.7493    8.5507 H   0  0  0  0  0  0  0  0  0  0  0  0
    0.2826   -1.1371    7.9121 H   0  0  0  0  0  0  0  0  0  0  0  0
    0.4337   -0.3424    9.4587 H   0  0  0  0  0  0  0  0  0  0  0  0
  1  2  1  0
  1 33  1  0
  1 34  1  0
  1 35  1  0
  2 30  1  0
  2  3  1  0
  3  4  2  0
  4 23  1  0
  4  5  1  0
  5  6  1  0
  5  7  1  0
  5  8  1  0
  6 36  1  0
  6 37  1  0
  6 38  1  0
  7 39  1  0
  7 40  1  0
  7 41  1  0
  8 29  1  0
  8  9  1  0
  8 42  1  1
  9 10  1  0
  9 11  1  0
  9 43  1  1
 10 44  1  0
 11 13  1  0
 11 12  1  0
 11 45  1  6
 13 12  1  6
 13 26  1  0
 13 14  1  0
 14 28  1  0
 14 15  1  0
 14 46  1  1
 15 23  1  0
 15 16  1  0
 15 47  1  6
 16 17  1  0
 17 18  1  6
 17 20  1  0
 17 26  1  0
 18 19  1  0
 18 48  1  0
 18 49  1  0
 19 50  1  0
 20 22  1  6
 20 21  1  0
 20 23  1  0
 21 22  1  0
 21 51  1  0
 21 52  1  0
 23 24  1  6
 24 25  1  0
 24 53  1  0
 24 54  1  0
 25 55  1  0
 26 27  1  1
 26 28  1  0
 27 56  1  0
 27 57  1  0
 27 58  1  0
 28 29  1  0
 28 59  1  1
 29 30  1  0
 29 60  1  1
 30 31  1  0
 30 32  1  0
 31 61  1  0
 31 62  1  0
 31 63  1  0
 32 64  1  0
 32 65  1  0
 32 66  1  0
M  END
>  <i_m_ct_stereo_status>  (304) 
1

>  <s_m_source_file>  (304) 
/var/tmp/pbs.5076255.sched01/tmp6zmtdo5c/111u4f9dq10.sdf

>  <i_m_source_file_index>  (304) 
31

>  <i_lp_mmshare_version>  (304) 
48012

>  <i_f3d_flags>  (304) 
2

>  <s_epik_input>  (304) 
W0NIM11DMShbQ0gzXSlOKFtDSDNdKU49QyhDMihbQ0gzXSlbQ0gzXSlbQ0BAXShbQ0gyXVtPSF0pKFtDQEBdMyhbQ0gyXU8zKVtDQEBdKE80KShbQ0gyXVtPSF0pW0NAXTU2W0NIM10pW0NAQEhdNFtDQEBIXTdbQ0BIXTZbQ0BIXTFbQ0BIXTJbQ0BASF0oW09IXSlbQ0hdKE84KUM1Nzg=

>  <s_epik_cmdline>  (304) 
J2VwaWtfcHl0aG9uJywgJy1waHQnLCAnMi4wJywgJy1waCcsICc3LjAnLCAnLXRuJywgJzgnLCAnLW1hJywgJzIwMCcsICctaW1hZScsICc8aW5maWxlLm1hZT4nLCAnLW9tYWUnLCAnPG91dGZpbGUubWFlPic=

>  <r_lp_tautomer_probability>  (304) 
1

>  <r_epik_Ionization_Penalty>  (304) 
2.60811e-05

>  <r_epik_Ionization_Penalty_Charging>  (304) 
0

>  <r_epik_Ionization_Penalty_Neutral>  (304) 
2.60811e-05

>  <r_epik_State_Penalty>  (304) 
-0

>  <r_epik_Charging_Adjusted_Penalty>  (304) 
0

>  <i_epik_Tot_Q>  (304) 
0

>  <i_epik_Tot_abs_Q>  (304) 
0

>  <s_epik_Chemistry_Notes>  (304) 
This compound has an imine and may undergo hydrolysis.

>  <s_lp_Force_Field>  (304) 
OPLS3e

>  <r_lp_Energy>  (304) 
261.615

>  <b_lp_Chiralities_Consistent>  (304) 
0

>  <s_lp_Variant>  (304) 
112:0-3

>  <s_i_glide_gridfile>  (304) 
pfpi4k_grid

>  <i_i_glide_lignum>  (304) 
31

>  <i_i_glide_rotatable_bonds>  (304) 
5

>  <r_i_docking_score>  (304) 
-2.43783

>  <r_i_glide_ligand_efficiency>  (304) 
-0.0761823

>  <r_i_glide_ligand_efficiency_sa>  (304) 
-0.241864

>  <r_i_glide_ligand_efficiency_ln>  (304) 
-0.545897

>  <r_i_glide_gscore>  (304) 
-2.43783

>  <r_i_glide_lipo>  (304) 
0

>  <r_i_glide_hbond>  (304) 
0

>  <r_i_glide_metal>  (304) 
-0

>  <r_i_glide_rewards>  (304) 
-0.364523

>  <r_i_glide_evdw>  (304) 
-16.7918

>  <r_i_glide_ecoul>  (304) 
-9.30946

>  <r_i_glide_erotb>  (304) 
0.20078

>  <r_i_glide_esite>  (304) 
-0.0380814

>  <r_i_glide_emodel>  (304) 
-29.4745

>  <r_i_glide_energy>  (304) 
-26.1013

>  <r_i_glide_einternal>  (304) 
0.757436

>  <r_i_glide_intrahb_reward>  (304) 
-0

>  <i_i_glide_confnum>  (304) 
1

>  <i_i_glide_posenum>  (304) 
2

>  <r_i_glide_eff_state_penalty>  (304) 
0

>  <ligand_id>  (304) 
112

>  <original_smiles>  (304) 
CN1N=C2C(C)(C)C3C(O)C4OC45C4C6OC(CO)(C7(CO7)C26CO)C5(C)C4C3C1(C)C

>  <smiles>  (304) 
[H]OC([H])([H])C12OC3([H])C4([H])C5([H])C6([H])C([H])(C([H])(O[H])C7([H])OC74C51C([H])([H])[H])C(C([H])([H])[H])(C([H])([H])[H])C(=NN(C([H])([H])[H])C6(C([H])([H])[H])C([H])([H])[H])C3(C([H])([H])O[H])C21OC1([H])[H]

$$$$
114:0:0
     RDKit          3D

 59 65  0  0  1  0  0  0  0  0999 V2000
    5.1501   -4.3728    4.4389 C   0  0  0  0  0  0  0  0  0  0  0  0
    5.1933   -4.0314    2.9690 C   0  0  0  0  0  0  0  0  0  0  0  0
    5.4122   -2.7634    2.5901 N   0  0  0  0  0  0  0  0  0  0  0  0
    5.3361   -2.8406    1.2142 C   0  0  0  0  0  0  0  0  0  0  0  0
    5.4895   -1.8266    0.2512 C   0  0  0  0  0  0  0  0  0  0  0  0
    5.3332   -2.0964   -1.1310 C   0  0  0  0  0  0  0  0  0  0  0  0
    5.0063   -3.4036   -1.5577 C   0  0  0  0  0  0  0  0  0  0  0  0
    4.8558   -4.4206   -0.6085 C   0  0  0  0  0  0  0  0  0  0  0  0
    5.0335   -4.1631    0.7731 C   0  0  0  0  0  0  0  0  0  0  0  0
    4.9980   -4.9062    1.9627 N   0  0  0  0  0  0  0  0  0  0  0  0
    4.6434   -6.3219    2.1168 C   0  0  2  0  0  0  0  0  0  0  0  0
    5.5686   -7.0863    3.1029 C   0  0  0  0  0  0  0  0  0  0  0  0
    5.6619   -8.5950    2.8023 C   0  0  2  0  0  0  0  0  0  0  0  0
    6.2708   -8.9594    1.4639 C   0  0  0  0  0  0  0  0  0  0  0  0
    4.8545   -8.6606    0.9756 C   0  0  2  0  0  0  0  0  0  0  0  0
    4.5404   -7.1629    0.7946 C   0  0  0  0  0  0  0  0  0  0  0  0
    4.4399   -9.1860    2.2534 N   0  0  2  0  0  0  0  0  0  0  0  0
    3.0800   -8.8466    2.8188 C   0  0  2  0  0  0  0  0  0  0  0  0
    3.1110   -8.8277    4.3947 C   0  0  2  0  0  0  0  0  0  0  0  0
    3.4380  -10.2286    4.9252 C   0  0  0  0  0  0  0  0  0  0  0  0
    2.3479  -11.2049    4.4493 C   0  0  1  0  0  0  0  0  0  0  0  0
    0.9914  -10.7032    4.9940 C   0  0  0  0  0  0  0  0  0  0  0  0
    0.6614   -9.2924    4.4529 C   0  0  1  0  0  0  0  0  0  0  0  0
    1.7595   -8.3239    4.9106 C   0  0  0  0  0  0  0  0  0  0  0  0
    0.6228   -9.3479    2.9087 C   0  0  0  0  0  0  0  0  0  0  0  0
    1.9889   -9.8452    2.3755 C   0  0  2  0  0  0  0  0  0  0  0  0
    2.2993  -11.2534    2.8998 C   0  0  0  0  0  0  0  0  0  0  0  0
    5.2707   -3.4823    5.0515 H   0  0  0  0  0  0  0  0  0  0  0  0
    5.9892   -5.0153    4.7095 H   0  0  0  0  0  0  0  0  0  0  0  0
    4.2027   -4.8586    4.7067 H   0  0  0  0  0  0  0  0  0  0  0  0
    5.7176   -0.8315    0.6082 H   0  0  0  0  0  0  0  0  0  0  0  0
    5.4353   -1.3093   -1.8544 H   0  0  0  0  0  0  0  0  0  0  0  0
    4.8804   -3.6366   -2.6090 H   0  0  0  0  0  0  0  0  0  0  0  0
    4.6160   -5.3946   -1.0002 H   0  0  0  0  0  0  0  0  0  0  0  0
    3.6545   -6.2507    2.5692 H   0  0  0  0  0  0  0  0  0  0  0  0
    6.5822   -6.6638    3.0502 H   0  0  0  0  0  0  0  0  0  0  0  0
    5.2260   -6.9518    4.1211 H   0  0  0  0  0  0  0  0  0  0  0  0
    6.0884   -9.1657    3.6232 H   0  0  0  0  0  0  0  0  0  0  0  0
    7.0450   -8.2538    1.1489 H   0  0  0  0  0  0  0  0  0  0  0  0
    6.6089   -9.9929    1.3846 H   0  0  0  0  0  0  0  0  0  0  0  0
    4.5701   -9.2859    0.1297 H   0  0  0  0  0  0  0  0  0  0  0  0
    3.5717   -7.0121    0.3083 H   0  0  0  0  0  0  0  0  0  0  0  0
    5.3284   -6.8481    0.1182 H   0  0  0  0  0  0  0  0  0  0  0  0
    2.6648   -7.9146    2.4385 H   0  0  0  0  0  0  0  0  0  0  0  0
    3.8316   -8.1625    4.8285 H   0  0  0  0  0  0  0  0  0  0  0  0
    4.4137  -10.5699    4.5777 H   0  0  0  0  0  0  0  0  0  0  0  0
    3.5003  -10.2064    6.0095 H   0  0  0  0  0  0  0  0  0  0  0  0
    2.5658  -12.2117    4.8364 H   0  0  0  0  0  0  0  0  0  0  0  0
    0.2058  -11.4033    4.7298 H   0  0  0  0  0  0  0  0  0  0  0  0
    1.0422  -10.6532    6.0825 H   0  0  0  0  0  0  0  0  0  0  0  0
   -0.3008   -8.9588    4.8451 H   0  0  0  0  0  0  0  0  0  0  0  0
    1.8028   -8.2530    5.9954 H   0  0  0  0  0  0  0  0  0  0  0  0
    1.5769   -7.3123    4.5440 H   0  0  0  0  0  0  0  0  0  0  0  0
   -0.1873  -10.0015    2.5777 H   0  0  0  0  0  0  0  0  0  0  0  0
    0.3902   -8.3570    2.5151 H   0  0  0  0  0  0  0  0  0  0  0  0
    1.9558   -9.8613    1.2875 H   0  0  0  0  0  0  0  0  0  0  0  0
    3.2528  -11.6037    2.4997 H   0  0  0  0  0  0  0  0  0  0  0  0
    1.5450  -11.9708    2.5769 H   0  0  0  0  0  0  0  0  0  0  0  0
    4.5829  -10.2009    2.2233 H   0  0  0  0  0  0  0  0  0  0  0  0
  1  2  1  0
  1 28  1  0
  1 29  1  0
  1 30  1  0
  2 10  1  0
  2  3  2  0
  3  4  1  0
  4  9  2  0
  4  5  1  0
  5  6  2  0
  5 31  1  0
  6  7  1  0
  6 32  1  0
  7  8  2  0
  7 33  1  0
  8  9  1  0
  8 34  1  0
  9 10  1  0
 10 11  1  0
 11 16  1  0
 11 12  1  0
 11 35  1  1
 12 13  1  0
 12 36  1  0
 12 37  1  0
 13 17  1  0
 13 14  1  0
 13 38  1  1
 14 15  1  0
 14 39  1  0
 14 40  1  0
 15 16  1  0
 15 17  1  0
 15 41  1  6
 16 42  1  0
 16 43  1  0
 17 18  1  0
 17 59  1  6
 18 26  1  0
 18 19  1  0
 18 44  1  6
 19 24  1  0
 19 20  1  0
 19 45  1  6
 20 21  1  0
 20 46  1  0
 20 47  1  0
 21 27  1  0
 21 22  1  0
 21 48  1  1
 22 23  1  0
 22 49  1  0
 22 50  1  0
 23 24  1  0
 23 25  1  0
 23 51  1  1
 24 52  1  0
 24 53  1  0
 25 26  1  0
 25 54  1  0
 25 55  1  0
 26 27  1  0
 26 56  1  6
 27 57  1  0
 27 58  1  0
M  CHG  1  17   1
M  END
>  <i_m_ct_stereo_status>  (305) 
1

>  <s_m_source_file>  (305) 
/var/tmp/pbs.5076255.sched01/tmp6zmtdo5c/111u4f9dq10.sdf

>  <i_m_source_file_index>  (305) 
33

>  <i_lp_mmshare_version>  (305) 
48012

>  <i_f3d_flags>  (305) 
0

>  <s_epik_input>  (305) 
W2NIXTFbY0hdW2NIXVtjSF1jKGMxMiluKGMobjIpW0NIM10pW0NASF0oW0NIMl1bQ0BIXTM0KVtDSDJdW0NAQEhdKFtDSDJdMylONFtDQEhdKFtDQEBIXTU2KVtDQEhdN1tDSDJdW0NAQEhdKFtDSDJdNilbQ0gyXVtDQEBIXShbQ0gyXTUpW0NIMl03

>  <s_epik_cmdline>  (305) 
J2VwaWtfcHl0aG9uJywgJy1waHQnLCAnMi4wJywgJy1waCcsICc3LjAnLCAnLXRuJywgJzgnLCAnLW1hJywgJzIwMCcsICctaW1hZScsICc8aW5maWxlLm1hZT4nLCAnLW9tYWUnLCAnPG91dGZpbGUubWFlPic=

>  <r_epik_Ionization_Penalty>  (305) 
0.148799

>  <r_epik_Ionization_Penalty_Charging>  (305) 
0.000375909

>  <r_epik_Ionization_Penalty_Neutral>  (305) 
0.148423

>  <r_epik_State_Penalty>  (305) 
0.137716

>  <r_epik_Charging_Adjusted_Penalty>  (305) 
0.138091

>  <i_epik_Tot_Q>  (305) 
1

>  <i_epik_Tot_abs_Q>  (305) 
1

>  <s_lp_Force_Field>  (305) 
OPLS3e

>  <r_lp_Energy>  (305) 
35.9999

>  <b_lp_Chiralities_Consistent>  (305) 
1

>  <s_lp_Variant>  (305) 
114:0-1

>  <s_i_glide_gridfile>  (305) 
pfpi4k_grid

>  <i_i_glide_lignum>  (305) 
33

>  <i_i_glide_rotatable_bonds>  (305) 
2

>  <r_i_docking_score>  (305) 
-2.88881

>  <r_i_glide_ligand_efficiency>  (305) 
-0.106993

>  <r_i_glide_ligand_efficiency_sa>  (305) 
-0.320979

>  <r_i_glide_ligand_efficiency_ln>  (305) 
-0.672468

>  <r_i_glide_gscore>  (305) 
-2.88881

>  <r_i_glide_lipo>  (305) 
-0.552057

>  <r_i_glide_hbond>  (305) 
0

>  <r_i_glide_metal>  (305) 
-0

>  <r_i_glide_rewards>  (305) 
-1.00421

>  <r_i_glide_evdw>  (305) 
-23.2066

>  <r_i_glide_ecoul>  (305) 
-2.90424

>  <r_i_glide_erotb>  (305) 
0.29222

>  <r_i_glide_esite>  (305) 
-0.0288012

>  <r_i_glide_emodel>  (305) 
-27.9146

>  <r_i_glide_energy>  (305) 
-26.1109

>  <r_i_glide_einternal>  (305) 
5.72082

>  <r_i_glide_intrahb_reward>  (305) 
-0

>  <i_i_glide_confnum>  (305) 
1

>  <i_i_glide_posenum>  (305) 
12

>  <r_i_glide_eff_state_penalty>  (305) 
0

>  <ligand_id>  (305) 
114

>  <original_smiles>  (305) 
Cc1nc2ccccc2n1C1CC2CC(C1)N2C1C2CC3CC(C2)CC1C3

>  <smiles>  (305) 
[H]c1c([H])c([H])c2c(nc(C([H])([H])[H])n2C2([H])C([H])([H])C3([H])C([H])([H])C([H])(C2([H])[H])[N+]3([H])C2([H])C3([H])C([H])([H])C4([H])C([H])([H])C([H])(C3([H])[H])C([H])([H])C2([H])C4([H])[H])c1[H]

$$$$
114:0:1
     RDKit          3D

 59 65  0  0  1  0  0  0  0  0999 V2000
    4.9749   -3.1861    4.2286 C   0  0  0  0  0  0  0  0  0  0  0  0
    5.0849   -2.9875    2.7420 C   0  0  0  0  0  0  0  0  0  0  0  0
    5.4323   -1.8094    2.2470 N   0  0  0  0  0  0  0  0  0  0  0  0
    5.3408   -1.9773    0.8846 C   0  0  0  0  0  0  0  0  0  0  0  0
    5.5890   -1.0668   -0.1457 C   0  0  0  0  0  0  0  0  0  0  0  0
    5.3567   -1.4174   -1.4961 C   0  0  0  0  0  0  0  0  0  0  0  0
    4.8694   -2.6878   -1.8222 C   0  0  0  0  0  0  0  0  0  0  0  0
    4.6168   -3.6149   -0.8024 C   0  0  0  0  0  0  0  0  0  0  0  0
    4.8750   -3.2799    0.5564 C   0  0  0  0  0  0  0  0  0  0  0  0
    4.7535   -3.9314    1.7778 N   0  0  0  0  0  0  0  0  0  0  0  0
    4.1747   -5.2588    2.0131 C   0  0  2  0  0  0  0  0  0  0  0  0
    4.7572   -5.9866    3.2586 C   0  0  0  0  0  0  0  0  0  0  0  0
    4.7433   -7.5081    3.1410 C   0  0  2  0  0  0  0  0  0  0  0  0
    5.5847   -8.0911    2.0053 C   0  0  0  0  0  0  0  0  0  0  0  0
    4.3281   -7.7238    1.1959 C   0  0  2  0  0  0  0  0  0  0  0  0
    4.2043   -6.2467    0.7805 C   0  0  0  0  0  0  0  0  0  0  0  0
    3.6072   -8.0835    2.4196 N   0  0  2  0  0  0  0  0  0  0  0  0
    2.2268   -7.5047    2.6723 C   0  0  2  0  0  0  0  0  0  0  0  0
    1.8844   -7.5103    4.1915 C   0  0  2  0  0  0  0  0  0  0  0  0
    1.8500   -8.9572    4.7285 C   0  0  0  0  0  0  0  0  0  0  0  0
    0.7766   -9.7561    3.9453 C   0  0  1  0  0  0  0  0  0  0  0  0
   -0.5889   -9.0596    4.1455 C   0  0  0  0  0  0  0  0  0  0  0  0
   -0.5573   -7.6098    3.6210 C   0  0  1  0  0  0  0  0  0  0  0  0
    0.5180   -6.8250    4.3932 C   0  0  0  0  0  0  0  0  0  0  0  0
   -0.2174   -7.6391    2.1184 C   0  0  0  0  0  0  0  0  0  0  0  0
    1.1647   -8.3193    1.9202 C   0  0  2  0  0  0  0  0  0  0  0  0
    1.1238   -9.7770    2.4328 C   0  0  0  0  0  0  0  0  0  0  0  0
    5.2072   -2.2505    4.7558 H   0  0  0  0  0  0  0  0  0  0  0  0
    5.6920   -3.9507    4.5635 H   0  0  0  0  0  0  0  0  0  0  0  0
    3.9603   -3.4838    4.5217 H   0  0  0  0  0  0  0  0  0  0  0  0
    5.9538   -0.0935    0.1423 H   0  0  0  0  0  0  0  0  0  0  0  0
    5.5129   -0.6951   -2.2779 H   0  0  0  0  0  0  0  0  0  0  0  0
    4.6989   -2.9702   -2.8601 H   0  0  0  0  0  0  0  0  0  0  0  0
    4.2126   -4.5585   -1.1032 H   0  0  0  0  0  0  0  0  0  0  0  0
    3.1436   -4.9841    2.2071 H   0  0  0  0  0  0  0  0  0  0  0  0
    5.8129   -5.7181    3.3643 H   0  0  0  0  0  0  0  0  0  0  0  0
    4.2145   -5.7044    4.1588 H   0  0  0  0  0  0  0  0  0  0  0  0
    4.9432   -8.0177    4.0829 H   0  0  0  0  0  0  0  0  0  0  0  0
    6.4838   -7.5002    1.7802 H   0  0  0  0  0  0  0  0  0  0  0  0
    5.8165   -9.1516    2.1091 H   0  0  0  0  0  0  0  0  0  0  0  0
    4.1787   -8.4487    0.3857 H   0  0  0  0  0  0  0  0  0  0  0  0
    3.3175   -6.1168    0.1559 H   0  0  0  0  0  0  0  0  0  0  0  0
    5.0969   -6.0523    0.1822 H   0  0  0  0  0  0  0  0  0  0  0  0
    2.0491   -6.5016    2.2838 H   0  0  0  0  0  0  0  0  0  0  0  0
    2.6080   -6.9668    4.7802 H   0  0  0  0  0  0  0  0  0  0  0  0
    2.8268   -9.4446    4.6266 H   0  0  0  0  0  0  0  0  0  0  0  0
    1.6234   -8.9687    5.7987 H   0  0  0  0  0  0  0  0  0  0  0  0
    0.7401  -10.7924    4.3135 H   0  0  0  0  0  0  0  0  0  0  0  0
   -1.3689   -9.6044    3.6207 H   0  0  0  0  0  0  0  0  0  0  0  0
   -0.8323   -9.0580    5.2070 H   0  0  0  0  0  0  0  0  0  0  0  0
   -1.5290   -7.1413    3.7702 H   0  0  0  0  0  0  0  0  0  0  0  0
    0.2805   -6.7812    5.4569 H   0  0  0  0  0  0  0  0  0  0  0  0
    0.5738   -5.7933    4.0508 H   0  0  0  0  0  0  0  0  0  0  0  0
   -0.9892   -8.1616    1.5521 H   0  0  0  0  0  0  0  0  0  0  0  0
   -0.1845   -6.6297    1.7211 H   0  0  0  0  0  0  0  0  0  0  0  0
    1.4162   -8.3195    0.8726 H   0  0  0  0  0  0  0  0  0  0  0  0
    2.0906  -10.2646    2.2632 H   0  0  0  0  0  0  0  0  0  0  0  0
    0.3896  -10.3695    1.8770 H   0  0  0  0  0  0  0  0  0  0  0  0
    3.6736   -9.0802    2.5475 H   0  0  0  0  0  0  0  0  0  0  0  0
  1  2  1  0
  1 28  1  0
  1 29  1  0
  1 30  1  0
  2 10  1  0
  2  3  2  0
  3  4  1  0
  4  9  2  0
  4  5  1  0
  5  6  2  0
  5 31  1  0
  6  7  1  0
  6 32  1  0
  7  8  2  0
  7 33  1  0
  8  9  1  0
  8 34  1  0
  9 10  1  0
 10 11  1  0
 11 16  1  0
 11 12  1  0
 11 35  1  1
 12 13  1  0
 12 36  1  0
 12 37  1  0
 13 17  1  0
 13 14  1  0
 13 38  1  1
 14 15  1  0
 14 39  1  0
 14 40  1  0
 15 16  1  0
 15 17  1  0
 15 41  1  6
 16 42  1  0
 16 43  1  0
 17 18  1  0
 17 59  1  1
 18 26  1  0
 18 19  1  0
 18 44  1  6
 19 24  1  0
 19 20  1  0
 19 45  1  1
 20 21  1  0
 20 46  1  0
 20 47  1  0
 21 27  1  0
 21 22  1  0
 21 48  1  1
 22 23  1  0
 22 49  1  0
 22 50  1  0
 23 24  1  0
 23 25  1  0
 23 51  1  6
 24 52  1  0
 24 53  1  0
 25 26  1  0
 25 54  1  0
 25 55  1  0
 26 27  1  0
 26 56  1  6
 27 57  1  0
 27 58  1  0
M  CHG  1  17   1
M  END
>  <i_m_ct_stereo_status>  (306) 
1

>  <s_m_source_file>  (306) 
/var/tmp/pbs.5076255.sched01/tmp6zmtdo5c/111u4f9dq10.sdf

>  <i_m_source_file_index>  (306) 
33

>  <i_lp_mmshare_version>  (306) 
48012

>  <i_f3d_flags>  (306) 
0

>  <s_epik_input>  (306) 
W2NIXTFbY0hdW2NIXVtjSF1jKGMxMiluKGMobjIpW0NIM10pW0NASF0oW0NIMl1bQ0BIXTM0KVtDSDJdW0NAQEhdKFtDSDJdMylONFtDQEhdKFtDQEBIXTU2KVtDQEhdN1tDSDJdW0NAQEhdKFtDSDJdNilbQ0gyXVtDQEBIXShbQ0gyXTUpW0NIMl03

>  <s_epik_cmdline>  (306) 
J2VwaWtfcHl0aG9uJywgJy1waHQnLCAnMi4wJywgJy1waCcsICc3LjAnLCAnLXRuJywgJzgnLCAnLW1hJywgJzIwMCcsICctaW1hZScsICc8aW5maWxlLm1hZT4nLCAnLW9tYWUnLCAnPG91dGZpbGUubWFlPic=

>  <r_epik_Ionization_Penalty>  (306) 
0.148799

>  <r_epik_Ionization_Penalty_Charging>  (306) 
0.000375909

>  <r_epik_Ionization_Penalty_Neutral>  (306) 
0.148423

>  <r_epik_State_Penalty>  (306) 
0.137716

>  <r_epik_Charging_Adjusted_Penalty>  (306) 
0.138091

>  <i_epik_Tot_Q>  (306) 
1

>  <i_epik_Tot_abs_Q>  (306) 
1

>  <s_lp_Force_Field>  (306) 
OPLS3e

>  <r_lp_Energy>  (306) 
35.9999

>  <b_lp_Chiralities_Consistent>  (306) 
1

>  <s_lp_Variant>  (306) 
114:0-1

>  <s_i_glide_gridfile>  (306) 
pfpi4k_grid

>  <i_i_glide_lignum>  (306) 
33

>  <i_i_glide_rotatable_bonds>  (306) 
2

>  <r_i_docking_score>  (306) 
-2.82131

>  <r_i_glide_ligand_efficiency>  (306) 
-0.104493

>  <r_i_glide_ligand_efficiency_sa>  (306) 
-0.313479

>  <r_i_glide_ligand_efficiency_ln>  (306) 
-0.656754

>  <r_i_glide_gscore>  (306) 
-2.82131

>  <r_i_glide_lipo>  (306) 
-0.503673

>  <r_i_glide_hbond>  (306) 
0

>  <r_i_glide_metal>  (306) 
-0

>  <r_i_glide_rewards>  (306) 
-1.04449

>  <r_i_glide_evdw>  (306) 
-23.7819

>  <r_i_glide_ecoul>  (306) 
-2.47764

>  <r_i_glide_erotb>  (306) 
0.29222

>  <r_i_glide_esite>  (306) 
-0.00461548

>  <r_i_glide_emodel>  (306) 
-28.2691

>  <r_i_glide_energy>  (306) 
-26.2596

>  <r_i_glide_einternal>  (306) 
5.2576

>  <r_i_glide_intrahb_reward>  (306) 
-0

>  <i_i_glide_confnum>  (306) 
4

>  <i_i_glide_posenum>  (306) 
35

>  <r_i_glide_eff_state_penalty>  (306) 
0

>  <ligand_id>  (306) 
114

>  <original_smiles>  (306) 
Cc1nc2ccccc2n1C1CC2CC(C1)N2C1C2CC3CC(C2)CC1C3

>  <smiles>  (306) 
[H]c1c([H])c([H])c2c(nc(C([H])([H])[H])n2C2([H])C([H])([H])C3([H])C([H])([H])C([H])(C2([H])[H])[N+]3([H])C2([H])C3([H])C([H])([H])C4([H])C([H])([H])C([H])(C3([H])[H])C([H])([H])C2([H])C4([H])[H])c1[H]

$$$$
114:0:2
     RDKit          3D

 59 65  0  0  1  0  0  0  0  0999 V2000
    6.4620  -12.1212    5.1579 C   0  0  0  0  0  0  0  0  0  0  0  0
    6.9321  -10.7502    4.7036 C   0  0  0  0  0  0  0  0  0  0  0  0
    8.2345  -10.4128    4.7115 N   0  0  0  0  0  0  0  0  0  0  0  0
    8.2111   -9.1107    4.2674 C   0  0  0  0  0  0  0  0  0  0  0  0
    9.2618   -8.1880    4.0824 C   0  0  0  0  0  0  0  0  0  0  0  0
    9.0386   -6.8892    3.6121 C   0  0  0  0  0  0  0  0  0  0  0  0
    7.7338   -6.4608    3.2922 C   0  0  0  0  0  0  0  0  0  0  0  0
    6.6534   -7.3562    3.4763 C   0  0  0  0  0  0  0  0  0  0  0  0
    6.8930   -8.6537    3.9598 C   0  0  0  0  0  0  0  0  0  0  0  0
    6.0983   -9.7761    4.2725 N   0  0  0  0  0  0  0  0  0  0  0  0
    4.6536   -9.8036    4.1555 C   0  0  2  0  0  0  0  0  0  0  0  0
    3.9295   -9.8871    5.5373 C   0  0  0  0  0  0  0  0  0  0  0  0
    2.6262  -10.7121    5.4342 C   0  0  2  0  0  0  0  0  0  0  0  0
    2.7342  -12.1518    4.9222 C   0  0  0  0  0  0  0  0  0  0  0  0
    2.7751  -11.4622    3.5527 C   0  0  2  0  0  0  0  0  0  0  0  0
    4.1163  -10.8392    3.0967 C   0  0  0  0  0  0  0  0  0  0  0  0
    1.8684  -10.5043    4.1925 N   0  0  2  0  0  0  0  0  0  0  0  0
    1.7182   -9.1148    3.6387 C   0  0  2  0  0  0  0  0  0  0  0  0
    1.1869   -8.1449    4.7107 C   0  0  2  0  0  0  0  0  0  0  0  0
   -0.2434   -8.5505    5.1226 C   0  0  0  0  0  0  0  0  0  0  0  0
   -1.1513   -8.5005    3.8742 C   0  0  1  0  0  0  0  0  0  0  0  0
   -1.1343   -7.0664    3.3121 C   0  0  0  0  0  0  0  0  0  0  0  0
    0.2984   -6.6630    2.9028 C   0  0  1  0  0  0  0  0  0  0  0  0
    1.2077   -6.7181    4.1442 C   0  0  0  0  0  0  0  0  0  0  0  0
    0.8103   -7.6471    1.8311 C   0  0  0  0  0  0  0  0  0  0  0  0
    0.7955   -9.0781    2.4242 C   0  0  2  0  0  0  0  0  0  0  0  0
   -0.6418   -9.4922    2.8033 C   0  0  0  0  0  0  0  0  0  0  0  0
    7.3382  -12.6699    5.5220 H   0  0  0  0  0  0  0  0  0  0  0  0
    6.0148  -12.6952    4.3286 H   0  0  0  0  0  0  0  0  0  0  0  0
    5.7439  -12.0455    5.9905 H   0  0  0  0  0  0  0  0  0  0  0  0
   10.2499   -8.5388    4.3032 H   0  0  0  0  0  0  0  0  0  0  0  0
    9.8889   -6.2395    3.4656 H   0  0  0  0  0  0  0  0  0  0  0  0
    7.5856   -5.4684    2.8987 H   0  0  0  0  0  0  0  0  0  0  0  0
    5.6625   -6.9893    3.2290 H   0  0  0  0  0  0  0  0  0  0  0  0
    4.4387   -8.8024    3.7830 H   0  0  0  0  0  0  0  0  0  0  0  0
    4.5395  -10.3529    6.3101 H   0  0  0  0  0  0  0  0  0  0  0  0
    3.7659   -8.8891    5.9525 H   0  0  0  0  0  0  0  0  0  0  0  0
    1.9937  -10.6417    6.3210 H   0  0  0  0  0  0  0  0  0  0  0  0
    3.6365  -12.6946    5.2239 H   0  0  0  0  0  0  0  0  0  0  0  0
    1.8317  -12.7569    5.0996 H   0  0  0  0  0  0  0  0  0  0  0  0
    2.2852  -12.0897    2.8030 H   0  0  0  0  0  0  0  0  0  0  0  0
    4.0356  -10.3963    2.0960 H   0  0  0  0  0  0  0  0  0  0  0  0
    4.7974  -11.6755    2.9490 H   0  0  0  0  0  0  0  0  0  0  0  0
    2.6146   -8.6985    3.1974 H   0  0  0  0  0  0  0  0  0  0  0  0
    1.8063   -8.1477    5.6000 H   0  0  0  0  0  0  0  0  0  0  0  0
   -0.2493   -9.5498    5.5702 H   0  0  0  0  0  0  0  0  0  0  0  0
   -0.5803   -7.8679    5.9044 H   0  0  0  0  0  0  0  0  0  0  0  0
   -2.1585   -8.7936    4.1518 H   0  0  0  0  0  0  0  0  0  0  0  0
   -1.8065   -7.0073    2.4614 H   0  0  0  0  0  0  0  0  0  0  0  0
   -1.5013   -6.3865    4.0771 H   0  0  0  0  0  0  0  0  0  0  0  0
    0.3132   -5.6498    2.5046 H   0  0  0  0  0  0  0  0  0  0  0  0
    0.8769   -6.0098    4.9032 H   0  0  0  0  0  0  0  0  0  0  0  0
    2.2283   -6.4317    3.8897 H   0  0  0  0  0  0  0  0  0  0  0  0
    0.2035   -7.5896    0.9266 H   0  0  0  0  0  0  0  0  0  0  0  0
    1.8199   -7.3697    1.5250 H   0  0  0  0  0  0  0  0  0  0  0  0
    1.1995   -9.7737    1.6914 H   0  0  0  0  0  0  0  0  0  0  0  0
   -0.6238  -10.5122    3.2002 H   0  0  0  0  0  0  0  0  0  0  0  0
   -1.2829   -9.5140    1.9088 H   0  0  0  0  0  0  0  0  0  0  0  0
    0.9732  -10.9824    4.3338 H   0  0  0  0  0  0  0  0  0  0  0  0
  1  2  1  0
  1 28  1  0
  1 29  1  0
  1 30  1  0
  2 10  1  0
  2  3  2  0
  3  4  1  0
  4  9  2  0
  4  5  1  0
  5  6  2  0
  5 31  1  0
  6  7  1  0
  6 32  1  0
  7  8  2  0
  7 33  1  0
  8  9  1  0
  8 34  1  0
  9 10  1  0
 10 11  1  0
 11 16  1  0
 11 12  1  0
 11 35  1  6
 12 13  1  0
 12 36  1  0
 12 37  1  0
 13 17  1  0
 13 14  1  0
 13 38  1  1
 14 15  1  0
 14 39  1  0
 14 40  1  0
 15 16  1  0
 15 17  1  0
 15 41  1  6
 16 42  1  0
 16 43  1  0
 17 18  1  0
 17 59  1  1
 18 26  1  0
 18 19  1  0
 18 44  1  6
 19 24  1  0
 19 20  1  0
 19 45  1  1
 20 21  1  0
 20 46  1  0
 20 47  1  0
 21 27  1  0
 21 22  1  0
 21 48  1  1
 22 23  1  0
 22 49  1  0
 22 50  1  0
 23 24  1  0
 23 25  1  0
 23 51  1  6
 24 52  1  0
 24 53  1  0
 25 26  1  0
 25 54  1  0
 25 55  1  0
 26 27  1  0
 26 56  1  6
 27 57  1  0
 27 58  1  0
M  CHG  1  17   1
M  END
>  <i_m_ct_stereo_status>  (307) 
1

>  <s_m_source_file>  (307) 
/var/tmp/pbs.5076255.sched01/tmp6zmtdo5c/111u4f9dq10.sdf

>  <i_m_source_file_index>  (307) 
33

>  <i_lp_mmshare_version>  (307) 
48012

>  <i_f3d_flags>  (307) 
0

>  <s_epik_input>  (307) 
W2NIXTFbY0hdW2NIXVtjSF1jKGMxMiluKGMobjIpW0NIM10pW0NASF0oW0NIMl1bQ0BIXTM0KVtDSDJdW0NAQEhdKFtDSDJdMylONFtDQEhdKFtDQEBIXTU2KVtDQEhdN1tDSDJdW0NAQEhdKFtDSDJdNilbQ0gyXVtDQEBIXShbQ0gyXTUpW0NIMl03

>  <s_epik_cmdline>  (307) 
J2VwaWtfcHl0aG9uJywgJy1waHQnLCAnMi4wJywgJy1waCcsICc3LjAnLCAnLXRuJywgJzgnLCAnLW1hJywgJzIwMCcsICctaW1hZScsICc8aW5maWxlLm1hZT4nLCAnLW9tYWUnLCAnPG91dGZpbGUubWFlPic=

>  <r_epik_Ionization_Penalty>  (307) 
0.148799

>  <r_epik_Ionization_Penalty_Charging>  (307) 
0.000375909

>  <r_epik_Ionization_Penalty_Neutral>  (307) 
0.148423

>  <r_epik_State_Penalty>  (307) 
0.137716

>  <r_epik_Charging_Adjusted_Penalty>  (307) 
0.138091

>  <i_epik_Tot_Q>  (307) 
1

>  <i_epik_Tot_abs_Q>  (307) 
1

>  <s_lp_Force_Field>  (307) 
OPLS3e

>  <r_lp_Energy>  (307) 
35.9999

>  <b_lp_Chiralities_Consistent>  (307) 
1

>  <s_lp_Variant>  (307) 
114:0-1

>  <s_i_glide_gridfile>  (307) 
pfpi4k_grid

>  <i_i_glide_lignum>  (307) 
33

>  <i_i_glide_rotatable_bonds>  (307) 
2

>  <r_i_docking_score>  (307) 
-2.30294

>  <r_i_glide_ligand_efficiency>  (307) 
-0.0852941

>  <r_i_glide_ligand_efficiency_sa>  (307) 
-0.255882

>  <r_i_glide_ligand_efficiency_ln>  (307) 
-0.536087

>  <r_i_glide_gscore>  (307) 
-2.30294

>  <r_i_glide_lipo>  (307) 
-0.0310268

>  <r_i_glide_hbond>  (307) 
0

>  <r_i_glide_metal>  (307) 
-0

>  <r_i_glide_rewards>  (307) 
-0.937289

>  <r_i_glide_evdw>  (307) 
-20.9054

>  <r_i_glide_ecoul>  (307) 
-3.78618

>  <r_i_glide_erotb>  (307) 
0.29222

>  <r_i_glide_esite>  (307) 
-0.0136475

>  <r_i_glide_emodel>  (307) 
-28.0268

>  <r_i_glide_energy>  (307) 
-24.6916

>  <r_i_glide_einternal>  (307) 
0.703188

>  <r_i_glide_intrahb_reward>  (307) 
-0

>  <i_i_glide_confnum>  (307) 
4

>  <i_i_glide_posenum>  (307) 
10

>  <r_i_glide_eff_state_penalty>  (307) 
0

>  <ligand_id>  (307) 
114

>  <original_smiles>  (307) 
Cc1nc2ccccc2n1C1CC2CC(C1)N2C1C2CC3CC(C2)CC1C3

>  <smiles>  (307) 
[H]c1c([H])c([H])c2c(nc(C([H])([H])[H])n2C2([H])C([H])([H])C3([H])C([H])([H])C([H])(C2([H])[H])[N+]3([H])C2([H])C3([H])C([H])([H])C4([H])C([H])([H])C([H])(C3([H])[H])C([H])([H])C2([H])C4([H])[H])c1[H]

$$$$
114:1:0
     RDKit          3D

 59 65  0  0  1  0  0  0  0  0999 V2000
    6.7319   -5.5436    4.4334 C   0  0  0  0  0  0  0  0  0  0  0  0
    5.8129   -5.0544    3.3360 C   0  0  0  0  0  0  0  0  0  0  0  0
    5.2990   -3.8387    3.4585 N   0  0  0  0  0  0  0  0  0  0  0  0
    4.6906   -3.6357    2.2498 C   0  0  0  0  0  0  0  0  0  0  0  0
    4.0238   -2.4853    1.7792 C   0  0  0  0  0  0  0  0  0  0  0  0
    3.5011   -2.4519    0.4742 C   0  0  0  0  0  0  0  0  0  0  0  0
    3.6334   -3.5673   -0.3682 C   0  0  0  0  0  0  0  0  0  0  0  0
    4.2932   -4.7270    0.0874 C   0  0  0  0  0  0  0  0  0  0  0  0
    4.8103   -4.7682    1.4014 C   0  0  0  0  0  0  0  0  0  0  0  0
    5.4857   -5.7285    2.1841 N   0  0  0  0  0  0  0  0  0  0  0  0
    5.8508   -7.0969    1.7641 C   0  0  1  0  0  0  0  0  0  0  0  0
    6.1849   -8.0260    2.9727 C   0  0  0  0  0  0  0  0  0  0  0  0
    5.9033   -9.4962    2.6897 C   0  0  2  0  0  0  0  0  0  0  0  0
    6.1422   -9.9874    1.2670 C   0  0  0  0  0  0  0  0  0  0  0  0
    4.7809   -9.3142    1.0253 C   0  0  2  0  0  0  0  0  0  0  0  0
    4.7627   -7.7821    0.8632 C   0  0  0  0  0  0  0  0  0  0  0  0
    4.4828   -9.7511    2.4002 N   0  0  2  0  0  0  0  0  0  0  0  0
    3.4253   -9.0327    3.1926 C   0  0  2  0  0  0  0  0  0  0  0  0
    3.5176   -9.3493    4.7115 C   0  0  1  0  0  0  0  0  0  0  0  0
    2.4590   -8.5054    5.4564 C   0  0  0  0  0  0  0  0  0  0  0  0
    1.0567   -8.8957    4.9575 C   0  0  2  0  0  0  0  0  0  0  0  0
    0.8201  -10.4037    5.1881 C   0  0  0  0  0  0  0  0  0  0  0  0
    1.8843  -11.2308    4.4420 C   0  0  2  0  0  0  0  0  0  0  0  0
    3.2813  -10.8515    4.9617 C   0  0  0  0  0  0  0  0  0  0  0  0
    1.7807  -10.9279    2.9345 C   0  0  0  0  0  0  0  0  0  0  0  0
    2.0147   -9.4216    2.6850 C   0  0  1  0  0  0  0  0  0  0  0  0
    0.9515   -8.5992    3.4484 C   0  0  0  0  0  0  0  0  0  0  0  0
    7.0216   -4.7153    5.0827 H   0  0  0  0  0  0  0  0  0  0  0  0
    7.6490   -5.9619    4.0127 H   0  0  0  0  0  0  0  0  0  0  0  0
    6.2378   -6.2741    5.0755 H   0  0  0  0  0  0  0  0  0  0  0  0
    3.9396   -1.6303    2.4272 H   0  0  0  0  0  0  0  0  0  0  0  0
    3.0129   -1.5580    0.1182 H   0  0  0  0  0  0  0  0  0  0  0  0
    3.2398   -3.5320   -1.3734 H   0  0  0  0  0  0  0  0  0  0  0  0
    4.3935   -5.5505   -0.5899 H   0  0  0  0  0  0  0  0  0  0  0  0
    6.7573   -7.0245    1.1591 H   0  0  0  0  0  0  0  0  0  0  0  0
    7.2365   -7.9234    3.2612 H   0  0  0  0  0  0  0  0  0  0  0  0
    5.5795   -7.7385    3.8268 H   0  0  0  0  0  0  0  0  0  0  0  0
    6.2861  -10.1687    3.4589 H   0  0  0  0  0  0  0  0  0  0  0  0
    6.9955   -9.5160    0.7714 H   0  0  0  0  0  0  0  0  0  0  0  0
    6.1660  -11.0750    1.1740 H   0  0  0  0  0  0  0  0  0  0  0  0
    4.1642   -9.8419    0.3004 H   0  0  0  0  0  0  0  0  0  0  0  0
    3.7614   -7.3938    1.0728 H   0  0  0  0  0  0  0  0  0  0  0  0
    4.9468   -7.5457   -0.1873 H   0  0  0  0  0  0  0  0  0  0  0  0
    3.5030   -7.9451    3.1103 H   0  0  0  0  0  0  0  0  0  0  0  0
    4.5026   -9.0841    5.1130 H   0  0  0  0  0  0  0  0  0  0  0  0
    2.5497   -8.6525    6.5328 H   0  0  0  0  0  0  0  0  0  0  0  0
    2.6379   -7.4457    5.2829 H   0  0  0  0  0  0  0  0  0  0  0  0
    0.3050   -8.3257    5.5021 H   0  0  0  0  0  0  0  0  0  0  0  0
    0.8376  -10.6416    6.2524 H   0  0  0  0  0  0  0  0  0  0  0  0
   -0.1696  -10.6774    4.8208 H   0  0  0  0  0  0  0  0  0  0  0  0
    1.7158  -12.2929    4.6153 H   0  0  0  0  0  0  0  0  0  0  0  0
    4.0482  -11.4459    4.4662 H   0  0  0  0  0  0  0  0  0  0  0  0
    3.3703  -11.0721    6.0275 H   0  0  0  0  0  0  0  0  0  0  0  0
    2.5257  -11.5281    2.4106 H   0  0  0  0  0  0  0  0  0  0  0  0
    0.8013  -11.2199    2.5494 H   0  0  0  0  0  0  0  0  0  0  0  0
    1.9311   -9.2025    1.6160 H   0  0  0  0  0  0  0  0  0  0  0  0
   -0.0459   -8.8533    3.0887 H   0  0  0  0  0  0  0  0  0  0  0  0
    1.0838   -7.5315    3.2645 H   0  0  0  0  0  0  0  0  0  0  0  0
    4.3282  -10.7561    2.3915 H   0  0  0  0  0  0  0  0  0  0  0  0
  1  2  1  0
  1 28  1  0
  1 29  1  0
  1 30  1  0
  2 10  1  0
  2  3  2  0
  3  4  1  0
  4  9  2  0
  4  5  1  0
  5  6  2  0
  5 31  1  0
  6  7  1  0
  6 32  1  0
  7  8  2  0
  7 33  1  0
  8  9  1  0
  8 34  1  0
  9 10  1  0
 10 11  1  0
 11 16  1  0
 11 12  1  0
 11 35  1  6
 12 13  1  0
 12 36  1  0
 12 37  1  0
 13 17  1  0
 13 14  1  0
 13 38  1  1
 14 15  1  0
 14 39  1  0
 14 40  1  0
 15 16  1  0
 15 17  1  0
 15 41  1  6
 16 42  1  0
 16 43  1  0
 17 18  1  0
 17 59  1  6
 18 26  1  0
 18 19  1  0
 18 44  1  1
 19 24  1  0
 19 20  1  0
 19 45  1  1
 20 21  1  0
 20 46  1  0
 20 47  1  0
 21 27  1  0
 21 22  1  0
 21 48  1  1
 22 23  1  0
 22 49  1  0
 22 50  1  0
 23 24  1  0
 23 25  1  0
 23 51  1  6
 24 52  1  0
 24 53  1  0
 25 26  1  0
 25 54  1  0
 25 55  1  0
 26 27  1  0
 26 56  1  6
 27 57  1  0
 27 58  1  0
M  CHG  1  17   1
M  END
>  <i_m_ct_stereo_status>  (308) 
1

>  <s_m_source_file>  (308) 
/var/tmp/pbs.5076255.sched01/tmp6zmtdo5c/111u4f9dq10.sdf

>  <i_m_source_file_index>  (308) 
34

>  <i_lp_mmshare_version>  (308) 
48012

>  <i_f3d_flags>  (308) 
0

>  <s_epik_input>  (308) 
W2NIXTFbY0hdW2NIXVtjSF1jKGMxMiluKGMobjIpW0NIM10pW0NASF0oW0NIMl1bQ0BIXTM0KVtDSDJdW0NAQEhdKFtDSDJdMylONFtDQEhdKFtDQEBIXTU2KVtDQEhdN1tDSDJdW0NAQEhdKFtDSDJdNilbQ0gyXVtDQEBIXShbQ0gyXTUpW0NIMl03

>  <s_epik_cmdline>  (308) 
J2VwaWtfcHl0aG9uJywgJy1waHQnLCAnMi4wJywgJy1waCcsICc3LjAnLCAnLXRuJywgJzgnLCAnLW1hJywgJzIwMCcsICctaW1hZScsICc8aW5maWxlLm1hZT4nLCAnLW9tYWUnLCAnPG91dGZpbGUubWFlPic=

>  <r_epik_Ionization_Penalty>  (308) 
0.148799

>  <r_epik_Ionization_Penalty_Charging>  (308) 
0.000375909

>  <r_epik_Ionization_Penalty_Neutral>  (308) 
0.148423

>  <r_epik_State_Penalty>  (308) 
0.137716

>  <r_epik_Charging_Adjusted_Penalty>  (308) 
0.138091

>  <i_epik_Tot_Q>  (308) 
1

>  <i_epik_Tot_abs_Q>  (308) 
1

>  <s_lp_Force_Field>  (308) 
OPLS3e

>  <r_lp_Energy>  (308) 
38.2503

>  <b_lp_Chiralities_Consistent>  (308) 
1

>  <s_lp_Variant>  (308) 
114:0-2

>  <s_i_glide_gridfile>  (308) 
pfpi4k_grid

>  <i_i_glide_lignum>  (308) 
34

>  <i_i_glide_rotatable_bonds>  (308) 
2

>  <r_i_docking_score>  (308) 
-2.63651

>  <r_i_glide_ligand_efficiency>  (308) 
-0.0976486

>  <r_i_glide_ligand_efficiency_sa>  (308) 
-0.292946

>  <r_i_glide_ligand_efficiency_ln>  (308) 
-0.613737

>  <r_i_glide_gscore>  (308) 
-2.63651

>  <r_i_glide_lipo>  (308) 
-0.339584

>  <r_i_glide_hbond>  (308) 
0

>  <r_i_glide_metal>  (308) 
-0

>  <r_i_glide_rewards>  (308) 
-0.974875

>  <r_i_glide_evdw>  (308) 
-19.77

>  <r_i_glide_ecoul>  (308) 
-3.84019

>  <r_i_glide_erotb>  (308) 
0.29222

>  <r_i_glide_esite>  (308) 
-0.0497429

>  <r_i_glide_emodel>  (308) 
-27.0436

>  <r_i_glide_energy>  (308) 
-23.6102

>  <r_i_glide_einternal>  (308) 
4.10393

>  <r_i_glide_intrahb_reward>  (308) 
-0

>  <i_i_glide_confnum>  (308) 
4

>  <i_i_glide_posenum>  (308) 
33

>  <r_i_glide_eff_state_penalty>  (308) 
0

>  <ligand_id>  (308) 
114

>  <original_smiles>  (308) 
Cc1nc2ccccc2n1C1CC2CC(C1)N2C1C2CC3CC(C2)CC1C3

>  <smiles>  (308) 
[H]c1c([H])c([H])c2c(nc(C([H])([H])[H])n2C2([H])C([H])([H])C3([H])C([H])([H])C([H])(C2([H])[H])[N+]3([H])C2([H])C3([H])C([H])([H])C4([H])C([H])([H])C([H])(C3([H])[H])C([H])([H])C2([H])C4([H])[H])c1[H]

$$$$
114:1:1
     RDKit          3D

 59 65  0  0  1  0  0  0  0  0999 V2000
    6.0953   -5.0143    4.4830 C   0  0  0  0  0  0  0  0  0  0  0  0
    5.4408   -4.5707    3.1960 C   0  0  0  0  0  0  0  0  0  0  0  0
    5.0797   -3.2980    3.0883 N   0  0  0  0  0  0  0  0  0  0  0  0
    4.7125   -3.1907    1.7733 C   0  0  0  0  0  0  0  0  0  0  0  0
    4.2885   -2.0486    1.0637 C   0  0  0  0  0  0  0  0  0  0  0  0
    3.9833   -2.1365   -0.3084 C   0  0  0  0  0  0  0  0  0  0  0  0
    4.1131   -3.3621   -0.9818 C   0  0  0  0  0  0  0  0  0  0  0  0
    4.5346   -4.5133   -0.2875 C   0  0  0  0  0  0  0  0  0  0  0  0
    4.8152   -4.4348    1.0936 C   0  0  0  0  0  0  0  0  0  0  0  0
    5.2198   -5.3476    2.0873 N   0  0  0  0  0  0  0  0  0  0  0  0
    5.4621   -6.7938    1.9038 C   0  0  1  0  0  0  0  0  0  0  0  0
    5.4360   -7.5846    3.2488 C   0  0  0  0  0  0  0  0  0  0  0  0
    5.0137   -9.0388    3.0743 C   0  0  2  0  0  0  0  0  0  0  0  0
    5.4477   -9.7350    1.7913 C   0  0  0  0  0  0  0  0  0  0  0  0
    4.2568   -8.9606    1.2067 C   0  0  2  0  0  0  0  0  0  0  0  0
    4.4813   -7.4675    0.8796 C   0  0  0  0  0  0  0  0  0  0  0  0
    3.6542   -9.1668    2.5349 N   0  0  2  0  0  0  0  0  0  0  0  0
    2.5763   -8.2349    3.0132 C   0  0  2  0  0  0  0  0  0  0  0  0
    2.3281   -8.3710    4.5378 C   0  0  1  0  0  0  0  0  0  0  0  0
    1.2745   -7.3239    4.9635 C   0  0  0  0  0  0  0  0  0  0  0  0
   -0.0503   -7.5999    4.2191 C   0  0  2  0  0  0  0  0  0  0  0  0
   -0.5369   -9.0280    4.5390 C   0  0  0  0  0  0  0  0  0  0  0  0
    0.5261  -10.0630    4.1079 C   0  0  2  0  0  0  0  0  0  0  0  0
    1.8379   -9.7916    4.8741 C   0  0  0  0  0  0  0  0  0  0  0  0
    0.7573   -9.9306    2.5871 C   0  0  0  0  0  0  0  0  0  0  0  0
    1.2501   -8.5057    2.2586 C   0  0  1  0  0  0  0  0  0  0  0  0
    0.1848   -7.4765    2.6997 C   0  0  0  0  0  0  0  0  0  0  0  0
    6.3917   -4.1502    5.0796 H   0  0  0  0  0  0  0  0  0  0  0  0
    7.0042   -5.5851    4.2815 H   0  0  0  0  0  0  0  0  0  0  0  0
    5.4140   -5.5916    5.1094 H   0  0  0  0  0  0  0  0  0  0  0  0
    4.2058   -1.1088    1.5847 H   0  0  0  0  0  0  0  0  0  0  0  0
    3.6544   -1.2535   -0.8387 H   0  0  0  0  0  0  0  0  0  0  0  0
    3.8839   -3.4231   -2.0344 H   0  0  0  0  0  0  0  0  0  0  0  0
    4.6292   -5.4282   -0.8365 H   0  0  0  0  0  0  0  0  0  0  0  0
    6.4657   -6.9030    1.4892 H   0  0  0  0  0  0  0  0  0  0  0  0
    6.4206   -7.5606    3.7274 H   0  0  0  0  0  0  0  0  0  0  0  0
    4.7324   -7.1166    3.9333 H   0  0  0  0  0  0  0  0  0  0  0  0
    5.1541   -9.6394    3.9711 H   0  0  0  0  0  0  0  0  0  0  0  0
    6.4301   -9.4334    1.4250 H   0  0  0  0  0  0  0  0  0  0  0  0
    5.3408  -10.8167    1.8204 H   0  0  0  0  0  0  0  0  0  0  0  0
    3.7262   -9.5169    0.4332 H   0  0  0  0  0  0  0  0  0  0  0  0
    3.5206   -6.9424    0.8421 H   0  0  0  0  0  0  0  0  0  0  0  0
    4.8926   -7.3922   -0.1310 H   0  0  0  0  0  0  0  0  0  0  0  0
    2.8266   -7.1857    2.8395 H   0  0  0  0  0  0  0  0  0  0  0  0
    3.2418   -8.1818    5.1049 H   0  0  0  0  0  0  0  0  0  0  0  0
    1.1259   -7.3517    6.0426 H   0  0  0  0  0  0  0  0  0  0  0  0
    1.6288   -6.3221    4.7315 H   0  0  0  0  0  0  0  0  0  0  0  0
   -0.8038   -6.8784    4.5375 H   0  0  0  0  0  0  0  0  0  0  0  0
   -0.7579   -9.1300    5.6011 H   0  0  0  0  0  0  0  0  0  0  0  0
   -1.4686   -9.2128    3.9996 H   0  0  0  0  0  0  0  0  0  0  0  0
    0.1845  -11.0742    4.3374 H   0  0  0  0  0  0  0  0  0  0  0  0
    2.5880  -10.5357    4.6053 H   0  0  0  0  0  0  0  0  0  0  0  0
    1.6805   -9.8991    5.9486 H   0  0  0  0  0  0  0  0  0  0  0  0
    1.4883  -10.6627    2.2497 H   0  0  0  0  0  0  0  0  0  0  0  0
   -0.1721  -10.1515    2.0606 H   0  0  0  0  0  0  0  0  0  0  0  0
    1.4128   -8.4098    1.1816 H   0  0  0  0  0  0  0  0  0  0  0  0
   -0.7480   -7.6544    2.1605 H   0  0  0  0  0  0  0  0  0  0  0  0
    0.5048   -6.4644    2.4468 H   0  0  0  0  0  0  0  0  0  0  0  0
    3.3672  -10.1358    2.6247 H   0  0  0  0  0  0  0  0  0  0  0  0
  1  2  1  0
  1 28  1  0
  1 29  1  0
  1 30  1  0
  2 10  1  0
  2  3  2  0
  3  4  1  0
  4  9  2  0
  4  5  1  0
  5  6  2  0
  5 31  1  0
  6  7  1  0
  6 32  1  0
  7  8  2  0
  7 33  1  0
  8  9  1  0
  8 34  1  0
  9 10  1  0
 10 11  1  0
 11 16  1  0
 11 12  1  0
 11 35  1  6
 12 13  1  0
 12 36  1  0
 12 37  1  0
 13 17  1  0
 13 14  1  0
 13 38  1  1
 14 15  1  0
 14 39  1  0
 14 40  1  0
 15 16  1  0
 15 17  1  0
 15 41  1  6
 16 42  1  0
 16 43  1  0
 17 18  1  0
 17 59  1  6
 18 26  1  0
 18 19  1  0
 18 44  1  1
 19 24  1  0
 19 20  1  0
 19 45  1  1
 20 21  1  0
 20 46  1  0
 20 47  1  0
 21 27  1  0
 21 22  1  0
 21 48  1  1
 22 23  1  0
 22 49  1  0
 22 50  1  0
 23 24  1  0
 23 25  1  0
 23 51  1  6
 24 52  1  0
 24 53  1  0
 25 26  1  0
 25 54  1  0
 25 55  1  0
 26 27  1  0
 26 56  1  6
 27 57  1  0
 27 58  1  0
M  CHG  1  17   1
M  END
>  <i_m_ct_stereo_status>  (309) 
1

>  <s_m_source_file>  (309) 
/var/tmp/pbs.5076255.sched01/tmp6zmtdo5c/111u4f9dq10.sdf

>  <i_m_source_file_index>  (309) 
34

>  <i_lp_mmshare_version>  (309) 
48012

>  <i_f3d_flags>  (309) 
0

>  <s_epik_input>  (309) 
W2NIXTFbY0hdW2NIXVtjSF1jKGMxMiluKGMobjIpW0NIM10pW0NASF0oW0NIMl1bQ0BIXTM0KVtDSDJdW0NAQEhdKFtDSDJdMylONFtDQEhdKFtDQEBIXTU2KVtDQEhdN1tDSDJdW0NAQEhdKFtDSDJdNilbQ0gyXVtDQEBIXShbQ0gyXTUpW0NIMl03

>  <s_epik_cmdline>  (309) 
J2VwaWtfcHl0aG9uJywgJy1waHQnLCAnMi4wJywgJy1waCcsICc3LjAnLCAnLXRuJywgJzgnLCAnLW1hJywgJzIwMCcsICctaW1hZScsICc8aW5maWxlLm1hZT4nLCAnLW9tYWUnLCAnPG91dGZpbGUubWFlPic=

>  <r_epik_Ionization_Penalty>  (309) 
0.148799

>  <r_epik_Ionization_Penalty_Charging>  (309) 
0.000375909

>  <r_epik_Ionization_Penalty_Neutral>  (309) 
0.148423

>  <r_epik_State_Penalty>  (309) 
0.137716

>  <r_epik_Charging_Adjusted_Penalty>  (309) 
0.138091

>  <i_epik_Tot_Q>  (309) 
1

>  <i_epik_Tot_abs_Q>  (309) 
1

>  <s_lp_Force_Field>  (309) 
OPLS3e

>  <r_lp_Energy>  (309) 
38.2503

>  <b_lp_Chiralities_Consistent>  (309) 
1

>  <s_lp_Variant>  (309) 
114:0-2

>  <s_i_glide_gridfile>  (309) 
pfpi4k_grid

>  <i_i_glide_lignum>  (309) 
34

>  <i_i_glide_rotatable_bonds>  (309) 
2

>  <r_i_docking_score>  (309) 
-2.51601

>  <r_i_glide_ligand_efficiency>  (309) 
-0.0931854

>  <r_i_glide_ligand_efficiency_sa>  (309) 
-0.279556

>  <r_i_glide_ligand_efficiency_ln>  (309) 
-0.585685

>  <r_i_glide_gscore>  (309) 
-2.51601

>  <r_i_glide_lipo>  (309) 
-0.319906

>  <r_i_glide_hbond>  (309) 
0

>  <r_i_glide_metal>  (309) 
-0

>  <r_i_glide_rewards>  (309) 
-0.974484

>  <r_i_glide_evdw>  (309) 
-21.9005

>  <r_i_glide_ecoul>  (309) 
-2.64545

>  <r_i_glide_erotb>  (309) 
0.29222

>  <r_i_glide_esite>  (309) 
-0.0219955

>  <r_i_glide_emodel>  (309) 
-27.7048

>  <r_i_glide_energy>  (309) 
-24.5459

>  <r_i_glide_einternal>  (309) 
3.71027

>  <r_i_glide_intrahb_reward>  (309) 
-0

>  <i_i_glide_confnum>  (309) 
3

>  <i_i_glide_posenum>  (309) 
21

>  <r_i_glide_eff_state_penalty>  (309) 
0

>  <ligand_id>  (309) 
114

>  <original_smiles>  (309) 
Cc1nc2ccccc2n1C1CC2CC(C1)N2C1C2CC3CC(C2)CC1C3

>  <smiles>  (309) 
[H]c1c([H])c([H])c2c(nc(C([H])([H])[H])n2C2([H])C([H])([H])C3([H])C([H])([H])C([H])(C2([H])[H])[N+]3([H])C2([H])C3([H])C([H])([H])C4([H])C([H])([H])C([H])(C3([H])[H])C([H])([H])C2([H])C4([H])[H])c1[H]

$$$$
114:1:2
     RDKit          3D

 59 65  0  0  1  0  0  0  0  0999 V2000
    6.5249   -7.0142    4.9555 C   0  0  0  0  0  0  0  0  0  0  0  0
    6.0296   -6.3503    3.6995 C   0  0  0  0  0  0  0  0  0  0  0  0
    6.1762   -5.0522    3.5886 N   0  0  0  0  0  0  0  0  0  0  0  0
    5.8128   -4.7860    2.2856 C   0  0  0  0  0  0  0  0  0  0  0  0
    5.8502   -3.5750    1.5650 C   0  0  0  0  0  0  0  0  0  0  0  0
    5.4469   -3.5265    0.2091 C   0  0  0  0  0  0  0  0  0  0  0  0
    5.0034   -4.6962   -0.4274 C   0  0  0  0  0  0  0  0  0  0  0  0
    4.9606   -5.9124    0.2820 C   0  0  0  0  0  0  0  0  0  0  0  0
    5.3615   -5.9639    1.6413 C   0  0  0  0  0  0  0  0  0  0  0  0
    5.4328   -6.9633    2.6387 N   0  0  0  0  0  0  0  0  0  0  0  0
    5.0475   -8.3732    2.5334 C   0  0  1  0  0  0  0  0  0  0  0  0
    4.5472   -8.9601    3.8949 C   0  0  0  0  0  0  0  0  0  0  0  0
    3.5603  -10.1070    3.7003 C   0  0  2  0  0  0  0  0  0  0  0  0
    3.7850  -11.0081    2.4952 C   0  0  0  0  0  0  0  0  0  0  0  0
    3.1207   -9.8557    1.7449 C   0  0  2  0  0  0  0  0  0  0  0  0
    3.9836   -8.6343    1.4244 C   0  0  0  0  0  0  0  0  0  0  0  0
    2.3643   -9.6830    2.9817 N   0  0  2  0  0  0  0  0  0  0  0  0
    1.7208   -8.3634    3.2866 C   0  0  2  0  0  0  0  0  0  0  0  0
    1.0560   -8.3662    4.6818 C   0  0  1  0  0  0  0  0  0  0  0  0
    0.5191   -6.9527    4.9786 C   0  0  0  0  0  0  0  0  0  0  0  0
   -0.5319   -6.5842    3.9086 C   0  0  2  0  0  0  0  0  0  0  0  0
   -1.6748   -7.6051    3.9198 C   0  0  0  0  0  0  0  0  0  0  0  0
   -1.1286   -9.0058    3.6358 C   0  0  2  0  0  0  0  0  0  0  0  0
   -0.0954   -9.3868    4.7248 C   0  0  0  0  0  0  0  0  0  0  0  0
   -0.4825   -9.0226    2.2500 C   0  0  0  0  0  0  0  0  0  0  0  0
    0.6641   -7.9967    2.2175 C   0  0  1  0  0  0  0  0  0  0  0  0
    0.1163   -6.5866    2.5140 C   0  0  0  0  0  0  0  0  0  0  0  0
    7.1943   -6.3423    5.4943 H   0  0  0  0  0  0  0  0  0  0  0  0
    7.0870   -7.9154    4.7153 H   0  0  0  0  0  0  0  0  0  0  0  0
    5.6988   -7.2369    5.6293 H   0  0  0  0  0  0  0  0  0  0  0  0
    6.2026   -2.6790    2.0474 H   0  0  0  0  0  0  0  0  0  0  0  0
    5.4804   -2.5971   -0.3395 H   0  0  0  0  0  0  0  0  0  0  0  0
    4.6954   -4.6654   -1.4639 H   0  0  0  0  0  0  0  0  0  0  0  0
    4.6157   -6.7749   -0.2523 H   0  0  0  0  0  0  0  0  0  0  0  0
    5.9424   -8.9260    2.2455 H   0  0  0  0  0  0  0  0  0  0  0  0
    5.3939   -9.3457    4.4628 H   0  0  0  0  0  0  0  0  0  0  0  0
    4.0805   -8.1935    4.5158 H   0  0  0  0  0  0  0  0  0  0  0  0
    3.3334  -10.6595    4.6117 H   0  0  0  0  0  0  0  0  0  0  0  0
    4.8310  -11.1610    2.2304 H   0  0  0  0  0  0  0  0  0  0  0  0
    3.2135  -11.9365    2.4962 H   0  0  0  0  0  0  0  0  0  0  0  0
    2.4883  -10.1817    0.9200 H   0  0  0  0  0  0  0  0  0  0  0  0
    3.3358   -7.7678    1.2774 H   0  0  0  0  0  0  0  0  0  0  0  0
    4.4820   -8.8021    0.4700 H   0  0  0  0  0  0  0  0  0  0  0  0
    2.4351   -7.5417    3.2838 H   0  0  0  0  0  0  0  0  0  0  0  0
    1.7950   -8.6175    5.4487 H   0  0  0  0  0  0  0  0  0  0  0  0
    0.0865   -6.9043    5.9779 H   0  0  0  0  0  0  0  0  0  0  0  0
    1.3295   -6.2254    4.9599 H   0  0  0  0  0  0  0  0  0  0  0  0
   -0.9229   -5.6024    4.1510 H   0  0  0  0  0  0  0  0  0  0  0  0
   -2.1467   -7.5952    4.8857 H   0  0  0  0  0  0  0  0  0  0  0  0
   -2.4439   -7.3580    3.1865 H   0  0  0  0  0  0  0  0  0  0  0  0
   -1.9545   -9.7038    3.6138 H   0  0  0  0  0  0  0  0  0  0  0  0
    0.2712  -10.4017    4.5621 H   0  0  0  0  0  0  0  0  0  0  0  0
   -0.5610   -9.4026    5.7116 H   0  0  0  0  0  0  0  0  0  0  0  0
   -0.1215  -10.0302    2.0415 H   0  0  0  0  0  0  0  0  0  0  0  0
   -1.2265   -8.7841    1.4866 H   0  0  0  0  0  0  0  0  0  0  0  0
    1.1032   -7.9885    1.2198 H   0  0  0  0  0  0  0  0  0  0  0  0
   -0.6137   -6.3186    1.7497 H   0  0  0  0  0  0  0  0  0  0  0  0
    0.9117   -5.8395    2.4731 H   0  0  0  0  0  0  0  0  0  0  0  0
    1.6811  -10.4348    3.0447 H   0  0  0  0  0  0  0  0  0  0  0  0
  1  2  1  0
  1 28  1  0
  1 29  1  0
  1 30  1  0
  2 10  1  0
  2  3  2  0
  3  4  1  0
  4  9  2  0
  4  5  1  0
  5  6  2  0
  5 31  1  0
  6  7  1  0
  6 32  1  0
  7  8  2  0
  7 33  1  0
  8  9  1  0
  8 34  1  0
  9 10  1  0
 10 11  1  0
 11 16  1  0
 11 12  1  0
 11 35  1  6
 12 13  1  0
 12 36  1  0
 12 37  1  0
 13 17  1  0
 13 14  1  0
 13 38  1  1
 14 15  1  0
 14 39  1  0
 14 40  1  0
 15 16  1  0
 15 17  1  0
 15 41  1  6
 16 42  1  0
 16 43  1  0
 17 18  1  0
 17 59  1  6
 18 26  1  0
 18 19  1  0
 18 44  1  1
 19 24  1  0
 19 20  1  0
 19 45  1  1
 20 21  1  0
 20 46  1  0
 20 47  1  0
 21 27  1  0
 21 22  1  0
 21 48  1  1
 22 23  1  0
 22 49  1  0
 22 50  1  0
 23 24  1  0
 23 25  1  0
 23 51  1  6
 24 52  1  0
 24 53  1  0
 25 26  1  0
 25 54  1  0
 25 55  1  0
 26 27  1  0
 26 56  1  6
 27 57  1  0
 27 58  1  0
M  CHG  1  17   1
M  END
>  <i_m_ct_stereo_status>  (310) 
1

>  <s_m_source_file>  (310) 
/var/tmp/pbs.5076255.sched01/tmp6zmtdo5c/111u4f9dq10.sdf

>  <i_m_source_file_index>  (310) 
34

>  <i_lp_mmshare_version>  (310) 
48012

>  <i_f3d_flags>  (310) 
0

>  <s_epik_input>  (310) 
W2NIXTFbY0hdW2NIXVtjSF1jKGMxMiluKGMobjIpW0NIM10pW0NASF0oW0NIMl1bQ0BIXTM0KVtDSDJdW0NAQEhdKFtDSDJdMylONFtDQEhdKFtDQEBIXTU2KVtDQEhdN1tDSDJdW0NAQEhdKFtDSDJdNilbQ0gyXVtDQEBIXShbQ0gyXTUpW0NIMl03

>  <s_epik_cmdline>  (310) 
J2VwaWtfcHl0aG9uJywgJy1waHQnLCAnMi4wJywgJy1waCcsICc3LjAnLCAnLXRuJywgJzgnLCAnLW1hJywgJzIwMCcsICctaW1hZScsICc8aW5maWxlLm1hZT4nLCAnLW9tYWUnLCAnPG91dGZpbGUubWFlPic=

>  <r_epik_Ionization_Penalty>  (310) 
0.148799

>  <r_epik_Ionization_Penalty_Charging>  (310) 
0.000375909

>  <r_epik_Ionization_Penalty_Neutral>  (310) 
0.148423

>  <r_epik_State_Penalty>  (310) 
0.137716

>  <r_epik_Charging_Adjusted_Penalty>  (310) 
0.138091

>  <i_epik_Tot_Q>  (310) 
1

>  <i_epik_Tot_abs_Q>  (310) 
1

>  <s_lp_Force_Field>  (310) 
OPLS3e

>  <r_lp_Energy>  (310) 
38.2503

>  <b_lp_Chiralities_Consistent>  (310) 
1

>  <s_lp_Variant>  (310) 
114:0-2

>  <s_i_glide_gridfile>  (310) 
pfpi4k_grid

>  <i_i_glide_lignum>  (310) 
34

>  <i_i_glide_rotatable_bonds>  (310) 
2

>  <r_i_docking_score>  (310) 
-2.3368

>  <r_i_glide_ligand_efficiency>  (310) 
-0.0865483

>  <r_i_glide_ligand_efficiency_sa>  (310) 
-0.259645

>  <r_i_glide_ligand_efficiency_ln>  (310) 
-0.543969

>  <r_i_glide_gscore>  (310) 
-2.3368

>  <r_i_glide_lipo>  (310) 
-0.329988

>  <r_i_glide_hbond>  (310) 
0

>  <r_i_glide_metal>  (310) 
-0

>  <r_i_glide_rewards>  (310) 
-0.944541

>  <r_i_glide_evdw>  (310) 
-18.8465

>  <r_i_glide_ecoul>  (310) 
-2.74779

>  <r_i_glide_erotb>  (310) 
0.29222

>  <r_i_glide_esite>  (310) 
0

>  <r_i_glide_emodel>  (310) 
-25.073

>  <r_i_glide_energy>  (310) 
-21.5943

>  <r_i_glide_einternal>  (310) 
2.5827

>  <r_i_glide_intrahb_reward>  (310) 
-0

>  <i_i_glide_confnum>  (310) 
3

>  <i_i_glide_posenum>  (310) 
36

>  <r_i_glide_eff_state_penalty>  (310) 
0

>  <ligand_id>  (310) 
114

>  <original_smiles>  (310) 
Cc1nc2ccccc2n1C1CC2CC(C1)N2C1C2CC3CC(C2)CC1C3

>  <smiles>  (310) 
[H]c1c([H])c([H])c2c(nc(C([H])([H])[H])n2C2([H])C([H])([H])C3([H])C([H])([H])C([H])(C2([H])[H])[N+]3([H])C2([H])C3([H])C([H])([H])C4([H])C([H])([H])C([H])(C3([H])[H])C([H])([H])C2([H])C4([H])[H])c1[H]

$$$$
114:2:0
     RDKit          3D

 60 66  0  0  1  0  0  0  0  0999 V2000
    7.6657   -6.0037    1.2647 C   0  0  0  0  0  0  0  0  0  0  0  0
    6.4853   -5.0756    1.4983 C   0  0  0  0  0  0  0  0  0  0  0  0
    6.4994   -3.7178    1.3285 N   0  0  0  0  0  0  0  0  0  0  0  0
    5.2363   -3.1934    1.6392 C   0  0  0  0  0  0  0  0  0  0  0  0
    4.7793   -1.8878    1.6347 C   0  0  0  0  0  0  0  0  0  0  0  0
    3.4291   -1.6550    1.9919 C   0  0  0  0  0  0  0  0  0  0  0  0
    2.5813   -2.7239    2.3434 C   0  0  0  0  0  0  0  0  0  0  0  0
    3.0495   -4.0592    2.3538 C   0  0  0  0  0  0  0  0  0  0  0  0
    4.3987   -4.2753    2.0007 C   0  0  0  0  0  0  0  0  0  0  0  0
    5.2160   -5.4235    1.9199 N   0  0  0  0  0  0  0  0  0  0  0  0
    4.6862   -6.7534    2.2623 C   0  0  2  0  0  0  0  0  0  0  0  0
    5.5027   -7.4100    3.4229 C   0  0  0  0  0  0  0  0  0  0  0  0
    5.6054   -8.9503    3.2024 C   0  0  2  0  0  0  0  0  0  0  0  0
    6.2850   -9.4645    1.9228 C   0  0  0  0  0  0  0  0  0  0  0  0
    4.9171   -9.1417    1.3167 C   0  0  2  0  0  0  0  0  0  0  0  0
    4.5912   -7.6646    0.9958 C   0  0  0  0  0  0  0  0  0  0  0  0
    4.3990   -9.5642    2.6155 N   0  0  2  0  0  0  0  0  0  0  0  0
    3.0377   -9.1249    3.0699 C   0  0  2  0  0  0  0  0  0  0  0  0
    2.9370   -9.1847    4.6254 C   0  0  1  0  0  0  0  0  0  0  0  0
    1.5889   -8.5910    5.0650 C   0  0  0  0  0  0  0  0  0  0  0  0
    0.4748   -9.4643    4.4721 C   0  0  2  0  0  0  0  0  0  0  0  0
    0.6379  -10.9131    4.9738 C   0  0  0  0  0  0  0  0  0  0  0  0
    2.0006  -11.4922    4.5521 C   0  0  2  0  0  0  0  0  0  0  0  0
    3.1134  -10.6324    5.1718 C   0  0  0  0  0  0  0  0  0  0  0  0
    2.0843  -11.4966    3.0058 C   0  0  0  0  0  0  0  0  0  0  0  0
    1.9332  -10.0382    2.4886 C   0  0  1  0  0  0  0  0  0  0  0  0
    0.5711   -9.4597    2.9329 C   0  0  0  0  0  0  0  0  0  0  0  0
    8.5443   -5.4104    0.9620 H   0  0  0  0  0  0  0  0  0  0  0  0
    7.4210   -6.6941    0.4453 H   0  0  0  0  0  0  0  0  0  0  0  0
    7.8664   -6.5864    2.1767 H   0  0  0  0  0  0  0  0  0  0  0  0
    5.4400   -1.0789    1.3624 H   0  0  0  0  0  0  0  0  0  0  0  0
    3.0607   -0.6403    1.9821 H   0  0  0  0  0  0  0  0  0  0  0  0
    1.5615   -2.4785    2.6084 H   0  0  0  0  0  0  0  0  0  0  0  0
    2.3591   -4.8489    2.6397 H   0  0  0  0  0  0  0  0  0  0  0  0
    3.6779   -6.5816    2.6183 H   0  0  0  0  0  0  0  0  0  0  0  0
    6.5273   -7.0311    3.4979 H   0  0  0  0  0  0  0  0  0  0  0  0
    5.0121   -7.1542    4.3740 H   0  0  0  0  0  0  0  0  0  0  0  0
    5.9795   -9.5001    4.0658 H   0  0  0  0  0  0  0  0  0  0  0  0
    7.1152   -8.8586    1.5558 H   0  0  0  0  0  0  0  0  0  0  0  0
    6.5596  -10.5362    1.9344 H   0  0  0  0  0  0  0  0  0  0  0  0
    4.6564   -9.8424    0.5135 H   0  0  0  0  0  0  0  0  0  0  0  0
    3.6123   -7.5736    0.5285 H   0  0  0  0  0  0  0  0  0  0  0  0
    5.2885   -7.3650    0.2246 H   0  0  0  0  0  0  0  0  0  0  0  0
    2.7433   -8.1464    2.7368 H   0  0  0  0  0  0  0  0  0  0  0  0
    3.6835   -8.5851    5.1100 H   0  0  0  0  0  0  0  0  0  0  0  0
    1.5291   -8.5336    6.1513 H   0  0  0  0  0  0  0  0  0  0  0  0
    1.5193   -7.5631    4.7004 H   0  0  0  0  0  0  0  0  0  0  0  0
   -0.4849   -9.0676    4.7916 H   0  0  0  0  0  0  0  0  0  0  0  0
    0.5262  -10.9513    6.0540 H   0  0  0  0  0  0  0  0  0  0  0  0
   -0.1413  -11.5323    4.5413 H   0  0  0  0  0  0  0  0  0  0  0  0
    2.1105  -12.5112    4.9220 H   0  0  0  0  0  0  0  0  0  0  0  0
    4.0953  -11.0186    4.9072 H   0  0  0  0  0  0  0  0  0  0  0  0
    3.0712  -10.6362    6.2669 H   0  0  0  0  0  0  0  0  0  0  0  0
    3.0281  -11.9232    2.6617 H   0  0  0  0  0  0  0  0  0  0  0  0
    1.2851  -12.1183    2.5905 H   0  0  0  0  0  0  0  0  0  0  0  0
    2.0026  -10.0030    1.4069 H   0  0  0  0  0  0  0  0  0  0  0  0
   -0.2445  -10.0373    2.5106 H   0  0  0  0  0  0  0  0  0  0  0  0
    0.4456   -8.4407    2.5585 H   0  0  0  0  0  0  0  0  0  0  0  0
    4.5484  -10.5971    2.6691 H   0  0  0  0  0  0  0  0  0  0  0  0
    7.3138   -3.1798    1.0476 H   0  0  0  0  0  0  0  0  0  0  0  0
  1  2  1  0
  1 28  1  0
  1 29  1  0
  1 30  1  0
  2 10  1  0
  2  3  2  0
  3  4  1  0
  3 60  1  0
  4  9  2  0
  4  5  1  0
  5  6  2  0
  5 31  1  0
  6  7  1  0
  6 32  1  0
  7  8  2  0
  7 33  1  0
  8  9  1  0
  8 34  1  0
  9 10  1  0
 10 11  1  0
 11 16  1  0
 11 12  1  0
 11 35  1  1
 12 13  1  0
 12 36  1  0
 12 37  1  0
 13 17  1  0
 13 14  1  0
 13 38  1  1
 14 15  1  0
 14 39  1  0
 14 40  1  0
 15 16  1  0
 15 17  1  0
 15 41  1  6
 16 42  1  0
 16 43  1  0
 17 18  1  0
 17 59  1  6
 18 26  1  0
 18 19  1  0
 18 44  1  6
 19 24  1  0
 19 20  1  0
 19 45  1  1
 20 21  1  0
 20 46  1  0
 20 47  1  0
 21 27  1  0
 21 22  1  0
 21 48  1  6
 22 23  1  0
 22 49  1  0
 22 50  1  0
 23 24  1  0
 23 25  1  0
 23 51  1  1
 24 52  1  0
 24 53  1  0
 25 26  1  0
 25 54  1  0
 25 55  1  0
 26 27  1  0
 26 56  1  6
 27 57  1  0
 27 58  1  0
M  CHG  2   3   1  17   1
M  END
>  <i_m_ct_stereo_status>  (311) 
1

>  <s_m_source_file>  (311) 
/var/tmp/pbs.5076255.sched01/tmp6zmtdo5c/111u4f9dq10.sdf

>  <i_m_source_file_index>  (311) 
35

>  <i_lp_mmshare_version>  (311) 
48012

>  <i_f3d_flags>  (311) 
0

>  <s_epik_input>  (311) 
W2NIXTFbY0hdW2NIXVtjSF1jKGMxMiluKGMobjIpW0NIM10pW0NASF0oW0NIMl1bQ0BIXTM0KVtDSDJdW0NAQEhdKFtDSDJdMylONFtDQEhdKFtDQEBIXTU2KVtDQEhdN1tDSDJdW0NAQEhdKFtDSDJdNilbQ0gyXVtDQEBIXShbQ0gyXTUpW0NIMl03

>  <s_epik_cmdline>  (311) 
J2VwaWtfcHl0aG9uJywgJy1waHQnLCAnMi4wJywgJy1waCcsICc3LjAnLCAnLXRuJywgJzgnLCAnLW1hJywgJzIwMCcsICctaW1hZScsICc8aW5maWxlLm1hZT4nLCAnLW9tYWUnLCAnPG91dGZpbGUubWFlPic=

>  <r_epik_Ionization_Penalty>  (311) 
0.893308

>  <r_epik_Ionization_Penalty_Charging>  (311) 
0.893308

>  <r_epik_Ionization_Penalty_Neutral>  (311) 
1.7392e-13

>  <r_epik_State_Penalty>  (311) 
0.932042

>  <r_epik_Charging_Adjusted_Penalty>  (311) 
1.82535

>  <i_epik_Tot_Q>  (311) 
2

>  <i_epik_Tot_abs_Q>  (311) 
2

>  <s_lp_Force_Field>  (311) 
OPLS3e

>  <r_lp_Energy>  (311) 
45.3614

>  <b_lp_Chiralities_Consistent>  (311) 
1

>  <s_lp_Variant>  (311) 
114:0-3

>  <s_i_glide_gridfile>  (311) 
pfpi4k_grid

>  <i_i_glide_lignum>  (311) 
35

>  <i_i_glide_rotatable_bonds>  (311) 
2

>  <r_i_docking_score>  (311) 
-2.92808

>  <r_i_glide_ligand_efficiency>  (311) 
-0.108447

>  <r_i_glide_ligand_efficiency_sa>  (311) 
-0.325342

>  <r_i_glide_ligand_efficiency_ln>  (311) 
-0.681608

>  <r_i_glide_gscore>  (311) 
-2.92808

>  <r_i_glide_lipo>  (311) 
-0.34446

>  <r_i_glide_hbond>  (311) 
0

>  <r_i_glide_metal>  (311) 
-0

>  <r_i_glide_rewards>  (311) 
-1.07787

>  <r_i_glide_evdw>  (311) 
-20.668

>  <r_i_glide_ecoul>  (311) 
-4.86449

>  <r_i_glide_erotb>  (311) 
0.290776

>  <r_i_glide_esite>  (311) 
-0.0334496

>  <r_i_glide_emodel>  (311) 
-29.1851

>  <r_i_glide_energy>  (311) 
-25.5325

>  <r_i_glide_einternal>  (311) 
1.00064

>  <r_i_glide_intrahb_reward>  (311) 
-0

>  <i_i_glide_confnum>  (311) 
2

>  <i_i_glide_posenum>  (311) 
18

>  <r_i_glide_eff_state_penalty>  (311) 
0

>  <ligand_id>  (311) 
114

>  <original_smiles>  (311) 
Cc1nc2ccccc2n1C1CC2CC(C1)N2C1C2CC3CC(C2)CC1C3

>  <smiles>  (311) 
[H]c1c([H])c([H])c2c(c1[H])n(C1([H])C([H])([H])C3([H])C([H])([H])C([H])(C1([H])[H])[N+]3([H])C1([H])C3([H])C([H])([H])C4([H])C([H])([H])C([H])(C3([H])[H])C([H])([H])C1([H])C4([H])[H])c(C([H])([H])[H])[n+]2[H]

$$$$
114:2:1
     RDKit          3D

 60 66  0  0  1  0  0  0  0  0999 V2000
    7.8792   -6.1940    3.3474 C   0  0  0  0  0  0  0  0  0  0  0  0
    7.3319   -5.5410    2.0963 C   0  0  0  0  0  0  0  0  0  0  0  0
    7.8712   -4.3924    1.6054 N   0  0  0  0  0  0  0  0  0  0  0  0
    7.0996   -3.9180    0.5515 C   0  0  0  0  0  0  0  0  0  0  0  0
    7.2423   -2.7690   -0.2178 C   0  0  0  0  0  0  0  0  0  0  0  0
    6.3010   -2.5502   -1.2393 C   0  0  0  0  0  0  0  0  0  0  0  0
    5.2187   -3.4392   -1.4411 C   0  0  0  0  0  0  0  0  0  0  0  0
    5.0584   -4.5641   -0.6060 C   0  0  0  0  0  0  0  0  0  0  0  0
    6.0167   -4.8269    0.3630 C   0  0  0  0  0  0  0  0  0  0  0  0
    6.2332   -5.8390    1.3546 N   0  0  0  0  0  0  0  0  0  0  0  0
    5.2411   -6.8975    1.5924 C   0  0  2  0  0  0  0  0  0  0  0  0
    5.8779   -8.0774    2.4201 C   0  0  0  0  0  0  0  0  0  0  0  0
    5.3403   -9.4287    2.0925 C   0  0  2  0  0  0  0  0  0  0  0  0
    5.6540   -9.8607    0.6835 C   0  0  0  0  0  0  0  0  0  0  0  0
    4.3814   -9.0138    0.3853 C   0  0  2  0  0  0  0  0  0  0  0  0
    4.5492   -7.4575    0.3110 C   0  0  0  0  0  0  0  0  0  0  0  0
    3.9264   -9.4722    1.6909 N   0  0  2  0  0  0  0  0  0  0  0  0
    2.9361   -8.6179    2.4832 C   0  0  2  0  0  0  0  0  0  0  0  0
    3.0668   -8.8696    3.9986 C   0  0  1  0  0  0  0  0  0  0  0  0
    2.1463   -7.9050    4.7523 C   0  0  0  0  0  0  0  0  0  0  0  0
    0.6893   -8.1731    4.3215 C   0  0  2  0  0  0  0  0  0  0  0  0
    0.3228   -9.6337    4.6421 C   0  0  0  0  0  0  0  0  0  0  0  0
    1.2615  -10.5872    3.9101 C   0  0  2  0  0  0  0  0  0  0  0  0
    2.7230  -10.3372    4.3454 C   0  0  0  0  0  0  0  0  0  0  0  0
    1.1568  -10.3227    2.4133 C   0  0  0  0  0  0  0  0  0  0  0  0
    1.4961   -8.8575    2.0523 C   0  0  1  0  0  0  0  0  0  0  0  0
    0.5433   -7.9096    2.8070 C   0  0  0  0  0  0  0  0  0  0  0  0
    8.6581   -5.6236    3.8140 H   0  0  0  0  0  0  0  0  0  0  0  0
    8.2644   -7.1922    3.0816 H   0  0  0  0  0  0  0  0  0  0  0  0
    7.0892   -6.3404    4.0960 H   0  0  0  0  0  0  0  0  0  0  0  0
    8.0708   -2.0986   -0.0383 H   0  0  0  0  0  0  0  0  0  0  0  0
    6.3671   -1.7054   -1.8954 H   0  0  0  0  0  0  0  0  0  0  0  0
    4.5359   -3.2490   -2.2454 H   0  0  0  0  0  0  0  0  0  0  0  0
    4.2070   -5.1829   -0.8112 H   0  0  0  0  0  0  0  0  0  0  0  0
    4.4804   -6.3725    2.1957 H   0  0  0  0  0  0  0  0  0  0  0  0
    6.9439   -8.1757    2.1174 H   0  0  0  0  0  0  0  0  0  0  0  0
    5.8225   -7.8735    3.4870 H   0  0  0  0  0  0  0  0  0  0  0  0
    5.5996  -10.2258    2.8063 H   0  0  0  0  0  0  0  0  0  0  0  0
    6.5867   -9.4578    0.2479 H   0  0  0  0  0  0  0  0  0  0  0  0
    5.6861  -10.9408    0.5986 H   0  0  0  0  0  0  0  0  0  0  0  0
    3.8090   -9.4838   -0.4146 H   0  0  0  0  0  0  0  0  0  0  0  0
    3.5628   -6.9794    0.1090 H   0  0  0  0  0  0  0  0  0  0  0  0
    5.2067   -7.1428   -0.4871 H   0  0  0  0  0  0  0  0  0  0  0  0
    3.0373   -7.5518    2.3080 H   0  0  0  0  0  0  0  0  0  0  0  0
    4.0838   -8.6984    4.3662 H   0  0  0  0  0  0  0  0  0  0  0  0
    2.2672   -8.0242    5.8266 H   0  0  0  0  0  0  0  0  0  0  0  0
    2.4299   -6.8819    4.5145 H   0  0  0  0  0  0  0  0  0  0  0  0
    0.0222   -7.5079    4.8648 H   0  0  0  0  0  0  0  0  0  0  0  0
    0.3554   -9.8525    5.7102 H   0  0  0  0  0  0  0  0  0  0  0  0
   -0.6725   -9.8311    4.2603 H   0  0  0  0  0  0  0  0  0  0  0  0
    1.0061  -11.6367    4.0819 H   0  0  0  0  0  0  0  0  0  0  0  0
    3.4007  -11.0294    3.8298 H   0  0  0  0  0  0  0  0  0  0  0  0
    2.8487  -10.5457    5.4127 H   0  0  0  0  0  0  0  0  0  0  0  0
    1.9370  -10.9828    2.1003 H   0  0  0  0  0  0  0  0  0  0  0  0
    0.1982  -10.6302    1.9840 H   0  0  0  0  0  0  0  0  0  0  0  0
    1.4096   -8.6913    0.9747 H   0  0  0  0  0  0  0  0  0  0  0  0
   -0.4790   -8.0892    2.4767 H   0  0  0  0  0  0  0  0  0  0  0  0
    0.7932   -6.8766    2.5588 H   0  0  0  0  0  0  0  0  0  0  0  0
    3.6349  -10.4674    1.6244 H   0  0  0  0  0  0  0  0  0  0  0  0
    8.6749   -3.9232    2.0288 H   0  0  0  0  0  0  0  0  0  0  0  0
  1  2  1  0
  1 28  1  0
  1 29  1  0
  1 30  1  0
  2 10  1  0
  2  3  2  0
  3  4  1  0
  3 60  1  0
  4  9  2  0
  4  5  1  0
  5  6  2  0
  5 31  1  0
  6  7  1  0
  6 32  1  0
  7  8  2  0
  7 33  1  0
  8  9  1  0
  8 34  1  0
  9 10  1  0
 10 11  1  0
 11 16  1  0
 11 12  1  0
 11 35  1  1
 12 13  1  0
 12 36  1  0
 12 37  1  0
 13 17  1  0
 13 14  1  0
 13 38  1  1
 14 15  1  0
 14 39  1  0
 14 40  1  0
 15 16  1  0
 15 17  1  0
 15 41  1  6
 16 42  1  0
 16 43  1  0
 17 18  1  0
 17 59  1  6
 18 26  1  0
 18 19  1  0
 18 44  1  1
 19 24  1  0
 19 20  1  0
 19 45  1  1
 20 21  1  0
 20 46  1  0
 20 47  1  0
 21 27  1  0
 21 22  1  0
 21 48  1  1
 22 23  1  0
 22 49  1  0
 22 50  1  0
 23 24  1  0
 23 25  1  0
 23 51  1  6
 24 52  1  0
 24 53  1  0
 25 26  1  0
 25 54  1  0
 25 55  1  0
 26 27  1  0
 26 56  1  6
 27 57  1  0
 27 58  1  0
M  CHG  2   3   1  17   1
M  END
>  <i_m_ct_stereo_status>  (312) 
1

>  <s_m_source_file>  (312) 
/var/tmp/pbs.5076255.sched01/tmp6zmtdo5c/111u4f9dq10.sdf

>  <i_m_source_file_index>  (312) 
35

>  <i_lp_mmshare_version>  (312) 
48012

>  <i_f3d_flags>  (312) 
0

>  <s_epik_input>  (312) 
W2NIXTFbY0hdW2NIXVtjSF1jKGMxMiluKGMobjIpW0NIM10pW0NASF0oW0NIMl1bQ0BIXTM0KVtDSDJdW0NAQEhdKFtDSDJdMylONFtDQEhdKFtDQEBIXTU2KVtDQEhdN1tDSDJdW0NAQEhdKFtDSDJdNilbQ0gyXVtDQEBIXShbQ0gyXTUpW0NIMl03

>  <s_epik_cmdline>  (312) 
J2VwaWtfcHl0aG9uJywgJy1waHQnLCAnMi4wJywgJy1waCcsICc3LjAnLCAnLXRuJywgJzgnLCAnLW1hJywgJzIwMCcsICctaW1hZScsICc8aW5maWxlLm1hZT4nLCAnLW9tYWUnLCAnPG91dGZpbGUubWFlPic=

>  <r_epik_Ionization_Penalty>  (312) 
0.893308

>  <r_epik_Ionization_Penalty_Charging>  (312) 
0.893308

>  <r_epik_Ionization_Penalty_Neutral>  (312) 
1.7392e-13

>  <r_epik_State_Penalty>  (312) 
0.932042

>  <r_epik_Charging_Adjusted_Penalty>  (312) 
1.82535

>  <i_epik_Tot_Q>  (312) 
2

>  <i_epik_Tot_abs_Q>  (312) 
2

>  <s_lp_Force_Field>  (312) 
OPLS3e

>  <r_lp_Energy>  (312) 
45.3614

>  <b_lp_Chiralities_Consistent>  (312) 
1

>  <s_lp_Variant>  (312) 
114:0-3

>  <s_i_glide_gridfile>  (312) 
pfpi4k_grid

>  <i_i_glide_lignum>  (312) 
35

>  <i_i_glide_rotatable_bonds>  (312) 
2

>  <r_i_docking_score>  (312) 
-2.88324

>  <r_i_glide_ligand_efficiency>  (312) 
-0.106787

>  <r_i_glide_ligand_efficiency_sa>  (312) 
-0.32036

>  <r_i_glide_ligand_efficiency_ln>  (312) 
-0.67117

>  <r_i_glide_gscore>  (312) 
-2.88324

>  <r_i_glide_lipo>  (312) 
-0.84141

>  <r_i_glide_hbond>  (312) 
-0.0989122

>  <r_i_glide_metal>  (312) 
-0

>  <r_i_glide_rewards>  (312) 
-1.11441

>  <r_i_glide_evdw>  (312) 
-9.7613

>  <r_i_glide_ecoul>  (312) 
-5.3584

>  <r_i_glide_erotb>  (312) 
0.290776

>  <r_i_glide_esite>  (312) 
-0.0685219

>  <r_i_glide_emodel>  (312) 
-11.2096

>  <r_i_glide_energy>  (312) 
-15.1197

>  <r_i_glide_einternal>  (312) 
10.3193

>  <r_i_glide_intrahb_reward>  (312) 
-0

>  <i_i_glide_confnum>  (312) 
2

>  <i_i_glide_posenum>  (312) 
1

>  <r_i_glide_eff_state_penalty>  (312) 
0

>  <ligand_id>  (312) 
114

>  <original_smiles>  (312) 
Cc1nc2ccccc2n1C1CC2CC(C1)N2C1C2CC3CC(C2)CC1C3

>  <smiles>  (312) 
[H]c1c([H])c([H])c2c(c1[H])n(C1([H])C([H])([H])C3([H])C([H])([H])C([H])(C1([H])[H])[N+]3([H])C1([H])C3([H])C([H])([H])C4([H])C([H])([H])C([H])(C3([H])[H])C([H])([H])C1([H])C4([H])[H])c(C([H])([H])[H])[n+]2[H]

$$$$
114:3:0
     RDKit          3D

 60 66  0  0  1  0  0  0  0  0999 V2000
    2.8833   -3.7786   -1.2051 C   0  0  0  0  0  0  0  0  0  0  0  0
    3.1524   -3.1353    0.1254 C   0  0  0  0  0  0  0  0  0  0  0  0
    2.6297   -1.9490    0.4771 N   0  0  0  0  0  0  0  0  0  0  0  0
    3.1235   -1.5367    1.7049 C   0  0  0  0  0  0  0  0  0  0  0  0
    2.8582   -0.3709    2.4099 C   0  0  0  0  0  0  0  0  0  0  0  0
    3.5648   -0.1900    3.6088 C   0  0  0  0  0  0  0  0  0  0  0  0
    4.4819   -1.1595    4.0635 C   0  0  0  0  0  0  0  0  0  0  0  0
    4.7065   -2.3519    3.3449 C   0  0  0  0  0  0  0  0  0  0  0  0
    3.9974   -2.5476    2.1488 C   0  0  0  0  0  0  0  0  0  0  0  0
    3.9097   -3.5865    1.1826 N   0  0  0  0  0  0  0  0  0  0  0  0
    4.6688   -4.8705    1.3054 C   0  0  1  0  0  0  0  0  0  0  0  0
    4.8703   -5.3736    2.7673 C   0  0  0  0  0  0  0  0  0  0  0  0
    4.9840   -6.9032    2.8315 C   0  0  2  0  0  0  0  0  0  0  0  0
    5.6656   -7.6178    1.6601 C   0  0  0  0  0  0  0  0  0  0  0  0
    4.3087   -7.3976    0.9989 C   0  0  2  0  0  0  0  0  0  0  0  0
    4.0251   -6.0101    0.4443 C   0  0  0  0  0  0  0  0  0  0  0  0
    3.7694   -7.5719    2.3527 N   0  0  2  0  0  0  0  0  0  0  0  0
    2.4231   -7.0123    2.7211 C   0  0  2  0  0  0  0  0  0  0  0  0
    2.2109   -7.0428    4.2533 C   0  0  2  0  0  0  0  0  0  0  0  0
    2.1936   -8.5003    4.7571 C   0  0  0  0  0  0  0  0  0  0  0  0
    1.0464   -9.2609    4.0647 C   0  0  1  0  0  0  0  0  0  0  0  0
   -0.2917   -8.5731    4.4069 C   0  0  0  0  0  0  0  0  0  0  0  0
   -0.2805   -7.1181    3.8954 C   0  0  1  0  0  0  0  0  0  0  0  0
    0.8708   -6.3495    4.5767 C   0  0  0  0  0  0  0  0  0  0  0  0
   -0.0705   -7.1161    2.3659 C   0  0  0  0  0  0  0  0  0  0  0  0
    1.2772   -7.7974    2.0351 C   0  0  2  0  0  0  0  0  0  0  0  0
    1.2666   -9.2574    2.5374 C   0  0  0  0  0  0  0  0  0  0  0  0
    2.4815   -3.0585   -1.9196 H   0  0  0  0  0  0  0  0  0  0  0  0
    2.1551   -4.5927   -1.1203 H   0  0  0  0  0  0  0  0  0  0  0  0
    3.8165   -4.1607   -1.6260 H   0  0  0  0  0  0  0  0  0  0  0  0
    2.1723    0.3711    2.0306 H   0  0  0  0  0  0  0  0  0  0  0  0
    3.4181    0.7152    4.1766 H   0  0  0  0  0  0  0  0  0  0  0  0
    5.0224   -0.9775    4.9784 H   0  0  0  0  0  0  0  0  0  0  0  0
    5.4234   -3.0389    3.7471 H   0  0  0  0  0  0  0  0  0  0  0  0
    5.6597   -4.6710    0.8942 H   0  0  0  0  0  0  0  0  0  0  0  0
    5.7996   -4.9790    3.1700 H   0  0  0  0  0  0  0  0  0  0  0  0
    4.0704   -5.0203    3.4200 H   0  0  0  0  0  0  0  0  0  0  0  0
    5.3021   -7.2964    3.7971 H   0  0  0  0  0  0  0  0  0  0  0  0
    6.4840   -7.0615    1.1947 H   0  0  0  0  0  0  0  0  0  0  0  0
    5.9197   -8.6696    1.8279 H   0  0  0  0  0  0  0  0  0  0  0  0
    4.0181   -8.2111    0.3339 H   0  0  0  0  0  0  0  0  0  0  0  0
    2.9437   -5.9025    0.3862 H   0  0  0  0  0  0  0  0  0  0  0  0
    4.4071   -5.9748   -0.5758 H   0  0  0  0  0  0  0  0  0  0  0  0
    2.3076   -5.9652    2.4279 H   0  0  0  0  0  0  0  0  0  0  0  0
    3.0096   -6.4991    4.7582 H   0  0  0  0  0  0  0  0  0  0  0  0
    3.1483   -8.9929    4.5652 H   0  0  0  0  0  0  0  0  0  0  0  0
    2.0601   -8.5129    5.8382 H   0  0  0  0  0  0  0  0  0  0  0  0
    1.0325  -10.2910    4.4155 H   0  0  0  0  0  0  0  0  0  0  0  0
   -1.1262   -9.1233    3.9737 H   0  0  0  0  0  0  0  0  0  0  0  0
   -0.4410   -8.5887    5.4863 H   0  0  0  0  0  0  0  0  0  0  0  0
   -1.2304   -6.6424    4.1384 H   0  0  0  0  0  0  0  0  0  0  0  0
    0.7240   -6.3242    5.6551 H   0  0  0  0  0  0  0  0  0  0  0  0
    0.8855   -5.3097    4.2450 H   0  0  0  0  0  0  0  0  0  0  0  0
   -0.8900   -7.6365    1.8682 H   0  0  0  0  0  0  0  0  0  0  0  0
   -0.0767   -6.0959    1.9855 H   0  0  0  0  0  0  0  0  0  0  0  0
    1.4101   -7.7833    0.9520 H   0  0  0  0  0  0  0  0  0  0  0  0
    2.2059   -9.7509    2.2832 H   0  0  0  0  0  0  0  0  0  0  0  0
    0.4851   -9.8305    2.0383 H   0  0  0  0  0  0  0  0  0  0  0  0
    3.8214   -8.5554    2.5838 H   0  0  0  0  0  0  0  0  0  0  0  0
    1.9256   -1.4496   -0.1047 H   0  0  0  0  0  0  0  0  0  0  0  0
  1  2  1  0
  1 28  1  0
  1 29  1  0
  1 30  1  0
  2 10  1  0
  2  3  2  0
  3  4  1  0
  3 60  1  0
  4  9  2  0
  4  5  1  0
  5  6  2  0
  5 31  1  0
  6  7  1  0
  6 32  1  0
  7  8  2  0
  7 33  1  0
  8  9  1  0
  8 34  1  0
  9 10  1  0
 10 11  1  0
 11 16  1  0
 11 12  1  0
 11 35  1  6
 12 13  1  0
 12 36  1  0
 12 37  1  0
 13 17  1  0
 13 14  1  0
 13 38  1  1
 14 15  1  0
 14 39  1  0
 14 40  1  0
 15 16  1  0
 15 17  1  0
 15 41  1  6
 16 42  1  0
 16 43  1  0
 17 18  1  0
 17 59  1  1
 18 26  1  0
 18 19  1  0
 18 44  1  6
 19 24  1  0
 19 20  1  0
 19 45  1  1
 20 21  1  0
 20 46  1  0
 20 47  1  0
 21 27  1  0
 21 22  1  0
 21 48  1  1
 22 23  1  0
 22 49  1  0
 22 50  1  0
 23 24  1  0
 23 25  1  0
 23 51  1  6
 24 52  1  0
 24 53  1  0
 25 26  1  0
 25 54  1  0
 25 55  1  0
 26 27  1  0
 26 56  1  6
 27 57  1  0
 27 58  1  0
M  CHG  2   3   1  17   1
M  END
>  <i_m_ct_stereo_status>  (313) 
1

>  <s_m_source_file>  (313) 
/var/tmp/pbs.5076255.sched01/tmp6zmtdo5c/111u4f9dq10.sdf

>  <i_m_source_file_index>  (313) 
36

>  <i_lp_mmshare_version>  (313) 
48012

>  <i_f3d_flags>  (313) 
0

>  <s_epik_input>  (313) 
W2NIXTFbY0hdW2NIXVtjSF1jKGMxMiluKGMobjIpW0NIM10pW0NASF0oW0NIMl1bQ0BIXTM0KVtDSDJdW0NAQEhdKFtDSDJdMylONFtDQEhdKFtDQEBIXTU2KVtDQEhdN1tDSDJdW0NAQEhdKFtDSDJdNilbQ0gyXVtDQEBIXShbQ0gyXTUpW0NIMl03

>  <s_epik_cmdline>  (313) 
J2VwaWtfcHl0aG9uJywgJy1waHQnLCAnMi4wJywgJy1waCcsICc3LjAnLCAnLXRuJywgJzgnLCAnLW1hJywgJzIwMCcsICctaW1hZScsICc8aW5maWxlLm1hZT4nLCAnLW9tYWUnLCAnPG91dGZpbGUubWFlPic=

>  <r_epik_Ionization_Penalty>  (313) 
0.893308

>  <r_epik_Ionization_Penalty_Charging>  (313) 
0.893308

>  <r_epik_Ionization_Penalty_Neutral>  (313) 
1.7392e-13

>  <r_epik_State_Penalty>  (313) 
0.932042

>  <r_epik_Charging_Adjusted_Penalty>  (313) 
1.82535

>  <i_epik_Tot_Q>  (313) 
2

>  <i_epik_Tot_abs_Q>  (313) 
2

>  <s_lp_Force_Field>  (313) 
OPLS3e

>  <r_lp_Energy>  (313) 
47.423

>  <b_lp_Chiralities_Consistent>  (313) 
1

>  <s_lp_Variant>  (313) 
114:0-4

>  <s_i_glide_gridfile>  (313) 
pfpi4k_grid

>  <i_i_glide_lignum>  (313) 
36

>  <i_i_glide_rotatable_bonds>  (313) 
2

>  <r_i_docking_score>  (313) 
-3.67438

>  <r_i_glide_ligand_efficiency>  (313) 
-0.136088

>  <r_i_glide_ligand_efficiency_sa>  (313) 
-0.408265

>  <r_i_glide_ligand_efficiency_ln>  (313) 
-0.855335

>  <r_i_glide_gscore>  (313) 
-3.67438

>  <r_i_glide_lipo>  (313) 
-0.440795

>  <r_i_glide_hbond>  (313) 
-0.164317

>  <r_i_glide_metal>  (313) 
-0

>  <r_i_glide_rewards>  (313) 
-0.942622

>  <r_i_glide_evdw>  (313) 
-19.3392

>  <r_i_glide_ecoul>  (313) 
-9.1298

>  <r_i_glide_erotb>  (313) 
0.290776

>  <r_i_glide_esite>  (313) 
-0.0809913

>  <r_i_glide_emodel>  (313) 
-36.4565

>  <r_i_glide_energy>  (313) 
-28.469

>  <r_i_glide_einternal>  (313) 
2.95079

>  <r_i_glide_intrahb_reward>  (313) 
-0

>  <i_i_glide_confnum>  (313) 
2

>  <i_i_glide_posenum>  (313) 
11

>  <r_i_glide_eff_state_penalty>  (313) 
0

>  <ligand_id>  (313) 
114

>  <original_smiles>  (313) 
Cc1nc2ccccc2n1C1CC2CC(C1)N2C1C2CC3CC(C2)CC1C3

>  <smiles>  (313) 
[H]c1c([H])c([H])c2c(c1[H])n(C1([H])C([H])([H])C3([H])C([H])([H])C([H])(C1([H])[H])[N+]3([H])C1([H])C3([H])C([H])([H])C4([H])C([H])([H])C([H])(C3([H])[H])C([H])([H])C1([H])C4([H])[H])c(C([H])([H])[H])[n+]2[H]

$$$$
114:3:1
     RDKit          3D

 60 66  0  0  1  0  0  0  0  0999 V2000
    8.9181  -10.1247    4.5697 C   0  0  0  0  0  0  0  0  0  0  0  0
    8.0034   -9.3280    3.6984 C   0  0  0  0  0  0  0  0  0  0  0  0
    8.3971   -8.2206    3.0122 N   0  0  0  0  0  0  0  0  0  0  0  0
    7.3052   -7.6217    2.3807 C   0  0  0  0  0  0  0  0  0  0  0  0
    7.2312   -6.4787    1.5905 C   0  0  0  0  0  0  0  0  0  0  0  0
    5.9580   -6.0554    1.1482 C   0  0  0  0  0  0  0  0  0  0  0  0
    4.8337   -6.8064    1.4827 C   0  0  0  0  0  0  0  0  0  0  0  0
    4.9481   -8.0268    2.1740 C   0  0  0  0  0  0  0  0  0  0  0  0
    6.1874   -8.4275    2.6769 C   0  0  0  0  0  0  0  0  0  0  0  0
    6.6691   -9.5246    3.4397 N   0  0  0  0  0  0  0  0  0  0  0  0
    5.8113  -10.6271    3.9606 C   0  0  1  0  0  0  0  0  0  0  0  0
    5.0670  -10.2527    5.2699 C   0  0  0  0  0  0  0  0  0  0  0  0
    3.7807  -11.1098    5.4458 C   0  0  2  0  0  0  0  0  0  0  0  0
    3.8308  -12.5630    4.9505 C   0  0  0  0  0  0  0  0  0  0  0  0
    3.6370  -11.9276    3.5711 C   0  0  2  0  0  0  0  0  0  0  0  0
    4.8754  -11.2806    2.9071 C   0  0  0  0  0  0  0  0  0  0  0  0
    2.7876  -10.9716    4.3422 N   0  0  2  0  0  0  0  0  0  0  0  0
    2.5334   -9.6234    3.7823 C   0  0  2  0  0  0  0  0  0  0  0  0
    1.8077   -8.6645    4.7285 C   0  0  2  0  0  0  0  0  0  0  0  0
    0.3890   -9.2053    4.9427 C   0  0  0  0  0  0  0  0  0  0  0  0
   -0.3301   -9.2704    3.5847 C   0  0  1  0  0  0  0  0  0  0  0  0
   -0.4460   -7.8492    2.9972 C   0  0  0  0  0  0  0  0  0  0  0  0
    0.9688   -7.2990    2.7575 C   0  0  1  0  0  0  0  0  0  0  0  0
    1.7498   -7.2476    4.0952 C   0  0  0  0  0  0  0  0  0  0  0  0
    1.6493   -8.2415    1.7552 C   0  0  0  0  0  0  0  0  0  0  0  0
    1.8235   -9.6521    2.3905 C   0  0  2  0  0  0  0  0  0  0  0  0
    0.4450  -10.2242    2.6883 C   0  0  0  0  0  0  0  0  0  0  0  0
    9.8019   -9.5142    4.7758 H   0  0  0  0  0  0  0  0  0  0  0  0
    9.2313  -11.0460    4.0751 H   0  0  0  0  0  0  0  0  0  0  0  0
    8.4353  -10.3543    5.5207 H   0  0  0  0  0  0  0  0  0  0  0  0
    8.0969   -5.8907    1.3374 H   0  0  0  0  0  0  0  0  0  0  0  0
    5.7925   -5.1708    0.5274 H   0  0  0  0  0  0  0  0  0  0  0  0
    3.8871   -6.4248    1.1135 H   0  0  0  0  0  0  0  0  0  0  0  0
    4.1076   -8.6163    2.2054 H   0  0  0  0  0  0  0  0  0  0  0  0
    6.4889  -11.4387    4.2456 H   0  0  0  0  0  0  0  0  0  0  0  0
    5.7220  -10.3823    6.1316 H   0  0  0  0  0  0  0  0  0  0  0  0
    4.8637   -9.1844    5.2976 H   0  0  0  0  0  0  0  0  0  0  0  0
    3.2843  -10.9963    6.4129 H   0  0  0  0  0  0  0  0  0  0  0  0
    4.7928  -13.0512    5.0940 H   0  0  0  0  0  0  0  0  0  0  0  0
    2.9900  -13.1854    5.2689 H   0  0  0  0  0  0  0  0  0  0  0  0
    3.0302  -12.5388    2.8902 H   0  0  0  0  0  0  0  0  0  0  0  0
    4.5677  -10.5860    2.1381 H   0  0  0  0  0  0  0  0  0  0  0  0
    5.4176  -12.0328    2.3311 H   0  0  0  0  0  0  0  0  0  0  0  0
    3.4926   -9.2070    3.7853 H   0  0  0  0  0  0  0  0  0  0  0  0
    2.3615   -8.5959    5.6696 H   0  0  0  0  0  0  0  0  0  0  0  0
    0.4506  -10.1963    5.3970 H   0  0  0  0  0  0  0  0  0  0  0  0
   -0.1389   -8.5628    5.6455 H   0  0  0  0  0  0  0  0  0  0  0  0
   -1.3259   -9.6605    3.6829 H   0  0  0  0  0  0  0  0  0  0  0  0
   -0.9944   -7.8597    2.0573 H   0  0  0  0  0  0  0  0  0  0  0  0
   -0.9748   -7.1924    3.6865 H   0  0  0  0  0  0  0  0  0  0  0  0
    0.9310   -6.2971    2.3244 H   0  0  0  0  0  0  0  0  0  0  0  0
    1.2550   -6.5594    4.7766 H   0  0  0  0  0  0  0  0  0  0  0  0
    2.7500   -6.8299    3.9408 H   0  0  0  0  0  0  0  0  0  0  0  0
    1.1109   -8.2649    0.8003 H   0  0  0  0  0  0  0  0  0  0  0  0
    2.5509   -7.8041    1.4452 H   0  0  0  0  0  0  0  0  0  0  0  0
    2.3897  -10.2581    1.6831 H   0  0  0  0  0  0  0  0  0  0  0  0
    0.5095  -11.2371    3.0517 H   0  0  0  0  0  0  0  0  0  0  0  0
   -0.1261  -10.3571    1.7854 H   0  0  0  0  0  0  0  0  0  0  0  0
    1.9035  -11.3995    4.5839 H   0  0  0  0  0  0  0  0  0  0  0  0
    9.3522   -7.8712    2.9440 H   0  0  0  0  0  0  0  0  0  0  0  0
  1  2  1  0
  1 28  1  0
  1 29  1  0
  1 30  1  0
  2 10  1  0
  2  3  2  0
  3  4  1  0
  3 60  1  0
  4  9  2  0
  4  5  1  0
  5  6  2  0
  5 31  1  0
  6  7  1  0
  6 32  1  0
  7  8  2  0
  7 33  1  0
  8  9  1  0
  8 34  1  0
  9 10  1  0
 10 11  1  0
 11 16  1  0
 11 12  1  0
 11 35  1  1
 12 13  1  0
 12 36  1  0
 12 37  1  0
 13 17  1  0
 13 14  1  0
 13 38  1  1
 14 15  1  0
 14 39  1  0
 14 40  1  0
 15 16  1  0
 15 17  1  0
 15 41  1  6
 16 42  1  0
 16 43  1  0
 17 18  1  0
 17 59  1  1
 18 26  1  0
 18 19  1  0
 18 44  1  6
 19 24  1  0
 19 20  1  0
 19 45  1  1
 20 21  1  0
 20 46  1  0
 20 47  1  0
 21 27  1  0
 21 22  1  0
 21 48  1  1
 22 23  1  0
 22 49  1  0
 22 50  1  0
 23 24  1  0
 23 25  1  0
 23 51  1  6
 24 52  1  0
 24 53  1  0
 25 26  1  0
 25 54  1  0
 25 55  1  0
 26 27  1  0
 26 56  1  6
 27 57  1  0
 27 58  1  0
M  CHG  2   3   1  17   1
M  END
>  <i_m_ct_stereo_status>  (314) 
1

>  <s_m_source_file>  (314) 
/var/tmp/pbs.5076255.sched01/tmp6zmtdo5c/111u4f9dq10.sdf

>  <i_m_source_file_index>  (314) 
36

>  <i_lp_mmshare_version>  (314) 
48012

>  <i_f3d_flags>  (314) 
0

>  <s_epik_input>  (314) 
W2NIXTFbY0hdW2NIXVtjSF1jKGMxMiluKGMobjIpW0NIM10pW0NASF0oW0NIMl1bQ0BIXTM0KVtDSDJdW0NAQEhdKFtDSDJdMylONFtDQEhdKFtDQEBIXTU2KVtDQEhdN1tDSDJdW0NAQEhdKFtDSDJdNilbQ0gyXVtDQEBIXShbQ0gyXTUpW0NIMl03

>  <s_epik_cmdline>  (314) 
J2VwaWtfcHl0aG9uJywgJy1waHQnLCAnMi4wJywgJy1waCcsICc3LjAnLCAnLXRuJywgJzgnLCAnLW1hJywgJzIwMCcsICctaW1hZScsICc8aW5maWxlLm1hZT4nLCAnLW9tYWUnLCAnPG91dGZpbGUubWFlPic=

>  <r_epik_Ionization_Penalty>  (314) 
0.893308

>  <r_epik_Ionization_Penalty_Charging>  (314) 
0.893308

>  <r_epik_Ionization_Penalty_Neutral>  (314) 
1.7392e-13

>  <r_epik_State_Penalty>  (314) 
0.932042

>  <r_epik_Charging_Adjusted_Penalty>  (314) 
1.82535

>  <i_epik_Tot_Q>  (314) 
2

>  <i_epik_Tot_abs_Q>  (314) 
2

>  <s_lp_Force_Field>  (314) 
OPLS3e

>  <r_lp_Energy>  (314) 
47.423

>  <b_lp_Chiralities_Consistent>  (314) 
1

>  <s_lp_Variant>  (314) 
114:0-4

>  <s_i_glide_gridfile>  (314) 
pfpi4k_grid

>  <i_i_glide_lignum>  (314) 
36

>  <i_i_glide_rotatable_bonds>  (314) 
2

>  <r_i_docking_score>  (314) 
-3.17246

>  <r_i_glide_ligand_efficiency>  (314) 
-0.117499

>  <r_i_glide_ligand_efficiency_sa>  (314) 
-0.352496

>  <r_i_glide_ligand_efficiency_ln>  (314) 
-0.738498

>  <r_i_glide_gscore>  (314) 
-3.17246

>  <r_i_glide_lipo>  (314) 
-0.498049

>  <r_i_glide_hbond>  (314) 
-0.0618349

>  <r_i_glide_metal>  (314) 
-0

>  <r_i_glide_rewards>  (314) 
-0.993402

>  <r_i_glide_evdw>  (314) 
-20.7318

>  <r_i_glide_ecoul>  (314) 
-7.03742

>  <r_i_glide_erotb>  (314) 
0.290776

>  <r_i_glide_esite>  (314) 
-0.0600334

>  <r_i_glide_emodel>  (314) 
-31.605

>  <r_i_glide_energy>  (314) 
-27.7693

>  <r_i_glide_einternal>  (314) 
0.629144

>  <r_i_glide_intrahb_reward>  (314) 
-0

>  <i_i_glide_confnum>  (314) 
4

>  <i_i_glide_posenum>  (314) 
14

>  <r_i_glide_eff_state_penalty>  (314) 
0

>  <ligand_id>  (314) 
114

>  <original_smiles>  (314) 
Cc1nc2ccccc2n1C1CC2CC(C1)N2C1C2CC3CC(C2)CC1C3

>  <smiles>  (314) 
[H]c1c([H])c([H])c2c(c1[H])n(C1([H])C([H])([H])C3([H])C([H])([H])C([H])(C1([H])[H])[N+]3([H])C1([H])C3([H])C([H])([H])C4([H])C([H])([H])C([H])(C3([H])[H])C([H])([H])C1([H])C4([H])[H])c(C([H])([H])[H])[n+]2[H]

$$$$
114:3:2
     RDKit          3D

 60 66  0  0  1  0  0  0  0  0999 V2000
    6.2996  -10.2406    1.1819 C   0  0  0  0  0  0  0  0  0  0  0  0
    6.5049   -9.3432    2.3659 C   0  0  0  0  0  0  0  0  0  0  0  0
    7.2649   -8.2191    2.3095 N   0  0  0  0  0  0  0  0  0  0  0  0
    7.3739   -7.6691    3.5810 C   0  0  0  0  0  0  0  0  0  0  0  0
    8.0818   -6.5487    3.9879 C   0  0  0  0  0  0  0  0  0  0  0  0
    8.0691   -6.2581    5.3693 C   0  0  0  0  0  0  0  0  0  0  0  0
    7.3733   -7.0705    6.2719 C   0  0  0  0  0  0  0  0  0  0  0  0
    6.6464   -8.1989    5.8427 C   0  0  0  0  0  0  0  0  0  0  0  0
    6.6335   -8.4864    4.4676 C   0  0  0  0  0  0  0  0  0  0  0  0
    6.0156   -9.4658    3.6477 N   0  0  0  0  0  0  0  0  0  0  0  0
    5.1017  -10.5170    4.1972 C   0  0  1  0  0  0  0  0  0  0  0  0
    4.2515  -10.0719    5.4294 C   0  0  0  0  0  0  0  0  0  0  0  0
    2.9197  -10.8233    5.4981 C   0  0  2  0  0  0  0  0  0  0  0  0
    2.9117  -12.2746    5.0179 C   0  0  0  0  0  0  0  0  0  0  0  0
    2.8519  -11.6249    3.6454 C   0  0  2  0  0  0  0  0  0  0  0  0
    4.1617  -11.0968    3.0805 C   0  0  0  0  0  0  0  0  0  0  0  0
    2.0653  -10.5840    4.3270 N   0  0  2  0  0  0  0  0  0  0  0  0
    1.9876   -9.2044    3.7471 C   0  0  2  0  0  0  0  0  0  0  0  0
    1.3281   -8.2255    4.7479 C   0  0  2  0  0  0  0  0  0  0  0  0
   -0.1368   -8.6423    5.0081 C   0  0  0  0  0  0  0  0  0  0  0  0
   -0.9168   -8.6243    3.6779 C   0  0  1  0  0  0  0  0  0  0  0  0
   -0.8780   -7.1961    3.0922 C   0  0  0  0  0  0  0  0  0  0  0  0
    0.5847   -6.7783    2.8232 C   0  0  1  0  0  0  0  0  0  0  0  0
    1.3741   -6.8039    4.1495 C   0  0  0  0  0  0  0  0  0  0  0  0
    1.2231   -7.7663    1.8246 C   0  0  0  0  0  0  0  0  0  0  0  0
    1.1871   -9.1933    2.4203 C   0  0  2  0  0  0  0  0  0  0  0  0
   -0.2756   -9.6172    2.6864 C   0  0  0  0  0  0  0  0  0  0  0  0
    7.0265  -10.0199    0.4097 H   0  0  0  0  0  0  0  0  0  0  0  0
    5.3205  -10.0962    0.7301 H   0  0  0  0  0  0  0  0  0  0  0  0
    6.4220  -11.2865    1.4617 H   0  0  0  0  0  0  0  0  0  0  0  0
    8.6405   -5.9415    3.2931 H   0  0  0  0  0  0  0  0  0  0  0  0
    8.6257   -5.4090    5.7352 H   0  0  0  0  0  0  0  0  0  0  0  0
    7.4026   -6.8307    7.3263 H   0  0  0  0  0  0  0  0  0  0  0  0
    6.1528   -8.7872    6.5914 H   0  0  0  0  0  0  0  0  0  0  0  0
    5.7469  -11.3341    4.5293 H   0  0  0  0  0  0  0  0  0  0  0  0
    4.7924  -10.3020    6.3486 H   0  0  0  0  0  0  0  0  0  0  0  0
    4.0726   -8.9948    5.4213 H   0  0  0  0  0  0  0  0  0  0  0  0
    2.3709  -10.6710    6.4235 H   0  0  0  0  0  0  0  0  0  0  0  0
    3.8188  -12.8508    5.2257 H   0  0  0  0  0  0  0  0  0  0  0  0
    2.0049  -12.8324    5.2653 H   0  0  0  0  0  0  0  0  0  0  0  0
    2.2579  -12.1863    2.9245 H   0  0  0  0  0  0  0  0  0  0  0  0
    3.9107  -10.3367    2.3397 H   0  0  0  0  0  0  0  0  0  0  0  0
    4.6582  -11.9168    2.5495 H   0  0  0  0  0  0  0  0  0  0  0  0
    2.9755   -8.7917    3.5160 H   0  0  0  0  0  0  0  0  0  0  0  0
    1.8791   -8.2257    5.6908 H   0  0  0  0  0  0  0  0  0  0  0  0
   -0.1886   -9.6338    5.4644 H   0  0  0  0  0  0  0  0  0  0  0  0
   -0.5886   -7.9548    5.7182 H   0  0  0  0  0  0  0  0  0  0  0  0
   -1.9487   -8.9252    3.8597 H   0  0  0  0  0  0  0  0  0  0  0  0
   -1.4610   -7.1506    2.1726 H   0  0  0  0  0  0  0  0  0  0  0  0
   -1.3357   -6.5069    3.8020 H   0  0  0  0  0  0  0  0  0  0  0  0
    0.6153   -5.7712    2.4069 H   0  0  0  0  0  0  0  0  0  0  0  0
    0.9522   -6.0915    4.8565 H   0  0  0  0  0  0  0  0  0  0  0  0
    2.4078   -6.4940    3.9806 H   0  0  0  0  0  0  0  0  0  0  0  0
    0.6916   -7.7465    0.8734 H   0  0  0  0  0  0  0  0  0  0  0  0
    2.2511   -7.4728    1.6047 H   0  0  0  0  0  0  0  0  0  0  0  0
    1.6421   -9.8769    1.7004 H   0  0  0  0  0  0  0  0  0  0  0  0
   -0.3021  -10.6285    3.0937 H   0  0  0  0  0  0  0  0  0  0  0  0
   -0.8435   -9.6549    1.7545 H   0  0  0  0  0  0  0  0  0  0  0  0
    1.1441  -10.9657    4.5219 H   0  0  0  0  0  0  0  0  0  0  0  0
    7.7223   -7.8795    1.4692 H   0  0  0  0  0  0  0  0  0  0  0  0
  1  2  1  0
  1 28  1  0
  1 29  1  0
  1 30  1  0
  2 10  1  0
  2  3  2  0
  3  4  1  0
  3 60  1  0
  4  9  2  0
  4  5  1  0
  5  6  2  0
  5 31  1  0
  6  7  1  0
  6 32  1  0
  7  8  2  0
  7 33  1  0
  8  9  1  0
  8 34  1  0
  9 10  1  0
 10 11  1  0
 11 16  1  0
 11 12  1  0
 11 35  1  1
 12 13  1  0
 12 36  1  0
 12 37  1  0
 13 17  1  0
 13 14  1  0
 13 38  1  1
 14 15  1  0
 14 39  1  0
 14 40  1  0
 15 16  1  0
 15 17  1  0
 15 41  1  6
 16 42  1  0
 16 43  1  0
 17 18  1  0
 17 59  1  1
 18 26  1  0
 18 19  1  0
 18 44  1  6
 19 24  1  0
 19 20  1  0
 19 45  1  1
 20 21  1  0
 20 46  1  0
 20 47  1  0
 21 27  1  0
 21 22  1  0
 21 48  1  1
 22 23  1  0
 22 49  1  0
 22 50  1  0
 23 24  1  0
 23 25  1  0
 23 51  1  6
 24 52  1  0
 24 53  1  0
 25 26  1  0
 25 54  1  0
 25 55  1  0
 26 27  1  0
 26 56  1  6
 27 57  1  0
 27 58  1  0
M  CHG  2   3   1  17   1
M  END
>  <i_m_ct_stereo_status>  (315) 
1

>  <s_m_source_file>  (315) 
/var/tmp/pbs.5076255.sched01/tmp6zmtdo5c/111u4f9dq10.sdf

>  <i_m_source_file_index>  (315) 
36

>  <i_lp_mmshare_version>  (315) 
48012

>  <i_f3d_flags>  (315) 
0

>  <s_epik_input>  (315) 
W2NIXTFbY0hdW2NIXVtjSF1jKGMxMiluKGMobjIpW0NIM10pW0NASF0oW0NIMl1bQ0BIXTM0KVtDSDJdW0NAQEhdKFtDSDJdMylONFtDQEhdKFtDQEBIXTU2KVtDQEhdN1tDSDJdW0NAQEhdKFtDSDJdNilbQ0gyXVtDQEBIXShbQ0gyXTUpW0NIMl03

>  <s_epik_cmdline>  (315) 
J2VwaWtfcHl0aG9uJywgJy1waHQnLCAnMi4wJywgJy1waCcsICc3LjAnLCAnLXRuJywgJzgnLCAnLW1hJywgJzIwMCcsICctaW1hZScsICc8aW5maWxlLm1hZT4nLCAnLW9tYWUnLCAnPG91dGZpbGUubWFlPic=

>  <r_epik_Ionization_Penalty>  (315) 
0.893308

>  <r_epik_Ionization_Penalty_Charging>  (315) 
0.893308

>  <r_epik_Ionization_Penalty_Neutral>  (315) 
1.7392e-13

>  <r_epik_State_Penalty>  (315) 
0.932042

>  <r_epik_Charging_Adjusted_Penalty>  (315) 
1.82535

>  <i_epik_Tot_Q>  (315) 
2

>  <i_epik_Tot_abs_Q>  (315) 
2

>  <s_lp_Force_Field>  (315) 
OPLS3e

>  <r_lp_Energy>  (315) 
47.423

>  <b_lp_Chiralities_Consistent>  (315) 
1

>  <s_lp_Variant>  (315) 
114:0-4

>  <s_i_glide_gridfile>  (315) 
pfpi4k_grid

>  <i_i_glide_lignum>  (315) 
36

>  <i_i_glide_rotatable_bonds>  (315) 
2

>  <r_i_docking_score>  (315) 
-2.674

>  <r_i_glide_ligand_efficiency>  (315) 
-0.0990371

>  <r_i_glide_ligand_efficiency_sa>  (315) 
-0.297111

>  <r_i_glide_ligand_efficiency_ln>  (315) 
-0.622464

>  <r_i_glide_gscore>  (315) 
-2.674

>  <r_i_glide_lipo>  (315) 
-0.091712

>  <r_i_glide_hbond>  (315) 
0

>  <r_i_glide_metal>  (315) 
-0

>  <r_i_glide_rewards>  (315) 
-0.964607

>  <r_i_glide_evdw>  (315) 
-20.7627

>  <r_i_glide_ecoul>  (315) 
-5.65831

>  <r_i_glide_erotb>  (315) 
0.290776

>  <r_i_glide_esite>  (315) 
-0.0215762

>  <r_i_glide_emodel>  (315) 
-31.9099

>  <r_i_glide_energy>  (315) 
-26.421

>  <r_i_glide_einternal>  (315) 
2.79553

>  <r_i_glide_intrahb_reward>  (315) 
-0

>  <i_i_glide_confnum>  (315) 
5

>  <i_i_glide_posenum>  (315) 
8

>  <r_i_glide_eff_state_penalty>  (315) 
0

>  <ligand_id>  (315) 
114

>  <original_smiles>  (315) 
Cc1nc2ccccc2n1C1CC2CC(C1)N2C1C2CC3CC(C2)CC1C3

>  <smiles>  (315) 
[H]c1c([H])c([H])c2c(c1[H])n(C1([H])C([H])([H])C3([H])C([H])([H])C([H])(C1([H])[H])[N+]3([H])C1([H])C3([H])C([H])([H])C4([H])C([H])([H])C([H])(C3([H])[H])C([H])([H])C1([H])C4([H])[H])c(C([H])([H])[H])[n+]2[H]

$$$$
