1:0:0
     RDKit          3D

 33 35  0  0  1  0  0  0  0  0999 V2000
    1.5316   -6.2634    0.7488 C   0  0  0  0  0  0  0  0  0  0  0  0
    2.0820   -5.2923   -0.1004 O   0  0  0  0  0  0  0  0  0  0  0  0
    2.6534   -4.1717    0.3918 C   0  0  0  0  0  0  0  0  0  0  0  0
    2.6559   -3.8893    1.5909 O   0  0  0  0  0  0  0  0  0  0  0  0
    3.3180   -3.2982   -0.6836 C   0  0  1  0  0  0  0  0  0  0  0  0
    3.6224   -1.8665   -0.1375 C   0  0  0  0  0  0  0  0  0  0  0  0
    4.3278   -1.0331   -1.2273 C   0  0  1  0  0  0  0  0  0  0  0  0
    5.6616   -1.7106   -1.5778 C   0  0  0  0  0  0  0  0  0  0  0  0
    5.3966   -3.1015   -2.1555 C   0  0  1  0  0  0  0  0  0  0  0  0
    4.6919   -3.9440   -1.0650 C   0  0  0  0  0  0  0  0  0  0  0  0
    4.5181   -2.9849   -3.4181 C   0  0  1  0  0  0  0  0  0  0  0  0
    4.3296   -4.2526   -4.0244 O   0  0  0  0  0  0  0  0  0  0  0  0
    3.1767   -2.3244   -3.0534 C   0  0  2  0  0  0  0  0  0  0  0  0
    3.4620   -0.9279   -2.5019 C   0  0  0  0  0  0  0  0  0  0  0  0
    2.4483   -3.1471   -1.9770 C   0  0  0  0  0  0  0  0  0  0  0  0
    1.0744   -7.0473    0.1478 H   0  0  0  0  0  0  0  0  0  0  0  0
    0.7615   -5.8509    1.3899 H   0  0  0  0  0  0  0  0  0  0  0  0
    2.3111   -6.6991    1.3650 H   0  0  0  0  0  0  0  0  0  0  0  0
    2.7085   -1.3585    0.1665 H   0  0  0  0  0  0  0  0  0  0  0  0
    4.2572   -1.8980    0.7559 H   0  0  0  0  0  0  0  0  0  0  0  0
    4.5392   -0.0502   -0.8263 H   0  0  0  0  0  0  0  0  0  0  0  0
    6.1589   -1.0962   -2.3210 H   0  0  0  0  0  0  0  0  0  0  0  0
    6.3091   -1.7595   -0.7022 H   0  0  0  0  0  0  0  0  0  0  0  0
    6.3524   -3.5647   -2.4248 H   0  0  0  0  0  0  0  0  0  0  0  0
    5.3421   -4.0037   -0.1909 H   0  0  0  0  0  0  0  0  0  0  0  0
    4.5799   -4.9689   -1.4154 H   0  0  0  0  0  0  0  0  0  0  0  0
    5.0079   -2.3188   -4.1310 H   0  0  0  0  0  0  0  0  0  0  0  0
    3.8481   -4.8137   -3.4196 H   0  0  0  0  0  0  0  0  0  0  0  0
    2.5439   -2.2218   -3.9346 H   0  0  0  0  0  0  0  0  0  0  0  0
    2.5084   -0.4485   -2.3159 H   0  0  0  0  0  0  0  0  0  0  0  0
    3.9654   -0.2899   -3.2348 H   0  0  0  0  0  0  0  0  0  0  0  0
    2.1538   -4.0930   -2.4105 H   0  0  0  0  0  0  0  0  0  0  0  0
    1.5006   -2.6560   -1.7713 H   0  0  0  0  0  0  0  0  0  0  0  0
  1  2  1  0
  1 16  1  0
  1 17  1  0
  1 18  1  0
  2  3  1  0
  3  4  2  0
  5  3  1  1
  5 10  1  0
  5 15  1  0
  5  6  1  0
  6  7  1  0
  6 19  1  0
  6 20  1  0
  7 14  1  0
  7  8  1  0
  7 21  1  1
  8  9  1  0
  8 22  1  0
  8 23  1  0
  9 10  1  0
  9 11  1  0
  9 24  1  6
 10 25  1  0
 10 26  1  0
 11 12  1  0
 11 13  1  0
 11 27  1  6
 12 28  1  0
 13 14  1  0
 13 15  1  0
 13 29  1  6
 14 30  1  0
 14 31  1  0
 15 32  1  0
 15 33  1  0
M  END
>  <i_m_ct_stereo_status>  (1) 
1

>  <s_m_source_file>  (1) 
/var/tmp/pbs.5076255.sched01/tmp_578sd5a/06fbc0iir.sdf

>  <i_m_source_file_index>  (1) 
2

>  <i_lp_mmshare_version>  (1) 
48012

>  <i_f3d_flags>  (1) 
0

>  <s_epik_input>  (1) 
W0NIM11PQyg9TylbQ0BAXTEyW0NIMl1bQ0BIXTNbQ0gyXVtDQEBIXShbQ0gyXTEpW0NAQEhdKFtPSF0pW0NASF0oW0NIMl0zKVtDSDJdMg==

>  <s_epik_cmdline>  (1) 
J2VwaWtfcHl0aG9uJywgJy1waHQnLCAnMi4wJywgJy1waCcsICc3LjAnLCAnLXRuJywgJzgnLCAnLW1hJywgJzIwMCcsICctaW1hZScsICc8aW5maWxlLm1hZT4nLCAnLW9tYWUnLCAnPG91dGZpbGUubWFlPic=

>  <r_lp_tautomer_probability>  (1) 
1

>  <r_epik_Ionization_Penalty>  (1) 
1.60496e-06

>  <r_epik_Ionization_Penalty_Charging>  (1) 
0

>  <r_epik_Ionization_Penalty_Neutral>  (1) 
1.60496e-06

>  <r_epik_State_Penalty>  (1) 
-0

>  <r_epik_Charging_Adjusted_Penalty>  (1) 
0

>  <i_epik_Tot_Q>  (1) 
0

>  <i_epik_Tot_abs_Q>  (1) 
0

>  <s_epik_Chemistry_Notes>  (1) 
This compound has an ester and may undergo hydrolysis at high or low pH.

>  <s_lp_Force_Field>  (1) 
OPLS3e

>  <r_lp_Energy>  (1) 
11.1497

>  <b_lp_Chiralities_Consistent>  (1) 
1

>  <s_lp_Variant>  (1) 
1:0-1

>  <s_i_glide_gridfile>  (1) 
pfpi4k_grid

>  <i_i_glide_lignum>  (1) 
2

>  <i_i_glide_rotatable_bonds>  (1) 
3

>  <r_i_docking_score>  (1) 
-3.9343

>  <r_i_glide_ligand_efficiency>  (1) 
-0.262287

>  <r_i_glide_ligand_efficiency_sa>  (1) 
-0.646855

>  <r_i_glide_ligand_efficiency_ln>  (1) 
-1.06102

>  <r_i_glide_gscore>  (1) 
-3.9343

>  <r_i_glide_lipo>  (1) 
-0.477753

>  <r_i_glide_hbond>  (1) 
-0.331459

>  <r_i_glide_metal>  (1) 
-0

>  <r_i_glide_rewards>  (1) 
-1.97544

>  <r_i_glide_evdw>  (1) 
-16.6449

>  <r_i_glide_ecoul>  (1) 
-4.40223

>  <r_i_glide_erotb>  (1) 
0.375535

>  <r_i_glide_esite>  (1) 
-0.0326089

>  <r_i_glide_emodel>  (1) 
-24.6656

>  <r_i_glide_energy>  (1) 
-21.0472

>  <r_i_glide_einternal>  (1) 
0.986228

>  <r_i_glide_intrahb_reward>  (1) 
-0

>  <i_i_glide_confnum>  (1) 
6

>  <i_i_glide_posenum>  (1) 
11

>  <r_i_glide_eff_state_penalty>  (1) 
0

>  <ligand_id>  (1) 
1

>  <original_smiles>  (1) 
COC(=O)C12CC3CC(C1)C(O)C(C3)C2

>  <smiles>  (1) 
[H]OC1([H])C2([H])C([H])([H])C3([H])C([H])([H])C1([H])C([H])([H])C(C(=O)OC([H])([H])[H])(C3([H])[H])C2([H])[H]

$$$$
1:0:1
     RDKit          3D

 33 35  0  0  1  0  0  0  0  0999 V2000
    2.7776   -6.6022    1.2275 C   0  0  0  0  0  0  0  0  0  0  0  0
    3.1344   -5.6525    0.2444 O   0  0  0  0  0  0  0  0  0  0  0  0
    2.9335   -4.3500    0.4711 C   0  0  0  0  0  0  0  0  0  0  0  0
    2.3498   -3.9146    1.4675 O   0  0  0  0  0  0  0  0  0  0  0  0
    3.5196   -3.4275   -0.6214 C   0  0  1  0  0  0  0  0  0  0  0  0
    3.7689   -2.0026   -0.0414 C   0  0  0  0  0  0  0  0  0  0  0  0
    4.4078   -1.1118   -1.1374 C   0  0  1  0  0  0  0  0  0  0  0  0
    5.7531   -1.7081   -1.5688 C   0  0  0  0  0  0  0  0  0  0  0  0
    5.5059   -3.0955   -2.1895 C   0  0  1  0  0  0  0  0  0  0  0  0
    4.8935   -3.9968   -1.0957 C   0  0  0  0  0  0  0  0  0  0  0  0
    4.5519   -2.9739   -3.4031 C   0  0  1  0  0  0  0  0  0  0  0  0
    4.3769   -4.2252   -4.0459 O   0  0  0  0  0  0  0  0  0  0  0  0
    3.2075   -2.4111   -2.9285 C   0  0  2  0  0  0  0  0  0  0  0  0
    3.4669   -1.0143   -2.3579 C   0  0  0  0  0  0  0  0  0  0  0  0
    2.5494   -3.2985   -1.8310 C   0  0  0  0  0  0  0  0  0  0  0  0
    3.0795   -7.5976    0.9112 H   0  0  0  0  0  0  0  0  0  0  0  0
    1.7096   -6.6045    1.3971 H   0  0  0  0  0  0  0  0  0  0  0  0
    3.2711   -6.3766    2.1634 H   0  0  0  0  0  0  0  0  0  0  0  0
    2.8337   -1.5330    0.3018 H   0  0  0  0  0  0  0  0  0  0  0  0
    4.4311   -2.0339    0.8399 H   0  0  0  0  0  0  0  0  0  0  0  0
    4.5774   -0.1169   -0.7186 H   0  0  0  0  0  0  0  0  0  0  0  0
    6.1854   -1.0578   -2.3197 H   0  0  0  0  0  0  0  0  0  0  0  0
    6.4385   -1.7686   -0.7193 H   0  0  0  0  0  0  0  0  0  0  0  0
    6.4619   -3.4931   -2.5191 H   0  0  0  0  0  0  0  0  0  0  0  0
    5.6003   -4.0703   -0.2640 H   0  0  0  0  0  0  0  0  0  0  0  0
    4.8037   -5.0105   -1.5083 H   0  0  0  0  0  0  0  0  0  0  0  0
    4.9726   -2.2573   -4.1132 H   0  0  0  0  0  0  0  0  0  0  0  0
    3.9168   -4.8169   -3.4562 H   0  0  0  0  0  0  0  0  0  0  0  0
    2.5294   -2.3050   -3.7694 H   0  0  0  0  0  0  0  0  0  0  0  0
    2.5111   -0.5948   -2.0614 H   0  0  0  0  0  0  0  0  0  0  0  0
    3.9146   -0.3518   -3.1036 H   0  0  0  0  0  0  0  0  0  0  0  0
    2.2542   -4.2542   -2.2381 H   0  0  0  0  0  0  0  0  0  0  0  0
    1.6157   -2.8334   -1.5182 H   0  0  0  0  0  0  0  0  0  0  0  0
  1  2  1  0
  1 16  1  0
  1 17  1  0
  1 18  1  0
  2  3  1  0
  3  4  2  0
  5  3  1  1
  5 10  1  0
  5 15  1  0
  5  6  1  0
  6  7  1  0
  6 19  1  0
  6 20  1  0
  7 14  1  0
  7  8  1  0
  7 21  1  1
  8  9  1  0
  8 22  1  0
  8 23  1  0
  9 10  1  0
  9 11  1  0
  9 24  1  6
 10 25  1  0
 10 26  1  0
 11 12  1  0
 11 13  1  0
 11 27  1  6
 12 28  1  0
 13 14  1  0
 13 15  1  0
 13 29  1  6
 14 30  1  0
 14 31  1  0
 15 32  1  0
 15 33  1  0
M  END
>  <i_m_ct_stereo_status>  (2) 
1

>  <s_m_source_file>  (2) 
/var/tmp/pbs.5076255.sched01/tmp_578sd5a/06fbc0iir.sdf

>  <i_m_source_file_index>  (2) 
2

>  <i_lp_mmshare_version>  (2) 
48012

>  <i_f3d_flags>  (2) 
0

>  <s_epik_input>  (2) 
W0NIM11PQyg9TylbQ0BAXTEyW0NIMl1bQ0BIXTNbQ0gyXVtDQEBIXShbQ0gyXTEpW0NAQEhdKFtPSF0pW0NASF0oW0NIMl0zKVtDSDJdMg==

>  <s_epik_cmdline>  (2) 
J2VwaWtfcHl0aG9uJywgJy1waHQnLCAnMi4wJywgJy1waCcsICc3LjAnLCAnLXRuJywgJzgnLCAnLW1hJywgJzIwMCcsICctaW1hZScsICc8aW5maWxlLm1hZT4nLCAnLW9tYWUnLCAnPG91dGZpbGUubWFlPic=

>  <r_lp_tautomer_probability>  (2) 
1

>  <r_epik_Ionization_Penalty>  (2) 
1.60496e-06

>  <r_epik_Ionization_Penalty_Charging>  (2) 
0

>  <r_epik_Ionization_Penalty_Neutral>  (2) 
1.60496e-06

>  <r_epik_State_Penalty>  (2) 
-0

>  <r_epik_Charging_Adjusted_Penalty>  (2) 
0

>  <i_epik_Tot_Q>  (2) 
0

>  <i_epik_Tot_abs_Q>  (2) 
0

>  <s_epik_Chemistry_Notes>  (2) 
This compound has an ester and may undergo hydrolysis at high or low pH.

>  <s_lp_Force_Field>  (2) 
OPLS3e

>  <r_lp_Energy>  (2) 
11.1497

>  <b_lp_Chiralities_Consistent>  (2) 
1

>  <s_lp_Variant>  (2) 
1:0-1

>  <s_i_glide_gridfile>  (2) 
pfpi4k_grid

>  <i_i_glide_lignum>  (2) 
2

>  <i_i_glide_rotatable_bonds>  (2) 
3

>  <r_i_docking_score>  (2) 
-3.89542

>  <r_i_glide_ligand_efficiency>  (2) 
-0.259695

>  <r_i_glide_ligand_efficiency_sa>  (2) 
-0.640463

>  <r_i_glide_ligand_efficiency_ln>  (2) 
-1.05053

>  <r_i_glide_gscore>  (2) 
-3.89542

>  <r_i_glide_lipo>  (2) 
-0.494807

>  <r_i_glide_hbond>  (2) 
-0.32

>  <r_i_glide_metal>  (2) 
-0

>  <r_i_glide_rewards>  (2) 
-1.97544

>  <r_i_glide_evdw>  (2) 
-16.2774

>  <r_i_glide_ecoul>  (2) 
-4.31472

>  <r_i_glide_erotb>  (2) 
0.375535

>  <r_i_glide_esite>  (2) 
-0.0196366

>  <r_i_glide_emodel>  (2) 
-23.7679

>  <r_i_glide_energy>  (2) 
-20.5921

>  <r_i_glide_einternal>  (2) 
1.72366

>  <r_i_glide_intrahb_reward>  (2) 
-0

>  <i_i_glide_confnum>  (2) 
2

>  <i_i_glide_posenum>  (2) 
29

>  <r_i_glide_eff_state_penalty>  (2) 
0

>  <ligand_id>  (2) 
1

>  <original_smiles>  (2) 
COC(=O)C12CC3CC(C1)C(O)C(C3)C2

>  <smiles>  (2) 
[H]OC1([H])C2([H])C([H])([H])C3([H])C([H])([H])C1([H])C([H])([H])C(C(=O)OC([H])([H])[H])(C3([H])[H])C2([H])[H]

$$$$
2:0:0
     RDKit          3D

 81 85  0  0  1  0  0  0  0  0999 V2000
    2.9934   -8.1186    1.9587 C   0  0  0  0  0  0  0  0  0  0  0  0
    2.8196   -6.8351    1.6260 C   0  0  0  0  0  0  0  0  0  0  0  0
    1.5751   -6.3783    0.8780 C   0  0  0  0  0  0  0  0  0  0  0  0
    3.8513   -5.7640    1.9838 C   0  0  2  0  0  0  0  0  0  0  0  0
    3.2133   -4.5318    2.6042 C   0  0  0  0  0  0  0  0  0  0  0  0
    3.5105   -3.2482    2.2929 C   0  0  0  0  0  0  0  0  0  0  0  0
    2.8058   -2.0975    3.0262 C   0  0  2  0  0  0  0  0  0  0  0  0
    1.7017   -1.4704    2.1703 C   0  0  0  0  0  0  0  0  0  0  0  0
    0.8794   -0.4545    2.9589 C   0  0  0  0  0  0  0  0  0  0  0  0
    1.6976    0.7491    3.5031 C   0  0  1  0  0  0  0  0  0  0  0  0
    2.0906    1.6249    2.2722 C   0  0  0  0  0  0  0  0  0  0  0  0
    0.8067    1.7397    4.3745 C   0  0  1  0  0  0  0  0  0  0  0  0
   -0.6694    2.0299    3.9898 C   0  0  1  0  0  0  0  0  0  0  0  0
   -1.4935    0.8753    3.9412 O   0  0  0  0  0  0  0  0  0  0  0  0
   -1.1198    2.8904    5.1808 C   0  0  1  0  0  0  0  0  0  0  0  0
   -2.5239    3.0730    5.2484 O   0  0  0  0  0  0  0  0  0  0  0  0
   -0.4868    2.2731    6.4581 C   0  0  1  0  0  0  0  0  0  0  0  0
   -0.1024    3.4173    7.4296 C   0  0  0  0  0  0  0  0  0  0  0  0
   -1.4624    1.3385    7.2453 C   0  0  0  0  0  0  0  0  0  0  0  0
   -2.0131    0.2811    6.4788 O   0  0  0  0  0  0  0  0  0  0  0  0
    0.8154    1.5890    5.9120 C   0  0  1  0  0  0  0  0  0  0  0  0
    1.0761    0.1341    6.2854 C   0  0  0  0  0  0  0  0  0  0  0  0
    2.4030   -0.3929    5.7221 C   0  0  0  0  0  0  0  0  0  0  0  0
    2.9382    0.1627    4.3432 C   0  0  2  0  0  0  0  0  0  0  0  0
    3.9227    1.3225    4.6827 C   0  0  0  0  0  0  0  0  0  0  0  0
    3.7754   -1.0301    3.6282 C   0  0  1  0  0  0  0  0  0  0  0  0
    4.7023   -1.7489    4.6712 C   0  0  0  0  0  0  0  0  0  0  0  0
    4.7324   -0.5733    2.4755 C   0  0  0  0  0  0  0  0  0  0  0  0
    5.4945   -1.7225    1.7760 C   0  0  0  0  0  0  0  0  0  0  0  0
    4.6098   -2.8929    1.2671 C   0  0  2  0  0  0  0  0  0  0  0  0
    3.9789   -2.5040   -0.0892 C   0  0  0  0  0  0  0  0  0  0  0  0
    5.5307   -4.1235    1.0380 C   0  0  0  0  0  0  0  0  0  0  0  0
    4.7444   -5.4150    0.7829 C   0  0  0  0  0  0  0  0  0  0  0  0
    2.2564   -8.8715    1.7010 H   0  0  0  0  0  0  0  0  0  0  0  0
    3.8752   -8.4530    2.4938 H   0  0  0  0  0  0  0  0  0  0  0  0
    1.0170   -5.6592    1.4766 H   0  0  0  0  0  0  0  0  0  0  0  0
    0.9165   -7.2259    0.6764 H   0  0  0  0  0  0  0  0  0  0  0  0
    1.8475   -5.9213   -0.0721 H   0  0  0  0  0  0  0  0  0  0  0  0
    4.4886   -6.1766    2.7663 H   0  0  0  0  0  0  0  0  0  0  0  0
    2.4640   -4.7317    3.3562 H   0  0  0  0  0  0  0  0  0  0  0  0
    2.2849   -2.5715    3.8563 H   0  0  0  0  0  0  0  0  0  0  0  0
    2.0958   -0.9982    1.2806 H   0  0  0  0  0  0  0  0  0  0  0  0
    1.0312   -2.2521    1.8279 H   0  0  0  0  0  0  0  0  0  0  0  0
    0.0961   -0.0911    2.2941 H   0  0  0  0  0  0  0  0  0  0  0  0
    0.3801   -0.9815    3.7705 H   0  0  0  0  0  0  0  0  0  0  0  0
    2.7680    2.4395    2.5288 H   0  0  0  0  0  0  0  0  0  0  0  0
    1.2058    2.0989    1.8431 H   0  0  0  0  0  0  0  0  0  0  0  0
    2.5312    1.0770    1.4476 H   0  0  0  0  0  0  0  0  0  0  0  0
    1.2796    2.7148    4.2488 H   0  0  0  0  0  0  0  0  0  0  0  0
   -0.7603    2.5636    3.0416 H   0  0  0  0  0  0  0  0  0  0  0  0
   -2.3094    1.0791    3.4996 H   0  0  0  0  0  0  0  0  0  0  0  0
   -0.6863    3.8795    5.0261 H   0  0  0  0  0  0  0  0  0  0  0  0
   -2.8448    3.2389    4.3809 H   0  0  0  0  0  0  0  0  0  0  0  0
    0.3775    3.0388    8.3331 H   0  0  0  0  0  0  0  0  0  0  0  0
   -0.9790    3.9886    7.7381 H   0  0  0  0  0  0  0  0  0  0  0  0
    0.5921    4.1187    6.9654 H   0  0  0  0  0  0  0  0  0  0  0  0
   -0.9653    0.9246    8.1236 H   0  0  0  0  0  0  0  0  0  0  0  0
   -2.2905    1.9232    7.6521 H   0  0  0  0  0  0  0  0  0  0  0  0
   -2.0131    0.5514    5.5496 H   0  0  0  0  0  0  0  0  0  0  0  0
    1.6587    2.1519    6.3093 H   0  0  0  0  0  0  0  0  0  0  0  0
    1.0800    0.0052    7.3692 H   0  0  0  0  0  0  0  0  0  0  0  0
    0.2753   -0.4936    5.8993 H   0  0  0  0  0  0  0  0  0  0  0  0
    3.1717   -0.2463    6.4821 H   0  0  0  0  0  0  0  0  0  0  0  0
    2.2382   -1.4661    5.6826 H   0  0  0  0  0  0  0  0  0  0  0  0
    4.7323    1.0067    5.3356 H   0  0  0  0  0  0  0  0  0  0  0  0
    3.4509    2.1673    5.1703 H   0  0  0  0  0  0  0  0  0  0  0  0
    4.3902    1.7367    3.7986 H   0  0  0  0  0  0  0  0  0  0  0  0
    5.4546   -1.0761    5.0816 H   0  0  0  0  0  0  0  0  0  0  0  0
    5.2367   -2.5952    4.2467 H   0  0  0  0  0  0  0  0  0  0  0  0
    4.1781   -2.2002    5.5099 H   0  0  0  0  0  0  0  0  0  0  0  0
    4.1997   -0.0382    1.7030 H   0  0  0  0  0  0  0  0  0  0  0  0
    5.4871    0.1166    2.8503 H   0  0  0  0  0  0  0  0  0  0  0  0
    6.0666   -1.3134    0.9412 H   0  0  0  0  0  0  0  0  0  0  0  0
    6.2528   -2.1034    2.4579 H   0  0  0  0  0  0  0  0  0  0  0  0
    4.7068   -2.5673   -0.8973 H   0  0  0  0  0  0  0  0  0  0  0  0
    3.6089   -1.4817   -0.1022 H   0  0  0  0  0  0  0  0  0  0  0  0
    3.1484   -3.1616   -0.3452 H   0  0  0  0  0  0  0  0  0  0  0  0
    6.2168   -3.9398    0.2122 H   0  0  0  0  0  0  0  0  0  0  0  0
    6.1612   -4.2835    1.9121 H   0  0  0  0  0  0  0  0  0  0  0  0
    5.4317   -6.2394    0.5962 H   0  0  0  0  0  0  0  0  0  0  0  0
    4.1472   -5.3110   -0.1230 H   0  0  0  0  0  0  0  0  0  0  0  0
  1  2  2  0
  1 34  1  0
  1 35  1  0
  2  3  1  0
  2  4  1  0
  3 36  1  0
  3 37  1  0
  3 38  1  0
  4 33  1  0
  4  5  1  0
  4 39  1  1
  5  6  2  0
  5 40  1  0
  6 30  1  0
  6  7  1  0
  7 26  1  0
  7  8  1  0
  7 41  1  1
  8  9  1  0
  8 42  1  0
  8 43  1  0
  9 10  1  0
  9 44  1  0
  9 45  1  0
 10 24  1  0
 10 11  1  6
 10 12  1  0
 11 46  1  0
 11 47  1  0
 11 48  1  0
 12 21  1  0
 12 13  1  0
 12 49  1  1
 13 14  1  0
 13 15  1  0
 13 50  1  6
 14 51  1  0
 15 16  1  0
 15 17  1  0
 15 52  1  6
 16 53  1  0
 17 18  1  1
 17 19  1  0
 17 21  1  0
 18 54  1  0
 18 55  1  0
 18 56  1  0
 19 20  1  0
 19 57  1  0
 19 58  1  0
 20 59  1  0
 21 22  1  0
 21 60  1  1
 22 23  1  0
 22 61  1  0
 22 62  1  0
 23 24  1  0
 23 63  1  0
 23 64  1  0
 24 25  1  1
 24 26  1  0
 25 65  1  0
 25 66  1  0
 25 67  1  0
 26 27  1  1
 26 28  1  0
 27 68  1  0
 27 69  1  0
 27 70  1  0
 28 29  1  0
 28 71  1  0
 28 72  1  0
 29 30  1  0
 29 73  1  0
 29 74  1  0
 30 31  1  6
 30 32  1  0
 31 75  1  0
 31 76  1  0
 31 77  1  0
 32 33  1  0
 32 78  1  0
 32 79  1  0
 33 80  1  0
 33 81  1  0
M  END
>  <i_m_ct_stereo_status>  (3) 
1

>  <s_m_source_file>  (3) 
/var/tmp/pbs.5076255.sched01/tmp_578sd5a/06fbc0iir.sdf

>  <i_m_source_file_index>  (3) 
3

>  <i_lp_mmshare_version>  (3) 
48012

>  <i_f3d_flags>  (3) 
0

>  <s_epik_input>  (3) 
W0NIMl09QyhbQ0gzXSlbQ0BIXShbQ0hdPTEpW0NIMl1bQ0gyXVtDQF0oW0NIM10pKFtDSDJdW0NIMl0yKUMxW0NASF0oW0NIMl1bQ0gyXTMpW0NAXTIoW0NIM10pW0NAXTQoW0NIM10pW0NIMl1bQ0gyXVtDQEBIXShbQ0BIXTVbQ0BdMzRbQ0gzXSlbQ0BdKFtDSDNdKShbQ0gyXVtPSF0pW0NASF0oW09IXSlbQ0BASF01W09IXQ==

>  <s_epik_cmdline>  (3) 
J2VwaWtfcHl0aG9uJywgJy1waHQnLCAnMi4wJywgJy1waCcsICc3LjAnLCAnLXRuJywgJzgnLCAnLW1hJywgJzIwMCcsICctaW1hZScsICc8aW5maWxlLm1hZT4nLCAnLW9tYWUnLCAnPG91dGZpbGUubWFlPic=

>  <r_lp_tautomer_probability>  (3) 
1

>  <r_epik_Ionization_Penalty>  (3) 
1.313e-06

>  <r_epik_Ionization_Penalty_Charging>  (3) 
0

>  <r_epik_Ionization_Penalty_Neutral>  (3) 
1.313e-06

>  <r_epik_State_Penalty>  (3) 
-0

>  <r_epik_Charging_Adjusted_Penalty>  (3) 
0

>  <i_epik_Tot_Q>  (3) 
0

>  <i_epik_Tot_abs_Q>  (3) 
0

>  <s_lp_Force_Field>  (3) 
OPLS3e

>  <r_lp_Energy>  (3) 
95.3153

>  <b_lp_Chiralities_Consistent>  (3) 
1

>  <s_lp_Variant>  (3) 
2:0-1

>  <s_i_glide_gridfile>  (3) 
pfpi4k_grid

>  <i_i_glide_lignum>  (3) 
3

>  <i_i_glide_rotatable_bonds>  (3) 
5

>  <r_i_docking_score>  (3) 
-3.34988

>  <r_i_glide_ligand_efficiency>  (3) 
-0.101511

>  <r_i_glide_ligand_efficiency_sa>  (3) 
-0.325602

>  <r_i_glide_ligand_efficiency_ln>  (3) 
-0.744996

>  <r_i_glide_gscore>  (3) 
-3.34988

>  <r_i_glide_lipo>  (3) 
-0.492289

>  <r_i_glide_hbond>  (3) 
0

>  <r_i_glide_metal>  (3) 
-0

>  <r_i_glide_rewards>  (3) 
-0.795225

>  <r_i_glide_evdw>  (3) 
-20.9606

>  <r_i_glide_ecoul>  (3) 
-8.04707

>  <r_i_glide_erotb>  (3) 
0.192727

>  <r_i_glide_esite>  (3) 
0

>  <r_i_glide_emodel>  (3) 
-38.3219

>  <r_i_glide_energy>  (3) 
-29.0077

>  <r_i_glide_einternal>  (3) 
4.86192

>  <r_i_glide_intrahb_reward>  (3) 
-0.5

>  <i_i_glide_confnum>  (3) 
4

>  <i_i_glide_posenum>  (3) 
26

>  <r_i_glide_eff_state_penalty>  (3) 
0

>  <ligand_id>  (3) 
2

>  <original_smiles>  (3) 
C=C(C)C1C=C2C3CCC4(C)C5C(O)C(O)C(C)(CO)C5CCC4(C)C3(C)CCC2(C)CC1

>  <smiles>  (3) 
[H]OC([H])([H])C1(C([H])([H])[H])C([H])(O[H])C([H])(O[H])C2([H])C1([H])C([H])([H])C([H])([H])C1(C([H])([H])[H])C3(C([H])([H])[H])C([H])([H])C([H])([H])C4(C([H])([H])[H])C(=C([H])C([H])(C(=C([H])[H])C([H])([H])[H])C([H])([H])C4([H])[H])C3([H])C([H])([H])C([H])([H])C21C([H])([H])[H]

$$$$
2:0:1
     RDKit          3D

 81 85  0  0  1  0  0  0  0  0999 V2000
    2.8162   -7.9806    1.9166 C   0  0  0  0  0  0  0  0  0  0  0  0
    2.7355   -6.7047    1.5097 C   0  0  0  0  0  0  0  0  0  0  0  0
    1.5861   -6.2377    0.6383 C   0  0  0  0  0  0  0  0  0  0  0  0
    3.7788   -5.6647    1.9057 C   0  0  2  0  0  0  0  0  0  0  0  0
    3.1525   -4.4319    2.5395 C   0  0  0  0  0  0  0  0  0  0  0  0
    3.4723   -3.1612    2.2717 C   0  0  0  0  0  0  0  0  0  0  0  0
    2.7839   -2.0122    3.0212 C   0  0  2  0  0  0  0  0  0  0  0  0
    1.7075   -1.3365    2.1604 C   0  0  0  0  0  0  0  0  0  0  0  0
    0.8848   -0.3188    2.9541 C   0  0  0  0  0  0  0  0  0  0  0  0
    1.7204    0.8495    3.5457 C   0  0  1  0  0  0  0  0  0  0  0  0
    2.1512    1.7467    2.3496 C   0  0  0  0  0  0  0  0  0  0  0  0
    0.8310    1.8399    4.4190 C   0  0  1  0  0  0  0  0  0  0  0  0
   -0.6331    2.1909    4.0179 C   0  0  1  0  0  0  0  0  0  0  0  0
   -1.4962    1.0686    3.9651 O   0  0  0  0  0  0  0  0  0  0  0  0
   -1.0822    3.0311    5.2193 C   0  0  1  0  0  0  0  0  0  0  0  0
   -2.4682    3.3163    5.2516 O   0  0  0  0  0  0  0  0  0  0  0  0
   -0.4996    2.3469    6.4913 C   0  0  1  0  0  0  0  0  0  0  0  0
   -0.0994    3.4528    7.4928 C   0  0  0  0  0  0  0  0  0  0  0  0
   -1.5096    1.4456    7.2639 C   0  0  0  0  0  0  0  0  0  0  0  0
   -2.1332    0.4289    6.4775 O   0  0  0  0  0  0  0  0  0  0  0  0
    0.8012    1.6513    5.9544 C   0  0  1  0  0  0  0  0  0  0  0  0
    1.0262    0.1820    6.2983 C   0  0  0  0  0  0  0  0  0  0  0  0
    2.3566   -0.3673    5.7395 C   0  0  0  0  0  0  0  0  0  0  0  0
    2.9287    0.2150    4.3914 C   0  0  2  0  0  0  0  0  0  0  0  0
    3.9340    1.3444    4.7859 C   0  0  0  0  0  0  0  0  0  0  0  0
    3.7578   -0.9717    3.6678 C   0  0  1  0  0  0  0  0  0  0  0  0
    4.6547   -1.7301    4.7069 C   0  0  0  0  0  0  0  0  0  0  0  0
    4.7496   -0.5116    2.5439 C   0  0  0  0  0  0  0  0  0  0  0  0
    5.4973   -1.6604    1.8259 C   0  0  0  0  0  0  0  0  0  0  0  0
    4.5999   -2.7942    1.2757 C   0  0  2  0  0  0  0  0  0  0  0  0
    4.0083   -2.3635   -0.0814 C   0  0  0  0  0  0  0  0  0  0  0  0
    5.5021   -4.0354    1.0398 C   0  0  0  0  0  0  0  0  0  0  0  0
    4.7049   -5.3045    0.7318 C   0  0  0  0  0  0  0  0  0  0  0  0
    2.0655   -8.7042    1.6257 H   0  0  0  0  0  0  0  0  0  0  0  0
    3.6294   -8.3237    2.5451 H   0  0  0  0  0  0  0  0  0  0  0  0
    1.0276   -5.4619    1.1613 H   0  0  0  0  0  0  0  0  0  0  0  0
    0.9004   -7.0561    0.4331 H   0  0  0  0  0  0  0  0  0  0  0  0
    1.9533   -5.8471   -0.3117 H   0  0  0  0  0  0  0  0  0  0  0  0
    4.3904   -6.1027    2.6957 H   0  0  0  0  0  0  0  0  0  0  0  0
    2.3784   -4.6480    3.2779 H   0  0  0  0  0  0  0  0  0  0  0  0
    2.2419   -2.4976    3.8314 H   0  0  0  0  0  0  0  0  0  0  0  0
    2.1306   -0.8592    1.2823 H   0  0  0  0  0  0  0  0  0  0  0  0
    1.0243   -2.0975    1.7908 H   0  0  0  0  0  0  0  0  0  0  0  0
    0.1291    0.0814    2.2798 H   0  0  0  0  0  0  0  0  0  0  0  0
    0.3585   -0.8508    3.7397 H   0  0  0  0  0  0  0  0  0  0  0  0
    2.8401    2.5435    2.6428 H   0  0  0  0  0  0  0  0  0  0  0  0
    1.2830    2.2476    1.9161 H   0  0  0  0  0  0  0  0  0  0  0  0
    2.6005    1.2058    1.5187 H   0  0  0  0  0  0  0  0  0  0  0  0
    1.3376    2.8064    4.3271 H   0  0  0  0  0  0  0  0  0  0  0  0
   -0.6892    2.7404    3.0745 H   0  0  0  0  0  0  0  0  0  0  0  0
   -2.2408    1.2883    3.4169 H   0  0  0  0  0  0  0  0  0  0  0  0
   -0.5889    3.9961    5.1126 H   0  0  0  0  0  0  0  0  0  0  0  0
   -2.9365    2.4937    5.2302 H   0  0  0  0  0  0  0  0  0  0  0  0
    0.3552    3.0402    8.3932 H   0  0  0  0  0  0  0  0  0  0  0  0
   -0.9740    4.0300    7.7969 H   0  0  0  0  0  0  0  0  0  0  0  0
    0.6154    4.1502    7.0549 H   0  0  0  0  0  0  0  0  0  0  0  0
   -1.0240    0.9991    8.1408 H   0  0  0  0  0  0  0  0  0  0  0  0
   -2.2950    2.0730    7.7007 H   0  0  0  0  0  0  0  0  0  0  0  0
   -1.9278    0.5646    5.5455 H   0  0  0  0  0  0  0  0  0  0  0  0
    1.6474    2.1890    6.3737 H   0  0  0  0  0  0  0  0  0  0  0  0
    1.0357    0.0367    7.3775 H   0  0  0  0  0  0  0  0  0  0  0  0
    0.2168   -0.4202    5.8943 H   0  0  0  0  0  0  0  0  0  0  0  0
    3.1179   -0.2332    6.5172 H   0  0  0  0  0  0  0  0  0  0  0  0
    2.1847   -1.4332    5.6848 H   0  0  0  0  0  0  0  0  0  0  0  0
    4.7184    0.9967    5.4507 H   0  0  0  0  0  0  0  0  0  0  0  0
    3.4713    2.1887    5.2751 H   0  0  0  0  0  0  0  0  0  0  0  0
    4.4356    1.7509    3.9213 H   0  0  0  0  0  0  0  0  0  0  0  0
    5.4137   -1.0793    5.1446 H   0  0  0  0  0  0  0  0  0  0  0  0
    5.1814   -2.5772    4.2684 H   0  0  0  0  0  0  0  0  0  0  0  0
    4.1129   -2.1927    5.5273 H   0  0  0  0  0  0  0  0  0  0  0  0
    4.2440    0.0624    1.7795 H   0  0  0  0  0  0  0  0  0  0  0  0
    5.5193    0.1394    2.9543 H   0  0  0  0  0  0  0  0  0  0  0  0
    6.0892   -1.2386    1.0083 H   0  0  0  0  0  0  0  0  0  0  0  0
    6.2328   -2.0769    2.5076 H   0  0  0  0  0  0  0  0  0  0  0  0
    4.7563   -2.4214   -0.8749 H   0  0  0  0  0  0  0  0  0  0  0  0
    3.6609   -1.3313   -0.0788 H   0  0  0  0  0  0  0  0  0  0  0  0
    3.1707   -2.9978   -0.3725 H   0  0  0  0  0  0  0  0  0  0  0  0
    6.2121   -3.8412    0.2294 H   0  0  0  0  0  0  0  0  0  0  0  0
    6.1125   -4.2257    1.9209 H   0  0  0  0  0  0  0  0  0  0  0  0
    5.3788   -6.1374    0.5455 H   0  0  0  0  0  0  0  0  0  0  0  0
    4.1348   -5.1641   -0.1846 H   0  0  0  0  0  0  0  0  0  0  0  0
  1  2  2  0
  1 34  1  0
  1 35  1  0
  2  3  1  0
  2  4  1  0
  3 36  1  0
  3 37  1  0
  3 38  1  0
  4 33  1  0
  4  5  1  0
  4 39  1  1
  5  6  2  0
  5 40  1  0
  6 30  1  0
  6  7  1  0
  7 26  1  0
  7  8  1  0
  7 41  1  1
  8  9  1  0
  8 42  1  0
  8 43  1  0
  9 10  1  0
  9 44  1  0
  9 45  1  0
 10 24  1  0
 10 11  1  6
 10 12  1  0
 11 46  1  0
 11 47  1  0
 11 48  1  0
 12 21  1  0
 12 13  1  0
 12 49  1  1
 13 14  1  0
 13 15  1  0
 13 50  1  6
 14 51  1  0
 15 16  1  0
 15 17  1  0
 15 52  1  6
 16 53  1  0
 17 18  1  1
 17 19  1  0
 17 21  1  0
 18 54  1  0
 18 55  1  0
 18 56  1  0
 19 20  1  0
 19 57  1  0
 19 58  1  0
 20 59  1  0
 21 22  1  0
 21 60  1  1
 22 23  1  0
 22 61  1  0
 22 62  1  0
 23 24  1  0
 23 63  1  0
 23 64  1  0
 24 25  1  1
 24 26  1  0
 25 65  1  0
 25 66  1  0
 25 67  1  0
 26 27  1  1
 26 28  1  0
 27 68  1  0
 27 69  1  0
 27 70  1  0
 28 29  1  0
 28 71  1  0
 28 72  1  0
 29 30  1  0
 29 73  1  0
 29 74  1  0
 30 31  1  6
 30 32  1  0
 31 75  1  0
 31 76  1  0
 31 77  1  0
 32 33  1  0
 32 78  1  0
 32 79  1  0
 33 80  1  0
 33 81  1  0
M  END
>  <i_m_ct_stereo_status>  (4) 
1

>  <s_m_source_file>  (4) 
/var/tmp/pbs.5076255.sched01/tmp_578sd5a/06fbc0iir.sdf

>  <i_m_source_file_index>  (4) 
3

>  <i_lp_mmshare_version>  (4) 
48012

>  <i_f3d_flags>  (4) 
0

>  <s_epik_input>  (4) 
W0NIMl09QyhbQ0gzXSlbQ0BIXShbQ0hdPTEpW0NIMl1bQ0gyXVtDQF0oW0NIM10pKFtDSDJdW0NIMl0yKUMxW0NASF0oW0NIMl1bQ0gyXTMpW0NAXTIoW0NIM10pW0NAXTQoW0NIM10pW0NIMl1bQ0gyXVtDQEBIXShbQ0BIXTVbQ0BdMzRbQ0gzXSlbQ0BdKFtDSDNdKShbQ0gyXVtPSF0pW0NASF0oW09IXSlbQ0BASF01W09IXQ==

>  <s_epik_cmdline>  (4) 
J2VwaWtfcHl0aG9uJywgJy1waHQnLCAnMi4wJywgJy1waCcsICc3LjAnLCAnLXRuJywgJzgnLCAnLW1hJywgJzIwMCcsICctaW1hZScsICc8aW5maWxlLm1hZT4nLCAnLW9tYWUnLCAnPG91dGZpbGUubWFlPic=

>  <r_lp_tautomer_probability>  (4) 
1

>  <r_epik_Ionization_Penalty>  (4) 
1.313e-06

>  <r_epik_Ionization_Penalty_Charging>  (4) 
0

>  <r_epik_Ionization_Penalty_Neutral>  (4) 
1.313e-06

>  <r_epik_State_Penalty>  (4) 
-0

>  <r_epik_Charging_Adjusted_Penalty>  (4) 
0

>  <i_epik_Tot_Q>  (4) 
0

>  <i_epik_Tot_abs_Q>  (4) 
0

>  <s_lp_Force_Field>  (4) 
OPLS3e

>  <r_lp_Energy>  (4) 
95.3153

>  <b_lp_Chiralities_Consistent>  (4) 
1

>  <s_lp_Variant>  (4) 
2:0-1

>  <s_i_glide_gridfile>  (4) 
pfpi4k_grid

>  <i_i_glide_lignum>  (4) 
3

>  <i_i_glide_rotatable_bonds>  (4) 
5

>  <r_i_docking_score>  (4) 
-3.29293

>  <r_i_glide_ligand_efficiency>  (4) 
-0.0997857

>  <r_i_glide_ligand_efficiency_sa>  (4) 
-0.320066

>  <r_i_glide_ligand_efficiency_ln>  (4) 
-0.73233

>  <r_i_glide_gscore>  (4) 
-3.29293

>  <r_i_glide_lipo>  (4) 
-0.469151

>  <r_i_glide_hbond>  (4) 
0

>  <r_i_glide_metal>  (4) 
-0

>  <r_i_glide_rewards>  (4) 
-0.795225

>  <r_i_glide_evdw>  (4) 
-21.9543

>  <r_i_glide_ecoul>  (4) 
-7.49041

>  <r_i_glide_erotb>  (4) 
0.192727

>  <r_i_glide_esite>  (4) 
0

>  <r_i_glide_emodel>  (4) 
-38.5342

>  <r_i_glide_energy>  (4) 
-29.4448

>  <r_i_glide_einternal>  (4) 
3.88852

>  <r_i_glide_intrahb_reward>  (4) 
-0.5

>  <i_i_glide_confnum>  (4) 
4

>  <i_i_glide_posenum>  (4) 
2

>  <r_i_glide_eff_state_penalty>  (4) 
0

>  <ligand_id>  (4) 
2

>  <original_smiles>  (4) 
C=C(C)C1C=C2C3CCC4(C)C5C(O)C(O)C(C)(CO)C5CCC4(C)C3(C)CCC2(C)CC1

>  <smiles>  (4) 
[H]OC([H])([H])C1(C([H])([H])[H])C([H])(O[H])C([H])(O[H])C2([H])C1([H])C([H])([H])C([H])([H])C1(C([H])([H])[H])C3(C([H])([H])[H])C([H])([H])C([H])([H])C4(C([H])([H])[H])C(=C([H])C([H])(C(=C([H])[H])C([H])([H])[H])C([H])([H])C4([H])[H])C3([H])C([H])([H])C([H])([H])C21C([H])([H])[H]

$$$$
2:0:2
     RDKit          3D

 81 85  0  0  1  0  0  0  0  0999 V2000
   -0.9816   -7.4464    3.0212 C   0  0  0  0  0  0  0  0  0  0  0  0
    0.1839   -6.9294    2.5893 C   0  0  0  0  0  0  0  0  0  0  0  0
    0.5161   -6.9177    1.1050 C   0  0  0  0  0  0  0  0  0  0  0  0
    1.2256   -6.3651    3.5610 C   0  0  2  0  0  0  0  0  0  0  0  0
    1.0171   -4.8768    3.8037 C   0  0  0  0  0  0  0  0  0  0  0  0
    1.9940   -3.9465    3.8399 C   0  0  0  0  0  0  0  0  0  0  0  0
    1.6409   -2.4740    4.1204 C   0  0  2  0  0  0  0  0  0  0  0  0
    1.6354   -1.6361    2.8368 C   0  0  0  0  0  0  0  0  0  0  0  0
    1.1062   -0.2228    3.0871 C   0  0  0  0  0  0  0  0  0  0  0  0
    1.9428    0.6002    4.1122 C   0  0  1  0  0  0  0  0  0  0  0  0
    3.2978    0.9419    3.4153 C   0  0  0  0  0  0  0  0  0  0  0  0
    1.3102    2.0367    4.3987 C   0  0  1  0  0  0  0  0  0  0  0  0
    0.5950    2.8252    3.2721 C   0  0  1  0  0  0  0  0  0  0  0  0
   -0.5081    2.1540    2.6874 O   0  0  0  0  0  0  0  0  0  0  0  0
    0.0567    4.0438    4.0349 C   0  0  1  0  0  0  0  0  0  0  0  0
   -0.8455    4.8397    3.2795 O   0  0  0  0  0  0  0  0  0  0  0  0
   -0.4718    3.5126    5.3992 C   0  0  1  0  0  0  0  0  0  0  0  0
   -0.1806    4.5807    6.4853 C   0  0  0  0  0  0  0  0  0  0  0  0
   -2.0091    3.2266    5.3519 C   0  0  0  0  0  0  0  0  0  0  0  0
   -2.5617    2.9751    6.6298 O   0  0  0  0  0  0  0  0  0  0  0  0
    0.4172    2.2349    5.6419 C   0  0  1  0  0  0  0  0  0  0  0  0
   -0.2896    0.9182    5.9465 C   0  0  0  0  0  0  0  0  0  0  0  0
    0.6933   -0.2315    6.2090 C   0  0  0  0  0  0  0  0  0  0  0  0
    2.0800   -0.2627    5.4563 C   0  0  2  0  0  0  0  0  0  0  0  0
    3.1276    0.4079    6.4000 C   0  0  0  0  0  0  0  0  0  0  0  0
    2.4869   -1.8205    5.2620 C   0  0  1  0  0  0  0  0  0  0  0  0
    2.2217   -2.6243    6.5848 C   0  0  0  0  0  0  0  0  0  0  0  0
    3.9926   -2.0740    4.9249 C   0  0  0  0  0  0  0  0  0  0  0  0
    4.3688   -3.5590    4.7099 C   0  0  0  0  0  0  0  0  0  0  0  0
    3.4832   -4.3213    3.6891 C   0  0  2  0  0  0  0  0  0  0  0  0
    3.9705   -4.0023    2.2550 C   0  0  0  0  0  0  0  0  0  0  0  0
    3.6776   -5.8411    3.9598 C   0  0  0  0  0  0  0  0  0  0  0  0
    2.6829   -6.6996    3.1818 C   0  0  0  0  0  0  0  0  0  0  0  0
   -1.6970   -7.8599    2.3215 H   0  0  0  0  0  0  0  0  0  0  0  0
   -1.2403   -7.4792    4.0721 H   0  0  0  0  0  0  0  0  0  0  0  0
    0.7525   -5.9092    0.7651 H   0  0  0  0  0  0  0  0  0  0  0  0
   -0.3091   -7.3109    0.5074 H   0  0  0  0  0  0  0  0  0  0  0  0
    1.3775   -7.5587    0.9087 H   0  0  0  0  0  0  0  0  0  0  0  0
    1.0219   -6.8172    4.5311 H   0  0  0  0  0  0  0  0  0  0  0  0
   -0.0009   -4.5738    3.9889 H   0  0  0  0  0  0  0  0  0  0  0  0
    0.6046   -2.4937    4.4489 H   0  0  0  0  0  0  0  0  0  0  0  0
    2.6134   -1.5810    2.3782 H   0  0  0  0  0  0  0  0  0  0  0  0
    0.9985   -2.1119    2.0932 H   0  0  0  0  0  0  0  0  0  0  0  0
    1.0816    0.2946    2.1272 H   0  0  0  0  0  0  0  0  0  0  0  0
    0.0724   -0.3042    3.4171 H   0  0  0  0  0  0  0  0  0  0  0  0
    4.0115    1.4255    4.0854 H   0  0  0  0  0  0  0  0  0  0  0  0
    3.1378    1.6432    2.5942 H   0  0  0  0  0  0  0  0  0  0  0  0
    3.8006    0.0949    2.9583 H   0  0  0  0  0  0  0  0  0  0  0  0
    2.1635    2.6764    4.6303 H   0  0  0  0  0  0  0  0  0  0  0  0
    1.2830    3.1213    2.4796 H   0  0  0  0  0  0  0  0  0  0  0  0
   -0.7335    2.6543    1.9101 H   0  0  0  0  0  0  0  0  0  0  0  0
    0.9211    4.6846    4.2199 H   0  0  0  0  0  0  0  0  0  0  0  0
   -0.5029    4.9016    2.3772 H   0  0  0  0  0  0  0  0  0  0  0  0
   -0.4926    4.2585    7.4774 H   0  0  0  0  0  0  0  0  0  0  0  0
   -0.6889    5.5171    6.2685 H   0  0  0  0  0  0  0  0  0  0  0  0
    0.8843    4.8003    6.5536 H   0  0  0  0  0  0  0  0  0  0  0  0
   -2.5586    4.0854    4.9652 H   0  0  0  0  0  0  0  0  0  0  0  0
   -2.2490    2.3970    4.6853 H   0  0  0  0  0  0  0  0  0  0  0  0
   -2.0249    2.3297    7.0691 H   0  0  0  0  0  0  0  0  0  0  0  0
    1.0560    2.4459    6.4981 H   0  0  0  0  0  0  0  0  0  0  0  0
   -0.9258    1.0057    6.8242 H   0  0  0  0  0  0  0  0  0  0  0  0
   -0.9380    0.6443    5.1113 H   0  0  0  0  0  0  0  0  0  0  0  0
    0.8773   -0.2625    7.2838 H   0  0  0  0  0  0  0  0  0  0  0  0
    0.0955   -1.1115    5.9923 H   0  0  0  0  0  0  0  0  0  0  0  0
    3.1769   -0.0717    7.3728 H   0  0  0  0  0  0  0  0  0  0  0  0
    2.9284    1.4546    6.5923 H   0  0  0  0  0  0  0  0  0  0  0  0
    4.1359    0.3824    6.0027 H   0  0  0  0  0  0  0  0  0  0  0  0
    2.8368   -2.2663    7.4121 H   0  0  0  0  0  0  0  0  0  0  0  0
    2.4283   -3.6878    6.4828 H   0  0  0  0  0  0  0  0  0  0  0  0
    1.1888   -2.6179    6.9259 H   0  0  0  0  0  0  0  0  0  0  0  0
    4.2961   -1.5458    4.0335 H   0  0  0  0  0  0  0  0  0  0  0  0
    4.6369   -1.7070    5.7227 H   0  0  0  0  0  0  0  0  0  0  0  0
    5.4125   -3.6196    4.3954 H   0  0  0  0  0  0  0  0  0  0  0  0
    4.3536   -4.0705    5.6734 H   0  0  0  0  0  0  0  0  0  0  0  0
    4.8866   -4.5400    2.0148 H   0  0  0  0  0  0  0  0  0  0  0  0
    4.2002   -2.9476    2.1160 H   0  0  0  0  0  0  0  0  0  0  0  0
    3.2240   -4.2774    1.5085 H   0  0  0  0  0  0  0  0  0  0  0  0
    4.6889   -6.1446    3.6967 H   0  0  0  0  0  0  0  0  0  0  0  0
    3.5649   -6.0603    5.0208 H   0  0  0  0  0  0  0  0  0  0  0  0
    2.8680   -7.7600    3.3536 H   0  0  0  0  0  0  0  0  0  0  0  0
    2.8762   -6.5208    2.1255 H   0  0  0  0  0  0  0  0  0  0  0  0
  1  2  2  0
  1 34  1  0
  1 35  1  0
  2  3  1  0
  2  4  1  0
  3 36  1  0
  3 37  1  0
  3 38  1  0
  4 33  1  0
  4  5  1  0
  4 39  1  1
  5  6  2  0
  5 40  1  0
  6 30  1  0
  6  7  1  0
  7 26  1  0
  7  8  1  0
  7 41  1  1
  8  9  1  0
  8 42  1  0
  8 43  1  0
  9 10  1  0
  9 44  1  0
  9 45  1  0
 10 24  1  0
 10 11  1  6
 10 12  1  0
 11 46  1  0
 11 47  1  0
 11 48  1  0
 12 21  1  0
 12 13  1  0
 12 49  1  1
 13 14  1  0
 13 15  1  0
 13 50  1  6
 14 51  1  0
 15 16  1  0
 15 17  1  0
 15 52  1  1
 16 53  1  0
 17 18  1  1
 17 19  1  0
 17 21  1  0
 18 54  1  0
 18 55  1  0
 18 56  1  0
 19 20  1  0
 19 57  1  0
 19 58  1  0
 20 59  1  0
 21 22  1  0
 21 60  1  1
 22 23  1  0
 22 61  1  0
 22 62  1  0
 23 24  1  0
 23 63  1  0
 23 64  1  0
 24 25  1  1
 24 26  1  0
 25 65  1  0
 25 66  1  0
 25 67  1  0
 26 27  1  1
 26 28  1  0
 27 68  1  0
 27 69  1  0
 27 70  1  0
 28 29  1  0
 28 71  1  0
 28 72  1  0
 29 30  1  0
 29 73  1  0
 29 74  1  0
 30 31  1  6
 30 32  1  0
 31 75  1  0
 31 76  1  0
 31 77  1  0
 32 33  1  0
 32 78  1  0
 32 79  1  0
 33 80  1  0
 33 81  1  0
M  END
>  <i_m_ct_stereo_status>  (5) 
1

>  <s_m_source_file>  (5) 
/var/tmp/pbs.5076255.sched01/tmp_578sd5a/06fbc0iir.sdf

>  <i_m_source_file_index>  (5) 
3

>  <i_lp_mmshare_version>  (5) 
48012

>  <i_f3d_flags>  (5) 
0

>  <s_epik_input>  (5) 
W0NIMl09QyhbQ0gzXSlbQ0BIXShbQ0hdPTEpW0NIMl1bQ0gyXVtDQF0oW0NIM10pKFtDSDJdW0NIMl0yKUMxW0NASF0oW0NIMl1bQ0gyXTMpW0NAXTIoW0NIM10pW0NAXTQoW0NIM10pW0NIMl1bQ0gyXVtDQEBIXShbQ0BIXTVbQ0BdMzRbQ0gzXSlbQ0BdKFtDSDNdKShbQ0gyXVtPSF0pW0NASF0oW09IXSlbQ0BASF01W09IXQ==

>  <s_epik_cmdline>  (5) 
J2VwaWtfcHl0aG9uJywgJy1waHQnLCAnMi4wJywgJy1waCcsICc3LjAnLCAnLXRuJywgJzgnLCAnLW1hJywgJzIwMCcsICctaW1hZScsICc8aW5maWxlLm1hZT4nLCAnLW9tYWUnLCAnPG91dGZpbGUubWFlPic=

>  <r_lp_tautomer_probability>  (5) 
1

>  <r_epik_Ionization_Penalty>  (5) 
1.313e-06

>  <r_epik_Ionization_Penalty_Charging>  (5) 
0

>  <r_epik_Ionization_Penalty_Neutral>  (5) 
1.313e-06

>  <r_epik_State_Penalty>  (5) 
-0

>  <r_epik_Charging_Adjusted_Penalty>  (5) 
0

>  <i_epik_Tot_Q>  (5) 
0

>  <i_epik_Tot_abs_Q>  (5) 
0

>  <s_lp_Force_Field>  (5) 
OPLS3e

>  <r_lp_Energy>  (5) 
95.3153

>  <b_lp_Chiralities_Consistent>  (5) 
1

>  <s_lp_Variant>  (5) 
2:0-1

>  <s_i_glide_gridfile>  (5) 
pfpi4k_grid

>  <i_i_glide_lignum>  (5) 
3

>  <i_i_glide_rotatable_bonds>  (5) 
5

>  <r_i_docking_score>  (5) 
-2.25261

>  <r_i_glide_ligand_efficiency>  (5) 
-0.0682608

>  <r_i_glide_ligand_efficiency_sa>  (5) 
-0.218949

>  <r_i_glide_ligand_efficiency_ln>  (5) 
-0.500968

>  <r_i_glide_gscore>  (5) 
-2.25261

>  <r_i_glide_lipo>  (5) 
-0.0198197

>  <r_i_glide_hbond>  (5) 
0

>  <r_i_glide_metal>  (5) 
-0

>  <r_i_glide_rewards>  (5) 
-0.295225

>  <r_i_glide_evdw>  (5) 
-21.2367

>  <r_i_glide_ecoul>  (5) 
-7.12302

>  <r_i_glide_erotb>  (5) 
0.192727

>  <r_i_glide_esite>  (5) 
0

>  <r_i_glide_emodel>  (5) 
-30.8968

>  <r_i_glide_energy>  (5) 
-28.3598

>  <r_i_glide_einternal>  (5) 
3.76483

>  <r_i_glide_intrahb_reward>  (5) 
-0

>  <i_i_glide_confnum>  (5) 
3

>  <i_i_glide_posenum>  (5) 
30

>  <r_i_glide_eff_state_penalty>  (5) 
0

>  <ligand_id>  (5) 
2

>  <original_smiles>  (5) 
C=C(C)C1C=C2C3CCC4(C)C5C(O)C(O)C(C)(CO)C5CCC4(C)C3(C)CCC2(C)CC1

>  <smiles>  (5) 
[H]OC([H])([H])C1(C([H])([H])[H])C([H])(O[H])C([H])(O[H])C2([H])C1([H])C([H])([H])C([H])([H])C1(C([H])([H])[H])C3(C([H])([H])[H])C([H])([H])C([H])([H])C4(C([H])([H])[H])C(=C([H])C([H])(C(=C([H])[H])C([H])([H])[H])C([H])([H])C4([H])[H])C3([H])C([H])([H])C([H])([H])C21C([H])([H])[H]

$$$$
4:0:0
     RDKit          3D

 85 91  0  0  1  0  0  0  0  0999 V2000
    4.4051   -3.1067    2.8597 C   0  0  0  0  0  0  0  0  0  0  0  0
    3.4341   -2.7399    3.9862 C   0  0  0  0  0  0  0  0  0  0  0  0
    3.2958   -1.4771    4.4713 C   0  0  0  0  0  0  0  0  0  0  0  0
    4.0439   -0.3159    3.9479 C   0  0  0  0  0  0  0  0  0  0  0  0
    5.2691   -0.2798    3.8330 O   0  0  0  0  0  0  0  0  0  0  0  0
    3.2055    0.8940    3.5219 C   0  0  0  0  0  0  0  0  0  0  0  0
    2.0757    1.2571    4.5302 C   0  0  2  0  0  0  0  0  0  0  0  0
    1.3183    0.0084    5.0487 C   0  0  1  0  0  0  0  0  0  0  0  0
    0.3843   -0.5299    3.9476 C   0  0  0  0  0  0  0  0  0  0  0  0
   -0.6696    0.5099    3.5469 C   0  0  1  0  0  0  0  0  0  0  0  0
   -1.5927    0.6207    4.6147 O   0  0  0  0  0  0  0  0  0  0  0  0
    0.0038    1.8484    3.0822 C   0  0  1  0  0  0  0  0  0  0  0  0
    0.5871    1.5967    1.8299 O   0  0  0  0  0  0  0  0  0  0  0  0
   -1.0518    2.7555    2.8717 O   0  0  0  0  0  0  0  0  0  0  0  0
   -1.5375    3.5595    3.8641 C   0  0  0  0  0  0  0  0  0  0  0  0
   -2.5465    4.2241    3.6743 O   0  0  0  0  0  0  0  0  0  0  0  0
   -0.7967    3.5911    5.1360 C   0  0  0  0  0  0  0  0  0  0  0  0
    0.4249    3.0523    5.2386 C   0  0  0  0  0  0  0  0  0  0  0  0
    1.1177    2.4095    4.0538 C   0  0  1  0  0  0  0  0  0  0  0  0
    1.9137    3.5534    3.3671 C   0  0  0  0  0  0  0  0  0  0  0  0
    2.3226   -1.0555    5.5728 C   0  0  1  0  0  0  0  0  0  0  0  0
    1.6885   -2.2147    6.3852 C   0  0  0  0  0  0  0  0  0  0  0  0
    1.6891   -3.5796    5.7167 C   0  0  1  0  0  0  0  0  0  0  0  0
    1.1779   -3.6844    4.3897 O   0  0  0  0  0  0  0  0  0  0  0  0
    2.5939   -3.8657    4.5397 C   0  0  1  0  0  0  0  0  0  0  0  0
    3.1544   -5.2658    4.4099 C   0  0  0  0  0  0  0  0  0  0  0  0
    4.1833   -5.5415    5.5002 C   0  0  0  0  0  0  0  0  0  0  0  0
    2.7732   -6.1871    3.4778 C   0  0  0  0  0  0  0  0  0  0  0  0
    1.7027   -5.9438    2.4061 C   0  0  1  0  0  0  0  0  0  0  0  0
    2.1255   -5.1008    1.3572 O   0  0  0  0  0  0  0  0  0  0  0  0
    1.3868   -7.3055    1.7755 C   0  0  0  0  0  0  0  0  0  0  0  0
    1.9280   -8.3614    2.7401 C   0  0  1  0  0  0  0  0  0  0  0  0
    3.2028   -7.6699    3.3266 C   0  0  1  0  0  0  0  0  0  0  0  0
    4.3700   -7.6838    2.3022 C   0  0  0  0  0  0  0  0  0  0  0  0
    3.7174   -8.4915    4.5506 C   0  0  0  0  0  0  0  0  0  0  0  0
    2.6473   -8.8954    5.5644 C   0  0  0  0  0  0  0  0  0  0  0  0
    1.5448   -9.7045    4.8748 C   0  0  1  0  0  0  0  0  0  0  0  0
    0.6412  -10.1546    5.8702 O   0  0  0  0  0  0  0  0  0  0  0  0
    0.8400   -8.8748    3.7614 C   0  0  0  0  0  0  0  0  0  0  0  0
   -0.0119   -7.7361    4.3945 C   0  0  0  0  0  0  0  0  0  0  0  0
   -0.1315   -9.8110    3.0016 C   0  0  0  0  0  0  0  0  0  0  0  0
    3.9321   -3.7708    2.1469 H   0  0  0  0  0  0  0  0  0  0  0  0
    5.2952   -3.5971    3.2554 H   0  0  0  0  0  0  0  0  0  0  0  0
    4.7155   -2.2423    2.2762 H   0  0  0  0  0  0  0  0  0  0  0  0
    3.8795    1.7390    3.4005 H   0  0  0  0  0  0  0  0  0  0  0  0
    2.8044    0.6676    2.5340 H   0  0  0  0  0  0  0  0  0  0  0  0
    2.6135    1.6640    5.3855 H   0  0  0  0  0  0  0  0  0  0  0  0
    0.7080    0.3169    5.8990 H   0  0  0  0  0  0  0  0  0  0  0  0
    0.9554   -0.8218    3.0671 H   0  0  0  0  0  0  0  0  0  0  0  0
   -0.1164   -1.4343    4.2950 H   0  0  0  0  0  0  0  0  0  0  0  0
   -1.2446    0.1409    2.7019 H   0  0  0  0  0  0  0  0  0  0  0  0
   -2.4058    0.9406    4.2398 H   0  0  0  0  0  0  0  0  0  0  0  0
    0.6114    2.4243    1.3547 H   0  0  0  0  0  0  0  0  0  0  0  0
   -1.2617    4.0900    5.9705 H   0  0  0  0  0  0  0  0  0  0  0  0
    0.9678    3.1117    6.1693 H   0  0  0  0  0  0  0  0  0  0  0  0
    2.4375    3.2363    2.4657 H   0  0  0  0  0  0  0  0  0  0  0  0
    2.6625    3.9578    4.0474 H   0  0  0  0  0  0  0  0  0  0  0  0
    1.2652    4.3838    3.0750 H   0  0  0  0  0  0  0  0  0  0  0  0
    2.9372   -0.5269    6.3053 H   0  0  0  0  0  0  0  0  0  0  0  0
    2.2709   -2.3307    7.3011 H   0  0  0  0  0  0  0  0  0  0  0  0
    0.6812   -1.9596    6.7209 H   0  0  0  0  0  0  0  0  0  0  0  0
    1.3817   -4.4029    6.3597 H   0  0  0  0  0  0  0  0  0  0  0  0
    4.4803   -4.6258    6.0148 H   0  0  0  0  0  0  0  0  0  0  0  0
    5.0945   -5.9665    5.0756 H   0  0  0  0  0  0  0  0  0  0  0  0
    3.7843   -6.2176    6.2598 H   0  0  0  0  0  0  0  0  0  0  0  0
    0.8096   -5.5338    2.8663 H   0  0  0  0  0  0  0  0  0  0  0  0
    2.9870   -5.3788    1.0745 H   0  0  0  0  0  0  0  0  0  0  0  0
    0.3430   -7.4313    1.4953 H   0  0  0  0  0  0  0  0  0  0  0  0
    1.9550   -7.4216    0.8599 H   0  0  0  0  0  0  0  0  0  0  0  0
    2.2514   -9.2373    2.1723 H   0  0  0  0  0  0  0  0  0  0  0  0
    4.6200   -8.6963    1.9807 H   0  0  0  0  0  0  0  0  0  0  0  0
    5.2694   -7.2452    2.7409 H   0  0  0  0  0  0  0  0  0  0  0  0
    4.1487   -7.1045    1.4062 H   0  0  0  0  0  0  0  0  0  0  0  0
    4.1131   -9.4304    4.1614 H   0  0  0  0  0  0  0  0  0  0  0  0
    4.5781   -8.0473    5.0442 H   0  0  0  0  0  0  0  0  0  0  0  0
    3.1053   -9.5039    6.3431 H   0  0  0  0  0  0  0  0  0  0  0  0
    2.2445   -8.0176    6.0640 H   0  0  0  0  0  0  0  0  0  0  0  0
    1.9879  -10.5917    4.4169 H   0  0  0  0  0  0  0  0  0  0  0  0
    1.0175  -10.8872    6.3550 H   0  0  0  0  0  0  0  0  0  0  0  0
   -0.7320   -8.1310    5.1122 H   0  0  0  0  0  0  0  0  0  0  0  0
   -0.6030   -7.1984    3.6542 H   0  0  0  0  0  0  0  0  0  0  0  0
    0.5930   -7.0040    4.9279 H   0  0  0  0  0  0  0  0  0  0  0  0
   -0.8942  -10.1945    3.6779 H   0  0  0  0  0  0  0  0  0  0  0  0
    0.3865  -10.6738    2.5786 H   0  0  0  0  0  0  0  0  0  0  0  0
   -0.6543   -9.3115    2.1849 H   0  0  0  0  0  0  0  0  0  0  0  0
  1  2  1  0
  1 42  1  0
  1 43  1  0
  1 44  1  0
  2 25  1  0
  2  3  2  0
  3 21  1  0
  3  4  1  0
  4  5  2  0
  4  6  1  0
  6  7  1  0
  6 45  1  0
  6 46  1  0
  7 19  1  0
  7  8  1  0
  7 47  1  1
  8  9  1  0
  8 21  1  0
  8 48  1  1
  9 10  1  0
  9 49  1  0
  9 50  1  0
 10 11  1  0
 10 12  1  0
 10 51  1  6
 11 52  1  0
 12 19  1  0
 12 13  1  6
 12 14  1  0
 13 53  1  0
 14 15  1  0
 15 16  2  0
 15 17  1  0
 17 18  2  0
 17 54  1  0
 18 19  1  0
 18 55  1  0
 19 20  1  6
 20 56  1  0
 20 57  1  0
 20 58  1  0
 21 22  1  0
 21 59  1  1
 22 23  1  0
 22 60  1  0
 22 61  1  0
 23 25  1  0
 23 24  1  0
 23 62  1  1
 25 24  1  6
 25 26  1  0
 26 27  1  0
 26 28  2  3
 27 63  1  0
 27 64  1  0
 27 65  1  0
 28 33  1  0
 28 29  1  0
 29 30  1  0
 29 31  1  0
 29 66  1  1
 30 67  1  0
 31 32  1  0
 31 68  1  0
 31 69  1  0
 32 39  1  0
 32 33  1  0
 32 70  1  6
 33 34  1  6
 33 35  1  0
 34 71  1  0
 34 72  1  0
 34 73  1  0
 35 36  1  0
 35 74  1  0
 35 75  1  0
 36 37  1  0
 36 76  1  0
 36 77  1  0
 37 38  1  0
 37 39  1  0
 37 78  1  6
 38 79  1  0
 39 40  1  0
 39 41  1  0
 40 80  1  0
 40 81  1  0
 40 82  1  0
 41 83  1  0
 41 84  1  0
 41 85  1  0
M  END
>  <i_m_ct_stereo_status>  (6) 
1

>  <s_m_source_file>  (6) 
/var/tmp/pbs.5076255.sched01/tmp_578sd5a/06fbc0iir.sdf

>  <i_m_source_file_index>  (6) 
5

>  <i_lp_mmshare_version>  (6) 
48012

>  <i_f3d_flags>  (6) 
0

>  <s_epik_input>  (6) 
TzFDKD1PKVtDSF09W0NIXVtDQF0oW0NIM10pKFtDQF0xMltPSF0pW0NASF0zW0NAQEhdKFtDSDJdW0NASF0yW09IXSlbQ0BASF00QyhDKD1PKVtDSDJdMyk9QyhbQ0gzXSlbQ0BdNShbQ0BIXShPNSlbQ0gyXTQpL0MoW0NIM10pPUM2XFtDQEBIXShbT0hdKVtDSDJdW0NAQEhdKFtDQEBdNjdbQ0gzXSlDKFtDSDNdKShbQ0gzXSlbQ0BIXShbT0hdKVtDSDJdW0NIMl03

>  <s_epik_cmdline>  (6) 
J2VwaWtfcHl0aG9uJywgJy1waHQnLCAnMi4wJywgJy1waCcsICc3LjAnLCAnLXRuJywgJzgnLCAnLW1hJywgJzIwMCcsICctaW1hZScsICc8aW5maWxlLm1hZT4nLCAnLW9tYWUnLCAnPG91dGZpbGUubWFlPic=

>  <r_lp_tautomer_probability>  (6) 
1

>  <r_epik_Ionization_Penalty>  (6) 
0.000141139

>  <r_epik_Ionization_Penalty_Charging>  (6) 
0

>  <r_epik_Ionization_Penalty_Neutral>  (6) 
0.000141139

>  <r_epik_State_Penalty>  (6) 
-0

>  <r_epik_Charging_Adjusted_Penalty>  (6) 
0

>  <i_epik_Tot_Q>  (6) 
0

>  <i_epik_Tot_abs_Q>  (6) 
0

>  <s_epik_Chemistry_Notes>  (6) 
This compound has an ester and may undergo hydrolysis at high or low pH.

>  <s_lp_Force_Field>  (6) 
OPLS3e

>  <r_lp_Energy>  (6) 
84.1569

>  <b_lp_Chiralities_Consistent>  (6) 
1

>  <s_lp_Variant>  (6) 
4:0-1

>  <s_i_glide_gridfile>  (6) 
pfpi4k_grid

>  <i_i_glide_lignum>  (6) 
5

>  <i_i_glide_rotatable_bonds>  (6) 
5

>  <r_i_docking_score>  (6) 
-3.14048

>  <r_i_glide_ligand_efficiency>  (6) 
-0.0765972

>  <r_i_glide_ligand_efficiency_sa>  (6) 
-0.264124

>  <r_i_glide_ligand_efficiency_ln>  (6) 
-0.666264

>  <r_i_glide_gscore>  (6) 
-3.14048

>  <r_i_glide_lipo>  (6) 
-0.0162982

>  <r_i_glide_hbond>  (6) 
-0.262082

>  <r_i_glide_metal>  (6) 
-0

>  <r_i_glide_rewards>  (6) 
-0.0147228

>  <r_i_glide_evdw>  (6) 
-33.2374

>  <r_i_glide_ecoul>  (6) 
-7.56578

>  <r_i_glide_erotb>  (6) 
0.0644251

>  <r_i_glide_esite>  (6) 
-0.115066

>  <r_i_glide_emodel>  (6) 
-48.7653

>  <r_i_glide_energy>  (6) 
-40.8032

>  <r_i_glide_einternal>  (6) 
1.85273

>  <r_i_glide_intrahb_reward>  (6) 
-0

>  <i_i_glide_confnum>  (6) 
1

>  <i_i_glide_posenum>  (6) 
17

>  <r_i_glide_eff_state_penalty>  (6) 
0

>  <ligand_id>  (6) 
4

>  <original_smiles>  (6) 
CC1=C2C(=O)CC3C(CC(O)C4(O)OC(=O)C=CC34C)C2CC2OC12C(C)=C1C(O)CC2C1(C)CCC(O)C2(C)C

>  <smiles>  (6) 
[H]OC1([H])C(=C(C([H])([H])[H])C23OC2([H])C([H])([H])C2([H])C(=C3C([H])([H])[H])C(=O)C([H])([H])C3([H])C2([H])C([H])([H])C([H])(O[H])C2(O[H])OC(=O)C([H])=C([H])C23C([H])([H])[H])C2(C([H])([H])[H])C([H])([H])C([H])([H])C([H])(O[H])C(C([H])([H])[H])(C([H])([H])[H])C2([H])C1([H])[H]

$$$$
4:0:1
     RDKit          3D

 85 91  0  0  1  0  0  0  0  0999 V2000
    4.5287   -3.1443    3.0216 C   0  0  0  0  0  0  0  0  0  0  0  0
    3.5010   -2.7925    4.1018 C   0  0  0  0  0  0  0  0  0  0  0  0
    3.3491   -1.5431    4.6170 C   0  0  0  0  0  0  0  0  0  0  0  0
    4.1462   -0.3766    4.1824 C   0  0  0  0  0  0  0  0  0  0  0  0
    5.3766   -0.3531    4.1537 O   0  0  0  0  0  0  0  0  0  0  0  0
    3.3548    0.8604    3.7466 C   0  0  0  0  0  0  0  0  0  0  0  0
    2.1598    1.2017    4.6888 C   0  0  2  0  0  0  0  0  0  0  0  0
    1.3569   -0.0536    5.1165 C   0  0  1  0  0  0  0  0  0  0  0  0
    0.4918   -0.5486    3.9422 C   0  0  0  0  0  0  0  0  0  0  0  0
   -0.5301    0.5081    3.5064 C   0  0  1  0  0  0  0  0  0  0  0  0
   -1.5218    0.6001    4.5126 O   0  0  0  0  0  0  0  0  0  0  0  0
    0.1837    1.8499    3.1254 C   0  0  1  0  0  0  0  0  0  0  0  0
    0.8602    1.6003    1.9131 O   0  0  0  0  0  0  0  0  0  0  0  0
   -0.8403    2.7896    2.8801 O   0  0  0  0  0  0  0  0  0  0  0  0
   -1.3738    3.5782    3.8672 C   0  0  0  0  0  0  0  0  0  0  0  0
   -2.3463    4.2897    3.6535 O   0  0  0  0  0  0  0  0  0  0  0  0
   -0.7215    3.5485    5.1850 C   0  0  0  0  0  0  0  0  0  0  0  0
    0.4824    2.9879    5.3462 C   0  0  0  0  0  0  0  0  0  0  0  0
    1.2411    2.3724    4.1860 C   0  0  1  0  0  0  0  0  0  0  0  0
    2.0904    3.5311    3.5916 C   0  0  0  0  0  0  0  0  0  0  0  0
    2.3134   -1.1441    5.6691 C   0  0  1  0  0  0  0  0  0  0  0  0
    1.6163   -2.3197    6.4032 C   0  0  0  0  0  0  0  0  0  0  0  0
    1.6489   -3.6624    5.6966 C   0  0  1  0  0  0  0  0  0  0  0  0
    1.2176   -3.7141    4.3363 O   0  0  0  0  0  0  0  0  0  0  0  0
    2.6200   -3.9229    4.5719 C   0  0  1  0  0  0  0  0  0  0  0  0
    3.1732   -5.3247    4.4359 C   0  0  0  0  0  0  0  0  0  0  0  0
    4.2032   -5.6151    5.5202 C   0  0  0  0  0  0  0  0  0  0  0  0
    2.7889   -6.2390    3.4976 C   0  0  0  0  0  0  0  0  0  0  0  0
    1.7299   -5.9726    2.4242 C   0  0  1  0  0  0  0  0  0  0  0  0
    2.1720   -5.1025    1.4042 O   0  0  0  0  0  0  0  0  0  0  0  0
    1.3996   -7.3252    1.7813 C   0  0  0  0  0  0  0  0  0  0  0  0
    1.9278   -8.3966    2.7397 C   0  0  1  0  0  0  0  0  0  0  0  0
    3.2077   -7.7229    3.3328 C   0  0  1  0  0  0  0  0  0  0  0  0
    4.3726   -7.7395    2.3056 C   0  0  0  0  0  0  0  0  0  0  0  0
    3.7164   -8.5561    4.5498 C   0  0  0  0  0  0  0  0  0  0  0  0
    2.6438   -8.9581    5.5611 C   0  0  0  0  0  0  0  0  0  0  0  0
    1.5364   -9.7545    4.8668 C   0  0  1  0  0  0  0  0  0  0  0  0
    0.6300  -10.2018    5.8607 O   0  0  0  0  0  0  0  0  0  0  0  0
    0.8376   -8.9119    3.7588 C   0  0  0  0  0  0  0  0  0  0  0  0
   -0.0068   -7.7718    4.3986 C   0  0  0  0  0  0  0  0  0  0  0  0
   -0.1410   -9.8357    2.9928 C   0  0  0  0  0  0  0  0  0  0  0  0
    4.0842   -3.7847    2.2659 H   0  0  0  0  0  0  0  0  0  0  0  0
    5.3851   -3.6620    3.4538 H   0  0  0  0  0  0  0  0  0  0  0  0
    4.8883   -2.2696    2.4838 H   0  0  0  0  0  0  0  0  0  0  0  0
    4.0505    1.6969    3.6974 H   0  0  0  0  0  0  0  0  0  0  0  0
    3.0168    0.6753    2.7277 H   0  0  0  0  0  0  0  0  0  0  0  0
    2.6407    1.5766    5.5915 H   0  0  0  0  0  0  0  0  0  0  0  0
    0.6946    0.2351    5.9332 H   0  0  0  0  0  0  0  0  0  0  0  0
    1.1178   -0.8168    3.0909 H   0  0  0  0  0  0  0  0  0  0  0  0
   -0.0386   -1.4585    4.2252 H   0  0  0  0  0  0  0  0  0  0  0  0
   -1.0416    0.1469    2.6154 H   0  0  0  0  0  0  0  0  0  0  0  0
   -2.3071    0.9362    4.0962 H   0  0  0  0  0  0  0  0  0  0  0  0
    0.2169    1.4909    1.2237 H   0  0  0  0  0  0  0  0  0  0  0  0
   -1.2387    4.0302    6.0035 H   0  0  0  0  0  0  0  0  0  0  0  0
    0.9640    3.0126    6.3118 H   0  0  0  0  0  0  0  0  0  0  0  0
    2.6685    3.2379    2.7138 H   0  0  0  0  0  0  0  0  0  0  0  0
    2.7977    3.9078    4.3314 H   0  0  0  0  0  0  0  0  0  0  0  0
    1.4707    4.3785    3.2845 H   0  0  0  0  0  0  0  0  0  0  0  0
    2.8847   -0.6475    6.4551 H   0  0  0  0  0  0  0  0  0  0  0  0
    2.1331   -2.4695    7.3524 H   0  0  0  0  0  0  0  0  0  0  0  0
    0.5904   -2.0647    6.6767 H   0  0  0  0  0  0  0  0  0  0  0  0
    1.2902   -4.5026    6.2881 H   0  0  0  0  0  0  0  0  0  0  0  0
    4.5071   -4.7037    6.0390 H   0  0  0  0  0  0  0  0  0  0  0  0
    5.1103   -6.0434    5.0882 H   0  0  0  0  0  0  0  0  0  0  0  0
    3.7983   -6.2947    6.2736 H   0  0  0  0  0  0  0  0  0  0  0  0
    0.8365   -5.5643    2.8838 H   0  0  0  0  0  0  0  0  0  0  0  0
    3.0077   -5.4118    1.0803 H   0  0  0  0  0  0  0  0  0  0  0  0
    0.3543   -7.4419    1.5021 H   0  0  0  0  0  0  0  0  0  0  0  0
    1.9658   -7.4376    0.8644 H   0  0  0  0  0  0  0  0  0  0  0  0
    2.2415   -9.2709    2.1647 H   0  0  0  0  0  0  0  0  0  0  0  0
    4.6141   -8.7525    1.9784 H   0  0  0  0  0  0  0  0  0  0  0  0
    5.2757   -7.3101    2.7458 H   0  0  0  0  0  0  0  0  0  0  0  0
    4.1546   -7.1539    1.4123 H   0  0  0  0  0  0  0  0  0  0  0  0
    4.1045   -9.4946    4.1536 H   0  0  0  0  0  0  0  0  0  0  0  0
    4.5806   -8.1200    5.0447 H   0  0  0  0  0  0  0  0  0  0  0  0
    3.0985   -9.5731    6.3362 H   0  0  0  0  0  0  0  0  0  0  0  0
    2.2469   -8.0806    6.0655 H   0  0  0  0  0  0  0  0  0  0  0  0
    1.9730  -10.6420    4.4047 H   0  0  0  0  0  0  0  0  0  0  0  0
    1.0093  -10.9243    6.3596 H   0  0  0  0  0  0  0  0  0  0  0  0
   -0.7294   -8.1671    5.1134 H   0  0  0  0  0  0  0  0  0  0  0  0
   -0.5944   -7.2269    3.6606 H   0  0  0  0  0  0  0  0  0  0  0  0
    0.6027   -7.0464    4.9362 H   0  0  0  0  0  0  0  0  0  0  0  0
   -0.9083  -10.2169    3.6646 H   0  0  0  0  0  0  0  0  0  0  0  0
    0.3692  -10.7021    2.5670 H   0  0  0  0  0  0  0  0  0  0  0  0
   -0.6623   -9.3259    2.1816 H   0  0  0  0  0  0  0  0  0  0  0  0
  1  2  1  0
  1 42  1  0
  1 43  1  0
  1 44  1  0
  2 25  1  0
  2  3  2  0
  3 21  1  0
  3  4  1  0
  4  5  2  0
  4  6  1  0
  6  7  1  0
  6 45  1  0
  6 46  1  0
  7 19  1  0
  7  8  1  0
  7 47  1  1
  8  9  1  0
  8 21  1  0
  8 48  1  1
  9 10  1  0
  9 49  1  0
  9 50  1  0
 10 11  1  0
 10 12  1  0
 10 51  1  6
 11 52  1  0
 12 19  1  0
 12 13  1  6
 12 14  1  0
 13 53  1  0
 14 15  1  0
 15 16  2  0
 15 17  1  0
 17 18  2  0
 17 54  1  0
 18 19  1  0
 18 55  1  0
 19 20  1  6
 20 56  1  0
 20 57  1  0
 20 58  1  0
 21 22  1  0
 21 59  1  1
 22 23  1  0
 22 60  1  0
 22 61  1  0
 23 25  1  0
 23 24  1  0
 23 62  1  1
 25 24  1  6
 25 26  1  0
 26 27  1  0
 26 28  2  3
 27 63  1  0
 27 64  1  0
 27 65  1  0
 28 33  1  0
 28 29  1  0
 29 30  1  0
 29 31  1  0
 29 66  1  1
 30 67  1  0
 31 32  1  0
 31 68  1  0
 31 69  1  0
 32 39  1  0
 32 33  1  0
 32 70  1  6
 33 34  1  6
 33 35  1  0
 34 71  1  0
 34 72  1  0
 34 73  1  0
 35 36  1  0
 35 74  1  0
 35 75  1  0
 36 37  1  0
 36 76  1  0
 36 77  1  0
 37 38  1  0
 37 39  1  0
 37 78  1  6
 38 79  1  0
 39 40  1  0
 39 41  1  0
 40 80  1  0
 40 81  1  0
 40 82  1  0
 41 83  1  0
 41 84  1  0
 41 85  1  0
M  END
>  <i_m_ct_stereo_status>  (7) 
1

>  <s_m_source_file>  (7) 
/var/tmp/pbs.5076255.sched01/tmp_578sd5a/06fbc0iir.sdf

>  <i_m_source_file_index>  (7) 
5

>  <i_lp_mmshare_version>  (7) 
48012

>  <i_f3d_flags>  (7) 
0

>  <s_epik_input>  (7) 
TzFDKD1PKVtDSF09W0NIXVtDQF0oW0NIM10pKFtDQF0xMltPSF0pW0NASF0zW0NAQEhdKFtDSDJdW0NASF0yW09IXSlbQ0BASF00QyhDKD1PKVtDSDJdMyk9QyhbQ0gzXSlbQ0BdNShbQ0BIXShPNSlbQ0gyXTQpL0MoW0NIM10pPUM2XFtDQEBIXShbT0hdKVtDSDJdW0NAQEhdKFtDQEBdNjdbQ0gzXSlDKFtDSDNdKShbQ0gzXSlbQ0BIXShbT0hdKVtDSDJdW0NIMl03

>  <s_epik_cmdline>  (7) 
J2VwaWtfcHl0aG9uJywgJy1waHQnLCAnMi4wJywgJy1waCcsICc3LjAnLCAnLXRuJywgJzgnLCAnLW1hJywgJzIwMCcsICctaW1hZScsICc8aW5maWxlLm1hZT4nLCAnLW9tYWUnLCAnPG91dGZpbGUubWFlPic=

>  <r_lp_tautomer_probability>  (7) 
1

>  <r_epik_Ionization_Penalty>  (7) 
0.000141139

>  <r_epik_Ionization_Penalty_Charging>  (7) 
0

>  <r_epik_Ionization_Penalty_Neutral>  (7) 
0.000141139

>  <r_epik_State_Penalty>  (7) 
-0

>  <r_epik_Charging_Adjusted_Penalty>  (7) 
0

>  <i_epik_Tot_Q>  (7) 
0

>  <i_epik_Tot_abs_Q>  (7) 
0

>  <s_epik_Chemistry_Notes>  (7) 
This compound has an ester and may undergo hydrolysis at high or low pH.

>  <s_lp_Force_Field>  (7) 
OPLS3e

>  <r_lp_Energy>  (7) 
84.1569

>  <b_lp_Chiralities_Consistent>  (7) 
1

>  <s_lp_Variant>  (7) 
4:0-1

>  <s_i_glide_gridfile>  (7) 
pfpi4k_grid

>  <i_i_glide_lignum>  (7) 
5

>  <i_i_glide_rotatable_bonds>  (7) 
5

>  <r_i_docking_score>  (7) 
-3.08398

>  <r_i_glide_ligand_efficiency>  (7) 
-0.0752191

>  <r_i_glide_ligand_efficiency_sa>  (7) 
-0.259372

>  <r_i_glide_ligand_efficiency_ln>  (7) 
-0.654277

>  <r_i_glide_gscore>  (7) 
-3.08398

>  <r_i_glide_lipo>  (7) 
-0.0219965

>  <r_i_glide_hbond>  (7) 
-0.311601

>  <r_i_glide_metal>  (7) 
-0

>  <r_i_glide_rewards>  (7) 
-0.011736

>  <r_i_glide_evdw>  (7) 
-33.5401

>  <r_i_glide_ecoul>  (7) 
-6.73601

>  <r_i_glide_erotb>  (7) 
0.0644251

>  <r_i_glide_esite>  (7) 
-0.115665

>  <r_i_glide_emodel>  (7) 
-48.6285

>  <r_i_glide_energy>  (7) 
-40.2761

>  <r_i_glide_einternal>  (7) 
1.52919

>  <r_i_glide_intrahb_reward>  (7) 
-0

>  <i_i_glide_confnum>  (7) 
1

>  <i_i_glide_posenum>  (7) 
23

>  <r_i_glide_eff_state_penalty>  (7) 
0

>  <ligand_id>  (7) 
4

>  <original_smiles>  (7) 
CC1=C2C(=O)CC3C(CC(O)C4(O)OC(=O)C=CC34C)C2CC2OC12C(C)=C1C(O)CC2C1(C)CCC(O)C2(C)C

>  <smiles>  (7) 
[H]OC1([H])C(=C(C([H])([H])[H])C23OC2([H])C([H])([H])C2([H])C(=C3C([H])([H])[H])C(=O)C([H])([H])C3([H])C2([H])C([H])([H])C([H])(O[H])C2(O[H])OC(=O)C([H])=C([H])C23C([H])([H])[H])C2(C([H])([H])[H])C([H])([H])C([H])([H])C([H])(O[H])C(C([H])([H])[H])(C([H])([H])[H])C2([H])C1([H])[H]

$$$$
4:0:2
     RDKit          3D

 85 91  0  0  1  0  0  0  0  0999 V2000
    3.8873   -3.6727    1.6741 C   0  0  0  0  0  0  0  0  0  0  0  0
    3.5347   -3.2391    3.0987 C   0  0  0  0  0  0  0  0  0  0  0  0
    3.5279   -1.9443    3.5159 C   0  0  0  0  0  0  0  0  0  0  0  0
    3.8507   -0.7980    2.6383 C   0  0  0  0  0  0  0  0  0  0  0  0
    4.8883   -0.7034    1.9832 O   0  0  0  0  0  0  0  0  0  0  0  0
    2.8111    0.3264    2.5825 C   0  0  0  0  0  0  0  0  0  0  0  0
    2.2349    0.7147    3.9805 C   0  0  2  0  0  0  0  0  0  0  0  0
    1.9129   -0.5200    4.8585 C   0  0  1  0  0  0  0  0  0  0  0  0
    0.6266   -1.2044    4.3519 C   0  0  0  0  0  0  0  0  0  0  0  0
   -0.5916   -0.2679    4.4308 C   0  0  1  0  0  0  0  0  0  0  0  0
   -0.9098   -0.1115    5.8078 O   0  0  0  0  0  0  0  0  0  0  0  0
   -0.3201    1.0629    3.6191 C   0  0  1  0  0  0  0  0  0  0  0  0
   -0.3157    0.7032    2.2586 O   0  0  0  0  0  0  0  0  0  0  0  0
   -1.4238    1.9257    3.8346 O   0  0  0  0  0  0  0  0  0  0  0  0
   -1.4874    2.7616    4.9376 C   0  0  0  0  0  0  0  0  0  0  0  0
   -2.5201    3.3554    5.2413 O   0  0  0  0  0  0  0  0  0  0  0  0
   -0.2480    2.9326    5.7175 C   0  0  0  0  0  0  0  0  0  0  0  0
    0.9270    2.4704    5.2712 C   0  0  0  0  0  0  0  0  0  0  0  0
    1.0627    1.7608    3.9413 C   0  0  1  0  0  0  0  0  0  0  0  0
    1.3645    2.8761    2.9057 C   0  0  0  0  0  0  0  0  0  0  0  0
    3.1372   -1.4740    4.9177 C   0  0  1  0  0  0  0  0  0  0  0  0
    3.0563   -2.5807    6.0031 C   0  0  0  0  0  0  0  0  0  0  0  0
    2.8801   -3.9969    5.4908 C   0  0  1  0  0  0  0  0  0  0  0  0
    1.8218   -4.2427    4.5637 O   0  0  0  0  0  0  0  0  0  0  0  0
    3.1595   -4.3448    4.0492 C   0  0  1  0  0  0  0  0  0  0  0  0
    3.7169   -5.7207    3.7560 C   0  0  0  0  0  0  0  0  0  0  0  0
    5.2023   -5.7926    4.0927 C   0  0  0  0  0  0  0  0  0  0  0  0
    2.9992   -6.7839    3.2866 C   0  0  0  0  0  0  0  0  0  0  0  0
    1.5019   -6.7378    2.9624 C   0  0  1  0  0  0  0  0  0  0  0  0
    1.2194   -5.9917    1.7958 O   0  0  0  0  0  0  0  0  0  0  0  0
    1.0472   -8.1914    2.7389 C   0  0  0  0  0  0  0  0  0  0  0  0
    2.1481   -9.0752    3.3491 C   0  0  1  0  0  0  0  0  0  0  0  0
    3.4442   -8.2517    3.0578 C   0  0  1  0  0  0  0  0  0  0  0  0
    3.8411   -8.3609    1.5613 C   0  0  0  0  0  0  0  0  0  0  0  0
    4.6394   -8.8645    3.8488 C   0  0  0  0  0  0  0  0  0  0  0  0
    4.3619   -9.1657    5.3197 C   0  0  0  0  0  0  0  0  0  0  0  0
    3.1635  -10.1144    5.4457 C   0  0  1  0  0  0  0  0  0  0  0  0
    3.0211  -10.4425    6.8163 O   0  0  0  0  0  0  0  0  0  0  0  0
    1.8763   -9.4857    4.8526 C   0  0  0  0  0  0  0  0  0  0  0  0
    1.3903   -8.3090    5.7470 C   0  0  0  0  0  0  0  0  0  0  0  0
    0.7747  -10.5711    4.8759 C   0  0  0  0  0  0  0  0  0  0  0  0
    3.1908   -4.4308    1.3244 H   0  0  0  0  0  0  0  0  0  0  0  0
    4.8974   -4.0812    1.6346 H   0  0  0  0  0  0  0  0  0  0  0  0
    3.8187   -2.8559    0.9590 H   0  0  0  0  0  0  0  0  0  0  0  0
    3.2849    1.1863    2.1116 H   0  0  0  0  0  0  0  0  0  0  0  0
    2.0275   -0.0091    1.9043 H   0  0  0  0  0  0  0  0  0  0  0  0
    3.0631    1.2293    4.4659 H   0  0  0  0  0  0  0  0  0  0  0  0
    1.7437   -0.1705    5.8760 H   0  0  0  0  0  0  0  0  0  0  0  0
    0.7594   -1.5426    3.3253 H   0  0  0  0  0  0  0  0  0  0  0  0
    0.4307   -2.1022    4.9392 H   0  0  0  0  0  0  0  0  0  0  0  0
   -1.4473   -0.7672    3.9743 H   0  0  0  0  0  0  0  0  0  0  0  0
   -0.2083    0.3658    6.2281 H   0  0  0  0  0  0  0  0  0  0  0  0
   -0.1956    1.4920    1.7442 H   0  0  0  0  0  0  0  0  0  0  0  0
   -0.3248    3.4861    6.6401 H   0  0  0  0  0  0  0  0  0  0  0  0
    1.8277    2.6528    5.8362 H   0  0  0  0  0  0  0  0  0  0  0  0
    1.4429    2.5150    1.8801 H   0  0  0  0  0  0  0  0  0  0  0  0
    2.3009    3.3826    3.1382 H   0  0  0  0  0  0  0  0  0  0  0  0
    0.5857    3.6428    2.9000 H   0  0  0  0  0  0  0  0  0  0  0  0
    3.9690   -0.8491    5.2479 H   0  0  0  0  0  0  0  0  0  0  0  0
    3.9993   -2.5796    6.5531 H   0  0  0  0  0  0  0  0  0  0  0  0
    2.2909   -2.3554    6.7479 H   0  0  0  0  0  0  0  0  0  0  0  0
    2.9699   -4.7761    6.2451 H   0  0  0  0  0  0  0  0  0  0  0  0
    5.6258   -4.8006    4.2578 H   0  0  0  0  0  0  0  0  0  0  0  0
    5.7642   -6.2322    3.2665 H   0  0  0  0  0  0  0  0  0  0  0  0
    5.3745   -6.3709    5.0015 H   0  0  0  0  0  0  0  0  0  0  0  0
    0.9541   -6.3195    3.8014 H   0  0  0  0  0  0  0  0  0  0  0  0
    1.8619   -6.2348    1.1427 H   0  0  0  0  0  0  0  0  0  0  0  0
    0.0519   -8.3942    3.1302 H   0  0  0  0  0  0  0  0  0  0  0  0
    0.9901   -8.4184    1.6730 H   0  0  0  0  0  0  0  0  0  0  0  0
    2.2050  -10.0106    2.7865 H   0  0  0  0  0  0  0  0  0  0  0  0
    3.9859   -9.3979    1.2490 H   0  0  0  0  0  0  0  0  0  0  0  0
    4.7733   -7.8237    1.3720 H   0  0  0  0  0  0  0  0  0  0  0  0
    3.0917   -7.9274    0.9003 H   0  0  0  0  0  0  0  0  0  0  0  0
    4.8614   -9.8298    3.3933 H   0  0  0  0  0  0  0  0  0  0  0  0
    5.5705   -8.3176    3.7268 H   0  0  0  0  0  0  0  0  0  0  0  0
    5.2409   -9.6379    5.7583 H   0  0  0  0  0  0  0  0  0  0  0  0
    4.2057   -8.2452    5.8756 H   0  0  0  0  0  0  0  0  0  0  0  0
    3.3915  -11.0409    4.9130 H   0  0  0  0  0  0  0  0  0  0  0  0
    2.3992  -11.1656    6.9368 H   0  0  0  0  0  0  0  0  0  0  0  0
    1.2406   -8.6238    6.7801 H   0  0  0  0  0  0  0  0  0  0  0  0
    0.4307   -7.9121    5.4213 H   0  0  0  0  0  0  0  0  0  0  0  0
    2.0975   -7.4817    5.7764 H   0  0  0  0  0  0  0  0  0  0  0  0
    0.5481  -10.8892    5.8953 H   0  0  0  0  0  0  0  0  0  0  0  0
    1.0721  -11.4657    4.3241 H   0  0  0  0  0  0  0  0  0  0  0  0
   -0.1659  -10.2122    4.4517 H   0  0  0  0  0  0  0  0  0  0  0  0
  1  2  1  0
  1 42  1  0
  1 43  1  0
  1 44  1  0
  2 25  1  0
  2  3  2  0
  3 21  1  0
  3  4  1  0
  4  5  2  0
  4  6  1  0
  6  7  1  0
  6 45  1  0
  6 46  1  0
  7 19  1  0
  7  8  1  0
  7 47  1  1
  8  9  1  0
  8 21  1  0
  8 48  1  1
  9 10  1  0
  9 49  1  0
  9 50  1  0
 10 11  1  0
 10 12  1  0
 10 51  1  6
 11 52  1  0
 12 19  1  0
 12 13  1  6
 12 14  1  0
 13 53  1  0
 14 15  1  0
 15 16  2  0
 15 17  1  0
 17 18  2  0
 17 54  1  0
 18 19  1  0
 18 55  1  0
 19 20  1  6
 20 56  1  0
 20 57  1  0
 20 58  1  0
 21 22  1  0
 21 59  1  1
 22 23  1  0
 22 60  1  0
 22 61  1  0
 23 25  1  0
 23 24  1  0
 23 62  1  1
 25 24  1  6
 25 26  1  0
 26 27  1  0
 26 28  2  3
 27 63  1  0
 27 64  1  0
 27 65  1  0
 28 33  1  0
 28 29  1  0
 29 30  1  0
 29 31  1  0
 29 66  1  1
 30 67  1  0
 31 32  1  0
 31 68  1  0
 31 69  1  0
 32 39  1  0
 32 33  1  0
 32 70  1  6
 33 34  1  6
 33 35  1  0
 34 71  1  0
 34 72  1  0
 34 73  1  0
 35 36  1  0
 35 74  1  0
 35 75  1  0
 36 37  1  0
 36 76  1  0
 36 77  1  0
 37 38  1  0
 37 39  1  0
 37 78  1  6
 38 79  1  0
 39 40  1  0
 39 41  1  0
 40 80  1  0
 40 81  1  0
 40 82  1  0
 41 83  1  0
 41 84  1  0
 41 85  1  0
M  END
>  <i_m_ct_stereo_status>  (8) 
1

>  <s_m_source_file>  (8) 
/var/tmp/pbs.5076255.sched01/tmp_578sd5a/06fbc0iir.sdf

>  <i_m_source_file_index>  (8) 
5

>  <i_lp_mmshare_version>  (8) 
48012

>  <i_f3d_flags>  (8) 
0

>  <s_epik_input>  (8) 
TzFDKD1PKVtDSF09W0NIXVtDQF0oW0NIM10pKFtDQF0xMltPSF0pW0NASF0zW0NAQEhdKFtDSDJdW0NASF0yW09IXSlbQ0BASF00QyhDKD1PKVtDSDJdMyk9QyhbQ0gzXSlbQ0BdNShbQ0BIXShPNSlbQ0gyXTQpL0MoW0NIM10pPUM2XFtDQEBIXShbT0hdKVtDSDJdW0NAQEhdKFtDQEBdNjdbQ0gzXSlDKFtDSDNdKShbQ0gzXSlbQ0BIXShbT0hdKVtDSDJdW0NIMl03

>  <s_epik_cmdline>  (8) 
J2VwaWtfcHl0aG9uJywgJy1waHQnLCAnMi4wJywgJy1waCcsICc3LjAnLCAnLXRuJywgJzgnLCAnLW1hJywgJzIwMCcsICctaW1hZScsICc8aW5maWxlLm1hZT4nLCAnLW9tYWUnLCAnPG91dGZpbGUubWFlPic=

>  <r_lp_tautomer_probability>  (8) 
1

>  <r_epik_Ionization_Penalty>  (8) 
0.000141139

>  <r_epik_Ionization_Penalty_Charging>  (8) 
0

>  <r_epik_Ionization_Penalty_Neutral>  (8) 
0.000141139

>  <r_epik_State_Penalty>  (8) 
-0

>  <r_epik_Charging_Adjusted_Penalty>  (8) 
0

>  <i_epik_Tot_Q>  (8) 
0

>  <i_epik_Tot_abs_Q>  (8) 
0

>  <s_epik_Chemistry_Notes>  (8) 
This compound has an ester and may undergo hydrolysis at high or low pH.

>  <s_lp_Force_Field>  (8) 
OPLS3e

>  <r_lp_Energy>  (8) 
84.1569

>  <b_lp_Chiralities_Consistent>  (8) 
1

>  <s_lp_Variant>  (8) 
4:0-1

>  <s_i_glide_gridfile>  (8) 
pfpi4k_grid

>  <i_i_glide_lignum>  (8) 
5

>  <i_i_glide_rotatable_bonds>  (8) 
5

>  <r_i_docking_score>  (8) 
-3.03897

>  <r_i_glide_ligand_efficiency>  (8) 
-0.0741213

>  <r_i_glide_ligand_efficiency_sa>  (8) 
-0.255586

>  <r_i_glide_ligand_efficiency_ln>  (8) 
-0.644728

>  <r_i_glide_gscore>  (8) 
-3.03897

>  <r_i_glide_lipo>  (8) 
-0.0239842

>  <r_i_glide_hbond>  (8) 
-0.16

>  <r_i_glide_metal>  (8) 
-0

>  <r_i_glide_rewards>  (8) 
-0.0250577

>  <r_i_glide_evdw>  (8) 
-31.9755

>  <r_i_glide_ecoul>  (8) 
-8.41052

>  <r_i_glide_erotb>  (8) 
0.0644251

>  <r_i_glide_esite>  (8) 
-0.0340026

>  <r_i_glide_emodel>  (8) 
-49.2024

>  <r_i_glide_energy>  (8) 
-40.386

>  <r_i_glide_einternal>  (8) 
0.689449

>  <r_i_glide_intrahb_reward>  (8) 
-0

>  <i_i_glide_confnum>  (8) 
2

>  <i_i_glide_posenum>  (8) 
22

>  <r_i_glide_eff_state_penalty>  (8) 
0

>  <ligand_id>  (8) 
4

>  <original_smiles>  (8) 
CC1=C2C(=O)CC3C(CC(O)C4(O)OC(=O)C=CC34C)C2CC2OC12C(C)=C1C(O)CC2C1(C)CCC(O)C2(C)C

>  <smiles>  (8) 
[H]OC1([H])C(=C(C([H])([H])[H])C23OC2([H])C([H])([H])C2([H])C(=C3C([H])([H])[H])C(=O)C([H])([H])C3([H])C2([H])C([H])([H])C([H])(O[H])C2(O[H])OC(=O)C([H])=C([H])C23C([H])([H])[H])C2(C([H])([H])[H])C([H])([H])C([H])([H])C([H])(O[H])C(C([H])([H])[H])(C([H])([H])[H])C2([H])C1([H])[H]

$$$$
4:1:0
     RDKit          3D

 85 91  0  0  1  0  0  0  0  0999 V2000
    5.6713   -0.7841    2.8757 C   0  0  0  0  0  0  0  0  0  0  0  0
    4.1600   -0.7388    3.1082 C   0  0  0  0  0  0  0  0  0  0  0  0
    3.5484   -0.1623    4.1783 C   0  0  0  0  0  0  0  0  0  0  0  0
    4.2898    0.3471    5.3450 C   0  0  0  0  0  0  0  0  0  0  0  0
    5.0972   -0.3266    5.9853 O   0  0  0  0  0  0  0  0  0  0  0  0
    4.0078    1.7880    5.7711 C   0  0  0  0  0  0  0  0  0  0  0  0
    2.4931    2.1600    5.7533 C   0  0  2  0  0  0  0  0  0  0  0  0
    1.7671    1.6172    4.4958 C   0  0  1  0  0  0  0  0  0  0  0  0
    2.1611    2.4526    3.2612 C   0  0  0  0  0  0  0  0  0  0  0  0
    1.7566    3.9262    3.4190 C   0  0  1  0  0  0  0  0  0  0  0  0
    0.3540    3.9955    3.2980 O   0  0  0  0  0  0  0  0  0  0  0  0
    2.3792    4.5474    4.7274 C   0  0  1  0  0  0  0  0  0  0  0  0
    3.7621    4.6521    4.4775 O   0  0  0  0  0  0  0  0  0  0  0  0
    1.8614    5.8641    4.8831 O   0  0  0  0  0  0  0  0  0  0  0  0
    0.6520    6.0912    5.5174 C   0  0  0  0  0  0  0  0  0  0  0  0
    0.0898    7.1886    5.4978 O   0  0  0  0  0  0  0  0  0  0  0  0
    0.0704    4.9717    6.2722 C   0  0  0  0  0  0  0  0  0  0  0  0
    0.7658    3.8526    6.5127 C   0  0  0  0  0  0  0  0  0  0  0  0
    2.1862    3.6739    6.0343 C   0  0  1  0  0  0  0  0  0  0  0  0
    3.0787    4.2175    7.1810 C   0  0  0  0  0  0  0  0  0  0  0  0
    2.0428    0.0970    4.3151 C   0  0  1  0  0  0  0  0  0  0  0  0
    1.1224   -0.5801    3.2611 C   0  0  0  0  0  0  0  0  0  0  0  0
    1.8306   -1.0909    2.0229 C   0  0  1  0  0  0  0  0  0  0  0  0
    2.6711   -0.1847    1.3033 O   0  0  0  0  0  0  0  0  0  0  0  0
    3.3139   -1.2664    1.9978 C   0  0  1  0  0  0  0  0  0  0  0  0
    3.9380   -2.3455    1.1349 C   0  0  0  0  0  0  0  0  0  0  0  0
    4.1892   -1.8632   -0.2974 C   0  0  0  0  0  0  0  0  0  0  0  0
    4.2522   -3.6221    1.5149 C   0  0  0  0  0  0  0  0  0  0  0  0
    4.9142   -4.6445    0.5802 C   0  0  1  0  0  0  0  0  0  0  0  0
    6.2611   -4.3134    0.3135 O   0  0  0  0  0  0  0  0  0  0  0  0
    4.8476   -6.0085    1.2853 C   0  0  0  0  0  0  0  0  0  0  0  0
    3.8066   -5.8482    2.4068 C   0  0  1  0  0  0  0  0  0  0  0  0
    3.9848   -4.3599    2.8416 C   0  0  1  0  0  0  0  0  0  0  0  0
    5.2628   -4.2396    3.7107 C   0  0  0  0  0  0  0  0  0  0  0  0
    2.8234   -3.9122    3.7721 C   0  0  0  0  0  0  0  0  0  0  0  0
    1.4221   -4.3558    3.3567 C   0  0  0  0  0  0  0  0  0  0  0  0
    1.3822   -5.8704    3.1207 C   0  0  1  0  0  0  0  0  0  0  0  0
    0.0565   -6.2617    2.8158 O   0  0  0  0  0  0  0  0  0  0  0  0
    2.3555   -6.3107    2.0033 C   0  0  0  0  0  0  0  0  0  0  0  0
    1.8906   -5.7690    0.6248 C   0  0  0  0  0  0  0  0  0  0  0  0
    2.3209   -7.8581    1.9235 C   0  0  0  0  0  0  0  0  0  0  0  0
    5.9131   -0.3113    1.9230 H   0  0  0  0  0  0  0  0  0  0  0  0
    6.0629   -1.7959    2.8271 H   0  0  0  0  0  0  0  0  0  0  0  0
    6.2229   -0.2542    3.6484 H   0  0  0  0  0  0  0  0  0  0  0  0
    4.4233    1.9233    6.7683 H   0  0  0  0  0  0  0  0  0  0  0  0
    4.5845    2.4214    5.1009 H   0  0  0  0  0  0  0  0  0  0  0  0
    2.0791    1.6152    6.6026 H   0  0  0  0  0  0  0  0  0  0  0  0
    0.6954    1.7285    4.6574 H   0  0  0  0  0  0  0  0  0  0  0  0
    3.2335    2.3946    3.0907 H   0  0  0  0  0  0  0  0  0  0  0  0
    1.6898    2.0465    2.3656 H   0  0  0  0  0  0  0  0  0  0  0  0
    2.1342    4.4932    2.5663 H   0  0  0  0  0  0  0  0  0  0  0  0
    0.1882    4.1376    2.3474 H   0  0  0  0  0  0  0  0  0  0  0  0
    3.8622    4.9590    3.5822 H   0  0  0  0  0  0  0  0  0  0  0  0
   -0.9236    5.1165    6.6663 H   0  0  0  0  0  0  0  0  0  0  0  0
    0.3328    3.0670    7.1081 H   0  0  0  0  0  0  0  0  0  0  0  0
    4.1465    4.1878    6.9510 H   0  0  0  0  0  0  0  0  0  0  0  0
    2.9313    3.6335    8.0903 H   0  0  0  0  0  0  0  0  0  0  0  0
    2.8412    5.2552    7.4328 H   0  0  0  0  0  0  0  0  0  0  0  0
    1.7555   -0.3686    5.2585 H   0  0  0  0  0  0  0  0  0  0  0  0
    0.6565   -1.4519    3.7219 H   0  0  0  0  0  0  0  0  0  0  0  0
    0.2931    0.0708    2.9692 H   0  0  0  0  0  0  0  0  0  0  0  0
    1.2168   -1.6998    1.3602 H   0  0  0  0  0  0  0  0  0  0  0  0
    4.8095   -0.9641   -0.3079 H   0  0  0  0  0  0  0  0  0  0  0  0
    3.2475   -1.6209   -0.7988 H   0  0  0  0  0  0  0  0  0  0  0  0
    4.6915   -2.5931   -0.9367 H   0  0  0  0  0  0  0  0  0  0  0  0
    4.3713   -4.6978   -0.3605 H   0  0  0  0  0  0  0  0  0  0  0  0
    6.7447   -4.3230    1.1272 H   0  0  0  0  0  0  0  0  0  0  0  0
    4.6494   -6.8353    0.6053 H   0  0  0  0  0  0  0  0  0  0  0  0
    5.8061   -6.2388    1.7518 H   0  0  0  0  0  0  0  0  0  0  0  0
    4.0947   -6.4850    3.2468 H   0  0  0  0  0  0  0  0  0  0  0  0
    5.3085   -4.9896    4.5037 H   0  0  0  0  0  0  0  0  0  0  0  0
    5.3027   -3.2754    4.2198 H   0  0  0  0  0  0  0  0  0  0  0  0
    6.1690   -4.3379    3.1105 H   0  0  0  0  0  0  0  0  0  0  0  0
    2.9997   -4.3679    4.7459 H   0  0  0  0  0  0  0  0  0  0  0  0
    2.8356   -2.8481    3.9807 H   0  0  0  0  0  0  0  0  0  0  0  0
    0.7198   -4.0878    4.1472 H   0  0  0  0  0  0  0  0  0  0  0  0
    1.1085   -3.7925    2.4819 H   0  0  0  0  0  0  0  0  0  0  0  0
    1.6554   -6.3647    4.0522 H   0  0  0  0  0  0  0  0  0  0  0  0
    0.0045   -7.2061    2.8913 H   0  0  0  0  0  0  0  0  0  0  0  0
    0.8723   -6.0812    0.3915 H   0  0  0  0  0  0  0  0  0  0  0  0
    2.5071   -6.1345   -0.1949 H   0  0  0  0  0  0  0  0  0  0  0  0
    1.9140   -4.6814    0.5768 H   0  0  0  0  0  0  0  0  0  0  0  0
    1.3285   -8.2319    1.6614 H   0  0  0  0  0  0  0  0  0  0  0  0
    2.5950   -8.3106    2.8776 H   0  0  0  0  0  0  0  0  0  0  0  0
    3.0033   -8.2500    1.1693 H   0  0  0  0  0  0  0  0  0  0  0  0
  1  2  1  0
  1 42  1  0
  1 43  1  0
  1 44  1  0
  2 25  1  0
  2  3  2  0
  3 21  1  0
  3  4  1  0
  4  5  2  0
  4  6  1  0
  6  7  1  0
  6 45  1  0
  6 46  1  0
  7 19  1  0
  7  8  1  0
  7 47  1  1
  8  9  1  0
  8 21  1  0
  8 48  1  1
  9 10  1  0
  9 49  1  0
  9 50  1  0
 10 11  1  0
 10 12  1  0
 10 51  1  6
 11 52  1  0
 12 19  1  0
 12 13  1  6
 12 14  1  0
 13 53  1  0
 14 15  1  0
 15 16  2  0
 15 17  1  0
 17 18  2  0
 17 54  1  0
 18 19  1  0
 18 55  1  0
 19 20  1  1
 20 56  1  0
 20 57  1  0
 20 58  1  0
 21 22  1  0
 21 59  1  1
 22 23  1  0
 22 60  1  0
 22 61  1  0
 23 25  1  0
 23 24  1  0
 23 62  1  6
 25 24  1  6
 25 26  1  0
 26 27  1  0
 26 28  2  3
 27 63  1  0
 27 64  1  0
 27 65  1  0
 28 33  1  0
 28 29  1  0
 29 30  1  0
 29 31  1  0
 29 66  1  6
 30 67  1  0
 31 32  1  0
 31 68  1  0
 31 69  1  0
 32 39  1  0
 32 33  1  0
 32 70  1  1
 33 34  1  1
 33 35  1  0
 34 71  1  0
 34 72  1  0
 34 73  1  0
 35 36  1  0
 35 74  1  0
 35 75  1  0
 36 37  1  0
 36 76  1  0
 36 77  1  0
 37 38  1  0
 37 39  1  0
 37 78  1  1
 38 79  1  0
 39 40  1  0
 39 41  1  0
 40 80  1  0
 40 81  1  0
 40 82  1  0
 41 83  1  0
 41 84  1  0
 41 85  1  0
M  END
>  <i_m_ct_stereo_status>  (9) 
1

>  <s_m_source_file>  (9) 
/var/tmp/pbs.5076255.sched01/tmp_578sd5a/06fbc0iir.sdf

>  <i_m_source_file_index>  (9) 
6

>  <i_lp_mmshare_version>  (9) 
48012

>  <i_f3d_flags>  (9) 
0

>  <s_epik_input>  (9) 
TzFDKD1PKVtDSF09W0NIXVtDQF0oW0NIM10pKFtDQF0xMltPSF0pW0NASF0zW0NAQEhdKFtDSDJdW0NASF0yW09IXSlbQ0BASF00QyhDKD1PKVtDSDJdMyk9QyhbQ0gzXSlbQ0BdNShbQ0BIXShPNSlbQ0gyXTQpL0MoW0NIM10pPUM2XFtDQEBIXShbT0hdKVtDSDJdW0NAQEhdKFtDQEBdNjdbQ0gzXSlDKFtDSDNdKShbQ0gzXSlbQ0BIXShbT0hdKVtDSDJdW0NIMl03

>  <s_epik_cmdline>  (9) 
J2VwaWtfcHl0aG9uJywgJy1waHQnLCAnMi4wJywgJy1waCcsICc3LjAnLCAnLXRuJywgJzgnLCAnLW1hJywgJzIwMCcsICctaW1hZScsICc8aW5maWxlLm1hZT4nLCAnLW9tYWUnLCAnPG91dGZpbGUubWFlPic=

>  <r_lp_tautomer_probability>  (9) 
1

>  <r_epik_Ionization_Penalty>  (9) 
0.000141139

>  <r_epik_Ionization_Penalty_Charging>  (9) 
0

>  <r_epik_Ionization_Penalty_Neutral>  (9) 
0.000141139

>  <r_epik_State_Penalty>  (9) 
-0

>  <r_epik_Charging_Adjusted_Penalty>  (9) 
0

>  <i_epik_Tot_Q>  (9) 
0

>  <i_epik_Tot_abs_Q>  (9) 
0

>  <s_epik_Chemistry_Notes>  (9) 
This compound has an ester and may undergo hydrolysis at high or low pH.

>  <s_lp_Force_Field>  (9) 
OPLS3e

>  <r_lp_Energy>  (9) 
83.2199

>  <b_lp_Chiralities_Consistent>  (9) 
1

>  <s_lp_Variant>  (9) 
4:0-2

>  <s_i_glide_gridfile>  (9) 
pfpi4k_grid

>  <i_i_glide_lignum>  (9) 
6

>  <i_i_glide_rotatable_bonds>  (9) 
5

>  <r_i_docking_score>  (9) 
-3.71245

>  <r_i_glide_ligand_efficiency>  (9) 
-0.0905475

>  <r_i_glide_ligand_efficiency_sa>  (9) 
-0.312227

>  <r_i_glide_ligand_efficiency_ln>  (9) 
-0.787608

>  <r_i_glide_gscore>  (9) 
-3.71245

>  <r_i_glide_lipo>  (9) 
-0.275151

>  <r_i_glide_hbond>  (9) 
-0.212864

>  <r_i_glide_metal>  (9) 
-0

>  <r_i_glide_rewards>  (9) 
-0.0116026

>  <r_i_glide_evdw>  (9) 
-28.9421

>  <r_i_glide_ecoul>  (9) 
-11.9782

>  <r_i_glide_erotb>  (9) 
0.0644251

>  <r_i_glide_esite>  (9) 
-0.0334212

>  <r_i_glide_emodel>  (9) 
-49.7903

>  <r_i_glide_energy>  (9) 
-40.9203

>  <r_i_glide_einternal>  (9) 
1.71153

>  <r_i_glide_intrahb_reward>  (9) 
-0

>  <i_i_glide_confnum>  (9) 
1

>  <i_i_glide_posenum>  (9) 
39

>  <r_i_glide_eff_state_penalty>  (9) 
0

>  <ligand_id>  (9) 
4

>  <original_smiles>  (9) 
CC1=C2C(=O)CC3C(CC(O)C4(O)OC(=O)C=CC34C)C2CC2OC12C(C)=C1C(O)CC2C1(C)CCC(O)C2(C)C

>  <smiles>  (9) 
[H]OC1([H])C(=C(C([H])([H])[H])C23OC2([H])C([H])([H])C2([H])C(=C3C([H])([H])[H])C(=O)C([H])([H])C3([H])C2([H])C([H])([H])C([H])(O[H])C2(O[H])OC(=O)C([H])=C([H])C23C([H])([H])[H])C2(C([H])([H])[H])C([H])([H])C([H])([H])C([H])(O[H])C(C([H])([H])[H])(C([H])([H])[H])C2([H])C1([H])[H]

$$$$
4:1:1
     RDKit          3D

 85 91  0  0  1  0  0  0  0  0999 V2000
    5.8205   -1.4828    1.8979 C   0  0  0  0  0  0  0  0  0  0  0  0
    4.5717   -1.9241    2.6743 C   0  0  0  0  0  0  0  0  0  0  0  0
    4.0057   -1.2043    3.6774 C   0  0  0  0  0  0  0  0  0  0  0  0
    4.6416    0.0022    4.2386 C   0  0  0  0  0  0  0  0  0  0  0  0
    5.8067    0.0305    4.6342 O   0  0  0  0  0  0  0  0  0  0  0  0
    3.7780    1.2573    4.3029 C   0  0  0  0  0  0  0  0  0  0  0  0
    2.3340    0.9965    4.8109 C   0  0  2  0  0  0  0  0  0  0  0  0
    1.7021   -0.2607    4.1650 C   0  0  1  0  0  0  0  0  0  0  0  0
    1.3135    0.0210    2.6982 C   0  0  0  0  0  0  0  0  0  0  0  0
    0.2729    1.1425    2.5955 C   0  0  1  0  0  0  0  0  0  0  0  0
   -0.9449    0.6354    3.1059 O   0  0  0  0  0  0  0  0  0  0  0  0
    0.7943    2.4501    3.2938 C   0  0  1  0  0  0  0  0  0  0  0  0
    1.8062    2.9648    2.4583 O   0  0  0  0  0  0  0  0  0  0  0  0
   -0.2646    3.3754    3.2940 O   0  0  0  0  0  0  0  0  0  0  0  0
   -1.2082    3.4278    4.2819 C   0  0  0  0  0  0  0  0  0  0  0  0
   -2.1822    4.1444    4.1704 O   0  0  0  0  0  0  0  0  0  0  0  0
   -0.9622    2.6081    5.4921 C   0  0  0  0  0  0  0  0  0  0  0  0
    0.2255    2.0582    5.7111 C   0  0  0  0  0  0  0  0  0  0  0  0
    1.3893    2.2390    4.7538 C   0  0  1  0  0  0  0  0  0  0  0  0
    2.1243    3.5139    5.2365 C   0  0  0  0  0  0  0  0  0  0  0  0
    2.6408   -1.4824    4.3168 C   0  0  1  0  0  0  0  0  0  0  0  0
    1.9270   -2.7969    3.8989 C   0  0  0  0  0  0  0  0  0  0  0  0
    2.4399   -3.4693    2.6233 C   0  0  1  0  0  0  0  0  0  0  0  0
    2.6608   -2.6837    1.4508 O   0  0  0  0  0  0  0  0  0  0  0  0
    3.8477   -3.1397    2.1317 C   0  0  1  0  0  0  0  0  0  0  0  0
    4.6911   -4.2024    1.4296 C   0  0  0  0  0  0  0  0  0  0  0  0
    4.9246   -3.9194   -0.0679 C   0  0  0  0  0  0  0  0  0  0  0  0
    5.2094   -5.3591    2.0104 C   0  0  0  0  0  0  0  0  0  0  0  0
    6.1158   -6.3312    1.2551 C   0  0  1  0  0  0  0  0  0  0  0  0
    7.3956   -5.7811    0.9876 O   0  0  0  0  0  0  0  0  0  0  0  0
    6.2749   -7.5996    2.1148 C   0  0  0  0  0  0  0  0  0  0  0  0
    5.1614   -7.5281    3.1635 C   0  0  1  0  0  0  0  0  0  0  0  0
    5.0317   -5.9846    3.4125 C   0  0  1  0  0  0  0  0  0  0  0  0
    6.2109   -5.4655    4.2822 C   0  0  0  0  0  0  0  0  0  0  0  0
    3.7724   -5.7010    4.2648 C   0  0  0  0  0  0  0  0  0  0  0  0
    2.4856   -6.4641    3.8385 C   0  0  0  0  0  0  0  0  0  0  0  0
    2.7438   -7.9711    3.8214 C   0  0  1  0  0  0  0  0  0  0  0  0
    1.5038   -8.5932    3.5074 O   0  0  0  0  0  0  0  0  0  0  0  0
    3.8436   -8.3092    2.7679 C   0  0  0  0  0  0  0  0  0  0  0  0
    3.3632   -8.0083    1.3125 C   0  0  0  0  0  0  0  0  0  0  0  0
    4.0980   -9.8257    2.8715 C   0  0  0  0  0  0  0  0  0  0  0  0
    5.5597   -1.3248    0.8484 H   0  0  0  0  0  0  0  0  0  0  0  0
    6.6091   -2.2339    1.9813 H   0  0  0  0  0  0  0  0  0  0  0  0
    6.2249   -0.5304    2.2434 H   0  0  0  0  0  0  0  0  0  0  0  0
    4.2963    1.9519    4.9498 H   0  0  0  0  0  0  0  0  0  0  0  0
    3.7820    1.6830    3.3038 H   0  0  0  0  0  0  0  0  0  0  0  0
    2.4641    0.7571    5.8700 H   0  0  0  0  0  0  0  0  0  0  0  0
    0.7961   -0.5012    4.7196 H   0  0  0  0  0  0  0  0  0  0  0  0
    2.1962    0.2873    2.1187 H   0  0  0  0  0  0  0  0  0  0  0  0
    0.9193   -0.8843    2.2313 H   0  0  0  0  0  0  0  0  0  0  0  0
    0.1040    1.3587    1.5396 H   0  0  0  0  0  0  0  0  0  0  0  0
   -1.6459    1.1898    2.7887 H   0  0  0  0  0  0  0  0  0  0  0  0
    1.3408    3.4149    1.7457 H   0  0  0  0  0  0  0  0  0  0  0  0
   -1.7824    2.5396    6.1961 H   0  0  0  0  0  0  0  0  0  0  0  0
    0.3995    1.5131    6.6326 H   0  0  0  0  0  0  0  0  0  0  0  0
    2.9692    3.7806    4.6035 H   0  0  0  0  0  0  0  0  0  0  0  0
    2.5099    3.3735    6.2476 H   0  0  0  0  0  0  0  0  0  0  0  0
    1.4639    4.3806    5.2677 H   0  0  0  0  0  0  0  0  0  0  0  0
    2.8601   -1.5684    5.3891 H   0  0  0  0  0  0  0  0  0  0  0  0
    2.0692   -3.4707    4.7413 H   0  0  0  0  0  0  0  0  0  0  0  0
    0.8456   -2.6608    3.8582 H   0  0  0  0  0  0  0  0  0  0  0  0
    1.9403   -4.4052    2.4009 H   0  0  0  0  0  0  0  0  0  0  0  0
    5.4011   -2.9589   -0.2457 H   0  0  0  0  0  0  0  0  0  0  0  0
    3.9704   -3.9383   -0.6033 H   0  0  0  0  0  0  0  0  0  0  0  0
    5.5653   -4.6588   -0.5506 H   0  0  0  0  0  0  0  0  0  0  0  0
    5.6496   -6.6020    0.3135 H   0  0  0  0  0  0  0  0  0  0  0  0
    7.9103   -5.8097    1.7789 H   0  0  0  0  0  0  0  0  0  0  0  0
    6.2722   -8.5192    1.5333 H   0  0  0  0  0  0  0  0  0  0  0  0
    7.2236   -7.5818    2.6489 H   0  0  0  0  0  0  0  0  0  0  0  0
    5.5001   -7.9819    4.0957 H   0  0  0  0  0  0  0  0  0  0  0  0
    6.3252   -6.0601    5.1908 H   0  0  0  0  0  0  0  0  0  0  0  0
    6.0393   -4.4272    4.5798 H   0  0  0  0  0  0  0  0  0  0  0  0
    7.1655   -5.4854    3.7539 H   0  0  0  0  0  0  0  0  0  0  0  0
    3.9803   -6.0499    5.2816 H   0  0  0  0  0  0  0  0  0  0  0  0
    3.6776   -4.6281    4.3594 H   0  0  0  0  0  0  0  0  0  0  0  0
    1.6816   -6.2387    4.5455 H   0  0  0  0  0  0  0  0  0  0  0  0
    2.0994   -6.2230    2.8520 H   0  0  0  0  0  0  0  0  0  0  0  0
    3.0468   -8.3083    4.8267 H   0  0  0  0  0  0  0  0  0  0  0  0
    1.5963   -9.5318    3.5829 H   0  0  0  0  0  0  0  0  0  0  0  0
    2.4258   -8.5193    1.0880 H   0  0  0  0  0  0  0  0  0  0  0  0
    4.0745   -8.3514    0.5630 H   0  0  0  0  0  0  0  0  0  0  0  0
    3.1884   -6.9507    1.1126 H   0  0  0  0  0  0  0  0  0  0  0  0
    3.2031  -10.3974    2.6228 H   0  0  0  0  0  0  0  0  0  0  0  0
    4.3857  -10.0928    3.8877 H   0  0  0  0  0  0  0  0  0  0  0  0
    4.8808  -10.1569    2.1946 H   0  0  0  0  0  0  0  0  0  0  0  0
  1  2  1  0
  1 42  1  0
  1 43  1  0
  1 44  1  0
  2 25  1  0
  2  3  2  0
  3 21  1  0
  3  4  1  0
  4  5  2  0
  4  6  1  0
  6  7  1  0
  6 45  1  0
  6 46  1  0
  7 19  1  0
  7  8  1  0
  7 47  1  1
  8  9  1  0
  8 21  1  0
  8 48  1  1
  9 10  1  0
  9 49  1  0
  9 50  1  0
 10 11  1  0
 10 12  1  0
 10 51  1  6
 11 52  1  0
 12 19  1  0
 12 13  1  6
 12 14  1  0
 13 53  1  0
 14 15  1  0
 15 16  2  0
 15 17  1  0
 17 18  2  0
 17 54  1  0
 18 19  1  0
 18 55  1  0
 19 20  1  1
 20 56  1  0
 20 57  1  0
 20 58  1  0
 21 22  1  0
 21 59  1  1
 22 23  1  0
 22 60  1  0
 22 61  1  0
 23 25  1  0
 23 24  1  0
 23 62  1  6
 25 24  1  6
 25 26  1  0
 26 27  1  0
 26 28  2  3
 27 63  1  0
 27 64  1  0
 27 65  1  0
 28 33  1  0
 28 29  1  0
 29 30  1  0
 29 31  1  0
 29 66  1  6
 30 67  1  0
 31 32  1  0
 31 68  1  0
 31 69  1  0
 32 39  1  0
 32 33  1  0
 32 70  1  1
 33 34  1  1
 33 35  1  0
 34 71  1  0
 34 72  1  0
 34 73  1  0
 35 36  1  0
 35 74  1  0
 35 75  1  0
 36 37  1  0
 36 76  1  0
 36 77  1  0
 37 38  1  0
 37 39  1  0
 37 78  1  1
 38 79  1  0
 39 40  1  0
 39 41  1  0
 40 80  1  0
 40 81  1  0
 40 82  1  0
 41 83  1  0
 41 84  1  0
 41 85  1  0
M  END
>  <i_m_ct_stereo_status>  (10) 
1

>  <s_m_source_file>  (10) 
/var/tmp/pbs.5076255.sched01/tmp_578sd5a/06fbc0iir.sdf

>  <i_m_source_file_index>  (10) 
6

>  <i_lp_mmshare_version>  (10) 
48012

>  <i_f3d_flags>  (10) 
0

>  <s_epik_input>  (10) 
TzFDKD1PKVtDSF09W0NIXVtDQF0oW0NIM10pKFtDQF0xMltPSF0pW0NASF0zW0NAQEhdKFtDSDJdW0NASF0yW09IXSlbQ0BASF00QyhDKD1PKVtDSDJdMyk9QyhbQ0gzXSlbQ0BdNShbQ0BIXShPNSlbQ0gyXTQpL0MoW0NIM10pPUM2XFtDQEBIXShbT0hdKVtDSDJdW0NAQEhdKFtDQEBdNjdbQ0gzXSlDKFtDSDNdKShbQ0gzXSlbQ0BIXShbT0hdKVtDSDJdW0NIMl03

>  <s_epik_cmdline>  (10) 
J2VwaWtfcHl0aG9uJywgJy1waHQnLCAnMi4wJywgJy1waCcsICc3LjAnLCAnLXRuJywgJzgnLCAnLW1hJywgJzIwMCcsICctaW1hZScsICc8aW5maWxlLm1hZT4nLCAnLW9tYWUnLCAnPG91dGZpbGUubWFlPic=

>  <r_lp_tautomer_probability>  (10) 
1

>  <r_epik_Ionization_Penalty>  (10) 
0.000141139

>  <r_epik_Ionization_Penalty_Charging>  (10) 
0

>  <r_epik_Ionization_Penalty_Neutral>  (10) 
0.000141139

>  <r_epik_State_Penalty>  (10) 
-0

>  <r_epik_Charging_Adjusted_Penalty>  (10) 
0

>  <i_epik_Tot_Q>  (10) 
0

>  <i_epik_Tot_abs_Q>  (10) 
0

>  <s_epik_Chemistry_Notes>  (10) 
This compound has an ester and may undergo hydrolysis at high or low pH.

>  <s_lp_Force_Field>  (10) 
OPLS3e

>  <r_lp_Energy>  (10) 
83.2199

>  <b_lp_Chiralities_Consistent>  (10) 
1

>  <s_lp_Variant>  (10) 
4:0-2

>  <s_i_glide_gridfile>  (10) 
pfpi4k_grid

>  <i_i_glide_lignum>  (10) 
6

>  <i_i_glide_rotatable_bonds>  (10) 
5

>  <r_i_docking_score>  (10) 
-3.10714

>  <r_i_glide_ligand_efficiency>  (10) 
-0.075784

>  <r_i_glide_ligand_efficiency_sa>  (10) 
-0.26132

>  <r_i_glide_ligand_efficiency_ln>  (10) 
-0.659191

>  <r_i_glide_gscore>  (10) 
-3.10714

>  <r_i_glide_lipo>  (10) 
-0.427159

>  <r_i_glide_hbond>  (10) 
-0.0684423

>  <r_i_glide_metal>  (10) 
-0

>  <r_i_glide_rewards>  (10) 
-0.0699928

>  <r_i_glide_evdw>  (10) 
-33.4554

>  <r_i_glide_ecoul>  (10) 
-5.56786

>  <r_i_glide_erotb>  (10) 
0.0644251

>  <r_i_glide_esite>  (10) 
-0.0980249

>  <r_i_glide_emodel>  (10) 
-42.8468

>  <r_i_glide_energy>  (10) 
-39.0233

>  <r_i_glide_einternal>  (10) 
3.02336

>  <r_i_glide_intrahb_reward>  (10) 
-0

>  <i_i_glide_confnum>  (10) 
1

>  <i_i_glide_posenum>  (10) 
38

>  <r_i_glide_eff_state_penalty>  (10) 
0

>  <ligand_id>  (10) 
4

>  <original_smiles>  (10) 
CC1=C2C(=O)CC3C(CC(O)C4(O)OC(=O)C=CC34C)C2CC2OC12C(C)=C1C(O)CC2C1(C)CCC(O)C2(C)C

>  <smiles>  (10) 
[H]OC1([H])C(=C(C([H])([H])[H])C23OC2([H])C([H])([H])C2([H])C(=C3C([H])([H])[H])C(=O)C([H])([H])C3([H])C2([H])C([H])([H])C([H])(O[H])C2(O[H])OC(=O)C([H])=C([H])C23C([H])([H])[H])C2(C([H])([H])[H])C([H])([H])C([H])([H])C([H])(O[H])C(C([H])([H])[H])(C([H])([H])[H])C2([H])C1([H])[H]

$$$$
4:1:2
     RDKit          3D

 85 91  0  0  1  0  0  0  0  0999 V2000
    5.8041   -1.5338    1.8572 C   0  0  0  0  0  0  0  0  0  0  0  0
    4.5364   -1.9727    2.6361 C   0  0  0  0  0  0  0  0  0  0  0  0
    3.9840   -1.2433    3.6345 C   0  0  0  0  0  0  0  0  0  0  0  0
    4.6319   -0.0512    4.2069 C   0  0  0  0  0  0  0  0  0  0  0  0
    5.7998   -0.0210    4.6119 O   0  0  0  0  0  0  0  0  0  0  0  0
    3.7754    1.2170    4.2801 C   0  0  0  0  0  0  0  0  0  0  0  0
    2.3350    0.9567    4.7940 C   0  0  2  0  0  0  0  0  0  0  0  0
    1.6911   -0.2948    4.1370 C   0  0  1  0  0  0  0  0  0  0  0  0
    1.3004    0.0187    2.6749 C   0  0  0  0  0  0  0  0  0  0  0  0
    0.2770    1.1517    2.5861 C   0  0  1  0  0  0  0  0  0  0  0  0
   -0.9605    0.6383    3.0984 O   0  0  0  0  0  0  0  0  0  0  0  0
    0.8084    2.4463    3.2994 C   0  0  1  0  0  0  0  0  0  0  0  0
    1.8124    2.9599    2.4660 O   0  0  0  0  0  0  0  0  0  0  0  0
   -0.2297    3.3954    3.3093 O   0  0  0  0  0  0  0  0  0  0  0  0
   -1.1961    3.4302    4.3115 C   0  0  0  0  0  0  0  0  0  0  0  0
   -2.1798    4.1354    4.1892 O   0  0  0  0  0  0  0  0  0  0  0  0
   -0.9544    2.5955    5.4949 C   0  0  0  0  0  0  0  0  0  0  0  0
    0.2353    2.0319    5.7100 C   0  0  0  0  0  0  0  0  0  0  0  0
    1.4110    2.2164    4.7457 C   0  0  1  0  0  0  0  0  0  0  0  0
    2.1501    3.4779    5.2394 C   0  0  0  0  0  0  0  0  0  0  0  0
    2.6196   -1.5154    4.2771 C   0  0  1  0  0  0  0  0  0  0  0  0
    1.8921   -2.8151    3.8592 C   0  0  0  0  0  0  0  0  0  0  0  0
    2.3924   -3.5117    2.5900 C   0  0  1  0  0  0  0  0  0  0  0  0
    2.6333   -2.7231    1.4099 O   0  0  0  0  0  0  0  0  0  0  0  0
    3.8078   -3.1735    2.0836 C   0  0  1  0  0  0  0  0  0  0  0  0
    4.6421   -4.2299    1.3869 C   0  0  0  0  0  0  0  0  0  0  0  0
    4.8461   -3.9509   -0.1103 C   0  0  0  0  0  0  0  0  0  0  0  0
    5.1712   -5.3767    1.9517 C   0  0  0  0  0  0  0  0  0  0  0  0
    6.0693   -6.3541    1.1840 C   0  0  1  0  0  0  0  0  0  0  0  0
    7.3382   -5.8025    0.8948 O   0  0  0  0  0  0  0  0  0  0  0  0
    6.2350   -7.6150    2.0524 C   0  0  0  0  0  0  0  0  0  0  0  0
    5.1433   -7.5361    3.1227 C   0  0  1  0  0  0  0  0  0  0  0  0
    5.0289   -5.9987    3.3572 C   0  0  1  0  0  0  0  0  0  0  0  0
    6.2165   -5.4779    4.2070 C   0  0  0  0  0  0  0  0  0  0  0  0
    3.7761   -5.7117    4.2307 C   0  0  0  0  0  0  0  0  0  0  0  0
    2.4844   -6.4693    3.8227 C   0  0  0  0  0  0  0  0  0  0  0  0
    2.7344   -7.9824    3.8137 C   0  0  1  0  0  0  0  0  0  0  0  0
    1.4958   -8.6362    3.5449 O   0  0  0  0  0  0  0  0  0  0  0  0
    3.8266   -8.3304    2.7562 C   0  0  0  0  0  0  0  0  0  0  0  0
    3.3213   -8.0417    1.3090 C   0  0  0  0  0  0  0  0  0  0  0  0
    4.0892   -9.8451    2.8621 C   0  0  0  0  0  0  0  0  0  0  0  0
    5.5414   -1.4064    0.7948 H   0  0  0  0  0  0  0  0  0  0  0  0
    6.5827   -2.2867    1.9370 H   0  0  0  0  0  0  0  0  0  0  0  0
    6.2150   -0.5921    2.2072 H   0  0  0  0  0  0  0  0  0  0  0  0
    4.3011    1.9058    4.9370 H   0  0  0  0  0  0  0  0  0  0  0  0
    3.7787    1.6554    3.2813 H   0  0  0  0  0  0  0  0  0  0  0  0
    2.4646    0.7148    5.8483 H   0  0  0  0  0  0  0  0  0  0  0  0
    0.7825   -0.5198    4.6936 H   0  0  0  0  0  0  0  0  0  0  0  0
    2.1854    0.2788    2.0967 H   0  0  0  0  0  0  0  0  0  0  0  0
    0.8995   -0.8819    2.2023 H   0  0  0  0  0  0  0  0  0  0  0  0
    0.1046    1.3711    1.5332 H   0  0  0  0  0  0  0  0  0  0  0  0
   -1.6502    1.2080    2.7885 H   0  0  0  0  0  0  0  0  0  0  0  0
    1.3669    3.3993    1.7506 H   0  0  0  0  0  0  0  0  0  0  0  0
   -1.7651    2.5256    6.1927 H   0  0  0  0  0  0  0  0  0  0  0  0
    0.4196    1.4737    6.6281 H   0  0  0  0  0  0  0  0  0  0  0  0
    2.9938    3.7427    4.5952 H   0  0  0  0  0  0  0  0  0  0  0  0
    2.5343    3.3312    6.2405 H   0  0  0  0  0  0  0  0  0  0  0  0
    1.4919    4.3503    5.2656 H   0  0  0  0  0  0  0  0  0  0  0  0
    2.8357   -1.6123    5.3321 H   0  0  0  0  0  0  0  0  0  0  0  0
    2.0362   -3.5152    4.6687 H   0  0  0  0  0  0  0  0  0  0  0  0
    0.8022   -2.6698    3.8045 H   0  0  0  0  0  0  0  0  0  0  0  0
    1.8987   -4.4425    2.3484 H   0  0  0  0  0  0  0  0  0  0  0  0
    5.3131   -2.9607   -0.2924 H   0  0  0  0  0  0  0  0  0  0  0  0
    3.8862   -3.9841   -0.6369 H   0  0  0  0  0  0  0  0  0  0  0  0
    5.4745   -4.6869   -0.6164 H   0  0  0  0  0  0  0  0  0  0  0  0
    5.5724   -6.6163    0.2547 H   0  0  0  0  0  0  0  0  0  0  0  0
    7.8434   -5.7705    1.6938 H   0  0  0  0  0  0  0  0  0  0  0  0
    6.2370   -8.5450    1.4673 H   0  0  0  0  0  0  0  0  0  0  0  0
    7.2051   -7.5943    2.5601 H   0  0  0  0  0  0  0  0  0  0  0  0
    5.5164   -7.9995    4.0448 H   0  0  0  0  0  0  0  0  0  0  0  0
    6.3485   -6.0604    5.1221 H   0  0  0  0  0  0  0  0  0  0  0  0
    6.0479   -4.4381    4.4934 H   0  0  0  0  0  0  0  0  0  0  0  0
    7.1622   -5.4978    3.6615 H   0  0  0  0  0  0  0  0  0  0  0  0
    4.0074   -6.0609    5.2464 H   0  0  0  0  0  0  0  0  0  0  0  0
    3.6473   -4.6202    4.3203 H   0  0  0  0  0  0  0  0  0  0  0  0
    1.6997   -6.2541    4.5489 H   0  0  0  0  0  0  0  0  0  0  0  0
    2.1118   -6.1651    2.8621 H   0  0  0  0  0  0  0  0  0  0  0  0
    3.0573   -8.3149    4.8127 H   0  0  0  0  0  0  0  0  0  0  0  0
    1.3090   -8.5565    2.6173 H   0  0  0  0  0  0  0  0  0  0  0  0
    2.3905   -8.5624    1.0936 H   0  0  0  0  0  0  0  0  0  0  0  0
    4.0311   -8.3905    0.5532 H   0  0  0  0  0  0  0  0  0  0  0  0
    3.1480   -6.9869    1.1025 H   0  0  0  0  0  0  0  0  0  0  0  0
    3.1874  -10.4183    2.6343 H   0  0  0  0  0  0  0  0  0  0  0  0
    4.3966  -10.1066    3.8732 H   0  0  0  0  0  0  0  0  0  0  0  0
    4.8613  -10.1772    2.1677 H   0  0  0  0  0  0  0  0  0  0  0  0
  1  2  1  0
  1 42  1  0
  1 43  1  0
  1 44  1  0
  2 25  1  0
  2  3  2  0
  3 21  1  0
  3  4  1  0
  4  5  2  0
  4  6  1  0
  6  7  1  0
  6 45  1  0
  6 46  1  0
  7 19  1  0
  7  8  1  0
  7 47  1  1
  8  9  1  0
  8 21  1  0
  8 48  1  1
  9 10  1  0
  9 49  1  0
  9 50  1  0
 10 11  1  0
 10 12  1  0
 10 51  1  6
 11 52  1  0
 12 19  1  0
 12 13  1  6
 12 14  1  0
 13 53  1  0
 14 15  1  0
 15 16  2  0
 15 17  1  0
 17 18  2  0
 17 54  1  0
 18 19  1  0
 18 55  1  0
 19 20  1  1
 20 56  1  0
 20 57  1  0
 20 58  1  0
 21 22  1  0
 21 59  1  1
 22 23  1  0
 22 60  1  0
 22 61  1  0
 23 25  1  0
 23 24  1  0
 23 62  1  6
 25 24  1  6
 25 26  1  0
 26 27  1  0
 26 28  2  3
 27 63  1  0
 27 64  1  0
 27 65  1  0
 28 33  1  0
 28 29  1  0
 29 30  1  0
 29 31  1  0
 29 66  1  6
 30 67  1  0
 31 32  1  0
 31 68  1  0
 31 69  1  0
 32 39  1  0
 32 33  1  0
 32 70  1  1
 33 34  1  1
 33 35  1  0
 34 71  1  0
 34 72  1  0
 34 73  1  0
 35 36  1  0
 35 74  1  0
 35 75  1  0
 36 37  1  0
 36 76  1  0
 36 77  1  0
 37 38  1  0
 37 39  1  0
 37 78  1  1
 38 79  1  0
 39 40  1  0
 39 41  1  0
 40 80  1  0
 40 81  1  0
 40 82  1  0
 41 83  1  0
 41 84  1  0
 41 85  1  0
M  END
>  <i_m_ct_stereo_status>  (11) 
1

>  <s_m_source_file>  (11) 
/var/tmp/pbs.5076255.sched01/tmp_578sd5a/06fbc0iir.sdf

>  <i_m_source_file_index>  (11) 
6

>  <i_lp_mmshare_version>  (11) 
48012

>  <i_f3d_flags>  (11) 
0

>  <s_epik_input>  (11) 
TzFDKD1PKVtDSF09W0NIXVtDQF0oW0NIM10pKFtDQF0xMltPSF0pW0NASF0zW0NAQEhdKFtDSDJdW0NASF0yW09IXSlbQ0BASF00QyhDKD1PKVtDSDJdMyk9QyhbQ0gzXSlbQ0BdNShbQ0BIXShPNSlbQ0gyXTQpL0MoW0NIM10pPUM2XFtDQEBIXShbT0hdKVtDSDJdW0NAQEhdKFtDQEBdNjdbQ0gzXSlDKFtDSDNdKShbQ0gzXSlbQ0BIXShbT0hdKVtDSDJdW0NIMl03

>  <s_epik_cmdline>  (11) 
J2VwaWtfcHl0aG9uJywgJy1waHQnLCAnMi4wJywgJy1waCcsICc3LjAnLCAnLXRuJywgJzgnLCAnLW1hJywgJzIwMCcsICctaW1hZScsICc8aW5maWxlLm1hZT4nLCAnLW9tYWUnLCAnPG91dGZpbGUubWFlPic=

>  <r_lp_tautomer_probability>  (11) 
1

>  <r_epik_Ionization_Penalty>  (11) 
0.000141139

>  <r_epik_Ionization_Penalty_Charging>  (11) 
0

>  <r_epik_Ionization_Penalty_Neutral>  (11) 
0.000141139

>  <r_epik_State_Penalty>  (11) 
-0

>  <r_epik_Charging_Adjusted_Penalty>  (11) 
0

>  <i_epik_Tot_Q>  (11) 
0

>  <i_epik_Tot_abs_Q>  (11) 
0

>  <s_epik_Chemistry_Notes>  (11) 
This compound has an ester and may undergo hydrolysis at high or low pH.

>  <s_lp_Force_Field>  (11) 
OPLS3e

>  <r_lp_Energy>  (11) 
83.2199

>  <b_lp_Chiralities_Consistent>  (11) 
1

>  <s_lp_Variant>  (11) 
4:0-2

>  <s_i_glide_gridfile>  (11) 
pfpi4k_grid

>  <i_i_glide_lignum>  (11) 
6

>  <i_i_glide_rotatable_bonds>  (11) 
5

>  <r_i_docking_score>  (11) 
-3.01045

>  <r_i_glide_ligand_efficiency>  (11) 
-0.0734256

>  <r_i_glide_ligand_efficiency_sa>  (11) 
-0.253187

>  <r_i_glide_ligand_efficiency_ln>  (11) 
-0.638677

>  <r_i_glide_gscore>  (11) 
-3.01045

>  <r_i_glide_lipo>  (11) 
-0.416535

>  <r_i_glide_hbond>  (11) 
-0.0642505

>  <r_i_glide_metal>  (11) 
-0

>  <r_i_glide_rewards>  (11) 
-0.0694599

>  <r_i_glide_evdw>  (11) 
-33.4384

>  <r_i_glide_ecoul>  (11) 
-5.04558

>  <r_i_glide_erotb>  (11) 
0.0644251

>  <r_i_glide_esite>  (11) 
-0.0958749

>  <r_i_glide_emodel>  (11) 
-42.1817

>  <r_i_glide_energy>  (11) 
-38.484

>  <r_i_glide_einternal>  (11) 
2.69572

>  <r_i_glide_intrahb_reward>  (11) 
-0

>  <i_i_glide_confnum>  (11) 
1

>  <i_i_glide_posenum>  (11) 
15

>  <r_i_glide_eff_state_penalty>  (11) 
0

>  <ligand_id>  (11) 
4

>  <original_smiles>  (11) 
CC1=C2C(=O)CC3C(CC(O)C4(O)OC(=O)C=CC34C)C2CC2OC12C(C)=C1C(O)CC2C1(C)CCC(O)C2(C)C

>  <smiles>  (11) 
[H]OC1([H])C(=C(C([H])([H])[H])C23OC2([H])C([H])([H])C2([H])C(=C3C([H])([H])[H])C(=O)C([H])([H])C3([H])C2([H])C([H])([H])C([H])(O[H])C2(O[H])OC(=O)C([H])=C([H])C23C([H])([H])[H])C2(C([H])([H])[H])C([H])([H])C([H])([H])C([H])(O[H])C(C([H])([H])[H])(C([H])([H])[H])C2([H])C1([H])[H]

$$$$
6:0:0
     RDKit          3D

 79 83  0  0  1  0  0  0  0  0999 V2000
    0.4339  -10.4364    4.0634 C   0  0  0  0  0  0  0  0  0  0  0  0
   -0.3306   -9.0980    3.7901 C   0  0  0  0  0  0  0  0  0  0  0  0
   -1.4696   -9.4239    2.8035 C   0  0  0  0  0  0  0  0  0  0  0  0
   -0.8769   -8.4208    5.0795 C   0  0  0  0  0  0  0  0  0  0  0  0
    0.2411   -8.0505    6.0374 C   0  0  0  0  0  0  0  0  0  0  0  0
    1.2890   -7.1221    5.4111 C   0  0  2  0  0  0  0  0  0  0  0  0
    2.4604   -7.1314    6.4136 C   0  0  0  0  0  0  0  0  0  0  0  0
    0.7096   -5.7009    5.2558 C   0  0  0  0  0  0  0  0  0  0  0  0
    1.7659   -4.7177    4.7407 C   0  0  0  0  0  0  0  0  0  0  0  0
    2.6353   -5.2646    3.5962 C   0  0  0  0  0  0  0  0  0  0  0  0
    2.6028   -6.5741    3.2778 C   0  0  0  0  0  0  0  0  0  0  0  0
    3.4459   -7.1578    2.1673 C   0  0  0  0  0  0  0  0  0  0  0  0
    3.8283   -6.0972    1.1537 C   0  0  0  0  0  0  0  0  0  0  0  0
    4.5437   -4.9042    1.8544 C   0  0  2  0  0  0  0  0  0  0  0  0
    3.5528   -4.2264    2.8760 C   0  0  2  0  0  0  0  0  0  0  0  0
    4.3724   -3.4277    3.9286 C   0  0  0  0  0  0  0  0  0  0  0  0
    2.6182   -3.2993    2.0660 C   0  0  0  0  0  0  0  0  0  0  0  0
    3.3133   -2.3677    1.0646 C   0  0  0  0  0  0  0  0  0  0  0  0
    4.2448   -3.0746    0.0383 C   0  0  1  0  0  0  0  0  0  0  0  0
    4.8835   -2.0787   -0.9976 C   0  0  1  0  0  0  0  0  0  0  0  0
    5.4716   -2.8161   -2.2324 C   0  0  0  0  0  0  0  0  0  0  0  0
    3.7958   -1.1303   -1.5706 C   0  0  0  0  0  0  0  0  0  0  0  0
    4.2317   -0.2790   -2.6275 O   0  0  0  0  0  0  0  0  0  0  0  0
    6.0019   -1.2624   -0.2885 C   0  0  1  0  0  0  0  0  0  0  0  0
    5.5515   -0.2225    0.5490 O   0  0  0  0  0  0  0  0  0  0  0  0
    7.0298   -2.0536    0.5143 C   0  0  0  0  0  0  0  0  0  0  0  0
    6.3391   -3.0258    1.4821 C   0  0  0  0  0  0  0  0  0  0  0  0
    5.2775   -3.9506    0.8265 C   0  0  1  0  0  0  0  0  0  0  0  0
    6.0897   -4.8882   -0.0888 C   0  0  0  0  0  0  0  0  0  0  0  0
    1.7649   -7.6226    4.0148 C   0  0  2  0  0  0  0  0  0  0  0  0
    0.5959   -8.0851    3.1085 C   0  0  0  0  0  0  0  0  0  0  0  0
   -0.1839  -11.2197    4.4914 H   0  0  0  0  0  0  0  0  0  0  0  0
    1.2658  -10.3035    4.7683 H   0  0  0  0  0  0  0  0  0  0  0  0
    0.8598  -10.8561    3.1334 H   0  0  0  0  0  0  0  0  0  0  0  0
   -2.0765   -8.5589    2.5532 H   0  0  0  0  0  0  0  0  0  0  0  0
   -2.1255  -10.1502    3.2708 H   0  0  0  0  0  0  0  0  0  0  0  0
   -1.0950   -9.8631    1.8716 H   0  0  0  0  0  0  0  0  0  0  0  0
   -1.4684   -7.5534    4.8013 H   0  0  0  0  0  0  0  0  0  0  0  0
   -1.5721   -9.0448    5.6708 H   0  0  0  0  0  0  0  0  0  0  0  0
   -0.1565   -7.5586    6.9182 H   0  0  0  0  0  0  0  0  0  0  0  0
    0.7072   -8.9643    6.4115 H   0  0  0  0  0  0  0  0  0  0  0  0
    3.3260   -6.5822    6.0389 H   0  0  0  0  0  0  0  0  0  0  0  0
    2.7859   -8.1565    6.6089 H   0  0  0  0  0  0  0  0  0  0  0  0
    2.1509   -6.6944    7.3676 H   0  0  0  0  0  0  0  0  0  0  0  0
   -0.1154   -5.7144    4.5462 H   0  0  0  0  0  0  0  0  0  0  0  0
    0.2766   -5.3505    6.1943 H   0  0  0  0  0  0  0  0  0  0  0  0
    1.2674   -3.7990    4.4472 H   0  0  0  0  0  0  0  0  0  0  0  0
    2.3992   -4.5073    5.5988 H   0  0  0  0  0  0  0  0  0  0  0  0
    4.3283   -7.5960    2.6341 H   0  0  0  0  0  0  0  0  0  0  0  0
    2.9177   -7.9502    1.6473 H   0  0  0  0  0  0  0  0  0  0  0  0
    4.4208   -6.6146    0.4018 H   0  0  0  0  0  0  0  0  0  0  0  0
    2.9277   -5.7560    0.6389 H   0  0  0  0  0  0  0  0  0  0  0  0
    5.3445   -5.3640    2.4401 H   0  0  0  0  0  0  0  0  0  0  0  0
    4.4100   -2.3680    3.6940 H   0  0  0  0  0  0  0  0  0  0  0  0
    5.3949   -3.7905    4.0146 H   0  0  0  0  0  0  0  0  0  0  0  0
    3.9870   -3.4535    4.9366 H   0  0  0  0  0  0  0  0  0  0  0  0
    1.9050   -3.9151    1.5164 H   0  0  0  0  0  0  0  0  0  0  0  0
    2.0252   -2.6784    2.7437 H   0  0  0  0  0  0  0  0  0  0  0  0
    2.5098   -1.8481    0.5526 H   0  0  0  0  0  0  0  0  0  0  0  0
    3.8419   -1.6056    1.6314 H   0  0  0  0  0  0  0  0  0  0  0  0
    3.5973   -3.7268   -0.5417 H   0  0  0  0  0  0  0  0  0  0  0  0
    5.5625   -2.1905   -3.1122 H   0  0  0  0  0  0  0  0  0  0  0  0
    4.8388   -3.6499   -2.5186 H   0  0  0  0  0  0  0  0  0  0  0  0
    6.4884   -3.1527   -2.0597 H   0  0  0  0  0  0  0  0  0  0  0  0
    2.9254   -1.6869   -1.9080 H   0  0  0  0  0  0  0  0  0  0  0  0
    3.4692   -0.4977   -0.7532 H   0  0  0  0  0  0  0  0  0  0  0  0
    3.5151    0.2944   -2.8810 H   0  0  0  0  0  0  0  0  0  0  0  0
    6.5688   -0.7981   -1.0842 H   0  0  0  0  0  0  0  0  0  0  0  0
    5.3951    0.5676    0.0298 H   0  0  0  0  0  0  0  0  0  0  0  0
    7.7044   -2.5368   -0.1859 H   0  0  0  0  0  0  0  0  0  0  0  0
    7.6626   -1.3471    1.0493 H   0  0  0  0  0  0  0  0  0  0  0  0
    7.0796   -3.6355    1.9847 H   0  0  0  0  0  0  0  0  0  0  0  0
    5.8932   -2.3802    2.2243 H   0  0  0  0  0  0  0  0  0  0  0  0
    6.9635   -4.4115   -0.5016 H   0  0  0  0  0  0  0  0  0  0  0  0
    5.4753   -5.2535   -0.9131 H   0  0  0  0  0  0  0  0  0  0  0  0
    6.4946   -5.7386    0.4616 H   0  0  0  0  0  0  0  0  0  0  0  0
    2.4318   -8.4684    4.1817 H   0  0  0  0  0  0  0  0  0  0  0  0
    0.9525   -8.5122    2.1714 H   0  0  0  0  0  0  0  0  0  0  0  0
    0.0059   -7.2201    2.8281 H   0  0  0  0  0  0  0  0  0  0  0  0
  1  2  1  0
  1 32  1  0
  1 33  1  0
  1 34  1  0
  2 31  1  0
  2  3  1  0
  2  4  1  0
  3 35  1  0
  3 36  1  0
  3 37  1  0
  4  5  1  0
  4 38  1  0
  4 39  1  0
  5  6  1  0
  5 40  1  0
  5 41  1  0
  6 30  1  0
  6  7  1  1
  6  8  1  0
  7 42  1  0
  7 43  1  0
  7 44  1  0
  8  9  1  0
  8 45  1  0
  8 46  1  0
  9 10  1  0
  9 47  1  0
  9 48  1  0
 10 15  1  0
 10 11  2  0
 11 12  1  0
 11 30  1  0
 12 13  1  0
 12 49  1  0
 12 50  1  0
 13 14  1  0
 13 51  1  0
 13 52  1  0
 14 28  1  0
 14 15  1  0
 14 53  1  1
 15 16  1  1
 15 17  1  0
 16 54  1  0
 16 55  1  0
 16 56  1  0
 17 18  1  0
 17 57  1  0
 17 58  1  0
 18 19  1  0
 18 59  1  0
 18 60  1  0
 19 28  1  0
 19 20  1  0
 19 61  1  6
 20 21  1  6
 20 22  1  0
 20 24  1  0
 21 62  1  0
 21 63  1  0
 21 64  1  0
 22 23  1  0
 22 65  1  0
 22 66  1  0
 23 67  1  0
 24 25  1  0
 24 26  1  0
 24 68  1  6
 25 69  1  0
 26 27  1  0
 26 70  1  0
 26 71  1  0
 27 28  1  0
 27 72  1  0
 27 73  1  0
 28 29  1  6
 29 74  1  0
 29 75  1  0
 29 76  1  0
 30 31  1  0
 30 77  1  1
 31 78  1  0
 31 79  1  0
M  END
>  <i_m_ct_stereo_status>  (12) 
1

>  <s_m_source_file>  (12) 
/var/tmp/pbs.5076255.sched01/tmp_578sd5a/06fbc0iir.sdf

>  <i_m_source_file_index>  (12) 
8

>  <i_lp_mmshare_version>  (12) 
48012

>  <i_f3d_flags>  (12) 
0

>  <s_epik_input>  (12) 
W0NIMl0xW0NIMl1DKFtDSDNdKShbQ0gzXSlbQ0gyXVtDQEhdKFtDQF0xMltDSDNdKUMzPUMoW0NIMl1bQ0gyXTIpW0NAQF00KFtDSDNdKVtDQEBIXShbQ0gyXVtDSDJdMylbQ0BAXTUoW0NIM10pW0NAQEhdKFtDSDJdW0NIMl00KVtDQEBdKFtDSDNdKShbQ0gyXVtPSF0pW0NAQEhdKFtPSF0pW0NIMl1bQ0gyXTU=

>  <s_epik_cmdline>  (12) 
J2VwaWtfcHl0aG9uJywgJy1waHQnLCAnMi4wJywgJy1waCcsICc3LjAnLCAnLXRuJywgJzgnLCAnLW1hJywgJzIwMCcsICctaW1hZScsICc8aW5maWxlLm1hZT4nLCAnLW9tYWUnLCAnPG91dGZpbGUubWFlPic=

>  <r_lp_tautomer_probability>  (12) 
1

>  <r_epik_Ionization_Penalty>  (12) 
1.86099e-06

>  <r_epik_Ionization_Penalty_Charging>  (12) 
0

>  <r_epik_Ionization_Penalty_Neutral>  (12) 
1.86099e-06

>  <r_epik_State_Penalty>  (12) 
-0

>  <r_epik_Charging_Adjusted_Penalty>  (12) 
0

>  <i_epik_Tot_Q>  (12) 
0

>  <i_epik_Tot_abs_Q>  (12) 
0

>  <s_lp_Force_Field>  (12) 
OPLS3e

>  <r_lp_Energy>  (12) 
94.9681

>  <b_lp_Chiralities_Consistent>  (12) 
1

>  <s_lp_Variant>  (12) 
6:0-1

>  <s_i_glide_gridfile>  (12) 
pfpi4k_grid

>  <i_i_glide_lignum>  (12) 
8

>  <i_i_glide_rotatable_bonds>  (12) 
3

>  <r_i_docking_score>  (12) 
-2.3069

>  <r_i_glide_ligand_efficiency>  (12) 
-0.0744161

>  <r_i_glide_ligand_efficiency_sa>  (12) 
-0.233769

>  <r_i_glide_ligand_efficiency_ln>  (12) 
-0.520276

>  <r_i_glide_gscore>  (12) 
-2.3069

>  <r_i_glide_lipo>  (12) 
-0.457294

>  <r_i_glide_hbond>  (12) 
0

>  <r_i_glide_metal>  (12) 
-0

>  <r_i_glide_rewards>  (12) 
-0.486203

>  <r_i_glide_evdw>  (12) 
-18.1695

>  <r_i_glide_ecoul>  (12) 
-3.7535

>  <r_i_glide_erotb>  (12) 
0.108099

>  <r_i_glide_esite>  (12) 
0

>  <r_i_glide_emodel>  (12) 
-21.5568

>  <r_i_glide_energy>  (12) 
-21.923

>  <r_i_glide_einternal>  (12) 
1.41984

>  <r_i_glide_intrahb_reward>  (12) 
-0

>  <i_i_glide_confnum>  (12) 
1

>  <i_i_glide_posenum>  (12) 
20

>  <r_i_glide_eff_state_penalty>  (12) 
0

>  <ligand_id>  (12) 
6

>  <original_smiles>  (12) 
CC1(C)CCC2(C)CCC3=C(CCC4C3(C)CCC3C(C)(CO)C(O)CCC43C)C2C1

>  <smiles>  (12) 
[H]OC([H])([H])C1(C([H])([H])[H])C([H])(O[H])C([H])([H])C([H])([H])C2(C([H])([H])[H])C3([H])C([H])([H])C([H])([H])C4=C(C([H])([H])C([H])([H])C5(C([H])([H])[H])C([H])([H])C([H])([H])C(C([H])([H])[H])(C([H])([H])[H])C([H])([H])C45[H])C3(C([H])([H])[H])C([H])([H])C([H])([H])C12[H]

$$$$
7:0:0
     RDKit          3D

 56 60  0  0  1  0  0  0  0  0999 V2000
    7.8228   -7.6365    3.0349 C   0  0  0  0  0  0  0  0  0  0  0  0
    7.2808   -6.6937    1.9473 C   0  0  2  0  0  0  0  0  0  0  0  0
    7.3832   -5.2482    2.4344 C   0  0  0  0  0  0  0  0  0  0  0  0
    6.4763   -4.1863    1.7671 C   0  0  0  0  0  0  0  0  0  0  0  0
    6.1153   -4.5838    0.3606 C   0  0  1  0  0  0  0  0  0  0  0  0
    5.3526   -5.9244    0.4708 C   0  0  2  0  0  0  0  0  0  0  0  0
    3.8388   -5.9178    0.2796 C   0  0  1  0  0  0  0  0  0  0  0  0
    3.0269   -6.6259    1.3899 C   0  0  0  0  0  0  0  0  0  0  0  0
    3.8770   -7.6142    2.1993 C   0  0  1  0  0  0  0  0  0  0  0  0
    4.3280   -8.6673    1.3465 O   0  0  0  0  0  0  0  0  0  0  0  0
    5.7170   -8.2627    1.0013 O   0  0  0  0  0  0  0  0  0  0  0  0
    5.8357   -6.9560    1.5487 C   0  0  1  0  0  0  0  0  0  0  0  0
    4.9787   -6.8638    2.6809 O   0  0  0  0  0  0  0  0  0  0  0  0
    3.2727   -4.5622   -0.1581 C   0  0  1  0  0  0  0  0  0  0  0  0
    3.0566   -3.7485    0.9740 O   0  0  0  0  0  0  0  0  0  0  0  0
    4.1782   -3.8597   -1.2147 C   0  0  1  0  0  0  0  0  0  0  0  0
    3.4519   -2.7400   -2.0593 C   0  0  0  0  0  0  0  0  0  0  0  0
    4.0647   -2.5066   -3.4596 C   0  0  0  0  0  0  0  0  0  0  0  0
    1.9949   -3.1253   -2.3707 C   0  0  0  0  0  0  0  0  0  0  0  0
    3.4498   -1.4375   -1.2666 C   0  0  0  0  0  0  0  0  0  0  0  0
    4.8248   -0.9980   -0.7844 C   0  0  0  0  0  0  0  0  0  0  0  0
    5.5018   -2.0742    0.0607 C   0  0  0  0  0  0  0  0  0  0  0  0
    5.5733   -3.4576   -0.6202 C   0  0  1  0  0  0  0  0  0  0  0  0
    6.5841   -3.3214   -1.7798 C   0  0  0  0  0  0  0  0  0  0  0  0
    7.2450   -7.5807    3.9615 H   0  0  0  0  0  0  0  0  0  0  0  0
    8.8463   -7.3717    3.2905 H   0  0  0  0  0  0  0  0  0  0  0  0
    7.8343   -8.6806    2.7119 H   0  0  0  0  0  0  0  0  0  0  0  0
    7.9230   -6.8075    1.0660 H   0  0  0  0  0  0  0  0  0  0  0  0
    7.1583   -5.2519    3.5055 H   0  0  0  0  0  0  0  0  0  0  0  0
    8.4157   -4.9530    2.3141 H   0  0  0  0  0  0  0  0  0  0  0  0
    5.5649   -4.0906    2.3503 H   0  0  0  0  0  0  0  0  0  0  0  0
    6.9979   -3.2346    1.7999 H   0  0  0  0  0  0  0  0  0  0  0  0
    7.0819   -4.8750   -0.0428 H   0  0  0  0  0  0  0  0  0  0  0  0
    5.6761   -6.2737   -0.4920 H   0  0  0  0  0  0  0  0  0  0  0  0
    3.7326   -6.5905   -0.5688 H   0  0  0  0  0  0  0  0  0  0  0  0
    2.5717   -5.9072    2.0828 H   0  0  0  0  0  0  0  0  0  0  0  0
    2.1961   -7.1670    0.9287 H   0  0  0  0  0  0  0  0  0  0  0  0
    3.2925   -8.0173    3.0117 H   0  0  0  0  0  0  0  0  0  0  0  0
    2.2944   -4.8199   -0.5680 H   0  0  0  0  0  0  0  0  0  0  0  0
    2.6597   -4.2800    1.6518 H   0  0  0  0  0  0  0  0  0  0  0  0
    4.3876   -4.6449   -1.9300 H   0  0  0  0  0  0  0  0  0  0  0  0
    3.3288   -2.1336   -4.1800 H   0  0  0  0  0  0  0  0  0  0  0  0
    4.4851   -3.4195   -3.8846 H   0  0  0  0  0  0  0  0  0  0  0  0
    4.8313   -1.7424   -3.4634 H   0  0  0  0  0  0  0  0  0  0  0  0
    1.5152   -2.3785   -3.0159 H   0  0  0  0  0  0  0  0  0  0  0  0
    1.3707   -3.1751   -1.4841 H   0  0  0  0  0  0  0  0  0  0  0  0
    1.9299   -4.0799   -2.8840 H   0  0  0  0  0  0  0  0  0  0  0  0
    2.9966   -0.6795   -1.8998 H   0  0  0  0  0  0  0  0  0  0  0  0
    2.8230   -1.5438   -0.3857 H   0  0  0  0  0  0  0  0  0  0  0  0
    5.4432   -0.6922   -1.6217 H   0  0  0  0  0  0  0  0  0  0  0  0
    4.7036   -0.1082   -0.1730 H   0  0  0  0  0  0  0  0  0  0  0  0
    6.5032   -1.7208    0.3010 H   0  0  0  0  0  0  0  0  0  0  0  0
    4.9622   -2.1377    1.0065 H   0  0  0  0  0  0  0  0  0  0  0  0
    6.4798   -2.4257   -2.3667 H   0  0  0  0  0  0  0  0  0  0  0  0
    6.4389   -4.1220   -2.4961 H   0  0  0  0  0  0  0  0  0  0  0  0
    7.6144   -3.3101   -1.4286 H   0  0  0  0  0  0  0  0  0  0  0  0
  1  2  1  0
  1 25  1  0
  1 26  1  0
  1 27  1  0
  2 12  1  0
  2  3  1  0
  2 28  1  6
  3  4  1  0
  3 29  1  0
  3 30  1  0
  4  5  1  0
  4 31  1  0
  4 32  1  0
  5 23  1  0
  5  6  1  0
  5 33  1  6
  6 12  1  0
  6  7  1  0
  6 34  1  6
  7  8  1  0
  7 14  1  0
  7 35  1  6
  8  9  1  0
  8 36  1  0
  8 37  1  0
  9 13  1  0
  9 10  1  0
  9 38  1  1
 10 11  1  0
 12 11  1  6
 12 13  1  0
 14 15  1  0
 14 16  1  0
 14 39  1  6
 15 40  1  0
 16 23  1  0
 16 17  1  0
 16 41  1  6
 17 18  1  0
 17 19  1  0
 17 20  1  0
 18 42  1  0
 18 43  1  0
 18 44  1  0
 19 45  1  0
 19 46  1  0
 19 47  1  0
 20 21  1  0
 20 48  1  0
 20 49  1  0
 21 22  1  0
 21 50  1  0
 21 51  1  0
 22 23  1  0
 22 52  1  0
 22 53  1  0
 23 24  1  6
 24 54  1  0
 24 55  1  0
 24 56  1  0
M  END
>  <i_m_ct_stereo_status>  (13) 
1

>  <s_m_source_file>  (13) 
/var/tmp/pbs.5076255.sched01/tmp_578sd5a/06fbc0iir.sdf

>  <i_m_source_file_index>  (13) 
9

>  <i_lp_mmshare_version>  (13) 
48012

>  <i_f3d_flags>  (13) 
0

>  <s_epik_input>  (13) 
W0NIM11bQ0BASF0xW0NIMl1bQ0gyXVtDQEBIXShbQ0BIXTJbQ0BdMTM0KVtDQEBdNShbQ0gzXSlbQ0BIXShDKFtDSDNdKShbQ0gzXSlbQ0gyXVtDSDJdW0NIMl01KVtDQEhdKFtPSF0pW0NAQEhdMltDSDJdW0NASF0oTzQpT08z

>  <s_epik_cmdline>  (13) 
J2VwaWtfcHl0aG9uJywgJy1waHQnLCAnMi4wJywgJy1waCcsICc3LjAnLCAnLXRuJywgJzgnLCAnLW1hJywgJzIwMCcsICctaW1hZScsICc8aW5maWxlLm1hZT4nLCAnLW9tYWUnLCAnPG91dGZpbGUubWFlPic=

>  <r_lp_tautomer_probability>  (13) 
1

>  <r_epik_Ionization_Penalty>  (13) 
3.74946e-07

>  <r_epik_Ionization_Penalty_Charging>  (13) 
0

>  <r_epik_Ionization_Penalty_Neutral>  (13) 
3.74946e-07

>  <r_epik_State_Penalty>  (13) 
-0

>  <r_epik_Charging_Adjusted_Penalty>  (13) 
0

>  <i_epik_Tot_Q>  (13) 
0

>  <i_epik_Tot_abs_Q>  (13) 
0

>  <s_epik_Chemistry_Notes>  (13) 
This compound contains an acetal/aminal-like group ( X-CH(R)-Y where X, Y are N, S, or O) that may be acid/base labile, releasing an aldehyde.

>  <s_lp_Force_Field>  (13) 
OPLS3e

>  <r_lp_Energy>  (13) 
60.7696

>  <b_lp_Chiralities_Consistent>  (13) 
1

>  <s_lp_Variant>  (13) 
7:0-1

>  <s_i_glide_gridfile>  (13) 
pfpi4k_grid

>  <i_i_glide_lignum>  (13) 
9

>  <i_i_glide_rotatable_bonds>  (13) 
1

>  <r_i_docking_score>  (13) 
-3.09306

>  <r_i_glide_ligand_efficiency>  (13) 
-0.128877

>  <r_i_glide_ligand_efficiency_sa>  (13) 
-0.371747

>  <r_i_glide_ligand_efficiency_ln>  (13) 
-0.740311

>  <r_i_glide_gscore>  (13) 
-3.09306

>  <r_i_glide_lipo>  (13) 
-0.927984

>  <r_i_glide_hbond>  (13) 
0

>  <r_i_glide_metal>  (13) 
-0

>  <r_i_glide_rewards>  (13) 
-1.23954

>  <r_i_glide_evdw>  (13) 
-16.0968

>  <r_i_glide_ecoul>  (13) 
-0.80463

>  <r_i_glide_erotb>  (13) 
0

>  <r_i_glide_esite>  (13) 
0

>  <r_i_glide_emodel>  (13) 
-17.164

>  <r_i_glide_energy>  (13) 
-16.9014

>  <r_i_glide_einternal>  (13) 
0.579191

>  <r_i_glide_intrahb_reward>  (13) 
-0

>  <i_i_glide_confnum>  (13) 
1

>  <i_i_glide_posenum>  (13) 
2

>  <r_i_glide_eff_state_penalty>  (13) 
0

>  <ligand_id>  (13) 
7

>  <original_smiles>  (13) 
CC1CCC2C3C(CC4OOC13O4)C(O)C1C(C)(C)CCCC21C

>  <smiles>  (13) 
[H]OC1([H])C2([H])C([H])([H])C3([H])OOC4(O3)C([H])(C([H])([H])[H])C([H])([H])C([H])([H])C([H])(C42[H])C2(C([H])([H])[H])C([H])([H])C([H])([H])C([H])([H])C(C([H])([H])[H])(C([H])([H])[H])C12[H]

$$$$
7:0:1
     RDKit          3D

 56 60  0  0  1  0  0  0  0  0999 V2000
    2.7589   -4.0008    5.4734 C   0  0  0  0  0  0  0  0  0  0  0  0
    2.7975   -3.8137    3.9421 C   0  0  2  0  0  0  0  0  0  0  0  0
    3.8031   -4.8007    3.3088 C   0  0  0  0  0  0  0  0  0  0  0  0
    4.2997   -4.4089    1.9012 C   0  0  0  0  0  0  0  0  0  0  0  0
    3.2941   -3.5221    1.1391 C   0  0  1  0  0  0  0  0  0  0  0  0
    3.0296   -2.2117    1.9312 C   0  0  2  0  0  0  0  0  0  0  0  0
    3.7713   -0.9469    1.4284 C   0  0  1  0  0  0  0  0  0  0  0  0
    4.6537   -0.2555    2.4922 C   0  0  0  0  0  0  0  0  0  0  0  0
    4.2967   -0.6271    3.9290 C   0  0  1  0  0  0  0  0  0  0  0  0
    2.9726   -0.2186    4.2293 O   0  0  0  0  0  0  0  0  0  0  0  0
    2.1685   -1.4667    4.0404 O   0  0  0  0  0  0  0  0  0  0  0  0
    3.1028   -2.3749    3.4918 C   0  0  1  0  0  0  0  0  0  0  0  0
    4.3830   -2.0288    3.9839 O   0  0  0  0  0  0  0  0  0  0  0  0
    4.4865   -1.0830    0.0677 C   0  0  1  0  0  0  0  0  0  0  0  0
    5.7951   -1.6096    0.2076 O   0  0  0  0  0  0  0  0  0  0  0  0
    3.6435   -1.9113   -0.9343 C   0  0  1  0  0  0  0  0  0  0  0  0
    4.0252   -1.7244   -2.4590 C   0  0  0  0  0  0  0  0  0  0  0  0
    2.8376   -2.0238   -3.4187 C   0  0  0  0  0  0  0  0  0  0  0  0
    4.4915   -0.3071   -2.7989 C   0  0  0  0  0  0  0  0  0  0  0  0
    5.2045   -2.6117   -2.8236 C   0  0  0  0  0  0  0  0  0  0  0  0
    4.9598   -4.0490   -2.4518 C   0  0  0  0  0  0  0  0  0  0  0  0
    4.6454   -4.2518   -0.9652 C   0  0  0  0  0  0  0  0  0  0  0  0
    3.4587   -3.3951   -0.4366 C   0  0  1  0  0  0  0  0  0  0  0  0
    2.1533   -3.9697   -1.0288 C   0  0  0  0  0  0  0  0  0  0  0  0
    3.7269   -3.7955    5.9336 H   0  0  0  0  0  0  0  0  0  0  0  0
    2.5051   -5.0337    5.7129 H   0  0  0  0  0  0  0  0  0  0  0  0
    2.0137   -3.3646    5.9527 H   0  0  0  0  0  0  0  0  0  0  0  0
    1.7989   -4.0481    3.5727 H   0  0  0  0  0  0  0  0  0  0  0  0
    4.6622   -4.9491    3.9683 H   0  0  0  0  0  0  0  0  0  0  0  0
    3.3030   -5.7645    3.2440 H   0  0  0  0  0  0  0  0  0  0  0  0
    5.2418   -3.8731    2.0030 H   0  0  0  0  0  0  0  0  0  0  0  0
    4.5106   -5.3374    1.3707 H   0  0  0  0  0  0  0  0  0  0  0  0
    2.3620   -4.0631    1.2944 H   0  0  0  0  0  0  0  0  0  0  0  0
    1.9767   -2.0061    1.7252 H   0  0  0  0  0  0  0  0  0  0  0  0
    2.9686   -0.2263    1.2460 H   0  0  0  0  0  0  0  0  0  0  0  0
    5.7197   -0.4420    2.3329 H   0  0  0  0  0  0  0  0  0  0  0  0
    4.4789    0.8019    2.3927 H   0  0  0  0  0  0  0  0  0  0  0  0
    5.0009   -0.1422    4.6070 H   0  0  0  0  0  0  0  0  0  0  0  0
    4.6068   -0.0610   -0.2828 H   0  0  0  0  0  0  0  0  0  0  0  0
    5.7106   -2.4846    0.5492 H   0  0  0  0  0  0  0  0  0  0  0  0
    2.6647   -1.4551   -0.8556 H   0  0  0  0  0  0  0  0  0  0  0  0
    2.8577   -1.4154   -4.3212 H   0  0  0  0  0  0  0  0  0  0  0  0
    1.8828   -1.8570   -2.9274 H   0  0  0  0  0  0  0  0  0  0  0  0
    2.8074   -3.0470   -3.7910 H   0  0  0  0  0  0  0  0  0  0  0  0
    4.6140   -0.1846   -3.8698 H   0  0  0  0  0  0  0  0  0  0  0  0
    5.4365   -0.0818   -2.3198 H   0  0  0  0  0  0  0  0  0  0  0  0
    3.8134    0.4748   -2.5103 H   0  0  0  0  0  0  0  0  0  0  0  0
    5.3714   -2.5621   -3.8971 H   0  0  0  0  0  0  0  0  0  0  0  0
    6.1172   -2.2771   -2.3307 H   0  0  0  0  0  0  0  0  0  0  0  0
    4.2017   -4.4545   -3.1049 H   0  0  0  0  0  0  0  0  0  0  0  0
    5.8160   -4.6484   -2.7128 H   0  0  0  0  0  0  0  0  0  0  0  0
    4.4382   -5.3120   -0.8227 H   0  0  0  0  0  0  0  0  0  0  0  0
    5.5594   -4.0450   -0.4093 H   0  0  0  0  0  0  0  0  0  0  0  0
    2.1951   -4.1431   -2.0932 H   0  0  0  0  0  0  0  0  0  0  0  0
    1.3024   -3.3205   -0.8696 H   0  0  0  0  0  0  0  0  0  0  0  0
    1.9284   -4.9537   -0.6168 H   0  0  0  0  0  0  0  0  0  0  0  0
  1  2  1  0
  1 25  1  0
  1 26  1  0
  1 27  1  0
  2 12  1  0
  2  3  1  0
  2 28  1  6
  3  4  1  0
  3 29  1  0
  3 30  1  0
  4  5  1  0
  4 31  1  0
  4 32  1  0
  5 23  1  0
  5  6  1  0
  5 33  1  6
  6 12  1  0
  6  7  1  0
  6 34  1  1
  7  8  1  0
  7 14  1  0
  7 35  1  6
  8  9  1  0
  8 36  1  0
  8 37  1  0
  9 13  1  0
  9 10  1  0
  9 38  1  1
 10 11  1  0
 12 11  1  1
 12 13  1  0
 14 15  1  0
 14 16  1  0
 14 39  1  6
 15 40  1  0
 16 23  1  0
 16 17  1  0
 16 41  1  6
 17 18  1  0
 17 19  1  0
 17 20  1  0
 18 42  1  0
 18 43  1  0
 18 44  1  0
 19 45  1  0
 19 46  1  0
 19 47  1  0
 20 21  1  0
 20 48  1  0
 20 49  1  0
 21 22  1  0
 21 50  1  0
 21 51  1  0
 22 23  1  0
 22 52  1  0
 22 53  1  0
 23 24  1  6
 24 54  1  0
 24 55  1  0
 24 56  1  0
M  END
>  <i_m_ct_stereo_status>  (14) 
1

>  <s_m_source_file>  (14) 
/var/tmp/pbs.5076255.sched01/tmp_578sd5a/06fbc0iir.sdf

>  <i_m_source_file_index>  (14) 
9

>  <i_lp_mmshare_version>  (14) 
48012

>  <i_f3d_flags>  (14) 
0

>  <s_epik_input>  (14) 
W0NIM11bQ0BASF0xW0NIMl1bQ0gyXVtDQEBIXShbQ0BIXTJbQ0BdMTM0KVtDQEBdNShbQ0gzXSlbQ0BIXShDKFtDSDNdKShbQ0gzXSlbQ0gyXVtDSDJdW0NIMl01KVtDQEhdKFtPSF0pW0NAQEhdMltDSDJdW0NASF0oTzQpT08z

>  <s_epik_cmdline>  (14) 
J2VwaWtfcHl0aG9uJywgJy1waHQnLCAnMi4wJywgJy1waCcsICc3LjAnLCAnLXRuJywgJzgnLCAnLW1hJywgJzIwMCcsICctaW1hZScsICc8aW5maWxlLm1hZT4nLCAnLW9tYWUnLCAnPG91dGZpbGUubWFlPic=

>  <r_lp_tautomer_probability>  (14) 
1

>  <r_epik_Ionization_Penalty>  (14) 
3.74946e-07

>  <r_epik_Ionization_Penalty_Charging>  (14) 
0

>  <r_epik_Ionization_Penalty_Neutral>  (14) 
3.74946e-07

>  <r_epik_State_Penalty>  (14) 
-0

>  <r_epik_Charging_Adjusted_Penalty>  (14) 
0

>  <i_epik_Tot_Q>  (14) 
0

>  <i_epik_Tot_abs_Q>  (14) 
0

>  <s_epik_Chemistry_Notes>  (14) 
This compound contains an acetal/aminal-like group ( X-CH(R)-Y where X, Y are N, S, or O) that may be acid/base labile, releasing an aldehyde.

>  <s_lp_Force_Field>  (14) 
OPLS3e

>  <r_lp_Energy>  (14) 
60.7696

>  <b_lp_Chiralities_Consistent>  (14) 
1

>  <s_lp_Variant>  (14) 
7:0-1

>  <s_i_glide_gridfile>  (14) 
pfpi4k_grid

>  <i_i_glide_lignum>  (14) 
9

>  <i_i_glide_rotatable_bonds>  (14) 
1

>  <r_i_docking_score>  (14) 
-2.5794

>  <r_i_glide_ligand_efficiency>  (14) 
-0.107475

>  <r_i_glide_ligand_efficiency_sa>  (14) 
-0.310011

>  <r_i_glide_ligand_efficiency_ln>  (14) 
-0.617369

>  <r_i_glide_gscore>  (14) 
-2.5794

>  <r_i_glide_lipo>  (14) 
-0.534219

>  <r_i_glide_hbond>  (14) 
0

>  <r_i_glide_metal>  (14) 
-0

>  <r_i_glide_rewards>  (14) 
-1.15161

>  <r_i_glide_evdw>  (14) 
-13.3205

>  <r_i_glide_ecoul>  (14) 
-1.51695

>  <r_i_glide_erotb>  (14) 
0

>  <r_i_glide_esite>  (14) 
0

>  <r_i_glide_emodel>  (14) 
-15.6774

>  <r_i_glide_energy>  (14) 
-14.8374

>  <r_i_glide_einternal>  (14) 
0.00238385

>  <r_i_glide_intrahb_reward>  (14) 
-0

>  <i_i_glide_confnum>  (14) 
2

>  <i_i_glide_posenum>  (14) 
8

>  <r_i_glide_eff_state_penalty>  (14) 
0

>  <ligand_id>  (14) 
7

>  <original_smiles>  (14) 
CC1CCC2C3C(CC4OOC13O4)C(O)C1C(C)(C)CCCC21C

>  <smiles>  (14) 
[H]OC1([H])C2([H])C([H])([H])C3([H])OOC4(O3)C([H])(C([H])([H])[H])C([H])([H])C([H])([H])C([H])(C42[H])C2(C([H])([H])[H])C([H])([H])C([H])([H])C([H])([H])C(C([H])([H])[H])(C([H])([H])[H])C12[H]

$$$$
8:0:0
     RDKit          3D

 42 45  0  0  1  0  0  0  0  0999 V2000
    6.5481   -2.1341    1.1275 C   0  0  0  0  0  0  0  0  0  0  0  0
    6.1314   -2.4075   -0.2885 C   0  0  0  0  0  0  0  0  0  0  0  0
    7.0906   -2.5528   -1.1861 N   0  0  0  0  0  0  0  0  0  0  0  0
    6.4339   -2.8370   -2.3206 N   0  0  0  0  0  0  0  0  0  0  0  0
    5.0636   -2.8258   -2.1713 C   0  0  0  0  0  0  0  0  0  0  0  0
    4.1560   -3.0999   -3.3312 C   0  0  0  0  0  0  0  0  0  0  0  0
    4.8203   -2.5487   -0.8480 C   0  0  0  0  0  0  0  0  0  0  0  0
    3.4796   -2.4529   -0.1416 C   0  0  2  0  0  0  0  0  0  0  0  0
    3.4728   -1.1919    0.5961 N   0  0  0  0  0  0  0  0  0  0  0  0
    3.1343   -1.1252    1.8225 C   0  0  0  0  0  0  0  0  0  0  0  0
    3.1503    0.1955    2.4896 C   0  0  0  0  0  0  0  0  0  0  0  0
    2.8399    0.3067    3.7951 C   0  0  0  0  0  0  0  0  0  0  0  0
    2.5072   -0.8613    4.5891 C   0  0  0  0  0  0  0  0  0  0  0  0
    2.4578   -2.0885    4.0381 C   0  0  0  0  0  0  0  0  0  0  0  0
    2.7209   -2.3259    2.6129 C   0  0  0  0  0  0  0  0  0  0  0  0
    2.6965   -3.5418    1.9954 C   0  0  0  0  0  0  0  0  0  0  0  0
    2.1745   -4.7297    2.5932 N   0  0  0  0  0  0  0  0  0  0  0  0
    1.0295   -4.6826    3.5191 C   0  0  0  0  0  0  0  0  0  0  0  0
    2.6166   -5.9567    2.2196 C   0  0  0  0  0  0  0  0  0  0  0  0
    2.2211   -7.0116    2.7145 O   0  0  0  0  0  0  0  0  0  0  0  0
    3.6451   -6.0244    1.0986 C   0  0  0  0  0  0  0  0  0  0  0  0
    3.3401   -4.9489    0.0474 C   0  0  0  0  0  0  0  0  0  0  0  0
    3.1792   -3.6389    0.6814 N   0  0  0  0  0  0  0  0  0  0  0  0
    6.9368   -3.0121   -3.1850 H   0  0  0  0  0  0  0  0  0  0  0  0
    5.7077   -2.1425    1.8158 H   0  0  0  0  0  0  0  0  0  0  0  0
    7.0349   -1.1611    1.2082 H   0  0  0  0  0  0  0  0  0  0  0  0
    7.2432   -2.8972    1.4787 H   0  0  0  0  0  0  0  0  0  0  0  0
    3.1079   -3.0509   -3.0445 H   0  0  0  0  0  0  0  0  0  0  0  0
    4.3388   -4.0933   -3.7408 H   0  0  0  0  0  0  0  0  0  0  0  0
    4.3160   -2.3735   -4.1268 H   0  0  0  0  0  0  0  0  0  0  0  0
    2.6820   -2.3881   -0.8844 H   0  0  0  0  0  0  0  0  0  0  0  0
    3.4136    1.0494    1.8806 H   0  0  0  0  0  0  0  0  0  0  0  0
    2.8517    1.2742    4.2727 H   0  0  0  0  0  0  0  0  0  0  0  0
    2.3351   -0.7612    5.6467 H   0  0  0  0  0  0  0  0  0  0  0  0
    2.2911   -2.9094    4.7180 H   0  0  0  0  0  0  0  0  0  0  0  0
    0.2952   -5.4560    3.3029 H   0  0  0  0  0  0  0  0  0  0  0  0
    0.4854   -3.7378    3.4636 H   0  0  0  0  0  0  0  0  0  0  0  0
    1.3597   -4.8472    4.5424 H   0  0  0  0  0  0  0  0  0  0  0  0
    4.6262   -5.8455    1.5333 H   0  0  0  0  0  0  0  0  0  0  0  0
    3.6584   -7.0233    0.6520 H   0  0  0  0  0  0  0  0  0  0  0  0
    4.1321   -4.9591   -0.7002 H   0  0  0  0  0  0  0  0  0  0  0  0
    2.4136   -5.1974   -0.4738 H   0  0  0  0  0  0  0  0  0  0  0  0
  1  2  1  0
  1 25  1  0
  1 26  1  0
  1 27  1  0
  2  7  1  0
  2  3  2  0
  3  4  1  0
  4 24  1  0
  4  5  1  0
  5  6  1  0
  5  7  2  0
  6 28  1  0
  6 29  1  0
  6 30  1  0
  7  8  1  0
  8 23  1  0
  8  9  1  0
  8 31  1  6
  9 10  2  0
 10 15  1  0
 10 11  1  0
 11 12  2  0
 11 32  1  0
 12 13  1  0
 12 33  1  0
 13 14  2  0
 13 34  1  0
 14 15  1  0
 14 35  1  0
 15 16  2  0
 16 23  1  0
 16 17  1  0
 17 18  1  0
 17 19  1  0
 18 36  1  0
 18 37  1  0
 18 38  1  0
 19 20  2  0
 19 21  1  0
 21 22  1  0
 21 39  1  0
 21 40  1  0
 22 23  1  0
 22 41  1  0
 22 42  1  0
M  END
>  <i_m_ct_stereo_status>  (15) 
1

>  <s_m_source_file>  (15) 
/var/tmp/pbs.5076255.sched01/tmp_578sd5a/06fbc0iir.sdf

>  <i_m_source_file_index>  (15) 
10

>  <i_lp_mmshare_version>  (15) 
48012

>  <i_f3d_flags>  (15) 
0

>  <s_epik_input>  (15) 
W0NIM11jMW5bbkhdYyhbQ0gzXSljMVtDQEhdKE49MilOKFtDSDJdW0NIMl1DKD1PKU4zW0NIM10pQzM9YyhjMjQpW2NIXVtjSF1bY0hdW2NIXTQ=

>  <s_epik_cmdline>  (15) 
J2VwaWtfcHl0aG9uJywgJy1waHQnLCAnMi4wJywgJy1waCcsICc3LjAnLCAnLXRuJywgJzgnLCAnLW1hJywgJzIwMCcsICctaW1hZScsICc8aW5maWxlLm1hZT4nLCAnLW9tYWUnLCAnPG91dGZpbGUubWFlPic=

>  <r_lp_tautomer_probability>  (15) 
1

>  <r_epik_Ionization_Penalty>  (15) 
8.63771e-05

>  <r_epik_Ionization_Penalty_Charging>  (15) 
0

>  <r_epik_Ionization_Penalty_Neutral>  (15) 
8.63771e-05

>  <r_epik_State_Penalty>  (15) 
-0

>  <r_epik_Charging_Adjusted_Penalty>  (15) 
0

>  <i_epik_Tot_Q>  (15) 
0

>  <i_epik_Tot_abs_Q>  (15) 
0

>  <s_epik_Chemistry_Notes>  (15) 
This compound has an imine and may undergo hydrolysis. This compound contains an acetal/aminal-like group ( X-CH(R)-Y where X, Y are N, S, or O) that may be acid/base labile, releasing an aldehyde.

>  <s_lp_Force_Field>  (15) 
OPLS3e

>  <r_lp_Energy>  (15) 
53.5336

>  <b_lp_Chiralities_Consistent>  (15) 
1

>  <s_lp_Variant>  (15) 
8:0-1

>  <s_i_glide_gridfile>  (15) 
pfpi4k_grid

>  <i_i_glide_lignum>  (15) 
10

>  <i_i_glide_rotatable_bonds>  (15) 
1

>  <r_i_docking_score>  (15) 
-3.87496

>  <r_i_glide_ligand_efficiency>  (15) 
-0.168477

>  <r_i_glide_ligand_efficiency_sa>  (15) 
-0.479125

>  <r_i_glide_ligand_efficiency_ln>  (15) 
-0.937001

>  <r_i_glide_gscore>  (15) 
-3.87496

>  <r_i_glide_lipo>  (15) 
-0.394227

>  <r_i_glide_hbond>  (15) 
-0.436151

>  <r_i_glide_metal>  (15) 
-0

>  <r_i_glide_rewards>  (15) 
-1.29978

>  <r_i_glide_evdw>  (15) 
-25.1898

>  <r_i_glide_ecoul>  (15) 
-4.07419

>  <r_i_glide_erotb>  (15) 
0.193456

>  <r_i_glide_esite>  (15) 
-0.0676388

>  <r_i_glide_emodel>  (15) 
-35.7717

>  <r_i_glide_energy>  (15) 
-29.264

>  <r_i_glide_einternal>  (15) 
0.631613

>  <r_i_glide_intrahb_reward>  (15) 
-0

>  <i_i_glide_confnum>  (15) 
2

>  <i_i_glide_posenum>  (15) 
23

>  <r_i_glide_eff_state_penalty>  (15) 
0

>  <ligand_id>  (15) 
8

>  <original_smiles>  (15) 
Cc1n[nH]c(C)c1C1N=c2ccccc2=C2N(C)C(=O)CCN21

>  <smiles>  (15) 
[H]c1c([H])c([H])c2c(c1[H])=NC([H])(c1c(C([H])([H])[H])nn([H])c1C([H])([H])[H])N1C=2N(C([H])([H])[H])C(=O)C([H])([H])C1([H])[H]

$$$$
8:0:1
     RDKit          3D

 42 45  0  0  1  0  0  0  0  0999 V2000
    4.4444   -7.9083    3.2285 C   0  0  0  0  0  0  0  0  0  0  0  0
    3.2708   -8.8362    3.0855 C   0  0  0  0  0  0  0  0  0  0  0  0
    3.4593  -10.1116    3.3843 N   0  0  0  0  0  0  0  0  0  0  0  0
    2.2619  -10.6828    3.1760 N   0  0  0  0  0  0  0  0  0  0  0  0
    1.3079   -9.7838    2.7518 C   0  0  0  0  0  0  0  0  0  0  0  0
   -0.1004  -10.2267    2.4989 C   0  0  0  0  0  0  0  0  0  0  0  0
    1.9254   -8.5587    2.6717 C   0  0  0  0  0  0  0  0  0  0  0  0
    1.3067   -7.2255    2.2766 C   0  0  2  0  0  0  0  0  0  0  0  0
    2.1656   -6.5849    1.2828 N   0  0  0  0  0  0  0  0  0  0  0  0
    2.6034   -5.3922    1.4253 C   0  0  0  0  0  0  0  0  0  0  0  0
    3.5232   -4.8471    0.4048 C   0  0  0  0  0  0  0  0  0  0  0  0
    3.9912   -3.5865    0.5056 C   0  0  0  0  0  0  0  0  0  0  0  0
    3.6377   -2.7442    1.6317 C   0  0  0  0  0  0  0  0  0  0  0  0
    2.8066   -3.1816    2.5944 C   0  0  0  0  0  0  0  0  0  0  0  0
    2.1950   -4.5167    2.5688 C   0  0  0  0  0  0  0  0  0  0  0  0
    1.3321   -5.0144    3.5020 C   0  0  0  0  0  0  0  0  0  0  0  0
    0.7242   -4.2254    4.5269 N   0  0  0  0  0  0  0  0  0  0  0  0
    0.3464   -2.8207    4.2970 C   0  0  0  0  0  0  0  0  0  0  0  0
    0.3389   -4.7816    5.7035 C   0  0  0  0  0  0  0  0  0  0  0  0
   -0.1691   -4.1522    6.6332 O   0  0  0  0  0  0  0  0  0  0  0  0
    0.5212   -6.2875    5.8582 C   0  0  0  0  0  0  0  0  0  0  0  0
    0.2238   -6.9913    4.5276 C   0  0  0  0  0  0  0  0  0  0  0  0
    0.9694   -6.3686    3.4310 N   0  0  0  0  0  0  0  0  0  0  0  0
    2.1180  -11.6752    3.3192 H   0  0  0  0  0  0  0  0  0  0  0  0
    4.1688   -6.8651    3.0959 H   0  0  0  0  0  0  0  0  0  0  0  0
    5.2159   -8.1399    2.4926 H   0  0  0  0  0  0  0  0  0  0  0  0
    4.8927   -7.9801    4.2198 H   0  0  0  0  0  0  0  0  0  0  0  0
   -0.7290   -9.4039    2.1648 H   0  0  0  0  0  0  0  0  0  0  0  0
   -0.5439  -10.6303    3.4087 H   0  0  0  0  0  0  0  0  0  0  0  0
   -0.1383  -11.0061    1.7377 H   0  0  0  0  0  0  0  0  0  0  0  0
    0.3587   -7.4207    1.7735 H   0  0  0  0  0  0  0  0  0  0  0  0
    3.7879   -5.4978   -0.4179 H   0  0  0  0  0  0  0  0  0  0  0  0
    4.6514   -3.1943   -0.2523 H   0  0  0  0  0  0  0  0  0  0  0  0
    4.0725   -1.7633    1.7262 H   0  0  0  0  0  0  0  0  0  0  0  0
    2.6585   -2.5186    3.4326 H   0  0  0  0  0  0  0  0  0  0  0  0
   -0.6487   -2.5965    4.6790 H   0  0  0  0  0  0  0  0  0  0  0  0
    0.3078   -2.5616    3.2398 H   0  0  0  0  0  0  0  0  0  0  0  0
    1.0367   -2.1516    4.8076 H   0  0  0  0  0  0  0  0  0  0  0  0
    1.5555   -6.4715    6.1506 H   0  0  0  0  0  0  0  0  0  0  0  0
   -0.1175   -6.6675    6.6587 H   0  0  0  0  0  0  0  0  0  0  0  0
    0.4507   -8.0515    4.6423 H   0  0  0  0  0  0  0  0  0  0  0  0
   -0.8435   -6.9239    4.3072 H   0  0  0  0  0  0  0  0  0  0  0  0
  1  2  1  0
  1 25  1  0
  1 26  1  0
  1 27  1  0
  2  7  1  0
  2  3  2  0
  3  4  1  0
  4 24  1  0
  4  5  1  0
  5  6  1  0
  5  7  2  0
  6 28  1  0
  6 29  1  0
  6 30  1  0
  7  8  1  0
  8 23  1  0
  8  9  1  0
  8 31  1  6
  9 10  2  0
 10 15  1  0
 10 11  1  0
 11 12  2  0
 11 32  1  0
 12 13  1  0
 12 33  1  0
 13 14  2  0
 13 34  1  0
 14 15  1  0
 14 35  1  0
 15 16  2  0
 16 23  1  0
 16 17  1  0
 17 18  1  0
 17 19  1  0
 18 36  1  0
 18 37  1  0
 18 38  1  0
 19 20  2  0
 19 21  1  0
 21 22  1  0
 21 39  1  0
 21 40  1  0
 22 23  1  0
 22 41  1  0
 22 42  1  0
M  END
>  <i_m_ct_stereo_status>  (16) 
1

>  <s_m_source_file>  (16) 
/var/tmp/pbs.5076255.sched01/tmp_578sd5a/06fbc0iir.sdf

>  <i_m_source_file_index>  (16) 
10

>  <i_lp_mmshare_version>  (16) 
48012

>  <i_f3d_flags>  (16) 
0

>  <s_epik_input>  (16) 
W0NIM11jMW5bbkhdYyhbQ0gzXSljMVtDQEhdKE49MilOKFtDSDJdW0NIMl1DKD1PKU4zW0NIM10pQzM9YyhjMjQpW2NIXVtjSF1bY0hdW2NIXTQ=

>  <s_epik_cmdline>  (16) 
J2VwaWtfcHl0aG9uJywgJy1waHQnLCAnMi4wJywgJy1waCcsICc3LjAnLCAnLXRuJywgJzgnLCAnLW1hJywgJzIwMCcsICctaW1hZScsICc8aW5maWxlLm1hZT4nLCAnLW9tYWUnLCAnPG91dGZpbGUubWFlPic=

>  <r_lp_tautomer_probability>  (16) 
1

>  <r_epik_Ionization_Penalty>  (16) 
8.63771e-05

>  <r_epik_Ionization_Penalty_Charging>  (16) 
0

>  <r_epik_Ionization_Penalty_Neutral>  (16) 
8.63771e-05

>  <r_epik_State_Penalty>  (16) 
-0

>  <r_epik_Charging_Adjusted_Penalty>  (16) 
0

>  <i_epik_Tot_Q>  (16) 
0

>  <i_epik_Tot_abs_Q>  (16) 
0

>  <s_epik_Chemistry_Notes>  (16) 
This compound has an imine and may undergo hydrolysis. This compound contains an acetal/aminal-like group ( X-CH(R)-Y where X, Y are N, S, or O) that may be acid/base labile, releasing an aldehyde.

>  <s_lp_Force_Field>  (16) 
OPLS3e

>  <r_lp_Energy>  (16) 
53.5336

>  <b_lp_Chiralities_Consistent>  (16) 
1

>  <s_lp_Variant>  (16) 
8:0-1

>  <s_i_glide_gridfile>  (16) 
pfpi4k_grid

>  <i_i_glide_lignum>  (16) 
10

>  <i_i_glide_rotatable_bonds>  (16) 
1

>  <r_i_docking_score>  (16) 
-3.01629

>  <r_i_glide_ligand_efficiency>  (16) 
-0.131143

>  <r_i_glide_ligand_efficiency_sa>  (16) 
-0.372953

>  <r_i_glide_ligand_efficiency_ln>  (16) 
-0.729366

>  <r_i_glide_gscore>  (16) 
-3.01629

>  <r_i_glide_lipo>  (16) 
-0.287432

>  <r_i_glide_hbond>  (16) 
0

>  <r_i_glide_metal>  (16) 
-0

>  <r_i_glide_rewards>  (16) 
-1.29978

>  <r_i_glide_evdw>  (16) 
-22.6462

>  <r_i_glide_ecoul>  (16) 
-2.84867

>  <r_i_glide_erotb>  (16) 
0.193456

>  <r_i_glide_esite>  (16) 
-0.0629241

>  <r_i_glide_emodel>  (16) 
-30.3108

>  <r_i_glide_energy>  (16) 
-25.4949

>  <r_i_glide_einternal>  (16) 
0.822519

>  <r_i_glide_intrahb_reward>  (16) 
-0

>  <i_i_glide_confnum>  (16) 
1

>  <i_i_glide_posenum>  (16) 
14

>  <r_i_glide_eff_state_penalty>  (16) 
0

>  <ligand_id>  (16) 
8

>  <original_smiles>  (16) 
Cc1n[nH]c(C)c1C1N=c2ccccc2=C2N(C)C(=O)CCN21

>  <smiles>  (16) 
[H]c1c([H])c([H])c2c(c1[H])=NC([H])(c1c(C([H])([H])[H])nn([H])c1C([H])([H])[H])N1C=2N(C([H])([H])[H])C(=O)C([H])([H])C1([H])[H]

$$$$
8:0:2
     RDKit          3D

 42 45  0  0  1  0  0  0  0  0999 V2000
   -1.3507   -9.6686    2.4020 C   0  0  0  0  0  0  0  0  0  0  0  0
    0.1096   -9.6896    2.7553 C   0  0  0  0  0  0  0  0  0  0  0  0
    0.6250  -10.8266    3.1917 N   0  0  0  0  0  0  0  0  0  0  0  0
    1.9213  -10.5398    3.4012 N   0  0  0  0  0  0  0  0  0  0  0  0
    2.2348   -9.2287    3.1119 C   0  0  0  0  0  0  0  0  0  0  0  0
    3.6327   -8.7249    3.2931 C   0  0  0  0  0  0  0  0  0  0  0  0
    1.0763   -8.6339    2.6802 C   0  0  0  0  0  0  0  0  0  0  0  0
    0.8206   -7.2054    2.2339 C   0  0  2  0  0  0  0  0  0  0  0  0
    1.8546   -6.8144    1.2807 N   0  0  0  0  0  0  0  0  0  0  0  0
    2.5737   -5.7737    1.4424 C   0  0  0  0  0  0  0  0  0  0  0  0
    3.6634   -5.5164    0.4783 C   0  0  0  0  0  0  0  0  0  0  0  0
    4.4371   -4.4193    0.5985 C   0  0  0  0  0  0  0  0  0  0  0  0
    4.2495   -3.4907    1.6965 C   0  0  0  0  0  0  0  0  0  0  0  0
    3.2787   -3.6742    2.6097 C   0  0  0  0  0  0  0  0  0  0  0  0
    2.3390   -4.8003    2.5536 C   0  0  0  0  0  0  0  0  0  0  0  0
    1.3313   -5.0431    3.4391 C   0  0  0  0  0  0  0  0  0  0  0  0
    0.8952   -4.1035    4.4252 N   0  0  0  0  0  0  0  0  0  0  0  0
    0.9029   -2.6562    4.1551 C   0  0  0  0  0  0  0  0  0  0  0  0
    0.3147   -4.5209    5.5774 C   0  0  0  0  0  0  0  0  0  0  0  0
   -0.0713   -3.7649    6.4707 O   0  0  0  0  0  0  0  0  0  0  0  0
    0.0914   -6.0175    5.7512 C   0  0  0  0  0  0  0  0  0  0  0  0
   -0.3018   -6.6493    4.4097 C   0  0  0  0  0  0  0  0  0  0  0  0
    0.6370   -6.2597    3.3532 N   0  0  0  0  0  0  0  0  0  0  0  0
    2.5693  -11.2451    3.7291 H   0  0  0  0  0  0  0  0  0  0  0  0
   -1.6656   -8.7213    1.9692 H   0  0  0  0  0  0  0  0  0  0  0  0
   -1.9766   -9.8469    3.2765 H   0  0  0  0  0  0  0  0  0  0  0  0
   -1.5762  -10.4476    1.6800 H   0  0  0  0  0  0  0  0  0  0  0  0
    3.7161   -7.6652    3.0718 H   0  0  0  0  0  0  0  0  0  0  0  0
    4.3167   -9.2552    2.6306 H   0  0  0  0  0  0  0  0  0  0  0  0
    3.9688   -8.8591    4.3207 H   0  0  0  0  0  0  0  0  0  0  0  0
   -0.1141   -7.1786    1.6791 H   0  0  0  0  0  0  0  0  0  0  0  0
    3.7947   -6.2370   -0.3175 H   0  0  0  0  0  0  0  0  0  0  0  0
    5.2197   -4.2313   -0.1207 H   0  0  0  0  0  0  0  0  0  0  0  0
    4.9208   -2.6563    1.8135 H   0  0  0  0  0  0  0  0  0  0  0  0
    3.2622   -2.9805    3.4348 H   0  0  0  0  0  0  0  0  0  0  0  0
   -0.0205   -2.1759    4.4771 H   0  0  0  0  0  0  0  0  0  0  0  0
    0.9910   -2.4216    3.0941 H   0  0  0  0  0  0  0  0  0  0  0  0
    1.7131   -2.1777    4.7030 H   0  0  0  0  0  0  0  0  0  0  0  0
    1.0251   -6.4551    6.1049 H   0  0  0  0  0  0  0  0  0  0  0  0
   -0.6641   -6.1995    6.5164 H   0  0  0  0  0  0  0  0  0  0  0  0
   -0.3642   -7.7299    4.5420 H   0  0  0  0  0  0  0  0  0  0  0  0
   -1.3030   -6.3168    4.1290 H   0  0  0  0  0  0  0  0  0  0  0  0
  1  2  1  0
  1 25  1  0
  1 26  1  0
  1 27  1  0
  2  7  1  0
  2  3  2  0
  3  4  1  0
  4 24  1  0
  4  5  1  0
  5  6  1  0
  5  7  2  0
  6 28  1  0
  6 29  1  0
  6 30  1  0
  7  8  1  0
  8 23  1  0
  8  9  1  0
  8 31  1  6
  9 10  2  0
 10 15  1  0
 10 11  1  0
 11 12  2  0
 11 32  1  0
 12 13  1  0
 12 33  1  0
 13 14  2  0
 13 34  1  0
 14 15  1  0
 14 35  1  0
 15 16  2  0
 16 23  1  0
 16 17  1  0
 17 18  1  0
 17 19  1  0
 18 36  1  0
 18 37  1  0
 18 38  1  0
 19 20  2  0
 19 21  1  0
 21 22  1  0
 21 39  1  0
 21 40  1  0
 22 23  1  0
 22 41  1  0
 22 42  1  0
M  END
>  <i_m_ct_stereo_status>  (17) 
1

>  <s_m_source_file>  (17) 
/var/tmp/pbs.5076255.sched01/tmp_578sd5a/06fbc0iir.sdf

>  <i_m_source_file_index>  (17) 
10

>  <i_lp_mmshare_version>  (17) 
48012

>  <i_f3d_flags>  (17) 
0

>  <s_epik_input>  (17) 
W0NIM11jMW5bbkhdYyhbQ0gzXSljMVtDQEhdKE49MilOKFtDSDJdW0NIMl1DKD1PKU4zW0NIM10pQzM9YyhjMjQpW2NIXVtjSF1bY0hdW2NIXTQ=

>  <s_epik_cmdline>  (17) 
J2VwaWtfcHl0aG9uJywgJy1waHQnLCAnMi4wJywgJy1waCcsICc3LjAnLCAnLXRuJywgJzgnLCAnLW1hJywgJzIwMCcsICctaW1hZScsICc8aW5maWxlLm1hZT4nLCAnLW9tYWUnLCAnPG91dGZpbGUubWFlPic=

>  <r_lp_tautomer_probability>  (17) 
1

>  <r_epik_Ionization_Penalty>  (17) 
8.63771e-05

>  <r_epik_Ionization_Penalty_Charging>  (17) 
0

>  <r_epik_Ionization_Penalty_Neutral>  (17) 
8.63771e-05

>  <r_epik_State_Penalty>  (17) 
-0

>  <r_epik_Charging_Adjusted_Penalty>  (17) 
0

>  <i_epik_Tot_Q>  (17) 
0

>  <i_epik_Tot_abs_Q>  (17) 
0

>  <s_epik_Chemistry_Notes>  (17) 
This compound has an imine and may undergo hydrolysis. This compound contains an acetal/aminal-like group ( X-CH(R)-Y where X, Y are N, S, or O) that may be acid/base labile, releasing an aldehyde.

>  <s_lp_Force_Field>  (17) 
OPLS3e

>  <r_lp_Energy>  (17) 
53.5336

>  <b_lp_Chiralities_Consistent>  (17) 
1

>  <s_lp_Variant>  (17) 
8:0-1

>  <s_i_glide_gridfile>  (17) 
pfpi4k_grid

>  <i_i_glide_lignum>  (17) 
10

>  <i_i_glide_rotatable_bonds>  (17) 
1

>  <r_i_docking_score>  (17) 
-2.96285

>  <r_i_glide_ligand_efficiency>  (17) 
-0.12882

>  <r_i_glide_ligand_efficiency_sa>  (17) 
-0.366346

>  <r_i_glide_ligand_efficiency_ln>  (17) 
-0.716445

>  <r_i_glide_gscore>  (17) 
-2.96285

>  <r_i_glide_lipo>  (17) 
-0.277048

>  <r_i_glide_hbond>  (17) 
0

>  <r_i_glide_metal>  (17) 
-0

>  <r_i_glide_rewards>  (17) 
-1.30894

>  <r_i_glide_evdw>  (17) 
-24.9937

>  <r_i_glide_ecoul>  (17) 
-1.49136

>  <r_i_glide_erotb>  (17) 
0.193456

>  <r_i_glide_esite>  (17) 
-0.0969361

>  <r_i_glide_emodel>  (17) 
-31.1721

>  <r_i_glide_energy>  (17) 
-26.4851

>  <r_i_glide_einternal>  (17) 
0.937856

>  <r_i_glide_intrahb_reward>  (17) 
-0

>  <i_i_glide_confnum>  (17) 
2

>  <i_i_glide_posenum>  (17) 
6

>  <r_i_glide_eff_state_penalty>  (17) 
0

>  <ligand_id>  (17) 
8

>  <original_smiles>  (17) 
Cc1n[nH]c(C)c1C1N=c2ccccc2=C2N(C)C(=O)CCN21

>  <smiles>  (17) 
[H]c1c([H])c([H])c2c(c1[H])=NC([H])(c1c(C([H])([H])[H])nn([H])c1C([H])([H])[H])N1C=2N(C([H])([H])[H])C(=O)C([H])([H])C1([H])[H]

$$$$
9:0:0
     RDKit          3D

 14 14  0  0  1  0  0  0  0  0999 V2000
   -0.5152   -8.1058    2.0586 C   0  0  0  0  0  0  0  0  0  0  0  0
    0.0165   -7.0488    2.8481 O   0  0  0  0  0  0  0  0  0  0  0  0
    1.0236   -6.2800    2.3083 C   0  0  0  0  0  0  0  0  0  0  0  0
    1.8198   -5.4848    3.1636 C   0  0  0  0  0  0  0  0  0  0  0  0
    2.8068   -4.6888    2.6943 N   0  0  0  0  0  0  0  0  0  0  0  0
    3.0041   -4.6976    1.3566 C   0  0  0  0  0  0  0  0  0  0  0  0
    2.2103   -5.4829    0.4957 C   0  0  0  0  0  0  0  0  0  0  0  0
    1.2055   -6.2646    0.9618 N   0  0  0  0  0  0  0  0  0  0  0  0
   -1.2806   -8.6241    2.6368 H   0  0  0  0  0  0  0  0  0  0  0  0
    0.2624   -8.8322    1.8162 H   0  0  0  0  0  0  0  0  0  0  0  0
   -0.9838   -7.7528    1.1390 H   0  0  0  0  0  0  0  0  0  0  0  0
    1.6655   -5.4889    4.2324 H   0  0  0  0  0  0  0  0  0  0  0  0
    3.7848   -4.0590    0.9720 H   0  0  0  0  0  0  0  0  0  0  0  0
    2.3518   -5.4549   -0.5747 H   0  0  0  0  0  0  0  0  0  0  0  0
  1  2  1  0
  1  9  1  0
  1 10  1  0
  1 11  1  0
  2  3  1  0
  3  8  2  0
  3  4  1  0
  4  5  2  0
  4 12  1  0
  5  6  1  0
  6  7  2  0
  6 13  1  0
  7  8  1  0
  7 14  1  0
M  END
>  <i_m_ct_stereo_status>  (18) 
1

>  <s_m_source_file>  (18) 
/var/tmp/pbs.5076255.sched01/tmp_578sd5a/06fbc0iir.sdf

>  <i_m_source_file_index>  (18) 
11

>  <i_lp_mmshare_version>  (18) 
48012

>  <i_f3d_flags>  (18) 
0

>  <s_epik_input>  (18) 
W0NIM11PYzFbY0hdbltjSF1bY0hdbjE=

>  <s_epik_cmdline>  (18) 
J2VwaWtfcHl0aG9uJywgJy1waHQnLCAnMi4wJywgJy1waCcsICc3LjAnLCAnLXRuJywgJzgnLCAnLW1hJywgJzIwMCcsICctaW1hZScsICc8aW5maWxlLm1hZT4nLCAnLW9tYWUnLCAnPG91dGZpbGUubWFlPic=

>  <r_lp_tautomer_probability>  (18) 
1

>  <r_epik_Ionization_Penalty>  (18) 
1.09139e-07

>  <r_epik_Ionization_Penalty_Charging>  (18) 
0

>  <r_epik_Ionization_Penalty_Neutral>  (18) 
1.09139e-07

>  <r_epik_State_Penalty>  (18) 
-0

>  <r_epik_Charging_Adjusted_Penalty>  (18) 
0

>  <i_epik_Tot_Q>  (18) 
0

>  <i_epik_Tot_abs_Q>  (18) 
0

>  <s_lp_Force_Field>  (18) 
OPLS3e

>  <r_lp_Energy>  (18) 
15.1006

>  <b_lp_Chiralities_Consistent>  (18) 
1

>  <s_lp_Variant>  (18) 
9:0-1

>  <s_i_glide_gridfile>  (18) 
pfpi4k_grid

>  <i_i_glide_lignum>  (18) 
11

>  <i_i_glide_rotatable_bonds>  (18) 
1

>  <r_i_docking_score>  (18) 
-3.27771

>  <r_i_glide_ligand_efficiency>  (18) 
-0.409713

>  <r_i_glide_ligand_efficiency_sa>  (18) 
-0.819426

>  <r_i_glide_ligand_efficiency_ln>  (18) 
-1.06438

>  <r_i_glide_gscore>  (18) 
-3.27771

>  <r_i_glide_lipo>  (18) 
0

>  <r_i_glide_hbond>  (18) 
-0.147391

>  <r_i_glide_metal>  (18) 
-0

>  <r_i_glide_rewards>  (18) 
-2.25

>  <r_i_glide_evdw>  (18) 
-8.80135

>  <r_i_glide_ecoul>  (18) 
-2.93498

>  <r_i_glide_erotb>  (18) 
0

>  <r_i_glide_esite>  (18) 
0

>  <r_i_glide_emodel>  (18) 
-14.0057

>  <r_i_glide_energy>  (18) 
-11.7363

>  <r_i_glide_einternal>  (18) 
0.693228

>  <r_i_glide_intrahb_reward>  (18) 
-0

>  <i_i_glide_confnum>  (18) 
2

>  <i_i_glide_posenum>  (18) 
6

>  <r_i_glide_eff_state_penalty>  (18) 
0

>  <ligand_id>  (18) 
9

>  <original_smiles>  (18) 
COc1cnccn1

>  <smiles>  (18) 
[H]c1nc([H])c(OC([H])([H])[H])nc1[H]

$$$$
9:0:1
     RDKit          3D

 14 14  0  0  1  0  0  0  0  0999 V2000
   -0.6194   -4.2129    6.5032 C   0  0  0  0  0  0  0  0  0  0  0  0
   -1.4080   -3.0301    6.4807 O   0  0  0  0  0  0  0  0  0  0  0  0
   -0.9792   -2.0091    5.6574 C   0  0  0  0  0  0  0  0  0  0  0  0
    0.1841   -2.0632    4.8408 C   0  0  0  0  0  0  0  0  0  0  0  0
    0.5531   -1.0306    4.0541 N   0  0  0  0  0  0  0  0  0  0  0  0
   -0.2347    0.0628    4.0762 C   0  0  0  0  0  0  0  0  0  0  0  0
   -1.3923    0.1229    4.8842 C   0  0  0  0  0  0  0  0  0  0  0  0
   -1.7703   -0.9099    5.6738 N   0  0  0  0  0  0  0  0  0  0  0  0
   -1.0557   -4.9482    7.1852 H   0  0  0  0  0  0  0  0  0  0  0  0
    0.3907   -3.9956    6.8506 H   0  0  0  0  0  0  0  0  0  0  0  0
   -0.5721   -4.6709    5.5138 H   0  0  0  0  0  0  0  0  0  0  0  0
    0.8347   -2.9241    4.7891 H   0  0  0  0  0  0  0  0  0  0  0  0
    0.0584    0.8914    3.4500 H   0  0  0  0  0  0  0  0  0  0  0  0
   -2.0123    1.0104    4.8966 H   0  0  0  0  0  0  0  0  0  0  0  0
  1  2  1  0
  1  9  1  0
  1 10  1  0
  1 11  1  0
  2  3  1  0
  3  8  2  0
  3  4  1  0
  4  5  2  0
  4 12  1  0
  5  6  1  0
  6  7  2  0
  6 13  1  0
  7  8  1  0
  7 14  1  0
M  END
>  <i_m_ct_stereo_status>  (19) 
1

>  <s_m_source_file>  (19) 
/var/tmp/pbs.5076255.sched01/tmp_578sd5a/06fbc0iir.sdf

>  <i_m_source_file_index>  (19) 
11

>  <i_lp_mmshare_version>  (19) 
48012

>  <i_f3d_flags>  (19) 
0

>  <s_epik_input>  (19) 
W0NIM11PYzFbY0hdbltjSF1bY0hdbjE=

>  <s_epik_cmdline>  (19) 
J2VwaWtfcHl0aG9uJywgJy1waHQnLCAnMi4wJywgJy1waCcsICc3LjAnLCAnLXRuJywgJzgnLCAnLW1hJywgJzIwMCcsICctaW1hZScsICc8aW5maWxlLm1hZT4nLCAnLW9tYWUnLCAnPG91dGZpbGUubWFlPic=

>  <r_lp_tautomer_probability>  (19) 
1

>  <r_epik_Ionization_Penalty>  (19) 
1.09139e-07

>  <r_epik_Ionization_Penalty_Charging>  (19) 
0

>  <r_epik_Ionization_Penalty_Neutral>  (19) 
1.09139e-07

>  <r_epik_State_Penalty>  (19) 
-0

>  <r_epik_Charging_Adjusted_Penalty>  (19) 
0

>  <i_epik_Tot_Q>  (19) 
0

>  <i_epik_Tot_abs_Q>  (19) 
0

>  <s_lp_Force_Field>  (19) 
OPLS3e

>  <r_lp_Energy>  (19) 
15.1006

>  <b_lp_Chiralities_Consistent>  (19) 
1

>  <s_lp_Variant>  (19) 
9:0-1

>  <s_i_glide_gridfile>  (19) 
pfpi4k_grid

>  <i_i_glide_lignum>  (19) 
11

>  <i_i_glide_rotatable_bonds>  (19) 
1

>  <r_i_docking_score>  (19) 
-3.11059

>  <r_i_glide_ligand_efficiency>  (19) 
-0.388823

>  <r_i_glide_ligand_efficiency_sa>  (19) 
-0.777647

>  <r_i_glide_ligand_efficiency_ln>  (19) 
-1.01011

>  <r_i_glide_gscore>  (19) 
-3.11059

>  <r_i_glide_lipo>  (19) 
-0.0104634

>  <r_i_glide_hbond>  (19) 
-0.0304015

>  <r_i_glide_metal>  (19) 
-0

>  <r_i_glide_rewards>  (19) 
-2.25

>  <r_i_glide_evdw>  (19) 
-9.25557

>  <r_i_glide_ecoul>  (19) 
-2.37963

>  <r_i_glide_erotb>  (19) 
0

>  <r_i_glide_esite>  (19) 
0

>  <r_i_glide_emodel>  (19) 
-12.3668

>  <r_i_glide_energy>  (19) 
-11.6352

>  <r_i_glide_einternal>  (19) 
3.88631

>  <r_i_glide_intrahb_reward>  (19) 
-0

>  <i_i_glide_confnum>  (19) 
2

>  <i_i_glide_posenum>  (19) 
28

>  <r_i_glide_eff_state_penalty>  (19) 
0

>  <ligand_id>  (19) 
9

>  <original_smiles>  (19) 
COc1cnccn1

>  <smiles>  (19) 
[H]c1nc([H])c(OC([H])([H])[H])nc1[H]

$$$$
9:0:2
     RDKit          3D

 14 14  0  0  1  0  0  0  0  0999 V2000
   -0.5151   -2.3437    5.5523 C   0  0  0  0  0  0  0  0  0  0  0  0
   -1.1932   -1.0936    5.5536 O   0  0  0  0  0  0  0  0  0  0  0  0
   -0.8031   -0.1463    4.6273 C   0  0  0  0  0  0  0  0  0  0  0  0
   -1.3885    1.1389    4.6625 C   0  0  0  0  0  0  0  0  0  0  0  0
   -1.0707    2.1017    3.7721 N   0  0  0  0  0  0  0  0  0  0  0  0
   -0.1609    1.7708    2.8285 C   0  0  0  0  0  0  0  0  0  0  0  0
    0.4337    0.4903    2.7855 C   0  0  0  0  0  0  0  0  0  0  0  0
    0.1246   -0.4702    3.6878 N   0  0  0  0  0  0  0  0  0  0  0  0
   -0.9323   -2.9670    6.3420 H   0  0  0  0  0  0  0  0  0  0  0  0
    0.5489   -2.2187    5.7557 H   0  0  0  0  0  0  0  0  0  0  0  0
   -0.6327   -2.8770    4.6085 H   0  0  0  0  0  0  0  0  0  0  0  0
   -2.1230    1.3956    5.4115 H   0  0  0  0  0  0  0  0  0  0  0  0
    0.1000    2.5350    2.1080 H   0  0  0  0  0  0  0  0  0  0  0  0
    1.1505    0.2359    2.0183 H   0  0  0  0  0  0  0  0  0  0  0  0
  1  2  1  0
  1  9  1  0
  1 10  1  0
  1 11  1  0
  2  3  1  0
  3  8  2  0
  3  4  1  0
  4  5  2  0
  4 12  1  0
  5  6  1  0
  6  7  2  0
  6 13  1  0
  7  8  1  0
  7 14  1  0
M  END
>  <i_m_ct_stereo_status>  (20) 
1

>  <s_m_source_file>  (20) 
/var/tmp/pbs.5076255.sched01/tmp_578sd5a/06fbc0iir.sdf

>  <i_m_source_file_index>  (20) 
11

>  <i_lp_mmshare_version>  (20) 
48012

>  <i_f3d_flags>  (20) 
0

>  <s_epik_input>  (20) 
W0NIM11PYzFbY0hdbltjSF1bY0hdbjE=

>  <s_epik_cmdline>  (20) 
J2VwaWtfcHl0aG9uJywgJy1waHQnLCAnMi4wJywgJy1waCcsICc3LjAnLCAnLXRuJywgJzgnLCAnLW1hJywgJzIwMCcsICctaW1hZScsICc8aW5maWxlLm1hZT4nLCAnLW9tYWUnLCAnPG91dGZpbGUubWFlPic=

>  <r_lp_tautomer_probability>  (20) 
1

>  <r_epik_Ionization_Penalty>  (20) 
1.09139e-07

>  <r_epik_Ionization_Penalty_Charging>  (20) 
0

>  <r_epik_Ionization_Penalty_Neutral>  (20) 
1.09139e-07

>  <r_epik_State_Penalty>  (20) 
-0

>  <r_epik_Charging_Adjusted_Penalty>  (20) 
0

>  <i_epik_Tot_Q>  (20) 
0

>  <i_epik_Tot_abs_Q>  (20) 
0

>  <s_lp_Force_Field>  (20) 
OPLS3e

>  <r_lp_Energy>  (20) 
15.1006

>  <b_lp_Chiralities_Consistent>  (20) 
1

>  <s_lp_Variant>  (20) 
9:0-1

>  <s_i_glide_gridfile>  (20) 
pfpi4k_grid

>  <i_i_glide_lignum>  (20) 
11

>  <i_i_glide_rotatable_bonds>  (20) 
1

>  <r_i_docking_score>  (20) 
-2.81233

>  <r_i_glide_ligand_efficiency>  (20) 
-0.351541

>  <r_i_glide_ligand_efficiency_sa>  (20) 
-0.703083

>  <r_i_glide_ligand_efficiency_ln>  (20) 
-0.91326

>  <r_i_glide_gscore>  (20) 
-2.81233

>  <r_i_glide_lipo>  (20) 
0

>  <r_i_glide_hbond>  (20) 
0

>  <r_i_glide_metal>  (20) 
-0

>  <r_i_glide_rewards>  (20) 
-2.25

>  <r_i_glide_evdw>  (20) 
-10.0302

>  <r_i_glide_ecoul>  (20) 
-0.405473

>  <r_i_glide_erotb>  (20) 
0

>  <r_i_glide_esite>  (20) 
0

>  <r_i_glide_emodel>  (20) 
-12.8136

>  <r_i_glide_energy>  (20) 
-10.4357

>  <r_i_glide_einternal>  (20) 
0.0652001

>  <r_i_glide_intrahb_reward>  (20) 
-0

>  <i_i_glide_confnum>  (20) 
1

>  <i_i_glide_posenum>  (20) 
27

>  <r_i_glide_eff_state_penalty>  (20) 
0

>  <ligand_id>  (20) 
9

>  <original_smiles>  (20) 
COc1cnccn1

>  <smiles>  (20) 
[H]c1nc([H])c(OC([H])([H])[H])nc1[H]

$$$$
10:0:0
     RDKit          3D

 67 72  0  0  1  0  0  0  0  0999 V2000
    4.4565   -0.2717    2.9993 C   0  0  0  0  0  0  0  0  0  0  0  0
    4.3075   -1.5910    2.7788 C   0  0  0  0  0  0  0  0  0  0  0  0
    4.9128   -2.6795    3.6376 C   0  0  1  0  0  0  0  0  0  0  0  0
    5.1389   -2.5241    5.1589 C   0  0  1  0  0  0  0  0  0  0  0  0
    4.2474   -1.6148    5.7579 O   0  0  0  0  0  0  0  0  0  0  0  0
    5.0002   -3.8075    5.6974 O   0  0  0  0  0  0  0  0  0  0  0  0
    4.6049   -4.7811    4.7224 C   0  0  0  0  0  0  0  0  0  0  0  0
    4.1485   -3.9954    3.4655 C   0  0  1  0  0  0  0  0  0  0  0  0
    2.5932   -3.7437    3.4935 C   0  0  1  0  0  0  0  0  0  0  0  0
    1.9000   -3.4354    4.8531 C   0  0  0  0  0  0  0  0  0  0  0  0
    2.2278   -2.7509    2.3600 C   0  0  1  0  0  0  0  0  0  0  0  0
    1.4533   -1.6685    2.8527 O   0  0  0  0  0  0  0  0  0  0  0  0
    3.4977   -2.2111    1.6240 C   0  0  1  0  0  0  0  0  0  0  0  0
    3.0188   -1.1995    0.7442 O   0  0  0  0  0  0  0  0  0  0  0  0
    4.3500   -3.3887    0.8726 C   0  0  2  0  0  0  0  0  0  0  0  0
    3.5234   -3.9300   -0.4019 C   0  0  1  0  0  0  0  0  0  0  0  0
    2.1890   -4.3002   -0.2520 O   0  0  0  0  0  0  0  0  0  0  0  0
    3.4376   -3.0295   -1.6671 C   0  0  0  0  0  0  0  0  0  0  0  0
    4.8147   -2.6580   -2.1587 C   0  0  0  0  0  0  0  0  0  0  0  0
    5.0001   -1.9599   -3.1491 O   0  0  0  0  0  0  0  0  0  0  0  0
    5.9221   -3.2624   -1.3166 C   0  0  1  0  0  0  0  0  0  0  0  0
    7.3709   -3.0550   -1.7532 C   0  0  0  0  0  0  0  0  0  0  0  0
    8.1562   -3.2644   -0.4613 C   0  0  0  0  0  0  0  0  0  0  0  0
    7.1023   -3.5773    0.6383 C   0  0  2  0  0  0  0  0  0  0  0  0
    6.8949   -5.0780    0.8920 C   0  0  1  0  0  0  0  0  0  0  0  0
    8.1980   -5.8748    1.1278 C   0  0  0  0  0  0  0  0  0  0  0  0
    6.0225   -5.1452    2.1240 C   0  0  0  0  0  0  0  0  0  0  0  0
    4.5664   -4.5642    2.0190 C   0  0  1  0  0  0  0  0  0  0  0  0
    3.7509   -5.8741    1.7369 C   0  0  0  0  0  0  0  0  0  0  0  0
    5.7798   -2.8870    0.1942 C   0  0  2  0  0  0  0  0  0  0  0  0
    6.0377   -1.3486    0.3089 C   0  0  0  0  0  0  0  0  0  0  0  0
    3.9778    0.4440    2.3551 H   0  0  0  0  0  0  0  0  0  0  0  0
    5.0583    0.1110    3.8086 H   0  0  0  0  0  0  0  0  0  0  0  0
    5.9087   -2.7684    3.2259 H   0  0  0  0  0  0  0  0  0  0  0  0
    6.1482   -2.1663    5.3796 H   0  0  0  0  0  0  0  0  0  0  0  0
    4.2648   -0.8161    5.2617 H   0  0  0  0  0  0  0  0  0  0  0  0
    5.4647   -5.4273    4.5585 H   0  0  0  0  0  0  0  0  0  0  0  0
    3.8261   -5.4409    5.1109 H   0  0  0  0  0  0  0  0  0  0  0  0
    2.1120   -4.6886    3.2596 H   0  0  0  0  0  0  0  0  0  0  0  0
    2.0268   -2.4092    5.1930 H   0  0  0  0  0  0  0  0  0  0  0  0
    2.2189   -4.0899    5.6633 H   0  0  0  0  0  0  0  0  0  0  0  0
    0.8238   -3.5828    4.7498 H   0  0  0  0  0  0  0  0  0  0  0  0
    1.5451   -3.2584    1.7055 H   0  0  0  0  0  0  0  0  0  0  0  0
    1.2770   -1.0848    2.1276 H   0  0  0  0  0  0  0  0  0  0  0  0
    2.2256   -1.4821    0.2868 H   0  0  0  0  0  0  0  0  0  0  0  0
    3.9775   -4.8701   -0.7205 H   0  0  0  0  0  0  0  0  0  0  0  0
    1.9134   -4.6470   -1.0893 H   0  0  0  0  0  0  0  0  0  0  0  0
    2.9451   -3.5606   -2.4821 H   0  0  0  0  0  0  0  0  0  0  0  0
    2.8590   -2.1215   -1.5124 H   0  0  0  0  0  0  0  0  0  0  0  0
    5.7874   -4.3338   -1.4309 H   0  0  0  0  0  0  0  0  0  0  0  0
    7.6476   -3.8104   -2.4891 H   0  0  0  0  0  0  0  0  0  0  0  0
    7.5585   -2.0834   -2.1959 H   0  0  0  0  0  0  0  0  0  0  0  0
    8.9263   -4.0223   -0.5838 H   0  0  0  0  0  0  0  0  0  0  0  0
    8.6908   -2.3459   -0.2135 H   0  0  0  0  0  0  0  0  0  0  0  0
    7.4518   -3.1316    1.5669 H   0  0  0  0  0  0  0  0  0  0  0  0
    6.3736   -5.5750    0.0776 H   0  0  0  0  0  0  0  0  0  0  0  0
    8.8297   -5.3993    1.8811 H   0  0  0  0  0  0  0  0  0  0  0  0
    8.7838   -6.0008    0.2164 H   0  0  0  0  0  0  0  0  0  0  0  0
    7.9807   -6.8868    1.4750 H   0  0  0  0  0  0  0  0  0  0  0  0
    5.9943   -6.1891    2.4333 H   0  0  0  0  0  0  0  0  0  0  0  0
    6.5962   -4.6827    2.9195 H   0  0  0  0  0  0  0  0  0  0  0  0
    4.1141   -6.4091    0.8556 H   0  0  0  0  0  0  0  0  0  0  0  0
    2.6841   -5.7350    1.5878 H   0  0  0  0  0  0  0  0  0  0  0  0
    3.8279   -6.5736    2.5727 H   0  0  0  0  0  0  0  0  0  0  0  0
    6.8679   -1.0147   -0.3040 H   0  0  0  0  0  0  0  0  0  0  0  0
    6.3240   -1.0506    1.3170 H   0  0  0  0  0  0  0  0  0  0  0  0
    5.2095   -0.7317   -0.0339 H   0  0  0  0  0  0  0  0  0  0  0  0
  1  2  2  0
  1 32  1  0
  1 33  1  0
  2 13  1  0
  2  3  1  0
  3  8  1  0
  3  4  1  0
  3 34  1  6
  4  5  1  0
  4  6  1  0
  4 35  1  6
  5 36  1  0
  6  7  1  0
  8  7  1  1
  7 37  1  0
  7 38  1  0
  8 28  1  0
  8  9  1  0
  9 10  1  0
  9 11  1  0
  9 39  1  6
 10 40  1  0
 10 41  1  0
 10 42  1  0
 11 12  1  0
 11 13  1  0
 11 43  1  6
 12 44  1  0
 13 14  1  6
 15 13  1  1
 14 45  1  0
 15 28  1  0
 15 30  1  0
 15 16  1  0
 16 17  1  0
 16 18  1  0
 16 46  1  6
 17 47  1  0
 18 19  1  0
 18 48  1  0
 18 49  1  0
 19 20  2  0
 19 21  1  0
 21 30  1  0
 21 22  1  0
 21 50  1  1
 22 23  1  0
 22 51  1  0
 22 52  1  0
 23 24  1  0
 23 53  1  0
 23 54  1  0
 24 25  1  0
 24 30  1  0
 24 55  1  1
 25 26  1  0
 25 27  1  0
 25 56  1  6
 26 57  1  0
 26 58  1  0
 26 59  1  0
 27 28  1  0
 27 60  1  0
 27 61  1  0
 28 29  1  6
 29 62  1  0
 29 63  1  0
 29 64  1  0
 30 31  1  6
 31 65  1  0
 31 66  1  0
 31 67  1  0
M  END
>  <i_m_ct_stereo_status>  (21) 
1

>  <s_m_source_file>  (21) 
/var/tmp/pbs.5076255.sched01/tmp_578sd5a/06fbc0iir.sdf

>  <i_m_source_file_index>  (21) 
12

>  <i_lp_mmshare_version>  (21) 
48012

>  <i_f3d_flags>  (21) 
0

>  <s_epik_input>  (21) 
W0NIMl0xT1tDQEhdKFtPSF0pW0NAQEhdKFtDQEBdMTIzKUMoPVtDSDJdKVtDQF0oW09IXSkoW0NASF0oW09IXSlbQ0BASF0yW0NIM10pW0NAQF00NVtDQEBdMyhbQ0gzXSlbQ0gyXVtDQEhdKFtDSDNdKVtDQEBIXTZbQ0BAXTUoW0NIM10pW0NASF0oW0NIMl1bQ0gyXTYpQyg9TylbQ0gyXVtDQEBIXTRbT0hd

>  <s_epik_cmdline>  (21) 
J2VwaWtfcHl0aG9uJywgJy1waHQnLCAnMi4wJywgJy1waCcsICc3LjAnLCAnLXRuJywgJzgnLCAnLW1hJywgJzIwMCcsICctaW1hZScsICc8aW5maWxlLm1hZT4nLCAnLW9tYWUnLCAnPG91dGZpbGUubWFlPic=

>  <r_lp_tautomer_probability>  (21) 
1

>  <r_epik_Ionization_Penalty>  (21) 
2.30238e-07

>  <r_epik_Ionization_Penalty_Charging>  (21) 
0

>  <r_epik_Ionization_Penalty_Neutral>  (21) 
2.30238e-07

>  <r_epik_State_Penalty>  (21) 
-0

>  <r_epik_Charging_Adjusted_Penalty>  (21) 
0

>  <i_epik_Tot_Q>  (21) 
0

>  <i_epik_Tot_abs_Q>  (21) 
0

>  <s_epik_Chemistry_Notes>  (21) 
This compound contains an acetal/aminal-like group ( X-CH(R)-Y where X, Y are N, S, or O) that may be acid/base labile, releasing an aldehyde.

>  <s_lp_Force_Field>  (21) 
OPLS3e

>  <r_lp_Energy>  (21) 
115.535

>  <b_lp_Chiralities_Consistent>  (21) 
1

>  <s_lp_Variant>  (21) 
10:0-1

>  <s_i_glide_gridfile>  (21) 
pfpi4k_grid

>  <i_i_glide_lignum>  (21) 
12

>  <i_i_glide_rotatable_bonds>  (21) 
4

>  <r_i_docking_score>  (21) 
-3.78481

>  <r_i_glide_ligand_efficiency>  (21) 
-0.122091

>  <r_i_glide_ligand_efficiency_sa>  (21) 
-0.383533

>  <r_i_glide_ligand_efficiency_ln>  (21) 
-0.853591

>  <r_i_glide_gscore>  (21) 
-3.78481

>  <r_i_glide_lipo>  (21) 
-0.877307

>  <r_i_glide_hbond>  (21) 
0

>  <r_i_glide_metal>  (21) 
-0

>  <r_i_glide_rewards>  (21) 
-0.585409

>  <r_i_glide_evdw>  (21) 
-28.3196

>  <r_i_glide_ecoul>  (21) 
-6.04077

>  <r_i_glide_erotb>  (21) 
0

>  <r_i_glide_esite>  (21) 
0

>  <r_i_glide_emodel>  (21) 
-42.098

>  <r_i_glide_energy>  (21) 
-34.3603

>  <r_i_glide_einternal>  (21) 
2.95335

>  <r_i_glide_intrahb_reward>  (21) 
-0

>  <i_i_glide_confnum>  (21) 
1

>  <i_i_glide_posenum>  (21) 
28

>  <r_i_glide_eff_state_penalty>  (21) 
0

>  <ligand_id>  (21) 
10

>  <original_smiles>  (21) 
C=C1C2C(O)OCC23C(C)C(O)C1(O)C12C(O)CC(=O)C4CCC(C(C)CC31C)C42C

>  <smiles>  (21) 
[H]OC1([H])OC([H])([H])C23C1([H])C(=C([H])[H])C(O[H])(C([H])(O[H])C2([H])C([H])([H])[H])C12C([H])(O[H])C([H])([H])C(=O)C4([H])C([H])([H])C([H])([H])C([H])(C([H])(C([H])([H])[H])C([H])([H])C31C([H])([H])[H])C42C([H])([H])[H]

$$$$
10:0:1
     RDKit          3D

 67 72  0  0  1  0  0  0  0  0999 V2000
    1.9904    4.2767    5.4240 C   0  0  0  0  0  0  0  0  0  0  0  0
    1.2826    3.1490    5.2215 C   0  0  0  0  0  0  0  0  0  0  0  0
    0.5927    2.3685    6.3243 C   0  0  1  0  0  0  0  0  0  0  0  0
   -0.0005    3.0330    7.5806 C   0  0  1  0  0  0  0  0  0  0  0  0
   -0.3992    4.3749    7.3653 O   0  0  0  0  0  0  0  0  0  0  0  0
   -1.0958    2.2395    7.9528 O   0  0  0  0  0  0  0  0  0  0  0  0
   -1.3613    1.2040    7.0014 C   0  0  0  0  0  0  0  0  0  0  0  0
   -0.5267    1.5048    5.7368 C   0  0  1  0  0  0  0  0  0  0  0  0
   -1.3711    2.3170    4.6839 C   0  0  1  0  0  0  0  0  0  0  0  0
   -2.3686    3.3787    5.2000 C   0  0  0  0  0  0  0  0  0  0  0  0
   -0.4461    2.8231    3.5426 C   0  0  1  0  0  0  0  0  0  0  0  0
   -0.6101    4.2212    3.2831 O   0  0  0  0  0  0  0  0  0  0  0  0
    1.0554    2.4662    3.8601 C   0  0  1  0  0  0  0  0  0  0  0  0
    1.8046    3.0992    2.8341 O   0  0  0  0  0  0  0  0  0  0  0  0
    1.3420    0.8553    3.9427 C   0  0  2  0  0  0  0  0  0  0  0  0
    1.2062    0.2178    2.4581 C   0  0  1  0  0  0  0  0  0  0  0  0
    0.0772    0.5502    1.6846 O   0  0  0  0  0  0  0  0  0  0  0  0
    2.3718    0.4666    1.4612 C   0  0  0  0  0  0  0  0  0  0  0  0
    3.7041    0.0230    2.0144 C   0  0  0  0  0  0  0  0  0  0  0  0
    4.7545    0.0757    1.3778 O   0  0  0  0  0  0  0  0  0  0  0  0
    3.5932   -0.5418    3.4139 C   0  0  1  0  0  0  0  0  0  0  0  0
    4.8583   -1.1031    4.0613 C   0  0  0  0  0  0  0  0  0  0  0  0
    4.5215   -1.0476    5.5512 C   0  0  0  0  0  0  0  0  0  0  0  0
    3.0906   -0.4468    5.6636 C   0  0  2  0  0  0  0  0  0  0  0  0
    1.9807   -1.5013    5.7771 C   0  0  1  0  0  0  0  0  0  0  0  0
    2.2129   -2.5669    6.8732 C   0  0  0  0  0  0  0  0  0  0  0  0
    0.7284   -0.7143    6.0938 C   0  0  0  0  0  0  0  0  0  0  0  0
    0.2009    0.2761    4.9927 C   0  0  1  0  0  0  0  0  0  0  0  0
   -0.8913   -0.5998    4.3099 C   0  0  0  0  0  0  0  0  0  0  0  0
    2.8865    0.4429    4.3991 C   0  0  2  0  0  0  0  0  0  0  0  0
    3.8429    1.6653    4.5939 C   0  0  0  0  0  0  0  0  0  0  0  0
    2.4493    4.7921    4.5986 H   0  0  0  0  0  0  0  0  0  0  0  0
    2.1205    4.6957    6.4102 H   0  0  0  0  0  0  0  0  0  0  0  0
    1.3913    1.7468    6.7221 H   0  0  0  0  0  0  0  0  0  0  0  0
    0.7213    3.0517    8.3997 H   0  0  0  0  0  0  0  0  0  0  0  0
   -0.6644    4.7239    8.1922 H   0  0  0  0  0  0  0  0  0  0  0  0
   -1.0924    0.2750    7.4948 H   0  0  0  0  0  0  0  0  0  0  0  0
   -2.4304    1.1137    6.7919 H   0  0  0  0  0  0  0  0  0  0  0  0
   -2.0772    1.6239    4.2376 H   0  0  0  0  0  0  0  0  0  0  0  0
   -1.8912    4.3160    5.4732 H   0  0  0  0  0  0  0  0  0  0  0  0
   -2.9862    3.0570    6.0384 H   0  0  0  0  0  0  0  0  0  0  0  0
   -3.0517    3.6151    4.3878 H   0  0  0  0  0  0  0  0  0  0  0  0
   -0.8316    2.4107    2.6242 H   0  0  0  0  0  0  0  0  0  0  0  0
   -0.3543    4.3950    2.3704 H   0  0  0  0  0  0  0  0  0  0  0  0
    1.1965    3.4427    2.1918 H   0  0  0  0  0  0  0  0  0  0  0  0
    1.1210   -0.8630    2.5564 H   0  0  0  0  0  0  0  0  0  0  0  0
    0.1945    0.2694    0.7819 H   0  0  0  0  0  0  0  0  0  0  0  0
    2.2103   -0.1097    0.5496 H   0  0  0  0  0  0  0  0  0  0  0  0
    2.4349    1.5076    1.1621 H   0  0  0  0  0  0  0  0  0  0  0  0
    2.9724   -1.4223    3.2848 H   0  0  0  0  0  0  0  0  0  0  0  0
    5.0425   -2.1266    3.7365 H   0  0  0  0  0  0  0  0  0  0  0  0
    5.7514   -0.5210    3.8298 H   0  0  0  0  0  0  0  0  0  0  0  0
    4.6425   -2.0157    6.0277 H   0  0  0  0  0  0  0  0  0  0  0  0
    5.2307   -0.3858    6.0509 H   0  0  0  0  0  0  0  0  0  0  0  0
    3.0707    0.1593    6.5677 H   0  0  0  0  0  0  0  0  0  0  0  0
    1.8276   -2.0461    4.8505 H   0  0  0  0  0  0  0  0  0  0  0  0
    2.4656   -2.1056    7.8299 H   0  0  0  0  0  0  0  0  0  0  0  0
    3.0080   -3.2630    6.6091 H   0  0  0  0  0  0  0  0  0  0  0  0
    1.3214   -3.1779    7.0233 H   0  0  0  0  0  0  0  0  0  0  0  0
   -0.0438   -1.4394    6.3507 H   0  0  0  0  0  0  0  0  0  0  0  0
    0.9145   -0.2272    7.0450 H   0  0  0  0  0  0  0  0  0  0  0  0
   -0.4827   -1.5426    3.9340 H   0  0  0  0  0  0  0  0  0  0  0  0
   -1.3858   -0.1338    3.4615 H   0  0  0  0  0  0  0  0  0  0  0  0
   -1.6934   -0.8664    4.9992 H   0  0  0  0  0  0  0  0  0  0  0  0
    4.8925    1.3899    4.6775 H   0  0  0  0  0  0  0  0  0  0  0  0
    3.6405    2.2145    5.5114 H   0  0  0  0  0  0  0  0  0  0  0  0
    3.8340    2.3550    3.7533 H   0  0  0  0  0  0  0  0  0  0  0  0
  1  2  2  0
  1 32  1  0
  1 33  1  0
  2 13  1  0
  2  3  1  0
  3  8  1  0
  3  4  1  0
  3 34  1  1
  4  5  1  0
  4  6  1  0
  4 35  1  1
  5 36  1  0
  6  7  1  0
  8  7  1  1
  7 37  1  0
  7 38  1  0
  8 28  1  0
  8  9  1  0
  9 10  1  0
  9 11  1  0
  9 39  1  6
 10 40  1  0
 10 41  1  0
 10 42  1  0
 11 12  1  0
 11 13  1  0
 11 43  1  6
 12 44  1  0
 13 14  1  6
 15 13  1  6
 14 45  1  0
 15 28  1  0
 15 30  1  0
 15 16  1  0
 16 17  1  0
 16 18  1  0
 16 46  1  1
 17 47  1  0
 18 19  1  0
 18 48  1  0
 18 49  1  0
 19 20  2  0
 19 21  1  0
 21 30  1  0
 21 22  1  0
 21 50  1  6
 22 23  1  0
 22 51  1  0
 22 52  1  0
 23 24  1  0
 23 53  1  0
 23 54  1  0
 24 25  1  0
 24 30  1  0
 24 55  1  1
 25 26  1  0
 25 27  1  0
 25 56  1  6
 26 57  1  0
 26 58  1  0
 26 59  1  0
 27 28  1  0
 27 60  1  0
 27 61  1  0
 28 29  1  6
 29 62  1  0
 29 63  1  0
 29 64  1  0
 30 31  1  1
 31 65  1  0
 31 66  1  0
 31 67  1  0
M  END
>  <i_m_ct_stereo_status>  (22) 
1

>  <s_m_source_file>  (22) 
/var/tmp/pbs.5076255.sched01/tmp_578sd5a/06fbc0iir.sdf

>  <i_m_source_file_index>  (22) 
12

>  <i_lp_mmshare_version>  (22) 
48012

>  <i_f3d_flags>  (22) 
0

>  <s_epik_input>  (22) 
W0NIMl0xT1tDQEhdKFtPSF0pW0NAQEhdKFtDQEBdMTIzKUMoPVtDSDJdKVtDQF0oW09IXSkoW0NASF0oW09IXSlbQ0BASF0yW0NIM10pW0NAQF00NVtDQEBdMyhbQ0gzXSlbQ0gyXVtDQEhdKFtDSDNdKVtDQEBIXTZbQ0BAXTUoW0NIM10pW0NASF0oW0NIMl1bQ0gyXTYpQyg9TylbQ0gyXVtDQEBIXTRbT0hd

>  <s_epik_cmdline>  (22) 
J2VwaWtfcHl0aG9uJywgJy1waHQnLCAnMi4wJywgJy1waCcsICc3LjAnLCAnLXRuJywgJzgnLCAnLW1hJywgJzIwMCcsICctaW1hZScsICc8aW5maWxlLm1hZT4nLCAnLW9tYWUnLCAnPG91dGZpbGUubWFlPic=

>  <r_lp_tautomer_probability>  (22) 
1

>  <r_epik_Ionization_Penalty>  (22) 
2.30238e-07

>  <r_epik_Ionization_Penalty_Charging>  (22) 
0

>  <r_epik_Ionization_Penalty_Neutral>  (22) 
2.30238e-07

>  <r_epik_State_Penalty>  (22) 
-0

>  <r_epik_Charging_Adjusted_Penalty>  (22) 
0

>  <i_epik_Tot_Q>  (22) 
0

>  <i_epik_Tot_abs_Q>  (22) 
0

>  <s_epik_Chemistry_Notes>  (22) 
This compound contains an acetal/aminal-like group ( X-CH(R)-Y where X, Y are N, S, or O) that may be acid/base labile, releasing an aldehyde.

>  <s_lp_Force_Field>  (22) 
OPLS3e

>  <r_lp_Energy>  (22) 
115.535

>  <b_lp_Chiralities_Consistent>  (22) 
1

>  <s_lp_Variant>  (22) 
10:0-1

>  <s_i_glide_gridfile>  (22) 
pfpi4k_grid

>  <i_i_glide_lignum>  (22) 
12

>  <i_i_glide_rotatable_bonds>  (22) 
4

>  <r_i_docking_score>  (22) 
-3.28567

>  <r_i_glide_ligand_efficiency>  (22) 
-0.105989

>  <r_i_glide_ligand_efficiency_sa>  (22) 
-0.332953

>  <r_i_glide_ligand_efficiency_ln>  (22) 
-0.741019

>  <r_i_glide_gscore>  (22) 
-3.28567

>  <r_i_glide_lipo>  (22) 
-0.079655

>  <r_i_glide_hbond>  (22) 
-0.106498

>  <r_i_glide_metal>  (22) 
-0

>  <r_i_glide_rewards>  (22) 
-0.492897

>  <r_i_glide_evdw>  (22) 
-22.8411

>  <r_i_glide_ecoul>  (22) 
-9.7636

>  <r_i_glide_erotb>  (22) 
0

>  <r_i_glide_esite>  (22) 
-2.42531e-05

>  <r_i_glide_emodel>  (22) 
-39.5155

>  <r_i_glide_energy>  (22) 
-32.6047

>  <r_i_glide_einternal>  (22) 
2.17277

>  <r_i_glide_intrahb_reward>  (22) 
-0

>  <i_i_glide_confnum>  (22) 
2

>  <i_i_glide_posenum>  (22) 
33

>  <r_i_glide_eff_state_penalty>  (22) 
0

>  <ligand_id>  (22) 
10

>  <original_smiles>  (22) 
C=C1C2C(O)OCC23C(C)C(O)C1(O)C12C(O)CC(=O)C4CCC(C(C)CC31C)C42C

>  <smiles>  (22) 
[H]OC1([H])OC([H])([H])C23C1([H])C(=C([H])[H])C(O[H])(C([H])(O[H])C2([H])C([H])([H])[H])C12C([H])(O[H])C([H])([H])C(=O)C4([H])C([H])([H])C([H])([H])C([H])(C([H])(C([H])([H])[H])C([H])([H])C31C([H])([H])[H])C42C([H])([H])[H]

$$$$
10:0:2
     RDKit          3D

 67 72  0  0  1  0  0  0  0  0999 V2000
    4.0564   -1.0569    3.5860 C   0  0  0  0  0  0  0  0  0  0  0  0
    4.0786   -2.3591    3.2337 C   0  0  0  0  0  0  0  0  0  0  0  0
    4.8877   -3.4257    3.9375 C   0  0  1  0  0  0  0  0  0  0  0  0
    5.2039   -3.3845    5.4438 C   0  0  1  0  0  0  0  0  0  0  0  0
    4.2306   -2.6894    6.1833 O   0  0  0  0  0  0  0  0  0  0  0  0
    5.2961   -4.7210    5.8482 O   0  0  0  0  0  0  0  0  0  0  0  0
    4.9612   -5.6446    4.8013 C   0  0  0  0  0  0  0  0  0  0  0  0
    4.3078   -4.8207    3.6643 C   0  0  1  0  0  0  0  0  0  0  0  0
    2.7391   -4.8041    3.8098 C   0  0  1  0  0  0  0  0  0  0  0  0
    2.1024   -4.7348    5.2269 C   0  0  0  0  0  0  0  0  0  0  0  0
    2.1605   -3.7742    2.8117 C   0  0  1  0  0  0  0  0  0  0  0  0
    1.2733   -2.8597    3.4386 O   0  0  0  0  0  0  0  0  0  0  0  0
    3.2922   -2.9850    2.0704 C   0  0  1  0  0  0  0  0  0  0  0  0
    2.5901   -2.0091    1.3245 O   0  0  0  0  0  0  0  0  0  0  0  0
    4.2405   -3.9345    1.1408 C   0  0  2  0  0  0  0  0  0  0  0  0
    3.3819   -4.4507   -0.1294 C   0  0  1  0  0  0  0  0  0  0  0  0
    2.1257   -5.0638    0.0648 O   0  0  0  0  0  0  0  0  0  0  0  0
    3.1096   -3.4332   -1.2861 C   0  0  0  0  0  0  0  0  0  0  0  0
    4.3994   -2.8331   -1.8205 C   0  0  0  0  0  0  0  0  0  0  0  0
    4.4457   -2.0238   -2.7464 O   0  0  0  0  0  0  0  0  0  0  0  0
    5.6265   -3.3632   -1.1063 C   0  0  1  0  0  0  0  0  0  0  0  0
    6.9961   -2.8963   -1.5996 C   0  0  0  0  0  0  0  0  0  0  0  0
    7.8924   -3.1178   -0.3821 C   0  0  0  0  0  0  0  0  0  0  0  0
    6.9744   -3.6842    0.7397 C   0  0  2  0  0  0  0  0  0  0  0  0
    6.9954   -5.2181    0.8497 C   0  0  1  0  0  0  0  0  0  0  0  0
    8.4070   -5.8408    0.9190 C   0  0  0  0  0  0  0  0  0  0  0  0
    6.2285   -5.5381    2.1106 C   0  0  0  0  0  0  0  0  0  0  0  0
    4.6991   -5.1743    2.1414 C   0  0  1  0  0  0  0  0  0  0  0  0
    4.0614   -6.5526    1.7647 C   0  0  0  0  0  0  0  0  0  0  0  0
    5.5366   -3.1555    0.4424 C   0  0  2  0  0  0  0  0  0  0  0  0
    5.5884   -1.6083    0.7055 C   0  0  0  0  0  0  0  0  0  0  0  0
    3.4460   -0.3471    3.0556 H   0  0  0  0  0  0  0  0  0  0  0  0
    4.6399   -0.6909    4.4176 H   0  0  0  0  0  0  0  0  0  0  0  0
    5.8508   -3.3219    3.4555 H   0  0  0  0  0  0  0  0  0  0  0  0
    6.1582   -2.8899    5.6346 H   0  0  0  0  0  0  0  0  0  0  0  0
    4.5052   -2.6882    7.0878 H   0  0  0  0  0  0  0  0  0  0  0  0
    5.8844   -6.1446    4.5180 H   0  0  0  0  0  0  0  0  0  0  0  0
    4.3065   -6.4414    5.1599 H   0  0  0  0  0  0  0  0  0  0  0  0
    2.3797   -5.7777    3.4979 H   0  0  0  0  0  0  0  0  0  0  0  0
    2.1048   -3.7372    5.6627 H   0  0  0  0  0  0  0  0  0  0  0  0
    2.5686   -5.4098    5.9428 H   0  0  0  0  0  0  0  0  0  0  0  0
    1.0533   -5.0295    5.1662 H   0  0  0  0  0  0  0  0  0  0  0  0
    1.4933   -4.2973    2.1452 H   0  0  0  0  0  0  0  0  0  0  0  0
    1.0330   -2.2357    2.7673 H   0  0  0  0  0  0  0  0  0  0  0  0
    3.1755   -1.6154    0.6960 H   0  0  0  0  0  0  0  0  0  0  0  0
    3.9439   -5.2698   -0.5784 H   0  0  0  0  0  0  0  0  0  0  0  0
    1.8859   -5.4427   -0.7721 H   0  0  0  0  0  0  0  0  0  0  0  0
    2.6294   -3.9290   -2.1284 H   0  0  0  0  0  0  0  0  0  0  0  0
    2.4216   -2.6425   -0.9980 H   0  0  0  0  0  0  0  0  0  0  0  0
    5.6275   -4.4267   -1.3325 H   0  0  0  0  0  0  0  0  0  0  0  0
    7.3327   -3.4937   -2.4454 H   0  0  0  0  0  0  0  0  0  0  0  0
    6.9944   -1.8601   -1.9129 H   0  0  0  0  0  0  0  0  0  0  0  0
    8.7520   -3.7392   -0.6242 H   0  0  0  0  0  0  0  0  0  0  0  0
    8.3118   -2.1628   -0.0590 H   0  0  0  0  0  0  0  0  0  0  0  0
    7.3399   -3.2831    1.6769 H   0  0  0  0  0  0  0  0  0  0  0  0
    6.4846   -5.6996    0.0212 H   0  0  0  0  0  0  0  0  0  0  0  0
    9.0165   -5.3569    1.6835 H   0  0  0  0  0  0  0  0  0  0  0  0
    8.9361   -5.7834   -0.0313 H   0  0  0  0  0  0  0  0  0  0  0  0
    8.3565   -6.9035    1.1628 H   0  0  0  0  0  0  0  0  0  0  0  0
    6.3690   -6.6011    2.3088 H   0  0  0  0  0  0  0  0  0  0  0  0
    6.7876   -5.0745    2.9180 H   0  0  0  0  0  0  0  0  0  0  0  0
    4.4287   -6.9327    0.8105 H   0  0  0  0  0  0  0  0  0  0  0  0
    2.9799   -6.5621    1.6979 H   0  0  0  0  0  0  0  0  0  0  0  0
    4.2930   -7.3133    2.5104 H   0  0  0  0  0  0  0  0  0  0  0  0
    6.3214   -1.0869    0.0957 H   0  0  0  0  0  0  0  0  0  0  0  0
    5.9008   -1.3813    1.7224 H   0  0  0  0  0  0  0  0  0  0  0  0
    4.6624   -1.0844    0.4838 H   0  0  0  0  0  0  0  0  0  0  0  0
  1  2  2  0
  1 32  1  0
  1 33  1  0
  2 13  1  0
  2  3  1  0
  3  8  1  0
  3  4  1  0
  3 34  1  6
  4  5  1  0
  4  6  1  0
  4 35  1  6
  5 36  1  0
  6  7  1  0
  8  7  1  1
  7 37  1  0
  7 38  1  0
  8 28  1  0
  8  9  1  0
  9 10  1  0
  9 11  1  0
  9 39  1  6
 10 40  1  0
 10 41  1  0
 10 42  1  0
 11 12  1  0
 11 13  1  0
 11 43  1  6
 12 44  1  0
 13 14  1  6
 15 13  1  1
 14 45  1  0
 15 28  1  0
 15 30  1  0
 15 16  1  0
 16 17  1  0
 16 18  1  0
 16 46  1  6
 17 47  1  0
 18 19  1  0
 18 48  1  0
 18 49  1  0
 19 20  2  0
 19 21  1  0
 21 30  1  0
 21 22  1  0
 21 50  1  1
 22 23  1  0
 22 51  1  0
 22 52  1  0
 23 24  1  0
 23 53  1  0
 23 54  1  0
 24 25  1  0
 24 30  1  0
 24 55  1  1
 25 26  1  0
 25 27  1  0
 25 56  1  6
 26 57  1  0
 26 58  1  0
 26 59  1  0
 27 28  1  0
 27 60  1  0
 27 61  1  0
 28 29  1  6
 29 62  1  0
 29 63  1  0
 29 64  1  0
 30 31  1  6
 31 65  1  0
 31 66  1  0
 31 67  1  0
M  END
>  <i_m_ct_stereo_status>  (23) 
1

>  <s_m_source_file>  (23) 
/var/tmp/pbs.5076255.sched01/tmp_578sd5a/06fbc0iir.sdf

>  <i_m_source_file_index>  (23) 
12

>  <i_lp_mmshare_version>  (23) 
48012

>  <i_f3d_flags>  (23) 
0

>  <s_epik_input>  (23) 
W0NIMl0xT1tDQEhdKFtPSF0pW0NAQEhdKFtDQEBdMTIzKUMoPVtDSDJdKVtDQF0oW09IXSkoW0NASF0oW09IXSlbQ0BASF0yW0NIM10pW0NAQF00NVtDQEBdMyhbQ0gzXSlbQ0gyXVtDQEhdKFtDSDNdKVtDQEBIXTZbQ0BAXTUoW0NIM10pW0NASF0oW0NIMl1bQ0gyXTYpQyg9TylbQ0gyXVtDQEBIXTRbT0hd

>  <s_epik_cmdline>  (23) 
J2VwaWtfcHl0aG9uJywgJy1waHQnLCAnMi4wJywgJy1waCcsICc3LjAnLCAnLXRuJywgJzgnLCAnLW1hJywgJzIwMCcsICctaW1hZScsICc8aW5maWxlLm1hZT4nLCAnLW9tYWUnLCAnPG91dGZpbGUubWFlPic=

>  <r_lp_tautomer_probability>  (23) 
1

>  <r_epik_Ionization_Penalty>  (23) 
2.30238e-07

>  <r_epik_Ionization_Penalty_Charging>  (23) 
0

>  <r_epik_Ionization_Penalty_Neutral>  (23) 
2.30238e-07

>  <r_epik_State_Penalty>  (23) 
-0

>  <r_epik_Charging_Adjusted_Penalty>  (23) 
0

>  <i_epik_Tot_Q>  (23) 
0

>  <i_epik_Tot_abs_Q>  (23) 
0

>  <s_epik_Chemistry_Notes>  (23) 
This compound contains an acetal/aminal-like group ( X-CH(R)-Y where X, Y are N, S, or O) that may be acid/base labile, releasing an aldehyde.

>  <s_lp_Force_Field>  (23) 
OPLS3e

>  <r_lp_Energy>  (23) 
115.535

>  <b_lp_Chiralities_Consistent>  (23) 
1

>  <s_lp_Variant>  (23) 
10:0-1

>  <s_i_glide_gridfile>  (23) 
pfpi4k_grid

>  <i_i_glide_lignum>  (23) 
12

>  <i_i_glide_rotatable_bonds>  (23) 
4

>  <r_i_docking_score>  (23) 
-3.27186

>  <r_i_glide_ligand_efficiency>  (23) 
-0.105544

>  <r_i_glide_ligand_efficiency_sa>  (23) 
-0.331553

>  <r_i_glide_ligand_efficiency_ln>  (23) 
-0.737904

>  <r_i_glide_gscore>  (23) 
-3.27186

>  <r_i_glide_lipo>  (23) 
-0.850546

>  <r_i_glide_hbond>  (23) 
0

>  <r_i_glide_metal>  (23) 
-0

>  <r_i_glide_rewards>  (23) 
-0.477112

>  <r_i_glide_evdw>  (23) 
-29.673

>  <r_i_glide_ecoul>  (23) 
-3.00766

>  <r_i_glide_erotb>  (23) 
0

>  <r_i_glide_esite>  (23) 
-0.00939787

>  <r_i_glide_emodel>  (23) 
-40.001

>  <r_i_glide_energy>  (23) 
-32.6807

>  <r_i_glide_einternal>  (23) 
1.17629

>  <r_i_glide_intrahb_reward>  (23) 
-0

>  <i_i_glide_confnum>  (23) 
2

>  <i_i_glide_posenum>  (23) 
22

>  <r_i_glide_eff_state_penalty>  (23) 
0

>  <ligand_id>  (23) 
10

>  <original_smiles>  (23) 
C=C1C2C(O)OCC23C(C)C(O)C1(O)C12C(O)CC(=O)C4CCC(C(C)CC31C)C42C

>  <smiles>  (23) 
[H]OC1([H])OC([H])([H])C23C1([H])C(=C([H])[H])C(O[H])(C([H])(O[H])C2([H])C([H])([H])[H])C12C([H])(O[H])C([H])([H])C(=O)C4([H])C([H])([H])C([H])([H])C([H])(C([H])(C([H])([H])[H])C([H])([H])C31C([H])([H])[H])C42C([H])([H])[H]

$$$$
11:0:0
     RDKit          3D

 26 28  0  0  1  0  0  0  0  0999 V2000
    2.2910   -2.3210   -3.5347 C   0  0  0  0  0  0  0  0  0  0  0  0
    2.6777   -3.1408   -2.5478 C   0  0  0  0  0  0  0  0  0  0  0  0
    3.8403   -2.8576   -1.6286 C   0  0  1  0  0  0  0  0  0  0  0  0
    3.3980   -2.6162   -0.1824 C   0  0  0  0  0  0  0  0  0  0  0  0
    4.1126   -1.7924    0.6186 C   0  0  0  0  0  0  0  0  0  0  0  0
    5.3912   -1.1233    0.0769 C   0  0  0  0  0  0  0  0  0  0  0  0
    5.6649   -1.6143   -1.3138 N   0  0  0  0  0  0  0  0  0  0  0  0
    6.2038   -2.9917   -1.2968 C   0  0  0  0  0  0  0  0  0  0  0  0
    4.9918   -3.8786   -1.6432 C   0  0  0  0  0  0  0  0  0  0  0  0
    4.6138   -1.6548   -2.0367 C   0  0  0  0  0  0  0  0  0  0  0  0
    4.3308   -0.7790   -3.2213 C   0  0  0  0  0  0  0  0  0  0  0  0
    2.9202   -0.9581   -3.7765 C   0  0  0  0  0  0  0  0  0  0  0  0
    1.4263   -2.5748   -4.1331 H   0  0  0  0  0  0  0  0  0  0  0  0
    2.1505   -4.0680   -2.3988 H   0  0  0  0  0  0  0  0  0  0  0  0
    2.4758   -3.0726    0.1480 H   0  0  0  0  0  0  0  0  0  0  0  0
    3.8152   -1.5758    1.6382 H   0  0  0  0  0  0  0  0  0  0  0  0
    5.2874   -0.0369    0.0489 H   0  0  0  0  0  0  0  0  0  0  0  0
    6.2422   -1.3781    0.7087 H   0  0  0  0  0  0  0  0  0  0  0  0
    7.0078   -3.0605   -2.0272 H   0  0  0  0  0  0  0  0  0  0  0  0
    6.5968   -3.2157   -0.3074 H   0  0  0  0  0  0  0  0  0  0  0  0
    4.8345   -4.6865   -0.9248 H   0  0  0  0  0  0  0  0  0  0  0  0
    5.1106   -4.3269   -2.6299 H   0  0  0  0  0  0  0  0  0  0  0  0
    4.5270    0.2687   -2.9940 H   0  0  0  0  0  0  0  0  0  0  0  0
    2.8803   -0.7440   -4.8475 H   0  0  0  0  0  0  0  0  0  0  0  0
    2.2761   -0.2080   -3.3071 H   0  0  0  0  0  0  0  0  0  0  0  0
    5.0080   -1.0710   -4.0284 H   0  0  0  0  0  0  0  0  0  0  0  0
  1 12  1  0
  1  2  2  0
  1 13  1  0
  2  3  1  0
  2 14  1  0
  3  9  1  1
  3 10  1  0
  3  4  1  0
  4  5  2  0
  4 15  1  0
  5  6  1  0
  5 16  1  0
  6  7  1  0
  6 17  1  0
  6 18  1  0
  7  8  1  0
  7 10  2  0
  8  9  1  0
  8 19  1  0
  8 20  1  0
  9 21  1  0
  9 22  1  0
 10 11  1  0
 11 12  1  0
 11 23  1  0
 11 26  1  0
 12 24  1  0
 12 25  1  0
M  CHG  1   7   1
M  END
>  <i_m_ct_stereo_status>  (24) 
1

>  <s_m_source_file>  (24) 
/var/tmp/pbs.5076255.sched01/tmp_578sd5a/06fbc0iir.sdf

>  <i_m_source_file_index>  (24) 
13

>  <i_lp_mmshare_version>  (24) 
48012

>  <i_f3d_flags>  (24) 
0

>  <s_epik_input>  (24) 
W0NIXTE9W0NIXVtDSDJdW0NIXT1DKFtDQF0xMjMpTihbQ0gyXVtDSDJdMylbQ0gyXVtDSF09W0NIXTI=

>  <s_epik_cmdline>  (24) 
J2VwaWtfcHl0aG9uJywgJy1waHQnLCAnMi4wJywgJy1waCcsICc3LjAnLCAnLXRuJywgJzgnLCAnLW1hJywgJzIwMCcsICctaW1hZScsICc8aW5maWxlLm1hZT4nLCAnLW9tYWUnLCAnPG91dGZpbGUubWFlPic=

>  <r_lp_tautomer_probability>  (24) 
1

>  <r_epik_Ionization_Penalty>  (24) 
0.000711898

>  <r_epik_Ionization_Penalty_Charging>  (24) 
0

>  <r_epik_Ionization_Penalty_Neutral>  (24) 
0.000711898

>  <r_epik_State_Penalty>  (24) 
-0

>  <r_epik_Charging_Adjusted_Penalty>  (24) 
0

>  <i_epik_Tot_Q>  (24) 
1

>  <i_epik_Tot_abs_Q>  (24) 
1

>  <s_epik_Chemistry_Notes>  (24) 
This compound has an imine and may undergo hydrolysis.

>  <s_lp_Force_Field>  (24) 
OPLS3e

>  <r_lp_Energy>  (24) 
81.3069

>  <b_lp_Chiralities_Consistent>  (24) 
1

>  <s_lp_Variant>  (24) 
11:0-1

>  <s_i_glide_gridfile>  (24) 
pfpi4k_grid

>  <i_i_glide_lignum>  (24) 
13

>  <i_i_glide_rotatable_bonds>  (24) 
0

>  <r_i_docking_score>  (24) 
-4.54201

>  <r_i_glide_ligand_efficiency>  (24) 
-0.3785

>  <r_i_glide_ligand_efficiency_sa>  (24) 
-0.86655

>  <r_i_glide_ligand_efficiency_ln>  (24) 
-1.30334

>  <r_i_glide_gscore>  (24) 
-4.54201

>  <r_i_glide_lipo>  (24) 
-0.629626

>  <r_i_glide_hbond>  (24) 
0

>  <r_i_glide_metal>  (24) 
-0

>  <r_i_glide_rewards>  (24) 
-2.25

>  <r_i_glide_evdw>  (24) 
-15.9349

>  <r_i_glide_ecoul>  (24) 
-5.15073

>  <r_i_glide_erotb>  (24) 
0

>  <r_i_glide_esite>  (24) 
-0.093026

>  <r_i_glide_emodel>  (24) 
-26.7186

>  <r_i_glide_energy>  (24) 
-21.0856

>  <r_i_glide_einternal>  (24) 
0

>  <r_i_glide_intrahb_reward>  (24) 
-0

>  <i_i_glide_confnum>  (24) 
1

>  <i_i_glide_posenum>  (24) 
37

>  <r_i_glide_eff_state_penalty>  (24) 
0

>  <ligand_id>  (24) 
11

>  <original_smiles>  (24) 
C1=CC23C=CCN(CC2)C3=CC1

>  <smiles>  (24) 
[H]C1=C([H])C23C([H])=C([H])C([H])([H])C([H])([H])C2=[N+](C1([H])[H])C([H])([H])C3([H])[H]

$$$$
11:0:1
     RDKit          3D

 26 28  0  0  1  0  0  0  0  0999 V2000
    2.3926   -2.9558   -2.7080 C   0  0  0  0  0  0  0  0  0  0  0  0
    2.6964   -3.4540   -1.4979 C   0  0  0  0  0  0  0  0  0  0  0  0
    3.8667   -2.9732   -0.6630 C   0  0  1  0  0  0  0  0  0  0  0  0
    3.4228   -2.1929    0.5846 C   0  0  0  0  0  0  0  0  0  0  0  0
    4.2185   -1.2282    1.1086 C   0  0  0  0  0  0  0  0  0  0  0  0
    5.5768   -0.9204    0.4490 C   0  0  0  0  0  0  0  0  0  0  0  0
    5.8277   -1.8769   -0.6886 N   0  0  0  0  0  0  0  0  0  0  0  0
    6.2023   -3.2147   -0.1667 C   0  0  0  0  0  0  0  0  0  0  0  0
    4.8987   -4.0424   -0.2593 C   0  0  0  0  0  0  0  0  0  0  0  0
    4.7922   -2.0814   -1.4269 C   0  0  0  0  0  0  0  0  0  0  0  0
    4.6154   -1.6376   -2.8521 C   0  0  0  0  0  0  0  0  0  0  0  0
    3.1697   -1.8262   -3.3682 C   0  0  0  0  0  0  0  0  0  0  0  0
    1.5206   -3.3131   -3.2349 H   0  0  0  0  0  0  0  0  0  0  0  0
    2.0880   -4.2380   -1.0727 H   0  0  0  0  0  0  0  0  0  0  0  0
    2.4540   -2.4153    1.0112 H   0  0  0  0  0  0  0  0  0  0  0  0
    3.9285   -0.6513    1.9763 H   0  0  0  0  0  0  0  0  0  0  0  0
    5.6010    0.0958    0.0580 H   0  0  0  0  0  0  0  0  0  0  0  0
    6.3857   -1.0247    1.1735 H   0  0  0  0  0  0  0  0  0  0  0  0
    7.0055   -3.6108   -0.7843 H   0  0  0  0  0  0  0  0  0  0  0  0
    6.5530   -3.1234    0.8602 H   0  0  0  0  0  0  0  0  0  0  0  0
    4.6444   -4.5305    0.6818 H   0  0  0  0  0  0  0  0  0  0  0  0
    4.9917   -4.8154   -1.0237 H   0  0  0  0  0  0  0  0  0  0  0  0
    4.9317   -0.6004   -2.9665 H   0  0  0  0  0  0  0  0  0  0  0  0
    3.1831   -2.0081   -4.4443 H   0  0  0  0  0  0  0  0  0  0  0  0
    2.6139   -0.9025   -3.2205 H   0  0  0  0  0  0  0  0  0  0  0  0
    5.2784   -2.2501   -3.4622 H   0  0  0  0  0  0  0  0  0  0  0  0
  1 12  1  0
  1  2  2  0
  1 13  1  0
  2  3  1  0
  2 14  1  0
  3  9  1  1
  3 10  1  0
  3  4  1  0
  4  5  2  0
  4 15  1  0
  5  6  1  0
  5 16  1  0
  6  7  1  0
  6 17  1  0
  6 18  1  0
  7  8  1  0
  7 10  2  0
  8  9  1  0
  8 19  1  0
  8 20  1  0
  9 21  1  0
  9 22  1  0
 10 11  1  0
 11 12  1  0
 11 23  1  0
 11 26  1  0
 12 24  1  0
 12 25  1  0
M  CHG  1   7   1
M  END
>  <i_m_ct_stereo_status>  (25) 
1

>  <s_m_source_file>  (25) 
/var/tmp/pbs.5076255.sched01/tmp_578sd5a/06fbc0iir.sdf

>  <i_m_source_file_index>  (25) 
13

>  <i_lp_mmshare_version>  (25) 
48012

>  <i_f3d_flags>  (25) 
0

>  <s_epik_input>  (25) 
W0NIXTE9W0NIXVtDSDJdW0NIXT1DKFtDQF0xMjMpTihbQ0gyXVtDSDJdMylbQ0gyXVtDSF09W0NIXTI=

>  <s_epik_cmdline>  (25) 
J2VwaWtfcHl0aG9uJywgJy1waHQnLCAnMi4wJywgJy1waCcsICc3LjAnLCAnLXRuJywgJzgnLCAnLW1hJywgJzIwMCcsICctaW1hZScsICc8aW5maWxlLm1hZT4nLCAnLW9tYWUnLCAnPG91dGZpbGUubWFlPic=

>  <r_lp_tautomer_probability>  (25) 
1

>  <r_epik_Ionization_Penalty>  (25) 
0.000711898

>  <r_epik_Ionization_Penalty_Charging>  (25) 
0

>  <r_epik_Ionization_Penalty_Neutral>  (25) 
0.000711898

>  <r_epik_State_Penalty>  (25) 
-0

>  <r_epik_Charging_Adjusted_Penalty>  (25) 
0

>  <i_epik_Tot_Q>  (25) 
1

>  <i_epik_Tot_abs_Q>  (25) 
1

>  <s_epik_Chemistry_Notes>  (25) 
This compound has an imine and may undergo hydrolysis.

>  <s_lp_Force_Field>  (25) 
OPLS3e

>  <r_lp_Energy>  (25) 
81.3069

>  <b_lp_Chiralities_Consistent>  (25) 
1

>  <s_lp_Variant>  (25) 
11:0-1

>  <s_i_glide_gridfile>  (25) 
pfpi4k_grid

>  <i_i_glide_lignum>  (25) 
13

>  <i_i_glide_rotatable_bonds>  (25) 
0

>  <r_i_docking_score>  (25) 
-4.34355

>  <r_i_glide_ligand_efficiency>  (25) 
-0.361962

>  <r_i_glide_ligand_efficiency_sa>  (25) 
-0.828686

>  <r_i_glide_ligand_efficiency_ln>  (25) 
-1.24639

>  <r_i_glide_gscore>  (25) 
-4.34355

>  <r_i_glide_lipo>  (25) 
-0.519243

>  <r_i_glide_hbond>  (25) 
0

>  <r_i_glide_metal>  (25) 
-0

>  <r_i_glide_rewards>  (25) 
-2.25

>  <r_i_glide_evdw>  (25) 
-18.2752

>  <r_i_glide_ecoul>  (25) 
-3.93711

>  <r_i_glide_erotb>  (25) 
0

>  <r_i_glide_esite>  (25) 
-0.0699742

>  <r_i_glide_emodel>  (25) 
-27.641

>  <r_i_glide_energy>  (25) 
-22.2123

>  <r_i_glide_einternal>  (25) 
0

>  <r_i_glide_intrahb_reward>  (25) 
-0

>  <i_i_glide_confnum>  (25) 
1

>  <i_i_glide_posenum>  (25) 
3

>  <r_i_glide_eff_state_penalty>  (25) 
0

>  <ligand_id>  (25) 
11

>  <original_smiles>  (25) 
C1=CC23C=CCN(CC2)C3=CC1

>  <smiles>  (25) 
[H]C1=C([H])C23C([H])=C([H])C([H])([H])C([H])([H])C2=[N+](C1([H])[H])C([H])([H])C3([H])[H]

$$$$
11:0:2
     RDKit          3D

 26 28  0  0  1  0  0  0  0  0999 V2000
    3.1970   -1.8912   -3.7297 C   0  0  0  0  0  0  0  0  0  0  0  0
    3.2787   -3.0657   -3.0892 C   0  0  0  0  0  0  0  0  0  0  0  0
    3.8253   -3.2253   -1.6804 C   0  0  1  0  0  0  0  0  0  0  0  0
    2.7384   -3.5948   -0.6610 C   0  0  0  0  0  0  0  0  0  0  0  0
    2.8687   -3.2224    0.6363 C   0  0  0  0  0  0  0  0  0  0  0  0
    4.1096   -2.4260    1.0822 C   0  0  0  0  0  0  0  0  0  0  0  0
    5.0714   -2.2885   -0.0672 N   0  0  0  0  0  0  0  0  0  0  0  0
    5.7721   -3.5682   -0.3140 C   0  0  0  0  0  0  0  0  0  0  0  0
    5.0154   -4.1836   -1.5132 C   0  0  0  0  0  0  0  0  0  0  0  0
    4.4958   -1.9931   -1.1816 C   0  0  0  0  0  0  0  0  0  0  0  0
    4.6108   -0.6915   -1.9124 C   0  0  0  0  0  0  0  0  0  0  0  0
    3.6167   -0.5787   -3.1013 C   0  0  0  0  0  0  0  0  0  0  0  0
    2.7535   -1.8390   -4.7130 H   0  0  0  0  0  0  0  0  0  0  0  0
    2.9320   -3.9659   -3.5756 H   0  0  0  0  0  0  0  0  0  0  0  0
    1.8768   -4.1415   -1.0162 H   0  0  0  0  0  0  0  0  0  0  0  0
    2.1226   -3.4586    1.3826 H   0  0  0  0  0  0  0  0  0  0  0  0
    3.8399   -1.4274    1.4265 H   0  0  0  0  0  0  0  0  0  0  0  0
    4.6164   -2.9472    1.8973 H   0  0  0  0  0  0  0  0  0  0  0  0
    6.8163   -3.3480   -0.5292 H   0  0  0  0  0  0  0  0  0  0  0  0
    5.7172   -4.1984    0.5744 H   0  0  0  0  0  0  0  0  0  0  0  0
    4.7078   -5.2120   -1.3191 H   0  0  0  0  0  0  0  0  0  0  0  0
    5.6515   -4.1818   -2.3991 H   0  0  0  0  0  0  0  0  0  0  0  0
    4.4858    0.1259   -1.2093 H   0  0  0  0  0  0  0  0  0  0  0  0
    4.0364    0.0643   -3.8775 H   0  0  0  0  0  0  0  0  0  0  0  0
    2.6976   -0.0933   -2.7721 H   0  0  0  0  0  0  0  0  0  0  0  0
    5.6231   -0.6242   -2.2992 H   0  0  0  0  0  0  0  0  0  0  0  0
  1 12  1  0
  1  2  2  0
  1 13  1  0
  2  3  1  0
  2 14  1  0
  3  9  1  6
  3 10  1  0
  3  4  1  0
  4  5  2  0
  4 15  1  0
  5  6  1  0
  5 16  1  0
  6  7  1  0
  6 17  1  0
  6 18  1  0
  7  8  1  0
  7 10  2  0
  8  9  1  0
  8 19  1  0
  8 20  1  0
  9 21  1  0
  9 22  1  0
 10 11  1  0
 11 12  1  0
 11 23  1  0
 11 26  1  0
 12 24  1  0
 12 25  1  0
M  CHG  1   7   1
M  END
>  <i_m_ct_stereo_status>  (26) 
1

>  <s_m_source_file>  (26) 
/var/tmp/pbs.5076255.sched01/tmp_578sd5a/06fbc0iir.sdf

>  <i_m_source_file_index>  (26) 
13

>  <i_lp_mmshare_version>  (26) 
48012

>  <i_f3d_flags>  (26) 
0

>  <s_epik_input>  (26) 
W0NIXTE9W0NIXVtDSDJdW0NIXT1DKFtDQF0xMjMpTihbQ0gyXVtDSDJdMylbQ0gyXVtDSF09W0NIXTI=

>  <s_epik_cmdline>  (26) 
J2VwaWtfcHl0aG9uJywgJy1waHQnLCAnMi4wJywgJy1waCcsICc3LjAnLCAnLXRuJywgJzgnLCAnLW1hJywgJzIwMCcsICctaW1hZScsICc8aW5maWxlLm1hZT4nLCAnLW9tYWUnLCAnPG91dGZpbGUubWFlPic=

>  <r_lp_tautomer_probability>  (26) 
1

>  <r_epik_Ionization_Penalty>  (26) 
0.000711898

>  <r_epik_Ionization_Penalty_Charging>  (26) 
0

>  <r_epik_Ionization_Penalty_Neutral>  (26) 
0.000711898

>  <r_epik_State_Penalty>  (26) 
-0

>  <r_epik_Charging_Adjusted_Penalty>  (26) 
0

>  <i_epik_Tot_Q>  (26) 
1

>  <i_epik_Tot_abs_Q>  (26) 
1

>  <s_epik_Chemistry_Notes>  (26) 
This compound has an imine and may undergo hydrolysis.

>  <s_lp_Force_Field>  (26) 
OPLS3e

>  <r_lp_Energy>  (26) 
81.3069

>  <b_lp_Chiralities_Consistent>  (26) 
1

>  <s_lp_Variant>  (26) 
11:0-1

>  <s_i_glide_gridfile>  (26) 
pfpi4k_grid

>  <i_i_glide_lignum>  (26) 
13

>  <i_i_glide_rotatable_bonds>  (26) 
0

>  <r_i_docking_score>  (26) 
-4.09503

>  <r_i_glide_ligand_efficiency>  (26) 
-0.341252

>  <r_i_glide_ligand_efficiency_sa>  (26) 
-0.781273

>  <r_i_glide_ligand_efficiency_ln>  (26) 
-1.17508

>  <r_i_glide_gscore>  (26) 
-4.09503

>  <r_i_glide_lipo>  (26) 
-0.411314

>  <r_i_glide_hbond>  (26) 
0

>  <r_i_glide_metal>  (26) 
-0

>  <r_i_glide_rewards>  (26) 
-2.25

>  <r_i_glide_evdw>  (26) 
-16.1867

>  <r_i_glide_ecoul>  (26) 
-3.95134

>  <r_i_glide_erotb>  (26) 
0

>  <r_i_glide_esite>  (26) 
-0.0316762

>  <r_i_glide_emodel>  (26) 
-25.2417

>  <r_i_glide_energy>  (26) 
-20.1381

>  <r_i_glide_einternal>  (26) 
0

>  <r_i_glide_intrahb_reward>  (26) 
-0

>  <i_i_glide_confnum>  (26) 
2

>  <i_i_glide_posenum>  (26) 
4

>  <r_i_glide_eff_state_penalty>  (26) 
0

>  <ligand_id>  (26) 
11

>  <original_smiles>  (26) 
C1=CC23C=CCN(CC2)C3=CC1

>  <smiles>  (26) 
[H]C1=C([H])C23C([H])=C([H])C([H])([H])C([H])([H])C2=[N+](C1([H])[H])C([H])([H])C3([H])[H]

$$$$
12:0:0
     RDKit          3D

 44 48  0  0  1  0  0  0  0  0999 V2000
    4.1212   -7.0096    0.4854 C   0  0  0  0  0  0  0  0  0  0  0  0
    5.1316   -6.2207    1.3287 C   0  0  2  0  0  0  0  0  0  0  0  0
    4.6098   -5.2793    2.4583 C   0  0  0  0  0  0  0  0  0  0  0  0
    5.4261   -3.8363    2.5091 C   0  0  2  0  0  0  0  0  0  0  0  0
    6.5778   -4.7826    2.0880 C   0  0  0  0  0  0  0  0  0  0  0  0
    6.0694   -5.2494    0.6398 C   0  0  2  0  0  0  0  0  0  0  0  0
    5.4254   -3.9976   -0.1699 C   0  0  1  0  0  0  0  0  0  0  0  0
    4.0669   -4.1881    0.3712 O   0  0  0  0  0  0  0  0  0  0  0  0
    3.5110   -3.1353   -0.3182 C   0  0  1  0  0  0  0  0  0  0  0  0
    3.4243   -2.3120    1.0948 C   0  0  1  0  0  0  0  0  0  0  0  0
    3.0572   -3.1403    2.2567 O   0  0  0  0  0  0  0  0  0  0  0  0
    4.2640   -3.4900    3.2673 O   0  0  0  0  0  0  0  0  0  0  0  0
    4.6014   -1.4564    1.5458 C   0  0  0  0  0  0  0  0  0  0  0  0
    4.7698   -0.2961    0.5279 C   0  0  0  0  0  0  0  0  0  0  0  0
    4.3800   -0.6783    2.8671 C   0  0  0  0  0  0  0  0  0  0  0  0
    5.7398   -2.4919    1.6746 C   0  0  2  0  0  0  0  0  0  0  0  0
    6.2367   -2.8123    0.2715 C   0  0  1  0  0  0  0  0  0  0  0  0
    7.7662   -2.8485    0.0046 C   0  0  0  0  0  0  0  0  0  0  0  0
    4.5738   -3.6561   -1.3892 C   0  0  1  0  0  0  0  0  0  0  0  0
    5.0385   -2.7338   -2.3598 O   0  0  0  0  0  0  0  0  0  0  0  0
    3.3798   -6.3825    0.0005 H   0  0  0  0  0  0  0  0  0  0  0  0
    3.5791   -7.7283    1.1040 H   0  0  0  0  0  0  0  0  0  0  0  0
    4.6123   -7.5874   -0.2957 H   0  0  0  0  0  0  0  0  0  0  0  0
    5.7274   -7.0125    1.7801 H   0  0  0  0  0  0  0  0  0  0  0  0
    3.5249   -5.2779    2.3910 H   0  0  0  0  0  0  0  0  0  0  0  0
    4.7406   -5.7884    3.4154 H   0  0  0  0  0  0  0  0  0  0  0  0
    7.5103   -4.2477    2.0629 H   0  0  0  0  0  0  0  0  0  0  0  0
    6.8465   -5.5631    2.8022 H   0  0  0  0  0  0  0  0  0  0  0  0
    6.8494   -5.7646    0.0831 H   0  0  0  0  0  0  0  0  0  0  0  0
    2.5288   -3.3939   -0.6846 H   0  0  0  0  0  0  0  0  0  0  0  0
    2.5948   -1.6280    0.9874 H   0  0  0  0  0  0  0  0  0  0  0  0
    5.7768    0.1280    0.5608 H   0  0  0  0  0  0  0  0  0  0  0  0
    4.0807    0.5314    0.7232 H   0  0  0  0  0  0  0  0  0  0  0  0
    4.5581   -0.5740   -0.5003 H   0  0  0  0  0  0  0  0  0  0  0  0
    5.1451    0.0932    2.9863 H   0  0  0  0  0  0  0  0  0  0  0  0
    4.4382   -1.2755    3.7712 H   0  0  0  0  0  0  0  0  0  0  0  0
    3.4165   -0.1623    2.8840 H   0  0  0  0  0  0  0  0  0  0  0  0
    6.5462   -1.9651    2.1867 H   0  0  0  0  0  0  0  0  0  0  0  0
    6.0564   -1.9864   -0.3786 H   0  0  0  0  0  0  0  0  0  0  0  0
    8.2823   -3.7838    0.2272 H   0  0  0  0  0  0  0  0  0  0  0  0
    8.2697   -2.0541    0.5588 H   0  0  0  0  0  0  0  0  0  0  0  0
    7.9714   -2.6629   -1.0534 H   0  0  0  0  0  0  0  0  0  0  0  0
    4.2313   -4.5701   -1.8794 H   0  0  0  0  0  0  0  0  0  0  0  0
    4.2892   -2.5857   -2.9238 H   0  0  0  0  0  0  0  0  0  0  0  0
  1  2  1  0
  1 21  1  0
  1 22  1  0
  1 23  1  0
  2  6  1  0
  2  3  1  0
  2 24  1  1
  3  4  1  0
  3 25  1  0
  3 26  1  0
  4 12  1  1
  4 16  1  0
  4  5  1  0
  5  6  1  0
  5 27  1  0
  5 28  1  0
  6  7  1  0
  6 29  1  6
  7 17  1  0
  7 19  1  0
  7  8  1  1
  8  9  1  0
  9 10  1  0
  9 19  1  0
  9 30  1  6
 10 11  1  0
 10 13  1  0
 10 31  1  6
 11 12  1  0
 13 14  1  0
 13 15  1  0
 13 16  1  0
 14 32  1  0
 14 33  1  0
 14 34  1  0
 15 35  1  0
 15 36  1  0
 15 37  1  0
 16 17  1  0
 16 38  1  1
 17 18  1  0
 17 39  1  6
 18 40  1  0
 18 41  1  0
 18 42  1  0
 19 20  1  0
 19 43  1  6
 20 44  1  0
M  END
>  <i_m_ct_stereo_status>  (27) 
1

>  <s_m_source_file>  (27) 
/var/tmp/pbs.5076255.sched01/tmp_578sd5a/06fbc0iir.sdf

>  <i_m_source_file_index>  (27) 
14

>  <i_lp_mmshare_version>  (27) 
48012

>  <i_f3d_flags>  (27) 
0

>  <s_epik_input>  (27) 
W0NIM11bQ0BIXShbQ0gyXTEpW0NASF0oW0NIMl0yKVtDQEBdKFtDQEBIXTNbQ0gzXSkoW0NAQEhdNFtPSF0pT1tDQEhdNFtDQEBIXShPTzUpQyhbQ0gzXSkoW0NIM10pW0NASF0zW0NAQF0xMjU=

>  <s_epik_cmdline>  (27) 
J2VwaWtfcHl0aG9uJywgJy1waHQnLCAnMi4wJywgJy1waCcsICc3LjAnLCAnLXRuJywgJzgnLCAnLW1hJywgJzIwMCcsICctaW1hZScsICc8aW5maWxlLm1hZT4nLCAnLW9tYWUnLCAnPG91dGZpbGUubWFlPic=

>  <r_lp_tautomer_probability>  (27) 
1

>  <r_epik_Ionization_Penalty>  (27) 
1.74172e-07

>  <r_epik_Ionization_Penalty_Charging>  (27) 
0

>  <r_epik_Ionization_Penalty_Neutral>  (27) 
1.74172e-07

>  <r_epik_State_Penalty>  (27) 
-0

>  <r_epik_Charging_Adjusted_Penalty>  (27) 
0

>  <i_epik_Tot_Q>  (27) 
0

>  <i_epik_Tot_abs_Q>  (27) 
0

>  <s_lp_Force_Field>  (27) 
OPLS3e

>  <r_lp_Energy>  (27) 
284.948

>  <b_lp_Chiralities_Consistent>  (27) 
1

>  <s_lp_Variant>  (27) 
12:0-1

>  <s_i_glide_gridfile>  (27) 
pfpi4k_grid

>  <i_i_glide_lignum>  (27) 
14

>  <i_i_glide_rotatable_bonds>  (27) 
1

>  <r_i_docking_score>  (27) 
-3.67272

>  <r_i_glide_ligand_efficiency>  (27) 
-0.183636

>  <r_i_glide_ligand_efficiency_sa>  (27) 
-0.498465

>  <r_i_glide_ligand_efficiency_ln>  (27) 
-0.91916

>  <r_i_glide_gscore>  (27) 
-3.67272

>  <r_i_glide_lipo>  (27) 
-1.02042

>  <r_i_glide_hbond>  (27) 
0

>  <r_i_glide_metal>  (27) 
-0

>  <r_i_glide_rewards>  (27) 
-1.49755

>  <r_i_glide_evdw>  (27) 
-20.1567

>  <r_i_glide_ecoul>  (27) 
-0.979404

>  <r_i_glide_erotb>  (27) 
0

>  <r_i_glide_esite>  (27) 
0

>  <r_i_glide_emodel>  (27) 
-25.4064

>  <r_i_glide_energy>  (27) 
-21.1361

>  <r_i_glide_einternal>  (27) 
1.27691

>  <r_i_glide_intrahb_reward>  (27) 
-0

>  <i_i_glide_confnum>  (27) 
1

>  <i_i_glide_posenum>  (27) 
1

>  <r_i_glide_eff_state_penalty>  (27) 
0

>  <ligand_id>  (27) 
12

>  <original_smiles>  (27) 
CC1CC23CC1C14OC(C(OO2)C(C)(C)C3C1C)C4O

>  <smiles>  (27) 
[H]OC1([H])C2([H])OC13C([H])(C([H])([H])[H])C1([H])C4(OOC2([H])C1(C([H])([H])[H])C([H])([H])[H])C([H])([H])C([H])(C([H])([H])[H])C3([H])C4([H])[H]

$$$$
12:0:1
     RDKit          3D

 44 48  0  0  1  0  0  0  0  0999 V2000
    5.4902   -4.9142    3.7965 C   0  0  0  0  0  0  0  0  0  0  0  0
    4.4255   -3.8697    3.3791 C   0  0  2  0  0  0  0  0  0  0  0  0
    3.3309   -4.2683    2.3394 C   0  0  0  0  0  0  0  0  0  0  0  0
    3.0485   -3.0684    1.2394 C   0  0  2  0  0  0  0  0  0  0  0  0
    3.2978   -2.2030    2.4891 C   0  0  0  0  0  0  0  0  0  0  0  0
    4.8466   -2.5523    2.7538 C   0  0  2  0  0  0  0  0  0  0  0  0
    5.6828   -2.6298    1.3607 C   0  0  1  0  0  0  0  0  0  0  0  0
    5.4081   -4.0294    1.1056 O   0  0  0  0  0  0  0  0  0  0  0  0
    6.0753   -4.0975   -0.0584 C   0  0  1  0  0  0  0  0  0  0  0  0
    4.6615   -4.1678   -0.8603 C   0  0  1  0  0  0  0  0  0  0  0  0
    3.6623   -5.0034   -0.1841 O   0  0  0  0  0  0  0  0  0  0  0  0
    2.4681   -4.1740    0.5586 O   0  0  0  0  0  0  0  0  0  0  0  0
    3.9588   -2.8973   -1.2951 C   0  0  0  0  0  0  0  0  0  0  0  0
    4.8451   -2.1807   -2.3763 C   0  0  0  0  0  0  0  0  0  0  0  0
    2.6498   -3.0956   -2.0915 C   0  0  0  0  0  0  0  0  0  0  0  0
    3.7061   -2.1963    0.0514 C   0  0  2  0  0  0  0  0  0  0  0  0
    5.0135   -1.5923    0.4935 C   0  0  1  0  0  0  0  0  0  0  0  0
    5.0054   -0.1379    1.0241 C   0  0  0  0  0  0  0  0  0  0  0  0
    7.0114   -3.0821    0.7410 C   0  0  1  0  0  0  0  0  0  0  0  0
    7.8136   -2.1811   -0.0133 O   0  0  0  0  0  0  0  0  0  0  0  0
    6.0645   -5.3179    2.9722 H   0  0  0  0  0  0  0  0  0  0  0  0
    5.0250   -5.7609    4.3137 H   0  0  0  0  0  0  0  0  0  0  0  0
    6.1933   -4.4793    4.4999 H   0  0  0  0  0  0  0  0  0  0  0  0
    3.9336   -3.6497    4.3348 H   0  0  0  0  0  0  0  0  0  0  0  0
    3.5865   -5.2614    1.9934 H   0  0  0  0  0  0  0  0  0  0  0  0
    2.4112   -4.4871    2.8809 H   0  0  0  0  0  0  0  0  0  0  0  0
    3.1050   -1.1631    2.2698 H   0  0  0  0  0  0  0  0  0  0  0  0
    2.6133   -2.3397    3.3303 H   0  0  0  0  0  0  0  0  0  0  0  0
    5.3086   -1.8933    3.4861 H   0  0  0  0  0  0  0  0  0  0  0  0
    6.6331   -5.0380   -0.1372 H   0  0  0  0  0  0  0  0  0  0  0  0
    4.8686   -4.7206   -1.7817 H   0  0  0  0  0  0  0  0  0  0  0  0
    4.6066   -1.1199   -2.4471 H   0  0  0  0  0  0  0  0  0  0  0  0
    4.7175   -2.6108   -3.3703 H   0  0  0  0  0  0  0  0  0  0  0  0
    5.9167   -2.2765   -2.1815 H   0  0  0  0  0  0  0  0  0  0  0  0
    2.3266   -2.1669   -2.5748 H   0  0  0  0  0  0  0  0  0  0  0  0
    1.7967   -3.4073   -1.4928 H   0  0  0  0  0  0  0  0  0  0  0  0
    2.7485   -3.8391   -2.8914 H   0  0  0  0  0  0  0  0  0  0  0  0
    3.0209   -1.3706   -0.1758 H   0  0  0  0  0  0  0  0  0  0  0  0
    5.6306   -1.3627   -0.3548 H   0  0  0  0  0  0  0  0  0  0  0  0
    4.7806    0.0126    2.0734 H   0  0  0  0  0  0  0  0  0  0  0  0
    4.3009    0.4791    0.4504 H   0  0  0  0  0  0  0  0  0  0  0  0
    5.9851    0.3094    0.8643 H   0  0  0  0  0  0  0  0  0  0  0  0
    7.6193   -3.6143    1.4720 H   0  0  0  0  0  0  0  0  0  0  0  0
    8.6140   -2.6363   -0.1780 H   0  0  0  0  0  0  0  0  0  0  0  0
  1  2  1  0
  1 21  1  0
  1 22  1  0
  1 23  1  0
  2  6  1  0
  2  3  1  0
  2 24  1  1
  3  4  1  0
  3 25  1  0
  3 26  1  0
  4 12  1  6
  4 16  1  0
  4  5  1  0
  5  6  1  0
  5 27  1  0
  5 28  1  0
  6  7  1  0
  6 29  1  1
  7 17  1  0
  7 19  1  0
  7  8  1  6
  8  9  1  0
  9 10  1  0
  9 19  1  0
  9 30  1  1
 10 11  1  0
 10 13  1  0
 10 31  1  6
 11 12  1  0
 13 14  1  0
 13 15  1  0
 13 16  1  0
 14 32  1  0
 14 33  1  0
 14 34  1  0
 15 35  1  0
 15 36  1  0
 15 37  1  0
 16 17  1  0
 16 38  1  6
 17 18  1  0
 17 39  1  6
 18 40  1  0
 18 41  1  0
 18 42  1  0
 19 20  1  0
 19 43  1  1
 20 44  1  0
M  END
>  <i_m_ct_stereo_status>  (28) 
1

>  <s_m_source_file>  (28) 
/var/tmp/pbs.5076255.sched01/tmp_578sd5a/06fbc0iir.sdf

>  <i_m_source_file_index>  (28) 
14

>  <i_lp_mmshare_version>  (28) 
48012

>  <i_f3d_flags>  (28) 
0

>  <s_epik_input>  (28) 
W0NIM11bQ0BIXShbQ0gyXTEpW0NASF0oW0NIMl0yKVtDQEBdKFtDQEBIXTNbQ0gzXSkoW0NAQEhdNFtPSF0pT1tDQEhdNFtDQEBIXShPTzUpQyhbQ0gzXSkoW0NIM10pW0NASF0zW0NAQF0xMjU=

>  <s_epik_cmdline>  (28) 
J2VwaWtfcHl0aG9uJywgJy1waHQnLCAnMi4wJywgJy1waCcsICc3LjAnLCAnLXRuJywgJzgnLCAnLW1hJywgJzIwMCcsICctaW1hZScsICc8aW5maWxlLm1hZT4nLCAnLW9tYWUnLCAnPG91dGZpbGUubWFlPic=

>  <r_lp_tautomer_probability>  (28) 
1

>  <r_epik_Ionization_Penalty>  (28) 
1.74172e-07

>  <r_epik_Ionization_Penalty_Charging>  (28) 
0

>  <r_epik_Ionization_Penalty_Neutral>  (28) 
1.74172e-07

>  <r_epik_State_Penalty>  (28) 
-0

>  <r_epik_Charging_Adjusted_Penalty>  (28) 
0

>  <i_epik_Tot_Q>  (28) 
0

>  <i_epik_Tot_abs_Q>  (28) 
0

>  <s_lp_Force_Field>  (28) 
OPLS3e

>  <r_lp_Energy>  (28) 
284.948

>  <b_lp_Chiralities_Consistent>  (28) 
1

>  <s_lp_Variant>  (28) 
12:0-1

>  <s_i_glide_gridfile>  (28) 
pfpi4k_grid

>  <i_i_glide_lignum>  (28) 
14

>  <i_i_glide_rotatable_bonds>  (28) 
1

>  <r_i_docking_score>  (28) 
-3.27335

>  <r_i_glide_ligand_efficiency>  (28) 
-0.163668

>  <r_i_glide_ligand_efficiency_sa>  (28) 
-0.444263

>  <r_i_glide_ligand_efficiency_ln>  (28) 
-0.819213

>  <r_i_glide_gscore>  (28) 
-3.27335

>  <r_i_glide_lipo>  (28) 
-0.558641

>  <r_i_glide_hbond>  (28) 
0

>  <r_i_glide_metal>  (28) 
-0

>  <r_i_glide_rewards>  (28) 
-1.49755

>  <r_i_glide_evdw>  (28) 
-20.7028

>  <r_i_glide_ecoul>  (28) 
-1.2135

>  <r_i_glide_erotb>  (28) 
0

>  <r_i_glide_esite>  (28) 
0

>  <r_i_glide_emodel>  (28) 
-25.5821

>  <r_i_glide_energy>  (28) 
-21.9163

>  <r_i_glide_einternal>  (28) 
1.22096

>  <r_i_glide_intrahb_reward>  (28) 
-0

>  <i_i_glide_confnum>  (28) 
2

>  <i_i_glide_posenum>  (28) 
23

>  <r_i_glide_eff_state_penalty>  (28) 
0

>  <ligand_id>  (28) 
12

>  <original_smiles>  (28) 
CC1CC23CC1C14OC(C(OO2)C(C)(C)C3C1C)C4O

>  <smiles>  (28) 
[H]OC1([H])C2([H])OC13C([H])(C([H])([H])[H])C1([H])C4(OOC2([H])C1(C([H])([H])[H])C([H])([H])[H])C([H])([H])C([H])(C([H])([H])[H])C3([H])C4([H])[H]

$$$$
12:0:2
     RDKit          3D

 44 48  0  0  1  0  0  0  0  0999 V2000
    5.2176   -5.1750    4.0592 C   0  0  0  0  0  0  0  0  0  0  0  0
    4.4085   -3.9446    3.5914 C   0  0  2  0  0  0  0  0  0  0  0  0
    3.2425   -4.1312    2.5690 C   0  0  0  0  0  0  0  0  0  0  0  0
    3.2026   -2.9429    1.4043 C   0  0  2  0  0  0  0  0  0  0  0  0
    3.6781   -2.1135    2.6140 C   0  0  0  0  0  0  0  0  0  0  0  0
    5.1044   -2.7921    2.9008 C   0  0  2  0  0  0  0  0  0  0  0  0
    5.8924   -3.1127    1.5119 C   0  0  1  0  0  0  0  0  0  0  0  0
    5.3034   -4.4393    1.3314 O   0  0  0  0  0  0  0  0  0  0  0  0
    5.9525   -4.7109    0.1628 C   0  0  1  0  0  0  0  0  0  0  0  0
    4.5298   -4.5056   -0.6171 C   0  0  1  0  0  0  0  0  0  0  0  0
    3.3741   -5.0455    0.1062 O   0  0  0  0  0  0  0  0  0  0  0  0
    2.4170   -3.9493    0.7729 O   0  0  0  0  0  0  0  0  0  0  0  0
    4.1309   -3.1267   -1.1352 C   0  0  0  0  0  0  0  0  0  0  0  0
    5.1420   -2.6859   -2.2435 C   0  0  0  0  0  0  0  0  0  0  0  0
    2.7890   -3.0623   -1.9147 C   0  0  0  0  0  0  0  0  0  0  0  0
    4.0495   -2.3118    0.1788 C   0  0  2  0  0  0  0  0  0  0  0  0
    5.4724   -1.9977    0.5948 C   0  0  1  0  0  0  0  0  0  0  0  0
    5.7989   -0.5634    1.0410 C   0  0  0  0  0  0  0  0  0  0  0  0
    7.0681   -3.8958    0.9332 C   0  0  1  0  0  0  0  0  0  0  0  0
    8.0771   -3.2679    0.1653 O   0  0  0  0  0  0  0  0  0  0  0  0
    5.6760   -5.7422    3.2545 H   0  0  0  0  0  0  0  0  0  0  0  0
    4.5826   -5.8651    4.6208 H   0  0  0  0  0  0  0  0  0  0  0  0
    6.0143   -4.8735    4.7373 H   0  0  0  0  0  0  0  0  0  0  0  0
    3.9911   -3.5694    4.5277 H   0  0  0  0  0  0  0  0  0  0  0  0
    3.2598   -5.1776    2.2757 H   0  0  0  0  0  0  0  0  0  0  0  0
    2.2993   -4.1089    3.1202 H   0  0  0  0  0  0  0  0  0  0  0  0
    3.7279   -1.0657    2.3423 H   0  0  0  0  0  0  0  0  0  0  0  0
    2.9868   -2.0477    3.4608 H   0  0  0  0  0  0  0  0  0  0  0  0
    5.7118   -2.2146    3.5925 H   0  0  0  0  0  0  0  0  0  0  0  0
    6.2670   -5.7506    0.1334 H   0  0  0  0  0  0  0  0  0  0  0  0
    4.6194   -5.1204   -1.5087 H   0  0  0  0  0  0  0  0  0  0  0  0
    5.1484   -1.6040   -2.3710 H   0  0  0  0  0  0  0  0  0  0  0  0
    4.9063   -3.1261   -3.2118 H   0  0  0  0  0  0  0  0  0  0  0  0
    6.1619   -3.0129   -2.0499 H   0  0  0  0  0  0  0  0  0  0  0  0
    2.6883   -2.1048   -2.4321 H   0  0  0  0  0  0  0  0  0  0  0  0
    1.9003   -3.1471   -1.3003 H   0  0  0  0  0  0  0  0  0  0  0  0
    2.7188   -3.8205   -2.6875 H   0  0  0  0  0  0  0  0  0  0  0  0
    3.5572   -1.3755   -0.0885 H   0  0  0  0  0  0  0  0  0  0  0  0
    6.1112   -1.9764   -0.2659 H   0  0  0  0  0  0  0  0  0  0  0  0
    5.6310   -0.3195    2.0852 H   0  0  0  0  0  0  0  0  0  0  0  0
    5.2411    0.1506    0.4411 H   0  0  0  0  0  0  0  0  0  0  0  0
    6.8507   -0.3741    0.8587 H   0  0  0  0  0  0  0  0  0  0  0  0
    7.5448   -4.5234    1.6971 H   0  0  0  0  0  0  0  0  0  0  0  0
    7.6532   -3.0109   -0.6565 H   0  0  0  0  0  0  0  0  0  0  0  0
  1  2  1  0
  1 21  1  0
  1 22  1  0
  1 23  1  0
  2  6  1  0
  2  3  1  0
  2 24  1  1
  3  4  1  0
  3 25  1  0
  3 26  1  0
  4 12  1  6
  4 16  1  0
  4  5  1  0
  5  6  1  0
  5 27  1  0
  5 28  1  0
  6  7  1  0
  6 29  1  1
  7 17  1  0
  7 19  1  0
  7  8  1  6
  8  9  1  0
  9 10  1  0
  9 19  1  0
  9 30  1  1
 10 11  1  0
 10 13  1  0
 10 31  1  6
 11 12  1  0
 13 14  1  0
 13 15  1  0
 13 16  1  0
 14 32  1  0
 14 33  1  0
 14 34  1  0
 15 35  1  0
 15 36  1  0
 15 37  1  0
 16 17  1  0
 16 38  1  6
 17 18  1  0
 17 39  1  6
 18 40  1  0
 18 41  1  0
 18 42  1  0
 19 20  1  0
 19 43  1  1
 20 44  1  0
M  END
>  <i_m_ct_stereo_status>  (29) 
1

>  <s_m_source_file>  (29) 
/var/tmp/pbs.5076255.sched01/tmp_578sd5a/06fbc0iir.sdf

>  <i_m_source_file_index>  (29) 
14

>  <i_lp_mmshare_version>  (29) 
48012

>  <i_f3d_flags>  (29) 
0

>  <s_epik_input>  (29) 
W0NIM11bQ0BIXShbQ0gyXTEpW0NASF0oW0NIMl0yKVtDQEBdKFtDQEBIXTNbQ0gzXSkoW0NAQEhdNFtPSF0pT1tDQEhdNFtDQEBIXShPTzUpQyhbQ0gzXSkoW0NIM10pW0NASF0zW0NAQF0xMjU=

>  <s_epik_cmdline>  (29) 
J2VwaWtfcHl0aG9uJywgJy1waHQnLCAnMi4wJywgJy1waCcsICc3LjAnLCAnLXRuJywgJzgnLCAnLW1hJywgJzIwMCcsICctaW1hZScsICc8aW5maWxlLm1hZT4nLCAnLW9tYWUnLCAnPG91dGZpbGUubWFlPic=

>  <r_lp_tautomer_probability>  (29) 
1

>  <r_epik_Ionization_Penalty>  (29) 
1.74172e-07

>  <r_epik_Ionization_Penalty_Charging>  (29) 
0

>  <r_epik_Ionization_Penalty_Neutral>  (29) 
1.74172e-07

>  <r_epik_State_Penalty>  (29) 
-0

>  <r_epik_Charging_Adjusted_Penalty>  (29) 
0

>  <i_epik_Tot_Q>  (29) 
0

>  <i_epik_Tot_abs_Q>  (29) 
0

>  <s_lp_Force_Field>  (29) 
OPLS3e

>  <r_lp_Energy>  (29) 
284.948

>  <b_lp_Chiralities_Consistent>  (29) 
1

>  <s_lp_Variant>  (29) 
12:0-1

>  <s_i_glide_gridfile>  (29) 
pfpi4k_grid

>  <i_i_glide_lignum>  (29) 
14

>  <i_i_glide_rotatable_bonds>  (29) 
1

>  <r_i_docking_score>  (29) 
-3.18732

>  <r_i_glide_ligand_efficiency>  (29) 
-0.159366

>  <r_i_glide_ligand_efficiency_sa>  (29) 
-0.432586

>  <r_i_glide_ligand_efficiency_ln>  (29) 
-0.797682

>  <r_i_glide_gscore>  (29) 
-3.18732

>  <r_i_glide_lipo>  (29) 
-0.596726

>  <r_i_glide_hbond>  (29) 
0

>  <r_i_glide_metal>  (29) 
-0

>  <r_i_glide_rewards>  (29) 
-1.49755

>  <r_i_glide_evdw>  (29) 
-19.7491

>  <r_i_glide_ecoul>  (29) 
-0.703952

>  <r_i_glide_erotb>  (29) 
0

>  <r_i_glide_esite>  (29) 
0

>  <r_i_glide_emodel>  (29) 
-24.4444

>  <r_i_glide_energy>  (29) 
-20.453

>  <r_i_glide_einternal>  (29) 
0.261659

>  <r_i_glide_intrahb_reward>  (29) 
-0

>  <i_i_glide_confnum>  (29) 
2

>  <i_i_glide_posenum>  (29) 
2

>  <r_i_glide_eff_state_penalty>  (29) 
0

>  <ligand_id>  (29) 
12

>  <original_smiles>  (29) 
CC1CC23CC1C14OC(C(OO2)C(C)(C)C3C1C)C4O

>  <smiles>  (29) 
[H]OC1([H])C2([H])OC13C([H])(C([H])([H])[H])C1([H])C4(OOC2([H])C1(C([H])([H])[H])C([H])([H])[H])C([H])([H])C([H])(C([H])([H])[H])C3([H])C4([H])[H]

$$$$
14:0:0
     RDKit          3D

 39 43  0  0  1  0  0  0  0  0999 V2000
    6.1937   -0.1476    1.1956 C   0  0  0  0  0  0  0  0  0  0  0  0
    4.9734   -0.9760    0.9277 C   0  0  2  0  0  0  0  0  0  0  0  0
    5.0961   -2.3339    1.6560 C   0  0  0  0  0  0  0  0  0  0  0  0
    5.8175   -2.4022    2.6568 O   0  0  0  0  0  0  0  0  0  0  0  0
    4.1892   -3.4275    1.1927 C   0  0  2  0  0  0  0  0  0  0  0  0
    4.2377   -4.2738   -0.1483 C   0  0  1  0  0  0  0  0  0  0  0  0
    4.7033   -5.7140    0.0146 C   0  0  0  0  0  0  0  0  0  0  0  0
    2.8053   -4.1833   -0.0623 O   0  0  0  0  0  0  0  0  0  0  0  0
    3.0191   -2.8680    0.5052 C   0  0  1  0  0  0  0  0  0  0  0  0
    1.9053   -2.3701    1.4089 C   0  0  0  0  0  0  0  0  0  0  0  0
    3.4044   -1.8856   -0.6376 C   0  0  2  0  0  0  0  0  0  0  0  0
    3.5208   -2.5324   -1.9947 C   0  0  1  0  0  0  0  0  0  0  0  0
    2.2080   -2.8974   -2.7067 C   0  0  0  0  0  0  0  0  0  0  0  0
    4.1501   -1.4607   -2.7231 O   0  0  0  0  0  0  0  0  0  0  0  0
    4.6367   -0.4675   -1.6474 O   0  0  0  0  0  0  0  0  0  0  0  0
    4.8483   -1.3129   -0.5459 C   0  0  1  0  0  0  0  0  0  0  0  0
    6.1288   -2.1084   -1.0094 C   0  0  0  0  0  0  0  0  0  0  0  0
    5.8483   -3.2921   -1.8937 C   0  0  0  0  0  0  0  0  0  0  0  0
    4.4349   -3.7474   -1.6487 C   0  0  1  0  0  0  0  0  0  0  0  0
    6.1641    0.1222    2.2604 H   0  0  0  0  0  0  0  0  0  0  0  0
    6.1490    0.7762    0.6092 H   0  0  0  0  0  0  0  0  0  0  0  0
    7.1093   -0.7002    0.9849 H   0  0  0  0  0  0  0  0  0  0  0  0
    4.0873   -0.4234    1.2592 H   0  0  0  0  0  0  0  0  0  0  0  0
    3.8334   -4.0584    1.9970 H   0  0  0  0  0  0  0  0  0  0  0  0
    5.7976   -5.7769   -0.0238 H   0  0  0  0  0  0  0  0  0  0  0  0
    4.2938   -6.3847   -0.7420 H   0  0  0  0  0  0  0  0  0  0  0  0
    4.3872   -6.1171    0.9799 H   0  0  0  0  0  0  0  0  0  0  0  0
    2.1321   -1.3997    1.8889 H   0  0  0  0  0  0  0  0  0  0  0  0
    1.6373   -3.1206    2.1621 H   0  0  0  0  0  0  0  0  0  0  0  0
    1.0415   -2.2357    0.8361 H   0  0  0  0  0  0  0  0  0  0  0  0
    2.7252   -1.0227   -0.6517 H   0  0  0  0  0  0  0  0  0  0  0  0
    1.6593   -3.7084   -2.2282 H   0  0  0  0  0  0  0  0  0  0  0  0
    2.3685   -3.1541   -3.7551 H   0  0  0  0  0  0  0  0  0  0  0  0
    1.5518   -2.0432   -2.7133 H   0  0  0  0  0  0  0  0  0  0  0  0
    6.7766   -1.4594   -1.5575 H   0  0  0  0  0  0  0  0  0  0  0  0
    6.7481   -2.4899   -0.2008 H   0  0  0  0  0  0  0  0  0  0  0  0
    6.0033   -3.0594   -2.9523 H   0  0  0  0  0  0  0  0  0  0  0  0
    6.5268   -4.0889   -1.6297 H   0  0  0  0  0  0  0  0  0  0  0  0
    4.3058   -4.5217   -2.3921 H   0  0  0  0  0  0  0  0  0  0  0  0
  1  2  1  0
  1 20  1  0
  1 21  1  0
  1 22  1  0
  2 16  1  0
  2  3  1  0
  2 23  1  1
  3  4  2  0
  3  5  1  0
  5  9  1  0
  5  6  1  0
  5 24  1  1
  6 19  1  0
  6  7  1  1
  6  8  1  0
  7 25  1  0
  7 26  1  0
  7 27  1  0
  8  9  1  0
  9 10  1  1
  9 11  1  0
 10 28  1  0
 10 29  1  0
 10 30  1  0
 11 16  1  0
 11 12  1  0
 11 31  1  6
 12 19  1  0
 12 13  1  6
 12 14  1  0
 13 32  1  0
 13 33  1  0
 13 34  1  0
 14 15  1  0
 16 15  1  6
 16 17  1  0
 17 18  1  0
 17 35  1  0
 17 36  1  0
 18 19  1  0
 18 37  1  0
 18 38  1  0
 19 39  1  6
M  END
>  <i_m_ct_stereo_status>  (30) 
1

>  <s_m_source_file>  (30) 
/var/tmp/pbs.5076255.sched01/tmp_578sd5a/06fbc0iir.sdf

>  <i_m_source_file_index>  (30) 
16

>  <i_lp_mmshare_version>  (30) 
48012

>  <i_f3d_flags>  (30) 
0

>  <s_epik_input>  (30) 
W0NIM11bQ0BASF0xQyg9TylbQ0BASF0oW0NAQF0yKFtDSDNdKVtDQEhdM1tDQF0xNDUpW0NAXShPMikoW0NIM10pW0NAQEhdKFtDQF0zKFtDSDNdKU9PNClbQ0gyXVtDSDJdNQ==

>  <s_epik_cmdline>  (30) 
J2VwaWtfcHl0aG9uJywgJy1waHQnLCAnMi4wJywgJy1waCcsICc3LjAnLCAnLXRuJywgJzgnLCAnLW1hJywgJzIwMCcsICctaW1hZScsICc8aW5maWxlLm1hZT4nLCAnLW9tYWUnLCAnPG91dGZpbGUubWFlPic=

>  <r_lp_tautomer_probability>  (30) 
1

>  <r_epik_Ionization_Penalty>  (30) 
1.17593e-11

>  <r_epik_Ionization_Penalty_Charging>  (30) 
0

>  <r_epik_Ionization_Penalty_Neutral>  (30) 
1.17593e-11

>  <r_epik_State_Penalty>  (30) 
-0

>  <r_epik_Charging_Adjusted_Penalty>  (30) 
0

>  <i_epik_Tot_Q>  (30) 
0

>  <i_epik_Tot_abs_Q>  (30) 
0

>  <s_lp_Force_Field>  (30) 
OPLS3e

>  <r_lp_Energy>  (30) 
72.7495

>  <b_lp_Chiralities_Consistent>  (30) 
1

>  <s_lp_Variant>  (30) 
14:0-1

>  <s_i_glide_gridfile>  (30) 
pfpi4k_grid

>  <i_i_glide_lignum>  (30) 
16

>  <i_i_glide_rotatable_bonds>  (30) 
0

>  <r_i_docking_score>  (30) 
-2.30113

>  <r_i_glide_ligand_efficiency>  (30) 
-0.121112

>  <r_i_glide_ligand_efficiency_sa>  (30) 
-0.323176

>  <r_i_glide_ligand_efficiency_ln>  (30) 
-0.583386

>  <r_i_glide_gscore>  (30) 
-2.30113

>  <r_i_glide_lipo>  (30) 
-0.37743

>  <r_i_glide_hbond>  (30) 
0

>  <r_i_glide_metal>  (30) 
-0

>  <r_i_glide_rewards>  (30) 
-1.67175

>  <r_i_glide_evdw>  (30) 
-1.6551

>  <r_i_glide_ecoul>  (30) 
-1.12798

>  <r_i_glide_erotb>  (30) 
0

>  <r_i_glide_esite>  (30) 
0

>  <r_i_glide_emodel>  (30) 
-5.0146

>  <r_i_glide_energy>  (30) 
-2.78308

>  <r_i_glide_einternal>  (30) 
0

>  <r_i_glide_intrahb_reward>  (30) 
-0

>  <i_i_glide_confnum>  (30) 
2

>  <i_i_glide_posenum>  (30) 
1

>  <r_i_glide_eff_state_penalty>  (30) 
0

>  <ligand_id>  (30) 
14

>  <original_smiles>  (30) 
CC1C(=O)C2C3(C)OC2(C)C2C4(C)OOC12CCC34

>  <smiles>  (30) 
[H]C([H])([H])C1([H])C(=O)C2([H])C3(C([H])([H])[H])OC2(C([H])([H])[H])C2([H])C14OOC2(C([H])([H])[H])C3([H])C([H])([H])C4([H])[H]

$$$$
14:0:1
     RDKit          3D

 39 43  0  0  1  0  0  0  0  0999 V2000
    2.6934   -0.1536    0.8811 C   0  0  0  0  0  0  0  0  0  0  0  0
    3.0739   -1.5335    0.2745 C   0  0  2  0  0  0  0  0  0  0  0  0
    4.3804   -2.1096    0.9168 C   0  0  0  0  0  0  0  0  0  0  0  0
    4.8024   -1.6275    1.9774 O   0  0  0  0  0  0  0  0  0  0  0  0
    5.0548   -3.2948    0.1951 C   0  0  2  0  0  0  0  0  0  0  0  0
    5.8741   -3.3184   -1.1764 C   0  0  1  0  0  0  0  0  0  0  0  0
    7.4015   -3.3994   -1.0687 C   0  0  0  0  0  0  0  0  0  0  0  0
    5.2774   -4.6257   -1.3275 O   0  0  0  0  0  0  0  0  0  0  0  0
    4.0970   -4.0650   -0.6654 C   0  0  1  0  0  0  0  0  0  0  0  0
    3.2513   -5.1297    0.0172 C   0  0  0  0  0  0  0  0  0  0  0  0
    3.3098   -3.1321   -1.6355 C   0  0  2  0  0  0  0  0  0  0  0  0
    3.9589   -3.0484   -2.9837 C   0  0  1  0  0  0  0  0  0  0  0  0
    3.8344   -4.2087   -3.9684 C   0  0  0  0  0  0  0  0  0  0  0  0
    3.2208   -1.9571   -3.5444 O   0  0  0  0  0  0  0  0  0  0  0  0
    2.6173   -1.1898   -2.3742 O   0  0  0  0  0  0  0  0  0  0  0  0
    3.3499   -1.5945   -1.2449 C   0  0  1  0  0  0  0  0  0  0  0  0
    4.5574   -0.6573   -1.5101 C   0  0  0  0  0  0  0  0  0  0  0  0
    5.4273   -1.2398   -2.5478 C   0  0  0  0  0  0  0  0  0  0  0  0
    5.4194   -2.7296   -2.5873 C   0  0  1  0  0  0  0  0  0  0  0  0
    2.4359   -0.2862    1.9398 H   0  0  0  0  0  0  0  0  0  0  0  0
    1.8068    0.2938    0.4682 H   0  0  0  0  0  0  0  0  0  0  0  0
    3.5200    0.5622    0.8318 H   0  0  0  0  0  0  0  0  0  0  0  0
    2.2633   -2.2344    0.4800 H   0  0  0  0  0  0  0  0  0  0  0  0
    5.5505   -3.9516    0.8993 H   0  0  0  0  0  0  0  0  0  0  0  0
    7.8570   -2.4185   -0.9257 H   0  0  0  0  0  0  0  0  0  0  0  0
    7.8602   -3.8406   -1.9565 H   0  0  0  0  0  0  0  0  0  0  0  0
    7.6851   -4.0093   -0.2148 H   0  0  0  0  0  0  0  0  0  0  0  0
    2.4557   -4.6751    0.6048 H   0  0  0  0  0  0  0  0  0  0  0  0
    3.8603   -5.7487    0.6747 H   0  0  0  0  0  0  0  0  0  0  0  0
    2.7669   -5.7844   -0.6981 H   0  0  0  0  0  0  0  0  0  0  0  0
    2.2743   -3.4634   -1.7420 H   0  0  0  0  0  0  0  0  0  0  0  0
    4.4703   -5.0528   -3.6965 H   0  0  0  0  0  0  0  0  0  0  0  0
    4.1628   -3.8929   -4.9538 H   0  0  0  0  0  0  0  0  0  0  0  0
    2.7812   -4.4873   -4.0430 H   0  0  0  0  0  0  0  0  0  0  0  0
    4.2047    0.2749   -1.9406 H   0  0  0  0  0  0  0  0  0  0  0  0
    5.1595   -0.3300   -0.6562 H   0  0  0  0  0  0  0  0  0  0  0  0
    5.1230   -0.7805   -3.4971 H   0  0  0  0  0  0  0  0  0  0  0  0
    6.4467   -1.0709   -2.2618 H   0  0  0  0  0  0  0  0  0  0  0  0
    6.0900   -3.0440   -3.3904 H   0  0  0  0  0  0  0  0  0  0  0  0
  1  2  1  0
  1 20  1  0
  1 21  1  0
  1 22  1  0
  2 16  1  0
  2  3  1  0
  2 23  1  6
  3  4  2  0
  3  5  1  0
  5  9  1  0
  5  6  1  0
  5 24  1  1
  6 19  1  0
  6  7  1  1
  6  8  1  0
  7 25  1  0
  7 26  1  0
  7 27  1  0
  8  9  1  0
  9 10  1  1
  9 11  1  0
 10 28  1  0
 10 29  1  0
 10 30  1  0
 11 16  1  0
 11 12  1  0
 11 31  1  6
 12 19  1  0
 12 13  1  6
 12 14  1  0
 13 32  1  0
 13 33  1  0
 13 34  1  0
 14 15  1  0
 16 15  1  6
 16 17  1  0
 17 18  1  0
 17 35  1  0
 17 36  1  0
 18 19  1  0
 18 37  1  0
 18 38  1  0
 19 39  1  6
M  END
>  <i_m_ct_stereo_status>  (31) 
1

>  <s_m_source_file>  (31) 
/var/tmp/pbs.5076255.sched01/tmp_578sd5a/06fbc0iir.sdf

>  <i_m_source_file_index>  (31) 
16

>  <i_lp_mmshare_version>  (31) 
48012

>  <i_f3d_flags>  (31) 
0

>  <s_epik_input>  (31) 
W0NIM11bQ0BASF0xQyg9TylbQ0BASF0oW0NAQF0yKFtDSDNdKVtDQEhdM1tDQF0xNDUpW0NAXShPMikoW0NIM10pW0NAQEhdKFtDQF0zKFtDSDNdKU9PNClbQ0gyXVtDSDJdNQ==

>  <s_epik_cmdline>  (31) 
J2VwaWtfcHl0aG9uJywgJy1waHQnLCAnMi4wJywgJy1waCcsICc3LjAnLCAnLXRuJywgJzgnLCAnLW1hJywgJzIwMCcsICctaW1hZScsICc8aW5maWxlLm1hZT4nLCAnLW9tYWUnLCAnPG91dGZpbGUubWFlPic=

>  <r_lp_tautomer_probability>  (31) 
1

>  <r_epik_Ionization_Penalty>  (31) 
1.17593e-11

>  <r_epik_Ionization_Penalty_Charging>  (31) 
0

>  <r_epik_Ionization_Penalty_Neutral>  (31) 
1.17593e-11

>  <r_epik_State_Penalty>  (31) 
-0

>  <r_epik_Charging_Adjusted_Penalty>  (31) 
0

>  <i_epik_Tot_Q>  (31) 
0

>  <i_epik_Tot_abs_Q>  (31) 
0

>  <s_lp_Force_Field>  (31) 
OPLS3e

>  <r_lp_Energy>  (31) 
72.7495

>  <b_lp_Chiralities_Consistent>  (31) 
1

>  <s_lp_Variant>  (31) 
14:0-1

>  <s_i_glide_gridfile>  (31) 
pfpi4k_grid

>  <i_i_glide_lignum>  (31) 
16

>  <i_i_glide_rotatable_bonds>  (31) 
0

>  <r_i_docking_score>  (31) 
-2.12261

>  <r_i_glide_ligand_efficiency>  (31) 
-0.111716

>  <r_i_glide_ligand_efficiency_sa>  (31) 
-0.298104

>  <r_i_glide_ligand_efficiency_ln>  (31) 
-0.538127

>  <r_i_glide_gscore>  (31) 
-2.12261

>  <r_i_glide_lipo>  (31) 
-0.477117

>  <r_i_glide_hbond>  (31) 
0

>  <r_i_glide_metal>  (31) 
-0

>  <r_i_glide_rewards>  (31) 
-1.60693

>  <r_i_glide_evdw>  (31) 
-1.84112

>  <r_i_glide_ecoul>  (31) 
0.367483

>  <r_i_glide_erotb>  (31) 
0

>  <r_i_glide_esite>  (31) 
-0.00163016

>  <r_i_glide_emodel>  (31) 
-2.46068

>  <r_i_glide_energy>  (31) 
-1.47364

>  <r_i_glide_einternal>  (31) 
0

>  <r_i_glide_intrahb_reward>  (31) 
-0

>  <i_i_glide_confnum>  (31) 
1

>  <i_i_glide_posenum>  (31) 
27

>  <r_i_glide_eff_state_penalty>  (31) 
0

>  <ligand_id>  (31) 
14

>  <original_smiles>  (31) 
CC1C(=O)C2C3(C)OC2(C)C2C4(C)OOC12CCC34

>  <smiles>  (31) 
[H]C([H])([H])C1([H])C(=O)C2([H])C3(C([H])([H])[H])OC2(C([H])([H])[H])C2([H])C14OOC2(C([H])([H])[H])C3([H])C([H])([H])C4([H])[H]

$$$$
15:0:0
     RDKit          3D

 36 37  0  0  1  0  0  0  0  0999 V2000
    3.5807   -0.5772   -4.7732 C   0  0  0  0  0  0  0  0  0  0  0  0
    4.0436   -1.8553   -4.3467 O   0  0  0  0  0  0  0  0  0  0  0  0
    4.3909   -1.9228   -2.9675 C   0  0  2  0  0  0  0  0  0  0  0  0
    5.0438   -3.3020   -2.7187 C   0  0  0  0  0  0  0  0  0  0  0  0
    5.3857   -3.4866   -1.2282 C   0  0  0  0  0  0  0  0  0  0  0  0
    4.1589   -3.2575   -0.3113 C   0  0  2  0  0  0  0  0  0  0  0  0
    3.5256   -1.8862   -0.5843 C   0  0  0  0  0  0  0  0  0  0  0  0
    3.1621   -1.7213   -2.0642 C   0  0  0  0  0  0  0  0  0  0  0  0
    4.4685   -3.4877    1.1869 C   0  0  0  0  0  0  0  0  0  0  0  0
    3.3977   -4.3719    1.7663 C   0  0  0  0  0  0  0  0  0  0  0  0
    3.9759   -5.5714    2.5536 C   0  0  0  0  0  0  0  0  0  0  0  0
    2.4024   -3.5863    2.6492 C   0  0  0  0  0  0  0  0  0  0  0  0
    2.6715   -4.8757    0.5123 C   0  0  0  0  0  0  0  0  0  0  0  0
    1.7577   -5.7107    0.5175 O   0  0  0  0  0  0  0  0  0  0  0  0
    3.1515   -4.2747   -0.5604 N   0  0  0  0  0  0  0  0  0  0  0  0
    3.4359   -0.5786   -5.8543 H   0  0  0  0  0  0  0  0  0  0  0  0
    4.3029    0.1997   -4.5298 H   0  0  0  0  0  0  0  0  0  0  0  0
    2.6218   -0.3121   -4.3261 H   0  0  0  0  0  0  0  0  0  0  0  0
    5.1315   -1.1609   -2.7357 H   0  0  0  0  0  0  0  0  0  0  0  0
    4.3720   -4.1013   -3.0411 H   0  0  0  0  0  0  0  0  0  0  0  0
    5.9494   -3.4191   -3.3191 H   0  0  0  0  0  0  0  0  0  0  0  0
    5.7942   -4.4858   -1.0681 H   0  0  0  0  0  0  0  0  0  0  0  0
    6.1770   -2.7851   -0.9530 H   0  0  0  0  0  0  0  0  0  0  0  0
    2.6168   -1.7591    0.0113 H   0  0  0  0  0  0  0  0  0  0  0  0
    4.2035   -1.0885   -0.2882 H   0  0  0  0  0  0  0  0  0  0  0  0
    2.7282   -0.7314   -2.1818 H   0  0  0  0  0  0  0  0  0  0  0  0
    2.3793   -2.4259   -2.3474 H   0  0  0  0  0  0  0  0  0  0  0  0
    5.4625   -3.9532    1.2957 H   0  0  0  0  0  0  0  0  0  0  0  0
    4.5313   -2.5132    1.7061 H   0  0  0  0  0  0  0  0  0  0  0  0
    4.5716   -5.2315    3.3995 H   0  0  0  0  0  0  0  0  0  0  0  0
    4.6099   -6.1912    1.9249 H   0  0  0  0  0  0  0  0  0  0  0  0
    3.1777   -6.2047    2.9419 H   0  0  0  0  0  0  0  0  0  0  0  0
    2.9120   -3.1542    3.5085 H   0  0  0  0  0  0  0  0  0  0  0  0
    1.6083   -4.2334    3.0207 H   0  0  0  0  0  0  0  0  0  0  0  0
    1.9390   -2.7749    2.0976 H   0  0  0  0  0  0  0  0  0  0  0  0
    2.8252   -4.4878   -1.5023 H   0  0  0  0  0  0  0  0  0  0  0  0
  1  2  1  0
  1 16  1  0
  1 17  1  0
  1 18  1  0
  2  3  1  0
  3  8  1  0
  3  4  1  0
  3 19  1  1
  4  5  1  0
  4 20  1  0
  4 21  1  0
  5  6  1  0
  5 22  1  0
  5 23  1  0
  6 15  1  6
  6  7  1  0
  6  9  1  0
  7  8  1  0
  7 24  1  0
  7 25  1  0
  8 26  1  0
  8 27  1  0
  9 10  1  0
  9 28  1  0
  9 29  1  0
 10 11  1  0
 10 12  1  0
 10 13  1  0
 11 30  1  0
 11 31  1  0
 11 32  1  0
 12 33  1  0
 12 34  1  0
 12 35  1  0
 13 14  2  0
 13 15  1  0
 15 36  1  0
M  END
>  <i_m_ct_stereo_status>  (32) 
1

>  <s_m_source_file>  (32) 
/var/tmp/pbs.5076255.sched01/tmp_578sd5a/06fbc0iir.sdf

>  <i_m_source_file_index>  (32) 
17

>  <i_lp_mmshare_version>  (32) 
48012

>  <i_f3d_flags>  (32) 
0

>  <s_epik_input>  (32) 
W0NIM11PW0NAQEhdKFtDSDJdW0NIMl0xKVtDSDJdW0NIMl1bQ0BAXTEyW0NIMl1DKFtDSDNdKShbQ0gzXSlDKD1PKVtOSF0y

>  <s_epik_cmdline>  (32) 
J2VwaWtfcHl0aG9uJywgJy1waHQnLCAnMi4wJywgJy1waCcsICc3LjAnLCAnLXRuJywgJzgnLCAnLW1hJywgJzIwMCcsICctaW1hZScsICc8aW5maWxlLm1hZT4nLCAnLW9tYWUnLCAnPG91dGZpbGUubWFlPic=

>  <r_lp_tautomer_probability>  (32) 
1

>  <r_epik_Ionization_Penalty>  (32) 
1.1328e-07

>  <r_epik_Ionization_Penalty_Charging>  (32) 
0

>  <r_epik_Ionization_Penalty_Neutral>  (32) 
1.1328e-07

>  <r_epik_State_Penalty>  (32) 
-0

>  <r_epik_Charging_Adjusted_Penalty>  (32) 
0

>  <i_epik_Tot_Q>  (32) 
0

>  <i_epik_Tot_abs_Q>  (32) 
0

>  <s_lp_Force_Field>  (32) 
OPLS3e

>  <r_lp_Energy>  (32) 
4.3469

>  <b_lp_Chiralities_Consistent>  (32) 
1

>  <s_lp_Variant>  (32) 
15:0-1

>  <s_i_glide_gridfile>  (32) 
pfpi4k_grid

>  <i_i_glide_lignum>  (32) 
17

>  <i_i_glide_rotatable_bonds>  (32) 
1

>  <r_i_docking_score>  (32) 
-5.07306

>  <r_i_glide_ligand_efficiency>  (32) 
-0.338204

>  <r_i_glide_ligand_efficiency_sa>  (32) 
-0.834083

>  <r_i_glide_ligand_efficiency_ln>  (32) 
-1.36812

>  <r_i_glide_gscore>  (32) 
-5.07306

>  <r_i_glide_lipo>  (32) 
-0.572038

>  <r_i_glide_hbond>  (32) 
-0.606809

>  <r_i_glide_metal>  (32) 
-0

>  <r_i_glide_rewards>  (32) 
-1.9684

>  <r_i_glide_evdw>  (32) 
-16.8371

>  <r_i_glide_ecoul>  (32) 
-6.70634

>  <r_i_glide_erotb>  (32) 
0

>  <r_i_glide_esite>  (32) 
-0.0780064

>  <r_i_glide_emodel>  (32) 
-30.9736

>  <r_i_glide_energy>  (32) 
-23.5434

>  <r_i_glide_einternal>  (32) 
0.225932

>  <r_i_glide_intrahb_reward>  (32) 
-0

>  <i_i_glide_confnum>  (32) 
1

>  <i_i_glide_posenum>  (32) 
1

>  <r_i_glide_eff_state_penalty>  (32) 
0

>  <ligand_id>  (32) 
15

>  <original_smiles>  (32) 
COC1CCC2(CC1)CC(C)(C)C(=O)N2

>  <smiles>  (32) 
[H]N1C(=O)C(C([H])([H])[H])(C([H])([H])[H])C([H])([H])C12C([H])([H])C([H])([H])C([H])(OC([H])([H])[H])C([H])([H])C2([H])[H]

$$$$
15:0:1
     RDKit          3D

 36 37  0  0  1  0  0  0  0  0999 V2000
   -3.5752    3.5614    2.7841 C   0  0  0  0  0  0  0  0  0  0  0  0
   -2.3655    4.2364    3.1296 O   0  0  0  0  0  0  0  0  0  0  0  0
   -1.2837    3.4173    3.5955 C   0  0  2  0  0  0  0  0  0  0  0  0
   -0.9950    2.1882    2.7005 C   0  0  0  0  0  0  0  0  0  0  0  0
    0.1370    1.3185    3.2351 C   0  0  0  0  0  0  0  0  0  0  0  0
   -0.1532    0.8822    4.6839 C   0  0  2  0  0  0  0  0  0  0  0  0
   -0.3575    2.1293    5.5841 C   0  0  0  0  0  0  0  0  0  0  0  0
   -1.4982    3.0250    5.0717 C   0  0  0  0  0  0  0  0  0  0  0  0
    0.9365   -0.0623    5.2237 C   0  0  0  0  0  0  0  0  0  0  0  0
    0.2383   -1.2529    5.8908 C   0  0  0  0  0  0  0  0  0  0  0  0
    0.7911   -2.6001    5.3962 C   0  0  0  0  0  0  0  0  0  0  0  0
    0.3273   -1.1593    7.4238 C   0  0  0  0  0  0  0  0  0  0  0  0
   -1.2115   -1.0772    5.4193 C   0  0  0  0  0  0  0  0  0  0  0  0
   -2.1170   -1.8588    5.6714 O   0  0  0  0  0  0  0  0  0  0  0  0
   -1.3522    0.0530    4.7252 N   0  0  0  0  0  0  0  0  0  0  0  0
   -4.3595    4.2759    2.5305 H   0  0  0  0  0  0  0  0  0  0  0  0
   -3.9380    2.9457    3.6052 H   0  0  0  0  0  0  0  0  0  0  0  0
   -3.4556    2.9278    1.9057 H   0  0  0  0  0  0  0  0  0  0  0  0
   -0.3904    4.0475    3.5704 H   0  0  0  0  0  0  0  0  0  0  0  0
   -1.8542    1.5290    2.6016 H   0  0  0  0  0  0  0  0  0  0  0  0
   -0.7310    2.5221    1.7094 H   0  0  0  0  0  0  0  0  0  0  0  0
    0.2211    0.4439    2.5855 H   0  0  0  0  0  0  0  0  0  0  0  0
    1.0877    1.8546    3.1657 H   0  0  0  0  0  0  0  0  0  0  0  0
   -0.5872    1.8292    6.6032 H   0  0  0  0  0  0  0  0  0  0  0  0
    0.5665    2.7063    5.6428 H   0  0  0  0  0  0  0  0  0  0  0  0
   -1.5890    3.9155    5.6990 H   0  0  0  0  0  0  0  0  0  0  0  0
   -2.4311    2.4773    5.1928 H   0  0  0  0  0  0  0  0  0  0  0  0
    1.5627   -0.4194    4.4019 H   0  0  0  0  0  0  0  0  0  0  0  0
    1.5882    0.4682    5.9190 H   0  0  0  0  0  0  0  0  0  0  0  0
    1.8527   -2.7032    5.6221 H   0  0  0  0  0  0  0  0  0  0  0  0
    0.6675   -2.7136    4.3204 H   0  0  0  0  0  0  0  0  0  0  0  0
    0.2686   -3.4231    5.8767 H   0  0  0  0  0  0  0  0  0  0  0  0
    1.3638   -1.1945    7.7594 H   0  0  0  0  0  0  0  0  0  0  0  0
   -0.1865   -1.9919    7.8938 H   0  0  0  0  0  0  0  0  0  0  0  0
   -0.0984   -0.2334    7.8045 H   0  0  0  0  0  0  0  0  0  0  0  0
   -2.2441    0.3774    4.3738 H   0  0  0  0  0  0  0  0  0  0  0  0
  1  2  1  0
  1 16  1  0
  1 17  1  0
  1 18  1  0
  2  3  1  0
  3  8  1  0
  3  4  1  0
  3 19  1  1
  4  5  1  0
  4 20  1  0
  4 21  1  0
  5  6  1  0
  5 22  1  0
  5 23  1  0
  6 15  1  6
  6  7  1  0
  6  9  1  0
  7  8  1  0
  7 24  1  0
  7 25  1  0
  8 26  1  0
  8 27  1  0
  9 10  1  0
  9 28  1  0
  9 29  1  0
 10 11  1  0
 10 12  1  0
 10 13  1  0
 11 30  1  0
 11 31  1  0
 11 32  1  0
 12 33  1  0
 12 34  1  0
 12 35  1  0
 13 14  2  0
 13 15  1  0
 15 36  1  0
M  END
>  <i_m_ct_stereo_status>  (33) 
1

>  <s_m_source_file>  (33) 
/var/tmp/pbs.5076255.sched01/tmp_578sd5a/06fbc0iir.sdf

>  <i_m_source_file_index>  (33) 
17

>  <i_lp_mmshare_version>  (33) 
48012

>  <i_f3d_flags>  (33) 
0

>  <s_epik_input>  (33) 
W0NIM11PW0NAQEhdKFtDSDJdW0NIMl0xKVtDSDJdW0NIMl1bQ0BAXTEyW0NIMl1DKFtDSDNdKShbQ0gzXSlDKD1PKVtOSF0y

>  <s_epik_cmdline>  (33) 
J2VwaWtfcHl0aG9uJywgJy1waHQnLCAnMi4wJywgJy1waCcsICc3LjAnLCAnLXRuJywgJzgnLCAnLW1hJywgJzIwMCcsICctaW1hZScsICc8aW5maWxlLm1hZT4nLCAnLW9tYWUnLCAnPG91dGZpbGUubWFlPic=

>  <r_lp_tautomer_probability>  (33) 
1

>  <r_epik_Ionization_Penalty>  (33) 
1.1328e-07

>  <r_epik_Ionization_Penalty_Charging>  (33) 
0

>  <r_epik_Ionization_Penalty_Neutral>  (33) 
1.1328e-07

>  <r_epik_State_Penalty>  (33) 
-0

>  <r_epik_Charging_Adjusted_Penalty>  (33) 
0

>  <i_epik_Tot_Q>  (33) 
0

>  <i_epik_Tot_abs_Q>  (33) 
0

>  <s_lp_Force_Field>  (33) 
OPLS3e

>  <r_lp_Energy>  (33) 
4.3469

>  <b_lp_Chiralities_Consistent>  (33) 
1

>  <s_lp_Variant>  (33) 
15:0-1

>  <s_i_glide_gridfile>  (33) 
pfpi4k_grid

>  <i_i_glide_lignum>  (33) 
17

>  <i_i_glide_rotatable_bonds>  (33) 
1

>  <r_i_docking_score>  (33) 
-3.68869

>  <r_i_glide_ligand_efficiency>  (33) 
-0.245913

>  <r_i_glide_ligand_efficiency_sa>  (33) 
-0.606472

>  <r_i_glide_ligand_efficiency_ln>  (33) 
-0.994778

>  <r_i_glide_gscore>  (33) 
-3.68869

>  <r_i_glide_lipo>  (33) 
-0.0633583

>  <r_i_glide_hbond>  (33) 
-0.111475

>  <r_i_glide_metal>  (33) 
-0

>  <r_i_glide_rewards>  (33) 
-1.9684

>  <r_i_glide_evdw>  (33) 
-14.7669

>  <r_i_glide_ecoul>  (33) 
-4.83587

>  <r_i_glide_erotb>  (33) 
0

>  <r_i_glide_esite>  (33) 
-0.0817245

>  <r_i_glide_emodel>  (33) 
-23.4008

>  <r_i_glide_energy>  (33) 
-19.6027

>  <r_i_glide_einternal>  (33) 
3.19453

>  <r_i_glide_intrahb_reward>  (33) 
-0

>  <i_i_glide_confnum>  (33) 
1

>  <i_i_glide_posenum>  (33) 
2

>  <r_i_glide_eff_state_penalty>  (33) 
0

>  <ligand_id>  (33) 
15

>  <original_smiles>  (33) 
COC1CCC2(CC1)CC(C)(C)C(=O)N2

>  <smiles>  (33) 
[H]N1C(=O)C(C([H])([H])[H])(C([H])([H])[H])C([H])([H])C12C([H])([H])C([H])([H])C([H])(OC([H])([H])[H])C([H])([H])C2([H])[H]

$$$$
15:0:2
     RDKit          3D

 36 37  0  0  1  0  0  0  0  0999 V2000
    3.2819    1.0240   -5.3494 C   0  0  0  0  0  0  0  0  0  0  0  0
    2.8851   -0.2530   -4.8802 O   0  0  0  0  0  0  0  0  0  0  0  0
    3.8910   -0.9380   -4.1529 C   0  0  2  0  0  0  0  0  0  0  0  0
    3.4684   -2.4157   -4.0378 C   0  0  0  0  0  0  0  0  0  0  0  0
    4.4726   -3.2070   -3.1812 C   0  0  0  0  0  0  0  0  0  0  0  0
    4.6378   -2.5855   -1.7785 C   0  0  2  0  0  0  0  0  0  0  0  0
    5.0386   -1.1067   -1.8907 C   0  0  0  0  0  0  0  0  0  0  0  0
    4.0518   -0.3154   -2.7616 C   0  0  0  0  0  0  0  0  0  0  0  0
    5.6149   -3.3833   -0.8904 C   0  0  0  0  0  0  0  0  0  0  0  0
    4.9701   -3.5821    0.4659 C   0  0  0  0  0  0  0  0  0  0  0  0
    4.9993   -5.0553    0.9272 C   0  0  0  0  0  0  0  0  0  0  0  0
    5.6018   -2.6723    1.5423 C   0  0  0  0  0  0  0  0  0  0  0  0
    3.5210   -3.1543    0.1991 C   0  0  0  0  0  0  0  0  0  0  0  0
    2.6195   -3.2396    1.0306 O   0  0  0  0  0  0  0  0  0  0  0  0
    3.3901   -2.6831   -1.0309 N   0  0  0  0  0  0  0  0  0  0  0  0
    2.4998    1.4481   -5.9774 H   0  0  0  0  0  0  0  0  0  0  0  0
    4.1946    0.9447   -5.9347 H   0  0  0  0  0  0  0  0  0  0  0  0
    3.4706    1.7317   -4.5457 H   0  0  0  0  0  0  0  0  0  0  0  0
    4.8332   -0.9047   -4.6919 H   0  0  0  0  0  0  0  0  0  0  0  0
    2.4664   -2.4907   -3.6059 H   0  0  0  0  0  0  0  0  0  0  0  0
    3.3959   -2.8748   -5.0205 H   0  0  0  0  0  0  0  0  0  0  0  0
    4.1484   -4.2465   -3.1041 H   0  0  0  0  0  0  0  0  0  0  0  0
    5.4397   -3.2365   -3.6909 H   0  0  0  0  0  0  0  0  0  0  0  0
    5.1037   -0.6395   -0.9070 H   0  0  0  0  0  0  0  0  0  0  0  0
    6.0343   -1.0458   -2.3133 H   0  0  0  0  0  0  0  0  0  0  0  0
    4.3765    0.7203   -2.8114 H   0  0  0  0  0  0  0  0  0  0  0  0
    3.0631   -0.3070   -2.3138 H   0  0  0  0  0  0  0  0  0  0  0  0
    5.8064   -4.3583   -1.3555 H   0  0  0  0  0  0  0  0  0  0  0  0
    6.5871   -2.8712   -0.8186 H   0  0  0  0  0  0  0  0  0  0  0  0
    6.0204   -5.4196    1.0348 H   0  0  0  0  0  0  0  0  0  0  0  0
    4.4828   -5.7011    0.2190 H   0  0  0  0  0  0  0  0  0  0  0  0
    4.5038   -5.1598    1.8893 H   0  0  0  0  0  0  0  0  0  0  0  0
    6.6518   -2.9193    1.6942 H   0  0  0  0  0  0  0  0  0  0  0  0
    5.0915   -2.7870    2.4951 H   0  0  0  0  0  0  0  0  0  0  0  0
    5.5495   -1.6221    1.2640 H   0  0  0  0  0  0  0  0  0  0  0  0
    2.5280   -2.2557   -1.3598 H   0  0  0  0  0  0  0  0  0  0  0  0
  1  2  1  0
  1 16  1  0
  1 17  1  0
  1 18  1  0
  2  3  1  0
  3  8  1  0
  3  4  1  0
  3 19  1  6
  4  5  1  0
  4 20  1  0
  4 21  1  0
  5  6  1  0
  5 22  1  0
  5 23  1  0
  6 15  1  1
  6  7  1  0
  6  9  1  0
  7  8  1  0
  7 24  1  0
  7 25  1  0
  8 26  1  0
  8 27  1  0
  9 10  1  0
  9 28  1  0
  9 29  1  0
 10 11  1  0
 10 12  1  0
 10 13  1  0
 11 30  1  0
 11 31  1  0
 11 32  1  0
 12 33  1  0
 12 34  1  0
 12 35  1  0
 13 14  2  0
 13 15  1  0
 15 36  1  0
M  END
>  <i_m_ct_stereo_status>  (34) 
1

>  <s_m_source_file>  (34) 
/var/tmp/pbs.5076255.sched01/tmp_578sd5a/06fbc0iir.sdf

>  <i_m_source_file_index>  (34) 
17

>  <i_lp_mmshare_version>  (34) 
48012

>  <i_f3d_flags>  (34) 
0

>  <s_epik_input>  (34) 
W0NIM11PW0NAQEhdKFtDSDJdW0NIMl0xKVtDSDJdW0NIMl1bQ0BAXTEyW0NIMl1DKFtDSDNdKShbQ0gzXSlDKD1PKVtOSF0y

>  <s_epik_cmdline>  (34) 
J2VwaWtfcHl0aG9uJywgJy1waHQnLCAnMi4wJywgJy1waCcsICc3LjAnLCAnLXRuJywgJzgnLCAnLW1hJywgJzIwMCcsICctaW1hZScsICc8aW5maWxlLm1hZT4nLCAnLW9tYWUnLCAnPG91dGZpbGUubWFlPic=

>  <r_lp_tautomer_probability>  (34) 
1

>  <r_epik_Ionization_Penalty>  (34) 
1.1328e-07

>  <r_epik_Ionization_Penalty_Charging>  (34) 
0

>  <r_epik_Ionization_Penalty_Neutral>  (34) 
1.1328e-07

>  <r_epik_State_Penalty>  (34) 
-0

>  <r_epik_Charging_Adjusted_Penalty>  (34) 
0

>  <i_epik_Tot_Q>  (34) 
0

>  <i_epik_Tot_abs_Q>  (34) 
0

>  <s_lp_Force_Field>  (34) 
OPLS3e

>  <r_lp_Energy>  (34) 
4.3469

>  <b_lp_Chiralities_Consistent>  (34) 
1

>  <s_lp_Variant>  (34) 
15:0-1

>  <s_i_glide_gridfile>  (34) 
pfpi4k_grid

>  <i_i_glide_lignum>  (34) 
17

>  <i_i_glide_rotatable_bonds>  (34) 
1

>  <r_i_docking_score>  (34) 
-3.68665

>  <r_i_glide_ligand_efficiency>  (34) 
-0.245777

>  <r_i_glide_ligand_efficiency_sa>  (34) 
-0.606138

>  <r_i_glide_ligand_efficiency_ln>  (34) 
-0.99423

>  <r_i_glide_gscore>  (34) 
-3.68665

>  <r_i_glide_lipo>  (34) 
-0.791773

>  <r_i_glide_hbond>  (34) 
-0.0660949

>  <r_i_glide_metal>  (34) 
-0

>  <r_i_glide_rewards>  (34) 
-1.9684

>  <r_i_glide_evdw>  (34) 
-20.5578

>  <r_i_glide_ecoul>  (34) 
1.3921

>  <r_i_glide_erotb>  (34) 
0

>  <r_i_glide_esite>  (34) 
-0.0413075

>  <r_i_glide_emodel>  (34) 
-24.6151

>  <r_i_glide_energy>  (34) 
-19.1657

>  <r_i_glide_einternal>  (34) 
0.000305106

>  <r_i_glide_intrahb_reward>  (34) 
-0

>  <i_i_glide_confnum>  (34) 
1

>  <i_i_glide_posenum>  (34) 
29

>  <r_i_glide_eff_state_penalty>  (34) 
0

>  <ligand_id>  (34) 
15

>  <original_smiles>  (34) 
COC1CCC2(CC1)CC(C)(C)C(=O)N2

>  <smiles>  (34) 
[H]N1C(=O)C(C([H])([H])[H])(C([H])([H])[H])C([H])([H])C12C([H])([H])C([H])([H])C([H])(OC([H])([H])[H])C([H])([H])C2([H])[H]

$$$$
17:0:0
     RDKit          3D

 31 33  0  0  1  0  0  0  0  0999 V2000
    5.3081   -4.9932    2.7486 C   0  0  0  0  0  0  0  0  0  0  0  0
    4.6291   -3.7150    2.5697 N   0  0  0  0  0  0  0  0  0  0  0  0
    5.1477   -2.5097    3.1890 C   0  0  0  0  0  0  0  0  0  0  0  0
    4.2296   -1.3650    2.7165 C   0  0  1  0  0  0  0  0  0  0  0  0
    4.8805   -0.4652    1.6546 C   0  0  0  0  0  0  0  0  0  0  0  0
    4.4211   -0.9957    0.3769 N   0  0  0  0  0  0  0  0  0  0  0  0
    5.2545   -1.4534   -0.5895 C   0  0  0  0  0  0  0  0  0  0  0  0
    6.4833   -1.4568   -0.4594 O   0  0  0  0  0  0  0  0  0  0  0  0
    4.6291   -1.9966   -1.8287 C   0  0  0  0  0  0  0  0  0  0  0  0
    3.4646   -1.4674   -2.4647 C   0  0  0  0  0  0  0  0  0  0  0  0
    3.0848   -2.1625   -3.5767 C   0  0  0  0  0  0  0  0  0  0  0  0
    4.1945   -3.4533   -3.9181 S   0  0  0  0  0  0  0  0  0  0  0  0
    5.1571   -3.0539   -2.5225 C   0  0  0  0  0  0  0  0  0  0  0  0
    3.0324   -1.3973    0.6115 C   0  0  0  0  0  0  0  0  0  0  0  0
    3.0639   -2.0460    1.9916 C   0  0  1  0  0  0  0  0  0  0  0  0
    3.4780   -3.5128    1.9136 C   0  0  0  0  0  0  0  0  0  0  0  0
    2.8199   -4.3577    1.3181 O   0  0  0  0  0  0  0  0  0  0  0  0
    4.8304   -5.8000    2.1924 H   0  0  0  0  0  0  0  0  0  0  0  0
    5.3001   -5.2695    3.8028 H   0  0  0  0  0  0  0  0  0  0  0  0
    6.3459   -4.9338    2.4186 H   0  0  0  0  0  0  0  0  0  0  0  0
    5.0796   -2.6168    4.2738 H   0  0  0  0  0  0  0  0  0  0  0  0
    6.1935   -2.3537    2.9093 H   0  0  0  0  0  0  0  0  0  0  0  0
    3.8818   -0.7685    3.5620 H   0  0  0  0  0  0  0  0  0  0  0  0
    4.4654    0.5401    1.7458 H   0  0  0  0  0  0  0  0  0  0  0  0
    5.9632   -0.3820    1.7553 H   0  0  0  0  0  0  0  0  0  0  0  0
    2.9103   -0.6444   -2.0647 H   0  0  0  0  0  0  0  0  0  0  0  0
    2.2159   -2.0041   -4.1964 H   0  0  0  0  0  0  0  0  0  0  0  0
    6.0374   -3.6318   -2.2732 H   0  0  0  0  0  0  0  0  0  0  0  0
    2.4064   -0.5012    0.6173 H   0  0  0  0  0  0  0  0  0  0  0  0
    2.6222   -2.0970   -0.1146 H   0  0  0  0  0  0  0  0  0  0  0  0
    2.1061   -1.9632    2.5030 H   0  0  0  0  0  0  0  0  0  0  0  0
  1  2  1  0
  1 18  1  0
  1 19  1  0
  1 20  1  0
  2 16  1  0
  2  3  1  0
  3  4  1  0
  3 21  1  0
  3 22  1  0
  4 15  1  0
  4  5  1  0
  4 23  1  1
  5  6  1  0
  5 24  1  0
  5 25  1  0
  6  7  1  0
  6 14  1  0
  7  8  2  0
  7  9  1  0
  9 13  2  0
  9 10  1  0
 10 11  2  0
 10 26  1  0
 11 12  1  0
 11 27  1  0
 12 13  1  0
 13 28  1  0
 14 15  1  0
 14 29  1  0
 14 30  1  0
 15 16  1  0
 15 31  1  1
 16 17  2  0
M  END
>  <i_m_ct_stereo_status>  (35) 
1

>  <s_m_source_file>  (35) 
/var/tmp/pbs.5076255.sched01/tmp_578sd5a/06fbc0iir.sdf

>  <i_m_source_file_index>  (35) 
19

>  <i_lp_mmshare_version>  (35) 
48012

>  <i_f3d_flags>  (35) 
0

>  <s_epik_input>  (35) 
W0NIM11OKFtDSDJdMSlDKD1PKVtDQEBIXShbQ0BASF0xMilbQ0gyXU4oW0NIMl0yKUMoPU8pYzNbY0hdW2NIXXNbY0hdMw==

>  <s_epik_cmdline>  (35) 
J2VwaWtfcHl0aG9uJywgJy1waHQnLCAnMi4wJywgJy1waCcsICc3LjAnLCAnLXRuJywgJzgnLCAnLW1hJywgJzIwMCcsICctaW1hZScsICc8aW5maWxlLm1hZT4nLCAnLW9tYWUnLCAnPG91dGZpbGUubWFlPic=

>  <r_lp_tautomer_probability>  (35) 
1

>  <r_epik_Ionization_Penalty>  (35) 
1.08145e-08

>  <r_epik_Ionization_Penalty_Charging>  (35) 
0

>  <r_epik_Ionization_Penalty_Neutral>  (35) 
1.08145e-08

>  <r_epik_State_Penalty>  (35) 
-0

>  <r_epik_Charging_Adjusted_Penalty>  (35) 
0

>  <i_epik_Tot_Q>  (35) 
0

>  <i_epik_Tot_abs_Q>  (35) 
0

>  <s_lp_Force_Field>  (35) 
OPLS3e

>  <r_lp_Energy>  (35) 
5.14164

>  <b_lp_Chiralities_Consistent>  (35) 
1

>  <s_lp_Variant>  (35) 
17:0-1

>  <s_i_glide_gridfile>  (35) 
pfpi4k_grid

>  <i_i_glide_lignum>  (35) 
19

>  <i_i_glide_rotatable_bonds>  (35) 
2

>  <r_i_docking_score>  (35) 
-3.7657

>  <r_i_glide_ligand_efficiency>  (35) 
-0.221512

>  <r_i_glide_ligand_efficiency_sa>  (35) 
-0.569569

>  <r_i_glide_ligand_efficiency_ln>  (35) 
-0.982388

>  <r_i_glide_gscore>  (35) 
-3.7657

>  <r_i_glide_lipo>  (35) 
-0.702999

>  <r_i_glide_hbond>  (35) 
-0.115975

>  <r_i_glide_metal>  (35) 
-0

>  <r_i_glide_rewards>  (35) 
-1.77753

>  <r_i_glide_evdw>  (35) 
-23.3541

>  <r_i_glide_ecoul>  (35) 
-3.51104

>  <r_i_glide_erotb>  (35) 
0.558782

>  <r_i_glide_esite>  (35) 
-0.0336225

>  <r_i_glide_emodel>  (35) 
-33.3548

>  <r_i_glide_energy>  (35) 
-26.8651

>  <r_i_glide_einternal>  (35) 
0.978959

>  <r_i_glide_intrahb_reward>  (35) 
-0

>  <i_i_glide_confnum>  (35) 
3

>  <i_i_glide_posenum>  (35) 
39

>  <r_i_glide_eff_state_penalty>  (35) 
0

>  <ligand_id>  (35) 
17

>  <original_smiles>  (35) 
CN1CC2CN(C(=O)c3ccsc3)CC2C1=O

>  <smiles>  (35) 
[H]c1sc([H])c(C(=O)N2C([H])([H])C3([H])C(=O)N(C([H])([H])[H])C([H])([H])C3([H])C2([H])[H])c1[H]

$$$$
17:0:1
     RDKit          3D

 31 33  0  0  1  0  0  0  0  0999 V2000
    2.8302   -6.9711    1.5132 C   0  0  0  0  0  0  0  0  0  0  0  0
    1.7410   -7.8372    1.9588 N   0  0  0  0  0  0  0  0  0  0  0  0
    2.0253   -9.1557    2.5007 C   0  0  0  0  0  0  0  0  0  0  0  0
    0.6597   -9.7273    2.9520 C   0  0  1  0  0  0  0  0  0  0  0  0
    0.4840   -9.7561    4.4778 C   0  0  0  0  0  0  0  0  0  0  0  0
   -0.2769   -8.5530    4.8152 N   0  0  0  0  0  0  0  0  0  0  0  0
    0.2440   -7.5419    5.5486 C   0  0  0  0  0  0  0  0  0  0  0  0
    0.2351   -6.3779    5.1323 O   0  0  0  0  0  0  0  0  0  0  0  0
    0.6763   -7.8424    6.9591 C   0  0  0  0  0  0  0  0  0  0  0  0
    0.8239   -6.8010    7.9359 C   0  0  0  0  0  0  0  0  0  0  0  0
    1.2329   -7.2537    9.1646 C   0  0  0  0  0  0  0  0  0  0  0  0
    1.4482   -8.9703    9.1738 S   0  0  0  0  0  0  0  0  0  0  0  0
    0.9811   -9.0690    7.4985 C   0  0  0  0  0  0  0  0  0  0  0  0
   -1.1910   -8.3382    3.6957 C   0  0  0  0  0  0  0  0  0  0  0  0
   -0.3914   -8.7281    2.4555 C   0  0  1  0  0  0  0  0  0  0  0  0
    0.4307   -7.5632    1.8996 C   0  0  0  0  0  0  0  0  0  0  0  0
   -0.0823   -6.5326    1.4619 O   0  0  0  0  0  0  0  0  0  0  0  0
    2.4723   -6.0014    1.1671 H   0  0  0  0  0  0  0  0  0  0  0  0
    3.3773   -7.4330    0.6920 H   0  0  0  0  0  0  0  0  0  0  0  0
    3.5446   -6.7884    2.3165 H   0  0  0  0  0  0  0  0  0  0  0  0
    2.4515   -9.7772    1.7087 H   0  0  0  0  0  0  0  0  0  0  0  0
    2.7651   -9.0942    3.3064 H   0  0  0  0  0  0  0  0  0  0  0  0
    0.5118  -10.7279    2.5367 H   0  0  0  0  0  0  0  0  0  0  0  0
   -0.1158  -10.6229    4.7741 H   0  0  0  0  0  0  0  0  0  0  0  0
    1.4558   -9.8214    4.9687 H   0  0  0  0  0  0  0  0  0  0  0  0
    0.6117   -5.7693    7.7157 H   0  0  0  0  0  0  0  0  0  0  0  0
    1.4366   -6.6873   10.0654 H   0  0  0  0  0  0  0  0  0  0  0  0
    0.9484  -10.0612    7.0503 H   0  0  0  0  0  0  0  0  0  0  0  0
   -2.0429   -9.0077    3.8088 H   0  0  0  0  0  0  0  0  0  0  0  0
   -1.5927   -7.3259    3.6514 H   0  0  0  0  0  0  0  0  0  0  0  0
   -1.0290   -9.1438    1.6786 H   0  0  0  0  0  0  0  0  0  0  0  0
  1  2  1  0
  1 18  1  0
  1 19  1  0
  1 20  1  0
  2 16  1  0
  2  3  1  0
  3  4  1  0
  3 21  1  0
  3 22  1  0
  4 15  1  0
  4  5  1  0
  4 23  1  6
  5  6  1  0
  5 24  1  0
  5 25  1  0
  6  7  1  0
  6 14  1  0
  7  8  2  0
  7  9  1  0
  9 13  2  0
  9 10  1  0
 10 11  2  0
 10 26  1  0
 11 12  1  0
 11 27  1  0
 12 13  1  0
 13 28  1  0
 14 15  1  0
 14 29  1  0
 14 30  1  0
 15 16  1  0
 15 31  1  6
 16 17  2  0
M  END
>  <i_m_ct_stereo_status>  (36) 
1

>  <s_m_source_file>  (36) 
/var/tmp/pbs.5076255.sched01/tmp_578sd5a/06fbc0iir.sdf

>  <i_m_source_file_index>  (36) 
19

>  <i_lp_mmshare_version>  (36) 
48012

>  <i_f3d_flags>  (36) 
0

>  <s_epik_input>  (36) 
W0NIM11OKFtDSDJdMSlDKD1PKVtDQEBIXShbQ0BASF0xMilbQ0gyXU4oW0NIMl0yKUMoPU8pYzNbY0hdW2NIXXNbY0hdMw==

>  <s_epik_cmdline>  (36) 
J2VwaWtfcHl0aG9uJywgJy1waHQnLCAnMi4wJywgJy1waCcsICc3LjAnLCAnLXRuJywgJzgnLCAnLW1hJywgJzIwMCcsICctaW1hZScsICc8aW5maWxlLm1hZT4nLCAnLW9tYWUnLCAnPG91dGZpbGUubWFlPic=

>  <r_lp_tautomer_probability>  (36) 
1

>  <r_epik_Ionization_Penalty>  (36) 
1.08145e-08

>  <r_epik_Ionization_Penalty_Charging>  (36) 
0

>  <r_epik_Ionization_Penalty_Neutral>  (36) 
1.08145e-08

>  <r_epik_State_Penalty>  (36) 
-0

>  <r_epik_Charging_Adjusted_Penalty>  (36) 
0

>  <i_epik_Tot_Q>  (36) 
0

>  <i_epik_Tot_abs_Q>  (36) 
0

>  <s_lp_Force_Field>  (36) 
OPLS3e

>  <r_lp_Energy>  (36) 
5.14164

>  <b_lp_Chiralities_Consistent>  (36) 
1

>  <s_lp_Variant>  (36) 
17:0-1

>  <s_i_glide_gridfile>  (36) 
pfpi4k_grid

>  <i_i_glide_lignum>  (36) 
19

>  <i_i_glide_rotatable_bonds>  (36) 
2

>  <r_i_docking_score>  (36) 
-3.54918

>  <r_i_glide_ligand_efficiency>  (36) 
-0.208775

>  <r_i_glide_ligand_efficiency_sa>  (36) 
-0.53682

>  <r_i_glide_ligand_efficiency_ln>  (36) 
-0.925903

>  <r_i_glide_gscore>  (36) 
-3.54918

>  <r_i_glide_lipo>  (36) 
-0.0724145

>  <r_i_glide_hbond>  (36) 
-0.27698

>  <r_i_glide_metal>  (36) 
-0

>  <r_i_glide_rewards>  (36) 
-1.70238

>  <r_i_glide_evdw>  (36) 
-19.4697

>  <r_i_glide_ecoul>  (36) 
-6.06728

>  <r_i_glide_erotb>  (36) 
0.558782

>  <r_i_glide_esite>  (36) 
-0.172616

>  <r_i_glide_emodel>  (36) 
-30.1055

>  <r_i_glide_energy>  (36) 
-25.5369

>  <r_i_glide_einternal>  (36) 
4.29455

>  <r_i_glide_intrahb_reward>  (36) 
-0

>  <i_i_glide_confnum>  (36) 
5

>  <i_i_glide_posenum>  (36) 
2

>  <r_i_glide_eff_state_penalty>  (36) 
0

>  <ligand_id>  (36) 
17

>  <original_smiles>  (36) 
CN1CC2CN(C(=O)c3ccsc3)CC2C1=O

>  <smiles>  (36) 
[H]c1sc([H])c(C(=O)N2C([H])([H])C3([H])C(=O)N(C([H])([H])[H])C([H])([H])C3([H])C2([H])[H])c1[H]

$$$$
17:0:2
     RDKit          3D

 31 33  0  0  1  0  0  0  0  0999 V2000
    4.2989   -7.1277    1.1296 C   0  0  0  0  0  0  0  0  0  0  0  0
    4.2955   -5.7472    1.5990 N   0  0  0  0  0  0  0  0  0  0  0  0
    5.3716   -5.2470    2.4369 C   0  0  0  0  0  0  0  0  0  0  0  0
    5.0649   -3.7491    2.6589 C   0  0  1  0  0  0  0  0  0  0  0  0
    5.9764   -2.8017    1.8592 C   0  0  0  0  0  0  0  0  0  0  0  0
    5.2223   -2.4798    0.6524 N   0  0  0  0  0  0  0  0  0  0  0  0
    5.6427   -2.7958   -0.5948 C   0  0  0  0  0  0  0  0  0  0  0  0
    6.6978   -3.3963   -0.8135 O   0  0  0  0  0  0  0  0  0  0  0  0
    4.7791   -2.3553   -1.7186 C   0  0  0  0  0  0  0  0  0  0  0  0
    4.2785   -1.0302   -1.8700 C   0  0  0  0  0  0  0  0  0  0  0  0
    3.5194   -0.8619   -2.9951 C   0  0  0  0  0  0  0  0  0  0  0  0
    3.4141   -2.3358   -3.9128 S   0  0  0  0  0  0  0  0  0  0  0  0
    4.4129   -3.1740   -2.7539 C   0  0  0  0  0  0  0  0  0  0  0  0
    3.8252   -2.3695    1.0771 C   0  0  0  0  0  0  0  0  0  0  0  0
    3.6609   -3.5217    2.0792 C   0  0  1  0  0  0  0  0  0  0  0  0
    3.3254   -4.8480    1.3973 C   0  0  0  0  0  0  0  0  0  0  0  0
    2.2866   -5.0306    0.7647 O   0  0  0  0  0  0  0  0  0  0  0  0
    3.4493   -7.3416    0.4821 H   0  0  0  0  0  0  0  0  0  0  0  0
    4.2482   -7.8114    1.9766 H   0  0  0  0  0  0  0  0  0  0  0  0
    5.2050   -7.3444    0.5647 H   0  0  0  0  0  0  0  0  0  0  0  0
    5.3454   -5.7812    3.3889 H   0  0  0  0  0  0  0  0  0  0  0  0
    6.3451   -5.4277    1.9729 H   0  0  0  0  0  0  0  0  0  0  0  0
    5.1103   -3.5091    3.7219 H   0  0  0  0  0  0  0  0  0  0  0  0
    6.1320   -1.8733    2.4174 H   0  0  0  0  0  0  0  0  0  0  0  0
    6.9655   -3.2242    1.6732 H   0  0  0  0  0  0  0  0  0  0  0  0
    4.4777   -0.2604   -1.1420 H   0  0  0  0  0  0  0  0  0  0  0  0
    3.0054    0.0304   -3.3249 H   0  0  0  0  0  0  0  0  0  0  0  0
    4.6475   -4.2247   -2.8807 H   0  0  0  0  0  0  0  0  0  0  0  0
    3.6695   -1.4067    1.5702 H   0  0  0  0  0  0  0  0  0  0  0  0
    3.1026   -2.4306    0.2619 H   0  0  0  0  0  0  0  0  0  0  0  0
    2.9107   -3.3078    2.8392 H   0  0  0  0  0  0  0  0  0  0  0  0
  1  2  1  0
  1 18  1  0
  1 19  1  0
  1 20  1  0
  2 16  1  0
  2  3  1  0
  3  4  1  0
  3 21  1  0
  3 22  1  0
  4 15  1  0
  4  5  1  0
  4 23  1  1
  5  6  1  0
  5 24  1  0
  5 25  1  0
  6  7  1  0
  6 14  1  0
  7  8  2  0
  7  9  1  0
  9 13  2  0
  9 10  1  0
 10 11  2  0
 10 26  1  0
 11 12  1  0
 11 27  1  0
 12 13  1  0
 13 28  1  0
 14 15  1  0
 14 29  1  0
 14 30  1  0
 15 16  1  0
 15 31  1  1
 16 17  2  0
M  END
>  <i_m_ct_stereo_status>  (37) 
1

>  <s_m_source_file>  (37) 
/var/tmp/pbs.5076255.sched01/tmp_578sd5a/06fbc0iir.sdf

>  <i_m_source_file_index>  (37) 
19

>  <i_lp_mmshare_version>  (37) 
48012

>  <i_f3d_flags>  (37) 
0

>  <s_epik_input>  (37) 
W0NIM11OKFtDSDJdMSlDKD1PKVtDQEBIXShbQ0BASF0xMilbQ0gyXU4oW0NIMl0yKUMoPU8pYzNbY0hdW2NIXXNbY0hdMw==

>  <s_epik_cmdline>  (37) 
J2VwaWtfcHl0aG9uJywgJy1waHQnLCAnMi4wJywgJy1waCcsICc3LjAnLCAnLXRuJywgJzgnLCAnLW1hJywgJzIwMCcsICctaW1hZScsICc8aW5maWxlLm1hZT4nLCAnLW9tYWUnLCAnPG91dGZpbGUubWFlPic=

>  <r_lp_tautomer_probability>  (37) 
1

>  <r_epik_Ionization_Penalty>  (37) 
1.08145e-08

>  <r_epik_Ionization_Penalty_Charging>  (37) 
0

>  <r_epik_Ionization_Penalty_Neutral>  (37) 
1.08145e-08

>  <r_epik_State_Penalty>  (37) 
-0

>  <r_epik_Charging_Adjusted_Penalty>  (37) 
0

>  <i_epik_Tot_Q>  (37) 
0

>  <i_epik_Tot_abs_Q>  (37) 
0

>  <s_lp_Force_Field>  (37) 
OPLS3e

>  <r_lp_Energy>  (37) 
5.14164

>  <b_lp_Chiralities_Consistent>  (37) 
1

>  <s_lp_Variant>  (37) 
17:0-1

>  <s_i_glide_gridfile>  (37) 
pfpi4k_grid

>  <i_i_glide_lignum>  (37) 
19

>  <i_i_glide_rotatable_bonds>  (37) 
2

>  <r_i_docking_score>  (37) 
-3.16872

>  <r_i_glide_ligand_efficiency>  (37) 
-0.186395

>  <r_i_glide_ligand_efficiency_sa>  (37) 
-0.479275

>  <r_i_glide_ligand_efficiency_ln>  (37) 
-0.826648

>  <r_i_glide_gscore>  (37) 
-3.16872

>  <r_i_glide_lipo>  (37) 
-0.347215

>  <r_i_glide_hbond>  (37) 
-0.00946447

>  <r_i_glide_metal>  (37) 
-0

>  <r_i_glide_rewards>  (37) 
-1.80399

>  <r_i_glide_evdw>  (37) 
-23.7703

>  <r_i_glide_ecoul>  (37) 
-2.51928

>  <r_i_glide_erotb>  (37) 
0.558782

>  <r_i_glide_esite>  (37) 
-0.00042692

>  <r_i_glide_emodel>  (37) 
-31.7894

>  <r_i_glide_energy>  (37) 
-26.2895

>  <r_i_glide_einternal>  (37) 
1.10637

>  <r_i_glide_intrahb_reward>  (37) 
-0

>  <i_i_glide_confnum>  (37) 
3

>  <i_i_glide_posenum>  (37) 
14

>  <r_i_glide_eff_state_penalty>  (37) 
0

>  <ligand_id>  (37) 
17

>  <original_smiles>  (37) 
CN1CC2CN(C(=O)c3ccsc3)CC2C1=O

>  <smiles>  (37) 
[H]c1sc([H])c(C(=O)N2C([H])([H])C3([H])C(=O)N(C([H])([H])[H])C([H])([H])C3([H])C2([H])[H])c1[H]

$$$$
19:0:0
     RDKit          3D

100110  0  0  1  0  0  0  0  0999 V2000
    7.3509   -2.1210    0.4661 C   0  0  0  0  0  0  0  0  0  0  0  0
    5.9724   -2.2969   -0.1881 C   0  0  1  0  0  0  0  0  0  0  0  0
    6.1398   -1.8685   -1.5255 O   0  0  0  0  0  0  0  0  0  0  0  0
    5.4880   -3.7637   -0.1885 C   0  0  0  0  0  0  0  0  0  0  0  0
    5.1567   -4.3335    1.2214 C   0  0  2  0  0  0  0  0  0  0  0  0
    4.6399   -5.7881    1.0730 C   0  0  0  0  0  0  0  0  0  0  0  0
    4.8641   -6.8179    2.2273 C   0  0  2  0  0  0  0  0  0  0  0  0
    3.9202   -8.0054    1.9183 C   0  0  0  0  0  0  0  0  0  0  0  0
    4.5114   -9.1798    2.6243 C   0  0  2  0  0  0  0  0  0  0  0  0
    5.3894   -9.8482    1.6879 O   0  0  0  0  0  0  0  0  0  0  0  0
    5.5182  -10.9077    2.6631 C   0  0  2  0  0  0  0  0  0  0  0  0
    3.9851  -10.5455    2.9758 C   0  0  1  0  0  0  0  0  0  0  0  0
    3.1489  -10.8220    4.2658 C   0  0  2  0  0  0  0  0  0  0  0  0
    3.7687  -12.0223    5.0155 C   0  0  0  0  0  0  0  0  0  0  0  0
    1.7216  -11.3241    3.8904 C   0  0  0  0  0  0  0  0  0  0  0  0
    0.8297  -10.3115    3.1483 C   0  0  0  0  0  0  0  0  0  0  0  0
    0.9544   -8.8608    3.5914 C   0  0  2  0  0  0  0  0  0  0  0  0
    2.0436   -8.4779    4.5823 C   0  0  2  0  0  0  0  0  0  0  0  0
    2.9138   -9.5615    5.1972 C   0  0  2  0  0  0  0  0  0  0  0  0
    4.1545   -9.1378    6.0483 C   0  0  2  0  0  0  0  0  0  0  0  0
    4.0010   -9.7266    7.4790 C   0  0  0  0  0  0  0  0  0  0  0  0
    5.0354   -9.0384    8.3384 C   0  0  0  0  0  0  0  0  0  0  0  0
    5.7439   -8.1031    7.3681 C   0  0  0  0  0  0  0  0  0  0  0  0
    4.7936   -7.7638    6.2244 N   0  0  2  0  0  0  0  0  0  0  0  0
    3.9992   -6.6424    6.6914 C   0  0  0  0  0  0  0  0  0  0  0  0
    5.1462   -5.7690    6.1470 C   0  0  0  0  0  0  0  0  0  0  0  0
    5.4342   -6.8909    5.1010 C   0  0  2  0  0  0  0  0  0  0  0  0
    4.7733   -6.2429    3.7079 C   0  0  2  0  0  0  0  0  0  0  0  0
    3.5213   -5.2814    3.7420 C   0  0  0  0  0  0  0  0  0  0  0  0
    3.8238   -3.7993    3.4040 C   0  0  0  0  0  0  0  0  0  0  0  0
    4.1046   -3.4280    1.9295 C   0  0  1  0  0  0  0  0  0  0  0  0
    4.4850   -1.9259    1.9010 C   0  0  0  0  0  0  0  0  0  0  0  0
    4.9206   -1.4411    0.5251 C   0  0  0  0  0  0  0  0  0  0  0  0
    4.4584   -0.4128    0.0391 O   0  0  0  0  0  0  0  0  0  0  0  0
    6.9710   -7.2140    4.9830 C   0  0  2  0  0  0  0  0  0  0  0  0
    7.4432   -7.6567    3.7218 O   0  0  0  0  0  0  0  0  0  0  0  0
    7.7661   -8.5603    4.7899 C   0  0  2  0  0  0  0  0  0  0  0  0
    7.2671  -10.0168    4.5875 C   0  0  2  0  0  0  0  0  0  0  0  0
    7.1853  -10.9302    5.8114 C   0  0  0  0  0  0  0  0  0  0  0  0
    7.9750  -10.9137    3.6972 O   0  0  0  0  0  0  0  0  0  0  0  0
    6.8687  -10.2556    3.1299 C   0  0  1  0  0  0  0  0  0  0  0  0
    0.5711   -8.2686    4.9300 C   0  0  0  0  0  0  0  0  0  0  0  0
    0.0615   -6.8373    4.9620 C   0  0  0  0  0  0  0  0  0  0  0  0
   -0.1767   -9.0957    5.9616 C   0  0  0  0  0  0  0  0  0  0  0  0
    7.3087   -2.4204    1.5081 H   0  0  0  0  0  0  0  0  0  0  0  0
    7.6877   -1.0832    0.4346 H   0  0  0  0  0  0  0  0  0  0  0  0
    8.1099   -2.7323   -0.0219 H   0  0  0  0  0  0  0  0  0  0  0  0
    5.3230   -2.0083   -1.9801 H   0  0  0  0  0  0  0  0  0  0  0  0
    4.5951   -3.8351   -0.8131 H   0  0  0  0  0  0  0  0  0  0  0  0
    6.2404   -4.3827   -0.6762 H   0  0  0  0  0  0  0  0  0  0  0  0
    6.0861   -4.3380    1.7882 H   0  0  0  0  0  0  0  0  0  0  0  0
    3.5824   -5.7474    0.8012 H   0  0  0  0  0  0  0  0  0  0  0  0
    5.1158   -6.2243    0.1919 H   0  0  0  0  0  0  0  0  0  0  0  0
    5.8837   -7.1612    2.0628 H   0  0  0  0  0  0  0  0  0  0  0  0
    2.9078   -7.7826    2.2258 H   0  0  0  0  0  0  0  0  0  0  0  0
    3.8550   -8.2043    0.8470 H   0  0  0  0  0  0  0  0  0  0  0  0
    4.9989   -8.8143    3.5210 H   0  0  0  0  0  0  0  0  0  0  0  0
    5.6311  -11.8605    2.1441 H   0  0  0  0  0  0  0  0  0  0  0  0
    3.4251  -10.9209    2.1156 H   0  0  0  0  0  0  0  0  0  0  0  0
    3.2037  -12.2695    5.9153 H   0  0  0  0  0  0  0  0  0  0  0  0
    4.7943  -11.8508    5.3152 H   0  0  0  0  0  0  0  0  0  0  0  0
    3.7797  -12.9177    4.3912 H   0  0  0  0  0  0  0  0  0  0  0  0
    1.7833  -12.2397    3.2957 H   0  0  0  0  0  0  0  0  0  0  0  0
    1.2054  -11.6414    4.7980 H   0  0  0  0  0  0  0  0  0  0  0  0
    1.0835  -10.3524    2.0887 H   0  0  0  0  0  0  0  0  0  0  0  0
   -0.2141  -10.6136    3.2147 H   0  0  0  0  0  0  0  0  0  0  0  0
    0.7793   -8.1868    2.7575 H   0  0  0  0  0  0  0  0  0  0  0  0
    2.5910   -7.5870    4.3359 H   0  0  0  0  0  0  0  0  0  0  0  0
    2.2512   -9.9886    5.9447 H   0  0  0  0  0  0  0  0  0  0  0  0
    4.9493   -9.6670    5.5592 H   0  0  0  0  0  0  0  0  0  0  0  0
    3.0127   -9.5209    7.9056 H   0  0  0  0  0  0  0  0  0  0  0  0
    4.1339  -10.8096    7.4925 H   0  0  0  0  0  0  0  0  0  0  0  0
    4.5398   -8.4830    9.1379 H   0  0  0  0  0  0  0  0  0  0  0  0
    5.7254   -9.7465    8.8031 H   0  0  0  0  0  0  0  0  0  0  0  0
    6.1468   -7.2763    7.9484 H   0  0  0  0  0  0  0  0  0  0  0  0
    6.6255   -8.6286    7.0281 H   0  0  0  0  0  0  0  0  0  0  0  0
    3.0310   -6.5701    6.2110 H   0  0  0  0  0  0  0  0  0  0  0  0
    3.8763   -6.5589    7.7739 H   0  0  0  0  0  0  0  0  0  0  0  0
    4.8422   -4.7912    5.7908 H   0  0  0  0  0  0  0  0  0  0  0  0
    5.9669   -5.5854    6.8420 H   0  0  0  0  0  0  0  0  0  0  0  0
    5.5553   -5.5001    3.5719 H   0  0  0  0  0  0  0  0  0  0  0  0
    2.7456   -5.6343    3.0639 H   0  0  0  0  0  0  0  0  0  0  0  0
    3.0094   -5.2553    4.6937 H   0  0  0  0  0  0  0  0  0  0  0  0
    2.9554   -3.2140    3.7120 H   0  0  0  0  0  0  0  0  0  0  0  0
    4.6421   -3.4343    4.0249 H   0  0  0  0  0  0  0  0  0  0  0  0
    3.1674   -3.5212    1.3771 H   0  0  0  0  0  0  0  0  0  0  0  0
    3.6465   -1.3142    2.2340 H   0  0  0  0  0  0  0  0  0  0  0  0
    5.3060   -1.7266    2.5881 H   0  0  0  0  0  0  0  0  0  0  0  0
    7.5834   -6.4060    5.3738 H   0  0  0  0  0  0  0  0  0  0  0  0
    8.7954   -8.4911    5.1426 H   0  0  0  0  0  0  0  0  0  0  0  0
    6.4400  -10.6720    6.5481 H   0  0  0  0  0  0  0  0  0  0  0  0
    8.1503  -10.9271    6.3164 H   0  0  0  0  0  0  0  0  0  0  0  0
    6.9988  -11.9608    5.5098 H   0  0  0  0  0  0  0  0  0  0  0  0
    7.3115   -9.5821    2.3962 H   0  0  0  0  0  0  0  0  0  0  0  0
    0.2685   -6.3846    5.9303 H   0  0  0  0  0  0  0  0  0  0  0  0
   -1.0128   -6.8056    4.7822 H   0  0  0  0  0  0  0  0  0  0  0  0
    0.5499   -6.2356    4.1941 H   0  0  0  0  0  0  0  0  0  0  0  0
    0.0512   -8.7458    6.9706 H   0  0  0  0  0  0  0  0  0  0  0  0
    0.0824  -10.1511    5.8978 H   0  0  0  0  0  0  0  0  0  0  0  0
   -1.2501   -9.0493    5.7879 H   0  0  0  0  0  0  0  0  0  0  0  0
  1  2  1  0
  1 45  1  0
  1 46  1  0
  1 47  1  0
  2 33  1  0
  2  3  1  6
  2  4  1  0
  3 48  1  0
  4  5  1  0
  4 49  1  0
  4 50  1  0
  5 31  1  0
  5  6  1  0
  5 51  1  1
  6  7  1  0
  6 52  1  0
  6 53  1  0
  7 28  1  0
  7  8  1  0
  7 54  1  6
  8  9  1  0
  8 55  1  0
  8 56  1  0
  9 12  1  0
  9 10  1  0
  9 57  1  1
 10 11  1  0
 11 41  1  0
 11 12  1  0
 11 58  1  6
 12 13  1  0
 12 59  1  6
 13 19  1  0
 13 14  1  1
 13 15  1  0
 14 60  1  0
 14 61  1  0
 14 62  1  0
 15 16  1  0
 15 63  1  0
 15 64  1  0
 16 17  1  0
 16 65  1  0
 16 66  1  0
 17 42  1  0
 17 18  1  0
 17 67  1  6
 18 19  1  0
 18 42  1  0
 18 68  1  6
 19 20  1  0
 19 69  1  1
 20 24  1  0
 20 21  1  0
 20 70  1  6
 21 22  1  0
 21 71  1  0
 21 72  1  0
 22 23  1  0
 22 73  1  0
 22 74  1  0
 24 23  1  1
 23 75  1  0
 23 76  1  0
 24 27  1  0
 24 25  1  0
 25 26  1  0
 25 77  1  0
 25 78  1  0
 27 26  1  1
 26 79  1  0
 26 80  1  0
 27 28  1  0
 27 35  1  0
 28 29  1  0
 28 81  1  6
 29 30  1  0
 29 82  1  0
 29 83  1  0
 30 31  1  0
 30 84  1  0
 30 85  1  0
 31 32  1  0
 31 86  1  6
 32 33  1  0
 32 87  1  0
 32 88  1  0
 33 34  2  0
 35 37  1  0
 35 36  1  0
 35 89  1  1
 36 37  1  0
 37 38  1  0
 37 90  1  1
 38 41  1  0
 38 39  1  1
 38 40  1  0
 39 91  1  0
 39 92  1  0
 39 93  1  0
 40 41  1  0
 41 94  1  6
 42 43  1  0
 42 44  1  0
 43 95  1  0
 43 96  1  0
 43 97  1  0
 44 98  1  0
 44 99  1  0
 44100  1  0
M  CHG  1  24   1
M  END
>  <i_m_ct_stereo_status>  (38) 
1

>  <s_m_source_file>  (38) 
/var/tmp/pbs.5076255.sched01/tmp_578sd5a/06fbc0iir.sdf

>  <i_m_source_file_index>  (38) 
21

>  <i_lp_mmshare_version>  (38) 
48012

>  <i_f3d_flags>  (38) 
0

>  <s_epik_input>  (38) 
W0NIM11bQ0BAXShbT0hdKShbQ0gyXTEpQyg9TylbQ0gyXVtDQEhdKFtDSDJdW0NIMl0yKVtDQEhdMVtDSDJdW0NAQEhdKFtDQEBIXTJbQ0BdMyhbTkBAK100NTYpW0NIMl1bQ0gyXTYpW0NIMl1bQ0BIXTdbQ0BASF0oW0NAQEhdKE83KVtDQEhdOFtDQF0oTzgpKFtDSDNdKVtDQEBIXTlbQ0BIXTNPOSlbQ0BAXTEoW0NIM10pW0NASF0oW0NASF0yW0NAQEhdKFtDSDJdW0NIMl0xKUMyKFtDSDNdKVtDSDNdKVtDQEBIXTRbQ0gyXVtDSDJdW0NIMl01

>  <s_epik_cmdline>  (38) 
J2VwaWtfcHl0aG9uJywgJy1waHQnLCAnMi4wJywgJy1waCcsICc3LjAnLCAnLXRuJywgJzgnLCAnLW1hJywgJzIwMCcsICctaW1hZScsICc8aW5maWxlLm1hZT4nLCAnLW9tYWUnLCAnPG91dGZpbGUubWFlPic=

>  <r_lp_tautomer_probability>  (38) 
1

>  <r_epik_Ionization_Penalty>  (38) 
3.3362e-08

>  <r_epik_Ionization_Penalty_Charging>  (38) 
0

>  <r_epik_Ionization_Penalty_Neutral>  (38) 
3.3362e-08

>  <r_epik_State_Penalty>  (38) 
-0

>  <r_epik_Charging_Adjusted_Penalty>  (38) 
0

>  <i_epik_Tot_Q>  (38) 
1

>  <i_epik_Tot_abs_Q>  (38) 
1

>  <s_lp_Force_Field>  (38) 
OPLS3e

>  <r_lp_Energy>  (38) 
259.596

>  <b_lp_Chiralities_Consistent>  (38) 
1

>  <s_lp_Variant>  (38) 
19:0-1

>  <s_i_glide_gridfile>  (38) 
pfpi4k_grid

>  <i_i_glide_lignum>  (38) 
21

>  <i_i_glide_rotatable_bonds>  (38) 
1

>  <r_i_docking_score>  (38) 
-2.95904

>  <r_i_glide_ligand_efficiency>  (38) 
-0.0672508

>  <r_i_glide_ligand_efficiency_sa>  (38) 
-0.237419

>  <r_i_glide_ligand_efficiency_ln>  (38) 
-0.618503

>  <r_i_glide_gscore>  (38) 
-2.95904

>  <r_i_glide_lipo>  (38) 
-0.46836

>  <r_i_glide_hbond>  (38) 
0

>  <r_i_glide_metal>  (38) 
-0

>  <r_i_glide_rewards>  (38) 
-0.0535883

>  <r_i_glide_evdw>  (38) 
-35.6168

>  <r_i_glide_ecoul>  (38) 
-4.375

>  <r_i_glide_erotb>  (38) 
0

>  <r_i_glide_esite>  (38) 
0

>  <r_i_glide_emodel>  (38) 
-46.5211

>  <r_i_glide_energy>  (38) 
-39.9918

>  <r_i_glide_einternal>  (38) 
1.66928

>  <r_i_glide_intrahb_reward>  (38) 
-0

>  <i_i_glide_confnum>  (38) 
2

>  <i_i_glide_posenum>  (38) 
3

>  <r_i_glide_eff_state_penalty>  (38) 
0

>  <ligand_id>  (38) 
19

>  <original_smiles>  (38) 
CC1(O)CC2CC3CC4OC5C4C4(C)CCC6C(C4C4CCC[N+]47CCC7(C3CCC2CC1=O)C1OC1C1(C)OC51)C6(C)C

>  <smiles>  (38) 
[H]OC1(C([H])([H])[H])C(=O)C([H])([H])C2([H])C([H])([H])C([H])([H])C3([H])C([H])(C([H])([H])C4([H])OC5([H])C6([H])OC6(C([H])([H])[H])C6([H])OC6([H])C36C([H])([H])C([H])([H])[N+]63C([H])([H])C([H])([H])C([H])([H])C3([H])C3([H])C6([H])C([H])(C([H])([H])C([H])([H])C3(C([H])([H])[H])C45[H])C6(C([H])([H])[H])C([H])([H])[H])C([H])([H])C2([H])C1([H])[H]

$$$$
19:0:1
     RDKit          3D

100110  0  0  1  0  0  0  0  0999 V2000
    7.3667   -2.2528    0.2133 C   0  0  0  0  0  0  0  0  0  0  0  0
    5.9916   -2.4627   -0.4481 C   0  0  1  0  0  0  0  0  0  0  0  0
    6.1632   -2.1001   -1.8101 O   0  0  0  0  0  0  0  0  0  0  0  0
    5.4884   -3.9186   -0.3889 C   0  0  0  0  0  0  0  0  0  0  0  0
    5.1613   -4.4333    1.0386 C   0  0  2  0  0  0  0  0  0  0  0  0
    4.6524   -5.8938    0.9417 C   0  0  0  0  0  0  0  0  0  0  0  0
    4.8756   -6.8772    2.1348 C   0  0  2  0  0  0  0  0  0  0  0  0
    3.9370   -8.0783    1.8671 C   0  0  0  0  0  0  0  0  0  0  0  0
    4.5274   -9.2191    2.6252 C   0  0  2  0  0  0  0  0  0  0  0  0
    5.4164   -9.9155    1.7208 O   0  0  0  0  0  0  0  0  0  0  0  0
    5.5397  -10.9421    2.7345 C   0  0  2  0  0  0  0  0  0  0  0  0
    4.0045  -10.5734    3.0241 C   0  0  1  0  0  0  0  0  0  0  0  0
    3.1620  -10.8014    4.3203 C   0  0  2  0  0  0  0  0  0  0  0  0
    3.7794  -11.9724    5.1202 C   0  0  0  0  0  0  0  0  0  0  0  0
    1.7366  -11.3153    3.9586 C   0  0  0  0  0  0  0  0  0  0  0  0
    0.8467  -10.3400    3.1693 C   0  0  0  0  0  0  0  0  0  0  0  0
    0.9668   -8.8750    3.5564 C   0  0  2  0  0  0  0  0  0  0  0  0
    2.0474   -8.4515    4.5376 C   0  0  2  0  0  0  0  0  0  0  0  0
    2.9191   -9.5072    5.2000 C   0  0  2  0  0  0  0  0  0  0  0  0
    4.1519   -9.0463    6.0395 C   0  0  2  0  0  0  0  0  0  0  0  0
    3.9916   -9.5778    7.4908 C   0  0  0  0  0  0  0  0  0  0  0  0
    5.0191   -8.8542    8.3279 C   0  0  0  0  0  0  0  0  0  0  0  0
    5.7308   -7.9560    7.3263 C   0  0  0  0  0  0  0  0  0  0  0  0
    4.7854   -7.6648    6.1653 N   0  0  2  0  0  0  0  0  0  0  0  0
    3.9854   -6.5284    6.5831 C   0  0  0  0  0  0  0  0  0  0  0  0
    5.1337   -5.6746    6.0108 C   0  0  0  0  0  0  0  0  0  0  0  0
    5.4297   -6.8360    5.0118 C   0  0  2  0  0  0  0  0  0  0  0  0
    4.7750   -6.2447    3.5912 C   0  0  2  0  0  0  0  0  0  0  0  0
    3.5202   -5.2863    3.5808 C   0  0  0  0  0  0  0  0  0  0  0  0
    3.8196   -3.8171    3.1883 C   0  0  0  0  0  0  0  0  0  0  0  0
    4.1061   -3.5031    1.7027 C   0  0  1  0  0  0  0  0  0  0  0  0
    4.4874   -2.0033    1.6129 C   0  0  0  0  0  0  0  0  0  0  0  0
    4.9323   -1.5810    0.2180 C   0  0  0  0  0  0  0  0  0  0  0  0
    4.4609   -0.5868   -0.3235 O   0  0  0  0  0  0  0  0  0  0  0  0
    6.9681   -7.1584    4.9150 C   0  0  2  0  0  0  0  0  0  0  0  0
    7.4475   -7.6490    3.6746 O   0  0  0  0  0  0  0  0  0  0  0  0
    7.7682   -8.5081    4.7794 C   0  0  2  0  0  0  0  0  0  0  0  0
    7.2748   -9.9734    4.6319 C   0  0  2  0  0  0  0  0  0  0  0  0
    7.1883  -10.8380    5.8898 C   0  0  0  0  0  0  0  0  0  0  0  0
    7.9905  -10.9035    3.7824 O   0  0  0  0  0  0  0  0  0  0  0  0
    6.8866  -10.2704    3.1834 C   0  0  1  0  0  0  0  0  0  0  0  0
    0.5732   -8.2378    4.8679 C   0  0  0  0  0  0  0  0  0  0  0  0
    0.0576   -6.8076    4.8432 C   0  0  0  0  0  0  0  0  0  0  0  0
   -0.1792   -9.0359    5.9200 C   0  0  0  0  0  0  0  0  0  0  0  0
    7.3420   -2.4845    1.2768 H   0  0  0  0  0  0  0  0  0  0  0  0
    7.6974   -1.2163    0.1270 H   0  0  0  0  0  0  0  0  0  0  0  0
    8.1324   -2.8793   -0.2436 H   0  0  0  0  0  0  0  0  0  0  0  0
    6.7315   -2.7261   -2.2319 H   0  0  0  0  0  0  0  0  0  0  0  0
    4.5990   -4.0052   -1.0179 H   0  0  0  0  0  0  0  0  0  0  0  0
    6.2274   -4.5689   -0.8413 H   0  0  0  0  0  0  0  0  0  0  0  0
    6.0912   -4.4104    1.6048 H   0  0  0  0  0  0  0  0  0  0  0  0
    3.5973   -5.8677    0.6610 H   0  0  0  0  0  0  0  0  0  0  0  0
    5.1357   -6.3608    0.0810 H   0  0  0  0  0  0  0  0  0  0  0  0
    5.8972   -7.2234    1.9887 H   0  0  0  0  0  0  0  0  0  0  0  0
    2.9221   -7.8470    2.1599 H   0  0  0  0  0  0  0  0  0  0  0  0
    3.8794   -8.3211    0.8037 H   0  0  0  0  0  0  0  0  0  0  0  0
    5.0073   -8.8181    3.5100 H   0  0  0  0  0  0  0  0  0  0  0  0
    5.6554  -11.9129    2.2512 H   0  0  0  0  0  0  0  0  0  0  0  0
    3.4516  -10.9862    2.1776 H   0  0  0  0  0  0  0  0  0  0  0  0
    3.2107  -12.1912    6.0251 H   0  0  0  0  0  0  0  0  0  0  0  0
    4.8029  -11.7853    5.4181 H   0  0  0  0  0  0  0  0  0  0  0  0
    3.7962  -12.8899    4.5301 H   0  0  0  0  0  0  0  0  0  0  0  0
    1.8060  -12.2481    3.3892 H   0  0  0  0  0  0  0  0  0  0  0  0
    1.2165  -11.6080    4.8714 H   0  0  0  0  0  0  0  0  0  0  0  0
    1.1065  -10.4237    2.1142 H   0  0  0  0  0  0  0  0  0  0  0  0
   -0.1979  -10.6402    3.2432 H   0  0  0  0  0  0  0  0  0  0  0  0
    0.7917   -8.2343    2.6960 H   0  0  0  0  0  0  0  0  0  0  0  0
    2.5929   -7.5686    4.2592 H   0  0  0  0  0  0  0  0  0  0  0  0
    2.2526   -9.9067    5.9595 H   0  0  0  0  0  0  0  0  0  0  0  0
    4.9506   -9.5926    5.5755 H   0  0  0  0  0  0  0  0  0  0  0  0
    3.0002   -9.3581    7.9037 H   0  0  0  0  0  0  0  0  0  0  0  0
    4.1278  -10.6594    7.5467 H   0  0  0  0  0  0  0  0  0  0  0  0
    4.5173   -8.2699    9.1024 H   0  0  0  0  0  0  0  0  0  0  0  0
    5.7088   -9.5414    8.8233 H   0  0  0  0  0  0  0  0  0  0  0  0
    6.1278   -7.1053    7.8760 H   0  0  0  0  0  0  0  0  0  0  0  0
    6.6156   -8.4915    7.0122 H   0  0  0  0  0  0  0  0  0  0  0  0
    3.0199   -6.4782    6.0946 H   0  0  0  0  0  0  0  0  0  0  0  0
    3.8566   -6.4033    7.6606 H   0  0  0  0  0  0  0  0  0  0  0  0
    4.8273   -4.7125    5.6155 H   0  0  0  0  0  0  0  0  0  0  0  0
    5.9497   -5.4613    6.7037 H   0  0  0  0  0  0  0  0  0  0  0  0
    5.5554   -5.5053    3.4292 H   0  0  0  0  0  0  0  0  0  0  0  0
    2.7499   -5.6676    2.9117 H   0  0  0  0  0  0  0  0  0  0  0  0
    3.0027   -5.2248    4.5275 H   0  0  0  0  0  0  0  0  0  0  0  0
    2.9476   -3.2228    3.4670 H   0  0  0  0  0  0  0  0  0  0  0  0
    4.6346   -3.4254    3.7973 H   0  0  0  0  0  0  0  0  0  0  0  0
    3.1732   -3.6203    1.1472 H   0  0  0  0  0  0  0  0  0  0  0  0
    3.6449   -1.3802    1.9133 H   0  0  0  0  0  0  0  0  0  0  0  0
    5.3029   -1.7744    2.2975 H   0  0  0  0  0  0  0  0  0  0  0  0
    7.5772   -6.3340    5.2769 H   0  0  0  0  0  0  0  0  0  0  0  0
    8.7959   -8.4218    5.1339 H   0  0  0  0  0  0  0  0  0  0  0  0
    6.4380  -10.5529    6.6116 H   0  0  0  0  0  0  0  0  0  0  0  0
    8.1507  -10.8121    6.3997 H   0  0  0  0  0  0  0  0  0  0  0  0
    7.0066  -11.8799    5.6275 H   0  0  0  0  0  0  0  0  0  0  0  0
    7.3340   -9.6249    2.4267 H   0  0  0  0  0  0  0  0  0  0  0  0
    0.2581   -6.3157    5.7934 H   0  0  0  0  0  0  0  0  0  0  0  0
   -1.0156   -6.7851    4.6552 H   0  0  0  0  0  0  0  0  0  0  0  0
    0.5484   -6.2350    4.0558 H   0  0  0  0  0  0  0  0  0  0  0  0
    0.0349   -8.6436    6.9153 H   0  0  0  0  0  0  0  0  0  0  0  0
    0.0833  -10.0906    5.9028 H   0  0  0  0  0  0  0  0  0  0  0  0
   -1.2503   -8.9876    5.7274 H   0  0  0  0  0  0  0  0  0  0  0  0
  1  2  1  0
  1 45  1  0
  1 46  1  0
  1 47  1  0
  2 33  1  0
  2  3  1  6
  2  4  1  0
  3 48  1  0
  4  5  1  0
  4 49  1  0
  4 50  1  0
  5 31  1  0
  5  6  1  0
  5 51  1  1
  6  7  1  0
  6 52  1  0
  6 53  1  0
  7 28  1  0
  7  8  1  0
  7 54  1  6
  8  9  1  0
  8 55  1  0
  8 56  1  0
  9 12  1  0
  9 10  1  0
  9 57  1  1
 10 11  1  0
 11 41  1  0
 11 12  1  0
 11 58  1  6
 12 13  1  0
 12 59  1  6
 13 19  1  0
 13 14  1  1
 13 15  1  0
 14 60  1  0
 14 61  1  0
 14 62  1  0
 15 16  1  0
 15 63  1  0
 15 64  1  0
 16 17  1  0
 16 65  1  0
 16 66  1  0
 17 42  1  0
 17 18  1  0
 17 67  1  6
 18 19  1  0
 18 42  1  0
 18 68  1  6
 19 20  1  0
 19 69  1  1
 20 24  1  0
 20 21  1  0
 20 70  1  6
 21 22  1  0
 21 71  1  0
 21 72  1  0
 22 23  1  0
 22 73  1  0
 22 74  1  0
 24 23  1  1
 23 75  1  0
 23 76  1  0
 24 27  1  0
 24 25  1  0
 25 26  1  0
 25 77  1  0
 25 78  1  0
 27 26  1  1
 26 79  1  0
 26 80  1  0
 27 28  1  0
 27 35  1  0
 28 29  1  0
 28 81  1  6
 29 30  1  0
 29 82  1  0
 29 83  1  0
 30 31  1  0
 30 84  1  0
 30 85  1  0
 31 32  1  0
 31 86  1  6
 32 33  1  0
 32 87  1  0
 32 88  1  0
 33 34  2  0
 35 37  1  0
 35 36  1  0
 35 89  1  1
 36 37  1  0
 37 38  1  0
 37 90  1  1
 38 41  1  0
 38 39  1  1
 38 40  1  0
 39 91  1  0
 39 92  1  0
 39 93  1  0
 40 41  1  0
 41 94  1  6
 42 43  1  0
 42 44  1  0
 43 95  1  0
 43 96  1  0
 43 97  1  0
 44 98  1  0
 44 99  1  0
 44100  1  0
M  CHG  1  24   1
M  END
>  <i_m_ct_stereo_status>  (39) 
1

>  <s_m_source_file>  (39) 
/var/tmp/pbs.5076255.sched01/tmp_578sd5a/06fbc0iir.sdf

>  <i_m_source_file_index>  (39) 
21

>  <i_lp_mmshare_version>  (39) 
48012

>  <i_f3d_flags>  (39) 
0

>  <s_epik_input>  (39) 
W0NIM11bQ0BAXShbT0hdKShbQ0gyXTEpQyg9TylbQ0gyXVtDQEhdKFtDSDJdW0NIMl0yKVtDQEhdMVtDSDJdW0NAQEhdKFtDQEBIXTJbQ0BdMyhbTkBAK100NTYpW0NIMl1bQ0gyXTYpW0NIMl1bQ0BIXTdbQ0BASF0oW0NAQEhdKE83KVtDQEhdOFtDQF0oTzgpKFtDSDNdKVtDQEBIXTlbQ0BIXTNPOSlbQ0BAXTEoW0NIM10pW0NASF0oW0NASF0yW0NAQEhdKFtDSDJdW0NIMl0xKUMyKFtDSDNdKVtDSDNdKVtDQEBIXTRbQ0gyXVtDSDJdW0NIMl01

>  <s_epik_cmdline>  (39) 
J2VwaWtfcHl0aG9uJywgJy1waHQnLCAnMi4wJywgJy1waCcsICc3LjAnLCAnLXRuJywgJzgnLCAnLW1hJywgJzIwMCcsICctaW1hZScsICc8aW5maWxlLm1hZT4nLCAnLW9tYWUnLCAnPG91dGZpbGUubWFlPic=

>  <r_lp_tautomer_probability>  (39) 
1

>  <r_epik_Ionization_Penalty>  (39) 
3.3362e-08

>  <r_epik_Ionization_Penalty_Charging>  (39) 
0

>  <r_epik_Ionization_Penalty_Neutral>  (39) 
3.3362e-08

>  <r_epik_State_Penalty>  (39) 
-0

>  <r_epik_Charging_Adjusted_Penalty>  (39) 
0

>  <i_epik_Tot_Q>  (39) 
1

>  <i_epik_Tot_abs_Q>  (39) 
1

>  <s_lp_Force_Field>  (39) 
OPLS3e

>  <r_lp_Energy>  (39) 
259.596

>  <b_lp_Chiralities_Consistent>  (39) 
1

>  <s_lp_Variant>  (39) 
19:0-1

>  <s_i_glide_gridfile>  (39) 
pfpi4k_grid

>  <i_i_glide_lignum>  (39) 
21

>  <i_i_glide_rotatable_bonds>  (39) 
1

>  <r_i_docking_score>  (39) 
-2.84031

>  <r_i_glide_ligand_efficiency>  (39) 
-0.0645524

>  <r_i_glide_ligand_efficiency_sa>  (39) 
-0.227893

>  <r_i_glide_ligand_efficiency_ln>  (39) 
-0.593686

>  <r_i_glide_gscore>  (39) 
-2.84031

>  <r_i_glide_lipo>  (39) 
-0.479439

>  <r_i_glide_hbond>  (39) 
0

>  <r_i_glide_metal>  (39) 
-0

>  <r_i_glide_rewards>  (39) 
-0.0163328

>  <r_i_glide_evdw>  (39) 
-36.3406

>  <r_i_glide_ecoul>  (39) 
-3.51669

>  <r_i_glide_erotb>  (39) 
0

>  <r_i_glide_esite>  (39) 
0

>  <r_i_glide_emodel>  (39) 
-46.8895

>  <r_i_glide_energy>  (39) 
-39.8573

>  <r_i_glide_einternal>  (39) 
0.105895

>  <r_i_glide_intrahb_reward>  (39) 
-0

>  <i_i_glide_confnum>  (39) 
2

>  <i_i_glide_posenum>  (39) 
15

>  <r_i_glide_eff_state_penalty>  (39) 
0

>  <ligand_id>  (39) 
19

>  <original_smiles>  (39) 
CC1(O)CC2CC3CC4OC5C4C4(C)CCC6C(C4C4CCC[N+]47CCC7(C3CCC2CC1=O)C1OC1C1(C)OC51)C6(C)C

>  <smiles>  (39) 
[H]OC1(C([H])([H])[H])C(=O)C([H])([H])C2([H])C([H])([H])C([H])([H])C3([H])C([H])(C([H])([H])C4([H])OC5([H])C6([H])OC6(C([H])([H])[H])C6([H])OC6([H])C36C([H])([H])C([H])([H])[N+]63C([H])([H])C([H])([H])C([H])([H])C3([H])C3([H])C6([H])C([H])(C([H])([H])C([H])([H])C3(C([H])([H])[H])C45[H])C6(C([H])([H])[H])C([H])([H])[H])C([H])([H])C2([H])C1([H])[H]

$$$$
19:0:2
     RDKit          3D

100110  0  0  1  0  0  0  0  0999 V2000
    5.6616   -1.6827    0.2708 C   0  0  0  0  0  0  0  0  0  0  0  0
    5.4271   -2.7985   -0.7645 C   0  0  1  0  0  0  0  0  0  0  0  0
    6.2521   -2.4718   -1.8731 O   0  0  0  0  0  0  0  0  0  0  0  0
    5.8383   -4.1944   -0.2508 C   0  0  0  0  0  0  0  0  0  0  0  0
    4.9651   -4.7523    0.9068 C   0  0  2  0  0  0  0  0  0  0  0  0
    5.4619   -6.1750    1.2826 C   0  0  0  0  0  0  0  0  0  0  0  0
    5.2916   -6.7015    2.7454 C   0  0  2  0  0  0  0  0  0  0  0  0
    5.5326   -8.2305    2.6728 C   0  0  0  0  0  0  0  0  0  0  0  0
    5.9437   -8.6387    4.0494 C   0  0  2  0  0  0  0  0  0  0  0  0
    7.3919   -8.5944    4.1044 O   0  0  0  0  0  0  0  0  0  0  0  0
    7.2950   -9.2022    5.4129 C   0  0  2  0  0  0  0  0  0  0  0  0
    6.0508   -9.9686    4.7477 C   0  0  1  0  0  0  0  0  0  0  0  0
    4.8314  -10.6590    5.4410 C   0  0  2  0  0  0  0  0  0  0  0  0
    5.2333  -11.0624    6.8778 C   0  0  0  0  0  0  0  0  0  0  0  0
    4.5231  -12.0235    4.7539 C   0  0  0  0  0  0  0  0  0  0  0  0
    4.0526  -11.9398    3.2903 C   0  0  0  0  0  0  0  0  0  0  0  0
    3.1348  -10.7731    2.9498 C   0  0  2  0  0  0  0  0  0  0  0  0
    2.8918   -9.6916    3.9876 C   0  0  2  0  0  0  0  0  0  0  0  0
    3.4722   -9.8463    5.3823 C   0  0  2  0  0  0  0  0  0  0  0  0
    3.3903   -8.6381    6.3670 C   0  0  2  0  0  0  0  0  0  0  0  0
    2.6076   -9.0818    7.6331 C   0  0  0  0  0  0  0  0  0  0  0  0
    2.2781   -7.8215    8.3985 C   0  0  0  0  0  0  0  0  0  0  0  0
    2.8949   -6.7172    7.5519 C   0  0  0  0  0  0  0  0  0  0  0  0
    2.9801   -7.1937    6.1041 N   0  0  2  0  0  0  0  0  0  0  0  0
    1.6854   -6.8931    5.5140 C   0  0  0  0  0  0  0  0  0  0  0  0
    2.2864   -5.5085    5.2138 C   0  0  0  0  0  0  0  0  0  0  0  0
    3.6924   -6.1883    5.1445 C   0  0  2  0  0  0  0  0  0  0  0  0
    3.9635   -6.2557    3.4968 C   0  0  2  0  0  0  0  0  0  0  0  0
    2.7858   -6.4130    2.4577 C   0  0  0  0  0  0  0  0  0  0  0  0
    2.4865   -5.1502    1.6108 C   0  0  0  0  0  0  0  0  0  0  0  0
    3.4691   -4.7739    0.4775 C   0  0  1  0  0  0  0  0  0  0  0  0
    2.9955   -3.4267   -0.1325 C   0  0  0  0  0  0  0  0  0  0  0  0
    3.9526   -2.8581   -1.1791 C   0  0  0  0  0  0  0  0  0  0  0  0
    3.5585   -2.4729   -2.2816 O   0  0  0  0  0  0  0  0  0  0  0  0
    4.7868   -5.3762    5.9354 C   0  0  2  0  0  0  0  0  0  0  0  0
    6.1190   -5.4484    5.4561 O   0  0  0  0  0  0  0  0  0  0  0  0
    5.9996   -5.8208    6.8366 C   0  0  2  0  0  0  0  0  0  0  0  0
    6.5434   -7.2340    7.1828 C   0  0  2  0  0  0  0  0  0  0  0  0
    6.0957   -7.8778    8.4967 C   0  0  0  0  0  0  0  0  0  0  0  0
    7.9686   -7.4531    7.3091 O   0  0  0  0  0  0  0  0  0  0  0  0
    7.4262   -7.7718    6.0518 C   0  0  1  0  0  0  0  0  0  0  0  0
    1.7339  -10.5291    3.4559 C   0  0  0  0  0  0  0  0  0  0  0  0
    0.7479   -9.8392    2.5320 C   0  0  0  0  0  0  0  0  0  0  0  0
    1.0085  -11.5882    4.2656 C   0  0  0  0  0  0  0  0  0  0  0  0
    5.0640   -1.8300    1.1701 H   0  0  0  0  0  0  0  0  0  0  0  0
    5.3985   -0.7043   -0.1350 H   0  0  0  0  0  0  0  0  0  0  0  0
    6.7077   -1.6438    0.5750 H   0  0  0  0  0  0  0  0  0  0  0  0
    6.1502   -3.1452   -2.5299 H   0  0  0  0  0  0  0  0  0  0  0  0
    5.7785   -4.8919   -1.0878 H   0  0  0  0  0  0  0  0  0  0  0  0
    6.8874   -4.1640    0.0464 H   0  0  0  0  0  0  0  0  0  0  0  0
    5.1050   -4.0850    1.7570 H   0  0  0  0  0  0  0  0  0  0  0  0
    5.0320   -6.8862    0.5727 H   0  0  0  0  0  0  0  0  0  0  0  0
    6.5346   -6.2209    1.0776 H   0  0  0  0  0  0  0  0  0  0  0  0
    6.1375   -6.2616    3.2702 H   0  0  0  0  0  0  0  0  0  0  0  0
    4.6501   -8.7426    2.3156 H   0  0  0  0  0  0  0  0  0  0  0  0
    6.3178   -8.4822    1.9564 H   0  0  0  0  0  0  0  0  0  0  0  0
    5.4384   -7.9804    4.7493 H   0  0  0  0  0  0  0  0  0  0  0  0
    8.1583   -9.8483    5.5732 H   0  0  0  0  0  0  0  0  0  0  0  0
    6.4983  -10.6806    4.0498 H   0  0  0  0  0  0  0  0  0  0  0  0
    4.4228  -11.5778    7.3955 H   0  0  0  0  0  0  0  0  0  0  0  0
    5.5231  -10.2154    7.4861 H   0  0  0  0  0  0  0  0  0  0  0  0
    6.0895  -11.7382    6.8727 H   0  0  0  0  0  0  0  0  0  0  0  0
    5.3941  -12.6827    4.8053 H   0  0  0  0  0  0  0  0  0  0  0  0
    3.7636  -12.5502    5.3343 H   0  0  0  0  0  0  0  0  0  0  0  0
    4.9355  -11.8602    2.6560 H   0  0  0  0  0  0  0  0  0  0  0  0
    3.5649  -12.8670    2.9933 H   0  0  0  0  0  0  0  0  0  0  0  0
    3.2781  -10.4561    1.9202 H   0  0  0  0  0  0  0  0  0  0  0  0
    2.9450   -8.6860    3.6141 H   0  0  0  0  0  0  0  0  0  0  0  0
    2.7905  -10.5641    5.8302 H   0  0  0  0  0  0  0  0  0  0  0  0
    4.4172   -8.5059    6.6426 H   0  0  0  0  0  0  0  0  0  0  0  0
    1.6654   -9.5843    7.3812 H   0  0  0  0  0  0  0  0  0  0  0  0
    3.1843   -9.7753    8.2459 H   0  0  0  0  0  0  0  0  0  0  0  0
    1.1935   -7.7094    8.4739 H   0  0  0  0  0  0  0  0  0  0  0  0
    2.6853   -7.8362    9.4116 H   0  0  0  0  0  0  0  0  0  0  0  0
    2.3362   -5.8050    7.7493 H   0  0  0  0  0  0  0  0  0  0  0  0
    3.8684   -6.5165    7.9736 H   0  0  0  0  0  0  0  0  0  0  0  0
    1.4357   -7.5350    4.6785 H   0  0  0  0  0  0  0  0  0  0  0  0
    0.8425   -6.8530    6.2078 H   0  0  0  0  0  0  0  0  0  0  0  0
    1.8979   -5.0291    4.3233 H   0  0  0  0  0  0  0  0  0  0  0  0
    2.1895   -4.7702    6.0111 H   0  0  0  0  0  0  0  0  0  0  0  0
    4.1434   -5.1904    3.3909 H   0  0  0  0  0  0  0  0  0  0  0  0
    2.9779   -7.2419    1.7776 H   0  0  0  0  0  0  0  0  0  0  0  0
    1.8388   -6.6900    2.9015 H   0  0  0  0  0  0  0  0  0  0  0  0
    1.5189   -5.3137    1.1363 H   0  0  0  0  0  0  0  0  0  0  0  0
    2.3441   -4.2869    2.2625 H   0  0  0  0  0  0  0  0  0  0  0  0
    3.3661   -5.5227   -0.3120 H   0  0  0  0  0  0  0  0  0  0  0  0
    2.0109   -3.5378   -0.5847 H   0  0  0  0  0  0  0  0  0  0  0  0
    2.8900   -2.6770    0.6512 H   0  0  0  0  0  0  0  0  0  0  0  0
    4.4805   -4.3484    6.1038 H   0  0  0  0  0  0  0  0  0  0  0  0
    6.3022   -5.0462    7.5390 H   0  0  0  0  0  0  0  0  0  0  0  0
    5.0548   -8.1570    8.5608 H   0  0  0  0  0  0  0  0  0  0  0  0
    6.2915   -7.1834    9.3128 H   0  0  0  0  0  0  0  0  0  0  0  0
    6.6840   -8.7715    8.7064 H   0  0  0  0  0  0  0  0  0  0  0  0
    7.8561   -7.0276    5.3801 H   0  0  0  0  0  0  0  0  0  0  0  0
   -0.0116   -9.3117    3.1068 H   0  0  0  0  0  0  0  0  0  0  0  0
    0.2526  -10.5712    1.8936 H   0  0  0  0  0  0  0  0  0  0  0  0
    1.2565   -9.1199    1.8882 H   0  0  0  0  0  0  0  0  0  0  0  0
    0.2873  -11.1203    4.9372 H   0  0  0  0  0  0  0  0  0  0  0  0
    1.6885  -12.1963    4.8585 H   0  0  0  0  0  0  0  0  0  0  0  0
    0.4725  -12.2658    3.6001 H   0  0  0  0  0  0  0  0  0  0  0  0
  1  2  1  0
  1 45  1  0
  1 46  1  0
  1 47  1  0
  2 33  1  0
  2  3  1  6
  2  4  1  0
  3 48  1  0
  4  5  1  0
  4 49  1  0
  4 50  1  0
  5 31  1  0
  5  6  1  0
  5 51  1  1
  6  7  1  0
  6 52  1  0
  6 53  1  0
  7 28  1  0
  7  8  1  0
  7 54  1  1
  8  9  1  0
  8 55  1  0
  8 56  1  0
  9 12  1  0
  9 10  1  0
  9 57  1  1
 10 11  1  0
 11 41  1  0
 11 12  1  0
 11 58  1  1
 12 13  1  0
 12 59  1  6
 13 19  1  0
 13 14  1  1
 13 15  1  0
 14 60  1  0
 14 61  1  0
 14 62  1  0
 15 16  1  0
 15 63  1  0
 15 64  1  0
 16 17  1  0
 16 65  1  0
 16 66  1  0
 17 42  1  0
 17 18  1  0
 17 67  1  6
 18 19  1  0
 18 42  1  0
 18 68  1  6
 19 20  1  0
 19 69  1  1
 20 24  1  0
 20 21  1  0
 20 70  1  1
 21 22  1  0
 21 71  1  0
 21 72  1  0
 22 23  1  0
 22 73  1  0
 22 74  1  0
 24 23  1  1
 23 75  1  0
 23 76  1  0
 24 27  1  0
 24 25  1  0
 25 26  1  0
 25 77  1  0
 25 78  1  0
 27 26  1  6
 26 79  1  0
 26 80  1  0
 27 28  1  0
 27 35  1  0
 28 29  1  0
 28 81  1  6
 29 30  1  0
 29 82  1  0
 29 83  1  0
 30 31  1  0
 30 84  1  0
 30 85  1  0
 31 32  1  0
 31 86  1  6
 32 33  1  0
 32 87  1  0
 32 88  1  0
 33 34  2  0
 35 37  1  0
 35 36  1  0
 35 89  1  1
 36 37  1  0
 37 38  1  0
 37 90  1  1
 38 41  1  0
 38 39  1  1
 38 40  1  0
 39 91  1  0
 39 92  1  0
 39 93  1  0
 40 41  1  0
 41 94  1  6
 42 43  1  0
 42 44  1  0
 43 95  1  0
 43 96  1  0
 43 97  1  0
 44 98  1  0
 44 99  1  0
 44100  1  0
M  CHG  1  24   1
M  END
>  <i_m_ct_stereo_status>  (40) 
1

>  <s_m_source_file>  (40) 
/var/tmp/pbs.5076255.sched01/tmp_578sd5a/06fbc0iir.sdf

>  <i_m_source_file_index>  (40) 
21

>  <i_lp_mmshare_version>  (40) 
48012

>  <i_f3d_flags>  (40) 
0

>  <s_epik_input>  (40) 
W0NIM11bQ0BAXShbT0hdKShbQ0gyXTEpQyg9TylbQ0gyXVtDQEhdKFtDSDJdW0NIMl0yKVtDQEhdMVtDSDJdW0NAQEhdKFtDQEBIXTJbQ0BdMyhbTkBAK100NTYpW0NIMl1bQ0gyXTYpW0NIMl1bQ0BIXTdbQ0BASF0oW0NAQEhdKE83KVtDQEhdOFtDQF0oTzgpKFtDSDNdKVtDQEBIXTlbQ0BIXTNPOSlbQ0BAXTEoW0NIM10pW0NASF0oW0NASF0yW0NAQEhdKFtDSDJdW0NIMl0xKUMyKFtDSDNdKVtDSDNdKVtDQEBIXTRbQ0gyXVtDSDJdW0NIMl01

>  <s_epik_cmdline>  (40) 
J2VwaWtfcHl0aG9uJywgJy1waHQnLCAnMi4wJywgJy1waCcsICc3LjAnLCAnLXRuJywgJzgnLCAnLW1hJywgJzIwMCcsICctaW1hZScsICc8aW5maWxlLm1hZT4nLCAnLW9tYWUnLCAnPG91dGZpbGUubWFlPic=

>  <r_lp_tautomer_probability>  (40) 
1

>  <r_epik_Ionization_Penalty>  (40) 
3.3362e-08

>  <r_epik_Ionization_Penalty_Charging>  (40) 
0

>  <r_epik_Ionization_Penalty_Neutral>  (40) 
3.3362e-08

>  <r_epik_State_Penalty>  (40) 
-0

>  <r_epik_Charging_Adjusted_Penalty>  (40) 
0

>  <i_epik_Tot_Q>  (40) 
1

>  <i_epik_Tot_abs_Q>  (40) 
1

>  <s_lp_Force_Field>  (40) 
OPLS3e

>  <r_lp_Energy>  (40) 
259.596

>  <b_lp_Chiralities_Consistent>  (40) 
1

>  <s_lp_Variant>  (40) 
19:0-1

>  <s_i_glide_gridfile>  (40) 
pfpi4k_grid

>  <i_i_glide_lignum>  (40) 
21

>  <i_i_glide_rotatable_bonds>  (40) 
1

>  <r_i_docking_score>  (40) 
-2.82473

>  <r_i_glide_ligand_efficiency>  (40) 
-0.0641985

>  <r_i_glide_ligand_efficiency_sa>  (40) 
-0.226643

>  <r_i_glide_ligand_efficiency_ln>  (40) 
-0.590431

>  <r_i_glide_gscore>  (40) 
-2.82473

>  <r_i_glide_lipo>  (40) 
-0.499217

>  <r_i_glide_hbond>  (40) 
0

>  <r_i_glide_metal>  (40) 
-0

>  <r_i_glide_rewards>  (40) 
0

>  <r_i_glide_evdw>  (40) 
-34.5966

>  <r_i_glide_ecoul>  (40) 
-3.8706

>  <r_i_glide_erotb>  (40) 
0

>  <r_i_glide_esite>  (40) 
-0.0150949

>  <r_i_glide_emodel>  (40) 
-44.6744

>  <r_i_glide_energy>  (40) 
-38.4672

>  <r_i_glide_einternal>  (40) 
1.66788

>  <r_i_glide_intrahb_reward>  (40) 
-0

>  <i_i_glide_confnum>  (40) 
1

>  <i_i_glide_posenum>  (40) 
5

>  <r_i_glide_eff_state_penalty>  (40) 
0

>  <ligand_id>  (40) 
19

>  <original_smiles>  (40) 
CC1(O)CC2CC3CC4OC5C4C4(C)CCC6C(C4C4CCC[N+]47CCC7(C3CCC2CC1=O)C1OC1C1(C)OC51)C6(C)C

>  <smiles>  (40) 
[H]OC1(C([H])([H])[H])C(=O)C([H])([H])C2([H])C([H])([H])C([H])([H])C3([H])C([H])(C([H])([H])C4([H])OC5([H])C6([H])OC6(C([H])([H])[H])C6([H])OC6([H])C36C([H])([H])C([H])([H])[N+]63C([H])([H])C([H])([H])C([H])([H])C3([H])C3([H])C6([H])C([H])(C([H])([H])C([H])([H])C3(C([H])([H])[H])C45[H])C6(C([H])([H])[H])C([H])([H])[H])C([H])([H])C2([H])C1([H])[H]

$$$$
20:0:0
     RDKit          3D

 40 44  0  0  1  0  0  0  0  0999 V2000
    3.5343   -1.0497   -2.9025 C   0  0  0  0  0  0  0  0  0  0  0  0
    3.8930   -2.2819   -2.0593 C   0  0  0  0  0  0  0  0  0  0  0  0
    3.5072   -3.4677   -2.9384 C   0  0  0  0  0  0  0  0  0  0  0  0
    5.1940   -2.3500   -1.2981 C   0  0  0  0  0  0  0  0  0  0  0  0
    5.5459   -1.0754   -0.9744 C   0  0  0  0  0  0  0  0  0  0  0  0
    4.6505   -1.0627    0.1577 C   0  0  2  0  0  0  0  0  0  0  0  0
    5.7553   -1.2379    1.2629 C   0  0  0  0  0  0  0  0  0  0  0  0
    5.0570   -1.3537    2.4673 O   0  0  0  0  0  0  0  0  0  0  0  0
    3.7628   -1.5687    1.9944 C   0  0  2  0  0  0  0  0  0  0  0  0
    2.8055   -1.4499    3.1658 C   0  0  0  0  0  0  0  0  0  0  0  0
    2.1112   -2.4787    3.6792 C   0  0  0  0  0  0  0  0  0  0  0  0
    2.1689   -3.8815    3.1334 C   0  0  0  0  0  0  0  0  0  0  0  0
    2.6610   -3.9199    1.6857 C   0  0  0  0  0  0  0  0  0  0  0  0
    3.9591   -3.1166    1.4185 C   0  0  1  0  0  0  0  0  0  0  0  0
    4.4508   -3.2907   -0.1431 C   0  0  2  0  0  0  0  0  0  0  0  0
    4.4388   -4.7789   -0.5091 C   0  0  0  0  0  0  0  0  0  0  0  0
    3.6781   -2.1378   -0.5532 C   0  0  2  0  0  0  0  0  0  0  0  0
    3.6526   -0.3326    0.9617 C   0  0  0  0  0  0  0  0  0  0  0  0
    2.5034   -1.1130   -3.2259 H   0  0  0  0  0  0  0  0  0  0  0  0
    4.1563   -0.9322   -3.7907 H   0  0  0  0  0  0  0  0  0  0  0  0
    3.5849   -0.1303   -2.3324 H   0  0  0  0  0  0  0  0  0  0  0  0
    3.2609   -3.1819   -3.9586 H   0  0  0  0  0  0  0  0  0  0  0  0
    2.5926   -3.8889   -2.5449 H   0  0  0  0  0  0  0  0  0  0  0  0
    4.3029   -4.2092   -3.0491 H   0  0  0  0  0  0  0  0  0  0  0  0
    5.5494   -0.2494   -1.6427 H   0  0  0  0  0  0  0  0  0  0  0  0
    6.4610   -2.0672    1.1244 H   0  0  0  0  0  0  0  0  0  0  0  0
    6.3492   -0.3340    1.3280 H   0  0  0  0  0  0  0  0  0  0  0  0
    2.7463   -0.4753    3.6240 H   0  0  0  0  0  0  0  0  0  0  0  0
    1.4964   -2.3523    4.5569 H   0  0  0  0  0  0  0  0  0  0  0  0
    2.8202   -4.4782    3.7726 H   0  0  0  0  0  0  0  0  0  0  0  0
    1.1709   -4.3141    3.1961 H   0  0  0  0  0  0  0  0  0  0  0  0
    2.7685   -4.9718    1.4194 H   0  0  0  0  0  0  0  0  0  0  0  0
    1.8508   -3.5285    1.0732 H   0  0  0  0  0  0  0  0  0  0  0  0
    4.7134   -3.5962    2.0487 H   0  0  0  0  0  0  0  0  0  0  0  0
    4.7870   -5.3809    0.3311 H   0  0  0  0  0  0  0  0  0  0  0  0
    5.1178   -5.0354   -1.3245 H   0  0  0  0  0  0  0  0  0  0  0  0
    3.4296   -5.1146   -0.7059 H   0  0  0  0  0  0  0  0  0  0  0  0
    2.6257   -2.1547   -0.3253 H   0  0  0  0  0  0  0  0  0  0  0  0
    3.9997    0.6143    1.3709 H   0  0  0  0  0  0  0  0  0  0  0  0
    2.6676   -0.2016    0.5005 H   0  0  0  0  0  0  0  0  0  0  0  0
  1  2  1  0
  1 19  1  0
  1 20  1  0
  1 21  1  0
  2 17  1  0
  2  3  1  0
  2  4  1  0
  3 22  1  0
  3 23  1  0
  3 24  1  0
  4 15  1  0
  4  5  2  0
  5  6  1  0
  5 25  1  0
  6 17  1  0
  6 18  1  0
  6  7  1  1
  7  8  1  0
  7 26  1  0
  7 27  1  0
  9  8  1  1
  9 14  1  0
  9 10  1  0
  9 18  1  0
 10 11  2  0
 10 28  1  0
 11 12  1  0
 11 29  1  0
 12 13  1  0
 12 30  1  0
 12 31  1  0
 13 14  1  0
 13 32  1  0
 13 33  1  0
 14 15  1  0
 14 34  1  1
 15 16  1  6
 15 17  1  0
 16 35  1  0
 16 36  1  0
 16 37  1  0
 17 38  1  6
 18 39  1  0
 18 40  1  0
M  END
>  <i_m_ct_stereo_status>  (41) 
1

>  <s_m_source_file>  (41) 
/var/tmp/pbs.5076255.sched01/tmp_578sd5a/06fbc0iir.sdf

>  <i_m_source_file_index>  (41) 
22

>  <i_lp_mmshare_version>  (41) 
48012

>  <i_f3d_flags>  (41) 
0

>  <s_epik_input>  (41) 
W0NIM11DMShbQ0gzXSlDKD1bQ0hdMilbQ0BdKFtDSDNdKShbQ0BIXTFbQ0BdMjM0KVtDQEhdNVtDQF0oW0NIMl00KShPW0NIMl0zKVtDSF09W0NIXVtDSDJdW0NIMl01

>  <s_epik_cmdline>  (41) 
J2VwaWtfcHl0aG9uJywgJy1waHQnLCAnMi4wJywgJy1waCcsICc3LjAnLCAnLXRuJywgJzgnLCAnLW1hJywgJzIwMCcsICctaW1hZScsICc8aW5maWxlLm1hZT4nLCAnLW9tYWUnLCAnPG91dGZpbGUubWFlPic=

>  <r_lp_tautomer_probability>  (41) 
1

>  <r_epik_Ionization_Penalty>  (41) 
2.52941e-11

>  <r_epik_Ionization_Penalty_Charging>  (41) 
0

>  <r_epik_Ionization_Penalty_Neutral>  (41) 
2.52941e-11

>  <r_epik_State_Penalty>  (41) 
-0

>  <r_epik_Charging_Adjusted_Penalty>  (41) 
0

>  <i_epik_Tot_Q>  (41) 
0

>  <i_epik_Tot_abs_Q>  (41) 
0

>  <s_lp_Force_Field>  (41) 
OPLS3e

>  <r_lp_Energy>  (41) 
232.18

>  <b_lp_Chiralities_Consistent>  (41) 
1

>  <s_lp_Variant>  (41) 
20:0-1

>  <s_i_glide_gridfile>  (41) 
pfpi4k_grid

>  <i_i_glide_lignum>  (41) 
22

>  <i_i_glide_rotatable_bonds>  (41) 
0

>  <r_i_docking_score>  (41) 
-2.89072

>  <r_i_glide_ligand_efficiency>  (41) 
-0.160596

>  <r_i_glide_ligand_efficiency_sa>  (41) 
-0.42088

>  <r_i_glide_ligand_efficiency_ln>  (41) 
-0.743045

>  <r_i_glide_gscore>  (41) 
-2.89072

>  <r_i_glide_lipo>  (41) 
-0.197107

>  <r_i_glide_hbond>  (41) 
0

>  <r_i_glide_metal>  (41) 
-0

>  <r_i_glide_rewards>  (41) 
-1.75666

>  <r_i_glide_evdw>  (41) 
-15.3153

>  <r_i_glide_ecoul>  (41) 
-1.14122

>  <r_i_glide_erotb>  (41) 
0

>  <r_i_glide_esite>  (41) 
0

>  <r_i_glide_emodel>  (41) 
-18.5076

>  <r_i_glide_energy>  (41) 
-16.4566

>  <r_i_glide_einternal>  (41) 
0

>  <r_i_glide_intrahb_reward>  (41) 
-0

>  <i_i_glide_confnum>  (41) 
1

>  <i_i_glide_posenum>  (41) 
1

>  <r_i_glide_eff_state_penalty>  (41) 
0

>  <ligand_id>  (41) 
20

>  <original_smiles>  (41) 
CC1(C)C2=CC34COC5(C=CCCC5C2(C)C31)C4

>  <smiles>  (41) 
[H]C1=C([H])C23OC([H])([H])C4(C([H])=C5C(C([H])([H])[H])(C([H])([H])[H])C4([H])C5(C([H])([H])[H])C2([H])C([H])([H])C1([H])[H])C3([H])[H]

$$$$
20:0:1
     RDKit          3D

 40 44  0  0  1  0  0  0  0  0999 V2000
    2.2628   -2.5137   -3.3369 C   0  0  0  0  0  0  0  0  0  0  0  0
    3.6121   -2.9350   -2.7080 C   0  0  0  0  0  0  0  0  0  0  0  0
    4.3400   -3.7242   -3.8012 C   0  0  0  0  0  0  0  0  0  0  0  0
    4.4244   -1.9537   -1.8738 C   0  0  0  0  0  0  0  0  0  0  0  0
    3.5633   -1.0756   -1.3436 C   0  0  0  0  0  0  0  0  0  0  0  0
    3.2185   -1.9723   -0.2665 C   0  0  2  0  0  0  0  0  0  0  0  0
    4.0611   -1.2897    0.8910 C   0  0  0  0  0  0  0  0  0  0  0  0
    3.9138   -2.1272    2.0065 O   0  0  0  0  0  0  0  0  0  0  0  0
    3.3679   -3.2696    1.4148 C   0  0  2  0  0  0  0  0  0  0  0  0
    2.8596   -4.1890    2.5127 C   0  0  0  0  0  0  0  0  0  0  0  0
    3.4034   -5.3898    2.7978 C   0  0  0  0  0  0  0  0  0  0  0  0
    4.5510   -5.9827    2.0185 C   0  0  0  0  0  0  0  0  0  0  0  0
    4.6848   -5.3712    0.6128 C   0  0  0  0  0  0  0  0  0  0  0  0
    4.6945   -3.8083    0.5901 C   0  0  1  0  0  0  0  0  0  0  0  0
    4.9380   -3.2201   -0.9310 C   0  0  2  0  0  0  0  0  0  0  0  0
    6.1248   -3.8803   -1.5368 C   0  0  0  0  0  0  0  0  0  0  0  0
    3.5284   -3.2434   -1.2098 C   0  0  2  0  0  0  0  0  0  0  0  0
    2.1965   -2.5755    0.5898 C   0  0  0  0  0  0  0  0  0  0  0  0
    1.7441   -3.3675   -3.7780 H   0  0  0  0  0  0  0  0  0  0  0  0
    2.3667   -1.7558   -4.1232 H   0  0  0  0  0  0  0  0  0  0  0  0
    1.5588   -2.1675   -2.5860 H   0  0  0  0  0  0  0  0  0  0  0  0
    3.8234   -3.6364   -4.7539 H   0  0  0  0  0  0  0  0  0  0  0  0
    4.3509   -4.7804   -3.5836 H   0  0  0  0  0  0  0  0  0  0  0  0
    5.3548   -3.3979   -3.9814 H   0  0  0  0  0  0  0  0  0  0  0  0
    2.7851   -0.5931   -1.9218 H   0  0  0  0  0  0  0  0  0  0  0  0
    5.1166   -1.1043    0.6619 H   0  0  0  0  0  0  0  0  0  0  0  0
    3.6114   -0.3247    1.1439 H   0  0  0  0  0  0  0  0  0  0  0  0
    2.0588   -3.8092    3.1260 H   0  0  0  0  0  0  0  0  0  0  0  0
    3.0457   -5.9698    3.6317 H   0  0  0  0  0  0  0  0  0  0  0  0
    5.4731   -5.8343    2.5875 H   0  0  0  0  0  0  0  0  0  0  0  0
    4.3926   -7.0644    1.9346 H   0  0  0  0  0  0  0  0  0  0  0  0
    5.5914   -5.7863    0.1728 H   0  0  0  0  0  0  0  0  0  0  0  0
    3.8620   -5.7692    0.0176 H   0  0  0  0  0  0  0  0  0  0  0  0
    5.5614   -3.5383    1.1934 H   0  0  0  0  0  0  0  0  0  0  0  0
    6.8721   -4.1011   -0.7763 H   0  0  0  0  0  0  0  0  0  0  0  0
    6.6146   -3.3202   -2.3249 H   0  0  0  0  0  0  0  0  0  0  0  0
    5.7301   -4.8041   -1.9142 H   0  0  0  0  0  0  0  0  0  0  0  0
    2.9972   -4.1829   -1.0653 H   0  0  0  0  0  0  0  0  0  0  0  0
    1.6115   -1.8848    1.1903 H   0  0  0  0  0  0  0  0  0  0  0  0
    1.5438   -3.2216    0.0263 H   0  0  0  0  0  0  0  0  0  0  0  0
  1  2  1  0
  1 19  1  0
  1 20  1  0
  1 21  1  0
  2 17  1  0
  2  3  1  0
  2  4  1  0
  3 22  1  0
  3 23  1  0
  3 24  1  0
  4 15  1  0
  4  5  2  0
  5  6  1  0
  5 25  1  0
  6 17  1  0
  6 18  1  0
  6  7  1  1
  7  8  1  0
  7 26  1  0
  7 27  1  0
  9  8  1  1
  9 14  1  0
  9 10  1  0
  9 18  1  0
 10 11  2  0
 10 28  1  0
 11 12  1  0
 11 29  1  0
 12 13  1  0
 12 30  1  0
 12 31  1  0
 13 14  1  0
 13 32  1  0
 13 33  1  0
 14 15  1  0
 14 34  1  1
 15 16  1  6
 15 17  1  0
 16 35  1  0
 16 36  1  0
 16 37  1  0
 17 38  1  6
 18 39  1  0
 18 40  1  0
M  END
>  <i_m_ct_stereo_status>  (42) 
1

>  <s_m_source_file>  (42) 
/var/tmp/pbs.5076255.sched01/tmp_578sd5a/06fbc0iir.sdf

>  <i_m_source_file_index>  (42) 
22

>  <i_lp_mmshare_version>  (42) 
48012

>  <i_f3d_flags>  (42) 
0

>  <s_epik_input>  (42) 
W0NIM11DMShbQ0gzXSlDKD1bQ0hdMilbQ0BdKFtDSDNdKShbQ0BIXTFbQ0BdMjM0KVtDQEhdNVtDQF0oW0NIMl00KShPW0NIMl0zKVtDSF09W0NIXVtDSDJdW0NIMl01

>  <s_epik_cmdline>  (42) 
J2VwaWtfcHl0aG9uJywgJy1waHQnLCAnMi4wJywgJy1waCcsICc3LjAnLCAnLXRuJywgJzgnLCAnLW1hJywgJzIwMCcsICctaW1hZScsICc8aW5maWxlLm1hZT4nLCAnLW9tYWUnLCAnPG91dGZpbGUubWFlPic=

>  <r_lp_tautomer_probability>  (42) 
1

>  <r_epik_Ionization_Penalty>  (42) 
2.52941e-11

>  <r_epik_Ionization_Penalty_Charging>  (42) 
0

>  <r_epik_Ionization_Penalty_Neutral>  (42) 
2.52941e-11

>  <r_epik_State_Penalty>  (42) 
-0

>  <r_epik_Charging_Adjusted_Penalty>  (42) 
0

>  <i_epik_Tot_Q>  (42) 
0

>  <i_epik_Tot_abs_Q>  (42) 
0

>  <s_lp_Force_Field>  (42) 
OPLS3e

>  <r_lp_Energy>  (42) 
232.18

>  <b_lp_Chiralities_Consistent>  (42) 
1

>  <s_lp_Variant>  (42) 
20:0-1

>  <s_i_glide_gridfile>  (42) 
pfpi4k_grid

>  <i_i_glide_lignum>  (42) 
22

>  <i_i_glide_rotatable_bonds>  (42) 
0

>  <r_i_docking_score>  (42) 
-2.72073

>  <r_i_glide_ligand_efficiency>  (42) 
-0.151152

>  <r_i_glide_ligand_efficiency_sa>  (42) 
-0.396129

>  <r_i_glide_ligand_efficiency_ln>  (42) 
-0.699349

>  <r_i_glide_gscore>  (42) 
-2.72073

>  <r_i_glide_lipo>  (42) 
-0.45078

>  <r_i_glide_hbond>  (42) 
0

>  <r_i_glide_metal>  (42) 
-0

>  <r_i_glide_rewards>  (42) 
-1.75666

>  <r_i_glide_evdw>  (42) 
-8.12219

>  <r_i_glide_ecoul>  (42) 
-0.714494

>  <r_i_glide_erotb>  (42) 
0

>  <r_i_glide_esite>  (42) 
0

>  <r_i_glide_emodel>  (42) 
-10.2446

>  <r_i_glide_energy>  (42) 
-8.83669

>  <r_i_glide_einternal>  (42) 
0

>  <r_i_glide_intrahb_reward>  (42) 
-0

>  <i_i_glide_confnum>  (42) 
2

>  <i_i_glide_posenum>  (42) 
40

>  <r_i_glide_eff_state_penalty>  (42) 
0

>  <ligand_id>  (42) 
20

>  <original_smiles>  (42) 
CC1(C)C2=CC34COC5(C=CCCC5C2(C)C31)C4

>  <smiles>  (42) 
[H]C1=C([H])C23OC([H])([H])C4(C([H])=C5C(C([H])([H])[H])(C([H])([H])[H])C4([H])C5(C([H])([H])[H])C2([H])C([H])([H])C1([H])[H])C3([H])[H]

$$$$
20:0:2
     RDKit          3D

 40 44  0  0  1  0  0  0  0  0999 V2000
    2.9155   -1.2803   -2.8178 C   0  0  0  0  0  0  0  0  0  0  0  0
    3.7255   -2.3208   -2.0421 C   0  0  0  0  0  0  0  0  0  0  0  0
    3.4964   -3.6293   -2.7864 C   0  0  0  0  0  0  0  0  0  0  0  0
    5.1157   -2.0125   -1.5535 C   0  0  0  0  0  0  0  0  0  0  0  0
    5.1901   -0.6702   -1.3542 C   0  0  0  0  0  0  0  0  0  0  0  0
    4.5489   -0.7885   -0.0585 C   0  0  2  0  0  0  0  0  0  0  0  0
    5.8538   -0.6216    0.8056 C   0  0  0  0  0  0  0  0  0  0  0  0
    5.4508   -0.8023    2.1299 O   0  0  0  0  0  0  0  0  0  0  0  0
    4.1849   -1.3600    1.9409 C   0  0  2  0  0  0  0  0  0  0  0  0
    3.4743   -1.3875    3.2820 C   0  0  0  0  0  0  0  0  0  0  0  0
    3.1667   -2.5118    3.9506 C   0  0  0  0  0  0  0  0  0  0  0  0
    3.4603   -3.8984    3.4346 C   0  0  0  0  0  0  0  0  0  0  0  0
    3.6504   -3.9256    1.9164 C   0  0  0  0  0  0  0  0  0  0  0  0
    4.6396   -2.8562    1.3696 C   0  0  1  0  0  0  0  0  0  0  0  0
    4.8428   -3.0309   -0.2544 C   0  0  2  0  0  0  0  0  0  0  0  0
    5.1304   -4.5064   -0.5911 C   0  0  0  0  0  0  0  0  0  0  0  0
    3.7693   -2.1097   -0.5297 C   0  0  2  0  0  0  0  0  0  0  0  0
    3.5835   -0.2604    0.9212 C   0  0  0  0  0  0  0  0  0  0  0  0
    1.9146   -1.6947   -2.8752 H   0  0  0  0  0  0  0  0  0  0  0  0
    3.2751   -1.0869   -3.8309 H   0  0  0  0  0  0  0  0  0  0  0  0
    2.7928   -0.3186   -2.3239 H   0  0  0  0  0  0  0  0  0  0  0  0
    2.9750   -3.4962   -3.7347 H   0  0  0  0  0  0  0  0  0  0  0  0
    2.8248   -4.2154   -2.1675 H   0  0  0  0  0  0  0  0  0  0  0  0
    4.3969   -4.1822   -3.0443 H   0  0  0  0  0  0  0  0  0  0  0  0
    4.8861    0.0968   -2.0411 H   0  0  0  0  0  0  0  0  0  0  0  0
    6.7010   -1.2667    0.5565 H   0  0  0  0  0  0  0  0  0  0  0  0
    6.2138    0.3976    0.7110 H   0  0  0  0  0  0  0  0  0  0  0  0
    3.2622   -0.4261    3.7227 H   0  0  0  0  0  0  0  0  0  0  0  0
    2.7177   -2.4664    4.9321 H   0  0  0  0  0  0  0  0  0  0  0  0
    4.3475   -4.2792    3.9401 H   0  0  0  0  0  0  0  0  0  0  0  0
    2.6316   -4.5513    3.7137 H   0  0  0  0  0  0  0  0  0  0  0  0
    3.9608   -4.9352    1.6556 H   0  0  0  0  0  0  0  0  0  0  0  0
    2.6674   -3.7878    1.4718 H   0  0  0  0  0  0  0  0  0  0  0  0
    5.5900   -3.1003    1.8509 H   0  0  0  0  0  0  0  0  0  0  0  0
    5.7462   -4.9554    0.1883 H   0  0  0  0  0  0  0  0  0  0  0  0
    5.7184   -4.6178   -1.4969 H   0  0  0  0  0  0  0  0  0  0  0  0
    4.2278   -5.1089   -0.6610 H   0  0  0  0  0  0  0  0  0  0  0  0
    2.8045   -2.3539   -0.1020 H   0  0  0  0  0  0  0  0  0  0  0  0
    3.7635    0.7687    1.2326 H   0  0  0  0  0  0  0  0  0  0  0  0
    2.5278   -0.3904    0.6723 H   0  0  0  0  0  0  0  0  0  0  0  0
  1  2  1  0
  1 19  1  0
  1 20  1  0
  1 21  1  0
  2 17  1  0
  2  3  1  0
  2  4  1  0
  3 22  1  0
  3 23  1  0
  3 24  1  0
  4 15  1  0
  4  5  2  0
  5  6  1  0
  5 25  1  0
  6 17  1  0
  6 18  1  0
  6  7  1  1
  7  8  1  0
  7 26  1  0
  7 27  1  0
  9  8  1  1
  9 14  1  0
  9 10  1  0
  9 18  1  0
 10 11  2  0
 10 28  1  0
 11 12  1  0
 11 29  1  0
 12 13  1  0
 12 30  1  0
 12 31  1  0
 13 14  1  0
 13 32  1  0
 13 33  1  0
 14 15  1  0
 14 34  1  1
 15 16  1  1
 15 17  1  0
 16 35  1  0
 16 36  1  0
 16 37  1  0
 17 38  1  1
 18 39  1  0
 18 40  1  0
M  END
>  <i_m_ct_stereo_status>  (43) 
1

>  <s_m_source_file>  (43) 
/var/tmp/pbs.5076255.sched01/tmp_578sd5a/06fbc0iir.sdf

>  <i_m_source_file_index>  (43) 
22

>  <i_lp_mmshare_version>  (43) 
48012

>  <i_f3d_flags>  (43) 
0

>  <s_epik_input>  (43) 
W0NIM11DMShbQ0gzXSlDKD1bQ0hdMilbQ0BdKFtDSDNdKShbQ0BIXTFbQ0BdMjM0KVtDQEhdNVtDQF0oW0NIMl00KShPW0NIMl0zKVtDSF09W0NIXVtDSDJdW0NIMl01

>  <s_epik_cmdline>  (43) 
J2VwaWtfcHl0aG9uJywgJy1waHQnLCAnMi4wJywgJy1waCcsICc3LjAnLCAnLXRuJywgJzgnLCAnLW1hJywgJzIwMCcsICctaW1hZScsICc8aW5maWxlLm1hZT4nLCAnLW9tYWUnLCAnPG91dGZpbGUubWFlPic=

>  <r_lp_tautomer_probability>  (43) 
1

>  <r_epik_Ionization_Penalty>  (43) 
2.52941e-11

>  <r_epik_Ionization_Penalty_Charging>  (43) 
0

>  <r_epik_Ionization_Penalty_Neutral>  (43) 
2.52941e-11

>  <r_epik_State_Penalty>  (43) 
-0

>  <r_epik_Charging_Adjusted_Penalty>  (43) 
0

>  <i_epik_Tot_Q>  (43) 
0

>  <i_epik_Tot_abs_Q>  (43) 
0

>  <s_lp_Force_Field>  (43) 
OPLS3e

>  <r_lp_Energy>  (43) 
232.18

>  <b_lp_Chiralities_Consistent>  (43) 
1

>  <s_lp_Variant>  (43) 
20:0-1

>  <s_i_glide_gridfile>  (43) 
pfpi4k_grid

>  <i_i_glide_lignum>  (43) 
22

>  <i_i_glide_rotatable_bonds>  (43) 
0

>  <r_i_docking_score>  (43) 
-2.67738

>  <r_i_glide_ligand_efficiency>  (43) 
-0.148743

>  <r_i_glide_ligand_efficiency_sa>  (43) 
-0.389818

>  <r_i_glide_ligand_efficiency_ln>  (43) 
-0.688206

>  <r_i_glide_gscore>  (43) 
-2.67738

>  <r_i_glide_lipo>  (43) 
-0.202867

>  <r_i_glide_hbond>  (43) 
0

>  <r_i_glide_metal>  (43) 
-0

>  <r_i_glide_rewards>  (43) 
-1.75666

>  <r_i_glide_evdw>  (43) 
-9.5638

>  <r_i_glide_ecoul>  (43) 
-1.59772

>  <r_i_glide_erotb>  (43) 
0

>  <r_i_glide_esite>  (43) 
0

>  <r_i_glide_emodel>  (43) 
-13.0261

>  <r_i_glide_energy>  (43) 
-11.1615

>  <r_i_glide_einternal>  (43) 
0

>  <r_i_glide_intrahb_reward>  (43) 
-0

>  <i_i_glide_confnum>  (43) 
1

>  <i_i_glide_posenum>  (43) 
20

>  <r_i_glide_eff_state_penalty>  (43) 
0

>  <ligand_id>  (43) 
20

>  <original_smiles>  (43) 
CC1(C)C2=CC34COC5(C=CCCC5C2(C)C31)C4

>  <smiles>  (43) 
[H]C1=C([H])C23OC([H])([H])C4(C([H])=C5C(C([H])([H])[H])(C([H])([H])[H])C4([H])C5(C([H])([H])[H])C2([H])C([H])([H])C1([H])[H])C3([H])[H]

$$$$
21:0:0
     RDKit          3D

 29 30  0  0  1  0  0  0  0  0999 V2000
    5.8112   -1.3293   -1.2413 O   0  0  0  0  0  0  0  0  0  0  0  0
    5.3045   -2.5999   -1.7762 S   0  0  0  0  0  0  0  0  0  0  0  0
    6.1945   -3.3782   -2.6498 O   0  0  0  0  0  0  0  0  0  0  0  0
    5.0338   -3.6350   -0.3702 C   0  0  0  0  0  0  0  0  0  0  0  0
    4.9001   -4.9998   -0.3793 C   0  0  0  0  0  0  0  0  0  0  0  0
    4.6546   -5.6242    1.2293 S   0  0  0  0  0  0  0  0  0  0  0  0
    4.7285   -4.0106    1.8842 C   0  0  0  0  0  0  0  0  0  0  0  0
    4.5595   -3.8011    3.5843 Cl  0  0  0  0  0  0  0  0  0  0  0  0
    4.9253   -3.0527    0.9280 C   0  0  0  0  0  0  0  0  0  0  0  0
    3.5765   -2.3617   -2.5233 C   0  0  2  0  0  0  0  0  0  0  0  0
    3.1025   -3.3701   -3.6329 C   0  0  0  0  0  0  0  0  0  0  0  0
    4.0848   -4.2626   -4.0834 O   0  0  0  0  0  0  0  0  0  0  0  0
    3.3227   -0.8718   -2.8610 C   0  0  0  0  0  0  0  0  0  0  0  0
    3.5364   -0.4836   -4.3093 C   0  0  0  0  0  0  0  0  0  0  0  0
    3.9407    0.9126   -4.6920 C   0  0  0  0  0  0  0  0  0  0  0  0
    2.5350    0.4525   -4.9442 C   0  0  0  0  0  0  0  0  0  0  0  0
    4.9340   -5.6733   -1.2243 H   0  0  0  0  0  0  0  0  0  0  0  0
    5.0026   -1.9886    1.1118 H   0  0  0  0  0  0  0  0  0  0  0  0
    2.9244   -2.5492   -1.6649 H   0  0  0  0  0  0  0  0  0  0  0  0
    2.2170   -3.9253   -3.2982 H   0  0  0  0  0  0  0  0  0  0  0  0
    2.7503   -2.8810   -4.5373 H   0  0  0  0  0  0  0  0  0  0  0  0
    4.1026   -4.9656   -3.4532 H   0  0  0  0  0  0  0  0  0  0  0  0
    2.3121   -0.6032   -2.5605 H   0  0  0  0  0  0  0  0  0  0  0  0
    3.9478   -0.2285   -2.2534 H   0  0  0  0  0  0  0  0  0  0  0  0
    4.0130   -1.2275   -4.9442 H   0  0  0  0  0  0  0  0  0  0  0  0
    4.1444    1.6126   -3.8870 H   0  0  0  0  0  0  0  0  0  0  0  0
    4.6146    0.9702   -5.5378 H   0  0  0  0  0  0  0  0  0  0  0  0
    2.2463    0.2113   -5.9549 H   0  0  0  0  0  0  0  0  0  0  0  0
    1.7458    0.8796   -4.3262 H   0  0  0  0  0  0  0  0  0  0  0  0
  1  2  2  0
  2  3  2  0
  2  4  1  0
  2 10  1  0
  4  9  1  0
  4  5  2  0
  5  6  1  0
  5 17  1  0
  6  7  1  0
  7  8  1  0
  7  9  2  0
  9 18  1  0
 10 11  1  0
 10 13  1  0
 10 19  1  1
 11 12  1  0
 11 20  1  0
 11 21  1  0
 12 22  1  0
 13 14  1  0
 13 23  1  0
 13 24  1  0
 14 16  1  0
 14 15  1  0
 14 25  1  0
 15 16  1  0
 15 26  1  0
 15 27  1  0
 16 28  1  0
 16 29  1  0
M  END
>  <i_m_ct_stereo_status>  (44) 
1

>  <s_m_source_file>  (44) 
/var/tmp/pbs.5076255.sched01/tmp_578sd5a/06fbc0iir.sdf

>  <i_m_source_file_index>  (44) 
23

>  <i_lp_mmshare_version>  (44) 
48012

>  <i_f3d_flags>  (44) 
0

>  <s_epik_input>  (44) 
W0NIMl0xW0NIMl1bQ0hdMVtDSDJdW0NAQEhdKFtDSDJdW09IXSlTKD1PKSg9TyljMltjSF1zYyhDbClbY0hdMg==

>  <s_epik_cmdline>  (44) 
J2VwaWtfcHl0aG9uJywgJy1waHQnLCAnMi4wJywgJy1waCcsICc3LjAnLCAnLXRuJywgJzgnLCAnLW1hJywgJzIwMCcsICctaW1hZScsICc8aW5maWxlLm1hZT4nLCAnLW9tYWUnLCAnPG91dGZpbGUubWFlPic=

>  <r_lp_tautomer_probability>  (44) 
1

>  <r_epik_Ionization_Penalty>  (44) 
2.04996e-07

>  <r_epik_Ionization_Penalty_Charging>  (44) 
0

>  <r_epik_Ionization_Penalty_Neutral>  (44) 
2.04996e-07

>  <r_epik_State_Penalty>  (44) 
-0

>  <r_epik_Charging_Adjusted_Penalty>  (44) 
0

>  <i_epik_Tot_Q>  (44) 
0

>  <i_epik_Tot_abs_Q>  (44) 
0

>  <s_lp_Force_Field>  (44) 
OPLS3e

>  <r_lp_Energy>  (44) 
4.90457

>  <b_lp_Chiralities_Consistent>  (44) 
1

>  <s_lp_Variant>  (44) 
21:0-1

>  <s_i_glide_gridfile>  (44) 
pfpi4k_grid

>  <i_i_glide_lignum>  (44) 
23

>  <i_i_glide_rotatable_bonds>  (44) 
6

>  <r_i_docking_score>  (44) 
-4.05918

>  <r_i_glide_ligand_efficiency>  (44) 
-0.253699

>  <r_i_glide_ligand_efficiency_sa>  (44) 
-0.639281

>  <r_i_glide_ligand_efficiency_ln>  (44) 
-1.07597

>  <r_i_glide_gscore>  (44) 
-4.05918

>  <r_i_glide_lipo>  (44) 
-0.755828

>  <r_i_glide_hbond>  (44) 
0

>  <r_i_glide_metal>  (44) 
-0

>  <r_i_glide_rewards>  (44) 
-1.49459

>  <r_i_glide_evdw>  (44) 
-21.5596

>  <r_i_glide_ecoul>  (44) 
-8.90888

>  <r_i_glide_erotb>  (44) 
0.687404

>  <r_i_glide_esite>  (44) 
-0.0818516

>  <r_i_glide_emodel>  (44) 
-29.9089

>  <r_i_glide_energy>  (44) 
-30.4685

>  <r_i_glide_einternal>  (44) 
15.3017

>  <r_i_glide_intrahb_reward>  (44) 
-0

>  <i_i_glide_confnum>  (44) 
5

>  <i_i_glide_posenum>  (44) 
33

>  <r_i_glide_eff_state_penalty>  (44) 
0

>  <ligand_id>  (44) 
21

>  <original_smiles>  (44) 
O=S(=O)(c1csc(Cl)c1)C(CO)CC1CC1

>  <smiles>  (44) 
[H]OC([H])([H])C([H])(C([H])([H])C1([H])C([H])([H])C1([H])[H])S(=O)(=O)c1c([H])sc(Cl)c1[H]

$$$$
21:0:1
     RDKit          3D

 29 30  0  0  1  0  0  0  0  0999 V2000
   -8.1984   -4.9020   -8.7710 O   0  0  0  0  0  0  0  0  0  0  0  0
   -8.8978   -5.9000   -7.9515 S   0  0  0  0  0  0  0  0  0  0  0  0
   -9.8910   -5.4549   -6.9624 O   0  0  0  0  0  0  0  0  0  0  0  0
   -9.7473   -6.9361   -9.0924 C   0  0  0  0  0  0  0  0  0  0  0  0
   -9.2326   -7.3685  -10.2850 C   0  0  0  0  0  0  0  0  0  0  0  0
  -10.3508   -8.4385  -11.0896 S   0  0  0  0  0  0  0  0  0  0  0  0
  -11.4963   -8.2591   -9.7864 C   0  0  0  0  0  0  0  0  0  0  0  0
  -12.9955   -9.1058   -9.8899 Cl  0  0  0  0  0  0  0  0  0  0  0  0
  -11.0470   -7.4411   -8.7844 C   0  0  0  0  0  0  0  0  0  0  0  0
   -7.6159   -6.9712   -7.1320 C   0  0  2  0  0  0  0  0  0  0  0  0
   -8.0254   -8.4579   -7.1878 C   0  0  0  0  0  0  0  0  0  0  0  0
   -7.0586   -9.2964   -6.5941 O   0  0  0  0  0  0  0  0  0  0  0  0
   -7.3356   -6.4772   -5.6934 C   0  0  0  0  0  0  0  0  0  0  0  0
   -6.8474   -5.0408   -5.5951 C   0  0  0  0  0  0  0  0  0  0  0  0
   -5.3819   -4.7331   -5.4014 C   0  0  0  0  0  0  0  0  0  0  0  0
   -6.3526   -4.4991   -4.2746 C   0  0  0  0  0  0  0  0  0  0  0  0
   -8.2697   -7.1492  -10.7139 H   0  0  0  0  0  0  0  0  0  0  0  0
  -11.5924   -7.2035   -7.8789 H   0  0  0  0  0  0  0  0  0  0  0  0
   -6.7065   -6.8702   -7.7142 H   0  0  0  0  0  0  0  0  0  0  0  0
   -8.9842   -8.6322   -6.7225 H   0  0  0  0  0  0  0  0  0  0  0  0
   -8.1072   -8.7990   -8.2241 H   0  0  0  0  0  0  0  0  0  0  0  0
   -7.3910  -10.1817   -6.6298 H   0  0  0  0  0  0  0  0  0  0  0  0
   -8.2338   -6.5641   -5.0893 H   0  0  0  0  0  0  0  0  0  0  0  0
   -6.5932   -7.1239   -5.2203 H   0  0  0  0  0  0  0  0  0  0  0  0
   -7.4243   -4.3213   -6.1749 H   0  0  0  0  0  0  0  0  0  0  0  0
   -4.6961   -5.5751   -5.3259 H   0  0  0  0  0  0  0  0  0  0  0  0
   -4.9912   -3.8618   -5.9204 H   0  0  0  0  0  0  0  0  0  0  0  0
   -6.5864   -3.4650   -4.0379 H   0  0  0  0  0  0  0  0  0  0  0  0
   -6.3392   -5.1853   -3.4281 H   0  0  0  0  0  0  0  0  0  0  0  0
  1  2  2  0
  2  3  2  0
  2  4  1  0
  2 10  1  0
  4  9  1  0
  4  5  2  0
  5  6  1  0
  5 17  1  0
  6  7  1  0
  7  8  1  0
  7  9  2  0
  9 18  1  0
 10 11  1  0
 10 13  1  0
 10 19  1  6
 11 12  1  0
 11 20  1  0
 11 21  1  0
 12 22  1  0
 13 14  1  0
 13 23  1  0
 13 24  1  0
 14 16  1  0
 14 15  1  0
 14 25  1  0
 15 16  1  0
 15 26  1  0
 15 27  1  0
 16 28  1  0
 16 29  1  0
M  END
>  <i_m_ct_stereo_status>  (45) 
1

>  <s_m_source_file>  (45) 
/var/tmp/pbs.5076255.sched01/tmp_578sd5a/06fbc0iir.sdf

>  <i_m_source_file_index>  (45) 
23

>  <i_lp_mmshare_version>  (45) 
48012

>  <i_f3d_flags>  (45) 
0

>  <s_epik_input>  (45) 
W0NIMl0xW0NIMl1bQ0hdMVtDSDJdW0NAQEhdKFtDSDJdW09IXSlTKD1PKSg9TyljMltjSF1zYyhDbClbY0hdMg==

>  <s_epik_cmdline>  (45) 
J2VwaWtfcHl0aG9uJywgJy1waHQnLCAnMi4wJywgJy1waCcsICc3LjAnLCAnLXRuJywgJzgnLCAnLW1hJywgJzIwMCcsICctaW1hZScsICc8aW5maWxlLm1hZT4nLCAnLW9tYWUnLCAnPG91dGZpbGUubWFlPic=

>  <r_lp_tautomer_probability>  (45) 
1

>  <r_epik_Ionization_Penalty>  (45) 
2.04996e-07

>  <r_epik_Ionization_Penalty_Charging>  (45) 
0

>  <r_epik_Ionization_Penalty_Neutral>  (45) 
2.04996e-07

>  <r_epik_State_Penalty>  (45) 
-0

>  <r_epik_Charging_Adjusted_Penalty>  (45) 
0

>  <i_epik_Tot_Q>  (45) 
0

>  <i_epik_Tot_abs_Q>  (45) 
0

>  <s_lp_Force_Field>  (45) 
OPLS3e

>  <r_lp_Energy>  (45) 
4.90457

>  <b_lp_Chiralities_Consistent>  (45) 
1

>  <s_lp_Variant>  (45) 
21:0-1

>  <s_i_glide_gridfile>  (45) 
pfpi4k_grid

>  <i_i_glide_lignum>  (45) 
23

>  <i_i_glide_rotatable_bonds>  (45) 
6

>  <r_i_docking_score>  (45) 
-3.80853

>  <r_i_glide_ligand_efficiency>  (45) 
-0.238033

>  <r_i_glide_ligand_efficiency_sa>  (45) 
-0.599805

>  <r_i_glide_ligand_efficiency_ln>  (45) 
-1.00953

>  <r_i_glide_gscore>  (45) 
-3.80853

>  <r_i_glide_lipo>  (45) 
-1.51214

>  <r_i_glide_hbond>  (45) 
0

>  <r_i_glide_metal>  (45) 
-0

>  <r_i_glide_rewards>  (45) 
-1.70181

>  <r_i_glide_evdw>  (45) 
-22.149

>  <r_i_glide_ecoul>  (45) 
-1.16356

>  <r_i_glide_erotb>  (45) 
0.687404

>  <r_i_glide_esite>  (45) 
0

>  <r_i_glide_emodel>  (45) 
-28.2195

>  <r_i_glide_energy>  (45) 
-23.3125

>  <r_i_glide_einternal>  (45) 
5.77081

>  <r_i_glide_intrahb_reward>  (45) 
-0

>  <i_i_glide_confnum>  (45) 
5

>  <i_i_glide_posenum>  (45) 
32

>  <r_i_glide_eff_state_penalty>  (45) 
0

>  <ligand_id>  (45) 
21

>  <original_smiles>  (45) 
O=S(=O)(c1csc(Cl)c1)C(CO)CC1CC1

>  <smiles>  (45) 
[H]OC([H])([H])C([H])(C([H])([H])C1([H])C([H])([H])C1([H])[H])S(=O)(=O)c1c([H])sc(Cl)c1[H]

$$$$
21:0:2
     RDKit          3D

 29 30  0  0  1  0  0  0  0  0999 V2000
   -8.9616   -3.8523   -8.2349 O   0  0  0  0  0  0  0  0  0  0  0  0
   -9.2689   -5.0881   -7.5019 S   0  0  0  0  0  0  0  0  0  0  0  0
  -10.1558   -5.0483   -6.3427 O   0  0  0  0  0  0  0  0  0  0  0  0
   -9.9819   -6.2147   -8.6842 C   0  0  0  0  0  0  0  0  0  0  0  0
   -9.5115   -6.4274   -9.9507 C   0  0  0  0  0  0  0  0  0  0  0  0
  -10.3959   -7.7124  -10.7467 S   0  0  0  0  0  0  0  0  0  0  0  0
  -11.4399   -7.8784   -9.3617 C   0  0  0  0  0  0  0  0  0  0  0  0
  -12.6652   -9.0880   -9.3935 Cl  0  0  0  0  0  0  0  0  0  0  0  0
  -11.1061   -7.0307   -8.3309 C   0  0  0  0  0  0  0  0  0  0  0  0
   -7.6214   -5.8517   -7.0860 C   0  0  2  0  0  0  0  0  0  0  0  0
   -7.6302   -7.3453   -6.6638 C   0  0  0  0  0  0  0  0  0  0  0  0
   -8.1558   -8.2913   -7.5892 O   0  0  0  0  0  0  0  0  0  0  0  0
   -6.9342   -4.9235   -6.0439 C   0  0  0  0  0  0  0  0  0  0  0  0
   -7.2604   -5.2326   -4.6060 C   0  0  0  0  0  0  0  0  0  0  0  0
   -6.5658   -4.4971   -3.4940 C   0  0  0  0  0  0  0  0  0  0  0  0
   -6.2348   -5.9454   -3.7454 C   0  0  0  0  0  0  0  0  0  0  0  0
   -8.6554   -5.9884  -10.4360 H   0  0  0  0  0  0  0  0  0  0  0  0
  -11.5910   -7.0012   -7.3662 H   0  0  0  0  0  0  0  0  0  0  0  0
   -7.0826   -5.8099   -8.0232 H   0  0  0  0  0  0  0  0  0  0  0  0
   -6.5812   -7.6258   -6.4664 H   0  0  0  0  0  0  0  0  0  0  0  0
   -8.1853   -7.3892   -5.7400 H   0  0  0  0  0  0  0  0  0  0  0  0
   -7.7128   -8.1825   -8.4089 H   0  0  0  0  0  0  0  0  0  0  0  0
   -5.8541   -4.9785   -6.1181 H   0  0  0  0  0  0  0  0  0  0  0  0
   -7.1786   -3.8639   -6.2290 H   0  0  0  0  0  0  0  0  0  0  0  0
   -8.3194   -5.4078   -4.4154 H   0  0  0  0  0  0  0  0  0  0  0  0
   -5.8163   -3.7447   -3.7527 H   0  0  0  0  0  0  0  0  0  0  0  0
   -7.1370   -4.2971   -2.5963 H   0  0  0  0  0  0  0  0  0  0  0  0
   -6.5705   -6.6568   -3.0153 H   0  0  0  0  0  0  0  0  0  0  0  0
   -5.2593   -6.1743   -4.1836 H   0  0  0  0  0  0  0  0  0  0  0  0
  1  2  2  0
  2  3  2  0
  2  4  1  0
  2 10  1  0
  4  9  1  0
  4  5  2  0
  5  6  1  0
  5 17  1  0
  6  7  1  0
  7  8  1  0
  7  9  2  0
  9 18  1  0
 10 11  1  0
 10 13  1  0
 10 19  1  6
 11 12  1  0
 11 20  1  0
 11 21  1  0
 12 22  1  0
 13 14  1  0
 13 23  1  0
 13 24  1  0
 14 16  1  0
 14 15  1  0
 14 25  1  0
 15 16  1  0
 15 26  1  0
 15 27  1  0
 16 28  1  0
 16 29  1  0
M  END
>  <i_m_ct_stereo_status>  (46) 
1

>  <s_m_source_file>  (46) 
/var/tmp/pbs.5076255.sched01/tmp_578sd5a/06fbc0iir.sdf

>  <i_m_source_file_index>  (46) 
23

>  <i_lp_mmshare_version>  (46) 
48012

>  <i_f3d_flags>  (46) 
0

>  <s_epik_input>  (46) 
W0NIMl0xW0NIMl1bQ0hdMVtDSDJdW0NAQEhdKFtDSDJdW09IXSlTKD1PKSg9TyljMltjSF1zYyhDbClbY0hdMg==

>  <s_epik_cmdline>  (46) 
J2VwaWtfcHl0aG9uJywgJy1waHQnLCAnMi4wJywgJy1waCcsICc3LjAnLCAnLXRuJywgJzgnLCAnLW1hJywgJzIwMCcsICctaW1hZScsICc8aW5maWxlLm1hZT4nLCAnLW9tYWUnLCAnPG91dGZpbGUubWFlPic=

>  <r_lp_tautomer_probability>  (46) 
1

>  <r_epik_Ionization_Penalty>  (46) 
2.04996e-07

>  <r_epik_Ionization_Penalty_Charging>  (46) 
0

>  <r_epik_Ionization_Penalty_Neutral>  (46) 
2.04996e-07

>  <r_epik_State_Penalty>  (46) 
-0

>  <r_epik_Charging_Adjusted_Penalty>  (46) 
0

>  <i_epik_Tot_Q>  (46) 
0

>  <i_epik_Tot_abs_Q>  (46) 
0

>  <s_lp_Force_Field>  (46) 
OPLS3e

>  <r_lp_Energy>  (46) 
4.90457

>  <b_lp_Chiralities_Consistent>  (46) 
1

>  <s_lp_Variant>  (46) 
21:0-1

>  <s_i_glide_gridfile>  (46) 
pfpi4k_grid

>  <i_i_glide_lignum>  (46) 
23

>  <i_i_glide_rotatable_bonds>  (46) 
6

>  <r_i_docking_score>  (46) 
-3.44562

>  <r_i_glide_ligand_efficiency>  (46) 
-0.215351

>  <r_i_glide_ligand_efficiency_sa>  (46) 
-0.542651

>  <r_i_glide_ligand_efficiency_ln>  (46) 
-0.91333

>  <r_i_glide_gscore>  (46) 
-3.44562

>  <r_i_glide_lipo>  (46) 
-1.36277

>  <r_i_glide_hbond>  (46) 
0

>  <r_i_glide_metal>  (46) 
-0

>  <r_i_glide_rewards>  (46) 
-1.71911

>  <r_i_glide_evdw>  (46) 
-17.5089

>  <r_i_glide_ecoul>  (46) 
-1.1588

>  <r_i_glide_erotb>  (46) 
0.687404

>  <r_i_glide_esite>  (46) 
-0.00187741

>  <r_i_glide_emodel>  (46) 
-21.6791

>  <r_i_glide_energy>  (46) 
-18.6677

>  <r_i_glide_einternal>  (46) 
5.77539

>  <r_i_glide_intrahb_reward>  (46) 
-0

>  <i_i_glide_confnum>  (46) 
5

>  <i_i_glide_posenum>  (46) 
9

>  <r_i_glide_eff_state_penalty>  (46) 
0

>  <ligand_id>  (46) 
21

>  <original_smiles>  (46) 
O=S(=O)(c1csc(Cl)c1)C(CO)CC1CC1

>  <smiles>  (46) 
[H]OC([H])([H])C([H])(C([H])([H])C1([H])C([H])([H])C1([H])[H])S(=O)(=O)c1c([H])sc(Cl)c1[H]

$$$$
22:0:0
     RDKit          3D

 31 32  0  0  1  0  0  0  0  0999 V2000
   -5.2506   -6.7142   -4.7193 C   0  0  0  0  0  0  0  0  0  0  0  0
   -6.3286   -6.7586   -5.5122 C   0  0  0  0  0  0  0  0  0  0  0  0
   -6.6877   -7.8141   -6.5029 C   0  0  0  0  0  0  0  0  0  0  0  0
   -7.5989   -7.0435   -7.4706 C   0  0  1  0  0  0  0  0  0  0  0  0
   -8.6659   -7.8798   -8.1610 C   0  0  0  0  0  0  0  0  0  0  0  0
   -9.9462   -7.3446   -8.4008 C   0  0  0  0  0  0  0  0  0  0  0  0
  -10.9088   -8.0865   -9.1063 C   0  0  0  0  0  0  0  0  0  0  0  0
  -10.6020   -9.3786   -9.5970 C   0  0  0  0  0  0  0  0  0  0  0  0
  -11.4956  -10.1609  -10.2963 O   0  0  0  0  0  0  0  0  0  0  0  0
  -12.8172   -9.6765  -10.4734 C   0  0  0  0  0  0  0  0  0  0  0  0
   -9.3173   -9.9217   -9.3694 C   0  0  0  0  0  0  0  0  0  0  0  0
   -9.0712  -11.1825   -9.8802 O   0  0  0  0  0  0  0  0  0  0  0  0
   -7.8509  -11.8255   -9.5458 C   0  0  0  0  0  0  0  0  0  0  0  0
   -8.3556   -9.1626   -8.6588 C   0  0  0  0  0  0  0  0  0  0  0  0
   -8.0920   -5.9677   -6.6719 O   0  0  0  0  0  0  0  0  0  0  0  0
   -7.3173   -5.6891   -5.6118 C   0  0  0  0  0  0  0  0  0  0  0  0
   -7.4259   -4.7139   -4.8683 O   0  0  0  0  0  0  0  0  0  0  0  0
   -5.0847   -5.8707   -4.0712 H   0  0  0  0  0  0  0  0  0  0  0  0
   -4.5172   -7.5143   -4.7147 H   0  0  0  0  0  0  0  0  0  0  0  0
   -5.8151   -8.2601   -6.9835 H   0  0  0  0  0  0  0  0  0  0  0  0
   -7.2341   -8.5859   -5.9634 H   0  0  0  0  0  0  0  0  0  0  0  0
   -6.9849   -6.5874   -8.2480 H   0  0  0  0  0  0  0  0  0  0  0  0
  -10.1993   -6.3552   -8.0610 H   0  0  0  0  0  0  0  0  0  0  0  0
  -11.8775   -7.6312   -9.2650 H   0  0  0  0  0  0  0  0  0  0  0  0
  -13.3929  -10.4124  -11.0341 H   0  0  0  0  0  0  0  0  0  0  0  0
  -12.8263   -8.7471  -11.0425 H   0  0  0  0  0  0  0  0  0  0  0  0
  -13.3140   -9.5226   -9.5148 H   0  0  0  0  0  0  0  0  0  0  0  0
   -7.8299  -12.8150  -10.0058 H   0  0  0  0  0  0  0  0  0  0  0  0
   -7.7537  -11.9578   -8.4675 H   0  0  0  0  0  0  0  0  0  0  0  0
   -6.9893  -11.2738   -9.9202 H   0  0  0  0  0  0  0  0  0  0  0  0
   -7.3608   -9.5481   -8.5042 H   0  0  0  0  0  0  0  0  0  0  0  0
  1  2  2  0
  1 18  1  0
  1 19  1  0
  2 16  1  0
  2  3  1  0
  3  4  1  0
  3 20  1  0
  3 21  1  0
  4  5  1  0
  4 15  1  0
  4 22  1  6
  5 14  1  0
  5  6  2  0
  6  7  1  0
  6 23  1  0
  7  8  2  0
  7 24  1  0
  8  9  1  0
  8 11  1  0
  9 10  1  0
 10 25  1  0
 10 26  1  0
 10 27  1  0
 11 12  1  0
 11 14  2  0
 12 13  1  0
 13 28  1  0
 13 29  1  0
 13 30  1  0
 14 31  1  0
 15 16  1  0
 16 17  2  0
M  END
>  <i_m_ct_stereo_status>  (47) 
1

>  <s_m_source_file>  (47) 
/var/tmp/pbs.5076255.sched01/tmp_578sd5a/06fbc0iir.sdf

>  <i_m_source_file_index>  (47) 
24

>  <i_lp_mmshare_version>  (47) 
48012

>  <i_f3d_flags>  (47) 
0

>  <s_epik_input>  (47) 
W0NIMl09QzFbQ0gyXVtDQEhdKE9DMT1PKWMyW2NIXVtjSF1jKE9bQ0gzXSljKFtjSF0yKU9bQ0gzXQ==

>  <s_epik_cmdline>  (47) 
J2VwaWtfcHl0aG9uJywgJy1waHQnLCAnMi4wJywgJy1waCcsICc3LjAnLCAnLXRuJywgJzgnLCAnLW1hJywgJzIwMCcsICctaW1hZScsICc8aW5maWxlLm1hZT4nLCAnLW9tYWUnLCAnPG91dGZpbGUubWFlPic=

>  <r_lp_tautomer_probability>  (47) 
1

>  <r_epik_Ionization_Penalty>  (47) 
0

>  <r_epik_Ionization_Penalty_Charging>  (47) 
0

>  <r_epik_Ionization_Penalty_Neutral>  (47) 
0

>  <r_epik_State_Penalty>  (47) 
-0

>  <r_epik_Charging_Adjusted_Penalty>  (47) 
0

>  <i_epik_Tot_Q>  (47) 
0

>  <i_epik_Tot_abs_Q>  (47) 
0

>  <s_epik_Chemistry_Notes>  (47) 
This compound has an ester and may undergo hydrolysis at high or low pH.

>  <s_lp_Force_Field>  (47) 
OPLS3e

>  <r_lp_Energy>  (47) 
19.1972

>  <b_lp_Chiralities_Consistent>  (47) 
1

>  <s_lp_Variant>  (47) 
22:0-1

>  <s_i_glide_gridfile>  (47) 
pfpi4k_grid

>  <i_i_glide_lignum>  (47) 
24

>  <i_i_glide_rotatable_bonds>  (47) 
3

>  <r_i_docking_score>  (47) 
-4.29203

>  <r_i_glide_ligand_efficiency>  (47) 
-0.252472

>  <r_i_glide_ligand_efficiency_sa>  (47) 
-0.649178

>  <r_i_glide_ligand_efficiency_ln>  (47) 
-1.1197

>  <r_i_glide_gscore>  (47) 
-4.29203

>  <r_i_glide_lipo>  (47) 
-1.06938

>  <r_i_glide_hbond>  (47) 
0

>  <r_i_glide_metal>  (47) 
-0

>  <r_i_glide_rewards>  (47) 
-2.56727

>  <r_i_glide_evdw>  (47) 
-20.7127

>  <r_i_glide_ecoul>  (47) 
0.448962

>  <r_i_glide_erotb>  (47) 
0.312912

>  <r_i_glide_esite>  (47) 
0

>  <r_i_glide_emodel>  (47) 
-26.0126

>  <r_i_glide_energy>  (47) 
-20.2637

>  <r_i_glide_einternal>  (47) 
0.672675

>  <r_i_glide_intrahb_reward>  (47) 
-0

>  <i_i_glide_confnum>  (47) 
2

>  <i_i_glide_posenum>  (47) 
5

>  <r_i_glide_eff_state_penalty>  (47) 
0

>  <ligand_id>  (47) 
22

>  <original_smiles>  (47) 
C=C1CC(c2ccc(OC)c(OC)c2)OC1=O

>  <smiles>  (47) 
[H]C([H])=C1C(=O)OC([H])(c2c([H])c([H])c(OC([H])([H])[H])c(OC([H])([H])[H])c2[H])C1([H])[H]

$$$$
22:0:1
     RDKit          3D

 31 32  0  0  1  0  0  0  0  0999 V2000
    4.7111   -1.0892    1.7788 C   0  0  0  0  0  0  0  0  0  0  0  0
    3.7433   -0.4516    2.4558 C   0  0  0  0  0  0  0  0  0  0  0  0
    2.8635    0.6560    1.9714 C   0  0  0  0  0  0  0  0  0  0  0  0
    2.4494    1.3316    3.2873 C   0  0  1  0  0  0  0  0  0  0  0  0
    1.0818    2.0031    3.2871 C   0  0  0  0  0  0  0  0  0  0  0  0
   -0.0838    1.3196    2.8941 C   0  0  0  0  0  0  0  0  0  0  0  0
   -1.3206    1.9920    2.8846 C   0  0  0  0  0  0  0  0  0  0  0  0
   -1.4157    3.3463    3.2795 C   0  0  0  0  0  0  0  0  0  0  0  0
   -2.5885    4.0717    3.2664 O   0  0  0  0  0  0  0  0  0  0  0  0
   -3.7543    3.4406    2.7572 C   0  0  0  0  0  0  0  0  0  0  0  0
   -0.2524    4.0312    3.6885 C   0  0  0  0  0  0  0  0  0  0  0  0
   -0.4047    5.3446    4.0856 O   0  0  0  0  0  0  0  0  0  0  0  0
    0.7575    6.1562    4.1991 C   0  0  0  0  0  0  0  0  0  0  0  0
    0.9930    3.3533    3.6807 C   0  0  0  0  0  0  0  0  0  0  0  0
    2.5816    0.2899    4.2469 O   0  0  0  0  0  0  0  0  0  0  0  0
    3.4374   -0.6744    3.8645 C   0  0  0  0  0  0  0  0  0  0  0  0
    3.8718   -1.5768    4.5789 O   0  0  0  0  0  0  0  0  0  0  0  0
    5.3278   -1.8349    2.2607 H   0  0  0  0  0  0  0  0  0  0  0  0
    4.9239   -0.8406    0.7481 H   0  0  0  0  0  0  0  0  0  0  0  0
    3.3609    1.3386    1.2810 H   0  0  0  0  0  0  0  0  0  0  0  0
    2.0289    0.1738    1.4600 H   0  0  0  0  0  0  0  0  0  0  0  0
    3.2065    2.0712    3.5565 H   0  0  0  0  0  0  0  0  0  0  0  0
   -0.0393    0.2907    2.5756 H   0  0  0  0  0  0  0  0  0  0  0  0
   -2.1818    1.4367    2.5422 H   0  0  0  0  0  0  0  0  0  0  0  0
   -4.6073    4.1130    2.8211 H   0  0  0  0  0  0  0  0  0  0  0  0
   -3.9974    2.5465    3.3314 H   0  0  0  0  0  0  0  0  0  0  0  0
   -3.6318    3.1766    1.7080 H   0  0  0  0  0  0  0  0  0  0  0  0
    0.4619    7.1700    4.4754 H   0  0  0  0  0  0  0  0  0  0  0  0
    1.3002    6.2168    3.2528 H   0  0  0  0  0  0  0  0  0  0  0  0
    1.4237    5.7961    4.9828 H   0  0  0  0  0  0  0  0  0  0  0  0
    1.9023    3.8544    3.9697 H   0  0  0  0  0  0  0  0  0  0  0  0
  1  2  2  0
  1 18  1  0
  1 19  1  0
  2 16  1  0
  2  3  1  0
  3  4  1  0
  3 20  1  0
  3 21  1  0
  4  5  1  0
  4 15  1  0
  4 22  1  1
  5 14  1  0
  5  6  2  0
  6  7  1  0
  6 23  1  0
  7  8  2  0
  7 24  1  0
  8  9  1  0
  8 11  1  0
  9 10  1  0
 10 25  1  0
 10 26  1  0
 10 27  1  0
 11 12  1  0
 11 14  2  0
 12 13  1  0
 13 28  1  0
 13 29  1  0
 13 30  1  0
 14 31  1  0
 15 16  1  0
 16 17  2  0
M  END
>  <i_m_ct_stereo_status>  (48) 
1

>  <s_m_source_file>  (48) 
/var/tmp/pbs.5076255.sched01/tmp_578sd5a/06fbc0iir.sdf

>  <i_m_source_file_index>  (48) 
24

>  <i_lp_mmshare_version>  (48) 
48012

>  <i_f3d_flags>  (48) 
0

>  <s_epik_input>  (48) 
W0NIMl09QzFbQ0gyXVtDQEhdKE9DMT1PKWMyW2NIXVtjSF1jKE9bQ0gzXSljKFtjSF0yKU9bQ0gzXQ==

>  <s_epik_cmdline>  (48) 
J2VwaWtfcHl0aG9uJywgJy1waHQnLCAnMi4wJywgJy1waCcsICc3LjAnLCAnLXRuJywgJzgnLCAnLW1hJywgJzIwMCcsICctaW1hZScsICc8aW5maWxlLm1hZT4nLCAnLW9tYWUnLCAnPG91dGZpbGUubWFlPic=

>  <r_lp_tautomer_probability>  (48) 
1

>  <r_epik_Ionization_Penalty>  (48) 
0

>  <r_epik_Ionization_Penalty_Charging>  (48) 
0

>  <r_epik_Ionization_Penalty_Neutral>  (48) 
0

>  <r_epik_State_Penalty>  (48) 
-0

>  <r_epik_Charging_Adjusted_Penalty>  (48) 
0

>  <i_epik_Tot_Q>  (48) 
0

>  <i_epik_Tot_abs_Q>  (48) 
0

>  <s_epik_Chemistry_Notes>  (48) 
This compound has an ester and may undergo hydrolysis at high or low pH.

>  <s_lp_Force_Field>  (48) 
OPLS3e

>  <r_lp_Energy>  (48) 
19.1972

>  <b_lp_Chiralities_Consistent>  (48) 
1

>  <s_lp_Variant>  (48) 
22:0-1

>  <s_i_glide_gridfile>  (48) 
pfpi4k_grid

>  <i_i_glide_lignum>  (48) 
24

>  <i_i_glide_rotatable_bonds>  (48) 
3

>  <r_i_docking_score>  (48) 
-3.35331

>  <r_i_glide_ligand_efficiency>  (48) 
-0.197253

>  <r_i_glide_ligand_efficiency_sa>  (48) 
-0.507194

>  <r_i_glide_ligand_efficiency_ln>  (48) 
-0.874803

>  <r_i_glide_gscore>  (48) 
-3.35331

>  <r_i_glide_lipo>  (48) 
-0.269016

>  <r_i_glide_hbond>  (48) 
-0.0741132

>  <r_i_glide_metal>  (48) 
-0

>  <r_i_glide_rewards>  (48) 
-1.81652

>  <r_i_glide_evdw>  (48) 
-18.4448

>  <r_i_glide_ecoul>  (48) 
-3.89552

>  <r_i_glide_erotb>  (48) 
0.312912

>  <r_i_glide_esite>  (48) 
0

>  <r_i_glide_emodel>  (48) 
-26.6184

>  <r_i_glide_energy>  (48) 
-22.3403

>  <r_i_glide_einternal>  (48) 
0.700633

>  <r_i_glide_intrahb_reward>  (48) 
-0

>  <i_i_glide_confnum>  (48) 
3

>  <i_i_glide_posenum>  (48) 
8

>  <r_i_glide_eff_state_penalty>  (48) 
0

>  <ligand_id>  (48) 
22

>  <original_smiles>  (48) 
C=C1CC(c2ccc(OC)c(OC)c2)OC1=O

>  <smiles>  (48) 
[H]C([H])=C1C(=O)OC([H])(c2c([H])c([H])c(OC([H])([H])[H])c(OC([H])([H])[H])c2[H])C1([H])[H]

$$$$
22:0:2
     RDKit          3D

 31 32  0  0  1  0  0  0  0  0999 V2000
   -3.2592    3.2945    2.4819 C   0  0  0  0  0  0  0  0  0  0  0  0
   -2.1102    2.7210    2.8818 C   0  0  0  0  0  0  0  0  0  0  0  0
   -1.3168    1.6488    2.1953 C   0  0  0  0  0  0  0  0  0  0  0  0
   -0.5670    1.0087    3.3654 C   0  0  1  0  0  0  0  0  0  0  0  0
    0.7851    0.4017    3.0109 C   0  0  0  0  0  0  0  0  0  0  0  0
    1.8071    1.1524    2.3930 C   0  0  0  0  0  0  0  0  0  0  0  0
    3.0363    0.5410    2.0795 C   0  0  0  0  0  0  0  0  0  0  0  0
    3.2635   -0.8269    2.3843 C   0  0  0  0  0  0  0  0  0  0  0  0
    4.4469   -1.4855    2.1211 O   0  0  0  0  0  0  0  0  0  0  0  0
    5.5123   -0.7468    1.5503 C   0  0  0  0  0  0  0  0  0  0  0  0
    2.2396   -1.5835    2.9964 C   0  0  0  0  0  0  0  0  0  0  0  0
    2.5139   -2.9127    3.2699 O   0  0  0  0  0  0  0  0  0  0  0  0
    1.5128   -3.7029    3.8944 C   0  0  0  0  0  0  0  0  0  0  0  0
    1.0076   -0.9588    3.3011 C   0  0  0  0  0  0  0  0  0  0  0  0
   -0.5066    2.0567    4.3287 O   0  0  0  0  0  0  0  0  0  0  0  0
   -1.4724    2.9822    4.1637 C   0  0  0  0  0  0  0  0  0  0  0  0
   -1.7627    3.8811    4.9558 O   0  0  0  0  0  0  0  0  0  0  0  0
   -3.7740    4.0212    3.0821 H   0  0  0  0  0  0  0  0  0  0  0  0
   -3.7193    3.0139    1.5445 H   0  0  0  0  0  0  0  0  0  0  0  0
   -1.9266    0.9508    1.6180 H   0  0  0  0  0  0  0  0  0  0  0  0
   -0.6083    2.1359    1.5224 H   0  0  0  0  0  0  0  0  0  0  0  0
   -1.2027    0.2392    3.8049 H   0  0  0  0  0  0  0  0  0  0  0  0
    1.6544    2.1961    2.1554 H   0  0  0  0  0  0  0  0  0  0  0  0
    3.7999    1.1423    1.6065 H   0  0  0  0  0  0  0  0  0  0  0  0
    6.3705   -1.4025    1.4096 H   0  0  0  0  0  0  0  0  0  0  0  0
    5.8131    0.0630    2.2144 H   0  0  0  0  0  0  0  0  0  0  0  0
    5.2418   -0.3392    0.5758 H   0  0  0  0  0  0  0  0  0  0  0  0
    1.8926   -4.7157    4.0279 H   0  0  0  0  0  0  0  0  0  0  0  0
    0.6147   -3.7686    3.2799 H   0  0  0  0  0  0  0  0  0  0  0  0
    1.2486   -3.3163    4.8794 H   0  0  0  0  0  0  0  0  0  0  0  0
    0.2064   -1.5108    3.7686 H   0  0  0  0  0  0  0  0  0  0  0  0
  1  2  2  0
  1 18  1  0
  1 19  1  0
  2 16  1  0
  2  3  1  0
  3  4  1  0
  3 20  1  0
  3 21  1  0
  4  5  1  0
  4 15  1  0
  4 22  1  1
  5 14  1  0
  5  6  2  0
  6  7  1  0
  6 23  1  0
  7  8  2  0
  7 24  1  0
  8  9  1  0
  8 11  1  0
  9 10  1  0
 10 25  1  0
 10 26  1  0
 10 27  1  0
 11 12  1  0
 11 14  2  0
 12 13  1  0
 13 28  1  0
 13 29  1  0
 13 30  1  0
 14 31  1  0
 15 16  1  0
 16 17  2  0
M  END
>  <i_m_ct_stereo_status>  (49) 
1

>  <s_m_source_file>  (49) 
/var/tmp/pbs.5076255.sched01/tmp_578sd5a/06fbc0iir.sdf

>  <i_m_source_file_index>  (49) 
24

>  <i_lp_mmshare_version>  (49) 
48012

>  <i_f3d_flags>  (49) 
0

>  <s_epik_input>  (49) 
W0NIMl09QzFbQ0gyXVtDQEhdKE9DMT1PKWMyW2NIXVtjSF1jKE9bQ0gzXSljKFtjSF0yKU9bQ0gzXQ==

>  <s_epik_cmdline>  (49) 
J2VwaWtfcHl0aG9uJywgJy1waHQnLCAnMi4wJywgJy1waCcsICc3LjAnLCAnLXRuJywgJzgnLCAnLW1hJywgJzIwMCcsICctaW1hZScsICc8aW5maWxlLm1hZT4nLCAnLW9tYWUnLCAnPG91dGZpbGUubWFlPic=

>  <r_lp_tautomer_probability>  (49) 
1

>  <r_epik_Ionization_Penalty>  (49) 
0

>  <r_epik_Ionization_Penalty_Charging>  (49) 
0

>  <r_epik_Ionization_Penalty_Neutral>  (49) 
0

>  <r_epik_State_Penalty>  (49) 
-0

>  <r_epik_Charging_Adjusted_Penalty>  (49) 
0

>  <i_epik_Tot_Q>  (49) 
0

>  <i_epik_Tot_abs_Q>  (49) 
0

>  <s_epik_Chemistry_Notes>  (49) 
This compound has an ester and may undergo hydrolysis at high or low pH.

>  <s_lp_Force_Field>  (49) 
OPLS3e

>  <r_lp_Energy>  (49) 
19.1972

>  <b_lp_Chiralities_Consistent>  (49) 
1

>  <s_lp_Variant>  (49) 
22:0-1

>  <s_i_glide_gridfile>  (49) 
pfpi4k_grid

>  <i_i_glide_lignum>  (49) 
24

>  <i_i_glide_rotatable_bonds>  (49) 
3

>  <r_i_docking_score>  (49) 
-3.08757

>  <r_i_glide_ligand_efficiency>  (49) 
-0.181622

>  <r_i_glide_ligand_efficiency_sa>  (49) 
-0.467001

>  <r_i_glide_ligand_efficiency_ln>  (49) 
-0.805479

>  <r_i_glide_gscore>  (49) 
-3.08757

>  <r_i_glide_lipo>  (49) 
-0.225214

>  <r_i_glide_hbond>  (49) 
0

>  <r_i_glide_metal>  (49) 
-0

>  <r_i_glide_rewards>  (49) 
-1.81195

>  <r_i_glide_evdw>  (49) 
-19.0477

>  <r_i_glide_ecoul>  (49) 
-2.50201

>  <r_i_glide_erotb>  (49) 
0.312912

>  <r_i_glide_esite>  (49) 
-0.0356397

>  <r_i_glide_emodel>  (49) 
-25.7105

>  <r_i_glide_energy>  (49) 
-21.5497

>  <r_i_glide_einternal>  (49) 
0.233933

>  <r_i_glide_intrahb_reward>  (49) 
-0

>  <i_i_glide_confnum>  (49) 
2

>  <i_i_glide_posenum>  (49) 
3

>  <r_i_glide_eff_state_penalty>  (49) 
0

>  <ligand_id>  (49) 
22

>  <original_smiles>  (49) 
C=C1CC(c2ccc(OC)c(OC)c2)OC1=O

>  <smiles>  (49) 
[H]C([H])=C1C(=O)OC([H])(c2c([H])c([H])c(OC([H])([H])[H])c(OC([H])([H])[H])c2[H])C1([H])[H]

$$$$
23:0:0
     RDKit          3D

 64 68  0  0  1  0  0  0  0  0999 V2000
    4.0059   -8.0819    3.9458 C   0  0  0  0  0  0  0  0  0  0  0  0
    5.3355   -8.1323    3.1537 C   0  0  1  0  0  0  0  0  0  0  0  0
    6.1250   -9.3473    3.7263 C   0  0  0  0  0  0  0  0  0  0  0  0
    6.4477  -10.3017    2.7332 O   0  0  0  0  0  0  0  0  0  0  0  0
    5.2470   -8.0333    1.6048 C   0  0  1  0  0  0  0  0  0  0  0  0
    4.1334   -8.6032    0.9647 O   0  0  0  0  0  0  0  0  0  0  0  0
    5.3645   -6.4867    1.6260 C   0  0  2  0  0  0  0  0  0  0  0  0
    3.9737   -5.8044    1.5486 C   0  0  0  0  0  0  0  0  0  0  0  0
    3.8570   -4.3513    2.0451 C   0  0  0  0  0  0  0  0  0  0  0  0
    4.3438   -3.1778    1.1385 C   0  0  2  0  0  0  0  0  0  0  0  0
    3.5395   -2.8866   -0.1506 C   0  0  2  0  0  0  0  0  0  0  0  0
    2.1754   -2.9080    0.2272 O   0  0  0  0  0  0  0  0  0  0  0  0
    3.7362   -3.9389   -1.2343 C   0  0  0  0  0  0  0  0  0  0  0  0
    5.1628   -4.4707   -1.4113 C   0  0  0  0  0  0  0  0  0  0  0  0
    6.0695   -4.4825   -0.1474 C   0  0  2  0  0  0  0  0  0  0  0  0
    6.2641   -5.8991    0.5182 C   0  0  1  0  0  0  0  0  0  0  0  0
    7.7662   -6.2343    0.7949 C   0  0  0  0  0  0  0  0  0  0  0  0
    8.1138   -5.8621    2.1222 O   0  0  0  0  0  0  0  0  0  0  0  0
    7.6124   -6.7271    3.0891 C   0  0  1  0  0  0  0  0  0  0  0  0
    7.9824   -6.3276    4.3626 O   0  0  0  0  0  0  0  0  0  0  0  0
    6.0460   -6.7558    3.0117 C   0  0  2  0  0  0  0  0  0  0  0  0
    5.8169   -3.2390    0.7468 C   0  0  2  0  0  0  0  0  0  0  0  0
    6.6364   -3.3395    1.9927 C   0  0  0  0  0  0  0  0  0  0  0  0
    6.2484   -1.8687    0.0930 C   0  0  1  0  0  0  0  0  0  0  0  0
    7.5906   -1.8688   -0.3590 O   0  0  0  0  0  0  0  0  0  0  0  0
    5.3508   -1.3399   -1.0408 C   0  0  0  0  0  0  0  0  0  0  0  0
    3.8633   -1.4776   -0.6908 C   0  0  1  0  0  0  0  0  0  0  0  0
    3.0196   -1.1297   -1.8717 N   0  0  0  0  0  0  0  0  0  0  0  0
    3.2304   -8.6979    3.4890 H   0  0  0  0  0  0  0  0  0  0  0  0
    3.6192   -7.0722    4.0508 H   0  0  0  0  0  0  0  0  0  0  0  0
    4.1206   -8.4183    4.9772 H   0  0  0  0  0  0  0  0  0  0  0  0
    7.0448   -9.0427    4.2275 H   0  0  0  0  0  0  0  0  0  0  0  0
    5.5850   -9.8890    4.5056 H   0  0  0  0  0  0  0  0  0  0  0  0
    5.6347  -10.6823    2.4158 H   0  0  0  0  0  0  0  0  0  0  0  0
    6.1481   -8.4474    1.1433 H   0  0  0  0  0  0  0  0  0  0  0  0
    4.2650   -9.5491    0.9297 H   0  0  0  0  0  0  0  0  0  0  0  0
    3.5764   -5.9255    0.5534 H   0  0  0  0  0  0  0  0  0  0  0  0
    3.2507   -6.3698    2.1195 H   0  0  0  0  0  0  0  0  0  0  0  0
    2.8095   -4.1751    2.2741 H   0  0  0  0  0  0  0  0  0  0  0  0
    4.3191   -4.2794    3.0248 H   0  0  0  0  0  0  0  0  0  0  0  0
    4.2358   -2.2966    1.7702 H   0  0  0  0  0  0  0  0  0  0  0  0
    1.7537   -2.1784   -0.1413 H   0  0  0  0  0  0  0  0  0  0  0  0
    3.0734   -4.7405   -0.9672 H   0  0  0  0  0  0  0  0  0  0  0  0
    3.3756   -3.6416   -2.2195 H   0  0  0  0  0  0  0  0  0  0  0  0
    5.0000   -5.4623   -1.8224 H   0  0  0  0  0  0  0  0  0  0  0  0
    5.6888   -3.9312   -2.1967 H   0  0  0  0  0  0  0  0  0  0  0  0
    7.0551   -4.2808   -0.5593 H   0  0  0  0  0  0  0  0  0  0  0  0
    5.9258   -6.4943   -0.3261 H   0  0  0  0  0  0  0  0  0  0  0  0
    8.0022   -7.2927    0.6652 H   0  0  0  0  0  0  0  0  0  0  0  0
    8.4549   -5.7213    0.1222 H   0  0  0  0  0  0  0  0  0  0  0  0
    8.0735   -7.6985    2.9008 H   0  0  0  0  0  0  0  0  0  0  0  0
    8.9513   -6.3528    4.4011 H   0  0  0  0  0  0  0  0  0  0  0  0
    5.6242   -6.0466    3.7165 H   0  0  0  0  0  0  0  0  0  0  0  0
    7.6716   -3.4658    1.6678 H   0  0  0  0  0  0  0  0  0  0  0  0
    6.3832   -4.1683    2.6380 H   0  0  0  0  0  0  0  0  0  0  0  0
    6.5547   -2.4181    2.5535 H   0  0  0  0  0  0  0  0  0  0  0  0
    6.2201   -1.1068    0.8738 H   0  0  0  0  0  0  0  0  0  0  0  0
    7.7534   -2.6828   -0.8292 H   0  0  0  0  0  0  0  0  0  0  0  0
    5.5857   -0.2912   -1.1915 H   0  0  0  0  0  0  0  0  0  0  0  0
    5.5793   -1.8348   -1.9787 H   0  0  0  0  0  0  0  0  0  0  0  0
    3.6318   -0.7516    0.0805 H   0  0  0  0  0  0  0  0  0  0  0  0
    3.1800   -1.7765   -2.6247 H   0  0  0  0  0  0  0  0  0  0  0  0
    3.2409   -0.1907   -2.1556 H   0  0  0  0  0  0  0  0  0  0  0  0
    2.0404   -1.1545   -1.5747 H   0  0  0  0  0  0  0  0  0  0  0  0
  2  1  1  1
  1 29  1  0
  1 30  1  0
  1 31  1  0
  2 21  1  0
  2  3  1  0
  2  5  1  0
  3  4  1  0
  3 32  1  0
  3 33  1  0
  4 34  1  0
  5  6  1  0
  5  7  1  0
  5 35  1  6
  6 36  1  0
  7 16  1  0
  7 21  1  0
  7  8  1  1
  8  9  1  0
  8 37  1  0
  8 38  1  0
  9 10  1  0
  9 39  1  0
  9 40  1  0
 10 22  1  0
 10 11  1  0
 10 41  1  1
 11 27  1  0
 11 12  1  1
 11 13  1  0
 12 42  1  0
 13 14  1  0
 13 43  1  0
 13 44  1  0
 14 15  1  0
 14 45  1  0
 14 46  1  0
 15 16  1  0
 15 22  1  0
 15 47  1  6
 16 17  1  0
 16 48  1  6
 17 18  1  0
 17 49  1  0
 17 50  1  0
 18 19  1  0
 19 20  1  0
 19 21  1  0
 19 51  1  6
 20 52  1  0
 21 53  1  1
 22 23  1  1
 22 24  1  0
 23 54  1  0
 23 55  1  0
 23 56  1  0
 24 25  1  0
 24 26  1  0
 24 57  1  1
 25 58  1  0
 26 27  1  0
 26 59  1  0
 26 60  1  0
 27 28  1  0
 27 61  1  1
 28 62  1  0
 28 63  1  0
 28 64  1  0
M  CHG  1  28   1
M  END
>  <i_m_ct_stereo_status>  (50) 
1

>  <s_m_source_file>  (50) 
/var/tmp/pbs.5076255.sched01/tmp_578sd5a/06fbc0iir.sdf

>  <i_m_source_file_index>  (50) 
25

>  <i_lp_mmshare_version>  (50) 
48012

>  <i_f3d_flags>  (50) 
0

>  <s_epik_input>  (50) 
W09IXVtDSDJdW0NAXShbQ0gzXSkoW0NASF0xW09IXSlbQ0BIXTJbQ0BIXShbT0hdKU9bQ0gyXVtDQEBIXShbQ0BAXTEyMylbQ0BASF00W0NAXTUoW0NIM10pW0NASF0oW0NIMl1bQ0gyXTMpW0NAXShbT0hdKShbQ0gyXVtDSDJdNClbQ0BIXShbTkgyXSlbQ0gyXVtDQEBIXTVbT0hd

>  <s_epik_cmdline>  (50) 
J2VwaWtfcHl0aG9uJywgJy1waHQnLCAnMi4wJywgJy1waCcsICc3LjAnLCAnLXRuJywgJzgnLCAnLW1hJywgJzIwMCcsICctaW1hZScsICc8aW5maWxlLm1hZT4nLCAnLW9tYWUnLCAnPG91dGZpbGUubWFlPic=

>  <r_epik_Ionization_Penalty>  (50) 
0.006992

>  <r_epik_Ionization_Penalty_Charging>  (50) 
0.00699117

>  <r_epik_Ionization_Penalty_Neutral>  (50) 
8.32288e-07

>  <r_epik_State_Penalty>  (50) 
0.00520044

>  <r_epik_Charging_Adjusted_Penalty>  (50) 
0.0121916

>  <i_epik_Tot_Q>  (50) 
1

>  <i_epik_Tot_abs_Q>  (50) 
1

>  <s_epik_Chemistry_Notes>  (50) 
This compound contains an acetal/aminal-like group ( X-CH(R)-Y where X, Y are N, S, or O) that may be acid/base labile, releasing an aldehyde.

>  <s_lp_Force_Field>  (50) 
OPLS3e

>  <r_lp_Energy>  (50) 
90.5462

>  <b_lp_Chiralities_Consistent>  (50) 
1

>  <s_lp_Variant>  (50) 
23:0-1

>  <s_i_glide_gridfile>  (50) 
pfpi4k_grid

>  <i_i_glide_lignum>  (50) 
25

>  <i_i_glide_rotatable_bonds>  (50) 
6

>  <r_i_docking_score>  (50) 
-4.10339

>  <r_i_glide_ligand_efficiency>  (50) 
-0.14655

>  <r_i_glide_ligand_efficiency_sa>  (50) 
-0.445011

>  <r_i_glide_ligand_efficiency_ln>  (50) 
-0.947183

>  <r_i_glide_gscore>  (50) 
-4.10339

>  <r_i_glide_lipo>  (50) 
-0.399834

>  <r_i_glide_hbond>  (50) 
-0.524823

>  <r_i_glide_metal>  (50) 
-0

>  <r_i_glide_rewards>  (50) 
-0.691952

>  <r_i_glide_evdw>  (50) 
-4.62598

>  <r_i_glide_ecoul>  (50) 
-15.0153

>  <r_i_glide_erotb>  (50) 
0.0863265

>  <r_i_glide_esite>  (50) 
-0.0895121

>  <r_i_glide_emodel>  (50) 
-20.3736

>  <r_i_glide_energy>  (50) 
-19.6413

>  <r_i_glide_einternal>  (50) 
6.32807

>  <r_i_glide_intrahb_reward>  (50) 
-0

>  <i_i_glide_confnum>  (50) 
3

>  <i_i_glide_posenum>  (50) 
6

>  <r_i_glide_eff_state_penalty>  (50) 
0

>  <ligand_id>  (50) 
23

>  <original_smiles>  (50) 
CC1(CO)C(O)C23CCC4C5(O)CCC(C2COC(O)C13)C4(C)C(O)CC5N

>  <smiles>  (50) 
[H]OC([H])([H])C1(C([H])([H])[H])C([H])(O[H])C23C([H])([H])C([H])([H])C4([H])C5(O[H])C([H])([H])C([H])([H])C([H])(C2([H])C([H])([H])OC([H])(O[H])C13[H])C4(C([H])([H])[H])C([H])(O[H])C([H])([H])C5([H])[N+]([H])([H])[H]

$$$$
23:0:1
     RDKit          3D

 64 68  0  0  1  0  0  0  0  0999 V2000
    3.7464   -7.4831    4.6460 C   0  0  0  0  0  0  0  0  0  0  0  0
    4.9953   -7.7642    3.7796 C   0  0  1  0  0  0  0  0  0  0  0  0
    5.6884   -8.9639    4.4788 C   0  0  0  0  0  0  0  0  0  0  0  0
    6.5645   -9.7114    3.6550 O   0  0  0  0  0  0  0  0  0  0  0  0
    4.8087   -7.8760    2.2509 C   0  0  1  0  0  0  0  0  0  0  0  0
    3.5969   -8.4168    1.7690 O   0  0  0  0  0  0  0  0  0  0  0  0
    5.0757   -6.3655    2.0436 C   0  0  2  0  0  0  0  0  0  0  0  0
    3.7609   -5.5539    1.9610 C   0  0  0  0  0  0  0  0  0  0  0  0
    3.8152   -4.0441    2.2629 C   0  0  0  0  0  0  0  0  0  0  0  0
    4.3700   -3.0745    1.1732 C   0  0  2  0  0  0  0  0  0  0  0  0
    3.5054   -2.8921   -0.0896 C   0  0  2  0  0  0  0  0  0  0  0  0
    2.2251   -2.6856    0.4461 O   0  0  0  0  0  0  0  0  0  0  0  0
    3.5224   -4.1258   -1.0316 C   0  0  0  0  0  0  0  0  0  0  0  0
    4.9000   -4.7927   -1.2036 C   0  0  0  0  0  0  0  0  0  0  0  0
    5.8742   -4.6942   -0.0005 C   0  0  2  0  0  0  0  0  0  0  0  0
    5.9843   -6.0564    0.8080 C   0  0  1  0  0  0  0  0  0  0  0  0
    7.4587   -6.4515    1.0897 C   0  0  0  0  0  0  0  0  0  0  0  0
    7.8940   -5.9163    2.3301 O   0  0  0  0  0  0  0  0  0  0  0  0
    7.3641   -6.5954    3.4182 C   0  0  1  0  0  0  0  0  0  0  0  0
    7.8699   -6.0721    4.6223 O   0  0  0  0  0  0  0  0  0  0  0  0
    5.8201   -6.4924    3.4211 C   0  0  2  0  0  0  0  0  0  0  0  0
    5.8007   -3.3225    0.7231 C   0  0  2  0  0  0  0  0  0  0  0  0
    6.6746   -3.2902    1.9384 C   0  0  0  0  0  0  0  0  0  0  0  0
    6.2909   -2.0892   -0.1335 C   0  0  1  0  0  0  0  0  0  0  0  0
    7.5698   -2.2718   -0.7070 O   0  0  0  0  0  0  0  0  0  0  0  0
    5.3677   -1.6242   -1.2689 C   0  0  0  0  0  0  0  0  0  0  0  0
    3.9080   -1.5839   -0.8275 C   0  0  1  0  0  0  0  0  0  0  0  0
    3.0359   -1.2863   -1.9842 N   0  0  0  0  0  0  0  0  0  0  0  0
    2.8857   -8.0669    4.3187 H   0  0  0  0  0  0  0  0  0  0  0  0
    3.4549   -6.4342    4.6515 H   0  0  0  0  0  0  0  0  0  0  0  0
    3.9161   -7.7250    5.6961 H   0  0  0  0  0  0  0  0  0  0  0  0
    6.2524   -8.6199    5.3451 H   0  0  0  0  0  0  0  0  0  0  0  0
    4.9442   -9.6686    4.8550 H   0  0  0  0  0  0  0  0  0  0  0  0
    6.0503  -10.1444    2.9905 H   0  0  0  0  0  0  0  0  0  0  0  0
    5.6196   -8.4360    1.7902 H   0  0  0  0  0  0  0  0  0  0  0  0
    3.7168   -9.3524    1.7040 H   0  0  0  0  0  0  0  0  0  0  0  0
    3.2724   -5.7546    1.0215 H   0  0  0  0  0  0  0  0  0  0  0  0
    3.0283   -5.9597    2.6482 H   0  0  0  0  0  0  0  0  0  0  0  0
    2.8043   -3.7331    2.5215 H   0  0  0  0  0  0  0  0  0  0  0  0
    4.3352   -3.8817    3.2038 H   0  0  0  0  0  0  0  0  0  0  0  0
    4.3548   -2.1046    1.6759 H   0  0  0  0  0  0  0  0  0  0  0  0
    1.7619   -2.0547   -0.1509 H   0  0  0  0  0  0  0  0  0  0  0  0
    2.7893   -4.8436   -0.6848 H   0  0  0  0  0  0  0  0  0  0  0  0
    3.1385   -3.8723   -2.0191 H   0  0  0  0  0  0  0  0  0  0  0  0
    4.7502   -5.8259   -1.5084 H   0  0  0  0  0  0  0  0  0  0  0  0
    5.3833   -4.3595   -2.0758 H   0  0  0  0  0  0  0  0  0  0  0  0
    6.8310   -4.5894   -0.4887 H   0  0  0  0  0  0  0  0  0  0  0  0
    5.6781   -6.7982    0.0905 H   0  0  0  0  0  0  0  0  0  0  0  0
    7.5902   -7.5347    1.0950 H   0  0  0  0  0  0  0  0  0  0  0  0
    8.1312   -6.1015    0.3077 H   0  0  0  0  0  0  0  0  0  0  0  0
    7.7353   -7.6165    3.3672 H   0  0  0  0  0  0  0  0  0  0  0  0
    8.8053   -6.1848    4.6106 H   0  0  0  0  0  0  0  0  0  0  0  0
    5.5027   -5.6582    4.0433 H   0  0  0  0  0  0  0  0  0  0  0  0
    7.7135   -3.4568    1.6482 H   0  0  0  0  0  0  0  0  0  0  0  0
    6.4105   -4.0408    2.6664 H   0  0  0  0  0  0  0  0  0  0  0  0
    6.5651   -2.3251    2.4279 H   0  0  0  0  0  0  0  0  0  0  0  0
    6.3884   -1.2349    0.5401 H   0  0  0  0  0  0  0  0  0  0  0  0
    8.1579   -2.5912   -0.0372 H   0  0  0  0  0  0  0  0  0  0  0  0
    5.6663   -0.6261   -1.5914 H   0  0  0  0  0  0  0  0  0  0  0  0
    5.4693   -2.2669   -2.1427 H   0  0  0  0  0  0  0  0  0  0  0  0
    3.7719   -0.7532   -0.1305 H   0  0  0  0  0  0  0  0  0  0  0  0
    3.0874   -2.0274   -2.6649 H   0  0  0  0  0  0  0  0  0  0  0  0
    3.2991   -0.4031   -2.3986 H   0  0  0  0  0  0  0  0  0  0  0  0
    2.0670   -1.2035   -1.6598 H   0  0  0  0  0  0  0  0  0  0  0  0
  2  1  1  1
  1 29  1  0
  1 30  1  0
  1 31  1  0
  2 21  1  0
  2  3  1  0
  2  5  1  0
  3  4  1  0
  3 32  1  0
  3 33  1  0
  4 34  1  0
  5  6  1  0
  5  7  1  0
  5 35  1  6
  6 36  1  0
  7 16  1  0
  7 21  1  0
  7  8  1  1
  8  9  1  0
  8 37  1  0
  8 38  1  0
  9 10  1  0
  9 39  1  0
  9 40  1  0
 10 22  1  0
 10 11  1  0
 10 41  1  1
 11 27  1  0
 11 12  1  1
 11 13  1  0
 12 42  1  0
 13 14  1  0
 13 43  1  0
 13 44  1  0
 14 15  1  0
 14 45  1  0
 14 46  1  0
 15 16  1  0
 15 22  1  0
 15 47  1  6
 16 17  1  0
 16 48  1  6
 17 18  1  0
 17 49  1  0
 17 50  1  0
 18 19  1  0
 19 20  1  0
 19 21  1  0
 19 51  1  6
 20 52  1  0
 21 53  1  1
 22 23  1  1
 22 24  1  0
 23 54  1  0
 23 55  1  0
 23 56  1  0
 24 25  1  0
 24 26  1  0
 24 57  1  1
 25 58  1  0
 26 27  1  0
 26 59  1  0
 26 60  1  0
 27 28  1  0
 27 61  1  1
 28 62  1  0
 28 63  1  0
 28 64  1  0
M  CHG  1  28   1
M  END
>  <i_m_ct_stereo_status>  (51) 
1

>  <s_m_source_file>  (51) 
/var/tmp/pbs.5076255.sched01/tmp_578sd5a/06fbc0iir.sdf

>  <i_m_source_file_index>  (51) 
25

>  <i_lp_mmshare_version>  (51) 
48012

>  <i_f3d_flags>  (51) 
0

>  <s_epik_input>  (51) 
W09IXVtDSDJdW0NAXShbQ0gzXSkoW0NASF0xW09IXSlbQ0BIXTJbQ0BIXShbT0hdKU9bQ0gyXVtDQEBIXShbQ0BAXTEyMylbQ0BASF00W0NAXTUoW0NIM10pW0NASF0oW0NIMl1bQ0gyXTMpW0NAXShbT0hdKShbQ0gyXVtDSDJdNClbQ0BIXShbTkgyXSlbQ0gyXVtDQEBIXTVbT0hd

>  <s_epik_cmdline>  (51) 
J2VwaWtfcHl0aG9uJywgJy1waHQnLCAnMi4wJywgJy1waCcsICc3LjAnLCAnLXRuJywgJzgnLCAnLW1hJywgJzIwMCcsICctaW1hZScsICc8aW5maWxlLm1hZT4nLCAnLW9tYWUnLCAnPG91dGZpbGUubWFlPic=

>  <r_epik_Ionization_Penalty>  (51) 
0.006992

>  <r_epik_Ionization_Penalty_Charging>  (51) 
0.00699117

>  <r_epik_Ionization_Penalty_Neutral>  (51) 
8.32288e-07

>  <r_epik_State_Penalty>  (51) 
0.00520044

>  <r_epik_Charging_Adjusted_Penalty>  (51) 
0.0121916

>  <i_epik_Tot_Q>  (51) 
1

>  <i_epik_Tot_abs_Q>  (51) 
1

>  <s_epik_Chemistry_Notes>  (51) 
This compound contains an acetal/aminal-like group ( X-CH(R)-Y where X, Y are N, S, or O) that may be acid/base labile, releasing an aldehyde.

>  <s_lp_Force_Field>  (51) 
OPLS3e

>  <r_lp_Energy>  (51) 
90.5462

>  <b_lp_Chiralities_Consistent>  (51) 
1

>  <s_lp_Variant>  (51) 
23:0-1

>  <s_i_glide_gridfile>  (51) 
pfpi4k_grid

>  <i_i_glide_lignum>  (51) 
25

>  <i_i_glide_rotatable_bonds>  (51) 
6

>  <r_i_docking_score>  (51) 
-3.93425

>  <r_i_glide_ligand_efficiency>  (51) 
-0.140509

>  <r_i_glide_ligand_efficiency_sa>  (51) 
-0.426668

>  <r_i_glide_ligand_efficiency_ln>  (51) 
-0.908141

>  <r_i_glide_gscore>  (51) 
-3.93425

>  <r_i_glide_lipo>  (51) 
-0.285415

>  <r_i_glide_hbond>  (51) 
-0.538724

>  <r_i_glide_metal>  (51) 
-0

>  <r_i_glide_rewards>  (51) 
-0.698036

>  <r_i_glide_evdw>  (51) 
-8.14211

>  <r_i_glide_ecoul>  (51) 
-13.2901

>  <r_i_glide_erotb>  (51) 
0.0863265

>  <r_i_glide_esite>  (51) 
-0.097778

>  <r_i_glide_emodel>  (51) 
-23.3107

>  <r_i_glide_energy>  (51) 
-21.4323

>  <r_i_glide_einternal>  (51) 
4.76604

>  <r_i_glide_intrahb_reward>  (51) 
-0

>  <i_i_glide_confnum>  (51) 
3

>  <i_i_glide_posenum>  (51) 
18

>  <r_i_glide_eff_state_penalty>  (51) 
0

>  <ligand_id>  (51) 
23

>  <original_smiles>  (51) 
CC1(CO)C(O)C23CCC4C5(O)CCC(C2COC(O)C13)C4(C)C(O)CC5N

>  <smiles>  (51) 
[H]OC([H])([H])C1(C([H])([H])[H])C([H])(O[H])C23C([H])([H])C([H])([H])C4([H])C5(O[H])C([H])([H])C([H])([H])C([H])(C2([H])C([H])([H])OC([H])(O[H])C13[H])C4(C([H])([H])[H])C([H])(O[H])C([H])([H])C5([H])[N+]([H])([H])[H]

$$$$
23:0:2
     RDKit          3D

 64 68  0  0  1  0  0  0  0  0999 V2000
    3.8804   -7.4645    4.6936 C   0  0  0  0  0  0  0  0  0  0  0  0
    5.1146   -7.7395    3.8057 C   0  0  1  0  0  0  0  0  0  0  0  0
    5.8665   -8.9142    4.4748 C   0  0  0  0  0  0  0  0  0  0  0  0
    5.0274  -10.0298    4.7019 O   0  0  0  0  0  0  0  0  0  0  0  0
    4.9159   -7.8680    2.2812 C   0  0  1  0  0  0  0  0  0  0  0  0
    3.7010   -8.4084    1.8118 O   0  0  0  0  0  0  0  0  0  0  0  0
    5.1662   -6.3552    2.0550 C   0  0  2  0  0  0  0  0  0  0  0  0
    3.8456   -5.5466    1.9869 C   0  0  0  0  0  0  0  0  0  0  0  0
    3.9042   -4.0367    2.2896 C   0  0  0  0  0  0  0  0  0  0  0  0
    4.4193   -3.0660    1.1839 C   0  0  2  0  0  0  0  0  0  0  0  0
    3.5308   -2.8700   -0.0661 C   0  0  2  0  0  0  0  0  0  0  0  0
    2.2499   -2.6568    0.4684 O   0  0  0  0  0  0  0  0  0  0  0  0
    3.5323   -4.1082   -0.9908 C   0  0  0  0  0  0  0  0  0  0  0  0
    4.9169   -4.7746   -1.1901 C   0  0  0  0  0  0  0  0  0  0  0  0
    5.9095   -4.6964   -0.0067 C   0  0  2  0  0  0  0  0  0  0  0  0
    6.0462   -6.0484    0.8045 C   0  0  1  0  0  0  0  0  0  0  0  0
    7.5308   -6.4369    1.0528 C   0  0  0  0  0  0  0  0  0  0  0  0
    7.9801   -5.8948    2.2828 O   0  0  0  0  0  0  0  0  0  0  0  0
    7.4836   -6.5776    3.3833 C   0  0  1  0  0  0  0  0  0  0  0  0
    8.0077   -6.0583    4.5828 O   0  0  0  0  0  0  0  0  0  0  0  0
    5.9333   -6.4765    3.4122 C   0  0  2  0  0  0  0  0  0  0  0  0
    5.8507   -3.3177    0.6964 C   0  0  2  0  0  0  0  0  0  0  0  0
    6.7538   -3.2824    1.8853 C   0  0  0  0  0  0  0  0  0  0  0  0
    6.3303   -2.0857   -0.1725 C   0  0  1  0  0  0  0  0  0  0  0  0
    7.6083   -2.2588   -0.7643 O   0  0  0  0  0  0  0  0  0  0  0  0
    5.3739   -1.6268   -1.2820 C   0  0  0  0  0  0  0  0  0  0  0  0
    3.9255   -1.5753   -0.8084 C   0  0  1  0  0  0  0  0  0  0  0  0
    3.0586   -1.2853   -1.9544 N   0  0  0  0  0  0  0  0  0  0  0  0
    3.0155   -8.0493    4.3830 H   0  0  0  0  0  0  0  0  0  0  0  0
    3.5894   -6.4185    4.7006 H   0  0  0  0  0  0  0  0  0  0  0  0
    4.0700   -7.7076    5.7394 H   0  0  0  0  0  0  0  0  0  0  0  0
    6.6930   -9.2824    3.8665 H   0  0  0  0  0  0  0  0  0  0  0  0
    6.2935   -8.6007    5.4291 H   0  0  0  0  0  0  0  0  0  0  0  0
    4.7501  -10.3948    3.8726 H   0  0  0  0  0  0  0  0  0  0  0  0
    5.7359   -8.4549    1.8581 H   0  0  0  0  0  0  0  0  0  0  0  0
    3.8184   -9.3424    1.7254 H   0  0  0  0  0  0  0  0  0  0  0  0
    3.3424   -5.7458    1.0553 H   0  0  0  0  0  0  0  0  0  0  0  0
    3.1309   -5.9507    2.6920 H   0  0  0  0  0  0  0  0  0  0  0  0
    2.8996   -3.7255    2.5628 H   0  0  0  0  0  0  0  0  0  0  0  0
    4.4445   -3.8668    3.2190 H   0  0  0  0  0  0  0  0  0  0  0  0
    4.4303   -2.0978    1.6870 H   0  0  0  0  0  0  0  0  0  0  0  0
    1.7431   -2.0800   -0.0881 H   0  0  0  0  0  0  0  0  0  0  0  0
    2.8056   -4.8448   -0.6584 H   0  0  0  0  0  0  0  0  0  0  0  0
    3.1452   -3.8505   -1.9784 H   0  0  0  0  0  0  0  0  0  0  0  0
    4.7677   -5.8175   -1.4583 H   0  0  0  0  0  0  0  0  0  0  0  0
    5.3905   -4.3568   -2.0808 H   0  0  0  0  0  0  0  0  0  0  0  0
    6.8604   -4.6468   -0.5086 H   0  0  0  0  0  0  0  0  0  0  0  0
    5.7301   -6.7854    0.0804 H   0  0  0  0  0  0  0  0  0  0  0  0
    7.6650   -7.5192    1.0578 H   0  0  0  0  0  0  0  0  0  0  0  0
    8.1900   -6.0842    0.2614 H   0  0  0  0  0  0  0  0  0  0  0  0
    7.8598   -7.5989    3.3258 H   0  0  0  0  0  0  0  0  0  0  0  0
    8.9535   -6.1178    4.5263 H   0  0  0  0  0  0  0  0  0  0  0  0
    5.6248   -5.6435    4.0347 H   0  0  0  0  0  0  0  0  0  0  0  0
    7.8032   -3.4505    1.6174 H   0  0  0  0  0  0  0  0  0  0  0  0
    6.4932   -4.0306    2.6190 H   0  0  0  0  0  0  0  0  0  0  0  0
    6.6120   -2.3110    2.3637 H   0  0  0  0  0  0  0  0  0  0  0  0
    6.4340   -1.2278    0.4969 H   0  0  0  0  0  0  0  0  0  0  0  0
    7.6180   -3.0553   -1.2612 H   0  0  0  0  0  0  0  0  0  0  0  0
    5.6735   -0.6298   -1.6031 H   0  0  0  0  0  0  0  0  0  0  0  0
    5.4654   -2.2639   -2.1591 H   0  0  0  0  0  0  0  0  0  0  0  0
    3.8178   -0.7440   -0.1170 H   0  0  0  0  0  0  0  0  0  0  0  0
    3.1006   -2.0301   -2.6291 H   0  0  0  0  0  0  0  0  0  0  0  0
    3.3123   -0.4061   -2.3714 H   0  0  0  0  0  0  0  0  0  0  0  0
    2.0854   -1.2029   -1.6140 H   0  0  0  0  0  0  0  0  0  0  0  0
  2  1  1  1
  1 29  1  0
  1 30  1  0
  1 31  1  0
  2 21  1  0
  2  3  1  0
  2  5  1  0
  3  4  1  0
  3 32  1  0
  3 33  1  0
  4 34  1  0
  5  6  1  0
  5  7  1  0
  5 35  1  6
  6 36  1  0
  7 16  1  0
  7 21  1  0
  7  8  1  1
  8  9  1  0
  8 37  1  0
  8 38  1  0
  9 10  1  0
  9 39  1  0
  9 40  1  0
 10 22  1  0
 10 11  1  0
 10 41  1  1
 11 27  1  0
 11 12  1  1
 11 13  1  0
 12 42  1  0
 13 14  1  0
 13 43  1  0
 13 44  1  0
 14 15  1  0
 14 45  1  0
 14 46  1  0
 15 16  1  0
 15 22  1  0
 15 47  1  6
 16 17  1  0
 16 48  1  6
 17 18  1  0
 17 49  1  0
 17 50  1  0
 18 19  1  0
 19 20  1  0
 19 21  1  0
 19 51  1  6
 20 52  1  0
 21 53  1  1
 22 23  1  1
 22 24  1  0
 23 54  1  0
 23 55  1  0
 23 56  1  0
 24 25  1  0
 24 26  1  0
 24 57  1  1
 25 58  1  0
 26 27  1  0
 26 59  1  0
 26 60  1  0
 27 28  1  0
 27 61  1  1
 28 62  1  0
 28 63  1  0
 28 64  1  0
M  CHG  1  28   1
M  END
>  <i_m_ct_stereo_status>  (52) 
1

>  <s_m_source_file>  (52) 
/var/tmp/pbs.5076255.sched01/tmp_578sd5a/06fbc0iir.sdf

>  <i_m_source_file_index>  (52) 
25

>  <i_lp_mmshare_version>  (52) 
48012

>  <i_f3d_flags>  (52) 
0

>  <s_epik_input>  (52) 
W09IXVtDSDJdW0NAXShbQ0gzXSkoW0NASF0xW09IXSlbQ0BIXTJbQ0BIXShbT0hdKU9bQ0gyXVtDQEBIXShbQ0BAXTEyMylbQ0BASF00W0NAXTUoW0NIM10pW0NASF0oW0NIMl1bQ0gyXTMpW0NAXShbT0hdKShbQ0gyXVtDSDJdNClbQ0BIXShbTkgyXSlbQ0gyXVtDQEBIXTVbT0hd

>  <s_epik_cmdline>  (52) 
J2VwaWtfcHl0aG9uJywgJy1waHQnLCAnMi4wJywgJy1waCcsICc3LjAnLCAnLXRuJywgJzgnLCAnLW1hJywgJzIwMCcsICctaW1hZScsICc8aW5maWxlLm1hZT4nLCAnLW9tYWUnLCAnPG91dGZpbGUubWFlPic=

>  <r_epik_Ionization_Penalty>  (52) 
0.006992

>  <r_epik_Ionization_Penalty_Charging>  (52) 
0.00699117

>  <r_epik_Ionization_Penalty_Neutral>  (52) 
8.32288e-07

>  <r_epik_State_Penalty>  (52) 
0.00520044

>  <r_epik_Charging_Adjusted_Penalty>  (52) 
0.0121916

>  <i_epik_Tot_Q>  (52) 
1

>  <i_epik_Tot_abs_Q>  (52) 
1

>  <s_epik_Chemistry_Notes>  (52) 
This compound contains an acetal/aminal-like group ( X-CH(R)-Y where X, Y are N, S, or O) that may be acid/base labile, releasing an aldehyde.

>  <s_lp_Force_Field>  (52) 
OPLS3e

>  <r_lp_Energy>  (52) 
90.5462

>  <b_lp_Chiralities_Consistent>  (52) 
1

>  <s_lp_Variant>  (52) 
23:0-1

>  <s_i_glide_gridfile>  (52) 
pfpi4k_grid

>  <i_i_glide_lignum>  (52) 
25

>  <i_i_glide_rotatable_bonds>  (52) 
6

>  <r_i_docking_score>  (52) 
-3.85502

>  <r_i_glide_ligand_efficiency>  (52) 
-0.137679

>  <r_i_glide_ligand_efficiency_sa>  (52) 
-0.418075

>  <r_i_glide_ligand_efficiency_ln>  (52) 
-0.889851

>  <r_i_glide_gscore>  (52) 
-3.85502

>  <r_i_glide_lipo>  (52) 
-0.285659

>  <r_i_glide_hbond>  (52) 
-0.535767

>  <r_i_glide_metal>  (52) 
-0

>  <r_i_glide_rewards>  (52) 
-0.699582

>  <r_i_glide_evdw>  (52) 
-7.64588

>  <r_i_glide_ecoul>  (52) 
-12.9203

>  <r_i_glide_erotb>  (52) 
0.0863265

>  <r_i_glide_esite>  (52) 
-0.1

>  <r_i_glide_emodel>  (52) 
-22.9748

>  <r_i_glide_energy>  (52) 
-20.5662

>  <r_i_glide_einternal>  (52) 
2.84597

>  <r_i_glide_intrahb_reward>  (52) 
-0

>  <i_i_glide_confnum>  (52) 
2

>  <i_i_glide_posenum>  (52) 
27

>  <r_i_glide_eff_state_penalty>  (52) 
0

>  <ligand_id>  (52) 
23

>  <original_smiles>  (52) 
CC1(CO)C(O)C23CCC4C5(O)CCC(C2COC(O)C13)C4(C)C(O)CC5N

>  <smiles>  (52) 
[H]OC([H])([H])C1(C([H])([H])[H])C([H])(O[H])C23C([H])([H])C([H])([H])C4([H])C5(O[H])C([H])([H])C([H])([H])C([H])(C2([H])C([H])([H])OC([H])(O[H])C13[H])C4(C([H])([H])[H])C([H])(O[H])C([H])([H])C5([H])[N+]([H])([H])[H]

$$$$
24:0:0
     RDKit          3D

 39 45  0  0  1  0  0  0  0  0999 V2000
    3.0500   -0.9470   -3.2325 C   0  0  0  0  0  0  0  0  0  0  0  0
    3.1906   -1.4624   -1.8440 N   0  0  2  0  0  0  0  0  0  0  0  0
    4.3991   -1.0864   -1.1038 C   0  0  1  0  0  0  0  0  0  0  0  0
    4.4041   -0.5682    0.4945 C   0  0  1  0  0  0  0  0  0  0  0  0
    3.0736   -0.3082    1.3171 C   0  0  0  0  0  0  0  0  0  0  0  0
    2.6394   -1.3342    2.4736 C   0  0  0  0  0  0  0  0  0  0  0  0
    3.3182   -2.7639    2.5907 C   0  0  2  0  0  0  0  0  0  0  0  0
    4.8420   -2.4783    2.5422 C   0  0  1  0  0  0  0  0  0  0  0  0
    5.6548   -3.5878    1.8044 C   0  0  1  0  0  0  0  0  0  0  0  0
    5.1185   -4.9849    1.4062 C   0  0  0  0  0  0  0  0  0  0  0  0
    3.7647   -4.7987    0.6050 C   0  0  1  0  0  0  0  0  0  0  0  0
    2.9252   -3.7505    1.4089 C   0  0  2  0  0  0  0  0  0  0  0  0
    3.6384   -3.0509    0.3652 C   0  0  1  0  0  0  0  0  0  0  0  0
    5.2013   -2.7454    0.6835 C   0  0  1  0  0  0  0  0  0  0  0  0
    5.3038   -1.4902    1.3813 C   0  0  1  0  0  0  0  0  0  0  0  0
    3.4776   -3.8517   -0.7548 C   0  0  1  0  0  0  0  0  0  0  0  0
    4.0991   -2.6128   -1.6324 C   0  0  1  0  0  0  0  0  0  0  0  0
    3.9848   -0.9434   -3.7918 H   0  0  0  0  0  0  0  0  0  0  0  0
    2.6666    0.0743   -3.2206 H   0  0  0  0  0  0  0  0  0  0  0  0
    2.3347   -1.5567   -3.7911 H   0  0  0  0  0  0  0  0  0  0  0  0
    5.0728   -0.5154   -1.7367 H   0  0  0  0  0  0  0  0  0  0  0  0
    4.8886    0.4066    0.4649 H   0  0  0  0  0  0  0  0  0  0  0  0
    3.2001    0.6597    1.8062 H   0  0  0  0  0  0  0  0  0  0  0  0
    2.2399   -0.1476    0.6352 H   0  0  0  0  0  0  0  0  0  0  0  0
    2.8421   -0.8315    3.4197 H   0  0  0  0  0  0  0  0  0  0  0  0
    1.5541   -1.4545    2.4504 H   0  0  0  0  0  0  0  0  0  0  0  0
    3.0498   -3.2113    3.5492 H   0  0  0  0  0  0  0  0  0  0  0  0
    5.2840   -2.2040    3.5015 H   0  0  0  0  0  0  0  0  0  0  0  0
    6.7247   -3.5186    2.0015 H   0  0  0  0  0  0  0  0  0  0  0  0
    5.8500   -5.5332    0.8133 H   0  0  0  0  0  0  0  0  0  0  0  0
    4.9458   -5.5835    2.3030 H   0  0  0  0  0  0  0  0  0  0  0  0
    3.2206   -5.7376    0.5095 H   0  0  0  0  0  0  0  0  0  0  0  0
    1.8518   -3.8727    1.2368 H   0  0  0  0  0  0  0  0  0  0  0  0
    2.8475   -2.3263    0.2623 H   0  0  0  0  0  0  0  0  0  0  0  0
    5.9369   -2.8562   -0.1154 H   0  0  0  0  0  0  0  0  0  0  0  0
    6.3455   -1.1790    1.4843 H   0  0  0  0  0  0  0  0  0  0  0  0
    2.4357   -4.0342   -1.0306 H   0  0  0  0  0  0  0  0  0  0  0  0
    4.6049   -2.9005   -2.5535 H   0  0  0  0  0  0  0  0  0  0  0  0
    2.3457   -1.4571   -1.2703 H   0  0  0  0  0  0  0  0  0  0  0  0
  1  2  1  0
  1 18  1  0
  1 19  1  0
  1 20  1  0
  2 17  1  0
  2  3  1  0
  2 39  1  1
  3 17  1  0
  3  4  1  0
  3 21  1  6
  4 15  1  0
  4  5  1  0
  4 22  1  6
  5  6  1  0
  5 23  1  0
  5 24  1  0
  6  7  1  0
  6 25  1  0
  6 26  1  0
  7 12  1  0
  7  8  1  0
  7 27  1  1
  8 15  1  0
  8  9  1  0
  8 28  1  1
  9 14  1  0
  9 10  1  0
  9 29  1  1
 10 11  1  0
 10 30  1  0
 10 31  1  0
 11 16  1  0
 11 12  1  0
 11 32  1  6
 12 13  1  0
 12 33  1  6
 13 14  1  0
 13 16  1  0
 13 34  1  6
 14 15  1  0
 14 35  1  6
 15 36  1  1
 16 17  1  0
 16 37  1  6
 17 38  1  6
M  CHG  1   2   1
M  END
>  <i_m_ct_stereo_status>  (53) 
1

>  <s_m_source_file>  (53) 
/var/tmp/pbs.5076255.sched01/tmp_578sd5a/06fbc0iir.sdf

>  <i_m_source_file_index>  (53) 
26

>  <i_lp_mmshare_version>  (53) 
48012

>  <i_f3d_flags>  (53) 
0

>  <s_epik_input>  (53) 
W0NIMl0xW0NASF0yW0NASF0zW0NASF00W0NAQEhdKFtDQEhdNU42W0NIM10pW0NAQEhdMVtDQEhdNFtDQEhdKFtDSDJdW0NIMl03KVtDQEBIXTJbQ0BASF0zW0NASF03W0NAQEhdNTY=

>  <s_epik_cmdline>  (53) 
J2VwaWtfcHl0aG9uJywgJy1waHQnLCAnMi4wJywgJy1waCcsICc3LjAnLCAnLXRuJywgJzgnLCAnLW1hJywgJzIwMCcsICctaW1hZScsICc8aW5maWxlLm1hZT4nLCAnLW9tYWUnLCAnPG91dGZpbGUubWFlPic=

>  <r_epik_Ionization_Penalty>  (53) 
0.00178301

>  <r_epik_Ionization_Penalty_Charging>  (53) 
0.00178301

>  <r_epik_Ionization_Penalty_Neutral>  (53) 
0

>  <r_epik_State_Penalty>  (53) 
0.00120855

>  <r_epik_Charging_Adjusted_Penalty>  (53) 
0.00299156

>  <i_epik_Tot_Q>  (53) 
1

>  <i_epik_Tot_abs_Q>  (53) 
1

>  <s_lp_Force_Field>  (53) 
OPLS3e

>  <r_lp_Energy>  (53) 
285.997

>  <b_lp_Chiralities_Consistent>  (53) 
1

>  <s_lp_Variant>  (53) 
24:0-1

>  <s_i_glide_gridfile>  (53) 
pfpi4k_grid

>  <i_i_glide_lignum>  (53) 
26

>  <i_i_glide_rotatable_bonds>  (53) 
0

>  <r_i_docking_score>  (53) 
-4.11858

>  <r_i_glide_ligand_efficiency>  (53) 
-0.24227

>  <r_i_glide_ligand_efficiency_sa>  (53) 
-0.622944

>  <r_i_glide_ligand_efficiency_ln>  (53) 
-1.07445

>  <r_i_glide_gscore>  (53) 
-4.11858

>  <r_i_glide_lipo>  (53) 
-0.449808

>  <r_i_glide_hbond>  (53) 
-0.2

>  <r_i_glide_metal>  (53) 
-0

>  <r_i_glide_rewards>  (53) 
-1.85214

>  <r_i_glide_evdw>  (53) 
-13.2303

>  <r_i_glide_ecoul>  (53) 
-5.7008

>  <r_i_glide_erotb>  (53) 
0

>  <r_i_glide_esite>  (53) 
-0.1

>  <r_i_glide_emodel>  (53) 
-25.2331

>  <r_i_glide_energy>  (53) 
-18.9311

>  <r_i_glide_einternal>  (53) 
0

>  <r_i_glide_intrahb_reward>  (53) 
-0

>  <i_i_glide_confnum>  (53) 
2

>  <i_i_glide_posenum>  (53) 
1

>  <r_i_glide_eff_state_penalty>  (53) 
0

>  <ligand_id>  (53) 
24

>  <original_smiles>  (53) 
CN1C2C3CCC4C5C6CC7C4C(C6C35)C7C21

>  <smiles>  (53) 
[H]C1([H])C([H])([H])C2([H])C3([H])C4([H])C1([H])C1([H])C5([H])C([H])([H])C4([H])C3([H])C1([H])C5([H])C1([H])C2([H])[N+]1([H])C([H])([H])[H]

$$$$
24:0:1
     RDKit          3D

 39 45  0  0  1  0  0  0  0  0999 V2000
    2.9702   -1.3466   -4.0650 C   0  0  0  0  0  0  0  0  0  0  0  0
    3.2219   -1.8041   -2.6747 N   0  0  2  0  0  0  0  0  0  0  0  0
    4.5714   -2.2896   -2.3729 C   0  0  1  0  0  0  0  0  0  0  0  0
    5.4298   -1.8732   -0.9991 C   0  0  1  0  0  0  0  0  0  0  0  0
    4.9085   -0.8036    0.0487 C   0  0  0  0  0  0  0  0  0  0  0  0
    4.3629   -1.2848    1.4803 C   0  0  0  0  0  0  0  0  0  0  0  0
    4.0317   -2.8139    1.7487 C   0  0  2  0  0  0  0  0  0  0  0  0
    5.2919   -3.5779    1.2583 C   0  0  1  0  0  0  0  0  0  0  0  0
    4.9648   -4.9644    0.6162 C   0  0  1  0  0  0  0  0  0  0  0  0
    3.6002   -5.6929    0.6941 C   0  0  0  0  0  0  0  0  0  0  0  0
    2.4590   -4.6928    0.2394 C   0  0  1  0  0  0  0  0  0  0  0  0
    2.7499   -3.3334    0.9635 C   0  0  2  0  0  0  0  0  0  0  0  0
    3.3381   -3.2792   -0.3549 C   0  0  1  0  0  0  0  0  0  0  0  0
    4.7618   -4.0477   -0.5184 C   0  0  1  0  0  0  0  0  0  0  0  0
    5.8276   -3.1423   -0.1772 C   0  0  1  0  0  0  0  0  0  0  0  0
    2.3599   -3.8052   -1.1856 C   0  0  1  0  0  0  0  0  0  0  0  0
    3.2576   -3.2699   -2.4476 C   0  0  1  0  0  0  0  0  0  0  0  0
    3.4810   -1.9593   -4.8063 H   0  0  0  0  0  0  0  0  0  0  0  0
    3.2928   -0.3120   -4.2008 H   0  0  0  0  0  0  0  0  0  0  0  0
    1.9139   -1.4223   -4.3227 H   0  0  0  0  0  0  0  0  0  0  0  0
    5.1897   -2.3070   -3.2668 H   0  0  0  0  0  0  0  0  0  0  0  0
    6.3479   -1.4545   -1.3989 H   0  0  0  0  0  0  0  0  0  0  0  0
    5.7475   -0.1377    0.2602 H   0  0  0  0  0  0  0  0  0  0  0  0
    4.1777   -0.1570   -0.4283 H   0  0  0  0  0  0  0  0  0  0  0  0
    5.1296   -1.0157    2.2072 H   0  0  0  0  0  0  0  0  0  0  0  0
    3.4970   -0.6767    1.7550 H   0  0  0  0  0  0  0  0  0  0  0  0
    3.8897   -2.9653    2.8203 H   0  0  0  0  0  0  0  0  0  0  0  0
    6.1015   -3.6351    1.9897 H   0  0  0  0  0  0  0  0  0  0  0  0
    5.8514   -5.5939    0.5176 H   0  0  0  0  0  0  0  0  0  0  0  0
    3.6030   -6.5908    0.0767 H   0  0  0  0  0  0  0  0  0  0  0  0
    3.4194   -6.0260    1.7182 H   0  0  0  0  0  0  0  0  0  0  0  0
    1.4749   -5.0746    0.5017 H   0  0  0  0  0  0  0  0  0  0  0  0
    1.8465   -2.7218    1.0821 H   0  0  0  0  0  0  0  0  0  0  0  0
    3.1682   -2.2163   -0.4168 H   0  0  0  0  0  0  0  0  0  0  0  0
    4.9536   -4.6174   -1.4298 H   0  0  0  0  0  0  0  0  0  0  0  0
    6.8005   -3.5748   -0.4144 H   0  0  0  0  0  0  0  0  0  0  0  0
    1.4094   -3.2707   -1.1450 H   0  0  0  0  0  0  0  0  0  0  0  0
    3.1365   -3.8219   -3.3789 H   0  0  0  0  0  0  0  0  0  0  0  0
    2.7673   -1.3093   -1.9151 H   0  0  0  0  0  0  0  0  0  0  0  0
  1  2  1  0
  1 18  1  0
  1 19  1  0
  1 20  1  0
  2 17  1  0
  2  3  1  0
  2 39  1  1
  3 17  1  0
  3  4  1  0
  3 21  1  6
  4 15  1  0
  4  5  1  0
  4 22  1  6
  5  6  1  0
  5 23  1  0
  5 24  1  0
  6  7  1  0
  6 25  1  0
  6 26  1  0
  7 12  1  0
  7  8  1  0
  7 27  1  1
  8 15  1  0
  8  9  1  0
  8 28  1  1
  9 14  1  0
  9 10  1  0
  9 29  1  6
 10 11  1  0
 10 30  1  0
 10 31  1  0
 11 16  1  0
 11 12  1  0
 11 32  1  1
 12 13  1  0
 12 33  1  6
 13 14  1  0
 13 16  1  0
 13 34  1  6
 14 15  1  0
 14 35  1  6
 15 36  1  1
 16 17  1  0
 16 37  1  1
 17 38  1  6
M  CHG  1   2   1
M  END
>  <i_m_ct_stereo_status>  (54) 
1

>  <s_m_source_file>  (54) 
/var/tmp/pbs.5076255.sched01/tmp_578sd5a/06fbc0iir.sdf

>  <i_m_source_file_index>  (54) 
26

>  <i_lp_mmshare_version>  (54) 
48012

>  <i_f3d_flags>  (54) 
0

>  <s_epik_input>  (54) 
W0NIMl0xW0NASF0yW0NASF0zW0NASF00W0NAQEhdKFtDQEhdNU42W0NIM10pW0NAQEhdMVtDQEhdNFtDQEhdKFtDSDJdW0NIMl03KVtDQEBIXTJbQ0BASF0zW0NASF03W0NAQEhdNTY=

>  <s_epik_cmdline>  (54) 
J2VwaWtfcHl0aG9uJywgJy1waHQnLCAnMi4wJywgJy1waCcsICc3LjAnLCAnLXRuJywgJzgnLCAnLW1hJywgJzIwMCcsICctaW1hZScsICc8aW5maWxlLm1hZT4nLCAnLW9tYWUnLCAnPG91dGZpbGUubWFlPic=

>  <r_epik_Ionization_Penalty>  (54) 
0.00178301

>  <r_epik_Ionization_Penalty_Charging>  (54) 
0.00178301

>  <r_epik_Ionization_Penalty_Neutral>  (54) 
0

>  <r_epik_State_Penalty>  (54) 
0.00120855

>  <r_epik_Charging_Adjusted_Penalty>  (54) 
0.00299156

>  <i_epik_Tot_Q>  (54) 
1

>  <i_epik_Tot_abs_Q>  (54) 
1

>  <s_lp_Force_Field>  (54) 
OPLS3e

>  <r_lp_Energy>  (54) 
285.997

>  <b_lp_Chiralities_Consistent>  (54) 
1

>  <s_lp_Variant>  (54) 
24:0-1

>  <s_i_glide_gridfile>  (54) 
pfpi4k_grid

>  <i_i_glide_lignum>  (54) 
26

>  <i_i_glide_rotatable_bonds>  (54) 
0

>  <r_i_docking_score>  (54) 
-3.38506

>  <r_i_glide_ligand_efficiency>  (54) 
-0.199121

>  <r_i_glide_ligand_efficiency_sa>  (54) 
-0.511997

>  <r_i_glide_ligand_efficiency_ln>  (54) 
-0.883088

>  <r_i_glide_gscore>  (54) 
-3.38506

>  <r_i_glide_lipo>  (54) 
-0.391702

>  <r_i_glide_hbond>  (54) 
-0.0460714

>  <r_i_glide_metal>  (54) 
-0

>  <r_i_glide_rewards>  (54) 
-1.85214

>  <r_i_glide_evdw>  (54) 
-15.4904

>  <r_i_glide_ecoul>  (54) 
-1.83319

>  <r_i_glide_erotb>  (54) 
0

>  <r_i_glide_esite>  (54) 
-0.0456484

>  <r_i_glide_emodel>  (54) 
-22.4827

>  <r_i_glide_energy>  (54) 
-17.3236

>  <r_i_glide_einternal>  (54) 
0

>  <r_i_glide_intrahb_reward>  (54) 
-0

>  <i_i_glide_confnum>  (54) 
2

>  <i_i_glide_posenum>  (54) 
32

>  <r_i_glide_eff_state_penalty>  (54) 
0

>  <ligand_id>  (54) 
24

>  <original_smiles>  (54) 
CN1C2C3CCC4C5C6CC7C4C(C6C35)C7C21

>  <smiles>  (54) 
[H]C1([H])C([H])([H])C2([H])C3([H])C4([H])C1([H])C1([H])C5([H])C([H])([H])C4([H])C3([H])C1([H])C5([H])C1([H])C2([H])[N+]1([H])C([H])([H])[H]

$$$$
25:1:0
     RDKit          3D

 83 88  0  0  1  0  0  0  0  0999 V2000
    2.4910  -11.4776    2.8483 C   0  0  0  0  0  0  0  0  0  0  0  0
    2.8062  -10.3779    3.5192 C   0  0  0  0  0  0  0  0  0  0  0  0
    2.0031   -9.5395    4.5112 C   0  0  1  0  0  0  0  0  0  0  0  0
    1.3679  -10.7844    5.3139 C   0  0  0  0  0  0  0  0  0  0  0  0
    2.6641   -8.4251    5.6423 C   0  0  2  0  0  0  0  0  0  0  0  0
    1.2769   -8.0597    5.8082 C   0  0  0  0  0  0  0  0  0  0  0  0
    0.9803   -7.3728    4.3964 C   0  0  1  0  0  0  0  0  0  0  0  0
   -0.1023   -6.5128    5.0950 C   0  0  0  0  0  0  0  0  0  0  0  0
   -1.3081   -6.6271    4.8483 O   0  0  0  0  0  0  0  0  0  0  0  0
    0.4622   -5.5657    6.2386 C   0  0  1  0  0  0  0  0  0  0  0  0
   -0.4736   -5.5427    7.4680 C   0  0  0  0  0  0  0  0  0  0  0  0
    2.0405   -5.7542    6.6663 C   0  0  0  0  0  0  0  0  0  0  0  0
    3.1712   -6.7478    5.8963 C   0  0  2  0  0  0  0  0  0  0  0  0
    4.3413   -5.8488    4.9458 C   0  0  2  0  0  0  0  0  0  0  0  0
    4.3857   -4.3844    5.5150 C   0  0  0  0  0  0  0  0  0  0  0  0
    5.0541   -4.1190    6.4986 O   0  0  0  0  0  0  0  0  0  0  0  0
    3.5233   -3.2647    4.8969 C   0  0  0  0  0  0  0  0  0  0  0  0
    3.1824   -2.2014    5.9803 C   0  0  0  0  0  0  0  0  0  0  0  0
    4.4293   -2.5129    3.8964 C   0  0  0  0  0  0  0  0  0  0  0  0
    2.1848   -3.7556    4.2817 C   0  0  0  0  0  0  0  0  0  0  0  0
    1.7225   -4.9545    3.8098 C   0  0  0  0  0  0  0  0  0  0  0  0
    2.1155   -6.4921    3.4960 C   0  0  2  0  0  0  0  0  0  0  0  0
    2.1354   -6.1119    2.1203 O   0  0  0  0  0  0  0  0  0  0  0  0
    3.4059   -5.3715    1.8997 C   0  0  0  0  0  0  0  0  0  0  0  0
    4.1003   -5.8396    0.5532 C   0  0  0  0  0  0  0  0  0  0  0  0
    3.1324   -3.8885    1.4489 C   0  0  0  0  0  0  0  0  0  0  0  0
    4.3009   -5.8638    3.2080 C   0  0  2  0  0  0  0  0  0  0  0  0
    3.6816   -7.1912    3.1755 C   0  0  2  0  0  0  0  0  0  0  0  0
    3.6352   -8.0456    2.0235 O   0  0  0  0  0  0  0  0  0  0  0  0
    4.9327   -8.0775    3.7223 C   0  0  0  0  0  0  0  0  0  0  0  0
    5.6520   -7.9194    5.0425 C   0  0  0  0  0  0  0  0  0  0  0  0
    5.7148   -6.4608    5.3843 C   0  0  1  0  0  0  0  0  0  0  0  0
    7.0122   -5.8165    4.8100 C   0  0  0  0  0  0  0  0  0  0  0  0
    0.7601   -8.7805    3.8189 C   0  0  1  0  0  0  0  0  0  0  0  0
    0.4860   -8.8697    2.3010 C   0  0  0  0  0  0  0  0  0  0  0  0
   -0.6684   -8.0917    1.9858 O   0  0  0  0  0  0  0  0  0  0  0  0
   -1.8844   -8.6429    2.4674 C   0  0  0  0  0  0  0  0  0  0  0  0
    1.5010  -11.9627    2.9120 H   0  0  0  0  0  0  0  0  0  0  0  0
    3.2127  -11.9177    2.2005 H   0  0  0  0  0  0  0  0  0  0  0  0
    3.7666  -10.1472    3.2270 H   0  0  0  0  0  0  0  0  0  0  0  0
    0.4056  -10.6640    5.8196 H   0  0  0  0  0  0  0  0  0  0  0  0
    2.0884  -11.1017    6.0633 H   0  0  0  0  0  0  0  0  0  0  0  0
    1.1489  -11.6723    4.7199 H   0  0  0  0  0  0  0  0  0  0  0  0
    3.0120   -8.9972    6.5027 H   0  0  0  0  0  0  0  0  0  0  0  0
    0.5010   -8.7545    6.1239 H   0  0  0  0  0  0  0  0  0  0  0  0
    1.0960   -7.7540    6.8341 H   0  0  0  0  0  0  0  0  0  0  0  0
    0.3503   -4.5604    5.8434 H   0  0  0  0  0  0  0  0  0  0  0  0
   -1.4708   -5.1811    7.2096 H   0  0  0  0  0  0  0  0  0  0  0  0
   -0.0913   -4.8806    8.2464 H   0  0  0  0  0  0  0  0  0  0  0  0
   -0.5869   -6.5309    7.9136 H   0  0  0  0  0  0  0  0  0  0  0  0
    2.3911   -4.7536    6.8781 H   0  0  0  0  0  0  0  0  0  0  0  0
    2.0225   -6.1028    7.6995 H   0  0  0  0  0  0  0  0  0  0  0  0
    3.7641   -6.9202    6.7929 H   0  0  0  0  0  0  0  0  0  0  0  0
    2.5501   -2.5817    6.7787 H   0  0  0  0  0  0  0  0  0  0  0  0
    2.6599   -1.3476    5.5468 H   0  0  0  0  0  0  0  0  0  0  0  0
    4.0679   -1.7806    6.4603 H   0  0  0  0  0  0  0  0  0  0  0  0
    4.9939   -3.1729    3.2416 H   0  0  0  0  0  0  0  0  0  0  0  0
    5.1941   -1.9196    4.4006 H   0  0  0  0  0  0  0  0  0  0  0  0
    3.8698   -1.8094    3.2798 H   0  0  0  0  0  0  0  0  0  0  0  0
    1.4758   -2.9489    4.1833 H   0  0  0  0  0  0  0  0  0  0  0  0
    2.3990   -5.4155    4.3049 H   0  0  0  0  0  0  0  0  0  0  0  0
    4.5436   -5.0380   -0.0417 H   0  0  0  0  0  0  0  0  0  0  0  0
    3.3855   -6.3375   -0.1011 H   0  0  0  0  0  0  0  0  0  0  0  0
    4.9384   -6.5222    0.6997 H   0  0  0  0  0  0  0  0  0  0  0  0
    4.0478   -3.3188    1.3064 H   0  0  0  0  0  0  0  0  0  0  0  0
    2.4568   -3.2745    2.0173 H   0  0  0  0  0  0  0  0  0  0  0  0
    2.6291   -3.8878    0.4825 H   0  0  0  0  0  0  0  0  0  0  0  0
    5.3000   -5.8131    2.8362 H   0  0  0  0  0  0  0  0  0  0  0  0
    3.2584   -8.8781    2.2635 H   0  0  0  0  0  0  0  0  0  0  0  0
    5.0412   -9.1169    3.6868 H   0  0  0  0  0  0  0  0  0  0  0  0
    5.7403   -7.8851    3.0136 H   0  0  0  0  0  0  0  0  0  0  0  0
    5.1649   -8.4698    5.8417 H   0  0  0  0  0  0  0  0  0  0  0  0
    6.6597   -8.3367    5.0209 H   0  0  0  0  0  0  0  0  0  0  0  0
    5.8301   -6.4067    6.4772 H   0  0  0  0  0  0  0  0  0  0  0  0
    7.2019   -6.0856    3.7682 H   0  0  0  0  0  0  0  0  0  0  0  0
    7.8788   -6.1658    5.3740 H   0  0  0  0  0  0  0  0  0  0  0  0
    7.0076   -4.7255    4.8845 H   0  0  0  0  0  0  0  0  0  0  0  0
   -0.1699   -9.2024    4.2181 H   0  0  0  0  0  0  0  0  0  0  0  0
    1.3055   -8.5160    1.6845 H   0  0  0  0  0  0  0  0  0  0  0  0
    0.3256   -9.9112    2.0257 H   0  0  0  0  0  0  0  0  0  0  0  0
   -2.6986   -7.9874    2.1681 H   0  0  0  0  0  0  0  0  0  0  0  0
   -1.9024   -8.7119    3.5540 H   0  0  0  0  0  0  0  0  0  0  0  0
   -2.0634   -9.6375    2.0588 H   0  0  0  0  0  0  0  0  0  0  0  0
  1  2  2  0
  1 38  1  0
  1 39  1  0
  2  3  1  0
  2 40  1  0
  3 34  1  0
  3  4  1  1
  3  5  1  0
  4 41  1  0
  4 42  1  0
  4 43  1  0
  5 13  1  0
  5  6  1  0
  5 44  1  1
  6  7  1  0
  6 45  1  0
  6 46  1  0
  7 22  1  0
  7  8  1  1
  7 34  1  0
  8  9  2  0
  8 10  1  0
 10 11  1  0
 10 12  1  0
 10 47  1  6
 11 48  1  0
 11 49  1  0
 11 50  1  0
 12 13  1  0
 12 51  1  0
 12 52  1  0
 13 14  1  0
 13 53  1  1
 14 27  1  0
 14 32  1  0
 14 15  1  1
 15 16  2  0
 15 17  1  0
 17 18  1  0
 17 19  1  0
 17 20  1  0
 18 54  1  0
 18 55  1  0
 18 56  1  0
 19 57  1  0
 19 58  1  0
 19 59  1  0
 20 21  2  3
 20 60  1  0
 21 22  1  0
 21 61  1  0
 22 28  1  0
 22 23  1  6
 23 24  1  0
 24 25  1  0
 24 26  1  0
 24 27  1  0
 25 62  1  0
 25 63  1  0
 25 64  1  0
 26 65  1  0
 26 66  1  0
 26 67  1  0
 27 28  1  0
 27 68  1  6
 28 29  1  6
 28 30  1  0
 29 69  1  0
 30 31  1  0
 30 70  1  0
 30 71  1  0
 31 32  1  0
 31 72  1  0
 31 73  1  0
 32 33  1  0
 32 74  1  1
 33 75  1  0
 33 76  1  0
 33 77  1  0
 34 35  1  0
 34 78  1  1
 35 36  1  0
 35 79  1  0
 35 80  1  0
 36 37  1  0
 37 81  1  0
 37 82  1  0
 37 83  1  0
M  END
>  <i_m_ct_stereo_status>  (55) 
1

>  <s_m_source_file>  (55) 
/var/tmp/pbs.5076255.sched01/tmp_578sd5a/06fbc0iir.sdf

>  <i_m_source_file_index>  (55) 
28

>  <i_lp_mmshare_version>  (55) 
48012

>  <i_f3d_flags>  (55) 
3

>  <s_epik_input>  (55) 
W0NIM11PW0NIMl1bQ0BIXTFbQ0BAXShbQ0gzXSkoW0NIXT1bQ0gyXSlbQ0BIXShbQ0gyXTIpW0NAQEhdKFtDSDJdW0NAQEhdKEMzPU8pW0NIM10pW0NAXShbQ0BIXShDKE80KShbQ0gzXSlbQ0gzXSlbQ0BAXTUoW0NAXTQ2W0NAXTEyMylbT0hdKShbQ0BIXShbQ0gzXSlbQ0gyXVtDSDJdNSlDKD1PKUMoW0NIM10pKFtDSDNdKS9bQ0hdPVtDSF1cNg==

>  <s_epik_cmdline>  (55) 
J2VwaWtfcHl0aG9uJywgJy1waHQnLCAnMi4wJywgJy1waCcsICc3LjAnLCAnLXRuJywgJzgnLCAnLW1hJywgJzIwMCcsICctaW1hZScsICc8aW5maWxlLm1hZT4nLCAnLW9tYWUnLCAnPG91dGZpbGUubWFlPic=

>  <r_lp_tautomer_probability>  (55) 
1

>  <r_epik_Ionization_Penalty>  (55) 
3.29954e-08

>  <r_epik_Ionization_Penalty_Charging>  (55) 
0

>  <r_epik_Ionization_Penalty_Neutral>  (55) 
3.29954e-08

>  <r_epik_State_Penalty>  (55) 
-0

>  <r_epik_Charging_Adjusted_Penalty>  (55) 
0

>  <i_epik_Tot_Q>  (55) 
0

>  <i_epik_Tot_abs_Q>  (55) 
0

>  <s_lp_Force_Field>  (55) 
OPLS3e

>  <r_lp_Energy>  (55) 
526.347

>  <b_lp_Chiralities_Consistent>  (55) 
0

>  <s_lp_Variant>  (55) 
25:0-2

>  <s_i_glide_gridfile>  (55) 
pfpi4k_grid

>  <i_i_glide_lignum>  (55) 
28

>  <i_i_glide_rotatable_bonds>  (55) 
4

>  <r_i_docking_score>  (55) 
-1.13157

>  <r_i_glide_ligand_efficiency>  (55) 
-0.0305829

>  <r_i_glide_ligand_efficiency_sa>  (55) 
-0.101909

>  <r_i_glide_ligand_efficiency_ln>  (55) 
-0.245411

>  <r_i_glide_gscore>  (55) 
-1.13157

>  <r_i_glide_lipo>  (55) 
-0.384893

>  <r_i_glide_hbond>  (55) 
0

>  <r_i_glide_metal>  (55) 
-0

>  <r_i_glide_rewards>  (55) 
0

>  <r_i_glide_evdw>  (55) 
-21.8183

>  <r_i_glide_ecoul>  (55) 
-2.91687

>  <r_i_glide_erotb>  (55) 
0.157107

>  <r_i_glide_esite>  (55) 
-0.0192711

>  <r_i_glide_emodel>  (55) 
-18.4819

>  <r_i_glide_energy>  (55) 
-24.7352

>  <r_i_glide_einternal>  (55) 
5.65582

>  <r_i_glide_intrahb_reward>  (55) 
-0

>  <i_i_glide_confnum>  (55) 
3

>  <i_i_glide_posenum>  (55) 
9

>  <r_i_glide_eff_state_penalty>  (55) 
0

>  <ligand_id>  (55) 
25

>  <original_smiles>  (55) 
C=CC1(C)C2CC3(C(=O)C(C)CC2C24C(=O)C(C)(C)C=CC35OC(C)(C)C2C5(O)CCC4C)C1COC

>  <smiles>  (55) 
[H]OC12C([H])([H])C([H])([H])C([H])(C([H])([H])[H])C34C(=O)C(C([H])([H])[H])(C([H])([H])[H])C([H])=C([H])C1(OC(C([H])([H])[H])(C([H])([H])[H])C23[H])C12C(=O)C([H])(C([H])([H])[H])C([H])([H])C4([H])C([H])(C1([H])[H])C(C([H])=C([H])[H])(C([H])([H])[H])C2([H])C([H])([H])OC([H])([H])[H]

$$$$
25:1:1
     RDKit          3D

 83 88  0  0  1  0  0  0  0  0999 V2000
    1.2853   -1.0533    2.7312 C   0  0  0  0  0  0  0  0  0  0  0  0
    1.9276   -0.3397    3.6768 C   0  0  0  0  0  0  0  0  0  0  0  0
    2.0873   -0.6857    5.1761 C   0  0  1  0  0  0  0  0  0  0  0  0
    3.1705   -1.8392    4.9086 C   0  0  0  0  0  0  0  0  0  0  0  0
    2.6999    0.4231    6.3391 C   0  0  2  0  0  0  0  0  0  0  0  0
    2.3003   -0.6250    7.2513 C   0  0  0  0  0  0  0  0  0  0  0  0
    0.7105   -0.5346    7.1341 C   0  0  1  0  0  0  0  0  0  0  0  0
    0.6141   -1.0545    8.5931 C   0  0  0  0  0  0  0  0  0  0  0  0
    0.0829   -2.1382    8.8893 O   0  0  0  0  0  0  0  0  0  0  0  0
    1.2915   -0.1102    9.6711 C   0  0  1  0  0  0  0  0  0  0  0  0
    2.0672   -0.9324   10.7221 C   0  0  0  0  0  0  0  0  0  0  0  0
    2.1569    1.1733    9.1096 C   0  0  0  0  0  0  0  0  0  0  0  0
    2.2675    1.6807    7.5055 C   0  0  2  0  0  0  0  0  0  0  0  0
    1.3563    3.1384    7.1832 C   0  0  2  0  0  0  0  0  0  0  0  0
    1.1647    3.8873    8.5505 C   0  0  0  0  0  0  0  0  0  0  0  0
    2.0512    4.5919    9.0032 O   0  0  0  0  0  0  0  0  0  0  0  0
   -0.1083    3.6794    9.3994 C   0  0  0  0  0  0  0  0  0  0  0  0
    0.2211    3.8906   10.9058 C   0  0  0  0  0  0  0  0  0  0  0  0
   -1.0612    4.8450    9.0502 C   0  0  0  0  0  0  0  0  0  0  0  0
   -0.7558    2.2828    9.2634 C   0  0  0  0  0  0  0  0  0  0  0  0
   -0.7181    1.2894    8.3030 C   0  0  0  0  0  0  0  0  0  0  0  0
   -0.1502    0.9001    6.8603 C   0  0  2  0  0  0  0  0  0  0  0  0
   -1.4852    1.1064    6.3882 O   0  0  0  0  0  0  0  0  0  0  0  0
   -1.6814    2.5767    6.2907 C   0  0  0  0  0  0  0  0  0  0  0  0
   -2.4047    2.9583    4.9290 C   0  0  0  0  0  0  0  0  0  0  0  0
   -2.8307    3.0613    7.2496 C   0  0  0  0  0  0  0  0  0  0  0  0
   -0.1182    3.1179    6.2611 C   0  0  2  0  0  0  0  0  0  0  0  0
    0.3071    1.9155    5.5214 C   0  0  2  0  0  0  0  0  0  0  0  0
   -0.2748    1.4609    4.2941 O   0  0  0  0  0  0  0  0  0  0  0  0
    1.5087    2.5418    4.6162 C   0  0  0  0  0  0  0  0  0  0  0  0
    2.7477    3.2686    5.1530 C   0  0  0  0  0  0  0  0  0  0  0  0
    2.3741    4.0379    6.3970 C   0  0  1  0  0  0  0  0  0  0  0  0
    1.9311    5.4945    6.0411 C   0  0  0  0  0  0  0  0  0  0  0  0
    0.8056   -1.4086    5.8667 C   0  0  1  0  0  0  0  0  0  0  0  0
   -0.5261   -1.6768    5.1199 C   0  0  0  0  0  0  0  0  0  0  0  0
   -1.4677   -2.2512    6.0250 O   0  0  0  0  0  0  0  0  0  0  0  0
   -1.0712   -3.5309    6.5063 C   0  0  0  0  0  0  0  0  0  0  0  0
    0.8390   -2.0342    2.9157 H   0  0  0  0  0  0  0  0  0  0  0  0
    1.2039   -0.6624    1.7333 H   0  0  0  0  0  0  0  0  0  0  0  0
    2.4166    0.5131    3.3194 H   0  0  0  0  0  0  0  0  0  0  0  0
    3.2616   -2.6442    5.6350 H   0  0  0  0  0  0  0  0  0  0  0  0
    4.1707   -1.4200    4.7873 H   0  0  0  0  0  0  0  0  0  0  0  0
    2.9752   -2.4288    4.0080 H   0  0  0  0  0  0  0  0  0  0  0  0
    3.7854    0.4400    6.2288 H   0  0  0  0  0  0  0  0  0  0  0  0
    2.6861   -1.6386    7.2036 H   0  0  0  0  0  0  0  0  0  0  0  0
    2.9733   -0.6363    8.1049 H   0  0  0  0  0  0  0  0  0  0  0  0
    0.4603    0.2865   10.2461 H   0  0  0  0  0  0  0  0  0  0  0  0
    1.4079   -1.6212   11.2514 H   0  0  0  0  0  0  0  0  0  0  0  0
    2.5184   -0.2864   11.4761 H   0  0  0  0  0  0  0  0  0  0  0  0
    2.8631   -1.5305   10.2759 H   0  0  0  0  0  0  0  0  0  0  0  0
    1.9620    1.9635    9.8208 H   0  0  0  0  0  0  0  0  0  0  0  0
    3.1891    0.9750    9.4100 H   0  0  0  0  0  0  0  0  0  0  0  0
    3.2626    2.1064    7.6106 H   0  0  0  0  0  0  0  0  0  0  0  0
    0.9034    3.1464   11.3093 H   0  0  0  0  0  0  0  0  0  0  0  0
   -0.6823    3.8502   11.5160 H   0  0  0  0  0  0  0  0  0  0  0  0
    0.6642    4.8633   11.1110 H   0  0  0  0  0  0  0  0  0  0  0  0
   -1.1557    5.0221    7.9825 H   0  0  0  0  0  0  0  0  0  0  0  0
   -0.7072    5.7930    9.4498 H   0  0  0  0  0  0  0  0  0  0  0  0
   -2.0573    4.7011    9.4689 H   0  0  0  0  0  0  0  0  0  0  0  0
   -1.4092    2.0497   10.0855 H   0  0  0  0  0  0  0  0  0  0  0  0
    0.0709    1.6708    7.9044 H   0  0  0  0  0  0  0  0  0  0  0  0
   -3.1740    3.7233    5.0364 H   0  0  0  0  0  0  0  0  0  0  0  0
   -2.9213    2.1109    4.4797 H   0  0  0  0  0  0  0  0  0  0  0  0
   -1.7469    3.3753    4.1657 H   0  0  0  0  0  0  0  0  0  0  0  0
   -2.9713    4.1400    7.2225 H   0  0  0  0  0  0  0  0  0  0  0  0
   -2.8198    2.7662    8.2829 H   0  0  0  0  0  0  0  0  0  0  0  0
   -3.7824    2.6280    6.9332 H   0  0  0  0  0  0  0  0  0  0  0  0
   -0.1888    4.0064    5.6921 H   0  0  0  0  0  0  0  0  0  0  0  0
   -0.1424    2.1254    3.6261 H   0  0  0  0  0  0  0  0  0  0  0  0
    1.8384    2.0888    3.7646 H   0  0  0  0  0  0  0  0  0  0  0  0
    1.0502    3.3836    4.0836 H   0  0  0  0  0  0  0  0  0  0  0  0
    3.5509    2.5749    5.3790 H   0  0  0  0  0  0  0  0  0  0  0  0
    3.1847    3.9432    4.4276 H   0  0  0  0  0  0  0  0  0  0  0  0
    3.3021    4.1609    6.9774 H   0  0  0  0  0  0  0  0  0  0  0  0
    1.2359    5.5333    5.2026 H   0  0  0  0  0  0  0  0  0  0  0  0
    2.8013    6.0786    5.7419 H   0  0  0  0  0  0  0  0  0  0  0  0
    1.4662    6.0229    6.8808 H   0  0  0  0  0  0  0  0  0  0  0  0
    1.0802   -2.4290    6.1488 H   0  0  0  0  0  0  0  0  0  0  0  0
   -0.9588   -0.7864    4.6724 H   0  0  0  0  0  0  0  0  0  0  0  0
   -0.3630   -2.3808    4.3036 H   0  0  0  0  0  0  0  0  0  0  0  0
   -1.8577   -3.9140    7.1568 H   0  0  0  0  0  0  0  0  0  0  0  0
   -0.1437   -3.4629    7.0707 H   0  0  0  0  0  0  0  0  0  0  0  0
   -0.9134   -4.2472    5.6987 H   0  0  0  0  0  0  0  0  0  0  0  0
  1  2  2  0
  1 38  1  0
  1 39  1  0
  2  3  1  0
  2 40  1  0
  3 34  1  0
  3  4  1  6
  3  5  1  0
  4 41  1  0
  4 42  1  0
  4 43  1  0
  5 13  1  0
  5  6  1  0
  5 44  1  6
  6  7  1  0
  6 45  1  0
  6 46  1  0
  7 22  1  0
  7  8  1  1
  7 34  1  0
  8  9  2  0
  8 10  1  0
 10 11  1  0
 10 12  1  0
 10 47  1  1
 11 48  1  0
 11 49  1  0
 11 50  1  0
 12 13  1  0
 12 51  1  0
 12 52  1  0
 13 14  1  0
 13 53  1  1
 14 27  1  0
 14 32  1  0
 14 15  1  1
 15 16  2  0
 15 17  1  0
 17 18  1  0
 17 19  1  0
 17 20  1  0
 18 54  1  0
 18 55  1  0
 18 56  1  0
 19 57  1  0
 19 58  1  0
 19 59  1  0
 20 21  2  3
 20 60  1  0
 21 22  1  0
 21 61  1  0
 22 28  1  0
 22 23  1  6
 23 24  1  0
 24 25  1  0
 24 26  1  0
 24 27  1  0
 25 62  1  0
 25 63  1  0
 25 64  1  0
 26 65  1  0
 26 66  1  0
 26 67  1  0
 27 28  1  0
 27 68  1  6
 28 29  1  6
 28 30  1  0
 29 69  1  0
 30 31  1  0
 30 70  1  0
 30 71  1  0
 31 32  1  0
 31 72  1  0
 31 73  1  0
 32 33  1  0
 32 74  1  1
 33 75  1  0
 33 76  1  0
 33 77  1  0
 34 35  1  0
 34 78  1  1
 35 36  1  0
 35 79  1  0
 35 80  1  0
 36 37  1  0
 37 81  1  0
 37 82  1  0
 37 83  1  0
M  END
>  <i_m_ct_stereo_status>  (56) 
1

>  <s_m_source_file>  (56) 
/var/tmp/pbs.5076255.sched01/tmp_578sd5a/06fbc0iir.sdf

>  <i_m_source_file_index>  (56) 
28

>  <i_lp_mmshare_version>  (56) 
48012

>  <i_f3d_flags>  (56) 
3

>  <s_epik_input>  (56) 
W0NIM11PW0NIMl1bQ0BIXTFbQ0BAXShbQ0gzXSkoW0NIXT1bQ0gyXSlbQ0BIXShbQ0gyXTIpW0NAQEhdKFtDSDJdW0NAQEhdKEMzPU8pW0NIM10pW0NAXShbQ0BIXShDKE80KShbQ0gzXSlbQ0gzXSlbQ0BAXTUoW0NAXTQ2W0NAXTEyMylbT0hdKShbQ0BIXShbQ0gzXSlbQ0gyXVtDSDJdNSlDKD1PKUMoW0NIM10pKFtDSDNdKS9bQ0hdPVtDSF1cNg==

>  <s_epik_cmdline>  (56) 
J2VwaWtfcHl0aG9uJywgJy1waHQnLCAnMi4wJywgJy1waCcsICc3LjAnLCAnLXRuJywgJzgnLCAnLW1hJywgJzIwMCcsICctaW1hZScsICc8aW5maWxlLm1hZT4nLCAnLW9tYWUnLCAnPG91dGZpbGUubWFlPic=

>  <r_lp_tautomer_probability>  (56) 
1

>  <r_epik_Ionization_Penalty>  (56) 
3.29954e-08

>  <r_epik_Ionization_Penalty_Charging>  (56) 
0

>  <r_epik_Ionization_Penalty_Neutral>  (56) 
3.29954e-08

>  <r_epik_State_Penalty>  (56) 
-0

>  <r_epik_Charging_Adjusted_Penalty>  (56) 
0

>  <i_epik_Tot_Q>  (56) 
0

>  <i_epik_Tot_abs_Q>  (56) 
0

>  <s_lp_Force_Field>  (56) 
OPLS3e

>  <r_lp_Energy>  (56) 
526.347

>  <b_lp_Chiralities_Consistent>  (56) 
0

>  <s_lp_Variant>  (56) 
25:0-2

>  <s_i_glide_gridfile>  (56) 
pfpi4k_grid

>  <i_i_glide_lignum>  (56) 
28

>  <i_i_glide_rotatable_bonds>  (56) 
4

>  <r_i_docking_score>  (56) 
-0.862324

>  <r_i_glide_ligand_efficiency>  (56) 
-0.0233061

>  <r_i_glide_ligand_efficiency_sa>  (56) 
-0.0776609

>  <r_i_glide_ligand_efficiency_ln>  (56) 
-0.187018

>  <r_i_glide_gscore>  (56) 
-0.862324

>  <r_i_glide_lipo>  (56) 
-0.216948

>  <r_i_glide_hbond>  (56) 
-0.16

>  <r_i_glide_metal>  (56) 
-0

>  <r_i_glide_rewards>  (56) 
0

>  <r_i_glide_evdw>  (56) 
-17.2109

>  <r_i_glide_ecoul>  (56) 
-5.3635

>  <r_i_glide_erotb>  (56) 
0.157107

>  <r_i_glide_esite>  (56) 
-0.0399745

>  <r_i_glide_emodel>  (56) 
-15.139

>  <r_i_glide_energy>  (56) 
-22.5744

>  <r_i_glide_einternal>  (56) 
5.20121

>  <r_i_glide_intrahb_reward>  (56) 
-0

>  <i_i_glide_confnum>  (56) 
3

>  <i_i_glide_posenum>  (56) 
33

>  <r_i_glide_eff_state_penalty>  (56) 
0

>  <ligand_id>  (56) 
25

>  <original_smiles>  (56) 
C=CC1(C)C2CC3(C(=O)C(C)CC2C24C(=O)C(C)(C)C=CC35OC(C)(C)C2C5(O)CCC4C)C1COC

>  <smiles>  (56) 
[H]OC12C([H])([H])C([H])([H])C([H])(C([H])([H])[H])C34C(=O)C(C([H])([H])[H])(C([H])([H])[H])C([H])=C([H])C1(OC(C([H])([H])[H])(C([H])([H])[H])C23[H])C12C(=O)C([H])(C([H])([H])[H])C([H])([H])C4([H])C([H])(C1([H])[H])C(C([H])=C([H])[H])(C([H])([H])[H])C2([H])C([H])([H])OC([H])([H])[H]

$$$$
25:1:2
     RDKit          3D

 83 88  0  0  1  0  0  0  0  0999 V2000
    2.7591   -0.8880    1.4232 C   0  0  0  0  0  0  0  0  0  0  0  0
    2.7725    0.0506    2.3861 C   0  0  0  0  0  0  0  0  0  0  0  0
    3.0461   -0.1341    3.9016 C   0  0  1  0  0  0  0  0  0  0  0  0
    4.2920   -1.1602    3.7449 C   0  0  0  0  0  0  0  0  0  0  0  0
    3.4973    1.1470    4.9584 C   0  0  2  0  0  0  0  0  0  0  0  0
    3.2250    0.1451    5.9681 C   0  0  0  0  0  0  0  0  0  0  0  0
    1.6300    0.0193    5.8351 C   0  0  1  0  0  0  0  0  0  0  0  0
    1.5926   -0.4034    7.3279 C   0  0  0  0  0  0  0  0  0  0  0  0
    1.2409   -1.5251    7.7043 O   0  0  0  0  0  0  0  0  0  0  0  0
    2.1306    0.7118    8.3213 C   0  0  1  0  0  0  0  0  0  0  0  0
    2.9974    0.0942    9.4452 C   0  0  0  0  0  0  0  0  0  0  0  0
    2.8277    2.0470    7.6654 C   0  0  0  0  0  0  0  0  0  0  0  0
    2.8866    2.4310    6.0186 C   0  0  2  0  0  0  0  0  0  0  0  0
    1.8026    3.7412    5.5812 C   0  0  2  0  0  0  0  0  0  0  0  0
    1.4987    4.5592    6.8694 C   0  0  0  0  0  0  0  0  0  0  0  0
    2.2977    5.4220    7.2670 O   0  0  0  0  0  0  0  0  0  0  0  0
    0.2668    4.2666    7.7357 C   0  0  0  0  0  0  0  0  0  0  0  0
    0.5437    4.6501    9.2234 C   0  0  0  0  0  0  0  0  0  0  0  0
   -0.8317    5.2670    7.2945 C   0  0  0  0  0  0  0  0  0  0  0  0
   -0.1878    2.7853    7.7115 C   0  0  0  0  0  0  0  0  0  0  0  0
   -0.0168    1.7361    6.8380 C   0  0  0  0  0  0  0  0  0  0  0  0
    0.5934    1.2932    5.4235 C   0  0  2  0  0  0  0  0  0  0  0  0
   -0.7532    1.2856    4.9390 O   0  0  0  0  0  0  0  0  0  0  0  0
   -1.1329    2.7053    4.7274 C   0  0  0  0  0  0  0  0  0  0  0  0
   -1.8978    2.8832    3.3480 C   0  0  0  0  0  0  0  0  0  0  0  0
   -2.3342    3.1118    5.6564 C   0  0  0  0  0  0  0  0  0  0  0  0
    0.3527    3.4514    4.6436 C   0  0  2  0  0  0  0  0  0  0  0  0
    0.9397    2.2578    4.0151 C   0  0  2  0  0  0  0  0  0  0  0  0
    0.4301    1.6379    2.8218 O   0  0  0  0  0  0  0  0  0  0  0  0
    2.0649    2.9856    3.0760 C   0  0  0  0  0  0  0  0  0  0  0  0
    3.1762    3.8819    3.5596 C   0  0  0  0  0  0  0  0  0  0  0  0
    2.6974    4.6969    4.7229 C   0  0  1  0  0  0  0  0  0  0  0  0
    2.0736    6.0382    4.2408 C   0  0  0  0  0  0  0  0  0  0  0  0
    1.8636   -0.9335    4.6460 C   0  0  1  0  0  0  0  0  0  0  0  0
    0.6026   -1.4382    3.8986 C   0  0  0  0  0  0  0  0  0  0  0  0
   -0.2561   -2.1180    4.8053 O   0  0  0  0  0  0  0  0  0  0  0  0
    0.2353   -3.3826    5.2322 C   0  0  0  0  0  0  0  0  0  0  0  0
    2.9285   -1.9560    1.6031 H   0  0  0  0  0  0  0  0  0  0  0  0
    2.5681   -0.5571    0.4131 H   0  0  0  0  0  0  0  0  0  0  0  0
    2.5611    0.9111    1.9701 H   0  0  0  0  0  0  0  0  0  0  0  0
    4.4768   -1.8755    4.5724 H   0  0  0  0  0  0  0  0  0  0  0  0
    5.2328   -0.6053    3.6006 H   0  0  0  0  0  0  0  0  0  0  0  0
    4.1982   -1.8601    2.9143 H   0  0  0  0  0  0  0  0  0  0  0  0
    4.5680    1.3039    4.8506 H   0  0  0  0  0  0  0  0  0  0  0  0
    3.7400   -0.8138    6.0187 H   0  0  0  0  0  0  0  0  0  0  0  0
    3.8894    0.2952    6.8165 H   0  0  0  0  0  0  0  0  0  0  0  0
    1.2493    1.0412    8.8699 H   0  0  0  0  0  0  0  0  0  0  0  0
    2.4318   -0.6254   10.0408 H   0  0  0  0  0  0  0  0  0  0  0  0
    3.3544    0.8589   10.1364 H   0  0  0  0  0  0  0  0  0  0  0  0
    3.8710   -0.4269    9.0537 H   0  0  0  0  0  0  0  0  0  0  0  0
    2.5252    2.8614    8.3067 H   0  0  0  0  0  0  0  0  0  0  0  0
    3.8681    2.0189    7.9850 H   0  0  0  0  0  0  0  0  0  0  0  0
    3.8140    2.9889    6.0960 H   0  0  0  0  0  0  0  0  0  0  0  0
    1.3127    4.0380    9.6880 H   0  0  0  0  0  0  0  0  0  0  0  0
   -0.3499    4.5444    9.8390 H   0  0  0  0  0  0  0  0  0  0  0  0
    0.8594    5.6926    9.3538 H   0  0  0  0  0  0  0  0  0  0  0  0
   -0.9388    5.3365    6.2121 H   0  0  0  0  0  0  0  0  0  0  0  0
   -0.6122    6.2952    7.6089 H   0  0  0  0  0  0  0  0  0  0  0  0
   -1.8024    5.0278    7.7264 H   0  0  0  0  0  0  0  0  0  0  0  0
   -0.7920    2.5591    8.5660 H   0  0  0  0  0  0  0  0  0  0  0  0
    0.7136    2.1479    6.3896 H   0  0  0  0  0  0  0  0  0  0  0  0
   -2.7538    3.5607    3.3755 H   0  0  0  0  0  0  0  0  0  0  0  0
   -2.2793    1.9260    2.9926 H   0  0  0  0  0  0  0  0  0  0  0  0
   -1.2873    3.3060    2.5488 H   0  0  0  0  0  0  0  0  0  0  0  0
   -2.6197    4.1451    5.5348 H   0  0  0  0  0  0  0  0  0  0  0  0
   -2.2889    2.9124    6.7134 H   0  0  0  0  0  0  0  0  0  0  0  0
   -3.2139    2.5403    5.3838 H   0  0  0  0  0  0  0  0  0  0  0  0
    0.1757    4.2776    4.0094 H   0  0  0  0  0  0  0  0  0  0  0  0
    0.3239    2.3055    2.1514 H   0  0  0  0  0  0  0  0  0  0  0  0
    2.6014    2.5695    2.2970 H   0  0  0  0  0  0  0  0  0  0  0  0
    1.4972    3.6773    2.4519 H   0  0  0  0  0  0  0  0  0  0  0  0
    4.0575    3.3093    3.8377 H   0  0  0  0  0  0  0  0  0  0  0  0
    3.5426    4.5462    2.7618 H   0  0  0  0  0  0  0  0  0  0  0  0
    3.6043    4.9720    5.2848 H   0  0  0  0  0  0  0  0  0  0  0  0
    1.3909    5.9138    3.3979 H   0  0  0  0  0  0  0  0  0  0  0  0
    2.8677    6.6985    3.8865 H   0  0  0  0  0  0  0  0  0  0  0  0
    1.5392    6.5702    5.0285 H   0  0  0  0  0  0  0  0  0  0  0  0
    2.2792   -1.8861    5.0223 H   0  0  0  0  0  0  0  0  0  0  0  0
    0.0369   -0.6427    3.4303 H   0  0  0  0  0  0  0  0  0  0  0  0
    0.8928   -2.1128    3.0946 H   0  0  0  0  0  0  0  0  0  0  0  0
   -0.4696   -3.8269    5.9353 H   0  0  0  0  0  0  0  0  0  0  0  0
    1.1928   -3.3044    5.7465 H   0  0  0  0  0  0  0  0  0  0  0  0
    0.3538   -4.0594    4.3840 H   0  0  0  0  0  0  0  0  0  0  0  0
  1  2  2  0
  1 38  1  0
  1 39  1  0
  2  3  1  0
  2 40  1  0
  3 34  1  0
  3  4  1  6
  3  5  1  0
  4 41  1  0
  4 42  1  0
  4 43  1  0
  5 13  1  0
  5  6  1  0
  5 44  1  6
  6  7  1  0
  6 45  1  0
  6 46  1  0
  7 22  1  0
  7  8  1  1
  7 34  1  0
  8  9  2  0
  8 10  1  0
 10 11  1  0
 10 12  1  0
 10 47  1  1
 11 48  1  0
 11 49  1  0
 11 50  1  0
 12 13  1  0
 12 51  1  0
 12 52  1  0
 13 14  1  0
 13 53  1  1
 14 27  1  0
 14 32  1  0
 14 15  1  1
 15 16  2  0
 15 17  1  0
 17 18  1  0
 17 19  1  0
 17 20  1  0
 18 54  1  0
 18 55  1  0
 18 56  1  0
 19 57  1  0
 19 58  1  0
 19 59  1  0
 20 21  2  3
 20 60  1  0
 21 22  1  0
 21 61  1  0
 22 28  1  0
 22 23  1  6
 23 24  1  0
 24 25  1  0
 24 26  1  0
 24 27  1  0
 25 62  1  0
 25 63  1  0
 25 64  1  0
 26 65  1  0
 26 66  1  0
 26 67  1  0
 27 28  1  0
 27 68  1  6
 28 29  1  6
 28 30  1  0
 29 69  1  0
 30 31  1  0
 30 70  1  0
 30 71  1  0
 31 32  1  0
 31 72  1  0
 31 73  1  0
 32 33  1  0
 32 74  1  1
 33 75  1  0
 33 76  1  0
 33 77  1  0
 34 35  1  0
 34 78  1  1
 35 36  1  0
 35 79  1  0
 35 80  1  0
 36 37  1  0
 37 81  1  0
 37 82  1  0
 37 83  1  0
M  END
>  <i_m_ct_stereo_status>  (57) 
1

>  <s_m_source_file>  (57) 
/var/tmp/pbs.5076255.sched01/tmp_578sd5a/06fbc0iir.sdf

>  <i_m_source_file_index>  (57) 
28

>  <i_lp_mmshare_version>  (57) 
48012

>  <i_f3d_flags>  (57) 
3

>  <s_epik_input>  (57) 
W0NIM11PW0NIMl1bQ0BIXTFbQ0BAXShbQ0gzXSkoW0NIXT1bQ0gyXSlbQ0BIXShbQ0gyXTIpW0NAQEhdKFtDSDJdW0NAQEhdKEMzPU8pW0NIM10pW0NAXShbQ0BIXShDKE80KShbQ0gzXSlbQ0gzXSlbQ0BAXTUoW0NAXTQ2W0NAXTEyMylbT0hdKShbQ0BIXShbQ0gzXSlbQ0gyXVtDSDJdNSlDKD1PKUMoW0NIM10pKFtDSDNdKS9bQ0hdPVtDSF1cNg==

>  <s_epik_cmdline>  (57) 
J2VwaWtfcHl0aG9uJywgJy1waHQnLCAnMi4wJywgJy1waCcsICc3LjAnLCAnLXRuJywgJzgnLCAnLW1hJywgJzIwMCcsICctaW1hZScsICc8aW5maWxlLm1hZT4nLCAnLW9tYWUnLCAnPG91dGZpbGUubWFlPic=

>  <r_lp_tautomer_probability>  (57) 
1

>  <r_epik_Ionization_Penalty>  (57) 
3.29954e-08

>  <r_epik_Ionization_Penalty_Charging>  (57) 
0

>  <r_epik_Ionization_Penalty_Neutral>  (57) 
3.29954e-08

>  <r_epik_State_Penalty>  (57) 
-0

>  <r_epik_Charging_Adjusted_Penalty>  (57) 
0

>  <i_epik_Tot_Q>  (57) 
0

>  <i_epik_Tot_abs_Q>  (57) 
0

>  <s_lp_Force_Field>  (57) 
OPLS3e

>  <r_lp_Energy>  (57) 
526.347

>  <b_lp_Chiralities_Consistent>  (57) 
0

>  <s_lp_Variant>  (57) 
25:0-2

>  <s_i_glide_gridfile>  (57) 
pfpi4k_grid

>  <i_i_glide_lignum>  (57) 
28

>  <i_i_glide_rotatable_bonds>  (57) 
4

>  <r_i_docking_score>  (57) 
-0.401328

>  <r_i_glide_ligand_efficiency>  (57) 
-0.0108467

>  <r_i_glide_ligand_efficiency_sa>  (57) 
-0.0361436

>  <r_i_glide_ligand_efficiency_ln>  (57) 
-0.0870387

>  <r_i_glide_gscore>  (57) 
-0.401328

>  <r_i_glide_lipo>  (57) 
-0.035912

>  <r_i_glide_hbond>  (57) 
0

>  <r_i_glide_metal>  (57) 
-0

>  <r_i_glide_rewards>  (57) 
0

>  <r_i_glide_evdw>  (57) 
-19.7389

>  <r_i_glide_ecoul>  (57) 
-1.95148

>  <r_i_glide_erotb>  (57) 
0.157107

>  <r_i_glide_esite>  (57) 
-0.00194793

>  <r_i_glide_emodel>  (57) 
-13.8773

>  <r_i_glide_energy>  (57) 
-21.6904

>  <r_i_glide_einternal>  (57) 
5.67157

>  <r_i_glide_intrahb_reward>  (57) 
-0

>  <i_i_glide_confnum>  (57) 
3

>  <i_i_glide_posenum>  (57) 
1

>  <r_i_glide_eff_state_penalty>  (57) 
0

>  <ligand_id>  (57) 
25

>  <original_smiles>  (57) 
C=CC1(C)C2CC3(C(=O)C(C)CC2C24C(=O)C(C)(C)C=CC35OC(C)(C)C2C5(O)CCC4C)C1COC

>  <smiles>  (57) 
[H]OC12C([H])([H])C([H])([H])C([H])(C([H])([H])[H])C34C(=O)C(C([H])([H])[H])(C([H])([H])[H])C([H])=C([H])C1(OC(C([H])([H])[H])(C([H])([H])[H])C23[H])C12C(=O)C([H])(C([H])([H])[H])C([H])([H])C4([H])C([H])(C1([H])[H])C(C([H])=C([H])[H])(C([H])([H])[H])C2([H])C([H])([H])OC([H])([H])[H]

$$$$
26:0:0
     RDKit          3D

 38 41  0  0  1  0  0  0  0  0999 V2000
    7.4326   -1.7513    0.4914 C   0  0  0  0  0  0  0  0  0  0  0  0
    5.9386   -1.4525    0.6929 C   0  0  2  0  0  0  0  0  0  0  0  0
    5.6701   -0.8375    2.0721 C   0  0  0  0  0  0  0  0  0  0  0  0
    4.1784   -0.6171    2.2901 C   0  0  0  0  0  0  0  0  0  0  0  0
    3.4851   -1.9714    2.3947 C   0  0  1  0  0  0  0  0  0  0  0  0
    2.0207   -1.8238    2.8413 C   0  0  0  0  0  0  0  0  0  0  0  0
    3.6710   -2.8082    1.1055 C   0  0  1  0  0  0  0  0  0  0  0  0
    3.4154   -4.1650    1.4697 O   0  0  0  0  0  0  0  0  0  0  0  0
    2.5365   -4.7035    0.3595 O   0  0  0  0  0  0  0  0  0  0  0  0
    2.6876   -3.7203   -0.6364 C   0  0  1  0  0  0  0  0  0  0  0  0
    1.5461   -3.7284   -1.6536 C   0  0  0  0  0  0  0  0  0  0  0  0
    2.7144   -2.4999    0.1031 O   0  0  0  0  0  0  0  0  0  0  0  0
    4.0837   -4.0667   -1.1906 C   0  0  1  0  0  0  0  0  0  0  0  0
    5.0847   -3.6743   -2.2325 C   0  0  1  0  0  0  0  0  0  0  0  0
    4.5514   -3.3334   -3.6232 C   0  0  0  0  0  0  0  0  0  0  0  0
    4.2017   -2.1613   -3.8787 O   0  0  0  0  0  0  0  0  0  0  0  0
    4.6142   -4.2575   -4.4533 O   0  0  0  0  0  0  0  0  0  0  0  0
    4.8605   -2.7569   -1.0796 C   0  0  2  0  0  0  0  0  0  0  0  0
    5.1039   -2.7232    0.4195 C   0  0  1  0  0  0  0  0  0  0  0  0
    7.7599   -2.5001    1.2168 H   0  0  0  0  0  0  0  0  0  0  0  0
    8.0354   -0.8555    0.6475 H   0  0  0  0  0  0  0  0  0  0  0  0
    7.6614   -2.1511   -0.4981 H   0  0  0  0  0  0  0  0  0  0  0  0
    5.6661   -0.6761   -0.0230 H   0  0  0  0  0  0  0  0  0  0  0  0
    6.0840   -1.4618    2.8651 H   0  0  0  0  0  0  0  0  0  0  0  0
    6.1662    0.1283    2.1413 H   0  0  0  0  0  0  0  0  0  0  0  0
    4.0211   -0.0457    3.2032 H   0  0  0  0  0  0  0  0  0  0  0  0
    3.7523   -0.0334    1.4712 H   0  0  0  0  0  0  0  0  0  0  0  0
    3.9949   -2.5172    3.1887 H   0  0  0  0  0  0  0  0  0  0  0  0
    1.4288   -1.2636    2.1121 H   0  0  0  0  0  0  0  0  0  0  0  0
    1.9763   -1.2824    3.7869 H   0  0  0  0  0  0  0  0  0  0  0  0
    1.5456   -2.7953    2.9949 H   0  0  0  0  0  0  0  0  0  0  0  0
    0.6161   -3.5950   -1.1350 H   0  0  0  0  0  0  0  0  0  0  0  0
    1.4170   -4.6535   -2.2140 H   0  0  0  0  0  0  0  0  0  0  0  0
    1.6447   -2.9095   -2.3637 H   0  0  0  0  0  0  0  0  0  0  0  0
    4.4520   -4.9943   -0.7425 H   0  0  0  0  0  0  0  0  0  0  0  0
    6.0250   -4.2150   -2.2456 H   0  0  0  0  0  0  0  0  0  0  0  0
    4.4088   -1.8173   -1.4184 H   0  0  0  0  0  0  0  0  0  0  0  0
    5.6782   -3.5996    0.7347 H   0  0  0  0  0  0  0  0  0  0  0  0
  1  2  1  0
  1 20  1  0
  1 21  1  0
  1 22  1  0
  2 19  1  0
  2  3  1  0
  2 23  1  6
  3  4  1  0
  3 24  1  0
  3 25  1  0
  4  5  1  0
  4 26  1  0
  4 27  1  0
  5  6  1  0
  5  7  1  0
  5 28  1  1
  6 29  1  0
  6 30  1  0
  6 31  1  0
  7 12  1  0
  7 19  1  0
  7  8  1  1
  8  9  1  0
  9 10  1  0
 10 11  1  6
 10 12  1  0
 10 13  1  0
 11 32  1  0
 11 33  1  0
 11 34  1  0
 13 18  1  0
 13 14  1  0
 13 35  1  1
 14 15  1  0
 14 18  1  0
 14 36  1  6
 15 16  2  0
 15 17  1  0
 18 19  1  0
 18 37  1  6
 19 38  1  1
M  CHG  1  17  -1
M  END
>  <i_m_ct_stereo_status>  (58) 
1

>  <s_m_source_file>  (58) 
/var/tmp/pbs.5076255.sched01/tmp_578sd5a/06fbc0iir.sdf

>  <i_m_source_file_index>  (58) 
29

>  <i_lp_mmshare_version>  (58) 
48012

>  <i_f3d_flags>  (58) 
0

>  <s_epik_input>  (58) 
W0NIM11bQ0BASF0xW0NIMl1bQ0gyXVtDQEBIXShbQ0gzXSlbQ0BASF0oW0NAXTEyMylbQ0BASF00W0NAQEhdKFtDQF0oTzMpKE9PMilbQ0gzXSlbQ0BIXTRDKD1PKVtPSF0=

>  <s_epik_cmdline>  (58) 
J2VwaWtfcHl0aG9uJywgJy1waHQnLCAnMi4wJywgJy1waCcsICc3LjAnLCAnLXRuJywgJzgnLCAnLW1hJywgJzIwMCcsICctaW1hZScsICc8aW5maWxlLm1hZT4nLCAnLW9tYWUnLCAnPG91dGZpbGUubWFlPic=

>  <r_epik_Ionization_Penalty>  (58) 
0.000775242

>  <r_epik_Ionization_Penalty_Charging>  (58) 
0.000775242

>  <r_epik_Ionization_Penalty_Neutral>  (58) 
1.44714e-15

>  <r_epik_State_Penalty>  (58) 
0.000496763

>  <r_epik_Charging_Adjusted_Penalty>  (58) 
0.00127201

>  <i_epik_Tot_Q>  (58) 
-1

>  <i_epik_Tot_abs_Q>  (58) 
1

>  <s_lp_Force_Field>  (58) 
OPLS3e

>  <r_lp_Energy>  (58) 
56.561

>  <b_lp_Chiralities_Consistent>  (58) 
1

>  <s_lp_Variant>  (58) 
26:0-1

>  <s_i_glide_gridfile>  (58) 
pfpi4k_grid

>  <i_i_glide_lignum>  (58) 
29

>  <i_i_glide_rotatable_bonds>  (58) 
1

>  <r_i_docking_score>  (58) 
-3.34584

>  <r_i_glide_ligand_efficiency>  (58) 
-0.176097

>  <r_i_glide_ligand_efficiency_sa>  (58) 
-0.469898

>  <r_i_glide_ligand_efficiency_ln>  (58) 
-0.848244

>  <r_i_glide_gscore>  (58) 
-3.34584

>  <r_i_glide_lipo>  (58) 
-0.353769

>  <r_i_glide_hbond>  (58) 
-0.0634682

>  <r_i_glide_metal>  (58) 
-0

>  <r_i_glide_rewards>  (58) 
-1.93335

>  <r_i_glide_evdw>  (58) 
-14.2581

>  <r_i_glide_ecoul>  (58) 
-1.6275

>  <r_i_glide_erotb>  (58) 
0

>  <r_i_glide_esite>  (58) 
-0.0382291

>  <r_i_glide_emodel>  (58) 
-21.0504

>  <r_i_glide_energy>  (58) 
-15.8856

>  <r_i_glide_einternal>  (58) 
0.50514

>  <r_i_glide_intrahb_reward>  (58) 
-0

>  <i_i_glide_confnum>  (58) 
2

>  <i_i_glide_posenum>  (58) 
21

>  <r_i_glide_eff_state_penalty>  (58) 
0

>  <ligand_id>  (58) 
26

>  <original_smiles>  (58) 
CC1CCC(C)C23OOC(C)(O2)C2C(C(=O)O)C2C13

>  <smiles>  (58) 
[H]C([H])([H])C12OOC3(O1)C([H])(C([H])([H])[H])C([H])([H])C([H])([H])C([H])(C([H])([H])[H])C3([H])C1([H])C([H])(C(=O)[O-])C21[H]

$$$$
26:0:1
     RDKit          3D

 38 41  0  0  1  0  0  0  0  0999 V2000
    7.3205   -7.4855    1.7736 C   0  0  0  0  0  0  0  0  0  0  0  0
    6.1216   -6.8450    2.5000 C   0  0  2  0  0  0  0  0  0  0  0  0
    5.4882   -7.8538    3.4676 C   0  0  0  0  0  0  0  0  0  0  0  0
    4.2512   -7.2714    4.1465 C   0  0  0  0  0  0  0  0  0  0  0  0
    3.1601   -7.0538    3.1011 C   0  0  1  0  0  0  0  0  0  0  0  0
    1.8153   -6.6976    3.7631 C   0  0  0  0  0  0  0  0  0  0  0  0
    3.6103   -6.0582    1.9966 C   0  0  1  0  0  0  0  0  0  0  0  0
    2.7387   -6.2893    0.8877 O   0  0  0  0  0  0  0  0  0  0  0  0
    2.3450   -4.9062    0.4165 O   0  0  0  0  0  0  0  0  0  0  0  0
    3.2918   -4.0896    1.0657 C   0  0  1  0  0  0  0  0  0  0  0  0
    2.8109   -2.6417    1.1712 C   0  0  0  0  0  0  0  0  0  0  0  0
    3.4223   -4.6898    2.3627 O   0  0  0  0  0  0  0  0  0  0  0  0
    4.5497   -4.2978    0.1824 C   0  0  1  0  0  0  0  0  0  0  0  0
    6.0061   -3.9228    0.0355 C   0  0  1  0  0  0  0  0  0  0  0  0
    6.3979   -2.4476    0.2340 C   0  0  0  0  0  0  0  0  0  0  0  0
    6.9992   -1.8884   -0.7178 O   0  0  0  0  0  0  0  0  0  0  0  0
    6.1118   -1.8939    1.3164 O   0  0  0  0  0  0  0  0  0  0  0  0
    5.5990   -4.7787    1.1987 C   0  0  2  0  0  0  0  0  0  0  0  0
    5.1191   -6.2044    1.4938 C   0  0  1  0  0  0  0  0  0  0  0  0
    7.0065   -8.3296    1.1570 H   0  0  0  0  0  0  0  0  0  0  0  0
    8.0597   -7.8616    2.4838 H   0  0  0  0  0  0  0  0  0  0  0  0
    7.8306   -6.7714    1.1244 H   0  0  0  0  0  0  0  0  0  0  0  0
    6.5263   -6.0548    3.1348 H   0  0  0  0  0  0  0  0  0  0  0  0
    5.2290   -8.7754    2.9456 H   0  0  0  0  0  0  0  0  0  0  0  0
    6.2162   -8.1251    4.2340 H   0  0  0  0  0  0  0  0  0  0  0  0
    3.9009   -7.9603    4.9157 H   0  0  0  0  0  0  0  0  0  0  0  0
    4.4889   -6.3319    4.6467 H   0  0  0  0  0  0  0  0  0  0  0  0
    3.0079   -8.0178    2.6158 H   0  0  0  0  0  0  0  0  0  0  0  0
    1.8706   -5.7527    4.3061 H   0  0  0  0  0  0  0  0  0  0  0  0
    1.5313   -7.4687    4.4820 H   0  0  0  0  0  0  0  0  0  0  0  0
    1.0088   -6.6273    3.0317 H   0  0  0  0  0  0  0  0  0  0  0  0
    1.8297   -2.5998    1.6422 H   0  0  0  0  0  0  0  0  0  0  0  0
    2.7336   -2.1723    0.1917 H   0  0  0  0  0  0  0  0  0  0  0  0
    3.4963   -2.0513    1.7769 H   0  0  0  0  0  0  0  0  0  0  0  0
    4.2987   -4.9288   -0.6750 H   0  0  0  0  0  0  0  0  0  0  0  0
    6.5835   -4.4365   -0.7196 H   0  0  0  0  0  0  0  0  0  0  0  0
    5.7321   -4.2268    2.1338 H   0  0  0  0  0  0  0  0  0  0  0  0
    5.1198   -6.8023    0.5774 H   0  0  0  0  0  0  0  0  0  0  0  0
  1  2  1  0
  1 20  1  0
  1 21  1  0
  1 22  1  0
  2 19  1  0
  2  3  1  0
  2 23  1  1
  3  4  1  0
  3 24  1  0
  3 25  1  0
  4  5  1  0
  4 26  1  0
  4 27  1  0
  5  6  1  0
  5  7  1  0
  5 28  1  6
  6 29  1  0
  6 30  1  0
  6 31  1  0
  7 12  1  0
  7 19  1  0
  7  8  1  6
  8  9  1  0
  9 10  1  0
 10 11  1  1
 10 12  1  0
 10 13  1  0
 11 32  1  0
 11 33  1  0
 11 34  1  0
 13 18  1  0
 13 14  1  0
 13 35  1  6
 14 15  1  0
 14 18  1  0
 14 36  1  6
 15 16  2  0
 15 17  1  0
 18 19  1  0
 18 37  1  1
 19 38  1  6
M  CHG  1  17  -1
M  END
>  <i_m_ct_stereo_status>  (59) 
1

>  <s_m_source_file>  (59) 
/var/tmp/pbs.5076255.sched01/tmp_578sd5a/06fbc0iir.sdf

>  <i_m_source_file_index>  (59) 
29

>  <i_lp_mmshare_version>  (59) 
48012

>  <i_f3d_flags>  (59) 
0

>  <s_epik_input>  (59) 
W0NIM11bQ0BASF0xW0NIMl1bQ0gyXVtDQEBIXShbQ0gzXSlbQ0BASF0oW0NAXTEyMylbQ0BASF00W0NAQEhdKFtDQF0oTzMpKE9PMilbQ0gzXSlbQ0BIXTRDKD1PKVtPSF0=

>  <s_epik_cmdline>  (59) 
J2VwaWtfcHl0aG9uJywgJy1waHQnLCAnMi4wJywgJy1waCcsICc3LjAnLCAnLXRuJywgJzgnLCAnLW1hJywgJzIwMCcsICctaW1hZScsICc8aW5maWxlLm1hZT4nLCAnLW9tYWUnLCAnPG91dGZpbGUubWFlPic=

>  <r_epik_Ionization_Penalty>  (59) 
0.000775242

>  <r_epik_Ionization_Penalty_Charging>  (59) 
0.000775242

>  <r_epik_Ionization_Penalty_Neutral>  (59) 
1.44714e-15

>  <r_epik_State_Penalty>  (59) 
0.000496763

>  <r_epik_Charging_Adjusted_Penalty>  (59) 
0.00127201

>  <i_epik_Tot_Q>  (59) 
-1

>  <i_epik_Tot_abs_Q>  (59) 
1

>  <s_lp_Force_Field>  (59) 
OPLS3e

>  <r_lp_Energy>  (59) 
56.561

>  <b_lp_Chiralities_Consistent>  (59) 
1

>  <s_lp_Variant>  (59) 
26:0-1

>  <s_i_glide_gridfile>  (59) 
pfpi4k_grid

>  <i_i_glide_lignum>  (59) 
29

>  <i_i_glide_rotatable_bonds>  (59) 
1

>  <r_i_docking_score>  (59) 
-3.28206

>  <r_i_glide_ligand_efficiency>  (59) 
-0.17274

>  <r_i_glide_ligand_efficiency_sa>  (59) 
-0.46094

>  <r_i_glide_ligand_efficiency_ln>  (59) 
-0.832074

>  <r_i_glide_gscore>  (59) 
-3.28206

>  <r_i_glide_lipo>  (59) 
-0.260104

>  <r_i_glide_hbond>  (59) 
-0.200558

>  <r_i_glide_metal>  (59) 
-0

>  <r_i_glide_rewards>  (59) 
-1.68808

>  <r_i_glide_evdw>  (59) 
-15.3535

>  <r_i_glide_ecoul>  (59) 
-2.42409

>  <r_i_glide_erotb>  (59) 
0

>  <r_i_glide_esite>  (59) 
-0.00203935

>  <r_i_glide_emodel>  (59) 
-23.0186

>  <r_i_glide_energy>  (59) 
-17.7776

>  <r_i_glide_einternal>  (59) 
0.447051

>  <r_i_glide_intrahb_reward>  (59) 
-0

>  <i_i_glide_confnum>  (59) 
2

>  <i_i_glide_posenum>  (59) 
5

>  <r_i_glide_eff_state_penalty>  (59) 
0

>  <ligand_id>  (59) 
26

>  <original_smiles>  (59) 
CC1CCC(C)C23OOC(C)(O2)C2C(C(=O)O)C2C13

>  <smiles>  (59) 
[H]C([H])([H])C12OOC3(O1)C([H])(C([H])([H])[H])C([H])([H])C([H])([H])C([H])(C([H])([H])[H])C3([H])C1([H])C([H])(C(=O)[O-])C21[H]

$$$$
26:0:2
     RDKit          3D

 38 41  0  0  1  0  0  0  0  0999 V2000
    8.8199   -5.3993    1.6945 C   0  0  0  0  0  0  0  0  0  0  0  0
    7.8274   -4.8381    0.6705 C   0  0  2  0  0  0  0  0  0  0  0  0
    8.4273   -3.6292   -0.0673 C   0  0  0  0  0  0  0  0  0  0  0  0
    7.4258   -3.0096   -1.0374 C   0  0  0  0  0  0  0  0  0  0  0  0
    6.2673   -2.4012   -0.2459 C   0  0  1  0  0  0  0  0  0  0  0  0
    5.3337   -1.5660   -1.1442 C   0  0  0  0  0  0  0  0  0  0  0  0
    5.5231   -3.4789    0.5922 C   0  0  1  0  0  0  0  0  0  0  0  0
    4.8222   -2.7590    1.6057 O   0  0  0  0  0  0  0  0  0  0  0  0
    3.4463   -3.3801    1.6323 O   0  0  0  0  0  0  0  0  0  0  0  0
    3.6453   -4.5721    0.9083 C   0  0  1  0  0  0  0  0  0  0  0  0
    2.3356   -5.1316    0.3620 C   0  0  0  0  0  0  0  0  0  0  0  0
    4.5298   -4.1830   -0.1508 O   0  0  0  0  0  0  0  0  0  0  0  0
    4.3383   -5.4544    1.9769 C   0  0  1  0  0  0  0  0  0  0  0  0
    4.9641   -6.8054    2.2102 C   0  0  1  0  0  0  0  0  0  0  0  0
    4.2034   -8.0010    1.6668 C   0  0  0  0  0  0  0  0  0  0  0  0
    4.6277   -8.5420    0.6199 O   0  0  0  0  0  0  0  0  0  0  0  0
    3.2003   -8.3575    2.3249 O   0  0  0  0  0  0  0  0  0  0  0  0
    5.6388   -5.8638    1.2706 C   0  0  2  0  0  0  0  0  0  0  0  0
    6.4385   -4.5646    1.3084 C   0  0  1  0  0  0  0  0  0  0  0  0
    9.0316   -4.6642    2.4732 H   0  0  0  0  0  0  0  0  0  0  0  0
    9.7614   -5.6707    1.2224 H   0  0  0  0  0  0  0  0  0  0  0  0
    8.4349   -6.2981    2.1768 H   0  0  0  0  0  0  0  0  0  0  0  0
    7.7115   -5.6223   -0.0673 H   0  0  0  0  0  0  0  0  0  0  0  0
    8.7760   -2.8783    0.6424 H   0  0  0  0  0  0  0  0  0  0  0  0
    9.2974   -3.9488   -0.6400 H   0  0  0  0  0  0  0  0  0  0  0  0
    7.9290   -2.2581   -1.6429 H   0  0  0  0  0  0  0  0  0  0  0  0
    7.0403   -3.7609   -1.7300 H   0  0  0  0  0  0  0  0  0  0  0  0
    6.7151   -1.7065    0.4663 H   0  0  0  0  0  0  0  0  0  0  0  0
    4.8502   -2.1843   -1.9042 H   0  0  0  0  0  0  0  0  0  0  0  0
    5.8809   -0.7893   -1.6705 H   0  0  0  0  0  0  0  0  0  0  0  0
    4.5580   -1.0637   -0.5638 H   0  0  0  0  0  0  0  0  0  0  0  0
    1.8296   -4.3760   -0.2374 H   0  0  0  0  0  0  0  0  0  0  0  0
    1.6703   -5.4500    1.1644 H   0  0  0  0  0  0  0  0  0  0  0  0
    2.5333   -5.9878   -0.2774 H   0  0  0  0  0  0  0  0  0  0  0  0
    4.3638   -4.9305    2.9329 H   0  0  0  0  0  0  0  0  0  0  0  0
    5.4697   -6.9758    3.1605 H   0  0  0  0  0  0  0  0  0  0  0  0
    5.5946   -6.2612    0.2473 H   0  0  0  0  0  0  0  0  0  0  0  0
    6.5866   -4.2495    2.3452 H   0  0  0  0  0  0  0  0  0  0  0  0
  1  2  1  0
  1 20  1  0
  1 21  1  0
  1 22  1  0
  2 19  1  0
  2  3  1  0
  2 23  1  6
  3  4  1  0
  3 24  1  0
  3 25  1  0
  4  5  1  0
  4 26  1  0
  4 27  1  0
  5  6  1  0
  5  7  1  0
  5 28  1  1
  6 29  1  0
  6 30  1  0
  6 31  1  0
  7 12  1  0
  7 19  1  0
  7  8  1  1
  8  9  1  0
  9 10  1  0
 10 11  1  6
 10 12  1  0
 10 13  1  0
 11 32  1  0
 11 33  1  0
 11 34  1  0
 13 18  1  0
 13 14  1  0
 13 35  1  1
 14 15  1  0
 14 18  1  0
 14 36  1  1
 15 16  2  0
 15 17  1  0
 18 19  1  0
 18 37  1  6
 19 38  1  1
M  CHG  1  17  -1
M  END
>  <i_m_ct_stereo_status>  (60) 
1

>  <s_m_source_file>  (60) 
/var/tmp/pbs.5076255.sched01/tmp_578sd5a/06fbc0iir.sdf

>  <i_m_source_file_index>  (60) 
29

>  <i_lp_mmshare_version>  (60) 
48012

>  <i_f3d_flags>  (60) 
0

>  <s_epik_input>  (60) 
W0NIM11bQ0BASF0xW0NIMl1bQ0gyXVtDQEBIXShbQ0gzXSlbQ0BASF0oW0NAXTEyMylbQ0BASF00W0NAQEhdKFtDQF0oTzMpKE9PMilbQ0gzXSlbQ0BIXTRDKD1PKVtPSF0=

>  <s_epik_cmdline>  (60) 
J2VwaWtfcHl0aG9uJywgJy1waHQnLCAnMi4wJywgJy1waCcsICc3LjAnLCAnLXRuJywgJzgnLCAnLW1hJywgJzIwMCcsICctaW1hZScsICc8aW5maWxlLm1hZT4nLCAnLW9tYWUnLCAnPG91dGZpbGUubWFlPic=

>  <r_epik_Ionization_Penalty>  (60) 
0.000775242

>  <r_epik_Ionization_Penalty_Charging>  (60) 
0.000775242

>  <r_epik_Ionization_Penalty_Neutral>  (60) 
1.44714e-15

>  <r_epik_State_Penalty>  (60) 
0.000496763

>  <r_epik_Charging_Adjusted_Penalty>  (60) 
0.00127201

>  <i_epik_Tot_Q>  (60) 
-1

>  <i_epik_Tot_abs_Q>  (60) 
1

>  <s_lp_Force_Field>  (60) 
OPLS3e

>  <r_lp_Energy>  (60) 
56.561

>  <b_lp_Chiralities_Consistent>  (60) 
1

>  <s_lp_Variant>  (60) 
26:0-1

>  <s_i_glide_gridfile>  (60) 
pfpi4k_grid

>  <i_i_glide_lignum>  (60) 
29

>  <i_i_glide_rotatable_bonds>  (60) 
1

>  <r_i_docking_score>  (60) 
-2.83553

>  <r_i_glide_ligand_efficiency>  (60) 
-0.149238

>  <r_i_glide_ligand_efficiency_sa>  (60) 
-0.398228

>  <r_i_glide_ligand_efficiency_ln>  (60) 
-0.718867

>  <r_i_glide_gscore>  (60) 
-2.83553

>  <r_i_glide_lipo>  (60) 
-0.46467

>  <r_i_glide_hbond>  (60) 
0

>  <r_i_glide_metal>  (60) 
-0

>  <r_i_glide_rewards>  (60) 
-1.66207

>  <r_i_glide_evdw>  (60) 
-19.8267

>  <r_i_glide_ecoul>  (60) 
1.88919

>  <r_i_glide_erotb>  (60) 
0

>  <r_i_glide_esite>  (60) 
-0.000828648

>  <r_i_glide_emodel>  (60) 
-22.2702

>  <r_i_glide_energy>  (60) 
-17.9375

>  <r_i_glide_einternal>  (60) 
0.535137

>  <r_i_glide_intrahb_reward>  (60) 
-0

>  <i_i_glide_confnum>  (60) 
2

>  <i_i_glide_posenum>  (60) 
9

>  <r_i_glide_eff_state_penalty>  (60) 
0

>  <ligand_id>  (60) 
26

>  <original_smiles>  (60) 
CC1CCC(C)C23OOC(C)(O2)C2C(C(=O)O)C2C13

>  <smiles>  (60) 
[H]C([H])([H])C12OOC3(O1)C([H])(C([H])([H])[H])C([H])([H])C([H])([H])C([H])(C([H])([H])[H])C3([H])C1([H])C([H])(C(=O)[O-])C21[H]

$$$$
27:0:0
     RDKit          3D

 38 41  0  0  1  0  0  0  0  0999 V2000
    5.5407   -0.7043    0.1011 C   0  0  0  0  0  0  0  0  0  0  0  0
    4.9665   -2.1098    0.4561 C   0  0  0  0  0  0  0  0  0  0  0  0
    3.6265   -1.7029    1.1473 C   0  0  0  0  0  0  0  0  0  0  0  0
    4.8349   -3.1434   -0.7554 C   0  0  1  0  0  0  0  0  0  0  0  0
    5.5682   -2.7079   -2.0312 C   0  0  0  0  0  0  0  0  0  0  0  0
    6.8787   -2.2854   -1.7285 O   0  0  0  0  0  0  0  0  0  0  0  0
    7.6004   -3.0571   -0.8279 C   0  0  1  0  0  0  0  0  0  0  0  0
    8.6437   -2.2762   -0.2950 O   0  0  0  0  0  0  0  0  0  0  0  0
    6.7305   -3.7715    0.3109 C   0  0  1  0  0  0  0  0  0  0  0  0
    7.8612   -4.5827    1.0613 C   0  0  0  0  0  0  0  0  0  0  0  0
    5.9785   -2.8898    1.3448 C   0  0  2  0  0  0  0  0  0  0  0  0
    5.3029   -3.9344    2.3374 C   0  0  0  0  0  0  0  0  0  0  0  0
    4.7121   -5.1965    1.6122 C   0  0  2  0  0  0  0  0  0  0  0  0
    5.4475   -5.9174    0.4805 C   0  0  0  0  0  0  0  0  0  0  0  0
    5.4798   -4.5286   -0.3169 C   0  0  2  0  0  0  0  0  0  0  0  0
    4.0137   -4.8589    0.3482 C   0  0  0  0  0  0  0  0  0  0  0  0
    5.0245   -0.2646   -0.7523 H   0  0  0  0  0  0  0  0  0  0  0  0
    6.6066   -0.6897   -0.0907 H   0  0  0  0  0  0  0  0  0  0  0  0
    5.4428    0.0041    0.9222 H   0  0  0  0  0  0  0  0  0  0  0  0
    3.0894   -2.4694    1.6954 H   0  0  0  0  0  0  0  0  0  0  0  0
    2.9304   -1.2995    0.4101 H   0  0  0  0  0  0  0  0  0  0  0  0
    3.7790   -0.9203    1.8920 H   0  0  0  0  0  0  0  0  0  0  0  0
    3.8050   -3.1842   -1.1329 H   0  0  0  0  0  0  0  0  0  0  0  0
    5.5988   -3.5274   -2.7495 H   0  0  0  0  0  0  0  0  0  0  0  0
    5.0399   -1.8875   -2.5209 H   0  0  0  0  0  0  0  0  0  0  0  0
    8.0831   -3.8227   -1.4365 H   0  0  0  0  0  0  0  0  0  0  0  0
    9.3516   -2.2510   -0.9341 H   0  0  0  0  0  0  0  0  0  0  0  0
    7.5520   -5.1618    1.9287 H   0  0  0  0  0  0  0  0  0  0  0  0
    8.6119   -3.9151    1.4843 H   0  0  0  0  0  0  0  0  0  0  0  0
    8.3841   -5.2658    0.3903 H   0  0  0  0  0  0  0  0  0  0  0  0
    6.6242   -2.2092    1.8995 H   0  0  0  0  0  0  0  0  0  0  0  0
    6.0211   -4.2564    3.0885 H   0  0  0  0  0  0  0  0  0  0  0  0
    4.5392   -3.4557    2.9440 H   0  0  0  0  0  0  0  0  0  0  0  0
    4.1502   -5.8791    2.2497 H   0  0  0  0  0  0  0  0  0  0  0  0
    6.3792   -6.3875    0.7667 H   0  0  0  0  0  0  0  0  0  0  0  0
    4.9732   -6.7874   -0.0148 H   0  0  0  0  0  0  0  0  0  0  0  0
    3.3695   -5.5979   -0.1625 H   0  0  0  0  0  0  0  0  0  0  0  0
    3.2668   -4.1212    0.5950 H   0  0  0  0  0  0  0  0  0  0  0  0
  1  2  1  0
  1 17  1  0
  1 18  1  0
  1 19  1  0
  2 11  1  0
  2  3  1  0
  2  4  1  0
  3 20  1  0
  3 21  1  0
  3 22  1  0
  4 15  1  0
  4  5  1  0
  4 23  1  6
  5  6  1  0
  5 24  1  0
  5 25  1  0
  6  7  1  0
  7  8  1  0
  7  9  1  0
  7 26  1  6
  8 27  1  0
  9 15  1  0
  9 10  1  1
  9 11  1  0
 10 28  1  0
 10 29  1  0
 10 30  1  0
 11 12  1  0
 11 31  1  1
 12 13  1  0
 12 32  1  0
 12 33  1  0
 13 16  1  0
 13 14  1  0
 13 34  1  1
 15 14  1  1
 14 35  1  0
 14 36  1  0
 15 16  1  0
 16 37  1  0
 16 38  1  0
M  END
>  <i_m_ct_stereo_status>  (61) 
1

>  <s_m_source_file>  (61) 
/var/tmp/pbs.5076255.sched01/tmp_578sd5a/06fbc0iir.sdf

>  <i_m_source_file_index>  (61) 
30

>  <i_lp_mmshare_version>  (61) 
48012

>  <i_f3d_flags>  (61) 
0

>  <s_epik_input>  (61) 
W0NIMl0xW0NASF0oW0NIMl0yKVtDSDJdW0NASF0oQyhbQ0gzXSkoW0NIM10pW0NAQEhdM0MxMjQpW0NAXTQoW0NIM10pW0NASF0oW09IXSlPW0NIMl0z

>  <s_epik_cmdline>  (61) 
J2VwaWtfcHl0aG9uJywgJy1waHQnLCAnMi4wJywgJy1waCcsICc3LjAnLCAnLXRuJywgJzgnLCAnLW1hJywgJzIwMCcsICctaW1hZScsICc8aW5maWxlLm1hZT4nLCAnLW9tYWUnLCAnPG91dGZpbGUubWFlPic=

>  <r_lp_tautomer_probability>  (61) 
1

>  <r_epik_Ionization_Penalty>  (61) 
5.12621e-08

>  <r_epik_Ionization_Penalty_Charging>  (61) 
0

>  <r_epik_Ionization_Penalty_Neutral>  (61) 
5.12621e-08

>  <r_epik_State_Penalty>  (61) 
-0

>  <r_epik_Charging_Adjusted_Penalty>  (61) 
0

>  <i_epik_Tot_Q>  (61) 
0

>  <i_epik_Tot_abs_Q>  (61) 
0

>  <s_epik_Chemistry_Notes>  (61) 
This compound contains an acetal/aminal-like group ( X-CH(R)-Y where X, Y are N, S, or O) that may be acid/base labile, releasing an aldehyde.

>  <s_lp_Force_Field>  (61) 
OPLS3e

>  <r_lp_Energy>  (61) 
204.358

>  <b_lp_Chiralities_Consistent>  (61) 
1

>  <s_lp_Variant>  (61) 
27:0-1

>  <s_i_glide_gridfile>  (61) 
pfpi4k_grid

>  <i_i_glide_lignum>  (61) 
30

>  <i_i_glide_rotatable_bonds>  (61) 
1

>  <r_i_docking_score>  (61) 
-4.45756

>  <r_i_glide_ligand_efficiency>  (61) 
-0.278597

>  <r_i_glide_ligand_efficiency_sa>  (61) 
-0.702021

>  <r_i_glide_ligand_efficiency_ln>  (61) 
-1.18156

>  <r_i_glide_gscore>  (61) 
-4.45756

>  <r_i_glide_lipo>  (61) 
-0.722586

>  <r_i_glide_hbond>  (61) 
-0.16

>  <r_i_glide_metal>  (61) 
-0

>  <r_i_glide_rewards>  (61) 
-1.94347

>  <r_i_glide_evdw>  (61) 
-20.5288

>  <r_i_glide_ecoul>  (61) 
-4.03373

>  <r_i_glide_erotb>  (61) 
0

>  <r_i_glide_esite>  (61) 
0

>  <r_i_glide_emodel>  (61) 
-31.7541

>  <r_i_glide_energy>  (61) 
-24.5625

>  <r_i_glide_einternal>  (61) 
0.678595

>  <r_i_glide_intrahb_reward>  (61) 
-0

>  <i_i_glide_confnum>  (61) 
2

>  <i_i_glide_posenum>  (61) 
9

>  <r_i_glide_eff_state_penalty>  (61) 
0

>  <ligand_id>  (61) 
27

>  <original_smiles>  (61) 
CC1(C)C2COC(O)C3(C)C1CC1CC23C1

>  <smiles>  (61) 
[H]OC1([H])OC([H])([H])C2([H])C(C([H])([H])[H])(C([H])([H])[H])C3([H])C([H])([H])C4([H])C([H])([H])C2(C4([H])[H])C13C([H])([H])[H]

$$$$
27:0:1
     RDKit          3D

 38 41  0  0  1  0  0  0  0  0999 V2000
    4.4118   -1.4045   -2.2024 C   0  0  0  0  0  0  0  0  0  0  0  0
    4.0592   -2.6467   -1.3235 C   0  0  0  0  0  0  0  0  0  0  0  0
    2.8377   -3.2086   -2.1236 C   0  0  0  0  0  0  0  0  0  0  0  0
    5.2497   -3.6797   -1.0607 C   0  0  1  0  0  0  0  0  0  0  0  0
    6.6320   -3.1423   -1.4470 C   0  0  0  0  0  0  0  0  0  0  0  0
    6.8295   -1.8619   -0.9209 O   0  0  0  0  0  0  0  0  0  0  0  0
    6.3977   -1.6323    0.3831 C   0  0  1  0  0  0  0  0  0  0  0  0
    6.1994   -0.2560    0.5525 O   0  0  0  0  0  0  0  0  0  0  0  0
    5.1197   -2.4632    0.8431 C   0  0  1  0  0  0  0  0  0  0  0  0
    4.9982   -1.9842    2.3428 C   0  0  0  0  0  0  0  0  0  0  0  0
    3.7686   -2.2094    0.1419 C   0  0  2  0  0  0  0  0  0  0  0  0
    2.7523   -3.1595    0.9082 C   0  0  0  0  0  0  0  0  0  0  0  0
    3.3569   -4.5682    1.2760 C   0  0  2  0  0  0  0  0  0  0  0  0
    4.7836   -4.7436    1.8155 C   0  0  0  0  0  0  0  0  0  0  0  0
    5.3126   -3.9995    0.4989 C   0  0  2  0  0  0  0  0  0  0  0  0
    4.1795   -5.1421    0.1834 C   0  0  0  0  0  0  0  0  0  0  0  0
    4.9128   -1.6908   -3.1292 H   0  0  0  0  0  0  0  0  0  0  0  0
    5.0187   -0.6558   -1.7026 H   0  0  0  0  0  0  0  0  0  0  0  0
    3.5221   -0.8387   -2.4853 H   0  0  0  0  0  0  0  0  0  0  0  0
    2.2380   -3.9718   -1.6409 H   0  0  0  0  0  0  0  0  0  0  0  0
    3.1705   -3.6364   -3.0722 H   0  0  0  0  0  0  0  0  0  0  0  0
    2.1092   -2.4313   -2.3628 H   0  0  0  0  0  0  0  0  0  0  0  0
    5.1808   -4.5464   -1.7275 H   0  0  0  0  0  0  0  0  0  0  0  0
    7.4106   -3.8063   -1.0723 H   0  0  0  0  0  0  0  0  0  0  0  0
    6.7500   -3.1086   -2.5283 H   0  0  0  0  0  0  0  0  0  0  0  0
    7.2447   -1.8945    1.0128 H   0  0  0  0  0  0  0  0  0  0  0  0
    6.9904    0.1205    0.9327 H   0  0  0  0  0  0  0  0  0  0  0  0
    4.1734   -2.3920    2.9232 H   0  0  0  0  0  0  0  0  0  0  0  0
    4.8132   -0.9096    2.3977 H   0  0  0  0  0  0  0  0  0  0  0  0
    5.9163   -2.1764    2.9027 H   0  0  0  0  0  0  0  0  0  0  0  0
    3.4318   -1.1742    0.1919 H   0  0  0  0  0  0  0  0  0  0  0  0
    2.3906   -2.6683    1.8118 H   0  0  0  0  0  0  0  0  0  0  0  0
    1.8357   -3.2766    0.3343 H   0  0  0  0  0  0  0  0  0  0  0  0
    2.6510   -5.2779    1.7085 H   0  0  0  0  0  0  0  0  0  0  0  0
    4.9546   -4.2957    2.7879 H   0  0  0  0  0  0  0  0  0  0  0  0
    5.1582   -5.7613    2.0325 H   0  0  0  0  0  0  0  0  0  0  0  0
    4.4786   -6.2058    0.2054 H   0  0  0  0  0  0  0  0  0  0  0  0
    3.5430   -5.1483   -0.6866 H   0  0  0  0  0  0  0  0  0  0  0  0
  1  2  1  0
  1 17  1  0
  1 18  1  0
  1 19  1  0
  2 11  1  0
  2  3  1  0
  2  4  1  0
  3 20  1  0
  3 21  1  0
  3 22  1  0
  4 15  1  0
  4  5  1  0
  4 23  1  6
  5  6  1  0
  5 24  1  0
  5 25  1  0
  6  7  1  0
  7  8  1  0
  7  9  1  0
  7 26  1  1
  8 27  1  0
  9 15  1  0
  9 10  1  1
  9 11  1  0
 10 28  1  0
 10 29  1  0
 10 30  1  0
 11 12  1  0
 11 31  1  6
 12 13  1  0
 12 32  1  0
 12 33  1  0
 13 16  1  0
 13 14  1  0
 13 34  1  1
 15 14  1  1
 14 35  1  0
 14 36  1  0
 15 16  1  0
 16 37  1  0
 16 38  1  0
M  END
>  <i_m_ct_stereo_status>  (62) 
1

>  <s_m_source_file>  (62) 
/var/tmp/pbs.5076255.sched01/tmp_578sd5a/06fbc0iir.sdf

>  <i_m_source_file_index>  (62) 
30

>  <i_lp_mmshare_version>  (62) 
48012

>  <i_f3d_flags>  (62) 
0

>  <s_epik_input>  (62) 
W0NIMl0xW0NASF0oW0NIMl0yKVtDSDJdW0NASF0oQyhbQ0gzXSkoW0NIM10pW0NAQEhdM0MxMjQpW0NAXTQoW0NIM10pW0NASF0oW09IXSlPW0NIMl0z

>  <s_epik_cmdline>  (62) 
J2VwaWtfcHl0aG9uJywgJy1waHQnLCAnMi4wJywgJy1waCcsICc3LjAnLCAnLXRuJywgJzgnLCAnLW1hJywgJzIwMCcsICctaW1hZScsICc8aW5maWxlLm1hZT4nLCAnLW9tYWUnLCAnPG91dGZpbGUubWFlPic=

>  <r_lp_tautomer_probability>  (62) 
1

>  <r_epik_Ionization_Penalty>  (62) 
5.12621e-08

>  <r_epik_Ionization_Penalty_Charging>  (62) 
0

>  <r_epik_Ionization_Penalty_Neutral>  (62) 
5.12621e-08

>  <r_epik_State_Penalty>  (62) 
-0

>  <r_epik_Charging_Adjusted_Penalty>  (62) 
0

>  <i_epik_Tot_Q>  (62) 
0

>  <i_epik_Tot_abs_Q>  (62) 
0

>  <s_epik_Chemistry_Notes>  (62) 
This compound contains an acetal/aminal-like group ( X-CH(R)-Y where X, Y are N, S, or O) that may be acid/base labile, releasing an aldehyde.

>  <s_lp_Force_Field>  (62) 
OPLS3e

>  <r_lp_Energy>  (62) 
204.358

>  <b_lp_Chiralities_Consistent>  (62) 
1

>  <s_lp_Variant>  (62) 
27:0-1

>  <s_i_glide_gridfile>  (62) 
pfpi4k_grid

>  <i_i_glide_lignum>  (62) 
30

>  <i_i_glide_rotatable_bonds>  (62) 
1

>  <r_i_docking_score>  (62) 
-4.23375

>  <r_i_glide_ligand_efficiency>  (62) 
-0.264609

>  <r_i_glide_ligand_efficiency_sa>  (62) 
-0.666774

>  <r_i_glide_ligand_efficiency_ln>  (62) 
-1.12224

>  <r_i_glide_gscore>  (62) 
-4.23375

>  <r_i_glide_lipo>  (62) 
-0.325749

>  <r_i_glide_hbond>  (62) 
-0.16

>  <r_i_glide_metal>  (62) 
-0

>  <r_i_glide_rewards>  (62) 
-1.95251

>  <r_i_glide_evdw>  (62) 
-17.4025

>  <r_i_glide_ecoul>  (62) 
-6.16911

>  <r_i_glide_erotb>  (62) 
0

>  <r_i_glide_esite>  (62) 
0

>  <r_i_glide_emodel>  (62) 
-29.8995

>  <r_i_glide_energy>  (62) 
-23.5716

>  <r_i_glide_einternal>  (62) 
1.20797

>  <r_i_glide_intrahb_reward>  (62) 
-0

>  <i_i_glide_confnum>  (62) 
1

>  <i_i_glide_posenum>  (62) 
20

>  <r_i_glide_eff_state_penalty>  (62) 
0

>  <ligand_id>  (62) 
27

>  <original_smiles>  (62) 
CC1(C)C2COC(O)C3(C)C1CC1CC23C1

>  <smiles>  (62) 
[H]OC1([H])OC([H])([H])C2([H])C(C([H])([H])[H])(C([H])([H])[H])C3([H])C([H])([H])C4([H])C([H])([H])C2(C4([H])[H])C13C([H])([H])[H]

$$$$
27:0:2
     RDKit          3D

 38 41  0  0  1  0  0  0  0  0999 V2000
    4.8202   -0.4711    0.9388 C   0  0  0  0  0  0  0  0  0  0  0  0
    4.2727   -1.9328    0.9838 C   0  0  0  0  0  0  0  0  0  0  0  0
    2.9540   -1.7188    1.7964 C   0  0  0  0  0  0  0  0  0  0  0  0
    4.0962   -2.6625   -0.4270 C   0  0  1  0  0  0  0  0  0  0  0  0
    4.7711   -1.9344   -1.5953 C   0  0  0  0  0  0  0  0  0  0  0  0
    6.0932   -1.5856   -1.2567 O   0  0  0  0  0  0  0  0  0  0  0  0
    6.8570   -2.5281   -0.5774 C   0  0  1  0  0  0  0  0  0  0  0  0
    7.9065   -1.8625    0.0883 O   0  0  0  0  0  0  0  0  0  0  0  0
    6.0363   -3.4930    0.3941 C   0  0  1  0  0  0  0  0  0  0  0  0
    7.2000   -4.4340    0.9012 C   0  0  0  0  0  0  0  0  0  0  0  0
    5.3250   -2.8828    1.6319 C   0  0  2  0  0  0  0  0  0  0  0  0
    4.6937   -4.1387    2.3786 C   0  0  0  0  0  0  0  0  0  0  0  0
    4.0871   -5.2115    1.4020 C   0  0  2  0  0  0  0  0  0  0  0  0
    4.7800   -5.6383    0.1013 C   0  0  0  0  0  0  0  0  0  0  0  0
    4.7699   -4.1034   -0.3463 C   0  0  2  0  0  0  0  0  0  0  0  0
    3.3341   -4.6004    0.2799 C   0  0  0  0  0  0  0  0  0  0  0  0
    4.2611    0.1424    0.2333 H   0  0  0  0  0  0  0  0  0  0  0  0
    5.8731   -0.3789    0.6986 H   0  0  0  0  0  0  0  0  0  0  0  0
    4.7497    0.0231    1.9076 H   0  0  0  0  0  0  0  0  0  0  0  0
    2.4439   -2.5998    2.1698 H   0  0  0  0  0  0  0  0  0  0  0  0
    2.2253   -1.1690    1.1976 H   0  0  0  0  0  0  0  0  0  0  0  0
    3.1267   -1.1280    2.6966 H   0  0  0  0  0  0  0  0  0  0  0  0
    3.0526   -2.6287   -0.7648 H   0  0  0  0  0  0  0  0  0  0  0  0
    4.7739   -2.5621   -2.4867 H   0  0  0  0  0  0  0  0  0  0  0  0
    4.2255   -1.0248   -1.8574 H   0  0  0  0  0  0  0  0  0  0  0  0
    7.3218   -3.1245   -1.3648 H   0  0  0  0  0  0  0  0  0  0  0  0
    7.5420   -1.4564    0.8604 H   0  0  0  0  0  0  0  0  0  0  0  0
    6.9306   -5.2051    1.6181 H   0  0  0  0  0  0  0  0  0  0  0  0
    7.9628   -3.8702    1.4378 H   0  0  0  0  0  0  0  0  0  0  0  0
    7.7055   -4.9322    0.0741 H   0  0  0  0  0  0  0  0  0  0  0  0
    5.9996   -2.3463    2.3019 H   0  0  0  0  0  0  0  0  0  0  0  0
    5.4425   -4.6111    3.0122 H   0  0  0  0  0  0  0  0  0  0  0  0
    3.9470   -3.8252    3.1043 H   0  0  0  0  0  0  0  0  0  0  0  0
    3.5511   -6.0289    1.8825 H   0  0  0  0  0  0  0  0  0  0  0  0
    5.7264   -6.1463    0.2378 H   0  0  0  0  0  0  0  0  0  0  0  0
    4.2928   -6.3765   -0.5636 H   0  0  0  0  0  0  0  0  0  0  0  0
    2.6716   -5.2174   -0.3524 H   0  0  0  0  0  0  0  0  0  0  0  0
    2.5935   -3.9486    0.7162 H   0  0  0  0  0  0  0  0  0  0  0  0
  1  2  1  0
  1 17  1  0
  1 18  1  0
  1 19  1  0
  2 11  1  0
  2  3  1  0
  2  4  1  0
  3 20  1  0
  3 21  1  0
  3 22  1  0
  4 15  1  0
  4  5  1  0
  4 23  1  6
  5  6  1  0
  5 24  1  0
  5 25  1  0
  6  7  1  0
  7  8  1  0
  7  9  1  0
  7 26  1  6
  8 27  1  0
  9 15  1  0
  9 10  1  1
  9 11  1  0
 10 28  1  0
 10 29  1  0
 10 30  1  0
 11 12  1  0
 11 31  1  1
 12 13  1  0
 12 32  1  0
 12 33  1  0
 13 16  1  0
 13 14  1  0
 13 34  1  1
 15 14  1  1
 14 35  1  0
 14 36  1  0
 15 16  1  0
 16 37  1  0
 16 38  1  0
M  END
>  <i_m_ct_stereo_status>  (63) 
1

>  <s_m_source_file>  (63) 
/var/tmp/pbs.5076255.sched01/tmp_578sd5a/06fbc0iir.sdf

>  <i_m_source_file_index>  (63) 
30

>  <i_lp_mmshare_version>  (63) 
48012

>  <i_f3d_flags>  (63) 
0

>  <s_epik_input>  (63) 
W0NIMl0xW0NASF0oW0NIMl0yKVtDSDJdW0NASF0oQyhbQ0gzXSkoW0NIM10pW0NAQEhdM0MxMjQpW0NAXTQoW0NIM10pW0NASF0oW09IXSlPW0NIMl0z

>  <s_epik_cmdline>  (63) 
J2VwaWtfcHl0aG9uJywgJy1waHQnLCAnMi4wJywgJy1waCcsICc3LjAnLCAnLXRuJywgJzgnLCAnLW1hJywgJzIwMCcsICctaW1hZScsICc8aW5maWxlLm1hZT4nLCAnLW9tYWUnLCAnPG91dGZpbGUubWFlPic=

>  <r_lp_tautomer_probability>  (63) 
1

>  <r_epik_Ionization_Penalty>  (63) 
5.12621e-08

>  <r_epik_Ionization_Penalty_Charging>  (63) 
0

>  <r_epik_Ionization_Penalty_Neutral>  (63) 
5.12621e-08

>  <r_epik_State_Penalty>  (63) 
-0

>  <r_epik_Charging_Adjusted_Penalty>  (63) 
0

>  <i_epik_Tot_Q>  (63) 
0

>  <i_epik_Tot_abs_Q>  (63) 
0

>  <s_epik_Chemistry_Notes>  (63) 
This compound contains an acetal/aminal-like group ( X-CH(R)-Y where X, Y are N, S, or O) that may be acid/base labile, releasing an aldehyde.

>  <s_lp_Force_Field>  (63) 
OPLS3e

>  <r_lp_Energy>  (63) 
204.358

>  <b_lp_Chiralities_Consistent>  (63) 
1

>  <s_lp_Variant>  (63) 
27:0-1

>  <s_i_glide_gridfile>  (63) 
pfpi4k_grid

>  <i_i_glide_lignum>  (63) 
30

>  <i_i_glide_rotatable_bonds>  (63) 
1

>  <r_i_docking_score>  (63) 
-4.0056

>  <r_i_glide_ligand_efficiency>  (63) 
-0.25035

>  <r_i_glide_ligand_efficiency_sa>  (63) 
-0.630842

>  <r_i_glide_ligand_efficiency_ln>  (63) 
-1.06176

>  <r_i_glide_gscore>  (63) 
-4.0056

>  <r_i_glide_lipo>  (63) 
-0.518305

>  <r_i_glide_hbond>  (63) 
-0.121528

>  <r_i_glide_metal>  (63) 
-0

>  <r_i_glide_rewards>  (63) 
-1.89325

>  <r_i_glide_evdw>  (63) 
-20.1707

>  <r_i_glide_ecoul>  (63) 
-2.92529

>  <r_i_glide_erotb>  (63) 
0

>  <r_i_glide_esite>  (63) 
-0.0251824

>  <r_i_glide_emodel>  (63) 
-29.9573

>  <r_i_glide_energy>  (63) 
-23.096

>  <r_i_glide_einternal>  (63) 
0.0760188

>  <r_i_glide_intrahb_reward>  (63) 
-0

>  <i_i_glide_confnum>  (63) 
2

>  <i_i_glide_posenum>  (63) 
12

>  <r_i_glide_eff_state_penalty>  (63) 
0

>  <ligand_id>  (63) 
27

>  <original_smiles>  (63) 
CC1(C)C2COC(O)C3(C)C1CC1CC23C1

>  <smiles>  (63) 
[H]OC1([H])OC([H])([H])C2([H])C(C([H])([H])[H])(C([H])([H])[H])C3([H])C([H])([H])C4([H])C([H])([H])C2(C4([H])[H])C13C([H])([H])[H]

$$$$
28:0:0
     RDKit          3D

 86 91  0  0  1  0  0  0  0  0999 V2000
    0.8293    2.2945    4.0347 C   0  0  0  0  0  0  0  0  0  0  0  0
    1.5492    1.1358    3.2962 C   0  0  1  0  0  0  0  0  0  0  0  0
    1.0395    1.1730    1.8185 C   0  0  0  0  0  0  0  0  0  0  0  0
   -0.3499    0.9305    1.6923 O   0  0  0  0  0  0  0  0  0  0  0  0
    3.0749    1.4337    3.2595 C   0  0  0  0  0  0  0  0  0  0  0  0
    3.8152    1.1987    4.5901 C   0  0  0  0  0  0  0  0  0  0  0  0
    3.5004   -0.1754    5.2220 C   0  0  0  0  0  0  0  0  0  0  0  0
    1.9796   -0.4546    5.3912 C   0  0  2  0  0  0  0  0  0  0  0  0
    1.4387    0.5116    6.4844 C   0  0  0  0  0  0  0  0  0  0  0  0
    1.7558   -1.9176    5.9429 C   0  0  1  0  0  0  0  0  0  0  0  0
    0.4275   -2.2103    6.6477 C   0  0  0  0  0  0  0  0  0  0  0  0
   -0.1043   -3.4435    6.7435 C   0  0  0  0  0  0  0  0  0  0  0  0
    0.5334   -4.6953    6.1489 C   0  0  0  0  0  0  0  0  0  0  0  0
    1.9695   -4.4792    5.5666 C   0  0  1  0  0  0  0  0  0  0  0  0
    1.9670   -3.0547    4.9335 C   0  0  0  0  0  0  0  0  0  0  0  0
    1.9781   -2.7836    3.6209 C   0  0  0  0  0  0  0  0  0  0  0  0
    1.7677   -1.4159    3.0099 C   0  0  0  0  0  0  0  0  0  0  0  0
    1.3153   -0.2770    3.9779 C   0  0  2  0  0  0  0  0  0  0  0  0
    3.0530   -4.5964    6.6817 C   0  0  1  0  0  0  0  0  0  0  0  0
    2.6962   -4.1360    7.9696 O   0  0  0  0  0  0  0  0  0  0  0  0
    3.4339   -6.0681    6.7781 C   0  0  0  0  0  0  0  0  0  0  0  0
    3.4059   -6.6000    5.3349 C   0  0  2  0  0  0  0  0  0  0  0  0
    4.8380   -6.4054    4.7659 C   0  0  0  0  0  0  0  0  0  0  0  0
    2.4235   -5.6402    4.5855 C   0  0  1  0  0  0  0  0  0  0  0  0
    1.3494   -6.4376    3.7949 C   0  0  1  0  0  0  0  0  0  0  0  0
    0.6732   -5.6040    2.8866 O   0  0  0  0  0  0  0  0  0  0  0  0
    1.9852   -7.5927    2.9901 C   0  0  0  0  0  0  0  0  0  0  0  0
    2.7206   -8.6917    3.8382 C   0  0  1  0  0  0  0  0  0  0  0  0
    4.0114   -9.0951    3.0614 C   0  0  0  0  0  0  0  0  0  0  0  0
    3.0110   -8.1227    5.2612 C   0  0  2  0  0  0  0  0  0  0  0  0
    1.8033   -8.5620    6.1349 C   0  0  0  0  0  0  0  0  0  0  0  0
    0.9890   -9.6070    5.3607 C   0  0  1  0  0  0  0  0  0  0  0  0
   -0.2621   -9.0617    4.9873 O   0  0  0  0  0  0  0  0  0  0  0  0
    1.8765   -9.9941    4.1630 C   0  0  0  0  0  0  0  0  0  0  0  0
    1.0804  -10.5724    2.9706 C   0  0  0  0  0  0  0  0  0  0  0  0
    2.7763  -11.1662    4.6606 C   0  0  0  0  0  0  0  0  0  0  0  0
    0.6074    3.1246    3.3649 H   0  0  0  0  0  0  0  0  0  0  0  0
    1.4352    2.7238    4.8280 H   0  0  0  0  0  0  0  0  0  0  0  0
   -0.1162    1.9705    4.4710 H   0  0  0  0  0  0  0  0  0  0  0  0
    1.2595    2.1461    1.3809 H   0  0  0  0  0  0  0  0  0  0  0  0
    1.5556    0.4546    1.1820 H   0  0  0  0  0  0  0  0  0  0  0  0
   -0.5691    0.8758    0.7564 H   0  0  0  0  0  0  0  0  0  0  0  0
    3.5577    0.8268    2.4921 H   0  0  0  0  0  0  0  0  0  0  0  0
    3.2368    2.4627    2.9445 H   0  0  0  0  0  0  0  0  0  0  0  0
    4.8891    1.2704    4.4130 H   0  0  0  0  0  0  0  0  0  0  0  0
    3.5971    2.0082    5.2861 H   0  0  0  0  0  0  0  0  0  0  0  0
    3.9518   -0.9409    4.5926 H   0  0  0  0  0  0  0  0  0  0  0  0
    4.0104   -0.2540    6.1856 H   0  0  0  0  0  0  0  0  0  0  0  0
    0.3609    0.6526    6.4051 H   0  0  0  0  0  0  0  0  0  0  0  0
    1.8922    1.4927    6.4722 H   0  0  0  0  0  0  0  0  0  0  0  0
    1.6547    0.1299    7.4851 H   0  0  0  0  0  0  0  0  0  0  0  0
    2.5062   -2.0176    6.7212 H   0  0  0  0  0  0  0  0  0  0  0  0
   -0.0852   -1.3859    7.1149 H   0  0  0  0  0  0  0  0  0  0  0  0
   -1.0443   -3.5959    7.2517 H   0  0  0  0  0  0  0  0  0  0  0  0
    0.5186   -5.4949    6.8873 H   0  0  0  0  0  0  0  0  0  0  0  0
   -0.1711   -4.9784    5.3694 H   0  0  0  0  0  0  0  0  0  0  0  0
    2.0979   -3.5574    2.8789 H   0  0  0  0  0  0  0  0  0  0  0  0
    2.7029   -1.1820    2.5102 H   0  0  0  0  0  0  0  0  0  0  0  0
    1.0128   -1.5467    2.2414 H   0  0  0  0  0  0  0  0  0  0  0  0
    0.2394   -0.3984    4.1175 H   0  0  0  0  0  0  0  0  0  0  0  0
    3.9390   -4.0407    6.3723 H   0  0  0  0  0  0  0  0  0  0  0  0
    1.9295   -4.6182    8.2488 H   0  0  0  0  0  0  0  0  0  0  0  0
    4.4090   -6.2005    7.2447 H   0  0  0  0  0  0  0  0  0  0  0  0
    2.7239   -6.5825    7.4234 H   0  0  0  0  0  0  0  0  0  0  0  0
    4.8632   -6.4608    3.6825 H   0  0  0  0  0  0  0  0  0  0  0  0
    5.5280   -7.1539    5.1530 H   0  0  0  0  0  0  0  0  0  0  0  0
    5.2500   -5.4259    5.0203 H   0  0  0  0  0  0  0  0  0  0  0  0
    3.0274   -5.1757    3.8194 H   0  0  0  0  0  0  0  0  0  0  0  0
    0.5805   -6.8233    4.4631 H   0  0  0  0  0  0  0  0  0  0  0  0
    0.4916   -4.7928    3.3387 H   0  0  0  0  0  0  0  0  0  0  0  0
    1.2422   -8.0246    2.3348 H   0  0  0  0  0  0  0  0  0  0  0  0
    2.6957   -7.1223    2.3065 H   0  0  0  0  0  0  0  0  0  0  0  0
    4.7330   -9.6000    3.7074 H   0  0  0  0  0  0  0  0  0  0  0  0
    4.5302   -8.2524    2.6200 H   0  0  0  0  0  0  0  0  0  0  0  0
    3.7850   -9.7686    2.2348 H   0  0  0  0  0  0  0  0  0  0  0  0
    3.8605   -8.6740    5.6589 H   0  0  0  0  0  0  0  0  0  0  0  0
    2.1716   -9.0035    7.0621 H   0  0  0  0  0  0  0  0  0  0  0  0
    1.1567   -7.7349    6.4270 H   0  0  0  0  0  0  0  0  0  0  0  0
    0.7522  -10.4667    5.9905 H   0  0  0  0  0  0  0  0  0  0  0  0
   -0.8815   -9.7813    4.8937 H   0  0  0  0  0  0  0  0  0  0  0  0
    0.6083  -11.5213    3.2305 H   0  0  0  0  0  0  0  0  0  0  0  0
    1.7575  -10.7545    2.1404 H   0  0  0  0  0  0  0  0  0  0  0  0
    0.2921   -9.9217    2.6014 H   0  0  0  0  0  0  0  0  0  0  0  0
    2.1777  -12.0084    5.0095 H   0  0  0  0  0  0  0  0  0  0  0  0
    3.4121  -10.8837    5.4999 H   0  0  0  0  0  0  0  0  0  0  0  0
    3.4221  -11.5654    3.8782 H   0  0  0  0  0  0  0  0  0  0  0  0
  2  1  1  1
  1 37  1  0
  1 38  1  0
  1 39  1  0
  2 18  1  0
  2  3  1  0
  2  5  1  0
  3  4  1  0
  3 40  1  0
  3 41  1  0
  4 42  1  0
  5  6  1  0
  5 43  1  0
  5 44  1  0
  6  7  1  0
  6 45  1  0
  6 46  1  0
  7  8  1  0
  7 47  1  0
  7 48  1  0
  8 18  1  0
  8  9  1  1
  8 10  1  0
  9 49  1  0
  9 50  1  0
  9 51  1  0
 10 15  1  0
 10 11  1  0
 10 52  1  1
 11 12  2  0
 11 53  1  0
 12 13  1  0
 12 54  1  0
 14 13  1  1
 13 55  1  0
 13 56  1  0
 14 24  1  0
 14 15  1  0
 14 19  1  0
 15 16  2  0
 16 17  1  0
 16 57  1  0
 17 18  1  0
 17 58  1  0
 17 59  1  0
 18 60  1  1
 19 20  1  0
 19 21  1  0
 19 61  1  6
 20 62  1  0
 21 22  1  0
 21 63  1  0
 21 64  1  0
 22 30  1  0
 22 23  1  6
 22 24  1  0
 23 65  1  0
 23 66  1  0
 23 67  1  0
 24 25  1  0
 24 68  1  6
 25 26  1  0
 25 27  1  0
 25 69  1  1
 26 70  1  0
 27 28  1  0
 27 71  1  0
 27 72  1  0
 28 34  1  0
 28 29  1  6
 28 30  1  0
 29 73  1  0
 29 74  1  0
 29 75  1  0
 30 31  1  0
 30 76  1  1
 31 32  1  0
 31 77  1  0
 31 78  1  0
 32 33  1  0
 32 34  1  0
 32 79  1  1
 33 80  1  0
 34 35  1  0
 34 36  1  0
 35 81  1  0
 35 82  1  0
 35 83  1  0
 36 84  1  0
 36 85  1  0
 36 86  1  0
M  END
>  <i_m_ct_stereo_status>  (64) 
1

>  <s_m_source_file>  (64) 
/var/tmp/pbs.5076255.sched01/tmp_578sd5a/06fbc0iir.sdf

>  <i_m_source_file_index>  (64) 
31

>  <i_lp_mmshare_version>  (64) 
48012

>  <i_f3d_flags>  (64) 
0

>  <s_epik_input>  (64) 
W0NIMl0xW0NIMl1bQ0gyXVtDQEBdKFtDSDNdKShbQ0gyXVtPSF0pW0NAQEhdKFtDSDJdW0NIXTIpW0NAQF0xKFtDSDNdKVtDQEBIXShbQ0hdPVtDSF1bQ0gyXTMpQz0yW0NAXTM0W0NASF01W0NAQF0oW0NIM10pKFtDSDJdW0NAQEhdNFtPSF0pW0NAQEhdNltDQF0oW0NIM10pKFtDSDJdW0NIXTVbT0hdKUMoW0NIM10pKFtDSDNdKVtDQEBIXShbQ0gyXTYpW09IXQ==

>  <s_epik_cmdline>  (64) 
J2VwaWtfcHl0aG9uJywgJy1waHQnLCAnMi4wJywgJy1waCcsICc3LjAnLCAnLXRuJywgJzgnLCAnLW1hJywgJzIwMCcsICctaW1hZScsICc8aW5maWxlLm1hZT4nLCAnLW9tYWUnLCAnPG91dGZpbGUubWFlPic=

>  <r_lp_tautomer_probability>  (64) 
1

>  <r_epik_Ionization_Penalty>  (64) 
5.15565e-06

>  <r_epik_Ionization_Penalty_Charging>  (64) 
0

>  <r_epik_Ionization_Penalty_Neutral>  (64) 
5.15565e-06

>  <r_epik_State_Penalty>  (64) 
-0

>  <r_epik_Charging_Adjusted_Penalty>  (64) 
0

>  <i_epik_Tot_Q>  (64) 
0

>  <i_epik_Tot_abs_Q>  (64) 
0

>  <s_lp_Force_Field>  (64) 
OPLS3e

>  <r_lp_Energy>  (64) 
92.028

>  <b_lp_Chiralities_Consistent>  (64) 
1

>  <s_lp_Variant>  (64) 
28:0-1

>  <s_i_glide_gridfile>  (64) 
pfpi4k_grid

>  <i_i_glide_lignum>  (64) 
31

>  <i_i_glide_rotatable_bonds>  (64) 
5

>  <r_i_docking_score>  (64) 
-2.66112

>  <r_i_glide_ligand_efficiency>  (64) 
-0.07392

>  <r_i_glide_ligand_efficiency_sa>  (64) 
-0.244078

>  <r_i_glide_ligand_efficiency_ln>  (64) 
-0.580584

>  <r_i_glide_gscore>  (64) 
-2.66112

>  <r_i_glide_lipo>  (64) 
-0.171969

>  <r_i_glide_hbond>  (64) 
-0.34001

>  <r_i_glide_metal>  (64) 
-0

>  <r_i_glide_rewards>  (64) 
-0.00861136

>  <r_i_glide_evdw>  (64) 
-19.0454

>  <r_i_glide_ecoul>  (64) 
-8.46871

>  <r_i_glide_erotb>  (64) 
0.0820462

>  <r_i_glide_esite>  (64) 
0

>  <r_i_glide_emodel>  (64) 
-32.088

>  <r_i_glide_energy>  (64) 
-27.5141

>  <r_i_glide_einternal>  (64) 
2.03602

>  <r_i_glide_intrahb_reward>  (64) 
-0

>  <i_i_glide_confnum>  (64) 
4

>  <i_i_glide_posenum>  (64) 
29

>  <r_i_glide_eff_state_penalty>  (64) 
0

>  <ligand_id>  (64) 
28

>  <original_smiles>  (64) 
CC1(CO)CCCC2(C)C3C=CCC4(C3=CCC12)C(O)CC1(C)C4C(O)CC2(C)C1CC(O)C2(C)C

>  <smiles>  (64) 
[H]OC([H])([H])C1(C([H])([H])[H])C([H])([H])C([H])([H])C([H])([H])C2(C([H])([H])[H])C3([H])C([H])=C([H])C([H])([H])C4(C3=C([H])C([H])([H])C12[H])C([H])(O[H])C([H])([H])C1(C([H])([H])[H])C4([H])C([H])(O[H])C([H])([H])C2(C([H])([H])[H])C1([H])C([H])([H])C([H])(O[H])C2(C([H])([H])[H])C([H])([H])[H]

$$$$
28:0:1
     RDKit          3D

 86 91  0  0  1  0  0  0  0  0999 V2000
    1.1311    1.9584    5.1135 C   0  0  0  0  0  0  0  0  0  0  0  0
    0.2817    0.6787    4.8491 C   0  0  1  0  0  0  0  0  0  0  0  0
   -0.6689    0.5922    6.1005 C   0  0  0  0  0  0  0  0  0  0  0  0
   -1.8549   -0.1694    5.9289 O   0  0  0  0  0  0  0  0  0  0  0  0
   -0.5541    0.8829    3.5497 C   0  0  0  0  0  0  0  0  0  0  0  0
    0.2598    0.7728    2.2552 C   0  0  0  0  0  0  0  0  0  0  0  0
    1.1593   -0.4852    2.2082 C   0  0  0  0  0  0  0  0  0  0  0  0
    2.1066   -0.6423    3.4281 C   0  0  2  0  0  0  0  0  0  0  0  0
    3.1687    0.4905    3.3325 C   0  0  0  0  0  0  0  0  0  0  0  0
    2.8988   -2.0012    3.3233 C   0  0  1  0  0  0  0  0  0  0  0  0
    4.2178   -2.1025    4.0847 C   0  0  0  0  0  0  0  0  0  0  0  0
    4.7506   -3.2774    4.4974 C   0  0  0  0  0  0  0  0  0  0  0  0
    4.1061   -4.6347    4.2559 C   0  0  0  0  0  0  0  0  0  0  0  0
    2.8463   -4.5986    3.3281 C   0  0  1  0  0  0  0  0  0  0  0  0
    2.1092   -3.2705    3.6531 C   0  0  0  0  0  0  0  0  0  0  0  0
    0.9635   -3.1789    4.3368 C   0  0  0  0  0  0  0  0  0  0  0  0
    0.3406   -1.8910    4.8223 C   0  0  0  0  0  0  0  0  0  0  0  0
    1.2070   -0.6020    4.7118 C   0  0  2  0  0  0  0  0  0  0  0  0
    3.2444   -4.6563    1.8208 C   0  0  1  0  0  0  0  0  0  0  0  0
    4.4664   -4.0420    1.4711 O   0  0  0  0  0  0  0  0  0  0  0  0
    3.3488   -6.1273    1.4402 C   0  0  0  0  0  0  0  0  0  0  0  0
    2.2185   -6.8283    2.2089 C   0  0  2  0  0  0  0  0  0  0  0  0
    0.9759   -6.8160    1.2797 C   0  0  0  0  0  0  0  0  0  0  0  0
    1.9525   -5.9058    3.4476 C   0  0  1  0  0  0  0  0  0  0  0  0
    1.9499   -6.7210    4.7732 C   0  0  1  0  0  0  0  0  0  0  0  0
    1.3807   -5.9754    5.8287 O   0  0  0  0  0  0  0  0  0  0  0  0
    1.1075   -8.0114    4.6277 C   0  0  0  0  0  0  0  0  0  0  0  0
    1.6078   -9.0483    3.5582 C   0  0  1  0  0  0  0  0  0  0  0  0
    0.3531   -9.6355    2.8575 C   0  0  0  0  0  0  0  0  0  0  0  0
    2.5778   -8.3173    2.5769 C   0  0  2  0  0  0  0  0  0  0  0  0
    4.0035   -8.5546    3.1598 C   0  0  0  0  0  0  0  0  0  0  0  0
    3.9052   -9.6292    4.2564 C   0  0  1  0  0  0  0  0  0  0  0  0
    4.1196   -9.0596    5.5280 O   0  0  0  0  0  0  0  0  0  0  0  0
    2.4992  -10.2343    4.1033 C   0  0  0  0  0  0  0  0  0  0  0  0
    1.9801  -10.9102    5.3903 C   0  0  0  0  0  0  0  0  0  0  0  0
    2.6377  -11.3873    3.0690 C   0  0  0  0  0  0  0  0  0  0  0  0
    0.5816    2.7396    5.6478 H   0  0  0  0  0  0  0  0  0  0  0  0
    1.4408    2.4437    4.1911 H   0  0  0  0  0  0  0  0  0  0  0  0
    2.0301    1.7538    5.6990 H   0  0  0  0  0  0  0  0  0  0  0  0
   -0.1167    0.2037    6.9634 H   0  0  0  0  0  0  0  0  0  0  0  0
   -1.0299    1.5839    6.3894 H   0  0  0  0  0  0  0  0  0  0  0  0
   -2.2343    0.0831    5.0891 H   0  0  0  0  0  0  0  0  0  0  0  0
   -1.3457    0.1454    3.4652 H   0  0  0  0  0  0  0  0  0  0  0  0
   -1.0541    1.8509    3.5861 H   0  0  0  0  0  0  0  0  0  0  0  0
   -0.4384    0.7407    1.4194 H   0  0  0  0  0  0  0  0  0  0  0  0
    0.8385    1.6789    2.0878 H   0  0  0  0  0  0  0  0  0  0  0  0
    0.5321   -1.3691    2.1486 H   0  0  0  0  0  0  0  0  0  0  0  0
    1.7308   -0.4803    1.2826 H   0  0  0  0  0  0  0  0  0  0  0  0
    3.6363    0.6997    4.2962 H   0  0  0  0  0  0  0  0  0  0  0  0
    2.7869    1.4329    2.9501 H   0  0  0  0  0  0  0  0  0  0  0  0
    3.9600    0.2284    2.6285 H   0  0  0  0  0  0  0  0  0  0  0  0
    3.1809   -2.0507    2.2786 H   0  0  0  0  0  0  0  0  0  0  0  0
    4.7652   -1.2026    4.3062 H   0  0  0  0  0  0  0  0  0  0  0  0
    5.6826   -3.2898    5.0401 H   0  0  0  0  0  0  0  0  0  0  0  0
    4.8535   -5.3327    3.8791 H   0  0  0  0  0  0  0  0  0  0  0  0
    3.8379   -4.9647    5.2552 H   0  0  0  0  0  0  0  0  0  0  0  0
    0.3983   -4.0532    4.6274 H   0  0  0  0  0  0  0  0  0  0  0  0
   -0.5886   -1.8029    4.2590 H   0  0  0  0  0  0  0  0  0  0  0  0
    0.0825   -2.0618    5.8690 H   0  0  0  0  0  0  0  0  0  0  0  0
    1.8891   -0.6174    5.5670 H   0  0  0  0  0  0  0  0  0  0  0  0
    2.4557   -4.1994    1.2206 H   0  0  0  0  0  0  0  0  0  0  0  0
    4.3870   -3.1094    1.6304 H   0  0  0  0  0  0  0  0  0  0  0  0
    3.2723   -6.2648    0.3593 H   0  0  0  0  0  0  0  0  0  0  0  0
    4.3344   -6.4905    1.7186 H   0  0  0  0  0  0  0  0  0  0  0  0
    0.0525   -7.0005    1.8240 H   0  0  0  0  0  0  0  0  0  0  0  0
    1.0418   -7.5728    0.4990 H   0  0  0  0  0  0  0  0  0  0  0  0
    0.8579   -5.8592    0.7846 H   0  0  0  0  0  0  0  0  0  0  0  0
    0.9211   -5.5888    3.3262 H   0  0  0  0  0  0  0  0  0  0  0  0
    2.9606   -6.9625    5.0752 H   0  0  0  0  0  0  0  0  0  0  0  0
    1.5461   -6.4465    6.6358 H   0  0  0  0  0  0  0  0  0  0  0  0
    0.9891   -8.4774    5.6008 H   0  0  0  0  0  0  0  0  0  0  0  0
    0.0985   -7.6834    4.3776 H   0  0  0  0  0  0  0  0  0  0  0  0
    0.6083  -10.1157    1.9157 H   0  0  0  0  0  0  0  0  0  0  0  0
   -0.4160   -8.8979    2.6326 H   0  0  0  0  0  0  0  0  0  0  0  0
   -0.1374  -10.3842    3.4825 H   0  0  0  0  0  0  0  0  0  0  0  0
    2.5675   -8.8765    1.6382 H   0  0  0  0  0  0  0  0  0  0  0  0
    4.6657   -8.9009    2.3674 H   0  0  0  0  0  0  0  0  0  0  0  0
    4.4630   -7.6549    3.5687 H   0  0  0  0  0  0  0  0  0  0  0  0
    4.6823  -10.3841    4.1367 H   0  0  0  0  0  0  0  0  0  0  0  0
    3.9588   -9.7344    6.1797 H   0  0  0  0  0  0  0  0  0  0  0  0
    2.6089  -11.7570    5.6613 H   0  0  0  0  0  0  0  0  0  0  0  0
    0.9710  -11.3022    5.2641 H   0  0  0  0  0  0  0  0  0  0  0  0
    1.9613  -10.2562    6.2597 H   0  0  0  0  0  0  0  0  0  0  0  0
    3.3559  -12.1337    3.4050 H   0  0  0  0  0  0  0  0  0  0  0  0
    2.9897  -11.0464    2.0975 H   0  0  0  0  0  0  0  0  0  0  0  0
    1.7047  -11.9277    2.9150 H   0  0  0  0  0  0  0  0  0  0  0  0
  2  1  1  1
  1 37  1  0
  1 38  1  0
  1 39  1  0
  2 18  1  0
  2  3  1  0
  2  5  1  0
  3  4  1  0
  3 40  1  0
  3 41  1  0
  4 42  1  0
  5  6  1  0
  5 43  1  0
  5 44  1  0
  6  7  1  0
  6 45  1  0
  6 46  1  0
  7  8  1  0
  7 47  1  0
  7 48  1  0
  8 18  1  0
  8  9  1  1
  8 10  1  0
  9 49  1  0
  9 50  1  0
  9 51  1  0
 10 15  1  0
 10 11  1  0
 10 52  1  6
 11 12  2  0
 11 53  1  0
 12 13  1  0
 12 54  1  0
 14 13  1  1
 13 55  1  0
 13 56  1  0
 14 24  1  0
 14 15  1  0
 14 19  1  0
 15 16  2  0
 16 17  1  0
 16 57  1  0
 17 18  1  0
 17 58  1  0
 17 59  1  0
 18 60  1  1
 19 20  1  0
 19 21  1  0
 19 61  1  6
 20 62  1  0
 21 22  1  0
 21 63  1  0
 21 64  1  0
 22 30  1  0
 22 23  1  6
 22 24  1  0
 23 65  1  0
 23 66  1  0
 23 67  1  0
 24 25  1  0
 24 68  1  6
 25 26  1  0
 25 27  1  0
 25 69  1  1
 26 70  1  0
 27 28  1  0
 27 71  1  0
 27 72  1  0
 28 34  1  0
 28 29  1  6
 28 30  1  0
 29 73  1  0
 29 74  1  0
 29 75  1  0
 30 31  1  0
 30 76  1  6
 31 32  1  0
 31 77  1  0
 31 78  1  0
 32 33  1  0
 32 34  1  0
 32 79  1  6
 33 80  1  0
 34 35  1  0
 34 36  1  0
 35 81  1  0
 35 82  1  0
 35 83  1  0
 36 84  1  0
 36 85  1  0
 36 86  1  0
M  END
>  <i_m_ct_stereo_status>  (65) 
1

>  <s_m_source_file>  (65) 
/var/tmp/pbs.5076255.sched01/tmp_578sd5a/06fbc0iir.sdf

>  <i_m_source_file_index>  (65) 
31

>  <i_lp_mmshare_version>  (65) 
48012

>  <i_f3d_flags>  (65) 
0

>  <s_epik_input>  (65) 
W0NIMl0xW0NIMl1bQ0gyXVtDQEBdKFtDSDNdKShbQ0gyXVtPSF0pW0NAQEhdKFtDSDJdW0NIXTIpW0NAQF0xKFtDSDNdKVtDQEBIXShbQ0hdPVtDSF1bQ0gyXTMpQz0yW0NAXTM0W0NASF01W0NAQF0oW0NIM10pKFtDSDJdW0NAQEhdNFtPSF0pW0NAQEhdNltDQF0oW0NIM10pKFtDSDJdW0NIXTVbT0hdKUMoW0NIM10pKFtDSDNdKVtDQEBIXShbQ0gyXTYpW09IXQ==

>  <s_epik_cmdline>  (65) 
J2VwaWtfcHl0aG9uJywgJy1waHQnLCAnMi4wJywgJy1waCcsICc3LjAnLCAnLXRuJywgJzgnLCAnLW1hJywgJzIwMCcsICctaW1hZScsICc8aW5maWxlLm1hZT4nLCAnLW9tYWUnLCAnPG91dGZpbGUubWFlPic=

>  <r_lp_tautomer_probability>  (65) 
1

>  <r_epik_Ionization_Penalty>  (65) 
5.15565e-06

>  <r_epik_Ionization_Penalty_Charging>  (65) 
0

>  <r_epik_Ionization_Penalty_Neutral>  (65) 
5.15565e-06

>  <r_epik_State_Penalty>  (65) 
-0

>  <r_epik_Charging_Adjusted_Penalty>  (65) 
0

>  <i_epik_Tot_Q>  (65) 
0

>  <i_epik_Tot_abs_Q>  (65) 
0

>  <s_lp_Force_Field>  (65) 
OPLS3e

>  <r_lp_Energy>  (65) 
92.028

>  <b_lp_Chiralities_Consistent>  (65) 
1

>  <s_lp_Variant>  (65) 
28:0-1

>  <s_i_glide_gridfile>  (65) 
pfpi4k_grid

>  <i_i_glide_lignum>  (65) 
31

>  <i_i_glide_rotatable_bonds>  (65) 
5

>  <r_i_docking_score>  (65) 
-2.06607

>  <r_i_glide_ligand_efficiency>  (65) 
-0.0573908

>  <r_i_glide_ligand_efficiency_sa>  (65) 
-0.1895

>  <r_i_glide_ligand_efficiency_ln>  (65) 
-0.45076

>  <r_i_glide_gscore>  (65) 
-2.06607

>  <r_i_glide_lipo>  (65) 
-0.100877

>  <r_i_glide_hbond>  (65) 
-0.135818

>  <r_i_glide_metal>  (65) 
-0

>  <r_i_glide_rewards>  (65) 
-0.00861136

>  <r_i_glide_evdw>  (65) 
-24.8654

>  <r_i_glide_ecoul>  (65) 
-4.39693

>  <r_i_glide_erotb>  (65) 
0.0820462

>  <r_i_glide_esite>  (65) 
0

>  <r_i_glide_emodel>  (65) 
-31.4815

>  <r_i_glide_energy>  (65) 
-29.2623

>  <r_i_glide_einternal>  (65) 
4.2485

>  <r_i_glide_intrahb_reward>  (65) 
-0

>  <i_i_glide_confnum>  (65) 
4

>  <i_i_glide_posenum>  (65) 
15

>  <r_i_glide_eff_state_penalty>  (65) 
0

>  <ligand_id>  (65) 
28

>  <original_smiles>  (65) 
CC1(CO)CCCC2(C)C3C=CCC4(C3=CCC12)C(O)CC1(C)C4C(O)CC2(C)C1CC(O)C2(C)C

>  <smiles>  (65) 
[H]OC([H])([H])C1(C([H])([H])[H])C([H])([H])C([H])([H])C([H])([H])C2(C([H])([H])[H])C3([H])C([H])=C([H])C([H])([H])C4(C3=C([H])C([H])([H])C12[H])C([H])(O[H])C([H])([H])C1(C([H])([H])[H])C4([H])C([H])(O[H])C([H])([H])C2(C([H])([H])[H])C1([H])C([H])([H])C([H])(O[H])C2(C([H])([H])[H])C([H])([H])[H]

$$$$
28:0:2
     RDKit          3D

 86 91  0  0  1  0  0  0  0  0999 V2000
    0.8799    2.0294    5.2008 C   0  0  0  0  0  0  0  0  0  0  0  0
    0.0754    0.7531    4.8286 C   0  0  1  0  0  0  0  0  0  0  0  0
   -1.0517    0.6240    5.9025 C   0  0  0  0  0  0  0  0  0  0  0  0
   -0.5646    0.2915    7.1926 O   0  0  0  0  0  0  0  0  0  0  0  0
   -0.6255    0.9672    3.4564 C   0  0  0  0  0  0  0  0  0  0  0  0
    0.3104    0.8662    2.2379 C   0  0  0  0  0  0  0  0  0  0  0  0
    1.2069   -0.3941    2.2609 C   0  0  0  0  0  0  0  0  0  0  0  0
    2.0126   -0.5729    3.5778 C   0  0  2  0  0  0  0  0  0  0  0  0
    3.0854    0.5511    3.6295 C   0  0  0  0  0  0  0  0  0  0  0  0
    2.7982   -1.9393    3.5443 C   0  0  1  0  0  0  0  0  0  0  0  0
    4.0209   -2.0687    4.4580 C   0  0  0  0  0  0  0  0  0  0  0  0
    4.4917   -3.2508    4.9023 C   0  0  0  0  0  0  0  0  0  0  0  0
    3.8687   -4.5982    4.5641 C   0  0  0  0  0  0  0  0  0  0  0  0
    2.7236   -4.5320    3.4989 C   0  0  1  0  0  0  0  0  0  0  0  0
    1.9635   -3.2001    3.7615 C   0  0  0  0  0  0  0  0  0  0  0  0
    0.7352   -3.1067    4.3048 C   0  0  0  0  0  0  0  0  0  0  0  0
    0.0754   -1.8189    4.7411 C   0  0  0  0  0  0  0  0  0  0  0  0
    0.9783   -0.5459    4.7589 C   0  0  2  0  0  0  0  0  0  0  0  0
    3.2974   -4.5684    2.0474 C   0  0  1  0  0  0  0  0  0  0  0  0
    4.5578   -3.9584    1.8498 O   0  0  0  0  0  0  0  0  0  0  0  0
    3.4313   -6.0332    1.6579 C   0  0  0  0  0  0  0  0  0  0  0  0
    2.2162   -6.7353    2.2858 C   0  0  2  0  0  0  0  0  0  0  0  0
    1.0841   -6.6963    1.2312 C   0  0  0  0  0  0  0  0  0  0  0  0
    1.8132   -5.8299    3.4946 C   0  0  1  0  0  0  0  0  0  0  0  0
    1.6492   -6.6682    4.7954 C   0  0  1  0  0  0  0  0  0  0  0  0
    1.0078   -5.9360    5.8186 O   0  0  0  0  0  0  0  0  0  0  0  0
    0.8221   -7.9506    4.5307 C   0  0  0  0  0  0  0  0  0  0  0  0
    1.4379   -8.9705    3.5031 C   0  0  1  0  0  0  0  0  0  0  0  0
    0.2723   -9.5392    2.6462 C   0  0  0  0  0  0  0  0  0  0  0  0
    2.5229   -8.2352    2.6572 C   0  0  2  0  0  0  0  0  0  0  0  0
    3.8687   -8.4996    3.3960 C   0  0  0  0  0  0  0  0  0  0  0  0
    3.6374   -9.5929    4.4512 C   0  0  1  0  0  0  0  0  0  0  0  0
    3.7075   -9.0501    5.7542 O   0  0  0  0  0  0  0  0  0  0  0  0
    2.2514  -10.1768    4.1250 C   0  0  0  0  0  0  0  0  0  0  0  0
    1.5776  -10.8727    5.3261 C   0  0  0  0  0  0  0  0  0  0  0  0
    2.5012  -11.3199    3.0990 C   0  0  0  0  0  0  0  0  0  0  0  0
    0.2576    2.7854    5.6808 H   0  0  0  0  0  0  0  0  0  0  0  0
    1.2884    2.5259    4.3234 H   0  0  0  0  0  0  0  0  0  0  0  0
    1.7043    1.8117    5.8802 H   0  0  0  0  0  0  0  0  0  0  0  0
   -1.6106    1.5598    5.9692 H   0  0  0  0  0  0  0  0  0  0  0  0
   -1.7890   -0.1311    5.6233 H   0  0  0  0  0  0  0  0  0  0  0  0
    0.0640    0.9480    7.4601 H   0  0  0  0  0  0  0  0  0  0  0  0
   -1.4264    0.2409    3.3266 H   0  0  0  0  0  0  0  0  0  0  0  0
   -1.1257    1.9357    3.4415 H   0  0  0  0  0  0  0  0  0  0  0  0
   -0.2920    0.8590    1.3284 H   0  0  0  0  0  0  0  0  0  0  0  0
    0.9114    1.7713    2.1566 H   0  0  0  0  0  0  0  0  0  0  0  0
    0.5859   -1.2721    2.1034 H   0  0  0  0  0  0  0  0  0  0  0  0
    1.8757   -0.3687    1.3994 H   0  0  0  0  0  0  0  0  0  0  0  0
    3.4370    0.7351    4.6455 H   0  0  0  0  0  0  0  0  0  0  0  0
    2.7548    1.5010    3.2235 H   0  0  0  0  0  0  0  0  0  0  0  0
    3.9518    0.2916    3.0193 H   0  0  0  0  0  0  0  0  0  0  0  0
    3.2011   -1.9747    2.5369 H   0  0  0  0  0  0  0  0  0  0  0  0
    4.5447   -1.1767    4.7542 H   0  0  0  0  0  0  0  0  0  0  0  0
    5.3562   -3.2819    5.5496 H   0  0  0  0  0  0  0  0  0  0  0  0
    4.6483   -5.2973    4.2632 H   0  0  0  0  0  0  0  0  0  0  0  0
    3.4868   -4.9450    5.5209 H   0  0  0  0  0  0  0  0  0  0  0  0
    0.1384   -3.9780    4.5040 H   0  0  0  0  0  0  0  0  0  0  0  0
   -0.7928   -1.7009    4.0945 H   0  0  0  0  0  0  0  0  0  0  0  0
   -0.2961   -2.0085    5.7473 H   0  0  0  0  0  0  0  0  0  0  0  0
    1.5630   -0.5972    5.6809 H   0  0  0  0  0  0  0  0  0  0  0  0
    2.5873   -4.0978    1.3669 H   0  0  0  0  0  0  0  0  0  0  0  0
    4.4669   -3.0339    2.0207 H   0  0  0  0  0  0  0  0  0  0  0  0
    3.4803   -6.1605    0.5747 H   0  0  0  0  0  0  0  0  0  0  0  0
    4.3778   -6.4115    2.0372 H   0  0  0  0  0  0  0  0  0  0  0  0
    0.0998   -6.8656    1.6582 H   0  0  0  0  0  0  0  0  0  0  0  0
    1.2379   -7.4750    0.4881 H   0  0  0  0  0  0  0  0  0  0  0  0
    1.0429   -5.7419    0.7099 H   0  0  0  0  0  0  0  0  0  0  0  0
    0.8086   -5.4997    3.2587 H   0  0  0  0  0  0  0  0  0  0  0  0
    2.6176   -6.9365    5.1971 H   0  0  0  0  0  0  0  0  0  0  0  0
    0.1267   -5.7511    5.5403 H   0  0  0  0  0  0  0  0  0  0  0  0
    0.5895   -8.4330    5.4737 H   0  0  0  0  0  0  0  0  0  0  0  0
   -0.1489   -7.6149    4.1671 H   0  0  0  0  0  0  0  0  0  0  0  0
    0.6401  -10.0095    1.7347 H   0  0  0  0  0  0  0  0  0  0  0  0
   -0.4586   -8.7941    2.3415 H   0  0  0  0  0  0  0  0  0  0  0  0
   -0.2923  -10.2935    3.1968 H   0  0  0  0  0  0  0  0  0  0  0  0
    2.6173   -8.7778    1.7136 H   0  0  0  0  0  0  0  0  0  0  0  0
    4.6148   -8.8377    2.6769 H   0  0  0  0  0  0  0  0  0  0  0  0
    4.2830   -7.6106    3.8706 H   0  0  0  0  0  0  0  0  0  0  0  0
    4.4163  -10.3548    4.4052 H   0  0  0  0  0  0  0  0  0  0  0  0
    3.4579   -9.7298    6.3636 H   0  0  0  0  0  0  0  0  0  0  0  0
    2.1763  -11.7224    5.6520 H   0  0  0  0  0  0  0  0  0  0  0  0
    0.5896  -11.2592    5.0755 H   0  0  0  0  0  0  0  0  0  0  0  0
    1.4615  -10.2343    6.1984 H   0  0  0  0  0  0  0  0  0  0  0  0
    3.1757  -12.0750    3.5016 H   0  0  0  0  0  0  0  0  0  0  0  0
    2.9537  -10.9727    2.1712 H   0  0  0  0  0  0  0  0  0  0  0  0
    1.5844  -11.8543    2.8565 H   0  0  0  0  0  0  0  0  0  0  0  0
  2  1  1  1
  1 37  1  0
  1 38  1  0
  1 39  1  0
  2 18  1  0
  2  3  1  0
  2  5  1  0
  3  4  1  0
  3 40  1  0
  3 41  1  0
  4 42  1  0
  5  6  1  0
  5 43  1  0
  5 44  1  0
  6  7  1  0
  6 45  1  0
  6 46  1  0
  7  8  1  0
  7 47  1  0
  7 48  1  0
  8 18  1  0
  8  9  1  1
  8 10  1  0
  9 49  1  0
  9 50  1  0
  9 51  1  0
 10 15  1  0
 10 11  1  0
 10 52  1  6
 11 12  2  0
 11 53  1  0
 12 13  1  0
 12 54  1  0
 14 13  1  1
 13 55  1  0
 13 56  1  0
 14 24  1  0
 14 15  1  0
 14 19  1  0
 15 16  2  0
 16 17  1  0
 16 57  1  0
 17 18  1  0
 17 58  1  0
 17 59  1  0
 18 60  1  1
 19 20  1  0
 19 21  1  0
 19 61  1  6
 20 62  1  0
 21 22  1  0
 21 63  1  0
 21 64  1  0
 22 30  1  0
 22 23  1  6
 22 24  1  0
 23 65  1  0
 23 66  1  0
 23 67  1  0
 24 25  1  0
 24 68  1  6
 25 26  1  0
 25 27  1  0
 25 69  1  1
 26 70  1  0
 27 28  1  0
 27 71  1  0
 27 72  1  0
 28 34  1  0
 28 29  1  6
 28 30  1  0
 29 73  1  0
 29 74  1  0
 29 75  1  0
 30 31  1  0
 30 76  1  6
 31 32  1  0
 31 77  1  0
 31 78  1  0
 32 33  1  0
 32 34  1  0
 32 79  1  1
 33 80  1  0
 34 35  1  0
 34 36  1  0
 35 81  1  0
 35 82  1  0
 35 83  1  0
 36 84  1  0
 36 85  1  0
 36 86  1  0
M  END
>  <i_m_ct_stereo_status>  (66) 
1

>  <s_m_source_file>  (66) 
/var/tmp/pbs.5076255.sched01/tmp_578sd5a/06fbc0iir.sdf

>  <i_m_source_file_index>  (66) 
31

>  <i_lp_mmshare_version>  (66) 
48012

>  <i_f3d_flags>  (66) 
0

>  <s_epik_input>  (66) 
W0NIMl0xW0NIMl1bQ0gyXVtDQEBdKFtDSDNdKShbQ0gyXVtPSF0pW0NAQEhdKFtDSDJdW0NIXTIpW0NAQF0xKFtDSDNdKVtDQEBIXShbQ0hdPVtDSF1bQ0gyXTMpQz0yW0NAXTM0W0NASF01W0NAQF0oW0NIM10pKFtDSDJdW0NAQEhdNFtPSF0pW0NAQEhdNltDQF0oW0NIM10pKFtDSDJdW0NIXTVbT0hdKUMoW0NIM10pKFtDSDNdKVtDQEBIXShbQ0gyXTYpW09IXQ==

>  <s_epik_cmdline>  (66) 
J2VwaWtfcHl0aG9uJywgJy1waHQnLCAnMi4wJywgJy1waCcsICc3LjAnLCAnLXRuJywgJzgnLCAnLW1hJywgJzIwMCcsICctaW1hZScsICc8aW5maWxlLm1hZT4nLCAnLW9tYWUnLCAnPG91dGZpbGUubWFlPic=

>  <r_lp_tautomer_probability>  (66) 
1

>  <r_epik_Ionization_Penalty>  (66) 
5.15565e-06

>  <r_epik_Ionization_Penalty_Charging>  (66) 
0

>  <r_epik_Ionization_Penalty_Neutral>  (66) 
5.15565e-06

>  <r_epik_State_Penalty>  (66) 
-0

>  <r_epik_Charging_Adjusted_Penalty>  (66) 
0

>  <i_epik_Tot_Q>  (66) 
0

>  <i_epik_Tot_abs_Q>  (66) 
0

>  <s_lp_Force_Field>  (66) 
OPLS3e

>  <r_lp_Energy>  (66) 
92.028

>  <b_lp_Chiralities_Consistent>  (66) 
1

>  <s_lp_Variant>  (66) 
28:0-1

>  <s_i_glide_gridfile>  (66) 
pfpi4k_grid

>  <i_i_glide_lignum>  (66) 
31

>  <i_i_glide_rotatable_bonds>  (66) 
5

>  <r_i_docking_score>  (66) 
-1.72966

>  <r_i_glide_ligand_efficiency>  (66) 
-0.0480461

>  <r_i_glide_ligand_efficiency_sa>  (66) 
-0.158645

>  <r_i_glide_ligand_efficiency_ln>  (66) 
-0.377365

>  <r_i_glide_gscore>  (66) 
-1.72966

>  <r_i_glide_lipo>  (66) 
-0.0781869

>  <r_i_glide_hbond>  (66) 
-0.034209

>  <r_i_glide_metal>  (66) 
-0

>  <r_i_glide_rewards>  (66) 
-0.00861136

>  <r_i_glide_evdw>  (66) 
-24.0936

>  <r_i_glide_ecoul>  (66) 
-3.24012

>  <r_i_glide_erotb>  (66) 
0.0820462

>  <r_i_glide_esite>  (66) 
0

>  <r_i_glide_emodel>  (66) 
-30.6033

>  <r_i_glide_energy>  (66) 
-27.3337

>  <r_i_glide_einternal>  (66) 
0.763079

>  <r_i_glide_intrahb_reward>  (66) 
-0

>  <i_i_glide_confnum>  (66) 
4

>  <i_i_glide_posenum>  (66) 
35

>  <r_i_glide_eff_state_penalty>  (66) 
0

>  <ligand_id>  (66) 
28

>  <original_smiles>  (66) 
CC1(CO)CCCC2(C)C3C=CCC4(C3=CCC12)C(O)CC1(C)C4C(O)CC2(C)C1CC(O)C2(C)C

>  <smiles>  (66) 
[H]OC([H])([H])C1(C([H])([H])[H])C([H])([H])C([H])([H])C([H])([H])C2(C([H])([H])[H])C3([H])C([H])=C([H])C([H])([H])C4(C3=C([H])C([H])([H])C12[H])C([H])(O[H])C([H])([H])C1(C([H])([H])[H])C4([H])C([H])(O[H])C([H])([H])C2(C([H])([H])[H])C1([H])C([H])([H])C([H])(O[H])C2(C([H])([H])[H])C([H])([H])[H]

$$$$
29:0:0
     RDKit          3D

 21 22  0  0  1  0  0  0  0  0999 V2000
    4.6273   -3.4857   -3.4688 C   0  0  0  0  0  0  0  0  0  0  0  0
    4.9440   -3.4023   -2.1660 C   0  0  0  0  0  0  0  0  0  0  0  0
    6.3771   -3.2207   -1.6861 C   0  0  1  0  0  0  0  0  0  0  0  0
    6.6178   -1.8830   -1.1707 O   0  0  0  0  0  0  0  0  0  0  0  0
    6.9975   -2.4325    0.1202 C   0  0  0  0  0  0  0  0  0  0  0  0
    6.6704   -3.8539   -0.3275 C   0  0  1  0  0  0  0  0  0  0  0  0
    5.4868   -4.4136    0.3289 N   0  0  0  0  0  0  0  0  0  0  0  0
    4.2055   -4.2853   -0.0575 C   0  0  0  0  0  0  0  0  0  0  0  0
    3.3052   -4.8147    0.5933 O   0  0  0  0  0  0  0  0  0  0  0  0
    3.9822   -3.5082   -1.1465 N   0  0  0  0  0  0  0  0  0  0  0  0
    2.6146   -3.0592   -1.4192 C   0  0  0  0  0  0  0  0  0  0  0  0
    3.6112   -3.6637   -3.8023 H   0  0  0  0  0  0  0  0  0  0  0  0
    5.4013   -3.4593   -4.2229 H   0  0  0  0  0  0  0  0  0  0  0  0
    7.1196   -3.4972   -2.4362 H   0  0  0  0  0  0  0  0  0  0  0  0
    8.0609   -2.2890    0.3216 H   0  0  0  0  0  0  0  0  0  0  0  0
    6.3857   -2.0492    0.9382 H   0  0  0  0  0  0  0  0  0  0  0  0
    7.5472   -4.5025   -0.3188 H   0  0  0  0  0  0  0  0  0  0  0  0
    5.6358   -4.9895    1.1429 H   0  0  0  0  0  0  0  0  0  0  0  0
    2.0791   -2.8746   -0.4872 H   0  0  0  0  0  0  0  0  0  0  0  0
    2.0539   -3.8019   -1.9908 H   0  0  0  0  0  0  0  0  0  0  0  0
    2.6153   -2.1132   -1.9614 H   0  0  0  0  0  0  0  0  0  0  0  0
  1  2  2  0
  1 12  1  0
  1 13  1  0
  2 10  1  0
  2  3  1  0
  3  6  1  0
  3  4  1  0
  3 14  1  6
  4  5  1  0
  5  6  1  0
  5 15  1  0
  5 16  1  0
  6  7  1  0
  6 17  1  6
  7  8  1  0
  7 18  1  0
  8  9  2  0
  8 10  1  0
 10 11  1  0
 11 19  1  0
 11 20  1  0
 11 21  1  0
M  END
>  <i_m_ct_stereo_status>  (67) 
1

>  <s_m_source_file>  (67) 
/var/tmp/pbs.5076255.sched01/tmp_578sd5a/06fbc0iir.sdf

>  <i_m_source_file_index>  (67) 
32

>  <i_lp_mmshare_version>  (67) 
48012

>  <i_f3d_flags>  (67) 
0

>  <s_epik_input>  (67) 
W0NIMl09QzFOKFtDSDNdKUMoPU8pW05IXVtDQEBIXShbQ0BASF0xMilbQ0gyXU8y

>  <s_epik_cmdline>  (67) 
J2VwaWtfcHl0aG9uJywgJy1waHQnLCAnMi4wJywgJy1waCcsICc3LjAnLCAnLXRuJywgJzgnLCAnLW1hJywgJzIwMCcsICctaW1hZScsICc8aW5maWxlLm1hZT4nLCAnLW9tYWUnLCAnPG91dGZpbGUubWFlPic=

>  <r_lp_tautomer_probability>  (67) 
1

>  <r_epik_Ionization_Penalty>  (67) 
2.70816e-05

>  <r_epik_Ionization_Penalty_Charging>  (67) 
0

>  <r_epik_Ionization_Penalty_Neutral>  (67) 
2.70816e-05

>  <r_epik_State_Penalty>  (67) 
-0

>  <r_epik_Charging_Adjusted_Penalty>  (67) 
0

>  <i_epik_Tot_Q>  (67) 
0

>  <i_epik_Tot_abs_Q>  (67) 
0

>  <s_lp_Force_Field>  (67) 
OPLS3e

>  <r_lp_Energy>  (67) 
23.749

>  <b_lp_Chiralities_Consistent>  (67) 
1

>  <s_lp_Variant>  (67) 
29:0-1

>  <s_i_glide_gridfile>  (67) 
pfpi4k_grid

>  <i_i_glide_lignum>  (67) 
32

>  <i_i_glide_rotatable_bonds>  (67) 
0

>  <r_i_docking_score>  (67) 
-4.05181

>  <r_i_glide_ligand_efficiency>  (67) 
-0.368347

>  <r_i_glide_ligand_efficiency_sa>  (67) 
-0.819195

>  <r_i_glide_ligand_efficiency_ln>  (67) 
-1.19245

>  <r_i_glide_gscore>  (67) 
-4.05181

>  <r_i_glide_lipo>  (67) 
-0.535017

>  <r_i_glide_hbond>  (67) 
-0.16

>  <r_i_glide_metal>  (67) 
-0

>  <r_i_glide_rewards>  (67) 
-2.25

>  <r_i_glide_evdw>  (67) 
-14.9672

>  <r_i_glide_ecoul>  (67) 
-2.30831

>  <r_i_glide_erotb>  (67) 
0

>  <r_i_glide_esite>  (67) 
-0.0121887

>  <r_i_glide_emodel>  (67) 
-21.8647

>  <r_i_glide_energy>  (67) 
-17.2755

>  <r_i_glide_einternal>  (67) 
0

>  <r_i_glide_intrahb_reward>  (67) 
-0

>  <i_i_glide_confnum>  (67) 
2

>  <i_i_glide_posenum>  (67) 
25

>  <r_i_glide_eff_state_penalty>  (67) 
0

>  <ligand_id>  (67) 
29

>  <original_smiles>  (67) 
C=C1C2OCC2NC(=O)N1C

>  <smiles>  (67) 
[H]C([H])=C1N(C([H])([H])[H])C(=O)N([H])C2([H])C([H])([H])OC12[H]

$$$$
29:0:1
     RDKit          3D

 21 22  0  0  1  0  0  0  0  0999 V2000
    3.8149   -0.1527   -3.1332 C   0  0  0  0  0  0  0  0  0  0  0  0
    4.3156   -1.2716   -2.5932 C   0  0  0  0  0  0  0  0  0  0  0  0
    5.3001   -1.2451   -1.4356 C   0  0  1  0  0  0  0  0  0  0  0  0
    4.7037   -1.7272   -0.2067 O   0  0  0  0  0  0  0  0  0  0  0  0
    5.6930   -2.7836   -0.1198 C   0  0  0  0  0  0  0  0  0  0  0  0
    6.3063   -2.3868   -1.4582 C   0  0  1  0  0  0  0  0  0  0  0  0
    6.0532   -3.3692   -2.5180 N   0  0  0  0  0  0  0  0  0  0  0  0
    4.9900   -3.4323   -3.3365 C   0  0  0  0  0  0  0  0  0  0  0  0
    4.9328   -4.2495   -4.2497 O   0  0  0  0  0  0  0  0  0  0  0  0
    4.0023   -2.5456   -3.0920 N   0  0  0  0  0  0  0  0  0  0  0  0
    2.6922   -2.7576   -3.7127 C   0  0  0  0  0  0  0  0  0  0  0  0
    3.1332   -0.1513   -3.9672 H   0  0  0  0  0  0  0  0  0  0  0  0
    4.1021    0.8119   -2.7344 H   0  0  0  0  0  0  0  0  0  0  0  0
    5.7852   -0.2775   -1.2952 H   0  0  0  0  0  0  0  0  0  0  0  0
    6.3756   -2.6260    0.7190 H   0  0  0  0  0  0  0  0  0  0  0  0
    5.2490   -3.7816   -0.0912 H   0  0  0  0  0  0  0  0  0  0  0  0
    7.3408   -2.0576   -1.3503 H   0  0  0  0  0  0  0  0  0  0  0  0
    6.7940   -4.0230   -2.7133 H   0  0  0  0  0  0  0  0  0  0  0  0
    2.4570   -3.8222   -3.7812 H   0  0  0  0  0  0  0  0  0  0  0  0
    2.6748   -2.3409   -4.7162 H   0  0  0  0  0  0  0  0  0  0  0  0
    1.9013   -2.2969   -3.1170 H   0  0  0  0  0  0  0  0  0  0  0  0
  1  2  2  0
  1 12  1  0
  1 13  1  0
  2 10  1  0
  2  3  1  0
  3  6  1  0
  3  4  1  0
  3 14  1  1
  4  5  1  0
  5  6  1  0
  5 15  1  0
  5 16  1  0
  6  7  1  0
  6 17  1  1
  7  8  1  0
  7 18  1  0
  8  9  2  0
  8 10  1  0
 10 11  1  0
 11 19  1  0
 11 20  1  0
 11 21  1  0
M  END
>  <i_m_ct_stereo_status>  (68) 
1

>  <s_m_source_file>  (68) 
/var/tmp/pbs.5076255.sched01/tmp_578sd5a/06fbc0iir.sdf

>  <i_m_source_file_index>  (68) 
32

>  <i_lp_mmshare_version>  (68) 
48012

>  <i_f3d_flags>  (68) 
0

>  <s_epik_input>  (68) 
W0NIMl09QzFOKFtDSDNdKUMoPU8pW05IXVtDQEBIXShbQ0BASF0xMilbQ0gyXU8y

>  <s_epik_cmdline>  (68) 
J2VwaWtfcHl0aG9uJywgJy1waHQnLCAnMi4wJywgJy1waCcsICc3LjAnLCAnLXRuJywgJzgnLCAnLW1hJywgJzIwMCcsICctaW1hZScsICc8aW5maWxlLm1hZT4nLCAnLW9tYWUnLCAnPG91dGZpbGUubWFlPic=

>  <r_lp_tautomer_probability>  (68) 
1

>  <r_epik_Ionization_Penalty>  (68) 
2.70816e-05

>  <r_epik_Ionization_Penalty_Charging>  (68) 
0

>  <r_epik_Ionization_Penalty_Neutral>  (68) 
2.70816e-05

>  <r_epik_State_Penalty>  (68) 
-0

>  <r_epik_Charging_Adjusted_Penalty>  (68) 
0

>  <i_epik_Tot_Q>  (68) 
0

>  <i_epik_Tot_abs_Q>  (68) 
0

>  <s_lp_Force_Field>  (68) 
OPLS3e

>  <r_lp_Energy>  (68) 
23.749

>  <b_lp_Chiralities_Consistent>  (68) 
1

>  <s_lp_Variant>  (68) 
29:0-1

>  <s_i_glide_gridfile>  (68) 
pfpi4k_grid

>  <i_i_glide_lignum>  (68) 
32

>  <i_i_glide_rotatable_bonds>  (68) 
0

>  <r_i_docking_score>  (68) 
-4.00375

>  <r_i_glide_ligand_efficiency>  (68) 
-0.363977

>  <r_i_glide_ligand_efficiency_sa>  (68) 
-0.809478

>  <r_i_glide_ligand_efficiency_ln>  (68) 
-1.1783

>  <r_i_glide_gscore>  (68) 
-4.00375

>  <r_i_glide_lipo>  (68) 
-0.3654

>  <r_i_glide_hbond>  (68) 
0

>  <r_i_glide_metal>  (68) 
-0

>  <r_i_glide_rewards>  (68) 
-2.73604

>  <r_i_glide_evdw>  (68) 
-17.6968

>  <r_i_glide_ecoul>  (68) 
-0.116439

>  <r_i_glide_erotb>  (68) 
0

>  <r_i_glide_esite>  (68) 
0

>  <r_i_glide_emodel>  (68) 
-22.2382

>  <r_i_glide_energy>  (68) 
-17.8133

>  <r_i_glide_einternal>  (68) 
0

>  <r_i_glide_intrahb_reward>  (68) 
-0

>  <i_i_glide_confnum>  (68) 
1

>  <i_i_glide_posenum>  (68) 
12

>  <r_i_glide_eff_state_penalty>  (68) 
0

>  <ligand_id>  (68) 
29

>  <original_smiles>  (68) 
C=C1C2OCC2NC(=O)N1C

>  <smiles>  (68) 
[H]C([H])=C1N(C([H])([H])[H])C(=O)N([H])C2([H])C([H])([H])OC12[H]

$$$$
29:0:2
     RDKit          3D

 21 22  0  0  1  0  0  0  0  0999 V2000
   -1.2469    0.5215    4.3804 C   0  0  0  0  0  0  0  0  0  0  0  0
   -0.5351    1.5494    3.8916 C   0  0  0  0  0  0  0  0  0  0  0  0
    0.9835    1.5493    3.8904 C   0  0  1  0  0  0  0  0  0  0  0  0
    1.5295    1.3624    2.5581 O   0  0  0  0  0  0  0  0  0  0  0  0
    2.2236    2.6360    2.6484 C   0  0  0  0  0  0  0  0  0  0  0  0
    1.6177    2.9276    4.0173 C   0  0  1  0  0  0  0  0  0  0  0  0
    0.6432    4.0258    4.0045 N   0  0  0  0  0  0  0  0  0  0  0  0
   -0.6658    3.9407    3.6893 C   0  0  0  0  0  0  0  0  0  0  0  0
   -1.3808    4.9443    3.6941 O   0  0  0  0  0  0  0  0  0  0  0  0
   -1.1373    2.7113    3.3758 N   0  0  0  0  0  0  0  0  0  0  0  0
   -2.4564    2.6107    2.7401 C   0  0  0  0  0  0  0  0  0  0  0  0
   -2.3282    0.5491    4.4229 H   0  0  0  0  0  0  0  0  0  0  0  0
   -0.7504   -0.3444    4.7975 H   0  0  0  0  0  0  0  0  0  0  0  0
    1.4153    0.8440    4.6024 H   0  0  0  0  0  0  0  0  0  0  0  0
    3.3023    2.4915    2.7003 H   0  0  0  0  0  0  0  0  0  0  0  0
    1.9491    3.3279    1.8492 H   0  0  0  0  0  0  0  0  0  0  0  0
    2.3692    2.9801    4.8030 H   0  0  0  0  0  0  0  0  0  0  0  0
    0.9908    4.9503    4.2067 H   0  0  0  0  0  0  0  0  0  0  0  0
   -2.6573    3.4656    2.0910 H   0  0  0  0  0  0  0  0  0  0  0  0
   -3.2568    2.5517    3.4778 H   0  0  0  0  0  0  0  0  0  0  0  0
   -2.4947    1.7435    2.0870 H   0  0  0  0  0  0  0  0  0  0  0  0
  1  2  2  0
  1 12  1  0
  1 13  1  0
  2 10  1  0
  2  3  1  0
  3  6  1  0
  3  4  1  0
  3 14  1  1
  4  5  1  0
  5  6  1  0
  5 15  1  0
  5 16  1  0
  6  7  1  0
  6 17  1  1
  7  8  1  0
  7 18  1  0
  8  9  2  0
  8 10  1  0
 10 11  1  0
 11 19  1  0
 11 20  1  0
 11 21  1  0
M  END
>  <i_m_ct_stereo_status>  (69) 
1

>  <s_m_source_file>  (69) 
/var/tmp/pbs.5076255.sched01/tmp_578sd5a/06fbc0iir.sdf

>  <i_m_source_file_index>  (69) 
32

>  <i_lp_mmshare_version>  (69) 
48012

>  <i_f3d_flags>  (69) 
0

>  <s_epik_input>  (69) 
W0NIMl09QzFOKFtDSDNdKUMoPU8pW05IXVtDQEBIXShbQ0BASF0xMilbQ0gyXU8y

>  <s_epik_cmdline>  (69) 
J2VwaWtfcHl0aG9uJywgJy1waHQnLCAnMi4wJywgJy1waCcsICc3LjAnLCAnLXRuJywgJzgnLCAnLW1hJywgJzIwMCcsICctaW1hZScsICc8aW5maWxlLm1hZT4nLCAnLW9tYWUnLCAnPG91dGZpbGUubWFlPic=

>  <r_lp_tautomer_probability>  (69) 
1

>  <r_epik_Ionization_Penalty>  (69) 
2.70816e-05

>  <r_epik_Ionization_Penalty_Charging>  (69) 
0

>  <r_epik_Ionization_Penalty_Neutral>  (69) 
2.70816e-05

>  <r_epik_State_Penalty>  (69) 
-0

>  <r_epik_Charging_Adjusted_Penalty>  (69) 
0

>  <i_epik_Tot_Q>  (69) 
0

>  <i_epik_Tot_abs_Q>  (69) 
0

>  <s_lp_Force_Field>  (69) 
OPLS3e

>  <r_lp_Energy>  (69) 
23.749

>  <b_lp_Chiralities_Consistent>  (69) 
1

>  <s_lp_Variant>  (69) 
29:0-1

>  <s_i_glide_gridfile>  (69) 
pfpi4k_grid

>  <i_i_glide_lignum>  (69) 
32

>  <i_i_glide_rotatable_bonds>  (69) 
0

>  <r_i_docking_score>  (69) 
-3.92207

>  <r_i_glide_ligand_efficiency>  (69) 
-0.356552

>  <r_i_glide_ligand_efficiency_sa>  (69) 
-0.792964

>  <r_i_glide_ligand_efficiency_ln>  (69) 
-1.15426

>  <r_i_glide_gscore>  (69) 
-3.92207

>  <r_i_glide_lipo>  (69) 
0

>  <r_i_glide_hbond>  (69) 
-0.159137

>  <r_i_glide_metal>  (69) 
-0

>  <r_i_glide_rewards>  (69) 
-2.25

>  <r_i_glide_evdw>  (69) 
-11.3313

>  <r_i_glide_ecoul>  (69) 
-4.85858

>  <r_i_glide_erotb>  (69) 
0

>  <r_i_glide_esite>  (69) 
-0.217581

>  <r_i_glide_emodel>  (69) 
-20.6406

>  <r_i_glide_energy>  (69) 
-16.1899

>  <r_i_glide_einternal>  (69) 
0

>  <r_i_glide_intrahb_reward>  (69) 
-0

>  <i_i_glide_confnum>  (69) 
1

>  <i_i_glide_posenum>  (69) 
1

>  <r_i_glide_eff_state_penalty>  (69) 
0

>  <ligand_id>  (69) 
29

>  <original_smiles>  (69) 
C=C1C2OCC2NC(=O)N1C

>  <smiles>  (69) 
[H]C([H])=C1N(C([H])([H])[H])C(=O)N([H])C2([H])C([H])([H])OC12[H]

$$$$
30:1:0
     RDKit          3D

 50 54  0  0  1  0  0  0  0  0999 V2000
    4.7988   -0.8697   -0.7546 C   0  0  0  0  0  0  0  0  0  0  0  0
    5.5663   -2.1763   -1.0197 C   0  0  2  0  0  0  0  0  0  0  0  0
    4.8163   -3.0030   -2.0458 C   0  0  0  0  0  0  0  0  0  0  0  0
    4.6884   -2.6812   -3.2273 O   0  0  0  0  0  0  0  0  0  0  0  0
    4.3320   -4.0920   -1.4734 O   0  0  0  0  0  0  0  0  0  0  0  0
    4.6176   -4.2485   -0.0953 C   0  0  2  0  0  0  0  0  0  0  0  0
    4.9971   -5.7152    0.2097 C   0  0  0  0  0  0  0  0  0  0  0  0
    4.3514   -6.5603    1.0697 C   0  0  0  0  0  0  0  0  0  0  0  0
    3.0520   -6.3182    1.9402 C   0  0  2  0  0  0  0  0  0  0  0  0
    2.0160   -5.8501    0.8892 C   0  0  0  0  0  0  0  0  0  0  0  0
    1.0106   -6.4772    0.5620 O   0  0  0  0  0  0  0  0  0  0  0  0
    2.2701   -4.6323    0.3927 O   0  0  0  0  0  0  0  0  0  0  0  0
    3.4272   -3.8745    0.7572 C   0  0  1  0  0  0  0  0  0  0  0  0
    3.9772   -4.0318    2.2011 C   0  0  1  0  0  0  0  0  0  0  0  0
    4.5891   -2.6959    2.5994 C   0  0  0  0  0  0  0  0  0  0  0  0
    5.7973   -2.4948    1.6094 C   0  0  0  0  0  0  0  0  0  0  0  0
    5.7152   -3.1544    0.1625 C   0  0  2  0  0  0  0  0  0  0  0  0
    3.2165   -5.1027    2.9992 C   0  0  1  0  0  0  0  0  0  0  0  0
    1.9273   -4.4166    3.5387 C   0  0  0  0  0  0  0  0  0  0  0  0
    4.0093   -5.5749    4.2180 C   0  0  0  0  0  0  0  0  0  0  0  0
    4.2596   -6.8600    4.5409 C   0  0  0  0  0  0  0  0  0  0  0  0
    3.7488   -7.9797    3.7317 C   0  0  0  0  0  0  0  0  0  0  0  0
    4.1491   -9.1297    3.9131 O   0  0  0  0  0  0  0  0  0  0  0  0
    2.6595   -7.6850    2.6717 C   0  0  0  0  0  0  0  0  0  0  0  0
    1.3111   -7.6317    3.4488 C   0  0  0  0  0  0  0  0  0  0  0  0
    2.5579   -8.9057    1.6927 C   0  0  0  0  0  0  0  0  0  0  0  0
    4.6460   -0.3119   -1.6825 H   0  0  0  0  0  0  0  0  0  0  0  0
    5.3548   -0.2154   -0.0867 H   0  0  0  0  0  0  0  0  0  0  0  0
    3.8127   -1.0374   -0.3189 H   0  0  0  0  0  0  0  0  0  0  0  0
    6.5460   -1.9394   -1.4315 H   0  0  0  0  0  0  0  0  0  0  0  0
    5.8766   -6.0733   -0.2999 H   0  0  0  0  0  0  0  0  0  0  0  0
    4.8084   -7.5316    1.1672 H   0  0  0  0  0  0  0  0  0  0  0  0
    3.1572   -2.8346    0.5825 H   0  0  0  0  0  0  0  0  0  0  0  0
    4.9409   -4.5352    2.2643 H   0  0  0  0  0  0  0  0  0  0  0  0
    3.8593   -1.8891    2.5108 H   0  0  0  0  0  0  0  0  0  0  0  0
    4.9452   -2.6991    3.6318 H   0  0  0  0  0  0  0  0  0  0  0  0
    6.0968   -1.4460    1.5719 H   0  0  0  0  0  0  0  0  0  0  0  0
    6.6461   -2.9838    2.0816 H   0  0  0  0  0  0  0  0  0  0  0  0
    6.6812   -3.6337   -0.0000 H   0  0  0  0  0  0  0  0  0  0  0  0
    1.2869   -4.0106    2.7584 H   0  0  0  0  0  0  0  0  0  0  0  0
    2.1992   -3.5675    4.1679 H   0  0  0  0  0  0  0  0  0  0  0  0
    1.3149   -5.0592    4.1634 H   0  0  0  0  0  0  0  0  0  0  0  0
    4.3894   -4.7970    4.8679 H   0  0  0  0  0  0  0  0  0  0  0  0
    4.8227   -7.1035    5.4288 H   0  0  0  0  0  0  0  0  0  0  0  0
    0.5244   -7.1015    2.9171 H   0  0  0  0  0  0  0  0  0  0  0  0
    1.4127   -7.1653    4.4288 H   0  0  0  0  0  0  0  0  0  0  0  0
    0.9262   -8.6333    3.6525 H   0  0  0  0  0  0  0  0  0  0  0  0
    1.8121   -8.7697    0.9134 H   0  0  0  0  0  0  0  0  0  0  0  0
    2.2702   -9.8206    2.2171 H   0  0  0  0  0  0  0  0  0  0  0  0
    3.4956   -9.1515    1.1946 H   0  0  0  0  0  0  0  0  0  0  0  0
  1  2  1  0
  1 27  1  0
  1 28  1  0
  1 29  1  0
  2 17  1  0
  2  3  1  0
  2 30  1  6
  3  4  2  0
  3  5  1  0
  6  5  1  6
  6 13  1  0
  6 17  1  0
  6  7  1  0
  7  8  2  0
  7 31  1  0
  8  9  1  0
  8 32  1  0
  9 18  1  0
  9 24  1  1
  9 10  1  0
 10 11  2  0
 10 12  1  0
 12 13  1  0
 13 14  1  0
 13 33  1  6
 14 15  1  0
 14 18  1  0
 14 34  1  6
 15 16  1  0
 15 35  1  0
 15 36  1  0
 16 17  1  0
 16 37  1  0
 16 38  1  0
 17 39  1  6
 18 19  1  1
 18 20  1  0
 19 40  1  0
 19 41  1  0
 19 42  1  0
 20 21  2  0
 20 43  1  0
 21 22  1  0
 21 44  1  0
 22 23  2  0
 22 24  1  0
 24 25  1  0
 24 26  1  0
 25 45  1  0
 25 46  1  0
 25 47  1  0
 26 48  1  0
 26 49  1  0
 26 50  1  0
M  END
>  <i_m_ct_stereo_status>  (70) 
1

>  <s_m_source_file>  (70) 
/var/tmp/pbs.5076255.sched01/tmp_578sd5a/06fbc0iir.sdf

>  <i_m_source_file_index>  (70) 
34

>  <i_lp_mmshare_version>  (70) 
48012

>  <i_f3d_flags>  (70) 
0

>  <s_epik_input>  (70) 
Tz1DKE8xKVtDQEBIXShbQ0gzXSlbQ0BIXTJbQ0gyXVtDSDJdW0NASF0oW0NASF0zW0NAQF0xMjQpW0NAQF01KFtDSDNdKVtDQEBdKEMoPU8pTzMpKFtDSF09W0NIXTQpQyhbQ0gzXSkoW0NIM10pQyg9TylbQ0hdPVtDSF01

>  <s_epik_cmdline>  (70) 
J2VwaWtfcHl0aG9uJywgJy1waHQnLCAnMi4wJywgJy1waCcsICc3LjAnLCAnLXRuJywgJzgnLCAnLW1hJywgJzIwMCcsICctaW1hZScsICc8aW5maWxlLm1hZT4nLCAnLW9tYWUnLCAnPG91dGZpbGUubWFlPic=

>  <r_lp_tautomer_probability>  (70) 
1

>  <r_epik_Ionization_Penalty>  (70) 
0

>  <r_epik_Ionization_Penalty_Charging>  (70) 
0

>  <r_epik_Ionization_Penalty_Neutral>  (70) 
0

>  <r_epik_State_Penalty>  (70) 
-0

>  <r_epik_Charging_Adjusted_Penalty>  (70) 
0

>  <i_epik_Tot_Q>  (70) 
0

>  <i_epik_Tot_abs_Q>  (70) 
0

>  <s_epik_Chemistry_Notes>  (70) 
This compound has an ester and may undergo hydrolysis at high or low pH.

>  <s_lp_Force_Field>  (70) 
OPLS3e

>  <r_lp_Energy>  (70) 
88.6614

>  <b_lp_Chiralities_Consistent>  (70) 
1

>  <s_lp_Variant>  (70) 
30:0-2

>  <s_i_glide_gridfile>  (70) 
pfpi4k_grid

>  <i_i_glide_lignum>  (70) 
34

>  <i_i_glide_rotatable_bonds>  (70) 
0

>  <r_i_docking_score>  (70) 
-3.18049

>  <r_i_glide_ligand_efficiency>  (70) 
-0.122327

>  <r_i_glide_ligand_efficiency_sa>  (70) 
-0.362392

>  <r_i_glide_ligand_efficiency_ln>  (70) 
-0.746928

>  <r_i_glide_gscore>  (70) 
-3.18049

>  <r_i_glide_lipo>  (70) 
-0.378465

>  <r_i_glide_hbond>  (70) 
-0.147592

>  <r_i_glide_metal>  (70) 
-0

>  <r_i_glide_rewards>  (70) 
-1.05491

>  <r_i_glide_evdw>  (70) 
-26.7955

>  <r_i_glide_ecoul>  (70) 
-1.39889

>  <r_i_glide_erotb>  (70) 
0

>  <r_i_glide_esite>  (70) 
-0.049919

>  <r_i_glide_emodel>  (70) 
-33.8956

>  <r_i_glide_energy>  (70) 
-28.1944

>  <r_i_glide_einternal>  (70) 
0

>  <r_i_glide_intrahb_reward>  (70) 
-0

>  <i_i_glide_confnum>  (70) 
1

>  <i_i_glide_posenum>  (70) 
16

>  <r_i_glide_eff_state_penalty>  (70) 
0

>  <ligand_id>  (70) 
30

>  <original_smiles>  (70) 
CC1C(=O)OC23C=CC45C(=O)OC2C(CCC13)C4(C)C=CC(=O)C5(C)C

>  <smiles>  (70) 
[H]C1=C([H])C2(C([H])([H])[H])C3(C(=O)OC4([H])C5(OC(=O)C([H])(C([H])([H])[H])C5([H])C([H])([H])C([H])([H])C42[H])C([H])=C3[H])C(C([H])([H])[H])(C([H])([H])[H])C1=O

$$$$
30:1:1
     RDKit          3D

 50 54  0  0  1  0  0  0  0  0999 V2000
    4.3531   -0.9249   -2.0822 C   0  0  0  0  0  0  0  0  0  0  0  0
    5.3987   -2.0277   -1.8285 C   0  0  2  0  0  0  0  0  0  0  0  0
    4.9203   -3.3283   -2.4513 C   0  0  0  0  0  0  0  0  0  0  0  0
    4.7988   -3.4977   -3.6611 O   0  0  0  0  0  0  0  0  0  0  0  0
    4.6574   -4.2114   -1.4976 O   0  0  0  0  0  0  0  0  0  0  0  0
    4.8691   -3.7607   -0.1710 C   0  0  2  0  0  0  0  0  0  0  0  0
    5.5388   -4.8768    0.6605 C   0  0  0  0  0  0  0  0  0  0  0  0
    5.0302   -5.4567    1.7910 C   0  0  0  0  0  0  0  0  0  0  0  0
    3.6508   -5.2028    2.5242 C   0  0  2  0  0  0  0  0  0  0  0  0
    2.6128   -5.4064    1.3913 C   0  0  0  0  0  0  0  0  0  0  0  0
    1.8164   -6.3419    1.3383 O   0  0  0  0  0  0  0  0  0  0  0  0
    2.6188   -4.4321    0.4739 O   0  0  0  0  0  0  0  0  0  0  0  0
    3.5695   -3.3656    0.4959 C   0  0  1  0  0  0  0  0  0  0  0  0
    4.0409   -2.8416    1.8796 C   0  0  1  0  0  0  0  0  0  0  0  0
    4.3221   -1.3543    1.7306 C   0  0  0  0  0  0  0  0  0  0  0  0
    5.5277   -1.2709    0.7221 C   0  0  0  0  0  0  0  0  0  0  0  0
    5.6815   -2.4276   -0.3662 C   0  0  2  0  0  0  0  0  0  0  0  0
    3.4780   -3.6787    3.0408 C   0  0  1  0  0  0  0  0  0  0  0  0
    2.0377   -3.1534    3.3070 C   0  0  0  0  0  0  0  0  0  0  0  0
    4.2694   -3.4687    4.3338 C   0  0  0  0  0  0  0  0  0  0  0  0
    4.7673   -4.4451    5.1154 C   0  0  0  0  0  0  0  0  0  0  0  0
    4.5653   -5.8696    4.8010 C   0  0  0  0  0  0  0  0  0  0  0  0
    5.1840   -6.7491    5.4024 O   0  0  0  0  0  0  0  0  0  0  0  0
    3.5131   -6.2476    3.7287 C   0  0  0  0  0  0  0  0  0  0  0  0
    2.1362   -6.2151    4.4548 C   0  0  0  0  0  0  0  0  0  0  0  0
    3.7449   -7.7364    3.2924 C   0  0  0  0  0  0  0  0  0  0  0  0
    4.1514   -0.8112   -3.1492 H   0  0  0  0  0  0  0  0  0  0  0  0
    4.6963    0.0454   -1.7356 H   0  0  0  0  0  0  0  0  0  0  0  0
    3.4015   -1.1313   -1.5927 H   0  0  0  0  0  0  0  0  0  0  0  0
    6.3335   -1.7542   -2.3151 H   0  0  0  0  0  0  0  0  0  0  0  0
    6.5104   -5.1942    0.3115 H   0  0  0  0  0  0  0  0  0  0  0  0
    5.6782   -6.1895    2.2443 H   0  0  0  0  0  0  0  0  0  0  0  0
    3.0979   -2.5550   -0.0566 H   0  0  0  0  0  0  0  0  0  0  0  0
    5.0826   -3.0561    2.1099 H   0  0  0  0  0  0  0  0  0  0  0  0
    3.4419   -0.8301    1.3543 H   0  0  0  0  0  0  0  0  0  0  0  0
    4.5933   -0.8902    2.6807 H   0  0  0  0  0  0  0  0  0  0  0  0
    5.5830   -0.2782    0.2732 H   0  0  0  0  0  0  0  0  0  0  0  0
    6.4282   -1.3212    1.3369 H   0  0  0  0  0  0  0  0  0  0  0  0
    6.7375   -2.7000   -0.3568 H   0  0  0  0  0  0  0  0  0  0  0  0
    1.3840   -3.2260    2.4423 H   0  0  0  0  0  0  0  0  0  0  0  0
    2.0718   -2.0924    3.5584 H   0  0  0  0  0  0  0  0  0  0  0  0
    1.5336   -3.6375    4.1382 H   0  0  0  0  0  0  0  0  0  0  0  0
    4.4207   -2.4396    4.6320 H   0  0  0  0  0  0  0  0  0  0  0  0
    5.3034   -4.2060    6.0216 H   0  0  0  0  0  0  0  0  0  0  0  0
    1.2935   -6.1146    3.7751 H   0  0  0  0  0  0  0  0  0  0  0  0
    2.0680   -5.4058    5.1815 H   0  0  0  0  0  0  0  0  0  0  0  0
    1.9643   -7.1257    5.0336 H   0  0  0  0  0  0  0  0  0  0  0  0
    3.0462   -8.0767    2.5319 H   0  0  0  0  0  0  0  0  0  0  0  0
    3.6273   -8.4274    4.1305 H   0  0  0  0  0  0  0  0  0  0  0  0
    4.7463   -7.9282    2.9084 H   0  0  0  0  0  0  0  0  0  0  0  0
  1  2  1  0
  1 27  1  0
  1 28  1  0
  1 29  1  0
  2 17  1  0
  2  3  1  0
  2 30  1  6
  3  4  2  0
  3  5  1  0
  6  5  1  6
  6 13  1  0
  6 17  1  0
  6  7  1  0
  7  8  2  0
  7 31  1  0
  8  9  1  0
  8 32  1  0
  9 18  1  0
  9 24  1  1
  9 10  1  0
 10 11  2  0
 10 12  1  0
 12 13  1  0
 13 14  1  0
 13 33  1  6
 14 15  1  0
 14 18  1  0
 14 34  1  6
 15 16  1  0
 15 35  1  0
 15 36  1  0
 16 17  1  0
 16 37  1  0
 16 38  1  0
 17 39  1  6
 18 19  1  1
 18 20  1  0
 19 40  1  0
 19 41  1  0
 19 42  1  0
 20 21  2  0
 20 43  1  0
 21 22  1  0
 21 44  1  0
 22 23  2  0
 22 24  1  0
 24 25  1  0
 24 26  1  0
 25 45  1  0
 25 46  1  0
 25 47  1  0
 26 48  1  0
 26 49  1  0
 26 50  1  0
M  END
>  <i_m_ct_stereo_status>  (71) 
1

>  <s_m_source_file>  (71) 
/var/tmp/pbs.5076255.sched01/tmp_578sd5a/06fbc0iir.sdf

>  <i_m_source_file_index>  (71) 
34

>  <i_lp_mmshare_version>  (71) 
48012

>  <i_f3d_flags>  (71) 
0

>  <s_epik_input>  (71) 
Tz1DKE8xKVtDQEBIXShbQ0gzXSlbQ0BIXTJbQ0gyXVtDSDJdW0NASF0oW0NASF0zW0NAQF0xMjQpW0NAQF01KFtDSDNdKVtDQEBdKEMoPU8pTzMpKFtDSF09W0NIXTQpQyhbQ0gzXSkoW0NIM10pQyg9TylbQ0hdPVtDSF01

>  <s_epik_cmdline>  (71) 
J2VwaWtfcHl0aG9uJywgJy1waHQnLCAnMi4wJywgJy1waCcsICc3LjAnLCAnLXRuJywgJzgnLCAnLW1hJywgJzIwMCcsICctaW1hZScsICc8aW5maWxlLm1hZT4nLCAnLW9tYWUnLCAnPG91dGZpbGUubWFlPic=

>  <r_lp_tautomer_probability>  (71) 
1

>  <r_epik_Ionization_Penalty>  (71) 
0

>  <r_epik_Ionization_Penalty_Charging>  (71) 
0

>  <r_epik_Ionization_Penalty_Neutral>  (71) 
0

>  <r_epik_State_Penalty>  (71) 
-0

>  <r_epik_Charging_Adjusted_Penalty>  (71) 
0

>  <i_epik_Tot_Q>  (71) 
0

>  <i_epik_Tot_abs_Q>  (71) 
0

>  <s_epik_Chemistry_Notes>  (71) 
This compound has an ester and may undergo hydrolysis at high or low pH.

>  <s_lp_Force_Field>  (71) 
OPLS3e

>  <r_lp_Energy>  (71) 
88.6614

>  <b_lp_Chiralities_Consistent>  (71) 
1

>  <s_lp_Variant>  (71) 
30:0-2

>  <s_i_glide_gridfile>  (71) 
pfpi4k_grid

>  <i_i_glide_lignum>  (71) 
34

>  <i_i_glide_rotatable_bonds>  (71) 
0

>  <r_i_docking_score>  (71) 
-2.96942

>  <r_i_glide_ligand_efficiency>  (71) 
-0.114209

>  <r_i_glide_ligand_efficiency_sa>  (71) 
-0.338342

>  <r_i_glide_ligand_efficiency_ln>  (71) 
-0.697359

>  <r_i_glide_gscore>  (71) 
-2.96942

>  <r_i_glide_lipo>  (71) 
-0.282086

>  <r_i_glide_hbond>  (71) 
0

>  <r_i_glide_metal>  (71) 
-0

>  <r_i_glide_rewards>  (71) 
-1.15575

>  <r_i_glide_evdw>  (71) 
-26.9241

>  <r_i_glide_ecoul>  (71) 
-1.10558

>  <r_i_glide_erotb>  (71) 
0

>  <r_i_glide_esite>  (71) 
-0.0195454

>  <r_i_glide_emodel>  (71) 
-33.3514

>  <r_i_glide_energy>  (71) 
-28.0297

>  <r_i_glide_einternal>  (71) 
0

>  <r_i_glide_intrahb_reward>  (71) 
-0

>  <i_i_glide_confnum>  (71) 
2

>  <i_i_glide_posenum>  (71) 
2

>  <r_i_glide_eff_state_penalty>  (71) 
0

>  <ligand_id>  (71) 
30

>  <original_smiles>  (71) 
CC1C(=O)OC23C=CC45C(=O)OC2C(CCC13)C4(C)C=CC(=O)C5(C)C

>  <smiles>  (71) 
[H]C1=C([H])C2(C([H])([H])[H])C3(C(=O)OC4([H])C5(OC(=O)C([H])(C([H])([H])[H])C5([H])C([H])([H])C([H])([H])C42[H])C([H])=C3[H])C(C([H])([H])[H])(C([H])([H])[H])C1=O

$$$$
30:1:2
     RDKit          3D

 50 54  0  0  1  0  0  0  0  0999 V2000
    0.6264  -10.4681    2.8792 C   0  0  0  0  0  0  0  0  0  0  0  0
    0.0625   -9.2464    3.6318 C   0  0  2  0  0  0  0  0  0  0  0  0
   -0.7776   -8.3980    2.6887 C   0  0  0  0  0  0  0  0  0  0  0  0
   -1.8451   -8.7624    2.2030 O   0  0  0  0  0  0  0  0  0  0  0  0
   -0.1855   -7.2251    2.4761 O   0  0  0  0  0  0  0  0  0  0  0  0
    1.0459   -7.0449    3.1592 C   0  0  2  0  0  0  0  0  0  0  0  0
    1.1196   -5.6104    3.7266 C   0  0  0  0  0  0  0  0  0  0  0  0
    2.0646   -4.6697    3.4212 C   0  0  0  0  0  0  0  0  0  0  0  0
    3.2833   -4.7463    2.4141 C   0  0  2  0  0  0  0  0  0  0  0  0
    2.6148   -5.1676    1.0835 C   0  0  0  0  0  0  0  0  0  0  0  0
    2.4950   -4.4326    0.1072 O   0  0  0  0  0  0  0  0  0  0  0  0
    2.1562   -6.4276    1.0861 O   0  0  0  0  0  0  0  0  0  0  0  0
    2.2281   -7.2678    2.2406 C   0  0  1  0  0  0  0  0  0  0  0  0
    3.4415   -7.0912    3.1934 C   0  0  1  0  0  0  0  0  0  0  0  0
    3.7519   -8.4558    3.7894 C   0  0  0  0  0  0  0  0  0  0  0  0
    2.4831   -8.8163    4.6492 C   0  0  0  0  0  0  0  0  0  0  0  0
    1.0715   -8.2272    4.1969 C   0  0  2  0  0  0  0  0  0  0  0  0
    4.3398   -5.9141    2.7809 C   0  0  1  0  0  0  0  0  0  0  0  0
    5.2704   -6.4436    1.6498 C   0  0  0  0  0  0  0  0  0  0  0  0
    5.2443   -5.4604    3.9266 C   0  0  0  0  0  0  0  0  0  0  0  0
    5.3797   -4.1920    4.3626 C   0  0  0  0  0  0  0  0  0  0  0  0
    4.6688   -3.0695    3.7263 C   0  0  0  0  0  0  0  0  0  0  0  0
    4.6502   -1.9504    4.2437 O   0  0  0  0  0  0  0  0  0  0  0  0
    3.9867   -3.3097    2.3582 C   0  0  0  0  0  0  0  0  0  0  0  0
    5.1140   -3.1896    1.2913 C   0  0  0  0  0  0  0  0  0  0  0  0
    2.9856   -2.1353    2.0755 C   0  0  0  0  0  0  0  0  0  0  0  0
   -0.1779  -11.0411    2.4136 H   0  0  0  0  0  0  0  0  0  0  0  0
    1.1440  -11.1513    3.5508 H   0  0  0  0  0  0  0  0  0  0  0  0
    1.3132  -10.1858    2.0819 H   0  0  0  0  0  0  0  0  0  0  0  0
   -0.5811   -9.6032    4.4359 H   0  0  0  0  0  0  0  0  0  0  0  0
    0.3635   -5.3621    4.4563 H   0  0  0  0  0  0  0  0  0  0  0  0
    1.9607   -3.7454    3.9647 H   0  0  0  0  0  0  0  0  0  0  0  0
    2.2126   -8.2861    1.8554 H   0  0  0  0  0  0  0  0  0  0  0  0
    3.1899   -6.6787    4.1696 H   0  0  0  0  0  0  0  0  0  0  0  0
    3.9303   -9.1930    3.0039 H   0  0  0  0  0  0  0  0  0  0  0  0
    4.6416   -8.4355    4.4219 H   0  0  0  0  0  0  0  0  0  0  0  0
    2.4370   -9.8919    4.8300 H   0  0  0  0  0  0  0  0  0  0  0  0
    2.6728   -8.4051    5.6420 H   0  0  0  0  0  0  0  0  0  0  0  0
    0.6031   -7.8597    5.1110 H   0  0  0  0  0  0  0  0  0  0  0  0
    4.7347   -6.8207    0.7800 H   0  0  0  0  0  0  0  0  0  0  0  0
    5.8612   -7.2828    2.0213 H   0  0  0  0  0  0  0  0  0  0  0  0
    5.9900   -5.7122    1.2951 H   0  0  0  0  0  0  0  0  0  0  0  0
    5.8219   -6.2368    4.4129 H   0  0  0  0  0  0  0  0  0  0  0  0
    6.0530   -3.9589    5.1735 H   0  0  0  0  0  0  0  0  0  0  0  0
    4.8655   -3.6674    0.3459 H   0  0  0  0  0  0  0  0  0  0  0  0
    6.0583   -3.6144    1.6326 H   0  0  0  0  0  0  0  0  0  0  0  0
    5.3394   -2.1460    1.0613 H   0  0  0  0  0  0  0  0  0  0  0  0
    2.4559   -2.2311    1.1297 H   0  0  0  0  0  0  0  0  0  0  0  0
    3.4991   -1.1718    2.0236 H   0  0  0  0  0  0  0  0  0  0  0  0
    2.2276   -2.0091    2.8481 H   0  0  0  0  0  0  0  0  0  0  0  0
  1  2  1  0
  1 27  1  0
  1 28  1  0
  1 29  1  0
  2 17  1  0
  2  3  1  0
  2 30  1  1
  3  4  2  0
  3  5  1  0
  6  5  1  6
  6 13  1  0
  6 17  1  0
  6  7  1  0
  7  8  2  0
  7 31  1  0
  8  9  1  0
  8 32  1  0
  9 18  1  0
  9 24  1  6
  9 10  1  0
 10 11  2  0
 10 12  1  0
 12 13  1  0
 13 14  1  0
 13 33  1  6
 14 15  1  0
 14 18  1  0
 14 34  1  1
 15 16  1  0
 15 35  1  0
 15 36  1  0
 16 17  1  0
 16 37  1  0
 16 38  1  0
 17 39  1  1
 18 19  1  6
 18 20  1  0
 19 40  1  0
 19 41  1  0
 19 42  1  0
 20 21  2  0
 20 43  1  0
 21 22  1  0
 21 44  1  0
 22 23  2  0
 22 24  1  0
 24 25  1  0
 24 26  1  0
 25 45  1  0
 25 46  1  0
 25 47  1  0
 26 48  1  0
 26 49  1  0
 26 50  1  0
M  END
>  <i_m_ct_stereo_status>  (72) 
1

>  <s_m_source_file>  (72) 
/var/tmp/pbs.5076255.sched01/tmp_578sd5a/06fbc0iir.sdf

>  <i_m_source_file_index>  (72) 
34

>  <i_lp_mmshare_version>  (72) 
48012

>  <i_f3d_flags>  (72) 
0

>  <s_epik_input>  (72) 
Tz1DKE8xKVtDQEBIXShbQ0gzXSlbQ0BIXTJbQ0gyXVtDSDJdW0NASF0oW0NASF0zW0NAQF0xMjQpW0NAQF01KFtDSDNdKVtDQEBdKEMoPU8pTzMpKFtDSF09W0NIXTQpQyhbQ0gzXSkoW0NIM10pQyg9TylbQ0hdPVtDSF01

>  <s_epik_cmdline>  (72) 
J2VwaWtfcHl0aG9uJywgJy1waHQnLCAnMi4wJywgJy1waCcsICc3LjAnLCAnLXRuJywgJzgnLCAnLW1hJywgJzIwMCcsICctaW1hZScsICc8aW5maWxlLm1hZT4nLCAnLW9tYWUnLCAnPG91dGZpbGUubWFlPic=

>  <r_lp_tautomer_probability>  (72) 
1

>  <r_epik_Ionization_Penalty>  (72) 
0

>  <r_epik_Ionization_Penalty_Charging>  (72) 
0

>  <r_epik_Ionization_Penalty_Neutral>  (72) 
0

>  <r_epik_State_Penalty>  (72) 
-0

>  <r_epik_Charging_Adjusted_Penalty>  (72) 
0

>  <i_epik_Tot_Q>  (72) 
0

>  <i_epik_Tot_abs_Q>  (72) 
0

>  <s_epik_Chemistry_Notes>  (72) 
This compound has an ester and may undergo hydrolysis at high or low pH.

>  <s_lp_Force_Field>  (72) 
OPLS3e

>  <r_lp_Energy>  (72) 
88.6614

>  <b_lp_Chiralities_Consistent>  (72) 
1

>  <s_lp_Variant>  (72) 
30:0-2

>  <s_i_glide_gridfile>  (72) 
pfpi4k_grid

>  <i_i_glide_lignum>  (72) 
34

>  <i_i_glide_rotatable_bonds>  (72) 
0

>  <r_i_docking_score>  (72) 
-2.818

>  <r_i_glide_ligand_efficiency>  (72) 
-0.108385

>  <r_i_glide_ligand_efficiency_sa>  (72) 
-0.321089

>  <r_i_glide_ligand_efficiency_ln>  (72) 
-0.661798

>  <r_i_glide_gscore>  (72) 
-2.818

>  <r_i_glide_lipo>  (72) 
-0.223699

>  <r_i_glide_hbond>  (72) 
-0.00940074

>  <r_i_glide_metal>  (72) 
-0

>  <r_i_glide_rewards>  (72) 
-1.01593

>  <r_i_glide_evdw>  (72) 
-26.4715

>  <r_i_glide_ecoul>  (72) 
-1.13045

>  <r_i_glide_erotb>  (72) 
0

>  <r_i_glide_esite>  (72) 
-0.0758281

>  <r_i_glide_emodel>  (72) 
-32.6556

>  <r_i_glide_energy>  (72) 
-27.6019

>  <r_i_glide_einternal>  (72) 
0

>  <r_i_glide_intrahb_reward>  (72) 
-0

>  <i_i_glide_confnum>  (72) 
1

>  <i_i_glide_posenum>  (72) 
11

>  <r_i_glide_eff_state_penalty>  (72) 
0

>  <ligand_id>  (72) 
30

>  <original_smiles>  (72) 
CC1C(=O)OC23C=CC45C(=O)OC2C(CCC13)C4(C)C=CC(=O)C5(C)C

>  <smiles>  (72) 
[H]C1=C([H])C2(C([H])([H])[H])C3(C(=O)OC4([H])C5(OC(=O)C([H])(C([H])([H])[H])C5([H])C([H])([H])C([H])([H])C42[H])C([H])=C3[H])C(C([H])([H])[H])(C([H])([H])[H])C1=O

$$$$
31:0:0
     RDKit          3D

 80 86  0  0  1  0  0  0  0  0999 V2000
    5.5858   -1.6755    1.8624 C   0  0  0  0  0  0  0  0  0  0  0  0
    4.6533   -2.6416    2.6686 C   0  0  0  0  0  0  0  0  0  0  0  0
    4.7468   -2.0770    4.1117 C   0  0  0  0  0  0  0  0  0  0  0  0
    3.2054   -2.5092    2.1636 C   0  0  0  0  0  0  0  0  0  0  0  0
    3.0246   -2.9831    0.7160 C   0  0  0  0  0  0  0  0  0  0  0  0
    3.5260   -4.4114    0.4577 C   0  0  0  0  0  0  0  0  0  0  0  0
    4.8777   -4.8004    1.1317 C   0  0  2  0  0  0  0  0  0  0  0  0
    5.9646   -4.2398    0.1608 C   0  0  0  0  0  0  0  0  0  0  0  0
    5.1031   -6.3734    1.1412 C   0  0  2  0  0  0  0  0  0  0  0  0
    3.8004   -7.2401    1.6145 C   0  0  2  0  0  0  0  0  0  0  0  0
    3.0519   -6.6447    2.8152 C   0  0  2  0  0  0  0  0  0  0  0  0
    4.1323   -6.4354    3.8723 C   0  0  2  0  0  0  0  0  0  0  0  0
    4.5978   -4.9559    3.8645 C   0  0  0  0  0  0  0  0  0  0  0  0
    5.0865   -4.1598    2.5742 C   0  0  2  0  0  0  0  0  0  0  0  0
    5.1322   -7.4604    3.9946 O   0  0  0  0  0  0  0  0  0  0  0  0
    5.3085   -8.5165    2.9783 C   0  0  2  0  0  0  0  0  0  0  0  0
    6.2449   -9.5180    3.6542 C   0  0  0  0  0  0  0  0  0  0  0  0
    7.3610   -8.7230    3.2340 O   0  0  0  0  0  0  0  0  0  0  0  0
    6.5304   -8.2415    2.1638 C   0  0  1  0  0  0  0  0  0  0  0  0
    6.6795   -9.0516    0.9648 O   0  0  0  0  0  0  0  0  0  0  0  0
    6.5300   -6.7846    1.7540 C   0  0  1  0  0  0  0  0  0  0  0  0
    7.6331   -6.5360    0.8940 O   0  0  0  0  0  0  0  0  0  0  0  0
    4.1019   -8.6781    2.0771 C   0  0  1  0  0  0  0  0  0  0  0  0
    2.9295   -9.5235    2.6288 C   0  0  1  0  0  0  0  0  0  0  0  0
    3.5200  -10.7660    2.9802 O   0  0  0  0  0  0  0  0  0  0  0  0
    2.0660   -8.8546    3.7577 C   0  0  2  0  0  0  0  0  0  0  0  0
    0.7687   -9.6783    4.1437 C   0  0  0  0  0  0  0  0  0  0  0  0
    1.0684  -11.1583    4.4751 C   0  0  0  0  0  0  0  0  0  0  0  0
    0.1147   -9.1380    5.4572 C   0  0  0  0  0  0  0  0  0  0  0  0
   -0.2427   -9.6449    2.9842 C   0  0  0  0  0  0  0  0  0  0  0  0
   -0.5735   -8.2341    2.4783 C   0  0  0  0  0  0  0  0  0  0  0  0
    0.6895   -7.4306    2.1439 C   0  0  0  0  0  0  0  0  0  0  0  0
    1.7480   -7.3834    3.2983 C   0  0  2  0  0  0  0  0  0  0  0  0
    1.1555   -6.4765    4.4203 C   0  0  0  0  0  0  0  0  0  0  0  0
    5.4948   -0.6451    2.1903 H   0  0  0  0  0  0  0  0  0  0  0  0
    5.3609   -1.6321    0.8043 H   0  0  0  0  0  0  0  0  0  0  0  0
    6.6299   -1.9588    1.9708 H   0  0  0  0  0  0  0  0  0  0  0  0
    3.9645   -2.4574    4.7736 H   0  0  0  0  0  0  0  0  0  0  0  0
    4.6279   -0.9950    4.1348 H   0  0  0  0  0  0  0  0  0  0  0  0
    5.7162   -2.3040    4.5705 H   0  0  0  0  0  0  0  0  0  0  0  0
    2.5526   -3.1238    2.7977 H   0  0  0  0  0  0  0  0  0  0  0  0
    2.8537   -1.4928    2.2750 H   0  0  0  0  0  0  0  0  0  0  0  0
    1.9646   -2.9349    0.4695 H   0  0  0  0  0  0  0  0  0  0  0  0
    3.4915   -2.2937    0.0249 H   0  0  0  0  0  0  0  0  0  0  0  0
    2.7131   -5.0983    0.6405 H   0  0  0  0  0  0  0  0  0  0  0  0
    3.6435   -4.5192   -0.6255 H   0  0  0  0  0  0  0  0  0  0  0  0
    6.9203   -4.0495    0.6468 H   0  0  0  0  0  0  0  0  0  0  0  0
    5.6599   -3.3200   -0.3286 H   0  0  0  0  0  0  0  0  0  0  0  0
    6.1606   -4.9121   -0.6616 H   0  0  0  0  0  0  0  0  0  0  0  0
    5.1681   -6.6827    0.1007 H   0  0  0  0  0  0  0  0  0  0  0  0
    3.1197   -7.2901    0.7668 H   0  0  0  0  0  0  0  0  0  0  0  0
    2.6860   -5.6671    2.5663 H   0  0  0  0  0  0  0  0  0  0  0  0
    3.6697   -6.5369    4.8565 H   0  0  0  0  0  0  0  0  0  0  0  0
    3.6985   -4.4641    4.2130 H   0  0  0  0  0  0  0  0  0  0  0  0
    5.3242   -4.8177    4.6617 H   0  0  0  0  0  0  0  0  0  0  0  0
    6.1665   -4.1391    2.7327 H   0  0  0  0  0  0  0  0  0  0  0  0
    6.1252   -9.5713    4.7395 H   0  0  0  0  0  0  0  0  0  0  0  0
    6.2417  -10.5175    3.2111 H   0  0  0  0  0  0  0  0  0  0  0  0
    6.5456   -9.9273    1.2385 H   0  0  0  0  0  0  0  0  0  0  0  0
    6.7442   -6.2012    2.6412 H   0  0  0  0  0  0  0  0  0  0  0  0
    8.3855   -6.9838    1.2455 H   0  0  0  0  0  0  0  0  0  0  0  0
    4.3587   -9.2336    1.1720 H   0  0  0  0  0  0  0  0  0  0  0  0
    2.2806   -9.7404    1.7860 H   0  0  0  0  0  0  0  0  0  0  0  0
    3.6997  -11.2510    2.1913 H   0  0  0  0  0  0  0  0  0  0  0  0
    2.7030   -8.8064    4.6468 H   0  0  0  0  0  0  0  0  0  0  0  0
    0.2175  -11.6604    4.9333 H   0  0  0  0  0  0  0  0  0  0  0  0
    1.9026  -11.2650    5.1726 H   0  0  0  0  0  0  0  0  0  0  0  0
    1.2940  -11.7423    3.5750 H   0  0  0  0  0  0  0  0  0  0  0  0
   -0.5372   -9.8636    5.9330 H   0  0  0  0  0  0  0  0  0  0  0  0
   -0.5563   -8.2952    5.2834 H   0  0  0  0  0  0  0  0  0  0  0  0
    0.8514   -8.8579    6.2098 H   0  0  0  0  0  0  0  0  0  0  0  0
    0.1339  -10.2364    2.1460 H   0  0  0  0  0  0  0  0  0  0  0  0
   -1.1685  -10.1441    3.2776 H   0  0  0  0  0  0  0  0  0  0  0  0
   -1.1942   -8.3243    1.5856 H   0  0  0  0  0  0  0  0  0  0  0  0
   -1.1991   -7.7207    3.2050 H   0  0  0  0  0  0  0  0  0  0  0  0
    1.1155   -7.8954    1.2527 H   0  0  0  0  0  0  0  0  0  0  0  0
    0.4188   -6.4253    1.8394 H   0  0  0  0  0  0  0  0  0  0  0  0
    0.0686   -6.4819    4.4594 H   0  0  0  0  0  0  0  0  0  0  0  0
    1.4011   -5.4238    4.2848 H   0  0  0  0  0  0  0  0  0  0  0  0
    1.5219   -6.7580    5.4069 H   0  0  0  0  0  0  0  0  0  0  0  0
  1  2  1  0
  1 35  1  0
  1 36  1  0
  1 37  1  0
  2 14  1  0
  2  3  1  0
  2  4  1  0
  3 38  1  0
  3 39  1  0
  3 40  1  0
  4  5  1  0
  4 41  1  0
  4 42  1  0
  5  6  1  0
  5 43  1  0
  5 44  1  0
  6  7  1  0
  6 45  1  0
  6 46  1  0
  7 14  1  0
  7  8  1  6
  7  9  1  0
  8 47  1  0
  8 48  1  0
  8 49  1  0
  9 21  1  0
  9 10  1  0
  9 50  1  6
 10 23  1  0
 10 11  1  0
 10 51  1  6
 11 33  1  0
 11 12  1  0
 11 52  1  6
 12 13  1  0
 12 15  1  0
 12 53  1  1
 13 14  1  0
 13 54  1  0
 13 55  1  0
 14 56  1  1
 16 15  1  1
 16 19  1  0
 16 17  1  0
 16 23  1  0
 17 18  1  0
 17 57  1  0
 17 58  1  0
 18 19  1  0
 19 20  1  6
 19 21  1  0
 20 59  1  0
 21 22  1  0
 21 60  1  1
 22 61  1  0
 23 24  1  0
 23 62  1  6
 24 25  1  0
 24 26  1  0
 24 63  1  6
 25 64  1  0
 26 33  1  0
 26 27  1  0
 26 65  1  1
 27 28  1  0
 27 29  1  0
 27 30  1  0
 28 66  1  0
 28 67  1  0
 28 68  1  0
 29 69  1  0
 29 70  1  0
 29 71  1  0
 30 31  1  0
 30 72  1  0
 30 73  1  0
 31 32  1  0
 31 74  1  0
 31 75  1  0
 32 33  1  0
 32 76  1  0
 32 77  1  0
 33 34  1  1
 34 78  1  0
 34 79  1  0
 34 80  1  0
M  END
>  <i_m_ct_stereo_status>  (73) 
1

>  <s_m_source_file>  (73) 
/var/tmp/pbs.5076255.sched01/tmp_578sd5a/06fbc0iir.sdf

>  <i_m_source_file_index>  (73) 
35

>  <i_lp_mmshare_version>  (73) 
48012

>  <i_f3d_flags>  (73) 
0

>  <s_epik_input>  (73) 
W0NIMl0xT1tDQF0oW0NAQF0xMjMpKFtPSF0pW0NAQEhdKFtPSF0pW0NAQEhdNFtDQF01KFtDSDNdKVtDQEBIXShDKFtDSDNdKShbQ0gzXSlbQ0gyXVtDSDJdW0NIMl01KVtDSDJdW0NASF0oTzIpW0NASF02W0NAQEhdNFtDQEBIXTNbQ0BASF0oW09IXSlbQ0BIXTdbQ0BdNihbQ0gzXSlbQ0gyXVtDSDJdW0NIMl1DNyhbQ0gzXSlbQ0gzXQ==

>  <s_epik_cmdline>  (73) 
J2VwaWtfcHl0aG9uJywgJy1waHQnLCAnMi4wJywgJy1waCcsICc3LjAnLCAnLXRuJywgJzgnLCAnLW1hJywgJzIwMCcsICctaW1hZScsICc8aW5maWxlLm1hZT4nLCAnLW9tYWUnLCAnPG91dGZpbGUubWFlPic=

>  <r_lp_tautomer_probability>  (73) 
1

>  <r_epik_Ionization_Penalty>  (73) 
1.67814e-06

>  <r_epik_Ionization_Penalty_Charging>  (73) 
0

>  <r_epik_Ionization_Penalty_Neutral>  (73) 
1.67814e-06

>  <r_epik_State_Penalty>  (73) 
-0

>  <r_epik_Charging_Adjusted_Penalty>  (73) 
0

>  <i_epik_Tot_Q>  (73) 
0

>  <i_epik_Tot_abs_Q>  (73) 
0

>  <s_lp_Force_Field>  (73) 
OPLS3e

>  <r_lp_Energy>  (73) 
153.064

>  <b_lp_Chiralities_Consistent>  (73) 
1

>  <s_lp_Variant>  (73) 
31:0-1

>  <s_i_glide_gridfile>  (73) 
pfpi4k_grid

>  <i_i_glide_lignum>  (73) 
35

>  <i_i_glide_rotatable_bonds>  (73) 
3

>  <r_i_docking_score>  (73) 
-3.23832

>  <r_i_glide_ligand_efficiency>  (73) 
-0.0952446

>  <r_i_glide_ligand_efficiency_sa>  (73) 
-0.308556

>  <r_i_glide_ligand_efficiency_ln>  (73) 
-0.715435

>  <r_i_glide_gscore>  (73) 
-3.23832

>  <r_i_glide_lipo>  (73) 
-0.607785

>  <r_i_glide_hbond>  (73) 
-0.129902

>  <r_i_glide_metal>  (73) 
-0

>  <r_i_glide_rewards>  (73) 
-0.271709

>  <r_i_glide_evdw>  (73) 
-34.2362

>  <r_i_glide_ecoul>  (73) 
-3.44743

>  <r_i_glide_erotb>  (73) 
0

>  <r_i_glide_esite>  (73) 
0

>  <r_i_glide_emodel>  (73) 
-44.5252

>  <r_i_glide_energy>  (73) 
-37.6836

>  <r_i_glide_einternal>  (73) 
1.10348

>  <r_i_glide_intrahb_reward>  (73) 
-0

>  <i_i_glide_confnum>  (73) 
2

>  <i_i_glide_posenum>  (73) 
36

>  <r_i_glide_eff_state_penalty>  (73) 
0

>  <ligand_id>  (73) 
31

>  <original_smiles>  (73) 
CC1(C)CCCC2(C)C3C4C5C(CC12)OC1(COC1(O)C3O)C4C(O)C1C(C)(C)CCCC51C

>  <smiles>  (73) 
[H]OC1([H])C2(O[H])OC([H])([H])C23OC2([H])C([H])([H])C4([H])C(C([H])([H])[H])(C([H])([H])[H])C([H])([H])C([H])([H])C([H])([H])C4(C([H])([H])[H])C1([H])C1([H])C3([H])C([H])(O[H])C3([H])C(C([H])([H])[H])(C([H])([H])[H])C([H])([H])C([H])([H])C([H])([H])C3(C([H])([H])[H])C21[H]

$$$$
31:0:1
     RDKit          3D

 80 86  0  0  1  0  0  0  0  0999 V2000
    5.6951   -0.6566    0.7572 C   0  0  0  0  0  0  0  0  0  0  0  0
    4.8152   -1.5771    1.6465 C   0  0  0  0  0  0  0  0  0  0  0  0
    4.6971   -0.7802    2.9755 C   0  0  0  0  0  0  0  0  0  0  0  0
    3.4102   -1.7435    1.0281 C   0  0  0  0  0  0  0  0  0  0  0  0
    3.4216   -2.4703   -0.3231 C   0  0  0  0  0  0  0  0  0  0  0  0
    4.1265   -3.8355   -0.2996 C   0  0  0  0  0  0  0  0  0  0  0  0
    5.4489   -3.9198    0.5380 C   0  0  2  0  0  0  0  0  0  0  0  0
    6.5420   -3.3592   -0.4243 C   0  0  0  0  0  0  0  0  0  0  0  0
    5.8435   -5.4230    0.8360 C   0  0  2  0  0  0  0  0  0  0  0  0
    4.6266   -6.3698    1.3588 C   0  0  2  0  0  0  0  0  0  0  0  0
    3.6952   -5.6924    2.3801 C   0  0  2  0  0  0  0  0  0  0  0  0
    4.6360   -5.1633    3.4612 C   0  0  2  0  0  0  0  0  0  0  0  0
    4.9155   -3.6577    3.2202 C   0  0  0  0  0  0  0  0  0  0  0  0
    5.4236   -3.0248    1.8600 C   0  0  2  0  0  0  0  0  0  0  0  0
    5.7392   -6.0104    3.8355 O   0  0  0  0  0  0  0  0  0  0  0  0
    6.1468   -7.1616    3.0451 C   0  0  2  0  0  0  0  0  0  0  0  0
    7.1116   -7.9238    3.9454 C   0  0  0  0  0  0  0  0  0  0  0  0
    8.1784   -7.0381    3.4883 O   0  0  0  0  0  0  0  0  0  0  0  0
    7.4215   -6.8618    2.2615 C   0  0  1  0  0  0  0  0  0  0  0  0
    7.8235   -7.7997    1.2667 O   0  0  0  0  0  0  0  0  0  0  0  0
    7.2594   -5.5149    1.5922 C   0  0  1  0  0  0  0  0  0  0  0  0
    8.3799   -5.3150    0.7316 O   0  0  0  0  0  0  0  0  0  0  0  0
    5.0661   -7.6575    2.0917 C   0  0  1  0  0  0  0  0  0  0  0  0
    3.9389   -8.5345    2.7008 C   0  0  1  0  0  0  0  0  0  0  0  0
    4.6053   -9.6027    3.3387 O   0  0  0  0  0  0  0  0  0  0  0  0
    2.8889   -7.8216    3.6264 C   0  0  2  0  0  0  0  0  0  0  0  0
    1.6620   -8.7436    4.0721 C   0  0  0  0  0  0  0  0  0  0  0  0
    2.1039  -10.1033    4.6683 C   0  0  0  0  0  0  0  0  0  0  0  0
    0.8069   -8.1053    5.2015 C   0  0  0  0  0  0  0  0  0  0  0  0
    0.7643   -9.0437    2.8476 C   0  0  0  0  0  0  0  0  0  0  0  0
    0.3213   -7.7844    2.0859 C   0  0  0  0  0  0  0  0  0  0  0  0
    1.5135   -6.8909    1.6946 C   0  0  0  0  0  0  0  0  0  0  0  0
    2.4401   -6.5019    2.8898 C   0  0  2  0  0  0  0  0  0  0  0  0
    1.6395   -5.5114    3.7938 C   0  0  0  0  0  0  0  0  0  0  0  0
    5.4427    0.3935    0.8843 H   0  0  0  0  0  0  0  0  0  0  0  0
    5.5636   -0.8147   -0.3073 H   0  0  0  0  0  0  0  0  0  0  0  0
    6.7571   -0.7613    0.9872 H   0  0  0  0  0  0  0  0  0  0  0  0
    3.9078   -1.1458    3.6307 H   0  0  0  0  0  0  0  0  0  0  0  0
    4.4394    0.2650    2.7927 H   0  0  0  0  0  0  0  0  0  0  0  0
    5.6378   -0.7853    3.5305 H   0  0  0  0  0  0  0  0  0  0  0  0
    2.7805   -2.3196    1.7065 H   0  0  0  0  0  0  0  0  0  0  0  0
    2.9221   -0.7728    0.9248 H   0  0  0  0  0  0  0  0  0  0  0  0
    2.3953   -2.6442   -0.6432 H   0  0  0  0  0  0  0  0  0  0  0  0
    3.8523   -1.8378   -1.0941 H   0  0  0  0  0  0  0  0  0  0  0  0
    3.3865   -4.5852   -0.0490 H   0  0  0  0  0  0  0  0  0  0  0  0
    4.3560   -4.1005   -1.3310 H   0  0  0  0  0  0  0  0  0  0  0  0
    7.4107   -2.9518    0.0961 H   0  0  0  0  0  0  0  0  0  0  0  0
    6.1752   -2.6005   -1.1036 H   0  0  0  0  0  0  0  0  0  0  0  0
    6.9197   -4.1203   -1.0957 H   0  0  0  0  0  0  0  0  0  0  0  0
    6.0397   -5.8789   -0.1338 H   0  0  0  0  0  0  0  0  0  0  0  0
    4.0434   -6.6606    0.4839 H   0  0  0  0  0  0  0  0  0  0  0  0
    3.2352   -4.8231    1.9336 H   0  0  0  0  0  0  0  0  0  0  0  0
    4.0988   -5.1608    4.4047 H   0  0  0  0  0  0  0  0  0  0  0  0
    3.9325   -3.2375    3.4157 H   0  0  0  0  0  0  0  0  0  0  0  0
    5.5316   -3.2860    4.0401 H   0  0  0  0  0  0  0  0  0  0  0  0
    6.4714   -2.8283    2.0805 H   0  0  0  0  0  0  0  0  0  0  0  0
    6.8958   -7.8209    5.0070 H   0  0  0  0  0  0  0  0  0  0  0  0
    7.2816   -8.9656    3.6656 H   0  0  0  0  0  0  0  0  0  0  0  0
    8.7783   -7.8530    1.3173 H   0  0  0  0  0  0  0  0  0  0  0  0
    7.3190   -4.7620    2.3687 H   0  0  0  0  0  0  0  0  0  0  0  0
    8.4849   -6.1067    0.2299 H   0  0  0  0  0  0  0  0  0  0  0  0
    5.4959   -8.3148    1.3341 H   0  0  0  0  0  0  0  0  0  0  0  0
    3.4068   -8.9730    1.8595 H   0  0  0  0  0  0  0  0  0  0  0  0
    3.9942  -10.3205    3.4255 H   0  0  0  0  0  0  0  0  0  0  0  0
    3.4194   -7.5379    4.5373 H   0  0  0  0  0  0  0  0  0  0  0  0
    1.2739  -10.6281    5.1465 H   0  0  0  0  0  0  0  0  0  0  0  0
    2.8781   -9.9751    5.4291 H   0  0  0  0  0  0  0  0  0  0  0  0
    2.4652  -10.7914    3.9056 H   0  0  0  0  0  0  0  0  0  0  0  0
    0.2082   -8.8466    5.7339 H   0  0  0  0  0  0  0  0  0  0  0  0
    0.0746   -7.3928    4.8352 H   0  0  0  0  0  0  0  0  0  0  0  0
    1.4306   -7.6076    5.9459 H   0  0  0  0  0  0  0  0  0  0  0  0
    1.2906   -9.7022    2.1551 H   0  0  0  0  0  0  0  0  0  0  0  0
   -0.1146   -9.6109    3.1626 H   0  0  0  0  0  0  0  0  0  0  0  0
   -0.2081   -8.0930    1.1891 H   0  0  0  0  0  0  0  0  0  0  0  0
   -0.4163   -7.2385    2.6655 H   0  0  0  0  0  0  0  0  0  0  0  0
    2.0749   -7.4348    0.9375 H   0  0  0  0  0  0  0  0  0  0  0  0
    1.1570   -5.9945    1.1897 H   0  0  0  0  0  0  0  0  0  0  0  0
    0.5645   -5.6563    3.7518 H   0  0  0  0  0  0  0  0  0  0  0  0
    1.7720   -4.4719    3.4905 H   0  0  0  0  0  0  0  0  0  0  0  0
    1.9407   -5.5754    4.8368 H   0  0  0  0  0  0  0  0  0  0  0  0
  1  2  1  0
  1 35  1  0
  1 36  1  0
  1 37  1  0
  2 14  1  0
  2  3  1  0
  2  4  1  0
  3 38  1  0
  3 39  1  0
  3 40  1  0
  4  5  1  0
  4 41  1  0
  4 42  1  0
  5  6  1  0
  5 43  1  0
  5 44  1  0
  6  7  1  0
  6 45  1  0
  6 46  1  0
  7 14  1  0
  7  8  1  6
  7  9  1  0
  8 47  1  0
  8 48  1  0
  8 49  1  0
  9 21  1  0
  9 10  1  0
  9 50  1  6
 10 23  1  0
 10 11  1  0
 10 51  1  6
 11 33  1  0
 11 12  1  0
 11 52  1  6
 12 13  1  0
 12 15  1  0
 12 53  1  1
 13 14  1  0
 13 54  1  0
 13 55  1  0
 14 56  1  1
 16 15  1  1
 16 19  1  0
 16 17  1  0
 16 23  1  0
 17 18  1  0
 17 57  1  0
 17 58  1  0
 18 19  1  0
 19 20  1  6
 19 21  1  0
 20 59  1  0
 21 22  1  0
 21 60  1  1
 22 61  1  0
 23 24  1  0
 23 62  1  6
 24 25  1  0
 24 26  1  0
 24 63  1  6
 25 64  1  0
 26 33  1  0
 26 27  1  0
 26 65  1  1
 27 28  1  0
 27 29  1  0
 27 30  1  0
 28 66  1  0
 28 67  1  0
 28 68  1  0
 29 69  1  0
 29 70  1  0
 29 71  1  0
 30 31  1  0
 30 72  1  0
 30 73  1  0
 31 32  1  0
 31 74  1  0
 31 75  1  0
 32 33  1  0
 32 76  1  0
 32 77  1  0
 33 34  1  1
 34 78  1  0
 34 79  1  0
 34 80  1  0
M  END
>  <i_m_ct_stereo_status>  (74) 
1

>  <s_m_source_file>  (74) 
/var/tmp/pbs.5076255.sched01/tmp_578sd5a/06fbc0iir.sdf

>  <i_m_source_file_index>  (74) 
35

>  <i_lp_mmshare_version>  (74) 
48012

>  <i_f3d_flags>  (74) 
0

>  <s_epik_input>  (74) 
W0NIMl0xT1tDQF0oW0NAQF0xMjMpKFtPSF0pW0NAQEhdKFtPSF0pW0NAQEhdNFtDQF01KFtDSDNdKVtDQEBIXShDKFtDSDNdKShbQ0gzXSlbQ0gyXVtDSDJdW0NIMl01KVtDSDJdW0NASF0oTzIpW0NASF02W0NAQEhdNFtDQEBIXTNbQ0BASF0oW09IXSlbQ0BIXTdbQ0BdNihbQ0gzXSlbQ0gyXVtDSDJdW0NIMl1DNyhbQ0gzXSlbQ0gzXQ==

>  <s_epik_cmdline>  (74) 
J2VwaWtfcHl0aG9uJywgJy1waHQnLCAnMi4wJywgJy1waCcsICc3LjAnLCAnLXRuJywgJzgnLCAnLW1hJywgJzIwMCcsICctaW1hZScsICc8aW5maWxlLm1hZT4nLCAnLW9tYWUnLCAnPG91dGZpbGUubWFlPic=

>  <r_lp_tautomer_probability>  (74) 
1

>  <r_epik_Ionization_Penalty>  (74) 
1.67814e-06

>  <r_epik_Ionization_Penalty_Charging>  (74) 
0

>  <r_epik_Ionization_Penalty_Neutral>  (74) 
1.67814e-06

>  <r_epik_State_Penalty>  (74) 
-0

>  <r_epik_Charging_Adjusted_Penalty>  (74) 
0

>  <i_epik_Tot_Q>  (74) 
0

>  <i_epik_Tot_abs_Q>  (74) 
0

>  <s_lp_Force_Field>  (74) 
OPLS3e

>  <r_lp_Energy>  (74) 
153.064

>  <b_lp_Chiralities_Consistent>  (74) 
1

>  <s_lp_Variant>  (74) 
31:0-1

>  <s_i_glide_gridfile>  (74) 
pfpi4k_grid

>  <i_i_glide_lignum>  (74) 
35

>  <i_i_glide_rotatable_bonds>  (74) 
3

>  <r_i_docking_score>  (74) 
-3.18101

>  <r_i_glide_ligand_efficiency>  (74) 
-0.0935591

>  <r_i_glide_ligand_efficiency_sa>  (74) 
-0.303095

>  <r_i_glide_ligand_efficiency_ln>  (74) 
-0.702775

>  <r_i_glide_gscore>  (74) 
-3.18101

>  <r_i_glide_lipo>  (74) 
-0.814396

>  <r_i_glide_hbond>  (74) 
0

>  <r_i_glide_metal>  (74) 
-0

>  <r_i_glide_rewards>  (74) 
-0.172687

>  <r_i_glide_evdw>  (74) 
-33.7696

>  <r_i_glide_ecoul>  (74) 
-3.33182

>  <r_i_glide_erotb>  (74) 
0

>  <r_i_glide_esite>  (74) 
-0.00567424

>  <r_i_glide_emodel>  (74) 
-43.6215

>  <r_i_glide_energy>  (74) 
-37.1014

>  <r_i_glide_einternal>  (74) 
1.68739

>  <r_i_glide_intrahb_reward>  (74) 
-0

>  <i_i_glide_confnum>  (74) 
2

>  <i_i_glide_posenum>  (74) 
10

>  <r_i_glide_eff_state_penalty>  (74) 
0

>  <ligand_id>  (74) 
31

>  <original_smiles>  (74) 
CC1(C)CCCC2(C)C3C4C5C(CC12)OC1(COC1(O)C3O)C4C(O)C1C(C)(C)CCCC51C

>  <smiles>  (74) 
[H]OC1([H])C2(O[H])OC([H])([H])C23OC2([H])C([H])([H])C4([H])C(C([H])([H])[H])(C([H])([H])[H])C([H])([H])C([H])([H])C([H])([H])C4(C([H])([H])[H])C1([H])C1([H])C3([H])C([H])(O[H])C3([H])C(C([H])([H])[H])(C([H])([H])[H])C([H])([H])C([H])([H])C([H])([H])C3(C([H])([H])[H])C21[H]

$$$$
31:0:2
     RDKit          3D

 80 86  0  0  1  0  0  0  0  0999 V2000
    4.3191   -1.0463   -2.5361 C   0  0  0  0  0  0  0  0  0  0  0  0
    4.0581   -2.4726   -1.9856 C   0  0  0  0  0  0  0  0  0  0  0  0
    2.7425   -2.8796   -2.7056 C   0  0  0  0  0  0  0  0  0  0  0  0
    5.1963   -3.4302   -2.4032 C   0  0  0  0  0  0  0  0  0  0  0  0
    6.5550   -3.0508   -1.8027 C   0  0  0  0  0  0  0  0  0  0  0  0
    6.5527   -2.9178   -0.2674 C   0  0  0  0  0  0  0  0  0  0  0  0
    5.2968   -2.2216    0.3724 C   0  0  2  0  0  0  0  0  0  0  0  0
    5.6094   -0.6976    0.2570 C   0  0  0  0  0  0  0  0  0  0  0  0
    5.1950   -2.5243    1.9228 C   0  0  2  0  0  0  0  0  0  0  0  0
    5.4090   -4.0793    2.3438 C   0  0  2  0  0  0  0  0  0  0  0  0
    4.7203   -5.0822    1.4104 C   0  0  2  0  0  0  0  0  0  0  0  0
    3.2663   -4.6128    1.3331 C   0  0  2  0  0  0  0  0  0  0  0  0
    3.0558   -3.7784    0.0433 C   0  0  0  0  0  0  0  0  0  0  0  0
    3.9325   -2.5332   -0.4034 C   0  0  2  0  0  0  0  0  0  0  0  0
    2.6747   -4.1406    2.5580 O   0  0  0  0  0  0  0  0  0  0  0  0
    3.4640   -3.8325    3.7425 C   0  0  2  0  0  0  0  0  0  0  0  0
    2.4366   -3.6725    4.8587 C   0  0  0  0  0  0  0  0  0  0  0  0
    2.2548   -2.2846    4.4509 O   0  0  0  0  0  0  0  0  0  0  0  0
    3.6108   -2.3290    3.9302 C   0  0  1  0  0  0  0  0  0  0  0  0
    4.5559   -1.8728    4.8966 O   0  0  0  0  0  0  0  0  0  0  0  0
    3.9805   -1.7235    2.5938 C   0  0  1  0  0  0  0  0  0  0  0  0
    4.2527   -0.3428    2.7697 O   0  0  0  0  0  0  0  0  0  0  0  0
    4.8512   -4.4659    3.7305 C   0  0  1  0  0  0  0  0  0  0  0  0
    4.9349   -5.9557    4.1407 C   0  0  1  0  0  0  0  0  0  0  0  0
    4.3163   -6.0290    5.4055 O   0  0  0  0  0  0  0  0  0  0  0  0
    4.3763   -7.0046    3.1215 C   0  0  2  0  0  0  0  0  0  0  0  0
    4.6615   -8.5256    3.5170 C   0  0  0  0  0  0  0  0  0  0  0  0
    4.2428   -8.8636    4.9692 C   0  0  0  0  0  0  0  0  0  0  0  0
    3.8554   -9.5336    2.6519 C   0  0  0  0  0  0  0  0  0  0  0  0
    6.1769   -8.8213    3.3909 C   0  0  0  0  0  0  0  0  0  0  0  0
    6.7749   -8.4323    2.0312 C   0  0  0  0  0  0  0  0  0  0  0  0
    6.4591   -6.9734    1.6537 C   0  0  0  0  0  0  0  0  0  0  0  0
    4.9414   -6.6141    1.7051 C   0  0  2  0  0  0  0  0  0  0  0  0
    4.2421   -7.3624    0.5388 C   0  0  0  0  0  0  0  0  0  0  0  0
    4.0772   -0.9666   -3.5960 H   0  0  0  0  0  0  0  0  0  0  0  0
    5.3528   -0.7319   -2.4781 H   0  0  0  0  0  0  0  0  0  0  0  0
    3.7194   -0.3000   -2.0195 H   0  0  0  0  0  0  0  0  0  0  0  0
    2.5116   -3.9326   -2.6195 H   0  0  0  0  0  0  0  0  0  0  0  0
    2.7899   -2.6929   -3.7792 H   0  0  0  0  0  0  0  0  0  0  0  0
    1.8793   -2.3301   -2.3249 H   0  0  0  0  0  0  0  0  0  0  0  0
    4.9615   -4.4458   -2.0822 H   0  0  0  0  0  0  0  0  0  0  0  0
    5.2722   -3.4756   -3.4889 H   0  0  0  0  0  0  0  0  0  0  0  0
    7.2892   -3.8033   -2.0837 H   0  0  0  0  0  0  0  0  0  0  0  0
    6.9337   -2.1397   -2.2521 H   0  0  0  0  0  0  0  0  0  0  0  0
    6.7764   -3.8929    0.1459 H   0  0  0  0  0  0  0  0  0  0  0  0
    7.4412   -2.3576    0.0220 H   0  0  0  0  0  0  0  0  0  0  0  0
    4.7122   -0.0790    0.2325 H   0  0  0  0  0  0  0  0  0  0  0  0
    6.1926   -0.4508   -0.6167 H   0  0  0  0  0  0  0  0  0  0  0  0
    6.2151   -0.3284    1.0828 H   0  0  0  0  0  0  0  0  0  0  0  0
    6.0750   -2.0717    2.3880 H   0  0  0  0  0  0  0  0  0  0  0  0
    6.4830   -4.2678    2.3427 H   0  0  0  0  0  0  0  0  0  0  0  0
    5.1195   -4.9828    0.4116 H   0  0  0  0  0  0  0  0  0  0  0  0
    2.6377   -5.4820    1.1652 H   0  0  0  0  0  0  0  0  0  0  0  0
    3.1828   -4.5439   -0.7180 H   0  0  0  0  0  0  0  0  0  0  0  0
    2.0027   -3.5027   -0.0240 H   0  0  0  0  0  0  0  0  0  0  0  0
    3.2653   -1.7014   -0.1682 H   0  0  0  0  0  0  0  0  0  0  0  0
    1.5427   -4.2790    4.7278 H   0  0  0  0  0  0  0  0  0  0  0  0
    2.8347   -3.7552    5.8729 H   0  0  0  0  0  0  0  0  0  0  0  0
    4.2733   -2.2127    5.7325 H   0  0  0  0  0  0  0  0  0  0  0  0
    3.0986   -1.7709    1.9617 H   0  0  0  0  0  0  0  0  0  0  0  0
    3.4452    0.0863    3.0114 H   0  0  0  0  0  0  0  0  0  0  0  0
    5.5050   -3.9927    4.4611 H   0  0  0  0  0  0  0  0  0  0  0  0
    5.9888   -6.1669    4.3026 H   0  0  0  0  0  0  0  0  0  0  0  0
    4.4474   -6.9059    5.7409 H   0  0  0  0  0  0  0  0  0  0  0  0
    3.2926   -6.8751    3.1037 H   0  0  0  0  0  0  0  0  0  0  0  0
    4.2568   -9.9399    5.1522 H   0  0  0  0  0  0  0  0  0  0  0  0
    3.2281   -8.5197    5.1856 H   0  0  0  0  0  0  0  0  0  0  0  0
    4.9273   -8.4473    5.7078 H   0  0  0  0  0  0  0  0  0  0  0  0
    3.7716  -10.5118    3.1262 H   0  0  0  0  0  0  0  0  0  0  0  0
    4.3194   -9.7519    1.6959 H   0  0  0  0  0  0  0  0  0  0  0  0
    2.8367   -9.1872    2.4695 H   0  0  0  0  0  0  0  0  0  0  0  0
    6.7242   -8.2907    4.1725 H   0  0  0  0  0  0  0  0  0  0  0  0
    6.3619   -9.8797    3.5838 H   0  0  0  0  0  0  0  0  0  0  0  0
    7.8539   -8.5565    2.0802 H   0  0  0  0  0  0  0  0  0  0  0  0
    6.4423   -9.1270    1.2657 H   0  0  0  0  0  0  0  0  0  0  0  0
    7.0317   -6.3459    2.3332 H   0  0  0  0  0  0  0  0  0  0  0  0
    6.8602   -6.7527    0.6663 H   0  0  0  0  0  0  0  0  0  0  0  0
    4.7289   -8.2898    0.2518 H   0  0  0  0  0  0  0  0  0  0  0  0
    4.2265   -6.7813   -0.3842 H   0  0  0  0  0  0  0  0  0  0  0  0
    3.2114   -7.5907    0.7980 H   0  0  0  0  0  0  0  0  0  0  0  0
  1  2  1  0
  1 35  1  0
  1 36  1  0
  1 37  1  0
  2 14  1  0
  2  3  1  0
  2  4  1  0
  3 38  1  0
  3 39  1  0
  3 40  1  0
  4  5  1  0
  4 41  1  0
  4 42  1  0
  5  6  1  0
  5 43  1  0
  5 44  1  0
  6  7  1  0
  6 45  1  0
  6 46  1  0
  7 14  1  0
  7  8  1  1
  7  9  1  0
  8 47  1  0
  8 48  1  0
  8 49  1  0
  9 21  1  0
  9 10  1  0
  9 50  1  1
 10 23  1  0
 10 11  1  0
 10 51  1  1
 11 33  1  0
 11 12  1  0
 11 52  1  6
 12 13  1  0
 12 15  1  0
 12 53  1  6
 13 14  1  0
 13 54  1  0
 13 55  1  0
 14 56  1  1
 16 15  1  6
 16 19  1  0
 16 17  1  0
 16 23  1  0
 17 18  1  0
 17 57  1  0
 17 58  1  0
 18 19  1  0
 19 20  1  1
 19 21  1  0
 20 59  1  0
 21 22  1  0
 21 60  1  6
 22 61  1  0
 23 24  1  0
 23 62  1  1
 24 25  1  0
 24 26  1  0
 24 63  1  1
 25 64  1  0
 26 33  1  0
 26 27  1  0
 26 65  1  6
 27 28  1  0
 27 29  1  0
 27 30  1  0
 28 66  1  0
 28 67  1  0
 28 68  1  0
 29 69  1  0
 29 70  1  0
 29 71  1  0
 30 31  1  0
 30 72  1  0
 30 73  1  0
 31 32  1  0
 31 74  1  0
 31 75  1  0
 32 33  1  0
 32 76  1  0
 32 77  1  0
 33 34  1  6
 34 78  1  0
 34 79  1  0
 34 80  1  0
M  END
>  <i_m_ct_stereo_status>  (75) 
1

>  <s_m_source_file>  (75) 
/var/tmp/pbs.5076255.sched01/tmp_578sd5a/06fbc0iir.sdf

>  <i_m_source_file_index>  (75) 
35

>  <i_lp_mmshare_version>  (75) 
48012

>  <i_f3d_flags>  (75) 
0

>  <s_epik_input>  (75) 
W0NIMl0xT1tDQF0oW0NAQF0xMjMpKFtPSF0pW0NAQEhdKFtPSF0pW0NAQEhdNFtDQF01KFtDSDNdKVtDQEBIXShDKFtDSDNdKShbQ0gzXSlbQ0gyXVtDSDJdW0NIMl01KVtDSDJdW0NASF0oTzIpW0NASF02W0NAQEhdNFtDQEBIXTNbQ0BASF0oW09IXSlbQ0BIXTdbQ0BdNihbQ0gzXSlbQ0gyXVtDSDJdW0NIMl1DNyhbQ0gzXSlbQ0gzXQ==

>  <s_epik_cmdline>  (75) 
J2VwaWtfcHl0aG9uJywgJy1waHQnLCAnMi4wJywgJy1waCcsICc3LjAnLCAnLXRuJywgJzgnLCAnLW1hJywgJzIwMCcsICctaW1hZScsICc8aW5maWxlLm1hZT4nLCAnLW9tYWUnLCAnPG91dGZpbGUubWFlPic=

>  <r_lp_tautomer_probability>  (75) 
1

>  <r_epik_Ionization_Penalty>  (75) 
1.67814e-06

>  <r_epik_Ionization_Penalty_Charging>  (75) 
0

>  <r_epik_Ionization_Penalty_Neutral>  (75) 
1.67814e-06

>  <r_epik_State_Penalty>  (75) 
-0

>  <r_epik_Charging_Adjusted_Penalty>  (75) 
0

>  <i_epik_Tot_Q>  (75) 
0

>  <i_epik_Tot_abs_Q>  (75) 
0

>  <s_lp_Force_Field>  (75) 
OPLS3e

>  <r_lp_Energy>  (75) 
153.064

>  <b_lp_Chiralities_Consistent>  (75) 
1

>  <s_lp_Variant>  (75) 
31:0-1

>  <s_i_glide_gridfile>  (75) 
pfpi4k_grid

>  <i_i_glide_lignum>  (75) 
35

>  <i_i_glide_rotatable_bonds>  (75) 
3

>  <r_i_docking_score>  (75) 
-2.77912

>  <r_i_glide_ligand_efficiency>  (75) 
-0.0817389

>  <r_i_glide_ligand_efficiency_sa>  (75) 
-0.264802

>  <r_i_glide_ligand_efficiency_ln>  (75) 
-0.613986

>  <r_i_glide_gscore>  (75) 
-2.77912

>  <r_i_glide_lipo>  (75) 
-0.909112

>  <r_i_glide_hbond>  (75) 
0

>  <r_i_glide_metal>  (75) 
-0

>  <r_i_glide_rewards>  (75) 
-0.172694

>  <r_i_glide_evdw>  (75) 
-33.4813

>  <r_i_glide_ecoul>  (75) 
-0.155025

>  <r_i_glide_erotb>  (75) 
0

>  <r_i_glide_esite>  (75) 
0

>  <r_i_glide_emodel>  (75) 
-39.8198

>  <r_i_glide_energy>  (75) 
-33.6363

>  <r_i_glide_einternal>  (75) 
0.755863

>  <r_i_glide_intrahb_reward>  (75) 
-0

>  <i_i_glide_confnum>  (75) 
2

>  <i_i_glide_posenum>  (75) 
26

>  <r_i_glide_eff_state_penalty>  (75) 
0

>  <ligand_id>  (75) 
31

>  <original_smiles>  (75) 
CC1(C)CCCC2(C)C3C4C5C(CC12)OC1(COC1(O)C3O)C4C(O)C1C(C)(C)CCCC51C

>  <smiles>  (75) 
[H]OC1([H])C2(O[H])OC([H])([H])C23OC2([H])C([H])([H])C4([H])C(C([H])([H])[H])(C([H])([H])[H])C([H])([H])C([H])([H])C([H])([H])C4(C([H])([H])[H])C1([H])C1([H])C3([H])C([H])(O[H])C3([H])C(C([H])([H])[H])(C([H])([H])[H])C([H])([H])C([H])([H])C([H])([H])C3(C([H])([H])[H])C21[H]

$$$$
32:0:0
     RDKit          3D

 48 54  0  0  1  0  0  0  0  0999 V2000
    4.3251    0.0167    3.4663 C   0  0  0  0  0  0  0  0  0  0  0  0
    5.0105   -1.2256    3.3453 O   0  0  0  0  0  0  0  0  0  0  0  0
    4.3245   -2.2565    2.6288 C   0  0  1  0  0  0  0  0  0  0  0  0
    3.1881   -2.8631    3.5195 C   0  0  1  0  0  0  0  0  0  0  0  0
    1.9156   -3.4339    2.9319 C   0  0  0  0  0  0  0  0  0  0  0  0
    2.2844   -4.7500    2.3064 N   0  0  2  0  0  0  0  0  0  0  0  0
    1.2677   -5.8065    2.4919 C   0  0  0  0  0  0  0  0  0  0  0  0
    3.6493   -5.1547    2.7443 C   0  0  1  0  0  0  0  0  0  0  0  0
    4.8498   -4.6829    1.8592 C   0  0  1  0  0  0  0  0  0  0  0  0
    4.8091   -4.1933    0.3973 C   0  0  2  0  0  0  0  0  0  0  0  0
    6.2464   -3.6680    0.0545 C   0  0  0  0  0  0  0  0  0  0  0  0
    6.3969   -2.1546    0.1147 C   0  0  0  0  0  0  0  0  0  0  0  0
    5.3569   -1.3567    0.4453 C   0  0  0  0  0  0  0  0  0  0  0  0
    4.9611   -0.5573   -0.5816 O   0  0  0  0  0  0  0  0  0  0  0  0
    4.2288   -1.2315   -1.5512 C   0  0  0  0  0  0  0  0  0  0  0  0
    4.0706   -0.6754   -2.8308 C   0  0  0  0  0  0  0  0  0  0  0  0
    3.3228   -1.3563   -3.8168 C   0  0  0  0  0  0  0  0  0  0  0  0
    2.7203   -2.5927   -3.5162 C   0  0  0  0  0  0  0  0  0  0  0  0
    2.8625   -3.1503   -2.2349 C   0  0  0  0  0  0  0  0  0  0  0  0
    3.6286   -2.4933   -1.2507 C   0  0  0  0  0  0  0  0  0  0  0  0
    3.7412   -3.0550    0.1765 C   0  0  2  0  0  0  0  0  0  0  0  0
    4.1094   -1.8952    1.1300 C   0  0  1  0  0  0  0  0  0  0  0  0
    5.0913   -3.5586    2.8507 C   0  0  2  0  0  0  0  0  0  0  0  0
    4.0272   -4.0920    3.7597 C   0  0  1  0  0  0  0  0  0  0  0  0
    4.9109    0.6965    4.0856 H   0  0  0  0  0  0  0  0  0  0  0  0
    3.3535   -0.0989    3.9446 H   0  0  0  0  0  0  0  0  0  0  0  0
    4.1791    0.5053    2.5032 H   0  0  0  0  0  0  0  0  0  0  0  0
    3.0510   -2.2954    4.4372 H   0  0  0  0  0  0  0  0  0  0  0  0
    1.2024   -3.6065    3.7362 H   0  0  0  0  0  0  0  0  0  0  0  0
    1.4380   -2.7501    2.2279 H   0  0  0  0  0  0  0  0  0  0  0  0
    1.1624   -6.0675    3.5426 H   0  0  0  0  0  0  0  0  0  0  0  0
    1.5385   -6.6989    1.9291 H   0  0  0  0  0  0  0  0  0  0  0  0
    0.3031   -5.4651    2.1309 H   0  0  0  0  0  0  0  0  0  0  0  0
    3.7596   -6.1777    3.1051 H   0  0  0  0  0  0  0  0  0  0  0  0
    5.6359   -5.4198    2.0078 H   0  0  0  0  0  0  0  0  0  0  0  0
    4.5880   -5.0394   -0.2567 H   0  0  0  0  0  0  0  0  0  0  0  0
    7.0410   -4.1297    0.6433 H   0  0  0  0  0  0  0  0  0  0  0  0
    6.4546   -3.9306   -0.9831 H   0  0  0  0  0  0  0  0  0  0  0  0
    7.1232   -1.7845   -0.5869 H   0  0  0  0  0  0  0  0  0  0  0  0
    4.5035    0.2875   -3.0576 H   0  0  0  0  0  0  0  0  0  0  0  0
    3.1843   -0.9160   -4.7933 H   0  0  0  0  0  0  0  0  0  0  0  0
    2.1248   -3.1029   -4.2646 H   0  0  0  0  0  0  0  0  0  0  0  0
    2.3649   -4.0790   -2.0012 H   0  0  0  0  0  0  0  0  0  0  0  0
    2.7408   -3.4048    0.3703 H   0  0  0  0  0  0  0  0  0  0  0  0
    3.3294   -1.1349    1.0705 H   0  0  0  0  0  0  0  0  0  0  0  0
    6.0799   -3.4911    3.2832 H   0  0  0  0  0  0  0  0  0  0  0  0
    4.2976   -4.3817    4.7748 H   0  0  0  0  0  0  0  0  0  0  0  0
    2.3704   -4.5793    1.3125 H   0  0  0  0  0  0  0  0  0  0  0  0
  1  2  1  0
  1 25  1  0
  1 26  1  0
  1 27  1  0
  3  2  1  1
  3 22  1  0
  3 23  1  0
  3  4  1  0
  4 24  1  0
  4  5  1  0
  4 28  1  1
  5  6  1  0
  5 29  1  0
  5 30  1  0
  6  7  1  0
  6  8  1  0
  6 48  1  6
  7 31  1  0
  7 32  1  0
  7 33  1  0
  8 24  1  0
  8  9  1  0
  8 34  1  1
  9 10  1  0
  9 23  1  0
  9 35  1  6
 10 21  1  0
 10 11  1  0
 10 36  1  6
 11 12  1  0
 11 37  1  0
 11 38  1  0
 12 13  2  0
 12 39  1  0
 13 22  1  0
 13 14  1  0
 14 15  1  0
 15 20  2  0
 15 16  1  0
 16 17  2  0
 16 40  1  0
 17 18  1  0
 17 41  1  0
 18 19  2  0
 18 42  1  0
 19 20  1  0
 19 43  1  0
 20 21  1  0
 21 22  1  0
 21 44  1  1
 22 45  1  1
 23 24  1  0
 23 46  1  1
 24 47  1  1
M  CHG  1   6   1
M  END
>  <i_m_ct_stereo_status>  (76) 
1

>  <s_m_source_file>  (76) 
/var/tmp/pbs.5076255.sched01/tmp_578sd5a/06fbc0iir.sdf

>  <i_m_source_file_index>  (76) 
36

>  <i_lp_mmshare_version>  (76) 
48012

>  <i_f3d_flags>  (76) 
0

>  <s_epik_input>  (76) 
W0NIM11PW0NAQF0xMltDQEBIXTNbQ0BIXTRbQ0BASF0oTihbQ0gyXTMpW0NIM10pW0NASF0oW0NAQEhdMjQpW0NASF01W0NAQEhdNmM3YyhPQyhbQ0BIXTE2KT1bQ0hdW0NIMl01KVtjSF1bY0hdW2NIXVtjSF03

>  <s_epik_cmdline>  (76) 
J2VwaWtfcHl0aG9uJywgJy1waHQnLCAnMi4wJywgJy1waCcsICc3LjAnLCAnLXRuJywgJzgnLCAnLW1hJywgJzIwMCcsICctaW1hZScsICc8aW5maWxlLm1hZT4nLCAnLW9tYWUnLCAnPG91dGZpbGUubWFlPic=

>  <r_epik_Ionization_Penalty>  (76) 
0.00479254

>  <r_epik_Ionization_Penalty_Charging>  (76) 
0.00479254

>  <r_epik_Ionization_Penalty_Neutral>  (76) 
6.35821e-13

>  <r_epik_State_Penalty>  (76) 
0.00347399

>  <r_epik_Charging_Adjusted_Penalty>  (76) 
0.00826653

>  <i_epik_Tot_Q>  (76) 
1

>  <i_epik_Tot_abs_Q>  (76) 
1

>  <s_lp_Force_Field>  (76) 
OPLS3e

>  <r_lp_Energy>  (76) 
108.451

>  <b_lp_Chiralities_Consistent>  (76) 
1

>  <s_lp_Variant>  (76) 
32:0-1

>  <s_i_glide_gridfile>  (76) 
pfpi4k_grid

>  <i_i_glide_lignum>  (76) 
36

>  <i_i_glide_rotatable_bonds>  (76) 
1

>  <r_i_docking_score>  (76) 
-3.46508

>  <r_i_glide_ligand_efficiency>  (76) 
-0.144378

>  <r_i_glide_ligand_efficiency_sa>  (76) 
-0.416459

>  <r_i_glide_ligand_efficiency_ln>  (76) 
-0.829353

>  <r_i_glide_gscore>  (76) 
-3.46508

>  <r_i_glide_lipo>  (76) 
-0.82882

>  <r_i_glide_hbond>  (76) 
0

>  <r_i_glide_metal>  (76) 
-0

>  <r_i_glide_rewards>  (76) 
-1.21077

>  <r_i_glide_evdw>  (76) 
-21.8018

>  <r_i_glide_ecoul>  (76) 
-2.1525

>  <r_i_glide_erotb>  (76) 
0

>  <r_i_glide_esite>  (76) 
-0.0125302

>  <r_i_glide_emodel>  (76) 
-28.6256

>  <r_i_glide_energy>  (76) 
-23.9543

>  <r_i_glide_einternal>  (76) 
0.0240947

>  <r_i_glide_intrahb_reward>  (76) 
-0

>  <i_i_glide_confnum>  (76) 
1

>  <i_i_glide_posenum>  (76) 
4

>  <r_i_glide_eff_state_penalty>  (76) 
0

>  <ligand_id>  (76) 
32

>  <original_smiles>  (76) 
COC12C3CN(C)C4C(C5CC=C6Oc7ccccc7C5C61)C2C43

>  <smiles>  (76) 
[H]C1=C2Oc3c([H])c([H])c([H])c([H])c3C3([H])C2([H])C2(OC([H])([H])[H])C4([H])C([H])(C3([H])C1([H])[H])C1([H])C4([H])C2([H])C([H])([H])[N+]1([H])C([H])([H])[H]

$$$$
32:0:1
     RDKit          3D

 48 54  0  0  1  0  0  0  0  0999 V2000
    3.6689   -2.5027    4.8058 C   0  0  0  0  0  0  0  0  0  0  0  0
    3.5732   -2.2929    3.3849 O   0  0  0  0  0  0  0  0  0  0  0  0
    4.0202   -3.3057    2.4553 C   0  0  1  0  0  0  0  0  0  0  0  0
    3.5222   -4.7395    2.8637 C   0  0  1  0  0  0  0  0  0  0  0  0
    3.1785   -5.8209    1.8614 C   0  0  0  0  0  0  0  0  0  0  0  0
    4.4809   -6.3253    1.3058 N   0  0  2  0  0  0  0  0  0  0  0  0
    4.5010   -7.7914    1.1204 C   0  0  0  0  0  0  0  0  0  0  0  0
    5.6154   -5.8117    2.1324 C   0  0  1  0  0  0  0  0  0  0  0  0
    6.2411   -4.4416    1.6992 C   0  0  1  0  0  0  0  0  0  0  0  0
    6.1082   -3.7258    0.3369 C   0  0  2  0  0  0  0  0  0  0  0  0
    6.7578   -2.3072    0.4905 C   0  0  0  0  0  0  0  0  0  0  0  0
    5.7648   -1.1622    0.6918 C   0  0  0  0  0  0  0  0  0  0  0  0
    4.4353   -1.3880    0.7482 C   0  0  0  0  0  0  0  0  0  0  0  0
    3.7642   -0.8239   -0.3013 O   0  0  0  0  0  0  0  0  0  0  0  0
    3.9287   -1.5362   -1.4817 C   0  0  0  0  0  0  0  0  0  0  0  0
    3.6479   -0.9197   -2.7222 C   0  0  0  0  0  0  0  0  0  0  0  0
    3.7940   -1.6515   -3.9196 C   0  0  0  0  0  0  0  0  0  0  0  0
    4.2274   -2.9810   -3.8877 C   0  0  0  0  0  0  0  0  0  0  0  0
    4.5516   -3.5900   -2.6756 C   0  0  0  0  0  0  0  0  0  0  0  0
    4.3872   -2.8816   -1.4658 C   0  0  0  0  0  0  0  0  0  0  0  0
    4.6094   -3.5855   -0.1144 C   0  0  2  0  0  0  0  0  0  0  0  0
    3.8669   -2.7817    0.9880 C   0  0  1  0  0  0  0  0  0  0  0  0
    5.4330   -3.7645    2.7882 C   0  0  2  0  0  0  0  0  0  0  0  0
    4.9319   -5.0923    3.2844 C   0  0  1  0  0  0  0  0  0  0  0  0
    3.4459   -1.5727    5.3293 H   0  0  0  0  0  0  0  0  0  0  0  0
    4.6589   -2.8109    5.1426 H   0  0  0  0  0  0  0  0  0  0  0  0
    2.9478   -3.2363    5.1669 H   0  0  0  0  0  0  0  0  0  0  0  0
    2.8073   -4.7167    3.6848 H   0  0  0  0  0  0  0  0  0  0  0  0
    2.6793   -6.6204    2.4090 H   0  0  0  0  0  0  0  0  0  0  0  0
    2.4853   -5.4710    1.0906 H   0  0  0  0  0  0  0  0  0  0  0  0
    4.4327   -8.3062    2.0878 H   0  0  0  0  0  0  0  0  0  0  0  0
    5.4321   -8.0738    0.6136 H   0  0  0  0  0  0  0  0  0  0  0  0
    3.6522   -8.0844    0.4933 H   0  0  0  0  0  0  0  0  0  0  0  0
    6.3659   -6.5389    2.4652 H   0  0  0  0  0  0  0  0  0  0  0  0
    7.2822   -4.4733    2.0301 H   0  0  0  0  0  0  0  0  0  0  0  0
    6.6728   -4.2816   -0.4149 H   0  0  0  0  0  0  0  0  0  0  0  0
    7.5074   -2.2539    1.2773 H   0  0  0  0  0  0  0  0  0  0  0  0
    7.2838   -2.0895   -0.4417 H   0  0  0  0  0  0  0  0  0  0  0  0
    6.1022   -0.2271    0.2693 H   0  0  0  0  0  0  0  0  0  0  0  0
    3.3015    0.0957   -2.7579 H   0  0  0  0  0  0  0  0  0  0  0  0
    3.5508   -1.1780   -4.8561 H   0  0  0  0  0  0  0  0  0  0  0  0
    4.3147   -3.5805   -4.7878 H   0  0  0  0  0  0  0  0  0  0  0  0
    4.8587   -4.6226   -2.6630 H   0  0  0  0  0  0  0  0  0  0  0  0
    4.1497   -4.5483   -0.2744 H   0  0  0  0  0  0  0  0  0  0  0  0
    2.8024   -2.7492    0.7594 H   0  0  0  0  0  0  0  0  0  0  0  0
    6.0080   -3.1593    3.4709 H   0  0  0  0  0  0  0  0  0  0  0  0
    5.1521   -5.3558    4.3180 H   0  0  0  0  0  0  0  0  0  0  0  0
    4.5823   -5.8901    0.4004 H   0  0  0  0  0  0  0  0  0  0  0  0
  1  2  1  0
  1 25  1  0
  1 26  1  0
  1 27  1  0
  3  2  1  1
  3 22  1  0
  3 23  1  0
  3  4  1  0
  4 24  1  0
  4  5  1  0
  4 28  1  1
  5  6  1  0
  5 29  1  0
  5 30  1  0
  6  7  1  0
  6  8  1  0
  6 48  1  6
  7 31  1  0
  7 32  1  0
  7 33  1  0
  8 24  1  0
  8  9  1  0
  8 34  1  1
  9 10  1  0
  9 23  1  0
  9 35  1  1
 10 21  1  0
 10 11  1  0
 10 36  1  6
 11 12  1  0
 11 37  1  0
 11 38  1  0
 12 13  2  0
 12 39  1  0
 13 22  1  0
 13 14  1  0
 14 15  1  0
 15 20  2  0
 15 16  1  0
 16 17  2  0
 16 40  1  0
 17 18  1  0
 17 41  1  0
 18 19  2  0
 18 42  1  0
 19 20  1  0
 19 43  1  0
 20 21  1  0
 21 22  1  0
 21 44  1  6
 22 45  1  6
 23 24  1  0
 23 46  1  1
 24 47  1  1
M  CHG  1   6   1
M  END
>  <i_m_ct_stereo_status>  (77) 
1

>  <s_m_source_file>  (77) 
/var/tmp/pbs.5076255.sched01/tmp_578sd5a/06fbc0iir.sdf

>  <i_m_source_file_index>  (77) 
36

>  <i_lp_mmshare_version>  (77) 
48012

>  <i_f3d_flags>  (77) 
0

>  <s_epik_input>  (77) 
W0NIM11PW0NAQF0xMltDQEBIXTNbQ0BIXTRbQ0BASF0oTihbQ0gyXTMpW0NIM10pW0NASF0oW0NAQEhdMjQpW0NASF01W0NAQEhdNmM3YyhPQyhbQ0BIXTE2KT1bQ0hdW0NIMl01KVtjSF1bY0hdW2NIXVtjSF03

>  <s_epik_cmdline>  (77) 
J2VwaWtfcHl0aG9uJywgJy1waHQnLCAnMi4wJywgJy1waCcsICc3LjAnLCAnLXRuJywgJzgnLCAnLW1hJywgJzIwMCcsICctaW1hZScsICc8aW5maWxlLm1hZT4nLCAnLW9tYWUnLCAnPG91dGZpbGUubWFlPic=

>  <r_epik_Ionization_Penalty>  (77) 
0.00479254

>  <r_epik_Ionization_Penalty_Charging>  (77) 
0.00479254

>  <r_epik_Ionization_Penalty_Neutral>  (77) 
6.35821e-13

>  <r_epik_State_Penalty>  (77) 
0.00347399

>  <r_epik_Charging_Adjusted_Penalty>  (77) 
0.00826653

>  <i_epik_Tot_Q>  (77) 
1

>  <i_epik_Tot_abs_Q>  (77) 
1

>  <s_lp_Force_Field>  (77) 
OPLS3e

>  <r_lp_Energy>  (77) 
108.451

>  <b_lp_Chiralities_Consistent>  (77) 
1

>  <s_lp_Variant>  (77) 
32:0-1

>  <s_i_glide_gridfile>  (77) 
pfpi4k_grid

>  <i_i_glide_lignum>  (77) 
36

>  <i_i_glide_rotatable_bonds>  (77) 
1

>  <r_i_docking_score>  (77) 
-3.02225

>  <r_i_glide_ligand_efficiency>  (77) 
-0.125927

>  <r_i_glide_ligand_efficiency_sa>  (77) 
-0.363236

>  <r_i_glide_ligand_efficiency_ln>  (77) 
-0.723363

>  <r_i_glide_gscore>  (77) 
-3.02225

>  <r_i_glide_lipo>  (77) 
-0.66449

>  <r_i_glide_hbond>  (77) 
0

>  <r_i_glide_metal>  (77) 
-0

>  <r_i_glide_rewards>  (77) 
-1.21077

>  <r_i_glide_evdw>  (77) 
-21.2526

>  <r_i_glide_ecoul>  (77) 
-0.562428

>  <r_i_glide_erotb>  (77) 
0

>  <r_i_glide_esite>  (77) 
0

>  <r_i_glide_emodel>  (77) 
-23.2305

>  <r_i_glide_energy>  (77) 
-21.815

>  <r_i_glide_einternal>  (77) 
4.78765

>  <r_i_glide_intrahb_reward>  (77) 
-0

>  <i_i_glide_confnum>  (77) 
2

>  <i_i_glide_posenum>  (77) 
1

>  <r_i_glide_eff_state_penalty>  (77) 
0

>  <ligand_id>  (77) 
32

>  <original_smiles>  (77) 
COC12C3CN(C)C4C(C5CC=C6Oc7ccccc7C5C61)C2C43

>  <smiles>  (77) 
[H]C1=C2Oc3c([H])c([H])c([H])c([H])c3C3([H])C2([H])C2(OC([H])([H])[H])C4([H])C([H])(C3([H])C1([H])[H])C1([H])C4([H])C2([H])C([H])([H])[N+]1([H])C([H])([H])[H]

$$$$
34:0:0
     RDKit          3D

 46 51  0  0  1  0  0  0  0  0999 V2000
    3.4668    0.2674    1.2175 C   0  0  0  0  0  0  0  0  0  0  0  0
    2.8521    0.9442    2.4144 C   0  0  0  0  0  0  0  0  0  0  0  0
    1.5344    1.1689    2.5877 C   0  0  0  0  0  0  0  0  0  0  0  0
    0.8853    1.8057    3.8208 C   0  0  2  0  0  0  0  0  0  0  0  0
    0.6459    3.3282    3.5173 C   0  0  0  0  0  0  0  0  0  0  0  0
    0.6569    4.0614    4.8754 C   0  0  0  0  0  0  0  0  0  0  0  0
    0.6967    2.8921    5.8620 C   0  0  2  0  0  0  0  0  0  0  0  0
    1.7052    1.8934    5.0581 C   0  0  1  0  0  0  0  0  0  0  0  0
    2.2074    0.4362    5.4786 C   0  0  0  0  0  0  0  0  0  0  0  0
    1.3831   -0.8161    4.9989 C   0  0  0  0  0  0  0  0  0  0  0  0
    1.5913   -2.1331    5.4820 C   0  0  0  0  0  0  0  0  0  0  0  0
    0.4821   -2.9415    5.8068 C   0  0  0  0  0  0  0  0  0  0  0  0
   -0.8082   -2.3720    5.8550 C   0  0  0  0  0  0  0  0  0  0  0  0
   -1.8238   -3.0558    6.4818 O   0  0  0  0  0  0  0  0  0  0  0  0
   -0.9972   -1.0574    5.3727 C   0  0  0  0  0  0  0  0  0  0  0  0
    0.0470   -0.5027    4.6374 C   0  0  0  0  0  0  0  0  0  0  0  0
   -0.2815    0.9361    4.4372 C   0  0  2  0  0  0  0  0  0  0  0  0
   -1.6255    1.5427    3.9748 C   0  0  0  0  0  0  0  0  0  0  0  0
   -1.6679    2.6711    4.8877 O   0  0  0  0  0  0  0  0  0  0  0  0
   -0.8540    2.3969    6.0220 C   0  0  2  0  0  0  0  0  0  0  0  0
   -1.3700    2.8095    7.2528 O   0  0  0  0  0  0  0  0  0  0  0  0
   -2.7601    2.5615    7.4343 C   0  0  0  0  0  0  0  0  0  0  0  0
   -0.6389    0.9498    5.9487 C   0  0  1  0  0  0  0  0  0  0  0  0
   -1.6685   -0.0613    6.0474 O   0  0  0  0  0  0  0  0  0  0  0  0
    3.9601   -0.6611    1.5199 H   0  0  0  0  0  0  0  0  0  0  0  0
    4.2174    0.9338    0.7823 H   0  0  0  0  0  0  0  0  0  0  0  0
    2.7011    0.0255    0.4791 H   0  0  0  0  0  0  0  0  0  0  0  0
    3.5727    1.2479    3.1584 H   0  0  0  0  0  0  0  0  0  0  0  0
    0.8443    0.8792    1.8062 H   0  0  0  0  0  0  0  0  0  0  0  0
    1.4529    3.7259    2.9013 H   0  0  0  0  0  0  0  0  0  0  0  0
   -0.2656    3.5286    2.9578 H   0  0  0  0  0  0  0  0  0  0  0  0
    1.5737    4.6445    4.9653 H   0  0  0  0  0  0  0  0  0  0  0  0
   -0.1897    4.7416    5.0257 H   0  0  0  0  0  0  0  0  0  0  0  0
    1.0895    3.1714    6.8435 H   0  0  0  0  0  0  0  0  0  0  0  0
    2.6096    2.4679    4.8850 H   0  0  0  0  0  0  0  0  0  0  0  0
    3.1985    0.2677    5.0381 H   0  0  0  0  0  0  0  0  0  0  0  0
    2.3785    0.3872    6.5624 H   0  0  0  0  0  0  0  0  0  0  0  0
    2.5686   -2.4497    5.7902 H   0  0  0  0  0  0  0  0  0  0  0  0
    0.6412   -3.9210    6.2306 H   0  0  0  0  0  0  0  0  0  0  0  0
   -1.5622   -3.9263    6.7491 H   0  0  0  0  0  0  0  0  0  0  0  0
   -1.6415    1.8372    2.9176 H   0  0  0  0  0  0  0  0  0  0  0  0
   -2.4934    0.9182    4.1440 H   0  0  0  0  0  0  0  0  0  0  0  0
   -3.0514    2.8017    8.4578 H   0  0  0  0  0  0  0  0  0  0  0  0
   -3.0420    1.5207    7.2652 H   0  0  0  0  0  0  0  0  0  0  0  0
   -3.3528    3.1866    6.7606 H   0  0  0  0  0  0  0  0  0  0  0  0
    0.0954    0.7110    6.7187 H   0  0  0  0  0  0  0  0  0  0  0  0
  1  2  1  0
  1 25  1  0
  1 26  1  0
  1 27  1  0
  2  3  2  3
  2 28  1  0
  3  4  1  0
  3 29  1  0
  4  8  1  0
  4 17  1  0
  4  5  1  6
  5  6  1  0
  5 30  1  0
  5 31  1  0
  6  7  1  0
  6 32  1  0
  6 33  1  0
  7 20  1  0
  7  8  1  0
  7 34  1  1
  8  9  1  0
  8 35  1  6
  9 10  1  0
  9 36  1  0
  9 37  1  0
 10 16  2  0
 10 11  1  0
 11 12  2  0
 11 38  1  0
 12 13  1  0
 12 39  1  0
 13 14  1  0
 13 15  2  0
 14 40  1  0
 15 24  1  0
 15 16  1  0
 16 17  1  0
 17 23  1  0
 17 18  1  6
 18 19  1  0
 18 41  1  0
 18 42  1  0
 19 20  1  0
 20 21  1  1
 20 23  1  0
 21 22  1  0
 22 43  1  0
 22 44  1  0
 22 45  1  0
 23 24  1  0
 23 46  1  1
M  END
>  <i_m_ct_stereo_status>  (78) 
1

>  <s_m_source_file>  (78) 
/var/tmp/pbs.5076255.sched01/tmp_578sd5a/06fbc0iir.sdf

>  <i_m_source_file_index>  (78) 
38

>  <i_lp_mmshare_version>  (78) 
48012

>  <i_f3d_flags>  (78) 
0

>  <s_epik_input>  (78) 
W0NIM10vW0NIXT1bQ0hdL1tDQEBdMShbQ0BdMjM0KVtDQEhdNVtDQEBIXShbQ0gyXVtDSDJdMSlbQ0BdKE9bQ0gyXTMpKE9bQ0gzXSlbQ0BIXTRPYzZjMmMoW0NIMl01KVtjSF1bY0hdYzZbT0hd

>  <s_epik_cmdline>  (78) 
J2VwaWtfcHl0aG9uJywgJy1waHQnLCAnMi4wJywgJy1waCcsICc3LjAnLCAnLXRuJywgJzgnLCAnLW1hJywgJzIwMCcsICctaW1hZScsICc8aW5maWxlLm1hZT4nLCAnLW9tYWUnLCAnPG91dGZpbGUubWFlPic=

>  <r_lp_tautomer_probability>  (78) 
1

>  <r_epik_Ionization_Penalty>  (78) 
0.000802058

>  <r_epik_Ionization_Penalty_Charging>  (78) 
0

>  <r_epik_Ionization_Penalty_Neutral>  (78) 
0.000802058

>  <r_epik_State_Penalty>  (78) 
0.000515125

>  <r_epik_Charging_Adjusted_Penalty>  (78) 
0.000515125

>  <i_epik_Tot_Q>  (78) 
0

>  <i_epik_Tot_abs_Q>  (78) 
0

>  <s_lp_Force_Field>  (78) 
OPLS3e

>  <r_lp_Energy>  (78) 
175.32

>  <b_lp_Chiralities_Consistent>  (78) 
1

>  <s_lp_Variant>  (78) 
34:0-1

>  <s_i_glide_gridfile>  (78) 
pfpi4k_grid

>  <i_i_glide_lignum>  (78) 
38

>  <i_i_glide_rotatable_bonds>  (78) 
3

>  <r_i_docking_score>  (78) 
-2.79312

>  <r_i_glide_ligand_efficiency>  (78) 
-0.11638

>  <r_i_glide_ligand_efficiency_sa>  (78) 
-0.335698

>  <r_i_glide_ligand_efficiency_ln>  (78) 
-0.668523

>  <r_i_glide_gscore>  (78) 
-2.79312

>  <r_i_glide_lipo>  (78) 
-0.220968

>  <r_i_glide_hbond>  (78) 
-0.142074

>  <r_i_glide_metal>  (78) 
-0

>  <r_i_glide_rewards>  (78) 
-1.18373

>  <r_i_glide_evdw>  (78) 
-16.929

>  <r_i_glide_ecoul>  (78) 
-3.81215

>  <r_i_glide_erotb>  (78) 
0.176048

>  <r_i_glide_esite>  (78) 
-0.00412831

>  <r_i_glide_emodel>  (78) 
-23.0998

>  <r_i_glide_energy>  (78) 
-20.7411

>  <r_i_glide_einternal>  (78) 
3.2077

>  <r_i_glide_intrahb_reward>  (78) 
-0

>  <i_i_glide_confnum>  (78) 
3

>  <i_i_glide_posenum>  (78) 
1

>  <r_i_glide_eff_state_penalty>  (78) 
0

>  <ligand_id>  (78) 
34

>  <original_smiles>  (78) 
CC=CC12CCC3C1Cc1ccc(O)c4c1C21COC3(OC)C1O4

>  <smiles>  (78) 
[H]Oc1c([H])c([H])c2c3c1OC1([H])C4(OC([H])([H])[H])OC([H])([H])C31C1(C([H])=C([H])C([H])([H])[H])C([H])([H])C([H])([H])C4([H])C1([H])C2([H])[H]

$$$$
34:0:1
     RDKit          3D

 46 51  0  0  1  0  0  0  0  0999 V2000
    5.3470   -3.5030    4.6410 C   0  0  0  0  0  0  0  0  0  0  0  0
    4.5967   -4.5592    5.4101 C   0  0  0  0  0  0  0  0  0  0  0  0
    3.2719   -4.5423    5.6502 C   0  0  0  0  0  0  0  0  0  0  0  0
    2.4884   -5.6122    6.4064 C   0  0  2  0  0  0  0  0  0  0  0  0
    2.4121   -5.1994    7.9185 C   0  0  0  0  0  0  0  0  0  0  0  0
    2.2762   -6.4992    8.7326 C   0  0  0  0  0  0  0  0  0  0  0  0
    2.0961   -7.5410    7.6289 C   0  0  2  0  0  0  0  0  0  0  0  0
    3.1201   -6.9504    6.5122 C   0  0  1  0  0  0  0  0  0  0  0  0
    3.4412   -7.5028    5.0508 C   0  0  0  0  0  0  0  0  0  0  0  0
    2.5970   -6.9755    3.8239 C   0  0  0  0  0  0  0  0  0  0  0  0
    2.6151   -7.5736    2.5466 C   0  0  0  0  0  0  0  0  0  0  0  0
    1.4093   -7.7710    1.8357 C   0  0  0  0  0  0  0  0  0  0  0  0
    0.1688   -7.5685    2.4902 C   0  0  0  0  0  0  0  0  0  0  0  0
   -0.9731   -8.0609    1.9365 O   0  0  0  0  0  0  0  0  0  0  0  0
    0.1632   -6.9801    3.7742 C   0  0  0  0  0  0  0  0  0  0  0  0
    1.3572   -6.3913    4.2082 C   0  0  0  0  0  0  0  0  0  0  0  0
    1.1707   -6.0703    5.6515 C   0  0  2  0  0  0  0  0  0  0  0  0
   -0.0384   -5.3984    6.3243 C   0  0  0  0  0  0  0  0  0  0  0  0
   -0.1251   -6.2633    7.4927 O   0  0  0  0  0  0  0  0  0  0  0  0
    0.5113   -7.5129    7.2346 C   0  0  2  0  0  0  0  0  0  0  0  0
   -0.1765   -8.6187    7.7579 O   0  0  0  0  0  0  0  0  0  0  0  0
    0.1126   -9.8853    7.1659 C   0  0  0  0  0  0  0  0  0  0  0  0
    0.6039   -7.5029    5.7754 C   0  0  1  0  0  0  0  0  0  0  0  0
   -0.5165   -7.4861    4.8616 O   0  0  0  0  0  0  0  0  0  0  0  0
    5.8112   -3.9497    3.7581 H   0  0  0  0  0  0  0  0  0  0  0  0
    6.1322   -3.0909    5.2788 H   0  0  0  0  0  0  0  0  0  0  0  0
    4.6830   -2.6965    4.3225 H   0  0  0  0  0  0  0  0  0  0  0  0
    5.2121   -5.3686    5.7753 H   0  0  0  0  0  0  0  0  0  0  0  0
    2.6803   -3.7173    5.2832 H   0  0  0  0  0  0  0  0  0  0  0  0
    3.3373   -4.7075    8.2205 H   0  0  0  0  0  0  0  0  0  0  0  0
    1.6139   -4.4985    8.1524 H   0  0  0  0  0  0  0  0  0  0  0  0
    3.2066   -6.7031    9.2618 H   0  0  0  0  0  0  0  0  0  0  0  0
    1.4699   -6.4895    9.4729 H   0  0  0  0  0  0  0  0  0  0  0  0
    2.3962   -8.5294    7.9734 H   0  0  0  0  0  0  0  0  0  0  0  0
    4.0810   -6.9042    7.0207 H   0  0  0  0  0  0  0  0  0  0  0  0
    4.4636   -7.2127    4.8002 H   0  0  0  0  0  0  0  0  0  0  0  0
    3.4724   -8.5968    5.0576 H   0  0  0  0  0  0  0  0  0  0  0  0
    3.5119   -8.0564    2.1828 H   0  0  0  0  0  0  0  0  0  0  0  0
    1.4256   -8.2701    0.8776 H   0  0  0  0  0  0  0  0  0  0  0  0
   -0.7940   -8.6457    1.2082 H   0  0  0  0  0  0  0  0  0  0  0  0
    0.1306   -4.3476    6.5755 H   0  0  0  0  0  0  0  0  0  0  0  0
   -0.9664   -5.4247    5.7552 H   0  0  0  0  0  0  0  0  0  0  0  0
   -0.4243  -10.6734    7.6783 H   0  0  0  0  0  0  0  0  0  0  0  0
    1.1705  -10.1389    7.2005 H   0  0  0  0  0  0  0  0  0  0  0  0
   -0.2201   -9.9565    6.1327 H   0  0  0  0  0  0  0  0  0  0  0  0
    1.2124   -8.3637    5.4873 H   0  0  0  0  0  0  0  0  0  0  0  0
  1  2  1  0
  1 25  1  0
  1 26  1  0
  1 27  1  0
  2  3  2  3
  2 28  1  0
  3  4  1  0
  3 29  1  0
  4  8  1  0
  4 17  1  0
  4  5  1  1
  5  6  1  0
  5 30  1  0
  5 31  1  0
  6  7  1  0
  6 32  1  0
  6 33  1  0
  7 20  1  0
  7  8  1  0
  7 34  1  1
  8  9  1  0
  8 35  1  1
  9 10  1  0
  9 36  1  0
  9 37  1  0
 10 16  2  0
 10 11  1  0
 11 12  2  0
 11 38  1  0
 12 13  1  0
 12 39  1  0
 13 14  1  0
 13 15  2  0
 14 40  1  0
 15 24  1  0
 15 16  1  0
 16 17  1  0
 17 23  1  0
 17 18  1  6
 18 19  1  0
 18 41  1  0
 18 42  1  0
 19 20  1  0
 20 21  1  6
 20 23  1  0
 21 22  1  0
 22 43  1  0
 22 44  1  0
 22 45  1  0
 23 24  1  0
 23 46  1  6
M  END
>  <i_m_ct_stereo_status>  (79) 
1

>  <s_m_source_file>  (79) 
/var/tmp/pbs.5076255.sched01/tmp_578sd5a/06fbc0iir.sdf

>  <i_m_source_file_index>  (79) 
38

>  <i_lp_mmshare_version>  (79) 
48012

>  <i_f3d_flags>  (79) 
0

>  <s_epik_input>  (79) 
W0NIM10vW0NIXT1bQ0hdL1tDQEBdMShbQ0BdMjM0KVtDQEhdNVtDQEBIXShbQ0gyXVtDSDJdMSlbQ0BdKE9bQ0gyXTMpKE9bQ0gzXSlbQ0BIXTRPYzZjMmMoW0NIMl01KVtjSF1bY0hdYzZbT0hd

>  <s_epik_cmdline>  (79) 
J2VwaWtfcHl0aG9uJywgJy1waHQnLCAnMi4wJywgJy1waCcsICc3LjAnLCAnLXRuJywgJzgnLCAnLW1hJywgJzIwMCcsICctaW1hZScsICc8aW5maWxlLm1hZT4nLCAnLW9tYWUnLCAnPG91dGZpbGUubWFlPic=

>  <r_lp_tautomer_probability>  (79) 
1

>  <r_epik_Ionization_Penalty>  (79) 
0.000802058

>  <r_epik_Ionization_Penalty_Charging>  (79) 
0

>  <r_epik_Ionization_Penalty_Neutral>  (79) 
0.000802058

>  <r_epik_State_Penalty>  (79) 
0.000515125

>  <r_epik_Charging_Adjusted_Penalty>  (79) 
0.000515125

>  <i_epik_Tot_Q>  (79) 
0

>  <i_epik_Tot_abs_Q>  (79) 
0

>  <s_lp_Force_Field>  (79) 
OPLS3e

>  <r_lp_Energy>  (79) 
175.32

>  <b_lp_Chiralities_Consistent>  (79) 
1

>  <s_lp_Variant>  (79) 
34:0-1

>  <s_i_glide_gridfile>  (79) 
pfpi4k_grid

>  <i_i_glide_lignum>  (79) 
38

>  <i_i_glide_rotatable_bonds>  (79) 
3

>  <r_i_docking_score>  (79) 
-2.5976

>  <r_i_glide_ligand_efficiency>  (79) 
-0.108233

>  <r_i_glide_ligand_efficiency_sa>  (79) 
-0.312199

>  <r_i_glide_ligand_efficiency_ln>  (79) 
-0.621724

>  <r_i_glide_gscore>  (79) 
-2.5976

>  <r_i_glide_lipo>  (79) 
-0.02946

>  <r_i_glide_hbond>  (79) 
0

>  <r_i_glide_metal>  (79) 
-0

>  <r_i_glide_rewards>  (79) 
-1.18373

>  <r_i_glide_evdw>  (79) 
-14.9206

>  <r_i_glide_ecoul>  (79) 
-5.31597

>  <r_i_glide_erotb>  (79) 
0.176048

>  <r_i_glide_esite>  (79) 
-0.0170303

>  <r_i_glide_emodel>  (79) 
-19.7903

>  <r_i_glide_energy>  (79) 
-20.2366

>  <r_i_glide_einternal>  (79) 
8.02453

>  <r_i_glide_intrahb_reward>  (79) 
-0

>  <i_i_glide_confnum>  (79) 
3

>  <i_i_glide_posenum>  (79) 
10

>  <r_i_glide_eff_state_penalty>  (79) 
0

>  <ligand_id>  (79) 
34

>  <original_smiles>  (79) 
CC=CC12CCC3C1Cc1ccc(O)c4c1C21COC3(OC)C1O4

>  <smiles>  (79) 
[H]Oc1c([H])c([H])c2c3c1OC1([H])C4(OC([H])([H])[H])OC([H])([H])C31C1(C([H])=C([H])C([H])([H])[H])C([H])([H])C([H])([H])C4([H])C1([H])C2([H])[H]

$$$$
34:0:2
     RDKit          3D

 46 51  0  0  1  0  0  0  0  0999 V2000
    4.3547   -0.2623    1.1951 C   0  0  0  0  0  0  0  0  0  0  0  0
    3.8150    0.5508    2.3474 C   0  0  0  0  0  0  0  0  0  0  0  0
    2.6239    1.1687    2.3809 C   0  0  0  0  0  0  0  0  0  0  0  0
    2.0503    1.9770    3.5524 C   0  0  2  0  0  0  0  0  0  0  0  0
    2.3046    3.5032    3.2887 C   0  0  0  0  0  0  0  0  0  0  0  0
    2.3616    4.1946    4.6666 C   0  0  0  0  0  0  0  0  0  0  0  0
    1.9314    3.0607    5.6029 C   0  0  2  0  0  0  0  0  0  0  0  0
    2.6952    1.8073    4.8806 C   0  0  1  0  0  0  0  0  0  0  0  0
    2.6920    0.2648    5.3039 C   0  0  0  0  0  0  0  0  0  0  0  0
    1.6097   -0.6863    4.6723 C   0  0  0  0  0  0  0  0  0  0  0  0
    1.3601   -1.9985    5.1256 C   0  0  0  0  0  0  0  0  0  0  0  0
    0.0263   -2.4383    5.2976 C   0  0  0  0  0  0  0  0  0  0  0  0
   -1.0346   -1.5075    5.2042 C   0  0  0  0  0  0  0  0  0  0  0  0
   -2.2641   -1.7985    5.6824 O   0  0  0  0  0  0  0  0  0  0  0  0
   -0.7624   -0.2024    4.7297 C   0  0  0  0  0  0  0  0  0  0  0  0
    0.4944    0.0199    4.1497 C   0  0  0  0  0  0  0  0  0  0  0  0
    0.6112    1.4938    3.9921 C   0  0  2  0  0  0  0  0  0  0  0  0
   -0.4307    2.4693    3.4130 C   0  0  0  0  0  0  0  0  0  0  0  0
   -0.2677    3.5473    4.3712 O   0  0  0  0  0  0  0  0  0  0  0  0
    0.2995    3.0322    5.5708 C   0  0  2  0  0  0  0  0  0  0  0  0
   -0.2290    3.5646    6.7589 O   0  0  0  0  0  0  0  0  0  0  0  0
   -1.6481    3.5412    6.8784 C   0  0  0  0  0  0  0  0  0  0  0  0
    0.0861    1.5983    5.4489 C   0  0  1  0  0  0  0  0  0  0  0  0
   -1.1912    0.9383    5.3647 O   0  0  0  0  0  0  0  0  0  0  0  0
    4.4987   -1.2940    1.5225 H   0  0  0  0  0  0  0  0  0  0  0  0
    5.3228    0.1437    0.8952 H   0  0  0  0  0  0  0  0  0  0  0  0
    3.6690   -0.2457    0.3437 H   0  0  0  0  0  0  0  0  0  0  0  0
    4.4956    0.6178    3.1886 H   0  0  0  0  0  0  0  0  0  0  0  0
    1.9753    1.1203    1.5135 H   0  0  0  0  0  0  0  0  0  0  0  0
    3.2664    3.6494    2.7928 H   0  0  0  0  0  0  0  0  0  0  0  0
    1.5701    3.9741    2.6374 H   0  0  0  0  0  0  0  0  0  0  0  0
    3.3912    4.4751    4.8886 H   0  0  0  0  0  0  0  0  0  0  0  0
    1.7450    5.0979    4.7464 H   0  0  0  0  0  0  0  0  0  0  0  0
    2.2679    3.2071    6.6307 H   0  0  0  0  0  0  0  0  0  0  0  0
    3.7444    2.0946    4.8399 H   0  0  0  0  0  0  0  0  0  0  0  0
    3.6336   -0.1875    4.9863 H   0  0  0  0  0  0  0  0  0  0  0  0
    2.6976    0.1703    6.3963 H   0  0  0  0  0  0  0  0  0  0  0  0
    2.1500   -2.6070    5.5429 H   0  0  0  0  0  0  0  0  0  0  0  0
   -0.1909   -3.4203    5.7060 H   0  0  0  0  0  0  0  0  0  0  0  0
   -2.9108   -1.1913    5.3775 H   0  0  0  0  0  0  0  0  0  0  0  0
   -0.2262    2.7724    2.3865 H   0  0  0  0  0  0  0  0  0  0  0  0
   -1.4638    2.1225    3.4274 H   0  0  0  0  0  0  0  0  0  0  0  0
   -1.9450    3.9375    7.8516 H   0  0  0  0  0  0  0  0  0  0  0  0
   -2.0876    2.5454    6.8240 H   0  0  0  0  0  0  0  0  0  0  0  0
   -2.1126    4.1476    6.0933 H   0  0  0  0  0  0  0  0  0  0  0  0
    0.6179    1.1355    6.2865 H   0  0  0  0  0  0  0  0  0  0  0  0
  1  2  1  0
  1 25  1  0
  1 26  1  0
  1 27  1  0
  2  3  2  3
  2 28  1  0
  3  4  1  0
  3 29  1  0
  4  8  1  0
  4 17  1  0
  4  5  1  6
  5  6  1  0
  5 30  1  0
  5 31  1  0
  6  7  1  0
  6 32  1  0
  6 33  1  0
  7 20  1  0
  7  8  1  0
  7 34  1  1
  8  9  1  0
  8 35  1  6
  9 10  1  0
  9 36  1  0
  9 37  1  0
 10 16  2  0
 10 11  1  0
 11 12  2  0
 11 38  1  0
 12 13  1  0
 12 39  1  0
 13 14  1  0
 13 15  2  0
 14 40  1  0
 15 24  1  0
 15 16  1  0
 16 17  1  0
 17 23  1  0
 17 18  1  6
 18 19  1  0
 18 41  1  0
 18 42  1  0
 19 20  1  0
 20 21  1  1
 20 23  1  0
 21 22  1  0
 22 43  1  0
 22 44  1  0
 22 45  1  0
 23 24  1  0
 23 46  1  1
M  END
>  <i_m_ct_stereo_status>  (80) 
1

>  <s_m_source_file>  (80) 
/var/tmp/pbs.5076255.sched01/tmp_578sd5a/06fbc0iir.sdf

>  <i_m_source_file_index>  (80) 
38

>  <i_lp_mmshare_version>  (80) 
48012

>  <i_f3d_flags>  (80) 
0

>  <s_epik_input>  (80) 
W0NIM10vW0NIXT1bQ0hdL1tDQEBdMShbQ0BdMjM0KVtDQEhdNVtDQEBIXShbQ0gyXVtDSDJdMSlbQ0BdKE9bQ0gyXTMpKE9bQ0gzXSlbQ0BIXTRPYzZjMmMoW0NIMl01KVtjSF1bY0hdYzZbT0hd

>  <s_epik_cmdline>  (80) 
J2VwaWtfcHl0aG9uJywgJy1waHQnLCAnMi4wJywgJy1waCcsICc3LjAnLCAnLXRuJywgJzgnLCAnLW1hJywgJzIwMCcsICctaW1hZScsICc8aW5maWxlLm1hZT4nLCAnLW9tYWUnLCAnPG91dGZpbGUubWFlPic=

>  <r_lp_tautomer_probability>  (80) 
1

>  <r_epik_Ionization_Penalty>  (80) 
0.000802058

>  <r_epik_Ionization_Penalty_Charging>  (80) 
0

>  <r_epik_Ionization_Penalty_Neutral>  (80) 
0.000802058

>  <r_epik_State_Penalty>  (80) 
0.000515125

>  <r_epik_Charging_Adjusted_Penalty>  (80) 
0.000515125

>  <i_epik_Tot_Q>  (80) 
0

>  <i_epik_Tot_abs_Q>  (80) 
0

>  <s_lp_Force_Field>  (80) 
OPLS3e

>  <r_lp_Energy>  (80) 
175.32

>  <b_lp_Chiralities_Consistent>  (80) 
1

>  <s_lp_Variant>  (80) 
34:0-1

>  <s_i_glide_gridfile>  (80) 
pfpi4k_grid

>  <i_i_glide_lignum>  (80) 
38

>  <i_i_glide_rotatable_bonds>  (80) 
3

>  <r_i_docking_score>  (80) 
-2.1921

>  <r_i_glide_ligand_efficiency>  (80) 
-0.0913373

>  <r_i_glide_ligand_efficiency_sa>  (80) 
-0.263462

>  <r_i_glide_ligand_efficiency_ln>  (80) 
-0.524669

>  <r_i_glide_gscore>  (80) 
-2.1921

>  <r_i_glide_lipo>  (80) 
-0.180957

>  <r_i_glide_hbond>  (80) 
0

>  <r_i_glide_metal>  (80) 
-0

>  <r_i_glide_rewards>  (80) 
-1.18373

>  <r_i_glide_evdw>  (80) 
-16.3606

>  <r_i_glide_ecoul>  (80) 
-1.22106

>  <r_i_glide_erotb>  (80) 
0.176048

>  <r_i_glide_esite>  (80) 
-0.00226788

>  <r_i_glide_emodel>  (80) 
-18.2303

>  <r_i_glide_energy>  (80) 
-17.5816

>  <r_i_glide_einternal>  (80) 
4.17623

>  <r_i_glide_intrahb_reward>  (80) 
-0

>  <i_i_glide_confnum>  (80) 
3

>  <i_i_glide_posenum>  (80) 
15

>  <r_i_glide_eff_state_penalty>  (80) 
0

>  <ligand_id>  (80) 
34

>  <original_smiles>  (80) 
CC=CC12CCC3C1Cc1ccc(O)c4c1C21COC3(OC)C1O4

>  <smiles>  (80) 
[H]Oc1c([H])c([H])c2c3c1OC1([H])C4(OC([H])([H])[H])OC([H])([H])C31C1(C([H])=C([H])C([H])([H])[H])C([H])([H])C([H])([H])C4([H])C1([H])C2([H])[H]

$$$$
34:1:0
     RDKit          3D

 46 51  0  0  1  0  0  0  0  0999 V2000
    1.3003   -0.1576    2.7607 C   0  0  0  0  0  0  0  0  0  0  0  0
    1.3363   -0.7169    4.1863 C   0  0  0  0  0  0  0  0  0  0  0  0
    1.7681   -0.1647    5.3455 C   0  0  0  0  0  0  0  0  0  0  0  0
    2.3489    1.2297    5.6245 C   0  0  2  0  0  0  0  0  0  0  0  0
    3.8896    1.1086    5.9146 C   0  0  0  0  0  0  0  0  0  0  0  0
    4.2644    2.2612    6.8760 C   0  0  0  0  0  0  0  0  0  0  0  0
    2.9769    3.0769    6.9123 C   0  0  2  0  0  0  0  0  0  0  0  0
    1.9071    1.8481    6.9005 C   0  0  1  0  0  0  0  0  0  0  0  0
    0.3200    1.9036    6.9451 C   0  0  0  0  0  0  0  0  0  0  0  0
   -0.4836    1.9380    5.5964 C   0  0  0  0  0  0  0  0  0  0  0  0
   -1.8533    2.2595    5.4946 C   0  0  0  0  0  0  0  0  0  0  0  0
   -2.3024    3.1044    4.4462 C   0  0  0  0  0  0  0  0  0  0  0  0
   -1.3548    3.8200    3.6650 C   0  0  0  0  0  0  0  0  0  0  0  0
   -1.7627    4.8590    2.8763 O   0  0  0  0  0  0  0  0  0  0  0  0
    0.0061    3.5286    3.8106 C   0  0  0  0  0  0  0  0  0  0  0  0
    0.3264    2.3756    4.5196 C   0  0  0  0  0  0  0  0  0  0  0  0
    1.7996    2.3865    4.6965 C   0  0  2  0  0  0  0  0  0  0  0  0
    2.9076    2.7083    3.6714 C   0  0  0  0  0  0  0  0  0  0  0  0
    3.7680    3.4967    4.5228 O   0  0  0  0  0  0  0  0  0  0  0  0
    3.0054    4.0272    5.5934 C   0  0  2  0  0  0  0  0  0  0  0  0
    3.2951    5.3465    5.9272 O   0  0  0  0  0  0  0  0  0  0  0  0
    3.4632    6.2206    4.8125 C   0  0  0  0  0  0  0  0  0  0  0  0
    1.6206    3.8608    5.1605 C   0  0  1  0  0  0  0  0  0  0  0  0
    1.0204    4.4527    3.9873 O   0  0  0  0  0  0  0  0  0  0  0  0
    0.3107   -0.3094    2.3251 H   0  0  0  0  0  0  0  0  0  0  0  0
    2.0403   -0.6550    2.1343 H   0  0  0  0  0  0  0  0  0  0  0  0
    1.4772    0.9015    2.6479 H   0  0  0  0  0  0  0  0  0  0  0  0
    0.9583   -1.7260    4.2420 H   0  0  0  0  0  0  0  0  0  0  0  0
    1.7096   -0.7760    6.2311 H   0  0  0  0  0  0  0  0  0  0  0  0
    4.1153    0.1618    6.3992 H   0  0  0  0  0  0  0  0  0  0  0  0
    4.5044    1.1240    5.0207 H   0  0  0  0  0  0  0  0  0  0  0  0
    4.4658    1.8528    7.8687 H   0  0  0  0  0  0  0  0  0  0  0  0
    5.1463    2.8335    6.5758 H   0  0  0  0  0  0  0  0  0  0  0  0
    2.8826    3.6894    7.8038 H   0  0  0  0  0  0  0  0  0  0  0  0
    2.1750    1.2089    7.7409 H   0  0  0  0  0  0  0  0  0  0  0  0
   -0.0165    0.9974    7.4425 H   0  0  0  0  0  0  0  0  0  0  0  0
    0.0073    2.7245    7.5914 H   0  0  0  0  0  0  0  0  0  0  0  0
   -2.5402    2.0036    6.2923 H   0  0  0  0  0  0  0  0  0  0  0  0
   -3.3504    3.3470    4.3770 H   0  0  0  0  0  0  0  0  0  0  0  0
   -1.1252    4.9703    2.1749 H   0  0  0  0  0  0  0  0  0  0  0  0
    3.4301    1.8390    3.2833 H   0  0  0  0  0  0  0  0  0  0  0  0
    2.5977    3.2758    2.8051 H   0  0  0  0  0  0  0  0  0  0  0  0
    3.5456    7.2498    5.1588 H   0  0  0  0  0  0  0  0  0  0  0  0
    2.6385    6.1986    4.1018 H   0  0  0  0  0  0  0  0  0  0  0  0
    4.3718    5.9633    4.2712 H   0  0  0  0  0  0  0  0  0  0  0  0
    0.9732    4.1131    6.0123 H   0  0  0  0  0  0  0  0  0  0  0  0
  1  2  1  0
  1 25  1  0
  1 26  1  0
  1 27  1  0
  2  3  2  3
  2 28  1  0
  3  4  1  0
  3 29  1  0
  4  8  1  0
  4 17  1  0
  4  5  1  1
  5  6  1  0
  5 30  1  0
  5 31  1  0
  6  7  1  0
  6 32  1  0
  6 33  1  0
  7 20  1  0
  7  8  1  0
  7 34  1  1
  8  9  1  0
  8 35  1  1
  9 10  1  0
  9 36  1  0
  9 37  1  0
 10 16  2  0
 10 11  1  0
 11 12  2  0
 11 38  1  0
 12 13  1  0
 12 39  1  0
 13 14  1  0
 13 15  2  0
 14 40  1  0
 15 24  1  0
 15 16  1  0
 16 17  1  0
 17 23  1  0
 17 18  1  6
 18 19  1  0
 18 41  1  0
 18 42  1  0
 19 20  1  0
 20 21  1  1
 20 23  1  0
 21 22  1  0
 22 43  1  0
 22 44  1  0
 22 45  1  0
 23 24  1  0
 23 46  1  1
M  END
>  <i_m_ct_stereo_status>  (81) 
1

>  <s_m_source_file>  (81) 
/var/tmp/pbs.5076255.sched01/tmp_578sd5a/06fbc0iir.sdf

>  <i_m_source_file_index>  (81) 
39

>  <i_lp_mmshare_version>  (81) 
48012

>  <i_f3d_flags>  (81) 
0

>  <s_epik_input>  (81) 
W0NIM10vW0NIXT1bQ0hdL1tDQEBdMShbQ0BdMjM0KVtDQEhdNVtDQEBIXShbQ0gyXVtDSDJdMSlbQ0BdKE9bQ0gyXTMpKE9bQ0gzXSlbQ0BIXTRPYzZjMmMoW0NIMl01KVtjSF1bY0hdYzZbT0hd

>  <s_epik_cmdline>  (81) 
J2VwaWtfcHl0aG9uJywgJy1waHQnLCAnMi4wJywgJy1waCcsICc3LjAnLCAnLXRuJywgJzgnLCAnLW1hJywgJzIwMCcsICctaW1hZScsICc8aW5maWxlLm1hZT4nLCAnLW9tYWUnLCAnPG91dGZpbGUubWFlPic=

>  <r_lp_tautomer_probability>  (81) 
1

>  <r_epik_Ionization_Penalty>  (81) 
0.000802058

>  <r_epik_Ionization_Penalty_Charging>  (81) 
0

>  <r_epik_Ionization_Penalty_Neutral>  (81) 
0.000802058

>  <r_epik_State_Penalty>  (81) 
0.000515125

>  <r_epik_Charging_Adjusted_Penalty>  (81) 
0.000515125

>  <i_epik_Tot_Q>  (81) 
0

>  <i_epik_Tot_abs_Q>  (81) 
0

>  <s_lp_Force_Field>  (81) 
OPLS3e

>  <r_lp_Energy>  (81) 
180.027

>  <b_lp_Chiralities_Consistent>  (81) 
1

>  <s_lp_Variant>  (81) 
34:0-2

>  <s_i_glide_gridfile>  (81) 
pfpi4k_grid

>  <i_i_glide_lignum>  (81) 
39

>  <i_i_glide_rotatable_bonds>  (81) 
3

>  <r_i_docking_score>  (81) 
-2.49188

>  <r_i_glide_ligand_efficiency>  (81) 
-0.103828

>  <r_i_glide_ligand_efficiency_sa>  (81) 
-0.299493

>  <r_i_glide_ligand_efficiency_ln>  (81) 
-0.596422

>  <r_i_glide_gscore>  (81) 
-2.49188

>  <r_i_glide_lipo>  (81) 
-0.00839106

>  <r_i_glide_hbond>  (81) 
0

>  <r_i_glide_metal>  (81) 
-0

>  <r_i_glide_rewards>  (81) 
-1.18373

>  <r_i_glide_evdw>  (81) 
-14.399

>  <r_i_glide_ecoul>  (81) 
-5.03907

>  <r_i_glide_erotb>  (81) 
0.176048

>  <r_i_glide_esite>  (81) 
0

>  <r_i_glide_emodel>  (81) 
-20.8598

>  <r_i_glide_energy>  (81) 
-19.4381

>  <r_i_glide_einternal>  (81) 
2.87156

>  <r_i_glide_intrahb_reward>  (81) 
-0

>  <i_i_glide_confnum>  (81) 
2

>  <i_i_glide_posenum>  (81) 
25

>  <r_i_glide_eff_state_penalty>  (81) 
0

>  <ligand_id>  (81) 
34

>  <original_smiles>  (81) 
CC=CC12CCC3C1Cc1ccc(O)c4c1C21COC3(OC)C1O4

>  <smiles>  (81) 
[H]Oc1c([H])c([H])c2c3c1OC1([H])C4(OC([H])([H])[H])OC([H])([H])C31C1(C([H])=C([H])C([H])([H])[H])C([H])([H])C([H])([H])C4([H])C1([H])C2([H])[H]

$$$$
34:1:1
     RDKit          3D

 46 51  0  0  1  0  0  0  0  0999 V2000
    4.8365    0.1884    5.6053 C   0  0  0  0  0  0  0  0  0  0  0  0
    3.3773    0.2154    6.0336 C   0  0  0  0  0  0  0  0  0  0  0  0
    2.5760    1.2585    6.3375 C   0  0  0  0  0  0  0  0  0  0  0  0
    2.8607    2.7691    6.3895 C   0  0  2  0  0  0  0  0  0  0  0  0
    4.3603    3.0911    6.7411 C   0  0  0  0  0  0  0  0  0  0  0  0
    4.4083    4.4312    7.4778 C   0  0  0  0  0  0  0  0  0  0  0  0
    2.9748    4.9162    7.2982 C   0  0  2  0  0  0  0  0  0  0  0  0
    2.2031    3.4925    7.4992 C   0  0  1  0  0  0  0  0  0  0  0  0
    0.6338    3.2246    7.4886 C   0  0  0  0  0  0  0  0  0  0  0  0
   -0.0768    2.8311    6.1397 C   0  0  0  0  0  0  0  0  0  0  0  0
   -1.4690    2.8203    5.9376 C   0  0  0  0  0  0  0  0  0  0  0  0
   -2.0127    3.3404    4.7376 C   0  0  0  0  0  0  0  0  0  0  0  0
   -1.1878    4.0897    3.8577 C   0  0  0  0  0  0  0  0  0  0  0  0
   -1.7453    4.8561    2.8816 O   0  0  0  0  0  0  0  0  0  0  0  0
    0.2122    4.1282    4.0896 C   0  0  0  0  0  0  0  0  0  0  0  0
    0.7013    3.2089    5.0037 C   0  0  0  0  0  0  0  0  0  0  0  0
    2.1270    3.5636    5.2339 C   0  0  2  0  0  0  0  0  0  0  0  0
    3.1889    3.9171    4.1749 C   0  0  0  0  0  0  0  0  0  0  0  0
    3.8104    5.0408    4.8542 O   0  0  0  0  0  0  0  0  0  0  0  0
    2.8918    5.5780    5.8077 C   0  0  2  0  0  0  0  0  0  0  0  0
    2.8271    6.9754    5.8535 O   0  0  0  0  0  0  0  0  0  0  0  0
    4.0280    7.6041    6.2583 C   0  0  0  0  0  0  0  0  0  0  0  0
    1.6177    5.0209    5.3885 C   0  0  1  0  0  0  0  0  0  0  0  0
    0.9868    5.2759    4.1205 O   0  0  0  0  0  0  0  0  0  0  0  0
    4.9520   -0.4671    4.7423 H   0  0  0  0  0  0  0  0  0  0  0  0
    5.4536   -0.2004    6.4194 H   0  0  0  0  0  0  0  0  0  0  0  0
    5.2386    1.1435    5.2889 H   0  0  0  0  0  0  0  0  0  0  0  0
    2.9347   -0.7684    6.1113 H   0  0  0  0  0  0  0  0  0  0  0  0
    1.5745    0.9612    6.6025 H   0  0  0  0  0  0  0  0  0  0  0  0
    4.7694    2.3278    7.4021 H   0  0  0  0  0  0  0  0  0  0  0  0
    5.0108    3.1661    5.8772 H   0  0  0  0  0  0  0  0  0  0  0  0
    4.6301    4.2540    8.5315 H   0  0  0  0  0  0  0  0  0  0  0  0
    5.1729    5.1036    7.0785 H   0  0  0  0  0  0  0  0  0  0  0  0
    2.6854    5.6398    8.0613 H   0  0  0  0  0  0  0  0  0  0  0  0
    2.5333    3.0948    8.4565 H   0  0  0  0  0  0  0  0  0  0  0  0
    0.4489    2.3746    8.1392 H   0  0  0  0  0  0  0  0  0  0  0  0
    0.1117    4.0611    7.9528 H   0  0  0  0  0  0  0  0  0  0  0  0
   -2.1361    2.5699    6.7538 H   0  0  0  0  0  0  0  0  0  0  0  0
   -3.0896    3.3474    4.5940 H   0  0  0  0  0  0  0  0  0  0  0  0
   -1.1435    4.9333    2.1429 H   0  0  0  0  0  0  0  0  0  0  0  0
    3.8879    3.1034    3.9747 H   0  0  0  0  0  0  0  0  0  0  0  0
    2.8150    4.2303    3.1995 H   0  0  0  0  0  0  0  0  0  0  0  0
    3.9167    8.6827    6.1617 H   0  0  0  0  0  0  0  0  0  0  0  0
    4.8687    7.2955    5.6386 H   0  0  0  0  0  0  0  0  0  0  0  0
    4.2637    7.3906    7.2989 H   0  0  0  0  0  0  0  0  0  0  0  0
    0.8795    5.2973    6.1601 H   0  0  0  0  0  0  0  0  0  0  0  0
  1  2  1  0
  1 25  1  0
  1 26  1  0
  1 27  1  0
  2  3  2  3
  2 28  1  0
  3  4  1  0
  3 29  1  0
  4  8  1  0
  4 17  1  0
  4  5  1  6
  5  6  1  0
  5 30  1  0
  5 31  1  0
  6  7  1  0
  6 32  1  0
  6 33  1  0
  7 20  1  0
  7  8  1  0
  7 34  1  1
  8  9  1  0
  8 35  1  1
  9 10  1  0
  9 36  1  0
  9 37  1  0
 10 16  2  0
 10 11  1  0
 11 12  2  0
 11 38  1  0
 12 13  1  0
 12 39  1  0
 13 14  1  0
 13 15  2  0
 14 40  1  0
 15 24  1  0
 15 16  1  0
 16 17  1  0
 17 23  1  0
 17 18  1  6
 18 19  1  0
 18 41  1  0
 18 42  1  0
 19 20  1  0
 20 21  1  1
 20 23  1  0
 21 22  1  0
 22 43  1  0
 22 44  1  0
 22 45  1  0
 23 24  1  0
 23 46  1  1
M  END
>  <i_m_ct_stereo_status>  (82) 
1

>  <s_m_source_file>  (82) 
/var/tmp/pbs.5076255.sched01/tmp_578sd5a/06fbc0iir.sdf

>  <i_m_source_file_index>  (82) 
39

>  <i_lp_mmshare_version>  (82) 
48012

>  <i_f3d_flags>  (82) 
0

>  <s_epik_input>  (82) 
W0NIM10vW0NIXT1bQ0hdL1tDQEBdMShbQ0BdMjM0KVtDQEhdNVtDQEBIXShbQ0gyXVtDSDJdMSlbQ0BdKE9bQ0gyXTMpKE9bQ0gzXSlbQ0BIXTRPYzZjMmMoW0NIMl01KVtjSF1bY0hdYzZbT0hd

>  <s_epik_cmdline>  (82) 
J2VwaWtfcHl0aG9uJywgJy1waHQnLCAnMi4wJywgJy1waCcsICc3LjAnLCAnLXRuJywgJzgnLCAnLW1hJywgJzIwMCcsICctaW1hZScsICc8aW5maWxlLm1hZT4nLCAnLW9tYWUnLCAnPG91dGZpbGUubWFlPic=

>  <r_lp_tautomer_probability>  (82) 
1

>  <r_epik_Ionization_Penalty>  (82) 
0.000802058

>  <r_epik_Ionization_Penalty_Charging>  (82) 
0

>  <r_epik_Ionization_Penalty_Neutral>  (82) 
0.000802058

>  <r_epik_State_Penalty>  (82) 
0.000515125

>  <r_epik_Charging_Adjusted_Penalty>  (82) 
0.000515125

>  <i_epik_Tot_Q>  (82) 
0

>  <i_epik_Tot_abs_Q>  (82) 
0

>  <s_lp_Force_Field>  (82) 
OPLS3e

>  <r_lp_Energy>  (82) 
180.027

>  <b_lp_Chiralities_Consistent>  (82) 
1

>  <s_lp_Variant>  (82) 
34:0-2

>  <s_i_glide_gridfile>  (82) 
pfpi4k_grid

>  <i_i_glide_lignum>  (82) 
39

>  <i_i_glide_rotatable_bonds>  (82) 
3

>  <r_i_docking_score>  (82) 
-2.48585

>  <r_i_glide_ligand_efficiency>  (82) 
-0.103577

>  <r_i_glide_ligand_efficiency_sa>  (82) 
-0.298768

>  <r_i_glide_ligand_efficiency_ln>  (82) 
-0.594977

>  <r_i_glide_gscore>  (82) 
-2.48585

>  <r_i_glide_lipo>  (82) 
-0.0542744

>  <r_i_glide_hbond>  (82) 
0

>  <r_i_glide_metal>  (82) 
-0

>  <r_i_glide_rewards>  (82) 
-1.18373

>  <r_i_glide_evdw>  (82) 
-13.0793

>  <r_i_glide_ecoul>  (82) 
-5.13283

>  <r_i_glide_erotb>  (82) 
0.176048

>  <r_i_glide_esite>  (82) 
0

>  <r_i_glide_emodel>  (82) 
-20.8597

>  <r_i_glide_energy>  (82) 
-18.2122

>  <r_i_glide_einternal>  (82) 
1.05957

>  <r_i_glide_intrahb_reward>  (82) 
-0

>  <i_i_glide_confnum>  (82) 
4

>  <i_i_glide_posenum>  (82) 
28

>  <r_i_glide_eff_state_penalty>  (82) 
0

>  <ligand_id>  (82) 
34

>  <original_smiles>  (82) 
CC=CC12CCC3C1Cc1ccc(O)c4c1C21COC3(OC)C1O4

>  <smiles>  (82) 
[H]Oc1c([H])c([H])c2c3c1OC1([H])C4(OC([H])([H])[H])OC([H])([H])C31C1(C([H])=C([H])C([H])([H])[H])C([H])([H])C([H])([H])C4([H])C1([H])C2([H])[H]

$$$$
34:1:2
     RDKit          3D

 46 51  0  0  1  0  0  0  0  0999 V2000
    5.1940    0.9849    6.0769 C   0  0  0  0  0  0  0  0  0  0  0  0
    3.7488    0.9729    6.5499 C   0  0  0  0  0  0  0  0  0  0  0  0
    2.8815    1.9931    6.7268 C   0  0  0  0  0  0  0  0  0  0  0  0
    3.0603    3.5123    6.5395 C   0  0  2  0  0  0  0  0  0  0  0  0
    4.5422    3.9754    6.8033 C   0  0  0  0  0  0  0  0  0  0  0  0
    4.5082    5.4169    7.3244 C   0  0  0  0  0  0  0  0  0  0  0  0
    3.0420    5.7705    7.1147 C   0  0  2  0  0  0  0  0  0  0  0  0
    2.3671    4.3522    7.5492 C   0  0  1  0  0  0  0  0  0  0  0  0
    0.8211    3.9769    7.6186 C   0  0  0  0  0  0  0  0  0  0  0  0
    0.1266    3.3542    6.3493 C   0  0  0  0  0  0  0  0  0  0  0  0
   -1.2660    3.2038    6.1958 C   0  0  0  0  0  0  0  0  0  0  0  0
   -1.8708    3.4927    4.9461 C   0  0  0  0  0  0  0  0  0  0  0  0
   -1.1109    4.1448    3.9401 C   0  0  0  0  0  0  0  0  0  0  0  0
   -1.7344    4.7410    2.8831 O   0  0  0  0  0  0  0  0  0  0  0  0
    0.2790    4.2961    4.1235 C   0  0  0  0  0  0  0  0  0  0  0  0
    0.8643    3.5685    5.1578 C   0  0  0  0  0  0  0  0  0  0  0  0
    2.2583    4.0731    5.2872 C   0  0  2  0  0  0  0  0  0  0  0  0
    3.2845    4.3225    4.1669 C   0  0  0  0  0  0  0  0  0  0  0  0
    3.8299    5.5700    4.6700 O   0  0  0  0  0  0  0  0  0  0  0  0
    2.8858    6.1890    5.5400 C   0  0  2  0  0  0  0  0  0  0  0  0
    2.7742    7.5755    5.4191 O   0  0  0  0  0  0  0  0  0  0  0  0
    2.7294    8.0592    4.0782 C   0  0  0  0  0  0  0  0  0  0  0  0
    1.6391    5.4943    5.2362 C   0  0  1  0  0  0  0  0  0  0  0  0
    0.9633    5.4793    3.9591 O   0  0  0  0  0  0  0  0  0  0  0  0
    5.3307    0.2220    5.3087 H   0  0  0  0  0  0  0  0  0  0  0  0
    5.8544    0.7508    6.9139 H   0  0  0  0  0  0  0  0  0  0  0  0
    5.5145    1.9191    5.6302 H   0  0  0  0  0  0  0  0  0  0  0  0
    3.3776   -0.0177    6.7791 H   0  0  0  0  0  0  0  0  0  0  0  0
    1.9080    1.6777    7.0648 H   0  0  0  0  0  0  0  0  0  0  0  0
    5.0123    3.3515    7.5616 H   0  0  0  0  0  0  0  0  0  0  0  0
    5.1806    3.9547    5.9268 H   0  0  0  0  0  0  0  0  0  0  0  0
    4.7523    5.4219    8.3897 H   0  0  0  0  0  0  0  0  0  0  0  0
    5.2097    6.0820    6.8132 H   0  0  0  0  0  0  0  0  0  0  0  0
    2.7168    6.5948    7.7513 H   0  0  0  0  0  0  0  0  0  0  0  0
    2.7410    4.1272    8.5469 H   0  0  0  0  0  0  0  0  0  0  0  0
    0.7066    3.2224    8.3971 H   0  0  0  0  0  0  0  0  0  0  0  0
    0.2504    4.8407    7.9681 H   0  0  0  0  0  0  0  0  0  0  0  0
   -1.8998    3.0416    7.0557 H   0  0  0  0  0  0  0  0  0  0  0  0
   -2.9393    3.4137    4.8322 H   0  0  0  0  0  0  0  0  0  0  0  0
   -1.1411    4.8079    2.1347 H   0  0  0  0  0  0  0  0  0  0  0  0
    4.0380    3.5375    4.0855 H   0  0  0  0  0  0  0  0  0  0  0  0
    2.8779    4.4719    3.1682 H   0  0  0  0  0  0  0  0  0  0  0  0
    2.5047    9.1254    4.0727 H   0  0  0  0  0  0  0  0  0  0  0  0
    1.9655    7.5808    3.4657 H   0  0  0  0  0  0  0  0  0  0  0  0
    3.6931    7.9086    3.5906 H   0  0  0  0  0  0  0  0  0  0  0  0
    0.9061    5.8299    5.9732 H   0  0  0  0  0  0  0  0  0  0  0  0
  1  2  1  0
  1 25  1  0
  1 26  1  0
  1 27  1  0
  2  3  2  3
  2 28  1  0
  3  4  1  0
  3 29  1  0
  4  8  1  0
  4 17  1  0
  4  5  1  6
  5  6  1  0
  5 30  1  0
  5 31  1  0
  6  7  1  0
  6 32  1  0
  6 33  1  0
  7 20  1  0
  7  8  1  0
  7 34  1  1
  8  9  1  0
  8 35  1  1
  9 10  1  0
  9 36  1  0
  9 37  1  0
 10 16  2  0
 10 11  1  0
 11 12  2  0
 11 38  1  0
 12 13  1  0
 12 39  1  0
 13 14  1  0
 13 15  2  0
 14 40  1  0
 15 24  1  0
 15 16  1  0
 16 17  1  0
 17 23  1  0
 17 18  1  6
 18 19  1  0
 18 41  1  0
 18 42  1  0
 19 20  1  0
 20 21  1  1
 20 23  1  0
 21 22  1  0
 22 43  1  0
 22 44  1  0
 22 45  1  0
 23 24  1  0
 23 46  1  1
M  END
>  <i_m_ct_stereo_status>  (83) 
1

>  <s_m_source_file>  (83) 
/var/tmp/pbs.5076255.sched01/tmp_578sd5a/06fbc0iir.sdf

>  <i_m_source_file_index>  (83) 
39

>  <i_lp_mmshare_version>  (83) 
48012

>  <i_f3d_flags>  (83) 
0

>  <s_epik_input>  (83) 
W0NIM10vW0NIXT1bQ0hdL1tDQEBdMShbQ0BdMjM0KVtDQEhdNVtDQEBIXShbQ0gyXVtDSDJdMSlbQ0BdKE9bQ0gyXTMpKE9bQ0gzXSlbQ0BIXTRPYzZjMmMoW0NIMl01KVtjSF1bY0hdYzZbT0hd

>  <s_epik_cmdline>  (83) 
J2VwaWtfcHl0aG9uJywgJy1waHQnLCAnMi4wJywgJy1waCcsICc3LjAnLCAnLXRuJywgJzgnLCAnLW1hJywgJzIwMCcsICctaW1hZScsICc8aW5maWxlLm1hZT4nLCAnLW9tYWUnLCAnPG91dGZpbGUubWFlPic=

>  <r_lp_tautomer_probability>  (83) 
1

>  <r_epik_Ionization_Penalty>  (83) 
0.000802058

>  <r_epik_Ionization_Penalty_Charging>  (83) 
0

>  <r_epik_Ionization_Penalty_Neutral>  (83) 
0.000802058

>  <r_epik_State_Penalty>  (83) 
0.000515125

>  <r_epik_Charging_Adjusted_Penalty>  (83) 
0.000515125

>  <i_epik_Tot_Q>  (83) 
0

>  <i_epik_Tot_abs_Q>  (83) 
0

>  <s_lp_Force_Field>  (83) 
OPLS3e

>  <r_lp_Energy>  (83) 
180.027

>  <b_lp_Chiralities_Consistent>  (83) 
1

>  <s_lp_Variant>  (83) 
34:0-2

>  <s_i_glide_gridfile>  (83) 
pfpi4k_grid

>  <i_i_glide_lignum>  (83) 
39

>  <i_i_glide_rotatable_bonds>  (83) 
3

>  <r_i_docking_score>  (83) 
-2.48572

>  <r_i_glide_ligand_efficiency>  (83) 
-0.103572

>  <r_i_glide_ligand_efficiency_sa>  (83) 
-0.298752

>  <r_i_glide_ligand_efficiency_ln>  (83) 
-0.594947

>  <r_i_glide_gscore>  (83) 
-2.48572

>  <r_i_glide_lipo>  (83) 
-0.0349627

>  <r_i_glide_hbond>  (83) 
0

>  <r_i_glide_metal>  (83) 
-0

>  <r_i_glide_rewards>  (83) 
-1.18373

>  <r_i_glide_evdw>  (83) 
-13.8775

>  <r_i_glide_ecoul>  (83) 
-4.99308

>  <r_i_glide_erotb>  (83) 
0.176048

>  <r_i_glide_esite>  (83) 
-0.000237303

>  <r_i_glide_emodel>  (83) 
-20.4052

>  <r_i_glide_energy>  (83) 
-18.8706

>  <r_i_glide_einternal>  (83) 
3.01075

>  <r_i_glide_intrahb_reward>  (83) 
-0

>  <i_i_glide_confnum>  (83) 
2

>  <i_i_glide_posenum>  (83) 
17

>  <r_i_glide_eff_state_penalty>  (83) 
0

>  <ligand_id>  (83) 
34

>  <original_smiles>  (83) 
CC=CC12CCC3C1Cc1ccc(O)c4c1C21COC3(OC)C1O4

>  <smiles>  (83) 
[H]Oc1c([H])c([H])c2c3c1OC1([H])C4(OC([H])([H])[H])OC([H])([H])C31C1(C([H])=C([H])C([H])([H])[H])C([H])([H])C([H])([H])C4([H])C1([H])C2([H])[H]

$$$$
35:0:0
     RDKit          3D

 68 74  0  0  1  0  0  0  0  0999 V2000
    4.7742  -13.0813    4.3692 C   0  0  0  0  0  0  0  0  0  0  0  0
    4.2836  -12.2002    3.2211 C   0  0  0  0  0  0  0  0  0  0  0  0
    3.5877  -10.9748    3.7335 N   0  0  2  0  0  0  0  0  0  0  0  0
    2.1093  -11.0547    3.7692 C   0  0  0  0  0  0  0  0  0  0  0  0
    2.0906   -9.5751    3.3755 C   0  0  1  0  0  0  0  0  0  0  0  0
    1.2031   -8.9936    2.1777 C   0  0  0  0  0  0  0  0  0  0  0  0
    0.6762   -7.8005    2.9567 C   0  0  1  0  0  0  0  0  0  0  0  0
   -0.4452   -8.7937    3.5328 C   0  0  0  0  0  0  0  0  0  0  0  0
   -0.6316   -8.2710    4.8321 C   0  0  2  0  0  0  0  0  0  0  0  0
   -0.9316   -6.8497    4.4088 C   0  0  1  0  0  0  0  0  0  0  0  0
   -0.2480   -6.1743    5.5822 C   0  0  0  0  0  0  0  0  0  0  0  0
    0.6071   -6.9949    6.2298 C   0  0  0  0  0  0  0  0  0  0  0  0
    0.7347   -8.3475    5.5544 C   0  0  2  0  0  0  0  0  0  0  0  0
    2.0199   -8.4651    4.5619 C   0  0  2  0  0  0  0  0  0  0  0  0
    2.0556   -7.2699    3.6261 C   0  0  2  0  0  0  0  0  0  0  0  0
    2.0251   -5.9621    4.2279 O   0  0  0  0  0  0  0  0  0  0  0  0
    1.6422   -4.8531    3.3937 C   0  0  0  0  0  0  0  0  0  0  0  0
    3.4818   -7.2894    2.8268 C   0  0  1  0  0  0  0  0  0  0  0  0
    4.4665   -6.0786    3.0251 C   0  0  0  0  0  0  0  0  0  0  0  0
    4.8708   -5.3071    1.7644 C   0  0  0  0  0  0  0  0  0  0  0  0
    6.2329   -4.9341    1.6208 C   0  0  0  0  0  0  0  0  0  0  0  0
    6.6605   -4.2151    0.5159 C   0  0  0  0  0  0  0  0  0  0  0  0
    5.7471   -3.7950   -0.4947 C   0  0  0  0  0  0  0  0  0  0  0  0
    6.1038   -3.1016   -1.6146 O   0  0  0  0  0  0  0  0  0  0  0  0
    7.4790   -2.7767   -1.7625 C   0  0  0  0  0  0  0  0  0  0  0  0
    4.3879   -4.1575   -0.3450 C   0  0  0  0  0  0  0  0  0  0  0  0
    3.9444   -4.9353    0.7470 C   0  0  0  0  0  0  0  0  0  0  0  0
    4.3492   -8.6112    2.9526 C   0  0  1  0  0  0  0  0  0  0  0  0
    5.0118   -8.6534    4.2243 O   0  0  0  0  0  0  0  0  0  0  0  0
    6.2864   -9.2819    4.2206 C   0  0  0  0  0  0  0  0  0  0  0  0
    3.4634   -9.8415    2.8006 C   0  0  1  0  0  0  0  0  0  0  0  0
   -0.3489   -6.7795    3.0403 O   0  0  0  0  0  0  0  0  0  0  0  0
    5.2945  -13.9604    3.9622 H   0  0  0  0  0  0  0  0  0  0  0  0
    3.9498  -13.4553    4.9995 H   0  0  0  0  0  0  0  0  0  0  0  0
    5.4864  -12.5559    5.0168 H   0  0  0  0  0  0  0  0  0  0  0  0
    5.1262  -11.9161    2.6030 H   0  0  0  0  0  0  0  0  0  0  0  0
    3.6201  -12.7685    2.5681 H   0  0  0  0  0  0  0  0  0  0  0  0
    1.6958  -11.7154    3.0024 H   0  0  0  0  0  0  0  0  0  0  0  0
    1.7349  -11.2746    4.7584 H   0  0  0  0  0  0  0  0  0  0  0  0
    1.7825   -8.6734    1.3232 H   0  0  0  0  0  0  0  0  0  0  0  0
    0.5108   -9.7228    1.7532 H   0  0  0  0  0  0  0  0  0  0  0  0
   -1.3668   -8.7811    2.9499 H   0  0  0  0  0  0  0  0  0  0  0  0
   -0.2619   -9.8692    3.6817 H   0  0  0  0  0  0  0  0  0  0  0  0
   -1.4431   -8.7358    5.3914 H   0  0  0  0  0  0  0  0  0  0  0  0
   -2.0026   -6.6343    4.4007 H   0  0  0  0  0  0  0  0  0  0  0  0
   -0.4448   -5.1547    5.8609 H   0  0  0  0  0  0  0  0  0  0  0  0
    1.2019   -6.7165    7.0805 H   0  0  0  0  0  0  0  0  0  0  0  0
    0.7383   -9.1423    6.2965 H   0  0  0  0  0  0  0  0  0  0  0  0
    2.8999   -8.4863    5.1996 H   0  0  0  0  0  0  0  0  0  0  0  0
    2.2096   -3.9797    3.7098 H   0  0  0  0  0  0  0  0  0  0  0  0
    0.5929   -4.5758    3.5327 H   0  0  0  0  0  0  0  0  0  0  0  0
    1.8098   -5.0639    2.3674 H   0  0  0  0  0  0  0  0  0  0  0  0
    3.2119   -7.2379    1.7788 H   0  0  0  0  0  0  0  0  0  0  0  0
    4.1683   -5.3616    3.7937 H   0  0  0  0  0  0  0  0  0  0  0  0
    5.3836   -6.4519    3.4713 H   0  0  0  0  0  0  0  0  0  0  0  0
    6.9541   -5.2161    2.3695 H   0  0  0  0  0  0  0  0  0  0  0  0
    7.7259   -4.0074    0.4558 H   0  0  0  0  0  0  0  0  0  0  0  0
    7.6630   -2.2044   -2.6826 H   0  0  0  0  0  0  0  0  0  0  0  0
    8.0880   -3.6805   -1.8049 H   0  0  0  0  0  0  0  0  0  0  0  0
    7.7949   -2.1609   -0.9233 H   0  0  0  0  0  0  0  0  0  0  0  0
    3.6731   -3.8606   -1.1034 H   0  0  0  0  0  0  0  0  0  0  0  0
    2.9162   -5.2170    0.7572 H   0  0  0  0  0  0  0  0  0  0  0  0
    5.1069   -8.5919    2.1698 H   0  0  0  0  0  0  0  0  0  0  0  0
    6.6886   -9.2861    5.2312 H   0  0  0  0  0  0  0  0  0  0  0  0
    6.9977   -8.7734    3.5668 H   0  0  0  0  0  0  0  0  0  0  0  0
    6.2075  -10.3169    3.8934 H   0  0  0  0  0  0  0  0  0  0  0  0
    3.3993  -10.2180    1.7707 H   0  0  0  0  0  0  0  0  0  0  0  0
    3.9601  -10.6301    4.6187 H   0  0  0  0  0  0  0  0  0  0  0  0
  1  2  1  0
  1 33  1  0
  1 34  1  0
  1 35  1  0
  2  3  1  0
  2 36  1  0
  2 37  1  0
  3 31  1  0
  3  4  1  0
  3 68  1  1
  5  4  1  1
  4 38  1  0
  4 39  1  0
  5 14  1  0
  5 31  1  0
  5  6  1  0
  6  7  1  0
  6 40  1  0
  6 41  1  0
  7 15  1  0
  7 32  1  6
  7  8  1  0
  8  9  1  0
  8 42  1  0
  8 43  1  0
  9 13  1  0
  9 10  1  0
  9 44  1  1
 10 11  1  0
 10 32  1  0
 10 45  1  6
 11 12  2  0
 11 46  1  0
 12 13  1  0
 12 47  1  0
 13 14  1  0
 13 48  1  1
 14 15  1  0
 14 49  1  1
 15 16  1  1
 15 18  1  0
 16 17  1  0
 17 50  1  0
 17 51  1  0
 17 52  1  0
 18 19  1  0
 18 28  1  0
 18 53  1  6
 19 20  1  0
 19 54  1  0
 19 55  1  0
 20 27  1  0
 20 21  2  0
 21 22  1  0
 21 56  1  0
 22 23  2  0
 22 57  1  0
 23 24  1  0
 23 26  1  0
 24 25  1  0
 25 58  1  0
 25 59  1  0
 25 60  1  0
 26 27  2  0
 26 61  1  0
 27 62  1  0
 28 29  1  0
 28 31  1  0
 28 63  1  6
 29 30  1  0
 30 64  1  0
 30 65  1  0
 30 66  1  0
 31 67  1  6
M  CHG  1   3   1
M  END
>  <i_m_ct_stereo_status>  (84) 
1

>  <s_m_source_file>  (84) 
/var/tmp/pbs.5076255.sched01/tmp_578sd5a/06fbc0iir.sdf

>  <i_m_source_file_index>  (84) 
40

>  <i_lp_mmshare_version>  (84) 
48012

>  <i_f3d_flags>  (84) 
2

>  <s_epik_input>  (84) 
W0NIM11PYyhbY0hdW2NIXTEpW2NIXVtjSF1jMVtDSDJdW0NAQEhdKFtDQEBIXShPW0NIM10pW0NAQEhdMk4oW0NIMl0zKVtDSDJdW0NIM10pW0NAQF00KE9bQ0gzXSlbQ0BAXShbQ0gyXTUpKFtDSDJdNilPW0NAQEhdKFtDSF09W0NIXTcpW0NASF02W0NASF03W0NASF00W0NAQF0yMzU=

>  <s_epik_cmdline>  (84) 
J2VwaWtfcHl0aG9uJywgJy1waHQnLCAnMi4wJywgJy1waCcsICc3LjAnLCAnLXRuJywgJzgnLCAnLW1hJywgJzIwMCcsICctaW1hZScsICc8aW5maWxlLm1hZT4nLCAnLW9tYWUnLCAnPG91dGZpbGUubWFlPic=

>  <r_lp_tautomer_probability>  (84) 
1

>  <r_epik_Ionization_Penalty>  (84) 
0.000924449

>  <r_epik_Ionization_Penalty_Charging>  (84) 
0.000924449

>  <r_epik_Ionization_Penalty_Neutral>  (84) 
5.71621e-13

>  <r_epik_State_Penalty>  (84) 
0.000599438

>  <r_epik_Charging_Adjusted_Penalty>  (84) 
0.00152389

>  <i_epik_Tot_Q>  (84) 
1

>  <i_epik_Tot_abs_Q>  (84) 
1

>  <s_lp_Force_Field>  (84) 
OPLS3e

>  <r_lp_Energy>  (84) 
203.426

>  <b_lp_Chiralities_Consistent>  (84) 
0

>  <s_lp_Variant>  (84) 
35:0-1

>  <s_i_glide_gridfile>  (84) 
pfpi4k_grid

>  <i_i_glide_lignum>  (84) 
40

>  <i_i_glide_rotatable_bonds>  (84) 
6

>  <r_i_docking_score>  (84) 
-2.81393

>  <r_i_glide_ligand_efficiency>  (84) 
-0.0879354

>  <r_i_glide_ligand_efficiency_sa>  (84) 
-0.279177

>  <r_i_glide_ligand_efficiency_ln>  (84) 
-0.630116

>  <r_i_glide_gscore>  (84) 
-2.81393

>  <r_i_glide_lipo>  (84) 
-0.320802

>  <r_i_glide_hbond>  (84) 
-0.154631

>  <r_i_glide_metal>  (84) 
-0

>  <r_i_glide_rewards>  (84) 
-0.418779

>  <r_i_glide_evdw>  (84) 
-25.0971

>  <r_i_glide_ecoul>  (84) 
-5.65994

>  <r_i_glide_erotb>  (84) 
0.207443

>  <r_i_glide_esite>  (84) 
-0.0233153

>  <r_i_glide_emodel>  (84) 
-34.4514

>  <r_i_glide_energy>  (84) 
-30.7571

>  <r_i_glide_einternal>  (84) 
7.51461

>  <r_i_glide_intrahb_reward>  (84) 
-0

>  <i_i_glide_confnum>  (84) 
1

>  <i_i_glide_posenum>  (84) 
18

>  <r_i_glide_eff_state_penalty>  (84) 
0

>  <ligand_id>  (84) 
35

>  <original_smiles>  (84) 
CCN1CC23CC45CC6C(C=CC6C2C4(OC)C(Cc2ccc(OC)cc2)C(OC)C13)O5

>  <smiles>  (84) 
[H]C1=C([H])C2([H])C3([H])C1([H])OC1(C3([H])[H])C([H])([H])C34C2([H])C1(OC([H])([H])[H])C([H])(C([H])([H])c1c([H])c([H])c(OC([H])([H])[H])c([H])c1[H])C([H])(OC([H])([H])[H])C3([H])[N+]([H])(C([H])([H])C([H])([H])[H])C4([H])[H]

$$$$
35:0:1
     RDKit          3D

 68 74  0  0  1  0  0  0  0  0999 V2000
    5.4995  -12.6651    3.0871 C   0  0  0  0  0  0  0  0  0  0  0  0
    3.9960  -12.6731    3.3534 C   0  0  0  0  0  0  0  0  0  0  0  0
    3.3906  -11.3643    3.8144 N   0  0  2  0  0  0  0  0  0  0  0  0
    1.8958  -11.3246    3.8522 C   0  0  0  0  0  0  0  0  0  0  0  0
    1.9403   -9.8781    3.3650 C   0  0  1  0  0  0  0  0  0  0  0  0
    1.0849   -9.3323    2.1404 C   0  0  0  0  0  0  0  0  0  0  0  0
    0.6105   -8.0802    2.8323 C   0  0  1  0  0  0  0  0  0  0  0  0
   -0.5690   -8.9679    3.4789 C   0  0  0  0  0  0  0  0  0  0  0  0
   -0.7183   -8.3370    4.7422 C   0  0  2  0  0  0  0  0  0  0  0  0
   -0.9325   -6.9326    4.2235 C   0  0  1  0  0  0  0  0  0  0  0  0
   -0.2091   -6.2275    5.3614 C   0  0  0  0  0  0  0  0  0  0  0  0
    0.5996   -7.0478    6.0520 C   0  0  0  0  0  0  0  0  0  0  0  0
    0.6462   -8.4471    5.4638 C   0  0  2  0  0  0  0  0  0  0  0  0
    1.9157   -8.7075    4.4861 C   0  0  2  0  0  0  0  0  0  0  0  0
    2.0220   -7.5920    3.4688 C   0  0  2  0  0  0  0  0  0  0  0  0
    2.0574   -6.2509    3.9608 O   0  0  0  0  0  0  0  0  0  0  0  0
    1.6877   -5.1747    3.0752 C   0  0  0  0  0  0  0  0  0  0  0  0
    3.4459   -7.6660    2.6624 C   0  0  1  0  0  0  0  0  0  0  0  0
    4.5295   -6.5340    2.8419 C   0  0  0  0  0  0  0  0  0  0  0  0
    4.3686   -5.2651    1.9929 C   0  0  0  0  0  0  0  0  0  0  0  0
    4.3903   -4.0054    2.6200 C   0  0  0  0  0  0  0  0  0  0  0  0
    4.2233   -2.8278    1.8686 C   0  0  0  0  0  0  0  0  0  0  0  0
    4.0020   -2.8942    0.4856 C   0  0  0  0  0  0  0  0  0  0  0  0
    3.7962   -1.6877   -0.1712 O   0  0  0  0  0  0  0  0  0  0  0  0
    3.5460   -1.7111   -1.5695 C   0  0  0  0  0  0  0  0  0  0  0  0
    3.9948   -4.1493   -0.1553 C   0  0  0  0  0  0  0  0  0  0  0  0
    4.2220   -5.3342    0.5962 C   0  0  0  0  0  0  0  0  0  0  0  0
    4.2480   -9.0086    2.9084 C   0  0  1  0  0  0  0  0  0  0  0  0
    4.9169   -8.8891    4.1809 O   0  0  0  0  0  0  0  0  0  0  0  0
    6.1504   -9.6438    4.2495 C   0  0  0  0  0  0  0  0  0  0  0  0
    3.3144  -10.2436    2.8343 C   0  0  1  0  0  0  0  0  0  0  0  0
   -0.3560   -7.0000    2.8511 O   0  0  0  0  0  0  0  0  0  0  0  0
    5.8587  -13.5777    2.6530 H   0  0  0  0  0  0  0  0  0  0  0  0
    6.0211  -12.4141    4.0143 H   0  0  0  0  0  0  0  0  0  0  0  0
    5.7198  -11.8657    2.3824 H   0  0  0  0  0  0  0  0  0  0  0  0
    3.4437  -13.0165    2.4665 H   0  0  0  0  0  0  0  0  0  0  0  0
    3.7809  -13.3939    4.1413 H   0  0  0  0  0  0  0  0  0  0  0  0
    1.4333  -12.0228    3.1413 H   0  0  0  0  0  0  0  0  0  0  0  0
    1.4963  -11.4590    4.8570 H   0  0  0  0  0  0  0  0  0  0  0  0
    1.6827   -9.0815    1.2784 H   0  0  0  0  0  0  0  0  0  0  0  0
    0.3657  -10.0564    1.7494 H   0  0  0  0  0  0  0  0  0  0  0  0
   -1.4954   -8.9300    2.9019 H   0  0  0  0  0  0  0  0  0  0  0  0
   -0.4476  -10.0440    3.6847 H   0  0  0  0  0  0  0  0  0  0  0  0
   -1.5599   -8.6935    5.3320 H   0  0  0  0  0  0  0  0  0  0  0  0
   -1.9865   -6.6544    4.1874 H   0  0  0  0  0  0  0  0  0  0  0  0
   -0.3645   -5.1804    5.5746 H   0  0  0  0  0  0  0  0  0  0  0  0
    1.1926   -6.7536    6.9024 H   0  0  0  0  0  0  0  0  0  0  0  0
    0.5997   -9.1973    6.2496 H   0  0  0  0  0  0  0  0  0  0  0  0
    2.7796   -8.7266    5.1287 H   0  0  0  0  0  0  0  0  0  0  0  0
    2.2566   -4.2955    3.3977 H   0  0  0  0  0  0  0  0  0  0  0  0
    0.6206   -4.8922    3.0887 H   0  0  0  0  0  0  0  0  0  0  0  0
    1.9462   -5.4176    2.0384 H   0  0  0  0  0  0  0  0  0  0  0  0
    3.2028   -7.6722    1.6039 H   0  0  0  0  0  0  0  0  0  0  0  0
    4.6409   -6.2795    3.9009 H   0  0  0  0  0  0  0  0  0  0  0  0
    5.5061   -6.9291    2.5402 H   0  0  0  0  0  0  0  0  0  0  0  0
    4.5697   -3.9159    3.6854 H   0  0  0  0  0  0  0  0  0  0  0  0
    4.1520   -1.8719    2.3701 H   0  0  0  0  0  0  0  0  0  0  0  0
    3.4513   -0.6851   -1.9314 H   0  0  0  0  0  0  0  0  0  0  0  0
    2.6148   -2.2341   -1.7933 H   0  0  0  0  0  0  0  0  0  0  0  0
    4.3665   -2.1795   -2.1182 H   0  0  0  0  0  0  0  0  0  0  0  0
    3.8145   -4.2548   -1.2158 H   0  0  0  0  0  0  0  0  0  0  0  0
    4.1570   -6.2851    0.0947 H   0  0  0  0  0  0  0  0  0  0  0  0
    5.0006   -9.1215    2.1324 H   0  0  0  0  0  0  0  0  0  0  0  0
    6.5557   -9.6174    5.2881 H   0  0  0  0  0  0  0  0  0  0  0  0
    6.9187   -9.2190    3.5593 H   0  0  0  0  0  0  0  0  0  0  0  0
    5.9556  -10.6030    4.0614 H   0  0  0  0  0  0  0  0  0  0  0  0
    3.2468  -10.7151    1.8278 H   0  0  0  0  0  0  0  0  0  0  0  0
    3.7574  -11.0177    4.7126 H   0  0  0  0  0  0  0  0  0  0  0  0
  1  2  1  0
  1 33  1  0
  1 34  1  0
  1 35  1  0
  2  3  1  0
  2 36  1  0
  2 37  1  0
  3 31  1  0
  3  4  1  0
  3 68  1  1
  5  4  1  1
  4 38  1  0
  4 39  1  0
  5 14  1  0
  5 31  1  0
  5  6  1  0
  6  7  1  0
  6 40  1  0
  6 41  1  0
  7 15  1  0
  7 32  1  6
  7  8  1  0
  8  9  1  0
  8 42  1  0
  8 43  1  0
  9 13  1  0
  9 10  1  0
  9 44  1  1
 10 11  1  0
 10 32  1  0
 10 45  1  6
 11 12  2  0
 11 46  1  0
 12 13  1  0
 12 47  1  0
 13 14  1  0
 13 48  1  1
 14 15  1  0
 14 49  1  1
 15 16  1  1
 15 18  1  0
 16 17  1  0
 17 50  1  0
 17 51  1  0
 17 52  1  0
 18 19  1  0
 18 28  1  0
 18 53  1  6
 19 20  1  0
 19 54  1  0
 19 55  1  0
 20 27  1  0
 20 21  2  0
 21 22  1  0
 21 56  1  0
 22 23  2  0
 22 57  1  0
 23 24  1  0
 23 26  1  0
 24 25  1  0
 25 58  1  0
 25 59  1  0
 25 60  1  0
 26 27  2  0
 26 61  1  0
 27 62  1  0
 28 29  1  0
 28 31  1  0
 28 63  1  6
 29 30  1  0
 30 64  1  0
 30 65  1  0
 30 66  1  0
 31 67  1  6
M  CHG  1   3   1
M  END
>  <i_m_ct_stereo_status>  (85) 
1

>  <s_m_source_file>  (85) 
/var/tmp/pbs.5076255.sched01/tmp_578sd5a/06fbc0iir.sdf

>  <i_m_source_file_index>  (85) 
40

>  <i_lp_mmshare_version>  (85) 
48012

>  <i_f3d_flags>  (85) 
2

>  <s_epik_input>  (85) 
W0NIM11PYyhbY0hdW2NIXTEpW2NIXVtjSF1jMVtDSDJdW0NAQEhdKFtDQEBIXShPW0NIM10pW0NAQEhdMk4oW0NIMl0zKVtDSDJdW0NIM10pW0NAQF00KE9bQ0gzXSlbQ0BAXShbQ0gyXTUpKFtDSDJdNilPW0NAQEhdKFtDSF09W0NIXTcpW0NASF02W0NASF03W0NASF00W0NAQF0yMzU=

>  <s_epik_cmdline>  (85) 
J2VwaWtfcHl0aG9uJywgJy1waHQnLCAnMi4wJywgJy1waCcsICc3LjAnLCAnLXRuJywgJzgnLCAnLW1hJywgJzIwMCcsICctaW1hZScsICc8aW5maWxlLm1hZT4nLCAnLW9tYWUnLCAnPG91dGZpbGUubWFlPic=

>  <r_lp_tautomer_probability>  (85) 
1

>  <r_epik_Ionization_Penalty>  (85) 
0.000924449

>  <r_epik_Ionization_Penalty_Charging>  (85) 
0.000924449

>  <r_epik_Ionization_Penalty_Neutral>  (85) 
5.71621e-13

>  <r_epik_State_Penalty>  (85) 
0.000599438

>  <r_epik_Charging_Adjusted_Penalty>  (85) 
0.00152389

>  <i_epik_Tot_Q>  (85) 
1

>  <i_epik_Tot_abs_Q>  (85) 
1

>  <s_lp_Force_Field>  (85) 
OPLS3e

>  <r_lp_Energy>  (85) 
203.426

>  <b_lp_Chiralities_Consistent>  (85) 
0

>  <s_lp_Variant>  (85) 
35:0-1

>  <s_i_glide_gridfile>  (85) 
pfpi4k_grid

>  <i_i_glide_lignum>  (85) 
40

>  <i_i_glide_rotatable_bonds>  (85) 
6

>  <r_i_docking_score>  (85) 
-2.73381

>  <r_i_glide_ligand_efficiency>  (85) 
-0.0854317

>  <r_i_glide_ligand_efficiency_sa>  (85) 
-0.271229

>  <r_i_glide_ligand_efficiency_ln>  (85) 
-0.612175

>  <r_i_glide_gscore>  (85) 
-2.73381

>  <r_i_glide_lipo>  (85) 
-0.203329

>  <r_i_glide_hbond>  (85) 
-0.103813

>  <r_i_glide_metal>  (85) 
-0

>  <r_i_glide_rewards>  (85) 
-0.418779

>  <r_i_glide_evdw>  (85) 
-25.3167

>  <r_i_glide_ecoul>  (85) 
-6.16019

>  <r_i_glide_erotb>  (85) 
0.207443

>  <r_i_glide_esite>  (85) 
-0.0254706

>  <r_i_glide_emodel>  (85) 
-36.1052

>  <r_i_glide_energy>  (85) 
-31.4769

>  <r_i_glide_einternal>  (85) 
0.730993

>  <r_i_glide_intrahb_reward>  (85) 
-0

>  <i_i_glide_confnum>  (85) 
4

>  <i_i_glide_posenum>  (85) 
15

>  <r_i_glide_eff_state_penalty>  (85) 
0

>  <ligand_id>  (85) 
35

>  <original_smiles>  (85) 
CCN1CC23CC45CC6C(C=CC6C2C4(OC)C(Cc2ccc(OC)cc2)C(OC)C13)O5

>  <smiles>  (85) 
[H]C1=C([H])C2([H])C3([H])C1([H])OC1(C3([H])[H])C([H])([H])C34C2([H])C1(OC([H])([H])[H])C([H])(C([H])([H])c1c([H])c([H])c(OC([H])([H])[H])c([H])c1[H])C([H])(OC([H])([H])[H])C3([H])[N+]([H])(C([H])([H])C([H])([H])[H])C4([H])[H]

$$$$
35:0:2
     RDKit          3D

 68 74  0  0  1  0  0  0  0  0999 V2000
    6.4482  -11.3958    3.5686 C   0  0  0  0  0  0  0  0  0  0  0  0
    6.0706  -10.4573    2.4016 C   0  0  0  0  0  0  0  0  0  0  0  0
    5.4362   -9.1986    2.8724 N   0  0  2  0  0  0  0  0  0  0  0  0
    4.0510   -9.3545    3.3191 C   0  0  0  0  0  0  0  0  0  0  0  0
    3.7622   -7.9763    2.7309 C   0  0  1  0  0  0  0  0  0  0  0  0
    2.5439   -7.6686    1.7623 C   0  0  0  0  0  0  0  0  0  0  0  0
    2.1135   -6.3925    2.4355 C   0  0  1  0  0  0  0  0  0  0  0  0
    1.2950   -7.3219    3.4640 C   0  0  0  0  0  0  0  0  0  0  0  0
    1.3970   -6.5742    4.6657 C   0  0  2  0  0  0  0  0  0  0  0  0
    0.8597   -5.2696    4.1098 C   0  0  1  0  0  0  0  0  0  0  0  0
    1.7684   -4.3543    4.9089 C   0  0  0  0  0  0  0  0  0  0  0  0
    2.8357   -4.9939    5.4216 C   0  0  0  0  0  0  0  0  0  0  0  0
    2.9139   -6.4390    4.9712 C   0  0  2  0  0  0  0  0  0  0  0  0
    3.8981   -6.6705    3.6922 C   0  0  2  0  0  0  0  0  0  0  0  0
    3.5615   -5.6771    2.6034 C   0  0  2  0  0  0  0  0  0  0  0  0
    3.5560   -4.2850    2.9419 O   0  0  0  0  0  0  0  0  0  0  0  0
    2.8310   -3.3906    2.0978 C   0  0  0  0  0  0  0  0  0  0  0  0
    4.7230   -5.7434    1.4416 C   0  0  1  0  0  0  0  0  0  0  0  0
    5.6262   -4.4664    1.2091 C   0  0  0  0  0  0  0  0  0  0  0  0
    5.2135   -3.4672    0.1127 C   0  0  0  0  0  0  0  0  0  0  0  0
    5.1555   -2.0838    0.3966 C   0  0  0  0  0  0  0  0  0  0  0  0
    4.7122   -1.1680   -0.5747 C   0  0  0  0  0  0  0  0  0  0  0  0
    4.3678   -1.5990   -1.8698 C   0  0  0  0  0  0  0  0  0  0  0  0
    3.9575   -0.6328   -2.7571 O   0  0  0  0  0  0  0  0  0  0  0  0
    3.5128   -1.0329   -4.0423 C   0  0  0  0  0  0  0  0  0  0  0  0
    4.4628   -2.9815   -2.1716 C   0  0  0  0  0  0  0  0  0  0  0  0
    4.8838   -3.9005   -1.1892 C   0  0  0  0  0  0  0  0  0  0  0  0
    5.7285   -6.9702    1.5521 C   0  0  1  0  0  0  0  0  0  0  0  0
    6.7029   -6.7153    2.5662 O   0  0  0  0  0  0  0  0  0  0  0  0
    7.9911   -7.2654    2.3130 C   0  0  0  0  0  0  0  0  0  0  0  0
    4.9615   -8.2609    1.8558 C   0  0  1  0  0  0  0  0  0  0  0  0
    1.0467   -5.4466    2.6420 O   0  0  0  0  0  0  0  0  0  0  0  0
    6.9424  -12.2939    3.1933 H   0  0  0  0  0  0  0  0  0  0  0  0
    5.5624  -11.7235    4.1325 H   0  0  0  0  0  0  0  0  0  0  0  0
    7.1364  -10.9096    4.2723 H   0  0  0  0  0  0  0  0  0  0  0  0
    6.9781  -10.2511    1.8305 H   0  0  0  0  0  0  0  0  0  0  0  0
    5.4118  -10.9911    1.7168 H   0  0  0  0  0  0  0  0  0  0  0  0
    3.5132  -10.1654    2.8168 H   0  0  0  0  0  0  0  0  0  0  0  0
    3.9515   -9.4088    4.4089 H   0  0  0  0  0  0  0  0  0  0  0  0
    2.8637   -7.4416    0.7511 H   0  0  0  0  0  0  0  0  0  0  0  0
    1.8289   -8.4913    1.6289 H   0  0  0  0  0  0  0  0  0  0  0  0
    0.2514   -7.4580    3.1567 H   0  0  0  0  0  0  0  0  0  0  0  0
    1.6091   -8.3330    3.7227 H   0  0  0  0  0  0  0  0  0  0  0  0
    0.8114   -6.9490    5.5034 H   0  0  0  0  0  0  0  0  0  0  0  0
   -0.1842   -5.0943    4.3609 H   0  0  0  0  0  0  0  0  0  0  0  0
    1.5401   -3.3118    5.0737 H   0  0  0  0  0  0  0  0  0  0  0  0
    3.6010   -4.5393    6.0305 H   0  0  0  0  0  0  0  0  0  0  0  0
    3.1914   -7.0882    5.8035 H   0  0  0  0  0  0  0  0  0  0  0  0
    4.9119   -6.5300    4.0641 H   0  0  0  0  0  0  0  0  0  0  0  0
    3.3113   -2.4191    2.1754 H   0  0  0  0  0  0  0  0  0  0  0  0
    1.8028   -3.2173    2.3973 H   0  0  0  0  0  0  0  0  0  0  0  0
    2.8160   -3.7155    1.0589 H   0  0  0  0  0  0  0  0  0  0  0  0
    4.2014   -5.8778    0.5017 H   0  0  0  0  0  0  0  0  0  0  0  0
    5.8197   -3.9503    2.1520 H   0  0  0  0  0  0  0  0  0  0  0  0
    6.6144   -4.7919    0.8781 H   0  0  0  0  0  0  0  0  0  0  0  0
    5.4044   -1.7204    1.3813 H   0  0  0  0  0  0  0  0  0  0  0  0
    4.6081   -0.1261   -0.3178 H   0  0  0  0  0  0  0  0  0  0  0  0
    3.2441   -0.1489   -4.6242 H   0  0  0  0  0  0  0  0  0  0  0  0
    2.6278   -1.6667   -3.9744 H   0  0  0  0  0  0  0  0  0  0  0  0
    4.2958   -1.5566   -4.5899 H   0  0  0  0  0  0  0  0  0  0  0  0
    4.1957   -3.3597   -3.1421 H   0  0  0  0  0  0  0  0  0  0  0  0
    4.9321   -4.9467   -1.4474 H   0  0  0  0  0  0  0  0  0  0  0  0
    6.2392   -7.0501    0.5969 H   0  0  0  0  0  0  0  0  0  0  0  0
    8.6467   -7.0750    3.1636 H   0  0  0  0  0  0  0  0  0  0  0  0
    8.4532   -6.8377    1.4231 H   0  0  0  0  0  0  0  0  0  0  0  0
    7.9455   -8.3399    2.1814 H   0  0  0  0  0  0  0  0  0  0  0  0
    4.6722   -8.8085    0.9514 H   0  0  0  0  0  0  0  0  0  0  0  0
    5.9905   -8.6958    3.5621 H   0  0  0  0  0  0  0  0  0  0  0  0
  1  2  1  0
  1 33  1  0
  1 34  1  0
  1 35  1  0
  2  3  1  0
  2 36  1  0
  2 37  1  0
  3 31  1  0
  3  4  1  0
  3 68  1  1
  5  4  1  1
  4 38  1  0
  4 39  1  0
  5 14  1  0
  5 31  1  0
  5  6  1  0
  6  7  1  0
  6 40  1  0
  6 41  1  0
  7 15  1  0
  7 32  1  6
  7  8  1  0
  8  9  1  0
  8 42  1  0
  8 43  1  0
  9 13  1  0
  9 10  1  0
  9 44  1  1
 10 11  1  0
 10 32  1  0
 10 45  1  6
 11 12  2  0
 11 46  1  0
 12 13  1  0
 12 47  1  0
 13 14  1  0
 13 48  1  1
 14 15  1  0
 14 49  1  1
 15 16  1  1
 15 18  1  0
 16 17  1  0
 17 50  1  0
 17 51  1  0
 17 52  1  0
 18 19  1  0
 18 28  1  0
 18 53  1  6
 19 20  1  0
 19 54  1  0
 19 55  1  0
 20 27  1  0
 20 21  2  0
 21 22  1  0
 21 56  1  0
 22 23  2  0
 22 57  1  0
 23 24  1  0
 23 26  1  0
 24 25  1  0
 25 58  1  0
 25 59  1  0
 25 60  1  0
 26 27  2  0
 26 61  1  0
 27 62  1  0
 28 29  1  0
 28 31  1  0
 28 63  1  6
 29 30  1  0
 30 64  1  0
 30 65  1  0
 30 66  1  0
 31 67  1  6
M  CHG  1   3   1
M  END
>  <i_m_ct_stereo_status>  (86) 
1

>  <s_m_source_file>  (86) 
/var/tmp/pbs.5076255.sched01/tmp_578sd5a/06fbc0iir.sdf

>  <i_m_source_file_index>  (86) 
40

>  <i_lp_mmshare_version>  (86) 
48012

>  <i_f3d_flags>  (86) 
2

>  <s_epik_input>  (86) 
W0NIM11PYyhbY0hdW2NIXTEpW2NIXVtjSF1jMVtDSDJdW0NAQEhdKFtDQEBIXShPW0NIM10pW0NAQEhdMk4oW0NIMl0zKVtDSDJdW0NIM10pW0NAQF00KE9bQ0gzXSlbQ0BAXShbQ0gyXTUpKFtDSDJdNilPW0NAQEhdKFtDSF09W0NIXTcpW0NASF02W0NASF03W0NASF00W0NAQF0yMzU=

>  <s_epik_cmdline>  (86) 
J2VwaWtfcHl0aG9uJywgJy1waHQnLCAnMi4wJywgJy1waCcsICc3LjAnLCAnLXRuJywgJzgnLCAnLW1hJywgJzIwMCcsICctaW1hZScsICc8aW5maWxlLm1hZT4nLCAnLW9tYWUnLCAnPG91dGZpbGUubWFlPic=

>  <r_lp_tautomer_probability>  (86) 
1

>  <r_epik_Ionization_Penalty>  (86) 
0.000924449

>  <r_epik_Ionization_Penalty_Charging>  (86) 
0.000924449

>  <r_epik_Ionization_Penalty_Neutral>  (86) 
5.71621e-13

>  <r_epik_State_Penalty>  (86) 
0.000599438

>  <r_epik_Charging_Adjusted_Penalty>  (86) 
0.00152389

>  <i_epik_Tot_Q>  (86) 
1

>  <i_epik_Tot_abs_Q>  (86) 
1

>  <s_lp_Force_Field>  (86) 
OPLS3e

>  <r_lp_Energy>  (86) 
203.426

>  <b_lp_Chiralities_Consistent>  (86) 
0

>  <s_lp_Variant>  (86) 
35:0-1

>  <s_i_glide_gridfile>  (86) 
pfpi4k_grid

>  <i_i_glide_lignum>  (86) 
40

>  <i_i_glide_rotatable_bonds>  (86) 
6

>  <r_i_docking_score>  (86) 
-2.28596

>  <r_i_glide_ligand_efficiency>  (86) 
-0.0714363

>  <r_i_glide_ligand_efficiency_sa>  (86) 
-0.226796

>  <r_i_glide_ligand_efficiency_ln>  (86) 
-0.511889

>  <r_i_glide_gscore>  (86) 
-2.28596

>  <r_i_glide_lipo>  (86) 
-0.439277

>  <r_i_glide_hbond>  (86) 
-0.0134483

>  <r_i_glide_metal>  (86) 
-0

>  <r_i_glide_rewards>  (86) 
-0.418779

>  <r_i_glide_evdw>  (86) 
-25.7038

>  <r_i_glide_ecoul>  (86) 
-2.193

>  <r_i_glide_erotb>  (86) 
0.207443

>  <r_i_glide_esite>  (86) 
-0.00776284

>  <r_i_glide_emodel>  (86) 
-33.3676

>  <r_i_glide_energy>  (86) 
-27.8967

>  <r_i_glide_einternal>  (86) 
1.38716

>  <r_i_glide_intrahb_reward>  (86) 
-0

>  <i_i_glide_confnum>  (86) 
4

>  <i_i_glide_posenum>  (86) 
25

>  <r_i_glide_eff_state_penalty>  (86) 
0

>  <ligand_id>  (86) 
35

>  <original_smiles>  (86) 
CCN1CC23CC45CC6C(C=CC6C2C4(OC)C(Cc2ccc(OC)cc2)C(OC)C13)O5

>  <smiles>  (86) 
[H]C1=C([H])C2([H])C3([H])C1([H])OC1(C3([H])[H])C([H])([H])C34C2([H])C1(OC([H])([H])[H])C([H])(C([H])([H])c1c([H])c([H])c(OC([H])([H])[H])c([H])c1[H])C([H])(OC([H])([H])[H])C3([H])[N+]([H])(C([H])([H])C([H])([H])[H])C4([H])[H]

$$$$
36:0:0
     RDKit          3D

 50 52  0  0  1  0  0  0  0  0999 V2000
    3.1817   -0.4541   -4.3116 C   0  0  0  0  0  0  0  0  0  0  0  0
    3.2392   -1.1769   -2.9589 C   0  0  0  0  0  0  0  0  0  0  0  0
    4.5698   -0.9619   -2.2224 C   0  0  0  0  0  0  0  0  0  0  0  0
    4.6285   -1.6695   -0.9887 O   0  0  0  0  0  0  0  0  0  0  0  0
    5.0368   -2.9526   -0.9635 C   0  0  0  0  0  0  0  0  0  0  0  0
    5.3287   -3.6160   -1.9638 O   0  0  0  0  0  0  0  0  0  0  0  0
    5.1067   -3.5308    0.4701 C   0  0  2  0  0  0  0  0  0  0  0  0
    6.2272   -4.5919    0.5455 C   0  0  0  0  0  0  0  0  0  0  0  0
    7.6448   -4.0691    0.4450 C   0  0  0  0  0  0  0  0  0  0  0  0
    6.0415   -5.8373    0.7018 N   0  0  0  0  0  0  0  0  0  0  0  0
    4.7743   -6.3998    0.8224 C   0  0  0  0  0  0  0  0  0  0  0  0
    4.6934   -7.6496    1.3213 C   0  0  0  0  0  0  0  0  0  0  0  0
    3.3899   -8.3614    1.6444 C   0  0  1  0  0  0  0  0  0  0  0  0
    3.5691   -9.3151    2.8350 C   0  0  0  0  0  0  0  0  0  0  0  0
    2.2376   -7.3640    1.9181 C   0  0  0  0  0  0  0  0  0  0  0  0
    2.1980   -6.2311    0.8811 C   0  0  0  0  0  0  0  0  0  0  0  0
    1.1276   -5.8633    0.3965 O   0  0  0  0  0  0  0  0  0  0  0  0
    3.5383   -5.5608    0.4746 C   0  0  1  0  0  0  0  0  0  0  0  0
    3.7285   -4.0922    0.9493 C   0  0  1  0  0  0  0  0  0  0  0  0
    3.4667   -3.8223    2.4563 C   0  0  0  0  0  0  0  0  0  0  0  0
    3.7541   -4.8136    3.4237 C   0  0  0  0  0  0  0  0  0  0  0  0
    3.4301   -4.6283    4.7739 C   0  0  0  0  0  0  0  0  0  0  0  0
    2.8872   -3.4129    5.2120 C   0  0  0  0  0  0  0  0  0  0  0  0
    2.6569   -2.3864    4.2796 C   0  0  0  0  0  0  0  0  0  0  0  0
    2.9386   -2.5834    2.9098 C   0  0  0  0  0  0  0  0  0  0  0  0
    2.6332   -1.2800    1.8132 Cl  0  0  0  0  0  0  0  0  0  0  0  0
    2.2132   -0.6107   -4.7840 H   0  0  0  0  0  0  0  0  0  0  0  0
    3.9423   -0.8232   -4.9986 H   0  0  0  0  0  0  0  0  0  0  0  0
    3.3189    0.6215   -4.2010 H   0  0  0  0  0  0  0  0  0  0  0  0
    2.4303   -0.8165   -2.3249 H   0  0  0  0  0  0  0  0  0  0  0  0
    3.0558   -2.2401   -3.1217 H   0  0  0  0  0  0  0  0  0  0  0  0
    5.4049   -1.2521   -2.8595 H   0  0  0  0  0  0  0  0  0  0  0  0
    4.6905    0.1022   -2.0186 H   0  0  0  0  0  0  0  0  0  0  0  0
    5.3856   -2.6962    1.1121 H   0  0  0  0  0  0  0  0  0  0  0  0
    7.8604   -3.3190    1.2016 H   0  0  0  0  0  0  0  0  0  0  0  0
    7.8163   -3.6379   -0.5348 H   0  0  0  0  0  0  0  0  0  0  0  0
    8.3637   -4.8832    0.5672 H   0  0  0  0  0  0  0  0  0  0  0  0
    5.6019   -8.1792    1.5775 H   0  0  0  0  0  0  0  0  0  0  0  0
    3.1440   -8.9752    0.7710 H   0  0  0  0  0  0  0  0  0  0  0  0
    4.3268  -10.0671    2.6151 H   0  0  0  0  0  0  0  0  0  0  0  0
    2.6398   -9.8443    3.0427 H   0  0  0  0  0  0  0  0  0  0  0  0
    3.8667   -8.7929    3.7471 H   0  0  0  0  0  0  0  0  0  0  0  0
    1.2855   -7.8921    1.9064 H   0  0  0  0  0  0  0  0  0  0  0  0
    2.3405   -6.9287    2.9195 H   0  0  0  0  0  0  0  0  0  0  0  0
    3.5383   -5.5196   -0.6207 H   0  0  0  0  0  0  0  0  0  0  0  0
    2.9495   -3.5368    0.4212 H   0  0  0  0  0  0  0  0  0  0  0  0
    4.2087   -5.7516    3.1570 H   0  0  0  0  0  0  0  0  0  0  0  0
    3.6003   -5.4425    5.4644 H   0  0  0  0  0  0  0  0  0  0  0  0
    2.6675   -3.2791    6.2654 H   0  0  0  0  0  0  0  0  0  0  0  0
    2.2624   -1.4391    4.6261 H   0  0  0  0  0  0  0  0  0  0  0  0
  1  2  1  0
  1 27  1  0
  1 28  1  0
  1 29  1  0
  2  3  1  0
  2 30  1  0
  2 31  1  0
  3  4  1  0
  3 32  1  0
  3 33  1  0
  4  5  1  0
  5  6  2  0
  5  7  1  0
  7 19  1  0
  7  8  1  0
  7 34  1  1
  8  9  1  0
  8 10  2  0
  9 35  1  0
  9 36  1  0
  9 37  1  0
 10 11  1  0
 11 18  1  0
 11 12  2  0
 12 13  1  0
 12 38  1  0
 13 14  1  0
 13 15  1  0
 13 39  1  6
 14 40  1  0
 14 41  1  0
 14 42  1  0
 15 16  1  0
 15 43  1  0
 15 44  1  0
 16 17  2  0
 16 18  1  0
 18 19  1  0
 18 45  1  6
 19 20  1  0
 19 46  1  6
 20 25  1  0
 20 21  2  0
 21 22  1  0
 21 47  1  0
 22 23  2  0
 22 48  1  0
 23 24  1  0
 23 49  1  0
 24 25  2  0
 24 50  1  0
 25 26  1  0
M  END
>  <i_m_ct_stereo_status>  (87) 
1

>  <s_m_source_file>  (87) 
/var/tmp/pbs.5076255.sched01/tmp_578sd5a/06fbc0iir.sdf

>  <i_m_source_file_index>  (87) 
41

>  <i_lp_mmshare_version>  (87) 
48012

>  <i_f3d_flags>  (87) 
0

>  <s_epik_input>  (87) 
W0NIM11bQ0gyXVtDSDJdT0MoPU8pW0NASF0oQyg9TjEpW0NIM10pW0NAQEhdKFtDQEBIXShDMT0yKUMoPU8pW0NIMl1bQ0BASF0oW0NIXTIpW0NIM10pYzNbY0hdW2NIXVtjSF1bY0hdYzNDbA==

>  <s_epik_cmdline>  (87) 
J2VwaWtfcHl0aG9uJywgJy1waHQnLCAnMi4wJywgJy1waCcsICc3LjAnLCAnLXRuJywgJzgnLCAnLW1hJywgJzIwMCcsICctaW1hZScsICc8aW5maWxlLm1hZT4nLCAnLW9tYWUnLCAnPG91dGZpbGUubWFlPic=

>  <r_lp_tautomer_probability>  (87) 
0.499981

>  <r_epik_Ionization_Penalty>  (87) 
3.38826e-11

>  <r_epik_Ionization_Penalty_Charging>  (87) 
0

>  <r_epik_Ionization_Penalty_Neutral>  (87) 
3.38826e-11

>  <r_epik_State_Penalty>  (87) 
0.41068

>  <r_epik_Charging_Adjusted_Penalty>  (87) 
0.41068

>  <i_epik_Tot_Q>  (87) 
0

>  <i_epik_Tot_abs_Q>  (87) 
0

>  <s_epik_Chemistry_Notes>  (87) 
This compound has an ester and may undergo hydrolysis at high or low pH. This compound has an imine and may undergo hydrolysis.

>  <s_lp_Force_Field>  (87) 
OPLS3e

>  <r_lp_Energy>  (87) 
20.3913

>  <b_lp_Chiralities_Consistent>  (87) 
1

>  <s_lp_Variant>  (87) 
36:0-1

>  <s_i_glide_gridfile>  (87) 
pfpi4k_grid

>  <i_i_glide_lignum>  (87) 
41

>  <i_i_glide_rotatable_bonds>  (87) 
5

>  <r_i_docking_score>  (87) 
-3.23558

>  <r_i_glide_ligand_efficiency>  (87) 
-0.124446

>  <r_i_glide_ligand_efficiency_sa>  (87) 
-0.368669

>  <r_i_glide_ligand_efficiency_ln>  (87) 
-0.759866

>  <r_i_glide_gscore>  (87) 
-3.23558

>  <r_i_glide_lipo>  (87) 
-0.70635

>  <r_i_glide_hbond>  (87) 
-0.16

>  <r_i_glide_metal>  (87) 
-0

>  <r_i_glide_rewards>  (87) 
-1.02841

>  <r_i_glide_evdw>  (87) 
-26.5317

>  <r_i_glide_ecoul>  (87) 
-3.59192

>  <r_i_glide_erotb>  (87) 
0.553147

>  <r_i_glide_esite>  (87) 
-0.0285985

>  <r_i_glide_emodel>  (87) 
-34.7737

>  <r_i_glide_energy>  (87) 
-30.1237

>  <r_i_glide_einternal>  (87) 
2.34837

>  <r_i_glide_intrahb_reward>  (87) 
-0

>  <i_i_glide_confnum>  (87) 
3

>  <i_i_glide_posenum>  (87) 
1

>  <r_i_glide_eff_state_penalty>  (87) 
0

>  <ligand_id>  (87) 
36

>  <original_smiles>  (87) 
CCCOC(=O)C1C(C)=NC2=CC(C)CC(=O)C2C1c1ccccc1Cl

>  <smiles>  (87) 
[H]C1=C2N=C(C([H])([H])[H])C([H])(C(=O)OC([H])([H])C([H])([H])C([H])([H])[H])C([H])(c3c([H])c([H])c([H])c([H])c3Cl)C2([H])C(=O)C([H])([H])C1([H])C([H])([H])[H]

$$$$
36:0:1
     RDKit          3D

 50 52  0  0  1  0  0  0  0  0999 V2000
    2.4835    1.0471   -5.3122 C   0  0  0  0  0  0  0  0  0  0  0  0
    2.6447   -0.1313   -4.3460 C   0  0  0  0  0  0  0  0  0  0  0  0
    4.1061   -0.5287   -4.1479 C   0  0  0  0  0  0  0  0  0  0  0  0
    4.1762   -1.6993   -3.3339 O   0  0  0  0  0  0  0  0  0  0  0  0
    4.6432   -1.6368   -2.0724 C   0  0  0  0  0  0  0  0  0  0  0  0
    5.2611   -0.6800   -1.6189 O   0  0  0  0  0  0  0  0  0  0  0  0
    4.3895   -2.9206   -1.2368 C   0  0  2  0  0  0  0  0  0  0  0  0
    2.8742   -3.1115   -0.9758 C   0  0  0  0  0  0  0  0  0  0  0  0
    1.9661   -3.3644   -2.1676 C   0  0  0  0  0  0  0  0  0  0  0  0
    2.3308   -3.0728    0.1737 N   0  0  0  0  0  0  0  0  0  0  0  0
    3.0123   -2.6907    1.3209 C   0  0  0  0  0  0  0  0  0  0  0  0
    2.3750   -2.8472    2.5005 C   0  0  0  0  0  0  0  0  0  0  0  0
    3.0356   -2.6851    3.8526 C   0  0  1  0  0  0  0  0  0  0  0  0
    2.4112   -3.6600    4.8697 C   0  0  0  0  0  0  0  0  0  0  0  0
    4.5614   -2.8818    3.7334 C   0  0  0  0  0  0  0  0  0  0  0  0
    5.1225   -2.0700    2.5498 C   0  0  0  0  0  0  0  0  0  0  0  0
    6.0676   -1.3033    2.6613 O   0  0  0  0  0  0  0  0  0  0  0  0
    4.4222   -2.1687    1.2006 C   0  0  1  0  0  0  0  0  0  0  0  0
    5.2132   -2.9201    0.0995 C   0  0  1  0  0  0  0  0  0  0  0  0
    5.7087   -4.3160    0.5109 C   0  0  0  0  0  0  0  0  0  0  0  0
    4.7640   -5.3386    0.7826 C   0  0  0  0  0  0  0  0  0  0  0  0
    5.1683   -6.6246    1.1756 C   0  0  0  0  0  0  0  0  0  0  0  0
    6.5405   -6.9176    1.2990 C   0  0  0  0  0  0  0  0  0  0  0  0
    7.4979   -5.9176    1.0278 C   0  0  0  0  0  0  0  0  0  0  0  0
    7.0961   -4.6224    0.6362 C   0  0  0  0  0  0  0  0  0  0  0  0
    8.3387   -3.4642    0.3090 Cl  0  0  0  0  0  0  0  0  0  0  0  0
    1.4327    1.3327   -5.3963 H   0  0  0  0  0  0  0  0  0  0  0  0
    2.8504    0.8027   -6.3082 H   0  0  0  0  0  0  0  0  0  0  0  0
    3.0244    1.9296   -4.9705 H   0  0  0  0  0  0  0  0  0  0  0  0
    2.2353    0.1458   -3.3656 H   0  0  0  0  0  0  0  0  0  0  0  0
    2.0651   -0.9744   -4.7155 H   0  0  0  0  0  0  0  0  0  0  0  0
    4.5712   -0.7557   -5.1051 H   0  0  0  0  0  0  0  0  0  0  0  0
    4.6217    0.3324   -3.7171 H   0  0  0  0  0  0  0  0  0  0  0  0
    4.7331   -3.7493   -1.8539 H   0  0  0  0  0  0  0  0  0  0  0  0
    2.2530   -4.2469   -2.7107 H   0  0  0  0  0  0  0  0  0  0  0  0
    1.9424   -2.5276   -2.8634 H   0  0  0  0  0  0  0  0  0  0  0  0
    0.9397   -3.4842   -1.8333 H   0  0  0  0  0  0  0  0  0  0  0  0
    1.3597   -3.1992    2.5161 H   0  0  0  0  0  0  0  0  0  0  0  0
    2.8201   -1.6687    4.1830 H   0  0  0  0  0  0  0  0  0  0  0  0
    1.3389   -3.4813    4.9744 H   0  0  0  0  0  0  0  0  0  0  0  0
    2.8617   -3.5373    5.8505 H   0  0  0  0  0  0  0  0  0  0  0  0
    2.5413   -4.7012    4.5643 H   0  0  0  0  0  0  0  0  0  0  0  0
    5.0468   -2.6086    4.6688 H   0  0  0  0  0  0  0  0  0  0  0  0
    4.7795   -3.9408    3.5682 H   0  0  0  0  0  0  0  0  0  0  0  0
    4.3441   -1.1239    0.8878 H   0  0  0  0  0  0  0  0  0  0  0  0
    6.1083   -2.3149   -0.0472 H   0  0  0  0  0  0  0  0  0  0  0  0
    3.7082   -5.1582    0.7012 H   0  0  0  0  0  0  0  0  0  0  0  0
    4.4257   -7.3860    1.3770 H   0  0  0  0  0  0  0  0  0  0  0  0
    6.8550   -7.9073    1.5854 H   0  0  0  0  0  0  0  0  0  0  0  0
    8.5471   -6.1555    1.1113 H   0  0  0  0  0  0  0  0  0  0  0  0
  1  2  1  0
  1 27  1  0
  1 28  1  0
  1 29  1  0
  2  3  1  0
  2 30  1  0
  2 31  1  0
  3  4  1  0
  3 32  1  0
  3 33  1  0
  4  5  1  0
  5  6  2  0
  5  7  1  0
  7 19  1  0
  7  8  1  0
  7 34  1  6
  8  9  1  0
  8 10  2  0
  9 35  1  0
  9 36  1  0
  9 37  1  0
 10 11  1  0
 11 18  1  0
 11 12  2  0
 12 13  1  0
 12 38  1  0
 13 14  1  0
 13 15  1  0
 13 39  1  1
 14 40  1  0
 14 41  1  0
 14 42  1  0
 15 16  1  0
 15 43  1  0
 15 44  1  0
 16 17  2  0
 16 18  1  0
 18 19  1  0
 18 45  1  6
 19 20  1  0
 19 46  1  6
 20 25  1  0
 20 21  2  0
 21 22  1  0
 21 47  1  0
 22 23  2  0
 22 48  1  0
 23 24  1  0
 23 49  1  0
 24 25  2  0
 24 50  1  0
 25 26  1  0
M  END
>  <i_m_ct_stereo_status>  (88) 
1

>  <s_m_source_file>  (88) 
/var/tmp/pbs.5076255.sched01/tmp_578sd5a/06fbc0iir.sdf

>  <i_m_source_file_index>  (88) 
41

>  <i_lp_mmshare_version>  (88) 
48012

>  <i_f3d_flags>  (88) 
0

>  <s_epik_input>  (88) 
W0NIM11bQ0gyXVtDSDJdT0MoPU8pW0NASF0oQyg9TjEpW0NIM10pW0NAQEhdKFtDQEBIXShDMT0yKUMoPU8pW0NIMl1bQ0BASF0oW0NIXTIpW0NIM10pYzNbY0hdW2NIXVtjSF1bY0hdYzNDbA==

>  <s_epik_cmdline>  (88) 
J2VwaWtfcHl0aG9uJywgJy1waHQnLCAnMi4wJywgJy1waCcsICc3LjAnLCAnLXRuJywgJzgnLCAnLW1hJywgJzIwMCcsICctaW1hZScsICc8aW5maWxlLm1hZT4nLCAnLW9tYWUnLCAnPG91dGZpbGUubWFlPic=

>  <r_lp_tautomer_probability>  (88) 
0.499981

>  <r_epik_Ionization_Penalty>  (88) 
3.38826e-11

>  <r_epik_Ionization_Penalty_Charging>  (88) 
0

>  <r_epik_Ionization_Penalty_Neutral>  (88) 
3.38826e-11

>  <r_epik_State_Penalty>  (88) 
0.41068

>  <r_epik_Charging_Adjusted_Penalty>  (88) 
0.41068

>  <i_epik_Tot_Q>  (88) 
0

>  <i_epik_Tot_abs_Q>  (88) 
0

>  <s_epik_Chemistry_Notes>  (88) 
This compound has an ester and may undergo hydrolysis at high or low pH. This compound has an imine and may undergo hydrolysis.

>  <s_lp_Force_Field>  (88) 
OPLS3e

>  <r_lp_Energy>  (88) 
20.3913

>  <b_lp_Chiralities_Consistent>  (88) 
1

>  <s_lp_Variant>  (88) 
36:0-1

>  <s_i_glide_gridfile>  (88) 
pfpi4k_grid

>  <i_i_glide_lignum>  (88) 
41

>  <i_i_glide_rotatable_bonds>  (88) 
5

>  <r_i_docking_score>  (88) 
-3.20332

>  <r_i_glide_ligand_efficiency>  (88) 
-0.123205

>  <r_i_glide_ligand_efficiency_sa>  (88) 
-0.364993

>  <r_i_glide_ligand_efficiency_ln>  (88) 
-0.752289

>  <r_i_glide_gscore>  (88) 
-3.20332

>  <r_i_glide_lipo>  (88) 
-1.29017

>  <r_i_glide_hbond>  (88) 
-0.00984285

>  <r_i_glide_metal>  (88) 
-0

>  <r_i_glide_rewards>  (88) 
-0.961956

>  <r_i_glide_evdw>  (88) 
-24.9558

>  <r_i_glide_ecoul>  (88) 
-1.39236

>  <r_i_glide_erotb>  (88) 
0.553147

>  <r_i_glide_esite>  (88) 
-0.037849

>  <r_i_glide_emodel>  (88) 
-30.5281

>  <r_i_glide_energy>  (88) 
-26.3482

>  <r_i_glide_einternal>  (88) 
1.34796

>  <r_i_glide_intrahb_reward>  (88) 
-0

>  <i_i_glide_confnum>  (88) 
2

>  <i_i_glide_posenum>  (88) 
18

>  <r_i_glide_eff_state_penalty>  (88) 
0

>  <ligand_id>  (88) 
36

>  <original_smiles>  (88) 
CCCOC(=O)C1C(C)=NC2=CC(C)CC(=O)C2C1c1ccccc1Cl

>  <smiles>  (88) 
[H]C1=C2N=C(C([H])([H])[H])C([H])(C(=O)OC([H])([H])C([H])([H])C([H])([H])[H])C([H])(c3c([H])c([H])c([H])c([H])c3Cl)C2([H])C(=O)C([H])([H])C1([H])C([H])([H])[H]

$$$$
36:0:2
     RDKit          3D

 50 52  0  0  1  0  0  0  0  0999 V2000
    2.3748    0.0393   -4.9515 C   0  0  0  0  0  0  0  0  0  0  0  0
    2.8371   -0.7676   -3.7272 C   0  0  0  0  0  0  0  0  0  0  0  0
    4.3294   -0.5571   -3.4288 C   0  0  0  0  0  0  0  0  0  0  0  0
    4.6511   -0.7883   -2.0623 O   0  0  0  0  0  0  0  0  0  0  0  0
    5.2330   -1.9332   -1.6772 C   0  0  0  0  0  0  0  0  0  0  0  0
    5.4071   -2.9159   -2.4030 O   0  0  0  0  0  0  0  0  0  0  0  0
    5.6845   -1.8826   -0.2017 C   0  0  2  0  0  0  0  0  0  0  0  0
    6.9597   -2.7525   -0.0215 C   0  0  0  0  0  0  0  0  0  0  0  0
    8.2389   -2.2525   -0.6748 C   0  0  0  0  0  0  0  0  0  0  0  0
    7.0293   -3.8215    0.6572 N   0  0  0  0  0  0  0  0  0  0  0  0
    5.9374   -4.3398    1.3184 C   0  0  0  0  0  0  0  0  0  0  0  0
    6.1647   -5.2700    2.2471 C   0  0  0  0  0  0  0  0  0  0  0  0
    5.0829   -5.8839    3.1304 C   0  0  1  0  0  0  0  0  0  0  0  0
    5.6470   -6.2912    4.4961 C   0  0  0  0  0  0  0  0  0  0  0  0
    3.8947   -4.9138    3.2782 C   0  0  0  0  0  0  0  0  0  0  0  0
    3.4173   -4.4005    1.9122 C   0  0  0  0  0  0  0  0  0  0  0  0
    2.2508   -4.5323    1.5505 O   0  0  0  0  0  0  0  0  0  0  0  0
    4.5226   -3.8174    0.9886 C   0  0  1  0  0  0  0  0  0  0  0  0
    4.5264   -2.2646    0.8006 C   0  0  1  0  0  0  0  0  0  0  0  0
    4.5403   -1.4319    2.1192 C   0  0  0  0  0  0  0  0  0  0  0  0
    5.7615   -0.9744    2.6486 C   0  0  0  0  0  0  0  0  0  0  0  0
    5.8265   -0.2319    3.8374 C   0  0  0  0  0  0  0  0  0  0  0  0
    4.6414    0.0241    4.5583 C   0  0  0  0  0  0  0  0  0  0  0  0
    3.4176   -0.4166    4.0514 C   0  0  0  0  0  0  0  0  0  0  0  0
    3.3451   -1.0958    2.8242 C   0  0  0  0  0  0  0  0  0  0  0  0
    1.7685   -1.4915    2.2284 Cl  0  0  0  0  0  0  0  0  0  0  0  0
    1.3114   -0.1048   -5.1239 H   0  0  0  0  0  0  0  0  0  0  0  0
    2.8981   -0.2551   -5.8638 H   0  0  0  0  0  0  0  0  0  0  0  0
    2.5263    1.1100   -4.8079 H   0  0  0  0  0  0  0  0  0  0  0  0
    2.2581   -0.4520   -2.8589 H   0  0  0  0  0  0  0  0  0  0  0  0
    2.6250   -1.8305   -3.8780 H   0  0  0  0  0  0  0  0  0  0  0  0
    4.9200   -1.1663   -4.1139 H   0  0  0  0  0  0  0  0  0  0  0  0
    4.6164    0.4701   -3.6349 H   0  0  0  0  0  0  0  0  0  0  0  0
    5.9599   -0.8481   -0.0352 H   0  0  0  0  0  0  0  0  0  0  0  0
    8.5050   -1.2535   -0.3249 H   0  0  0  0  0  0  0  0  0  0  0  0
    8.1457   -2.2534   -1.7615 H   0  0  0  0  0  0  0  0  0  0  0  0
    9.0787   -2.8950   -0.4294 H   0  0  0  0  0  0  0  0  0  0  0  0
    7.1756   -5.6132    2.4367 H   0  0  0  0  0  0  0  0  0  0  0  0
    4.7468   -6.7827    2.6164 H   0  0  0  0  0  0  0  0  0  0  0  0
    6.4515   -7.0185    4.3788 H   0  0  0  0  0  0  0  0  0  0  0  0
    4.8713   -6.7487    5.1086 H   0  0  0  0  0  0  0  0  0  0  0  0
    6.0444   -5.4289    5.0357 H   0  0  0  0  0  0  0  0  0  0  0  0
    3.0639   -5.4192    3.7698 H   0  0  0  0  0  0  0  0  0  0  0  0
    4.1740   -4.0668    3.9080 H   0  0  0  0  0  0  0  0  0  0  0  0
    4.3096   -4.2328    0.0031 H   0  0  0  0  0  0  0  0  0  0  0  0
    3.5883   -1.9906    0.3055 H   0  0  0  0  0  0  0  0  0  0  0  0
    6.7000   -1.1628    2.1432 H   0  0  0  0  0  0  0  0  0  0  0  0
    6.7624    0.1484    4.2043 H   0  0  0  0  0  0  0  0  0  0  0  0
    4.6776    0.5871    5.4839 H   0  0  0  0  0  0  0  0  0  0  0  0
    2.4996   -0.2120    4.5914 H   0  0  0  0  0  0  0  0  0  0  0  0
  1  2  1  0
  1 27  1  0
  1 28  1  0
  1 29  1  0
  2  3  1  0
  2 30  1  0
  2 31  1  0
  3  4  1  0
  3 32  1  0
  3 33  1  0
  4  5  1  0
  5  6  2  0
  5  7  1  0
  7 19  1  0
  7  8  1  0
  7 34  1  1
  8  9  1  0
  8 10  2  0
  9 35  1  0
  9 36  1  0
  9 37  1  0
 10 11  1  0
 11 18  1  0
 11 12  2  0
 12 13  1  0
 12 38  1  0
 13 14  1  0
 13 15  1  0
 13 39  1  6
 14 40  1  0
 14 41  1  0
 14 42  1  0
 15 16  1  0
 15 43  1  0
 15 44  1  0
 16 17  2  0
 16 18  1  0
 18 19  1  0
 18 45  1  6
 19 20  1  0
 19 46  1  6
 20 25  1  0
 20 21  2  0
 21 22  1  0
 21 47  1  0
 22 23  2  0
 22 48  1  0
 23 24  1  0
 23 49  1  0
 24 25  2  0
 24 50  1  0
 25 26  1  0
M  END
>  <i_m_ct_stereo_status>  (89) 
1

>  <s_m_source_file>  (89) 
/var/tmp/pbs.5076255.sched01/tmp_578sd5a/06fbc0iir.sdf

>  <i_m_source_file_index>  (89) 
41

>  <i_lp_mmshare_version>  (89) 
48012

>  <i_f3d_flags>  (89) 
0

>  <s_epik_input>  (89) 
W0NIM11bQ0gyXVtDSDJdT0MoPU8pW0NASF0oQyg9TjEpW0NIM10pW0NAQEhdKFtDQEBIXShDMT0yKUMoPU8pW0NIMl1bQ0BASF0oW0NIXTIpW0NIM10pYzNbY0hdW2NIXVtjSF1bY0hdYzNDbA==

>  <s_epik_cmdline>  (89) 
J2VwaWtfcHl0aG9uJywgJy1waHQnLCAnMi4wJywgJy1waCcsICc3LjAnLCAnLXRuJywgJzgnLCAnLW1hJywgJzIwMCcsICctaW1hZScsICc8aW5maWxlLm1hZT4nLCAnLW9tYWUnLCAnPG91dGZpbGUubWFlPic=

>  <r_lp_tautomer_probability>  (89) 
0.499981

>  <r_epik_Ionization_Penalty>  (89) 
3.38826e-11

>  <r_epik_Ionization_Penalty_Charging>  (89) 
0

>  <r_epik_Ionization_Penalty_Neutral>  (89) 
3.38826e-11

>  <r_epik_State_Penalty>  (89) 
0.41068

>  <r_epik_Charging_Adjusted_Penalty>  (89) 
0.41068

>  <i_epik_Tot_Q>  (89) 
0

>  <i_epik_Tot_abs_Q>  (89) 
0

>  <s_epik_Chemistry_Notes>  (89) 
This compound has an ester and may undergo hydrolysis at high or low pH. This compound has an imine and may undergo hydrolysis.

>  <s_lp_Force_Field>  (89) 
OPLS3e

>  <r_lp_Energy>  (89) 
20.3913

>  <b_lp_Chiralities_Consistent>  (89) 
1

>  <s_lp_Variant>  (89) 
36:0-1

>  <s_i_glide_gridfile>  (89) 
pfpi4k_grid

>  <i_i_glide_lignum>  (89) 
41

>  <i_i_glide_rotatable_bonds>  (89) 
5

>  <r_i_docking_score>  (89) 
-2.29906

>  <r_i_glide_ligand_efficiency>  (89) 
-0.0884254

>  <r_i_glide_ligand_efficiency_sa>  (89) 
-0.26196

>  <r_i_glide_ligand_efficiency_ln>  (89) 
-0.539927

>  <r_i_glide_gscore>  (89) 
-2.29906

>  <r_i_glide_lipo>  (89) 
-0.76656

>  <r_i_glide_hbond>  (89) 
0

>  <r_i_glide_metal>  (89) 
-0

>  <r_i_glide_rewards>  (89) 
-0.948262

>  <r_i_glide_evdw>  (89) 
-27.2764

>  <r_i_glide_ecoul>  (89) 
1.74414

>  <r_i_glide_erotb>  (89) 
0.553147

>  <r_i_glide_esite>  (89) 
-0.0351857

>  <r_i_glide_emodel>  (89) 
-26.8779

>  <r_i_glide_energy>  (89) 
-25.5323

>  <r_i_glide_einternal>  (89) 
4.68587

>  <r_i_glide_intrahb_reward>  (89) 
-0

>  <i_i_glide_confnum>  (89) 
3

>  <i_i_glide_posenum>  (89) 
11

>  <r_i_glide_eff_state_penalty>  (89) 
0

>  <ligand_id>  (89) 
36

>  <original_smiles>  (89) 
CCCOC(=O)C1C(C)=NC2=CC(C)CC(=O)C2C1c1ccccc1Cl

>  <smiles>  (89) 
[H]C1=C2N=C(C([H])([H])[H])C([H])(C(=O)OC([H])([H])C([H])([H])C([H])([H])[H])C([H])(c3c([H])c([H])c([H])c([H])c3Cl)C2([H])C(=O)C([H])([H])C1([H])C([H])([H])[H]

$$$$
36:1:0
     RDKit          3D

 50 52  0  0  1  0  0  0  0  0999 V2000
    0.3607    1.7612    2.0114 C   0  0  0  0  0  0  0  0  0  0  0  0
    0.9191    0.7390    2.9901 C   0  0  0  0  0  0  0  0  0  0  0  0
    1.6994   -0.3637    2.2954 C   0  0  0  0  0  0  0  0  0  0  0  0
    2.9092    0.1409    1.7286 O   0  0  0  0  0  0  0  0  0  0  0  0
    3.9751   -0.6658    1.4427 C   0  0  0  0  0  0  0  0  0  0  0  0
    4.9977   -0.2554    0.9106 O   0  0  0  0  0  0  0  0  0  0  0  0
    3.8495   -2.1436    1.8945 C   0  0  2  0  0  0  0  0  0  0  0  0
    4.2432   -2.3063    3.3880 C   0  0  0  0  0  0  0  0  0  0  0  0
    4.2377   -1.3049    4.3082 C   0  0  0  0  0  0  0  0  0  0  0  0
    4.6179   -3.5473    3.8778 N   0  0  0  0  0  0  0  0  0  0  0  0
    4.7464   -4.5687    3.1241 C   0  0  0  0  0  0  0  0  0  0  0  0
    4.9999   -5.9402    3.7236 C   0  0  0  0  0  0  0  0  0  0  0  0
    4.4708   -7.1030    2.8407 C   0  0  1  0  0  0  0  0  0  0  0  0
    4.2254   -8.3648    3.6842 C   0  0  0  0  0  0  0  0  0  0  0  0
    3.2107   -6.7553    2.0174 C   0  0  0  0  0  0  0  0  0  0  0  0
    3.3288   -5.3961    1.2963 C   0  0  0  0  0  0  0  0  0  0  0  0
    2.4218   -5.0489    0.5627 O   0  0  0  0  0  0  0  0  0  0  0  0
    4.6016   -4.5597    1.6027 C   0  0  1  0  0  0  0  0  0  0  0  0
    4.7049   -3.1098    1.0544 C   0  0  1  0  0  0  0  0  0  0  0  0
    4.5234   -3.0046   -0.4726 C   0  0  0  0  0  0  0  0  0  0  0  0
    3.2495   -2.7628   -1.0436 C   0  0  0  0  0  0  0  0  0  0  0  0
    3.0778   -2.6853   -2.4377 C   0  0  0  0  0  0  0  0  0  0  0  0
    4.1883   -2.8199   -3.2826 C   0  0  0  0  0  0  0  0  0  0  0  0
    5.4625   -3.0405   -2.7304 C   0  0  0  0  0  0  0  0  0  0  0  0
    5.6347   -3.1248   -1.3367 C   0  0  0  0  0  0  0  0  0  0  0  0
    7.2335   -3.3610   -0.7306 Cl  0  0  0  0  0  0  0  0  0  0  0  0
   -0.1954    2.5418    2.5328 H   0  0  0  0  0  0  0  0  0  0  0  0
   -0.3020    1.2866    1.2903 H   0  0  0  0  0  0  0  0  0  0  0  0
    1.1710    2.2335    1.4602 H   0  0  0  0  0  0  0  0  0  0  0  0
    1.5479    1.2206    3.7403 H   0  0  0  0  0  0  0  0  0  0  0  0
    0.0973    0.2735    3.5328 H   0  0  0  0  0  0  0  0  0  0  0  0
    1.8908   -1.0865    3.0896 H   0  0  0  0  0  0  0  0  0  0  0  0
    1.1040   -0.8566    1.5243 H   0  0  0  0  0  0  0  0  0  0  0  0
    2.8298   -2.5040    1.7741 H   0  0  0  0  0  0  0  0  0  0  0  0
    4.5060   -1.5186    5.3427 H   0  0  0  0  0  0  0  0  0  0  0  0
    4.5307   -5.9770    4.7127 H   0  0  0  0  0  0  0  0  0  0  0  0
    3.9736   -0.2866    4.0834 H   0  0  0  0  0  0  0  0  0  0  0  0
    6.0782   -6.0509    3.8720 H   0  0  0  0  0  0  0  0  0  0  0  0
    5.2581   -7.3440    2.1226 H   0  0  0  0  0  0  0  0  0  0  0  0
    3.4373   -8.1966    4.4211 H   0  0  0  0  0  0  0  0  0  0  0  0
    5.1284   -8.6592    4.2180 H   0  0  0  0  0  0  0  0  0  0  0  0
    3.9155   -9.1988    3.0530 H   0  0  0  0  0  0  0  0  0  0  0  0
    3.0332   -7.5313    1.2706 H   0  0  0  0  0  0  0  0  0  0  0  0
    2.3266   -6.7221    2.6606 H   0  0  0  0  0  0  0  0  0  0  0  0
    5.4410   -5.1112    1.1867 H   0  0  0  0  0  0  0  0  0  0  0  0
    5.7261   -2.8000    1.2719 H   0  0  0  0  0  0  0  0  0  0  0  0
    2.3759   -2.6453   -0.4262 H   0  0  0  0  0  0  0  0  0  0  0  0
    2.0879   -2.5244   -2.8565 H   0  0  0  0  0  0  0  0  0  0  0  0
    4.0576   -2.7591   -4.3589 H   0  0  0  0  0  0  0  0  0  0  0  0
    6.3235   -3.1382   -3.3807 H   0  0  0  0  0  0  0  0  0  0  0  0
  1  2  1  0
  1 27  1  0
  1 28  1  0
  1 29  1  0
  2  3  1  0
  2 30  1  0
  2 31  1  0
  3  4  1  0
  3 32  1  0
  3 33  1  0
  4  5  1  0
  5  6  2  0
  5  7  1  0
  7 19  1  0
  7 34  1  1
  7  8  1  0
  8 10  1  0
  8  9  2  0
  9 35  1  0
  9 37  1  0
 10 11  2  0
 11 12  1  0
 11 18  1  0
 12 13  1  0
 12 38  1  0
 12 36  1  0
 13 14  1  0
 13 15  1  0
 13 39  1  6
 14 40  1  0
 14 41  1  0
 14 42  1  0
 15 16  1  0
 15 43  1  0
 15 44  1  0
 16 17  2  0
 16 18  1  0
 18 19  1  0
 18 45  1  6
 19 20  1  0
 19 46  1  6
 20 25  1  0
 20 21  2  0
 21 22  1  0
 21 47  1  0
 22 23  2  0
 22 48  1  0
 23 24  1  0
 23 49  1  0
 24 25  2  0
 24 50  1  0
 25 26  1  0
M  END
>  <i_m_ct_stereo_status>  (90) 
1

>  <s_m_source_file>  (90) 
/var/tmp/pbs.5076255.sched01/tmp_578sd5a/06fbc0iir.sdf

>  <i_m_source_file_index>  (90) 
42

>  <i_lp_mmshare_version>  (90) 
48012

>  <i_f3d_flags>  (90) 
0

>  <s_epik_input>  (90) 
W0NIM11bQ0gyXVtDSDJdT0MoPU8pW0NASF0oQyg9TjEpW0NIM10pW0NAQEhdKFtDQEBIXShDMT0yKUMoPU8pW0NIMl1bQ0BASF0oW0NIXTIpW0NIM10pYzNbY0hdW2NIXVtjSF1bY0hdYzNDbA==

>  <s_epik_cmdline>  (90) 
J2VwaWtfcHl0aG9uJywgJy1waHQnLCAnMi4wJywgJy1waCcsICc3LjAnLCAnLXRuJywgJzgnLCAnLW1hJywgJzIwMCcsICctaW1hZScsICc8aW5maWxlLm1hZT4nLCAnLW9tYWUnLCAnPG91dGZpbGUubWFlPic=

>  <r_lp_tautomer_probability>  (90) 
0.499981

>  <r_epik_Ionization_Penalty>  (90) 
8.42343e-11

>  <r_epik_Ionization_Penalty_Charging>  (90) 
0

>  <r_epik_Ionization_Penalty_Neutral>  (90) 
8.42343e-11

>  <r_epik_State_Penalty>  (90) 
0.41068

>  <r_epik_Charging_Adjusted_Penalty>  (90) 
0.41068

>  <i_epik_Tot_Q>  (90) 
0

>  <i_epik_Tot_abs_Q>  (90) 
0

>  <s_epik_Chemistry_Notes>  (90) 
This compound has an ester and may undergo hydrolysis at high or low pH. This compound has an imine and may undergo hydrolysis.

>  <s_lp_Force_Field>  (90) 
OPLS3e

>  <r_lp_Energy>  (90) 
28.2685

>  <b_lp_Chiralities_Consistent>  (90) 
1

>  <s_lp_Variant>  (90) 
36:0-2

>  <s_i_glide_gridfile>  (90) 
pfpi4k_grid

>  <i_i_glide_lignum>  (90) 
42

>  <i_i_glide_rotatable_bonds>  (90) 
5

>  <r_i_docking_score>  (90) 
-2.62982

>  <r_i_glide_ligand_efficiency>  (90) 
-0.101147

>  <r_i_glide_ligand_efficiency_sa>  (90) 
-0.299647

>  <r_i_glide_ligand_efficiency_ln>  (90) 
-0.617604

>  <r_i_glide_gscore>  (90) 
-2.62982

>  <r_i_glide_lipo>  (90) 
-0.672254

>  <r_i_glide_hbond>  (90) 
-0.00105157

>  <r_i_glide_metal>  (90) 
-0

>  <r_i_glide_rewards>  (90) 
-0.931833

>  <r_i_glide_evdw>  (90) 
-29.0928

>  <r_i_glide_ecoul>  (90) 
-0.821255

>  <r_i_glide_erotb>  (90) 
0.553147

>  <r_i_glide_esite>  (90) 
0

>  <r_i_glide_emodel>  (90) 
-30.8574

>  <r_i_glide_energy>  (90) 
-29.914

>  <r_i_glide_einternal>  (90) 
7.55462

>  <r_i_glide_intrahb_reward>  (90) 
-0

>  <i_i_glide_confnum>  (90) 
2

>  <i_i_glide_posenum>  (90) 
15

>  <r_i_glide_eff_state_penalty>  (90) 
0

>  <ligand_id>  (90) 
36

>  <original_smiles>  (90) 
CCCOC(=O)C1C(C)=NC2=CC(C)CC(=O)C2C1c1ccccc1Cl

>  <smiles>  (90) 
[H]C([H])=C1N=C2C([H])([H])C([H])(C([H])([H])[H])C([H])([H])C(=O)C2([H])C([H])(c2c([H])c([H])c([H])c([H])c2Cl)C1([H])C(=O)OC([H])([H])C([H])([H])C([H])([H])[H]

$$$$
36:1:1
     RDKit          3D

 50 52  0  0  1  0  0  0  0  0999 V2000
   -0.8323    0.9902    3.2298 C   0  0  0  0  0  0  0  0  0  0  0  0
    0.3085    0.9553    2.2072 C   0  0  0  0  0  0  0  0  0  0  0  0
    1.5455    0.1944    2.7048 C   0  0  0  0  0  0  0  0  0  0  0  0
    1.2397   -1.1835    2.8619 O   0  0  0  0  0  0  0  0  0  0  0  0
    2.2270   -2.0593    3.1248 C   0  0  0  0  0  0  0  0  0  0  0  0
    3.4118   -1.7673    3.3039 O   0  0  0  0  0  0  0  0  0  0  0  0
    1.7132   -3.5179    3.1759 C   0  0  2  0  0  0  0  0  0  0  0  0
    1.1630   -3.8973    4.5648 C   0  0  0  0  0  0  0  0  0  0  0  0
    0.7257   -3.0152    5.4844 C   0  0  0  0  0  0  0  0  0  0  0  0
    1.0733   -5.2375    4.9527 N   0  0  0  0  0  0  0  0  0  0  0  0
    1.5236   -6.1943    4.2453 C   0  0  0  0  0  0  0  0  0  0  0  0
    1.3012   -7.6497    4.6451 C   0  0  0  0  0  0  0  0  0  0  0  0
    1.2533   -8.6306    3.4405 C   0  0  1  0  0  0  0  0  0  0  0  0
    0.4704   -9.9063    3.7933 C   0  0  0  0  0  0  0  0  0  0  0  0
    0.7035   -7.9995    2.1379 C   0  0  0  0  0  0  0  0  0  0  0  0
    1.3175   -6.6242    1.8421 C   0  0  0  0  0  0  0  0  0  0  0  0
    1.0327   -6.0470    0.7945 O   0  0  0  0  0  0  0  0  0  0  0  0
    2.2553   -6.0282    2.9162 C   0  0  1  0  0  0  0  0  0  0  0  0
    2.7713   -4.5690    2.7332 C   0  0  1  0  0  0  0  0  0  0  0  0
    3.4703   -4.3250    1.3842 C   0  0  0  0  0  0  0  0  0  0  0  0
    2.8435   -3.5785    0.3577 C   0  0  0  0  0  0  0  0  0  0  0  0
    3.4954   -3.3273   -0.8619 C   0  0  0  0  0  0  0  0  0  0  0  0
    4.7921   -3.8261   -1.0773 C   0  0  0  0  0  0  0  0  0  0  0  0
    5.4251   -4.5759   -0.0691 C   0  0  0  0  0  0  0  0  0  0  0  0
    4.7740   -4.8273    1.1527 C   0  0  0  0  0  0  0  0  0  0  0  0
    5.6140   -5.7462    2.3481 Cl  0  0  0  0  0  0  0  0  0  0  0  0
   -1.6933    1.5212    2.8212 H   0  0  0  0  0  0  0  0  0  0  0  0
   -0.5237    1.4991    4.1430 H   0  0  0  0  0  0  0  0  0  0  0  0
   -1.1577   -0.0166    3.4933 H   0  0  0  0  0  0  0  0  0  0  0  0
   -0.0423    0.5116    1.2803 H   0  0  0  0  0  0  0  0  0  0  0  0
    0.5949    1.9795    1.9642 H   0  0  0  0  0  0  0  0  0  0  0  0
    2.3498    0.3016    1.9749 H   0  0  0  0  0  0  0  0  0  0  0  0
    1.9066    0.6101    3.6464 H   0  0  0  0  0  0  0  0  0  0  0  0
    0.8674   -3.5759    2.5000 H   0  0  0  0  0  0  0  0  0  0  0  0
    0.3696   -3.3662    6.4453 H   0  0  0  0  0  0  0  0  0  0  0  0
    0.3668   -7.7106    5.2066 H   0  0  0  0  0  0  0  0  0  0  0  0
    0.7259   -1.9468    5.3251 H   0  0  0  0  0  0  0  0  0  0  0  0
    2.1042   -7.9529    5.3206 H   0  0  0  0  0  0  0  0  0  0  0  0
    2.2798   -8.9358    3.2258 H   0  0  0  0  0  0  0  0  0  0  0  0
   -0.5759   -9.6832    4.0131 H   0  0  0  0  0  0  0  0  0  0  0  0
    0.8930  -10.3957    4.6721 H   0  0  0  0  0  0  0  0  0  0  0  0
    0.4885  -10.6225    2.9705 H   0  0  0  0  0  0  0  0  0  0  0  0
    0.9167   -8.6521    1.2919 H   0  0  0  0  0  0  0  0  0  0  0  0
   -0.3809   -7.8862    2.1916 H   0  0  0  0  0  0  0  0  0  0  0  0
    3.1339   -6.6742    2.9393 H   0  0  0  0  0  0  0  0  0  0  0  0
    3.5574   -4.4607    3.4819 H   0  0  0  0  0  0  0  0  0  0  0  0
    1.8573   -3.1731    0.4916 H   0  0  0  0  0  0  0  0  0  0  0  0
    2.9948   -2.7462   -1.6253 H   0  0  0  0  0  0  0  0  0  0  0  0
    5.2971   -3.6399   -2.0135 H   0  0  0  0  0  0  0  0  0  0  0  0
    6.4212   -4.9601   -0.2276 H   0  0  0  0  0  0  0  0  0  0  0  0
  1  2  1  0
  1 27  1  0
  1 28  1  0
  1 29  1  0
  2  3  1  0
  2 30  1  0
  2 31  1  0
  3  4  1  0
  3 32  1  0
  3 33  1  0
  4  5  1  0
  5  6  2  0
  5  7  1  0
  7 19  1  0
  7 34  1  6
  7  8  1  0
  8 10  1  0
  8  9  2  0
  9 35  1  0
  9 37  1  0
 10 11  2  0
 11 12  1  0
 11 18  1  0
 12 13  1  0
 12 38  1  0
 12 36  1  0
 13 14  1  0
 13 15  1  0
 13 39  1  6
 14 40  1  0
 14 41  1  0
 14 42  1  0
 15 16  1  0
 15 43  1  0
 15 44  1  0
 16 17  2  0
 16 18  1  0
 18 19  1  0
 18 45  1  1
 19 20  1  0
 19 46  1  1
 20 25  1  0
 20 21  2  0
 21 22  1  0
 21 47  1  0
 22 23  2  0
 22 48  1  0
 23 24  1  0
 23 49  1  0
 24 25  2  0
 24 50  1  0
 25 26  1  0
M  END
>  <i_m_ct_stereo_status>  (91) 
1

>  <s_m_source_file>  (91) 
/var/tmp/pbs.5076255.sched01/tmp_578sd5a/06fbc0iir.sdf

>  <i_m_source_file_index>  (91) 
42

>  <i_lp_mmshare_version>  (91) 
48012

>  <i_f3d_flags>  (91) 
0

>  <s_epik_input>  (91) 
W0NIM11bQ0gyXVtDSDJdT0MoPU8pW0NASF0oQyg9TjEpW0NIM10pW0NAQEhdKFtDQEBIXShDMT0yKUMoPU8pW0NIMl1bQ0BASF0oW0NIXTIpW0NIM10pYzNbY0hdW2NIXVtjSF1bY0hdYzNDbA==

>  <s_epik_cmdline>  (91) 
J2VwaWtfcHl0aG9uJywgJy1waHQnLCAnMi4wJywgJy1waCcsICc3LjAnLCAnLXRuJywgJzgnLCAnLW1hJywgJzIwMCcsICctaW1hZScsICc8aW5maWxlLm1hZT4nLCAnLW9tYWUnLCAnPG91dGZpbGUubWFlPic=

>  <r_lp_tautomer_probability>  (91) 
0.499981

>  <r_epik_Ionization_Penalty>  (91) 
8.42343e-11

>  <r_epik_Ionization_Penalty_Charging>  (91) 
0

>  <r_epik_Ionization_Penalty_Neutral>  (91) 
8.42343e-11

>  <r_epik_State_Penalty>  (91) 
0.41068

>  <r_epik_Charging_Adjusted_Penalty>  (91) 
0.41068

>  <i_epik_Tot_Q>  (91) 
0

>  <i_epik_Tot_abs_Q>  (91) 
0

>  <s_epik_Chemistry_Notes>  (91) 
This compound has an ester and may undergo hydrolysis at high or low pH. This compound has an imine and may undergo hydrolysis.

>  <s_lp_Force_Field>  (91) 
OPLS3e

>  <r_lp_Energy>  (91) 
28.2685

>  <b_lp_Chiralities_Consistent>  (91) 
1

>  <s_lp_Variant>  (91) 
36:0-2

>  <s_i_glide_gridfile>  (91) 
pfpi4k_grid

>  <i_i_glide_lignum>  (91) 
42

>  <i_i_glide_rotatable_bonds>  (91) 
5

>  <r_i_docking_score>  (91) 
-2.5061

>  <r_i_glide_ligand_efficiency>  (91) 
-0.0963884

>  <r_i_glide_ligand_efficiency_sa>  (91) 
-0.28555

>  <r_i_glide_ligand_efficiency_ln>  (91) 
-0.588549

>  <r_i_glide_gscore>  (91) 
-2.5061

>  <r_i_glide_lipo>  (91) 
-0.197579

>  <r_i_glide_hbond>  (91) 
-0.16

>  <r_i_glide_metal>  (91) 
-0

>  <r_i_glide_rewards>  (91) 
-0.859958

>  <r_i_glide_evdw>  (91) 
-22.9218

>  <r_i_glide_ecoul>  (91) 
-4.23955

>  <r_i_glide_erotb>  (91) 
0.553147

>  <r_i_glide_esite>  (91) 
-0.0596887

>  <r_i_glide_emodel>  (91) 
-30.7538

>  <r_i_glide_energy>  (91) 
-27.1613

>  <r_i_glide_einternal>  (91) 
2.06996

>  <r_i_glide_intrahb_reward>  (91) 
-0

>  <i_i_glide_confnum>  (91) 
3

>  <i_i_glide_posenum>  (91) 
36

>  <r_i_glide_eff_state_penalty>  (91) 
0

>  <ligand_id>  (91) 
36

>  <original_smiles>  (91) 
CCCOC(=O)C1C(C)=NC2=CC(C)CC(=O)C2C1c1ccccc1Cl

>  <smiles>  (91) 
[H]C([H])=C1N=C2C([H])([H])C([H])(C([H])([H])[H])C([H])([H])C(=O)C2([H])C([H])(c2c([H])c([H])c([H])c([H])c2Cl)C1([H])C(=O)OC([H])([H])C([H])([H])C([H])([H])[H]

$$$$
36:1:2
     RDKit          3D

 50 52  0  0  1  0  0  0  0  0999 V2000
    1.8715    2.3845    2.2718 C   0  0  0  0  0  0  0  0  0  0  0  0
    1.5975    0.8800    2.1679 C   0  0  0  0  0  0  0  0  0  0  0  0
    1.6315    0.1883    3.5389 C   0  0  0  0  0  0  0  0  0  0  0  0
    1.3394   -1.1970    3.4094 O   0  0  0  0  0  0  0  0  0  0  0  0
    2.3399   -2.1007    3.3817 C   0  0  0  0  0  0  0  0  0  0  0  0
    3.5388   -1.8308    3.4363 O   0  0  0  0  0  0  0  0  0  0  0  0
    1.8190   -3.5566    3.2679 C   0  0  2  0  0  0  0  0  0  0  0  0
    1.2496   -4.0741    4.6060 C   0  0  0  0  0  0  0  0  0  0  0  0
    0.7958   -3.2999    5.6120 C   0  0  0  0  0  0  0  0  0  0  0  0
    1.1659   -5.4458    4.8600 N   0  0  0  0  0  0  0  0  0  0  0  0
    1.6387   -6.3268    4.0775 C   0  0  0  0  0  0  0  0  0  0  0  0
    1.4166   -7.8154    4.3321 C   0  0  0  0  0  0  0  0  0  0  0  0
    1.3931   -8.6752    3.0393 C   0  0  1  0  0  0  0  0  0  0  0  0
    0.6109   -9.9827    3.2509 C   0  0  0  0  0  0  0  0  0  0  0  0
    0.8635   -7.9184    1.7956 C   0  0  0  0  0  0  0  0  0  0  0  0
    1.4757   -6.5212    1.6477 C   0  0  0  0  0  0  0  0  0  0  0  0
    1.2098   -5.8554    0.6538 O   0  0  0  0  0  0  0  0  0  0  0  0
    2.3938   -6.0305    2.7834 C   0  0  1  0  0  0  0  0  0  0  0  0
    2.8969   -4.5571    2.7471 C   0  0  1  0  0  0  0  0  0  0  0  0
    3.6218   -4.1848    1.4400 C   0  0  0  0  0  0  0  0  0  0  0  0
    2.9988   -3.3692    0.4661 C   0  0  0  0  0  0  0  0  0  0  0  0
    3.6690   -3.0006   -0.7127 C   0  0  0  0  0  0  0  0  0  0  0  0
    4.9837   -3.4449   -0.9383 C   0  0  0  0  0  0  0  0  0  0  0  0
    5.6162   -4.2614    0.0178 C   0  0  0  0  0  0  0  0  0  0  0  0
    4.9437   -4.6346    1.1971 C   0  0  0  0  0  0  0  0  0  0  0  0
    5.7787   -5.6303    2.3324 Cl  0  0  0  0  0  0  0  0  0  0  0  0
    1.8090    2.8532    1.2910 H   0  0  0  0  0  0  0  0  0  0  0  0
    2.8648    2.5823    2.6782 H   0  0  0  0  0  0  0  0  0  0  0  0
    1.1384    2.8836    2.9051 H   0  0  0  0  0  0  0  0  0  0  0  0
    0.6241    0.7246    1.7011 H   0  0  0  0  0  0  0  0  0  0  0  0
    2.3330    0.4252    1.5021 H   0  0  0  0  0  0  0  0  0  0  0  0
    2.5910    0.3556    4.0322 H   0  0  0  0  0  0  0  0  0  0  0  0
    0.8790    0.6276    4.1941 H   0  0  0  0  0  0  0  0  0  0  0  0
    0.9920   -3.5452    2.5639 H   0  0  0  0  0  0  0  0  0  0  0  0
    0.4300   -3.7549    6.5229 H   0  0  0  0  0  0  0  0  0  0  0  0
    0.4708   -7.9342    4.8659 H   0  0  0  0  0  0  0  0  0  0  0  0
    0.7890   -2.2222    5.5780 H   0  0  0  0  0  0  0  0  0  0  0  0
    2.2095   -8.1811    4.9889 H   0  0  0  0  0  0  0  0  0  0  0  0
    2.4242   -8.9536    2.8108 H   0  0  0  0  0  0  0  0  0  0  0  0
   -0.4405   -9.7903    3.4763 H   0  0  0  0  0  0  0  0  0  0  0  0
    1.0256  -10.5520    4.0840 H   0  0  0  0  0  0  0  0  0  0  0  0
    0.6472  -10.6141    2.3617 H   0  0  0  0  0  0  0  0  0  0  0  0
    1.1115   -8.4797    0.8985 H   0  0  0  0  0  0  0  0  0  0  0  0
   -0.2233   -7.8216    1.8330 H   0  0  0  0  0  0  0  0  0  0  0  0
    3.2780   -6.6710    2.7592 H   0  0  0  0  0  0  0  0  0  0  0  0
    3.6651   -4.5149    3.5201 H   0  0  0  0  0  0  0  0  0  0  0  0
    2.0005   -3.0006    0.6132 H   0  0  0  0  0  0  0  0  0  0  0  0
    3.1684   -2.3649   -1.4300 H   0  0  0  0  0  0  0  0  0  0  0  0
    5.5029   -3.1637   -1.8397 H   0  0  0  0  0  0  0  0  0  0  0  0
    6.6272   -4.6012   -0.1464 H   0  0  0  0  0  0  0  0  0  0  0  0
  1  2  1  0
  1 27  1  0
  1 28  1  0
  1 29  1  0
  2  3  1  0
  2 30  1  0
  2 31  1  0
  3  4  1  0
  3 32  1  0
  3 33  1  0
  4  5  1  0
  5  6  2  0
  5  7  1  0
  7 19  1  0
  7 34  1  6
  7  8  1  0
  8 10  1  0
  8  9  2  0
  9 35  1  0
  9 37  1  0
 10 11  2  0
 11 12  1  0
 11 18  1  0
 12 13  1  0
 12 38  1  0
 12 36  1  0
 13 14  1  0
 13 15  1  0
 13 39  1  6
 14 40  1  0
 14 41  1  0
 14 42  1  0
 15 16  1  0
 15 43  1  0
 15 44  1  0
 16 17  2  0
 16 18  1  0
 18 19  1  0
 18 45  1  1
 19 20  1  0
 19 46  1  1
 20 25  1  0
 20 21  2  0
 21 22  1  0
 21 47  1  0
 22 23  2  0
 22 48  1  0
 23 24  1  0
 23 49  1  0
 24 25  2  0
 24 50  1  0
 25 26  1  0
M  END
>  <i_m_ct_stereo_status>  (92) 
1

>  <s_m_source_file>  (92) 
/var/tmp/pbs.5076255.sched01/tmp_578sd5a/06fbc0iir.sdf

>  <i_m_source_file_index>  (92) 
42

>  <i_lp_mmshare_version>  (92) 
48012

>  <i_f3d_flags>  (92) 
0

>  <s_epik_input>  (92) 
W0NIM11bQ0gyXVtDSDJdT0MoPU8pW0NASF0oQyg9TjEpW0NIM10pW0NAQEhdKFtDQEBIXShDMT0yKUMoPU8pW0NIMl1bQ0BASF0oW0NIXTIpW0NIM10pYzNbY0hdW2NIXVtjSF1bY0hdYzNDbA==

>  <s_epik_cmdline>  (92) 
J2VwaWtfcHl0aG9uJywgJy1waHQnLCAnMi4wJywgJy1waCcsICc3LjAnLCAnLXRuJywgJzgnLCAnLW1hJywgJzIwMCcsICctaW1hZScsICc8aW5maWxlLm1hZT4nLCAnLW9tYWUnLCAnPG91dGZpbGUubWFlPic=

>  <r_lp_tautomer_probability>  (92) 
0.499981

>  <r_epik_Ionization_Penalty>  (92) 
8.42343e-11

>  <r_epik_Ionization_Penalty_Charging>  (92) 
0

>  <r_epik_Ionization_Penalty_Neutral>  (92) 
8.42343e-11

>  <r_epik_State_Penalty>  (92) 
0.41068

>  <r_epik_Charging_Adjusted_Penalty>  (92) 
0.41068

>  <i_epik_Tot_Q>  (92) 
0

>  <i_epik_Tot_abs_Q>  (92) 
0

>  <s_epik_Chemistry_Notes>  (92) 
This compound has an ester and may undergo hydrolysis at high or low pH. This compound has an imine and may undergo hydrolysis.

>  <s_lp_Force_Field>  (92) 
OPLS3e

>  <r_lp_Energy>  (92) 
28.2685

>  <b_lp_Chiralities_Consistent>  (92) 
1

>  <s_lp_Variant>  (92) 
36:0-2

>  <s_i_glide_gridfile>  (92) 
pfpi4k_grid

>  <i_i_glide_lignum>  (92) 
42

>  <i_i_glide_rotatable_bonds>  (92) 
5

>  <r_i_docking_score>  (92) 
-2.46761

>  <r_i_glide_ligand_efficiency>  (92) 
-0.0949081

>  <r_i_glide_ligand_efficiency_sa>  (92) 
-0.281165

>  <r_i_glide_ligand_efficiency_ln>  (92) 
-0.57951

>  <r_i_glide_gscore>  (92) 
-2.46761

>  <r_i_glide_lipo>  (92) 
-0.199692

>  <r_i_glide_hbond>  (92) 
-0.16

>  <r_i_glide_metal>  (92) 
-0

>  <r_i_glide_rewards>  (92) 
-0.859958

>  <r_i_glide_evdw>  (92) 
-22.7344

>  <r_i_glide_ecoul>  (92) 
-4.05289

>  <r_i_glide_erotb>  (92) 
0.553147

>  <r_i_glide_esite>  (92) 
-0.0564567

>  <r_i_glide_emodel>  (92) 
-30.8652

>  <r_i_glide_energy>  (92) 
-26.7873

>  <r_i_glide_einternal>  (92) 
0.951329

>  <r_i_glide_intrahb_reward>  (92) 
-0

>  <i_i_glide_confnum>  (92) 
2

>  <i_i_glide_posenum>  (92) 
27

>  <r_i_glide_eff_state_penalty>  (92) 
0

>  <ligand_id>  (92) 
36

>  <original_smiles>  (92) 
CCCOC(=O)C1C(C)=NC2=CC(C)CC(=O)C2C1c1ccccc1Cl

>  <smiles>  (92) 
[H]C([H])=C1N=C2C([H])([H])C([H])(C([H])([H])[H])C([H])([H])C(=O)C2([H])C([H])(c2c([H])c([H])c([H])c([H])c2Cl)C1([H])C(=O)OC([H])([H])C([H])([H])C([H])([H])[H]

$$$$
37:0:0
     RDKit          3D

 29 32  0  0  1  0  0  0  0  0999 V2000
    1.7483   -1.2932    1.6844 O   0  0  0  0  0  0  0  0  0  0  0  0
    3.0944   -1.7014    1.8572 C   0  0  2  0  0  0  0  0  0  0  0  0
    4.0546   -0.5331    1.7682 C   0  0  1  0  0  0  0  0  0  0  0  0
    5.4431   -0.7867    2.0162 O   0  0  0  0  0  0  0  0  0  0  0  0
    5.0386   -0.7547    0.6466 C   0  0  1  0  0  0  0  0  0  0  0  0
    4.7089   -2.0837   -0.0117 C   0  0  1  0  0  0  0  0  0  0  0  0
    4.7511   -2.1488   -1.4995 N   0  0  0  0  0  0  0  0  0  0  0  0
    3.8269   -1.2076   -2.1332 C   0  0  0  0  0  0  0  0  0  0  0  0
    3.8553   -1.2618   -3.6755 C   0  0  0  0  0  0  0  0  0  0  0  0
    3.6365   -2.5863   -4.1376 O   0  0  0  0  0  0  0  0  0  0  0  0
    4.5601   -3.5142   -3.5887 C   0  0  0  0  0  0  0  0  0  0  0  0
    4.5201   -3.4803   -2.0649 C   0  0  0  0  0  0  0  0  0  0  0  0
    4.8834   -3.3416    0.8233 C   0  0  0  0  0  0  0  0  0  0  0  0
    3.5316   -2.6566    0.7593 C   0  0  1  0  0  0  0  0  0  0  0  0
    1.5696   -1.0596    0.7621 H   0  0  0  0  0  0  0  0  0  0  0  0
    3.1885   -2.1893    2.8251 H   0  0  0  0  0  0  0  0  0  0  0  0
    3.7250    0.4574    2.0655 H   0  0  0  0  0  0  0  0  0  0  0  0
    5.4091    0.0970    0.0783 H   0  0  0  0  0  0  0  0  0  0  0  0
    2.8076   -1.4046   -1.7950 H   0  0  0  0  0  0  0  0  0  0  0  0
    4.0760   -0.1949   -1.8311 H   0  0  0  0  0  0  0  0  0  0  0  0
    3.0920   -0.6074   -4.0959 H   0  0  0  0  0  0  0  0  0  0  0  0
    4.8172   -0.9198   -4.0510 H   0  0  0  0  0  0  0  0  0  0  0  0
    4.3064   -4.5146   -3.9354 H   0  0  0  0  0  0  0  0  0  0  0  0
    5.5757   -3.3072   -3.9158 H   0  0  0  0  0  0  0  0  0  0  0  0
    5.2941   -4.1656   -1.7344 H   0  0  0  0  0  0  0  0  0  0  0  0
    3.5547   -3.8645   -1.7448 H   0  0  0  0  0  0  0  0  0  0  0  0
    4.9192   -4.3339    0.3786 H   0  0  0  0  0  0  0  0  0  0  0  0
    5.4284   -3.2727    1.7550 H   0  0  0  0  0  0  0  0  0  0  0  0
    2.7389   -3.1491    0.2050 H   0  0  0  0  0  0  0  0  0  0  0  0
  1  2  1  0
  1 15  1  0
  2 14  1  0
  2  3  1  0
  2 16  1  1
  3  5  1  0
  3  4  1  0
  3 17  1  6
  4  5  1  0
  5  6  1  0
  5 18  1  6
  6 14  1  0
  6  7  1  6
  6 13  1  0
  7 12  1  0
  7  8  1  0
  8  9  1  0
  8 19  1  0
  8 20  1  0
  9 10  1  0
  9 21  1  0
  9 22  1  0
 10 11  1  0
 11 12  1  0
 11 23  1  0
 11 24  1  0
 12 25  1  0
 12 26  1  0
 13 14  1  0
 13 27  1  0
 13 28  1  0
 14 29  1  6
M  END
>  <i_m_ct_stereo_status>  (93) 
1

>  <s_m_source_file>  (93) 
/var/tmp/pbs.5076255.sched01/tmp_578sd5a/06fbc0iir.sdf

>  <i_m_source_file_index>  (93) 
43

>  <i_lp_mmshare_version>  (93) 
48012

>  <i_f3d_flags>  (93) 
0

>  <s_epik_input>  (93) 
W0NIMl0xW0NASF0yW0NASF0oW09IXSlbQ0BASF0oTzMpW0NAQEhdM1tDQEBdMTJONFtDSDJdW0NIMl1PW0NIMl1bQ0gyXTQ=

>  <s_epik_cmdline>  (93) 
J2VwaWtfcHl0aG9uJywgJy1waHQnLCAnMi4wJywgJy1waCcsICc3LjAnLCAnLXRuJywgJzgnLCAnLW1hJywgJzIwMCcsICctaW1hZScsICc8aW5maWxlLm1hZT4nLCAnLW9tYWUnLCAnPG91dGZpbGUubWFlPic=

>  <r_epik_Ionization_Penalty>  (93) 
0.00149343

>  <r_epik_Ionization_Penalty_Charging>  (93) 
0

>  <r_epik_Ionization_Penalty_Neutral>  (93) 
0.00149343

>  <r_epik_State_Penalty>  (93) 
0.00100017

>  <r_epik_Charging_Adjusted_Penalty>  (93) 
0.00100017

>  <i_epik_Tot_Q>  (93) 
0

>  <i_epik_Tot_abs_Q>  (93) 
0

>  <s_lp_Force_Field>  (93) 
OPLS3e

>  <r_lp_Energy>  (93) 
20.0214

>  <b_lp_Chiralities_Consistent>  (93) 
1

>  <s_lp_Variant>  (93) 
37:0-1

>  <s_i_glide_gridfile>  (93) 
pfpi4k_grid

>  <i_i_glide_lignum>  (93) 
43

>  <i_i_glide_rotatable_bonds>  (93) 
2

>  <r_i_docking_score>  (93) 
-4.55264

>  <r_i_glide_ligand_efficiency>  (93) 
-0.325189

>  <r_i_glide_ligand_efficiency_sa>  (93) 
-0.783751

>  <r_i_glide_ligand_efficiency_ln>  (93) 
-1.25105

>  <r_i_glide_gscore>  (93) 
-4.55264

>  <r_i_glide_lipo>  (93) 
-0.618013

>  <r_i_glide_hbond>  (93) 
-0.421365

>  <r_i_glide_metal>  (93) 
-0

>  <r_i_glide_rewards>  (93) 
-2.06433

>  <r_i_glide_evdw>  (93) 
-20.4829

>  <r_i_glide_ecoul>  (93) 
-5.61809

>  <r_i_glide_erotb>  (93) 
0.417924

>  <r_i_glide_esite>  (93) 
0

>  <r_i_glide_emodel>  (93) 
-31.3222

>  <r_i_glide_energy>  (93) 
-26.1009

>  <r_i_glide_einternal>  (93) 
5.81487

>  <r_i_glide_intrahb_reward>  (93) 
-0

>  <i_i_glide_confnum>  (93) 
5

>  <i_i_glide_posenum>  (93) 
31

>  <r_i_glide_eff_state_penalty>  (93) 
0

>  <ligand_id>  (93) 
37

>  <original_smiles>  (93) 
OC1C2OC2C2(N3CCOCC3)CC12

>  <smiles>  (93) 
[H]OC1([H])C2([H])OC2([H])C2(N3C([H])([H])C([H])([H])OC([H])([H])C3([H])[H])C([H])([H])C12[H]

$$$$
38:0:0
     RDKit          3D

108116  0  0  1  0  0  0  0  0999 V2000
    1.4894    2.5175    2.3665 C   0  0  0  0  0  0  0  0  0  0  0  0
    2.0156    1.5048    3.2080 O   0  0  0  0  0  0  0  0  0  0  0  0
    3.0282    0.7101    2.5983 C   0  0  2  0  0  0  0  0  0  0  0  0
    2.4775   -0.2703    1.5412 C   0  0  0  0  0  0  0  0  0  0  0  0
    3.1186   -1.6077    1.9065 C   0  0  2  0  0  0  0  0  0  0  0  0
    4.3865   -1.5502    1.2746 O   0  0  0  0  0  0  0  0  0  0  0  0
    2.4291   -2.8777    1.4558 C   0  0  0  0  0  0  0  0  0  0  0  0
    3.2000   -4.1199    1.9257 C   0  0  0  0  0  0  0  0  0  0  0  0
    3.6530   -4.1533    3.4268 C   0  0  2  0  0  0  0  0  0  0  0  0
    4.1417   -2.7565    3.8986 C   0  0  2  0  0  0  0  0  0  0  0  0
    4.3385   -2.7633    5.4090 C   0  0  0  0  0  0  0  0  0  0  0  0
    5.4052   -3.7727    5.8143 C   0  0  1  0  0  0  0  0  0  0  0  0
    5.5938   -3.5317    7.1872 O   0  0  0  0  0  0  0  0  0  0  0  0
    5.2251   -5.2706    5.3257 C   0  0  2  0  0  0  0  0  0  0  0  0
    4.6479   -5.3263    3.8064 C   0  0  2  0  0  0  0  0  0  0  0  0
    5.8637   -5.3979    2.8284 C   0  0  0  0  0  0  0  0  0  0  0  0
    3.7956   -6.4694    3.6705 O   0  0  0  0  0  0  0  0  0  0  0  0
    3.6715   -7.2732    2.4935 C   0  0  2  0  0  0  0  0  0  0  0  0
    2.2213   -7.9639    2.5067 C   0  0  2  0  0  0  0  0  0  0  0  0
    1.0156   -7.1327    3.0591 C   0  0  1  0  0  0  0  0  0  0  0  0
    0.2565   -6.5219    2.0178 O   0  0  0  0  0  0  0  0  0  0  0  0
    0.1730   -8.1204    3.8960 C   0  0  1  0  0  0  0  0  0  0  0  0
   -1.0818   -8.6673    3.1764 C   0  0  0  0  0  0  0  0  0  0  0  0
    1.1606   -9.2288    4.2477 C   0  0  0  0  0  0  0  0  0  0  0  0
    0.9329  -10.0470    5.1283 O   0  0  0  0  0  0  0  0  0  0  0  0
    2.3689   -9.3188    3.3219 C   0  0  1  0  0  0  0  0  0  0  0  0
    2.1162  -10.6126    2.5025 C   0  0  0  0  0  0  0  0  0  0  0  0
    3.8476   -9.2334    3.8673 C   0  0  1  0  0  0  0  0  0  0  0  0
    5.1087  -10.1035    3.5468 C   0  0  0  0  0  0  0  0  0  0  0  0
    5.7944   -8.9147    3.0667 O   0  0  0  0  0  0  0  0  0  0  0  0
    4.4802   -8.5277    2.6316 C   0  0  2  0  0  0  0  0  0  0  0  0
    4.2898   -9.0181    1.2920 O   0  0  0  0  0  0  0  0  0  0  0  0
    3.9810   -8.6977    5.4032 C   0  0  2  0  0  0  0  0  0  0  0  0
    3.9137   -9.9822    6.2827 C   0  0  0  0  0  0  0  0  0  0  0  0
    2.9526   -7.7114    6.0472 C   0  0  0  0  0  0  0  0  0  0  0  0
    3.6565   -6.7214    7.0162 C   0  0  1  0  0  0  0  0  0  0  0  0
    2.8039   -5.4438    7.0886 C   0  0  0  0  0  0  0  0  0  0  0  0
    3.6746   -7.2366    8.5001 C   0  0  0  0  0  0  0  0  0  0  0  0
    4.8357   -8.1361    8.9521 C   0  0  0  0  0  0  0  0  0  0  0  0
    6.1938   -7.5247    8.6522 C   0  0  1  0  0  0  0  0  0  0  0  0
    7.1342   -8.5437    8.3805 O   0  0  0  0  0  0  0  0  0  0  0  0
    6.1599   -6.3988    7.5822 C   0  0  1  0  0  0  0  0  0  0  0  0
    7.6075   -6.0220    7.1796 C   0  0  0  0  0  0  0  0  0  0  0  0
    5.0807   -6.5075    6.4052 C   0  0  2  0  0  0  0  0  0  0  0  0
    5.3080   -7.8829    5.6849 C   0  0  0  0  0  0  0  0  0  0  0  0
    3.2138   -1.5929    3.4424 C   0  0  2  0  0  0  0  0  0  0  0  0
    1.8178   -1.6895    4.1341 C   0  0  0  0  0  0  0  0  0  0  0  0
    3.7171   -0.1593    3.6784 C   0  0  0  0  0  0  0  0  0  0  0  0
    0.7097    3.0588    2.9008 H   0  0  0  0  0  0  0  0  0  0  0  0
    1.0330    2.1042    1.4680 H   0  0  0  0  0  0  0  0  0  0  0  0
    2.2473    3.2434    2.0732 H   0  0  0  0  0  0  0  0  0  0  0  0
    3.7934    1.3444    2.1645 H   0  0  0  0  0  0  0  0  0  0  0  0
    1.3934   -0.3222    1.6304 H   0  0  0  0  0  0  0  0  0  0  0  0
    2.6849    0.0614    0.5209 H   0  0  0  0  0  0  0  0  0  0  0  0
    4.2457   -1.5765    0.3425 H   0  0  0  0  0  0  0  0  0  0  0  0
    1.4435   -2.8824    1.8792 H   0  0  0  0  0  0  0  0  0  0  0  0
    2.3209   -2.9033    0.3723 H   0  0  0  0  0  0  0  0  0  0  0  0
    2.5285   -4.9539    1.7528 H   0  0  0  0  0  0  0  0  0  0  0  0
    4.0380   -4.2553    1.2480 H   0  0  0  0  0  0  0  0  0  0  0  0
    2.7492   -4.3661    3.9994 H   0  0  0  0  0  0  0  0  0  0  0  0
    5.1234   -2.5757    3.4602 H   0  0  0  0  0  0  0  0  0  0  0  0
    4.6537   -1.7701    5.7319 H   0  0  0  0  0  0  0  0  0  0  0  0
    3.4072   -2.9796    5.9226 H   0  0  0  0  0  0  0  0  0  0  0  0
    6.3257   -3.4179    5.3530 H   0  0  0  0  0  0  0  0  0  0  0  0
    4.8227   -3.8037    7.6576 H   0  0  0  0  0  0  0  0  0  0  0  0
    6.2702   -5.4647    5.1066 H   0  0  0  0  0  0  0  0  0  0  0  0
    6.4655   -4.4964    2.8783 H   0  0  0  0  0  0  0  0  0  0  0  0
    5.6043   -5.5081    1.7813 H   0  0  0  0  0  0  0  0  0  0  0  0
    6.5188   -6.2385    3.0557 H   0  0  0  0  0  0  0  0  0  0  0  0
    3.8311   -6.7231    1.5570 H   0  0  0  0  0  0  0  0  0  0  0  0
    1.9564   -8.2429    1.4855 H   0  0  0  0  0  0  0  0  0  0  0  0
    1.3634   -6.3235    3.6999 H   0  0  0  0  0  0  0  0  0  0  0  0
    0.0016   -7.2085    1.4173 H   0  0  0  0  0  0  0  0  0  0  0  0
   -0.1344   -7.6417    4.8219 H   0  0  0  0  0  0  0  0  0  0  0  0
   -1.5820   -9.3943    3.8011 H   0  0  0  0  0  0  0  0  0  0  0  0
   -0.8378   -9.1730    2.2443 H   0  0  0  0  0  0  0  0  0  0  0  0
   -1.8060   -7.8809    2.9685 H   0  0  0  0  0  0  0  0  0  0  0  0
    2.6422  -10.6384    1.5607 H   0  0  0  0  0  0  0  0  0  0  0  0
    1.0589  -10.7197    2.2653 H   0  0  0  0  0  0  0  0  0  0  0  0
    2.4072  -11.5015    3.0562 H   0  0  0  0  0  0  0  0  0  0  0  0
    5.6009  -10.5142    4.4128 H   0  0  0  0  0  0  0  0  0  0  0  0
    4.9682  -10.8988    2.8174 H   0  0  0  0  0  0  0  0  0  0  0  0
    4.3736   -9.9672    1.2988 H   0  0  0  0  0  0  0  0  0  0  0  0
    3.3570   -9.8463    7.2099 H   0  0  0  0  0  0  0  0  0  0  0  0
    4.8922  -10.3805    6.5494 H   0  0  0  0  0  0  0  0  0  0  0  0
    3.3834  -10.7852    5.7774 H   0  0  0  0  0  0  0  0  0  0  0  0
    2.4362   -7.1210    5.3153 H   0  0  0  0  0  0  0  0  0  0  0  0
    2.1478   -8.2192    6.5708 H   0  0  0  0  0  0  0  0  0  0  0  0
    3.2762   -4.6784    7.7066 H   0  0  0  0  0  0  0  0  0  0  0  0
    1.8323   -5.6506    7.5411 H   0  0  0  0  0  0  0  0  0  0  0  0
    2.6037   -5.0195    6.1090 H   0  0  0  0  0  0  0  0  0  0  0  0
    3.6352   -6.3899    9.1876 H   0  0  0  0  0  0  0  0  0  0  0  0
    2.7629   -7.7970    8.6862 H   0  0  0  0  0  0  0  0  0  0  0  0
    4.7638   -8.2848   10.0291 H   0  0  0  0  0  0  0  0  0  0  0  0
    4.7785   -9.1448    8.5587 H   0  0  0  0  0  0  0  0  0  0  0  0
    6.5624   -7.0599    9.5693 H   0  0  0  0  0  0  0  0  0  0  0  0
    6.8600   -9.0129    7.6098 H   0  0  0  0  0  0  0  0  0  0  0  0
    5.8241   -5.5862    8.2143 H   0  0  0  0  0  0  0  0  0  0  0  0
    8.0512   -6.7429    6.4924 H   0  0  0  0  0  0  0  0  0  0  0  0
    8.2415   -5.9862    8.0670 H   0  0  0  0  0  0  0  0  0  0  0  0
    7.6869   -5.0297    6.7353 H   0  0  0  0  0  0  0  0  0  0  0  0
    6.0039   -8.5224    6.2166 H   0  0  0  0  0  0  0  0  0  0  0  0
    5.8913   -7.6509    4.8097 H   0  0  0  0  0  0  0  0  0  0  0  0
    1.8862   -1.4770    5.2004 H   0  0  0  0  0  0  0  0  0  0  0  0
    1.3516   -2.6694    4.0408 H   0  0  0  0  0  0  0  0  0  0  0  0
    1.1005   -0.9716    3.7376 H   0  0  0  0  0  0  0  0  0  0  0  0
    4.7975   -0.1278    3.5278 H   0  0  0  0  0  0  0  0  0  0  0  0
    3.5207    0.2176    4.6842 H   0  0  0  0  0  0  0  0  0  0  0  0
  1  2  1  0
  1 49  1  0
  1 50  1  0
  1 51  1  0
  2  3  1  0
  3 48  1  0
  3  4  1  0
  3 52  1  6
  4  5  1  0
  4 53  1  0
  4 54  1  0
  5 46  1  0
  5  6  1  6
  5  7  1  0
  6 55  1  0
  7  8  1  0
  7 56  1  0
  7 57  1  0
  8  9  1  0
  8 58  1  0
  8 59  1  0
  9 15  1  0
  9 10  1  0
  9 60  1  1
 10 11  1  0
 10 46  1  0
 10 61  1  6
 11 12  1  0
 11 62  1  0
 11 63  1  0
 12 13  1  0
 12 14  1  0
 12 64  1  6
 13 65  1  0
 14 44  1  0
 14 15  1  0
 14 66  1  6
 15 16  1  6
 15 17  1  0
 16 67  1  0
 16 68  1  0
 16 69  1  0
 17 18  1  0
 18 31  1  0
 18 19  1  0
 18 70  1  6
 19 26  1  0
 19 20  1  0
 19 71  1  6
 20 21  1  0
 20 22  1  0
 20 72  1  1
 21 73  1  0
 22 23  1  0
 22 24  1  0
 22 74  1  1
 23 75  1  0
 23 76  1  0
 23 77  1  0
 24 25  2  0
 24 26  1  0
 26 27  1  6
 26 28  1  0
 27 78  1  0
 27 79  1  0
 27 80  1  0
 28 31  1  0
 28 29  1  1
 28 33  1  0
 29 30  1  0
 29 81  1  0
 29 82  1  0
 30 31  1  0
 31 32  1  6
 32 83  1  0
 33 45  1  0
 33 34  1  1
 33 35  1  0
 34 84  1  0
 34 85  1  0
 34 86  1  0
 35 36  1  0
 35 87  1  0
 35 88  1  0
 36 44  1  0
 36 37  1  1
 36 38  1  0
 37 89  1  0
 37 90  1  0
 37 91  1  0
 38 39  1  0
 38 92  1  0
 38 93  1  0
 39 40  1  0
 39 94  1  0
 39 95  1  0
 40 41  1  0
 40 42  1  0
 40 96  1  1
 41 97  1  0
 42 43  1  0
 42 44  1  0
 42 98  1  1
 43 99  1  0
 43100  1  0
 43101  1  0
 44 45  1  6
 45102  1  0
 45103  1  0
 46 47  1  1
 46 48  1  0
 47104  1  0
 47105  1  0
 47106  1  0
 48107  1  0
 48108  1  0
M  END
>  <i_m_ct_stereo_status>  (94) 
1

>  <s_m_source_file>  (94) 
/var/tmp/pbs.5076255.sched01/tmpcdf8lnea/434bzo3qpq.sdf

>  <i_m_source_file_index>  (94) 
1

>  <i_lp_mmshare_version>  (94) 
48012

>  <i_f3d_flags>  (94) 
0

>  <s_epik_input>  (94) 
Tz1DMVtDQEhdKFtDSDNdKVtDQEhdKFtPSF0pW0NASF0oW0NAXTEoW0NAQF0yMzQpW0NIM10pW0NASF0oW0NAQF0zKFtPSF0pT1tDSDJdMilPW0NAQF01KFtDSDNdKVtDQEhdNltDQEBIXShbQ0BdNyhbQ0gzXSlbQ0BAXShbT0hdKShbQ0gyXVtDSDJdNilbQ0gyXVtDQEhdKFtDSDJdNylPW0NIM10pW0NIMl1bQ0BASF0oW09IXSlbQ0BIXTVbQ0BdODlbQ0BAXShbQ0gzXSkoW0NIMl1bQ0BdNChbQ0gzXSlbQ0gyXTkpW0NIMl1bQ0gyXVtDQEBIXShbT0hdKVtDQEhdOFtDSDNd

>  <s_epik_cmdline>  (94) 
J2VwaWtfcHl0aG9uJywgJy1waHQnLCAnMi4wJywgJy1waCcsICc3LjAnLCAnLXRuJywgJzgnLCAnLW1hJywgJzIwMCcsICctaW1hZScsICc8aW5maWxlLm1hZT4nLCAnLW9tYWUnLCAnPG91dGZpbGUubWFlPic=

>  <r_lp_tautomer_probability>  (94) 
1

>  <r_epik_Ionization_Penalty>  (94) 
3.64912e-06

>  <r_epik_Ionization_Penalty_Charging>  (94) 
0

>  <r_epik_Ionization_Penalty_Neutral>  (94) 
3.64912e-06

>  <r_epik_State_Penalty>  (94) 
-0

>  <r_epik_Charging_Adjusted_Penalty>  (94) 
0

>  <i_epik_Tot_Q>  (94) 
0

>  <i_epik_Tot_abs_Q>  (94) 
0

>  <s_lp_Force_Field>  (94) 
OPLS3e

>  <r_lp_Energy>  (94) 
186.101

>  <b_lp_Chiralities_Consistent>  (94) 
1

>  <s_lp_Variant>  (94) 
38:0-1

>  <s_i_glide_gridfile>  (94) 
pfpi4k_grid

>  <i_i_glide_lignum>  (94) 
1

>  <i_i_glide_rotatable_bonds>  (94) 
6

>  <r_i_docking_score>  (94) 
-2.43956

>  <r_i_glide_ligand_efficiency>  (94) 
-0.0508242

>  <r_i_glide_ligand_efficiency_sa>  (94) 
-0.184707

>  <r_i_glide_ligand_efficiency_ln>  (94) 
-0.500813

>  <r_i_glide_gscore>  (94) 
-2.43956

>  <r_i_glide_lipo>  (94) 
-0.159333

>  <r_i_glide_hbond>  (94) 
-0.13955

>  <r_i_glide_metal>  (94) 
-0

>  <r_i_glide_rewards>  (94) 
0

>  <r_i_glide_evdw>  (94) 
-24.8014

>  <r_i_glide_ecoul>  (94) 
-5.82834

>  <r_i_glide_erotb>  (94) 
0

>  <r_i_glide_esite>  (94) 
-0.0263579

>  <r_i_glide_emodel>  (94) 
-35.3243

>  <r_i_glide_energy>  (94) 
-30.6297

>  <r_i_glide_einternal>  (94) 
0.667891

>  <r_i_glide_intrahb_reward>  (94) 
-0

>  <i_i_glide_confnum>  (94) 
1

>  <i_i_glide_posenum>  (94) 
13

>  <r_i_glide_eff_state_penalty>  (94) 
0

>  <ligand_id>  (94) 
38

>  <original_smiles>  (94) 
COC1CC2(O)CCC3C(CC(O)C4C3(C)OC3C5C(O)C(C)C(=O)C5(C)C5(COC35O)C3(C)CC5(C)CCC(O)C(C)C45C3)C2(C)C1

>  <smiles>  (94) 
[H]OC1([H])C([H])(C([H])([H])[H])C(=O)C2(C([H])([H])[H])C1([H])C1([H])OC3(C([H])([H])[H])C4([H])C([H])([H])C([H])([H])C5(O[H])C([H])([H])C([H])(OC([H])([H])[H])C([H])([H])C5(C([H])([H])[H])C4([H])C([H])([H])C([H])(O[H])C3([H])C34C([H])([H])C(C([H])([H])[H])(C([H])([H])C3(C([H])([H])[H])C([H])([H])C([H])([H])C([H])(O[H])C4([H])C([H])([H])[H])C23C([H])([H])OC13O[H]

$$$$
38:0:1
     RDKit          3D

108116  0  0  1  0  0  0  0  0999 V2000
    1.4380    2.5055    2.3053 C   0  0  0  0  0  0  0  0  0  0  0  0
    2.0107    1.5287    3.1560 O   0  0  0  0  0  0  0  0  0  0  0  0
    3.0245    0.7365    2.5508 C   0  0  2  0  0  0  0  0  0  0  0  0
    2.4839   -0.2396    1.4947 C   0  0  0  0  0  0  0  0  0  0  0  0
    3.1393   -1.5732    1.8462 C   0  0  2  0  0  0  0  0  0  0  0  0
    4.4121   -1.5372    1.2140 O   0  0  0  0  0  0  0  0  0  0  0  0
    2.4542   -2.8454    1.3871 C   0  0  0  0  0  0  0  0  0  0  0  0
    3.2265   -4.0895    1.8635 C   0  0  0  0  0  0  0  0  0  0  0  0
    3.6778   -4.1165    3.3639 C   0  0  2  0  0  0  0  0  0  0  0  0
    4.1618   -2.7206    3.8400 C   0  0  2  0  0  0  0  0  0  0  0  0
    4.3498   -2.7334    5.3558 C   0  0  0  0  0  0  0  0  0  0  0  0
    5.4203   -3.7372    5.7638 C   0  0  1  0  0  0  0  0  0  0  0  0
    5.6018   -3.4983    7.1355 O   0  0  0  0  0  0  0  0  0  0  0  0
    5.2525   -5.2326    5.2628 C   0  0  2  0  0  0  0  0  0  0  0  0
    4.6788   -5.2846    3.7436 C   0  0  2  0  0  0  0  0  0  0  0  0
    5.9020   -5.3448    2.7747 C   0  0  0  0  0  0  0  0  0  0  0  0
    3.8458   -6.4418    3.6044 O   0  0  0  0  0  0  0  0  0  0  0  0
    3.7186   -7.2323    2.4187 C   0  0  2  0  0  0  0  0  0  0  0  0
    2.2766   -7.9310    2.4226 C   0  0  2  0  0  0  0  0  0  0  0  0
    1.0623   -7.1108    2.9666 C   0  0  1  0  0  0  0  0  0  0  0  0
    0.3160   -6.4964    1.9226 O   0  0  0  0  0  0  0  0  0  0  0  0
    0.2150   -8.1045    3.8009 C   0  0  1  0  0  0  0  0  0  0  0  0
   -1.0324   -8.6597    3.0796 C   0  0  0  0  0  0  0  0  0  0  0  0
    1.2039   -9.2167    4.1668 C   0  0  0  0  0  0  0  0  0  0  0  0
    0.9802  -10.0358    5.0331 O   0  0  0  0  0  0  0  0  0  0  0  0
    2.4242   -9.2860    3.2400 C   0  0  1  0  0  0  0  0  0  0  0  0
    2.1736  -10.5727    2.4235 C   0  0  0  0  0  0  0  0  0  0  0  0
    3.8970   -9.1972    3.7916 C   0  0  1  0  0  0  0  0  0  0  0  0
    5.1610  -10.0606    3.4726 C   0  0  0  0  0  0  0  0  0  0  0  0
    5.8309   -8.8665    2.9864 O   0  0  0  0  0  0  0  0  0  0  0  0
    4.5289   -8.4907    2.5440 C   0  0  2  0  0  0  0  0  0  0  0  0
    4.3740   -8.9863    1.2019 O   0  0  0  0  0  0  0  0  0  0  0  0
    4.0277   -8.6658    5.3224 C   0  0  2  0  0  0  0  0  0  0  0  0
    3.9582   -9.9518    6.2016 C   0  0  0  0  0  0  0  0  0  0  0  0
    2.9896   -7.6842    5.9702 C   0  0  0  0  0  0  0  0  0  0  0  0
    3.6820   -6.6951    6.9432 C   0  0  1  0  0  0  0  0  0  0  0  0
    2.8207   -5.4210    7.0154 C   0  0  0  0  0  0  0  0  0  0  0  0
    3.6936   -7.2271    8.4219 C   0  0  0  0  0  0  0  0  0  0  0  0
    4.8646   -8.1111    8.8778 C   0  0  0  0  0  0  0  0  0  0  0  0
    6.2231   -7.4892    8.5850 C   0  0  1  0  0  0  0  0  0  0  0  0
    7.1696   -8.5083    8.3142 O   0  0  0  0  0  0  0  0  0  0  0  0
    6.1851   -6.3587    7.5180 C   0  0  1  0  0  0  0  0  0  0  0  0
    7.6326   -5.9736    7.1263 C   0  0  0  0  0  0  0  0  0  0  0  0
    5.1116   -6.4733    6.3354 C   0  0  2  0  0  0  0  0  0  0  0  0
    5.3534   -7.8447    5.6142 C   0  0  0  0  0  0  0  0  0  0  0  0
    3.2272   -1.5610    3.3825 C   0  0  2  0  0  0  0  0  0  0  0  0
    1.8261   -1.6697    4.0692 C   0  0  0  0  0  0  0  0  0  0  0  0
    3.7228   -0.1274    3.6324 C   0  0  0  0  0  0  0  0  0  0  0  0
    0.6617    3.0426    2.8436 H   0  0  0  0  0  0  0  0  0  0  0  0
    0.9646    2.0534    1.4281 H   0  0  0  0  0  0  0  0  0  0  0  0
    2.1701    3.2335    1.9626 H   0  0  0  0  0  0  0  0  0  0  0  0
    3.7951    1.3409    2.0961 H   0  0  0  0  0  0  0  0  0  0  0  0
    1.3996   -0.3049    1.5690 H   0  0  0  0  0  0  0  0  0  0  0  0
    2.7057    0.1017    0.4805 H   0  0  0  0  0  0  0  0  0  0  0  0
    4.8553   -0.7419    1.4658 H   0  0  0  0  0  0  0  0  0  0  0  0
    1.4640   -2.8561    1.7920 H   0  0  0  0  0  0  0  0  0  0  0  0
    2.3568   -2.8590    0.3025 H   0  0  0  0  0  0  0  0  0  0  0  0
    2.5661   -4.9329    1.6758 H   0  0  0  0  0  0  0  0  0  0  0  0
    4.0666   -4.2045    1.1880 H   0  0  0  0  0  0  0  0  0  0  0  0
    2.7770   -4.3342    3.9290 H   0  0  0  0  0  0  0  0  0  0  0  0
    5.1455   -2.5353    3.4046 H   0  0  0  0  0  0  0  0  0  0  0  0
    4.6531   -1.7388    5.6805 H   0  0  0  0  0  0  0  0  0  0  0  0
    3.4144   -2.9493    5.8601 H   0  0  0  0  0  0  0  0  0  0  0  0
    6.3427   -3.3719    5.3060 H   0  0  0  0  0  0  0  0  0  0  0  0
    4.8260   -3.7681    7.5999 H   0  0  0  0  0  0  0  0  0  0  0  0
    6.2959   -5.4195    5.0521 H   0  0  0  0  0  0  0  0  0  0  0  0
    6.4994   -4.4421    2.8493 H   0  0  0  0  0  0  0  0  0  0  0  0
    5.6469   -5.4451    1.7198 H   0  0  0  0  0  0  0  0  0  0  0  0
    6.5598   -6.1839    2.9955 H   0  0  0  0  0  0  0  0  0  0  0  0
    3.8822   -6.6797    1.4835 H   0  0  0  0  0  0  0  0  0  0  0  0
    2.0216   -8.2105    1.3991 H   0  0  0  0  0  0  0  0  0  0  0  0
    1.4011   -6.3046    3.6152 H   0  0  0  0  0  0  0  0  0  0  0  0
    0.0958   -7.1737    1.2995 H   0  0  0  0  0  0  0  0  0  0  0  0
   -0.0973   -7.6284    4.7262 H   0  0  0  0  0  0  0  0  0  0  0  0
   -1.5376   -9.3948    3.6982 H   0  0  0  0  0  0  0  0  0  0  0  0
   -0.7811   -9.1610    2.1440 H   0  0  0  0  0  0  0  0  0  0  0  0
   -1.7541   -7.8787    2.8639 H   0  0  0  0  0  0  0  0  0  0  0  0
    2.6652  -10.6033    1.4645 H   0  0  0  0  0  0  0  0  0  0  0  0
    1.1146  -10.6846    2.1864 H   0  0  0  0  0  0  0  0  0  0  0  0
    2.4812  -11.4673    2.9656 H   0  0  0  0  0  0  0  0  0  0  0  0
    5.6768  -10.4716    4.3443 H   0  0  0  0  0  0  0  0  0  0  0  0
    5.0372  -10.8594    2.7451 H   0  0  0  0  0  0  0  0  0  0  0  0
    4.5353   -9.9355    1.2260 H   0  0  0  0  0  0  0  0  0  0  0  0
    3.3986   -9.8265    7.1249 H   0  0  0  0  0  0  0  0  0  0  0  0
    4.9399  -10.3493    6.4695 H   0  0  0  0  0  0  0  0  0  0  0  0
    3.4363  -10.7574    5.6880 H   0  0  0  0  0  0  0  0  0  0  0  0
    2.4752   -7.1008    5.2339 H   0  0  0  0  0  0  0  0  0  0  0  0
    2.1776   -8.1975    6.4810 H   0  0  0  0  0  0  0  0  0  0  0  0
    3.2888   -4.6543    7.6379 H   0  0  0  0  0  0  0  0  0  0  0  0
    1.8472   -5.6354    7.4669 H   0  0  0  0  0  0  0  0  0  0  0  0
    2.6212   -4.9984    6.0356 H   0  0  0  0  0  0  0  0  0  0  0  0
    3.6562   -6.3836    9.1082 H   0  0  0  0  0  0  0  0  0  0  0  0
    2.7735   -7.7816    8.6097 H   0  0  0  0  0  0  0  0  0  0  0  0
    4.7861   -8.2630    9.9539 H   0  0  0  0  0  0  0  0  0  0  0  0
    4.8123   -9.1169    8.4821 H   0  0  0  0  0  0  0  0  0  0  0  0
    6.5805   -7.0317    9.5068 H   0  0  0  0  0  0  0  0  0  0  0  0
    6.8989   -8.9722    7.5373 H   0  0  0  0  0  0  0  0  0  0  0  0
    5.8348   -5.5546    8.1515 H   0  0  0  0  0  0  0  0  0  0  0  0
    8.0800   -6.6913    6.4344 H   0  0  0  0  0  0  0  0  0  0  0  0
    8.2617   -5.9385    8.0145 H   0  0  0  0  0  0  0  0  0  0  0  0
    7.7055   -4.9822    6.6835 H   0  0  0  0  0  0  0  0  0  0  0  0
    6.0407   -8.4843    6.1516 H   0  0  0  0  0  0  0  0  0  0  0  0
    5.9322   -7.6025    4.7408 H   0  0  0  0  0  0  0  0  0  0  0  0
    1.8890   -1.4592    5.1403 H   0  0  0  0  0  0  0  0  0  0  0  0
    1.3674   -2.6511    3.9712 H   0  0  0  0  0  0  0  0  0  0  0  0
    1.1075   -0.9538    3.6747 H   0  0  0  0  0  0  0  0  0  0  0  0
    4.8035   -0.0774    3.4937 H   0  0  0  0  0  0  0  0  0  0  0  0
    3.5161    0.2434    4.6369 H   0  0  0  0  0  0  0  0  0  0  0  0
  1  2  1  0
  1 49  1  0
  1 50  1  0
  1 51  1  0
  2  3  1  0
  3 48  1  0
  3  4  1  0
  3 52  1  6
  4  5  1  0
  4 53  1  0
  4 54  1  0
  5 46  1  0
  5  6  1  6
  5  7  1  0
  6 55  1  0
  7  8  1  0
  7 56  1  0
  7 57  1  0
  8  9  1  0
  8 58  1  0
  8 59  1  0
  9 15  1  0
  9 10  1  0
  9 60  1  1
 10 11  1  0
 10 46  1  0
 10 61  1  6
 11 12  1  0
 11 62  1  0
 11 63  1  0
 12 13  1  0
 12 14  1  0
 12 64  1  6
 13 65  1  0
 14 44  1  0
 14 15  1  0
 14 66  1  6
 15 16  1  6
 15 17  1  0
 16 67  1  0
 16 68  1  0
 16 69  1  0
 17 18  1  0
 18 31  1  0
 18 19  1  0
 18 70  1  6
 19 26  1  0
 19 20  1  0
 19 71  1  6
 20 21  1  0
 20 22  1  0
 20 72  1  1
 21 73  1  0
 22 23  1  0
 22 24  1  0
 22 74  1  1
 23 75  1  0
 23 76  1  0
 23 77  1  0
 24 25  2  0
 24 26  1  0
 26 27  1  6
 26 28  1  0
 27 78  1  0
 27 79  1  0
 27 80  1  0
 28 31  1  0
 28 29  1  1
 28 33  1  0
 29 30  1  0
 29 81  1  0
 29 82  1  0
 30 31  1  0
 31 32  1  6
 32 83  1  0
 33 45  1  0
 33 34  1  1
 33 35  1  0
 34 84  1  0
 34 85  1  0
 34 86  1  0
 35 36  1  0
 35 87  1  0
 35 88  1  0
 36 44  1  0
 36 37  1  1
 36 38  1  0
 37 89  1  0
 37 90  1  0
 37 91  1  0
 38 39  1  0
 38 92  1  0
 38 93  1  0
 39 40  1  0
 39 94  1  0
 39 95  1  0
 40 41  1  0
 40 42  1  0
 40 96  1  1
 41 97  1  0
 42 43  1  0
 42 44  1  0
 42 98  1  1
 43 99  1  0
 43100  1  0
 43101  1  0
 44 45  1  6
 45102  1  0
 45103  1  0
 46 47  1  1
 46 48  1  0
 47104  1  0
 47105  1  0
 47106  1  0
 48107  1  0
 48108  1  0
M  END
>  <i_m_ct_stereo_status>  (95) 
1

>  <s_m_source_file>  (95) 
/var/tmp/pbs.5076255.sched01/tmpcdf8lnea/434bzo3qpq.sdf

>  <i_m_source_file_index>  (95) 
1

>  <i_lp_mmshare_version>  (95) 
48012

>  <i_f3d_flags>  (95) 
0

>  <s_epik_input>  (95) 
Tz1DMVtDQEhdKFtDSDNdKVtDQEhdKFtPSF0pW0NASF0oW0NAXTEoW0NAQF0yMzQpW0NIM10pW0NASF0oW0NAQF0zKFtPSF0pT1tDSDJdMilPW0NAQF01KFtDSDNdKVtDQEhdNltDQEBIXShbQ0BdNyhbQ0gzXSlbQ0BAXShbT0hdKShbQ0gyXVtDSDJdNilbQ0gyXVtDQEhdKFtDSDJdNylPW0NIM10pW0NIMl1bQ0BASF0oW09IXSlbQ0BIXTVbQ0BdODlbQ0BAXShbQ0gzXSkoW0NIMl1bQ0BdNChbQ0gzXSlbQ0gyXTkpW0NIMl1bQ0gyXVtDQEBIXShbT0hdKVtDQEhdOFtDSDNd

>  <s_epik_cmdline>  (95) 
J2VwaWtfcHl0aG9uJywgJy1waHQnLCAnMi4wJywgJy1waCcsICc3LjAnLCAnLXRuJywgJzgnLCAnLW1hJywgJzIwMCcsICctaW1hZScsICc8aW5maWxlLm1hZT4nLCAnLW9tYWUnLCAnPG91dGZpbGUubWFlPic=

>  <r_lp_tautomer_probability>  (95) 
1

>  <r_epik_Ionization_Penalty>  (95) 
3.64912e-06

>  <r_epik_Ionization_Penalty_Charging>  (95) 
0

>  <r_epik_Ionization_Penalty_Neutral>  (95) 
3.64912e-06

>  <r_epik_State_Penalty>  (95) 
-0

>  <r_epik_Charging_Adjusted_Penalty>  (95) 
0

>  <i_epik_Tot_Q>  (95) 
0

>  <i_epik_Tot_abs_Q>  (95) 
0

>  <s_lp_Force_Field>  (95) 
OPLS3e

>  <r_lp_Energy>  (95) 
186.101

>  <b_lp_Chiralities_Consistent>  (95) 
1

>  <s_lp_Variant>  (95) 
38:0-1

>  <s_i_glide_gridfile>  (95) 
pfpi4k_grid

>  <i_i_glide_lignum>  (95) 
1

>  <i_i_glide_rotatable_bonds>  (95) 
6

>  <r_i_docking_score>  (95) 
-2.33722

>  <r_i_glide_ligand_efficiency>  (95) 
-0.048692

>  <r_i_glide_ligand_efficiency_sa>  (95) 
-0.176958

>  <r_i_glide_ligand_efficiency_ln>  (95) 
-0.479803

>  <r_i_glide_gscore>  (95) 
-2.33722

>  <r_i_glide_lipo>  (95) 
-0.150627

>  <r_i_glide_hbond>  (95) 
-0.143014

>  <r_i_glide_metal>  (95) 
-0

>  <r_i_glide_rewards>  (95) 
0

>  <r_i_glide_evdw>  (95) 
-24.5139

>  <r_i_glide_ecoul>  (95) 
-5.28741

>  <r_i_glide_erotb>  (95) 
0

>  <r_i_glide_esite>  (95) 
-0.0247706

>  <r_i_glide_emodel>  (95) 
-34.3777

>  <r_i_glide_energy>  (95) 
-29.8013

>  <r_i_glide_einternal>  (95) 
0.46718

>  <r_i_glide_intrahb_reward>  (95) 
-0

>  <i_i_glide_confnum>  (95) 
2

>  <i_i_glide_posenum>  (95) 
32

>  <r_i_glide_eff_state_penalty>  (95) 
0

>  <ligand_id>  (95) 
38

>  <original_smiles>  (95) 
COC1CC2(O)CCC3C(CC(O)C4C3(C)OC3C5C(O)C(C)C(=O)C5(C)C5(COC35O)C3(C)CC5(C)CCC(O)C(C)C45C3)C2(C)C1

>  <smiles>  (95) 
[H]OC1([H])C([H])(C([H])([H])[H])C(=O)C2(C([H])([H])[H])C1([H])C1([H])OC3(C([H])([H])[H])C4([H])C([H])([H])C([H])([H])C5(O[H])C([H])([H])C([H])(OC([H])([H])[H])C([H])([H])C5(C([H])([H])[H])C4([H])C([H])([H])C([H])(O[H])C3([H])C34C([H])([H])C(C([H])([H])[H])(C([H])([H])C3(C([H])([H])[H])C([H])([H])C([H])([H])C([H])(O[H])C4([H])C([H])([H])[H])C23C([H])([H])OC13O[H]

$$$$
38:0:2
     RDKit          3D

108116  0  0  1  0  0  0  0  0999 V2000
    0.8796    2.7137    2.9482 C   0  0  0  0  0  0  0  0  0  0  0  0
    1.5366    1.7028    3.6961 O   0  0  0  0  0  0  0  0  0  0  0  0
    2.5572    1.0272    2.9659 C   0  0  2  0  0  0  0  0  0  0  0  0
    1.9651    0.0704    1.9005 C   0  0  0  0  0  0  0  0  0  0  0  0
    2.6987   -1.2501    2.1446 C   0  0  2  0  0  0  0  0  0  0  0  0
    3.9078   -1.1091    1.4109 O   0  0  0  0  0  0  0  0  0  0  0  0
    2.0362   -2.5390    1.6859 C   0  0  0  0  0  0  0  0  0  0  0  0
    2.9092   -3.7602    2.0179 C   0  0  0  0  0  0  0  0  0  0  0  0
    3.4969   -3.8390    3.4694 C   0  0  2  0  0  0  0  0  0  0  0  0
    3.9483   -2.4438    3.9793 C   0  0  2  0  0  0  0  0  0  0  0  0
    4.2567   -2.5335    5.4659 C   0  0  0  0  0  0  0  0  0  0  0  0
    5.4028   -3.4978    5.7338 C   0  0  1  0  0  0  0  0  0  0  0  0
    5.6914   -3.3231    7.1019 O   0  0  0  0  0  0  0  0  0  0  0  0
    5.2709   -4.9700    5.1714 C   0  0  2  0  0  0  0  0  0  0  0  0
    4.5788   -4.9736    3.7001 C   0  0  2  0  0  0  0  0  0  0  0  0
    5.7083   -4.9170    2.6268 C   0  0  0  0  0  0  0  0  0  0  0  0
    3.7846   -6.1431    3.5721 O   0  0  0  0  0  0  0  0  0  0  0  0
    3.6039   -6.8798    2.3515 C   0  0  2  0  0  0  0  0  0  0  0  0
    2.2202   -7.6645    2.4347 C   0  0  2  0  0  0  0  0  0  0  0  0
    1.0169   -6.9547    3.1105 C   0  0  1  0  0  0  0  0  0  0  0  0
    0.1730   -6.3672    2.1236 O   0  0  0  0  0  0  0  0  0  0  0  0
    0.3013   -8.0314    3.9525 C   0  0  1  0  0  0  0  0  0  0  0  0
   -0.9727   -8.6162    3.3082 C   0  0  0  0  0  0  0  0  0  0  0  0
    1.3669   -9.0933    4.1572 C   0  0  0  0  0  0  0  0  0  0  0  0
    1.2505   -9.9896    5.0153 O   0  0  0  0  0  0  0  0  0  0  0  0
    2.5036   -9.0494    3.1516 C   0  0  1  0  0  0  0  0  0  0  0  0
    2.2527  -10.3008    2.2619 C   0  0  0  0  0  0  0  0  0  0  0  0
    4.0111   -8.9191    3.5915 C   0  0  1  0  0  0  0  0  0  0  0  0
    5.2851   -9.6908    3.1258 C   0  0  0  0  0  0  0  0  0  0  0  0
    5.8497   -8.4171    2.6527 O   0  0  0  0  0  0  0  0  0  0  0  0
    4.4929   -8.0965    2.3531 C   0  0  2  0  0  0  0  0  0  0  0  0
    4.2577   -8.5318    1.0082 O   0  0  0  0  0  0  0  0  0  0  0  0
    4.2419   -8.4553    5.1434 C   0  0  2  0  0  0  0  0  0  0  0  0
    4.3081   -9.7951    5.9380 C   0  0  0  0  0  0  0  0  0  0  0  0
    3.2122   -7.5760    5.9224 C   0  0  0  0  0  0  0  0  0  0  0  0
    3.9289   -6.5983    6.8864 C   0  0  1  0  0  0  0  0  0  0  0  0
    3.0127   -5.3794    7.0942 C   0  0  0  0  0  0  0  0  0  0  0  0
    4.0892   -7.2022    8.3239 C   0  0  0  0  0  0  0  0  0  0  0  0
    5.3362   -8.0416    8.6378 C   0  0  0  0  0  0  0  0  0  0  0  0
    6.6332   -7.3351    8.2695 C   0  0  1  0  0  0  0  0  0  0  0  0
    7.6025   -8.2899    7.8679 O   0  0  0  0  0  0  0  0  0  0  0  0
    6.4496   -6.1597    7.2738 C   0  0  1  0  0  0  0  0  0  0  0  0
    7.8369   -5.6785    6.7852 C   0  0  0  0  0  0  0  0  0  0  0  0
    5.2883   -6.2681    6.1785 C   0  0  2  0  0  0  0  0  0  0  0  0
    5.5394   -7.5856    5.3661 C   0  0  0  0  0  0  0  0  0  0  0  0
    2.9178   -1.3118    3.6652 C   0  0  2  0  0  0  0  0  0  0  0  0
    1.5912   -1.5350    4.4544 C   0  0  0  0  0  0  0  0  0  0  0  0
    3.3682    0.1354    3.9374 C   0  0  0  0  0  0  0  0  0  0  0  0
    0.1223    3.1818    3.5731 H   0  0  0  0  0  0  0  0  0  0  0  0
    0.3726    2.3016    2.0778 H   0  0  0  0  0  0  0  0  0  0  0  0
    1.5665    3.4938    2.6167 H   0  0  0  0  0  0  0  0  0  0  0  0
    3.2469    1.7473    2.5208 H   0  0  0  0  0  0  0  0  0  0  0  0
    0.8963   -0.0592    2.0611 H   0  0  0  0  0  0  0  0  0  0  0  0
    2.0781    0.4583    0.8825 H   0  0  0  0  0  0  0  0  0  0  0  0
    3.6807   -1.0634    0.5000 H   0  0  0  0  0  0  0  0  0  0  0  0
    1.0596   -2.6353    2.1552 H   0  0  0  0  0  0  0  0  0  0  0  0
    1.8600   -2.5229    0.6163 H   0  0  0  0  0  0  0  0  0  0  0  0
    2.2859   -4.6277    1.8366 H   0  0  0  0  0  0  0  0  0  0  0  0
    3.6983   -3.7871    1.2697 H   0  0  0  0  0  0  0  0  0  0  0  0
    2.6543   -4.1407    4.0898 H   0  0  0  0  0  0  0  0  0  0  0  0
    4.8778   -2.1867    3.4764 H   0  0  0  0  0  0  0  0  0  0  0  0
    4.5440   -1.5423    5.8208 H   0  0  0  0  0  0  0  0  0  0  0  0
    3.3793   -2.8222    6.0358 H   0  0  0  0  0  0  0  0  0  0  0  0
    6.2597   -3.0638    5.2327 H   0  0  0  0  0  0  0  0  0  0  0  0
    4.9790   -3.6623    7.6090 H   0  0  0  0  0  0  0  0  0  0  0  0
    6.3035   -5.0901    4.8595 H   0  0  0  0  0  0  0  0  0  0  0  0
    6.2213   -3.9643    2.7008 H   0  0  0  0  0  0  0  0  0  0  0  0
    5.3796   -4.9902    1.5940 H   0  0  0  0  0  0  0  0  0  0  0  0
    6.4424   -5.7139    2.7582 H   0  0  0  0  0  0  0  0  0  0  0  0
    3.6661   -6.2759    1.4416 H   0  0  0  0  0  0  0  0  0  0  0  0
    1.8982   -7.9195    1.4176 H   0  0  0  0  0  0  0  0  0  0  0  0
    1.3568   -6.1538    3.7690 H   0  0  0  0  0  0  0  0  0  0  0  0
   -0.0625   -7.0609    1.5355 H   0  0  0  0  0  0  0  0  0  0  0  0
    0.0397   -7.6240    4.9239 H   0  0  0  0  0  0  0  0  0  0  0  0
   -1.3704   -9.4046    3.9364 H   0  0  0  0  0  0  0  0  0  0  0  0
   -0.7835   -9.0524    2.3296 H   0  0  0  0  0  0  0  0  0  0  0  0
   -1.7585   -7.8688    3.2026 H   0  0  0  0  0  0  0  0  0  0  0  0
    2.6547  -10.2499    1.2574 H   0  0  0  0  0  0  0  0  0  0  0  0
    1.1909  -10.4934    2.1272 H   0  0  0  0  0  0  0  0  0  0  0  0
    2.6652  -11.1990    2.7181 H   0  0  0  0  0  0  0  0  0  0  0  0
    5.8729  -10.1390    3.9109 H   0  0  0  0  0  0  0  0  0  0  0  0
    5.1278  -10.4284    2.3338 H   0  0  0  0  0  0  0  0  0  0  0  0
    4.8449   -8.0326    0.4633 H   0  0  0  0  0  0  0  0  0  0  0  0
    3.8213   -9.7458    6.9085 H   0  0  0  0  0  0  0  0  0  0  0  0
    5.3242  -10.1493    6.1036 H   0  0  0  0  0  0  0  0  0  0  0  0
    3.7838  -10.6000    5.4228 H   0  0  0  0  0  0  0  0  0  0  0  0
    2.5986   -6.9888    5.2658 H   0  0  0  0  0  0  0  0  0  0  0  0
    2.4746   -8.1626    6.4645 H   0  0  0  0  0  0  0  0  0  0  0  0
    3.4932   -4.6264    7.7181 H   0  0  0  0  0  0  0  0  0  0  0  0
    2.0934   -5.6757    7.6046 H   0  0  0  0  0  0  0  0  0  0  0  0
    2.7145   -4.9196    6.1556 H   0  0  0  0  0  0  0  0  0  0  0  0
    4.0629   -6.3937    9.0618 H   0  0  0  0  0  0  0  0  0  0  0  0
    3.2253   -7.8176    8.5524 H   0  0  0  0  0  0  0  0  0  0  0  0
    5.3540   -8.2631    9.7031 H   0  0  0  0  0  0  0  0  0  0  0  0
    5.2970   -9.0245    8.1871 H   0  0  0  0  0  0  0  0  0  0  0  0
    7.0360   -6.9050    9.1854 H   0  0  0  0  0  0  0  0  0  0  0  0
    7.3007   -8.7112    7.0869 H   0  0  0  0  0  0  0  0  0  0  0  0
    6.1163   -5.4057    7.9757 H   0  0  0  0  0  0  0  0  0  0  0  0
    8.2598   -6.3357    6.0235 H   0  0  0  0  0  0  0  0  0  0  0  0
    8.5334   -5.6550    7.6242 H   0  0  0  0  0  0  0  0  0  0  0  0
    7.8179   -4.6632    6.3942 H   0  0  0  0  0  0  0  0  0  0  0  0
    6.3033   -8.2175    5.8071 H   0  0  0  0  0  0  0  0  0  0  0  0
    6.0320   -7.2633    4.4639 H   0  0  0  0  0  0  0  0  0  0  0  0
    1.7367   -1.3773    5.5220 H   0  0  0  0  0  0  0  0  0  0  0  0
    1.1788   -2.5366    4.3352 H   0  0  0  0  0  0  0  0  0  0  0  0
    0.8081   -0.8389    4.1508 H   0  0  0  0  0  0  0  0  0  0  0  0
    4.4299    0.2302    3.7071 H   0  0  0  0  0  0  0  0  0  0  0  0
    3.2317    0.4402    4.9766 H   0  0  0  0  0  0  0  0  0  0  0  0
  1  2  1  0
  1 49  1  0
  1 50  1  0
  1 51  1  0
  2  3  1  0
  3 48  1  0
  3  4  1  0
  3 52  1  6
  4  5  1  0
  4 53  1  0
  4 54  1  0
  5 46  1  0
  5  6  1  6
  5  7  1  0
  6 55  1  0
  7  8  1  0
  7 56  1  0
  7 57  1  0
  8  9  1  0
  8 58  1  0
  8 59  1  0
  9 15  1  0
  9 10  1  0
  9 60  1  1
 10 11  1  0
 10 46  1  0
 10 61  1  6
 11 12  1  0
 11 62  1  0
 11 63  1  0
 12 13  1  0
 12 14  1  0
 12 64  1  6
 13 65  1  0
 14 44  1  0
 14 15  1  0
 14 66  1  6
 15 16  1  6
 15 17  1  0
 16 67  1  0
 16 68  1  0
 16 69  1  0
 17 18  1  0
 18 31  1  0
 18 19  1  0
 18 70  1  6
 19 26  1  0
 19 20  1  0
 19 71  1  6
 20 21  1  0
 20 22  1  0
 20 72  1  1
 21 73  1  0
 22 23  1  0
 22 24  1  0
 22 74  1  1
 23 75  1  0
 23 76  1  0
 23 77  1  0
 24 25  2  0
 24 26  1  0
 26 27  1  6
 26 28  1  0
 27 78  1  0
 27 79  1  0
 27 80  1  0
 28 31  1  0
 28 29  1  1
 28 33  1  0
 29 30  1  0
 29 81  1  0
 29 82  1  0
 30 31  1  0
 31 32  1  6
 32 83  1  0
 33 45  1  0
 33 34  1  1
 33 35  1  0
 34 84  1  0
 34 85  1  0
 34 86  1  0
 35 36  1  0
 35 87  1  0
 35 88  1  0
 36 44  1  0
 36 37  1  1
 36 38  1  0
 37 89  1  0
 37 90  1  0
 37 91  1  0
 38 39  1  0
 38 92  1  0
 38 93  1  0
 39 40  1  0
 39 94  1  0
 39 95  1  0
 40 41  1  0
 40 42  1  0
 40 96  1  1
 41 97  1  0
 42 43  1  0
 42 44  1  0
 42 98  1  1
 43 99  1  0
 43100  1  0
 43101  1  0
 44 45  1  6
 45102  1  0
 45103  1  0
 46 47  1  1
 46 48  1  0
 47104  1  0
 47105  1  0
 47106  1  0
 48107  1  0
 48108  1  0
M  END
>  <i_m_ct_stereo_status>  (96) 
1

>  <s_m_source_file>  (96) 
/var/tmp/pbs.5076255.sched01/tmpcdf8lnea/434bzo3qpq.sdf

>  <i_m_source_file_index>  (96) 
1

>  <i_lp_mmshare_version>  (96) 
48012

>  <i_f3d_flags>  (96) 
0

>  <s_epik_input>  (96) 
Tz1DMVtDQEhdKFtDSDNdKVtDQEhdKFtPSF0pW0NASF0oW0NAXTEoW0NAQF0yMzQpW0NIM10pW0NASF0oW0NAQF0zKFtPSF0pT1tDSDJdMilPW0NAQF01KFtDSDNdKVtDQEhdNltDQEBIXShbQ0BdNyhbQ0gzXSlbQ0BAXShbT0hdKShbQ0gyXVtDSDJdNilbQ0gyXVtDQEhdKFtDSDJdNylPW0NIM10pW0NIMl1bQ0BASF0oW09IXSlbQ0BIXTVbQ0BdODlbQ0BAXShbQ0gzXSkoW0NIMl1bQ0BdNChbQ0gzXSlbQ0gyXTkpW0NIMl1bQ0gyXVtDQEBIXShbT0hdKVtDQEhdOFtDSDNd

>  <s_epik_cmdline>  (96) 
J2VwaWtfcHl0aG9uJywgJy1waHQnLCAnMi4wJywgJy1waCcsICc3LjAnLCAnLXRuJywgJzgnLCAnLW1hJywgJzIwMCcsICctaW1hZScsICc8aW5maWxlLm1hZT4nLCAnLW9tYWUnLCAnPG91dGZpbGUubWFlPic=

>  <r_lp_tautomer_probability>  (96) 
1

>  <r_epik_Ionization_Penalty>  (96) 
3.64912e-06

>  <r_epik_Ionization_Penalty_Charging>  (96) 
0

>  <r_epik_Ionization_Penalty_Neutral>  (96) 
3.64912e-06

>  <r_epik_State_Penalty>  (96) 
-0

>  <r_epik_Charging_Adjusted_Penalty>  (96) 
0

>  <i_epik_Tot_Q>  (96) 
0

>  <i_epik_Tot_abs_Q>  (96) 
0

>  <s_lp_Force_Field>  (96) 
OPLS3e

>  <r_lp_Energy>  (96) 
186.101

>  <b_lp_Chiralities_Consistent>  (96) 
1

>  <s_lp_Variant>  (96) 
38:0-1

>  <s_i_glide_gridfile>  (96) 
pfpi4k_grid

>  <i_i_glide_lignum>  (96) 
1

>  <i_i_glide_rotatable_bonds>  (96) 
6

>  <r_i_docking_score>  (96) 
-2.24449

>  <r_i_glide_ligand_efficiency>  (96) 
-0.0467602

>  <r_i_glide_ligand_efficiency_sa>  (96) 
-0.169938

>  <r_i_glide_ligand_efficiency_ln>  (96) 
-0.460767

>  <r_i_glide_gscore>  (96) 
-2.24449

>  <r_i_glide_lipo>  (96) 
-0.0828939

>  <r_i_glide_hbond>  (96) 
-0.22081

>  <r_i_glide_metal>  (96) 
-0

>  <r_i_glide_rewards>  (96) 
0

>  <r_i_glide_evdw>  (96) 
-24.6668

>  <r_i_glide_ecoul>  (96) 
-4.5889

>  <r_i_glide_erotb>  (96) 
0

>  <r_i_glide_esite>  (96) 
-0.0191098

>  <r_i_glide_emodel>  (96) 
-33.5351

>  <r_i_glide_energy>  (96) 
-29.2557

>  <r_i_glide_einternal>  (96) 
0.897858

>  <r_i_glide_intrahb_reward>  (96) 
-0

>  <i_i_glide_confnum>  (96) 
1

>  <i_i_glide_posenum>  (96) 
34

>  <r_i_glide_eff_state_penalty>  (96) 
0

>  <ligand_id>  (96) 
38

>  <original_smiles>  (96) 
COC1CC2(O)CCC3C(CC(O)C4C3(C)OC3C5C(O)C(C)C(=O)C5(C)C5(COC35O)C3(C)CC5(C)CCC(O)C(C)C45C3)C2(C)C1

>  <smiles>  (96) 
[H]OC1([H])C([H])(C([H])([H])[H])C(=O)C2(C([H])([H])[H])C1([H])C1([H])OC3(C([H])([H])[H])C4([H])C([H])([H])C([H])([H])C5(O[H])C([H])([H])C([H])(OC([H])([H])[H])C([H])([H])C5(C([H])([H])[H])C4([H])C([H])([H])C([H])(O[H])C3([H])C34C([H])([H])C(C([H])([H])[H])(C([H])([H])C3(C([H])([H])[H])C([H])([H])C([H])([H])C([H])(O[H])C4([H])C([H])([H])[H])C23C([H])([H])OC13O[H]

$$$$
39:0:0
     RDKit          3D

 73 78  0  0  1  0  0  0  0  0999 V2000
    4.2622   -0.4723   -1.3448 C   0  0  0  0  0  0  0  0  0  0  0  0
    3.4022   -1.5072   -1.2254 C   0  0  0  0  0  0  0  0  0  0  0  0
    2.7455   -1.9950   -2.5246 C   0  0  0  0  0  0  0  0  0  0  0  0
    3.0147   -2.2285    0.1409 C   0  0  2  0  0  0  0  0  0  0  0  0
    1.8398   -3.0568   -0.1448 O   0  0  0  0  0  0  0  0  0  0  0  0
    2.6377   -4.2385   -0.3740 C   0  0  2  0  0  0  0  0  0  0  0  0
    2.0111   -5.6951    0.2846 C   0  0  0  0  0  0  0  0  0  0  0  0
    3.0488   -6.5587    1.3631 C   0  0  1  0  0  0  0  0  0  0  0  0
    4.1180   -5.9538    0.6474 C   0  0  0  0  0  0  0  0  0  0  0  0
    3.8325   -4.5353    1.4389 C   0  0  1  0  0  0  0  0  0  0  0  0
    2.4762   -4.1554    2.3410 C   0  0  0  0  0  0  0  0  0  0  0  0
    4.8242   -4.8933    2.4032 C   0  0  1  0  0  0  0  0  0  0  0  0
    5.4773   -3.4952    2.6930 C   0  0  2  0  0  0  0  0  0  0  0  0
    4.5953   -2.3212    3.3435 C   0  0  1  0  0  0  0  0  0  0  0  0
    5.3932   -1.6902    4.3392 O   0  0  0  0  0  0  0  0  0  0  0  0
    3.8398   -1.1155    2.6159 C   0  0  2  0  0  0  0  0  0  0  0  0
    4.8535   -0.1835    2.2772 O   0  0  0  0  0  0  0  0  0  0  0  0
    2.9896   -0.4311    3.7618 C   0  0  1  0  0  0  0  0  0  0  0  0
    2.9371    0.9877    3.6666 O   0  0  0  0  0  0  0  0  0  0  0  0
    1.5882   -0.9851    3.6325 C   0  0  0  0  0  0  0  0  0  0  0  0
    1.3981   -1.2188    2.1244 C   0  0  1  0  0  0  0  0  0  0  0  0
    0.4692   -0.2238    1.7203 O   0  0  0  0  0  0  0  0  0  0  0  0
    2.8036   -1.2136    1.4039 C   0  0  2  0  0  0  0  0  0  0  0  0
    2.7655    0.1052    0.8794 O   0  0  0  0  0  0  0  0  0  0  0  0
    6.2992   -3.1935    1.2846 C   0  0  0  0  0  0  0  0  0  0  0  0
    6.8950   -1.7729    1.2530 C   0  0  0  0  0  0  0  0  0  0  0  0
    7.5328   -4.1807    1.1364 C   0  0  0  0  0  0  0  0  0  0  0  0
    5.3808   -3.3393   -0.0128 C   0  0  1  0  0  0  0  0  0  0  0  0
    5.8080   -4.2333   -1.0170 O   0  0  0  0  0  0  0  0  0  0  0  0
    3.8766   -3.5258    0.3475 C   0  0  2  0  0  0  0  0  0  0  0  0
    3.9319   -6.2102    2.8163 C   0  0  0  0  0  0  0  0  0  0  0  0
    3.2041   -6.1708    4.2071 C   0  0  0  0  0  0  0  0  0  0  0  0
    4.8619   -7.4524    3.0688 C   0  0  0  0  0  0  0  0  0  0  0  0
    4.4177   -0.0108   -2.3224 H   0  0  0  0  0  0  0  0  0  0  0  0
    4.8218   -0.0582   -0.5027 H   0  0  0  0  0  0  0  0  0  0  0  0
    3.1330   -2.9343   -2.9307 H   0  0  0  0  0  0  0  0  0  0  0  0
    2.8315   -1.2479   -3.3150 H   0  0  0  0  0  0  0  0  0  0  0  0
    1.6872   -2.1539   -2.3863 H   0  0  0  0  0  0  0  0  0  0  0  0
    2.8454   -4.3205   -1.4341 H   0  0  0  0  0  0  0  0  0  0  0  0
    1.0211   -5.5776    0.7493 H   0  0  0  0  0  0  0  0  0  0  0  0
    1.7846   -6.2697   -0.5994 H   0  0  0  0  0  0  0  0  0  0  0  0
    2.9823   -7.6332    1.1922 H   0  0  0  0  0  0  0  0  0  0  0  0
    5.0661   -6.4769    0.6958 H   0  0  0  0  0  0  0  0  0  0  0  0
    4.0609   -6.0630   -0.4535 H   0  0  0  0  0  0  0  0  0  0  0  0
    2.5455   -3.4613    3.1277 H   0  0  0  0  0  0  0  0  0  0  0  0
    1.8752   -4.9558    2.7543 H   0  0  0  0  0  0  0  0  0  0  0  0
    1.6281   -3.8033    1.8281 H   0  0  0  0  0  0  0  0  0  0  0  0
    5.7347   -5.3932    2.1503 H   0  0  0  0  0  0  0  0  0  0  0  0
    6.2088   -3.7472    3.4644 H   0  0  0  0  0  0  0  0  0  0  0  0
    3.9942   -2.8141    4.1016 H   0  0  0  0  0  0  0  0  0  0  0  0
    6.1351   -1.3806    3.8827 H   0  0  0  0  0  0  0  0  0  0  0  0
    5.2324    0.0568    3.1096 H   0  0  0  0  0  0  0  0  0  0  0  0
    3.3250   -0.6261    4.7767 H   0  0  0  0  0  0  0  0  0  0  0  0
    2.6758    1.1884    2.7745 H   0  0  0  0  0  0  0  0  0  0  0  0
    1.4885   -1.9348    4.1685 H   0  0  0  0  0  0  0  0  0  0  0  0
    0.8418   -0.3150    4.0671 H   0  0  0  0  0  0  0  0  0  0  0  0
    0.7998   -2.1022    2.0053 H   0  0  0  0  0  0  0  0  0  0  0  0
    0.3367   -0.2357    0.7837 H   0  0  0  0  0  0  0  0  0  0  0  0
    2.0670    0.0878    0.2199 H   0  0  0  0  0  0  0  0  0  0  0  0
    7.9004   -1.7848    0.7931 H   0  0  0  0  0  0  0  0  0  0  0  0
    6.9712   -1.3412    2.2560 H   0  0  0  0  0  0  0  0  0  0  0  0
    6.3601   -1.1011    0.5738 H   0  0  0  0  0  0  0  0  0  0  0  0
    8.2260   -3.8689    0.3531 H   0  0  0  0  0  0  0  0  0  0  0  0
    7.2809   -5.2080    0.8639 H   0  0  0  0  0  0  0  0  0  0  0  0
    8.1013   -4.2426    2.0568 H   0  0  0  0  0  0  0  0  0  0  0  0
    5.5190   -2.4479   -0.5829 H   0  0  0  0  0  0  0  0  0  0  0  0
    5.5337   -5.1014   -0.7533 H   0  0  0  0  0  0  0  0  0  0  0  0
    3.7528   -6.6753    5.0026 H   0  0  0  0  0  0  0  0  0  0  0  0
    2.2315   -6.6652    4.1460 H   0  0  0  0  0  0  0  0  0  0  0  0
    3.0580   -5.1644    4.5877 H   0  0  0  0  0  0  0  0  0  0  0  0
    5.5652   -7.2643    3.8830 H   0  0  0  0  0  0  0  0  0  0  0  0
    5.4619   -7.7838    2.2179 H   0  0  0  0  0  0  0  0  0  0  0  0
    4.2640   -8.3199    3.3525 H   0  0  0  0  0  0  0  0  0  0  0  0
  1  2  2  0
  1 34  1  0
  1 35  1  0
  2  3  1  0
  4  2  1  6
  3 36  1  0
  3 37  1  0
  3 38  1  0
  4 23  1  0
 30  4  1  1
  4  5  1  0
  5  6  1  0
  6 30  1  0
  6  7  1  0
  6 39  1  6
  7  8  1  0
  7 40  1  0
  7 41  1  0
  8 31  1  0
  8  9  1  0
  8 42  1  6
  9 10  1  0
  9 43  1  0
  9 44  1  0
 10 30  1  0
 10 11  1  1
 10 12  1  0
 11 45  1  0
 11 46  1  0
 11 47  1  0
 12 13  1  0
 12 31  1  0
 12 48  1  6
 13 14  1  0
 13 25  1  0
 13 49  1  1
 14 15  1  0
 14 16  1  0
 14 50  1  1
 15 51  1  0
 16 23  1  0
 16 17  1  6
 16 18  1  0
 17 52  1  0
 18 19  1  0
 18 20  1  0
 18 53  1  1
 19 54  1  0
 20 21  1  0
 20 55  1  0
 20 56  1  0
 21 22  1  0
 21 23  1  0
 21 57  1  1
 22 58  1  0
 23 24  1  6
 24 59  1  0
 25 26  1  0
 25 27  1  0
 25 28  1  0
 26 60  1  0
 26 61  1  0
 26 62  1  0
 27 63  1  0
 27 64  1  0
 27 65  1  0
 28 29  1  0
 28 30  1  0
 28 66  1  6
 29 67  1  0
 31 32  1  0
 31 33  1  0
 32 68  1  0
 32 69  1  0
 32 70  1  0
 33 71  1  0
 33 72  1  0
 33 73  1  0
M  END
>  <i_m_ct_stereo_status>  (97) 
1

>  <s_m_source_file>  (97) 
/var/tmp/pbs.5076255.sched01/tmpcdf8lnea/434bzo3qpq.sdf

>  <i_m_source_file_index>  (97) 
2

>  <i_lp_mmshare_version>  (97) 
48012

>  <i_f3d_flags>  (97) 
0

>  <s_epik_input>  (97) 
W0NIMl09QyhbQ0gzXSlbQ0BAXTEoW0NAXTIzNClbQ0BdNShbT0hdKVtDQEBdKFtPSF0pKFtDQEBIXShbT0hdKVtDSDJdW0NASF01W09IXSlbQ0BIXShbT0hdKVtDQEhdKEMoW0NIM10pKFtDSDNdKVtDQEhdNFtPSF0pW0NIXTZbQ0BdMyhbQ0gzXSlbQ0gyXVtDQEhdKFtDSDJdW0NASF0yTzEpQzYoW0NIM10pW0NIM10=

>  <s_epik_cmdline>  (97) 
J2VwaWtfcHl0aG9uJywgJy1waHQnLCAnMi4wJywgJy1waCcsICc3LjAnLCAnLXRuJywgJzgnLCAnLW1hJywgJzIwMCcsICctaW1hZScsICc8aW5maWxlLm1hZT4nLCAnLW9tYWUnLCAnPG91dGZpbGUubWFlPic=

>  <r_lp_tautomer_probability>  (97) 
1

>  <r_epik_Ionization_Penalty>  (97) 
4.01234e-07

>  <r_epik_Ionization_Penalty_Charging>  (97) 
0

>  <r_epik_Ionization_Penalty_Neutral>  (97) 
4.01234e-07

>  <r_epik_State_Penalty>  (97) 
-0

>  <r_epik_Charging_Adjusted_Penalty>  (97) 
0

>  <i_epik_Tot_Q>  (97) 
0

>  <i_epik_Tot_abs_Q>  (97) 
0

>  <s_lp_Force_Field>  (97) 
OPLS3e

>  <r_lp_Energy>  (97) 
432.013

>  <b_lp_Chiralities_Consistent>  (97) 
1

>  <s_lp_Variant>  (97) 
39:0-1

>  <s_i_glide_gridfile>  (97) 
pfpi4k_grid

>  <i_i_glide_lignum>  (97) 
2

>  <i_i_glide_rotatable_bonds>  (97) 
7

>  <r_i_docking_score>  (97) 
-2.02295

>  <r_i_glide_ligand_efficiency>  (97) 
-0.0613016

>  <r_i_glide_ligand_efficiency_sa>  (97) 
-0.196627

>  <r_i_glide_ligand_efficiency_ln>  (97) 
-0.449894

>  <r_i_glide_gscore>  (97) 
-2.02295

>  <r_i_glide_lipo>  (97) 
-0.504961

>  <r_i_glide_hbond>  (97) 
-0.0473761

>  <r_i_glide_metal>  (97) 
-0

>  <r_i_glide_rewards>  (97) 
-0.741421

>  <r_i_glide_evdw>  (97) 
0.420729

>  <r_i_glide_ecoul>  (97) 
-5.62422

>  <r_i_glide_erotb>  (97) 
0.0934029

>  <r_i_glide_esite>  (97) 
0

>  <r_i_glide_emodel>  (97) 
-10.2287

>  <r_i_glide_energy>  (97) 
-5.20349

>  <r_i_glide_einternal>  (97) 
3.36021

>  <r_i_glide_intrahb_reward>  (97) 
-0.5

>  <i_i_glide_confnum>  (97) 
3

>  <i_i_glide_posenum>  (97) 
9

>  <r_i_glide_eff_state_penalty>  (97) 
0

>  <ligand_id>  (97) 
39

>  <original_smiles>  (97) 
C=C(C)C12OC3CC4CC5(C)C(C(C(O)C6(O)C(O)CC(O)C61O)C(C)(C)C(O)C352)C4(C)C

>  <smiles>  (97) 
[H]OC1([H])C([H])([H])C([H])(O[H])C2(O[H])C3(C(=C([H])[H])C([H])([H])[H])OC4([H])C([H])([H])C5([H])C([H])([H])C6(C([H])([H])[H])C([H])(C([H])(C([H])(O[H])C12O[H])C(C([H])([H])[H])(C([H])([H])[H])C([H])(O[H])C436)C5(C([H])([H])[H])C([H])([H])[H]

$$$$
39:0:1
     RDKit          3D

 73 78  0  0  1  0  0  0  0  0999 V2000
    4.2525   -0.4614   -1.3352 C   0  0  0  0  0  0  0  0  0  0  0  0
    3.3916   -1.4871   -1.2091 C   0  0  0  0  0  0  0  0  0  0  0  0
    2.7390   -1.9851   -2.5152 C   0  0  0  0  0  0  0  0  0  0  0  0
    3.0076   -2.2301    0.1605 C   0  0  2  0  0  0  0  0  0  0  0  0
    1.8385   -3.0913   -0.1350 O   0  0  0  0  0  0  0  0  0  0  0  0
    2.6393   -4.2501   -0.3650 C   0  0  2  0  0  0  0  0  0  0  0  0
    2.0167   -5.6990    0.3016 C   0  0  0  0  0  0  0  0  0  0  0  0
    3.0583   -6.5608    1.3717 C   0  0  1  0  0  0  0  0  0  0  0  0
    4.1234   -5.9509    0.6495 C   0  0  0  0  0  0  0  0  0  0  0  0
    3.8358   -4.5341    1.4389 C   0  0  1  0  0  0  0  0  0  0  0  0
    2.4877   -4.1588    2.3500 C   0  0  0  0  0  0  0  0  0  0  0  0
    4.8334   -4.8872    2.4108 C   0  0  1  0  0  0  0  0  0  0  0  0
    5.4782   -3.4908    2.6835 C   0  0  2  0  0  0  0  0  0  0  0  0
    4.6188   -2.3362    3.3577 C   0  0  1  0  0  0  0  0  0  0  0  0
    5.4427   -1.6862    4.2804 O   0  0  0  0  0  0  0  0  0  0  0  0
    3.8529   -1.1067    2.6391 C   0  0  2  0  0  0  0  0  0  0  0  0
    4.8651   -0.1716    2.3053 O   0  0  0  0  0  0  0  0  0  0  0  0
    2.9972   -0.4243    3.7761 C   0  0  1  0  0  0  0  0  0  0  0  0
    2.9447    0.9870    3.6917 O   0  0  0  0  0  0  0  0  0  0  0  0
    1.5914   -0.9758    3.6341 C   0  0  0  0  0  0  0  0  0  0  0  0
    1.3930   -1.2003    2.1356 C   0  0  1  0  0  0  0  0  0  0  0  0
    0.4663   -0.2206    1.6632 O   0  0  0  0  0  0  0  0  0  0  0  0
    2.8054   -1.1985    1.4211 C   0  0  2  0  0  0  0  0  0  0  0  0
    2.8061    0.1090    0.8774 O   0  0  0  0  0  0  0  0  0  0  0  0
    6.3118   -3.1963    1.2830 C   0  0  0  0  0  0  0  0  0  0  0  0
    6.9486   -1.7725    1.1953 C   0  0  0  0  0  0  0  0  0  0  0  0
    7.5389   -4.1750    1.1367 C   0  0  0  0  0  0  0  0  0  0  0  0
    5.3771   -3.3480   -0.0151 C   0  0  1  0  0  0  0  0  0  0  0  0
    5.8050   -4.2489   -1.0172 O   0  0  0  0  0  0  0  0  0  0  0  0
    3.8740   -3.5248    0.3447 C   0  0  2  0  0  0  0  0  0  0  0  0
    3.9487   -6.2180    2.8219 C   0  0  0  0  0  0  0  0  0  0  0  0
    3.2252   -6.1731    4.2158 C   0  0  0  0  0  0  0  0  0  0  0  0
    4.8808   -7.4539    3.0731 C   0  0  0  0  0  0  0  0  0  0  0  0
    4.4055   -0.0115   -2.3040 H   0  0  0  0  0  0  0  0  0  0  0  0
    4.8061   -0.0481   -0.4941 H   0  0  0  0  0  0  0  0  0  0  0  0
    3.1125   -2.9316   -2.9099 H   0  0  0  0  0  0  0  0  0  0  0  0
    2.8234   -1.2428   -3.3077 H   0  0  0  0  0  0  0  0  0  0  0  0
    1.6809   -2.1378   -2.3727 H   0  0  0  0  0  0  0  0  0  0  0  0
    2.8386   -4.3284   -1.4189 H   0  0  0  0  0  0  0  0  0  0  0  0
    1.0318   -5.5843    0.7697 H   0  0  0  0  0  0  0  0  0  0  0  0
    1.7833   -6.2852   -0.5717 H   0  0  0  0  0  0  0  0  0  0  0  0
    3.0009   -7.6350    1.2023 H   0  0  0  0  0  0  0  0  0  0  0  0
    5.0795   -6.4743    0.7055 H   0  0  0  0  0  0  0  0  0  0  0  0
    4.0705   -6.0573   -0.4471 H   0  0  0  0  0  0  0  0  0  0  0  0
    2.5656   -3.4652    3.1349 H   0  0  0  0  0  0  0  0  0  0  0  0
    1.8928   -4.9577    2.7692 H   0  0  0  0  0  0  0  0  0  0  0  0
    1.6424   -3.8026    1.8373 H   0  0  0  0  0  0  0  0  0  0  0  0
    5.7462   -5.3919    2.1555 H   0  0  0  0  0  0  0  0  0  0  0  0
    6.2092   -3.7643    3.4816 H   0  0  0  0  0  0  0  0  0  0  0  0
    4.0050   -2.7990    4.1340 H   0  0  0  0  0  0  0  0  0  0  0  0
    4.9407   -1.1667    4.8862 H   0  0  0  0  0  0  0  0  0  0  0  0
    5.3897   -0.0967    3.0870 H   0  0  0  0  0  0  0  0  0  0  0  0
    3.3550   -0.6375    4.7812 H   0  0  0  0  0  0  0  0  0  0  0  0
    2.6834    1.1958    2.8031 H   0  0  0  0  0  0  0  0  0  0  0  0
    1.5048   -1.9262    4.1669 H   0  0  0  0  0  0  0  0  0  0  0  0
    0.8452   -0.3082    4.0701 H   0  0  0  0  0  0  0  0  0  0  0  0
    0.8080   -2.0903    2.0196 H   0  0  0  0  0  0  0  0  0  0  0  0
    0.3689   -0.2700    0.7407 H   0  0  0  0  0  0  0  0  0  0  0  0
    2.0916    0.1003    0.2519 H   0  0  0  0  0  0  0  0  0  0  0  0
    7.9570   -1.7781    0.7362 H   0  0  0  0  0  0  0  0  0  0  0  0
    6.9441   -1.3303    2.1835 H   0  0  0  0  0  0  0  0  0  0  0  0
    6.3638   -1.0778    0.5704 H   0  0  0  0  0  0  0  0  0  0  0  0
    8.2384   -3.8670    0.3586 H   0  0  0  0  0  0  0  0  0  0  0  0
    7.2974   -5.2044    0.8658 H   0  0  0  0  0  0  0  0  0  0  0  0
    8.1122   -4.2421    2.0571 H   0  0  0  0  0  0  0  0  0  0  0  0
    5.5188   -2.4408   -0.5884 H   0  0  0  0  0  0  0  0  0  0  0  0
    5.5505   -5.1131   -0.7371 H   0  0  0  0  0  0  0  0  0  0  0  0
    3.7756   -6.6721    5.0121 H   0  0  0  0  0  0  0  0  0  0  0  0
    2.2548   -6.6637    4.1636 H   0  0  0  0  0  0  0  0  0  0  0  0
    3.0822   -5.1617    4.5965 H   0  0  0  0  0  0  0  0  0  0  0  0
    5.5843   -7.2665    3.8850 H   0  0  0  0  0  0  0  0  0  0  0  0
    5.4765   -7.7826    2.2261 H   0  0  0  0  0  0  0  0  0  0  0  0
    4.2856   -8.3205    3.3601 H   0  0  0  0  0  0  0  0  0  0  0  0
  1  2  2  0
  1 34  1  0
  1 35  1  0
  2  3  1  0
  4  2  1  6
  3 36  1  0
  3 37  1  0
  3 38  1  0
  4 23  1  0
 30  4  1  1
  4  5  1  0
  5  6  1  0
  6 30  1  0
  6  7  1  0
  6 39  1  6
  7  8  1  0
  7 40  1  0
  7 41  1  0
  8 31  1  0
  8  9  1  0
  8 42  1  6
  9 10  1  0
  9 43  1  0
  9 44  1  0
 10 30  1  0
 10 11  1  1
 10 12  1  0
 11 45  1  0
 11 46  1  0
 11 47  1  0
 12 13  1  0
 12 31  1  0
 12 48  1  6
 13 14  1  0
 13 25  1  0
 13 49  1  1
 14 15  1  0
 14 16  1  0
 14 50  1  1
 15 51  1  0
 16 23  1  0
 16 17  1  6
 16 18  1  0
 17 52  1  0
 18 19  1  0
 18 20  1  0
 18 53  1  1
 19 54  1  0
 20 21  1  0
 20 55  1  0
 20 56  1  0
 21 22  1  0
 21 23  1  0
 21 57  1  1
 22 58  1  0
 23 24  1  6
 24 59  1  0
 25 26  1  0
 25 27  1  0
 25 28  1  0
 26 60  1  0
 26 61  1  0
 26 62  1  0
 27 63  1  0
 27 64  1  0
 27 65  1  0
 28 29  1  0
 28 30  1  0
 28 66  1  6
 29 67  1  0
 31 32  1  0
 31 33  1  0
 32 68  1  0
 32 69  1  0
 32 70  1  0
 33 71  1  0
 33 72  1  0
 33 73  1  0
M  END
>  <i_m_ct_stereo_status>  (98) 
1

>  <s_m_source_file>  (98) 
/var/tmp/pbs.5076255.sched01/tmpcdf8lnea/434bzo3qpq.sdf

>  <i_m_source_file_index>  (98) 
2

>  <i_lp_mmshare_version>  (98) 
48012

>  <i_f3d_flags>  (98) 
0

>  <s_epik_input>  (98) 
W0NIMl09QyhbQ0gzXSlbQ0BAXTEoW0NAXTIzNClbQ0BdNShbT0hdKVtDQEBdKFtPSF0pKFtDQEBIXShbT0hdKVtDSDJdW0NASF01W09IXSlbQ0BIXShbT0hdKVtDQEhdKEMoW0NIM10pKFtDSDNdKVtDQEhdNFtPSF0pW0NIXTZbQ0BdMyhbQ0gzXSlbQ0gyXVtDQEhdKFtDSDJdW0NASF0yTzEpQzYoW0NIM10pW0NIM10=

>  <s_epik_cmdline>  (98) 
J2VwaWtfcHl0aG9uJywgJy1waHQnLCAnMi4wJywgJy1waCcsICc3LjAnLCAnLXRuJywgJzgnLCAnLW1hJywgJzIwMCcsICctaW1hZScsICc8aW5maWxlLm1hZT4nLCAnLW9tYWUnLCAnPG91dGZpbGUubWFlPic=

>  <r_lp_tautomer_probability>  (98) 
1

>  <r_epik_Ionization_Penalty>  (98) 
4.01234e-07

>  <r_epik_Ionization_Penalty_Charging>  (98) 
0

>  <r_epik_Ionization_Penalty_Neutral>  (98) 
4.01234e-07

>  <r_epik_State_Penalty>  (98) 
-0

>  <r_epik_Charging_Adjusted_Penalty>  (98) 
0

>  <i_epik_Tot_Q>  (98) 
0

>  <i_epik_Tot_abs_Q>  (98) 
0

>  <s_lp_Force_Field>  (98) 
OPLS3e

>  <r_lp_Energy>  (98) 
432.013

>  <b_lp_Chiralities_Consistent>  (98) 
1

>  <s_lp_Variant>  (98) 
39:0-1

>  <s_i_glide_gridfile>  (98) 
pfpi4k_grid

>  <i_i_glide_lignum>  (98) 
2

>  <i_i_glide_rotatable_bonds>  (98) 
7

>  <r_i_docking_score>  (98) 
-1.99027

>  <r_i_glide_ligand_efficiency>  (98) 
-0.0603111

>  <r_i_glide_ligand_efficiency_sa>  (98) 
-0.19345

>  <r_i_glide_ligand_efficiency_ln>  (98) 
-0.442625

>  <r_i_glide_gscore>  (98) 
-1.99027

>  <r_i_glide_lipo>  (98) 
-0.49591

>  <r_i_glide_hbond>  (98) 
-0.0445278

>  <r_i_glide_metal>  (98) 
-0

>  <r_i_glide_rewards>  (98) 
-0.741421

>  <r_i_glide_evdw>  (98) 
3.1562

>  <r_i_glide_ecoul>  (98) 
-6.39747

>  <r_i_glide_erotb>  (98) 
0.0934029

>  <r_i_glide_esite>  (98) 
0

>  <r_i_glide_emodel>  (98) 
-7.94356

>  <r_i_glide_energy>  (98) 
-3.24127

>  <r_i_glide_einternal>  (98) 
3.49428

>  <r_i_glide_intrahb_reward>  (98) 
-0.5

>  <i_i_glide_confnum>  (98) 
1

>  <i_i_glide_posenum>  (98) 
5

>  <r_i_glide_eff_state_penalty>  (98) 
0

>  <ligand_id>  (98) 
39

>  <original_smiles>  (98) 
C=C(C)C12OC3CC4CC5(C)C(C(C(O)C6(O)C(O)CC(O)C61O)C(C)(C)C(O)C352)C4(C)C

>  <smiles>  (98) 
[H]OC1([H])C([H])([H])C([H])(O[H])C2(O[H])C3(C(=C([H])[H])C([H])([H])[H])OC4([H])C([H])([H])C5([H])C([H])([H])C6(C([H])([H])[H])C([H])(C([H])(C([H])(O[H])C12O[H])C(C([H])([H])[H])(C([H])([H])[H])C([H])(O[H])C436)C5(C([H])([H])[H])C([H])([H])[H]

$$$$
39:0:2
     RDKit          3D

 73 78  0  0  1  0  0  0  0  0999 V2000
    2.6374   -1.5715   -2.2915 C   0  0  0  0  0  0  0  0  0  0  0  0
    3.3994   -1.5006   -1.1568 C   0  0  0  0  0  0  0  0  0  0  0  0
    4.6245   -0.5855   -1.2753 C   0  0  0  0  0  0  0  0  0  0  0  0
    2.9918   -2.2467    0.1827 C   0  0  2  0  0  0  0  0  0  0  0  0
    1.8324   -3.0565   -0.1205 O   0  0  0  0  0  0  0  0  0  0  0  0
    2.5969   -4.2472   -0.3417 C   0  0  2  0  0  0  0  0  0  0  0  0
    2.0138   -5.7192    0.3400 C   0  0  0  0  0  0  0  0  0  0  0  0
    3.0130   -6.5661    1.4603 C   0  0  1  0  0  0  0  0  0  0  0  0
    4.0872   -5.9599    0.7646 C   0  0  0  0  0  0  0  0  0  0  0  0
    3.7933   -4.5415    1.5229 C   0  0  1  0  0  0  0  0  0  0  0  0
    2.4188   -4.1446    2.3924 C   0  0  0  0  0  0  0  0  0  0  0  0
    4.7758   -4.8994    2.5149 C   0  0  1  0  0  0  0  0  0  0  0  0
    5.4495   -3.5070    2.7836 C   0  0  2  0  0  0  0  0  0  0  0  0
    4.5802   -2.3197    3.4289 C   0  0  1  0  0  0  0  0  0  0  0  0
    5.3426   -1.7137    4.4624 O   0  0  0  0  0  0  0  0  0  0  0  0
    3.8189   -1.0972    2.6883 C   0  0  2  0  0  0  0  0  0  0  0  0
    4.8215   -0.1512    2.3633 O   0  0  0  0  0  0  0  0  0  0  0  0
    2.9269   -0.3986    3.7873 C   0  0  1  0  0  0  0  0  0  0  0  0
    2.8714    1.0177    3.6851 O   0  0  0  0  0  0  0  0  0  0  0  0
    1.5158   -0.9442    3.6337 C   0  0  0  0  0  0  0  0  0  0  0  0
    1.3438   -1.1892    2.1376 C   0  0  1  0  0  0  0  0  0  0  0  0
    0.4368   -0.1849    1.6937 O   0  0  0  0  0  0  0  0  0  0  0  0
    2.7727   -1.2087    1.4477 C   0  0  2  0  0  0  0  0  0  0  0  0
    2.7534    0.1115    0.9205 O   0  0  0  0  0  0  0  0  0  0  0  0
    6.2853   -3.2343    1.3785 C   0  0  0  0  0  0  0  0  0  0  0  0
    6.9048   -1.8077    1.2878 C   0  0  0  0  0  0  0  0  0  0  0  0
    7.5175   -4.2029    1.2354 C   0  0  0  0  0  0  0  0  0  0  0  0
    5.3821   -3.4639    0.1031 C   0  0  1  0  0  0  0  0  0  0  0  0
    5.7966   -4.3619   -0.8660 O   0  0  0  0  0  0  0  0  0  0  0  0
    3.8466   -3.5556    0.4012 C   0  0  2  0  0  0  0  0  0  0  0  0
    3.8726   -6.2103    2.9179 C   0  0  0  0  0  0  0  0  0  0  0  0
    3.1162   -6.1445    4.2897 C   0  0  0  0  0  0  0  0  0  0  0  0
    4.7953   -7.4489    3.1939 C   0  0  0  0  0  0  0  0  0  0  0  0
    2.8844   -1.0085   -3.1685 H   0  0  0  0  0  0  0  0  0  0  0  0
    1.7456   -2.1895   -2.3698 H   0  0  0  0  0  0  0  0  0  0  0  0
    4.4673    0.2302   -0.5891 H   0  0  0  0  0  0  0  0  0  0  0  0
    4.7095   -0.1665   -2.2786 H   0  0  0  0  0  0  0  0  0  0  0  0
    5.6081   -0.9061   -1.0359 H   0  0  0  0  0  0  0  0  0  0  0  0
    2.8055   -4.3405   -1.4145 H   0  0  0  0  0  0  0  0  0  0  0  0
    1.0180   -5.6060    0.7542 H   0  0  0  0  0  0  0  0  0  0  0  0
    1.7840   -6.3621   -0.4896 H   0  0  0  0  0  0  0  0  0  0  0  0
    2.9578   -7.6395    1.2804 H   0  0  0  0  0  0  0  0  0  0  0  0
    5.0497   -6.4734    0.8302 H   0  0  0  0  0  0  0  0  0  0  0  0
    4.0866   -6.0583   -0.3285 H   0  0  0  0  0  0  0  0  0  0  0  0
    2.4888   -3.4318    3.1727 H   0  0  0  0  0  0  0  0  0  0  0  0
    1.8108   -4.9316    2.8151 H   0  0  0  0  0  0  0  0  0  0  0  0
    1.5807   -3.8071    1.8426 H   0  0  0  0  0  0  0  0  0  0  0  0
    5.6943   -5.4076    2.2886 H   0  0  0  0  0  0  0  0  0  0  0  0
    6.1924   -3.7626    3.5392 H   0  0  0  0  0  0  0  0  0  0  0  0
    3.9511   -2.7786    4.1779 H   0  0  0  0  0  0  0  0  0  0  0  0
    5.7809   -2.3742    4.9399 H   0  0  0  0  0  0  0  0  0  0  0  0
    4.3804    0.6693    2.1743 H   0  0  0  0  0  0  0  0  0  0  0  0
    3.2521   -0.6008    4.8044 H   0  0  0  0  0  0  0  0  0  0  0  0
    2.5283    1.2445    2.8285 H   0  0  0  0  0  0  0  0  0  0  0  0
    1.4140   -1.8871    4.1614 H   0  0  0  0  0  0  0  0  0  0  0  0
    0.7464   -0.2921    4.0509 H   0  0  0  0  0  0  0  0  0  0  0  0
    0.7432   -2.0757    2.0082 H   0  0  0  0  0  0  0  0  0  0  0  0
    0.3436   -0.2535    0.7593 H   0  0  0  0  0  0  0  0  0  0  0  0
    2.0734    0.1176    0.2375 H   0  0  0  0  0  0  0  0  0  0  0  0
    7.9178   -1.7882    0.8800 H   0  0  0  0  0  0  0  0  0  0  0  0
    6.9822   -1.4185    2.3039 H   0  0  0  0  0  0  0  0  0  0  0  0
    6.3455   -1.0467    0.7751 H   0  0  0  0  0  0  0  0  0  0  0  0
    8.2253   -3.8786    0.4787 H   0  0  0  0  0  0  0  0  0  0  0  0
    7.2587   -5.2314    0.9852 H   0  0  0  0  0  0  0  0  0  0  0  0
    8.1097   -4.2838    2.1338 H   0  0  0  0  0  0  0  0  0  0  0  0
    5.5831   -2.6652   -0.5179 H   0  0  0  0  0  0  0  0  0  0  0  0
    5.1386   -4.3670   -1.5608 H   0  0  0  0  0  0  0  0  0  0  0  0
    3.6379   -6.6354    5.1108 H   0  0  0  0  0  0  0  0  0  0  0  0
    2.1404   -6.6265    4.2218 H   0  0  0  0  0  0  0  0  0  0  0  0
    2.9709   -5.1277    4.6537 H   0  0  0  0  0  0  0  0  0  0  0  0
    5.4887   -7.2613    4.0141 H   0  0  0  0  0  0  0  0  0  0  0  0
    5.4080   -7.7831    2.3599 H   0  0  0  0  0  0  0  0  0  0  0  0
    4.2012   -8.3205    3.4745 H   0  0  0  0  0  0  0  0  0  0  0  0
  1  2  2  0
  1 34  1  0
  1 35  1  0
  2  3  1  0
  4  2  1  6
  3 36  1  0
  3 37  1  0
  3 38  1  0
  4 23  1  0
 30  4  1  1
  4  5  1  0
  5  6  1  0
  6 30  1  0
  6  7  1  0
  6 39  1  6
  7  8  1  0
  7 40  1  0
  7 41  1  0
  8 31  1  0
  8  9  1  0
  8 42  1  6
  9 10  1  0
  9 43  1  0
  9 44  1  0
 10 30  1  0
 10 11  1  1
 10 12  1  0
 11 45  1  0
 11 46  1  0
 11 47  1  0
 12 13  1  0
 12 31  1  0
 12 48  1  6
 13 14  1  0
 13 25  1  0
 13 49  1  1
 14 15  1  0
 14 16  1  0
 14 50  1  1
 15 51  1  0
 16 23  1  0
 16 17  1  6
 16 18  1  0
 17 52  1  0
 18 19  1  0
 18 20  1  0
 18 53  1  1
 19 54  1  0
 20 21  1  0
 20 55  1  0
 20 56  1  0
 21 22  1  0
 21 23  1  0
 21 57  1  1
 22 58  1  0
 23 24  1  6
 24 59  1  0
 25 26  1  0
 25 27  1  0
 25 28  1  0
 26 60  1  0
 26 61  1  0
 26 62  1  0
 27 63  1  0
 27 64  1  0
 27 65  1  0
 28 29  1  0
 28 30  1  0
 28 66  1  6
 29 67  1  0
 31 32  1  0
 31 33  1  0
 32 68  1  0
 32 69  1  0
 32 70  1  0
 33 71  1  0
 33 72  1  0
 33 73  1  0
M  END
>  <i_m_ct_stereo_status>  (99) 
1

>  <s_m_source_file>  (99) 
/var/tmp/pbs.5076255.sched01/tmpcdf8lnea/434bzo3qpq.sdf

>  <i_m_source_file_index>  (99) 
2

>  <i_lp_mmshare_version>  (99) 
48012

>  <i_f3d_flags>  (99) 
0

>  <s_epik_input>  (99) 
W0NIMl09QyhbQ0gzXSlbQ0BAXTEoW0NAXTIzNClbQ0BdNShbT0hdKVtDQEBdKFtPSF0pKFtDQEBIXShbT0hdKVtDSDJdW0NASF01W09IXSlbQ0BIXShbT0hdKVtDQEhdKEMoW0NIM10pKFtDSDNdKVtDQEhdNFtPSF0pW0NIXTZbQ0BdMyhbQ0gzXSlbQ0gyXVtDQEhdKFtDSDJdW0NASF0yTzEpQzYoW0NIM10pW0NIM10=

>  <s_epik_cmdline>  (99) 
J2VwaWtfcHl0aG9uJywgJy1waHQnLCAnMi4wJywgJy1waCcsICc3LjAnLCAnLXRuJywgJzgnLCAnLW1hJywgJzIwMCcsICctaW1hZScsICc8aW5maWxlLm1hZT4nLCAnLW9tYWUnLCAnPG91dGZpbGUubWFlPic=

>  <r_lp_tautomer_probability>  (99) 
1

>  <r_epik_Ionization_Penalty>  (99) 
4.01234e-07

>  <r_epik_Ionization_Penalty_Charging>  (99) 
0

>  <r_epik_Ionization_Penalty_Neutral>  (99) 
4.01234e-07

>  <r_epik_State_Penalty>  (99) 
-0

>  <r_epik_Charging_Adjusted_Penalty>  (99) 
0

>  <i_epik_Tot_Q>  (99) 
0

>  <i_epik_Tot_abs_Q>  (99) 
0

>  <s_lp_Force_Field>  (99) 
OPLS3e

>  <r_lp_Energy>  (99) 
432.013

>  <b_lp_Chiralities_Consistent>  (99) 
1

>  <s_lp_Variant>  (99) 
39:0-1

>  <s_i_glide_gridfile>  (99) 
pfpi4k_grid

>  <i_i_glide_lignum>  (99) 
2

>  <i_i_glide_rotatable_bonds>  (99) 
7

>  <r_i_docking_score>  (99) 
-1.90484

>  <r_i_glide_ligand_efficiency>  (99) 
-0.0577224

>  <r_i_glide_ligand_efficiency_sa>  (99) 
-0.185147

>  <r_i_glide_ligand_efficiency_ln>  (99) 
-0.423627

>  <r_i_glide_gscore>  (99) 
-1.90484

>  <r_i_glide_lipo>  (99) 
-0.479597

>  <r_i_glide_hbond>  (99) 
-0.0458258

>  <r_i_glide_metal>  (99) 
-0

>  <r_i_glide_rewards>  (99) 
-0.741421

>  <r_i_glide_evdw>  (99) 
6.91944

>  <r_i_glide_ecoul>  (99) 
-7.18248

>  <r_i_glide_erotb>  (99) 
0.0934029

>  <r_i_glide_esite>  (99) 
0

>  <r_i_glide_emodel>  (99) 
-5.66028

>  <r_i_glide_energy>  (99) 
-0.263039

>  <r_i_glide_einternal>  (99) 
3.1844

>  <r_i_glide_intrahb_reward>  (99) 
-0.5

>  <i_i_glide_confnum>  (99) 
1

>  <i_i_glide_posenum>  (99) 
6

>  <r_i_glide_eff_state_penalty>  (99) 
0

>  <ligand_id>  (99) 
39

>  <original_smiles>  (99) 
C=C(C)C12OC3CC4CC5(C)C(C(C(O)C6(O)C(O)CC(O)C61O)C(C)(C)C(O)C352)C4(C)C

>  <smiles>  (99) 
[H]OC1([H])C([H])([H])C([H])(O[H])C2(O[H])C3(C(=C([H])[H])C([H])([H])[H])OC4([H])C([H])([H])C5([H])C([H])([H])C6(C([H])([H])[H])C([H])(C([H])(C([H])(O[H])C12O[H])C(C([H])([H])[H])(C([H])([H])[H])C([H])(O[H])C436)C5(C([H])([H])[H])C([H])([H])[H]

$$$$
40:0:0
     RDKit          3D

 49 53  0  0  1  0  0  0  0  0999 V2000
    3.7062   -1.2555   -2.9706 C   0  0  0  0  0  0  0  0  0  0  0  0
    4.0892   -1.9325   -1.6473 C   0  0  2  0  0  0  0  0  0  0  0  0
    5.0947   -1.0328   -0.8995 C   0  0  0  0  0  0  0  0  0  0  0  0
    6.0669   -1.8202   -0.0068 C   0  0  1  0  0  0  0  0  0  0  0  0
    5.5489   -2.6287    1.1605 C   0  0  1  0  0  0  0  0  0  0  0  0
    4.3322   -2.4281    2.0129 C   0  0  0  0  0  0  0  0  0  0  0  0
    4.2024   -3.6428    2.7733 O   0  0  0  0  0  0  0  0  0  0  0  0
    4.5040   -4.8977    2.1524 C   0  0  2  0  0  0  0  0  0  0  0  0
    4.8188   -5.8960    3.2979 C   0  0  0  0  0  0  0  0  0  0  0  0
    6.0377   -5.4628    4.1422 C   0  0  0  0  0  0  0  0  0  0  0  0
    6.1206   -6.2650    5.2066 F   0  0  0  0  0  0  0  0  0  0  0  0
    7.1693   -5.5720    3.4489 F   0  0  0  0  0  0  0  0  0  0  0  0
    5.6513   -4.8652    1.3171 O   0  0  0  0  0  0  0  0  0  0  0  0
    5.5167   -3.8801    0.3051 C   0  0  1  0  0  0  0  0  0  0  0  0
    4.4491   -4.3256   -0.6574 C   0  0  1  0  0  0  0  0  0  0  0  0
    3.0871   -4.5674    0.0121 C   0  0  0  0  0  0  0  0  0  0  0  0
    3.3002   -5.4138    1.2902 C   0  0  2  0  0  0  0  0  0  0  0  0
    1.8125   -5.4961    2.2532 Cl  0  0  0  0  0  0  0  0  0  0  0  0
    4.6404   -3.3721   -1.8426 C   0  0  2  0  0  0  0  0  0  0  0  0
    6.0815   -3.3134   -1.8695 O   0  0  0  0  0  0  0  0  0  0  0  0
    6.6015   -3.1901   -0.5322 C   0  0  1  0  0  0  0  0  0  0  0  0
    8.0942   -3.6252   -0.4873 C   0  0  0  0  0  0  0  0  0  0  0  0
    8.3728   -4.8531    0.3984 C   0  0  0  0  0  0  0  0  0  0  0  0
    9.0496   -2.5017   -0.0920 C   0  0  0  0  0  0  0  0  0  0  0  0
    4.5649   -1.1301   -3.6260 H   0  0  0  0  0  0  0  0  0  0  0  0
    3.3056   -0.2618   -2.7666 H   0  0  0  0  0  0  0  0  0  0  0  0
    2.9418   -1.8110   -3.5026 H   0  0  0  0  0  0  0  0  0  0  0  0
    3.1793   -1.9664   -1.0462 H   0  0  0  0  0  0  0  0  0  0  0  0
    5.6656   -0.4536   -1.6415 H   0  0  0  0  0  0  0  0  0  0  0  0
    4.5642   -0.2823   -0.3067 H   0  0  0  0  0  0  0  0  0  0  0  0
    6.8310   -1.1481    0.3652 H   0  0  0  0  0  0  0  0  0  0  0  0
    6.4155   -2.7115    1.8139 H   0  0  0  0  0  0  0  0  0  0  0  0
    4.4350   -1.5811    2.6962 H   0  0  0  0  0  0  0  0  0  0  0  0
    3.4436   -2.2157    1.4245 H   0  0  0  0  0  0  0  0  0  0  0  0
    3.9539   -5.9685    3.9521 H   0  0  0  0  0  0  0  0  0  0  0  0
    5.0059   -6.8816    2.8811 H   0  0  0  0  0  0  0  0  0  0  0  0
    5.9567   -4.4382    4.5130 H   0  0  0  0  0  0  0  0  0  0  0  0
    4.7586   -5.3117   -1.0362 H   0  0  0  0  0  0  0  0  0  0  0  0
    2.5536   -3.6472    0.2263 H   0  0  0  0  0  0  0  0  0  0  0  0
    2.4415   -5.1036   -0.6791 H   0  0  0  0  0  0  0  0  0  0  0  0
    3.5372   -6.4299    0.9881 H   0  0  0  0  0  0  0  0  0  0  0  0
    4.2527   -3.8158   -2.7475 H   0  0  0  0  0  0  0  0  0  0  0  0
    8.3924   -3.8896   -1.4994 H   0  0  0  0  0  0  0  0  0  0  0  0
    8.1561   -4.6104    1.4384 H   0  0  0  0  0  0  0  0  0  0  0  0
    9.4113   -5.1915    0.3714 H   0  0  0  0  0  0  0  0  0  0  0  0
    7.7554   -5.7035    0.1006 H   0  0  0  0  0  0  0  0  0  0  0  0
    8.8125   -2.1039    0.8837 H   0  0  0  0  0  0  0  0  0  0  0  0
    8.9896   -1.6920   -0.8090 H   0  0  0  0  0  0  0  0  0  0  0  0
   10.0842   -2.8387   -0.0512 H   0  0  0  0  0  0  0  0  0  0  0  0
  1  2  1  0
  1 25  1  0
  1 26  1  0
  1 27  1  0
  2 19  1  0
  2  3  1  0
  2 28  1  1
  3  4  1  0
  3 29  1  0
  3 30  1  0
  4 21  1  0
  4  5  1  0
  4 31  1  1
  5 14  1  0
  5  6  1  0
  5 32  1  1
  6  7  1  0
  6 33  1  0
  6 34  1  0
  7  8  1  0
  8 17  1  0
  8  9  1  1
  8 13  1  0
  9 10  1  0
  9 35  1  0
  9 36  1  0
 10 11  1  0
 10 12  1  0
 10 37  1  0
 14 13  1  1
 14 21  1  0
 14 15  1  0
 15 16  1  0
 15 19  1  0
 15 38  1  6
 16 17  1  0
 16 39  1  0
 16 40  1  0
 17 18  1  0
 17 41  1  6
 19 20  1  0
 19 42  1  6
 20 21  1  0
 21 22  1  6
 22 23  1  0
 22 24  1  0
 22 43  1  0
 23 44  1  0
 23 45  1  0
 23 46  1  0
 24 47  1  0
 24 48  1  0
 24 49  1  0
M  END
>  <i_m_ct_stereo_status>  (100) 
1

>  <s_m_source_file>  (100) 
/var/tmp/pbs.5076255.sched01/tmpcdf8lnea/434bzo3qpq.sdf

>  <i_m_source_file_index>  (100) 
3

>  <i_lp_mmshare_version>  (100) 
48012

>  <i_f3d_flags>  (100) 
0

>  <s_epik_input>  (100) 
W0NAXTEyM1tDQEhdNFtDQEhdNVtDQF0zKFtDSF0oW0NIM10pW0NIM10pT1tDQEhdKFtDQEhdKFtDSDNdKVtDSDJdNSlbQ0BASF0yW0NIMl1bQ0BIXShDbClbQ0BAXShPMSkoT1tDSDJdNClbQ0gyXVtDSF0oRilG

>  <s_epik_cmdline>  (100) 
J2VwaWtfcHl0aG9uJywgJy1waHQnLCAnMi4wJywgJy1waCcsICc3LjAnLCAnLXRuJywgJzgnLCAnLW1hJywgJzIwMCcsICctaW1hZScsICc8aW5maWxlLm1hZT4nLCAnLW9tYWUnLCAnPG91dGZpbGUubWFlPic=

>  <r_lp_tautomer_probability>  (100) 
1

>  <r_epik_Ionization_Penalty>  (100) 
3.64851e-12

>  <r_epik_Ionization_Penalty_Charging>  (100) 
0

>  <r_epik_Ionization_Penalty_Neutral>  (100) 
3.64851e-12

>  <r_epik_State_Penalty>  (100) 
-0

>  <r_epik_Charging_Adjusted_Penalty>  (100) 
0

>  <i_epik_Tot_Q>  (100) 
0

>  <i_epik_Tot_abs_Q>  (100) 
0

>  <s_lp_Force_Field>  (100) 
OPLS3e

>  <r_lp_Energy>  (100) 
75.6399

>  <b_lp_Chiralities_Consistent>  (100) 
1

>  <s_lp_Variant>  (100) 
40:0-1

>  <s_i_glide_gridfile>  (100) 
pfpi4k_grid

>  <i_i_glide_lignum>  (100) 
3

>  <i_i_glide_rotatable_bonds>  (100) 
3

>  <r_i_docking_score>  (100) 
-2.51762

>  <r_i_glide_ligand_efficiency>  (100) 
-0.104901

>  <r_i_glide_ligand_efficiency_sa>  (100) 
-0.302587

>  <r_i_glide_ligand_efficiency_ln>  (100) 
-0.602583

>  <r_i_glide_gscore>  (100) 
-2.51762

>  <r_i_glide_lipo>  (100) 
-0.495189

>  <r_i_glide_hbond>  (100) 
0

>  <r_i_glide_metal>  (100) 
-0

>  <r_i_glide_rewards>  (100) 
-0.950795

>  <r_i_glide_evdw>  (100) 
-20.7692

>  <r_i_glide_ecoul>  (100) 
-1.1938

>  <r_i_glide_erotb>  (100) 
0.145889

>  <r_i_glide_esite>  (100) 
0

>  <r_i_glide_emodel>  (100) 
-21.8651

>  <r_i_glide_energy>  (100) 
-21.963

>  <r_i_glide_einternal>  (100) 
6.31625

>  <r_i_glide_intrahb_reward>  (100) 
-0

>  <i_i_glide_confnum>  (100) 
2

>  <i_i_glide_posenum>  (100) 
7

>  <r_i_glide_eff_state_penalty>  (100) 
0

>  <ligand_id>  (100) 
40

>  <original_smiles>  (100) 
CC1CC2C3COC4(CC(F)F)OC35C(CC4Cl)C1OC25C(C)C

>  <smiles>  (100) 
[H]C([H])([H])C1([H])C([H])([H])C2([H])C3([H])C([H])([H])OC4(C([H])([H])C([H])(F)F)OC35C([H])(C([H])([H])C4([H])Cl)C1([H])OC25C([H])(C([H])([H])[H])C([H])([H])[H]

$$$$
40:0:1
     RDKit          3D

 49 53  0  0  1  0  0  0  0  0999 V2000
    3.4228   -1.2965   -2.9628 C   0  0  0  0  0  0  0  0  0  0  0  0
    3.8447   -1.9412   -1.6267 C   0  0  2  0  0  0  0  0  0  0  0  0
    4.8507   -1.0120   -0.9173 C   0  0  0  0  0  0  0  0  0  0  0  0
    5.8253   -1.7612   -0.0330 C   0  0  1  0  0  0  0  0  0  0  0  0
    5.3517   -2.5542    1.1638 C   0  0  1  0  0  0  0  0  0  0  0  0
    4.1342   -2.3556    2.0085 C   0  0  0  0  0  0  0  0  0  0  0  0
    4.0120   -3.5586    2.7792 O   0  0  0  0  0  0  0  0  0  0  0  0
    4.3240   -4.8182    2.2127 C   0  0  2  0  0  0  0  0  0  0  0  0
    4.7372   -5.7783    3.3895 C   0  0  0  0  0  0  0  0  0  0  0  0
    3.9319   -5.5669    4.7001 C   0  0  0  0  0  0  0  0  0  0  0  0
    4.3002   -6.5078    5.5733 F   0  0  0  0  0  0  0  0  0  0  0  0
    4.1847   -4.3802    5.2576 F   0  0  0  0  0  0  0  0  0  0  0  0
    5.4721   -4.7950    1.3752 O   0  0  0  0  0  0  0  0  0  0  0  0
    5.3205   -3.8327    0.3290 C   0  0  1  0  0  0  0  0  0  0  0  0
    4.2785   -4.3155   -0.6020 C   0  0  1  0  0  0  0  0  0  0  0  0
    2.9191   -4.5736    0.0601 C   0  0  0  0  0  0  0  0  0  0  0  0
    3.1407   -5.4031    1.3436 C   0  0  2  0  0  0  0  0  0  0  0  0
    1.6108   -5.5067    2.2442 Cl  0  0  0  0  0  0  0  0  0  0  0  0
    4.4292   -3.3772   -1.8239 C   0  0  2  0  0  0  0  0  0  0  0  0
    5.8589   -3.2922   -1.8600 O   0  0  0  0  0  0  0  0  0  0  0  0
    6.4119   -3.1273   -0.5094 C   0  0  1  0  0  0  0  0  0  0  0  0
    7.8862   -3.5349   -0.5010 C   0  0  0  0  0  0  0  0  0  0  0  0
    8.2125   -4.7540    0.3903 C   0  0  0  0  0  0  0  0  0  0  0  0
    8.8280   -2.3853   -0.1049 C   0  0  0  0  0  0  0  0  0  0  0  0
    4.2632   -1.1569   -3.6286 H   0  0  0  0  0  0  0  0  0  0  0  0
    2.9968   -0.3066   -2.7617 H   0  0  0  0  0  0  0  0  0  0  0  0
    2.6647   -1.8793   -3.4672 H   0  0  0  0  0  0  0  0  0  0  0  0
    2.9571   -1.9908   -1.0158 H   0  0  0  0  0  0  0  0  0  0  0  0
    5.3818   -0.4189   -1.6668 H   0  0  0  0  0  0  0  0  0  0  0  0
    4.2937   -0.2646   -0.3239 H   0  0  0  0  0  0  0  0  0  0  0  0
    6.6006   -1.0611    0.3169 H   0  0  0  0  0  0  0  0  0  0  0  0
    6.2204   -2.6080    1.8176 H   0  0  0  0  0  0  0  0  0  0  0  0
    4.2318   -1.5037    2.6795 H   0  0  0  0  0  0  0  0  0  0  0  0
    3.2396   -2.1620    1.4124 H   0  0  0  0  0  0  0  0  0  0  0  0
    4.6610   -6.8054    3.0485 H   0  0  0  0  0  0  0  0  0  0  0  0
    5.7887   -5.6097    3.6132 H   0  0  0  0  0  0  0  0  0  0  0  0
    2.8587   -5.6585    4.5900 H   0  0  0  0  0  0  0  0  0  0  0  0
    4.6050   -5.2943   -0.9790 H   0  0  0  0  0  0  0  0  0  0  0  0
    2.3712   -3.6690    0.2677 H   0  0  0  0  0  0  0  0  0  0  0  0
    2.2868   -5.1461   -0.6191 H   0  0  0  0  0  0  0  0  0  0  0  0
    3.4100   -6.4109    1.0636 H   0  0  0  0  0  0  0  0  0  0  0  0
    4.0372   -3.8383   -2.7090 H   0  0  0  0  0  0  0  0  0  0  0  0
    8.1826   -3.8195   -1.5065 H   0  0  0  0  0  0  0  0  0  0  0  0
    7.9980   -4.5344    1.4417 H   0  0  0  0  0  0  0  0  0  0  0  0
    9.2518   -5.0608    0.3417 H   0  0  0  0  0  0  0  0  0  0  0  0
    7.6109   -5.6150    0.0815 H   0  0  0  0  0  0  0  0  0  0  0  0
    8.5942   -2.0065    0.8766 H   0  0  0  0  0  0  0  0  0  0  0  0
    8.7467   -1.5674   -0.8110 H   0  0  0  0  0  0  0  0  0  0  0  0
    9.8643   -2.6989   -0.0981 H   0  0  0  0  0  0  0  0  0  0  0  0
  1  2  1  0
  1 25  1  0
  1 26  1  0
  1 27  1  0
  2 19  1  0
  2  3  1  0
  2 28  1  1
  3  4  1  0
  3 29  1  0
  3 30  1  0
  4 21  1  0
  4  5  1  0
  4 31  1  1
  5 14  1  0
  5  6  1  0
  5 32  1  1
  6  7  1  0
  6 33  1  0
  6 34  1  0
  7  8  1  0
  8 17  1  0
  8  9  1  1
  8 13  1  0
  9 10  1  0
  9 35  1  0
  9 36  1  0
 10 11  1  0
 10 12  1  0
 10 37  1  0
 14 13  1  1
 14 21  1  0
 14 15  1  0
 15 16  1  0
 15 19  1  0
 15 38  1  6
 16 17  1  0
 16 39  1  0
 16 40  1  0
 17 18  1  0
 17 41  1  6
 19 20  1  0
 19 42  1  6
 20 21  1  0
 21 22  1  6
 22 23  1  0
 22 24  1  0
 22 43  1  0
 23 44  1  0
 23 45  1  0
 23 46  1  0
 24 47  1  0
 24 48  1  0
 24 49  1  0
M  END
>  <i_m_ct_stereo_status>  (101) 
1

>  <s_m_source_file>  (101) 
/var/tmp/pbs.5076255.sched01/tmpcdf8lnea/434bzo3qpq.sdf

>  <i_m_source_file_index>  (101) 
3

>  <i_lp_mmshare_version>  (101) 
48012

>  <i_f3d_flags>  (101) 
0

>  <s_epik_input>  (101) 
W0NAXTEyM1tDQEhdNFtDQEhdNVtDQF0zKFtDSF0oW0NIM10pW0NIM10pT1tDQEhdKFtDQEhdKFtDSDNdKVtDSDJdNSlbQ0BASF0yW0NIMl1bQ0BIXShDbClbQ0BAXShPMSkoT1tDSDJdNClbQ0gyXVtDSF0oRilG

>  <s_epik_cmdline>  (101) 
J2VwaWtfcHl0aG9uJywgJy1waHQnLCAnMi4wJywgJy1waCcsICc3LjAnLCAnLXRuJywgJzgnLCAnLW1hJywgJzIwMCcsICctaW1hZScsICc8aW5maWxlLm1hZT4nLCAnLW9tYWUnLCAnPG91dGZpbGUubWFlPic=

>  <r_lp_tautomer_probability>  (101) 
1

>  <r_epik_Ionization_Penalty>  (101) 
3.64851e-12

>  <r_epik_Ionization_Penalty_Charging>  (101) 
0

>  <r_epik_Ionization_Penalty_Neutral>  (101) 
3.64851e-12

>  <r_epik_State_Penalty>  (101) 
-0

>  <r_epik_Charging_Adjusted_Penalty>  (101) 
0

>  <i_epik_Tot_Q>  (101) 
0

>  <i_epik_Tot_abs_Q>  (101) 
0

>  <s_lp_Force_Field>  (101) 
OPLS3e

>  <r_lp_Energy>  (101) 
75.6399

>  <b_lp_Chiralities_Consistent>  (101) 
1

>  <s_lp_Variant>  (101) 
40:0-1

>  <s_i_glide_gridfile>  (101) 
pfpi4k_grid

>  <i_i_glide_lignum>  (101) 
3

>  <i_i_glide_rotatable_bonds>  (101) 
3

>  <r_i_docking_score>  (101) 
-2.50299

>  <r_i_glide_ligand_efficiency>  (101) 
-0.104291

>  <r_i_glide_ligand_efficiency_sa>  (101) 
-0.300829

>  <r_i_glide_ligand_efficiency_ln>  (101) 
-0.599081

>  <r_i_glide_gscore>  (101) 
-2.50299

>  <r_i_glide_lipo>  (101) 
-0.491226

>  <r_i_glide_hbond>  (101) 
0

>  <r_i_glide_metal>  (101) 
-0

>  <r_i_glide_rewards>  (101) 
-0.94435

>  <r_i_glide_evdw>  (101) 
-19.9332

>  <r_i_glide_ecoul>  (101) 
-1.44432

>  <r_i_glide_erotb>  (101) 
0.145889

>  <r_i_glide_esite>  (101) 
0

>  <r_i_glide_emodel>  (101) 
-19.191

>  <r_i_glide_energy>  (101) 
-21.3775

>  <r_i_glide_einternal>  (101) 
10.5474

>  <r_i_glide_intrahb_reward>  (101) 
-0

>  <i_i_glide_confnum>  (101) 
2

>  <i_i_glide_posenum>  (101) 
23

>  <r_i_glide_eff_state_penalty>  (101) 
0

>  <ligand_id>  (101) 
40

>  <original_smiles>  (101) 
CC1CC2C3COC4(CC(F)F)OC35C(CC4Cl)C1OC25C(C)C

>  <smiles>  (101) 
[H]C([H])([H])C1([H])C([H])([H])C2([H])C3([H])C([H])([H])OC4(C([H])([H])C([H])(F)F)OC35C([H])(C([H])([H])C4([H])Cl)C1([H])OC25C([H])(C([H])([H])[H])C([H])([H])[H]

$$$$
40:0:2
     RDKit          3D

 49 53  0  0  1  0  0  0  0  0999 V2000
    3.3207   -3.0873   -3.9328 C   0  0  0  0  0  0  0  0  0  0  0  0
    3.5810   -2.9949   -2.4260 C   0  0  2  0  0  0  0  0  0  0  0  0
    3.9522   -1.5387   -2.0633 C   0  0  0  0  0  0  0  0  0  0  0  0
    4.8761   -1.4467   -0.8517 C   0  0  1  0  0  0  0  0  0  0  0  0
    4.3828   -1.9059    0.5150 C   0  0  1  0  0  0  0  0  0  0  0  0
    2.9781   -1.9999    1.0514 C   0  0  0  0  0  0  0  0  0  0  0  0
    3.1092   -2.7860    2.2589 O   0  0  0  0  0  0  0  0  0  0  0  0
    4.0249   -3.8778    2.3039 C   0  0  2  0  0  0  0  0  0  0  0  0
    4.3592   -4.1325    3.7977 C   0  0  0  0  0  0  0  0  0  0  0  0
    4.9501   -2.8840    4.4811 C   0  0  0  0  0  0  0  0  0  0  0  0
    4.0512   -1.9065    4.6023 F   0  0  0  0  0  0  0  0  0  0  0  0
    5.3603   -3.2342    5.7010 F   0  0  0  0  0  0  0  0  0  0  0  0
    5.2728   -3.6185    1.6637 O   0  0  0  0  0  0  0  0  0  0  0  0
    5.0446   -3.2539    0.3016 C   0  0  1  0  0  0  0  0  0  0  0  0
    4.5237   -4.4476   -0.4514 C   0  0  1  0  0  0  0  0  0  0  0  0
    3.2308   -5.0251    0.1257 C   0  0  0  0  0  0  0  0  0  0  0  0
    3.3869   -5.1524    1.6642 C   0  0  2  0  0  0  0  0  0  0  0  0
    1.8088   -5.5190    2.4024 Cl  0  0  0  0  0  0  0  0  0  0  0  0
    4.6532   -4.0024   -1.9160 C   0  0  2  0  0  0  0  0  0  0  0  0
    5.9236   -3.3442   -1.8512 O   0  0  0  0  0  0  0  0  0  0  0  0
    5.9838   -2.5394   -0.6668 C   0  0  1  0  0  0  0  0  0  0  0  0
    7.4450   -2.2438   -0.3138 C   0  0  0  0  0  0  0  0  0  0  0  0
    8.2313   -3.4890    0.1195 C   0  0  0  0  0  0  0  0  0  0  0  0
    7.5804   -1.1599    0.7631 C   0  0  0  0  0  0  0  0  0  0  0  0
    4.2182   -2.8518   -4.5060 H   0  0  0  0  0  0  0  0  0  0  0  0
    2.5488   -2.3754   -4.2283 H   0  0  0  0  0  0  0  0  0  0  0  0
    2.9763   -4.0780   -4.2298 H   0  0  0  0  0  0  0  0  0  0  0  0
    2.6253   -3.2178   -1.9463 H   0  0  0  0  0  0  0  0  0  0  0  0
    4.4466   -1.0724   -2.9278 H   0  0  0  0  0  0  0  0  0  0  0  0
    3.0474   -0.9602   -1.9003 H   0  0  0  0  0  0  0  0  0  0  0  0
    5.2869   -0.4477   -0.7762 H   0  0  0  0  0  0  0  0  0  0  0  0
    4.9493   -1.3215    1.2195 H   0  0  0  0  0  0  0  0  0  0  0  0
    2.5796   -1.0165    1.3172 H   0  0  0  0  0  0  0  0  0  0  0  0
    2.2792   -2.4298    0.3570 H   0  0  0  0  0  0  0  0  0  0  0  0
    3.4638   -4.4509    4.3334 H   0  0  0  0  0  0  0  0  0  0  0  0
    5.0768   -4.9475    3.8538 H   0  0  0  0  0  0  0  0  0  0  0  0
    5.8112   -2.4884    3.9424 H   0  0  0  0  0  0  0  0  0  0  0  0
    5.2625   -5.2488   -0.3312 H   0  0  0  0  0  0  0  0  0  0  0  0
    2.3519   -4.4395   -0.1309 H   0  0  0  0  0  0  0  0  0  0  0  0
    3.0538   -6.0042   -0.3015 H   0  0  0  0  0  0  0  0  0  0  0  0
    4.0434   -5.9950    1.8687 H   0  0  0  0  0  0  0  0  0  0  0  0
    4.7362   -4.8569   -2.5810 H   0  0  0  0  0  0  0  0  0  0  0  0
    7.9458   -1.8725   -1.2041 H   0  0  0  0  0  0  0  0  0  0  0  0
    7.8050   -3.9517    1.0120 H   0  0  0  0  0  0  0  0  0  0  0  0
    9.2662   -3.2367    0.3395 H   0  0  0  0  0  0  0  0  0  0  0  0
    8.2374   -4.2347   -0.6789 H   0  0  0  0  0  0  0  0  0  0  0  0
    7.1137   -1.4863    1.6834 H   0  0  0  0  0  0  0  0  0  0  0  0
    7.0707   -0.2589    0.4733 H   0  0  0  0  0  0  0  0  0  0  0  0
    8.6210   -0.9134    0.9654 H   0  0  0  0  0  0  0  0  0  0  0  0
  1  2  1  0
  1 25  1  0
  1 26  1  0
  1 27  1  0
  2 19  1  0
  2  3  1  0
  2 28  1  1
  3  4  1  0
  3 29  1  0
  3 30  1  0
  4 21  1  0
  4  5  1  0
  4 31  1  1
  5 14  1  0
  5  6  1  0
  5 32  1  1
  6  7  1  0
  6 33  1  0
  6 34  1  0
  7  8  1  0
  8 17  1  0
  8  9  1  1
  8 13  1  0
  9 10  1  0
  9 35  1  0
  9 36  1  0
 10 11  1  0
 10 12  1  0
 10 37  1  0
 14 13  1  1
 14 21  1  0
 14 15  1  0
 15 16  1  0
 15 19  1  0
 15 38  1  6
 16 17  1  0
 16 39  1  0
 16 40  1  0
 17 18  1  0
 17 41  1  6
 19 20  1  0
 19 42  1  6
 20 21  1  0
 21 22  1  1
 22 23  1  0
 22 24  1  0
 22 43  1  0
 23 44  1  0
 23 45  1  0
 23 46  1  0
 24 47  1  0
 24 48  1  0
 24 49  1  0
M  END
>  <i_m_ct_stereo_status>  (102) 
1

>  <s_m_source_file>  (102) 
/var/tmp/pbs.5076255.sched01/tmpcdf8lnea/434bzo3qpq.sdf

>  <i_m_source_file_index>  (102) 
3

>  <i_lp_mmshare_version>  (102) 
48012

>  <i_f3d_flags>  (102) 
0

>  <s_epik_input>  (102) 
W0NAXTEyM1tDQEhdNFtDQEhdNVtDQF0zKFtDSF0oW0NIM10pW0NIM10pT1tDQEhdKFtDQEhdKFtDSDNdKVtDSDJdNSlbQ0BASF0yW0NIMl1bQ0BIXShDbClbQ0BAXShPMSkoT1tDSDJdNClbQ0gyXVtDSF0oRilG

>  <s_epik_cmdline>  (102) 
J2VwaWtfcHl0aG9uJywgJy1waHQnLCAnMi4wJywgJy1waCcsICc3LjAnLCAnLXRuJywgJzgnLCAnLW1hJywgJzIwMCcsICctaW1hZScsICc8aW5maWxlLm1hZT4nLCAnLW9tYWUnLCAnPG91dGZpbGUubWFlPic=

>  <r_lp_tautomer_probability>  (102) 
1

>  <r_epik_Ionization_Penalty>  (102) 
3.64851e-12

>  <r_epik_Ionization_Penalty_Charging>  (102) 
0

>  <r_epik_Ionization_Penalty_Neutral>  (102) 
3.64851e-12

>  <r_epik_State_Penalty>  (102) 
-0

>  <r_epik_Charging_Adjusted_Penalty>  (102) 
0

>  <i_epik_Tot_Q>  (102) 
0

>  <i_epik_Tot_abs_Q>  (102) 
0

>  <s_lp_Force_Field>  (102) 
OPLS3e

>  <r_lp_Energy>  (102) 
75.6399

>  <b_lp_Chiralities_Consistent>  (102) 
1

>  <s_lp_Variant>  (102) 
40:0-1

>  <s_i_glide_gridfile>  (102) 
pfpi4k_grid

>  <i_i_glide_lignum>  (102) 
3

>  <i_i_glide_rotatable_bonds>  (102) 
3

>  <r_i_docking_score>  (102) 
-2.33242

>  <r_i_glide_ligand_efficiency>  (102) 
-0.0971841

>  <r_i_glide_ligand_efficiency_sa>  (102) 
-0.280328

>  <r_i_glide_ligand_efficiency_ln>  (102) 
-0.558255

>  <r_i_glide_gscore>  (102) 
-2.33242

>  <r_i_glide_lipo>  (102) 
-0.37093

>  <r_i_glide_hbond>  (102) 
0

>  <r_i_glide_metal>  (102) 
-0

>  <r_i_glide_rewards>  (102) 
-0.953823

>  <r_i_glide_evdw>  (102) 
-20.5746

>  <r_i_glide_ecoul>  (102) 
-0.832171

>  <r_i_glide_erotb>  (102) 
0.145889

>  <r_i_glide_esite>  (102) 
0

>  <r_i_glide_emodel>  (102) 
-23.6536

>  <r_i_glide_energy>  (102) 
-21.4068

>  <r_i_glide_einternal>  (102) 
1.45717

>  <r_i_glide_intrahb_reward>  (102) 
-0

>  <i_i_glide_confnum>  (102) 
2

>  <i_i_glide_posenum>  (102) 
16

>  <r_i_glide_eff_state_penalty>  (102) 
0

>  <ligand_id>  (102) 
40

>  <original_smiles>  (102) 
CC1CC2C3COC4(CC(F)F)OC35C(CC4Cl)C1OC25C(C)C

>  <smiles>  (102) 
[H]C([H])([H])C1([H])C([H])([H])C2([H])C3([H])C([H])([H])OC4(C([H])([H])C([H])(F)F)OC35C([H])(C([H])([H])C4([H])Cl)C1([H])OC25C([H])(C([H])([H])[H])C([H])([H])[H]

$$$$
41:0:0
     RDKit          3D

 73 78  0  0  1  0  0  0  0  0999 V2000
    5.3639   -0.1481    4.1747 C   0  0  0  0  0  0  0  0  0  0  0  0
    4.7151   -1.2683    3.5776 O   0  0  0  0  0  0  0  0  0  0  0  0
    5.5257   -2.0212    2.6746 C   0  0  2  0  0  0  0  0  0  0  0  0
    5.7978   -1.2350    1.3544 C   0  0  0  0  0  0  0  0  0  0  0  0
    6.0411   -1.9697   -0.0055 C   0  0  1  0  0  0  0  0  0  0  0  0
    7.2382   -2.7278    0.0267 O   0  0  0  0  0  0  0  0  0  0  0  0
    4.8388   -2.6723   -0.7467 C   0  0  0  0  0  0  0  0  0  0  0  0
    3.7888   -1.5747   -1.0737 C   0  0  0  0  0  0  0  0  0  0  0  0
    5.3134   -3.1461   -2.1463 C   0  0  0  0  0  0  0  0  0  0  0  0
    4.1371   -3.8641    0.0316 C   0  0  1  0  0  0  0  0  0  0  0  0
    4.8713   -5.2257   -0.1330 C   0  0  0  0  0  0  0  0  0  0  0  0
    4.6733   -6.4576    0.8247 C   0  0  0  0  0  0  0  0  0  0  0  0
    5.1484   -6.4394    2.3321 C   0  0  1  0  0  0  0  0  0  0  0  0
    6.4455   -5.5747    2.4869 C   0  0  0  0  0  0  0  0  0  0  0  0
    7.1560   -5.5944    3.8626 C   0  0  0  0  0  0  0  0  0  0  0  0
    7.5872   -6.0712    1.5380 C   0  0  0  0  0  0  0  0  0  0  0  0
    6.1822   -4.2209    2.1323 O   0  0  0  0  0  0  0  0  0  0  0  0
    5.0062   -3.4480    2.4840 C   0  0  1  0  0  0  0  0  0  0  0  0
    3.9756   -4.0548    3.5045 C   0  0  0  0  0  0  0  0  0  0  0  0
    4.2464   -5.1425    4.2926 C   0  0  0  0  0  0  0  0  0  0  0  0
    4.7935   -5.0306    5.7228 C   0  0  0  0  0  0  0  0  0  0  0  0
    4.1813   -6.5397    3.6572 C   0  0  0  0  0  0  0  0  0  0  0  0
    2.6332   -6.2612    3.8750 C   0  0  0  0  0  0  0  0  0  0  0  0
    1.9370   -6.2187    5.2609 C   0  0  0  0  0  0  0  0  0  0  0  0
    1.8722   -6.5075    2.8576 C   0  0  0  0  0  0  0  0  0  0  0  0
    2.0331   -5.3595    1.8779 C   0  0  0  0  0  0  0  0  0  0  0  0
    2.8192   -4.0518    2.3914 C   0  0  1  0  0  0  0  0  0  0  0  0
    1.7525   -3.0641    2.9066 C   0  0  0  0  0  0  0  0  0  0  0  0
    3.8777   -3.4627    1.4709 C   0  0  2  0  0  0  0  0  0  0  0  0
    2.4828   -7.8225    2.6525 C   0  0  0  0  0  0  0  0  0  0  0  0
    2.2046   -8.6587    1.7945 O   0  0  0  0  0  0  0  0  0  0  0  0
    3.5857   -7.9983    3.7337 C   0  0  1  0  0  0  0  0  0  0  0  0
    4.4391   -9.0904    3.4079 O   0  0  0  0  0  0  0  0  0  0  0  0
    4.6335    0.4248    4.7455 H   0  0  0  0  0  0  0  0  0  0  0  0
    5.8081    0.5315    3.4454 H   0  0  0  0  0  0  0  0  0  0  0  0
    6.1479   -0.4604    4.8653 H   0  0  0  0  0  0  0  0  0  0  0  0
    6.4834   -2.1207    3.1210 H   0  0  0  0  0  0  0  0  0  0  0  0
    5.0107   -0.4941    1.2165 H   0  0  0  0  0  0  0  0  0  0  0  0
    6.7006   -0.6550    1.5349 H   0  0  0  0  0  0  0  0  0  0  0  0
    6.3236   -1.1577   -0.6735 H   0  0  0  0  0  0  0  0  0  0  0  0
    7.3636   -3.1351   -0.8168 H   0  0  0  0  0  0  0  0  0  0  0  0
    2.9366   -1.9916   -1.6097 H   0  0  0  0  0  0  0  0  0  0  0  0
    4.2019   -0.7931   -1.7149 H   0  0  0  0  0  0  0  0  0  0  0  0
    3.3843   -1.0682   -0.1990 H   0  0  0  0  0  0  0  0  0  0  0  0
    4.4980   -3.6313   -2.6848 H   0  0  0  0  0  0  0  0  0  0  0  0
    6.1395   -3.8536   -2.1034 H   0  0  0  0  0  0  0  0  0  0  0  0
    5.6584   -2.3119   -2.7590 H   0  0  0  0  0  0  0  0  0  0  0  0
    3.1616   -3.9918   -0.4407 H   0  0  0  0  0  0  0  0  0  0  0  0
    4.6191   -5.5951   -1.1252 H   0  0  0  0  0  0  0  0  0  0  0  0
    5.9253   -5.0065   -0.2224 H   0  0  0  0  0  0  0  0  0  0  0  0
    3.7480   -6.9686    0.6324 H   0  0  0  0  0  0  0  0  0  0  0  0
    5.3192   -7.2065    0.3765 H   0  0  0  0  0  0  0  0  0  0  0  0
    5.6406   -7.4042    2.3861 H   0  0  0  0  0  0  0  0  0  0  0  0
    8.2365   -5.4715    3.7696 H   0  0  0  0  0  0  0  0  0  0  0  0
    6.9944   -6.5277    4.4054 H   0  0  0  0  0  0  0  0  0  0  0  0
    6.8636   -4.7639    4.4934 H   0  0  0  0  0  0  0  0  0  0  0  0
    8.0415   -6.9863    1.9134 H   0  0  0  0  0  0  0  0  0  0  0  0
    8.3745   -5.3233    1.4675 H   0  0  0  0  0  0  0  0  0  0  0  0
    7.3024   -6.3002    0.5218 H   0  0  0  0  0  0  0  0  0  0  0  0
    5.4882   -5.8363    5.9500 H   0  0  0  0  0  0  0  0  0  0  0  0
    4.0098   -5.0805    6.4734 H   0  0  0  0  0  0  0  0  0  0  0  0
    5.3055   -4.0779    5.8598 H   0  0  0  0  0  0  0  0  0  0  0  0
    2.4312   -6.8543    6.0057 H   0  0  0  0  0  0  0  0  0  0  0  0
    0.9066   -6.5780    5.1627 H   0  0  0  0  0  0  0  0  0  0  0  0
    1.8779   -5.1932    5.6404 H   0  0  0  0  0  0  0  0  0  0  0  0
    2.2844   -5.6681    0.8734 H   0  0  0  0  0  0  0  0  0  0  0  0
    1.0113   -5.0683    1.7289 H   0  0  0  0  0  0  0  0  0  0  0  0
    1.1258   -2.6841    2.1020 H   0  0  0  0  0  0  0  0  0  0  0  0
    2.2031   -2.1819    3.3626 H   0  0  0  0  0  0  0  0  0  0  0  0
    1.1108   -3.5271    3.6597 H   0  0  0  0  0  0  0  0  0  0  0  0
    3.5258   -2.4389    1.4308 H   0  0  0  0  0  0  0  0  0  0  0  0
    3.1395   -8.2858    4.6914 H   0  0  0  0  0  0  0  0  0  0  0  0
    3.9017   -9.8670    3.3058 H   0  0  0  0  0  0  0  0  0  0  0  0
  1  2  1  0
  1 34  1  0
  1 35  1  0
  1 36  1  0
  2  3  1  0
  3 18  1  0
  3  4  1  0
  3 37  1  1
  4  5  1  0
  4 38  1  0
  4 39  1  0
  5  6  1  0
  5  7  1  0
  5 40  1  6
  6 41  1  0
  7  8  1  0
  7  9  1  0
  7 10  1  0
  8 42  1  0
  8 43  1  0
  8 44  1  0
  9 45  1  0
  9 46  1  0
  9 47  1  0
 10 29  1  0
 10 11  1  0
 10 48  1  6
 11 12  1  0
 11 49  1  0
 11 50  1  0
 12 13  1  0
 12 51  1  0
 12 52  1  0
 13 22  1  0
 13 14  1  0
 13 53  1  6
 14 15  1  0
 14 16  1  0
 14 17  1  0
 15 54  1  0
 15 55  1  0
 15 56  1  0
 16 57  1  0
 16 58  1  0
 16 59  1  0
 18 17  1  6
 18 29  1  0
 18 19  1  0
 19 27  1  0
 19 20  2  0
 20 21  1  0
 20 22  1  0
 21 60  1  0
 21 61  1  0
 21 62  1  0
 22 32  1  0
 22 23  1  0
 23 24  1  0
 23 25  2  0
 24 63  1  0
 24 64  1  0
 24 65  1  0
 25 26  1  0
 25 30  1  0
 26 27  1  0
 26 66  1  0
 26 67  1  0
 27 28  1  1
 27 29  1  0
 28 68  1  0
 28 69  1  0
 28 70  1  0
 29 71  1  6
 30 31  2  0
 30 32  1  0
 32 33  1  0
 32 72  1  1
 33 73  1  0
M  END
>  <i_m_ct_stereo_status>  (103) 
1

>  <s_m_source_file>  (103) 
/var/tmp/pbs.5076255.sched01/tmpcdf8lnea/434bzo3qpq.sdf

>  <i_m_source_file_index>  (103) 
4

>  <i_lp_mmshare_version>  (103) 
48012

>  <i_f3d_flags>  (103) 
0

>  <s_epik_input>  (103) 
W0NIM11PW0NAQEhdMVtDSDJdW0NAQEhdKFtPSF0pQyhbQ0gzXSkoW0NIM10pW0NASF0oW0NASF0yQzMoQz00W0NAXTEyNSlbQ0gzXSlbQ0gyXVtDSDJdW0NAQEhdKEMoTzUpKFtDSDNdKVtDSDNdKUM2KEM0W0NIM10pQyhbQ0gzXSk9QyhbQ0gyXTMpQyg9TylbQ0BIXTZbT0hd

>  <s_epik_cmdline>  (103) 
J2VwaWtfcHl0aG9uJywgJy1waHQnLCAnMi4wJywgJy1waCcsICc3LjAnLCAnLXRuJywgJzgnLCAnLW1hJywgJzIwMCcsICctaW1hZScsICc8aW5maWxlLm1hZT4nLCAnLW9tYWUnLCAnPG91dGZpbGUubWFlPic=

>  <r_epik_Ionization_Penalty>  (103) 
0.00405505

>  <r_epik_Ionization_Penalty_Charging>  (103) 
0

>  <r_epik_Ionization_Penalty_Neutral>  (103) 
0.00405505

>  <r_epik_State_Penalty>  (103) 
0.00290591

>  <r_epik_Charging_Adjusted_Penalty>  (103) 
0.00290591

>  <i_epik_Tot_Q>  (103) 
0

>  <i_epik_Tot_abs_Q>  (103) 
0

>  <s_lp_Force_Field>  (103) 
OPLS3e

>  <r_lp_Energy>  (103) 
321.889

>  <b_lp_Chiralities_Consistent>  (103) 
1

>  <s_lp_Variant>  (103) 
41:0-1

>  <s_i_glide_gridfile>  (103) 
pfpi4k_grid

>  <i_i_glide_lignum>  (103) 
4

>  <i_i_glide_rotatable_bonds>  (103) 
3

>  <r_i_docking_score>  (103) 
-1.92077

>  <r_i_glide_ligand_efficiency>  (103) 
-0.0582053

>  <r_i_glide_ligand_efficiency_sa>  (103) 
-0.186695

>  <r_i_glide_ligand_efficiency_ln>  (103) 
-0.42717

>  <r_i_glide_gscore>  (103) 
-1.92077

>  <r_i_glide_lipo>  (103) 
-0.683504

>  <r_i_glide_hbond>  (103) 
0

>  <r_i_glide_metal>  (103) 
-0

>  <r_i_glide_rewards>  (103) 
-0.295812

>  <r_i_glide_evdw>  (103) 
-17.4356

>  <r_i_glide_ecoul>  (103) 
-0.415467

>  <r_i_glide_erotb>  (103) 
0

>  <r_i_glide_esite>  (103) 
-0.00735535

>  <r_i_glide_emodel>  (103) 
-17.5215

>  <r_i_glide_energy>  (103) 
-17.8511

>  <r_i_glide_einternal>  (103) 
2.24422

>  <r_i_glide_intrahb_reward>  (103) 
-0

>  <i_i_glide_confnum>  (103) 
1

>  <i_i_glide_posenum>  (103) 
15

>  <r_i_glide_eff_state_penalty>  (103) 
0

>  <ligand_id>  (103) 
41

>  <original_smiles>  (103) 
COC1CC(O)C(C)(C)C2CCC3C(C)(C)OC14C1=C(C)C35C(C)=C(CC1(C)C24)C(=O)C5O

>  <smiles>  (103) 
[H]OC1([H])C(=O)C2=C(C([H])([H])[H])C13C(C([H])([H])[H])=C1C45OC(C([H])([H])[H])(C([H])([H])[H])C3([H])C([H])([H])C([H])([H])C([H])(C4([H])C1(C([H])([H])[H])C2([H])[H])C(C([H])([H])[H])(C([H])([H])[H])C([H])(O[H])C([H])([H])C5([H])OC([H])([H])[H]

$$$$
41:0:1
     RDKit          3D

 73 78  0  0  1  0  0  0  0  0999 V2000
    5.0721    0.1200    4.0166 C   0  0  0  0  0  0  0  0  0  0  0  0
    4.4285   -0.9994    3.4107 O   0  0  0  0  0  0  0  0  0  0  0  0
    5.3208   -1.8466    2.6832 C   0  0  2  0  0  0  0  0  0  0  0  0
    5.7339   -1.2287    1.3073 C   0  0  0  0  0  0  0  0  0  0  0  0
    6.0842   -2.1276    0.0639 C   0  0  1  0  0  0  0  0  0  0  0  0
    7.2599   -2.8885    0.2693 O   0  0  0  0  0  0  0  0  0  0  0  0
    4.9393   -2.9149   -0.6839 C   0  0  0  0  0  0  0  0  0  0  0  0
    3.9169   -1.8751   -1.2355 C   0  0  0  0  0  0  0  0  0  0  0  0
    5.5107   -3.5422   -1.9768 C   0  0  0  0  0  0  0  0  0  0  0  0
    4.1814   -4.0224    0.1630 C   0  0  1  0  0  0  0  0  0  0  0  0
    4.9254   -5.3848    0.2226 C   0  0  0  0  0  0  0  0  0  0  0  0
    4.6594   -6.4902    1.3174 C   0  0  0  0  0  0  0  0  0  0  0  0
    5.0049   -6.2689    2.8503 C   0  0  1  0  0  0  0  0  0  0  0  0
    6.2801   -5.3983    3.0214 C   0  0  0  0  0  0  0  0  0  0  0  0
    6.8646   -5.2796    4.4580 C   0  0  0  0  0  0  0  0  0  0  0  0
    7.4944   -5.9857    2.2325 C   0  0  0  0  0  0  0  0  0  0  0  0
    6.0503   -4.0924    2.4853 O   0  0  0  0  0  0  0  0  0  0  0  0
    4.8479   -3.2954    2.6136 C   0  0  1  0  0  0  0  0  0  0  0  0
    3.7428   -3.7634    3.6087 C   0  0  0  0  0  0  0  0  0  0  0  0
    3.9483   -4.7407    4.5454 C   0  0  0  0  0  0  0  0  0  0  0  0
    4.3657   -4.4502    5.9869 C   0  0  0  0  0  0  0  0  0  0  0  0
    3.9328   -6.2083    4.0793 C   0  0  0  0  0  0  0  0  0  0  0  0
    2.3675   -5.9098    4.1494 C   0  0  0  0  0  0  0  0  0  0  0  0
    1.5781   -5.7048    5.4442 C   0  0  0  0  0  0  0  0  0  0  0  0
    1.6923   -6.2967    3.1161 C   0  0  0  0  0  0  0  0  0  0  0  0
    1.9607   -5.3057    2.0219 C   0  0  0  0  0  0  0  0  0  0  0  0
    2.6874   -3.9197    2.4199 C   0  0  1  0  0  0  0  0  0  0  0  0
    1.6055   -2.8586    2.7406 C   0  0  0  0  0  0  0  0  0  0  0  0
    3.8128   -3.4527    1.5163 C   0  0  2  0  0  0  0  0  0  0  0  0
    2.3185   -7.6323    3.1309 C   0  0  0  0  0  0  0  0  0  0  0  0
    2.0932   -8.5755    2.4030 O   0  0  0  0  0  0  0  0  0  0  0  0
    3.3314   -7.6397    4.3048 C   0  0  1  0  0  0  0  0  0  0  0  0
    4.2212   -8.7653    4.1962 O   0  0  0  0  0  0  0  0  0  0  0  0
    4.3142    0.7758    4.4348 H   0  0  0  0  0  0  0  0  0  0  0  0
    5.6666    0.7059    3.3118 H   0  0  0  0  0  0  0  0  0  0  0  0
    5.7399   -0.1824    4.8276 H   0  0  0  0  0  0  0  0  0  0  0  0
    6.2057   -1.8862    3.3438 H   0  0  0  0  0  0  0  0  0  0  0  0
    4.9515   -0.5296    0.9979 H   0  0  0  0  0  0  0  0  0  0  0  0
    6.5932   -0.5819    1.4765 H   0  0  0  0  0  0  0  0  0  0  0  0
    6.4287   -1.4086   -0.6725 H   0  0  0  0  0  0  0  0  0  0  0  0
    7.8946   -2.3644    0.7563 H   0  0  0  0  0  0  0  0  0  0  0  0
    3.1225   -2.3727   -1.7806 H   0  0  0  0  0  0  0  0  0  0  0  0
    4.3930   -1.1884   -1.9297 H   0  0  0  0  0  0  0  0  0  0  0  0
    3.4485   -1.2736   -0.4621 H   0  0  0  0  0  0  0  0  0  0  0  0
    4.7585   -4.1155   -2.5131 H   0  0  0  0  0  0  0  0  0  0  0  0
    6.3037   -4.2310   -1.7301 H   0  0  0  0  0  0  0  0  0  0  0  0
    5.9211   -2.7971   -2.6591 H   0  0  0  0  0  0  0  0  0  0  0  0
    3.2513   -4.2186   -0.3767 H   0  0  0  0  0  0  0  0  0  0  0  0
    4.7279   -5.8793   -0.7308 H   0  0  0  0  0  0  0  0  0  0  0  0
    5.9863   -5.1695    0.1958 H   0  0  0  0  0  0  0  0  0  0  0  0
    3.7524   -7.0332    1.1238 H   0  0  0  0  0  0  0  0  0  0  0  0
    5.3426   -7.2781    1.0209 H   0  0  0  0  0  0  0  0  0  0  0  0
    5.4841   -7.2207    3.0613 H   0  0  0  0  0  0  0  0  0  0  0  0
    7.9504   -5.2244    4.4627 H   0  0  0  0  0  0  0  0  0  0  0  0
    6.6171   -6.1222    5.1098 H   0  0  0  0  0  0  0  0  0  0  0  0
    6.5781   -4.3425    4.9291 H   0  0  0  0  0  0  0  0  0  0  0  0
    7.9153   -6.8466    2.7530 H   0  0  0  0  0  0  0  0  0  0  0  0
    8.2820   -5.2435    2.1375 H   0  0  0  0  0  0  0  0  0  0  0  0
    7.2928   -6.3405    1.2315 H   0  0  0  0  0  0  0  0  0  0  0  0
    5.0350   -5.2165    6.3693 H   0  0  0  0  0  0  0  0  0  0  0  0
    3.5224   -4.4173    6.6730 H   0  0  0  0  0  0  0  0  0  0  0  0
    4.8689   -3.4818    6.0447 H   0  0  0  0  0  0  0  0  0  0  0  0
    2.0171   -6.2483    6.2913 H   0  0  0  0  0  0  0  0  0  0  0  0
    0.5629   -6.0911    5.3040 H   0  0  0  0  0  0  0  0  0  0  0  0
    1.4820   -4.6427    5.6953 H   0  0  0  0  0  0  0  0  0  0  0  0
    2.2808   -5.7428    1.0911 H   0  0  0  0  0  0  0  0  0  0  0  0
    0.9660   -5.0449    1.7479 H   0  0  0  0  0  0  0  0  0  0  0  0
    1.1063   -2.4551    1.8665 H   0  0  0  0  0  0  0  0  0  0  0  0
    2.0387   -1.9564    3.1740 H   0  0  0  0  0  0  0  0  0  0  0  0
    0.8640   -3.2442    3.4464 H   0  0  0  0  0  0  0  0  0  0  0  0
    3.4684   -2.4499    1.3292 H   0  0  0  0  0  0  0  0  0  0  0  0
    2.8003   -7.8096    5.2384 H   0  0  0  0  0  0  0  0  0  0  0  0
    3.6867   -9.5555    4.2169 H   0  0  0  0  0  0  0  0  0  0  0  0
  1  2  1  0
  1 34  1  0
  1 35  1  0
  1 36  1  0
  2  3  1  0
  3 18  1  0
  3  4  1  0
  3 37  1  1
  4  5  1  0
  4 38  1  0
  4 39  1  0
  5  6  1  0
  5  7  1  0
  5 40  1  6
  6 41  1  0
  7  8  1  0
  7  9  1  0
  7 10  1  0
  8 42  1  0
  8 43  1  0
  8 44  1  0
  9 45  1  0
  9 46  1  0
  9 47  1  0
 10 29  1  0
 10 11  1  0
 10 48  1  6
 11 12  1  0
 11 49  1  0
 11 50  1  0
 12 13  1  0
 12 51  1  0
 12 52  1  0
 13 22  1  0
 13 14  1  0
 13 53  1  1
 14 15  1  0
 14 16  1  0
 14 17  1  0
 15 54  1  0
 15 55  1  0
 15 56  1  0
 16 57  1  0
 16 58  1  0
 16 59  1  0
 18 17  1  6
 18 29  1  0
 18 19  1  0
 19 27  1  0
 19 20  2  0
 20 21  1  0
 20 22  1  0
 21 60  1  0
 21 61  1  0
 21 62  1  0
 22 32  1  0
 22 23  1  0
 23 24  1  0
 23 25  2  0
 24 63  1  0
 24 64  1  0
 24 65  1  0
 25 26  1  0
 25 30  1  0
 26 27  1  0
 26 66  1  0
 26 67  1  0
 27 28  1  1
 27 29  1  0
 28 68  1  0
 28 69  1  0
 28 70  1  0
 29 71  1  6
 30 31  2  0
 30 32  1  0
 32 33  1  0
 32 72  1  1
 33 73  1  0
M  END
>  <i_m_ct_stereo_status>  (104) 
1

>  <s_m_source_file>  (104) 
/var/tmp/pbs.5076255.sched01/tmpcdf8lnea/434bzo3qpq.sdf

>  <i_m_source_file_index>  (104) 
4

>  <i_lp_mmshare_version>  (104) 
48012

>  <i_f3d_flags>  (104) 
0

>  <s_epik_input>  (104) 
W0NIM11PW0NAQEhdMVtDSDJdW0NAQEhdKFtPSF0pQyhbQ0gzXSkoW0NIM10pW0NASF0oW0NASF0yQzMoQz00W0NAXTEyNSlbQ0gzXSlbQ0gyXVtDSDJdW0NAQEhdKEMoTzUpKFtDSDNdKVtDSDNdKUM2KEM0W0NIM10pQyhbQ0gzXSk9QyhbQ0gyXTMpQyg9TylbQ0BIXTZbT0hd

>  <s_epik_cmdline>  (104) 
J2VwaWtfcHl0aG9uJywgJy1waHQnLCAnMi4wJywgJy1waCcsICc3LjAnLCAnLXRuJywgJzgnLCAnLW1hJywgJzIwMCcsICctaW1hZScsICc8aW5maWxlLm1hZT4nLCAnLW9tYWUnLCAnPG91dGZpbGUubWFlPic=

>  <r_epik_Ionization_Penalty>  (104) 
0.00405505

>  <r_epik_Ionization_Penalty_Charging>  (104) 
0

>  <r_epik_Ionization_Penalty_Neutral>  (104) 
0.00405505

>  <r_epik_State_Penalty>  (104) 
0.00290591

>  <r_epik_Charging_Adjusted_Penalty>  (104) 
0.00290591

>  <i_epik_Tot_Q>  (104) 
0

>  <i_epik_Tot_abs_Q>  (104) 
0

>  <s_lp_Force_Field>  (104) 
OPLS3e

>  <r_lp_Energy>  (104) 
321.889

>  <b_lp_Chiralities_Consistent>  (104) 
1

>  <s_lp_Variant>  (104) 
41:0-1

>  <s_i_glide_gridfile>  (104) 
pfpi4k_grid

>  <i_i_glide_lignum>  (104) 
4

>  <i_i_glide_rotatable_bonds>  (104) 
3

>  <r_i_docking_score>  (104) 
-1.77926

>  <r_i_glide_ligand_efficiency>  (104) 
-0.0539169

>  <r_i_glide_ligand_efficiency_sa>  (104) 
-0.17294

>  <r_i_glide_ligand_efficiency_ln>  (104) 
-0.395698

>  <r_i_glide_gscore>  (104) 
-1.77926

>  <r_i_glide_lipo>  (104) 
-0.680137

>  <r_i_glide_hbond>  (104) 
0

>  <r_i_glide_metal>  (104) 
-0

>  <r_i_glide_rewards>  (104) 
-0.295812

>  <r_i_glide_evdw>  (104) 
-15.9824

>  <r_i_glide_ecoul>  (104) 
0.00502122

>  <r_i_glide_erotb>  (104) 
0

>  <r_i_glide_esite>  (104) 
-0.0049424

>  <r_i_glide_emodel>  (104) 
-15.3375

>  <r_i_glide_energy>  (104) 
-15.9774

>  <r_i_glide_einternal>  (104) 
2.32373

>  <r_i_glide_intrahb_reward>  (104) 
-0

>  <i_i_glide_confnum>  (104) 
1

>  <i_i_glide_posenum>  (104) 
17

>  <r_i_glide_eff_state_penalty>  (104) 
0

>  <ligand_id>  (104) 
41

>  <original_smiles>  (104) 
COC1CC(O)C(C)(C)C2CCC3C(C)(C)OC14C1=C(C)C35C(C)=C(CC1(C)C24)C(=O)C5O

>  <smiles>  (104) 
[H]OC1([H])C(=O)C2=C(C([H])([H])[H])C13C(C([H])([H])[H])=C1C45OC(C([H])([H])[H])(C([H])([H])[H])C3([H])C([H])([H])C([H])([H])C([H])(C4([H])C1(C([H])([H])[H])C2([H])[H])C(C([H])([H])[H])(C([H])([H])[H])C([H])(O[H])C([H])([H])C5([H])OC([H])([H])[H]

$$$$
41:0:2
     RDKit          3D

 73 78  0  0  1  0  0  0  0  0999 V2000
    9.1880   -3.2482    0.8295 C   0  0  0  0  0  0  0  0  0  0  0  0
    7.8475   -3.0612    1.2751 O   0  0  0  0  0  0  0  0  0  0  0  0
    6.8392   -3.8880    0.7640 C   0  0  2  0  0  0  0  0  0  0  0  0
    6.7955   -3.5381   -0.7508 C   0  0  0  0  0  0  0  0  0  0  0  0
    5.4753   -3.6682   -1.5724 C   0  0  1  0  0  0  0  0  0  0  0  0
    5.0128   -4.9805   -1.3982 O   0  0  0  0  0  0  0  0  0  0  0  0
    4.3306   -2.5852   -1.4132 C   0  0  0  0  0  0  0  0  0  0  0  0
    4.9064   -1.2277   -1.8918 C   0  0  0  0  0  0  0  0  0  0  0  0
    3.2009   -2.8834   -2.4377 C   0  0  0  0  0  0  0  0  0  0  0  0
    3.7214   -2.4178    0.0384 C   0  0  1  0  0  0  0  0  0  0  0  0
    2.6173   -3.4467    0.3810 C   0  0  0  0  0  0  0  0  0  0  0  0
    2.1638   -3.7873    1.8496 C   0  0  0  0  0  0  0  0  0  0  0  0
    3.0431   -4.5477    2.9062 C   0  0  1  0  0  0  0  0  0  0  0  0
    3.9746   -5.5622    2.1626 C   0  0  0  0  0  0  0  0  0  0  0  0
    4.8612   -6.5005    3.0061 C   0  0  0  0  0  0  0  0  0  0  0  0
    3.1734   -6.5731    1.2849 C   0  0  0  0  0  0  0  0  0  0  0  0
    4.8181   -4.8702    1.2618 O   0  0  0  0  0  0  0  0  0  0  0  0
    5.5192   -3.6401    1.5228 C   0  0  1  0  0  0  0  0  0  0  0  0
    5.4610   -3.0203    2.9610 C   0  0  0  0  0  0  0  0  0  0  0  0
    5.0720   -3.7170    4.0893 C   0  0  0  0  0  0  0  0  0  0  0  0
    6.0243   -4.5031    4.9992 C   0  0  0  0  0  0  0  0  0  0  0  0
    3.5682   -3.9080    4.3024 C   0  0  0  0  0  0  0  0  0  0  0  0
    3.7349   -2.4074    4.8318 C   0  0  0  0  0  0  0  0  0  0  0  0
    4.4634   -2.0221    6.1317 C   0  0  0  0  0  0  0  0  0  0  0  0
    2.8676   -1.5672    4.3695 C   0  0  0  0  0  0  0  0  0  0  0  0
    3.2631   -1.1988    2.9464 C   0  0  0  0  0  0  0  0  0  0  0  0
    4.7148   -1.7112    2.4421 C   0  0  1  0  0  0  0  0  0  0  0  0
    5.6660   -0.5187    2.6823 C   0  0  0  0  0  0  0  0  0  0  0  0
    4.8321   -2.3539    1.0673 C   0  0  2  0  0  0  0  0  0  0  0  0
    1.7406   -2.4685    4.6959 C   0  0  0  0  0  0  0  0  0  0  0  0
    0.5492   -2.2860    4.5116 O   0  0  0  0  0  0  0  0  0  0  0  0
    2.3629   -3.7674    5.3000 C   0  0  1  0  0  0  0  0  0  0  0  0
    1.3920   -4.8145    5.3548 O   0  0  0  0  0  0  0  0  0  0  0  0
    9.8429   -2.5052    1.2829 H   0  0  0  0  0  0  0  0  0  0  0  0
    9.3580   -3.1336   -0.2497 H   0  0  0  0  0  0  0  0  0  0  0  0
    9.5536   -4.2252    1.1381 H   0  0  0  0  0  0  0  0  0  0  0  0
    7.1957   -4.9122    0.9330 H   0  0  0  0  0  0  0  0  0  0  0  0
    7.1915   -2.5491   -0.9571 H   0  0  0  0  0  0  0  0  0  0  0  0
    7.5761   -4.1851   -1.1257 H   0  0  0  0  0  0  0  0  0  0  0  0
    5.7818   -3.6221   -2.6179 H   0  0  0  0  0  0  0  0  0  0  0  0
    4.2667   -5.1357   -1.9504 H   0  0  0  0  0  0  0  0  0  0  0  0
    4.1558   -0.4399   -1.8378 H   0  0  0  0  0  0  0  0  0  0  0  0
    5.2109   -1.2918   -2.9368 H   0  0  0  0  0  0  0  0  0  0  0  0
    5.7703   -0.8877   -1.3237 H   0  0  0  0  0  0  0  0  0  0  0  0
    2.4032   -2.1402   -2.3650 H   0  0  0  0  0  0  0  0  0  0  0  0
    2.7348   -3.8574   -2.2861 H   0  0  0  0  0  0  0  0  0  0  0  0
    3.5740   -2.8742   -3.4652 H   0  0  0  0  0  0  0  0  0  0  0  0
    3.2306   -1.4440    0.0476 H   0  0  0  0  0  0  0  0  0  0  0  0
    1.7491   -3.0689   -0.1440 H   0  0  0  0  0  0  0  0  0  0  0  0
    2.8419   -4.3646   -0.1463 H   0  0  0  0  0  0  0  0  0  0  0  0
    1.4782   -3.0494    2.2336 H   0  0  0  0  0  0  0  0  0  0  0  0
    1.4360   -4.5794    1.6871 H   0  0  0  0  0  0  0  0  0  0  0  0
    2.3398   -5.2807    3.2875 H   0  0  0  0  0  0  0  0  0  0  0  0
    4.9884   -7.4793    2.5410 H   0  0  0  0  0  0  0  0  0  0  0  0
    4.4265   -6.6736    3.9888 H   0  0  0  0  0  0  0  0  0  0  0  0
    5.8773   -6.1235    3.0859 H   0  0  0  0  0  0  0  0  0  0  0  0
    2.6963   -7.3292    1.9067 H   0  0  0  0  0  0  0  0  0  0  0  0
    3.8375   -7.0928    0.5924 H   0  0  0  0  0  0  0  0  0  0  0  0
    2.3788   -6.1732    0.6683 H   0  0  0  0  0  0  0  0  0  0  0  0
    5.5795   -5.4152    5.3903 H   0  0  0  0  0  0  0  0  0  0  0  0
    6.3352   -3.9158    5.8598 H   0  0  0  0  0  0  0  0  0  0  0  0
    6.9234   -4.8142    4.4936 H   0  0  0  0  0  0  0  0  0  0  0  0
    4.4422   -2.7923    6.9083 H   0  0  0  0  0  0  0  0  0  0  0  0
    4.0051   -1.1294    6.5686 H   0  0  0  0  0  0  0  0  0  0  0  0
    5.5047   -1.7544    5.9348 H   0  0  0  0  0  0  0  0  0  0  0  0
    2.4863   -1.3278    2.2151 H   0  0  0  0  0  0  0  0  0  0  0  0
    3.2917   -0.1209    2.9774 H   0  0  0  0  0  0  0  0  0  0  0  0
    5.3848    0.3149    2.0520 H   0  0  0  0  0  0  0  0  0  0  0  0
    6.6992   -0.7545    2.4397 H   0  0  0  0  0  0  0  0  0  0  0  0
    5.6529   -0.1747    3.7198 H   0  0  0  0  0  0  0  0  0  0  0  0
    5.6059   -1.7483    0.6454 H   0  0  0  0  0  0  0  0  0  0  0  0
    2.6105   -3.6117    6.3419 H   0  0  0  0  0  0  0  0  0  0  0  0
    0.7396   -4.5927    6.0121 H   0  0  0  0  0  0  0  0  0  0  0  0
  1  2  1  0
  1 34  1  0
  1 35  1  0
  1 36  1  0
  2  3  1  0
  3 18  1  0
  3  4  1  0
  3 37  1  6
  4  5  1  0
  4 38  1  0
  4 39  1  0
  5  6  1  0
  5  7  1  0
  5 40  1  6
  6 41  1  0
  7  8  1  0
  7  9  1  0
  7 10  1  0
  8 42  1  0
  8 43  1  0
  8 44  1  0
  9 45  1  0
  9 46  1  0
  9 47  1  0
 10 29  1  0
 10 11  1  0
 10 48  1  6
 11 12  1  0
 11 49  1  0
 11 50  1  0
 12 13  1  0
 12 51  1  0
 12 52  1  0
 13 22  1  0
 13 14  1  0
 13 53  1  1
 14 15  1  0
 14 16  1  0
 14 17  1  0
 15 54  1  0
 15 55  1  0
 15 56  1  0
 16 57  1  0
 16 58  1  0
 16 59  1  0
 18 17  1  1
 18 29  1  0
 18 19  1  0
 19 27  1  0
 19 20  2  0
 20 21  1  0
 20 22  1  0
 21 60  1  0
 21 61  1  0
 21 62  1  0
 22 32  1  0
 22 23  1  0
 23 24  1  0
 23 25  2  0
 24 63  1  0
 24 64  1  0
 24 65  1  0
 25 26  1  0
 25 30  1  0
 26 27  1  0
 26 66  1  0
 26 67  1  0
 27 28  1  6
 27 29  1  0
 28 68  1  0
 28 69  1  0
 28 70  1  0
 29 71  1  6
 30 31  2  0
 30 32  1  0
 32 33  1  0
 32 72  1  1
 33 73  1  0
M  END
>  <i_m_ct_stereo_status>  (105) 
1

>  <s_m_source_file>  (105) 
/var/tmp/pbs.5076255.sched01/tmpcdf8lnea/434bzo3qpq.sdf

>  <i_m_source_file_index>  (105) 
4

>  <i_lp_mmshare_version>  (105) 
48012

>  <i_f3d_flags>  (105) 
0

>  <s_epik_input>  (105) 
W0NIM11PW0NAQEhdMVtDSDJdW0NAQEhdKFtPSF0pQyhbQ0gzXSkoW0NIM10pW0NASF0oW0NASF0yQzMoQz00W0NAXTEyNSlbQ0gzXSlbQ0gyXVtDSDJdW0NAQEhdKEMoTzUpKFtDSDNdKVtDSDNdKUM2KEM0W0NIM10pQyhbQ0gzXSk9QyhbQ0gyXTMpQyg9TylbQ0BIXTZbT0hd

>  <s_epik_cmdline>  (105) 
J2VwaWtfcHl0aG9uJywgJy1waHQnLCAnMi4wJywgJy1waCcsICc3LjAnLCAnLXRuJywgJzgnLCAnLW1hJywgJzIwMCcsICctaW1hZScsICc8aW5maWxlLm1hZT4nLCAnLW9tYWUnLCAnPG91dGZpbGUubWFlPic=

>  <r_epik_Ionization_Penalty>  (105) 
0.00405505

>  <r_epik_Ionization_Penalty_Charging>  (105) 
0

>  <r_epik_Ionization_Penalty_Neutral>  (105) 
0.00405505

>  <r_epik_State_Penalty>  (105) 
0.00290591

>  <r_epik_Charging_Adjusted_Penalty>  (105) 
0.00290591

>  <i_epik_Tot_Q>  (105) 
0

>  <i_epik_Tot_abs_Q>  (105) 
0

>  <s_lp_Force_Field>  (105) 
OPLS3e

>  <r_lp_Energy>  (105) 
321.889

>  <b_lp_Chiralities_Consistent>  (105) 
1

>  <s_lp_Variant>  (105) 
41:0-1

>  <s_i_glide_gridfile>  (105) 
pfpi4k_grid

>  <i_i_glide_lignum>  (105) 
4

>  <i_i_glide_rotatable_bonds>  (105) 
3

>  <r_i_docking_score>  (105) 
-1.60285

>  <r_i_glide_ligand_efficiency>  (105) 
-0.0485713

>  <r_i_glide_ligand_efficiency_sa>  (105) 
-0.155794

>  <r_i_glide_ligand_efficiency_ln>  (105) 
-0.356466

>  <r_i_glide_gscore>  (105) 
-1.60285

>  <r_i_glide_lipo>  (105) 
-0.671767

>  <r_i_glide_hbond>  (105) 
0

>  <r_i_glide_metal>  (105) 
-0

>  <r_i_glide_rewards>  (105) 
-0.29681

>  <r_i_glide_evdw>  (105) 
-7.70194

>  <r_i_glide_ecoul>  (105) 
-1.6612

>  <r_i_glide_erotb>  (105) 
0

>  <r_i_glide_esite>  (105) 
0

>  <r_i_glide_emodel>  (105) 
-7.6381

>  <r_i_glide_energy>  (105) 
-9.36313

>  <r_i_glide_einternal>  (105) 
2.24434

>  <r_i_glide_intrahb_reward>  (105) 
-0

>  <i_i_glide_confnum>  (105) 
1

>  <i_i_glide_posenum>  (105) 
20

>  <r_i_glide_eff_state_penalty>  (105) 
0

>  <ligand_id>  (105) 
41

>  <original_smiles>  (105) 
COC1CC(O)C(C)(C)C2CCC3C(C)(C)OC14C1=C(C)C35C(C)=C(CC1(C)C24)C(=O)C5O

>  <smiles>  (105) 
[H]OC1([H])C(=O)C2=C(C([H])([H])[H])C13C(C([H])([H])[H])=C1C45OC(C([H])([H])[H])(C([H])([H])[H])C3([H])C([H])([H])C([H])([H])C([H])(C4([H])C1(C([H])([H])[H])C2([H])[H])C(C([H])([H])[H])(C([H])([H])[H])C([H])(O[H])C([H])([H])C5([H])OC([H])([H])[H]

$$$$
41:1:0
     RDKit          3D

 73 78  0  0  1  0  0  0  0  0999 V2000
   -0.1904    0.8612    9.8887 C   0  0  0  0  0  0  0  0  0  0  0  0
   -0.0885    0.5290    8.5096 O   0  0  0  0  0  0  0  0  0  0  0  0
    0.5295    1.5358    7.7083 C   0  0  2  0  0  0  0  0  0  0  0  0
   -0.4520    2.7830    7.5539 C   0  0  0  0  0  0  0  0  0  0  0  0
   -0.5654    3.6428    6.2113 C   0  0  1  0  0  0  0  0  0  0  0  0
    0.5830    4.4419    6.0477 O   0  0  0  0  0  0  0  0  0  0  0  0
   -1.0640    3.0372    4.8153 C   0  0  0  0  0  0  0  0  0  0  0  0
   -2.5800    2.7533    4.9824 C   0  0  0  0  0  0  0  0  0  0  0  0
   -1.0561    4.1305    3.7139 C   0  0  0  0  0  0  0  0  0  0  0  0
   -0.3228    1.7143    4.3141 C   0  0  1  0  0  0  0  0  0  0  0  0
    1.0394    2.0094    3.4456 C   0  0  0  0  0  0  0  0  0  0  0  0
    2.5038    1.2665    3.3699 C   0  0  0  0  0  0  0  0  0  0  0  0
    3.4681    0.8765    4.6486 C   0  0  1  0  0  0  0  0  0  0  0  0
    3.2440    2.0772    5.6484 C   0  0  0  0  0  0  0  0  0  0  0  0
    3.9768    2.1300    7.0005 C   0  0  0  0  0  0  0  0  0  0  0  0
    3.6757    3.4307    5.0162 C   0  0  0  0  0  0  0  0  0  0  0  0
    1.8452    2.1696    5.8838 O   0  0  0  0  0  0  0  0  0  0  0  0
    1.0273    1.0589    6.3250 C   0  0  1  0  0  0  0  0  0  0  0  0
    1.0128   -0.2583    5.4015 C   0  0  0  0  0  0  0  0  0  0  0  0
    1.8851   -0.8691    4.6458 C   0  0  0  0  0  0  0  0  0  0  0  0
    1.5825   -1.9448    3.5801 C   0  0  0  0  0  0  0  0  0  0  0  0
    3.2385   -0.6203    5.2578 C   0  0  2  0  0  0  0  0  0  0  0  0
    3.0808   -0.7720    6.8333 C   0  0  0  0  0  0  0  0  0  0  0  0
    4.3953   -0.7315    7.6531 C   0  0  0  0  0  0  0  0  0  0  0  0
    2.2801   -1.8277    7.0993 C   0  0  0  0  0  0  0  0  0  0  0  0
    0.6637   -1.7949    6.9070 C   0  0  0  0  0  0  0  0  0  0  0  0
   -0.1735   -0.7717    5.8852 C   0  0  2  0  0  0  0  0  0  0  0  0
   -1.1571   -1.5760    5.0248 C   0  0  0  0  0  0  0  0  0  0  0  0
   -0.2652    0.8363    5.6230 C   0  0  2  0  0  0  0  0  0  0  0  0
    3.0301   -2.7780    6.1907 C   0  0  0  0  0  0  0  0  0  0  0  0
    2.8911   -4.0106    6.1375 O   0  0  0  0  0  0  0  0  0  0  0  0
    3.9995   -1.9919    5.2135 C   0  0  1  0  0  0  0  0  0  0  0  0
    4.2743   -2.6385    3.9815 O   0  0  0  0  0  0  0  0  0  0  0  0
   -0.6087    0.0196   10.4399 H   0  0  0  0  0  0  0  0  0  0  0  0
   -0.8430    1.7196   10.0496 H   0  0  0  0  0  0  0  0  0  0  0  0
    0.7855    1.0795   10.3235 H   0  0  0  0  0  0  0  0  0  0  0  0
    1.3944    1.8858    8.2691 H   0  0  0  0  0  0  0  0  0  0  0  0
   -1.4662    2.4629    7.8020 H   0  0  0  0  0  0  0  0  0  0  0  0
   -0.2095    3.4722    8.3619 H   0  0  0  0  0  0  0  0  0  0  0  0
   -1.3097    4.3961    6.4681 H   0  0  0  0  0  0  0  0  0  0  0  0
    1.2796    3.8537    5.7823 H   0  0  0  0  0  0  0  0  0  0  0  0
   -2.9896    2.2848    4.0890 H   0  0  0  0  0  0  0  0  0  0  0  0
   -3.1402    3.6706    5.1403 H   0  0  0  0  0  0  0  0  0  0  0  0
   -2.8197    2.1415    5.8453 H   0  0  0  0  0  0  0  0  0  0  0  0
   -1.3730    3.7295    2.7507 H   0  0  0  0  0  0  0  0  0  0  0  0
   -0.0905    4.6123    3.5664 H   0  0  0  0  0  0  0  0  0  0  0  0
   -1.7461    4.9329    3.9620 H   0  0  0  0  0  0  0  0  0  0  0  0
   -0.9933    1.2193    3.6129 H   0  0  0  0  0  0  0  0  0  0  0  0
    0.7032    2.0872    2.4120 H   0  0  0  0  0  0  0  0  0  0  0  0
    1.2959    3.0362    3.6676 H   0  0  0  0  0  0  0  0  0  0  0  0
    2.4535    0.4487    2.6498 H   0  0  0  0  0  0  0  0  0  0  0  0
    3.1063    1.9583    2.7891 H   0  0  0  0  0  0  0  0  0  0  0  0
    4.5057    0.9024    4.3191 H   0  0  0  0  0  0  0  0  0  0  0  0
    5.0121    1.8068    6.9200 H   0  0  0  0  0  0  0  0  0  0  0  0
    3.4541    1.5832    7.7703 H   0  0  0  0  0  0  0  0  0  0  0  0
    4.0044    3.1370    7.4107 H   0  0  0  0  0  0  0  0  0  0  0  0
    4.7532    3.4671    4.8990 H   0  0  0  0  0  0  0  0  0  0  0  0
    3.4054    4.2666    5.6599 H   0  0  0  0  0  0  0  0  0  0  0  0
    3.2579    3.6683    4.0459 H   0  0  0  0  0  0  0  0  0  0  0  0
    2.2665   -1.8786    2.7349 H   0  0  0  0  0  0  0  0  0  0  0  0
    0.6092   -1.7687    3.1297 H   0  0  0  0  0  0  0  0  0  0  0  0
    1.5802   -2.9716    3.9485 H   0  0  0  0  0  0  0  0  0  0  0  0
    5.2478   -0.3402    7.0888 H   0  0  0  0  0  0  0  0  0  0  0  0
    4.6986   -1.7231    8.0175 H   0  0  0  0  0  0  0  0  0  0  0  0
    4.2888   -0.1440    8.5654 H   0  0  0  0  0  0  0  0  0  0  0  0
    0.4111   -2.8205    6.6394 H   0  0  0  0  0  0  0  0  0  0  0  0
    0.2527   -1.7108    7.9011 H   0  0  0  0  0  0  0  0  0  0  0  0
   -0.8139   -2.5846    4.7844 H   0  0  0  0  0  0  0  0  0  0  0  0
   -1.4144   -1.0671    4.0922 H   0  0  0  0  0  0  0  0  0  0  0  0
   -2.0950   -1.6985    5.5651 H   0  0  0  0  0  0  0  0  0  0  0  0
   -1.1659    0.9529    6.1974 H   0  0  0  0  0  0  0  0  0  0  0  0
    4.9860   -1.9502    5.6748 H   0  0  0  0  0  0  0  0  0  0  0  0
    3.4505   -2.8048    3.5465 H   0  0  0  0  0  0  0  0  0  0  0  0
  1  2  1  0
  1 34  1  0
  1 35  1  0
  1 36  1  0
  2  3  1  0
  3 18  1  0
  3  4  1  0
  3 37  1  1
  4  5  1  0
  4 38  1  0
  4 39  1  0
  5  6  1  0
  5  7  1  0
  5 40  1  1
  6 41  1  0
  7  8  1  0
  7  9  1  0
  7 10  1  0
  8 42  1  0
  8 43  1  0
  8 44  1  0
  9 45  1  0
  9 46  1  0
  9 47  1  0
 10 29  1  0
 10 11  1  0
 10 48  1  6
 11 12  1  0
 11 49  1  0
 11 50  1  0
 12 13  1  0
 12 51  1  0
 12 52  1  0
 13 22  1  0
 13 14  1  0
 13 53  1  6
 14 15  1  0
 14 16  1  0
 14 17  1  0
 15 54  1  0
 15 55  1  0
 15 56  1  0
 16 57  1  0
 16 58  1  0
 16 59  1  0
 18 17  1  6
 18 29  1  0
 18 19  1  0
 19 27  1  0
 19 20  2  0
 20 21  1  0
 22 20  1  6
 21 60  1  0
 21 61  1  0
 21 62  1  0
 22 32  1  0
 22 23  1  0
 23 24  1  0
 23 25  2  0
 24 63  1  0
 24 64  1  0
 24 65  1  0
 25 26  1  0
 25 30  1  0
 26 27  1  0
 26 66  1  0
 26 67  1  0
 27 28  1  6
 27 29  1  0
 28 68  1  0
 28 69  1  0
 28 70  1  0
 29 71  1  1
 30 31  2  0
 30 32  1  0
 32 33  1  0
 32 72  1  1
 33 73  1  0
M  END
>  <i_m_ct_stereo_status>  (106) 
1

>  <s_m_source_file>  (106) 
/var/tmp/pbs.5076255.sched01/tmpcdf8lnea/434bzo3qpq.sdf

>  <i_m_source_file_index>  (106) 
5

>  <i_lp_mmshare_version>  (106) 
48012

>  <i_f3d_flags>  (106) 
0

>  <s_epik_input>  (106) 
W0NIM11PW0NAQEhdMVtDSDJdW0NAQEhdKFtPSF0pQyhbQ0gzXSkoW0NIM10pW0NASF0oW0NASF0yQzMoQz00W0NAXTEyNSlbQ0gzXSlbQ0gyXVtDSDJdW0NAQEhdKEMoTzUpKFtDSDNdKVtDSDNdKUM2KEM0W0NIM10pQyhbQ0gzXSk9QyhbQ0gyXTMpQyg9TylbQ0BIXTZbT0hd

>  <s_epik_cmdline>  (106) 
J2VwaWtfcHl0aG9uJywgJy1waHQnLCAnMi4wJywgJy1waCcsICc3LjAnLCAnLXRuJywgJzgnLCAnLW1hJywgJzIwMCcsICctaW1hZScsICc8aW5maWxlLm1hZT4nLCAnLW9tYWUnLCAnPG91dGZpbGUubWFlPic=

>  <r_epik_Ionization_Penalty>  (106) 
0.00405505

>  <r_epik_Ionization_Penalty_Charging>  (106) 
0

>  <r_epik_Ionization_Penalty_Neutral>  (106) 
0.00405505

>  <r_epik_State_Penalty>  (106) 
0.00290591

>  <r_epik_Charging_Adjusted_Penalty>  (106) 
0.00290591

>  <i_epik_Tot_Q>  (106) 
0

>  <i_epik_Tot_abs_Q>  (106) 
0

>  <s_lp_Force_Field>  (106) 
OPLS3e

>  <r_lp_Energy>  (106) 
389.001

>  <b_lp_Chiralities_Consistent>  (106) 
1

>  <s_lp_Variant>  (106) 
41:0-2

>  <s_i_glide_gridfile>  (106) 
pfpi4k_grid

>  <i_i_glide_lignum>  (106) 
5

>  <i_i_glide_rotatable_bonds>  (106) 
3

>  <r_i_docking_score>  (106) 
-1.8443

>  <r_i_glide_ligand_efficiency>  (106) 
-0.0558879

>  <r_i_glide_ligand_efficiency_sa>  (106) 
-0.179262

>  <r_i_glide_ligand_efficiency_ln>  (106) 
-0.410163

>  <r_i_glide_gscore>  (106) 
-1.8443

>  <r_i_glide_lipo>  (106) 
-0.0136063

>  <r_i_glide_hbond>  (106) 
0

>  <r_i_glide_metal>  (106) 
-0

>  <r_i_glide_rewards>  (106) 
-0.795812

>  <r_i_glide_evdw>  (106) 
-17.0304

>  <r_i_glide_ecoul>  (106) 
-1.22243

>  <r_i_glide_erotb>  (106) 
0

>  <r_i_glide_esite>  (106) 
0

>  <r_i_glide_emodel>  (106) 
-24.4036

>  <r_i_glide_energy>  (106) 
-18.2528

>  <r_i_glide_einternal>  (106) 
1.63746

>  <r_i_glide_intrahb_reward>  (106) 
-0.5

>  <i_i_glide_confnum>  (106) 
1

>  <i_i_glide_posenum>  (106) 
1

>  <r_i_glide_eff_state_penalty>  (106) 
0

>  <ligand_id>  (106) 
41

>  <original_smiles>  (106) 
COC1CC(O)C(C)(C)C2CCC3C(C)(C)OC14C1=C(C)C35C(C)=C(CC1(C)C24)C(=O)C5O

>  <smiles>  (106) 
[H]OC1([H])C(=O)C2=C(C([H])([H])[H])C13C(C([H])([H])[H])=C1C45OC(C([H])([H])[H])(C([H])([H])[H])C3([H])C([H])([H])C([H])([H])C([H])(C4([H])C1(C([H])([H])[H])C2([H])[H])C(C([H])([H])[H])(C([H])([H])[H])C([H])(O[H])C([H])([H])C5([H])OC([H])([H])[H]

$$$$
41:1:1
     RDKit          3D

 73 78  0  0  1  0  0  0  0  0999 V2000
    0.5573    2.2350    9.1210 C   0  0  0  0  0  0  0  0  0  0  0  0
    0.4666    1.5875    7.8601 O   0  0  0  0  0  0  0  0  0  0  0  0
    0.7173    2.4335    6.7417 C   0  0  2  0  0  0  0  0  0  0  0  0
   -0.4488    3.5038    6.5821 C   0  0  0  0  0  0  0  0  0  0  0  0
   -0.9628    4.0086    5.1600 C   0  0  1  0  0  0  0  0  0  0  0  0
   -0.0977    4.9306    4.5382 O   0  0  0  0  0  0  0  0  0  0  0  0
   -1.6533    3.0569    4.0986 C   0  0  0  0  0  0  0  0  0  0  0  0
   -2.9622    2.6467    4.7111 C   0  0  0  0  0  0  0  0  0  0  0  0
   -2.1512    3.8452    2.8593 C   0  0  0  0  0  0  0  0  0  0  0  0
   -0.8923    1.7080    3.7131 C   0  0  1  0  0  0  0  0  0  0  0  0
    0.1572    1.9143    2.4837 C   0  0  0  0  0  0  0  0  0  0  0  0
    1.6604    1.3409    2.1886 C   0  0  0  0  0  0  0  0  0  0  0  0
    2.9322    1.3792    3.2358 C   0  0  1  0  0  0  0  0  0  0  0  0
    2.7596    2.7689    3.9844 C   0  0  0  0  0  0  0  0  0  0  0  0
    3.7285    3.2258    5.0996 C   0  0  0  0  0  0  0  0  0  0  0  0
    2.7899    3.9774    2.9941 C   0  0  0  0  0  0  0  0  0  0  0  0
    1.4538    2.7472    4.5551 O   0  0  0  0  0  0  0  0  0  0  0  0
    0.9606    1.6900    5.3976 C   0  0  1  0  0  0  0  0  0  0  0  0
    0.9329    0.2049    4.8164 C   0  0  0  0  0  0  0  0  0  0  0  0
    1.7264   -0.4843    3.9794 C   0  0  0  0  0  0  0  0  0  0  0  0
    1.3596   -1.7943    3.2778 C   0  0  0  0  0  0  0  0  0  0  0  0
    3.0988    0.0645    4.1816 C   0  0  2  0  0  0  0  0  0  0  0  0
    3.3471    0.2756    5.7355 C   0  0  0  0  0  0  0  0  0  0  0  0
    4.7828    0.6600    6.1620 C   0  0  0  0  0  0  0  0  0  0  0  0
    2.7958   -0.7630    6.4069 C   0  0  0  0  0  0  0  0  0  0  0  0
    1.1988   -0.9589    6.6285 C   0  0  0  0  0  0  0  0  0  0  0  0
    0.0083   -0.3128    5.6605 C   0  0  2  0  0  0  0  0  0  0  0  0
   -1.0061   -1.3955    5.2587 C   0  0  0  0  0  0  0  0  0  0  0  0
   -0.3950    1.1663    5.1112 C   0  0  2  0  0  0  0  0  0  0  0  0
    3.4765   -1.8439    5.5539 C   0  0  0  0  0  0  0  0  0  0  0  0
    3.5565   -3.0183    5.7874 O   0  0  0  0  0  0  0  0  0  0  0  0
    4.0549   -1.1737    4.2144 C   0  0  1  0  0  0  0  0  0  0  0  0
    4.1505   -2.0664    3.1136 O   0  0  0  0  0  0  0  0  0  0  0  0
    0.4125    1.5043    9.9155 H   0  0  0  0  0  0  0  0  0  0  0  0
   -0.2054    3.0041    9.2381 H   0  0  0  0  0  0  0  0  0  0  0  0
    1.5357    2.6938    9.2601 H   0  0  0  0  0  0  0  0  0  0  0  0
    1.6101    3.0054    6.9805 H   0  0  0  0  0  0  0  0  0  0  0  0
   -1.3260    3.1391    7.1224 H   0  0  0  0  0  0  0  0  0  0  0  0
   -0.1624    4.3853    7.1539 H   0  0  0  0  0  0  0  0  0  0  0  0
   -1.7555    4.6817    5.4505 H   0  0  0  0  0  0  0  0  0  0  0  0
    0.3523    4.4488    3.8566 H   0  0  0  0  0  0  0  0  0  0  0  0
   -3.4200    2.0753    3.9197 H   0  0  0  0  0  0  0  0  0  0  0  0
   -3.6621    3.4284    4.8935 H   0  0  0  0  0  0  0  0  0  0  0  0
   -2.8777    2.1581    5.6775 H   0  0  0  0  0  0  0  0  0  0  0  0
   -2.5855    3.1856    2.1074 H   0  0  0  0  0  0  0  0  0  0  0  0
   -1.3683    4.4161    2.3871 H   0  0  0  0  0  0  0  0  0  0  0  0
   -2.9113    4.5845    3.1063 H   0  0  0  0  0  0  0  0  0  0  0  0
   -1.6168    0.9928    3.3199 H   0  0  0  0  0  0  0  0  0  0  0  0
   -0.4066    1.7470    1.5650 H   0  0  0  0  0  0  0  0  0  0  0  0
    0.2991    2.9789    2.4924 H   0  0  0  0  0  0  0  0  0  0  0  0
    1.5900    0.3804    1.6771 H   0  0  0  0  0  0  0  0  0  0  0  0
    1.9980    1.9530    1.3604 H   0  0  0  0  0  0  0  0  0  0  0  0
    3.8193    1.3622    2.6162 H   0  0  0  0  0  0  0  0  0  0  0  0
    4.7635    2.9945    4.8956 H   0  0  0  0  0  0  0  0  0  0  0  0
    3.4686    2.8294    6.0696 H   0  0  0  0  0  0  0  0  0  0  0  0
    3.6923    4.3023    5.2514 H   0  0  0  0  0  0  0  0  0  0  0  0
    3.7701    4.1332    2.5694 H   0  0  0  0  0  0  0  0  0  0  0  0
    2.5381    4.9051    3.5051 H   0  0  0  0  0  0  0  0  0  0  0  0
    2.1153    3.9263    2.1466 H   0  0  0  0  0  0  0  0  0  0  0  0
    1.8196   -1.8471    2.2881 H   0  0  0  0  0  0  0  0  0  0  0  0
    0.2948   -1.8340    3.0685 H   0  0  0  0  0  0  0  0  0  0  0  0
    1.6156   -2.6968    3.8348 H   0  0  0  0  0  0  0  0  0  0  0  0
    5.3997    0.9944    5.3254 H   0  0  0  0  0  0  0  0  0  0  0  0
    5.3118   -0.1771    6.6255 H   0  0  0  0  0  0  0  0  0  0  0  0
    4.7855    1.4345    6.9281 H   0  0  0  0  0  0  0  0  0  0  0  0
    1.0651   -2.0398    6.6429 H   0  0  0  0  0  0  0  0  0  0  0  0
    1.0065   -0.6833    7.6578 H   0  0  0  0  0  0  0  0  0  0  0  0
   -0.5667   -2.3876    5.1486 H   0  0  0  0  0  0  0  0  0  0  0  0
   -1.5452   -1.1465    4.3371 H   0  0  0  0  0  0  0  0  0  0  0  0
   -1.7699   -1.4849    6.0297 H   0  0  0  0  0  0  0  0  0  0  0  0
   -1.1372    1.3095    5.8749 H   0  0  0  0  0  0  0  0  0  0  0  0
    5.0982   -0.9150    4.3878 H   0  0  0  0  0  0  0  0  0  0  0  0
    3.2896   -2.4049    2.9281 H   0  0  0  0  0  0  0  0  0  0  0  0
  1  2  1  0
  1 34  1  0
  1 35  1  0
  1 36  1  0
  2  3  1  0
  3 18  1  0
  3  4  1  0
  3 37  1  1
  4  5  1  0
  4 38  1  0
  4 39  1  0
  5  6  1  0
  5  7  1  0
  5 40  1  1
  6 41  1  0
  7  8  1  0
  7  9  1  0
  7 10  1  0
  8 42  1  0
  8 43  1  0
  8 44  1  0
  9 45  1  0
  9 46  1  0
  9 47  1  0
 10 29  1  0
 10 11  1  0
 10 48  1  6
 11 12  1  0
 11 49  1  0
 11 50  1  0
 12 13  1  0
 12 51  1  0
 12 52  1  0
 13 22  1  0
 13 14  1  0
 13 53  1  6
 14 15  1  0
 14 16  1  0
 14 17  1  0
 15 54  1  0
 15 55  1  0
 15 56  1  0
 16 57  1  0
 16 58  1  0
 16 59  1  0
 18 17  1  6
 18 29  1  0
 18 19  1  0
 19 27  1  0
 19 20  2  0
 20 21  1  0
 22 20  1  1
 21 60  1  0
 21 61  1  0
 21 62  1  0
 22 32  1  0
 22 23  1  0
 23 24  1  0
 23 25  2  0
 24 63  1  0
 24 64  1  0
 24 65  1  0
 25 26  1  0
 25 30  1  0
 26 27  1  0
 26 66  1  0
 26 67  1  0
 27 28  1  6
 27 29  1  0
 28 68  1  0
 28 69  1  0
 28 70  1  0
 29 71  1  1
 30 31  2  0
 30 32  1  0
 32 33  1  0
 32 72  1  1
 33 73  1  0
M  END
>  <i_m_ct_stereo_status>  (107) 
1

>  <s_m_source_file>  (107) 
/var/tmp/pbs.5076255.sched01/tmpcdf8lnea/434bzo3qpq.sdf

>  <i_m_source_file_index>  (107) 
5

>  <i_lp_mmshare_version>  (107) 
48012

>  <i_f3d_flags>  (107) 
0

>  <s_epik_input>  (107) 
W0NIM11PW0NAQEhdMVtDSDJdW0NAQEhdKFtPSF0pQyhbQ0gzXSkoW0NIM10pW0NASF0oW0NASF0yQzMoQz00W0NAXTEyNSlbQ0gzXSlbQ0gyXVtDSDJdW0NAQEhdKEMoTzUpKFtDSDNdKVtDSDNdKUM2KEM0W0NIM10pQyhbQ0gzXSk9QyhbQ0gyXTMpQyg9TylbQ0BIXTZbT0hd

>  <s_epik_cmdline>  (107) 
J2VwaWtfcHl0aG9uJywgJy1waHQnLCAnMi4wJywgJy1waCcsICc3LjAnLCAnLXRuJywgJzgnLCAnLW1hJywgJzIwMCcsICctaW1hZScsICc8aW5maWxlLm1hZT4nLCAnLW9tYWUnLCAnPG91dGZpbGUubWFlPic=

>  <r_epik_Ionization_Penalty>  (107) 
0.00405505

>  <r_epik_Ionization_Penalty_Charging>  (107) 
0

>  <r_epik_Ionization_Penalty_Neutral>  (107) 
0.00405505

>  <r_epik_State_Penalty>  (107) 
0.00290591

>  <r_epik_Charging_Adjusted_Penalty>  (107) 
0.00290591

>  <i_epik_Tot_Q>  (107) 
0

>  <i_epik_Tot_abs_Q>  (107) 
0

>  <s_lp_Force_Field>  (107) 
OPLS3e

>  <r_lp_Energy>  (107) 
389.001

>  <b_lp_Chiralities_Consistent>  (107) 
1

>  <s_lp_Variant>  (107) 
41:0-2

>  <s_i_glide_gridfile>  (107) 
pfpi4k_grid

>  <i_i_glide_lignum>  (107) 
5

>  <i_i_glide_rotatable_bonds>  (107) 
3

>  <r_i_docking_score>  (107) 
-1.45104

>  <r_i_glide_ligand_efficiency>  (107) 
-0.0439709

>  <r_i_glide_ligand_efficiency_sa>  (107) 
-0.141038

>  <r_i_glide_ligand_efficiency_ln>  (107) 
-0.322704

>  <r_i_glide_gscore>  (107) 
-1.45104

>  <r_i_glide_lipo>  (107) 
-0.010777

>  <r_i_glide_hbond>  (107) 
0

>  <r_i_glide_metal>  (107) 
-0

>  <r_i_glide_rewards>  (107) 
-0.295812

>  <r_i_glide_evdw>  (107) 
-15.9037

>  <r_i_glide_ecoul>  (107) 
-2.32845

>  <r_i_glide_erotb>  (107) 
0

>  <r_i_glide_esite>  (107) 
0

>  <r_i_glide_emodel>  (107) 
-17.6019

>  <r_i_glide_energy>  (107) 
-18.2321

>  <r_i_glide_einternal>  (107) 
2.58174

>  <r_i_glide_intrahb_reward>  (107) 
-0

>  <i_i_glide_confnum>  (107) 
2

>  <i_i_glide_posenum>  (107) 
8

>  <r_i_glide_eff_state_penalty>  (107) 
0

>  <ligand_id>  (107) 
41

>  <original_smiles>  (107) 
COC1CC(O)C(C)(C)C2CCC3C(C)(C)OC14C1=C(C)C35C(C)=C(CC1(C)C24)C(=O)C5O

>  <smiles>  (107) 
[H]OC1([H])C(=O)C2=C(C([H])([H])[H])C13C(C([H])([H])[H])=C1C45OC(C([H])([H])[H])(C([H])([H])[H])C3([H])C([H])([H])C([H])([H])C([H])(C4([H])C1(C([H])([H])[H])C2([H])[H])C(C([H])([H])[H])(C([H])([H])[H])C([H])(O[H])C([H])([H])C5([H])OC([H])([H])[H]

$$$$
41:1:2
     RDKit          3D

 73 78  0  0  1  0  0  0  0  0999 V2000
    0.4782   -1.0990    9.4542 C   0  0  0  0  0  0  0  0  0  0  0  0
    0.3068   -0.5458    8.1568 O   0  0  0  0  0  0  0  0  0  0  0  0
    1.0233    0.6662    7.9291 C   0  0  2  0  0  0  0  0  0  0  0  0
    0.3695    1.8525    8.7744 C   0  0  0  0  0  0  0  0  0  0  0  0
    0.2760    3.3561    8.2400 C   0  0  1  0  0  0  0  0  0  0  0  0
    1.5424    3.9872    8.3008 O   0  0  0  0  0  0  0  0  0  0  0  0
   -0.5685    3.7757    6.9422 C   0  0  0  0  0  0  0  0  0  0  0  0
   -2.0761    3.6120    7.3059 C   0  0  0  0  0  0  0  0  0  0  0  0
   -0.4448    5.3068    6.7004 C   0  0  0  0  0  0  0  0  0  0  0  0
   -0.2474    2.9496    5.6067 C   0  0  1  0  0  0  0  0  0  0  0  0
    1.0056    3.5615    4.7280 C   0  0  0  0  0  0  0  0  0  0  0  0
    2.2181    2.8654    3.8570 C   0  0  0  0  0  0  0  0  0  0  0  0
    3.2316    1.6735    4.3818 C   0  0  1  0  0  0  0  0  0  0  0  0
    3.4612    2.0388    5.8980 C   0  0  0  0  0  0  0  0  0  0  0  0
    4.3749    1.1848    6.7948 C   0  0  0  0  0  0  0  0  0  0  0  0
    4.1216    3.4420    6.0447 C   0  0  0  0  0  0  0  0  0  0  0  0
    2.1762    2.1081    6.5051 O   0  0  0  0  0  0  0  0  0  0  0  0
    1.1841    1.0632    6.4390 C   0  0  1  0  0  0  0  0  0  0  0  0
    0.7050    0.6018    4.9731 C   0  0  0  0  0  0  0  0  0  0  0  0
    1.2861    0.4792    3.8051 C   0  0  0  0  0  0  0  0  0  0  0  0
    0.5703    0.3080    2.4502 C   0  0  0  0  0  0  0  0  0  0  0  0
    2.7310    0.1536    4.0742 C   0  0  2  0  0  0  0  0  0  0  0  0
    2.7866   -0.9106    5.2540 C   0  0  0  0  0  0  0  0  0  0  0  0
    4.1806   -1.5152    5.5857 C   0  0  0  0  0  0  0  0  0  0  0  0
    1.7906   -1.8113    5.0820 C   0  0  0  0  0  0  0  0  0  0  0  0
    0.2190   -1.4907    5.3864 C   0  0  0  0  0  0  0  0  0  0  0  0
   -0.4784    0.0258    5.3721 C   0  0  2  0  0  0  0  0  0  0  0  0
   -1.7513    0.0218    4.5238 C   0  0  0  0  0  0  0  0  0  0  0  0
   -0.2206    1.4548    6.1135 C   0  0  2  0  0  0  0  0  0  0  0  0
    2.1413   -2.1059    3.6379 C   0  0  0  0  0  0  0  0  0  0  0  0
    1.7056   -3.0320    2.9581 O   0  0  0  0  0  0  0  0  0  0  0  0
    3.1152   -0.9836    3.0675 C   0  0  1  0  0  0  0  0  0  0  0  0
    3.0349   -0.7964    1.6659 O   0  0  0  0  0  0  0  0  0  0  0  0
   -0.0557   -2.0476    9.5209 H   0  0  0  0  0  0  0  0  0  0  0  0
    0.0794   -0.4420   10.2268 H   0  0  0  0  0  0  0  0  0  0  0  0
    1.5288   -1.2946    9.6686 H   0  0  0  0  0  0  0  0  0  0  0  0
    2.0211    0.5067    8.3339 H   0  0  0  0  0  0  0  0  0  0  0  0
   -0.6467    1.5596    9.0489 H   0  0  0  0  0  0  0  0  0  0  0  0
    0.8892    1.8727    9.7329 H   0  0  0  0  0  0  0  0  0  0  0  0
   -0.2325    3.8674    9.0579 H   0  0  0  0  0  0  0  0  0  0  0  0
    1.9141    3.8373    9.1540 H   0  0  0  0  0  0  0  0  0  0  0  0
   -2.7223    3.8095    6.4514 H   0  0  0  0  0  0  0  0  0  0  0  0
   -2.3773    4.3126    8.0877 H   0  0  0  0  0  0  0  0  0  0  0  0
   -2.3422    2.6292    7.6890 H   0  0  0  0  0  0  0  0  0  0  0  0
   -0.9792    5.6014    5.7992 H   0  0  0  0  0  0  0  0  0  0  0  0
    0.5819    5.6538    6.5986 H   0  0  0  0  0  0  0  0  0  0  0  0
   -0.8571    5.8819    7.5321 H   0  0  0  0  0  0  0  0  0  0  0  0
   -1.1101    3.0540    4.9496 H   0  0  0  0  0  0  0  0  0  0  0  0
    0.5509    4.2818    4.0458 H   0  0  0  0  0  0  0  0  0  0  0  0
    1.5360    4.2025    5.4192 H   0  0  0  0  0  0  0  0  0  0  0  0
    1.8599    2.6615    2.8465 H   0  0  0  0  0  0  0  0  0  0  0  0
    2.8832    3.6953    3.6289 H   0  0  0  0  0  0  0  0  0  0  0  0
    4.1861    1.7712    3.8655 H   0  0  0  0  0  0  0  0  0  0  0  0
    5.2771    0.8650    6.2787 H   0  0  0  0  0  0  0  0  0  0  0  0
    3.8506    0.3469    7.2287 H   0  0  0  0  0  0  0  0  0  0  0  0
    4.7052    1.7295    7.6773 H   0  0  0  0  0  0  0  0  0  0  0  0
    5.1473    3.4314    5.6792 H   0  0  0  0  0  0  0  0  0  0  0  0
    4.1585    3.7401    7.0916 H   0  0  0  0  0  0  0  0  0  0  0  0
    3.6210    4.2619    5.5456 H   0  0  0  0  0  0  0  0  0  0  0  0
    1.1210    0.7932    1.6465 H   0  0  0  0  0  0  0  0  0  0  0  0
   -0.3889    0.8214    2.4560 H   0  0  0  0  0  0  0  0  0  0  0  0
    0.3843   -0.7250    2.1639 H   0  0  0  0  0  0  0  0  0  0  0  0
    5.0023   -0.9515    5.1341 H   0  0  0  0  0  0  0  0  0  0  0  0
    4.2716   -2.5483    5.2313 H   0  0  0  0  0  0  0  0  0  0  0  0
    4.3465   -1.5833    6.6650 H   0  0  0  0  0  0  0  0  0  0  0  0
   -0.3145   -2.1092    4.6646 H   0  0  0  0  0  0  0  0  0  0  0  0
   -0.0127   -1.9874    6.3276 H   0  0  0  0  0  0  0  0  0  0  0  0
   -1.7025   -0.6607    3.6771 H   0  0  0  0  0  0  0  0  0  0  0  0
   -2.0133    1.0121    4.1441 H   0  0  0  0  0  0  0  0  0  0  0  0
   -2.5954   -0.3057    5.1323 H   0  0  0  0  0  0  0  0  0  0  0  0
   -0.9755    1.3100    6.8770 H   0  0  0  0  0  0  0  0  0  0  0  0
    4.1416   -1.3295    3.1945 H   0  0  0  0  0  0  0  0  0  0  0  0
    2.1345   -0.6460    1.4120 H   0  0  0  0  0  0  0  0  0  0  0  0
  1  2  1  0
  1 34  1  0
  1 35  1  0
  1 36  1  0
  2  3  1  0
  3 18  1  0
  3  4  1  0
  3 37  1  1
  4  5  1  0
  4 38  1  0
  4 39  1  0
  5  6  1  0
  5  7  1  0
  5 40  1  1
  6 41  1  0
  7  8  1  0
  7  9  1  0
  7 10  1  0
  8 42  1  0
  8 43  1  0
  8 44  1  0
  9 45  1  0
  9 46  1  0
  9 47  1  0
 10 29  1  0
 10 11  1  0
 10 48  1  6
 11 12  1  0
 11 49  1  0
 11 50  1  0
 12 13  1  0
 12 51  1  0
 12 52  1  0
 13 22  1  0
 13 14  1  0
 13 53  1  6
 14 15  1  0
 14 16  1  0
 14 17  1  0
 15 54  1  0
 15 55  1  0
 15 56  1  0
 16 57  1  0
 16 58  1  0
 16 59  1  0
 18 17  1  6
 18 29  1  0
 18 19  1  0
 19 27  1  0
 19 20  2  0
 20 21  1  0
 22 20  1  6
 21 60  1  0
 21 61  1  0
 21 62  1  0
 22 32  1  0
 22 23  1  0
 23 24  1  0
 23 25  2  0
 24 63  1  0
 24 64  1  0
 24 65  1  0
 25 26  1  0
 25 30  1  0
 26 27  1  0
 26 66  1  0
 26 67  1  0
 27 28  1  6
 27 29  1  0
 28 68  1  0
 28 69  1  0
 28 70  1  0
 29 71  1  1
 30 31  2  0
 30 32  1  0
 32 33  1  0
 32 72  1  6
 33 73  1  0
M  END
>  <i_m_ct_stereo_status>  (108) 
1

>  <s_m_source_file>  (108) 
/var/tmp/pbs.5076255.sched01/tmpcdf8lnea/434bzo3qpq.sdf

>  <i_m_source_file_index>  (108) 
5

>  <i_lp_mmshare_version>  (108) 
48012

>  <i_f3d_flags>  (108) 
0

>  <s_epik_input>  (108) 
W0NIM11PW0NAQEhdMVtDSDJdW0NAQEhdKFtPSF0pQyhbQ0gzXSkoW0NIM10pW0NASF0oW0NASF0yQzMoQz00W0NAXTEyNSlbQ0gzXSlbQ0gyXVtDSDJdW0NAQEhdKEMoTzUpKFtDSDNdKVtDSDNdKUM2KEM0W0NIM10pQyhbQ0gzXSk9QyhbQ0gyXTMpQyg9TylbQ0BIXTZbT0hd

>  <s_epik_cmdline>  (108) 
J2VwaWtfcHl0aG9uJywgJy1waHQnLCAnMi4wJywgJy1waCcsICc3LjAnLCAnLXRuJywgJzgnLCAnLW1hJywgJzIwMCcsICctaW1hZScsICc8aW5maWxlLm1hZT4nLCAnLW9tYWUnLCAnPG91dGZpbGUubWFlPic=

>  <r_epik_Ionization_Penalty>  (108) 
0.00405505

>  <r_epik_Ionization_Penalty_Charging>  (108) 
0

>  <r_epik_Ionization_Penalty_Neutral>  (108) 
0.00405505

>  <r_epik_State_Penalty>  (108) 
0.00290591

>  <r_epik_Charging_Adjusted_Penalty>  (108) 
0.00290591

>  <i_epik_Tot_Q>  (108) 
0

>  <i_epik_Tot_abs_Q>  (108) 
0

>  <s_lp_Force_Field>  (108) 
OPLS3e

>  <r_lp_Energy>  (108) 
389.001

>  <b_lp_Chiralities_Consistent>  (108) 
1

>  <s_lp_Variant>  (108) 
41:0-2

>  <s_i_glide_gridfile>  (108) 
pfpi4k_grid

>  <i_i_glide_lignum>  (108) 
5

>  <i_i_glide_rotatable_bonds>  (108) 
3

>  <r_i_docking_score>  (108) 
-1.32624

>  <r_i_glide_ligand_efficiency>  (108) 
-0.0401891

>  <r_i_glide_ligand_efficiency_sa>  (108) 
-0.128908

>  <r_i_glide_ligand_efficiency_ln>  (108) 
-0.294949

>  <r_i_glide_gscore>  (108) 
-1.32624

>  <r_i_glide_lipo>  (108) 
-0.0748489

>  <r_i_glide_hbond>  (108) 
0

>  <r_i_glide_metal>  (108) 
-0

>  <r_i_glide_rewards>  (108) 
-0.295812

>  <r_i_glide_evdw>  (108) 
-18.4636

>  <r_i_glide_ecoul>  (108) 
-0.216002

>  <r_i_glide_erotb>  (108) 
0

>  <r_i_glide_esite>  (108) 
0

>  <r_i_glide_emodel>  (108) 
-19.1005

>  <r_i_glide_energy>  (108) 
-18.6796

>  <r_i_glide_einternal>  (108) 
1.91121

>  <r_i_glide_intrahb_reward>  (108) 
-0

>  <i_i_glide_confnum>  (108) 
1

>  <i_i_glide_posenum>  (108) 
11

>  <r_i_glide_eff_state_penalty>  (108) 
0

>  <ligand_id>  (108) 
41

>  <original_smiles>  (108) 
COC1CC(O)C(C)(C)C2CCC3C(C)(C)OC14C1=C(C)C35C(C)=C(CC1(C)C24)C(=O)C5O

>  <smiles>  (108) 
[H]OC1([H])C(=O)C2=C(C([H])([H])[H])C13C(C([H])([H])[H])=C1C45OC(C([H])([H])[H])(C([H])([H])[H])C3([H])C([H])([H])C([H])([H])C([H])(C4([H])C1(C([H])([H])[H])C2([H])[H])C(C([H])([H])[H])(C([H])([H])[H])C([H])(O[H])C([H])([H])C5([H])OC([H])([H])[H]

$$$$
41:2:0
     RDKit          3D

 73 78  0  0  1  0  0  0  0  0999 V2000
   -0.7249   -2.5959    5.9861 C   0  0  0  0  0  0  0  0  0  0  0  0
   -1.3094   -1.4193    5.4137 O   0  0  0  0  0  0  0  0  0  0  0  0
   -0.6848   -0.1932    5.8409 C   0  0  2  0  0  0  0  0  0  0  0  0
   -1.7606    0.9352    5.7022 C   0  0  0  0  0  0  0  0  0  0  0  0
   -1.3201    2.4196    5.4904 C   0  0  1  0  0  0  0  0  0  0  0  0
   -0.5538    2.8667    6.5860 O   0  0  0  0  0  0  0  0  0  0  0  0
   -0.7343    2.8825    4.0935 C   0  0  0  0  0  0  0  0  0  0  0  0
   -1.9020    2.7690    3.0666 C   0  0  0  0  0  0  0  0  0  0  0  0
   -0.4150    4.4010    4.1354 C   0  0  0  0  0  0  0  0  0  0  0  0
    0.5165    2.0807    3.5136 C   0  0  1  0  0  0  0  0  0  0  0  0
    1.9942    2.5842    3.9097 C   0  0  0  0  0  0  0  0  0  0  0  0
    3.3493    1.6728    3.9987 C   0  0  0  0  0  0  0  0  0  0  0  0
    3.6662    0.5725    5.1242 C   0  0  1  0  0  0  0  0  0  0  0  0
    2.7581    1.0276    6.3767 C   0  0  0  0  0  0  0  0  0  0  0  0
    2.9207    0.2324    7.7061 C   0  0  0  0  0  0  0  0  0  0  0  0
    3.1778    2.4530    6.8740 C   0  0  0  0  0  0  0  0  0  0  0  0
    1.3364    1.0910    5.9993 O   0  0  0  0  0  0  0  0  0  0  0  0
    0.6128    0.1666    5.0966 C   0  0  1  0  0  0  0  0  0  0  0  0
    1.5754   -0.7615    4.4400 C   0  0  0  0  0  0  0  0  0  0  0  0
    2.5524   -1.3660    5.1305 C   0  0  0  0  0  0  0  0  0  0  0  0
    2.2779   -2.2264    6.3914 C   0  0  0  0  0  0  0  0  0  0  0  0
    4.0131   -1.0866    4.8172 C   0  0  2  0  0  0  0  0  0  0  0  0
    3.6101   -2.3925    3.9773 C   0  0  0  0  0  0  0  0  0  0  0  0
    4.3118   -3.7068    4.4159 C   0  0  0  0  0  0  0  0  0  0  0  0
    3.1782   -2.2578    2.6960 C   0  0  0  0  0  0  0  0  0  0  0  0
    1.6900   -1.8002    2.3807 C   0  0  0  0  0  0  0  0  0  0  0  0
    1.4129   -0.3597    2.9041 C   0  0  2  0  0  0  0  0  0  0  0  0
    1.9072    0.4970    1.6614 C   0  0  0  0  0  0  0  0  0  0  0  0
    0.3493    0.5538    3.6294 C   0  0  2  0  0  0  0  0  0  0  0  0
    4.2655   -1.4006    2.2983 C   0  0  0  0  0  0  0  0  0  0  0  0
    4.6179   -1.0740    1.1435 O   0  0  0  0  0  0  0  0  0  0  0  0
    4.9860   -0.9880    3.5583 C   0  0  1  0  0  0  0  0  0  0  0  0
    5.8420    0.1022    3.3921 O   0  0  0  0  0  0  0  0  0  0  0  0
   -1.1507   -3.5359    5.6495 H   0  0  0  0  0  0  0  0  0  0  0  0
   -0.7506   -2.5870    7.0942 H   0  0  0  0  0  0  0  0  0  0  0  0
    0.2341   -2.6876    5.6011 H   0  0  0  0  0  0  0  0  0  0  0  0
   -0.4453   -0.2799    6.9079 H   0  0  0  0  0  0  0  0  0  0  0  0
   -2.4477    0.6598    4.9055 H   0  0  0  0  0  0  0  0  0  0  0  0
   -2.3721    0.9028    6.6002 H   0  0  0  0  0  0  0  0  0  0  0  0
   -2.2405    2.9944    5.6159 H   0  0  0  0  0  0  0  0  0  0  0  0
    0.3078    2.4737    6.5161 H   0  0  0  0  0  0  0  0  0  0  0  0
   -1.6202    3.1584    2.0869 H   0  0  0  0  0  0  0  0  0  0  0  0
   -2.7798    3.3384    3.3791 H   0  0  0  0  0  0  0  0  0  0  0  0
   -2.2304    1.7432    2.9088 H   0  0  0  0  0  0  0  0  0  0  0  0
   -0.0225    4.7515    3.1792 H   0  0  0  0  0  0  0  0  0  0  0  0
    0.3166    4.6611    4.8969 H   0  0  0  0  0  0  0  0  0  0  0  0
   -1.3038    4.9881    4.3525 H   0  0  0  0  0  0  0  0  0  0  0  0
    0.4290    2.3339    2.4560 H   0  0  0  0  0  0  0  0  0  0  0  0
    2.2259    3.3625    3.1863 H   0  0  0  0  0  0  0  0  0  0  0  0
    1.8745    3.1582    4.8121 H   0  0  0  0  0  0  0  0  0  0  0  0
    3.7035    1.3105    3.0491 H   0  0  0  0  0  0  0  0  0  0  0  0
    4.1165    2.4264    4.1529 H   0  0  0  0  0  0  0  0  0  0  0  0
    4.6575    0.8660    5.4902 H   0  0  0  0  0  0  0  0  0  0  0  0
    3.0868    0.8390    8.5944 H   0  0  0  0  0  0  0  0  0  0  0  0
    3.7659   -0.4554    7.6643 H   0  0  0  0  0  0  0  0  0  0  0  0
    2.0056   -0.2805    7.9844 H   0  0  0  0  0  0  0  0  0  0  0  0
    4.0809    2.4214    7.4839 H   0  0  0  0  0  0  0  0  0  0  0  0
    2.3974    2.8957    7.4911 H   0  0  0  0  0  0  0  0  0  0  0  0
    3.4295    3.1838    6.1159 H   0  0  0  0  0  0  0  0  0  0  0  0
    3.0579   -2.3620    7.1062 H   0  0  0  0  0  0  0  0  0  0  0  0
    2.0107   -3.2535    6.0738 H   0  0  0  0  0  0  0  0  0  0  0  0
    1.3639   -1.9010    6.9130 H   0  0  0  0  0  0  0  0  0  0  0  0
    5.2940   -3.5395    4.8440 H   0  0  0  0  0  0  0  0  0  0  0  0
    4.4353   -4.3855    3.5843 H   0  0  0  0  0  0  0  0  0  0  0  0
    3.7243   -4.2260    5.1579 H   0  0  0  0  0  0  0  0  0  0  0  0
    1.5428   -1.8942    1.2963 H   0  0  0  0  0  0  0  0  0  0  0  0
    1.0113   -2.5482    2.8040 H   0  0  0  0  0  0  0  0  0  0  0  0
    1.0216    0.6132    1.0263 H   0  0  0  0  0  0  0  0  0  0  0  0
    2.5703    0.0277    0.9521 H   0  0  0  0  0  0  0  0  0  0  0  0
    2.2233    1.5206    1.7399 H   0  0  0  0  0  0  0  0  0  0  0  0
   -0.6478    0.2362    3.2854 H   0  0  0  0  0  0  0  0  0  0  0  0
    5.7749   -1.7184    3.7075 H   0  0  0  0  0  0  0  0  0  0  0  0
    6.5154   -0.0971    2.7489 H   0  0  0  0  0  0  0  0  0  0  0  0
  1  2  1  0
  1 34  1  0
  1 35  1  0
  1 36  1  0
  2  3  1  0
  3 18  1  0
  3  4  1  0
  3 37  1  1
  4  5  1  0
  4 38  1  0
  4 39  1  0
  5  6  1  0
  5  7  1  0
  5 40  1  1
  6 41  1  0
  7  8  1  0
  7  9  1  0
  7 10  1  0
  8 42  1  0
  8 43  1  0
  8 44  1  0
  9 45  1  0
  9 46  1  0
  9 47  1  0
 10 29  1  0
 10 11  1  0
 10 48  1  6
 11 12  1  0
 11 49  1  0
 11 50  1  0
 12 13  1  0
 12 51  1  0
 12 52  1  0
 13 22  1  0
 13 14  1  0
 13 53  1  1
 14 15  1  0
 14 16  1  0
 14 17  1  0
 15 54  1  0
 15 55  1  0
 15 56  1  0
 16 57  1  0
 16 58  1  0
 16 59  1  0
 18 17  1  1
 18 29  1  0
 18 19  1  0
 19 27  1  0
 19 20  2  0
 20 21  1  0
 22 20  1  6
 21 60  1  0
 21 61  1  0
 21 62  1  0
 22 32  1  0
 22 23  1  0
 23 24  1  0
 23 25  2  0
 24 63  1  0
 24 64  1  0
 24 65  1  0
 25 26  1  0
 25 30  1  0
 26 27  1  0
 26 66  1  0
 26 67  1  0
 27 28  1  6
 27 29  1  0
 28 68  1  0
 28 69  1  0
 28 70  1  0
 29 71  1  6
 30 31  2  0
 30 32  1  0
 32 33  1  0
 32 72  1  1
 33 73  1  0
M  END
>  <i_m_ct_stereo_status>  (109) 
1

>  <s_m_source_file>  (109) 
/var/tmp/pbs.5076255.sched01/tmpcdf8lnea/434bzo3qpq.sdf

>  <i_m_source_file_index>  (109) 
6

>  <i_lp_mmshare_version>  (109) 
48012

>  <i_f3d_flags>  (109) 
0

>  <s_epik_input>  (109) 
W0NIM11PW0NAQEhdMVtDSDJdW0NAQEhdKFtPSF0pQyhbQ0gzXSkoW0NIM10pW0NASF0oW0NASF0yQzMoQz00W0NAXTEyNSlbQ0gzXSlbQ0gyXVtDSDJdW0NAQEhdKEMoTzUpKFtDSDNdKVtDSDNdKUM2KEM0W0NIM10pQyhbQ0gzXSk9QyhbQ0gyXTMpQyg9TylbQ0BIXTZbT0hd

>  <s_epik_cmdline>  (109) 
J2VwaWtfcHl0aG9uJywgJy1waHQnLCAnMi4wJywgJy1waCcsICc3LjAnLCAnLXRuJywgJzgnLCAnLW1hJywgJzIwMCcsICctaW1hZScsICc8aW5maWxlLm1hZT4nLCAnLW9tYWUnLCAnPG91dGZpbGUubWFlPic=

>  <r_epik_Ionization_Penalty>  (109) 
0.00405505

>  <r_epik_Ionization_Penalty_Charging>  (109) 
0

>  <r_epik_Ionization_Penalty_Neutral>  (109) 
0.00405505

>  <r_epik_State_Penalty>  (109) 
0.00290591

>  <r_epik_Charging_Adjusted_Penalty>  (109) 
0.00290591

>  <i_epik_Tot_Q>  (109) 
0

>  <i_epik_Tot_abs_Q>  (109) 
0

>  <s_lp_Force_Field>  (109) 
OPLS3e

>  <r_lp_Energy>  (109) 
441.54

>  <b_lp_Chiralities_Consistent>  (109) 
1

>  <s_lp_Variant>  (109) 
41:0-3

>  <s_i_glide_gridfile>  (109) 
pfpi4k_grid

>  <i_i_glide_lignum>  (109) 
6

>  <i_i_glide_rotatable_bonds>  (109) 
3

>  <r_i_docking_score>  (109) 
-2.35535

>  <r_i_glide_ligand_efficiency>  (109) 
-0.0713742

>  <r_i_glide_ligand_efficiency_sa>  (109) 
-0.228935

>  <r_i_glide_ligand_efficiency_ln>  (109) 
-0.523817

>  <r_i_glide_gscore>  (109) 
-2.35535

>  <r_i_glide_lipo>  (109) 
-0.101581

>  <r_i_glide_hbond>  (109) 
0

>  <r_i_glide_metal>  (109) 
-0

>  <r_i_glide_rewards>  (109) 
-0.816919

>  <r_i_glide_evdw>  (109) 
-21.4762

>  <r_i_glide_ecoul>  (109) 
-2.42026

>  <r_i_glide_erotb>  (109) 
0

>  <r_i_glide_esite>  (109) 
0

>  <r_i_glide_emodel>  (109) 
-28.0013

>  <r_i_glide_energy>  (109) 
-23.8964

>  <r_i_glide_einternal>  (109) 
3.02769

>  <r_i_glide_intrahb_reward>  (109) 
-0.5

>  <i_i_glide_confnum>  (109) 
2

>  <i_i_glide_posenum>  (109) 
40

>  <r_i_glide_eff_state_penalty>  (109) 
0

>  <ligand_id>  (109) 
41

>  <original_smiles>  (109) 
COC1CC(O)C(C)(C)C2CCC3C(C)(C)OC14C1=C(C)C35C(C)=C(CC1(C)C24)C(=O)C5O

>  <smiles>  (109) 
[H]OC1([H])C(=O)C2=C(C([H])([H])[H])C13C(C([H])([H])[H])=C1C45OC(C([H])([H])[H])(C([H])([H])[H])C3([H])C([H])([H])C([H])([H])C([H])(C4([H])C1(C([H])([H])[H])C2([H])[H])C(C([H])([H])[H])(C([H])([H])[H])C([H])(O[H])C([H])([H])C5([H])OC([H])([H])[H]

$$$$
41:2:1
     RDKit          3D

 73 78  0  0  1  0  0  0  0  0999 V2000
   -0.1568    0.1505    9.5398 C   0  0  0  0  0  0  0  0  0  0  0  0
    0.0560    0.1197    8.1324 O   0  0  0  0  0  0  0  0  0  0  0  0
    0.4747    1.3712    7.5887 C   0  0  2  0  0  0  0  0  0  0  0  0
   -0.7503    2.3349    7.4374 C   0  0  0  0  0  0  0  0  0  0  0  0
   -0.7252    3.4317    6.3144 C   0  0  1  0  0  0  0  0  0  0  0  0
    0.3578    4.3169    6.5020 O   0  0  0  0  0  0  0  0  0  0  0  0
   -0.9288    3.0351    4.7945 C   0  0  0  0  0  0  0  0  0  0  0  0
   -2.3864    2.5185    4.6712 C   0  0  0  0  0  0  0  0  0  0  0  0
   -0.9167    4.3038    3.9184 C   0  0  0  0  0  0  0  0  0  0  0  0
    0.0365    1.9502    4.1703 C   0  0  1  0  0  0  0  0  0  0  0  0
    1.4151    2.4553    3.5225 C   0  0  0  0  0  0  0  0  0  0  0  0
    2.8061    1.6029    3.4154 C   0  0  0  0  0  0  0  0  0  0  0  0
    3.7750    1.2351    4.6421 C   0  0  1  0  0  0  0  0  0  0  0  0
    3.4724    2.3589    5.7337 C   0  0  0  0  0  0  0  0  0  0  0  0
    4.3541    2.3702    7.0095 C   0  0  0  0  0  0  0  0  0  0  0  0
    3.8021    3.7808    5.1684 C   0  0  0  0  0  0  0  0  0  0  0  0
    2.0529    2.3610    6.1034 O   0  0  0  0  0  0  0  0  0  0  0  0
    1.1669    1.1869    6.2420 C   0  0  1  0  0  0  0  0  0  0  0  0
    1.8572   -0.0424    5.7827 C   0  0  0  0  0  0  0  0  0  0  0  0
    3.1439   -0.2802    6.1330 C   0  0  0  0  0  0  0  0  0  0  0  0
    3.5186   -0.3609    7.6214 C   0  0  0  0  0  0  0  0  0  0  0  0
    4.2542   -0.3382    5.0897 C   0  0  2  0  0  0  0  0  0  0  0  0
    3.7270   -1.8312    5.3524 C   0  0  0  0  0  0  0  0  0  0  0  0
    4.7984   -2.7644    5.9708 C   0  0  0  0  0  0  0  0  0  0  0  0
    2.7987   -2.4103    4.5601 C   0  0  0  0  0  0  0  0  0  0  0  0
    1.2779   -2.0369    4.8108 C   0  0  0  0  0  0  0  0  0  0  0  0
    0.9650   -0.5222    4.5672 C   0  0  2  0  0  0  0  0  0  0  0  0
    0.7589   -0.5134    2.9996 C   0  0  0  0  0  0  0  0  0  0  0  0
    0.2303    0.7676    5.1073 C   0  0  2  0  0  0  0  0  0  0  0  0
    3.4059   -1.9578    3.3106 C   0  0  0  0  0  0  0  0  0  0  0  0
    3.2077   -2.3610    2.1639 O   0  0  0  0  0  0  0  0  0  0  0  0
    4.5143   -0.9723    3.6532 C   0  0  1  0  0  0  0  0  0  0  0  0
    4.9754   -0.2107    2.5571 O   0  0  0  0  0  0  0  0  0  0  0  0
   -0.4103   -0.8489    9.8936 H   0  0  0  0  0  0  0  0  0  0  0  0
   -0.9719    0.8212    9.8145 H   0  0  0  0  0  0  0  0  0  0  0  0
    0.7415    0.4627   10.0731 H   0  0  0  0  0  0  0  0  0  0  0  0
    1.1888    1.8345    8.2738 H   0  0  0  0  0  0  0  0  0  0  0  0
   -1.6558    1.7474    7.3155 H   0  0  0  0  0  0  0  0  0  0  0  0
   -0.8954    2.8363    8.3944 H   0  0  0  0  0  0  0  0  0  0  0  0
   -1.5802    4.0677    6.5514 H   0  0  0  0  0  0  0  0  0  0  0  0
    1.1476    3.8259    6.3161 H   0  0  0  0  0  0  0  0  0  0  0  0
   -2.6562    2.2991    3.6374 H   0  0  0  0  0  0  0  0  0  0  0  0
   -3.1172    3.2478    5.0291 H   0  0  0  0  0  0  0  0  0  0  0  0
   -2.5478    1.6070    5.2389 H   0  0  0  0  0  0  0  0  0  0  0  0
   -1.0714    4.0578    2.8692 H   0  0  0  0  0  0  0  0  0  0  0  0
    0.0083    4.8775    3.9835 H   0  0  0  0  0  0  0  0  0  0  0  0
   -1.7284    4.9580    4.2130 H   0  0  0  0  0  0  0  0  0  0  0  0
   -0.5549    1.6181    3.3190 H   0  0  0  0  0  0  0  0  0  0  0  0
    1.1594    2.7123    2.4924 H   0  0  0  0  0  0  0  0  0  0  0  0
    1.6064    3.4279    3.9497 H   0  0  0  0  0  0  0  0  0  0  0  0
    2.7585    0.7760    2.7280 H   0  0  0  0  0  0  0  0  0  0  0  0
    3.4147    2.2580    2.7967 H   0  0  0  0  0  0  0  0  0  0  0  0
    4.7413    1.5805    4.2810 H   0  0  0  0  0  0  0  0  0  0  0  0
    4.7672    3.3493    7.2513 H   0  0  0  0  0  0  0  0  0  0  0  0
    5.2131    1.7069    6.9179 H   0  0  0  0  0  0  0  0  0  0  0  0
    3.7768    2.1363    7.8984 H   0  0  0  0  0  0  0  0  0  0  0  0
    4.8720    3.9900    5.1996 H   0  0  0  0  0  0  0  0  0  0  0  0
    3.3145    4.5546    5.7635 H   0  0  0  0  0  0  0  0  0  0  0  0
    3.5468    3.9755    4.1319 H   0  0  0  0  0  0  0  0  0  0  0  0
    4.5625   -0.1335    7.8313 H   0  0  0  0  0  0  0  0  0  0  0  0
    3.3506   -1.3700    7.9955 H   0  0  0  0  0  0  0  0  0  0  0  0
    2.8755    0.2523    8.2425 H   0  0  0  0  0  0  0  0  0  0  0  0
    5.8094   -2.4750    5.6839 H   0  0  0  0  0  0  0  0  0  0  0  0
    4.6574   -3.7916    5.6366 H   0  0  0  0  0  0  0  0  0  0  0  0
    4.7562   -2.7696    7.0575 H   0  0  0  0  0  0  0  0  0  0  0  0
    0.6959   -2.6755    4.1437 H   0  0  0  0  0  0  0  0  0  0  0  0
    1.0141   -2.3646    5.8180 H   0  0  0  0  0  0  0  0  0  0  0  0
   -0.3122   -0.6480    2.8869 H   0  0  0  0  0  0  0  0  0  0  0  0
    1.1064   -1.3578    2.4202 H   0  0  0  0  0  0  0  0  0  0  0  0
    0.8701    0.3720    2.3958 H   0  0  0  0  0  0  0  0  0  0  0  0
   -0.7059    0.3931    5.5194 H   0  0  0  0  0  0  0  0  0  0  0  0
    5.3832   -1.6243    3.7443 H   0  0  0  0  0  0  0  0  0  0  0  0
    4.2655    0.3266    2.2504 H   0  0  0  0  0  0  0  0  0  0  0  0
  1  2  1  0
  1 34  1  0
  1 35  1  0
  1 36  1  0
  2  3  1  0
  3 18  1  0
  3  4  1  0
  3 37  1  1
  4  5  1  0
  4 38  1  0
  4 39  1  0
  5  6  1  0
  5  7  1  0
  5 40  1  1
  6 41  1  0
  7  8  1  0
  7  9  1  0
  7 10  1  0
  8 42  1  0
  8 43  1  0
  8 44  1  0
  9 45  1  0
  9 46  1  0
  9 47  1  0
 10 29  1  0
 10 11  1  0
 10 48  1  6
 11 12  1  0
 11 49  1  0
 11 50  1  0
 12 13  1  0
 12 51  1  0
 12 52  1  0
 13 22  1  0
 13 14  1  0
 13 53  1  6
 14 15  1  0
 14 16  1  0
 14 17  1  0
 15 54  1  0
 15 55  1  0
 15 56  1  0
 16 57  1  0
 16 58  1  0
 16 59  1  0
 18 17  1  6
 18 29  1  0
 18 19  1  0
 19 27  1  0
 19 20  2  0
 20 21  1  0
 22 20  1  6
 21 60  1  0
 21 61  1  0
 21 62  1  0
 22 32  1  0
 22 23  1  0
 23 24  1  0
 23 25  2  0
 24 63  1  0
 24 64  1  0
 24 65  1  0
 25 26  1  0
 25 30  1  0
 26 27  1  0
 26 66  1  0
 26 67  1  0
 27 28  1  6
 27 29  1  0
 28 68  1  0
 28 69  1  0
 28 70  1  0
 29 71  1  1
 30 31  2  0
 30 32  1  0
 32 33  1  0
 32 72  1  1
 33 73  1  0
M  END
>  <i_m_ct_stereo_status>  (110) 
1

>  <s_m_source_file>  (110) 
/var/tmp/pbs.5076255.sched01/tmpcdf8lnea/434bzo3qpq.sdf

>  <i_m_source_file_index>  (110) 
6

>  <i_lp_mmshare_version>  (110) 
48012

>  <i_f3d_flags>  (110) 
0

>  <s_epik_input>  (110) 
W0NIM11PW0NAQEhdMVtDSDJdW0NAQEhdKFtPSF0pQyhbQ0gzXSkoW0NIM10pW0NASF0oW0NASF0yQzMoQz00W0NAXTEyNSlbQ0gzXSlbQ0gyXVtDSDJdW0NAQEhdKEMoTzUpKFtDSDNdKVtDSDNdKUM2KEM0W0NIM10pQyhbQ0gzXSk9QyhbQ0gyXTMpQyg9TylbQ0BIXTZbT0hd

>  <s_epik_cmdline>  (110) 
J2VwaWtfcHl0aG9uJywgJy1waHQnLCAnMi4wJywgJy1waCcsICc3LjAnLCAnLXRuJywgJzgnLCAnLW1hJywgJzIwMCcsICctaW1hZScsICc8aW5maWxlLm1hZT4nLCAnLW9tYWUnLCAnPG91dGZpbGUubWFlPic=

>  <r_epik_Ionization_Penalty>  (110) 
0.00405505

>  <r_epik_Ionization_Penalty_Charging>  (110) 
0

>  <r_epik_Ionization_Penalty_Neutral>  (110) 
0.00405505

>  <r_epik_State_Penalty>  (110) 
0.00290591

>  <r_epik_Charging_Adjusted_Penalty>  (110) 
0.00290591

>  <i_epik_Tot_Q>  (110) 
0

>  <i_epik_Tot_abs_Q>  (110) 
0

>  <s_lp_Force_Field>  (110) 
OPLS3e

>  <r_lp_Energy>  (110) 
441.54

>  <b_lp_Chiralities_Consistent>  (110) 
1

>  <s_lp_Variant>  (110) 
41:0-3

>  <s_i_glide_gridfile>  (110) 
pfpi4k_grid

>  <i_i_glide_lignum>  (110) 
6

>  <i_i_glide_rotatable_bonds>  (110) 
3

>  <r_i_docking_score>  (110) 
-1.97497

>  <r_i_glide_ligand_efficiency>  (110) 
-0.0598477

>  <r_i_glide_ligand_efficiency_sa>  (110) 
-0.191964

>  <r_i_glide_ligand_efficiency_ln>  (110) 
-0.439224

>  <r_i_glide_gscore>  (110) 
-1.97497

>  <r_i_glide_lipo>  (110) 
-0.0606892

>  <r_i_glide_hbond>  (110) 
0

>  <r_i_glide_metal>  (110) 
-0

>  <r_i_glide_rewards>  (110) 
-0.795812

>  <r_i_glide_evdw>  (110) 
-17.1453

>  <r_i_glide_ecoul>  (110) 
-1.74111

>  <r_i_glide_erotb>  (110) 
0

>  <r_i_glide_esite>  (110) 
-4.35239e-05

>  <r_i_glide_emodel>  (110) 
-25.8759

>  <r_i_glide_energy>  (110) 
-18.8864

>  <r_i_glide_einternal>  (110) 
1.47983

>  <r_i_glide_intrahb_reward>  (110) 
-0.5

>  <i_i_glide_confnum>  (110) 
1

>  <i_i_glide_posenum>  (110) 
39

>  <r_i_glide_eff_state_penalty>  (110) 
0

>  <ligand_id>  (110) 
41

>  <original_smiles>  (110) 
COC1CC(O)C(C)(C)C2CCC3C(C)(C)OC14C1=C(C)C35C(C)=C(CC1(C)C24)C(=O)C5O

>  <smiles>  (110) 
[H]OC1([H])C(=O)C2=C(C([H])([H])[H])C13C(C([H])([H])[H])=C1C45OC(C([H])([H])[H])(C([H])([H])[H])C3([H])C([H])([H])C([H])([H])C([H])(C4([H])C1(C([H])([H])[H])C2([H])[H])C(C([H])([H])[H])(C([H])([H])[H])C([H])(O[H])C([H])([H])C5([H])OC([H])([H])[H]

$$$$
41:2:2
     RDKit          3D

 73 78  0  0  1  0  0  0  0  0999 V2000
   -0.2663    0.7762    9.7397 C   0  0  0  0  0  0  0  0  0  0  0  0
    0.0819    0.5766    8.3736 O   0  0  0  0  0  0  0  0  0  0  0  0
    0.4645    1.7722    7.6928 C   0  0  2  0  0  0  0  0  0  0  0  0
   -0.7837    2.6779    7.4288 C   0  0  0  0  0  0  0  0  0  0  0  0
   -0.7859    3.6407    6.1909 C   0  0  1  0  0  0  0  0  0  0  0  0
    0.2654    4.5764    6.2829 O   0  0  0  0  0  0  0  0  0  0  0  0
   -0.9754    3.0721    4.7245 C   0  0  0  0  0  0  0  0  0  0  0  0
   -2.4128    2.4954    4.6649 C   0  0  0  0  0  0  0  0  0  0  0  0
   -1.0024    4.2382    3.7084 C   0  0  0  0  0  0  0  0  0  0  0  0
    0.0285    1.9502    4.2313 C   0  0  1  0  0  0  0  0  0  0  0  0
    1.3968    2.4147    3.5311 C   0  0  0  0  0  0  0  0  0  0  0  0
    2.8128    1.5953    3.5249 C   0  0  0  0  0  0  0  0  0  0  0  0
    3.7869    1.4042    4.7860 C   0  0  1  0  0  0  0  0  0  0  0  0
    3.4435    2.6359    5.7430 C   0  0  0  0  0  0  0  0  0  0  0  0
    4.3184    2.8163    7.0100 C   0  0  0  0  0  0  0  0  0  0  0  0
    3.7325    3.9915    5.0169 C   0  0  0  0  0  0  0  0  0  0  0  0
    2.0225    2.6348    6.1082 O   0  0  0  0  0  0  0  0  0  0  0  0
    1.1722    1.4592    6.3791 C   0  0  1  0  0  0  0  0  0  0  0  0
    1.9013    0.2060    6.0625 C   0  0  0  0  0  0  0  0  0  0  0  0
    3.1926    0.0506    6.4396 C   0  0  0  0  0  0  0  0  0  0  0  0
    3.5624    0.1503    7.9291 C   0  0  0  0  0  0  0  0  0  0  0  0
    4.3108   -0.0899    5.4094 C   0  0  2  0  0  0  0  0  0  0  0  0
    3.8294   -1.5609    5.8355 C   0  0  0  0  0  0  0  0  0  0  0  0
    4.9214   -2.3874    6.5613 C   0  0  0  0  0  0  0  0  0  0  0  0
    2.9206   -2.2484    5.1090 C   0  0  0  0  0  0  0  0  0  0  0  0
    1.3869   -1.9025    5.3207 C   0  0  0  0  0  0  0  0  0  0  0  0
    1.0267   -0.4342    4.9088 C   0  0  2  0  0  0  0  0  0  0  0  0
    0.8213   -0.6121    3.3509 C   0  0  0  0  0  0  0  0  0  0  0  0
    0.2499    0.8854    5.2988 C   0  0  2  0  0  0  0  0  0  0  0  0
    3.5181   -1.9167    3.8145 C   0  0  0  0  0  0  0  0  0  0  0  0
    3.3543   -2.4611    2.7237 O   0  0  0  0  0  0  0  0  0  0  0  0
    4.5985   -0.8676    4.0487 C   0  0  1  0  0  0  0  0  0  0  0  0
    5.0797   -0.2395    2.8707 O   0  0  0  0  0  0  0  0  0  0  0  0
   -0.4784   -0.1839   10.2090 H   0  0  0  0  0  0  0  0  0  0  0  0
   -1.1558    1.3982    9.8477 H   0  0  0  0  0  0  0  0  0  0  0  0
    0.5454    1.2439   10.2978 H   0  0  0  0  0  0  0  0  0  0  0  0
    1.1584    2.3272    8.3297 H   0  0  0  0  0  0  0  0  0  0  0  0
   -1.6711    2.0552    7.3729 H   0  0  0  0  0  0  0  0  0  0  0  0
   -0.9487    3.2818    8.3219 H   0  0  0  0  0  0  0  0  0  0  0  0
   -1.6653    4.2629    6.3554 H   0  0  0  0  0  0  0  0  0  0  0  0
    1.0739    4.0932    6.1517 H   0  0  0  0  0  0  0  0  0  0  0  0
   -2.6709    2.1516    3.6620 H   0  0  0  0  0  0  0  0  0  0  0  0
   -3.1673    3.2371    4.9342 H   0  0  0  0  0  0  0  0  0  0  0  0
   -2.5488    1.6547    5.3374 H   0  0  0  0  0  0  0  0  0  0  0  0
   -1.1463    3.8617    2.6956 H   0  0  0  0  0  0  0  0  0  0  0  0
   -0.0857    4.8284    3.7051 H   0  0  0  0  0  0  0  0  0  0  0  0
   -1.8174    4.9326    3.9109 H   0  0  0  0  0  0  0  0  0  0  0  0
   -0.5467    1.5028    3.4222 H   0  0  0  0  0  0  0  0  0  0  0  0
    1.1390    2.5461    2.4771 H   0  0  0  0  0  0  0  0  0  0  0  0
    1.5557    3.4358    3.8456 H   0  0  0  0  0  0  0  0  0  0  0  0
    2.8053    0.6930    2.9340 H   0  0  0  0  0  0  0  0  0  0  0  0
    3.4062    2.1922    2.8348 H   0  0  0  0  0  0  0  0  0  0  0  0
    4.7410    1.7349    4.3864 H   0  0  0  0  0  0  0  0  0  0  0  0
    4.7001    3.8288    7.1388 H   0  0  0  0  0  0  0  0  0  0  0  0
    5.1976    2.1749    6.9963 H   0  0  0  0  0  0  0  0  0  0  0  0
    3.7446    2.6679    7.9198 H   0  0  0  0  0  0  0  0  0  0  0  0
    4.7960    4.2307    5.0225 H   0  0  0  0  0  0  0  0  0  0  0  0
    3.2229    4.8157    5.5196 H   0  0  0  0  0  0  0  0  0  0  0  0
    3.4757    4.0576    3.9652 H   0  0  0  0  0  0  0  0  0  0  0  0
    4.5967    0.4330    8.1116 H   0  0  0  0  0  0  0  0  0  0  0  0
    3.4217   -0.8152    8.4136 H   0  0  0  0  0  0  0  0  0  0  0  0
    2.8970    0.8105    8.4770 H   0  0  0  0  0  0  0  0  0  0  0  0
    5.9248   -2.0996    6.2482 H   0  0  0  0  0  0  0  0  0  0  0  0
    4.8129   -3.4496    6.3458 H   0  0  0  0  0  0  0  0  0  0  0  0
    4.8746   -2.2711    7.6429 H   0  0  0  0  0  0  0  0  0  0  0  0
    0.8269   -2.6307    4.7304 H   0  0  0  0  0  0  0  0  0  0  0  0
    1.1268   -2.1214    6.3565 H   0  0  0  0  0  0  0  0  0  0  0  0
   -0.2455   -0.8008    3.2592 H   0  0  0  0  0  0  0  0  0  0  0  0
    1.2069   -1.5012    2.8708 H   0  0  0  0  0  0  0  0  0  0  0  0
    0.9216    0.2019    2.6518 H   0  0  0  0  0  0  0  0  0  0  0  0
   -0.6748    0.5331    5.7472 H   0  0  0  0  0  0  0  0  0  0  0  0
    5.4742   -1.4880    4.2307 H   0  0  0  0  0  0  0  0  0  0  0  0
    5.2847   -0.9105    2.2365 H   0  0  0  0  0  0  0  0  0  0  0  0
  1  2  1  0
  1 34  1  0
  1 35  1  0
  1 36  1  0
  2  3  1  0
  3 18  1  0
  3  4  1  0
  3 37  1  1
  4  5  1  0
  4 38  1  0
  4 39  1  0
  5  6  1  0
  5  7  1  0
  5 40  1  1
  6 41  1  0
  7  8  1  0
  7  9  1  0
  7 10  1  0
  8 42  1  0
  8 43  1  0
  8 44  1  0
  9 45  1  0
  9 46  1  0
  9 47  1  0
 10 29  1  0
 10 11  1  0
 10 48  1  6
 11 12  1  0
 11 49  1  0
 11 50  1  0
 12 13  1  0
 12 51  1  0
 12 52  1  0
 13 22  1  0
 13 14  1  0
 13 53  1  6
 14 15  1  0
 14 16  1  0
 14 17  1  0
 15 54  1  0
 15 55  1  0
 15 56  1  0
 16 57  1  0
 16 58  1  0
 16 59  1  0
 18 17  1  6
 18 29  1  0
 18 19  1  0
 19 27  1  0
 19 20  2  0
 20 21  1  0
 22 20  1  6
 21 60  1  0
 21 61  1  0
 21 62  1  0
 22 32  1  0
 22 23  1  0
 23 24  1  0
 23 25  2  0
 24 63  1  0
 24 64  1  0
 24 65  1  0
 25 26  1  0
 25 30  1  0
 26 27  1  0
 26 66  1  0
 26 67  1  0
 27 28  1  6
 27 29  1  0
 28 68  1  0
 28 69  1  0
 28 70  1  0
 29 71  1  1
 30 31  2  0
 30 32  1  0
 32 33  1  0
 32 72  1  1
 33 73  1  0
M  END
>  <i_m_ct_stereo_status>  (111) 
1

>  <s_m_source_file>  (111) 
/var/tmp/pbs.5076255.sched01/tmpcdf8lnea/434bzo3qpq.sdf

>  <i_m_source_file_index>  (111) 
6

>  <i_lp_mmshare_version>  (111) 
48012

>  <i_f3d_flags>  (111) 
0

>  <s_epik_input>  (111) 
W0NIM11PW0NAQEhdMVtDSDJdW0NAQEhdKFtPSF0pQyhbQ0gzXSkoW0NIM10pW0NASF0oW0NASF0yQzMoQz00W0NAXTEyNSlbQ0gzXSlbQ0gyXVtDSDJdW0NAQEhdKEMoTzUpKFtDSDNdKVtDSDNdKUM2KEM0W0NIM10pQyhbQ0gzXSk9QyhbQ0gyXTMpQyg9TylbQ0BIXTZbT0hd

>  <s_epik_cmdline>  (111) 
J2VwaWtfcHl0aG9uJywgJy1waHQnLCAnMi4wJywgJy1waCcsICc3LjAnLCAnLXRuJywgJzgnLCAnLW1hJywgJzIwMCcsICctaW1hZScsICc8aW5maWxlLm1hZT4nLCAnLW9tYWUnLCAnPG91dGZpbGUubWFlPic=

>  <r_epik_Ionization_Penalty>  (111) 
0.00405505

>  <r_epik_Ionization_Penalty_Charging>  (111) 
0

>  <r_epik_Ionization_Penalty_Neutral>  (111) 
0.00405505

>  <r_epik_State_Penalty>  (111) 
0.00290591

>  <r_epik_Charging_Adjusted_Penalty>  (111) 
0.00290591

>  <i_epik_Tot_Q>  (111) 
0

>  <i_epik_Tot_abs_Q>  (111) 
0

>  <s_lp_Force_Field>  (111) 
OPLS3e

>  <r_lp_Energy>  (111) 
441.54

>  <b_lp_Chiralities_Consistent>  (111) 
1

>  <s_lp_Variant>  (111) 
41:0-3

>  <s_i_glide_gridfile>  (111) 
pfpi4k_grid

>  <i_i_glide_lignum>  (111) 
6

>  <i_i_glide_rotatable_bonds>  (111) 
3

>  <r_i_docking_score>  (111) 
-1.88502

>  <r_i_glide_ligand_efficiency>  (111) 
-0.0571217

>  <r_i_glide_ligand_efficiency_sa>  (111) 
-0.18322

>  <r_i_glide_ligand_efficiency_ln>  (111) 
-0.419218

>  <r_i_glide_gscore>  (111) 
-1.88502

>  <r_i_glide_lipo>  (111) 
-0.0528448

>  <r_i_glide_hbond>  (111) 
0

>  <r_i_glide_metal>  (111) 
-0

>  <r_i_glide_rewards>  (111) 
-0.795924

>  <r_i_glide_evdw>  (111) 
-17.03

>  <r_i_glide_ecoul>  (111) 
-1.23165

>  <r_i_glide_erotb>  (111) 
0

>  <r_i_glide_esite>  (111) 
0

>  <r_i_glide_emodel>  (111) 
-25.0113

>  <r_i_glide_energy>  (111) 
-18.2617

>  <r_i_glide_einternal>  (111) 
1.74547

>  <r_i_glide_intrahb_reward>  (111) 
-0.5

>  <i_i_glide_confnum>  (111) 
2

>  <i_i_glide_posenum>  (111) 
13

>  <r_i_glide_eff_state_penalty>  (111) 
0

>  <ligand_id>  (111) 
41

>  <original_smiles>  (111) 
COC1CC(O)C(C)(C)C2CCC3C(C)(C)OC14C1=C(C)C35C(C)=C(CC1(C)C24)C(=O)C5O

>  <smiles>  (111) 
[H]OC1([H])C(=O)C2=C(C([H])([H])[H])C13C(C([H])([H])[H])=C1C45OC(C([H])([H])[H])(C([H])([H])[H])C3([H])C([H])([H])C([H])([H])C([H])(C4([H])C1(C([H])([H])[H])C2([H])[H])C(C([H])([H])[H])(C([H])([H])[H])C([H])(O[H])C([H])([H])C5([H])OC([H])([H])[H]

$$$$
43:0:0
     RDKit          3D

 44 49  0  0  1  0  0  0  0  0999 V2000
    5.6780   -3.3378   -2.3613 C   0  0  0  0  0  0  0  0  0  0  0  0
    4.6996   -2.9823   -1.2145 C   0  0  0  0  0  0  0  0  0  0  0  0
    3.4291   -2.4859   -1.9401 C   0  0  0  0  0  0  0  0  0  0  0  0
    4.5137   -4.2563   -0.3294 C   0  0  2  0  0  0  0  0  0  0  0  0
    3.1194   -4.6954    0.1897 C   0  0  0  0  0  0  0  0  0  0  0  0
    3.3100   -5.0111    1.6857 C   0  0  2  0  0  0  0  0  0  0  0  0
    2.2689   -4.6653    2.5818 O   0  0  0  0  0  0  0  0  0  0  0  0
    2.6000   -3.6954    3.4483 C   0  0  0  0  0  0  0  0  0  0  0  0
    1.9517   -3.3741    4.4447 O   0  0  0  0  0  0  0  0  0  0  0  0
    3.8879   -2.9841    2.9959 C   0  0  1  0  0  0  0  0  0  0  0  0
    4.7679   -2.7420    4.2495 C   0  0  0  0  0  0  0  0  0  0  0  0
    4.4803   -4.1661    2.1578 C   0  0  2  0  0  0  0  0  0  0  0  0
    5.3866   -4.0437    0.9216 C   0  0  2  0  0  0  0  0  0  0  0  0
    6.1756   -2.7515    0.7713 C   0  0  1  0  0  0  0  0  0  0  0  0
    7.4829   -3.0288    0.3043 O   0  0  0  0  0  0  0  0  0  0  0  0
    5.3995   -1.9356   -0.2777 C   0  0  2  0  0  0  0  0  0  0  0  0
    4.5550   -0.7950    0.3486 C   0  0  2  0  0  0  0  0  0  0  0  0
    5.1623   -0.2551    1.5153 O   0  0  0  0  0  0  0  0  0  0  0  0
    4.2277   -0.3753    2.5928 C   0  0  0  0  0  0  0  0  0  0  0  0
    3.4023   -1.6466    2.3236 C   0  0  2  0  0  0  0  0  0  0  0  0
    2.4989   -2.0987    1.2860 O   0  0  0  0  0  0  0  0  0  0  0  0
    3.1731   -1.0219    0.8829 C   0  0  2  0  0  0  0  0  0  0  0  0
    5.2459   -4.0721   -3.0430 H   0  0  0  0  0  0  0  0  0  0  0  0
    6.6147   -3.7625   -2.0046 H   0  0  0  0  0  0  0  0  0  0  0  0
    5.9288   -2.4583   -2.9527 H   0  0  0  0  0  0  0  0  0  0  0  0
    2.6157   -2.2324   -1.2742 H   0  0  0  0  0  0  0  0  0  0  0  0
    3.0430   -3.2482   -2.6186 H   0  0  0  0  0  0  0  0  0  0  0  0
    3.6390   -1.5943   -2.5323 H   0  0  0  0  0  0  0  0  0  0  0  0
    4.9107   -5.1179   -0.8703 H   0  0  0  0  0  0  0  0  0  0  0  0
    2.3383   -3.9673    0.0129 H   0  0  0  0  0  0  0  0  0  0  0  0
    2.7822   -5.5976   -0.3216 H   0  0  0  0  0  0  0  0  0  0  0  0
    3.5586   -6.0664    1.7918 H   0  0  0  0  0  0  0  0  0  0  0  0
    5.7593   -2.3880    3.9689 H   0  0  0  0  0  0  0  0  0  0  0  0
    4.9071   -3.6576    4.8268 H   0  0  0  0  0  0  0  0  0  0  0  0
    4.3245   -2.0146    4.9332 H   0  0  0  0  0  0  0  0  0  0  0  0
    5.0364   -4.7827    2.8643 H   0  0  0  0  0  0  0  0  0  0  0  0
    6.0852   -4.8840    0.9825 H   0  0  0  0  0  0  0  0  0  0  0  0
    6.3148   -2.2575    1.7276 H   0  0  0  0  0  0  0  0  0  0  0  0
    7.4121   -3.5291   -0.4911 H   0  0  0  0  0  0  0  0  0  0  0  0
    6.1398   -1.3858   -0.8625 H   0  0  0  0  0  0  0  0  0  0  0  0
    4.4731    0.0051   -0.3841 H   0  0  0  0  0  0  0  0  0  0  0  0
    4.7441   -0.3574    3.5462 H   0  0  0  0  0  0  0  0  0  0  0  0
    3.5778    0.5057    2.6255 H   0  0  0  0  0  0  0  0  0  0  0  0
    2.5213   -0.1529    0.7913 H   0  0  0  0  0  0  0  0  0  0  0  0
  1  2  1  0
  1 23  1  0
  1 24  1  0
  1 25  1  0
  2 16  1  0
  2  3  1  0
  2  4  1  0
  3 26  1  0
  3 27  1  0
  3 28  1  0
  4 13  1  0
  4  5  1  0
  4 29  1  6
  5  6  1  0
  5 30  1  0
  5 31  1  0
  6 12  1  0
  6  7  1  0
  6 32  1  6
  7  8  1  0
  8  9  2  0
  8 10  1  0
 10 20  1  0
 10 11  1  1
 10 12  1  0
 11 33  1  0
 11 34  1  0
 11 35  1  0
 12 13  1  0
 12 36  1  1
 13 14  1  0
 13 37  1  1
 14 15  1  0
 14 16  1  0
 14 38  1  1
 15 39  1  0
 16 17  1  0
 16 40  1  6
 17 22  1  0
 17 18  1  0
 17 41  1  6
 18 19  1  0
 19 20  1  0
 19 42  1  0
 19 43  1  0
 20 22  1  0
 20 21  1  1
 21 22  1  0
 22 44  1  1
M  END
>  <i_m_ct_stereo_status>  (112) 
1

>  <s_m_source_file>  (112) 
/var/tmp/pbs.5076255.sched01/tmpcdf8lnea/434bzo3qpq.sdf

>  <i_m_source_file_index>  (112) 
8

>  <i_lp_mmshare_version>  (112) 
48012

>  <i_f3d_flags>  (112) 
0

>  <s_epik_input>  (112) 
W0NIMl0xT1tDQEhdKFtDQEhdMk8zKVtDSF0oQzQoW0NIM10pW0NIM10pW0NASF0oW09IXSlbQ0BASF01W0NASF00W0NIMl1bQ0BIXShPQzY9TylbQ0BASF01W0NAXTYoW0NAXTEyMylbQ0gzXQ==

>  <s_epik_cmdline>  (112) 
J2VwaWtfcHl0aG9uJywgJy1waHQnLCAnMi4wJywgJy1waCcsICc3LjAnLCAnLXRuJywgJzgnLCAnLW1hJywgJzIwMCcsICctaW1hZScsICc8aW5maWxlLm1hZT4nLCAnLW9tYWUnLCAnPG91dGZpbGUubWFlPic=

>  <r_lp_tautomer_probability>  (112) 
1

>  <r_epik_Ionization_Penalty>  (112) 
9.91562e-08

>  <r_epik_Ionization_Penalty_Charging>  (112) 
0

>  <r_epik_Ionization_Penalty_Neutral>  (112) 
9.91562e-08

>  <r_epik_State_Penalty>  (112) 
-0

>  <r_epik_Charging_Adjusted_Penalty>  (112) 
0

>  <i_epik_Tot_Q>  (112) 
0

>  <i_epik_Tot_abs_Q>  (112) 
0

>  <s_epik_Chemistry_Notes>  (112) 
This compound has an ester and may undergo hydrolysis at high or low pH.

>  <s_lp_Force_Field>  (112) 
OPLS3e

>  <r_lp_Energy>  (112) 
100.875

>  <b_lp_Chiralities_Consistent>  (112) 
1

>  <s_lp_Variant>  (112) 
43:0-1

>  <s_i_glide_gridfile>  (112) 
pfpi4k_grid

>  <i_i_glide_lignum>  (112) 
8

>  <i_i_glide_rotatable_bonds>  (112) 
1

>  <r_i_docking_score>  (112) 
-3.22125

>  <r_i_glide_ligand_efficiency>  (112) 
-0.146421

>  <r_i_glide_ligand_efficiency_sa>  (112) 
-0.410276

>  <r_i_glide_ligand_efficiency_ln>  (112) 
-0.787392

>  <r_i_glide_gscore>  (112) 
-3.22125

>  <r_i_glide_lipo>  (112) 
-0.571228

>  <r_i_glide_hbond>  (112) 
-0.128854

>  <r_i_glide_metal>  (112) 
-0

>  <r_i_glide_rewards>  (112) 
-1.32213

>  <r_i_glide_evdw>  (112) 
-23.8073

>  <r_i_glide_ecoul>  (112) 
-0.0578705

>  <r_i_glide_erotb>  (112) 
0

>  <r_i_glide_esite>  (112) 
0

>  <r_i_glide_emodel>  (112) 
-28.8827

>  <r_i_glide_energy>  (112) 
-23.8652

>  <r_i_glide_einternal>  (112) 
0.00766712

>  <r_i_glide_intrahb_reward>  (112) 
-0

>  <i_i_glide_confnum>  (112) 
2

>  <i_i_glide_posenum>  (112) 
6

>  <r_i_glide_eff_state_penalty>  (112) 
0

>  <ligand_id>  (112) 
43

>  <original_smiles>  (112) 
CC1(C)C2CC3OC(=O)C4(C)C3C2C(O)C1C1OCC42OC12

>  <smiles>  (112) 
[H]OC1([H])C2([H])C3([H])C4([H])OC(=O)C3(C([H])([H])[H])C35OC3([H])C([H])(OC5([H])[H])C1([H])C(C([H])([H])[H])(C([H])([H])[H])C2([H])C4([H])[H]

$$$$
43:0:1
     RDKit          3D

 44 49  0  0  1  0  0  0  0  0999 V2000
    5.7227   -3.1744   -2.3045 C   0  0  0  0  0  0  0  0  0  0  0  0
    4.7308   -2.9388   -1.1407 C   0  0  0  0  0  0  0  0  0  0  0  0
    3.4190   -2.5258   -1.8390 C   0  0  0  0  0  0  0  0  0  0  0  0
    4.6566   -4.2528   -0.2978 C   0  0  2  0  0  0  0  0  0  0  0  0
    3.3091   -4.8187    0.2207 C   0  0  0  0  0  0  0  0  0  0  0  0
    3.5435   -5.1662    1.7025 C   0  0  2  0  0  0  0  0  0  0  0  0
    2.4858   -4.9373    2.6191 O   0  0  0  0  0  0  0  0  0  0  0  0
    2.7458   -3.9694    3.5114 C   0  0  0  0  0  0  0  0  0  0  0  0
    2.0826   -3.7304    4.5226 O   0  0  0  0  0  0  0  0  0  0  0  0
    3.9667   -3.1414    3.0712 C   0  0  1  0  0  0  0  0  0  0  0  0
    4.8374   -2.8700    4.3250 C   0  0  0  0  0  0  0  0  0  0  0  0
    4.6463   -4.2439    2.1927 C   0  0  2  0  0  0  0  0  0  0  0  0
    5.5228   -4.0077    0.9538 C   0  0  2  0  0  0  0  0  0  0  0  0
    6.2009   -2.6493    0.8377 C   0  0  1  0  0  0  0  0  0  0  0  0
    7.5161   -2.8122    0.3370 O   0  0  0  0  0  0  0  0  0  0  0  0
    5.3503   -1.8666   -0.1760 C   0  0  2  0  0  0  0  0  0  0  0  0
    4.4212   -0.8170    0.4903 C   0  0  2  0  0  0  0  0  0  0  0  0
    4.9946   -0.2581    1.6666 O   0  0  0  0  0  0  0  0  0  0  0  0
    4.0892   -0.4989    2.7504 C   0  0  0  0  0  0  0  0  0  0  0  0
    3.3682   -1.8247    2.4450 C   0  0  2  0  0  0  0  0  0  0  0  0
    2.4868   -2.3110    1.4061 O   0  0  0  0  0  0  0  0  0  0  0  0
    3.0689   -1.1735    1.0305 C   0  0  2  0  0  0  0  0  0  0  0  0
    5.3494   -3.9202   -3.0062 H   0  0  0  0  0  0  0  0  0  0  0  0
    6.6985   -3.5169   -1.9656 H   0  0  0  0  0  0  0  0  0  0  0  0
    5.8806   -2.2584   -2.8692 H   0  0  0  0  0  0  0  0  0  0  0  0
    2.6030   -2.3526   -1.1504 H   0  0  0  0  0  0  0  0  0  0  0  0
    3.0807   -3.2970   -2.5323 H   0  0  0  0  0  0  0  0  0  0  0  0
    3.5472   -1.6049   -2.4084 H   0  0  0  0  0  0  0  0  0  0  0  0
    5.1189   -5.0599   -0.8702 H   0  0  0  0  0  0  0  0  0  0  0  0
    2.4707   -4.1519    0.0758 H   0  0  0  0  0  0  0  0  0  0  0  0
    3.0403   -5.7281   -0.3196 H   0  0  0  0  0  0  0  0  0  0  0  0
    3.8787   -6.2023    1.7725 H   0  0  0  0  0  0  0  0  0  0  0  0
    5.7939   -2.4235    4.0504 H   0  0  0  0  0  0  0  0  0  0  0  0
    5.0606   -3.7892    4.8699 H   0  0  0  0  0  0  0  0  0  0  0  0
    4.3430   -2.2062    5.0376 H   0  0  0  0  0  0  0  0  0  0  0  0
    5.2579   -4.8357    2.8737 H   0  0  0  0  0  0  0  0  0  0  0  0
    6.2875   -4.7907    0.9759 H   0  0  0  0  0  0  0  0  0  0  0  0
    6.3114   -2.1771    1.8097 H   0  0  0  0  0  0  0  0  0  0  0  0
    7.9911   -3.3619    0.9385 H   0  0  0  0  0  0  0  0  0  0  0  0
    6.0389   -1.2415   -0.7478 H   0  0  0  0  0  0  0  0  0  0  0  0
    4.2668   -0.0085   -0.2201 H   0  0  0  0  0  0  0  0  0  0  0  0
    4.6146   -0.4730    3.6985 H   0  0  0  0  0  0  0  0  0  0  0  0
    3.3662    0.3209    2.8265 H   0  0  0  0  0  0  0  0  0  0  0  0
    2.3468   -0.3578    0.9679 H   0  0  0  0  0  0  0  0  0  0  0  0
  1  2  1  0
  1 23  1  0
  1 24  1  0
  1 25  1  0
  2 16  1  0
  2  3  1  0
  2  4  1  0
  3 26  1  0
  3 27  1  0
  3 28  1  0
  4 13  1  0
  4  5  1  0
  4 29  1  6
  5  6  1  0
  5 30  1  0
  5 31  1  0
  6 12  1  0
  6  7  1  0
  6 32  1  6
  7  8  1  0
  8  9  2  0
  8 10  1  0
 10 20  1  0
 10 11  1  1
 10 12  1  0
 11 33  1  0
 11 34  1  0
 11 35  1  0
 12 13  1  0
 12 36  1  1
 13 14  1  0
 13 37  1  1
 14 15  1  0
 14 16  1  0
 14 38  1  1
 15 39  1  0
 16 17  1  0
 16 40  1  6
 17 22  1  0
 17 18  1  0
 17 41  1  6
 18 19  1  0
 19 20  1  0
 19 42  1  0
 19 43  1  0
 20 22  1  0
 20 21  1  1
 21 22  1  0
 22 44  1  1
M  END
>  <i_m_ct_stereo_status>  (113) 
1

>  <s_m_source_file>  (113) 
/var/tmp/pbs.5076255.sched01/tmpcdf8lnea/434bzo3qpq.sdf

>  <i_m_source_file_index>  (113) 
8

>  <i_lp_mmshare_version>  (113) 
48012

>  <i_f3d_flags>  (113) 
0

>  <s_epik_input>  (113) 
W0NIMl0xT1tDQEhdKFtDQEhdMk8zKVtDSF0oQzQoW0NIM10pW0NIM10pW0NASF0oW09IXSlbQ0BASF01W0NASF00W0NIMl1bQ0BIXShPQzY9TylbQ0BASF01W0NAXTYoW0NAXTEyMylbQ0gzXQ==

>  <s_epik_cmdline>  (113) 
J2VwaWtfcHl0aG9uJywgJy1waHQnLCAnMi4wJywgJy1waCcsICc3LjAnLCAnLXRuJywgJzgnLCAnLW1hJywgJzIwMCcsICctaW1hZScsICc8aW5maWxlLm1hZT4nLCAnLW9tYWUnLCAnPG91dGZpbGUubWFlPic=

>  <r_lp_tautomer_probability>  (113) 
1

>  <r_epik_Ionization_Penalty>  (113) 
9.91562e-08

>  <r_epik_Ionization_Penalty_Charging>  (113) 
0

>  <r_epik_Ionization_Penalty_Neutral>  (113) 
9.91562e-08

>  <r_epik_State_Penalty>  (113) 
-0

>  <r_epik_Charging_Adjusted_Penalty>  (113) 
0

>  <i_epik_Tot_Q>  (113) 
0

>  <i_epik_Tot_abs_Q>  (113) 
0

>  <s_epik_Chemistry_Notes>  (113) 
This compound has an ester and may undergo hydrolysis at high or low pH.

>  <s_lp_Force_Field>  (113) 
OPLS3e

>  <r_lp_Energy>  (113) 
100.875

>  <b_lp_Chiralities_Consistent>  (113) 
1

>  <s_lp_Variant>  (113) 
43:0-1

>  <s_i_glide_gridfile>  (113) 
pfpi4k_grid

>  <i_i_glide_lignum>  (113) 
8

>  <i_i_glide_rotatable_bonds>  (113) 
1

>  <r_i_docking_score>  (113) 
-3.19187

>  <r_i_glide_ligand_efficiency>  (113) 
-0.145085

>  <r_i_glide_ligand_efficiency_sa>  (113) 
-0.406534

>  <r_i_glide_ligand_efficiency_ln>  (113) 
-0.78021

>  <r_i_glide_gscore>  (113) 
-3.19187

>  <r_i_glide_lipo>  (113) 
-0.521223

>  <r_i_glide_hbond>  (113) 
-0.0917755

>  <r_i_glide_metal>  (113) 
-0

>  <r_i_glide_rewards>  (113) 
-1.32102

>  <r_i_glide_evdw>  (113) 
-23.5901

>  <r_i_glide_ecoul>  (113) 
-0.522293

>  <r_i_glide_erotb>  (113) 
0

>  <r_i_glide_esite>  (113) 
0

>  <r_i_glide_emodel>  (113) 
-28.9337

>  <r_i_glide_energy>  (113) 
-24.1124

>  <r_i_glide_einternal>  (113) 
0.31658

>  <r_i_glide_intrahb_reward>  (113) 
-0

>  <i_i_glide_confnum>  (113) 
1

>  <i_i_glide_posenum>  (113) 
9

>  <r_i_glide_eff_state_penalty>  (113) 
0

>  <ligand_id>  (113) 
43

>  <original_smiles>  (113) 
CC1(C)C2CC3OC(=O)C4(C)C3C2C(O)C1C1OCC42OC12

>  <smiles>  (113) 
[H]OC1([H])C2([H])C3([H])C4([H])OC(=O)C3(C([H])([H])[H])C35OC3([H])C([H])(OC5([H])[H])C1([H])C(C([H])([H])[H])(C([H])([H])[H])C2([H])C4([H])[H]

$$$$
43:0:2
     RDKit          3D

 44 49  0  0  1  0  0  0  0  0999 V2000
    6.0090   -2.8881   -1.9384 C   0  0  0  0  0  0  0  0  0  0  0  0
    4.9506   -2.6156   -0.8401 C   0  0  0  0  0  0  0  0  0  0  0  0
    3.8566   -1.7955   -1.5545 C   0  0  0  0  0  0  0  0  0  0  0  0
    4.4895   -3.9950   -0.2668 C   0  0  2  0  0  0  0  0  0  0  0  0
    2.9977   -4.3088    0.0224 C   0  0  0  0  0  0  0  0  0  0  0  0
    2.9725   -4.9511    1.4266 C   0  0  2  0  0  0  0  0  0  0  0  0
    1.8911   -4.6582    2.2936 O   0  0  0  0  0  0  0  0  0  0  0  0
    2.2305   -3.9141    3.3595 C   0  0  0  0  0  0  0  0  0  0  0  0
    1.5120   -3.6925    4.3335 O   0  0  0  0  0  0  0  0  0  0  0  0
    3.6434   -3.3256    3.1815 C   0  0  1  0  0  0  0  0  0  0  0  0
    4.3912   -3.4726    4.5329 C   0  0  0  0  0  0  0  0  0  0  0  0
    4.1734   -4.3977    2.1707 C   0  0  2  0  0  0  0  0  0  0  0  0
    5.2240   -4.1701    1.0745 C   0  0  2  0  0  0  0  0  0  0  0  0
    6.1837   -3.0119    1.2737 C   0  0  1  0  0  0  0  0  0  0  0  0
    7.4813   -3.4093    0.8672 O   0  0  0  0  0  0  0  0  0  0  0  0
    5.6601   -1.8918    0.3571 C   0  0  2  0  0  0  0  0  0  0  0  0
    4.8991   -0.7776    1.1261 C   0  0  2  0  0  0  0  0  0  0  0  0
    5.4249   -0.5644    2.4302 O   0  0  0  0  0  0  0  0  0  0  0  0
    4.3659   -0.7653    3.3736 C   0  0  0  0  0  0  0  0  0  0  0  0
    3.4244   -1.8207    2.7648 C   0  0  2  0  0  0  0  0  0  0  0  0
    2.5864   -1.9089    1.5915 O   0  0  0  0  0  0  0  0  0  0  0  0
    3.4427   -0.8935    1.4727 C   0  0  2  0  0  0  0  0  0  0  0  0
    5.5733   -3.4008   -2.7970 H   0  0  0  0  0  0  0  0  0  0  0  0
    6.8307   -3.5109   -1.5870 H   0  0  0  0  0  0  0  0  0  0  0  0
    6.4461   -1.9603   -2.3053 H   0  0  0  0  0  0  0  0  0  0  0  0
    3.0122   -1.5470   -0.9207 H   0  0  0  0  0  0  0  0  0  0  0  0
    3.4484   -2.3418   -2.4060 H   0  0  0  0  0  0  0  0  0  0  0  0
    4.2524   -0.8498   -1.9274 H   0  0  0  0  0  0  0  0  0  0  0  0
    4.8342   -4.7860   -0.9364 H   0  0  0  0  0  0  0  0  0  0  0  0
    2.3470   -3.4478   -0.0594 H   0  0  0  0  0  0  0  0  0  0  0  0
    2.6114   -5.0166   -0.7117 H   0  0  0  0  0  0  0  0  0  0  0  0
    3.0722   -6.0308    1.3214 H   0  0  0  0  0  0  0  0  0  0  0  0
    5.4477   -3.2269    4.4302 H   0  0  0  0  0  0  0  0  0  0  0  0
    4.3375   -4.4940    4.9130 H   0  0  0  0  0  0  0  0  0  0  0  0
    3.9664   -2.8368    5.3130 H   0  0  0  0  0  0  0  0  0  0  0  0
    4.5577   -5.2176    2.7777 H   0  0  0  0  0  0  0  0  0  0  0  0
    5.7985   -5.1001    1.0156 H   0  0  0  0  0  0  0  0  0  0  0  0
    6.2610   -2.7399    2.3226 H   0  0  0  0  0  0  0  0  0  0  0  0
    8.0658   -2.6835    0.9997 H   0  0  0  0  0  0  0  0  0  0  0  0
    6.5336   -1.3589   -0.0258 H   0  0  0  0  0  0  0  0  0  0  0  0
    5.0138    0.1502    0.5689 H   0  0  0  0  0  0  0  0  0  0  0  0
    4.7657   -1.0206    4.3491 H   0  0  0  0  0  0  0  0  0  0  0  0
    3.8306    0.1754    3.5412 H   0  0  0  0  0  0  0  0  0  0  0  0
    2.9286    0.0674    1.5082 H   0  0  0  0  0  0  0  0  0  0  0  0
  1  2  1  0
  1 23  1  0
  1 24  1  0
  1 25  1  0
  2 16  1  0
  2  3  1  0
  2  4  1  0
  3 26  1  0
  3 27  1  0
  3 28  1  0
  4 13  1  0
  4  5  1  0
  4 29  1  6
  5  6  1  0
  5 30  1  0
  5 31  1  0
  6 12  1  0
  6  7  1  0
  6 32  1  6
  7  8  1  0
  8  9  2  0
  8 10  1  0
 10 20  1  0
 10 11  1  1
 10 12  1  0
 11 33  1  0
 11 34  1  0
 11 35  1  0
 12 13  1  0
 12 36  1  1
 13 14  1  0
 13 37  1  6
 14 15  1  0
 14 16  1  0
 14 38  1  1
 15 39  1  0
 16 17  1  0
 16 40  1  6
 17 22  1  0
 17 18  1  0
 17 41  1  6
 18 19  1  0
 19 20  1  0
 19 42  1  0
 19 43  1  0
 20 22  1  0
 20 21  1  1
 21 22  1  0
 22 44  1  1
M  END
>  <i_m_ct_stereo_status>  (114) 
1

>  <s_m_source_file>  (114) 
/var/tmp/pbs.5076255.sched01/tmpcdf8lnea/434bzo3qpq.sdf

>  <i_m_source_file_index>  (114) 
8

>  <i_lp_mmshare_version>  (114) 
48012

>  <i_f3d_flags>  (114) 
0

>  <s_epik_input>  (114) 
W0NIMl0xT1tDQEhdKFtDQEhdMk8zKVtDSF0oQzQoW0NIM10pW0NIM10pW0NASF0oW09IXSlbQ0BASF01W0NASF00W0NIMl1bQ0BIXShPQzY9TylbQ0BASF01W0NAXTYoW0NAXTEyMylbQ0gzXQ==

>  <s_epik_cmdline>  (114) 
J2VwaWtfcHl0aG9uJywgJy1waHQnLCAnMi4wJywgJy1waCcsICc3LjAnLCAnLXRuJywgJzgnLCAnLW1hJywgJzIwMCcsICctaW1hZScsICc8aW5maWxlLm1hZT4nLCAnLW9tYWUnLCAnPG91dGZpbGUubWFlPic=

>  <r_lp_tautomer_probability>  (114) 
1

>  <r_epik_Ionization_Penalty>  (114) 
9.91562e-08

>  <r_epik_Ionization_Penalty_Charging>  (114) 
0

>  <r_epik_Ionization_Penalty_Neutral>  (114) 
9.91562e-08

>  <r_epik_State_Penalty>  (114) 
-0

>  <r_epik_Charging_Adjusted_Penalty>  (114) 
0

>  <i_epik_Tot_Q>  (114) 
0

>  <i_epik_Tot_abs_Q>  (114) 
0

>  <s_epik_Chemistry_Notes>  (114) 
This compound has an ester and may undergo hydrolysis at high or low pH.

>  <s_lp_Force_Field>  (114) 
OPLS3e

>  <r_lp_Energy>  (114) 
100.875

>  <b_lp_Chiralities_Consistent>  (114) 
1

>  <s_lp_Variant>  (114) 
43:0-1

>  <s_i_glide_gridfile>  (114) 
pfpi4k_grid

>  <i_i_glide_lignum>  (114) 
8

>  <i_i_glide_rotatable_bonds>  (114) 
1

>  <r_i_docking_score>  (114) 
-2.84948

>  <r_i_glide_ligand_efficiency>  (114) 
-0.129522

>  <r_i_glide_ligand_efficiency_sa>  (114) 
-0.362926

>  <r_i_glide_ligand_efficiency_ln>  (114) 
-0.696518

>  <r_i_glide_gscore>  (114) 
-2.84948

>  <r_i_glide_lipo>  (114) 
-0.452678

>  <r_i_glide_hbond>  (114) 
0

>  <r_i_glide_metal>  (114) 
-0

>  <r_i_glide_rewards>  (114) 
-1.32182

>  <r_i_glide_evdw>  (114) 
-22.9581

>  <r_i_glide_ecoul>  (114) 
0.486155

>  <r_i_glide_erotb>  (114) 
0

>  <r_i_glide_esite>  (114) 
0

>  <r_i_glide_emodel>  (114) 
-26.7275

>  <r_i_glide_energy>  (114) 
-22.472

>  <r_i_glide_einternal>  (114) 
0.307315

>  <r_i_glide_intrahb_reward>  (114) 
-0

>  <i_i_glide_confnum>  (114) 
2

>  <i_i_glide_posenum>  (114) 
17

>  <r_i_glide_eff_state_penalty>  (114) 
0

>  <ligand_id>  (114) 
43

>  <original_smiles>  (114) 
CC1(C)C2CC3OC(=O)C4(C)C3C2C(O)C1C1OCC42OC12

>  <smiles>  (114) 
[H]OC1([H])C2([H])C3([H])C4([H])OC(=O)C3(C([H])([H])[H])C35OC3([H])C([H])(OC5([H])[H])C1([H])C(C([H])([H])[H])(C([H])([H])[H])C2([H])C4([H])[H]

$$$$
43:1:0
     RDKit          3D

 44 49  0  0  1  0  0  0  0  0999 V2000
    4.0536   -2.3312   -2.3228 C   0  0  0  0  0  0  0  0  0  0  0  0
    4.6470   -2.6502   -0.9211 C   0  0  0  0  0  0  0  0  0  0  0  0
    6.1297   -2.2347   -1.0497 C   0  0  0  0  0  0  0  0  0  0  0  0
    3.8014   -1.8736    0.1503 C   0  0  2  0  0  0  0  0  0  0  0  0
    4.4709   -1.0999    1.3082 C   0  0  0  0  0  0  0  0  0  0  0  0
    3.7538   -1.5366    2.6029 C   0  0  2  0  0  0  0  0  0  0  0  0
    4.6061   -1.7769    3.7036 O   0  0  0  0  0  0  0  0  0  0  0  0
    4.5721   -3.0251    4.1754 C   0  0  0  0  0  0  0  0  0  0  0  0
    5.0959   -3.4102    5.2181 O   0  0  0  0  0  0  0  0  0  0  0  0
    3.8093   -3.9574    3.2218 C   0  0  1  0  0  0  0  0  0  0  0  0
    2.8046   -4.7986    4.0459 C   0  0  0  0  0  0  0  0  0  0  0  0
    3.0565   -2.8770    2.3540 C   0  0  2  0  0  0  0  0  0  0  0  0
    2.8484   -2.8930    0.8072 C   0  0  2  0  0  0  0  0  0  0  0  0
    2.9859   -4.1948    0.0197 C   0  0  1  0  0  0  0  0  0  0  0  0
    1.9830   -4.2539   -0.9770 O   0  0  0  0  0  0  0  0  0  0  0  0
    4.4113   -4.1647   -0.6045 C   0  0  2  0  0  0  0  0  0  0  0  0
    5.4840   -4.9030    0.2630 C   0  0  2  0  0  0  0  0  0  0  0  0
    4.9436   -6.1940    0.6004 O   0  0  0  0  0  0  0  0  0  0  0  0
    4.4308   -6.2272    1.9440 C   0  0  0  0  0  0  0  0  0  0  0  0
    4.8160   -4.8729    2.4862 C   0  0  2  0  0  0  0  0  0  0  0  0
    6.2175   -4.8609    2.7646 O   0  0  0  0  0  0  0  0  0  0  0  0
    5.7414   -4.2167    1.5761 C   0  0  1  0  0  0  0  0  0  0  0  0
    4.2505   -1.2989   -2.6161 H   0  0  0  0  0  0  0  0  0  0  0  0
    2.9701   -2.4524   -2.3714 H   0  0  0  0  0  0  0  0  0  0  0  0
    4.4808   -2.9751   -3.0936 H   0  0  0  0  0  0  0  0  0  0  0  0
    6.7394   -2.4179   -0.1739 H   0  0  0  0  0  0  0  0  0  0  0  0
    6.1967   -1.1686   -1.2600 H   0  0  0  0  0  0  0  0  0  0  0  0
    6.6066   -2.7654   -1.8750 H   0  0  0  0  0  0  0  0  0  0  0  0
    3.1772   -1.1415   -0.3685 H   0  0  0  0  0  0  0  0  0  0  0  0
    5.5447   -1.2303    1.3691 H   0  0  0  0  0  0  0  0  0  0  0  0
    4.3363   -0.0268    1.1649 H   0  0  0  0  0  0  0  0  0  0  0  0
    3.0125   -0.7827    2.8680 H   0  0  0  0  0  0  0  0  0  0  0  0
    2.0578   -5.2621    3.3999 H   0  0  0  0  0  0  0  0  0  0  0  0
    2.2661   -4.1830    4.7694 H   0  0  0  0  0  0  0  0  0  0  0  0
    3.3068   -5.5916    4.6046 H   0  0  0  0  0  0  0  0  0  0  0  0
    2.0596   -2.7890    2.7881 H   0  0  0  0  0  0  0  0  0  0  0  0
    1.8319   -2.5153    0.6667 H   0  0  0  0  0  0  0  0  0  0  0  0
    2.7394   -5.0547    0.6190 H   0  0  0  0  0  0  0  0  0  0  0  0
    2.2737   -4.8744   -1.6466 H   0  0  0  0  0  0  0  0  0  0  0  0
    4.3973   -4.7211   -1.5376 H   0  0  0  0  0  0  0  0  0  0  0  0
    6.4205   -5.0098   -0.2791 H   0  0  0  0  0  0  0  0  0  0  0  0
    3.3677   -6.4552    1.9871 H   0  0  0  0  0  0  0  0  0  0  0  0
    4.9493   -7.0043    2.5063 H   0  0  0  0  0  0  0  0  0  0  0  0
    6.0058   -3.1780    1.6123 H   0  0  0  0  0  0  0  0  0  0  0  0
  1  2  1  0
  1 23  1  0
  1 24  1  0
  1 25  1  0
  2 16  1  0
  2  3  1  0
  2  4  1  0
  3 26  1  0
  3 27  1  0
  3 28  1  0
  4 13  1  0
  4  5  1  0
  4 29  1  6
  5  6  1  0
  5 30  1  0
  5 31  1  0
  6 12  1  0
  6  7  1  0
  6 32  1  1
  7  8  1  0
  8  9  2  0
  8 10  1  0
 10 20  1  0
 10 11  1  1
 10 12  1  0
 11 33  1  0
 11 34  1  0
 11 35  1  0
 12 13  1  0
 12 36  1  1
 13 14  1  0
 13 37  1  1
 14 15  1  0
 14 16  1  0
 14 38  1  1
 15 39  1  0
 16 17  1  0
 16 40  1  6
 17 22  1  0
 17 18  1  0
 17 41  1  6
 18 19  1  0
 19 20  1  0
 19 42  1  0
 19 43  1  0
 20 22  1  0
 20 21  1  1
 21 22  1  0
 22 44  1  6
M  END
>  <i_m_ct_stereo_status>  (115) 
1

>  <s_m_source_file>  (115) 
/var/tmp/pbs.5076255.sched01/tmpcdf8lnea/434bzo3qpq.sdf

>  <i_m_source_file_index>  (115) 
9

>  <i_lp_mmshare_version>  (115) 
48012

>  <i_f3d_flags>  (115) 
2

>  <s_epik_input>  (115) 
W0NIMl0xT1tDQEhdKFtDQEhdMk8zKVtDSF0oQzQoW0NIM10pW0NIM10pW0NASF0oW09IXSlbQ0BASF01W0NASF00W0NIMl1bQ0BIXShPQzY9TylbQ0BASF01W0NAXTYoW0NAXTEyMylbQ0gzXQ==

>  <s_epik_cmdline>  (115) 
J2VwaWtfcHl0aG9uJywgJy1waHQnLCAnMi4wJywgJy1waCcsICc3LjAnLCAnLXRuJywgJzgnLCAnLW1hJywgJzIwMCcsICctaW1hZScsICc8aW5maWxlLm1hZT4nLCAnLW9tYWUnLCAnPG91dGZpbGUubWFlPic=

>  <r_lp_tautomer_probability>  (115) 
1

>  <r_epik_Ionization_Penalty>  (115) 
9.91562e-08

>  <r_epik_Ionization_Penalty_Charging>  (115) 
0

>  <r_epik_Ionization_Penalty_Neutral>  (115) 
9.91562e-08

>  <r_epik_State_Penalty>  (115) 
-0

>  <r_epik_Charging_Adjusted_Penalty>  (115) 
0

>  <i_epik_Tot_Q>  (115) 
0

>  <i_epik_Tot_abs_Q>  (115) 
0

>  <s_epik_Chemistry_Notes>  (115) 
This compound has an ester and may undergo hydrolysis at high or low pH.

>  <s_lp_Force_Field>  (115) 
OPLS3e

>  <r_lp_Energy>  (115) 
57.3342

>  <b_lp_Chiralities_Consistent>  (115) 
0

>  <s_lp_Variant>  (115) 
43:0-2

>  <s_i_glide_gridfile>  (115) 
pfpi4k_grid

>  <i_i_glide_lignum>  (115) 
9

>  <i_i_glide_rotatable_bonds>  (115) 
1

>  <r_i_docking_score>  (115) 
-3.7576

>  <r_i_glide_ligand_efficiency>  (115) 
-0.1708

>  <r_i_glide_ligand_efficiency_sa>  (115) 
-0.478588

>  <r_i_glide_ligand_efficiency_ln>  (115) 
-0.918494

>  <r_i_glide_gscore>  (115) 
-3.7576

>  <r_i_glide_lipo>  (115) 
-0.2604

>  <r_i_glide_hbond>  (115) 
-0.32

>  <r_i_glide_metal>  (115) 
-0

>  <r_i_glide_rewards>  (115) 
-1.34763

>  <r_i_glide_evdw>  (115) 
-18.862

>  <r_i_glide_ecoul>  (115) 
-5.90976

>  <r_i_glide_erotb>  (115) 
0

>  <r_i_glide_esite>  (115) 
0

>  <r_i_glide_emodel>  (115) 
-30.4733

>  <r_i_glide_energy>  (115) 
-24.7718

>  <r_i_glide_einternal>  (115) 
0.636126

>  <r_i_glide_intrahb_reward>  (115) 
-0

>  <i_i_glide_confnum>  (115) 
2

>  <i_i_glide_posenum>  (115) 
24

>  <r_i_glide_eff_state_penalty>  (115) 
0

>  <ligand_id>  (115) 
43

>  <original_smiles>  (115) 
CC1(C)C2CC3OC(=O)C4(C)C3C2C(O)C1C1OCC42OC12

>  <smiles>  (115) 
[H]OC1([H])C2([H])C3([H])C4([H])OC(=O)C3(C([H])([H])[H])C35OC3([H])C([H])(OC5([H])[H])C1([H])C(C([H])([H])[H])(C([H])([H])[H])C2([H])C4([H])[H]

$$$$
43:1:1
     RDKit          3D

 44 49  0  0  1  0  0  0  0  0999 V2000
    5.0293   -2.5932   -2.3864 C   0  0  0  0  0  0  0  0  0  0  0  0
    5.2899   -2.7199   -0.8653 C   0  0  0  0  0  0  0  0  0  0  0  0
    6.8143   -2.9743   -0.7734 C   0  0  0  0  0  0  0  0  0  0  0  0
    4.7806   -1.4044   -0.1761 C   0  0  2  0  0  0  0  0  0  0  0  0
    5.6065   -0.6877    0.9134 C   0  0  0  0  0  0  0  0  0  0  0  0
    4.6510   -0.4310    2.0961 C   0  0  2  0  0  0  0  0  0  0  0  0
    5.2006   -0.6791    3.3723 O   0  0  0  0  0  0  0  0  0  0  0  0
    4.5778   -1.6266    4.0718 C   0  0  0  0  0  0  0  0  0  0  0  0
    4.7734   -1.8947    5.2567 O   0  0  0  0  0  0  0  0  0  0  0  0
    3.5837   -2.3990    3.1983 C   0  0  1  0  0  0  0  0  0  0  0  0
    2.2305   -2.5024    3.9454 C   0  0  0  0  0  0  0  0  0  0  0  0
    3.4670   -1.3900    1.9900 C   0  0  2  0  0  0  0  0  0  0  0  0
    3.4204   -1.7301    0.4671 C   0  0  2  0  0  0  0  0  0  0  0  0
    3.0374   -3.1361   -0.0009 C   0  0  1  0  0  0  0  0  0  0  0  0
    2.2248   -3.0699   -1.1653 O   0  0  0  0  0  0  0  0  0  0  0  0
    4.3770   -3.8653   -0.3105 C   0  0  2  0  0  0  0  0  0  0  0  0
    4.9353   -4.7034    0.8896 C   0  0  2  0  0  0  0  0  0  0  0  0
    3.8493   -5.5151    1.3709 O   0  0  0  0  0  0  0  0  0  0  0  0
    3.2579   -4.9710    2.5612 C   0  0  0  0  0  0  0  0  0  0  0  0
    4.1562   -3.8046    2.8917 C   0  0  2  0  0  0  0  0  0  0  0  0
    5.4085   -4.2736    3.4251 O   0  0  0  0  0  0  0  0  0  0  0  0
    5.3451   -3.8436    2.0556 C   0  0  1  0  0  0  0  0  0  0  0  0
    5.6984   -1.8555   -2.8162 H   0  0  0  0  0  0  0  0  0  0  0  0
    4.0205   -2.2647   -2.6381 H   0  0  0  0  0  0  0  0  0  0  0  0
    5.2036   -3.5336   -2.9102 H   0  0  0  0  0  0  0  0  0  0  0  0
    7.1976   -3.1476    0.2243 H   0  0  0  0  0  0  0  0  0  0  0  0
    7.3788   -2.1381   -1.1814 H   0  0  0  0  0  0  0  0  0  0  0  0
    7.0865   -3.8489   -1.3613 H   0  0  0  0  0  0  0  0  0  0  0  0
    4.6024   -0.6515   -0.9483 H   0  0  0  0  0  0  0  0  0  0  0  0
    6.5029   -1.2151    1.2190 H   0  0  0  0  0  0  0  0  0  0  0  0
    5.9774    0.2631    0.5310 H   0  0  0  0  0  0  0  0  0  0  0  0
    4.2817    0.5911    2.0433 H   0  0  0  0  0  0  0  0  0  0  0  0
    1.4201   -2.7763    3.2668 H   0  0  0  0  0  0  0  0  0  0  0  0
    1.9531   -1.5497    4.4028 H   0  0  0  0  0  0  0  0  0  0  0  0
    2.2698   -3.2448    4.7452 H   0  0  0  0  0  0  0  0  0  0  0  0
    2.5748   -0.7906    2.1848 H   0  0  0  0  0  0  0  0  0  0  0  0
    2.6995   -1.0110    0.0695 H   0  0  0  0  0  0  0  0  0  0  0  0
    2.3774   -3.6056    0.7107 H   0  0  0  0  0  0  0  0  0  0  0  0
    1.6591   -2.2931   -1.1113 H   0  0  0  0  0  0  0  0  0  0  0  0
    4.1884   -4.5998   -1.0945 H   0  0  0  0  0  0  0  0  0  0  0  0
    5.7755   -5.3252    0.5810 H   0  0  0  0  0  0  0  0  0  0  0  0
    2.2056   -4.7237    2.4304 H   0  0  0  0  0  0  0  0  0  0  0  0
    3.3132   -5.7112    3.3586 H   0  0  0  0  0  0  0  0  0  0  0  0
    6.0321   -3.0324    1.9286 H   0  0  0  0  0  0  0  0  0  0  0  0
  1  2  1  0
  1 23  1  0
  1 24  1  0
  1 25  1  0
  2 16  1  0
  2  3  1  0
  2  4  1  0
  3 26  1  0
  3 27  1  0
  3 28  1  0
  4 13  1  0
  4  5  1  0
  4 29  1  6
  5  6  1  0
  5 30  1  0
  5 31  1  0
  6 12  1  0
  6  7  1  0
  6 32  1  1
  7  8  1  0
  8  9  2  0
  8 10  1  0
 10 20  1  0
 10 11  1  1
 10 12  1  0
 11 33  1  0
 11 34  1  0
 11 35  1  0
 12 13  1  0
 12 36  1  1
 13 14  1  0
 13 37  1  6
 14 15  1  0
 14 16  1  0
 14 38  1  1
 15 39  1  0
 16 17  1  0
 16 40  1  6
 17 22  1  0
 17 18  1  0
 17 41  1  6
 18 19  1  0
 19 20  1  0
 19 42  1  0
 19 43  1  0
 20 22  1  0
 20 21  1  1
 21 22  1  0
 22 44  1  6
M  END
>  <i_m_ct_stereo_status>  (116) 
1

>  <s_m_source_file>  (116) 
/var/tmp/pbs.5076255.sched01/tmpcdf8lnea/434bzo3qpq.sdf

>  <i_m_source_file_index>  (116) 
9

>  <i_lp_mmshare_version>  (116) 
48012

>  <i_f3d_flags>  (116) 
2

>  <s_epik_input>  (116) 
W0NIMl0xT1tDQEhdKFtDQEhdMk8zKVtDSF0oQzQoW0NIM10pW0NIM10pW0NASF0oW09IXSlbQ0BASF01W0NASF00W0NIMl1bQ0BIXShPQzY9TylbQ0BASF01W0NAXTYoW0NAXTEyMylbQ0gzXQ==

>  <s_epik_cmdline>  (116) 
J2VwaWtfcHl0aG9uJywgJy1waHQnLCAnMi4wJywgJy1waCcsICc3LjAnLCAnLXRuJywgJzgnLCAnLW1hJywgJzIwMCcsICctaW1hZScsICc8aW5maWxlLm1hZT4nLCAnLW9tYWUnLCAnPG91dGZpbGUubWFlPic=

>  <r_lp_tautomer_probability>  (116) 
1

>  <r_epik_Ionization_Penalty>  (116) 
9.91562e-08

>  <r_epik_Ionization_Penalty_Charging>  (116) 
0

>  <r_epik_Ionization_Penalty_Neutral>  (116) 
9.91562e-08

>  <r_epik_State_Penalty>  (116) 
-0

>  <r_epik_Charging_Adjusted_Penalty>  (116) 
0

>  <i_epik_Tot_Q>  (116) 
0

>  <i_epik_Tot_abs_Q>  (116) 
0

>  <s_epik_Chemistry_Notes>  (116) 
This compound has an ester and may undergo hydrolysis at high or low pH.

>  <s_lp_Force_Field>  (116) 
OPLS3e

>  <r_lp_Energy>  (116) 
57.3342

>  <b_lp_Chiralities_Consistent>  (116) 
0

>  <s_lp_Variant>  (116) 
43:0-2

>  <s_i_glide_gridfile>  (116) 
pfpi4k_grid

>  <i_i_glide_lignum>  (116) 
9

>  <i_i_glide_rotatable_bonds>  (116) 
1

>  <r_i_docking_score>  (116) 
-3.72107

>  <r_i_glide_ligand_efficiency>  (116) 
-0.169139

>  <r_i_glide_ligand_efficiency_sa>  (116) 
-0.473935

>  <r_i_glide_ligand_efficiency_ln>  (116) 
-0.909565

>  <r_i_glide_gscore>  (116) 
-3.72107

>  <r_i_glide_lipo>  (116) 
-0.485309

>  <r_i_glide_hbond>  (116) 
-0.16

>  <r_i_glide_metal>  (116) 
-0

>  <r_i_glide_rewards>  (116) 
-1.35947

>  <r_i_glide_evdw>  (116) 
-20.4984

>  <r_i_glide_ecoul>  (116) 
-4.60914

>  <r_i_glide_erotb>  (116) 
0

>  <r_i_glide_esite>  (116) 
0

>  <r_i_glide_emodel>  (116) 
-30.6308

>  <r_i_glide_energy>  (116) 
-25.1075

>  <r_i_glide_einternal>  (116) 
0.770758

>  <r_i_glide_intrahb_reward>  (116) 
-0

>  <i_i_glide_confnum>  (116) 
2

>  <i_i_glide_posenum>  (116) 
21

>  <r_i_glide_eff_state_penalty>  (116) 
0

>  <ligand_id>  (116) 
43

>  <original_smiles>  (116) 
CC1(C)C2CC3OC(=O)C4(C)C3C2C(O)C1C1OCC42OC12

>  <smiles>  (116) 
[H]OC1([H])C2([H])C3([H])C4([H])OC(=O)C3(C([H])([H])[H])C35OC3([H])C([H])(OC5([H])[H])C1([H])C(C([H])([H])[H])(C([H])([H])[H])C2([H])C4([H])[H]

$$$$
43:1:2
     RDKit          3D

 44 49  0  0  1  0  0  0  0  0999 V2000
    3.5946   -3.4372   -3.2024 C   0  0  0  0  0  0  0  0  0  0  0  0
    4.4059   -3.1249   -1.9105 C   0  0  0  0  0  0  0  0  0  0  0  0
    5.8195   -2.8310   -2.4416 C   0  0  0  0  0  0  0  0  0  0  0  0
    3.6804   -1.9614   -1.1677 C   0  0  2  0  0  0  0  0  0  0  0  0
    4.4650   -0.7597   -0.6204 C   0  0  0  0  0  0  0  0  0  0  0  0
    3.9763   -0.5507    0.8221 C   0  0  2  0  0  0  0  0  0  0  0  0
    5.0054   -0.2642    1.7335 O   0  0  0  0  0  0  0  0  0  0  0  0
    5.0930   -1.1374    2.7295 C   0  0  0  0  0  0  0  0  0  0  0  0
    5.7342   -0.9433    3.7566 O   0  0  0  0  0  0  0  0  0  0  0  0
    4.2753   -2.4117    2.4589 C   0  0  1  0  0  0  0  0  0  0  0  0
    3.4808   -2.7979    3.7239 C   0  0  0  0  0  0  0  0  0  0  0  0
    3.3483   -1.8465    1.3363 C   0  0  2  0  0  0  0  0  0  0  0  0
    2.9605   -2.5935    0.0455 C   0  0  2  0  0  0  0  0  0  0  0  0
    3.0457   -4.0953   -0.0802 C   0  0  1  0  0  0  0  0  0  0  0  0
    1.8934   -4.6185   -0.7135 O   0  0  0  0  0  0  0  0  0  0  0  0
    4.3413   -4.3184   -0.8980 C   0  0  2  0  0  0  0  0  0  0  0  0
    5.5681   -4.5903    0.0102 C   0  0  2  0  0  0  0  0  0  0  0  0
    5.1878   -5.6010    0.9574 O   0  0  0  0  0  0  0  0  0  0  0  0
    4.8729   -5.0276    2.2352 C   0  0  0  0  0  0  0  0  0  0  0  0
    5.2109   -3.5628    2.0412 C   0  0  2  0  0  0  0  0  0  0  0  0
    6.6184   -3.4180    2.0267 O   0  0  0  0  0  0  0  0  0  0  0  0
    5.9415   -3.3870    0.7842 C   0  0  1  0  0  0  0  0  0  0  0  0
    3.6639   -2.6406   -3.9466 H   0  0  0  0  0  0  0  0  0  0  0  0
    2.5320   -3.5861   -3.0100 H   0  0  0  0  0  0  0  0  0  0  0  0
    3.9769   -4.3325   -3.6874 H   0  0  0  0  0  0  0  0  0  0  0  0
    6.5804   -2.6074   -1.6981 H   0  0  0  0  0  0  0  0  0  0  0  0
    5.7442   -1.9716   -3.0975 H   0  0  0  0  0  0  0  0  0  0  0  0
    6.2004   -3.6695   -3.0312 H   0  0  0  0  0  0  0  0  0  0  0  0
    2.9289   -1.5379   -1.8354 H   0  0  0  0  0  0  0  0  0  0  0  0
    5.5426   -0.8440   -0.6833 H   0  0  0  0  0  0  0  0  0  0  0  0
    4.2354    0.1197   -1.2187 H   0  0  0  0  0  0  0  0  0  0  0  0
    3.2317    0.2441    0.8481 H   0  0  0  0  0  0  0  0  0  0  0  0
    2.6874   -3.5032    3.4792 H   0  0  0  0  0  0  0  0  0  0  0  0
    3.0192   -1.9191    4.1673 H   0  0  0  0  0  0  0  0  0  0  0  0
    4.1308   -3.2511    4.4751 H   0  0  0  0  0  0  0  0  0  0  0  0
    2.4166   -1.5730    1.8286 H   0  0  0  0  0  0  0  0  0  0  0  0
    1.9016   -2.4050    0.0182 H   0  0  0  0  0  0  0  0  0  0  0  0
    2.9494   -4.5800    0.8708 H   0  0  0  0  0  0  0  0  0  0  0  0
    2.1685   -4.9847   -1.5402 H   0  0  0  0  0  0  0  0  0  0  0  0
    4.2880   -5.2376   -1.4501 H   0  0  0  0  0  0  0  0  0  0  0  0
    6.4100   -4.9136   -0.5863 H   0  0  0  0  0  0  0  0  0  0  0  0
    3.8499   -5.2378    2.5587 H   0  0  0  0  0  0  0  0  0  0  0  0
    5.5421   -5.4444    2.9852 H   0  0  0  0  0  0  0  0  0  0  0  0
    6.1691   -2.4658    0.3067 H   0  0  0  0  0  0  0  0  0  0  0  0
  1  2  1  0
  1 23  1  0
  1 24  1  0
  1 25  1  0
  2 16  1  0
  2  3  1  0
  2  4  1  0
  3 26  1  0
  3 27  1  0
  3 28  1  0
  4 13  1  0
  4  5  1  0
  4 29  1  6
  5  6  1  0
  5 30  1  0
  5 31  1  0
  6 12  1  0
  6  7  1  0
  6 32  1  6
  7  8  1  0
  8  9  2  0
  8 10  1  0
 10 20  1  0
 10 11  1  1
 10 12  1  0
 11 33  1  0
 11 34  1  0
 11 35  1  0
 12 13  1  0
 12 36  1  1
 13 14  1  0
 13 37  1  6
 14 15  1  0
 14 16  1  0
 14 38  1  1
 15 39  1  0
 16 17  1  0
 16 40  1  6
 17 22  1  0
 17 18  1  0
 17 41  1  6
 18 19  1  0
 19 20  1  0
 19 42  1  0
 19 43  1  0
 20 22  1  0
 20 21  1  1
 21 22  1  0
 22 44  1  6
M  END
>  <i_m_ct_stereo_status>  (117) 
1

>  <s_m_source_file>  (117) 
/var/tmp/pbs.5076255.sched01/tmpcdf8lnea/434bzo3qpq.sdf

>  <i_m_source_file_index>  (117) 
9

>  <i_lp_mmshare_version>  (117) 
48012

>  <i_f3d_flags>  (117) 
2

>  <s_epik_input>  (117) 
W0NIMl0xT1tDQEhdKFtDQEhdMk8zKVtDSF0oQzQoW0NIM10pW0NIM10pW0NASF0oW09IXSlbQ0BASF01W0NASF00W0NIMl1bQ0BIXShPQzY9TylbQ0BASF01W0NAXTYoW0NAXTEyMylbQ0gzXQ==

>  <s_epik_cmdline>  (117) 
J2VwaWtfcHl0aG9uJywgJy1waHQnLCAnMi4wJywgJy1waCcsICc3LjAnLCAnLXRuJywgJzgnLCAnLW1hJywgJzIwMCcsICctaW1hZScsICc8aW5maWxlLm1hZT4nLCAnLW9tYWUnLCAnPG91dGZpbGUubWFlPic=

>  <r_lp_tautomer_probability>  (117) 
1

>  <r_epik_Ionization_Penalty>  (117) 
9.91562e-08

>  <r_epik_Ionization_Penalty_Charging>  (117) 
0

>  <r_epik_Ionization_Penalty_Neutral>  (117) 
9.91562e-08

>  <r_epik_State_Penalty>  (117) 
-0

>  <r_epik_Charging_Adjusted_Penalty>  (117) 
0

>  <i_epik_Tot_Q>  (117) 
0

>  <i_epik_Tot_abs_Q>  (117) 
0

>  <s_epik_Chemistry_Notes>  (117) 
This compound has an ester and may undergo hydrolysis at high or low pH.

>  <s_lp_Force_Field>  (117) 
OPLS3e

>  <r_lp_Energy>  (117) 
57.3342

>  <b_lp_Chiralities_Consistent>  (117) 
0

>  <s_lp_Variant>  (117) 
43:0-2

>  <s_i_glide_gridfile>  (117) 
pfpi4k_grid

>  <i_i_glide_lignum>  (117) 
9

>  <i_i_glide_rotatable_bonds>  (117) 
1

>  <r_i_docking_score>  (117) 
-3.66555

>  <r_i_glide_ligand_efficiency>  (117) 
-0.166616

>  <r_i_glide_ligand_efficiency_sa>  (117) 
-0.466865

>  <r_i_glide_ligand_efficiency_ln>  (117) 
-0.895995

>  <r_i_glide_gscore>  (117) 
-3.66555

>  <r_i_glide_lipo>  (117) 
-0.419345

>  <r_i_glide_hbond>  (117) 
-0.416648

>  <r_i_glide_metal>  (117) 
-0

>  <r_i_glide_rewards>  (117) 
-1.46691

>  <r_i_glide_evdw>  (117) 
-5.98981

>  <r_i_glide_ecoul>  (117) 
-7.08774

>  <r_i_glide_erotb>  (117) 
0

>  <r_i_glide_esite>  (117) 
0

>  <r_i_glide_emodel>  (117) 
-16.7734

>  <r_i_glide_energy>  (117) 
-13.0775

>  <r_i_glide_einternal>  (117) 
1.40623

>  <r_i_glide_intrahb_reward>  (117) 
-0

>  <i_i_glide_confnum>  (117) 
2

>  <i_i_glide_posenum>  (117) 
40

>  <r_i_glide_eff_state_penalty>  (117) 
0

>  <ligand_id>  (117) 
43

>  <original_smiles>  (117) 
CC1(C)C2CC3OC(=O)C4(C)C3C2C(O)C1C1OCC42OC12

>  <smiles>  (117) 
[H]OC1([H])C2([H])C3([H])C4([H])OC(=O)C3(C([H])([H])[H])C35OC3([H])C([H])(OC5([H])[H])C1([H])C(C([H])([H])[H])(C([H])([H])[H])C2([H])C4([H])[H]

$$$$
44:0:0
     RDKit          3D

 63 67  0  0  1  0  0  0  0  0999 V2000
    6.1653   -1.8084    1.4044 C   0  0  0  0  0  0  0  0  0  0  0  0
    5.4755   -2.7832    0.7904 C   0  0  0  0  0  0  0  0  0  0  0  0
    5.9447   -3.5073   -0.4537 C   0  0  2  0  0  0  0  0  0  0  0  0
    5.4892   -2.8023   -1.7477 C   0  0  0  0  0  0  0  0  0  0  0  0
    4.0691   -2.1991   -1.6489 C   0  0  1  0  0  0  0  0  0  0  0  0
    3.6788   -1.9425   -2.9658 O   0  0  0  0  0  0  0  0  0  0  0  0
    3.1199   -0.6600   -3.1999 C   0  0  0  0  0  0  0  0  0  0  0  0
    3.2082   -3.1210   -1.0461 O   0  0  0  0  0  0  0  0  0  0  0  0
    3.0293   -3.0136    0.3746 C   0  0  0  0  0  0  0  0  0  0  0  0
    4.2200   -3.4881    1.2720 C   0  0  2  0  0  0  0  0  0  0  0  0
    3.9242   -3.2854    2.7859 C   0  0  0  0  0  0  0  0  0  0  0  0
    2.9010   -4.2378    3.4741 C   0  0  1  0  0  0  0  0  0  0  0  0
    1.6009   -4.0596    2.9603 O   0  0  0  0  0  0  0  0  0  0  0  0
    3.2929   -5.7499    3.5802 C   0  0  2  0  0  0  0  0  0  0  0  0
    3.3376   -6.5367    2.2486 C   0  0  1  0  0  0  0  0  0  0  0  0
    2.0403   -7.3311    2.2184 C   0  0  0  0  0  0  0  0  0  0  0  0
    1.8598   -7.8201    3.6648 C   0  0  2  0  0  0  0  0  0  0  0  0
    0.4150   -8.3239    4.0178 C   0  0  0  0  0  0  0  0  0  0  0  0
   -0.1698   -9.1993    2.8787 C   0  0  0  0  0  0  0  0  0  0  0  0
    0.4433   -9.2028    5.2947 C   0  0  0  0  0  0  0  0  0  0  0  0
   -0.4986   -7.1188    4.3060 C   0  0  0  0  0  0  0  0  0  0  0  0
   -1.6392   -7.0572    3.8378 O   0  0  0  0  0  0  0  0  0  0  0  0
    0.0313   -6.0758    5.1839 C   0  0  0  0  0  0  0  0  0  0  0  0
    1.3595   -5.8940    5.3087 C   0  0  0  0  0  0  0  0  0  0  0  0
    2.4503   -6.6656    4.5589 C   0  0  2  0  0  0  0  0  0  0  0  0
    3.3980   -7.2655    5.6239 C   0  0  0  0  0  0  0  0  0  0  0  0
    3.4925   -5.8054    1.0378 O   0  0  0  0  0  0  0  0  0  0  0  0
    4.6181   -4.9451    1.0135 C   0  0  1  0  0  0  0  0  0  0  0  0
    5.3752   -4.9409   -0.3194 C   0  0  0  0  0  0  0  0  0  0  0  0
    5.8284   -1.3698    2.3308 H   0  0  0  0  0  0  0  0  0  0  0  0
    7.0885   -1.4436    0.9799 H   0  0  0  0  0  0  0  0  0  0  0  0
    7.0343   -3.5504   -0.4466 H   0  0  0  0  0  0  0  0  0  0  0  0
    6.1623   -1.9759   -1.9766 H   0  0  0  0  0  0  0  0  0  0  0  0
    5.5361   -3.4826   -2.5970 H   0  0  0  0  0  0  0  0  0  0  0  0
    4.0618   -1.2742   -1.0631 H   0  0  0  0  0  0  0  0  0  0  0  0
    2.8407   -0.5714   -4.2497 H   0  0  0  0  0  0  0  0  0  0  0  0
    3.8500    0.1216   -2.9863 H   0  0  0  0  0  0  0  0  0  0  0  0
    2.2289   -0.4921   -2.5977 H   0  0  0  0  0  0  0  0  0  0  0  0
    2.7403   -1.9908    0.6272 H   0  0  0  0  0  0  0  0  0  0  0  0
    2.1640   -3.6326    0.5860 H   0  0  0  0  0  0  0  0  0  0  0  0
    4.8566   -3.3664    3.3442 H   0  0  0  0  0  0  0  0  0  0  0  0
    3.5922   -2.2585    2.9422 H   0  0  0  0  0  0  0  0  0  0  0  0
    2.8473   -3.8640    4.4957 H   0  0  0  0  0  0  0  0  0  0  0  0
    0.9957   -4.4853    3.5508 H   0  0  0  0  0  0  0  0  0  0  0  0
    4.3178   -5.7287    3.9462 H   0  0  0  0  0  0  0  0  0  0  0  0
    4.1604   -7.2534    2.3125 H   0  0  0  0  0  0  0  0  0  0  0  0
    1.2164   -6.6805    1.9230 H   0  0  0  0  0  0  0  0  0  0  0  0
    2.0940   -8.1551    1.5021 H   0  0  0  0  0  0  0  0  0  0  0  0
    2.5240   -8.6851    3.7571 H   0  0  0  0  0  0  0  0  0  0  0  0
    0.4837  -10.0384    2.6358 H   0  0  0  0  0  0  0  0  0  0  0  0
   -0.3253   -8.6285    1.9623 H   0  0  0  0  0  0  0  0  0  0  0  0
   -1.1398   -9.6188    3.1525 H   0  0  0  0  0  0  0  0  0  0  0  0
    1.1066  -10.0652    5.1825 H   0  0  0  0  0  0  0  0  0  0  0  0
   -0.5531   -9.5880    5.5212 H   0  0  0  0  0  0  0  0  0  0  0  0
    0.7636   -8.6490    6.1782 H   0  0  0  0  0  0  0  0  0  0  0  0
   -0.6694   -5.4800    5.7464 H   0  0  0  0  0  0  0  0  0  0  0  0
    1.7168   -5.1390    5.9934 H   0  0  0  0  0  0  0  0  0  0  0  0
    4.2121   -7.8338    5.1713 H   0  0  0  0  0  0  0  0  0  0  0  0
    2.8804   -7.9391    6.3058 H   0  0  0  0  0  0  0  0  0  0  0  0
    3.8529   -6.4837    6.2336 H   0  0  0  0  0  0  0  0  0  0  0  0
    5.3444   -5.2485    1.7697 H   0  0  0  0  0  0  0  0  0  0  0  0
    4.6927   -5.1737   -1.1372 H   0  0  0  0  0  0  0  0  0  0  0  0
    6.1549   -5.7006   -0.3148 H   0  0  0  0  0  0  0  0  0  0  0  0
  1  2  2  0
  1 30  1  0
  1 31  1  0
  2 10  1  0
  2  3  1  0
  3 29  1  0
  3  4  1  0
  3 32  1  1
  4  5  1  0
  4 33  1  0
  4 34  1  0
  5  6  1  0
  5  8  1  0
  5 35  1  1
  6  7  1  0
  7 36  1  0
  7 37  1  0
  7 38  1  0
  8  9  1  0
 10  9  1  6
  9 39  1  0
  9 40  1  0
 10 28  1  0
 10 11  1  0
 11 12  1  0
 11 41  1  0
 11 42  1  0
 12 13  1  0
 12 14  1  0
 12 43  1  1
 13 44  1  0
 14 25  1  0
 14 15  1  0
 14 45  1  1
 15 16  1  0
 15 27  1  0
 15 46  1  1
 16 17  1  0
 16 47  1  0
 16 48  1  0
 17 25  1  0
 17 18  1  0
 17 49  1  6
 18 19  1  0
 18 20  1  0
 18 21  1  0
 19 50  1  0
 19 51  1  0
 19 52  1  0
 20 53  1  0
 20 54  1  0
 20 55  1  0
 21 22  2  0
 21 23  1  0
 23 24  2  0
 23 56  1  0
 24 25  1  0
 24 57  1  0
 25 26  1  1
 26 58  1  0
 26 59  1  0
 26 60  1  0
 27 28  1  0
 28 29  1  0
 28 61  1  1
 29 62  1  0
 29 63  1  0
M  END
>  <i_m_ct_stereo_status>  (118) 
1

>  <s_m_source_file>  (118) 
/var/tmp/pbs.5076255.sched01/tmpcdf8lnea/434bzo3qpq.sdf

>  <i_m_source_file_index>  (118) 
10

>  <i_lp_mmshare_version>  (118) 
48012

>  <i_f3d_flags>  (118) 
0

>  <s_epik_input>  (118) 
W0NIM11PW0NAQEhdKE9bQ0gyXTEpW0NIMl1bQ0BASF0oQzI9W0NIMl0pW0NIMl1bQ0BASF0oW0NAXTEyMylPW0NASF00W0NAQEhdKFtDQEBIXShbQ0gyXTMpW09IXSlbQ0BdNShbQ0gzXSlbQ0BIXShbQ0gyXTQpQyhbQ0gzXSkoW0NIM10pQyg9TylbQ0hdPVtDSF01

>  <s_epik_cmdline>  (118) 
J2VwaWtfcHl0aG9uJywgJy1waHQnLCAnMi4wJywgJy1waCcsICc3LjAnLCAnLXRuJywgJzgnLCAnLW1hJywgJzIwMCcsICctaW1hZScsICc8aW5maWxlLm1hZT4nLCAnLW9tYWUnLCAnPG91dGZpbGUubWFlPic=

>  <r_lp_tautomer_probability>  (118) 
1

>  <r_epik_Ionization_Penalty>  (118) 
6.37128e-08

>  <r_epik_Ionization_Penalty_Charging>  (118) 
0

>  <r_epik_Ionization_Penalty_Neutral>  (118) 
6.37128e-08

>  <r_epik_State_Penalty>  (118) 
-0

>  <r_epik_Charging_Adjusted_Penalty>  (118) 
0

>  <i_epik_Tot_Q>  (118) 
0

>  <i_epik_Tot_abs_Q>  (118) 
0

>  <s_epik_Chemistry_Notes>  (118) 
This compound contains an acetal/aminal-like group ( X-CH(R)-Y where X, Y are N, S, or O) that may be acid/base labile, releasing an aldehyde.

>  <s_lp_Force_Field>  (118) 
OPLS3e

>  <r_lp_Energy>  (118) 
43.4546

>  <b_lp_Chiralities_Consistent>  (118) 
1

>  <s_lp_Variant>  (118) 
44:0-1

>  <s_i_glide_gridfile>  (118) 
pfpi4k_grid

>  <i_i_glide_lignum>  (118) 
10

>  <i_i_glide_rotatable_bonds>  (118) 
2

>  <r_i_docking_score>  (118) 
-2.45335

>  <r_i_glide_ligand_efficiency>  (118) 
-0.0845984

>  <r_i_glide_ligand_efficiency_sa>  (118) 
-0.259913

>  <r_i_glide_ligand_efficiency_ln>  (118) 
-0.561756

>  <r_i_glide_gscore>  (118) 
-2.45335

>  <r_i_glide_lipo>  (118) 
-0.446832

>  <r_i_glide_hbond>  (118) 
-0.0227341

>  <r_i_glide_metal>  (118) 
-0

>  <r_i_glide_rewards>  (118) 
-0.664611

>  <r_i_glide_evdw>  (118) 
-26.1003

>  <r_i_glide_ecoul>  (118) 
0.37826

>  <r_i_glide_erotb>  (118) 
0

>  <r_i_glide_esite>  (118) 
-0.0708999

>  <r_i_glide_emodel>  (118) 
-28.1588

>  <r_i_glide_energy>  (118) 
-25.722

>  <r_i_glide_einternal>  (118) 
2.86832

>  <r_i_glide_intrahb_reward>  (118) 
-0

>  <i_i_glide_confnum>  (118) 
1

>  <i_i_glide_posenum>  (118) 
2

>  <r_i_glide_eff_state_penalty>  (118) 
0

>  <ligand_id>  (118) 
44

>  <original_smiles>  (118) 
C=C1C2CC(OC)OCC13CC(O)C1C(CC4C(C)(C)C(=O)C=CC14C)OC3C2

>  <smiles>  (118) 
[H]OC1([H])C([H])([H])C23C(=C([H])[H])C([H])(C([H])([H])C([H])(OC([H])([H])[H])OC2([H])[H])C([H])([H])C3([H])OC2([H])C([H])([H])C3([H])C(C([H])([H])[H])(C([H])([H])[H])C(=O)C([H])=C([H])C3(C([H])([H])[H])C21[H]

$$$$
44:0:1
     RDKit          3D

 63 67  0  0  1  0  0  0  0  0999 V2000
    6.8964   -3.0309    0.7811 C   0  0  0  0  0  0  0  0  0  0  0  0
    5.5623   -3.0259    0.6837 C   0  0  0  0  0  0  0  0  0  0  0  0
    4.8013   -2.3814   -0.4529 C   0  0  2  0  0  0  0  0  0  0  0  0
    4.4591   -0.9103   -0.1586 C   0  0  0  0  0  0  0  0  0  0  0  0
    4.0626   -0.6524    1.3165 C   0  0  1  0  0  0  0  0  0  0  0  0
    3.4176    0.5791    1.3317 O   0  0  0  0  0  0  0  0  0  0  0  0
    3.0203    1.0457    2.6144 C   0  0  0  0  0  0  0  0  0  0  0  0
    3.2008   -1.6627    1.7504 O   0  0  0  0  0  0  0  0  0  0  0  0
    3.8034   -2.7723    2.4255 C   0  0  0  0  0  0  0  0  0  0  0  0
    4.5569   -3.7965    1.5206 C   0  0  2  0  0  0  0  0  0  0  0  0
    5.1861   -4.9477    2.3550 C   0  0  0  0  0  0  0  0  0  0  0  0
    4.2289   -6.0156    2.9655 C   0  0  1  0  0  0  0  0  0  0  0  0
    3.3596   -5.4478    3.9210 O   0  0  0  0  0  0  0  0  0  0  0  0
    3.4631   -6.9283    1.9507 C   0  0  2  0  0  0  0  0  0  0  0  0
    2.3702   -6.2291    1.1095 C   0  0  1  0  0  0  0  0  0  0  0  0
    1.0564   -6.6255    1.7674 C   0  0  0  0  0  0  0  0  0  0  0  0
    1.2487   -8.0974    2.1597 C   0  0  2  0  0  0  0  0  0  0  0  0
    0.2195   -8.6504    3.1995 C   0  0  0  0  0  0  0  0  0  0  0  0
   -1.2199   -8.1653    2.8794 C   0  0  0  0  0  0  0  0  0  0  0  0
    0.1877  -10.1973    3.1515 C   0  0  0  0  0  0  0  0  0  0  0  0
    0.6469   -8.2296    4.6167 C   0  0  0  0  0  0  0  0  0  0  0  0
   -0.1834   -7.7849    5.4101 O   0  0  0  0  0  0  0  0  0  0  0  0
    2.0541   -8.4046    4.9710 C   0  0  0  0  0  0  0  0  0  0  0  0
    3.0012   -8.4322    4.0157 C   0  0  0  0  0  0  0  0  0  0  0  0
    2.7753   -8.2352    2.5133 C   0  0  2  0  0  0  0  0  0  0  0  0
    3.3694   -9.4751    1.7990 C   0  0  0  0  0  0  0  0  0  0  0  0
    2.4319   -4.8222    0.9337 O   0  0  0  0  0  0  0  0  0  0  0  0
    3.6666   -4.3683    0.4101 C   0  0  1  0  0  0  0  0  0  0  0  0
    3.5350   -3.2542   -0.6414 C   0  0  0  0  0  0  0  0  0  0  0  0
    7.4074   -3.5627    1.5689 H   0  0  0  0  0  0  0  0  0  0  0  0
    7.4993   -2.4856    0.0678 H   0  0  0  0  0  0  0  0  0  0  0  0
    5.4041   -2.4266   -1.3606 H   0  0  0  0  0  0  0  0  0  0  0  0
    5.3103   -0.2642   -0.3795 H   0  0  0  0  0  0  0  0  0  0  0  0
    3.6463   -0.6069   -0.8118 H   0  0  0  0  0  0  0  0  0  0  0  0
    4.9363   -0.5796    1.9739 H   0  0  0  0  0  0  0  0  0  0  0  0
    2.5634    2.0297    2.5093 H   0  0  0  0  0  0  0  0  0  0  0  0
    3.8723    1.1505    3.2892 H   0  0  0  0  0  0  0  0  0  0  0  0
    2.2839    0.3839    3.0708 H   0  0  0  0  0  0  0  0  0  0  0  0
    4.4522   -2.4056    3.2232 H   0  0  0  0  0  0  0  0  0  0  0  0
    2.9649   -3.2579    2.9135 H   0  0  0  0  0  0  0  0  0  0  0  0
    5.9127   -5.4757    1.7387 H   0  0  0  0  0  0  0  0  0  0  0  0
    5.7727   -4.5086    3.1634 H   0  0  0  0  0  0  0  0  0  0  0  0
    4.8928   -6.6740    3.5233 H   0  0  0  0  0  0  0  0  0  0  0  0
    3.8750   -5.0504    4.6089 H   0  0  0  0  0  0  0  0  0  0  0  0
    4.2299   -7.2433    1.2426 H   0  0  0  0  0  0  0  0  0  0  0  0
    2.3865   -6.6502    0.1110 H   0  0  0  0  0  0  0  0  0  0  0  0
    0.8962   -6.0151    2.6542 H   0  0  0  0  0  0  0  0  0  0  0  0
    0.2101   -6.4910    1.0899 H   0  0  0  0  0  0  0  0  0  0  0  0
    1.0849   -8.6565    1.2407 H   0  0  0  0  0  0  0  0  0  0  0  0
   -1.5206   -8.4335    1.8643 H   0  0  0  0  0  0  0  0  0  0  0  0
   -1.3197   -7.0861    2.9872 H   0  0  0  0  0  0  0  0  0  0  0  0
   -1.9504   -8.6115    3.5577 H   0  0  0  0  0  0  0  0  0  0  0  0
   -0.0588  -10.5818    2.1569 H   0  0  0  0  0  0  0  0  0  0  0  0
   -0.5719  -10.5771    3.8302 H   0  0  0  0  0  0  0  0  0  0  0  0
    1.1323  -10.6476    3.4650 H   0  0  0  0  0  0  0  0  0  0  0  0
    2.2947   -8.5384    6.0150 H   0  0  0  0  0  0  0  0  0  0  0  0
    4.0262   -8.6004    4.3129 H   0  0  0  0  0  0  0  0  0  0  0  0
    3.2504   -9.4270    0.7164 H   0  0  0  0  0  0  0  0  0  0  0  0
    2.9064  -10.4061    2.1244 H   0  0  0  0  0  0  0  0  0  0  0  0
    4.4370   -9.5729    2.0023 H   0  0  0  0  0  0  0  0  0  0  0  0
    4.2061   -5.1789   -0.0814 H   0  0  0  0  0  0  0  0  0  0  0  0
    2.6260   -2.6777   -0.4606 H   0  0  0  0  0  0  0  0  0  0  0  0
    3.4526   -3.6641   -1.6490 H   0  0  0  0  0  0  0  0  0  0  0  0
  1  2  2  0
  1 30  1  0
  1 31  1  0
  2 10  1  0
  2  3  1  0
  3 29  1  0
  3  4  1  0
  3 32  1  6
  4  5  1  0
  4 33  1  0
  4 34  1  0
  5  6  1  0
  5  8  1  0
  5 35  1  1
  6  7  1  0
  7 36  1  0
  7 37  1  0
  7 38  1  0
  8  9  1  0
 10  9  1  1
  9 39  1  0
  9 40  1  0
 10 28  1  0
 10 11  1  0
 11 12  1  0
 11 41  1  0
 11 42  1  0
 12 13  1  0
 12 14  1  0
 12 43  1  1
 13 44  1  0
 14 25  1  0
 14 15  1  0
 14 45  1  6
 15 16  1  0
 15 27  1  0
 15 46  1  6
 16 17  1  0
 16 47  1  0
 16 48  1  0
 17 25  1  0
 17 18  1  0
 17 49  1  6
 18 19  1  0
 18 20  1  0
 18 21  1  0
 19 50  1  0
 19 51  1  0
 19 52  1  0
 20 53  1  0
 20 54  1  0
 20 55  1  0
 21 22  2  0
 21 23  1  0
 23 24  2  0
 23 56  1  0
 24 25  1  0
 24 57  1  0
 25 26  1  6
 26 58  1  0
 26 59  1  0
 26 60  1  0
 27 28  1  0
 28 29  1  0
 28 61  1  6
 29 62  1  0
 29 63  1  0
M  END
>  <i_m_ct_stereo_status>  (119) 
1

>  <s_m_source_file>  (119) 
/var/tmp/pbs.5076255.sched01/tmpcdf8lnea/434bzo3qpq.sdf

>  <i_m_source_file_index>  (119) 
10

>  <i_lp_mmshare_version>  (119) 
48012

>  <i_f3d_flags>  (119) 
0

>  <s_epik_input>  (119) 
W0NIM11PW0NAQEhdKE9bQ0gyXTEpW0NIMl1bQ0BASF0oQzI9W0NIMl0pW0NIMl1bQ0BASF0oW0NAXTEyMylPW0NASF00W0NAQEhdKFtDQEBIXShbQ0gyXTMpW09IXSlbQ0BdNShbQ0gzXSlbQ0BIXShbQ0gyXTQpQyhbQ0gzXSkoW0NIM10pQyg9TylbQ0hdPVtDSF01

>  <s_epik_cmdline>  (119) 
J2VwaWtfcHl0aG9uJywgJy1waHQnLCAnMi4wJywgJy1waCcsICc3LjAnLCAnLXRuJywgJzgnLCAnLW1hJywgJzIwMCcsICctaW1hZScsICc8aW5maWxlLm1hZT4nLCAnLW9tYWUnLCAnPG91dGZpbGUubWFlPic=

>  <r_lp_tautomer_probability>  (119) 
1

>  <r_epik_Ionization_Penalty>  (119) 
6.37128e-08

>  <r_epik_Ionization_Penalty_Charging>  (119) 
0

>  <r_epik_Ionization_Penalty_Neutral>  (119) 
6.37128e-08

>  <r_epik_State_Penalty>  (119) 
-0

>  <r_epik_Charging_Adjusted_Penalty>  (119) 
0

>  <i_epik_Tot_Q>  (119) 
0

>  <i_epik_Tot_abs_Q>  (119) 
0

>  <s_epik_Chemistry_Notes>  (119) 
This compound contains an acetal/aminal-like group ( X-CH(R)-Y where X, Y are N, S, or O) that may be acid/base labile, releasing an aldehyde.

>  <s_lp_Force_Field>  (119) 
OPLS3e

>  <r_lp_Energy>  (119) 
43.4546

>  <b_lp_Chiralities_Consistent>  (119) 
1

>  <s_lp_Variant>  (119) 
44:0-1

>  <s_i_glide_gridfile>  (119) 
pfpi4k_grid

>  <i_i_glide_lignum>  (119) 
10

>  <i_i_glide_rotatable_bonds>  (119) 
2

>  <r_i_docking_score>  (119) 
-2.24704

>  <r_i_glide_ligand_efficiency>  (119) 
-0.077484

>  <r_i_glide_ligand_efficiency_sa>  (119) 
-0.238055

>  <r_i_glide_ligand_efficiency_ln>  (119) 
-0.514514

>  <r_i_glide_gscore>  (119) 
-2.24704

>  <r_i_glide_lipo>  (119) 
-0.260217

>  <r_i_glide_hbond>  (119) 
0

>  <r_i_glide_metal>  (119) 
-0

>  <r_i_glide_rewards>  (119) 
-0.746013

>  <r_i_glide_evdw>  (119) 
-24.7296

>  <r_i_glide_ecoul>  (119) 
0.131794

>  <r_i_glide_erotb>  (119) 
0

>  <r_i_glide_esite>  (119) 
-0.024093

>  <r_i_glide_emodel>  (119) 
-28.0114

>  <r_i_glide_energy>  (119) 
-24.5978

>  <r_i_glide_einternal>  (119) 
0.461892

>  <r_i_glide_intrahb_reward>  (119) 
-0

>  <i_i_glide_confnum>  (119) 
2

>  <i_i_glide_posenum>  (119) 
8

>  <r_i_glide_eff_state_penalty>  (119) 
0

>  <ligand_id>  (119) 
44

>  <original_smiles>  (119) 
C=C1C2CC(OC)OCC13CC(O)C1C(CC4C(C)(C)C(=O)C=CC14C)OC3C2

>  <smiles>  (119) 
[H]OC1([H])C([H])([H])C23C(=C([H])[H])C([H])(C([H])([H])C([H])(OC([H])([H])[H])OC2([H])[H])C([H])([H])C3([H])OC2([H])C([H])([H])C3([H])C(C([H])([H])[H])(C([H])([H])[H])C(=O)C([H])=C([H])C3(C([H])([H])[H])C21[H]

$$$$
44:0:2
     RDKit          3D

 63 67  0  0  1  0  0  0  0  0999 V2000
    6.9255   -3.0139    0.8574 C   0  0  0  0  0  0  0  0  0  0  0  0
    5.5933   -3.0143    0.7433 C   0  0  0  0  0  0  0  0  0  0  0  0
    4.8433   -2.3675   -0.4004 C   0  0  2  0  0  0  0  0  0  0  0  0
    4.4881   -0.8992   -0.1042 C   0  0  0  0  0  0  0  0  0  0  0  0
    4.0710   -0.6516    1.3685 C   0  0  1  0  0  0  0  0  0  0  0  0
    3.4178    0.5756    1.3807 O   0  0  0  0  0  0  0  0  0  0  0  0
    3.0204    1.0431    2.6615 C   0  0  0  0  0  0  0  0  0  0  0  0
    3.2101   -1.6702    1.7856 O   0  0  0  0  0  0  0  0  0  0  0  0
    3.8088   -2.7778    2.4647 C   0  0  0  0  0  0  0  0  0  0  0  0
    4.5811   -3.7936    1.5633 C   0  0  2  0  0  0  0  0  0  0  0  0
    5.2068   -4.9439    2.4012 C   0  0  0  0  0  0  0  0  0  0  0  0
    4.2507   -6.0229    2.9922 C   0  0  1  0  0  0  0  0  0  0  0  0
    3.3811   -5.4704    3.9560 O   0  0  0  0  0  0  0  0  0  0  0  0
    3.5038   -6.9338    1.9651 C   0  0  2  0  0  0  0  0  0  0  0  0
    2.4163   -6.2361    1.1132 C   0  0  1  0  0  0  0  0  0  0  0  0
    1.0965   -6.6429    1.7519 C   0  0  0  0  0  0  0  0  0  0  0  0
    1.2937   -8.1154    2.1351 C   0  0  2  0  0  0  0  0  0  0  0  0
    0.2520   -8.6830    3.1590 C   0  0  0  0  0  0  0  0  0  0  0  0
   -1.1855   -8.2040    2.8240 C   0  0  0  0  0  0  0  0  0  0  0  0
    0.2259  -10.2317    3.1007 C   0  0  0  0  0  0  0  0  0  0  0  0
    0.6571   -8.2689    4.5859 C   0  0  0  0  0  0  0  0  0  0  0  0
   -0.1840   -7.8263    5.3687 O   0  0  0  0  0  0  0  0  0  0  0  0
    2.0610   -8.4347    4.9595 C   0  0  0  0  0  0  0  0  0  0  0  0
    3.0230   -8.4486    4.0182 C   0  0  0  0  0  0  0  0  0  0  0  0
    2.8127   -8.2477    2.5124 C   0  0  2  0  0  0  0  0  0  0  0  0
    3.4255   -9.4778    1.8003 C   0  0  0  0  0  0  0  0  0  0  0  0
    2.4722   -4.8289    0.9453 O   0  0  0  0  0  0  0  0  0  0  0  0
    3.7095   -4.3661    0.4389 C   0  0  1  0  0  0  0  0  0  0  0  0
    3.5855   -3.2489   -0.6104 C   0  0  0  0  0  0  0  0  0  0  0  0
    7.4270   -3.5482    1.6497 H   0  0  0  0  0  0  0  0  0  0  0  0
    7.5347   -2.4626    0.1561 H   0  0  0  0  0  0  0  0  0  0  0  0
    5.4602   -2.4057   -1.2987 H   0  0  0  0  0  0  0  0  0  0  0  0
    5.3395   -0.2511   -0.3114 H   0  0  0  0  0  0  0  0  0  0  0  0
    3.6845   -0.5901   -0.7653 H   0  0  0  0  0  0  0  0  0  0  0  0
    4.9349   -0.5800    2.0355 H   0  0  0  0  0  0  0  0  0  0  0  0
    2.5547    2.0221    2.5539 H   0  0  0  0  0  0  0  0  0  0  0  0
    3.8723    1.1584    3.3324 H   0  0  0  0  0  0  0  0  0  0  0  0
    2.2920    0.3763    3.1230 H   0  0  0  0  0  0  0  0  0  0  0  0
    4.4457   -2.4133    3.2727 H   0  0  0  0  0  0  0  0  0  0  0  0
    2.9694   -3.2754    2.9414 H   0  0  0  0  0  0  0  0  0  0  0  0
    5.9453   -5.4660    1.7941 H   0  0  0  0  0  0  0  0  0  0  0  0
    5.7745   -4.5064    3.2242 H   0  0  0  0  0  0  0  0  0  0  0  0
    4.9162   -6.6772    3.5543 H   0  0  0  0  0  0  0  0  0  0  0  0
    2.9325   -6.1854    4.3894 H   0  0  0  0  0  0  0  0  0  0  0  0
    4.2795   -7.2410    1.2655 H   0  0  0  0  0  0  0  0  0  0  0  0
    2.4490   -6.6533    0.1120 H   0  0  0  0  0  0  0  0  0  0  0  0
    0.9180   -6.0362    2.6393 H   0  0  0  0  0  0  0  0  0  0  0  0
    0.2608   -6.5109    1.0626 H   0  0  0  0  0  0  0  0  0  0  0  0
    1.1497   -8.6646    1.2074 H   0  0  0  0  0  0  0  0  0  0  0  0
   -1.4730   -8.4691    1.8053 H   0  0  0  0  0  0  0  0  0  0  0  0
   -1.2919   -7.1247    2.9347 H   0  0  0  0  0  0  0  0  0  0  0  0
   -1.9229   -8.6549    3.4921 H   0  0  0  0  0  0  0  0  0  0  0  0
   -0.0022  -10.6099    2.1007 H   0  0  0  0  0  0  0  0  0  0  0  0
   -0.5441  -10.6231    3.7627 H   0  0  0  0  0  0  0  0  0  0  0  0
    1.1668  -10.6786    3.4269 H   0  0  0  0  0  0  0  0  0  0  0  0
    2.2883   -8.5786    6.0050 H   0  0  0  0  0  0  0  0  0  0  0  0
    4.0445   -8.6181    4.3246 H   0  0  0  0  0  0  0  0  0  0  0  0
    3.3244   -9.4252    0.7155 H   0  0  0  0  0  0  0  0  0  0  0  0
    2.9624  -10.4141    2.1112 H   0  0  0  0  0  0  0  0  0  0  0  0
    4.4904   -9.5733    2.0170 H   0  0  0  0  0  0  0  0  0  0  0  0
    4.2607   -5.1723   -0.0478 H   0  0  0  0  0  0  0  0  0  0  0  0
    2.6709   -2.6787   -0.4410 H   0  0  0  0  0  0  0  0  0  0  0  0
    3.5204   -3.6556   -1.6198 H   0  0  0  0  0  0  0  0  0  0  0  0
  1  2  2  0
  1 30  1  0
  1 31  1  0
  2 10  1  0
  2  3  1  0
  3 29  1  0
  3  4  1  0
  3 32  1  6
  4  5  1  0
  4 33  1  0
  4 34  1  0
  5  6  1  0
  5  8  1  0
  5 35  1  1
  6  7  1  0
  7 36  1  0
  7 37  1  0
  7 38  1  0
  8  9  1  0
 10  9  1  1
  9 39  1  0
  9 40  1  0
 10 28  1  0
 10 11  1  0
 11 12  1  0
 11 41  1  0
 11 42  1  0
 12 13  1  0
 12 14  1  0
 12 43  1  1
 13 44  1  0
 14 25  1  0
 14 15  1  0
 14 45  1  6
 15 16  1  0
 15 27  1  0
 15 46  1  6
 16 17  1  0
 16 47  1  0
 16 48  1  0
 17 25  1  0
 17 18  1  0
 17 49  1  6
 18 19  1  0
 18 20  1  0
 18 21  1  0
 19 50  1  0
 19 51  1  0
 19 52  1  0
 20 53  1  0
 20 54  1  0
 20 55  1  0
 21 22  2  0
 21 23  1  0
 23 24  2  0
 23 56  1  0
 24 25  1  0
 24 57  1  0
 25 26  1  6
 26 58  1  0
 26 59  1  0
 26 60  1  0
 27 28  1  0
 28 29  1  0
 28 61  1  6
 29 62  1  0
 29 63  1  0
M  END
>  <i_m_ct_stereo_status>  (120) 
1

>  <s_m_source_file>  (120) 
/var/tmp/pbs.5076255.sched01/tmpcdf8lnea/434bzo3qpq.sdf

>  <i_m_source_file_index>  (120) 
10

>  <i_lp_mmshare_version>  (120) 
48012

>  <i_f3d_flags>  (120) 
0

>  <s_epik_input>  (120) 
W0NIM11PW0NAQEhdKE9bQ0gyXTEpW0NIMl1bQ0BASF0oQzI9W0NIMl0pW0NIMl1bQ0BASF0oW0NAXTEyMylPW0NASF00W0NAQEhdKFtDQEBIXShbQ0gyXTMpW09IXSlbQ0BdNShbQ0gzXSlbQ0BIXShbQ0gyXTQpQyhbQ0gzXSkoW0NIM10pQyg9TylbQ0hdPVtDSF01

>  <s_epik_cmdline>  (120) 
J2VwaWtfcHl0aG9uJywgJy1waHQnLCAnMi4wJywgJy1waCcsICc3LjAnLCAnLXRuJywgJzgnLCAnLW1hJywgJzIwMCcsICctaW1hZScsICc8aW5maWxlLm1hZT4nLCAnLW9tYWUnLCAnPG91dGZpbGUubWFlPic=

>  <r_lp_tautomer_probability>  (120) 
1

>  <r_epik_Ionization_Penalty>  (120) 
6.37128e-08

>  <r_epik_Ionization_Penalty_Charging>  (120) 
0

>  <r_epik_Ionization_Penalty_Neutral>  (120) 
6.37128e-08

>  <r_epik_State_Penalty>  (120) 
-0

>  <r_epik_Charging_Adjusted_Penalty>  (120) 
0

>  <i_epik_Tot_Q>  (120) 
0

>  <i_epik_Tot_abs_Q>  (120) 
0

>  <s_epik_Chemistry_Notes>  (120) 
This compound contains an acetal/aminal-like group ( X-CH(R)-Y where X, Y are N, S, or O) that may be acid/base labile, releasing an aldehyde.

>  <s_lp_Force_Field>  (120) 
OPLS3e

>  <r_lp_Energy>  (120) 
43.4546

>  <b_lp_Chiralities_Consistent>  (120) 
1

>  <s_lp_Variant>  (120) 
44:0-1

>  <s_i_glide_gridfile>  (120) 
pfpi4k_grid

>  <i_i_glide_lignum>  (120) 
10

>  <i_i_glide_rotatable_bonds>  (120) 
2

>  <r_i_docking_score>  (120) 
-2.24256

>  <r_i_glide_ligand_efficiency>  (120) 
-0.0773296

>  <r_i_glide_ligand_efficiency_sa>  (120) 
-0.237581

>  <r_i_glide_ligand_efficiency_ln>  (120) 
-0.513489

>  <r_i_glide_gscore>  (120) 
-2.24256

>  <r_i_glide_lipo>  (120) 
-0.251788

>  <r_i_glide_hbond>  (120) 
0

>  <r_i_glide_metal>  (120) 
-0

>  <r_i_glide_rewards>  (120) 
-0.748607

>  <r_i_glide_evdw>  (120) 
-24.7667

>  <r_i_glide_ecoul>  (120) 
0.135582

>  <r_i_glide_erotb>  (120) 
0

>  <r_i_glide_esite>  (120) 
-0.0241641

>  <r_i_glide_emodel>  (120) 
-28.0625

>  <r_i_glide_energy>  (120) 
-24.6312

>  <r_i_glide_einternal>  (120) 
0.423809

>  <r_i_glide_intrahb_reward>  (120) 
-0

>  <i_i_glide_confnum>  (120) 
1

>  <i_i_glide_posenum>  (120) 
9

>  <r_i_glide_eff_state_penalty>  (120) 
0

>  <ligand_id>  (120) 
44

>  <original_smiles>  (120) 
C=C1C2CC(OC)OCC13CC(O)C1C(CC4C(C)(C)C(=O)C=CC14C)OC3C2

>  <smiles>  (120) 
[H]OC1([H])C([H])([H])C23C(=C([H])[H])C([H])(C([H])([H])C([H])(OC([H])([H])[H])OC2([H])[H])C([H])([H])C3([H])OC2([H])C([H])([H])C3([H])C(C([H])([H])[H])(C([H])([H])[H])C(=O)C([H])=C([H])C3(C([H])([H])[H])C21[H]

$$$$
45:0:0
     RDKit          3D

 35 37  0  0  1  0  0  0  0  0999 V2000
    3.4152    0.0563   -5.5082 C   0  0  0  0  0  0  0  0  0  0  0  0
    3.7580   -0.9779   -4.5947 O   0  0  0  0  0  0  0  0  0  0  0  0
    3.7962   -0.5175   -3.2452 C   0  0  0  0  0  0  0  0  0  0  0  0
    3.9275   -1.6849   -2.2301 C   0  0  1  0  0  0  0  0  0  0  0  0
    2.7125   -2.6326   -2.3299 C   0  0  0  0  0  0  0  0  0  0  0  0
    2.4138   -3.5755   -1.1304 C   0  0  0  0  0  0  0  0  0  0  0  0
    3.5856   -4.0437   -0.2447 C   0  0  1  0  0  0  0  0  0  0  0  0
    3.1592   -5.1868    0.6894 C   0  0  0  0  0  0  0  0  0  0  0  0
    4.6641   -4.4841   -1.0615 O   0  0  0  0  0  0  0  0  0  0  0  0
    5.9505   -4.0915   -0.3989 O   0  0  0  0  0  0  0  0  0  0  0  0
    6.0764   -2.6688   -0.4662 C   0  0  1  0  0  0  0  0  0  0  0  0
    7.3476   -2.3451    0.3062 C   0  0  0  0  0  0  0  0  0  0  0  0
    6.2450   -2.1197   -1.7752 O   0  0  0  0  0  0  0  0  0  0  0  0
    5.0449   -2.4902   -2.5946 O   0  0  0  0  0  0  0  0  0  0  0  0
    4.8190   -2.0298    0.1693 C   0  0  1  0  0  0  0  0  0  0  0  0
    4.0892   -1.0944   -0.8055 C   0  0  0  0  0  0  0  0  0  0  0  0
    3.9425   -3.0178    0.6798 O   0  0  0  0  0  0  0  0  0  0  0  0
    3.4133   -0.3395   -6.5240 H   0  0  0  0  0  0  0  0  0  0  0  0
    4.1198    0.8877   -5.4725 H   0  0  0  0  0  0  0  0  0  0  0  0
    2.4095    0.4451   -5.3163 H   0  0  0  0  0  0  0  0  0  0  0  0
    4.6109    0.2025   -3.1387 H   0  0  0  0  0  0  0  0  0  0  0  0
    2.8790    0.0339   -3.0324 H   0  0  0  0  0  0  0  0  0  0  0  0
    1.8183   -2.0379   -2.5072 H   0  0  0  0  0  0  0  0  0  0  0  0
    2.8336   -3.2314   -3.2377 H   0  0  0  0  0  0  0  0  0  0  0  0
    1.6919   -3.0868   -0.4785 H   0  0  0  0  0  0  0  0  0  0  0  0
    1.8878   -4.4519   -1.5144 H   0  0  0  0  0  0  0  0  0  0  0  0
    3.9702   -5.4688    1.3621 H   0  0  0  0  0  0  0  0  0  0  0  0
    2.8483   -6.0812    0.1469 H   0  0  0  0  0  0  0  0  0  0  0  0
    2.3261   -4.8725    1.3204 H   0  0  0  0  0  0  0  0  0  0  0  0
    8.2054   -2.8272   -0.1600 H   0  0  0  0  0  0  0  0  0  0  0  0
    7.2629   -2.7273    1.3222 H   0  0  0  0  0  0  0  0  0  0  0  0
    7.5323   -1.2709    0.3500 H   0  0  0  0  0  0  0  0  0  0  0  0
    5.1188   -1.4268    1.0304 H   0  0  0  0  0  0  0  0  0  0  0  0
    4.7054   -0.1999   -0.8730 H   0  0  0  0  0  0  0  0  0  0  0  0
    3.1253   -0.7831   -0.3993 H   0  0  0  0  0  0  0  0  0  0  0  0
  1  2  1  0
  1 18  1  0
  1 19  1  0
  1 20  1  0
  2  3  1  0
  4  3  1  6
  3 21  1  0
  3 22  1  0
  4 14  1  0
  4 16  1  0
  4  5  1  0
  5  6  1  0
  5 23  1  0
  5 24  1  0
  6  7  1  0
  6 25  1  0
  6 26  1  0
  7 17  1  0
  7  8  1  1
  7  9  1  0
  8 27  1  0
  8 28  1  0
  8 29  1  0
  9 10  1  0
 10 11  1  0
 11 12  1  1
 11 13  1  0
 11 15  1  0
 12 30  1  0
 12 31  1  0
 12 32  1  0
 13 14  1  0
 15 16  1  0
 15 17  1  0
 15 33  1  1
 16 34  1  0
 16 35  1  0
M  END
>  <i_m_ct_stereo_status>  (121) 
1

>  <s_m_source_file>  (121) 
/var/tmp/pbs.5076255.sched01/tmpcdf8lnea/434bzo3qpq.sdf

>  <i_m_source_file_index>  (121) 
11

>  <i_lp_mmshare_version>  (121) 
48012

>  <i_f3d_flags>  (121) 
0

>  <s_epik_input>  (121) 
W0NIM11PW0NIMl1bQ0BAXTEyW0NIMl1bQ0gyXVtDQEBdMyhbQ0gzXSlPT1tDQEBdKFtDSDNdKShPTzEpW0NASF0oTzMpW0NIMl0y

>  <s_epik_cmdline>  (121) 
J2VwaWtfcHl0aG9uJywgJy1waHQnLCAnMi4wJywgJy1waCcsICc3LjAnLCAnLXRuJywgJzgnLCAnLW1hJywgJzIwMCcsICctaW1hZScsICc8aW5maWxlLm1hZT4nLCAnLW9tYWUnLCAnPG91dGZpbGUubWFlPic=

>  <r_lp_tautomer_probability>  (121) 
1

>  <r_epik_Ionization_Penalty>  (121) 
1.59909e-12

>  <r_epik_Ionization_Penalty_Charging>  (121) 
0

>  <r_epik_Ionization_Penalty_Neutral>  (121) 
1.59909e-12

>  <r_epik_State_Penalty>  (121) 
-0

>  <r_epik_Charging_Adjusted_Penalty>  (121) 
0

>  <i_epik_Tot_Q>  (121) 
0

>  <i_epik_Tot_abs_Q>  (121) 
0

>  <s_lp_Force_Field>  (121) 
OPLS3e

>  <r_lp_Energy>  (121) 
14.304

>  <b_lp_Chiralities_Consistent>  (121) 
1

>  <s_lp_Variant>  (121) 
45:0-1

>  <s_i_glide_gridfile>  (121) 
pfpi4k_grid

>  <i_i_glide_lignum>  (121) 
11

>  <i_i_glide_rotatable_bonds>  (121) 
2

>  <r_i_docking_score>  (121) 
-3.65805

>  <r_i_glide_ligand_efficiency>  (121) 
-0.215179

>  <r_i_glide_ligand_efficiency_sa>  (121) 
-0.553286

>  <r_i_glide_ligand_efficiency_ln>  (121) 
-0.954303

>  <r_i_glide_gscore>  (121) 
-3.65805

>  <r_i_glide_lipo>  (121) 
-0.385586

>  <r_i_glide_hbond>  (121) 
-0.339506

>  <r_i_glide_metal>  (121) 
-0

>  <r_i_glide_rewards>  (121) 
-1.73007

>  <r_i_glide_evdw>  (121) 
-21.9922

>  <r_i_glide_ecoul>  (121) 
-2.47668

>  <r_i_glide_erotb>  (121) 
0.287329

>  <r_i_glide_esite>  (121) 
-0.0191044

>  <r_i_glide_emodel>  (121) 
-29.3372

>  <r_i_glide_energy>  (121) 
-24.4689

>  <r_i_glide_einternal>  (121) 
0.602211

>  <r_i_glide_intrahb_reward>  (121) 
-0

>  <i_i_glide_confnum>  (121) 
4

>  <i_i_glide_posenum>  (121) 
37

>  <r_i_glide_eff_state_penalty>  (121) 
0

>  <ligand_id>  (121) 
45

>  <original_smiles>  (121) 
COCC12CCC3(C)OOC(C)(OO1)C(C2)O3

>  <smiles>  (121) 
[H]C([H])([H])OC([H])([H])C12OOC3(C([H])([H])[H])OOC(C([H])([H])[H])(OC3([H])C1([H])[H])C([H])([H])C2([H])[H]

$$$$
45:0:1
     RDKit          3D

 35 37  0  0  1  0  0  0  0  0999 V2000
    2.0816   -3.9642    2.7343 C   0  0  0  0  0  0  0  0  0  0  0  0
    2.0991   -4.9816    1.7409 O   0  0  0  0  0  0  0  0  0  0  0  0
    3.3651   -5.2013    1.1102 C   0  0  0  0  0  0  0  0  0  0  0  0
    3.7785   -4.1299    0.0677 C   0  0  1  0  0  0  0  0  0  0  0  0
    2.5786   -3.7768   -0.8354 C   0  0  0  0  0  0  0  0  0  0  0  0
    2.8581   -2.9977   -2.1458 C   0  0  0  0  0  0  0  0  0  0  0  0
    4.1061   -2.1015   -2.2065 C   0  0  1  0  0  0  0  0  0  0  0  0
    4.0633   -1.2194   -3.4512 C   0  0  0  0  0  0  0  0  0  0  0  0
    4.1905   -1.2447   -1.0706 O   0  0  0  0  0  0  0  0  0  0  0  0
    5.6330   -1.0936   -0.6801 O   0  0  0  0  0  0  0  0  0  0  0  0
    6.1120   -2.3527   -0.1924 C   0  0  1  0  0  0  0  0  0  0  0  0
    7.6036   -2.1409    0.1006 C   0  0  0  0  0  0  0  0  0  0  0  0
    5.5217   -2.7742    1.0280 O   0  0  0  0  0  0  0  0  0  0  0  0
    4.0524   -2.9416    0.7983 O   0  0  0  0  0  0  0  0  0  0  0  0
    5.8803   -3.4406   -1.2771 C   0  0  1  0  0  0  0  0  0  0  0  0
    5.0210   -4.5959   -0.7301 C   0  0  0  0  0  0  0  0  0  0  0  0
    5.2934   -2.8825   -2.4382 O   0  0  0  0  0  0  0  0  0  0  0  0
    1.1348   -4.0078    3.2764 H   0  0  0  0  0  0  0  0  0  0  0  0
    2.2086   -2.9764    2.2819 H   0  0  0  0  0  0  0  0  0  0  0  0
    2.8764   -4.1188    3.4582 H   0  0  0  0  0  0  0  0  0  0  0  0
    4.1527   -5.4051    1.8392 H   0  0  0  0  0  0  0  0  0  0  0  0
    3.2529   -6.1303    0.5569 H   0  0  0  0  0  0  0  0  0  0  0  0
    2.0285   -4.6853   -1.0919 H   0  0  0  0  0  0  0  0  0  0  0  0
    1.8949   -3.1722   -0.2329 H   0  0  0  0  0  0  0  0  0  0  0  0
    2.8964   -3.6996   -2.9853 H   0  0  0  0  0  0  0  0  0  0  0  0
    1.9756   -2.3747   -2.3255 H   0  0  0  0  0  0  0  0  0  0  0  0
    4.9879   -0.6538   -3.5209 H   0  0  0  0  0  0  0  0  0  0  0  0
    3.2166   -0.5245   -3.4579 H   0  0  0  0  0  0  0  0  0  0  0  0
    3.9959   -1.8397   -4.3431 H   0  0  0  0  0  0  0  0  0  0  0  0
    7.7170   -1.3386    0.8286 H   0  0  0  0  0  0  0  0  0  0  0  0
    8.1649   -1.8788   -0.7980 H   0  0  0  0  0  0  0  0  0  0  0  0
    8.0544   -3.0411    0.5245 H   0  0  0  0  0  0  0  0  0  0  0  0
    6.8487   -3.8584   -1.5901 H   0  0  0  0  0  0  0  0  0  0  0  0
    5.6518   -5.1648   -0.0562 H   0  0  0  0  0  0  0  0  0  0  0  0
    4.7376   -5.2747   -1.5259 H   0  0  0  0  0  0  0  0  0  0  0  0
  1  2  1  0
  1 18  1  0
  1 19  1  0
  1 20  1  0
  2  3  1  0
  4  3  1  1
  3 21  1  0
  3 22  1  0
  4 14  1  0
  4 16  1  0
  4  5  1  0
  5  6  1  0
  5 23  1  0
  5 24  1  0
  6  7  1  0
  6 25  1  0
  6 26  1  0
  7 17  1  0
  7  8  1  6
  7  9  1  0
  8 27  1  0
  8 28  1  0
  8 29  1  0
  9 10  1  0
 10 11  1  0
 11 12  1  1
 11 13  1  0
 11 15  1  0
 12 30  1  0
 12 31  1  0
 12 32  1  0
 13 14  1  0
 15 16  1  0
 15 17  1  0
 15 33  1  6
 16 34  1  0
 16 35  1  0
M  END
>  <i_m_ct_stereo_status>  (122) 
1

>  <s_m_source_file>  (122) 
/var/tmp/pbs.5076255.sched01/tmpcdf8lnea/434bzo3qpq.sdf

>  <i_m_source_file_index>  (122) 
11

>  <i_lp_mmshare_version>  (122) 
48012

>  <i_f3d_flags>  (122) 
0

>  <s_epik_input>  (122) 
W0NIM11PW0NIMl1bQ0BAXTEyW0NIMl1bQ0gyXVtDQEBdMyhbQ0gzXSlPT1tDQEBdKFtDSDNdKShPTzEpW0NASF0oTzMpW0NIMl0y

>  <s_epik_cmdline>  (122) 
J2VwaWtfcHl0aG9uJywgJy1waHQnLCAnMi4wJywgJy1waCcsICc3LjAnLCAnLXRuJywgJzgnLCAnLW1hJywgJzIwMCcsICctaW1hZScsICc8aW5maWxlLm1hZT4nLCAnLW9tYWUnLCAnPG91dGZpbGUubWFlPic=

>  <r_lp_tautomer_probability>  (122) 
1

>  <r_epik_Ionization_Penalty>  (122) 
1.59909e-12

>  <r_epik_Ionization_Penalty_Charging>  (122) 
0

>  <r_epik_Ionization_Penalty_Neutral>  (122) 
1.59909e-12

>  <r_epik_State_Penalty>  (122) 
-0

>  <r_epik_Charging_Adjusted_Penalty>  (122) 
0

>  <i_epik_Tot_Q>  (122) 
0

>  <i_epik_Tot_abs_Q>  (122) 
0

>  <s_lp_Force_Field>  (122) 
OPLS3e

>  <r_lp_Energy>  (122) 
14.304

>  <b_lp_Chiralities_Consistent>  (122) 
1

>  <s_lp_Variant>  (122) 
45:0-1

>  <s_i_glide_gridfile>  (122) 
pfpi4k_grid

>  <i_i_glide_lignum>  (122) 
11

>  <i_i_glide_rotatable_bonds>  (122) 
2

>  <r_i_docking_score>  (122) 
-2.81583

>  <r_i_glide_ligand_efficiency>  (122) 
-0.165637

>  <r_i_glide_ligand_efficiency_sa>  (122) 
-0.4259

>  <r_i_glide_ligand_efficiency_ln>  (122) 
-0.734587

>  <r_i_glide_gscore>  (122) 
-2.81583

>  <r_i_glide_lipo>  (122) 
-0.315585

>  <r_i_glide_hbond>  (122) 
-0.0118105

>  <r_i_glide_metal>  (122) 
-0

>  <r_i_glide_rewards>  (122) 
-1.73007

>  <r_i_glide_evdw>  (122) 
-18.0519

>  <r_i_glide_ecoul>  (122) 
-0.8838

>  <r_i_glide_erotb>  (122) 
0.287329

>  <r_i_glide_esite>  (122) 
-0.0105307

>  <r_i_glide_emodel>  (122) 
-22.5872

>  <r_i_glide_energy>  (122) 
-18.9357

>  <r_i_glide_einternal>  (122) 
0.64253

>  <r_i_glide_intrahb_reward>  (122) 
-0

>  <i_i_glide_confnum>  (122) 
5

>  <i_i_glide_posenum>  (122) 
19

>  <r_i_glide_eff_state_penalty>  (122) 
0

>  <ligand_id>  (122) 
45

>  <original_smiles>  (122) 
COCC12CCC3(C)OOC(C)(OO1)C(C2)O3

>  <smiles>  (122) 
[H]C([H])([H])OC([H])([H])C12OOC3(C([H])([H])[H])OOC(C([H])([H])[H])(OC3([H])C1([H])[H])C([H])([H])C2([H])[H]

$$$$
45:0:2
     RDKit          3D

 35 37  0  0  1  0  0  0  0  0999 V2000
    2.5348   -7.2880    1.7955 C   0  0  0  0  0  0  0  0  0  0  0  0
    2.8639   -6.2571    0.8763 O   0  0  0  0  0  0  0  0  0  0  0  0
    3.3587   -5.0622    1.4791 C   0  0  0  0  0  0  0  0  0  0  0  0
    3.7630   -4.0448    0.3783 C   0  0  1  0  0  0  0  0  0  0  0  0
    2.5690   -3.7135   -0.5366 C   0  0  0  0  0  0  0  0  0  0  0  0
    2.8375   -3.0545   -1.9148 C   0  0  0  0  0  0  0  0  0  0  0  0
    4.0994   -2.1797   -2.0875 C   0  0  1  0  0  0  0  0  0  0  0  0
    4.0573   -1.4120   -3.4150 C   0  0  0  0  0  0  0  0  0  0  0  0
    4.1876   -1.2468   -1.0182 O   0  0  0  0  0  0  0  0  0  0  0  0
    5.6326   -1.0801   -0.6278 O   0  0  0  0  0  0  0  0  0  0  0  0
    6.1120   -2.2849   -0.0591 C   0  0  1  0  0  0  0  0  0  0  0  0
    7.6072   -2.0726    0.1724 C   0  0  0  0  0  0  0  0  0  0  0  0
    5.5234   -2.5993    1.1935 O   0  0  0  0  0  0  0  0  0  0  0  0
    4.0454   -2.7990    1.0122 O   0  0  0  0  0  0  0  0  0  0  0  0
    5.8427   -3.4506   -1.0320 C   0  0  1  0  0  0  0  0  0  0  0  0
    4.9943   -4.5684   -0.3933 C   0  0  0  0  0  0  0  0  0  0  0  0
    5.2496   -2.9887   -2.2385 O   0  0  0  0  0  0  0  0  0  0  0  0
    2.1607   -8.1630    1.2633 H   0  0  0  0  0  0  0  0  0  0  0  0
    1.7555   -6.9665    2.4874 H   0  0  0  0  0  0  0  0  0  0  0  0
    3.4062   -7.6023    2.3689 H   0  0  0  0  0  0  0  0  0  0  0  0
    2.5853   -4.6519    2.1350 H   0  0  0  0  0  0  0  0  0  0  0  0
    4.2116   -5.3099    2.1151 H   0  0  0  0  0  0  0  0  0  0  0  0
    1.9967   -4.6214   -0.7320 H   0  0  0  0  0  0  0  0  0  0  0  0
    1.9012   -3.0595    0.0286 H   0  0  0  0  0  0  0  0  0  0  0  0
    2.8555   -3.8293   -2.6841 H   0  0  0  0  0  0  0  0  0  0  0  0
    1.9710   -2.4393   -2.1540 H   0  0  0  0  0  0  0  0  0  0  0  0
    4.9776   -0.8470   -3.5584 H   0  0  0  0  0  0  0  0  0  0  0  0
    3.2226   -0.7177   -3.4763 H   0  0  0  0  0  0  0  0  0  0  0  0
    3.9772   -2.1019   -4.2523 H   0  0  0  0  0  0  0  0  0  0  0  0
    7.7683   -1.2201    0.8342 H   0  0  0  0  0  0  0  0  0  0  0  0
    8.1175   -1.8605   -0.7713 H   0  0  0  0  0  0  0  0  0  0  0  0
    8.0627   -2.9565    0.6266 H   0  0  0  0  0  0  0  0  0  0  0  0
    6.8054   -3.8588   -1.3316 H   0  0  0  0  0  0  0  0  0  0  0  0
    5.6496   -5.0960    0.3073 H   0  0  0  0  0  0  0  0  0  0  0  0
    4.6806   -5.3088   -1.1317 H   0  0  0  0  0  0  0  0  0  0  0  0
  1  2  1  0
  1 18  1  0
  1 19  1  0
  1 20  1  0
  2  3  1  0
  4  3  1  1
  3 21  1  0
  3 22  1  0
  4 14  1  0
  4 16  1  0
  4  5  1  0
  5  6  1  0
  5 23  1  0
  5 24  1  0
  6  7  1  0
  6 25  1  0
  6 26  1  0
  7 17  1  0
  7  8  1  6
  7  9  1  0
  8 27  1  0
  8 28  1  0
  8 29  1  0
  9 10  1  0
 10 11  1  0
 11 12  1  1
 11 13  1  0
 11 15  1  0
 12 30  1  0
 12 31  1  0
 12 32  1  0
 13 14  1  0
 15 16  1  0
 15 17  1  0
 15 33  1  6
 16 34  1  0
 16 35  1  0
M  END
>  <i_m_ct_stereo_status>  (123) 
1

>  <s_m_source_file>  (123) 
/var/tmp/pbs.5076255.sched01/tmpcdf8lnea/434bzo3qpq.sdf

>  <i_m_source_file_index>  (123) 
11

>  <i_lp_mmshare_version>  (123) 
48012

>  <i_f3d_flags>  (123) 
0

>  <s_epik_input>  (123) 
W0NIM11PW0NIMl1bQ0BAXTEyW0NIMl1bQ0gyXVtDQEBdMyhbQ0gzXSlPT1tDQEBdKFtDSDNdKShPTzEpW0NASF0oTzMpW0NIMl0y

>  <s_epik_cmdline>  (123) 
J2VwaWtfcHl0aG9uJywgJy1waHQnLCAnMi4wJywgJy1waCcsICc3LjAnLCAnLXRuJywgJzgnLCAnLW1hJywgJzIwMCcsICctaW1hZScsICc8aW5maWxlLm1hZT4nLCAnLW9tYWUnLCAnPG91dGZpbGUubWFlPic=

>  <r_lp_tautomer_probability>  (123) 
1

>  <r_epik_Ionization_Penalty>  (123) 
1.59909e-12

>  <r_epik_Ionization_Penalty_Charging>  (123) 
0

>  <r_epik_Ionization_Penalty_Neutral>  (123) 
1.59909e-12

>  <r_epik_State_Penalty>  (123) 
-0

>  <r_epik_Charging_Adjusted_Penalty>  (123) 
0

>  <i_epik_Tot_Q>  (123) 
0

>  <i_epik_Tot_abs_Q>  (123) 
0

>  <s_lp_Force_Field>  (123) 
OPLS3e

>  <r_lp_Energy>  (123) 
14.304

>  <b_lp_Chiralities_Consistent>  (123) 
1

>  <s_lp_Variant>  (123) 
45:0-1

>  <s_i_glide_gridfile>  (123) 
pfpi4k_grid

>  <i_i_glide_lignum>  (123) 
11

>  <i_i_glide_rotatable_bonds>  (123) 
2

>  <r_i_docking_score>  (123) 
-2.70613

>  <r_i_glide_ligand_efficiency>  (123) 
-0.159184

>  <r_i_glide_ligand_efficiency_sa>  (123) 
-0.409307

>  <r_i_glide_ligand_efficiency_ln>  (123) 
-0.705969

>  <r_i_glide_gscore>  (123) 
-2.70613

>  <r_i_glide_lipo>  (123) 
-0.310456

>  <r_i_glide_hbond>  (123) 
-0.00445107

>  <r_i_glide_metal>  (123) 
-0

>  <r_i_glide_rewards>  (123) 
-1.73007

>  <r_i_glide_evdw>  (123) 
-18.6247

>  <r_i_glide_ecoul>  (123) 
-0.0642203

>  <r_i_glide_erotb>  (123) 
0.287329

>  <r_i_glide_esite>  (123) 
-0.00761608

>  <r_i_glide_emodel>  (123) 
-22.1375

>  <r_i_glide_energy>  (123) 
-18.6889

>  <r_i_glide_einternal>  (123) 
0.63728

>  <r_i_glide_intrahb_reward>  (123) 
-0

>  <i_i_glide_confnum>  (123) 
5

>  <i_i_glide_posenum>  (123) 
29

>  <r_i_glide_eff_state_penalty>  (123) 
0

>  <ligand_id>  (123) 
45

>  <original_smiles>  (123) 
COCC12CCC3(C)OOC(C)(OO1)C(C2)O3

>  <smiles>  (123) 
[H]C([H])([H])OC([H])([H])C12OOC3(C([H])([H])[H])OOC(C([H])([H])[H])(OC3([H])C1([H])[H])C([H])([H])C2([H])[H]

$$$$
46:0:0
     RDKit          3D

 65 71  0  0  1  0  0  0  0  0999 V2000
    8.1414   -1.8186    0.0777 C   0  0  0  0  0  0  0  0  0  0  0  0
    6.9396   -2.1490   -0.6203 O   0  0  0  0  0  0  0  0  0  0  0  0
    5.8558   -2.5803    0.2149 C   0  0  1  0  0  0  0  0  0  0  0  0
    5.3707   -1.5666    1.0495 O   0  0  0  0  0  0  0  0  0  0  0  0
    3.9004   -1.8081    0.8540 C   0  0  1  0  0  0  0  0  0  0  0  0
    4.2588   -1.1936    2.3071 C   0  0  0  0  0  0  0  0  0  0  0  0
    5.0172   -2.1636    3.3321 C   0  0  1  0  0  0  0  0  0  0  0  0
    5.0783   -1.5864    4.7644 C   0  0  0  0  0  0  0  0  0  0  0  0
    4.4498   -3.6091    3.1557 C   0  0  2  0  0  0  0  0  0  0  0  0
    2.9736   -3.4325    3.5719 C   0  0  2  0  0  0  0  0  0  0  0  0
    2.9081   -4.8175    3.9368 O   0  0  0  0  0  0  0  0  0  0  0  0
    4.3013   -4.6277    4.3325 C   0  0  1  0  0  0  0  0  0  0  0  0
    5.0866   -5.9392    4.4563 C   0  0  0  0  0  0  0  0  0  0  0  0
    4.7610   -6.6773    5.7683 C   0  0  0  0  0  0  0  0  0  0  0  0
    5.5783   -7.9758    5.8978 C   0  0  0  0  0  0  0  0  0  0  0  0
    7.0872   -7.7041    5.7863 C   0  0  0  0  0  0  0  0  0  0  0  0
    7.4206   -6.9741    4.4792 C   0  0  0  0  0  0  0  0  0  0  0  0
    6.6078   -5.6816    4.3663 C   0  0  0  0  0  0  0  0  0  0  0  0
    2.1077   -2.8472    2.6229 O   0  0  0  0  0  0  0  0  0  0  0  0
    2.6169   -2.7362    1.3012 C   0  0  2  0  0  0  0  0  0  0  0  0
    2.5035   -4.1953    0.8576 C   0  0  0  0  0  0  0  0  0  0  0  0
    3.8838   -4.6651    0.5764 C   0  0  1  0  0  0  0  0  0  0  0  0
    4.1688   -3.9490   -0.7716 C   0  0  0  0  0  0  0  0  0  0  0  0
    4.5105   -2.4997   -0.4653 C   0  0  2  0  0  0  0  0  0  0  0  0
    4.3796   -1.6389   -1.7270 C   0  0  0  0  0  0  0  0  0  0  0  0
    3.0718   -1.6785   -2.2855 O   0  0  0  0  0  0  0  0  0  0  0  0
    4.9095   -4.3574    1.7649 C   0  0  1  0  0  0  0  0  0  0  0  0
    6.2122   -3.8017    1.1221 C   0  0  1  0  0  0  0  0  0  0  0  0
    7.0203   -4.9358    0.4419 C   0  0  0  0  0  0  0  0  0  0  0  0
    8.8836   -1.4690   -0.6387 H   0  0  0  0  0  0  0  0  0  0  0  0
    8.5938   -2.6689    0.5866 H   0  0  0  0  0  0  0  0  0  0  0  0
    7.9736   -1.0311    0.8126 H   0  0  0  0  0  0  0  0  0  0  0  0
    4.6793   -0.1694    2.3264 H   0  0  0  0  0  0  0  0  0  0  0  0
    3.3254   -0.9112    2.7935 H   0  0  0  0  0  0  0  0  0  0  0  0
    6.0785   -2.1496    3.1231 H   0  0  0  0  0  0  0  0  0  0  0  0
    4.1077   -1.3606    5.1993 H   0  0  0  0  0  0  0  0  0  0  0  0
    5.6400   -0.6505    4.7562 H   0  0  0  0  0  0  0  0  0  0  0  0
    5.6175   -2.2589    5.4341 H   0  0  0  0  0  0  0  0  0  0  0  0
    2.7848   -2.8344    4.4640 H   0  0  0  0  0  0  0  0  0  0  0  0
    4.3650   -4.1077    5.2911 H   0  0  0  0  0  0  0  0  0  0  0  0
    4.7910   -6.6189    3.6571 H   0  0  0  0  0  0  0  0  0  0  0  0
    4.9711   -6.0278    6.6202 H   0  0  0  0  0  0  0  0  0  0  0  0
    3.6957   -6.9074    5.8070 H   0  0  0  0  0  0  0  0  0  0  0  0
    5.3584   -8.4512    6.8531 H   0  0  0  0  0  0  0  0  0  0  0  0
    5.2752   -8.6782    5.1196 H   0  0  0  0  0  0  0  0  0  0  0  0
    7.4153   -7.0970    6.6310 H   0  0  0  0  0  0  0  0  0  0  0  0
    7.6436   -8.6412    5.8379 H   0  0  0  0  0  0  0  0  0  0  0  0
    8.4850   -6.7420    4.4362 H   0  0  0  0  0  0  0  0  0  0  0  0
    7.2066   -7.6206    3.6259 H   0  0  0  0  0  0  0  0  0  0  0  0
    6.8766   -5.2102    3.4277 H   0  0  0  0  0  0  0  0  0  0  0  0
    6.9087   -4.9866    5.1512 H   0  0  0  0  0  0  0  0  0  0  0  0
    1.7779   -2.2442    0.8176 H   0  0  0  0  0  0  0  0  0  0  0  0
    2.0287   -4.8476    1.5926 H   0  0  0  0  0  0  0  0  0  0  0  0
    1.8560   -4.2764   -0.0159 H   0  0  0  0  0  0  0  0  0  0  0  0
    3.8524   -5.7393    0.3864 H   0  0  0  0  0  0  0  0  0  0  0  0
    4.9877   -4.4251   -1.3087 H   0  0  0  0  0  0  0  0  0  0  0  0
    3.3410   -4.0430   -1.4775 H   0  0  0  0  0  0  0  0  0  0  0  0
    4.6280   -0.6019   -1.5009 H   0  0  0  0  0  0  0  0  0  0  0  0
    5.0858   -1.9669   -2.4885 H   0  0  0  0  0  0  0  0  0  0  0  0
    2.4258   -1.4035   -1.6398 H   0  0  0  0  0  0  0  0  0  0  0  0
    5.1738   -5.3711    2.0357 H   0  0  0  0  0  0  0  0  0  0  0  0
    6.8996   -3.4912    1.8990 H   0  0  0  0  0  0  0  0  0  0  0  0
    6.4193   -5.5334   -0.2409 H   0  0  0  0  0  0  0  0  0  0  0  0
    7.4060   -5.6240    1.1967 H   0  0  0  0  0  0  0  0  0  0  0  0
    7.8840   -4.5634   -0.1132 H   0  0  0  0  0  0  0  0  0  0  0  0
  1  2  1  0
  1 30  1  0
  1 31  1  0
  1 32  1  0
  3  2  1  6
  3 24  1  0
  3 28  1  0
  3  4  1  0
  5  4  1  1
  5 20  1  0
  5 24  1  0
  5  6  1  0
  6  7  1  0
  6 33  1  0
  6 34  1  0
  7  8  1  0
  9  7  1  1
  7 35  1  6
  8 36  1  0
  8 37  1  0
  8 38  1  0
  9 12  1  0
  9 27  1  0
  9 10  1  0
 10 11  1  0
 10 19  1  0
 10 39  1  1
 11 12  1  0
 12 13  1  0
 12 40  1  1
 13 18  1  0
 13 14  1  0
 13 41  1  0
 14 15  1  0
 14 42  1  0
 14 43  1  0
 15 16  1  0
 15 44  1  0
 15 45  1  0
 16 17  1  0
 16 46  1  0
 16 47  1  0
 17 18  1  0
 17 48  1  0
 17 49  1  0
 18 50  1  0
 18 51  1  0
 19 20  1  0
 20 21  1  0
 20 52  1  6
 21 22  1  0
 21 53  1  0
 21 54  1  0
 22 23  1  0
 22 27  1  0
 22 55  1  6
 23 24  1  0
 23 56  1  0
 23 57  1  0
 24 25  1  6
 25 26  1  0
 25 58  1  0
 25 59  1  0
 26 60  1  0
 27 28  1  0
 27 61  1  1
 28 29  1  0
 28 62  1  1
 29 63  1  0
 29 64  1  0
 29 65  1  0
M  END
>  <i_m_ct_stereo_status>  (124) 
1

>  <s_m_source_file>  (124) 
/var/tmp/pbs.5076255.sched01/tmpcdf8lnea/434bzo3qpq.sdf

>  <i_m_source_file_index>  (124) 
12

>  <i_lp_mmshare_version>  (124) 
48012

>  <i_f3d_flags>  (124) 
0

>  <s_epik_input>  (124) 
W0NIM11PW0NAXShPMSkoW0NAQEhdMltDSDNdKVtDQEBdMyhbQ0gyXVtPSF0pW0NIMl1bQ0BIXShbQ0gyXTQpW0NAQEhdMltDQEBdKFtDQEBIXShbQ0gyXTUpW0NIM10pKFtDQEhdNk9bQ0BIXTRDMTM1KVtDQEBIXShPNilbQ0hdN1tDSDJdW0NIMl1bQ0gyXVtDSDJdW0NIMl03

>  <s_epik_cmdline>  (124) 
J2VwaWtfcHl0aG9uJywgJy1waHQnLCAnMi4wJywgJy1waCcsICc3LjAnLCAnLXRuJywgJzgnLCAnLW1hJywgJzIwMCcsICctaW1hZScsICc8aW5maWxlLm1hZT4nLCAnLW9tYWUnLCAnPG91dGZpbGUubWFlPic=

>  <r_lp_tautomer_probability>  (124) 
1

>  <r_epik_Ionization_Penalty>  (124) 
5.19129e-08

>  <r_epik_Ionization_Penalty_Charging>  (124) 
0

>  <r_epik_Ionization_Penalty_Neutral>  (124) 
5.19129e-08

>  <r_epik_State_Penalty>  (124) 
-0

>  <r_epik_Charging_Adjusted_Penalty>  (124) 
0

>  <i_epik_Tot_Q>  (124) 
0

>  <i_epik_Tot_abs_Q>  (124) 
0

>  <s_epik_Chemistry_Notes>  (124) 
This compound contains an acetal/aminal-like group ( X-CH(R)-Y where X, Y are N, S, or O) that may be acid/base labile, releasing an aldehyde.

>  <s_lp_Force_Field>  (124) 
OPLS3e

>  <r_lp_Energy>  (124) 
217.477

>  <b_lp_Chiralities_Consistent>  (124) 
1

>  <s_lp_Variant>  (124) 
46:0-1

>  <s_i_glide_gridfile>  (124) 
pfpi4k_grid

>  <i_i_glide_lignum>  (124) 
12

>  <i_i_glide_rotatable_bonds>  (124) 
4

>  <r_i_docking_score>  (124) 
-2.4952

>  <r_i_glide_ligand_efficiency>  (124) 
-0.0860412

>  <r_i_glide_ligand_efficiency_sa>  (124) 
-0.264346

>  <r_i_glide_ligand_efficiency_ln>  (124) 
-0.571337

>  <r_i_glide_gscore>  (124) 
-2.4952

>  <r_i_glide_lipo>  (124) 
-0.391434

>  <r_i_glide_hbond>  (124) 
-0.316505

>  <r_i_glide_metal>  (124) 
-0

>  <r_i_glide_rewards>  (124) 
-0.7036

>  <r_i_glide_evdw>  (124) 
-17.6903

>  <r_i_glide_ecoul>  (124) 
-2.92809

>  <r_i_glide_erotb>  (124) 
0.240071

>  <r_i_glide_esite>  (124) 
0

>  <r_i_glide_emodel>  (124) 
-23.6164

>  <r_i_glide_energy>  (124) 
-20.6184

>  <r_i_glide_einternal>  (124) 
0.478986

>  <r_i_glide_intrahb_reward>  (124) 
-0

>  <i_i_glide_confnum>  (124) 
2

>  <i_i_glide_posenum>  (124) 
1

>  <r_i_glide_eff_state_penalty>  (124) 
0

>  <ligand_id>  (124) 
46

>  <original_smiles>  (124) 
COC12OC34CC(C)C56C(OC5C5CCCCC5)OC3CC(CC41CO)C6C2C

>  <smiles>  (124) 
[H]OC([H])([H])C12C([H])([H])C3([H])C([H])([H])C4([H])OC5([H])OC([H])(C6([H])C([H])([H])C([H])([H])C([H])([H])C([H])([H])C6([H])[H])C56C([H])(C([H])([H])[H])C([H])([H])C41OC2(OC([H])([H])[H])C([H])(C([H])([H])[H])C36[H]

$$$$
46:0:1
     RDKit          3D

 65 71  0  0  1  0  0  0  0  0999 V2000
    4.6687   -4.6449   -4.2073 C   0  0  0  0  0  0  0  0  0  0  0  0
    3.6882   -3.8414   -3.5649 O   0  0  0  0  0  0  0  0  0  0  0  0
    4.1583   -3.3450   -2.3033 C   0  0  1  0  0  0  0  0  0  0  0  0
    5.5473   -3.4016   -2.1185 O   0  0  0  0  0  0  0  0  0  0  0  0
    5.7706   -1.9889   -1.6691 C   0  0  1  0  0  0  0  0  0  0  0  0
    6.8746   -3.0450   -1.1177 C   0  0  0  0  0  0  0  0  0  0  0  0
    6.3719   -4.1207   -0.0290 C   0  0  1  0  0  0  0  0  0  0  0  0
    7.5381   -4.8902    0.6386 C   0  0  0  0  0  0  0  0  0  0  0  0
    5.3321   -3.4159    0.9006 C   0  0  2  0  0  0  0  0  0  0  0  0
    6.1930   -2.3085    1.5355 C   0  0  2  0  0  0  0  0  0  0  0  0
    5.3532   -2.2929    2.7072 O   0  0  0  0  0  0  0  0  0  0  0  0
    5.2082   -3.7202    2.4322 C   0  0  1  0  0  0  0  0  0  0  0  0
    3.9797   -4.3331    3.1057 C   0  0  0  0  0  0  0  0  0  0  0  0
    4.1841   -4.5497    4.6157 C   0  0  0  0  0  0  0  0  0  0  0  0
    2.9457   -5.2063    5.2542 C   0  0  0  0  0  0  0  0  0  0  0  0
    2.5912   -6.5302    4.5622 C   0  0  0  0  0  0  0  0  0  0  0  0
    2.3805   -6.3261    3.0600 C   0  0  0  0  0  0  0  0  0  0  0  0
    3.6179   -5.6770    2.4269 C   0  0  0  0  0  0  0  0  0  0  0  0
    6.5109   -1.1692    0.8106 O   0  0  0  0  0  0  0  0  0  0  0  0
    5.7458   -1.0132   -0.3655 C   0  0  2  0  0  0  0  0  0  0  0  0
    4.4406   -0.5869    0.2573 C   0  0  0  0  0  0  0  0  0  0  0  0
    3.4295   -1.6214   -0.1140 C   0  0  1  0  0  0  0  0  0  0  0  0
    3.1775   -1.3457   -1.6306 C   0  0  0  0  0  0  0  0  0  0  0  0
    4.3369   -1.8675   -2.4066 C   0  0  2  0  0  0  0  0  0  0  0  0
    4.3037   -1.2461   -3.8137 C   0  0  0  0  0  0  0  0  0  0  0  0
    4.2114    0.1675   -3.8271 O   0  0  0  0  0  0  0  0  0  0  0  0
    3.8984   -3.1091    0.2112 C   0  0  1  0  0  0  0  0  0  0  0  0
    3.5337   -3.9843   -1.0243 C   0  0  1  0  0  0  0  0  0  0  0  0
    1.9874   -4.1889   -1.0303 C   0  0  0  0  0  0  0  0  0  0  0  0
    4.3049   -5.1597   -5.1021 H   0  0  0  0  0  0  0  0  0  0  0  0
    4.9879   -5.4216   -3.5003 H   0  0  0  0  0  0  0  0  0  0  0  0
    5.5518   -4.0695   -4.5096 H   0  0  0  0  0  0  0  0  0  0  0  0
    7.5327   -3.5020   -1.8786 H   0  0  0  0  0  0  0  0  0  0  0  0
    7.6888   -2.4888   -0.6321 H   0  0  0  0  0  0  0  0  0  0  0  0
    5.8954   -4.9673   -0.5139 H   0  0  0  0  0  0  0  0  0  0  0  0
    8.2894   -4.2613    1.1188 H   0  0  0  0  0  0  0  0  0  0  0  0
    8.0905   -5.4750   -0.0971 H   0  0  0  0  0  0  0  0  0  0  0  0
    7.1668   -5.6084    1.3744 H   0  0  0  0  0  0  0  0  0  0  0  0
    7.1739   -2.6805    1.7558 H   0  0  0  0  0  0  0  0  0  0  0  0
    6.0945   -4.2521    2.7702 H   0  0  0  0  0  0  0  0  0  0  0  0
    3.1254   -3.6565    3.0451 H   0  0  0  0  0  0  0  0  0  0  0  0
    5.0582   -5.1775    4.7858 H   0  0  0  0  0  0  0  0  0  0  0  0
    4.3835   -3.5911    5.0963 H   0  0  0  0  0  0  0  0  0  0  0  0
    3.1385   -5.3829    6.3105 H   0  0  0  0  0  0  0  0  0  0  0  0
    2.0972   -4.5227    5.1973 H   0  0  0  0  0  0  0  0  0  0  0  0
    3.3918   -7.2526    4.7180 H   0  0  0  0  0  0  0  0  0  0  0  0
    1.6933   -6.9574    5.0035 H   0  0  0  0  0  0  0  0  0  0  0  0
    2.1855   -7.2811    2.5700 H   0  0  0  0  0  0  0  0  0  0  0  0
    1.5073   -5.6961    2.8826 H   0  0  0  0  0  0  0  0  0  0  0  0
    3.4202   -5.5597    1.3629 H   0  0  0  0  0  0  0  0  0  0  0  0
    4.4683   -6.3600    2.4836 H   0  0  0  0  0  0  0  0  0  0  0  0
    6.1779   -0.0931   -0.7204 H   0  0  0  0  0  0  0  0  0  0  0  0
    4.4616   -0.4468    1.3468 H   0  0  0  0  0  0  0  0  0  0  0  0
    4.2345    0.4176   -0.1111 H   0  0  0  0  0  0  0  0  0  0  0  0
    2.5459   -1.4012    0.4870 H   0  0  0  0  0  0  0  0  0  0  0  0
    2.2891   -1.8502   -2.0004 H   0  0  0  0  0  0  0  0  0  0  0  0
    2.9380   -0.3236   -1.8945 H   0  0  0  0  0  0  0  0  0  0  0  0
    5.2072   -1.4904   -4.3227 H   0  0  0  0  0  0  0  0  0  0  0  0
    3.5066   -1.6449   -4.4344 H   0  0  0  0  0  0  0  0  0  0  0  0
    3.4131    0.4051   -3.3291 H   0  0  0  0  0  0  0  0  0  0  0  0
    3.1483   -3.3701    0.9455 H   0  0  0  0  0  0  0  0  0  0  0  0
    3.9217   -4.9895   -0.8795 H   0  0  0  0  0  0  0  0  0  0  0  0
    1.4208   -3.2710   -0.8756 H   0  0  0  0  0  0  0  0  0  0  0  0
    1.7341   -4.8668   -0.2042 H   0  0  0  0  0  0  0  0  0  0  0  0
    1.5552   -4.5939   -1.9644 H   0  0  0  0  0  0  0  0  0  0  0  0
  1  2  1  0
  1 30  1  0
  1 31  1  0
  1 32  1  0
  3  2  1  6
  3 24  1  0
  3 28  1  0
  3  4  1  0
  5  4  1  1
  5 20  1  0
  5 24  1  0
  5  6  1  0
  6  7  1  0
  6 33  1  0
  6 34  1  0
  7  8  1  0
  9  7  1  6
  7 35  1  6
  8 36  1  0
  8 37  1  0
  8 38  1  0
  9 12  1  0
  9 27  1  0
  9 10  1  0
 10 11  1  0
 10 19  1  0
 10 39  1  1
 11 12  1  0
 12 13  1  0
 12 40  1  1
 13 18  1  0
 13 14  1  0
 13 41  1  0
 14 15  1  0
 14 42  1  0
 14 43  1  0
 15 16  1  0
 15 44  1  0
 15 45  1  0
 16 17  1  0
 16 46  1  0
 16 47  1  0
 17 18  1  0
 17 48  1  0
 17 49  1  0
 18 50  1  0
 18 51  1  0
 19 20  1  0
 20 21  1  0
 20 52  1  6
 21 22  1  0
 21 53  1  0
 21 54  1  0
 22 23  1  0
 22 27  1  0
 22 55  1  1
 23 24  1  0
 23 56  1  0
 23 57  1  0
 24 25  1  6
 25 26  1  0
 25 58  1  0
 25 59  1  0
 26 60  1  0
 27 28  1  0
 27 61  1  1
 28 29  1  0
 28 62  1  1
 29 63  1  0
 29 64  1  0
 29 65  1  0
M  END
>  <i_m_ct_stereo_status>  (125) 
1

>  <s_m_source_file>  (125) 
/var/tmp/pbs.5076255.sched01/tmpcdf8lnea/434bzo3qpq.sdf

>  <i_m_source_file_index>  (125) 
12

>  <i_lp_mmshare_version>  (125) 
48012

>  <i_f3d_flags>  (125) 
0

>  <s_epik_input>  (125) 
W0NIM11PW0NAXShPMSkoW0NAQEhdMltDSDNdKVtDQEBdMyhbQ0gyXVtPSF0pW0NIMl1bQ0BIXShbQ0gyXTQpW0NAQEhdMltDQEBdKFtDQEBIXShbQ0gyXTUpW0NIM10pKFtDQEhdNk9bQ0BIXTRDMTM1KVtDQEBIXShPNilbQ0hdN1tDSDJdW0NIMl1bQ0gyXVtDSDJdW0NIMl03

>  <s_epik_cmdline>  (125) 
J2VwaWtfcHl0aG9uJywgJy1waHQnLCAnMi4wJywgJy1waCcsICc3LjAnLCAnLXRuJywgJzgnLCAnLW1hJywgJzIwMCcsICctaW1hZScsICc8aW5maWxlLm1hZT4nLCAnLW9tYWUnLCAnPG91dGZpbGUubWFlPic=

>  <r_lp_tautomer_probability>  (125) 
1

>  <r_epik_Ionization_Penalty>  (125) 
5.19129e-08

>  <r_epik_Ionization_Penalty_Charging>  (125) 
0

>  <r_epik_Ionization_Penalty_Neutral>  (125) 
5.19129e-08

>  <r_epik_State_Penalty>  (125) 
-0

>  <r_epik_Charging_Adjusted_Penalty>  (125) 
0

>  <i_epik_Tot_Q>  (125) 
0

>  <i_epik_Tot_abs_Q>  (125) 
0

>  <s_epik_Chemistry_Notes>  (125) 
This compound contains an acetal/aminal-like group ( X-CH(R)-Y where X, Y are N, S, or O) that may be acid/base labile, releasing an aldehyde.

>  <s_lp_Force_Field>  (125) 
OPLS3e

>  <r_lp_Energy>  (125) 
217.477

>  <b_lp_Chiralities_Consistent>  (125) 
1

>  <s_lp_Variant>  (125) 
46:0-1

>  <s_i_glide_gridfile>  (125) 
pfpi4k_grid

>  <i_i_glide_lignum>  (125) 
12

>  <i_i_glide_rotatable_bonds>  (125) 
4

>  <r_i_docking_score>  (125) 
-1.81061

>  <r_i_glide_ligand_efficiency>  (125) 
-0.0624349

>  <r_i_glide_ligand_efficiency_sa>  (125) 
-0.19182

>  <r_i_glide_ligand_efficiency_ln>  (125) 
-0.414585

>  <r_i_glide_gscore>  (125) 
-1.81061

>  <r_i_glide_lipo>  (125) 
-0.538629

>  <r_i_glide_hbond>  (125) 
0

>  <r_i_glide_metal>  (125) 
-0

>  <r_i_glide_rewards>  (125) 
-0.788075

>  <r_i_glide_evdw>  (125) 
-12.2185

>  <r_i_glide_ecoul>  (125) 
-0.551078

>  <r_i_glide_erotb>  (125) 
0.240071

>  <r_i_glide_esite>  (125) 
-0.0303941

>  <r_i_glide_emodel>  (125) 
-10.3803

>  <r_i_glide_energy>  (125) 
-12.7696

>  <r_i_glide_einternal>  (125) 
6.08418

>  <r_i_glide_intrahb_reward>  (125) 
-0

>  <i_i_glide_confnum>  (125) 
2

>  <i_i_glide_posenum>  (125) 
18

>  <r_i_glide_eff_state_penalty>  (125) 
0

>  <ligand_id>  (125) 
46

>  <original_smiles>  (125) 
COC12OC34CC(C)C56C(OC5C5CCCCC5)OC3CC(CC41CO)C6C2C

>  <smiles>  (125) 
[H]OC([H])([H])C12C([H])([H])C3([H])C([H])([H])C4([H])OC5([H])OC([H])(C6([H])C([H])([H])C([H])([H])C([H])([H])C([H])([H])C6([H])[H])C56C([H])(C([H])([H])[H])C([H])([H])C41OC2(OC([H])([H])[H])C([H])(C([H])([H])[H])C36[H]

$$$$
46:0:2
     RDKit          3D

 65 71  0  0  1  0  0  0  0  0999 V2000
    2.1634   -3.5245   -3.9572 C   0  0  0  0  0  0  0  0  0  0  0  0
    3.5238   -3.8528   -3.6800 O   0  0  0  0  0  0  0  0  0  0  0  0
    4.0790   -3.2496   -2.4907 C   0  0  1  0  0  0  0  0  0  0  0  0
    5.4751   -3.3127   -2.4364 O   0  0  0  0  0  0  0  0  0  0  0  0
    5.7696   -1.8947   -2.0250 C   0  0  1  0  0  0  0  0  0  0  0  0
    6.9611   -2.9090   -1.5949 C   0  0  0  0  0  0  0  0  0  0  0  0
    6.6355   -3.9438   -0.4130 C   0  0  1  0  0  0  0  0  0  0  0  0
    7.9252   -4.6288    0.1214 C   0  0  0  0  0  0  0  0  0  0  0  0
    5.6799   -3.2466    0.6048 C   0  0  2  0  0  0  0  0  0  0  0  0
    6.5859   -2.0992    1.1150 C   0  0  2  0  0  0  0  0  0  0  0  0
    5.8432   -2.0677    2.3405 O   0  0  0  0  0  0  0  0  0  0  0  0
    5.7315   -3.5161    2.1356 C   0  0  1  0  0  0  0  0  0  0  0  0
    4.6105   -4.1653    2.9485 C   0  0  0  0  0  0  0  0  0  0  0  0
    5.0225   -4.3332    4.4202 C   0  0  0  0  0  0  0  0  0  0  0  0
    3.9001   -5.0157    5.2165 C   0  0  0  0  0  0  0  0  0  0  0  0
    3.5057   -6.3649    4.5967 C   0  0  0  0  0  0  0  0  0  0  0  0
    3.1071   -6.1982    3.1285 C   0  0  0  0  0  0  0  0  0  0  0  0
    4.2298   -5.5284    2.3358 C   0  0  0  0  0  0  0  0  0  0  0  0
    6.7468   -0.9684    0.3046 O   0  0  0  0  0  0  0  0  0  0  0  0
    5.8161   -0.8836   -0.7327 C   0  0  2  0  0  0  0  0  0  0  0  0
    4.5637   -0.4791    0.0135 C   0  0  0  0  0  0  0  0  0  0  0  0
    3.5731   -1.5458   -0.2466 C   0  0  1  0  0  0  0  0  0  0  0  0
    3.1536   -1.2978   -1.7195 C   0  0  0  0  0  0  0  0  0  0  0  0
    4.2725   -1.7622   -2.6395 C   0  0  2  0  0  0  0  0  0  0  0  0
    4.1625   -1.1738   -4.0767 C   0  0  0  0  0  0  0  0  0  0  0  0
    3.7756    0.1781   -4.0863 O   0  0  0  0  0  0  0  0  0  0  0  0
    4.1578   -3.0021    0.0640 C   0  0  1  0  0  0  0  0  0  0  0  0
    3.6738   -3.9218   -1.1021 C   0  0  1  0  0  0  0  0  0  0  0  0
    2.1730   -4.2581   -0.7911 C   0  0  0  0  0  0  0  0  0  0  0  0
    1.8033   -4.2796   -4.6530 H   0  0  0  0  0  0  0  0  0  0  0  0
    1.9341   -2.5325   -4.3249 H   0  0  0  0  0  0  0  0  0  0  0  0
    1.5224   -3.6922   -3.0918 H   0  0  0  0  0  0  0  0  0  0  0  0
    7.5126   -3.3990   -2.4165 H   0  0  0  0  0  0  0  0  0  0  0  0
    7.8000   -2.2990   -1.2500 H   0  0  0  0  0  0  0  0  0  0  0  0
    6.1141   -4.7983   -0.7926 H   0  0  0  0  0  0  0  0  0  0  0  0
    8.6582   -3.9348    0.5207 H   0  0  0  0  0  0  0  0  0  0  0  0
    8.4967   -5.1577   -0.6442 H   0  0  0  0  0  0  0  0  0  0  0  0
    7.6550   -5.3629    0.8832 H   0  0  0  0  0  0  0  0  0  0  0  0
    7.6216   -2.3748    1.2763 H   0  0  0  0  0  0  0  0  0  0  0  0
    6.6655   -4.0260    2.3549 H   0  0  0  0  0  0  0  0  0  0  0  0
    3.7471   -3.4978    2.9595 H   0  0  0  0  0  0  0  0  0  0  0  0
    5.9326   -4.9295    4.4899 H   0  0  0  0  0  0  0  0  0  0  0  0
    5.2507   -3.3592    4.8580 H   0  0  0  0  0  0  0  0  0  0  0  0
    4.2244   -5.1674    6.2435 H   0  0  0  0  0  0  0  0  0  0  0  0
    3.0272   -4.3641    5.2579 H   0  0  0  0  0  0  0  0  0  0  0  0
    4.3422   -7.0605    4.6650 H   0  0  0  0  0  0  0  0  0  0  0  0
    2.6834   -6.8112    5.1504 H   0  0  0  0  0  0  0  0  0  0  0  0
    2.8856   -7.1651    2.6813 H   0  0  0  0  0  0  0  0  0  0  0  0
    2.1985   -5.6014    3.0489 H   0  0  0  0  0  0  0  0  0  0  0  0
    3.9062   -5.4278    1.3007 H   0  0  0  0  0  0  0  0  0  0  0  0
    5.1099   -6.1751    2.2965 H   0  0  0  0  0  0  0  0  0  0  0  0
    6.1053    0.0238   -1.2003 H   0  0  0  0  0  0  0  0  0  0  0  0
    4.7396   -0.3054    1.0828 H   0  0  0  0  0  0  0  0  0  0  0  0
    4.2141    0.4858   -0.3043 H   0  0  0  0  0  0  0  0  0  0  0  0
    2.7228   -1.3568    0.3952 H   0  0  0  0  0  0  0  0  0  0  0  0
    2.2027   -1.8207   -1.9287 H   0  0  0  0  0  0  0  0  0  0  0  0
    2.8907   -0.2727   -1.9221 H   0  0  0  0  0  0  0  0  0  0  0  0
    5.1446   -1.1775   -4.5275 H   0  0  0  0  0  0  0  0  0  0  0  0
    3.5469   -1.7107   -4.7497 H   0  0  0  0  0  0  0  0  0  0  0  0
    2.9585    0.2720   -3.6212 H   0  0  0  0  0  0  0  0  0  0  0  0
    3.5270   -3.2689    0.9003 H   0  0  0  0  0  0  0  0  0  0  0  0
    4.1389   -4.9065   -1.0053 H   0  0  0  0  0  0  0  0  0  0  0  0
    1.5351   -3.3728   -0.7301 H   0  0  0  0  0  0  0  0  0  0  0  0
    2.0805   -4.8457    0.1318 H   0  0  0  0  0  0  0  0  0  0  0  0
    1.7093   -4.9372   -1.4843 H   0  0  0  0  0  0  0  0  0  0  0  0
  1  2  1  0
  1 30  1  0
  1 31  1  0
  1 32  1  0
  3  2  1  6
  3 24  1  0
  3 28  1  0
  3  4  1  0
  5  4  1  1
  5 20  1  0
  5 24  1  0
  5  6  1  0
  6  7  1  0
  6 33  1  0
  6 34  1  0
  7  8  1  0
  9  7  1  6
  7 35  1  6
  8 36  1  0
  8 37  1  0
  8 38  1  0
  9 12  1  0
  9 27  1  0
  9 10  1  0
 10 11  1  0
 10 19  1  0
 10 39  1  1
 11 12  1  0
 12 13  1  0
 12 40  1  6
 13 18  1  0
 13 14  1  0
 13 41  1  0
 14 15  1  0
 14 42  1  0
 14 43  1  0
 15 16  1  0
 15 44  1  0
 15 45  1  0
 16 17  1  0
 16 46  1  0
 16 47  1  0
 17 18  1  0
 17 48  1  0
 17 49  1  0
 18 50  1  0
 18 51  1  0
 19 20  1  0
 20 21  1  0
 20 52  1  6
 21 22  1  0
 21 53  1  0
 21 54  1  0
 22 23  1  0
 22 27  1  0
 22 55  1  1
 23 24  1  0
 23 56  1  0
 23 57  1  0
 24 25  1  6
 25 26  1  0
 25 58  1  0
 25 59  1  0
 26 60  1  0
 27 28  1  0
 27 61  1  1
 28 29  1  0
 28 62  1  1
 29 63  1  0
 29 64  1  0
 29 65  1  0
M  END
>  <i_m_ct_stereo_status>  (126) 
1

>  <s_m_source_file>  (126) 
/var/tmp/pbs.5076255.sched01/tmpcdf8lnea/434bzo3qpq.sdf

>  <i_m_source_file_index>  (126) 
12

>  <i_lp_mmshare_version>  (126) 
48012

>  <i_f3d_flags>  (126) 
0

>  <s_epik_input>  (126) 
W0NIM11PW0NAXShPMSkoW0NAQEhdMltDSDNdKVtDQEBdMyhbQ0gyXVtPSF0pW0NIMl1bQ0BIXShbQ0gyXTQpW0NAQEhdMltDQEBdKFtDQEBIXShbQ0gyXTUpW0NIM10pKFtDQEhdNk9bQ0BIXTRDMTM1KVtDQEBIXShPNilbQ0hdN1tDSDJdW0NIMl1bQ0gyXVtDSDJdW0NIMl03

>  <s_epik_cmdline>  (126) 
J2VwaWtfcHl0aG9uJywgJy1waHQnLCAnMi4wJywgJy1waCcsICc3LjAnLCAnLXRuJywgJzgnLCAnLW1hJywgJzIwMCcsICctaW1hZScsICc8aW5maWxlLm1hZT4nLCAnLW9tYWUnLCAnPG91dGZpbGUubWFlPic=

>  <r_lp_tautomer_probability>  (126) 
1

>  <r_epik_Ionization_Penalty>  (126) 
5.19129e-08

>  <r_epik_Ionization_Penalty_Charging>  (126) 
0

>  <r_epik_Ionization_Penalty_Neutral>  (126) 
5.19129e-08

>  <r_epik_State_Penalty>  (126) 
-0

>  <r_epik_Charging_Adjusted_Penalty>  (126) 
0

>  <i_epik_Tot_Q>  (126) 
0

>  <i_epik_Tot_abs_Q>  (126) 
0

>  <s_epik_Chemistry_Notes>  (126) 
This compound contains an acetal/aminal-like group ( X-CH(R)-Y where X, Y are N, S, or O) that may be acid/base labile, releasing an aldehyde.

>  <s_lp_Force_Field>  (126) 
OPLS3e

>  <r_lp_Energy>  (126) 
217.477

>  <b_lp_Chiralities_Consistent>  (126) 
1

>  <s_lp_Variant>  (126) 
46:0-1

>  <s_i_glide_gridfile>  (126) 
pfpi4k_grid

>  <i_i_glide_lignum>  (126) 
12

>  <i_i_glide_rotatable_bonds>  (126) 
4

>  <r_i_docking_score>  (126) 
-1.73318

>  <r_i_glide_ligand_efficiency>  (126) 
-0.0597648

>  <r_i_glide_ligand_efficiency_sa>  (126) 
-0.183616

>  <r_i_glide_ligand_efficiency_ln>  (126) 
-0.396854

>  <r_i_glide_gscore>  (126) 
-1.73318

>  <r_i_glide_lipo>  (126) 
-0.482404

>  <r_i_glide_hbond>  (126) 
-0.0281571

>  <r_i_glide_metal>  (126) 
-0

>  <r_i_glide_rewards>  (126) 
-0.747094

>  <r_i_glide_evdw>  (126) 
-8.70628

>  <r_i_glide_ecoul>  (126) 
-1.65883

>  <r_i_glide_erotb>  (126) 
0.240071

>  <r_i_glide_esite>  (126) 
-0.0314571

>  <r_i_glide_emodel>  (126) 
-6.52427

>  <r_i_glide_energy>  (126) 
-10.3651

>  <r_i_glide_einternal>  (126) 
8.41019

>  <r_i_glide_intrahb_reward>  (126) 
-0

>  <i_i_glide_confnum>  (126) 
2

>  <i_i_glide_posenum>  (126) 
35

>  <r_i_glide_eff_state_penalty>  (126) 
0

>  <ligand_id>  (126) 
46

>  <original_smiles>  (126) 
COC12OC34CC(C)C56C(OC5C5CCCCC5)OC3CC(CC41CO)C6C2C

>  <smiles>  (126) 
[H]OC([H])([H])C12C([H])([H])C3([H])C([H])([H])C4([H])OC5([H])OC([H])(C6([H])C([H])([H])C([H])([H])C([H])([H])C([H])([H])C6([H])[H])C56C([H])(C([H])([H])[H])C([H])([H])C41OC2(OC([H])([H])[H])C([H])(C([H])([H])[H])C36[H]

$$$$
47:0:0
     RDKit          3D

 50 55  0  0  1  0  0  0  0  0999 V2000
    1.5963   -6.5020    4.2231 C   0  0  0  0  0  0  0  0  0  0  0  0
    1.2218   -6.4742    2.7672 C   0  0  0  0  0  0  0  0  0  0  0  0
    0.2078   -7.1881    2.2847 N   0  0  0  0  0  0  0  0  0  0  0  0
    0.2897   -7.0035    0.9328 N   0  0  0  0  0  0  0  0  0  0  0  0
    1.2829   -6.2190    0.6294 N   0  0  0  0  0  0  0  0  0  0  0  0
    1.8489   -5.7988    1.7981 N   0  0  0  0  0  0  0  0  0  0  0  0
    3.0356   -4.9014    1.7887 C   0  0  2  0  0  0  0  0  0  0  0  0
    2.9970   -3.7946    2.9409 C   0  0  0  0  0  0  0  0  0  0  0  0
    2.5796   -2.4774    2.1939 C   0  0  1  0  0  0  0  0  0  0  0  0
    3.5787   -1.5121    2.5180 O   0  0  0  0  0  0  0  0  0  0  0  0
    4.0622   -1.5885    1.1675 C   0  0  1  0  0  0  0  0  0  0  0  0
    4.3055   -0.0975    0.8901 C   0  0  0  0  0  0  0  0  0  0  0  0
    5.3269   -2.4358    1.1426 C   0  0  0  0  0  0  0  0  0  0  0  0
    5.0641   -3.8925    0.6387 C   0  0  2  0  0  0  0  0  0  0  0  0
    5.8934   -4.8412    1.5596 C   0  0  0  0  0  0  0  0  0  0  0  0
    5.7462   -4.1587   -0.7264 C   0  0  0  0  0  0  0  0  0  0  0  0
    5.4123   -3.2207   -1.8762 C   0  0  0  0  0  0  0  0  0  0  0  0
    4.0935   -2.4637   -1.7034 C   0  0  1  0  0  0  0  0  0  0  0  0
    3.6069   -1.8888   -3.0519 C   0  0  0  0  0  0  0  0  0  0  0  0
    3.0570   -3.1308   -0.7142 C   0  0  1  0  0  0  0  0  0  0  0  0
    1.8557   -3.5467   -1.6214 C   0  0  0  0  0  0  0  0  0  0  0  0
    3.5010   -4.2170    0.3730 C   0  0  1  0  0  0  0  0  0  0  0  0
    2.2917   -3.5629    0.8464 O   0  0  0  0  0  0  0  0  0  0  0  0
    2.7594   -2.2647    0.6024 C   0  0  2  0  0  0  0  0  0  0  0  0
    0.9828   -7.2483    4.7423 H   0  0  0  0  0  0  0  0  0  0  0  0
    1.4260   -5.5462    4.6932 H   0  0  0  0  0  0  0  0  0  0  0  0
    2.6373   -6.8003    4.3236 H   0  0  0  0  0  0  0  0  0  0  0  0
    3.7533   -5.6594    2.0833 H   0  0  0  0  0  0  0  0  0  0  0  0
    2.2854   -3.9582    3.7259 H   0  0  0  0  0  0  0  0  0  0  0  0
    3.9640   -3.6883    3.4197 H   0  0  0  0  0  0  0  0  0  0  0  0
    1.6030   -2.1146    2.4996 H   0  0  0  0  0  0  0  0  0  0  0  0
    4.7800    0.1044   -0.0713 H   0  0  0  0  0  0  0  0  0  0  0  0
    4.9570    0.3159    1.6583 H   0  0  0  0  0  0  0  0  0  0  0  0
    3.3665    0.4671    0.9113 H   0  0  0  0  0  0  0  0  0  0  0  0
    6.0819   -1.9587    0.5232 H   0  0  0  0  0  0  0  0  0  0  0  0
    5.7575   -2.4523    2.1430 H   0  0  0  0  0  0  0  0  0  0  0  0
    5.8069   -5.8896    1.2633 H   0  0  0  0  0  0  0  0  0  0  0  0
    5.6558   -4.7606    2.6198 H   0  0  0  0  0  0  0  0  0  0  0  0
    6.9533   -4.5856    1.5045 H   0  0  0  0  0  0  0  0  0  0  0  0
    6.8337   -4.2315   -0.6460 H   0  0  0  0  0  0  0  0  0  0  0  0
    5.4178   -5.1463   -1.0444 H   0  0  0  0  0  0  0  0  0  0  0  0
    6.2026   -2.4798   -1.9352 H   0  0  0  0  0  0  0  0  0  0  0  0
    5.4257   -3.7532   -2.8272 H   0  0  0  0  0  0  0  0  0  0  0  0
    4.4169   -1.5345   -1.2630 H   0  0  0  0  0  0  0  0  0  0  0  0
    3.3264   -2.6731   -3.7537 H   0  0  0  0  0  0  0  0  0  0  0  0
    4.4135   -1.3205   -3.5054 H   0  0  0  0  0  0  0  0  0  0  0  0
    2.7668   -1.1996   -2.9225 H   0  0  0  0  0  0  0  0  0  0  0  0
    1.1102   -4.1471   -1.1155 H   0  0  0  0  0  0  0  0  0  0  0  0
    2.1882   -4.1557   -2.4585 H   0  0  0  0  0  0  0  0  0  0  0  0
    1.3310   -2.6912   -2.0425 H   0  0  0  0  0  0  0  0  0  0  0  0
  1  2  1  0
  1 25  1  0
  1 26  1  0
  1 27  1  0
  2  6  1  0
  2  3  2  0
  3  4  1  0
  4  5  2  0
  5  6  1  0
  6  7  1  0
  7 22  1  0
  7  8  1  0
  7 28  1  1
  8  9  1  0
  8 29  1  0
  8 30  1  0
  9 24  1  0
  9 10  1  0
  9 31  1  1
 10 11  1  0
 11 24  1  0
 11 12  1  6
 11 13  1  0
 12 32  1  0
 12 33  1  0
 12 34  1  0
 13 14  1  0
 13 35  1  0
 13 36  1  0
 14 22  1  0
 14 15  1  1
 14 16  1  0
 15 37  1  0
 15 38  1  0
 15 39  1  0
 16 17  1  0
 16 40  1  0
 16 41  1  0
 17 18  1  0
 17 42  1  0
 17 43  1  0
 18 19  1  0
 18 20  1  0
 18 44  1  1
 19 45  1  0
 19 46  1  0
 19 47  1  0
 20 24  1  0
 20 21  1  6
 20 22  1  0
 21 48  1  0
 21 49  1  0
 21 50  1  0
 22 23  1  6
 24 23  1  6
M  END
>  <i_m_ct_stereo_status>  (127) 
1

>  <s_m_source_file>  (127) 
/var/tmp/pbs.5076255.sched01/tmpcdf8lnea/434bzo3qpq.sdf

>  <i_m_source_file_index>  (127) 
13

>  <i_lp_mmshare_version>  (127) 
48012

>  <i_f3d_flags>  (127) 
2

>  <s_epik_input>  (127) 
W0NIM11jMW5ubm4xW0NAQEhdMltDSDJdW0NAQEhdKE8zKUMoTzQpKFtDQF0zKFtDSDNdKVtDSDJdW0NAXTUoQzI0NilbQ0gzXSlbQ0BAXTYoW0NIM10pW0NASF0oW0NIM10pW0NIMl1bQ0gyXTU=

>  <s_epik_cmdline>  (127) 
J2VwaWtfcHl0aG9uJywgJy1waHQnLCAnMi4wJywgJy1waCcsICc3LjAnLCAnLXRuJywgJzgnLCAnLW1hJywgJzIwMCcsICctaW1hZScsICc8aW5maWxlLm1hZT4nLCAnLW9tYWUnLCAnPG91dGZpbGUubWFlPic=

>  <r_lp_tautomer_probability>  (127) 
1

>  <r_epik_Ionization_Penalty>  (127) 
5.87468e-08

>  <r_epik_Ionization_Penalty_Charging>  (127) 
0

>  <r_epik_Ionization_Penalty_Neutral>  (127) 
5.87468e-08

>  <r_epik_State_Penalty>  (127) 
-0

>  <r_epik_Charging_Adjusted_Penalty>  (127) 
0

>  <i_epik_Tot_Q>  (127) 
0

>  <i_epik_Tot_abs_Q>  (127) 
0

>  <s_lp_Force_Field>  (127) 
OPLS3e

>  <r_lp_Energy>  (127) 
247.079

>  <b_lp_Chiralities_Consistent>  (127) 
0

>  <s_lp_Variant>  (127) 
47:0-1

>  <s_i_glide_gridfile>  (127) 
pfpi4k_grid

>  <i_i_glide_lignum>  (127) 
13

>  <i_i_glide_rotatable_bonds>  (127) 
1

>  <r_i_docking_score>  (127) 
-3.1252

>  <r_i_glide_ligand_efficiency>  (127) 
-0.130217

>  <r_i_glide_ligand_efficiency_sa>  (127) 
-0.37561

>  <r_i_glide_ligand_efficiency_ln>  (127) 
-0.748003

>  <r_i_glide_gscore>  (127) 
-3.1252

>  <r_i_glide_lipo>  (127) 
-0.457694

>  <r_i_glide_hbond>  (127) 
0

>  <r_i_glide_metal>  (127) 
-0

>  <r_i_glide_rewards>  (127) 
-1.1562

>  <r_i_glide_evdw>  (127) 
-21.384

>  <r_i_glide_ecoul>  (127) 
-1.84573

>  <r_i_glide_erotb>  (127) 
0.172265

>  <r_i_glide_esite>  (127) 
-0.337512

>  <r_i_glide_emodel>  (127) 
-26.352

>  <r_i_glide_energy>  (127) 
-23.2297

>  <r_i_glide_einternal>  (127) 
1.01783

>  <r_i_glide_intrahb_reward>  (127) 
-0

>  <i_i_glide_confnum>  (127) 
2

>  <i_i_glide_posenum>  (127) 
35

>  <r_i_glide_eff_state_penalty>  (127) 
0

>  <ligand_id>  (127) 
47

>  <original_smiles>  (127) 
Cc1nnnn1C1CC2OC3(C)CC4(C)CCC(C)C5(C)C14OC235

>  <smiles>  (127) 
[H]C([H])([H])c1nnnn1C1([H])C([H])([H])C2([H])OC3(C([H])([H])[H])C([H])([H])C4(C([H])([H])[H])C([H])([H])C([H])([H])C([H])(C([H])([H])[H])C5(C([H])([H])[H])C23OC145

$$$$
47:0:1
     RDKit          3D

 50 55  0  0  1  0  0  0  0  0999 V2000
    2.9009   -7.3614    3.6702 C   0  0  0  0  0  0  0  0  0  0  0  0
    2.0405   -7.0701    2.4905 C   0  0  0  0  0  0  0  0  0  0  0  0
    0.9705   -7.7842    2.1672 N   0  0  0  0  0  0  0  0  0  0  0  0
    0.5090   -7.1867    1.0253 N   0  0  0  0  0  0  0  0  0  0  0  0
    1.2822   -6.2142    0.6690 N   0  0  0  0  0  0  0  0  0  0  0  0
    2.2419   -6.0742    1.6190 N   0  0  0  0  0  0  0  0  0  0  0  0
    3.2957   -5.0165    1.5763 C   0  0  2  0  0  0  0  0  0  0  0  0
    3.2138   -3.9983    2.8087 C   0  0  0  0  0  0  0  0  0  0  0  0
    2.6057   -2.6777    2.1635 C   0  0  1  0  0  0  0  0  0  0  0  0
    3.5387   -1.6422    2.4488 O   0  0  0  0  0  0  0  0  0  0  0  0
    3.8863   -1.5832    1.0567 C   0  0  1  0  0  0  0  0  0  0  0  0
    3.9478   -0.0679    0.8056 C   0  0  0  0  0  0  0  0  0  0  0  0
    5.2363   -2.2784    0.8648 C   0  0  0  0  0  0  0  0  0  0  0  0
    5.0877   -3.7331    0.3173 C   0  0  2  0  0  0  0  0  0  0  0  0
    6.1007   -4.6117    1.1205 C   0  0  0  0  0  0  0  0  0  0  0  0
    5.6671   -3.8799   -1.1153 C   0  0  0  0  0  0  0  0  0  0  0  0
    5.1194   -2.9497   -2.1869 C   0  0  0  0  0  0  0  0  0  0  0  0
    3.7594   -2.3503   -1.8642 C   0  0  1  0  0  0  0  0  0  0  0  0
    3.1018   -1.8053   -3.1417 C   0  0  0  0  0  0  0  0  0  0  0  0
    2.8882   -3.1517   -0.8133 C   0  0  1  0  0  0  0  0  0  0  0  0
    1.6744   -3.6949   -1.6300 C   0  0  0  0  0  0  0  0  0  0  0  0
    3.5606   -4.2120    0.1791 C   0  0  1  0  0  0  0  0  0  0  0  0
    2.3248   -3.7176    0.7851 O   0  0  0  0  0  0  0  0  0  0  0  0
    2.6232   -2.3764    0.5663 C   0  0  2  0  0  0  0  0  0  0  0  0
    2.5167   -8.2328    4.2054 H   0  0  0  0  0  0  0  0  0  0  0  0
    2.9023   -6.5129    4.3515 H   0  0  0  0  0  0  0  0  0  0  0  0
    3.9178   -7.5740    3.3419 H   0  0  0  0  0  0  0  0  0  0  0  0
    4.1316   -5.6668    1.7915 H   0  0  0  0  0  0  0  0  0  0  0  0
    2.5992   -4.3637    3.6269 H   0  0  0  0  0  0  0  0  0  0  0  0
    4.1984   -3.8078    3.2293 H   0  0  0  0  0  0  0  0  0  0  0  0
    1.6335   -2.4169    2.5817 H   0  0  0  0  0  0  0  0  0  0  0  0
    4.3053    0.1847   -0.1897 H   0  0  0  0  0  0  0  0  0  0  0  0
    4.6191    0.4259    1.5094 H   0  0  0  0  0  0  0  0  0  0  0  0
    2.9603    0.3935    0.9137 H   0  0  0  0  0  0  0  0  0  0  0  0
    5.8728   -1.6977    0.2016 H   0  0  0  0  0  0  0  0  0  0  0  0
    5.7630   -2.2844    1.8221 H   0  0  0  0  0  0  0  0  0  0  0  0
    6.1038   -5.6554    0.7919 H   0  0  0  0  0  0  0  0  0  0  0  0
    5.9514   -4.5852    2.2000 H   0  0  0  0  0  0  0  0  0  0  0  0
    7.1152   -4.2380    0.9790 H   0  0  0  0  0  0  0  0  0  0  0  0
    6.7572   -3.8352   -1.1437 H   0  0  0  0  0  0  0  0  0  0  0  0
    5.4082   -4.8858   -1.4490 H   0  0  0  0  0  0  0  0  0  0  0  0
    5.8215   -2.1259   -2.2806 H   0  0  0  0  0  0  0  0  0  0  0  0
    5.1114   -3.4437   -3.1600 H   0  0  0  0  0  0  0  0  0  0  0  0
    4.0067   -1.4077   -1.4133 H   0  0  0  0  0  0  0  0  0  0  0  0
    2.8307   -2.5791   -3.8555 H   0  0  0  0  0  0  0  0  0  0  0  0
    3.7833   -1.1247   -3.6418 H   0  0  0  0  0  0  0  0  0  0  0  0
    2.2265   -1.2058   -2.8993 H   0  0  0  0  0  0  0  0  0  0  0  0
    1.0397   -4.3874   -1.0858 H   0  0  0  0  0  0  0  0  0  0  0  0
    1.9906   -4.2308   -2.5201 H   0  0  0  0  0  0  0  0  0  0  0  0
    1.0179   -2.9014   -1.9702 H   0  0  0  0  0  0  0  0  0  0  0  0
  1  2  1  0
  1 25  1  0
  1 26  1  0
  1 27  1  0
  2  6  1  0
  2  3  2  0
  3  4  1  0
  4  5  2  0
  5  6  1  0
  6  7  1  0
  7 22  1  0
  7  8  1  0
  7 28  1  1
  8  9  1  0
  8 29  1  0
  8 30  1  0
  9 24  1  0
  9 10  1  0
  9 31  1  1
 10 11  1  0
 11 24  1  0
 11 12  1  6
 11 13  1  0
 12 32  1  0
 12 33  1  0
 12 34  1  0
 13 14  1  0
 13 35  1  0
 13 36  1  0
 14 22  1  0
 14 15  1  1
 14 16  1  0
 15 37  1  0
 15 38  1  0
 15 39  1  0
 16 17  1  0
 16 40  1  0
 16 41  1  0
 17 18  1  0
 17 42  1  0
 17 43  1  0
 18 19  1  0
 18 20  1  0
 18 44  1  1
 19 45  1  0
 19 46  1  0
 19 47  1  0
 20 24  1  0
 20 21  1  6
 20 22  1  0
 21 48  1  0
 21 49  1  0
 21 50  1  0
 22 23  1  6
 24 23  1  6
M  END
>  <i_m_ct_stereo_status>  (128) 
1

>  <s_m_source_file>  (128) 
/var/tmp/pbs.5076255.sched01/tmpcdf8lnea/434bzo3qpq.sdf

>  <i_m_source_file_index>  (128) 
13

>  <i_lp_mmshare_version>  (128) 
48012

>  <i_f3d_flags>  (128) 
2

>  <s_epik_input>  (128) 
W0NIM11jMW5ubm4xW0NAQEhdMltDSDJdW0NAQEhdKE8zKUMoTzQpKFtDQF0zKFtDSDNdKVtDSDJdW0NAXTUoQzI0NilbQ0gzXSlbQ0BAXTYoW0NIM10pW0NASF0oW0NIM10pW0NIMl1bQ0gyXTU=

>  <s_epik_cmdline>  (128) 
J2VwaWtfcHl0aG9uJywgJy1waHQnLCAnMi4wJywgJy1waCcsICc3LjAnLCAnLXRuJywgJzgnLCAnLW1hJywgJzIwMCcsICctaW1hZScsICc8aW5maWxlLm1hZT4nLCAnLW9tYWUnLCAnPG91dGZpbGUubWFlPic=

>  <r_lp_tautomer_probability>  (128) 
1

>  <r_epik_Ionization_Penalty>  (128) 
5.87468e-08

>  <r_epik_Ionization_Penalty_Charging>  (128) 
0

>  <r_epik_Ionization_Penalty_Neutral>  (128) 
5.87468e-08

>  <r_epik_State_Penalty>  (128) 
-0

>  <r_epik_Charging_Adjusted_Penalty>  (128) 
0

>  <i_epik_Tot_Q>  (128) 
0

>  <i_epik_Tot_abs_Q>  (128) 
0

>  <s_lp_Force_Field>  (128) 
OPLS3e

>  <r_lp_Energy>  (128) 
247.079

>  <b_lp_Chiralities_Consistent>  (128) 
0

>  <s_lp_Variant>  (128) 
47:0-1

>  <s_i_glide_gridfile>  (128) 
pfpi4k_grid

>  <i_i_glide_lignum>  (128) 
13

>  <i_i_glide_rotatable_bonds>  (128) 
1

>  <r_i_docking_score>  (128) 
-2.92521

>  <r_i_glide_ligand_efficiency>  (128) 
-0.121884

>  <r_i_glide_ligand_efficiency_sa>  (128) 
-0.351574

>  <r_i_glide_ligand_efficiency_ln>  (128) 
-0.700138

>  <r_i_glide_gscore>  (128) 
-2.92521

>  <r_i_glide_lipo>  (128) 
-0.430596

>  <r_i_glide_hbond>  (128) 
0

>  <r_i_glide_metal>  (128) 
-0

>  <r_i_glide_rewards>  (128) 
-1.1562

>  <r_i_glide_evdw>  (128) 
-21.0853

>  <r_i_glide_ecoul>  (128) 
-1.36207

>  <r_i_glide_erotb>  (128) 
0.172265

>  <r_i_glide_esite>  (128) 
-0.252115

>  <r_i_glide_emodel>  (128) 
-25.5265

>  <r_i_glide_energy>  (128) 
-22.4473

>  <r_i_glide_einternal>  (128) 
1.39785

>  <r_i_glide_intrahb_reward>  (128) 
-0

>  <i_i_glide_confnum>  (128) 
2

>  <i_i_glide_posenum>  (128) 
11

>  <r_i_glide_eff_state_penalty>  (128) 
0

>  <ligand_id>  (128) 
47

>  <original_smiles>  (128) 
Cc1nnnn1C1CC2OC3(C)CC4(C)CCC(C)C5(C)C14OC235

>  <smiles>  (128) 
[H]C([H])([H])c1nnnn1C1([H])C([H])([H])C2([H])OC3(C([H])([H])[H])C([H])([H])C4(C([H])([H])[H])C([H])([H])C([H])([H])C([H])(C([H])([H])[H])C5(C([H])([H])[H])C23OC145

$$$$
47:0:2
     RDKit          3D

 50 55  0  0  1  0  0  0  0  0999 V2000
    3.8995   -8.5734    1.2773 C   0  0  0  0  0  0  0  0  0  0  0  0
    2.6393   -7.8996    1.6939 C   0  0  0  0  0  0  0  0  0  0  0  0
    1.5220   -8.5338    2.0102 N   0  0  0  0  0  0  0  0  0  0  0  0
    0.6367   -7.5370    2.3273 N   0  0  0  0  0  0  0  0  0  0  0  0
    1.2133   -6.3627    2.2439 N   0  0  0  0  0  0  0  0  0  0  0  0
    2.4928   -6.5740    1.8320 N   0  0  0  0  0  0  0  0  0  0  0  0
    3.4650   -5.4625    1.6347 C   0  0  2  0  0  0  0  0  0  0  0  0
    3.5389   -4.4202    2.8383 C   0  0  0  0  0  0  0  0  0  0  0  0
    2.7572   -3.1574    2.2672 C   0  0  1  0  0  0  0  0  0  0  0  0
    3.6711   -2.0681    2.3546 O   0  0  0  0  0  0  0  0  0  0  0  0
    3.7708   -2.0370    0.9215 C   0  0  1  0  0  0  0  0  0  0  0  0
    3.7075   -0.5298    0.6225 C   0  0  0  0  0  0  0  0  0  0  0  0
    5.0996   -2.6727    0.5248 C   0  0  0  0  0  0  0  0  0  0  0  0
    4.9414   -4.1487    0.0568 C   0  0  2  0  0  0  0  0  0  0  0  0
    6.1217   -4.9497    0.6866 C   0  0  0  0  0  0  0  0  0  0  0  0
    5.2561   -4.3200   -1.4467 C   0  0  0  0  0  0  0  0  0  0  0  0
    4.4935   -3.4714   -2.4407 C   0  0  0  0  0  0  0  0  0  0  0  0
    3.1835   -2.9271   -1.9090 C   0  0  1  0  0  0  0  0  0  0  0  0
    2.2985   -2.5057   -3.0866 C   0  0  0  0  0  0  0  0  0  0  0  0
    2.5539   -3.7176   -0.6925 C   0  0  1  0  0  0  0  0  0  0  0  0
    1.2367   -4.3386   -1.2568 C   0  0  0  0  0  0  0  0  0  0  0  0
    3.4471   -4.7066    0.1896 C   0  0  1  0  0  0  0  0  0  0  0  0
    2.3073   -4.2518    0.9841 O   0  0  0  0  0  0  0  0  0  0  0  0
    2.4945   -2.9046    0.6837 C   0  0  2  0  0  0  0  0  0  0  0  0
    3.7502   -9.6554    1.2502 H   0  0  0  0  0  0  0  0  0  0  0  0
    4.6911   -8.3541    1.9927 H   0  0  0  0  0  0  0  0  0  0  0  0
    4.2008   -8.2298    0.2875 H   0  0  0  0  0  0  0  0  0  0  0  0
    4.3727   -6.0349    1.7610 H   0  0  0  0  0  0  0  0  0  0  0  0
    3.1023   -4.8070    3.7569 H   0  0  0  0  0  0  0  0  0  0  0  0
    4.5625   -4.1663    3.0752 H   0  0  0  0  0  0  0  0  0  0  0  0
    1.8594   -2.9265    2.8348 H   0  0  0  0  0  0  0  0  0  0  0  0
    3.8788   -0.2807   -0.4245 H   0  0  0  0  0  0  0  0  0  0  0  0
    4.4607    0.0153    1.1893 H   0  0  0  0  0  0  0  0  0  0  0  0
    2.7298   -0.1190    0.8868 H   0  0  0  0  0  0  0  0  0  0  0  0
    5.5677   -2.0895   -0.2662 H   0  0  0  0  0  0  0  0  0  0  0  0
    5.7938   -2.6112    1.3683 H   0  0  0  0  0  0  0  0  0  0  0  0
    6.1230   -6.0036    0.3952 H   0  0  0  0  0  0  0  0  0  0  0  0
    6.1710   -4.8886    1.7750 H   0  0  0  0  0  0  0  0  0  0  0  0
    7.0748   -4.5344    0.3552 H   0  0  0  0  0  0  0  0  0  0  0  0
    6.3158   -4.1899   -1.6610 H   0  0  0  0  0  0  0  0  0  0  0  0
    5.0179   -5.3494   -1.6954 H   0  0  0  0  0  0  0  0  0  0  0  0
    5.1141   -2.6190   -2.6841 H   0  0  0  0  0  0  0  0  0  0  0  0
    4.3385   -4.0095   -3.3805 H   0  0  0  0  0  0  0  0  0  0  0  0
    3.4472   -1.9495   -1.5388 H   0  0  0  0  0  0  0  0  0  0  0  0
    1.9642   -3.3332   -3.7171 H   0  0  0  0  0  0  0  0  0  0  0  0
    2.8350   -1.7890   -3.7078 H   0  0  0  0  0  0  0  0  0  0  0  0
    1.4244   -2.0006   -2.7131 H   0  0  0  0  0  0  0  0  0  0  0  0
    0.8090   -5.0946   -0.6084 H   0  0  0  0  0  0  0  0  0  0  0  0
    1.3910   -4.8621   -2.1834 H   0  0  0  0  0  0  0  0  0  0  0  0
    0.4835   -3.5996   -1.4989 H   0  0  0  0  0  0  0  0  0  0  0  0
  1  2  1  0
  1 25  1  0
  1 26  1  0
  1 27  1  0
  2  6  1  0
  2  3  2  0
  3  4  1  0
  4  5  2  0
  5  6  1  0
  6  7  1  0
  7 22  1  0
  7  8  1  0
  7 28  1  6
  8  9  1  0
  8 29  1  0
  8 30  1  0
  9 24  1  0
  9 10  1  0
  9 31  1  1
 10 11  1  0
 11 24  1  0
 11 12  1  6
 11 13  1  0
 12 32  1  0
 12 33  1  0
 12 34  1  0
 13 14  1  0
 13 35  1  0
 13 36  1  0
 14 22  1  0
 14 15  1  1
 14 16  1  0
 15 37  1  0
 15 38  1  0
 15 39  1  0
 16 17  1  0
 16 40  1  0
 16 41  1  0
 17 18  1  0
 17 42  1  0
 17 43  1  0
 18 19  1  0
 18 20  1  0
 18 44  1  1
 19 45  1  0
 19 46  1  0
 19 47  1  0
 20 24  1  0
 20 21  1  6
 20 22  1  0
 21 48  1  0
 21 49  1  0
 21 50  1  0
 22 23  1  6
 24 23  1  1
M  END
>  <i_m_ct_stereo_status>  (129) 
1

>  <s_m_source_file>  (129) 
/var/tmp/pbs.5076255.sched01/tmpcdf8lnea/434bzo3qpq.sdf

>  <i_m_source_file_index>  (129) 
13

>  <i_lp_mmshare_version>  (129) 
48012

>  <i_f3d_flags>  (129) 
2

>  <s_epik_input>  (129) 
W0NIM11jMW5ubm4xW0NAQEhdMltDSDJdW0NAQEhdKE8zKUMoTzQpKFtDQF0zKFtDSDNdKVtDSDJdW0NAXTUoQzI0NilbQ0gzXSlbQ0BAXTYoW0NIM10pW0NASF0oW0NIM10pW0NIMl1bQ0gyXTU=

>  <s_epik_cmdline>  (129) 
J2VwaWtfcHl0aG9uJywgJy1waHQnLCAnMi4wJywgJy1waCcsICc3LjAnLCAnLXRuJywgJzgnLCAnLW1hJywgJzIwMCcsICctaW1hZScsICc8aW5maWxlLm1hZT4nLCAnLW9tYWUnLCAnPG91dGZpbGUubWFlPic=

>  <r_lp_tautomer_probability>  (129) 
1

>  <r_epik_Ionization_Penalty>  (129) 
5.87468e-08

>  <r_epik_Ionization_Penalty_Charging>  (129) 
0

>  <r_epik_Ionization_Penalty_Neutral>  (129) 
5.87468e-08

>  <r_epik_State_Penalty>  (129) 
-0

>  <r_epik_Charging_Adjusted_Penalty>  (129) 
0

>  <i_epik_Tot_Q>  (129) 
0

>  <i_epik_Tot_abs_Q>  (129) 
0

>  <s_lp_Force_Field>  (129) 
OPLS3e

>  <r_lp_Energy>  (129) 
247.079

>  <b_lp_Chiralities_Consistent>  (129) 
0

>  <s_lp_Variant>  (129) 
47:0-1

>  <s_i_glide_gridfile>  (129) 
pfpi4k_grid

>  <i_i_glide_lignum>  (129) 
13

>  <i_i_glide_rotatable_bonds>  (129) 
1

>  <r_i_docking_score>  (129) 
-2.19265

>  <r_i_glide_ligand_efficiency>  (129) 
-0.0913603

>  <r_i_glide_ligand_efficiency_sa>  (129) 
-0.263529

>  <r_i_glide_ligand_efficiency_ln>  (129) 
-0.524801

>  <r_i_glide_gscore>  (129) 
-2.19265

>  <r_i_glide_lipo>  (129) 
-0.249741

>  <r_i_glide_hbond>  (129) 
-0.000346258

>  <r_i_glide_metal>  (129) 
-0

>  <r_i_glide_rewards>  (129) 
-1.1562

>  <r_i_glide_evdw>  (129) 
-16.7497

>  <r_i_glide_ecoul>  (129) 
0.0741881

>  <r_i_glide_erotb>  (129) 
0.172265

>  <r_i_glide_esite>  (129) 
-0.132274

>  <r_i_glide_emodel>  (129) 
-18.7371

>  <r_i_glide_energy>  (129) 
-16.6755

>  <r_i_glide_einternal>  (129) 
0.941346

>  <r_i_glide_intrahb_reward>  (129) 
-0

>  <i_i_glide_confnum>  (129) 
2

>  <i_i_glide_posenum>  (129) 
1

>  <r_i_glide_eff_state_penalty>  (129) 
0

>  <ligand_id>  (129) 
47

>  <original_smiles>  (129) 
Cc1nnnn1C1CC2OC3(C)CC4(C)CCC(C)C5(C)C14OC235

>  <smiles>  (129) 
[H]C([H])([H])c1nnnn1C1([H])C([H])([H])C2([H])OC3(C([H])([H])[H])C([H])([H])C4(C([H])([H])[H])C([H])([H])C([H])([H])C([H])(C([H])([H])[H])C5(C([H])([H])[H])C23OC145

$$$$
47:1:0
     RDKit          3D

 50 55  0  0  1  0  0  0  0  0999 V2000
    1.8712   -4.3628   -0.5962 C   0  0  0  0  0  0  0  0  0  0  0  0
    2.2313   -5.3797    0.4372 C   0  0  0  0  0  0  0  0  0  0  0  0
    1.3514   -5.9805    1.2220 N   0  0  0  0  0  0  0  0  0  0  0  0
    2.1079   -6.8462    1.9791 N   0  0  0  0  0  0  0  0  0  0  0  0
    3.3627   -6.7647    1.6419 N   0  0  0  0  0  0  0  0  0  0  0  0
    3.4563   -5.7996    0.6727 N   0  0  0  0  0  0  0  0  0  0  0  0
    4.7470   -5.4977    0.0331 C   0  0  2  0  0  0  0  0  0  0  0  0
    6.0295   -6.1061    0.9057 C   0  0  0  0  0  0  0  0  0  0  0  0
    7.1346   -4.9188    1.0127 C   0  0  1  0  0  0  0  0  0  0  0  0
    8.1773   -4.6061   -0.0358 O   0  0  0  0  0  0  0  0  0  0  0  0
    7.5926   -3.2382   -0.3172 C   0  0  1  0  0  0  0  0  0  0  0  0
    8.5667   -2.2053    0.1822 C   0  0  0  0  0  0  0  0  0  0  0  0
    6.9621   -2.9097   -1.7658 C   0  0  0  0  0  0  0  0  0  0  0  0
    5.3317   -3.1860   -1.6781 C   0  0  2  0  0  0  0  0  0  0  0  0
    4.8988   -3.8865   -2.9714 C   0  0  0  0  0  0  0  0  0  0  0  0
    4.6459   -1.8136   -1.7228 C   0  0  0  0  0  0  0  0  0  0  0  0
    5.1064   -0.9199   -0.5756 C   0  0  0  0  0  0  0  0  0  0  0  0
    4.9503   -1.4950    0.8477 C   0  0  1  0  0  0  0  0  0  0  0  0
    3.6387   -0.9792    1.4601 C   0  0  0  0  0  0  0  0  0  0  0  0
    5.1492   -3.0240    0.9730 C   0  0  1  0  0  0  0  0  0  0  0  0
    4.6448   -3.4503    2.3564 C   0  0  0  0  0  0  0  0  0  0  0  0
    4.8021   -3.8853   -0.2740 C   0  0  1  0  0  0  0  0  0  0  0  0
    6.0115   -4.3101   -0.3862 O   0  0  0  0  0  0  0  0  0  0  0  0
    6.5430   -3.5830    0.7022 C   0  0  2  0  0  0  0  0  0  0  0  0
    0.8209   -4.4978   -0.8955 H   0  0  0  0  0  0  0  0  0  0  0  0
    2.4093   -4.5528   -1.5261 H   0  0  0  0  0  0  0  0  0  0  0  0
    2.1168   -3.3657   -0.2175 H   0  0  0  0  0  0  0  0  0  0  0  0
    4.7086   -6.0633   -0.8997 H   0  0  0  0  0  0  0  0  0  0  0  0
    5.7248   -6.3683    1.9166 H   0  0  0  0  0  0  0  0  0  0  0  0
    6.4169   -7.0267    0.4699 H   0  0  0  0  0  0  0  0  0  0  0  0
    7.5839   -4.8855    2.0022 H   0  0  0  0  0  0  0  0  0  0  0  0
    8.0673   -1.2529    0.4071 H   0  0  0  0  0  0  0  0  0  0  0  0
    9.3898   -2.0700   -0.5126 H   0  0  0  0  0  0  0  0  0  0  0  0
    8.9895   -2.5966    1.1021 H   0  0  0  0  0  0  0  0  0  0  0  0
    7.1777   -1.8713   -2.0339 H   0  0  0  0  0  0  0  0  0  0  0  0
    7.4039   -3.5346   -2.5510 H   0  0  0  0  0  0  0  0  0  0  0  0
    3.8164   -3.9805   -3.0911 H   0  0  0  0  0  0  0  0  0  0  0  0
    5.3630   -4.8600   -3.0664 H   0  0  0  0  0  0  0  0  0  0  0  0
    5.2426   -3.2986   -3.8262 H   0  0  0  0  0  0  0  0  0  0  0  0
    4.7659   -1.3195   -2.6916 H   0  0  0  0  0  0  0  0  0  0  0  0
    3.5763   -1.9537   -1.6111 H   0  0  0  0  0  0  0  0  0  0  0  0
    6.1321   -0.5953   -0.7181 H   0  0  0  0  0  0  0  0  0  0  0  0
    4.4995   -0.0256   -0.6410 H   0  0  0  0  0  0  0  0  0  0  0  0
    5.7440   -1.0210    1.4179 H   0  0  0  0  0  0  0  0  0  0  0  0
    2.7655   -1.4281    0.9792 H   0  0  0  0  0  0  0  0  0  0  0  0
    3.5885    0.1001    1.3431 H   0  0  0  0  0  0  0  0  0  0  0  0
    3.5896   -1.1611    2.5357 H   0  0  0  0  0  0  0  0  0  0  0  0
    4.9931   -4.4411    2.6228 H   0  0  0  0  0  0  0  0  0  0  0  0
    3.5550   -3.4710    2.4033 H   0  0  0  0  0  0  0  0  0  0  0  0
    5.0539   -2.7902    3.1186 H   0  0  0  0  0  0  0  0  0  0  0  0
  1  2  1  0
  1 25  1  0
  1 26  1  0
  1 27  1  0
  2  6  1  0
  2  3  2  0
  3  4  1  0
  4  5  2  0
  5  6  1  0
  6  7  1  0
  7 22  1  0
  7  8  1  0
  7 28  1  6
  8  9  1  0
  8 29  1  0
  8 30  1  0
  9 24  1  0
  9 10  1  0
  9 31  1  1
 10 11  1  0
 11 24  1  0
 11 12  1  1
 11 13  1  0
 12 32  1  0
 12 33  1  0
 12 34  1  0
 13 14  1  0
 13 35  1  0
 13 36  1  0
 14 22  1  0
 14 15  1  6
 14 16  1  0
 15 37  1  0
 15 38  1  0
 15 39  1  0
 16 17  1  0
 16 40  1  0
 16 41  1  0
 17 18  1  0
 17 42  1  0
 17 43  1  0
 18 19  1  0
 18 20  1  0
 18 44  1  1
 19 45  1  0
 19 46  1  0
 19 47  1  0
 20 24  1  0
 20 21  1  1
 20 22  1  0
 21 48  1  0
 21 49  1  0
 21 50  1  0
 22 23  1  6
 24 23  1  1
M  END
>  <i_m_ct_stereo_status>  (130) 
1

>  <s_m_source_file>  (130) 
/var/tmp/pbs.5076255.sched01/tmpcdf8lnea/434bzo3qpq.sdf

>  <i_m_source_file_index>  (130) 
14

>  <i_lp_mmshare_version>  (130) 
48012

>  <i_f3d_flags>  (130) 
0

>  <s_epik_input>  (130) 
W0NIM11jMW5ubm4xW0NAQEhdMltDSDJdW0NAQEhdKE8zKUMoTzQpKFtDQF0zKFtDSDNdKVtDSDJdW0NAXTUoQzI0NilbQ0gzXSlbQ0BAXTYoW0NIM10pW0NASF0oW0NIM10pW0NIMl1bQ0gyXTU=

>  <s_epik_cmdline>  (130) 
J2VwaWtfcHl0aG9uJywgJy1waHQnLCAnMi4wJywgJy1waCcsICc3LjAnLCAnLXRuJywgJzgnLCAnLW1hJywgJzIwMCcsICctaW1hZScsICc8aW5maWxlLm1hZT4nLCAnLW9tYWUnLCAnPG91dGZpbGUubWFlPic=

>  <r_lp_tautomer_probability>  (130) 
1

>  <r_epik_Ionization_Penalty>  (130) 
5.87468e-08

>  <r_epik_Ionization_Penalty_Charging>  (130) 
0

>  <r_epik_Ionization_Penalty_Neutral>  (130) 
5.87468e-08

>  <r_epik_State_Penalty>  (130) 
-0

>  <r_epik_Charging_Adjusted_Penalty>  (130) 
0

>  <i_epik_Tot_Q>  (130) 
0

>  <i_epik_Tot_abs_Q>  (130) 
0

>  <s_lp_Force_Field>  (130) 
OPLS3e

>  <r_lp_Energy>  (130) 
231.586

>  <b_lp_Chiralities_Consistent>  (130) 
1

>  <s_lp_Variant>  (130) 
47:0-2

>  <s_i_glide_gridfile>  (130) 
pfpi4k_grid

>  <i_i_glide_lignum>  (130) 
14

>  <i_i_glide_rotatable_bonds>  (130) 
1

>  <r_i_docking_score>  (130) 
-3.28589

>  <r_i_glide_ligand_efficiency>  (130) 
-0.136912

>  <r_i_glide_ligand_efficiency_sa>  (130) 
-0.394923

>  <r_i_glide_ligand_efficiency_ln>  (130) 
-0.786464

>  <r_i_glide_gscore>  (130) 
-3.28589

>  <r_i_glide_lipo>  (130) 
-0.690691

>  <r_i_glide_hbond>  (130) 
0

>  <r_i_glide_metal>  (130) 
-0

>  <r_i_glide_rewards>  (130) 
-1.1562

>  <r_i_glide_evdw>  (130) 
-16.0826

>  <r_i_glide_ecoul>  (130) 
-4.24836

>  <r_i_glide_erotb>  (130) 
0.172265

>  <r_i_glide_esite>  (130) 
-0.169881

>  <r_i_glide_emodel>  (130) 
-24.1746

>  <r_i_glide_energy>  (130) 
-20.331

>  <r_i_glide_einternal>  (130) 
0.250489

>  <r_i_glide_intrahb_reward>  (130) 
-0

>  <i_i_glide_confnum>  (130) 
1

>  <i_i_glide_posenum>  (130) 
3

>  <r_i_glide_eff_state_penalty>  (130) 
0

>  <ligand_id>  (130) 
47

>  <original_smiles>  (130) 
Cc1nnnn1C1CC2OC3(C)CC4(C)CCC(C)C5(C)C14OC235

>  <smiles>  (130) 
[H]C([H])([H])c1nnnn1C1([H])C([H])([H])C2([H])OC3(C([H])([H])[H])C([H])([H])C4(C([H])([H])[H])C([H])([H])C([H])([H])C([H])(C([H])([H])[H])C5(C([H])([H])[H])C23OC145

$$$$
47:1:1
     RDKit          3D

 50 55  0  0  1  0  0  0  0  0999 V2000
    1.9477   -3.1562   -2.8516 C   0  0  0  0  0  0  0  0  0  0  0  0
    3.0947   -2.3886   -2.3271 C   0  0  0  0  0  0  0  0  0  0  0  0
    3.9380   -1.7162   -3.1214 N   0  0  0  0  0  0  0  0  0  0  0  0
    4.7346   -1.0361   -2.2455 N   0  0  0  0  0  0  0  0  0  0  0  0
    4.3897   -1.3082   -1.0234 N   0  0  0  0  0  0  0  0  0  0  0  0
    3.3742   -2.2323   -1.0429 N   0  0  0  0  0  0  0  0  0  0  0  0
    2.8352   -2.8465    0.2009 C   0  0  2  0  0  0  0  0  0  0  0  0
    2.6399   -1.7297    1.4211 C   0  0  0  0  0  0  0  0  0  0  0  0
    3.0672   -2.4288    2.8162 C   0  0  1  0  0  0  0  0  0  0  0  0
    2.1826   -3.3021    3.6761 O   0  0  0  0  0  0  0  0  0  0  0  0
    3.0952   -4.4992    3.5119 C   0  0  1  0  0  0  0  0  0  0  0  0
    3.8399   -4.7835    4.8194 C   0  0  0  0  0  0  0  0  0  0  0  0
    2.5397   -5.8049    2.7656 C   0  0  0  0  0  0  0  0  0  0  0  0
    2.9131   -5.6839    1.1451 C   0  0  2  0  0  0  0  0  0  0  0  0
    1.6628   -6.1227    0.3630 C   0  0  0  0  0  0  0  0  0  0  0  0
    3.9770   -6.7559    0.8619 C   0  0  0  0  0  0  0  0  0  0  0  0
    5.2044   -6.5866    1.7613 C   0  0  0  0  0  0  0  0  0  0  0  0
    5.8607   -5.1920    1.7263 C   0  0  1  0  0  0  0  0  0  0  0  0
    7.0357   -5.2463    0.7342 C   0  0  0  0  0  0  0  0  0  0  0  0
    4.8977   -3.9877    1.4992 C   0  0  1  0  0  0  0  0  0  0  0  0
    5.7987   -2.7883    1.2228 C   0  0  0  0  0  0  0  0  0  0  0  0
    3.6114   -4.2444    0.6512 C   0  0  1  0  0  0  0  0  0  0  0  0
    2.8074   -3.9334    1.6359 O   0  0  0  0  0  0  0  0  0  0  0  0
    3.8626   -3.6542    2.5638 C   0  0  2  0  0  0  0  0  0  0  0  0
    1.8207   -2.9399   -3.9140 H   0  0  0  0  0  0  0  0  0  0  0  0
    1.0485   -2.8662   -2.3193 H   0  0  0  0  0  0  0  0  0  0  0  0
    2.1243   -4.2125   -2.7000 H   0  0  0  0  0  0  0  0  0  0  0  0
    1.8221   -3.1034   -0.0868 H   0  0  0  0  0  0  0  0  0  0  0  0
    3.2650   -0.8692    1.2447 H   0  0  0  0  0  0  0  0  0  0  0  0
    1.6209   -1.3455    1.4577 H   0  0  0  0  0  0  0  0  0  0  0  0
    3.6386   -1.7629    3.4485 H   0  0  0  0  0  0  0  0  0  0  0  0
    4.7078   -5.4248    4.6469 H   0  0  0  0  0  0  0  0  0  0  0  0
    3.2119   -5.2498    5.5788 H   0  0  0  0  0  0  0  0  0  0  0  0
    4.2426   -3.8572    5.2401 H   0  0  0  0  0  0  0  0  0  0  0  0
    2.9308   -6.7068    3.2307 H   0  0  0  0  0  0  0  0  0  0  0  0
    1.4552   -5.8724    2.9063 H   0  0  0  0  0  0  0  0  0  0  0  0
    1.8148   -6.1696   -0.7152 H   0  0  0  0  0  0  0  0  0  0  0  0
    0.8210   -5.4729    0.5548 H   0  0  0  0  0  0  0  0  0  0  0  0
    1.3525   -7.1192    0.6883 H   0  0  0  0  0  0  0  0  0  0  0  0
    3.5780   -7.7718    0.9584 H   0  0  0  0  0  0  0  0  0  0  0  0
    4.2947   -6.6696   -0.1788 H   0  0  0  0  0  0  0  0  0  0  0  0
    4.9653   -6.8500    2.7896 H   0  0  0  0  0  0  0  0  0  0  0  0
    5.9276   -7.3439    1.4591 H   0  0  0  0  0  0  0  0  0  0  0  0
    6.3072   -5.0640    2.7052 H   0  0  0  0  0  0  0  0  0  0  0  0
    6.6544   -5.3049   -0.2865 H   0  0  0  0  0  0  0  0  0  0  0  0
    7.6733   -6.1073    0.9375 H   0  0  0  0  0  0  0  0  0  0  0  0
    7.6997   -4.3833    0.8100 H   0  0  0  0  0  0  0  0  0  0  0  0
    5.2759   -1.8524    1.3666 H   0  0  0  0  0  0  0  0  0  0  0  0
    6.1899   -2.8235    0.2075 H   0  0  0  0  0  0  0  0  0  0  0  0
    6.6292   -2.7390    1.9219 H   0  0  0  0  0  0  0  0  0  0  0  0
  1  2  1  0
  1 25  1  0
  1 26  1  0
  1 27  1  0
  2  6  1  0
  2  3  2  0
  3  4  1  0
  4  5  2  0
  5  6  1  0
  6  7  1  0
  7 22  1  0
  7  8  1  0
  7 28  1  6
  8  9  1  0
  8 29  1  0
  8 30  1  0
  9 24  1  0
  9 10  1  0
  9 31  1  1
 10 11  1  0
 11 24  1  0
 11 12  1  1
 11 13  1  0
 12 32  1  0
 12 33  1  0
 12 34  1  0
 13 14  1  0
 13 35  1  0
 13 36  1  0
 14 22  1  0
 14 15  1  6
 14 16  1  0
 15 37  1  0
 15 38  1  0
 15 39  1  0
 16 17  1  0
 16 40  1  0
 16 41  1  0
 17 18  1  0
 17 42  1  0
 17 43  1  0
 18 19  1  0
 18 20  1  0
 18 44  1  1
 19 45  1  0
 19 46  1  0
 19 47  1  0
 20 24  1  0
 20 21  1  6
 20 22  1  0
 21 48  1  0
 21 49  1  0
 21 50  1  0
 22 23  1  6
 24 23  1  1
M  END
>  <i_m_ct_stereo_status>  (131) 
1

>  <s_m_source_file>  (131) 
/var/tmp/pbs.5076255.sched01/tmpcdf8lnea/434bzo3qpq.sdf

>  <i_m_source_file_index>  (131) 
14

>  <i_lp_mmshare_version>  (131) 
48012

>  <i_f3d_flags>  (131) 
0

>  <s_epik_input>  (131) 
W0NIM11jMW5ubm4xW0NAQEhdMltDSDJdW0NAQEhdKE8zKUMoTzQpKFtDQF0zKFtDSDNdKVtDSDJdW0NAXTUoQzI0NilbQ0gzXSlbQ0BAXTYoW0NIM10pW0NASF0oW0NIM10pW0NIMl1bQ0gyXTU=

>  <s_epik_cmdline>  (131) 
J2VwaWtfcHl0aG9uJywgJy1waHQnLCAnMi4wJywgJy1waCcsICc3LjAnLCAnLXRuJywgJzgnLCAnLW1hJywgJzIwMCcsICctaW1hZScsICc8aW5maWxlLm1hZT4nLCAnLW9tYWUnLCAnPG91dGZpbGUubWFlPic=

>  <r_lp_tautomer_probability>  (131) 
1

>  <r_epik_Ionization_Penalty>  (131) 
5.87468e-08

>  <r_epik_Ionization_Penalty_Charging>  (131) 
0

>  <r_epik_Ionization_Penalty_Neutral>  (131) 
5.87468e-08

>  <r_epik_State_Penalty>  (131) 
-0

>  <r_epik_Charging_Adjusted_Penalty>  (131) 
0

>  <i_epik_Tot_Q>  (131) 
0

>  <i_epik_Tot_abs_Q>  (131) 
0

>  <s_lp_Force_Field>  (131) 
OPLS3e

>  <r_lp_Energy>  (131) 
231.586

>  <b_lp_Chiralities_Consistent>  (131) 
1

>  <s_lp_Variant>  (131) 
47:0-2

>  <s_i_glide_gridfile>  (131) 
pfpi4k_grid

>  <i_i_glide_lignum>  (131) 
14

>  <i_i_glide_rotatable_bonds>  (131) 
1

>  <r_i_docking_score>  (131) 
-3.0332

>  <r_i_glide_ligand_efficiency>  (131) 
-0.126383

>  <r_i_glide_ligand_efficiency_sa>  (131) 
-0.364553

>  <r_i_glide_ligand_efficiency_ln>  (131) 
-0.725984

>  <r_i_glide_gscore>  (131) 
-3.0332

>  <r_i_glide_lipo>  (131) 
-0.601191

>  <r_i_glide_hbond>  (131) 
0

>  <r_i_glide_metal>  (131) 
-0

>  <r_i_glide_rewards>  (131) 
-1.1562

>  <r_i_glide_evdw>  (131) 
-20.2584

>  <r_i_glide_ecoul>  (131) 
-1.57614

>  <r_i_glide_erotb>  (131) 
0.172265

>  <r_i_glide_esite>  (131) 
-0.198739

>  <r_i_glide_emodel>  (131) 
-23.768

>  <r_i_glide_energy>  (131) 
-21.8346

>  <r_i_glide_einternal>  (131) 
1.9437

>  <r_i_glide_intrahb_reward>  (131) 
-0

>  <i_i_glide_confnum>  (131) 
4

>  <i_i_glide_posenum>  (131) 
15

>  <r_i_glide_eff_state_penalty>  (131) 
0

>  <ligand_id>  (131) 
47

>  <original_smiles>  (131) 
Cc1nnnn1C1CC2OC3(C)CC4(C)CCC(C)C5(C)C14OC235

>  <smiles>  (131) 
[H]C([H])([H])c1nnnn1C1([H])C([H])([H])C2([H])OC3(C([H])([H])[H])C([H])([H])C4(C([H])([H])[H])C([H])([H])C([H])([H])C([H])(C([H])([H])[H])C5(C([H])([H])[H])C23OC145

$$$$
47:1:2
     RDKit          3D

 50 55  0  0  1  0  0  0  0  0999 V2000
    5.1485   -0.6921    1.6053 C   0  0  0  0  0  0  0  0  0  0  0  0
    4.8776   -0.7968    3.0559 C   0  0  0  0  0  0  0  0  0  0  0  0
    5.5068   -0.1058    3.9849 N   0  0  0  0  0  0  0  0  0  0  0  0
    4.9343   -0.4868    5.1647 N   0  0  0  0  0  0  0  0  0  0  0  0
    3.9952   -1.3695    4.9278 N   0  0  0  0  0  0  0  0  0  0  0  0
    3.9439   -1.5928    3.5892 N   0  0  0  0  0  0  0  0  0  0  0  0
    2.9927   -2.5438    2.9704 C   0  0  2  0  0  0  0  0  0  0  0  0
    1.9456   -3.2335    4.0901 C   0  0  0  0  0  0  0  0  0  0  0  0
    1.8455   -4.8162    3.7737 C   0  0  1  0  0  0  0  0  0  0  0  0
    0.9389   -5.4484    2.7439 O   0  0  0  0  0  0  0  0  0  0  0  0
    2.1106   -5.9719    1.9325 C   0  0  1  0  0  0  0  0  0  0  0  0
    2.1908   -7.4941    2.0753 C   0  0  0  0  0  0  0  0  0  0  0  0
    2.3715   -5.4454    0.4400 C   0  0  0  0  0  0  0  0  0  0  0  0
    3.4055   -4.1384    0.5120 C   0  0  2  0  0  0  0  0  0  0  0  0
    2.8547   -3.0390   -0.4144 C   0  0  0  0  0  0  0  0  0  0  0  0
    4.7221   -4.6049   -0.1137 C   0  0  0  0  0  0  0  0  0  0  0  0
    5.2793   -5.8438    0.5935 C   0  0  0  0  0  0  0  0  0  0  0  0
    5.4677   -5.7029    2.1215 C   0  0  1  0  0  0  0  0  0  0  0  0
    6.9397   -5.3401    2.3843 C   0  0  0  0  0  0  0  0  0  0  0  0
    4.4355   -4.7833    2.8520 C   0  0  1  0  0  0  0  0  0  0  0  0
    4.9955   -4.5066    4.2617 C   0  0  0  0  0  0  0  0  0  0  0  0
    3.8136   -3.6140    2.0325 C   0  0  1  0  0  0  0  0  0  0  0  0
    2.5894   -4.0572    2.1380 O   0  0  0  0  0  0  0  0  0  0  0  0
    2.9610   -5.2188    2.8918 C   0  0  2  0  0  0  0  0  0  0  0  0
    5.8437    0.1411    1.4203 H   0  0  0  0  0  0  0  0  0  0  0  0
    4.2245   -0.4932    1.0756 H   0  0  0  0  0  0  0  0  0  0  0  0
    5.6107   -1.6089    1.2523 H   0  0  0  0  0  0  0  0  0  0  0  0
    2.3684   -1.8987    2.3408 H   0  0  0  0  0  0  0  0  0  0  0  0
    2.3029   -3.1189    5.1088 H   0  0  0  0  0  0  0  0  0  0  0  0
    0.9753   -2.7337    4.0741 H   0  0  0  0  0  0  0  0  0  0  0  0
    1.8431   -5.4140    4.6893 H   0  0  0  0  0  0  0  0  0  0  0  0
    3.1810   -7.8692    1.7768 H   0  0  0  0  0  0  0  0  0  0  0  0
    1.4228   -8.0068    1.4935 H   0  0  0  0  0  0  0  0  0  0  0  0
    2.0710   -7.7724    3.1277 H   0  0  0  0  0  0  0  0  0  0  0  0
    2.7408   -6.2453   -0.2204 H   0  0  0  0  0  0  0  0  0  0  0  0
    1.4262   -5.1350   -0.0213 H   0  0  0  0  0  0  0  0  0  0  0  0
    3.5373   -2.1924   -0.5392 H   0  0  0  0  0  0  0  0  0  0  0  0
    1.8875   -2.6555   -0.0714 H   0  0  0  0  0  0  0  0  0  0  0  0
    2.6931   -3.4568   -1.4168 H   0  0  0  0  0  0  0  0  0  0  0  0
    4.6102   -4.7986   -1.1829 H   0  0  0  0  0  0  0  0  0  0  0  0
    5.4572   -3.8015   -0.0310 H   0  0  0  0  0  0  0  0  0  0  0  0
    4.6711   -6.7198    0.3803 H   0  0  0  0  0  0  0  0  0  0  0  0
    6.2346   -6.0684    0.1193 H   0  0  0  0  0  0  0  0  0  0  0  0
    5.3365   -6.7052    2.5163 H   0  0  0  0  0  0  0  0  0  0  0  0
    7.1567   -4.3139    2.0735 H   0  0  0  0  0  0  0  0  0  0  0  0
    7.6029   -6.0200    1.8500 H   0  0  0  0  0  0  0  0  0  0  0  0
    7.2088   -5.4542    3.4381 H   0  0  0  0  0  0  0  0  0  0  0  0
    4.2382   -4.1265    4.9379 H   0  0  0  0  0  0  0  0  0  0  0  0
    5.8037   -3.7712    4.2469 H   0  0  0  0  0  0  0  0  0  0  0  0
    5.3422   -5.4250    4.7219 H   0  0  0  0  0  0  0  0  0  0  0  0
  1  2  1  0
  1 25  1  0
  1 26  1  0
  1 27  1  0
  2  6  1  0
  2  3  2  0
  3  4  1  0
  4  5  2  0
  5  6  1  0
  6  7  1  0
  7 22  1  0
  7  8  1  0
  7 28  1  6
  8  9  1  0
  8 29  1  0
  8 30  1  0
  9 24  1  0
  9 10  1  0
  9 31  1  1
 10 11  1  0
 11 24  1  0
 11 12  1  6
 11 13  1  0
 12 32  1  0
 12 33  1  0
 12 34  1  0
 13 14  1  0
 13 35  1  0
 13 36  1  0
 14 22  1  0
 14 15  1  6
 14 16  1  0
 15 37  1  0
 15 38  1  0
 15 39  1  0
 16 17  1  0
 16 40  1  0
 16 41  1  0
 17 18  1  0
 17 42  1  0
 17 43  1  0
 18 19  1  0
 18 20  1  0
 18 44  1  1
 19 45  1  0
 19 46  1  0
 19 47  1  0
 20 24  1  0
 20 21  1  1
 20 22  1  0
 21 48  1  0
 21 49  1  0
 21 50  1  0
 22 23  1  6
 24 23  1  1
M  END
>  <i_m_ct_stereo_status>  (132) 
1

>  <s_m_source_file>  (132) 
/var/tmp/pbs.5076255.sched01/tmpcdf8lnea/434bzo3qpq.sdf

>  <i_m_source_file_index>  (132) 
14

>  <i_lp_mmshare_version>  (132) 
48012

>  <i_f3d_flags>  (132) 
0

>  <s_epik_input>  (132) 
W0NIM11jMW5ubm4xW0NAQEhdMltDSDJdW0NAQEhdKE8zKUMoTzQpKFtDQF0zKFtDSDNdKVtDSDJdW0NAXTUoQzI0NilbQ0gzXSlbQ0BAXTYoW0NIM10pW0NASF0oW0NIM10pW0NIMl1bQ0gyXTU=

>  <s_epik_cmdline>  (132) 
J2VwaWtfcHl0aG9uJywgJy1waHQnLCAnMi4wJywgJy1waCcsICc3LjAnLCAnLXRuJywgJzgnLCAnLW1hJywgJzIwMCcsICctaW1hZScsICc8aW5maWxlLm1hZT4nLCAnLW9tYWUnLCAnPG91dGZpbGUubWFlPic=

>  <r_lp_tautomer_probability>  (132) 
1

>  <r_epik_Ionization_Penalty>  (132) 
5.87468e-08

>  <r_epik_Ionization_Penalty_Charging>  (132) 
0

>  <r_epik_Ionization_Penalty_Neutral>  (132) 
5.87468e-08

>  <r_epik_State_Penalty>  (132) 
-0

>  <r_epik_Charging_Adjusted_Penalty>  (132) 
0

>  <i_epik_Tot_Q>  (132) 
0

>  <i_epik_Tot_abs_Q>  (132) 
0

>  <s_lp_Force_Field>  (132) 
OPLS3e

>  <r_lp_Energy>  (132) 
231.586

>  <b_lp_Chiralities_Consistent>  (132) 
1

>  <s_lp_Variant>  (132) 
47:0-2

>  <s_i_glide_gridfile>  (132) 
pfpi4k_grid

>  <i_i_glide_lignum>  (132) 
14

>  <i_i_glide_rotatable_bonds>  (132) 
1

>  <r_i_docking_score>  (132) 
-2.44164

>  <r_i_glide_ligand_efficiency>  (132) 
-0.101735

>  <r_i_glide_ligand_efficiency_sa>  (132) 
-0.293455

>  <r_i_glide_ligand_efficiency_ln>  (132) 
-0.584397

>  <r_i_glide_gscore>  (132) 
-2.44164

>  <r_i_glide_lipo>  (132) 
-0.339396

>  <r_i_glide_hbond>  (132) 
-0.00995665

>  <r_i_glide_metal>  (132) 
-0

>  <r_i_glide_rewards>  (132) 
-1.2948

>  <r_i_glide_evdw>  (132) 
-16.1846

>  <r_i_glide_ecoul>  (132) 
-1.07013

>  <r_i_glide_erotb>  (132) 
0.172265

>  <r_i_glide_esite>  (132) 
0

>  <r_i_glide_emodel>  (132) 
-20.1784

>  <r_i_glide_energy>  (132) 
-17.2548

>  <r_i_glide_einternal>  (132) 
1.02732e-05

>  <r_i_glide_intrahb_reward>  (132) 
-0

>  <i_i_glide_confnum>  (132) 
4

>  <i_i_glide_posenum>  (132) 
27

>  <r_i_glide_eff_state_penalty>  (132) 
0

>  <ligand_id>  (132) 
47

>  <original_smiles>  (132) 
Cc1nnnn1C1CC2OC3(C)CC4(C)CCC(C)C5(C)C14OC235

>  <smiles>  (132) 
[H]C([H])([H])c1nnnn1C1([H])C([H])([H])C2([H])OC3(C([H])([H])[H])C([H])([H])C4(C([H])([H])[H])C([H])([H])C([H])([H])C([H])(C([H])([H])[H])C5(C([H])([H])[H])C23OC145

$$$$
48:0:0
     RDKit          3D

 48 52  0  0  1  0  0  0  0  0999 V2000
    1.6774   -3.4916    3.7452 C   0  0  0  0  0  0  0  0  0  0  0  0
    2.7863   -2.8707    3.3099 C   0  0  0  0  0  0  0  0  0  0  0  0
    2.7503   -1.7464    2.3366 C   0  0  0  0  0  0  0  0  0  0  0  0
    1.8185   -0.9372    2.2911 O   0  0  0  0  0  0  0  0  0  0  0  0
    3.9576   -1.6451    1.3250 C   0  0  1  0  0  0  0  0  0  0  0  0
    3.9284   -0.2687    0.6363 C   0  0  0  0  0  0  0  0  0  0  0  0
    5.3018   -1.9412    2.0246 C   0  0  2  0  0  0  0  0  0  0  0  0
    6.5049   -1.8015    1.0695 C   0  0  0  0  0  0  0  0  0  0  0  0
    6.4594   -2.6841   -0.1866 C   0  0  1  0  0  0  0  0  0  0  0  0
    7.4563   -4.1798    0.0890 S   0  0  0  0  0  0  0  0  0  0  0  0
    8.8793   -3.8538   -0.9806 C   0  0  0  0  0  0  0  0  0  0  0  0
    5.0377   -3.0480   -0.6625 C   0  0  2  0  0  0  0  0  0  0  0  0
    4.5101   -2.3416   -1.9242 C   0  0  1  0  0  0  0  0  0  0  0  0
    5.1267   -2.8581   -3.2309 C   0  0  0  0  0  0  0  0  0  0  0  0
    2.9722   -2.4483   -1.8280 C   0  0  1  0  0  0  0  0  0  0  0  0
    2.2157   -3.0369   -3.0406 C   0  0  0  0  0  0  0  0  0  0  0  0
    2.6509   -3.0953   -0.4463 C   0  0  1  0  0  0  0  0  0  0  0  0
    2.3135   -4.4588   -0.5916 O   0  0  0  0  0  0  0  0  0  0  0  0
    3.9315   -2.9120    0.4001 C   0  0  2  0  0  0  0  0  0  0  0  0
    4.1827   -3.9335    1.3677 O   0  0  0  0  0  0  0  0  0  0  0  0
    4.9970   -3.3756    2.4171 C   0  0  1  0  0  0  0  0  0  0  0  0
    5.0160   -4.2987    3.6122 C   0  0  0  0  0  0  0  0  0  0  0  0
    5.4821   -5.2979    4.1507 O   0  0  0  0  0  0  0  0  0  0  0  0
    4.1896   -3.0807    3.7118 C   0  0  2  0  0  0  0  0  0  0  0  0
    1.7171   -4.2958    4.4639 H   0  0  0  0  0  0  0  0  0  0  0  0
    0.7110   -3.1971    3.3649 H   0  0  0  0  0  0  0  0  0  0  0  0
    4.7359   -0.1045   -0.0716 H   0  0  0  0  0  0  0  0  0  0  0  0
    3.9908    0.5364    1.3680 H   0  0  0  0  0  0  0  0  0  0  0  0
    2.9829   -0.1649    0.1104 H   0  0  0  0  0  0  0  0  0  0  0  0
    5.4694   -1.2850    2.8785 H   0  0  0  0  0  0  0  0  0  0  0  0
    6.6489   -0.7522    0.7940 H   0  0  0  0  0  0  0  0  0  0  0  0
    7.3892   -2.0673    1.6263 H   0  0  0  0  0  0  0  0  0  0  0  0
    6.9575   -2.1488   -0.9881 H   0  0  0  0  0  0  0  0  0  0  0  0
    9.5840   -4.6705   -0.8805 H   0  0  0  0  0  0  0  0  0  0  0  0
    9.3732   -2.9242   -0.7059 H   0  0  0  0  0  0  0  0  0  0  0  0
    8.5871   -3.8109   -2.0257 H   0  0  0  0  0  0  0  0  0  0  0  0
    5.0541   -4.1048   -0.9378 H   0  0  0  0  0  0  0  0  0  0  0  0
    4.7545   -1.2809   -1.8760 H   0  0  0  0  0  0  0  0  0  0  0  0
    4.9279   -3.9179   -3.3898 H   0  0  0  0  0  0  0  0  0  0  0  0
    6.2083   -2.7200   -3.2223 H   0  0  0  0  0  0  0  0  0  0  0  0
    4.7245   -2.3066   -4.0812 H   0  0  0  0  0  0  0  0  0  0  0  0
    2.6554   -1.4076   -1.7921 H   0  0  0  0  0  0  0  0  0  0  0  0
    2.5097   -4.0537   -3.2856 H   0  0  0  0  0  0  0  0  0  0  0  0
    2.3650   -2.4465   -3.9412 H   0  0  0  0  0  0  0  0  0  0  0  0
    1.1447   -3.0409   -2.8455 H   0  0  0  0  0  0  0  0  0  0  0  0
    1.7880   -2.6633    0.0417 H   0  0  0  0  0  0  0  0  0  0  0  0
    2.8347   -4.8335   -1.2916 H   0  0  0  0  0  0  0  0  0  0  0  0
    4.5034   -2.3099    4.4164 H   0  0  0  0  0  0  0  0  0  0  0  0
  1  2  2  0
  1 25  1  0
  1 26  1  0
  2 24  1  0
  2  3  1  0
  3  4  2  0
  3  5  1  0
  5 19  1  0
  5  6  1  6
  5  7  1  0
  6 27  1  0
  6 28  1  0
  6 29  1  0
  7 21  1  0
  7  8  1  0
  7 30  1  1
  8  9  1  0
  8 31  1  0
  8 32  1  0
  9 10  1  0
  9 12  1  0
  9 33  1  6
 10 11  1  0
 11 34  1  0
 11 35  1  0
 11 36  1  0
 12 19  1  0
 12 13  1  0
 12 37  1  6
 13 14  1  0
 13 15  1  0
 13 38  1  1
 14 39  1  0
 14 40  1  0
 14 41  1  0
 15 16  1  0
 15 17  1  0
 15 42  1  1
 16 43  1  0
 16 44  1  0
 16 45  1  0
 17 18  1  0
 17 19  1  0
 17 46  1  1
 18 47  1  0
 19 20  1  1
 21 20  1  6
 21 24  1  0
 21 22  1  0
 22 23  2  0
 22 24  1  0
 24 48  1  1
M  END
>  <i_m_ct_stereo_status>  (133) 
1

>  <s_m_source_file>  (133) 
/var/tmp/pbs.5076255.sched01/tmpcdf8lnea/434bzo3qpq.sdf

>  <i_m_source_file_index>  (133) 
15

>  <i_lp_mmshare_version>  (133) 
48012

>  <i_f3d_flags>  (133) 
0

>  <s_epik_input>  (133) 
Tz1DMUMoPVtDSDJdKVtDSF0oQzI9TylDMihPMylbQ0BIXShbQ0BdMShbQ0BdMzQ1KVtDSDNdKVtDSDJdW0NAQEhdKFNbQ0gzXSlbQ0BASF00W0NAQEhdKFtDSDNdKVtDQEBIXShbQ0gzXSlbQ0BIXTVbT0hd

>  <s_epik_cmdline>  (133) 
J2VwaWtfcHl0aG9uJywgJy1waHQnLCAnMi4wJywgJy1waCcsICc3LjAnLCAnLXRuJywgJzgnLCAnLW1hJywgJzIwMCcsICctaW1hZScsICc8aW5maWxlLm1hZT4nLCAnLW9tYWUnLCAnPG91dGZpbGUubWFlPic=

>  <r_lp_tautomer_probability>  (133) 
1

>  <r_epik_Ionization_Penalty>  (133) 
5.36832e-08

>  <r_epik_Ionization_Penalty_Charging>  (133) 
0

>  <r_epik_Ionization_Penalty_Neutral>  (133) 
5.36832e-08

>  <r_epik_State_Penalty>  (133) 
-0

>  <r_epik_Charging_Adjusted_Penalty>  (133) 
0

>  <i_epik_Tot_Q>  (133) 
0

>  <i_epik_Tot_abs_Q>  (133) 
0

>  <s_lp_Force_Field>  (133) 
OPLS3e

>  <r_lp_Energy>  (133) 
74.0505

>  <b_lp_Chiralities_Consistent>  (133) 
1

>  <s_lp_Variant>  (133) 
48:0-1

>  <s_i_glide_gridfile>  (133) 
pfpi4k_grid

>  <i_i_glide_lignum>  (133) 
15

>  <i_i_glide_rotatable_bonds>  (133) 
2

>  <r_i_docking_score>  (133) 
-3.34504

>  <r_i_glide_ligand_efficiency>  (133) 
-0.139377

>  <r_i_glide_ligand_efficiency_sa>  (133) 
-0.402032

>  <r_i_glide_ligand_efficiency_ln>  (133) 
-0.800621

>  <r_i_glide_gscore>  (133) 
-3.34504

>  <r_i_glide_lipo>  (133) 
-0.754115

>  <r_i_glide_hbond>  (133) 
0

>  <r_i_glide_metal>  (133) 
-0

>  <r_i_glide_rewards>  (133) 
-1.04773

>  <r_i_glide_evdw>  (133) 
-18.8356

>  <r_i_glide_ecoul>  (133) 
-3.94224

>  <r_i_glide_erotb>  (133) 
0

>  <r_i_glide_esite>  (133) 
-0.0100793

>  <r_i_glide_emodel>  (133) 
-25.835

>  <r_i_glide_energy>  (133) 
-22.7778

>  <r_i_glide_einternal>  (133) 
1.66053

>  <r_i_glide_intrahb_reward>  (133) 
-0

>  <i_i_glide_confnum>  (133) 
2

>  <i_i_glide_posenum>  (133) 
24

>  <r_i_glide_eff_state_penalty>  (133) 
0

>  <ligand_id>  (133) 
48

>  <original_smiles>  (133) 
C=C1C(=O)C2(C)C3CC(SC)C4C(C)C(C)C(O)C42OC32C(=O)C12

>  <smiles>  (133) 
[H]OC1([H])C([H])(C([H])([H])[H])C([H])(C([H])([H])[H])C2([H])C([H])(SC([H])([H])[H])C([H])([H])C3([H])C45OC12C3(C([H])([H])[H])C(=O)C(=C([H])[H])C4([H])C5=O

$$$$
48:0:1
     RDKit          3D

 48 52  0  0  1  0  0  0  0  0999 V2000
    5.0219   -3.8078   -2.9469 C   0  0  0  0  0  0  0  0  0  0  0  0
    5.2475   -2.8354   -2.0351 C   0  0  0  0  0  0  0  0  0  0  0  0
    5.9662   -3.0424   -0.7480 C   0  0  0  0  0  0  0  0  0  0  0  0
    6.9246   -3.7972   -0.6125 O   0  0  0  0  0  0  0  0  0  0  0  0
    5.4258   -2.1928    0.4749 C   0  0  1  0  0  0  0  0  0  0  0  0
    6.4873   -2.2409    1.6086 C   0  0  0  0  0  0  0  0  0  0  0  0
    5.0559   -0.7491    0.0498 C   0  0  2  0  0  0  0  0  0  0  0  0
    4.5980    0.0985    1.2496 C   0  0  0  0  0  0  0  0  0  0  0  0
    3.4325   -0.4387    2.0874 C   0  0  1  0  0  0  0  0  0  0  0  0
    1.9279    0.4998    1.6606 S   0  0  0  0  0  0  0  0  0  0  0  0
    0.7282    0.0259    2.9154 C   0  0  0  0  0  0  0  0  0  0  0  0
    3.2636   -1.9827    1.9986 C   0  0  2  0  0  0  0  0  0  0  0  0
    3.6479   -2.7905    3.2537 C   0  0  1  0  0  0  0  0  0  0  0  0
    2.6175   -2.6636    4.3880 C   0  0  0  0  0  0  0  0  0  0  0  0
    3.9476   -4.2270    2.7403 C   0  0  1  0  0  0  0  0  0  0  0  0
    3.1617   -5.3712    3.4193 C   0  0  0  0  0  0  0  0  0  0  0  0
    3.8569   -4.1937    1.1904 C   0  0  1  0  0  0  0  0  0  0  0  0
    2.5968   -4.6551    0.7851 O   0  0  0  0  0  0  0  0  0  0  0  0
    3.9968   -2.6911    0.8310 C   0  0  2  0  0  0  0  0  0  0  0  0
    3.2958   -2.2854   -0.3565 O   0  0  0  0  0  0  0  0  0  0  0  0
    3.9082   -1.1209   -0.9218 C   0  0  1  0  0  0  0  0  0  0  0  0
    3.5415   -0.9662   -2.4053 C   0  0  0  0  0  0  0  0  0  0  0  0
    2.7523   -0.5803   -3.2823 O   0  0  0  0  0  0  0  0  0  0  0  0
    4.8640   -1.4361   -2.1092 C   0  0  2  0  0  0  0  0  0  0  0  0
    4.4953   -3.6505   -3.8719 H   0  0  0  0  0  0  0  0  0  0  0  0
    5.3684   -4.7930   -2.7147 H   0  0  0  0  0  0  0  0  0  0  0  0
    6.2179   -1.6720    2.4899 H   0  0  0  0  0  0  0  0  0  0  0  0
    7.4194   -1.8245    1.2432 H   0  0  0  0  0  0  0  0  0  0  0  0
    6.6898   -3.2629    1.9263 H   0  0  0  0  0  0  0  0  0  0  0  0
    5.8961   -0.2470   -0.4004 H   0  0  0  0  0  0  0  0  0  0  0  0
    5.4549    0.2702    1.9109 H   0  0  0  0  0  0  0  0  0  0  0  0
    4.3045    1.0600    0.8536 H   0  0  0  0  0  0  0  0  0  0  0  0
    3.6049   -0.1558    3.1230 H   0  0  0  0  0  0  0  0  0  0  0  0
   -0.2160    0.5271    2.6959 H   0  0  0  0  0  0  0  0  0  0  0  0
    1.0966    0.3611    3.8833 H   0  0  0  0  0  0  0  0  0  0  0  0
    0.5493   -1.0499    2.9312 H   0  0  0  0  0  0  0  0  0  0  0  0
    2.2074   -2.1835    1.8290 H   0  0  0  0  0  0  0  0  0  0  0  0
    4.5796   -2.3937    3.6561 H   0  0  0  0  0  0  0  0  0  0  0  0
    1.6367   -3.0312    4.0888 H   0  0  0  0  0  0  0  0  0  0  0  0
    2.5012   -1.6269    4.7004 H   0  0  0  0  0  0  0  0  0  0  0  0
    2.9315   -3.2209    5.2691 H   0  0  0  0  0  0  0  0  0  0  0  0
    4.9903   -4.4105    2.9802 H   0  0  0  0  0  0  0  0  0  0  0  0
    2.0836   -5.2625    3.3148 H   0  0  0  0  0  0  0  0  0  0  0  0
    3.3850   -5.4194    4.4826 H   0  0  0  0  0  0  0  0  0  0  0  0
    3.4374   -6.3332    2.9936 H   0  0  0  0  0  0  0  0  0  0  0  0
    4.6117   -4.8439    0.7247 H   0  0  0  0  0  0  0  0  0  0  0  0
    1.9672   -3.9682    1.0381 H   0  0  0  0  0  0  0  0  0  0  0  0
    5.7015   -0.7974   -2.3640 H   0  0  0  0  0  0  0  0  0  0  0  0
  1  2  2  0
  1 25  1  0
  1 26  1  0
  2 24  1  0
  2  3  1  0
  3  4  2  0
  3  5  1  0
  5 19  1  0
  5  6  1  1
  5  7  1  0
  6 27  1  0
  6 28  1  0
  6 29  1  0
  7 21  1  0
  7  8  1  0
  7 30  1  6
  8  9  1  0
  8 31  1  0
  8 32  1  0
  9 10  1  0
  9 12  1  0
  9 33  1  1
 10 11  1  0
 11 34  1  0
 11 35  1  0
 11 36  1  0
 12 19  1  0
 12 13  1  0
 12 37  1  6
 13 14  1  0
 13 15  1  0
 13 38  1  1
 14 39  1  0
 14 40  1  0
 14 41  1  0
 15 16  1  0
 15 17  1  0
 15 42  1  6
 16 43  1  0
 16 44  1  0
 16 45  1  0
 17 18  1  0
 17 19  1  0
 17 46  1  6
 18 47  1  0
 19 20  1  6
 21 20  1  1
 21 24  1  0
 21 22  1  0
 22 23  2  0
 22 24  1  0
 24 48  1  1
M  END
>  <i_m_ct_stereo_status>  (134) 
1

>  <s_m_source_file>  (134) 
/var/tmp/pbs.5076255.sched01/tmpcdf8lnea/434bzo3qpq.sdf

>  <i_m_source_file_index>  (134) 
15

>  <i_lp_mmshare_version>  (134) 
48012

>  <i_f3d_flags>  (134) 
0

>  <s_epik_input>  (134) 
Tz1DMUMoPVtDSDJdKVtDSF0oQzI9TylDMihPMylbQ0BIXShbQ0BdMShbQ0BdMzQ1KVtDSDNdKVtDSDJdW0NAQEhdKFNbQ0gzXSlbQ0BASF00W0NAQEhdKFtDSDNdKVtDQEBIXShbQ0gzXSlbQ0BIXTVbT0hd

>  <s_epik_cmdline>  (134) 
J2VwaWtfcHl0aG9uJywgJy1waHQnLCAnMi4wJywgJy1waCcsICc3LjAnLCAnLXRuJywgJzgnLCAnLW1hJywgJzIwMCcsICctaW1hZScsICc8aW5maWxlLm1hZT4nLCAnLW9tYWUnLCAnPG91dGZpbGUubWFlPic=

>  <r_lp_tautomer_probability>  (134) 
1

>  <r_epik_Ionization_Penalty>  (134) 
5.36832e-08

>  <r_epik_Ionization_Penalty_Charging>  (134) 
0

>  <r_epik_Ionization_Penalty_Neutral>  (134) 
5.36832e-08

>  <r_epik_State_Penalty>  (134) 
-0

>  <r_epik_Charging_Adjusted_Penalty>  (134) 
0

>  <i_epik_Tot_Q>  (134) 
0

>  <i_epik_Tot_abs_Q>  (134) 
0

>  <s_lp_Force_Field>  (134) 
OPLS3e

>  <r_lp_Energy>  (134) 
74.0505

>  <b_lp_Chiralities_Consistent>  (134) 
1

>  <s_lp_Variant>  (134) 
48:0-1

>  <s_i_glide_gridfile>  (134) 
pfpi4k_grid

>  <i_i_glide_lignum>  (134) 
15

>  <i_i_glide_rotatable_bonds>  (134) 
2

>  <r_i_docking_score>  (134) 
-2.40731

>  <r_i_glide_ligand_efficiency>  (134) 
-0.100304

>  <r_i_glide_ligand_efficiency_sa>  (134) 
-0.289328

>  <r_i_glide_ligand_efficiency_ln>  (134) 
-0.576179

>  <r_i_glide_gscore>  (134) 
-2.40731

>  <r_i_glide_lipo>  (134) 
-0.359342

>  <r_i_glide_hbond>  (134) 
0

>  <r_i_glide_metal>  (134) 
-0

>  <r_i_glide_rewards>  (134) 
-1.08646

>  <r_i_glide_evdw>  (134) 
-19.9674

>  <r_i_glide_ecoul>  (134) 
0.531323

>  <r_i_glide_erotb>  (134) 
0

>  <r_i_glide_esite>  (134) 
-0.0428325

>  <r_i_glide_emodel>  (134) 
-21.5239

>  <r_i_glide_energy>  (134) 
-19.436

>  <r_i_glide_einternal>  (134) 
0.0750369

>  <r_i_glide_intrahb_reward>  (134) 
-0

>  <i_i_glide_confnum>  (134) 
1

>  <i_i_glide_posenum>  (134) 
15

>  <r_i_glide_eff_state_penalty>  (134) 
0

>  <ligand_id>  (134) 
48

>  <original_smiles>  (134) 
C=C1C(=O)C2(C)C3CC(SC)C4C(C)C(C)C(O)C42OC32C(=O)C12

>  <smiles>  (134) 
[H]OC1([H])C([H])(C([H])([H])[H])C([H])(C([H])([H])[H])C2([H])C([H])(SC([H])([H])[H])C([H])([H])C3([H])C45OC12C3(C([H])([H])[H])C(=O)C(=C([H])[H])C4([H])C5=O

$$$$
48:0:2
     RDKit          3D

 48 52  0  0  1  0  0  0  0  0999 V2000
    5.0014   -3.9393   -2.7613 C   0  0  0  0  0  0  0  0  0  0  0  0
    5.2444   -2.9968   -1.8528 C   0  0  0  0  0  0  0  0  0  0  0  0
    5.8190   -3.2374   -0.5006 C   0  0  0  0  0  0  0  0  0  0  0  0
    6.7028   -4.0849   -0.2704 O   0  0  0  0  0  0  0  0  0  0  0  0
    5.2681   -2.3576    0.6706 C   0  0  1  0  0  0  0  0  0  0  0  0
    6.1926   -2.4724    1.8888 C   0  0  0  0  0  0  0  0  0  0  0  0
    5.0650   -0.8985    0.2048 C   0  0  2  0  0  0  0  0  0  0  0  0
    4.5863    0.0003    1.3490 C   0  0  0  0  0  0  0  0  0  0  0  0
    3.3124   -0.4422    2.0753 C   0  0  1  0  0  0  0  0  0  0  0  0
    1.9271    0.5428    1.4597 S   0  0  0  0  0  0  0  0  0  0  0  0
    0.6062    0.3238    2.6647 C   0  0  0  0  0  0  0  0  0  0  0  0
    3.0171   -1.9533    1.9791 C   0  0  2  0  0  0  0  0  0  0  0  0
    3.2105   -2.7572    3.2749 C   0  0  1  0  0  0  0  0  0  0  0  0
    2.0962   -2.5198    4.3047 C   0  0  0  0  0  0  0  0  0  0  0  0
    3.4312   -4.2154    2.8116 C   0  0  1  0  0  0  0  0  0  0  0  0
    2.4976   -5.2760    3.4228 C   0  0  0  0  0  0  0  0  0  0  0  0
    3.5128   -4.2081    1.2571 C   0  0  1  0  0  0  0  0  0  0  0  0
    2.2748   -4.6179    0.7087 O   0  0  0  0  0  0  0  0  0  0  0  0
    3.7736   -2.7235    0.8847 C   0  0  2  0  0  0  0  0  0  0  0  0
    3.2287   -2.2935   -0.3694 O   0  0  0  0  0  0  0  0  0  0  0  0
    4.0070   -1.1632   -0.8589 C   0  0  1  0  0  0  0  0  0  0  0  0
    3.7409   -0.9531   -2.3532 C   0  0  0  0  0  0  0  0  0  0  0  0
    3.0335   -0.5178   -3.2620 O   0  0  0  0  0  0  0  0  0  0  0  0
    5.0014   -1.5661   -1.9750 C   0  0  2  0  0  0  0  0  0  0  0  0
    4.5852   -3.7648   -3.7464 H   0  0  0  0  0  0  0  0  0  0  0  0
    5.2227   -4.9562   -2.4824 H   0  0  0  0  0  0  0  0  0  0  0  0
    5.9212   -1.8576    2.7450 H   0  0  0  0  0  0  0  0  0  0  0  0
    7.1690   -2.1394    1.5599 H   0  0  0  0  0  0  0  0  0  0  0  0
    6.2942   -3.5018    2.2322 H   0  0  0  0  0  0  0  0  0  0  0  0
    5.9849   -0.4624   -0.1881 H   0  0  0  0  0  0  0  0  0  0  0  0
    5.3958    0.1329    2.0784 H   0  0  0  0  0  0  0  0  0  0  0  0
    4.4102    0.9655    0.8868 H   0  0  0  0  0  0  0  0  0  0  0  0
    3.4064   -0.1236    3.1151 H   0  0  0  0  0  0  0  0  0  0  0  0
   -0.2574    0.9117    2.3451 H   0  0  0  0  0  0  0  0  0  0  0  0
    0.9333    0.6808    3.6425 H   0  0  0  0  0  0  0  0  0  0  0  0
    0.3095   -0.7218    2.7196 H   0  0  0  0  0  0  0  0  0  0  0  0
    1.9581   -2.0600    1.7143 H   0  0  0  0  0  0  0  0  0  0  0  0
    4.1266   -2.4272    3.7559 H   0  0  0  0  0  0  0  0  0  0  0  0
    1.1199   -2.8097    3.9235 H   0  0  0  0  0  0  0  0  0  0  0  0
    2.0416   -1.4684    4.5958 H   0  0  0  0  0  0  0  0  0  0  0  0
    2.2866   -3.0798    5.2170 H   0  0  0  0  0  0  0  0  0  0  0  0
    4.4294   -4.4730    3.1507 H   0  0  0  0  0  0  0  0  0  0  0  0
    1.4428   -5.0795    3.2142 H   0  0  0  0  0  0  0  0  0  0  0  0
    2.6164   -5.3162    4.4999 H   0  0  0  0  0  0  0  0  0  0  0  0
    2.7309   -6.2683    3.0361 H   0  0  0  0  0  0  0  0  0  0  0  0
    4.2613   -4.9180    0.8783 H   0  0  0  0  0  0  0  0  0  0  0  0
    2.3478   -4.5155   -0.2238 H   0  0  0  0  0  0  0  0  0  0  0  0
    5.9377   -1.0431   -2.1531 H   0  0  0  0  0  0  0  0  0  0  0  0
  1  2  2  0
  1 25  1  0
  1 26  1  0
  2 24  1  0
  2  3  1  0
  3  4  2  0
  3  5  1  0
  5 19  1  0
  5  6  1  1
  5  7  1  0
  6 27  1  0
  6 28  1  0
  6 29  1  0
  7 21  1  0
  7  8  1  0
  7 30  1  6
  8  9  1  0
  8 31  1  0
  8 32  1  0
  9 10  1  0
  9 12  1  0
  9 33  1  1
 10 11  1  0
 11 34  1  0
 11 35  1  0
 11 36  1  0
 12 19  1  0
 12 13  1  0
 12 37  1  6
 13 14  1  0
 13 15  1  0
 13 38  1  1
 14 39  1  0
 14 40  1  0
 14 41  1  0
 15 16  1  0
 15 17  1  0
 15 42  1  1
 16 43  1  0
 16 44  1  0
 16 45  1  0
 17 18  1  0
 17 19  1  0
 17 46  1  1
 18 47  1  0
 19 20  1  6
 21 20  1  1
 21 24  1  0
 21 22  1  0
 22 23  2  0
 22 24  1  0
 24 48  1  1
M  END
>  <i_m_ct_stereo_status>  (135) 
1

>  <s_m_source_file>  (135) 
/var/tmp/pbs.5076255.sched01/tmpcdf8lnea/434bzo3qpq.sdf

>  <i_m_source_file_index>  (135) 
15

>  <i_lp_mmshare_version>  (135) 
48012

>  <i_f3d_flags>  (135) 
0

>  <s_epik_input>  (135) 
Tz1DMUMoPVtDSDJdKVtDSF0oQzI9TylDMihPMylbQ0BIXShbQ0BdMShbQ0BdMzQ1KVtDSDNdKVtDSDJdW0NAQEhdKFNbQ0gzXSlbQ0BASF00W0NAQEhdKFtDSDNdKVtDQEBIXShbQ0gzXSlbQ0BIXTVbT0hd

>  <s_epik_cmdline>  (135) 
J2VwaWtfcHl0aG9uJywgJy1waHQnLCAnMi4wJywgJy1waCcsICc3LjAnLCAnLXRuJywgJzgnLCAnLW1hJywgJzIwMCcsICctaW1hZScsICc8aW5maWxlLm1hZT4nLCAnLW9tYWUnLCAnPG91dGZpbGUubWFlPic=

>  <r_lp_tautomer_probability>  (135) 
1

>  <r_epik_Ionization_Penalty>  (135) 
5.36832e-08

>  <r_epik_Ionization_Penalty_Charging>  (135) 
0

>  <r_epik_Ionization_Penalty_Neutral>  (135) 
5.36832e-08

>  <r_epik_State_Penalty>  (135) 
-0

>  <r_epik_Charging_Adjusted_Penalty>  (135) 
0

>  <i_epik_Tot_Q>  (135) 
0

>  <i_epik_Tot_abs_Q>  (135) 
0

>  <s_lp_Force_Field>  (135) 
OPLS3e

>  <r_lp_Energy>  (135) 
74.0505

>  <b_lp_Chiralities_Consistent>  (135) 
1

>  <s_lp_Variant>  (135) 
48:0-1

>  <s_i_glide_gridfile>  (135) 
pfpi4k_grid

>  <i_i_glide_lignum>  (135) 
15

>  <i_i_glide_rotatable_bonds>  (135) 
2

>  <r_i_docking_score>  (135) 
-2.38305

>  <r_i_glide_ligand_efficiency>  (135) 
-0.0992937

>  <r_i_glide_ligand_efficiency_sa>  (135) 
-0.286413

>  <r_i_glide_ligand_efficiency_ln>  (135) 
-0.570373

>  <r_i_glide_gscore>  (135) 
-2.38305

>  <r_i_glide_lipo>  (135) 
-0.323636

>  <r_i_glide_hbond>  (135) 
0

>  <r_i_glide_metal>  (135) 
-0

>  <r_i_glide_rewards>  (135) 
-1.11686

>  <r_i_glide_evdw>  (135) 
-18.6376

>  <r_i_glide_ecoul>  (135) 
0.138056

>  <r_i_glide_erotb>  (135) 
0

>  <r_i_glide_esite>  (135) 
-0.031386

>  <r_i_glide_emodel>  (135) 
-20.9701

>  <r_i_glide_energy>  (135) 
-18.4995

>  <r_i_glide_einternal>  (135) 
0.327339

>  <r_i_glide_intrahb_reward>  (135) 
-0

>  <i_i_glide_confnum>  (135) 
2

>  <i_i_glide_posenum>  (135) 
11

>  <r_i_glide_eff_state_penalty>  (135) 
0

>  <ligand_id>  (135) 
48

>  <original_smiles>  (135) 
C=C1C(=O)C2(C)C3CC(SC)C4C(C)C(C)C(O)C42OC32C(=O)C12

>  <smiles>  (135) 
[H]OC1([H])C([H])(C([H])([H])[H])C([H])(C([H])([H])[H])C2([H])C([H])(SC([H])([H])[H])C([H])([H])C3([H])C45OC12C3(C([H])([H])[H])C(=O)C(=C([H])[H])C4([H])C5=O

$$$$
49:0:0
     RDKit          3D

 62 64  0  0  1  0  0  0  0  0999 V2000
    5.2915   -1.0547   -1.5169 C   0  0  0  0  0  0  0  0  0  0  0  0
    5.9464   -2.1369   -1.0464 C   0  0  0  0  0  0  0  0  0  0  0  0
    7.3483   -2.4438   -1.5745 C   0  0  0  0  0  0  0  0  0  0  0  0
    5.3145   -3.1053   -0.0027 C   0  0  1  0  0  0  0  0  0  0  0  0
    6.3780   -3.7188    0.9032 C   0  0  0  0  0  0  0  0  0  0  0  0
    7.3740   -3.0859    1.2395 O   0  0  0  0  0  0  0  0  0  0  0  0
    6.0372   -5.0556    1.3809 C   0  0  0  0  0  0  0  0  0  0  0  0
    7.0312   -5.9837    1.5163 C   0  0  0  0  0  0  0  0  0  0  0  0
    6.7959   -7.4840    1.6616 C   0  0  0  0  0  0  0  0  0  0  0  0
    8.5199   -5.6694    1.4525 C   0  0  0  0  0  0  0  0  0  0  0  0
    4.5092   -5.3722    1.4208 C   0  0  1  0  0  0  0  0  0  0  0  0
    4.2335   -6.0310    2.7955 C   0  0  0  0  0  0  0  0  0  0  0  0
    4.7538   -5.0210    3.7189 O   0  0  0  0  0  0  0  0  0  0  0  0
    4.2525   -3.6371    3.6820 C   0  0  1  0  0  0  0  0  0  0  0  0
    3.0689   -3.7033    4.6794 C   0  0  0  0  0  0  0  0  0  0  0  0
    5.3885   -2.7761    4.2719 C   0  0  0  0  0  0  0  0  0  0  0  0
    5.0038   -1.3808    4.7913 C   0  0  0  0  0  0  0  0  0  0  0  0
    3.7188   -3.1078    2.2692 C   0  0  2  0  0  0  0  0  0  0  0  0
    3.3594   -4.3536    1.5964 C   0  0  0  0  0  0  0  0  0  0  0  0
    2.1949   -4.5958    1.2918 O   0  0  0  0  0  0  0  0  0  0  0  0
    4.4029   -2.3269    1.0695 C   0  0  1  0  0  0  0  0  0  0  0  0
    5.0087   -1.1414    1.5611 O   0  0  0  0  0  0  0  0  0  0  0  0
    4.2821   -5.6830   -0.0729 C   0  0  0  0  0  0  0  0  0  0  0  0
    4.6414   -4.3189   -0.8586 C   0  0  1  0  0  0  0  0  0  0  0  0
    3.4506   -3.8232   -1.6821 C   0  0  0  0  0  0  0  0  0  0  0  0
    3.4232   -3.4421   -2.9774 C   0  0  0  0  0  0  0  0  0  0  0  0
    4.6117   -3.3916   -3.9190 C   0  0  0  0  0  0  0  0  0  0  0  0
    2.1292   -2.9955   -3.6219 C   0  0  0  0  0  0  0  0  0  0  0  0
    5.7376   -0.4070   -2.2529 H   0  0  0  0  0  0  0  0  0  0  0  0
    4.2976   -0.7913   -1.1899 H   0  0  0  0  0  0  0  0  0  0  0  0
    7.4476   -3.4955   -1.8449 H   0  0  0  0  0  0  0  0  0  0  0  0
    8.1291   -2.1929   -0.8596 H   0  0  0  0  0  0  0  0  0  0  0  0
    7.5801   -1.8798   -2.4657 H   0  0  0  0  0  0  0  0  0  0  0  0
    7.4899   -8.0376    1.0275 H   0  0  0  0  0  0  0  0  0  0  0  0
    5.8037   -7.7954    1.3374 H   0  0  0  0  0  0  0  0  0  0  0  0
    6.9565   -7.8029    2.6930 H   0  0  0  0  0  0  0  0  0  0  0  0
    9.0929   -6.5849    1.5737 H   0  0  0  0  0  0  0  0  0  0  0  0
    8.8122   -4.9950    2.2618 H   0  0  0  0  0  0  0  0  0  0  0  0
    8.7900   -5.2237    0.4933 H   0  0  0  0  0  0  0  0  0  0  0  0
    3.1842   -6.2710    3.0008 H   0  0  0  0  0  0  0  0  0  0  0  0
    4.7497   -6.9614    2.9847 H   0  0  0  0  0  0  0  0  0  0  0  0
    2.5714   -2.7404    4.7949 H   0  0  0  0  0  0  0  0  0  0  0  0
    3.4020   -4.0166    5.6698 H   0  0  0  0  0  0  0  0  0  0  0  0
    2.3067   -4.4155    4.3608 H   0  0  0  0  0  0  0  0  0  0  0  0
    5.8567   -3.3243    5.0925 H   0  0  0  0  0  0  0  0  0  0  0  0
    6.1460   -2.6602    3.5036 H   0  0  0  0  0  0  0  0  0  0  0  0
    5.8974   -0.8005    5.0186 H   0  0  0  0  0  0  0  0  0  0  0  0
    4.4195   -1.4410    5.7100 H   0  0  0  0  0  0  0  0  0  0  0  0
    4.4279   -0.8149    4.0605 H   0  0  0  0  0  0  0  0  0  0  0  0
    2.8105   -2.5468    2.4825 H   0  0  0  0  0  0  0  0  0  0  0  0
    3.5558   -1.9435    0.4952 H   0  0  0  0  0  0  0  0  0  0  0  0
    4.3486   -0.6234    1.9949 H   0  0  0  0  0  0  0  0  0  0  0  0
    4.9337   -6.4939   -0.3982 H   0  0  0  0  0  0  0  0  0  0  0  0
    3.2804   -6.0473   -0.3131 H   0  0  0  0  0  0  0  0  0  0  0  0
    5.3925   -4.6385   -1.5769 H   0  0  0  0  0  0  0  0  0  0  0  0
    2.5156   -3.7866   -1.1429 H   0  0  0  0  0  0  0  0  0  0  0  0
    4.4514   -4.0664   -4.7547 H   0  0  0  0  0  0  0  0  0  0  0  0
    5.5616   -3.6547   -3.4572 H   0  0  0  0  0  0  0  0  0  0  0  0
    4.6907   -2.3749   -4.3056 H   0  0  0  0  0  0  0  0  0  0  0  0
    1.8883   -3.6209   -4.4798 H   0  0  0  0  0  0  0  0  0  0  0  0
    2.2154   -1.9632   -3.9625 H   0  0  0  0  0  0  0  0  0  0  0  0
    1.3006   -3.0547   -2.9182 H   0  0  0  0  0  0  0  0  0  0  0  0
  1  2  2  0
  1 29  1  0
  1 30  1  0
  2  3  1  0
  4  2  1  6
  3 31  1  0
  3 32  1  0
  3 33  1  0
  4 21  1  0
  4 24  1  0
  4  5  1  0
  5  6  2  0
  5  7  1  0
  7  8  2  3
  7 11  1  0
  8  9  1  0
  8 10  1  0
  9 34  1  0
  9 35  1  0
  9 36  1  0
 10 37  1  0
 10 38  1  0
 10 39  1  0
 11 19  1  0
 11 12  1  1
 11 23  1  0
 12 13  1  0
 12 40  1  0
 12 41  1  0
 13 14  1  0
 14 15  1  1
 14 16  1  0
 14 18  1  0
 15 42  1  0
 15 43  1  0
 15 44  1  0
 16 17  1  0
 16 45  1  0
 16 46  1  0
 17 47  1  0
 17 48  1  0
 17 49  1  0
 18 19  1  0
 18 21  1  0
 18 50  1  1
 19 20  2  0
 21 22  1  0
 21 51  1  6
 22 52  1  0
 23 24  1  0
 23 53  1  0
 23 54  1  0
 24 25  1  0
 24 55  1  6
 25 26  2  3
 25 56  1  0
 26 27  1  0
 26 28  1  0
 27 57  1  0
 27 58  1  0
 27 59  1  0
 28 60  1  0
 28 61  1  0
 28 62  1  0
M  END
>  <i_m_ct_stereo_status>  (136) 
1

>  <s_m_source_file>  (136) 
/var/tmp/pbs.5076255.sched01/tmpcdf8lnea/434bzo3qpq.sdf

>  <i_m_source_file_index>  (136) 
17

>  <i_lp_mmshare_version>  (136) 
48012

>  <i_f3d_flags>  (136) 
0

>  <s_epik_input>  (136) 
W0NIM11DKFtDSDNdKT1DKFtDQEBdMTIzKUMoPU8pW0NAQF0oQyg9W0NIMl0pW0NIM10pKFtDQEBIXShbQ0gyXTMpW0NIXT1DKFtDSDNdKVtDSDNdKVtDQEhdKFtPSF0pW0NIXShDMj1PKVtDQEBdKFtDSDNdKShPW0NIMl0xKVtDSDJdW0NIM10=

>  <s_epik_cmdline>  (136) 
J2VwaWtfcHl0aG9uJywgJy1waHQnLCAnMi4wJywgJy1waCcsICc3LjAnLCAnLXRuJywgJzgnLCAnLW1hJywgJzIwMCcsICctaW1hZScsICc8aW5maWxlLm1hZT4nLCAnLW9tYWUnLCAnPG91dGZpbGUubWFlPic=

>  <r_lp_tautomer_probability>  (136) 
1

>  <r_epik_Ionization_Penalty>  (136) 
2.20007e-05

>  <r_epik_Ionization_Penalty_Charging>  (136) 
0

>  <r_epik_Ionization_Penalty_Neutral>  (136) 
2.20007e-05

>  <r_epik_State_Penalty>  (136) 
-0

>  <r_epik_Charging_Adjusted_Penalty>  (136) 
0

>  <i_epik_Tot_Q>  (136) 
0

>  <i_epik_Tot_abs_Q>  (136) 
0

>  <s_lp_Force_Field>  (136) 
OPLS3e

>  <r_lp_Energy>  (136) 
111.468

>  <b_lp_Chiralities_Consistent>  (136) 
1

>  <s_lp_Variant>  (136) 
49:0-1

>  <s_i_glide_gridfile>  (136) 
pfpi4k_grid

>  <i_i_glide_lignum>  (136) 
17

>  <i_i_glide_rotatable_bonds>  (136) 
4

>  <r_i_docking_score>  (136) 
-2.60168

>  <r_i_glide_ligand_efficiency>  (136) 
-0.0929173

>  <r_i_glide_ligand_efficiency_sa>  (136) 
-0.282152

>  <r_i_glide_ligand_efficiency_ln>  (136) 
-0.600545

>  <r_i_glide_gscore>  (136) 
-2.60168

>  <r_i_glide_lipo>  (136) 
-0.788625

>  <r_i_glide_hbond>  (136) 
-0.00805932

>  <r_i_glide_metal>  (136) 
-0

>  <r_i_glide_rewards>  (136) 
-0.899733

>  <r_i_glide_evdw>  (136) 
-20.3274

>  <r_i_glide_ecoul>  (136) 
-0.996401

>  <r_i_glide_erotb>  (136) 
0.260564

>  <r_i_glide_esite>  (136) 
0

>  <r_i_glide_emodel>  (136) 
-22.7643

>  <r_i_glide_energy>  (136) 
-21.3238

>  <r_i_glide_einternal>  (136) 
2.64943

>  <r_i_glide_intrahb_reward>  (136) 
-0

>  <i_i_glide_confnum>  (136) 
2

>  <i_i_glide_posenum>  (136) 
9

>  <r_i_glide_eff_state_penalty>  (136) 
0

>  <ligand_id>  (136) 
49

>  <original_smiles>  (136) 
C=C(C)C12C(=O)C(=C(C)C)C3(COC(C)(CC)C(C3=O)C1O)CC2C=C(C)C

>  <smiles>  (136) 
[H]OC1([H])C2([H])C(=O)C3(C(=C(C([H])([H])[H])C([H])([H])[H])C(=O)C1(C(=C([H])[H])C([H])([H])[H])C([H])(C([H])=C(C([H])([H])[H])C([H])([H])[H])C3([H])[H])C([H])([H])OC2(C([H])([H])[H])C([H])([H])C([H])([H])[H]

$$$$
49:0:1
     RDKit          3D

 62 64  0  0  1  0  0  0  0  0999 V2000
    5.3449   -1.0188   -1.4410 C   0  0  0  0  0  0  0  0  0  0  0  0
    5.9169   -2.1965   -1.0700 C   0  0  0  0  0  0  0  0  0  0  0  0
    7.2313   -2.6433   -1.7172 C   0  0  0  0  0  0  0  0  0  0  0  0
    5.2714   -3.1252   -0.0115 C   0  0  1  0  0  0  0  0  0  0  0  0
    6.3381   -3.7520    0.8733 C   0  0  0  0  0  0  0  0  0  0  0  0
    7.3349   -3.1100    1.1803 O   0  0  0  0  0  0  0  0  0  0  0  0
    5.9719   -5.0758    1.3833 C   0  0  0  0  0  0  0  0  0  0  0  0
    6.9471   -6.0186    1.5318 C   0  0  0  0  0  0  0  0  0  0  0  0
    6.6798   -7.5157    1.6995 C   0  0  0  0  0  0  0  0  0  0  0  0
    8.4416   -5.7376    1.4646 C   0  0  0  0  0  0  0  0  0  0  0  0
    4.4493   -5.3796    1.4310 C   0  0  1  0  0  0  0  0  0  0  0  0
    4.1571   -6.0163    2.8139 C   0  0  0  0  0  0  0  0  0  0  0  0
    4.7027   -5.0152    3.7218 O   0  0  0  0  0  0  0  0  0  0  0  0
    4.2197   -3.6303    3.6808 C   0  0  1  0  0  0  0  0  0  0  0  0
    3.0173   -3.6265    4.6596 C   0  0  0  0  0  0  0  0  0  0  0  0
    5.3505   -2.7436    4.2508 C   0  0  0  0  0  0  0  0  0  0  0  0
    5.9519   -3.2223    5.5969 C   0  0  0  0  0  0  0  0  0  0  0  0
    3.6968   -3.1027    2.2614 C   0  0  2  0  0  0  0  0  0  0  0  0
    3.3222   -4.3423    1.5893 C   0  0  0  0  0  0  0  0  0  0  0  0
    2.1535   -4.5987    1.3481 O   0  0  0  0  0  0  0  0  0  0  0  0
    4.3857   -2.3276    1.0705 C   0  0  1  0  0  0  0  0  0  0  0  0
    5.0161   -1.1661    1.5938 O   0  0  0  0  0  0  0  0  0  0  0  0
    4.1998   -5.6955   -0.0539 C   0  0  0  0  0  0  0  0  0  0  0  0
    4.5686   -4.3317   -0.8481 C   0  0  1  0  0  0  0  0  0  0  0  0
    3.3864   -3.8315   -1.6718 C   0  0  0  0  0  0  0  0  0  0  0  0
    3.3701   -3.4357   -2.9831 C   0  0  0  0  0  0  0  0  0  0  0  0
    4.5525   -3.3951   -3.9172 C   0  0  0  0  0  0  0  0  0  0  0  0
    2.0877   -2.9850   -3.6258 C   0  0  0  0  0  0  0  0  0  0  0  0
    5.7636   -0.3917   -2.2027 H   0  0  0  0  0  0  0  0  0  0  0  0
    4.4353   -0.6586   -0.9927 H   0  0  0  0  0  0  0  0  0  0  0  0
    7.2062   -3.6940   -2.0158 H   0  0  0  0  0  0  0  0  0  0  0  0
    8.0948   -2.5126   -1.0679 H   0  0  0  0  0  0  0  0  0  0  0  0
    7.4476   -2.1232   -2.6328 H   0  0  0  0  0  0  0  0  0  0  0  0
    7.3593   -8.0900    1.0728 H   0  0  0  0  0  0  0  0  0  0  0  0
    5.6811   -7.8137    1.3793 H   0  0  0  0  0  0  0  0  0  0  0  0
    6.8333   -7.8271    2.7359 H   0  0  0  0  0  0  0  0  0  0  0  0
    9.0174   -6.6557    1.5945 H   0  0  0  0  0  0  0  0  0  0  0  0
    8.7351   -5.0503    2.2645 H   0  0  0  0  0  0  0  0  0  0  0  0
    8.7058   -5.3098    0.4987 H   0  0  0  0  0  0  0  0  0  0  0  0
    3.1021   -6.2154    3.0195 H   0  0  0  0  0  0  0  0  0  0  0  0
    4.6350   -6.9610    3.0167 H   0  0  0  0  0  0  0  0  0  0  0  0
    2.5736   -2.6350    4.7628 H   0  0  0  0  0  0  0  0  0  0  0  0
    3.2835   -3.9648    5.6585 H   0  0  0  0  0  0  0  0  0  0  0  0
    2.2306   -4.3035    4.3283 H   0  0  0  0  0  0  0  0  0  0  0  0
    6.1373   -2.7118    3.5067 H   0  0  0  0  0  0  0  0  0  0  0  0
    4.9969   -1.7161    4.3576 H   0  0  0  0  0  0  0  0  0  0  0  0
    6.6590   -2.5036    5.9967 H   0  0  0  0  0  0  0  0  0  0  0  0
    6.4789   -4.1728    5.4719 H   0  0  0  0  0  0  0  0  0  0  0  0
    5.2081   -3.3480    6.3848 H   0  0  0  0  0  0  0  0  0  0  0  0
    2.8025   -2.5207    2.4648 H   0  0  0  0  0  0  0  0  0  0  0  0
    3.5411   -1.9251    0.5017 H   0  0  0  0  0  0  0  0  0  0  0  0
    5.7758   -1.4290    2.0995 H   0  0  0  0  0  0  0  0  0  0  0  0
    4.8359   -6.5158   -0.3819 H   0  0  0  0  0  0  0  0  0  0  0  0
    3.1907   -6.0430   -0.2841 H   0  0  0  0  0  0  0  0  0  0  0  0
    5.2886   -4.6844   -1.5869 H   0  0  0  0  0  0  0  0  0  0  0  0
    2.4491   -3.7809   -1.1461 H   0  0  0  0  0  0  0  0  0  0  0  0
    4.3860   -4.0510   -4.7629 H   0  0  0  0  0  0  0  0  0  0  0  0
    5.4936   -3.6954   -3.4678 H   0  0  0  0  0  0  0  0  0  0  0  0
    4.6523   -2.3705   -4.2853 H   0  0  0  0  0  0  0  0  0  0  0  0
    1.8562   -3.6015   -4.4933 H   0  0  0  0  0  0  0  0  0  0  0  0
    2.1872   -1.9466   -3.9572 H   0  0  0  0  0  0  0  0  0  0  0  0
    1.2551   -3.0482   -2.9250 H   0  0  0  0  0  0  0  0  0  0  0  0
  1  2  2  0
  1 29  1  0
  1 30  1  0
  2  3  1  0
  4  2  1  6
  3 31  1  0
  3 32  1  0
  3 33  1  0
  4 21  1  0
  4 24  1  0
  4  5  1  0
  5  6  2  0
  5  7  1  0
  7  8  2  3
  7 11  1  0
  8  9  1  0
  8 10  1  0
  9 34  1  0
  9 35  1  0
  9 36  1  0
 10 37  1  0
 10 38  1  0
 10 39  1  0
 11 19  1  0
 11 12  1  1
 11 23  1  0
 12 13  1  0
 12 40  1  0
 12 41  1  0
 13 14  1  0
 14 15  1  1
 14 16  1  0
 14 18  1  0
 15 42  1  0
 15 43  1  0
 15 44  1  0
 16 17  1  0
 16 45  1  0
 16 46  1  0
 17 47  1  0
 17 48  1  0
 17 49  1  0
 18 19  1  0
 18 21  1  0
 18 50  1  1
 19 20  2  0
 21 22  1  0
 21 51  1  6
 22 52  1  0
 23 24  1  0
 23 53  1  0
 23 54  1  0
 24 25  1  0
 24 55  1  6
 25 26  2  3
 25 56  1  0
 26 27  1  0
 26 28  1  0
 27 57  1  0
 27 58  1  0
 27 59  1  0
 28 60  1  0
 28 61  1  0
 28 62  1  0
M  END
>  <i_m_ct_stereo_status>  (137) 
1

>  <s_m_source_file>  (137) 
/var/tmp/pbs.5076255.sched01/tmpcdf8lnea/434bzo3qpq.sdf

>  <i_m_source_file_index>  (137) 
17

>  <i_lp_mmshare_version>  (137) 
48012

>  <i_f3d_flags>  (137) 
0

>  <s_epik_input>  (137) 
W0NIM11DKFtDSDNdKT1DKFtDQEBdMTIzKUMoPU8pW0NAQF0oQyg9W0NIMl0pW0NIM10pKFtDQEBIXShbQ0gyXTMpW0NIXT1DKFtDSDNdKVtDSDNdKVtDQEhdKFtPSF0pW0NIXShDMj1PKVtDQEBdKFtDSDNdKShPW0NIMl0xKVtDSDJdW0NIM10=

>  <s_epik_cmdline>  (137) 
J2VwaWtfcHl0aG9uJywgJy1waHQnLCAnMi4wJywgJy1waCcsICc3LjAnLCAnLXRuJywgJzgnLCAnLW1hJywgJzIwMCcsICctaW1hZScsICc8aW5maWxlLm1hZT4nLCAnLW9tYWUnLCAnPG91dGZpbGUubWFlPic=

>  <r_lp_tautomer_probability>  (137) 
1

>  <r_epik_Ionization_Penalty>  (137) 
2.20007e-05

>  <r_epik_Ionization_Penalty_Charging>  (137) 
0

>  <r_epik_Ionization_Penalty_Neutral>  (137) 
2.20007e-05

>  <r_epik_State_Penalty>  (137) 
-0

>  <r_epik_Charging_Adjusted_Penalty>  (137) 
0

>  <i_epik_Tot_Q>  (137) 
0

>  <i_epik_Tot_abs_Q>  (137) 
0

>  <s_lp_Force_Field>  (137) 
OPLS3e

>  <r_lp_Energy>  (137) 
111.468

>  <b_lp_Chiralities_Consistent>  (137) 
1

>  <s_lp_Variant>  (137) 
49:0-1

>  <s_i_glide_gridfile>  (137) 
pfpi4k_grid

>  <i_i_glide_lignum>  (137) 
17

>  <i_i_glide_rotatable_bonds>  (137) 
4

>  <r_i_docking_score>  (137) 
-2.46744

>  <r_i_glide_ligand_efficiency>  (137) 
-0.0881229

>  <r_i_glide_ligand_efficiency_sa>  (137) 
-0.267593

>  <r_i_glide_ligand_efficiency_ln>  (137) 
-0.569558

>  <r_i_glide_gscore>  (137) 
-2.46744

>  <r_i_glide_lipo>  (137) 
-0.735641

>  <r_i_glide_hbond>  (137) 
-0.00962294

>  <r_i_glide_metal>  (137) 
-0

>  <r_i_glide_rewards>  (137) 
-0.899759

>  <r_i_glide_evdw>  (137) 
-19.9109

>  <r_i_glide_ecoul>  (137) 
-0.582898

>  <r_i_glide_erotb>  (137) 
0.260564

>  <r_i_glide_esite>  (137) 
0

>  <r_i_glide_emodel>  (137) 
-22.3934

>  <r_i_glide_energy>  (137) 
-20.4938

>  <r_i_glide_einternal>  (137) 
1.16892

>  <r_i_glide_intrahb_reward>  (137) 
-0

>  <i_i_glide_confnum>  (137) 
2

>  <i_i_glide_posenum>  (137) 
1

>  <r_i_glide_eff_state_penalty>  (137) 
0

>  <ligand_id>  (137) 
49

>  <original_smiles>  (137) 
C=C(C)C12C(=O)C(=C(C)C)C3(COC(C)(CC)C(C3=O)C1O)CC2C=C(C)C

>  <smiles>  (137) 
[H]OC1([H])C2([H])C(=O)C3(C(=C(C([H])([H])[H])C([H])([H])[H])C(=O)C1(C(=C([H])[H])C([H])([H])[H])C([H])(C([H])=C(C([H])([H])[H])C([H])([H])[H])C3([H])[H])C([H])([H])OC2(C([H])([H])[H])C([H])([H])C([H])([H])[H]

$$$$
49:0:2
     RDKit          3D

 62 64  0  0  1  0  0  0  0  0999 V2000
    5.0925   -0.9532   -1.9819 C   0  0  0  0  0  0  0  0  0  0  0  0
    5.7612   -1.9864   -1.3957 C   0  0  0  0  0  0  0  0  0  0  0  0
    7.1056   -2.5421   -1.9204 C   0  0  0  0  0  0  0  0  0  0  0  0
    5.2354   -2.6607   -0.1100 C   0  0  1  0  0  0  0  0  0  0  0  0
    6.3834   -3.0109    0.8415 C   0  0  0  0  0  0  0  0  0  0  0  0
    7.3880   -2.2989    0.9061 O   0  0  0  0  0  0  0  0  0  0  0  0
    6.0922   -4.1853    1.6631 C   0  0  0  0  0  0  0  0  0  0  0  0
    7.1054   -5.0487    1.9597 C   0  0  0  0  0  0  0  0  0  0  0  0
    6.8584   -6.4403    2.5370 C   0  0  0  0  0  0  0  0  0  0  0  0
    8.5948   -4.8266    1.6367 C   0  0  0  0  0  0  0  0  0  0  0  0
    4.5453   -4.4671    1.8778 C   0  0  1  0  0  0  0  0  0  0  0  0
    4.3726   -4.7200    3.4055 C   0  0  0  0  0  0  0  0  0  0  0  0
    4.9364   -3.4993    3.9965 O   0  0  0  0  0  0  0  0  0  0  0  0
    4.3825   -2.1865    3.6278 C   0  0  1  0  0  0  0  0  0  0  0  0
    3.2320   -1.9748    4.6336 C   0  0  0  0  0  0  0  0  0  0  0  0
    5.4728   -1.1251    3.8591 C   0  0  0  0  0  0  0  0  0  0  0  0
    5.9429   -0.9647    5.3292 C   0  0  0  0  0  0  0  0  0  0  0  0
    3.7706   -2.0725    2.1632 C   0  0  2  0  0  0  0  0  0  0  0  0
    3.3685   -3.4388    1.8540 C   0  0  0  0  0  0  0  0  0  0  0  0
    2.1846   -3.7423    1.7175 O   0  0  0  0  0  0  0  0  0  0  0  0
    4.3834   -1.6125    0.7755 C   0  0  1  0  0  0  0  0  0  0  0  0
    5.0045   -0.3507    0.9394 O   0  0  0  0  0  0  0  0  0  0  0  0
    4.2326   -5.1546    0.5402 C   0  0  0  0  0  0  0  0  0  0  0  0
    4.5192   -4.0440   -0.5996 C   0  0  1  0  0  0  0  0  0  0  0  0
    3.2559   -3.7844   -1.4781 C   0  0  0  0  0  0  0  0  0  0  0  0
    3.1698   -3.4324   -2.8062 C   0  0  0  0  0  0  0  0  0  0  0  0
    4.2926   -3.3492   -3.8290 C   0  0  0  0  0  0  0  0  0  0  0  0
    1.8423   -3.1990   -3.4181 C   0  0  0  0  0  0  0  0  0  0  0  0
    5.4177   -0.5409   -2.9209 H   0  0  0  0  0  0  0  0  0  0  0  0
    4.1933   -0.5688   -1.5315 H   0  0  0  0  0  0  0  0  0  0  0  0
    7.0895   -3.6420   -1.9348 H   0  0  0  0  0  0  0  0  0  0  0  0
    8.0115   -2.2667   -1.4131 H   0  0  0  0  0  0  0  0  0  0  0  0
    7.2295   -2.2716   -2.9292 H   0  0  0  0  0  0  0  0  0  0  0  0
    7.4986   -7.1661    2.0401 H   0  0  0  0  0  0  0  0  0  0  0  0
    5.8408   -6.8229    2.3806 H   0  0  0  0  0  0  0  0  0  0  0  0
    7.0786   -6.4755    3.6106 H   0  0  0  0  0  0  0  0  0  0  0  0
    9.1656   -5.6959    1.9861 H   0  0  0  0  0  0  0  0  0  0  0  0
    9.0269   -3.9354    2.0917 H   0  0  0  0  0  0  0  0  0  0  0  0
    8.7144   -4.7108    0.5560 H   0  0  0  0  0  0  0  0  0  0  0  0
    3.3310   -4.8779    3.7068 H   0  0  0  0  0  0  0  0  0  0  0  0
    4.8763   -5.5809    3.8095 H   0  0  0  0  0  0  0  0  0  0  0  0
    2.7931   -0.9828    4.5160 H   0  0  0  0  0  0  0  0  0  0  0  0
    3.5725   -2.0710    5.6650 H   0  0  0  0  0  0  0  0  0  0  0  0
    2.4375   -2.7194    4.5033 H   0  0  0  0  0  0  0  0  0  0  0  0
    6.2553   -1.4365    3.1831 H   0  0  0  0  0  0  0  0  0  0  0  0
    5.1602   -0.1465    3.4987 H   0  0  0  0  0  0  0  0  0  0  0  0
    6.7545   -0.2376    5.3657 H   0  0  0  0  0  0  0  0  0  0  0  0
    6.3275   -1.9108    5.7297 H   0  0  0  0  0  0  0  0  0  0  0  0
    5.1761   -0.6115    6.0112 H   0  0  0  0  0  0  0  0  0  0  0  0
    2.8833   -1.4598    2.2465 H   0  0  0  0  0  0  0  0  0  0  0  0
    3.4823   -1.3983    0.1866 H   0  0  0  0  0  0  0  0  0  0  0  0
    5.8349   -0.4853    1.3951 H   0  0  0  0  0  0  0  0  0  0  0  0
    4.8599   -6.0328    0.3892 H   0  0  0  0  0  0  0  0  0  0  0  0
    3.2243   -5.5704    0.4933 H   0  0  0  0  0  0  0  0  0  0  0  0
    5.1811   -4.5385   -1.3025 H   0  0  0  0  0  0  0  0  0  0  0  0
    2.3416   -3.8777   -0.9200 H   0  0  0  0  0  0  0  0  0  0  0  0
    4.0640   -3.9788   -4.7015 H   0  0  0  0  0  0  0  0  0  0  0  0
    5.2633   -3.5803   -3.3980 H   0  0  0  0  0  0  0  0  0  0  0  0
    4.2538   -2.3196   -4.2213 H   0  0  0  0  0  0  0  0  0  0  0  0
    1.7946   -3.8591   -4.2662 H   0  0  0  0  0  0  0  0  0  0  0  0
    1.7708   -2.1808   -3.7449 H   0  0  0  0  0  0  0  0  0  0  0  0
    1.0309   -3.4416   -2.7335 H   0  0  0  0  0  0  0  0  0  0  0  0
  1  2  2  0
  1 29  1  0
  1 30  1  0
  2  3  1  0
  4  2  1  6
  3 31  1  0
  3 32  1  0
  3 33  1  0
  4 21  1  0
  4 24  1  0
  4  5  1  0
  5  6  2  0
  5  7  1  0
  7  8  2  3
  7 11  1  0
  8  9  1  0
  8 10  1  0
  9 34  1  0
  9 35  1  0
  9 36  1  0
 10 37  1  0
 10 38  1  0
 10 39  1  0
 11 19  1  0
 11 12  1  1
 11 23  1  0
 12 13  1  0
 12 40  1  0
 12 41  1  0
 13 14  1  0
 14 15  1  1
 14 16  1  0
 14 18  1  0
 15 42  1  0
 15 43  1  0
 15 44  1  0
 16 17  1  0
 16 45  1  0
 16 46  1  0
 17 47  1  0
 17 48  1  0
 17 49  1  0
 18 19  1  0
 18 21  1  0
 18 50  1  1
 19 20  2  0
 21 22  1  0
 21 51  1  6
 22 52  1  0
 23 24  1  0
 23 53  1  0
 23 54  1  0
 24 25  1  0
 24 55  1  6
 25 26  2  3
 25 56  1  0
 26 27  1  0
 26 28  1  0
 27 57  1  0
 27 58  1  0
 27 59  1  0
 28 60  1  0
 28 61  1  0
 28 62  1  0
M  END
>  <i_m_ct_stereo_status>  (138) 
1

>  <s_m_source_file>  (138) 
/var/tmp/pbs.5076255.sched01/tmpcdf8lnea/434bzo3qpq.sdf

>  <i_m_source_file_index>  (138) 
17

>  <i_lp_mmshare_version>  (138) 
48012

>  <i_f3d_flags>  (138) 
0

>  <s_epik_input>  (138) 
W0NIM11DKFtDSDNdKT1DKFtDQEBdMTIzKUMoPU8pW0NAQF0oQyg9W0NIMl0pW0NIM10pKFtDQEBIXShbQ0gyXTMpW0NIXT1DKFtDSDNdKVtDSDNdKVtDQEhdKFtPSF0pW0NIXShDMj1PKVtDQEBdKFtDSDNdKShPW0NIMl0xKVtDSDJdW0NIM10=

>  <s_epik_cmdline>  (138) 
J2VwaWtfcHl0aG9uJywgJy1waHQnLCAnMi4wJywgJy1waCcsICc3LjAnLCAnLXRuJywgJzgnLCAnLW1hJywgJzIwMCcsICctaW1hZScsICc8aW5maWxlLm1hZT4nLCAnLW9tYWUnLCAnPG91dGZpbGUubWFlPic=

>  <r_lp_tautomer_probability>  (138) 
1

>  <r_epik_Ionization_Penalty>  (138) 
2.20007e-05

>  <r_epik_Ionization_Penalty_Charging>  (138) 
0

>  <r_epik_Ionization_Penalty_Neutral>  (138) 
2.20007e-05

>  <r_epik_State_Penalty>  (138) 
-0

>  <r_epik_Charging_Adjusted_Penalty>  (138) 
0

>  <i_epik_Tot_Q>  (138) 
0

>  <i_epik_Tot_abs_Q>  (138) 
0

>  <s_lp_Force_Field>  (138) 
OPLS3e

>  <r_lp_Energy>  (138) 
111.468

>  <b_lp_Chiralities_Consistent>  (138) 
1

>  <s_lp_Variant>  (138) 
49:0-1

>  <s_i_glide_gridfile>  (138) 
pfpi4k_grid

>  <i_i_glide_lignum>  (138) 
17

>  <i_i_glide_rotatable_bonds>  (138) 
4

>  <r_i_docking_score>  (138) 
-1.86294

>  <r_i_glide_ligand_efficiency>  (138) 
-0.0665335

>  <r_i_glide_ligand_efficiency_sa>  (138) 
-0.202035

>  <r_i_glide_ligand_efficiency_ln>  (138) 
-0.43002

>  <r_i_glide_gscore>  (138) 
-1.86294

>  <r_i_glide_lipo>  (138) 
-0.627946

>  <r_i_glide_hbond>  (138) 
0

>  <r_i_glide_metal>  (138) 
-0

>  <r_i_glide_rewards>  (138) 
-0.890078

>  <r_i_glide_evdw>  (138) 
-13.5269

>  <r_i_glide_ecoul>  (138) 
0.472473

>  <r_i_glide_erotb>  (138) 
0.260564

>  <r_i_glide_esite>  (138) 
0

>  <r_i_glide_emodel>  (138) 
-11.0178

>  <r_i_glide_energy>  (138) 
-13.0545

>  <r_i_glide_einternal>  (138) 
4.42445

>  <r_i_glide_intrahb_reward>  (138) 
-0

>  <i_i_glide_confnum>  (138) 
2

>  <i_i_glide_posenum>  (138) 
28

>  <r_i_glide_eff_state_penalty>  (138) 
0

>  <ligand_id>  (138) 
49

>  <original_smiles>  (138) 
C=C(C)C12C(=O)C(=C(C)C)C3(COC(C)(CC)C(C3=O)C1O)CC2C=C(C)C

>  <smiles>  (138) 
[H]OC1([H])C2([H])C(=O)C3(C(=C(C([H])([H])[H])C([H])([H])[H])C(=O)C1(C(=C([H])[H])C([H])([H])[H])C([H])(C([H])=C(C([H])([H])[H])C([H])([H])[H])C3([H])[H])C([H])([H])OC2(C([H])([H])[H])C([H])([H])C([H])([H])[H]

$$$$
49:1:0
     RDKit          3D

 62 64  0  0  1  0  0  0  0  0999 V2000
   -0.0287   -5.1918    5.2256 C   0  0  0  0  0  0  0  0  0  0  0  0
    0.9283   -6.1084    4.9472 C   0  0  0  0  0  0  0  0  0  0  0  0
    0.8979   -7.3862    5.7974 C   0  0  0  0  0  0  0  0  0  0  0  0
    1.9691   -5.9635    3.7719 C   0  0  1  0  0  0  0  0  0  0  0  0
    2.3001   -4.3852    3.5924 C   0  0  0  0  0  0  0  0  0  0  0  0
    2.3019   -3.5925    4.5488 O   0  0  0  0  0  0  0  0  0  0  0  0
    2.8393   -3.9666    2.2250 C   0  0  0  0  0  0  0  0  0  0  0  0
    2.7582   -2.6966    1.7112 C   0  0  0  0  0  0  0  0  0  0  0  0
    3.4276   -2.2417    0.4284 C   0  0  0  0  0  0  0  0  0  0  0  0
    1.9151   -1.6035    2.3406 C   0  0  0  0  0  0  0  0  0  0  0  0
    3.5387   -5.1916    1.6287 C   0  0  1  0  0  0  0  0  0  0  0  0
    4.4719   -5.3896    0.4154 C   0  0  0  0  0  0  0  0  0  0  0  0
    4.7785   -6.8285    0.4242 O   0  0  0  0  0  0  0  0  0  0  0  0
    5.0695   -7.5591    1.6846 C   0  0  1  0  0  0  0  0  0  0  0  0
    4.4417   -8.9706    1.5416 C   0  0  0  0  0  0  0  0  0  0  0  0
    6.6223   -7.7840    1.6751 C   0  0  0  0  0  0  0  0  0  0  0  0
    7.5331   -6.5435    1.5089 C   0  0  0  0  0  0  0  0  0  0  0  0
    4.6297   -6.8552    3.0506 C   0  0  1  0  0  0  0  0  0  0  0  0
    4.6435   -5.4617    2.6710 C   0  0  0  0  0  0  0  0  0  0  0  0
    5.3318   -4.5815    3.2273 O   0  0  0  0  0  0  0  0  0  0  0  0
    3.2779   -6.9614    3.9291 C   0  0  1  0  0  0  0  0  0  0  0  0
    3.8100   -6.7920    5.2282 O   0  0  0  0  0  0  0  0  0  0  0  0
    2.3098   -6.1412    1.3091 C   0  0  0  0  0  0  0  0  0  0  0  0
    1.2911   -6.3729    2.4464 C   0  0  1  0  0  0  0  0  0  0  0  0
    0.7485   -7.8140    2.3543 C   0  0  0  0  0  0  0  0  0  0  0  0
   -0.4686   -8.3070    2.6609 C   0  0  0  0  0  0  0  0  0  0  0  0
   -1.6494   -7.5229    3.2039 C   0  0  0  0  0  0  0  0  0  0  0  0
   -0.7393   -9.7876    2.4759 C   0  0  0  0  0  0  0  0  0  0  0  0
   -0.7203   -5.3594    6.0305 H   0  0  0  0  0  0  0  0  0  0  0  0
   -0.1585   -4.2889    4.6585 H   0  0  0  0  0  0  0  0  0  0  0  0
    1.8539   -7.7984    6.1490 H   0  0  0  0  0  0  0  0  0  0  0  0
    0.3714   -8.1674    5.2506 H   0  0  0  0  0  0  0  0  0  0  0  0
    0.3054   -7.1897    6.7038 H   0  0  0  0  0  0  0  0  0  0  0  0
    3.8176   -1.2349    0.5631 H   0  0  0  0  0  0  0  0  0  0  0  0
    2.6924   -2.2309   -0.3666 H   0  0  0  0  0  0  0  0  0  0  0  0
    4.2637   -2.8622    0.1375 H   0  0  0  0  0  0  0  0  0  0  0  0
    1.4306   -1.0297    1.5511 H   0  0  0  0  0  0  0  0  0  0  0  0
    2.5192   -0.9174    2.9401 H   0  0  0  0  0  0  0  0  0  0  0  0
    1.1054   -1.9936    2.9606 H   0  0  0  0  0  0  0  0  0  0  0  0
    3.9973   -5.1275   -0.5294 H   0  0  0  0  0  0  0  0  0  0  0  0
    5.3857   -4.7913    0.4863 H   0  0  0  0  0  0  0  0  0  0  0  0
    4.8192   -9.6598    2.3023 H   0  0  0  0  0  0  0  0  0  0  0  0
    4.6731   -9.3916    0.5595 H   0  0  0  0  0  0  0  0  0  0  0  0
    3.3729   -8.9381    1.6405 H   0  0  0  0  0  0  0  0  0  0  0  0
    6.9058   -8.3133    2.5882 H   0  0  0  0  0  0  0  0  0  0  0  0
    6.8479   -8.4861    0.8757 H   0  0  0  0  0  0  0  0  0  0  0  0
    8.5872   -6.8421    1.4980 H   0  0  0  0  0  0  0  0  0  0  0  0
    7.4064   -5.8260    2.3137 H   0  0  0  0  0  0  0  0  0  0  0  0
    7.3318   -6.0576    0.5517 H   0  0  0  0  0  0  0  0  0  0  0  0
    5.4510   -7.0425    3.7265 H   0  0  0  0  0  0  0  0  0  0  0  0
    2.9392   -7.9854    3.8765 H   0  0  0  0  0  0  0  0  0  0  0  0
    4.3195   -7.5432    5.4345 H   0  0  0  0  0  0  0  0  0  0  0  0
    1.7810   -5.6656    0.4921 H   0  0  0  0  0  0  0  0  0  0  0  0
    2.5697   -7.0943    0.8835 H   0  0  0  0  0  0  0  0  0  0  0  0
    0.4310   -5.7266    2.2832 H   0  0  0  0  0  0  0  0  0  0  0  0
    1.4288   -8.5332    1.9494 H   0  0  0  0  0  0  0  0  0  0  0  0
   -2.1063   -8.1020    4.0173 H   0  0  0  0  0  0  0  0  0  0  0  0
   -2.3905   -7.3682    2.4291 H   0  0  0  0  0  0  0  0  0  0  0  0
   -1.3461   -6.5555    3.5893 H   0  0  0  0  0  0  0  0  0  0  0  0
   -0.9555  -10.2386    3.4385 H   0  0  0  0  0  0  0  0  0  0  0  0
    0.1189  -10.3216    2.0670 H   0  0  0  0  0  0  0  0  0  0  0  0
   -1.5905   -9.9312    1.8192 H   0  0  0  0  0  0  0  0  0  0  0  0
  1  2  2  0
  1 29  1  0
  1 30  1  0
  2  3  1  0
  4  2  1  1
  3 31  1  0
  3 32  1  0
  3 33  1  0
  4 21  1  0
  4 24  1  0
  4  5  1  0
  5  6  2  0
  5  7  1  0
  7  8  2  3
  7 11  1  0
  8  9  1  0
  8 10  1  0
  9 34  1  0
  9 35  1  0
  9 36  1  0
 10 37  1  0
 10 38  1  0
 10 39  1  0
 11 19  1  0
 11 12  1  6
 11 23  1  0
 12 13  1  0
 12 40  1  0
 12 41  1  0
 13 14  1  0
 14 15  1  6
 14 16  1  0
 14 18  1  0
 15 42  1  0
 15 43  1  0
 15 44  1  0
 16 17  1  0
 16 45  1  0
 16 46  1  0
 17 47  1  0
 17 48  1  0
 17 49  1  0
 18 19  1  0
 18 21  1  0
 18 50  1  1
 19 20  2  0
 21 22  1  0
 21 51  1  1
 22 52  1  0
 23 24  1  0
 23 53  1  0
 23 54  1  0
 24 25  1  0
 24 55  1  6
 25 26  2  3
 25 56  1  0
 26 27  1  0
 26 28  1  0
 27 57  1  0
 27 58  1  0
 27 59  1  0
 28 60  1  0
 28 61  1  0
 28 62  1  0
M  END
>  <i_m_ct_stereo_status>  (139) 
1

>  <s_m_source_file>  (139) 
/var/tmp/pbs.5076255.sched01/tmpcdf8lnea/434bzo3qpq.sdf

>  <i_m_source_file_index>  (139) 
18

>  <i_lp_mmshare_version>  (139) 
48012

>  <i_f3d_flags>  (139) 
0

>  <s_epik_input>  (139) 
W0NIM11DKFtDSDNdKT1DKFtDQEBdMTIzKUMoPU8pW0NAQF0oQyg9W0NIMl0pW0NIM10pKFtDQEBIXShbQ0gyXTMpW0NIXT1DKFtDSDNdKVtDSDNdKVtDQEhdKFtPSF0pW0NIXShDMj1PKVtDQEBdKFtDSDNdKShPW0NIMl0xKVtDSDJdW0NIM10=

>  <s_epik_cmdline>  (139) 
J2VwaWtfcHl0aG9uJywgJy1waHQnLCAnMi4wJywgJy1waCcsICc3LjAnLCAnLXRuJywgJzgnLCAnLW1hJywgJzIwMCcsICctaW1hZScsICc8aW5maWxlLm1hZT4nLCAnLW9tYWUnLCAnPG91dGZpbGUubWFlPic=

>  <r_lp_tautomer_probability>  (139) 
1

>  <r_epik_Ionization_Penalty>  (139) 
2.20007e-05

>  <r_epik_Ionization_Penalty_Charging>  (139) 
0

>  <r_epik_Ionization_Penalty_Neutral>  (139) 
2.20007e-05

>  <r_epik_State_Penalty>  (139) 
-0

>  <r_epik_Charging_Adjusted_Penalty>  (139) 
0

>  <i_epik_Tot_Q>  (139) 
0

>  <i_epik_Tot_abs_Q>  (139) 
0

>  <s_lp_Force_Field>  (139) 
OPLS3e

>  <r_lp_Energy>  (139) 
121.951

>  <b_lp_Chiralities_Consistent>  (139) 
1

>  <s_lp_Variant>  (139) 
49:0-2

>  <s_i_glide_gridfile>  (139) 
pfpi4k_grid

>  <i_i_glide_lignum>  (139) 
18

>  <i_i_glide_rotatable_bonds>  (139) 
4

>  <r_i_docking_score>  (139) 
-2.15632

>  <r_i_glide_ligand_efficiency>  (139) 
-0.0770113

>  <r_i_glide_ligand_efficiency_sa>  (139) 
-0.233852

>  <r_i_glide_ligand_efficiency_ln>  (139) 
-0.497741

>  <r_i_glide_gscore>  (139) 
-2.15632

>  <r_i_glide_lipo>  (139) 
-0.332142

>  <r_i_glide_hbond>  (139) 
0

>  <r_i_glide_metal>  (139) 
-0

>  <r_i_glide_rewards>  (139) 
-0.773698

>  <r_i_glide_evdw>  (139) 
-22.8739

>  <r_i_glide_ecoul>  (139) 
-1.11563

>  <r_i_glide_erotb>  (139) 
0.260564

>  <r_i_glide_esite>  (139) 
0

>  <r_i_glide_emodel>  (139) 
-20.2594

>  <r_i_glide_energy>  (139) 
-23.9896

>  <r_i_glide_einternal>  (139) 
10.2934

>  <r_i_glide_intrahb_reward>  (139) 
-0

>  <i_i_glide_confnum>  (139) 
3

>  <i_i_glide_posenum>  (139) 
2

>  <r_i_glide_eff_state_penalty>  (139) 
0

>  <ligand_id>  (139) 
49

>  <original_smiles>  (139) 
C=C(C)C12C(=O)C(=C(C)C)C3(COC(C)(CC)C(C3=O)C1O)CC2C=C(C)C

>  <smiles>  (139) 
[H]OC1([H])C2([H])C(=O)C3(C(=C(C([H])([H])[H])C([H])([H])[H])C(=O)C1(C(=C([H])[H])C([H])([H])[H])C([H])(C([H])=C(C([H])([H])[H])C([H])([H])[H])C3([H])[H])C([H])([H])OC2(C([H])([H])[H])C([H])([H])C([H])([H])[H]

$$$$
49:1:1
     RDKit          3D

 62 64  0  0  1  0  0  0  0  0999 V2000
    0.4321   -7.2310    1.5856 C   0  0  0  0  0  0  0  0  0  0  0  0
    0.2678   -8.0553    2.6067 C   0  0  0  0  0  0  0  0  0  0  0  0
   -0.8982   -9.0358    2.4235 C   0  0  0  0  0  0  0  0  0  0  0  0
    1.1006   -8.0604    3.9303 C   0  0  1  0  0  0  0  0  0  0  0  0
    0.2358   -7.2298    5.0084 C   0  0  0  0  0  0  0  0  0  0  0  0
   -0.9820   -7.0898    4.8427 O   0  0  0  0  0  0  0  0  0  0  0  0
    0.9579   -6.7015    6.2499 C   0  0  0  0  0  0  0  0  0  0  0  0
    0.5219   -5.6456    6.9998 C   0  0  0  0  0  0  0  0  0  0  0  0
    1.2099   -5.1541    8.2595 C   0  0  0  0  0  0  0  0  0  0  0  0
   -0.6636   -4.7600    6.6361 C   0  0  0  0  0  0  0  0  0  0  0  0
    2.2147   -7.5513    6.4478 C   0  0  1  0  0  0  0  0  0  0  0  0
    3.2768   -7.6472    7.5568 C   0  0  0  0  0  0  0  0  0  0  0  0
    4.2179   -8.6662    7.0688 O   0  0  0  0  0  0  0  0  0  0  0  0
    3.7612   -9.9032    6.3916 C   0  0  1  0  0  0  0  0  0  0  0  0
    4.7692  -10.2129    5.2598 C   0  0  0  0  0  0  0  0  0  0  0  0
    3.9301  -11.0014    7.4879 C   0  0  0  0  0  0  0  0  0  0  0  0
    3.3341  -10.6863    8.8764 C   0  0  0  0  0  0  0  0  0  0  0  0
    2.2582   -9.9181    5.8357 C   0  0  1  0  0  0  0  0  0  0  0  0
    1.6111   -8.9417    6.6966 C   0  0  0  0  0  0  0  0  0  0  0  0
    0.6714   -9.1887    7.4714 O   0  0  0  0  0  0  0  0  0  0  0  0
    1.6641   -9.5502    4.3838 C   0  0  1  0  0  0  0  0  0  0  0  0
    0.6220  -10.5064    4.2807 O   0  0  0  0  0  0  0  0  0  0  0  0
    3.0865   -7.1362    5.1808 C   0  0  0  0  0  0  0  0  0  0  0  0
    2.3928   -7.1647    3.8029 C   0  0  1  0  0  0  0  0  0  0  0  0
    3.3754   -7.6103    2.6915 C   0  0  0  0  0  0  0  0  0  0  0  0
    3.7585   -6.9994    1.5519 C   0  0  0  0  0  0  0  0  0  0  0  0
    3.3096   -5.6506    0.9988 C   0  0  0  0  0  0  0  0  0  0  0  0
    4.7743   -7.7027    0.6493 C   0  0  0  0  0  0  0  0  0  0  0  0
   -0.1359   -7.2695    0.6711 H   0  0  0  0  0  0  0  0  0  0  0  0
    1.1742   -6.4733    1.6758 H   0  0  0  0  0  0  0  0  0  0  0  0
   -1.4900   -9.1198    3.3400 H   0  0  0  0  0  0  0  0  0  0  0  0
   -0.5136  -10.0045    2.0936 H   0  0  0  0  0  0  0  0  0  0  0  0
   -1.5558   -8.6580    1.6353 H   0  0  0  0  0  0  0  0  0  0  0  0
    0.4604   -4.8908    9.0072 H   0  0  0  0  0  0  0  0  0  0  0  0
    1.8013   -4.2628    8.0410 H   0  0  0  0  0  0  0  0  0  0  0  0
    1.8539   -5.8986    8.7138 H   0  0  0  0  0  0  0  0  0  0  0  0
   -0.4455   -3.7164    6.8642 H   0  0  0  0  0  0  0  0  0  0  0  0
   -1.5551   -5.0540    7.1883 H   0  0  0  0  0  0  0  0  0  0  0  0
   -0.8882   -4.7816    5.5757 H   0  0  0  0  0  0  0  0  0  0  0  0
    3.8197   -6.7115    7.6957 H   0  0  0  0  0  0  0  0  0  0  0  0
    2.8852   -7.9188    8.5427 H   0  0  0  0  0  0  0  0  0  0  0  0
    4.6524  -11.2232    4.8642 H   0  0  0  0  0  0  0  0  0  0  0  0
    5.8049  -10.0850    5.5756 H   0  0  0  0  0  0  0  0  0  0  0  0
    4.6514   -9.5523    4.4149 H   0  0  0  0  0  0  0  0  0  0  0  0
    3.5012  -11.9380    7.1253 H   0  0  0  0  0  0  0  0  0  0  0  0
    4.9892  -11.2189    7.6308 H   0  0  0  0  0  0  0  0  0  0  0  0
    3.4476  -11.5294    9.5561 H   0  0  0  0  0  0  0  0  0  0  0  0
    2.2638  -10.4991    8.8321 H   0  0  0  0  0  0  0  0  0  0  0  0
    3.8145   -9.8204    9.3323 H   0  0  0  0  0  0  0  0  0  0  0  0
    1.8904  -10.9167    6.0729 H   0  0  0  0  0  0  0  0  0  0  0  0
    2.3766   -9.9043    3.6377 H   0  0  0  0  0  0  0  0  0  0  0  0
   -0.0404  -10.3329    4.9482 H   0  0  0  0  0  0  0  0  0  0  0  0
    3.3980   -6.1073    5.3749 H   0  0  0  0  0  0  0  0  0  0  0  0
    4.0487   -7.6235    5.0997 H   0  0  0  0  0  0  0  0  0  0  0  0
    2.1118   -6.1451    3.5892 H   0  0  0  0  0  0  0  0  0  0  0  0
    3.8370   -8.5609    2.8718 H   0  0  0  0  0  0  0  0  0  0  0  0
    3.0668   -5.7832   -0.0589 H   0  0  0  0  0  0  0  0  0  0  0  0
    4.1151   -4.9208    1.0946 H   0  0  0  0  0  0  0  0  0  0  0  0
    2.4585   -5.1696    1.4821 H   0  0  0  0  0  0  0  0  0  0  0  0
    4.3380   -7.9218   -0.3224 H   0  0  0  0  0  0  0  0  0  0  0  0
    5.1507   -8.6428    1.0525 H   0  0  0  0  0  0  0  0  0  0  0  0
    5.6250   -7.0439    0.4866 H   0  0  0  0  0  0  0  0  0  0  0  0
  1  2  2  0
  1 29  1  0
  1 30  1  0
  2  3  1  0
  4  2  1  6
  3 31  1  0
  3 32  1  0
  3 33  1  0
  4 21  1  0
  4 24  1  0
  4  5  1  0
  5  6  2  0
  5  7  1  0
  7  8  2  3
  7 11  1  0
  8  9  1  0
  8 10  1  0
  9 34  1  0
  9 35  1  0
  9 36  1  0
 10 37  1  0
 10 38  1  0
 10 39  1  0
 11 19  1  0
 11 12  1  1
 11 23  1  0
 12 13  1  0
 12 40  1  0
 12 41  1  0
 13 14  1  0
 14 15  1  6
 14 16  1  0
 14 18  1  0
 15 42  1  0
 15 43  1  0
 15 44  1  0
 16 17  1  0
 16 45  1  0
 16 46  1  0
 17 47  1  0
 17 48  1  0
 17 49  1  0
 18 19  1  0
 18 21  1  0
 18 50  1  1
 19 20  2  0
 21 22  1  0
 21 51  1  6
 22 52  1  0
 23 24  1  0
 23 53  1  0
 23 54  1  0
 24 25  1  0
 24 55  1  6
 25 26  2  3
 25 56  1  0
 26 27  1  0
 26 28  1  0
 27 57  1  0
 27 58  1  0
 27 59  1  0
 28 60  1  0
 28 61  1  0
 28 62  1  0
M  END
>  <i_m_ct_stereo_status>  (140) 
1

>  <s_m_source_file>  (140) 
/var/tmp/pbs.5076255.sched01/tmpcdf8lnea/434bzo3qpq.sdf

>  <i_m_source_file_index>  (140) 
18

>  <i_lp_mmshare_version>  (140) 
48012

>  <i_f3d_flags>  (140) 
0

>  <s_epik_input>  (140) 
W0NIM11DKFtDSDNdKT1DKFtDQEBdMTIzKUMoPU8pW0NAQF0oQyg9W0NIMl0pW0NIM10pKFtDQEBIXShbQ0gyXTMpW0NIXT1DKFtDSDNdKVtDSDNdKVtDQEhdKFtPSF0pW0NIXShDMj1PKVtDQEBdKFtDSDNdKShPW0NIMl0xKVtDSDJdW0NIM10=

>  <s_epik_cmdline>  (140) 
J2VwaWtfcHl0aG9uJywgJy1waHQnLCAnMi4wJywgJy1waCcsICc3LjAnLCAnLXRuJywgJzgnLCAnLW1hJywgJzIwMCcsICctaW1hZScsICc8aW5maWxlLm1hZT4nLCAnLW9tYWUnLCAnPG91dGZpbGUubWFlPic=

>  <r_lp_tautomer_probability>  (140) 
1

>  <r_epik_Ionization_Penalty>  (140) 
2.20007e-05

>  <r_epik_Ionization_Penalty_Charging>  (140) 
0

>  <r_epik_Ionization_Penalty_Neutral>  (140) 
2.20007e-05

>  <r_epik_State_Penalty>  (140) 
-0

>  <r_epik_Charging_Adjusted_Penalty>  (140) 
0

>  <i_epik_Tot_Q>  (140) 
0

>  <i_epik_Tot_abs_Q>  (140) 
0

>  <s_lp_Force_Field>  (140) 
OPLS3e

>  <r_lp_Energy>  (140) 
121.951

>  <b_lp_Chiralities_Consistent>  (140) 
1

>  <s_lp_Variant>  (140) 
49:0-2

>  <s_i_glide_gridfile>  (140) 
pfpi4k_grid

>  <i_i_glide_lignum>  (140) 
18

>  <i_i_glide_rotatable_bonds>  (140) 
4

>  <r_i_docking_score>  (140) 
-2.14441

>  <r_i_glide_ligand_efficiency>  (140) 
-0.076586

>  <r_i_glide_ligand_efficiency_sa>  (140) 
-0.23256

>  <r_i_glide_ligand_efficiency_ln>  (140) 
-0.494992

>  <r_i_glide_gscore>  (140) 
-2.14441

>  <r_i_glide_lipo>  (140) 
-0.224851

>  <r_i_glide_hbond>  (140) 
0

>  <r_i_glide_metal>  (140) 
-0

>  <r_i_glide_rewards>  (140) 
-0.773698

>  <r_i_glide_evdw>  (140) 
-20.2038

>  <r_i_glide_ecoul>  (140) 
-2.19945

>  <r_i_glide_erotb>  (140) 
0.260564

>  <r_i_glide_esite>  (140) 
-0.0663173

>  <r_i_glide_emodel>  (140) 
-22.531

>  <r_i_glide_energy>  (140) 
-22.4032

>  <r_i_glide_einternal>  (140) 
2.19069

>  <r_i_glide_intrahb_reward>  (140) 
-0

>  <i_i_glide_confnum>  (140) 
2

>  <i_i_glide_posenum>  (140) 
32

>  <r_i_glide_eff_state_penalty>  (140) 
0

>  <ligand_id>  (140) 
49

>  <original_smiles>  (140) 
C=C(C)C12C(=O)C(=C(C)C)C3(COC(C)(CC)C(C3=O)C1O)CC2C=C(C)C

>  <smiles>  (140) 
[H]OC1([H])C2([H])C(=O)C3(C(=C(C([H])([H])[H])C([H])([H])[H])C(=O)C1(C(=C([H])[H])C([H])([H])[H])C([H])(C([H])=C(C([H])([H])[H])C([H])([H])[H])C3([H])[H])C([H])([H])OC2(C([H])([H])[H])C([H])([H])C([H])([H])[H]

$$$$
49:1:2
     RDKit          3D

 62 64  0  0  1  0  0  0  0  0999 V2000
    4.5424  -10.8259    2.8921 C   0  0  0  0  0  0  0  0  0  0  0  0
    3.9035  -10.8606    4.0443 C   0  0  0  0  0  0  0  0  0  0  0  0
    3.9538  -12.2350    4.7502 C   0  0  0  0  0  0  0  0  0  0  0  0
    3.0985   -9.6890    4.6873 C   0  0  1  0  0  0  0  0  0  0  0  0
    1.5600   -9.9034    4.2481 C   0  0  0  0  0  0  0  0  0  0  0  0
    1.1715  -11.0324    3.9240 O   0  0  0  0  0  0  0  0  0  0  0  0
    0.6102   -8.7081    4.3436 C   0  0  0  0  0  0  0  0  0  0  0  0
   -0.5519   -8.5875    3.6374 C   0  0  0  0  0  0  0  0  0  0  0  0
   -1.5256   -7.4303    3.7862 C   0  0  0  0  0  0  0  0  0  0  0  0
   -0.9827   -9.5443    2.5304 C   0  0  0  0  0  0  0  0  0  0  0  0
    1.2129   -7.7273    5.3530 C   0  0  1  0  0  0  0  0  0  0  0  0
    0.7049   -6.4398    6.0195 C   0  0  0  0  0  0  0  0  0  0  0  0
    1.8141   -6.0130    6.8844 O   0  0  0  0  0  0  0  0  0  0  0  0
    2.6181   -6.9712    7.6769 C   0  0  1  0  0  0  0  0  0  0  0  0
    4.0878   -6.4868    7.6402 C   0  0  0  0  0  0  0  0  0  0  0  0
    2.1036   -6.7577    9.1367 C   0  0  0  0  0  0  0  0  0  0  0  0
    0.5911   -6.9508    9.3850 C   0  0  0  0  0  0  0  0  0  0  0  0
    2.5109   -8.5174    7.2717 C   0  0  1  0  0  0  0  0  0  0  0  0
    1.2027   -8.5675    6.6341 C   0  0  0  0  0  0  0  0  0  0  0  0
    0.2420   -9.2380    7.0460 O   0  0  0  0  0  0  0  0  0  0  0  0
    3.4126   -9.4256    6.2924 C   0  0  1  0  0  0  0  0  0  0  0  0
    3.4210  -10.6590    7.0018 O   0  0  0  0  0  0  0  0  0  0  0  0
    2.5173   -7.2295    4.5923 C   0  0  0  0  0  0  0  0  0  0  0  0
    3.4309   -8.3116    3.9832 C   0  0  1  0  0  0  0  0  0  0  0  0
    4.9183   -7.8867    4.0616 C   0  0  0  0  0  0  0  0  0  0  0  0
    5.8416   -7.7232    3.0931 C   0  0  0  0  0  0  0  0  0  0  0  0
    5.6993   -7.9148    1.5863 C   0  0  0  0  0  0  0  0  0  0  0  0
    7.2504   -7.2754    3.5111 C   0  0  0  0  0  0  0  0  0  0  0  0
    5.1195  -11.6520    2.5102 H   0  0  0  0  0  0  0  0  0  0  0  0
    4.4723   -9.9259    2.2953 H   0  0  0  0  0  0  0  0  0  0  0  0
    2.9609  -12.5076    5.1349 H   0  0  0  0  0  0  0  0  0  0  0  0
    4.7199  -12.2214    5.5354 H   0  0  0  0  0  0  0  0  0  0  0  0
    4.2361  -12.9832    4.0045 H   0  0  0  0  0  0  0  0  0  0  0  0
   -2.5479   -7.8083    3.7437 H   0  0  0  0  0  0  0  0  0  0  0  0
   -1.3899   -6.7292    2.9624 H   0  0  0  0  0  0  0  0  0  0  0  0
   -1.4242   -6.8989    4.7273 H   0  0  0  0  0  0  0  0  0  0  0  0
   -1.4365   -8.9952    1.7067 H   0  0  0  0  0  0  0  0  0  0  0  0
   -1.7211  -10.2497    2.8985 H   0  0  0  0  0  0  0  0  0  0  0  0
   -0.1594  -10.1084    2.0952 H   0  0  0  0  0  0  0  0  0  0  0  0
    0.4985   -5.6449    5.3019 H   0  0  0  0  0  0  0  0  0  0  0  0
   -0.2091   -6.5637    6.6068 H   0  0  0  0  0  0  0  0  0  0  0  0
    4.7122   -6.9885    8.3807 H   0  0  0  0  0  0  0  0  0  0  0  0
    4.1804   -5.4103    7.7830 H   0  0  0  0  0  0  0  0  0  0  0  0
    4.5564   -6.6795    6.6889 H   0  0  0  0  0  0  0  0  0  0  0  0
    2.6531   -7.4233    9.8053 H   0  0  0  0  0  0  0  0  0  0  0  0
    2.3652   -5.7494    9.4616 H   0  0  0  0  0  0  0  0  0  0  0  0
    0.3332   -6.8103   10.4348 H   0  0  0  0  0  0  0  0  0  0  0  0
    0.2695   -7.9652    9.1510 H   0  0  0  0  0  0  0  0  0  0  0  0
    0.0038   -6.2434    8.7973 H   0  0  0  0  0  0  0  0  0  0  0  0
    2.4818   -9.0424    8.2237 H   0  0  0  0  0  0  0  0  0  0  0  0
    4.4466   -9.0975    6.4032 H   0  0  0  0  0  0  0  0  0  0  0  0
    2.5441  -11.0416    6.9964 H   0  0  0  0  0  0  0  0  0  0  0  0
    2.1364   -6.6175    3.7730 H   0  0  0  0  0  0  0  0  0  0  0  0
    3.1217   -6.5061    5.1240 H   0  0  0  0  0  0  0  0  0  0  0  0
    3.1741   -8.3569    2.9376 H   0  0  0  0  0  0  0  0  0  0  0  0
    5.2533   -7.6673    5.0556 H   0  0  0  0  0  0  0  0  0  0  0  0
    6.5555   -8.5121    1.2588 H   0  0  0  0  0  0  0  0  0  0  0  0
    5.7310   -6.9393    1.0919 H   0  0  0  0  0  0  0  0  0  0  0  0
    4.7805   -8.4019    1.2336 H   0  0  0  0  0  0  0  0  0  0  0  0
    7.9871   -8.0357    3.2542 H   0  0  0  0  0  0  0  0  0  0  0  0
    7.3590   -7.0654    4.5780 H   0  0  0  0  0  0  0  0  0  0  0  0
    7.5176   -6.3705    2.9693 H   0  0  0  0  0  0  0  0  0  0  0  0
  1  2  2  0
  1 29  1  0
  1 30  1  0
  2  3  1  0
  4  2  1  6
  3 31  1  0
  3 32  1  0
  3 33  1  0
  4 21  1  0
  4 24  1  0
  4  5  1  0
  5  6  2  0
  5  7  1  0
  7  8  2  3
  7 11  1  0
  8  9  1  0
  8 10  1  0
  9 34  1  0
  9 35  1  0
  9 36  1  0
 10 37  1  0
 10 38  1  0
 10 39  1  0
 11 19  1  0
 11 12  1  1
 11 23  1  0
 12 13  1  0
 12 40  1  0
 12 41  1  0
 13 14  1  0
 14 15  1  1
 14 16  1  0
 14 18  1  0
 15 42  1  0
 15 43  1  0
 15 44  1  0
 16 17  1  0
 16 45  1  0
 16 46  1  0
 17 47  1  0
 17 48  1  0
 17 49  1  0
 18 19  1  0
 18 21  1  0
 18 50  1  1
 19 20  2  0
 21 22  1  0
 21 51  1  6
 22 52  1  0
 23 24  1  0
 23 53  1  0
 23 54  1  0
 24 25  1  0
 24 55  1  6
 25 26  2  3
 25 56  1  0
 26 27  1  0
 26 28  1  0
 27 57  1  0
 27 58  1  0
 27 59  1  0
 28 60  1  0
 28 61  1  0
 28 62  1  0
M  END
>  <i_m_ct_stereo_status>  (141) 
1

>  <s_m_source_file>  (141) 
/var/tmp/pbs.5076255.sched01/tmpcdf8lnea/434bzo3qpq.sdf

>  <i_m_source_file_index>  (141) 
18

>  <i_lp_mmshare_version>  (141) 
48012

>  <i_f3d_flags>  (141) 
0

>  <s_epik_input>  (141) 
W0NIM11DKFtDSDNdKT1DKFtDQEBdMTIzKUMoPU8pW0NAQF0oQyg9W0NIMl0pW0NIM10pKFtDQEBIXShbQ0gyXTMpW0NIXT1DKFtDSDNdKVtDSDNdKVtDQEhdKFtPSF0pW0NIXShDMj1PKVtDQEBdKFtDSDNdKShPW0NIMl0xKVtDSDJdW0NIM10=

>  <s_epik_cmdline>  (141) 
J2VwaWtfcHl0aG9uJywgJy1waHQnLCAnMi4wJywgJy1waCcsICc3LjAnLCAnLXRuJywgJzgnLCAnLW1hJywgJzIwMCcsICctaW1hZScsICc8aW5maWxlLm1hZT4nLCAnLW9tYWUnLCAnPG91dGZpbGUubWFlPic=

>  <r_lp_tautomer_probability>  (141) 
1

>  <r_epik_Ionization_Penalty>  (141) 
2.20007e-05

>  <r_epik_Ionization_Penalty_Charging>  (141) 
0

>  <r_epik_Ionization_Penalty_Neutral>  (141) 
2.20007e-05

>  <r_epik_State_Penalty>  (141) 
-0

>  <r_epik_Charging_Adjusted_Penalty>  (141) 
0

>  <i_epik_Tot_Q>  (141) 
0

>  <i_epik_Tot_abs_Q>  (141) 
0

>  <s_lp_Force_Field>  (141) 
OPLS3e

>  <r_lp_Energy>  (141) 
121.951

>  <b_lp_Chiralities_Consistent>  (141) 
1

>  <s_lp_Variant>  (141) 
49:0-2

>  <s_i_glide_gridfile>  (141) 
pfpi4k_grid

>  <i_i_glide_lignum>  (141) 
18

>  <i_i_glide_rotatable_bonds>  (141) 
4

>  <r_i_docking_score>  (141) 
-2.02082

>  <r_i_glide_ligand_efficiency>  (141) 
-0.0721721

>  <r_i_glide_ligand_efficiency_sa>  (141) 
-0.219157

>  <r_i_glide_ligand_efficiency_ln>  (141) 
-0.466465

>  <r_i_glide_gscore>  (141) 
-2.02082

>  <r_i_glide_lipo>  (141) 
-0.239282

>  <r_i_glide_hbond>  (141) 
0

>  <r_i_glide_metal>  (141) 
-0

>  <r_i_glide_rewards>  (141) 
-0.773698

>  <r_i_glide_evdw>  (141) 
-20.4816

>  <r_i_glide_ecoul>  (141) 
-1.28024

>  <r_i_glide_erotb>  (141) 
0.260564

>  <r_i_glide_esite>  (141) 
-0.0522895

>  <r_i_glide_emodel>  (141) 
-21.888

>  <r_i_glide_energy>  (141) 
-21.7618

>  <r_i_glide_einternal>  (141) 
1.91637

>  <r_i_glide_intrahb_reward>  (141) 
-0

>  <i_i_glide_confnum>  (141) 
2

>  <i_i_glide_posenum>  (141) 
14

>  <r_i_glide_eff_state_penalty>  (141) 
0

>  <ligand_id>  (141) 
49

>  <original_smiles>  (141) 
C=C(C)C12C(=O)C(=C(C)C)C3(COC(C)(CC)C(C3=O)C1O)CC2C=C(C)C

>  <smiles>  (141) 
[H]OC1([H])C2([H])C(=O)C3(C(=C(C([H])([H])[H])C([H])([H])[H])C(=O)C1(C(=C([H])[H])C([H])([H])[H])C([H])(C([H])=C(C([H])([H])[H])C([H])([H])[H])C3([H])[H])C([H])([H])OC2(C([H])([H])[H])C([H])([H])C([H])([H])[H]

$$$$
50:0:0
     RDKit          3D

 44 49  0  0  1  0  0  0  0  0999 V2000
    8.0693   -4.7495    0.5063 C   0  0  0  0  0  0  0  0  0  0  0  0
    6.7590   -4.3776    0.8510 C   0  0  0  0  0  0  0  0  0  0  0  0
    6.4371   -3.0087    0.7437 C   0  0  0  0  0  0  0  0  0  0  0  0
    5.1560   -2.5351    1.0894 N   0  0  0  0  0  0  0  0  0  0  0  0
    3.9584   -3.3755    1.0288 C   0  0  0  0  0  0  0  0  0  0  0  0
    2.8175   -2.4815    1.4739 C   0  0  2  0  0  0  0  0  0  0  0  0
    3.3352   -1.0885    1.4300 C   0  0  2  0  0  0  0  0  0  0  0  0
    4.7837   -1.1264    1.0179 C   0  0  0  0  0  0  0  0  0  0  0  0
    2.8565   -1.6600    2.7565 C   0  0  1  0  0  0  0  0  0  0  0  0
    1.6139   -1.1614    3.4455 C   0  0  0  0  0  0  0  0  0  0  0  0
    0.7377   -2.0219    3.9797 N   0  0  0  0  0  0  0  0  0  0  0  0
   -0.1911   -1.1780    4.5648 C   0  0  0  0  0  0  0  0  0  0  0  0
   -1.3852   -1.4149    5.2828 C   0  0  0  0  0  0  0  0  0  0  0  0
   -2.1012   -0.3609    5.7398 N   0  0  0  0  0  0  0  0  0  0  0  0
   -1.6518    0.8756    5.4933 C   0  0  0  0  0  0  0  0  0  0  0  0
   -0.5502    1.2490    4.8441 N   0  0  0  0  0  0  0  0  0  0  0  0
    0.1625    0.1812    4.3758 C   0  0  0  0  0  0  0  0  0  0  0  0
    1.3498    0.1614    3.6481 N   0  0  0  0  0  0  0  0  0  0  0  0
    2.1113    1.3168    3.2309 C   0  0  0  0  0  0  0  0  0  0  0  0
    2.6465    2.3477    4.2309 C   0  0  0  0  0  0  0  0  0  0  0  0
    2.5087    3.3877    3.1095 C   0  0  0  0  0  0  0  0  0  0  0  0
    1.4419    2.4808    2.4926 C   0  0  0  0  0  0  0  0  0  0  0  0
    7.3593   -2.1117    0.3218 N   0  0  0  0  0  0  0  0  0  0  0  0
    8.5737   -2.5833    0.0347 C   0  0  0  0  0  0  0  0  0  0  0  0
    8.9851   -3.8477    0.1023 N   0  0  0  0  0  0  0  0  0  0  0  0
    8.3955   -5.7799    0.5582 H   0  0  0  0  0  0  0  0  0  0  0  0
    6.0508   -5.1159    1.1966 H   0  0  0  0  0  0  0  0  0  0  0  0
    3.7938   -3.6865   -0.0041 H   0  0  0  0  0  0  0  0  0  0  0  0
    4.0211   -4.2624    1.6560 H   0  0  0  0  0  0  0  0  0  0  0  0
    1.8477   -2.6757    1.0198 H   0  0  0  0  0  0  0  0  0  0  0  0
    2.7088   -0.3504    0.9267 H   0  0  0  0  0  0  0  0  0  0  0  0
    5.3840   -0.5026    1.6784 H   0  0  0  0  0  0  0  0  0  0  0  0
    4.8855   -0.7550   -0.0028 H   0  0  0  0  0  0  0  0  0  0  0  0
    3.5861   -1.9641    3.5067 H   0  0  0  0  0  0  0  0  0  0  0  0
   -1.7614   -2.4088    5.4874 H   0  0  0  0  0  0  0  0  0  0  0  0
   -2.2553    1.6829    5.8930 H   0  0  0  0  0  0  0  0  0  0  0  0
    2.9704    0.9716    2.6650 H   0  0  0  0  0  0  0  0  0  0  0  0
    1.9761    2.5312    5.0733 H   0  0  0  0  0  0  0  0  0  0  0  0
    3.6712    2.1490    4.5385 H   0  0  0  0  0  0  0  0  0  0  0  0
    2.1477    4.3650    3.4298 H   0  0  0  0  0  0  0  0  0  0  0  0
    3.4042    3.4641    2.4861 H   0  0  0  0  0  0  0  0  0  0  0  0
    1.4701    2.4049    1.4070 H   0  0  0  0  0  0  0  0  0  0  0  0
    0.4384    2.7268    2.8472 H   0  0  0  0  0  0  0  0  0  0  0  0
    9.3035   -1.8606   -0.2969 H   0  0  0  0  0  0  0  0  0  0  0  0
  1 25  2  0
  1  2  1  0
  1 26  1  0
  2  3  2  0
  2 27  1  0
  3  4  1  0
  3 23  1  0
  4  8  1  0
  4  5  1  0
  5  6  1  0
  5 28  1  0
  5 29  1  0
  6  9  1  0
  6  7  1  0
  6 30  1  6
  7  8  1  0
  7  9  1  0
  7 31  1  6
  8 32  1  0
  8 33  1  0
  9 10  1  0
  9 34  1  1
 10 18  1  0
 10 11  2  0
 11 12  1  0
 12 17  2  0
 12 13  1  0
 13 14  2  0
 13 35  1  0
 14 15  1  0
 15 16  2  0
 15 36  1  0
 16 17  1  0
 17 18  1  0
 18 19  1  0
 19 22  1  0
 19 20  1  0
 19 37  1  0
 20 21  1  0
 20 38  1  0
 20 39  1  0
 21 22  1  0
 21 40  1  0
 21 41  1  0
 22 42  1  0
 22 43  1  0
 23 24  2  0
 24 25  1  0
 24 44  1  0
M  END
>  <i_m_ct_stereo_status>  (142) 
1

>  <s_m_source_file>  (142) 
/var/tmp/pbs.5076255.sched01/tmpcdf8lnea/434bzo3qpq.sdf

>  <i_m_source_file_index>  (142) 
19

>  <i_lp_mmshare_version>  (142) 
48012

>  <i_f3d_flags>  (142) 
0

>  <s_epik_input>  (142) 
bjFbY0hdbltjSF1bY0hdYzFOKFtDSDJdMilbQ0gyXVtDQEBIXShbQ0BASF0yMylbQ0BIXTNjKG40KW4oW0NIXTVbQ0gyXVtDSDJdW0NIMl01KWMoYzQ2KW5bY0hdbltjSF02

>  <s_epik_cmdline>  (142) 
J2VwaWtfcHl0aG9uJywgJy1waHQnLCAnMi4wJywgJy1waCcsICc3LjAnLCAnLXRuJywgJzgnLCAnLW1hJywgJzIwMCcsICctaW1hZScsICc8aW5maWxlLm1hZT4nLCAnLW9tYWUnLCAnPG91dGZpbGUubWFlPic=

>  <r_lp_tautomer_probability>  (142) 
1

>  <r_epik_Ionization_Penalty>  (142) 
0.127365

>  <r_epik_Ionization_Penalty_Charging>  (142) 
0

>  <r_epik_Ionization_Penalty_Neutral>  (142) 
0.127365

>  <r_epik_State_Penalty>  (142) 
0.114254

>  <r_epik_Charging_Adjusted_Penalty>  (142) 
0.114254

>  <i_epik_Tot_Q>  (142) 
0

>  <i_epik_Tot_abs_Q>  (142) 
0

>  <s_lp_Force_Field>  (142) 
OPLS3e

>  <r_lp_Energy>  (142) 
45.9219

>  <b_lp_Chiralities_Consistent>  (142) 
1

>  <s_lp_Variant>  (142) 
50:0-1

>  <s_i_glide_gridfile>  (142) 
pfpi4k_grid

>  <i_i_glide_lignum>  (142) 
19

>  <i_i_glide_rotatable_bonds>  (142) 
3

>  <r_i_docking_score>  (142) 
-3.39746

>  <r_i_glide_ligand_efficiency>  (142) 
-0.135898

>  <r_i_glide_ligand_efficiency_sa>  (142) 
-0.397369

>  <r_i_glide_ligand_efficiency_ln>  (142) 
-0.8053

>  <r_i_glide_gscore>  (142) 
-3.39746

>  <r_i_glide_lipo>  (142) 
-0.442377

>  <r_i_glide_hbond>  (142) 
-0.181807

>  <r_i_glide_metal>  (142) 
-0

>  <r_i_glide_rewards>  (142) 
-1.18811

>  <r_i_glide_evdw>  (142) 
-28.4635

>  <r_i_glide_ecoul>  (142) 
-3.97976

>  <r_i_glide_erotb>  (142) 
0.508692

>  <r_i_glide_esite>  (142) 
-0.0737204

>  <r_i_glide_emodel>  (142) 
-39.1047

>  <r_i_glide_energy>  (142) 
-32.4433

>  <r_i_glide_einternal>  (142) 
1.31722

>  <r_i_glide_intrahb_reward>  (142) 
-0

>  <i_i_glide_confnum>  (142) 
4

>  <i_i_glide_posenum>  (142) 
18

>  <r_i_glide_eff_state_penalty>  (142) 
0

>  <ligand_id>  (142) 
50

>  <original_smiles>  (142) 
c1cc(N2CC3C(C2)C3c2nc3cncnc3n2C2CCC2)ncn1

>  <smiles>  (142) 
[H]c1nc([H])c([H])c(N2C([H])([H])C3([H])C([H])(c4nc5c([H])nc([H])nc5n4C4([H])C([H])([H])C([H])([H])C4([H])[H])C3([H])C2([H])[H])n1

$$$$
50:0:1
     RDKit          3D

 44 49  0  0  1  0  0  0  0  0999 V2000
   -2.2816    3.3386    3.5994 C   0  0  0  0  0  0  0  0  0  0  0  0
   -1.6126    2.1031    3.5803 C   0  0  0  0  0  0  0  0  0  0  0  0
   -0.2051    2.1414    3.6152 C   0  0  0  0  0  0  0  0  0  0  0  0
    0.5597    0.9579    3.5819 N   0  0  0  0  0  0  0  0  0  0  0  0
    0.0821   -0.3035    4.1352 C   0  0  0  0  0  0  0  0  0  0  0  0
    1.2022   -1.2914    3.8761 C   0  0  2  0  0  0  0  0  0  0  0  0
    2.4098   -0.5005    3.4786 C   0  0  2  0  0  0  0  0  0  0  0  0
    2.0164    0.9607    3.4953 C   0  0  0  0  0  0  0  0  0  0  0  0
    1.8168   -1.4938    2.4975 C   0  0  1  0  0  0  0  0  0  0  0  0
    2.5532   -2.7534    2.1107 C   0  0  0  0  0  0  0  0  0  0  0  0
    2.4022   -3.8836    2.8110 N   0  0  0  0  0  0  0  0  0  0  0  0
    3.1872   -4.7768    2.1089 C   0  0  0  0  0  0  0  0  0  0  0  0
    3.4976   -6.1425    2.3097 C   0  0  0  0  0  0  0  0  0  0  0  0
    4.2928   -6.7687    1.4136 N   0  0  0  0  0  0  0  0  0  0  0  0
    4.7795   -6.0751    0.3784 C   0  0  0  0  0  0  0  0  0  0  0  0
    4.6049   -4.7867    0.0821 N   0  0  0  0  0  0  0  0  0  0  0  0
    3.7849   -4.1641    0.9774 C   0  0  0  0  0  0  0  0  0  0  0  0
    3.3473   -2.8394    1.0021 N   0  0  0  0  0  0  0  0  0  0  0  0
    3.6810   -1.8118    0.0368 C   0  0  0  0  0  0  0  0  0  0  0  0
    3.5631   -2.0587   -1.4772 C   0  0  0  0  0  0  0  0  0  0  0  0
    4.7135   -1.0678   -1.6635 C   0  0  0  0  0  0  0  0  0  0  0  0
    5.1367   -1.4035   -0.2289 C   0  0  0  0  0  0  0  0  0  0  0  0
    0.4501    3.3184    3.6888 N   0  0  0  0  0  0  0  0  0  0  0  0
   -0.2886    4.4290    3.6865 C   0  0  0  0  0  0  0  0  0  0  0  0
   -1.6216    4.5104    3.6818 N   0  0  0  0  0  0  0  0  0  0  0  0
   -3.3617    3.3885    3.5653 H   0  0  0  0  0  0  0  0  0  0  0  0
   -2.1752    1.1866    3.5014 H   0  0  0  0  0  0  0  0  0  0  0  0
   -0.0714   -0.1934    5.2104 H   0  0  0  0  0  0  0  0  0  0  0  0
   -0.8450   -0.6504    3.6817 H   0  0  0  0  0  0  0  0  0  0  0  0
    1.3228   -2.0810    4.6136 H   0  0  0  0  0  0  0  0  0  0  0  0
    3.3633   -0.7564    3.9371 H   0  0  0  0  0  0  0  0  0  0  0  0
    2.3794    1.4609    2.5979 H   0  0  0  0  0  0  0  0  0  0  0  0
    2.4445    1.4465    4.3732 H   0  0  0  0  0  0  0  0  0  0  0  0
    1.2383   -1.1311    1.6519 H   0  0  0  0  0  0  0  0  0  0  0  0
    3.1188   -6.7093    3.1489 H   0  0  0  0  0  0  0  0  0  0  0  0
    5.3963   -6.6412   -0.3003 H   0  0  0  0  0  0  0  0  0  0  0  0
    3.1012   -0.9233    0.2897 H   0  0  0  0  0  0  0  0  0  0  0  0
    3.8398   -3.0678   -1.7891 H   0  0  0  0  0  0  0  0  0  0  0  0
    2.6169   -1.7462   -1.9203 H   0  0  0  0  0  0  0  0  0  0  0  0
    5.4277   -1.3511   -2.4357 H   0  0  0  0  0  0  0  0  0  0  0  0
    4.3685   -0.0396   -1.7831 H   0  0  0  0  0  0  0  0  0  0  0  0
    5.4878   -0.5515    0.3517 H   0  0  0  0  0  0  0  0  0  0  0  0
    5.8352   -2.2425   -0.1894 H   0  0  0  0  0  0  0  0  0  0  0  0
    0.2318    5.3680    3.7736 H   0  0  0  0  0  0  0  0  0  0  0  0
  1 25  2  0
  1  2  1  0
  1 26  1  0
  2  3  2  0
  2 27  1  0
  3  4  1  0
  3 23  1  0
  4  8  1  0
  4  5  1  0
  5  6  1  0
  5 28  1  0
  5 29  1  0
  6  9  1  0
  6  7  1  0
  6 30  1  1
  7  8  1  0
  7  9  1  0
  7 31  1  1
  8 32  1  0
  8 33  1  0
  9 10  1  0
  9 34  1  6
 10 18  1  0
 10 11  2  0
 11 12  1  0
 12 17  2  0
 12 13  1  0
 13 14  2  0
 13 35  1  0
 14 15  1  0
 15 16  2  0
 15 36  1  0
 16 17  1  0
 17 18  1  0
 18 19  1  0
 19 22  1  0
 19 20  1  0
 19 37  1  0
 20 21  1  0
 20 38  1  0
 20 39  1  0
 21 22  1  0
 21 40  1  0
 21 41  1  0
 22 42  1  0
 22 43  1  0
 23 24  2  0
 24 25  1  0
 24 44  1  0
M  END
>  <i_m_ct_stereo_status>  (143) 
1

>  <s_m_source_file>  (143) 
/var/tmp/pbs.5076255.sched01/tmpcdf8lnea/434bzo3qpq.sdf

>  <i_m_source_file_index>  (143) 
19

>  <i_lp_mmshare_version>  (143) 
48012

>  <i_f3d_flags>  (143) 
0

>  <s_epik_input>  (143) 
bjFbY0hdbltjSF1bY0hdYzFOKFtDSDJdMilbQ0gyXVtDQEBIXShbQ0BASF0yMylbQ0BIXTNjKG40KW4oW0NIXTVbQ0gyXVtDSDJdW0NIMl01KWMoYzQ2KW5bY0hdbltjSF02

>  <s_epik_cmdline>  (143) 
J2VwaWtfcHl0aG9uJywgJy1waHQnLCAnMi4wJywgJy1waCcsICc3LjAnLCAnLXRuJywgJzgnLCAnLW1hJywgJzIwMCcsICctaW1hZScsICc8aW5maWxlLm1hZT4nLCAnLW9tYWUnLCAnPG91dGZpbGUubWFlPic=

>  <r_lp_tautomer_probability>  (143) 
1

>  <r_epik_Ionization_Penalty>  (143) 
0.127365

>  <r_epik_Ionization_Penalty_Charging>  (143) 
0

>  <r_epik_Ionization_Penalty_Neutral>  (143) 
0.127365

>  <r_epik_State_Penalty>  (143) 
0.114254

>  <r_epik_Charging_Adjusted_Penalty>  (143) 
0.114254

>  <i_epik_Tot_Q>  (143) 
0

>  <i_epik_Tot_abs_Q>  (143) 
0

>  <s_lp_Force_Field>  (143) 
OPLS3e

>  <r_lp_Energy>  (143) 
45.9219

>  <b_lp_Chiralities_Consistent>  (143) 
1

>  <s_lp_Variant>  (143) 
50:0-1

>  <s_i_glide_gridfile>  (143) 
pfpi4k_grid

>  <i_i_glide_lignum>  (143) 
19

>  <i_i_glide_rotatable_bonds>  (143) 
3

>  <r_i_docking_score>  (143) 
-3.10288

>  <r_i_glide_ligand_efficiency>  (143) 
-0.124115

>  <r_i_glide_ligand_efficiency_sa>  (143) 
-0.362915

>  <r_i_glide_ligand_efficiency_ln>  (143) 
-0.735476

>  <r_i_glide_gscore>  (143) 
-3.10288

>  <r_i_glide_lipo>  (143) 
-0.00419542

>  <r_i_glide_hbond>  (143) 
-0.16

>  <r_i_glide_metal>  (143) 
-0

>  <r_i_glide_rewards>  (143) 
-1.33514

>  <r_i_glide_evdw>  (143) 
-27.0905

>  <r_i_glide_ecoul>  (143) 
-4.10281

>  <r_i_glide_erotb>  (143) 
0.508692

>  <r_i_glide_esite>  (143) 
-0.142292

>  <r_i_glide_emodel>  (143) 
-36.9186

>  <r_i_glide_energy>  (143) 
-31.1933

>  <r_i_glide_einternal>  (143) 
2.27896

>  <r_i_glide_intrahb_reward>  (143) 
-0

>  <i_i_glide_confnum>  (143) 
3

>  <i_i_glide_posenum>  (143) 
25

>  <r_i_glide_eff_state_penalty>  (143) 
0

>  <ligand_id>  (143) 
50

>  <original_smiles>  (143) 
c1cc(N2CC3C(C2)C3c2nc3cncnc3n2C2CCC2)ncn1

>  <smiles>  (143) 
[H]c1nc([H])c([H])c(N2C([H])([H])C3([H])C([H])(c4nc5c([H])nc([H])nc5n4C4([H])C([H])([H])C([H])([H])C4([H])[H])C3([H])C2([H])[H])n1

$$$$
50:0:2
     RDKit          3D

 44 49  0  0  1  0  0  0  0  0999 V2000
    8.0940   -2.2799   -0.2990 C   0  0  0  0  0  0  0  0  0  0  0  0
    7.1160   -1.7174    0.5373 C   0  0  0  0  0  0  0  0  0  0  0  0
    5.7694   -1.9054    0.1667 C   0  0  0  0  0  0  0  0  0  0  0  0
    4.7168   -1.3951    0.9494 N   0  0  0  0  0  0  0  0  0  0  0  0
    4.9044   -0.8774    2.3026 C   0  0  0  0  0  0  0  0  0  0  0  0
    3.5250   -0.4530    2.7582 C   0  0  2  0  0  0  0  0  0  0  0  0
    2.5442   -1.0225    1.7866 C   0  0  2  0  0  0  0  0  0  0  0  0
    3.3302   -1.8004    0.7524 C   0  0  0  0  0  0  0  0  0  0  0  0
    2.6525    0.4861    1.9450 C   0  0  1  0  0  0  0  0  0  0  0  0
    1.5279    1.2795    2.5578 C   0  0  0  0  0  0  0  0  0  0  0  0
    0.2810    1.1737    2.0888 N   0  0  0  0  0  0  0  0  0  0  0  0
   -0.4211    2.0447    2.9017 C   0  0  0  0  0  0  0  0  0  0  0  0
   -1.7871    2.4019    2.9723 C   0  0  0  0  0  0  0  0  0  0  0  0
   -2.1965    3.2490    3.9481 N   0  0  0  0  0  0  0  0  0  0  0  0
   -1.2907    3.7307    4.8031 C   0  0  0  0  0  0  0  0  0  0  0  0
    0.0226    3.5083    4.8455 N   0  0  0  0  0  0  0  0  0  0  0  0
    0.4296    2.6550    3.8557 C   0  0  0  0  0  0  0  0  0  0  0  0
    1.7062    2.1670    3.5803 N   0  0  0  0  0  0  0  0  0  0  0  0
    2.9262    2.5052    4.2746 C   0  0  0  0  0  0  0  0  0  0  0  0
    3.1349    2.0973    5.7362 C   0  0  0  0  0  0  0  0  0  0  0  0
    4.0172    3.3410    5.8885 C   0  0  0  0  0  0  0  0  0  0  0  0
    3.2465    3.9434    4.7107 C   0  0  0  0  0  0  0  0  0  0  0  0
    5.4576   -2.5654   -0.9708 N   0  0  0  0  0  0  0  0  0  0  0  0
    6.4637   -3.0414   -1.7009 C   0  0  0  0  0  0  0  0  0  0  0  0
    7.7609   -2.9158   -1.4347 N   0  0  0  0  0  0  0  0  0  0  0  0
    9.1496   -2.1815   -0.0856 H   0  0  0  0  0  0  0  0  0  0  0  0
    7.4042   -1.1706    1.4219 H   0  0  0  0  0  0  0  0  0  0  0  0
    5.2778   -1.6684    2.9549 H   0  0  0  0  0  0  0  0  0  0  0  0
    5.5896   -0.0316    2.3365 H   0  0  0  0  0  0  0  0  0  0  0  0
    3.3127   -0.5340    3.8215 H   0  0  0  0  0  0  0  0  0  0  0  0
    1.6510   -1.5028    2.1780 H   0  0  0  0  0  0  0  0  0  0  0  0
    2.9697   -1.5830   -0.2523 H   0  0  0  0  0  0  0  0  0  0  0  0
    3.2243   -2.8705    0.9397 H   0  0  0  0  0  0  0  0  0  0  0  0
    3.1109    1.0502    1.1366 H   0  0  0  0  0  0  0  0  0  0  0  0
   -2.5316    2.0001    2.2982 H   0  0  0  0  0  0  0  0  0  0  0  0
   -1.6780    4.3976    5.5596 H   0  0  0  0  0  0  0  0  0  0  0  0
    3.7565    2.1406    3.6710 H   0  0  0  0  0  0  0  0  0  0  0  0
    2.2212    2.1600    6.3313 H   0  0  0  0  0  0  0  0  0  0  0  0
    3.6534    1.1505    5.8794 H   0  0  0  0  0  0  0  0  0  0  0  0
    3.8940    3.8748    6.8309 H   0  0  0  0  0  0  0  0  0  0  0  0
    5.0670    3.1488    5.6605 H   0  0  0  0  0  0  0  0  0  0  0  0
    3.8421    4.5111    3.9991 H   0  0  0  0  0  0  0  0  0  0  0  0
    2.3807    4.5143    5.0459 H   0  0  0  0  0  0  0  0  0  0  0  0
    6.2188   -3.5628   -2.6117 H   0  0  0  0  0  0  0  0  0  0  0  0
  1 25  2  0
  1  2  1  0
  1 26  1  0
  2  3  2  0
  2 27  1  0
  3  4  1  0
  3 23  1  0
  4  8  1  0
  4  5  1  0
  5  6  1  0
  5 28  1  0
  5 29  1  0
  6  9  1  0
  6  7  1  0
  6 30  1  1
  7  8  1  0
  7  9  1  0
  7 31  1  1
  8 32  1  0
  8 33  1  0
  9 10  1  0
  9 34  1  6
 10 18  1  0
 10 11  2  0
 11 12  1  0
 12 17  2  0
 12 13  1  0
 13 14  2  0
 13 35  1  0
 14 15  1  0
 15 16  2  0
 15 36  1  0
 16 17  1  0
 17 18  1  0
 18 19  1  0
 19 22  1  0
 19 20  1  0
 19 37  1  0
 20 21  1  0
 20 38  1  0
 20 39  1  0
 21 22  1  0
 21 40  1  0
 21 41  1  0
 22 42  1  0
 22 43  1  0
 23 24  2  0
 24 25  1  0
 24 44  1  0
M  END
>  <i_m_ct_stereo_status>  (144) 
1

>  <s_m_source_file>  (144) 
/var/tmp/pbs.5076255.sched01/tmpcdf8lnea/434bzo3qpq.sdf

>  <i_m_source_file_index>  (144) 
19

>  <i_lp_mmshare_version>  (144) 
48012

>  <i_f3d_flags>  (144) 
0

>  <s_epik_input>  (144) 
bjFbY0hdbltjSF1bY0hdYzFOKFtDSDJdMilbQ0gyXVtDQEBIXShbQ0BASF0yMylbQ0BIXTNjKG40KW4oW0NIXTVbQ0gyXVtDSDJdW0NIMl01KWMoYzQ2KW5bY0hdbltjSF02

>  <s_epik_cmdline>  (144) 
J2VwaWtfcHl0aG9uJywgJy1waHQnLCAnMi4wJywgJy1waCcsICc3LjAnLCAnLXRuJywgJzgnLCAnLW1hJywgJzIwMCcsICctaW1hZScsICc8aW5maWxlLm1hZT4nLCAnLW9tYWUnLCAnPG91dGZpbGUubWFlPic=

>  <r_lp_tautomer_probability>  (144) 
1

>  <r_epik_Ionization_Penalty>  (144) 
0.127365

>  <r_epik_Ionization_Penalty_Charging>  (144) 
0

>  <r_epik_Ionization_Penalty_Neutral>  (144) 
0.127365

>  <r_epik_State_Penalty>  (144) 
0.114254

>  <r_epik_Charging_Adjusted_Penalty>  (144) 
0.114254

>  <i_epik_Tot_Q>  (144) 
0

>  <i_epik_Tot_abs_Q>  (144) 
0

>  <s_lp_Force_Field>  (144) 
OPLS3e

>  <r_lp_Energy>  (144) 
45.9219

>  <b_lp_Chiralities_Consistent>  (144) 
1

>  <s_lp_Variant>  (144) 
50:0-1

>  <s_i_glide_gridfile>  (144) 
pfpi4k_grid

>  <i_i_glide_lignum>  (144) 
19

>  <i_i_glide_rotatable_bonds>  (144) 
3

>  <r_i_docking_score>  (144) 
-2.70723

>  <r_i_glide_ligand_efficiency>  (144) 
-0.108289

>  <r_i_glide_ligand_efficiency_sa>  (144) 
-0.316639

>  <r_i_glide_ligand_efficiency_ln>  (144) 
-0.641694

>  <r_i_glide_gscore>  (144) 
-2.70723

>  <r_i_glide_lipo>  (144) 
-0.146067

>  <r_i_glide_hbond>  (144) 
-0.0510918

>  <r_i_glide_metal>  (144) 
-0

>  <r_i_glide_rewards>  (144) 
-1.23887

>  <r_i_glide_evdw>  (144) 
-31.8613

>  <r_i_glide_ecoul>  (144) 
-0.46357

>  <r_i_glide_erotb>  (144) 
0.508692

>  <r_i_glide_esite>  (144) 
-0.117289

>  <r_i_glide_emodel>  (144) 
-38.0296

>  <r_i_glide_energy>  (144) 
-32.3249

>  <r_i_glide_einternal>  (144) 
0.641541

>  <r_i_glide_intrahb_reward>  (144) 
-0

>  <i_i_glide_confnum>  (144) 
5

>  <i_i_glide_posenum>  (144) 
39

>  <r_i_glide_eff_state_penalty>  (144) 
0

>  <ligand_id>  (144) 
50

>  <original_smiles>  (144) 
c1cc(N2CC3C(C2)C3c2nc3cncnc3n2C2CCC2)ncn1

>  <smiles>  (144) 
[H]c1nc([H])c([H])c(N2C([H])([H])C3([H])C([H])(c4nc5c([H])nc([H])nc5n4C4([H])C([H])([H])C([H])([H])C4([H])[H])C3([H])C2([H])[H])n1

$$$$
50:1:0
     RDKit          3D

 44 49  0  0  1  0  0  0  0  0999 V2000
    3.0792   -2.2134   -3.5655 C   0  0  0  0  0  0  0  0  0  0  0  0
    3.3670   -1.7548   -2.2529 C   0  0  0  0  0  0  0  0  0  0  0  0
    4.5581   -2.2345   -1.6659 C   0  0  0  0  0  0  0  0  0  0  0  0
    5.0073   -1.7880   -0.4208 N   0  0  0  0  0  0  0  0  0  0  0  0
    4.1640   -0.9352    0.4196 C   0  0  0  0  0  0  0  0  0  0  0  0
    4.8780   -0.8382    1.7296 C   0  0  2  0  0  0  0  0  0  0  0  0
    6.1723   -1.5771    1.6526 C   0  0  2  0  0  0  0  0  0  0  0  0
    6.2243   -2.1426    0.2502 C   0  0  0  0  0  0  0  0  0  0  0  0
    5.0693   -2.0479    2.6693 C   0  0  2  0  0  0  0  0  0  0  0  0
    4.3259   -3.3164    2.4233 C   0  0  0  0  0  0  0  0  0  0  0  0
    4.9983   -4.4330    2.1666 N   0  0  0  0  0  0  0  0  0  0  0  0
    3.9940   -5.3682    2.0096 C   0  0  0  0  0  0  0  0  0  0  0  0
    4.0069   -6.7464    1.7086 C   0  0  0  0  0  0  0  0  0  0  0  0
    2.8356   -7.4090    1.6803 N   0  0  0  0  0  0  0  0  0  0  0  0
    1.7009   -6.7530    1.9140 C   0  0  0  0  0  0  0  0  0  0  0  0
    1.5210   -5.4484    2.1865 N   0  0  0  0  0  0  0  0  0  0  0  0
    2.7162   -4.7777    2.2329 C   0  0  0  0  0  0  0  0  0  0  0  0
    2.9759   -3.4294    2.5303 N   0  0  0  0  0  0  0  0  0  0  0  0
    1.9968   -2.4215    2.8750 C   0  0  0  0  0  0  0  0  0  0  0  0
    1.8319   -1.0356    2.2084 C   0  0  0  0  0  0  0  0  0  0  0  0
    1.5096   -0.3757    3.5123 C   0  0  0  0  0  0  0  0  0  0  0  0
    2.0842   -1.6485    4.2004 C   0  0  0  0  0  0  0  0  0  0  0  0
    5.3511   -3.0869   -2.2915 N   0  0  0  0  0  0  0  0  0  0  0  0
    4.9715   -3.4628   -3.5207 C   0  0  0  0  0  0  0  0  0  0  0  0
    3.9020   -3.0528   -4.2045 N   0  0  0  0  0  0  0  0  0  0  0  0
    2.2105   -1.8703   -4.1061 H   0  0  0  0  0  0  0  0  0  0  0  0
    2.6713   -1.0702   -1.7894 H   0  0  0  0  0  0  0  0  0  0  0  0
    3.9490    0.0486   -0.0247 H   0  0  0  0  0  0  0  0  0  0  0  0
    3.2560   -1.5226    0.4371 H   0  0  0  0  0  0  0  0  0  0  0  0
    4.8398    0.1144    2.2559 H   0  0  0  0  0  0  0  0  0  0  0  0
    7.0285   -1.0683    2.0360 H   0  0  0  0  0  0  0  0  0  0  0  0
    6.3763   -3.2434    0.2851 H   0  0  0  0  0  0  0  0  0  0  0  0
    7.0331   -1.6418   -0.3039 H   0  0  0  0  0  0  0  0  0  0  0  0
    5.2859   -1.8621    3.6895 H   0  0  0  0  0  0  0  0  0  0  0  0
    4.9280   -7.2874    1.5244 H   0  0  0  0  0  0  0  0  0  0  0  0
    0.7955   -7.3592    1.8614 H   0  0  0  0  0  0  0  0  0  0  0  0
    0.9946   -2.8991    2.7435 H   0  0  0  0  0  0  0  0  0  0  0  0
    2.7350   -0.4435    2.1034 H   0  0  0  0  0  0  0  0  0  0  0  0
    1.2388   -0.9251    1.3108 H   0  0  0  0  0  0  0  0  0  0  0  0
    2.1093    0.5175    3.6788 H   0  0  0  0  0  0  0  0  0  0  0  0
    0.4348   -0.2065    3.5437 H   0  0  0  0  0  0  0  0  0  0  0  0
    1.4306   -2.0174    4.9912 H   0  0  0  0  0  0  0  0  0  0  0  0
    3.1208   -1.5096    4.5231 H   0  0  0  0  0  0  0  0  0  0  0  0
    5.6576   -4.1348   -4.0296 H   0  0  0  0  0  0  0  0  0  0  0  0
  1 25  2  0
  1  2  1  0
  1 26  1  0
  2  3  2  0
  2 27  1  0
  3  4  1  0
  3 23  1  0
  4  8  1  0
  4  5  1  0
  5  6  1  0
  5 28  1  0
  5 29  1  0
  6  9  1  0
  6  7  1  0
  6 30  1  1
  7  8  1  0
  7  9  1  0
  7 31  1  1
  8 32  1  0
  8 33  1  0
  9 10  1  0
  9 34  1  1
 10 18  1  0
 10 11  2  0
 11 12  1  0
 12 17  2  0
 12 13  1  0
 13 14  2  0
 13 35  1  0
 14 15  1  0
 15 16  2  0
 15 36  1  0
 16 17  1  0
 17 18  1  0
 18 19  1  0
 19 22  1  0
 19 20  1  0
 19 37  1  0
 20 21  1  0
 20 38  1  0
 20 39  1  0
 21 22  1  0
 21 40  1  0
 21 41  1  0
 22 42  1  0
 22 43  1  0
 23 24  2  0
 24 25  1  0
 24 44  1  0
M  END
>  <i_m_ct_stereo_status>  (145) 
1

>  <s_m_source_file>  (145) 
/var/tmp/pbs.5076255.sched01/tmpcdf8lnea/434bzo3qpq.sdf

>  <i_m_source_file_index>  (145) 
20

>  <i_lp_mmshare_version>  (145) 
48012

>  <i_f3d_flags>  (145) 
0

>  <s_epik_input>  (145) 
bjFbY0hdbltjSF1bY0hdYzFOKFtDSDJdMilbQ0gyXVtDQEBIXShbQ0BASF0yMylbQ0BIXTNjKG40KW4oW0NIXTVbQ0gyXVtDSDJdW0NIMl01KWMoYzQ2KW5bY0hdbltjSF02

>  <s_epik_cmdline>  (145) 
J2VwaWtfcHl0aG9uJywgJy1waHQnLCAnMi4wJywgJy1waCcsICc3LjAnLCAnLXRuJywgJzgnLCAnLW1hJywgJzIwMCcsICctaW1hZScsICc8aW5maWxlLm1hZT4nLCAnLW9tYWUnLCAnPG91dGZpbGUubWFlPic=

>  <r_lp_tautomer_probability>  (145) 
1

>  <r_epik_Ionization_Penalty>  (145) 
0.127365

>  <r_epik_Ionization_Penalty_Charging>  (145) 
0

>  <r_epik_Ionization_Penalty_Neutral>  (145) 
0.127365

>  <r_epik_State_Penalty>  (145) 
0.114254

>  <r_epik_Charging_Adjusted_Penalty>  (145) 
0.114254

>  <i_epik_Tot_Q>  (145) 
0

>  <i_epik_Tot_abs_Q>  (145) 
0

>  <s_lp_Force_Field>  (145) 
OPLS3e

>  <r_lp_Energy>  (145) 
46.7258

>  <b_lp_Chiralities_Consistent>  (145) 
1

>  <s_lp_Variant>  (145) 
50:0-2

>  <s_i_glide_gridfile>  (145) 
pfpi4k_grid

>  <i_i_glide_lignum>  (145) 
20

>  <i_i_glide_rotatable_bonds>  (145) 
3

>  <r_i_docking_score>  (145) 
-4.15493

>  <r_i_glide_ligand_efficiency>  (145) 
-0.166197

>  <r_i_glide_ligand_efficiency_sa>  (145) 
-0.485964

>  <r_i_glide_ligand_efficiency_ln>  (145) 
-0.984843

>  <r_i_glide_gscore>  (145) 
-4.15493

>  <r_i_glide_lipo>  (145) 
-0.700525

>  <r_i_glide_hbond>  (145) 
-0.264068

>  <r_i_glide_metal>  (145) 
-0

>  <r_i_glide_rewards>  (145) 
-1.47489

>  <r_i_glide_evdw>  (145) 
-29.2608

>  <r_i_glide_ecoul>  (145) 
-4.69498

>  <r_i_glide_erotb>  (145) 
0.508692

>  <r_i_glide_esite>  (145) 
-0.0568592

>  <r_i_glide_emodel>  (145) 
-39.1311

>  <r_i_glide_energy>  (145) 
-33.9558

>  <r_i_glide_einternal>  (145) 
0.745956

>  <r_i_glide_intrahb_reward>  (145) 
-0

>  <i_i_glide_confnum>  (145) 
5

>  <i_i_glide_posenum>  (145) 
10

>  <r_i_glide_eff_state_penalty>  (145) 
0

>  <ligand_id>  (145) 
50

>  <original_smiles>  (145) 
c1cc(N2CC3C(C2)C3c2nc3cncnc3n2C2CCC2)ncn1

>  <smiles>  (145) 
[H]c1nc([H])c([H])c(N2C([H])([H])C3([H])C([H])(c4nc5c([H])nc([H])nc5n4C4([H])C([H])([H])C([H])([H])C4([H])[H])C3([H])C2([H])[H])n1

$$$$
50:1:1
     RDKit          3D

 44 49  0  0  1  0  0  0  0  0999 V2000
    3.1109   -1.9077   -3.6094 C   0  0  0  0  0  0  0  0  0  0  0  0
    3.4131   -1.4455   -2.3197 C   0  0  0  0  0  0  0  0  0  0  0  0
    4.4958   -2.0516   -1.6641 C   0  0  0  0  0  0  0  0  0  0  0  0
    4.9056   -1.6260   -0.3900 N   0  0  0  0  0  0  0  0  0  0  0  0
    4.0806   -0.7765    0.4688 C   0  0  0  0  0  0  0  0  0  0  0  0
    4.8051   -0.7188    1.7868 C   0  0  2  0  0  0  0  0  0  0  0  0
    6.0751   -1.4968    1.6477 C   0  0  2  0  0  0  0  0  0  0  0  0
    6.1645   -2.0237    0.2272 C   0  0  0  0  0  0  0  0  0  0  0  0
    5.0179   -1.9406    2.6549 C   0  0  2  0  0  0  0  0  0  0  0  0
    4.2115   -3.1914    2.4465 C   0  0  0  0  0  0  0  0  0  0  0  0
    4.7095   -4.2012    1.7326 N   0  0  0  0  0  0  0  0  0  0  0  0
    3.6717   -5.0940    1.7222 C   0  0  0  0  0  0  0  0  0  0  0  0
    3.5083   -6.3275    1.0603 C   0  0  0  0  0  0  0  0  0  0  0  0
    2.3852   -7.0416    1.2921 N   0  0  0  0  0  0  0  0  0  0  0  0
    1.4612   -6.5524    2.1237 C   0  0  0  0  0  0  0  0  0  0  0  0
    1.4497   -5.3716    2.7543 N   0  0  0  0  0  0  0  0  0  0  0  0
    2.5955   -4.6558    2.5274 C   0  0  0  0  0  0  0  0  0  0  0  0
    2.9782   -3.3942    2.9912 N   0  0  0  0  0  0  0  0  0  0  0  0
    2.2372   -2.5299    3.8915 C   0  0  0  0  0  0  0  0  0  0  0  0
    1.8828   -3.0077    5.3107 C   0  0  0  0  0  0  0  0  0  0  0  0
    0.5726   -2.2200    5.1987 C   0  0  0  0  0  0  0  0  0  0  0  0
    0.7451   -2.2476    3.6800 C   0  0  0  0  0  0  0  0  0  0  0  0
    5.2113   -3.0316   -2.2602 N   0  0  0  0  0  0  0  0  0  0  0  0
    4.8168   -3.4142   -3.4741 C   0  0  0  0  0  0  0  0  0  0  0  0
    3.8231   -2.8925   -4.1906 N   0  0  0  0  0  0  0  0  0  0  0  0
    2.3019   -1.4779   -4.1861 H   0  0  0  0  0  0  0  0  0  0  0  0
    2.8115   -0.6690   -1.8698 H   0  0  0  0  0  0  0  0  0  0  0  0
    4.0123    0.2253    0.0538 H   0  0  0  0  0  0  0  0  0  0  0  0
    3.0713   -1.1643    0.6125 H   0  0  0  0  0  0  0  0  0  0  0  0
    4.8450    0.2558    2.2669 H   0  0  0  0  0  0  0  0  0  0  0  0
    6.9835   -1.0577    2.0459 H   0  0  0  0  0  0  0  0  0  0  0  0
    6.3214   -3.1029    0.2224 H   0  0  0  0  0  0  0  0  0  0  0  0
    7.0079   -1.5811   -0.3058 H   0  0  0  0  0  0  0  0  0  0  0  0
    5.2231   -1.7906    3.7112 H   0  0  0  0  0  0  0  0  0  0  0  0
    4.2583   -6.7339    0.3993 H   0  0  0  0  0  0  0  0  0  0  0  0
    0.6058   -7.1902    2.2887 H   0  0  0  0  0  0  0  0  0  0  0  0
    2.7741   -1.5804    3.9450 H   0  0  0  0  0  0  0  0  0  0  0  0
    1.7227   -4.0870    5.3657 H   0  0  0  0  0  0  0  0  0  0  0  0
    2.5638   -2.6601    6.0885 H   0  0  0  0  0  0  0  0  0  0  0  0
   -0.3088   -2.7568    5.5570 H   0  0  0  0  0  0  0  0  0  0  0  0
    0.6422   -1.2122    5.6141 H   0  0  0  0  0  0  0  0  0  0  0  0
    0.5308   -1.3077    3.1722 H   0  0  0  0  0  0  0  0  0  0  0  0
    0.2126   -3.0813    3.2297 H   0  0  0  0  0  0  0  0  0  0  0  0
    5.3946   -4.1820   -3.9597 H   0  0  0  0  0  0  0  0  0  0  0  0
  1 25  2  0
  1  2  1  0
  1 26  1  0
  2  3  2  0
  2 27  1  0
  3  4  1  0
  3 23  1  0
  4  8  1  0
  4  5  1  0
  5  6  1  0
  5 28  1  0
  5 29  1  0
  6  9  1  0
  6  7  1  0
  6 30  1  1
  7  8  1  0
  7  9  1  0
  7 31  1  1
  8 32  1  0
  8 33  1  0
  9 10  1  0
  9 34  1  1
 10 18  1  0
 10 11  2  0
 11 12  1  0
 12 17  2  0
 12 13  1  0
 13 14  2  0
 13 35  1  0
 14 15  1  0
 15 16  2  0
 15 36  1  0
 16 17  1  0
 17 18  1  0
 18 19  1  0
 19 22  1  0
 19 20  1  0
 19 37  1  0
 20 21  1  0
 20 38  1  0
 20 39  1  0
 21 22  1  0
 21 40  1  0
 21 41  1  0
 22 42  1  0
 22 43  1  0
 23 24  2  0
 24 25  1  0
 24 44  1  0
M  END
>  <i_m_ct_stereo_status>  (146) 
1

>  <s_m_source_file>  (146) 
/var/tmp/pbs.5076255.sched01/tmpcdf8lnea/434bzo3qpq.sdf

>  <i_m_source_file_index>  (146) 
20

>  <i_lp_mmshare_version>  (146) 
48012

>  <i_f3d_flags>  (146) 
0

>  <s_epik_input>  (146) 
bjFbY0hdbltjSF1bY0hdYzFOKFtDSDJdMilbQ0gyXVtDQEBIXShbQ0BASF0yMylbQ0BIXTNjKG40KW4oW0NIXTVbQ0gyXVtDSDJdW0NIMl01KWMoYzQ2KW5bY0hdbltjSF02

>  <s_epik_cmdline>  (146) 
J2VwaWtfcHl0aG9uJywgJy1waHQnLCAnMi4wJywgJy1waCcsICc3LjAnLCAnLXRuJywgJzgnLCAnLW1hJywgJzIwMCcsICctaW1hZScsICc8aW5maWxlLm1hZT4nLCAnLW9tYWUnLCAnPG91dGZpbGUubWFlPic=

>  <r_lp_tautomer_probability>  (146) 
1

>  <r_epik_Ionization_Penalty>  (146) 
0.127365

>  <r_epik_Ionization_Penalty_Charging>  (146) 
0

>  <r_epik_Ionization_Penalty_Neutral>  (146) 
0.127365

>  <r_epik_State_Penalty>  (146) 
0.114254

>  <r_epik_Charging_Adjusted_Penalty>  (146) 
0.114254

>  <i_epik_Tot_Q>  (146) 
0

>  <i_epik_Tot_abs_Q>  (146) 
0

>  <s_lp_Force_Field>  (146) 
OPLS3e

>  <r_lp_Energy>  (146) 
46.7258

>  <b_lp_Chiralities_Consistent>  (146) 
1

>  <s_lp_Variant>  (146) 
50:0-2

>  <s_i_glide_gridfile>  (146) 
pfpi4k_grid

>  <i_i_glide_lignum>  (146) 
20

>  <i_i_glide_rotatable_bonds>  (146) 
3

>  <r_i_docking_score>  (146) 
-4.06937

>  <r_i_glide_ligand_efficiency>  (146) 
-0.162775

>  <r_i_glide_ligand_efficiency_sa>  (146) 
-0.475957

>  <r_i_glide_ligand_efficiency_ln>  (146) 
-0.964563

>  <r_i_glide_gscore>  (146) 
-4.06937

>  <r_i_glide_lipo>  (146) 
-0.782495

>  <r_i_glide_hbond>  (146) 
-0.276357

>  <r_i_glide_metal>  (146) 
-0

>  <r_i_glide_rewards>  (146) 
-1.46205

>  <r_i_glide_evdw>  (146) 
-30.1046

>  <r_i_glide_ecoul>  (146) 
-3.24243

>  <r_i_glide_erotb>  (146) 
0.508692

>  <r_i_glide_esite>  (146) 
-0.0655625

>  <r_i_glide_emodel>  (146) 
-40.2123

>  <r_i_glide_energy>  (146) 
-33.3471

>  <r_i_glide_einternal>  (146) 
3.41919

>  <r_i_glide_intrahb_reward>  (146) 
-0

>  <i_i_glide_confnum>  (146) 
4

>  <i_i_glide_posenum>  (146) 
37

>  <r_i_glide_eff_state_penalty>  (146) 
0

>  <ligand_id>  (146) 
50

>  <original_smiles>  (146) 
c1cc(N2CC3C(C2)C3c2nc3cncnc3n2C2CCC2)ncn1

>  <smiles>  (146) 
[H]c1nc([H])c([H])c(N2C([H])([H])C3([H])C([H])(c4nc5c([H])nc([H])nc5n4C4([H])C([H])([H])C([H])([H])C4([H])[H])C3([H])C2([H])[H])n1

$$$$
50:1:2
     RDKit          3D

 44 49  0  0  1  0  0  0  0  0999 V2000
    3.3462   -2.1601   -3.3800 C   0  0  0  0  0  0  0  0  0  0  0  0
    3.4258   -1.6489   -2.0793 C   0  0  0  0  0  0  0  0  0  0  0  0
    4.5845   -1.9624   -1.3316 C   0  0  0  0  0  0  0  0  0  0  0  0
    4.8408   -1.3860   -0.0733 N   0  0  0  0  0  0  0  0  0  0  0  0
    3.8241   -0.6079    0.6271 C   0  0  0  0  0  0  0  0  0  0  0  0
    4.2768   -0.5288    2.0625 C   0  0  2  0  0  0  0  0  0  0  0  0
    5.5421   -1.3191    2.1896 C   0  0  2  0  0  0  0  0  0  0  0  0
    5.9205   -1.8524    0.8114 C   0  0  0  0  0  0  0  0  0  0  0  0
    4.3030   -1.7243    2.9874 C   0  0  2  0  0  0  0  0  0  0  0  0
    3.4857   -2.9771    2.7223 C   0  0  0  0  0  0  0  0  0  0  0  0
    3.7711   -3.7241    1.6560 N   0  0  0  0  0  0  0  0  0  0  0  0
    2.8427   -4.7085    1.7261 C   0  0  0  0  0  0  0  0  0  0  0  0
    2.5813   -5.7637    0.8329 C   0  0  0  0  0  0  0  0  0  0  0  0
    1.6107   -6.6462    1.1516 N   0  0  0  0  0  0  0  0  0  0  0  0
    0.9791   -6.5148    2.3248 C   0  0  0  0  0  0  0  0  0  0  0  0
    1.0861   -5.5458    3.2344 N   0  0  0  0  0  0  0  0  0  0  0  0
    2.0480   -4.6296    2.8815 C   0  0  0  0  0  0  0  0  0  0  0  0
    2.4585   -3.4390    3.4975 N   0  0  0  0  0  0  0  0  0  0  0  0
    1.9926   -2.8960    4.7604 C   0  0  0  0  0  0  0  0  0  0  0  0
    0.5177   -3.0663    5.2000 C   0  0  0  0  0  0  0  0  0  0  0  0
    0.2715   -1.6203    4.7796 C   0  0  0  0  0  0  0  0  0  0  0  0
    1.7674   -1.3738    4.9649 C   0  0  0  0  0  0  0  0  0  0  0  0
    5.5250   -2.7799   -1.8446 N   0  0  0  0  0  0  0  0  0  0  0  0
    5.3180   -3.2427   -3.0659 C   0  0  0  0  0  0  0  0  0  0  0  0
    4.3108   -2.9478   -3.8946 N   0  0  0  0  0  0  0  0  0  0  0  0
    2.5291   -1.9124   -4.0468 H   0  0  0  0  0  0  0  0  0  0  0  0
    2.6240   -1.0334   -1.7025 H   0  0  0  0  0  0  0  0  0  0  0  0
    3.8034    0.3904    0.1878 H   0  0  0  0  0  0  0  0  0  0  0  0
    2.8110   -1.0177    0.5893 H   0  0  0  0  0  0  0  0  0  0  0  0
    4.2444    0.4580    2.5072 H   0  0  0  0  0  0  0  0  0  0  0  0
    6.3567   -0.8760    2.7472 H   0  0  0  0  0  0  0  0  0  0  0  0
    6.0206   -2.9359    0.8636 H   0  0  0  0  0  0  0  0  0  0  0  0
    6.8967   -1.4889    0.4751 H   0  0  0  0  0  0  0  0  0  0  0  0
    4.3599   -1.5542    4.0608 H   0  0  0  0  0  0  0  0  0  0  0  0
    3.1354   -5.8840   -0.0919 H   0  0  0  0  0  0  0  0  0  0  0  0
    0.2343   -7.2914    2.5193 H   0  0  0  0  0  0  0  0  0  0  0  0
    2.6812   -3.3008    5.5082 H   0  0  0  0  0  0  0  0  0  0  0  0
   -0.0999   -3.7615    4.6268 H   0  0  0  0  0  0  0  0  0  0  0  0
    0.4229   -3.2366    6.2708 H   0  0  0  0  0  0  0  0  0  0  0  0
   -0.0332   -1.5320    3.7298 H   0  0  0  0  0  0  0  0  0  0  0  0
   -0.3790   -1.0535    5.4470 H   0  0  0  0  0  0  0  0  0  0  0  0
    2.0226   -1.0472    5.9704 H   0  0  0  0  0  0  0  0  0  0  0  0
    2.1458   -0.6884    4.2126 H   0  0  0  0  0  0  0  0  0  0  0  0
    6.1064   -3.8500   -3.4916 H   0  0  0  0  0  0  0  0  0  0  0  0
  1 25  2  0
  1  2  1  0
  1 26  1  0
  2  3  2  0
  2 27  1  0
  3  4  1  0
  3 23  1  0
  4  8  1  0
  4  5  1  0
  5  6  1  0
  5 28  1  0
  5 29  1  0
  6  9  1  0
  6  7  1  0
  6 30  1  1
  7  8  1  0
  7  9  1  0
  7 31  1  1
  8 32  1  0
  8 33  1  0
  9 10  1  0
  9 34  1  1
 10 18  1  0
 10 11  2  0
 11 12  1  0
 12 17  2  0
 12 13  1  0
 13 14  2  0
 13 35  1  0
 14 15  1  0
 15 16  2  0
 15 36  1  0
 16 17  1  0
 17 18  1  0
 18 19  1  0
 19 22  1  0
 19 20  1  0
 19 37  1  0
 20 21  1  0
 20 38  1  0
 20 39  1  0
 21 22  1  0
 21 40  1  0
 21 41  1  0
 22 42  1  0
 22 43  1  0
 23 24  2  0
 24 25  1  0
 24 44  1  0
M  END
>  <i_m_ct_stereo_status>  (147) 
1

>  <s_m_source_file>  (147) 
/var/tmp/pbs.5076255.sched01/tmpcdf8lnea/434bzo3qpq.sdf

>  <i_m_source_file_index>  (147) 
20

>  <i_lp_mmshare_version>  (147) 
48012

>  <i_f3d_flags>  (147) 
0

>  <s_epik_input>  (147) 
bjFbY0hdbltjSF1bY0hdYzFOKFtDSDJdMilbQ0gyXVtDQEBIXShbQ0BASF0yMylbQ0BIXTNjKG40KW4oW0NIXTVbQ0gyXVtDSDJdW0NIMl01KWMoYzQ2KW5bY0hdbltjSF02

>  <s_epik_cmdline>  (147) 
J2VwaWtfcHl0aG9uJywgJy1waHQnLCAnMi4wJywgJy1waCcsICc3LjAnLCAnLXRuJywgJzgnLCAnLW1hJywgJzIwMCcsICctaW1hZScsICc8aW5maWxlLm1hZT4nLCAnLW9tYWUnLCAnPG91dGZpbGUubWFlPic=

>  <r_lp_tautomer_probability>  (147) 
1

>  <r_epik_Ionization_Penalty>  (147) 
0.127365

>  <r_epik_Ionization_Penalty_Charging>  (147) 
0

>  <r_epik_Ionization_Penalty_Neutral>  (147) 
0.127365

>  <r_epik_State_Penalty>  (147) 
0.114254

>  <r_epik_Charging_Adjusted_Penalty>  (147) 
0.114254

>  <i_epik_Tot_Q>  (147) 
0

>  <i_epik_Tot_abs_Q>  (147) 
0

>  <s_lp_Force_Field>  (147) 
OPLS3e

>  <r_lp_Energy>  (147) 
46.7258

>  <b_lp_Chiralities_Consistent>  (147) 
1

>  <s_lp_Variant>  (147) 
50:0-2

>  <s_i_glide_gridfile>  (147) 
pfpi4k_grid

>  <i_i_glide_lignum>  (147) 
20

>  <i_i_glide_rotatable_bonds>  (147) 
3

>  <r_i_docking_score>  (147) 
-3.7863

>  <r_i_glide_ligand_efficiency>  (147) 
-0.151452

>  <r_i_glide_ligand_efficiency_sa>  (147) 
-0.442848

>  <r_i_glide_ligand_efficiency_ln>  (147) 
-0.897467

>  <r_i_glide_gscore>  (147) 
-3.7863

>  <r_i_glide_lipo>  (147) 
-0.487866

>  <r_i_glide_hbond>  (147) 
-0.0836564

>  <r_i_glide_metal>  (147) 
-0

>  <r_i_glide_rewards>  (147) 
-1.42914

>  <r_i_glide_evdw>  (147) 
-30.896

>  <r_i_glide_ecoul>  (147) 
-4.50065

>  <r_i_glide_erotb>  (147) 
0.508692

>  <r_i_glide_esite>  (147) 
-0.0744362

>  <r_i_glide_emodel>  (147) 
-38.8507

>  <r_i_glide_energy>  (147) 
-35.3967

>  <r_i_glide_einternal>  (147) 
8.08983

>  <r_i_glide_intrahb_reward>  (147) 
-0

>  <i_i_glide_confnum>  (147) 
2

>  <i_i_glide_posenum>  (147) 
17

>  <r_i_glide_eff_state_penalty>  (147) 
0

>  <ligand_id>  (147) 
50

>  <original_smiles>  (147) 
c1cc(N2CC3C(C2)C3c2nc3cncnc3n2C2CCC2)ncn1

>  <smiles>  (147) 
[H]c1nc([H])c([H])c(N2C([H])([H])C3([H])C([H])(c4nc5c([H])nc([H])nc5n4C4([H])C([H])([H])C([H])([H])C4([H])[H])C3([H])C2([H])[H])n1

$$$$
50:2:0
     RDKit          3D

 45 50  0  0  1  0  0  0  0  0999 V2000
    6.9875   -3.0613   -1.9348 C   0  0  0  0  0  0  0  0  0  0  0  0
    5.8620   -2.7103   -1.1780 C   0  0  0  0  0  0  0  0  0  0  0  0
    6.1130   -2.1129    0.0652 C   0  0  0  0  0  0  0  0  0  0  0  0
    5.0681   -1.7069    0.8861 N   0  0  0  0  0  0  0  0  0  0  0  0
    5.2788   -1.0467    2.1674 C   0  0  0  0  0  0  0  0  0  0  0  0
    3.9049   -0.7162    2.6552 C   0  0  2  0  0  0  0  0  0  0  0  0
    2.9031   -1.2644    1.6340 C   0  0  2  0  0  0  0  0  0  0  0  0
    3.6711   -1.9110    0.5309 C   0  0  0  0  0  0  0  0  0  0  0  0
    2.9121    0.1996    1.9858 C   0  0  1  0  0  0  0  0  0  0  0  0
    1.7650    0.8252    2.7516 C   0  0  0  0  0  0  0  0  0  0  0  0
    1.3723    2.0722    2.4752 N   0  0  0  0  0  0  0  0  0  0  0  0
    0.2940    2.2613    3.3177 C   0  0  0  0  0  0  0  0  0  0  0  0
   -0.6021    3.3400    3.5251 C   0  0  0  0  0  0  0  0  0  0  0  0
   -1.5809    3.2065    4.4601 N   0  0  0  0  0  0  0  0  0  0  0  0
   -1.6643    2.0601    5.1465 C   0  0  0  0  0  0  0  0  0  0  0  0
   -0.8936    0.9714    5.0599 N   0  0  0  0  0  0  0  0  0  0  0  0
    0.0828    1.1119    4.1186 C   0  0  0  0  0  0  0  0  0  0  0  0
    1.0649    0.1896    3.7469 N   0  0  0  0  0  0  0  0  0  0  0  0
    1.2333   -1.1283    4.3391 C   0  0  0  0  0  0  0  0  0  0  0  0
    0.1274   -2.1731    4.3743 C   0  0  0  0  0  0  0  0  0  0  0  0
    0.7860   -2.7018    5.6547 C   0  0  0  0  0  0  0  0  0  0  0  0
    1.4961   -1.3479    5.8274 C   0  0  0  0  0  0  0  0  0  0  0  0
    7.3722   -1.8935    0.4872 N   0  0  0  0  0  0  0  0  0  0  0  0
    8.3988   -2.2790   -0.2613 C   0  0  0  0  0  0  0  0  0  0  0  0
    8.2413   -2.8223   -1.4746 N   0  0  0  0  0  0  0  0  0  0  0  0
    6.9132   -3.4985   -2.9157 H   0  0  0  0  0  0  0  0  0  0  0  0
    4.8593   -2.8916   -1.5414 H   0  0  0  0  0  0  0  0  0  0  0  0
    5.7244   -1.7362    2.8893 H   0  0  0  0  0  0  0  0  0  0  0  0
    5.8905   -0.1431    2.1018 H   0  0  0  0  0  0  0  0  0  0  0  0
    3.8265   -0.7450    3.7386 H   0  0  0  0  0  0  0  0  0  0  0  0
    1.9597   -1.7684    1.8338 H   0  0  0  0  0  0  0  0  0  0  0  0
    3.3900   -1.4771   -0.4322 H   0  0  0  0  0  0  0  0  0  0  0  0
    3.4237   -2.9764    0.5354 H   0  0  0  0  0  0  0  0  0  0  0  0
    3.2796    0.9045    1.2451 H   0  0  0  0  0  0  0  0  0  0  0  0
   -0.5526    4.2694    2.9640 H   0  0  0  0  0  0  0  0  0  0  0  0
   -2.4651    2.0008    5.8771 H   0  0  0  0  0  0  0  0  0  0  0  0
    2.0423   -1.6493    3.8614 H   0  0  0  0  0  0  0  0  0  0  0  0
   -0.8713   -1.7523    4.5012 H   0  0  0  0  0  0  0  0  0  0  0  0
    0.1911   -2.8420    3.5112 H   0  0  0  0  0  0  0  0  0  0  0  0
    0.0810   -2.9511    6.4459 H   0  0  0  0  0  0  0  0  0  0  0  0
    1.4910   -3.5161    5.4445 H   0  0  0  0  0  0  0  0  0  0  0  0
    2.5661   -1.4122    6.0518 H   0  0  0  0  0  0  0  0  0  0  0  0
    0.9818   -0.6377    6.4757 H   0  0  0  0  0  0  0  0  0  0  0  0
    9.4126   -2.0932    0.0631 H   0  0  0  0  0  0  0  0  0  0  0  0
    9.0633   -3.0455   -2.0441 H   0  0  0  0  0  0  0  0  0  0  0  0
  1 25  2  0
  1  2  1  0
  1 26  1  0
  2  3  2  0
  2 27  1  0
  3  4  1  0
  3 23  1  0
  4  8  1  0
  4  5  1  0
  5  6  1  0
  5 28  1  0
  5 29  1  0
  6  9  1  0
  6  7  1  0
  6 30  1  1
  7  8  1  0
  7  9  1  0
  7 31  1  1
  8 32  1  0
  8 33  1  0
  9 10  1  0
  9 34  1  6
 10 18  1  0
 10 11  2  0
 11 12  1  0
 12 17  2  0
 12 13  1  0
 13 14  2  0
 13 35  1  0
 14 15  1  0
 15 16  2  0
 15 36  1  0
 16 17  1  0
 17 18  1  0
 18 19  1  0
 19 22  1  0
 19 20  1  0
 19 37  1  0
 20 21  1  0
 20 38  1  0
 20 39  1  0
 21 22  1  0
 21 40  1  0
 21 41  1  0
 22 42  1  0
 22 43  1  0
 23 24  2  0
 24 25  1  0
 24 44  1  0
 25 45  1  0
M  CHG  1  25   1
M  END
>  <i_m_ct_stereo_status>  (148) 
1

>  <s_m_source_file>  (148) 
/var/tmp/pbs.5076255.sched01/tmpcdf8lnea/434bzo3qpq.sdf

>  <i_m_source_file_index>  (148) 
21

>  <i_lp_mmshare_version>  (148) 
48012

>  <i_f3d_flags>  (148) 
0

>  <s_epik_input>  (148) 
bjFbY0hdbltjSF1bY0hdYzFOKFtDSDJdMilbQ0gyXVtDQEBIXShbQ0BASF0yMylbQ0BIXTNjKG40KW4oW0NIXTVbQ0gyXVtDSDJdW0NIMl01KWMoYzQ2KW5bY0hdbltjSF02

>  <s_epik_cmdline>  (148) 
J2VwaWtfcHl0aG9uJywgJy1waHQnLCAnMi4wJywgJy1waCcsICc3LjAnLCAnLXRuJywgJzgnLCAnLW1hJywgJzIwMCcsICctaW1hZScsICc8aW5maWxlLm1hZT4nLCAnLW9tYWUnLCAnPG91dGZpbGUubWFlPic=

>  <r_lp_tautomer_probability>  (148) 
0.999336

>  <r_epik_Ionization_Penalty>  (148) 
0.984925

>  <r_epik_Ionization_Penalty_Charging>  (148) 
0.984256

>  <r_epik_Ionization_Penalty_Neutral>  (148) 
0.000668778

>  <r_epik_State_Penalty>  (148) 
1.03138

>  <r_epik_Charging_Adjusted_Penalty>  (148) 
2.01564

>  <i_epik_Tot_Q>  (148) 
1

>  <i_epik_Tot_abs_Q>  (148) 
1

>  <s_lp_Force_Field>  (148) 
OPLS3e

>  <r_lp_Energy>  (148) 
48.4318

>  <b_lp_Chiralities_Consistent>  (148) 
1

>  <s_lp_Variant>  (148) 
50:0-3

>  <s_i_glide_gridfile>  (148) 
pfpi4k_grid

>  <i_i_glide_lignum>  (148) 
21

>  <i_i_glide_rotatable_bonds>  (148) 
3

>  <r_i_docking_score>  (148) 
-3.66723

>  <r_i_glide_ligand_efficiency>  (148) 
-0.146689

>  <r_i_glide_ligand_efficiency_sa>  (148) 
-0.428922

>  <r_i_glide_ligand_efficiency_ln>  (148) 
-0.869244

>  <r_i_glide_gscore>  (148) 
-3.66723

>  <r_i_glide_lipo>  (148) 
-0.227061

>  <r_i_glide_hbond>  (148) 
-0.145916

>  <r_i_glide_metal>  (148) 
-0

>  <r_i_glide_rewards>  (148) 
-1.20631

>  <r_i_glide_evdw>  (148) 
-26.6024

>  <r_i_glide_ecoul>  (148) 
-7.09694

>  <r_i_glide_erotb>  (148) 
0.505982

>  <r_i_glide_esite>  (148) 
-0.199262

>  <r_i_glide_emodel>  (148) 
-38.1877

>  <r_i_glide_energy>  (148) 
-33.6993

>  <r_i_glide_einternal>  (148) 
6.1158

>  <r_i_glide_intrahb_reward>  (148) 
-0

>  <i_i_glide_confnum>  (148) 
2

>  <i_i_glide_posenum>  (148) 
16

>  <r_i_glide_eff_state_penalty>  (148) 
0

>  <ligand_id>  (148) 
50

>  <original_smiles>  (148) 
c1cc(N2CC3C(C2)C3c2nc3cncnc3n2C2CCC2)ncn1

>  <smiles>  (148) 
[H]c1nc([H])c2nc(C3([H])C4([H])C([H])([H])N(c5nc([H])[n+]([H])c([H])c5[H])C([H])([H])C34[H])n(C3([H])C([H])([H])C([H])([H])C3([H])[H])c2n1

$$$$
50:2:1
     RDKit          3D

 45 50  0  0  1  0  0  0  0  0999 V2000
   -0.6422    2.5245    2.8807 C   0  0  0  0  0  0  0  0  0  0  0  0
    0.6014    1.9043    2.6835 C   0  0  0  0  0  0  0  0  0  0  0  0
    0.7817    0.6269    3.2383 C   0  0  0  0  0  0  0  0  0  0  0  0
    1.9856   -0.0838    3.0756 N   0  0  0  0  0  0  0  0  0  0  0  0
    2.2042   -1.4356    3.5788 C   0  0  0  0  0  0  0  0  0  0  0  0
    3.5855   -1.8217    3.0942 C   0  0  2  0  0  0  0  0  0  0  0  0
    4.1647   -0.6494    2.3625 C   0  0  2  0  0  0  0  0  0  0  0  0
    3.1484    0.4691    2.3939 C   0  0  0  0  0  0  0  0  0  0  0  0
    3.9461   -1.9584    1.6265 C   0  0  1  0  0  0  0  0  0  0  0  0
    5.1230   -2.7919    1.2146 C   0  0  0  0  0  0  0  0  0  0  0  0
    6.2046   -2.2279    0.6638 N   0  0  0  0  0  0  0  0  0  0  0  0
    7.0567   -3.3023    0.5232 C   0  0  0  0  0  0  0  0  0  0  0  0
    8.3899   -3.4083    0.0659 C   0  0  0  0  0  0  0  0  0  0  0  0
    8.9851   -4.6237    0.0767 N   0  0  0  0  0  0  0  0  0  0  0  0
    8.2914   -5.6892    0.4991 C   0  0  0  0  0  0  0  0  0  0  0  0
    7.0322   -5.7412    0.9403 N   0  0  0  0  0  0  0  0  0  0  0  0
    6.4402   -4.5101    0.9499 C   0  0  0  0  0  0  0  0  0  0  0  0
    5.1617   -4.1451    1.3769 N   0  0  0  0  0  0  0  0  0  0  0  0
    4.1315   -5.0281    1.8893 C   0  0  0  0  0  0  0  0  0  0  0  0
    4.4201   -6.0155    3.0309 C   0  0  0  0  0  0  0  0  0  0  0  0
    3.4386   -6.9912    2.3736 C   0  0  0  0  0  0  0  0  0  0  0  0
    3.6144   -6.2179    1.0639 C   0  0  0  0  0  0  0  0  0  0  0  0
   -0.2119    0.0465    3.9449 N   0  0  0  0  0  0  0  0  0  0  0  0
   -1.3694    0.6974    4.1096 C   0  0  0  0  0  0  0  0  0  0  0  0
   -1.6052    1.9092    3.5987 N   0  0  0  0  0  0  0  0  0  0  0  0
   -0.8943    3.4976    2.4853 H   0  0  0  0  0  0  0  0  0  0  0  0
    1.3595    2.4087    2.1001 H   0  0  0  0  0  0  0  0  0  0  0  0
    2.1838   -1.4450    4.6699 H   0  0  0  0  0  0  0  0  0  0  0  0
    1.4547   -2.1341    3.2047 H   0  0  0  0  0  0  0  0  0  0  0  0
    4.2116   -2.3656    3.8009 H   0  0  0  0  0  0  0  0  0  0  0  0
    5.1955   -0.3598    2.5601 H   0  0  0  0  0  0  0  0  0  0  0  0
    2.9124    0.8050    1.3839 H   0  0  0  0  0  0  0  0  0  0  0  0
    3.5470    1.3127    2.9606 H   0  0  0  0  0  0  0  0  0  0  0  0
    3.1510   -2.0103    0.8831 H   0  0  0  0  0  0  0  0  0  0  0  0
    8.9620   -2.5566   -0.2809 H   0  0  0  0  0  0  0  0  0  0  0  0
    8.8205   -6.6295    0.4553 H   0  0  0  0  0  0  0  0  0  0  0  0
    3.2822   -4.4093    2.1691 H   0  0  0  0  0  0  0  0  0  0  0  0
    5.4400   -6.4036    3.0369 H   0  0  0  0  0  0  0  0  0  0  0  0
    4.1227   -5.6709    4.0230 H   0  0  0  0  0  0  0  0  0  0  0  0
    3.7818   -8.0266    2.3408 H   0  0  0  0  0  0  0  0  0  0  0  0
    2.4322   -6.9124    2.7842 H   0  0  0  0  0  0  0  0  0  0  0  0
    2.6892   -6.0256    0.5197 H   0  0  0  0  0  0  0  0  0  0  0  0
    4.3721   -6.6603    0.4165 H   0  0  0  0  0  0  0  0  0  0  0  0
   -2.1777    0.2373    4.6556 H   0  0  0  0  0  0  0  0  0  0  0  0
   -2.5149    2.3573    3.7120 H   0  0  0  0  0  0  0  0  0  0  0  0
  1 25  2  0
  1  2  1  0
  1 26  1  0
  2  3  2  0
  2 27  1  0
  3  4  1  0
  3 23  1  0
  4  8  1  0
  4  5  1  0
  5  6  1  0
  5 28  1  0
  5 29  1  0
  6  9  1  0
  6  7  1  0
  6 30  1  1
  7  8  1  0
  7  9  1  0
  7 31  1  1
  8 32  1  0
  8 33  1  0
  9 10  1  0
  9 34  1  6
 10 18  1  0
 10 11  2  0
 11 12  1  0
 12 17  2  0
 12 13  1  0
 13 14  2  0
 13 35  1  0
 14 15  1  0
 15 16  2  0
 15 36  1  0
 16 17  1  0
 17 18  1  0
 18 19  1  0
 19 22  1  0
 19 20  1  0
 19 37  1  0
 20 21  1  0
 20 38  1  0
 20 39  1  0
 21 22  1  0
 21 40  1  0
 21 41  1  0
 22 42  1  0
 22 43  1  0
 23 24  2  0
 24 25  1  0
 24 44  1  0
 25 45  1  0
M  CHG  1  25   1
M  END
>  <i_m_ct_stereo_status>  (149) 
1

>  <s_m_source_file>  (149) 
/var/tmp/pbs.5076255.sched01/tmpcdf8lnea/434bzo3qpq.sdf

>  <i_m_source_file_index>  (149) 
21

>  <i_lp_mmshare_version>  (149) 
48012

>  <i_f3d_flags>  (149) 
0

>  <s_epik_input>  (149) 
bjFbY0hdbltjSF1bY0hdYzFOKFtDSDJdMilbQ0gyXVtDQEBIXShbQ0BASF0yMylbQ0BIXTNjKG40KW4oW0NIXTVbQ0gyXVtDSDJdW0NIMl01KWMoYzQ2KW5bY0hdbltjSF02

>  <s_epik_cmdline>  (149) 
J2VwaWtfcHl0aG9uJywgJy1waHQnLCAnMi4wJywgJy1waCcsICc3LjAnLCAnLXRuJywgJzgnLCAnLW1hJywgJzIwMCcsICctaW1hZScsICc8aW5maWxlLm1hZT4nLCAnLW9tYWUnLCAnPG91dGZpbGUubWFlPic=

>  <r_lp_tautomer_probability>  (149) 
0.999336

>  <r_epik_Ionization_Penalty>  (149) 
0.984925

>  <r_epik_Ionization_Penalty_Charging>  (149) 
0.984256

>  <r_epik_Ionization_Penalty_Neutral>  (149) 
0.000668778

>  <r_epik_State_Penalty>  (149) 
1.03138

>  <r_epik_Charging_Adjusted_Penalty>  (149) 
2.01564

>  <i_epik_Tot_Q>  (149) 
1

>  <i_epik_Tot_abs_Q>  (149) 
1

>  <s_lp_Force_Field>  (149) 
OPLS3e

>  <r_lp_Energy>  (149) 
48.4318

>  <b_lp_Chiralities_Consistent>  (149) 
1

>  <s_lp_Variant>  (149) 
50:0-3

>  <s_i_glide_gridfile>  (149) 
pfpi4k_grid

>  <i_i_glide_lignum>  (149) 
21

>  <i_i_glide_rotatable_bonds>  (149) 
3

>  <r_i_docking_score>  (149) 
-3.47145

>  <r_i_glide_ligand_efficiency>  (149) 
-0.138858

>  <r_i_glide_ligand_efficiency_sa>  (149) 
-0.406023

>  <r_i_glide_ligand_efficiency_ln>  (149) 
-0.822838

>  <r_i_glide_gscore>  (149) 
-3.47145

>  <r_i_glide_lipo>  (149) 
-0.481948

>  <r_i_glide_hbond>  (149) 
-0.0534958

>  <r_i_glide_metal>  (149) 
-0

>  <r_i_glide_rewards>  (149) 
-1.36944

>  <r_i_glide_evdw>  (149) 
-24.0749

>  <r_i_glide_ecoul>  (149) 
-5.3018

>  <r_i_glide_erotb>  (149) 
0.505982

>  <r_i_glide_esite>  (149) 
-0.0735392

>  <r_i_glide_emodel>  (149) 
-37.8726

>  <r_i_glide_energy>  (149) 
-29.3767

>  <r_i_glide_einternal>  (149) 
0.664564

>  <r_i_glide_intrahb_reward>  (149) 
-0

>  <i_i_glide_confnum>  (149) 
5

>  <i_i_glide_posenum>  (149) 
35

>  <r_i_glide_eff_state_penalty>  (149) 
0

>  <ligand_id>  (149) 
50

>  <original_smiles>  (149) 
c1cc(N2CC3C(C2)C3c2nc3cncnc3n2C2CCC2)ncn1

>  <smiles>  (149) 
[H]c1nc([H])c2nc(C3([H])C4([H])C([H])([H])N(c5nc([H])[n+]([H])c([H])c5[H])C([H])([H])C34[H])n(C3([H])C([H])([H])C([H])([H])C3([H])[H])c2n1

$$$$
50:2:2
     RDKit          3D

 45 50  0  0  1  0  0  0  0  0999 V2000
   -1.8611    2.2475    3.3713 C   0  0  0  0  0  0  0  0  0  0  0  0
   -0.6376    1.9187    2.7756 C   0  0  0  0  0  0  0  0  0  0  0  0
    0.2702    1.1604    3.5344 C   0  0  0  0  0  0  0  0  0  0  0  0
    1.5159    0.7707    3.0234 N   0  0  0  0  0  0  0  0  0  0  0  0
    2.5215    0.0304    3.7752 C   0  0  0  0  0  0  0  0  0  0  0  0
    3.6437   -0.2291    2.7903 C   0  0  2  0  0  0  0  0  0  0  0  0
    3.2903    0.4448    1.5017 C   0  0  2  0  0  0  0  0  0  0  0  0
    1.9493    1.1146    1.6782 C   0  0  0  0  0  0  0  0  0  0  0  0
    3.4776   -1.0523    1.5233 C   0  0  1  0  0  0  0  0  0  0  0  0
    4.6684   -1.6748    0.8667 C   0  0  0  0  0  0  0  0  0  0  0  0
    5.6618   -2.1784    1.6075 N   0  0  0  0  0  0  0  0  0  0  0  0
    6.5284   -2.6635    0.6558 C   0  0  0  0  0  0  0  0  0  0  0  0
    7.7859   -3.3019    0.7523 C   0  0  0  0  0  0  0  0  0  0  0  0
    8.4235   -3.6634   -0.3763 N   0  0  0  0  0  0  0  0  0  0  0  0
    7.8455   -3.3965   -1.5489 C   0  0  0  0  0  0  0  0  0  0  0  0
    6.6715   -2.7981   -1.8062 N   0  0  0  0  0  0  0  0  0  0  0  0
    6.0262   -2.4482   -0.6549 C   0  0  0  0  0  0  0  0  0  0  0  0
    4.7968   -1.8036   -0.4851 N   0  0  0  0  0  0  0  0  0  0  0  0
    3.8713   -1.3873   -1.5235 C   0  0  0  0  0  0  0  0  0  0  0  0
    3.2406   -2.4038   -2.4843 C   0  0  0  0  0  0  0  0  0  0  0  0
    3.3125   -1.3410   -3.5848 C   0  0  0  0  0  0  0  0  0  0  0  0
    4.3618   -0.6151   -2.7514 C   0  0  0  0  0  0  0  0  0  0  0  0
   -0.0489    0.7708    4.7867 N   0  0  0  0  0  0  0  0  0  0  0  0
   -1.2237    1.1275    5.3040 C   0  0  0  0  0  0  0  0  0  0  0  0
   -2.1305    1.8500    4.6353 N   0  0  0  0  0  0  0  0  0  0  0  0
   -2.6449    2.8010    2.8688 H   0  0  0  0  0  0  0  0  0  0  0  0
   -0.4181    2.2541    1.7664 H   0  0  0  0  0  0  0  0  0  0  0  0
    2.8929    0.6345    4.6060 H   0  0  0  0  0  0  0  0  0  0  0  0
    2.1263   -0.9078    4.1698 H   0  0  0  0  0  0  0  0  0  0  0  0
    4.6531   -0.0986    3.1768 H   0  0  0  0  0  0  0  0  0  0  0  0
    4.0393    0.9987    0.9409 H   0  0  0  0  0  0  0  0  0  0  0  0
    1.2398    0.7617    0.9291 H   0  0  0  0  0  0  0  0  0  0  0  0
    2.0533    2.1997    1.5870 H   0  0  0  0  0  0  0  0  0  0  0  0
    2.6115   -1.7024    1.4208 H   0  0  0  0  0  0  0  0  0  0  0  0
    8.2865   -3.5173    1.6792 H   0  0  0  0  0  0  0  0  0  0  0  0
    8.3809   -3.8163   -2.3846 H   0  0  0  0  0  0  0  0  0  0  0  0
    3.0911   -0.8020   -1.0454 H   0  0  0  0  0  0  0  0  0  0  0  0
    3.8830   -3.2636   -2.6902 H   0  0  0  0  0  0  0  0  0  0  0  0
    2.2305   -2.7061   -2.2032 H   0  0  0  0  0  0  0  0  0  0  0  0
    3.6584   -1.7032   -4.5565 H   0  0  0  0  0  0  0  0  0  0  0  0
    2.4027   -0.7522   -3.6813 H   0  0  0  0  0  0  0  0  0  0  0  0
    4.2448    0.4685   -2.7068 H   0  0  0  0  0  0  0  0  0  0  0  0
    5.3671   -0.8945   -3.0435 H   0  0  0  0  0  0  0  0  0  0  0  0
   -1.4909    0.8047    6.3004 H   0  0  0  0  0  0  0  0  0  0  0  0
   -3.0340    2.0754    5.0466 H   0  0  0  0  0  0  0  0  0  0  0  0
  1 25  2  0
  1  2  1  0
  1 26  1  0
  2  3  2  0
  2 27  1  0
  3  4  1  0
  3 23  1  0
  4  8  1  0
  4  5  1  0
  5  6  1  0
  5 28  1  0
  5 29  1  0
  6  9  1  0
  6  7  1  0
  6 30  1  1
  7  8  1  0
  7  9  1  0
  7 31  1  6
  8 32  1  0
  8 33  1  0
  9 10  1  0
  9 34  1  1
 10 18  1  0
 10 11  2  0
 11 12  1  0
 12 17  2  0
 12 13  1  0
 13 14  2  0
 13 35  1  0
 14 15  1  0
 15 16  2  0
 15 36  1  0
 16 17  1  0
 17 18  1  0
 18 19  1  0
 19 22  1  0
 19 20  1  0
 19 37  1  0
 20 21  1  0
 20 38  1  0
 20 39  1  0
 21 22  1  0
 21 40  1  0
 21 41  1  0
 22 42  1  0
 22 43  1  0
 23 24  2  0
 24 25  1  0
 24 44  1  0
 25 45  1  0
M  CHG  1  25   1
M  END
>  <i_m_ct_stereo_status>  (150) 
1

>  <s_m_source_file>  (150) 
/var/tmp/pbs.5076255.sched01/tmpcdf8lnea/434bzo3qpq.sdf

>  <i_m_source_file_index>  (150) 
21

>  <i_lp_mmshare_version>  (150) 
48012

>  <i_f3d_flags>  (150) 
0

>  <s_epik_input>  (150) 
bjFbY0hdbltjSF1bY0hdYzFOKFtDSDJdMilbQ0gyXVtDQEBIXShbQ0BASF0yMylbQ0BIXTNjKG40KW4oW0NIXTVbQ0gyXVtDSDJdW0NIMl01KWMoYzQ2KW5bY0hdbltjSF02

>  <s_epik_cmdline>  (150) 
J2VwaWtfcHl0aG9uJywgJy1waHQnLCAnMi4wJywgJy1waCcsICc3LjAnLCAnLXRuJywgJzgnLCAnLW1hJywgJzIwMCcsICctaW1hZScsICc8aW5maWxlLm1hZT4nLCAnLW9tYWUnLCAnPG91dGZpbGUubWFlPic=

>  <r_lp_tautomer_probability>  (150) 
0.999336

>  <r_epik_Ionization_Penalty>  (150) 
0.984925

>  <r_epik_Ionization_Penalty_Charging>  (150) 
0.984256

>  <r_epik_Ionization_Penalty_Neutral>  (150) 
0.000668778

>  <r_epik_State_Penalty>  (150) 
1.03138

>  <r_epik_Charging_Adjusted_Penalty>  (150) 
2.01564

>  <i_epik_Tot_Q>  (150) 
1

>  <i_epik_Tot_abs_Q>  (150) 
1

>  <s_lp_Force_Field>  (150) 
OPLS3e

>  <r_lp_Energy>  (150) 
48.4318

>  <b_lp_Chiralities_Consistent>  (150) 
1

>  <s_lp_Variant>  (150) 
50:0-3

>  <s_i_glide_gridfile>  (150) 
pfpi4k_grid

>  <i_i_glide_lignum>  (150) 
21

>  <i_i_glide_rotatable_bonds>  (150) 
3

>  <r_i_docking_score>  (150) 
-3.24171

>  <r_i_glide_ligand_efficiency>  (150) 
-0.129669

>  <r_i_glide_ligand_efficiency_sa>  (150) 
-0.379153

>  <r_i_glide_ligand_efficiency_ln>  (150) 
-0.768383

>  <r_i_glide_gscore>  (150) 
-3.24171

>  <r_i_glide_lipo>  (150) 
-0.651067

>  <r_i_glide_hbond>  (150) 
0

>  <r_i_glide_metal>  (150) 
-0

>  <r_i_glide_rewards>  (150) 
-1.15061

>  <r_i_glide_evdw>  (150) 
-27.9108

>  <r_i_glide_ecoul>  (150) 
-2.80299

>  <r_i_glide_erotb>  (150) 
0.505982

>  <r_i_glide_esite>  (150) 
-0.130026

>  <r_i_glide_emodel>  (150) 
-38.4876

>  <r_i_glide_energy>  (150) 
-30.7138

>  <r_i_glide_einternal>  (150) 
0.79086

>  <r_i_glide_intrahb_reward>  (150) 
-0

>  <i_i_glide_confnum>  (150) 
1

>  <i_i_glide_posenum>  (150) 
29

>  <r_i_glide_eff_state_penalty>  (150) 
0

>  <ligand_id>  (150) 
50

>  <original_smiles>  (150) 
c1cc(N2CC3C(C2)C3c2nc3cncnc3n2C2CCC2)ncn1

>  <smiles>  (150) 
[H]c1nc([H])c2nc(C3([H])C4([H])C([H])([H])N(c5nc([H])[n+]([H])c([H])c5[H])C([H])([H])C34[H])n(C3([H])C([H])([H])C([H])([H])C3([H])[H])c2n1

$$$$
50:3:0
     RDKit          3D

 45 50  0  0  1  0  0  0  0  0999 V2000
    0.4005    0.9558    1.9252 C   0  0  0  0  0  0  0  0  0  0  0  0
    0.9128   -0.1608    2.6079 C   0  0  0  0  0  0  0  0  0  0  0  0
    2.0469    0.0389    3.4121 C   0  0  0  0  0  0  0  0  0  0  0  0
    2.6065   -1.0082    4.1611 N   0  0  0  0  0  0  0  0  0  0  0  0
    2.0289   -2.3503    4.2102 C   0  0  0  0  0  0  0  0  0  0  0  0
    3.0168   -3.1755    4.9964 C   0  0  2  0  0  0  0  0  0  0  0  0
    4.1251   -2.2773    5.4428 C   0  0  2  0  0  0  0  0  0  0  0  0
    3.8116   -0.8656    4.9760 C   0  0  0  0  0  0  0  0  0  0  0  0
    4.4212   -3.4324    4.4855 C   0  0  2  0  0  0  0  0  0  0  0  0
    4.7865   -3.1714    3.0542 C   0  0  0  0  0  0  0  0  0  0  0  0
    5.4892   -2.0886    2.7250 N   0  0  0  0  0  0  0  0  0  0  0  0
    5.5992   -2.2030    1.3656 C   0  0  0  0  0  0  0  0  0  0  0  0
    6.1885   -1.3629    0.3988 C   0  0  0  0  0  0  0  0  0  0  0  0
    6.1909   -1.7652   -0.8941 N   0  0  0  0  0  0  0  0  0  0  0  0
    5.6042   -2.9215   -1.2148 C   0  0  0  0  0  0  0  0  0  0  0  0
    4.9827   -3.7898   -0.4143 N   0  0  0  0  0  0  0  0  0  0  0  0
    4.9996   -3.3952    0.8932 C   0  0  0  0  0  0  0  0  0  0  0  0
    4.4573   -4.0064    2.0298 N   0  0  0  0  0  0  0  0  0  0  0  0
    3.7518   -5.2694    2.1115 C   0  0  0  0  0  0  0  0  0  0  0  0
    4.5535   -6.5789    2.1738 C   0  0  0  0  0  0  0  0  0  0  0  0
    4.2224   -6.8012    0.6969 C   0  0  0  0  0  0  0  0  0  0  0  0
    3.0273   -5.8582    0.8862 C   0  0  0  0  0  0  0  0  0  0  0  0
    2.6151    1.2580    3.5092 N   0  0  0  0  0  0  0  0  0  0  0  0
    2.0839    2.2830    2.8362 C   0  0  0  0  0  0  0  0  0  0  0  0
    0.9959    2.1582    2.0723 N   0  0  0  0  0  0  0  0  0  0  0  0
   -0.4572    0.9255    1.2716 H   0  0  0  0  0  0  0  0  0  0  0  0
    0.4567   -1.1327    2.5001 H   0  0  0  0  0  0  0  0  0  0  0  0
    1.0622   -2.3275    4.7153 H   0  0  0  0  0  0  0  0  0  0  0  0
    1.9024   -2.7854    3.2173 H   0  0  0  0  0  0  0  0  0  0  0  0
    2.6005   -3.8841    5.7133 H   0  0  0  0  0  0  0  0  0  0  0  0
    4.4812   -2.3743    6.4667 H   0  0  0  0  0  0  0  0  0  0  0  0
    4.6494   -0.4511    4.4137 H   0  0  0  0  0  0  0  0  0  0  0  0
    3.6461   -0.1976    5.8244 H   0  0  0  0  0  0  0  0  0  0  0  0
    4.9711   -4.2884    4.8727 H   0  0  0  0  0  0  0  0  0  0  0  0
    6.6540   -0.4217    0.6569 H   0  0  0  0  0  0  0  0  0  0  0  0
    5.6272   -3.1904   -2.2573 H   0  0  0  0  0  0  0  0  0  0  0  0
    3.0650   -5.1863    2.9497 H   0  0  0  0  0  0  0  0  0  0  0  0
    5.6176   -6.4688    2.3890 H   0  0  0  0  0  0  0  0  0  0  0  0
    4.0891   -7.3283    2.8144 H   0  0  0  0  0  0  0  0  0  0  0  0
    4.9892   -6.4088    0.0279 H   0  0  0  0  0  0  0  0  0  0  0  0
    3.9584   -7.8261    0.4403 H   0  0  0  0  0  0  0  0  0  0  0  0
    2.1130   -6.3913    1.1502 H   0  0  0  0  0  0  0  0  0  0  0  0
    2.8420   -5.1704    0.0594 H   0  0  0  0  0  0  0  0  0  0  0  0
    2.5239    3.2653    2.9003 H   0  0  0  0  0  0  0  0  0  0  0  0
    0.6172    2.9921    1.5735 H   0  0  0  0  0  0  0  0  0  0  0  0
  1 25  2  0
  1  2  1  0
  1 26  1  0
  2  3  2  0
  2 27  1  0
  3  4  1  0
  3 23  1  0
  4  8  1  0
  4  5  1  0
  5  6  1  0
  5 28  1  0
  5 29  1  0
  6  9  1  0
  6  7  1  0
  6 30  1  1
  7  8  1  0
  7  9  1  0
  7 31  1  1
  8 32  1  0
  8 33  1  0
  9 10  1  0
  9 34  1  1
 10 18  1  0
 10 11  2  0
 11 12  1  0
 12 17  2  0
 12 13  1  0
 13 14  2  0
 13 35  1  0
 14 15  1  0
 15 16  2  0
 15 36  1  0
 16 17  1  0
 17 18  1  0
 18 19  1  0
 19 22  1  0
 19 20  1  0
 19 37  1  0
 20 21  1  0
 20 38  1  0
 20 39  1  0
 21 22  1  0
 21 40  1  0
 21 41  1  0
 22 42  1  0
 22 43  1  0
 23 24  2  0
 24 25  1  0
 24 44  1  0
 25 45  1  0
M  CHG  1  25   1
M  END
>  <i_m_ct_stereo_status>  (151) 
1

>  <s_m_source_file>  (151) 
/var/tmp/pbs.5076255.sched01/tmpcdf8lnea/434bzo3qpq.sdf

>  <i_m_source_file_index>  (151) 
22

>  <i_lp_mmshare_version>  (151) 
48012

>  <i_f3d_flags>  (151) 
0

>  <s_epik_input>  (151) 
bjFbY0hdbltjSF1bY0hdYzFOKFtDSDJdMilbQ0gyXVtDQEBIXShbQ0BASF0yMylbQ0BIXTNjKG40KW4oW0NIXTVbQ0gyXVtDSDJdW0NIMl01KWMoYzQ2KW5bY0hdbltjSF02

>  <s_epik_cmdline>  (151) 
J2VwaWtfcHl0aG9uJywgJy1waHQnLCAnMi4wJywgJy1waCcsICc3LjAnLCAnLXRuJywgJzgnLCAnLW1hJywgJzIwMCcsICctaW1hZScsICc8aW5maWxlLm1hZT4nLCAnLW9tYWUnLCAnPG91dGZpbGUubWFlPic=

>  <r_lp_tautomer_probability>  (151) 
0.999336

>  <r_epik_Ionization_Penalty>  (151) 
0.984925

>  <r_epik_Ionization_Penalty_Charging>  (151) 
0.984256

>  <r_epik_Ionization_Penalty_Neutral>  (151) 
0.000668778

>  <r_epik_State_Penalty>  (151) 
1.03138

>  <r_epik_Charging_Adjusted_Penalty>  (151) 
2.01564

>  <i_epik_Tot_Q>  (151) 
1

>  <i_epik_Tot_abs_Q>  (151) 
1

>  <s_lp_Force_Field>  (151) 
OPLS3e

>  <r_lp_Energy>  (151) 
49.7637

>  <b_lp_Chiralities_Consistent>  (151) 
1

>  <s_lp_Variant>  (151) 
50:0-4

>  <s_i_glide_gridfile>  (151) 
pfpi4k_grid

>  <i_i_glide_lignum>  (151) 
22

>  <i_i_glide_rotatable_bonds>  (151) 
3

>  <r_i_docking_score>  (151) 
-4.20514

>  <r_i_glide_ligand_efficiency>  (151) 
-0.168206

>  <r_i_glide_ligand_efficiency_sa>  (151) 
-0.491836

>  <r_i_glide_ligand_efficiency_ln>  (151) 
-0.996745

>  <r_i_glide_gscore>  (151) 
-4.20514

>  <r_i_glide_lipo>  (151) 
-0.346317

>  <r_i_glide_hbond>  (151) 
-0.315212

>  <r_i_glide_metal>  (151) 
-0

>  <r_i_glide_rewards>  (151) 
-1.27304

>  <r_i_glide_evdw>  (151) 
-21.2935

>  <r_i_glide_ecoul>  (151) 
-10.657

>  <r_i_glide_erotb>  (151) 
0.505982

>  <r_i_glide_esite>  (151) 
-0.113331

>  <r_i_glide_emodel>  (151) 
-42.2208

>  <r_i_glide_energy>  (151) 
-31.9505

>  <r_i_glide_einternal>  (151) 
1.72225

>  <r_i_glide_intrahb_reward>  (151) 
-0

>  <i_i_glide_confnum>  (151) 
2

>  <i_i_glide_posenum>  (151) 
4

>  <r_i_glide_eff_state_penalty>  (151) 
0

>  <ligand_id>  (151) 
50

>  <original_smiles>  (151) 
c1cc(N2CC3C(C2)C3c2nc3cncnc3n2C2CCC2)ncn1

>  <smiles>  (151) 
[H]c1nc([H])c2nc(C3([H])C4([H])C([H])([H])N(c5nc([H])[n+]([H])c([H])c5[H])C([H])([H])C34[H])n(C3([H])C([H])([H])C([H])([H])C3([H])[H])c2n1

$$$$
50:3:1
     RDKit          3D

 45 50  0  0  1  0  0  0  0  0999 V2000
    2.7082   -2.1275   -3.6898 C   0  0  0  0  0  0  0  0  0  0  0  0
    3.4562   -2.9159   -2.8040 C   0  0  0  0  0  0  0  0  0  0  0  0
    4.5157   -2.2978   -2.1168 C   0  0  0  0  0  0  0  0  0  0  0  0
    5.3687   -3.0282   -1.2677 N   0  0  0  0  0  0  0  0  0  0  0  0
    6.5230   -2.4631   -0.5826 C   0  0  0  0  0  0  0  0  0  0  0  0
    6.9266   -3.5046    0.4476 C   0  0  2  0  0  0  0  0  0  0  0  0
    6.0068   -4.6740    0.3070 C   0  0  2  0  0  0  0  0  0  0  0  0
    5.0246   -4.3605   -0.8057 C   0  0  0  0  0  0  0  0  0  0  0  0
    6.0299   -3.8984    1.6107 C   0  0  2  0  0  0  0  0  0  0  0  0
    4.8804   -3.0225    2.0123 C   0  0  0  0  0  0  0  0  0  0  0  0
    5.0688   -1.7096    2.2068 N   0  0  0  0  0  0  0  0  0  0  0  0
    3.7910   -1.2699    2.4596 C   0  0  0  0  0  0  0  0  0  0  0  0
    3.2539    0.0252    2.6753 C   0  0  0  0  0  0  0  0  0  0  0  0
    1.9284    0.1413    2.9202 N   0  0  0  0  0  0  0  0  0  0  0  0
    1.1735   -0.9546    2.9285 C   0  0  0  0  0  0  0  0  0  0  0  0
    1.5326   -2.2235    2.7252 N   0  0  0  0  0  0  0  0  0  0  0  0
    2.8708   -2.3448    2.4855 C   0  0  0  0  0  0  0  0  0  0  0  0
    3.6203   -3.4960    2.2219 N   0  0  0  0  0  0  0  0  0  0  0  0
    3.1437   -4.8740    2.1480 C   0  0  0  0  0  0  0  0  0  0  0  0
    2.3830   -5.4099    0.9216 C   0  0  0  0  0  0  0  0  0  0  0  0
    1.5527   -6.2863    1.8442 C   0  0  0  0  0  0  0  0  0  0  0  0
    1.9600   -5.3761    3.0049 C   0  0  0  0  0  0  0  0  0  0  0  0
    4.7703   -0.9878   -2.2849 N   0  0  0  0  0  0  0  0  0  0  0  0
    4.0098   -0.2816   -3.1282 C   0  0  0  0  0  0  0  0  0  0  0  0
    3.0204   -0.8187   -3.8495 N   0  0  0  0  0  0  0  0  0  0  0  0
    1.8813   -2.5020   -4.2820 H   0  0  0  0  0  0  0  0  0  0  0  0
    3.2148   -3.9621   -2.6759 H   0  0  0  0  0  0  0  0  0  0  0  0
    7.3144   -2.3313   -1.3206 H   0  0  0  0  0  0  0  0  0  0  0  0
    6.3242   -1.5056   -0.0948 H   0  0  0  0  0  0  0  0  0  0  0  0
    7.9923   -3.7123    0.5355 H   0  0  0  0  0  0  0  0  0  0  0  0
    6.4204   -5.6818    0.3357 H   0  0  0  0  0  0  0  0  0  0  0  0
    4.0134   -4.3099   -0.4281 H   0  0  0  0  0  0  0  0  0  0  0  0
    5.0946   -5.0988   -1.6114 H   0  0  0  0  0  0  0  0  0  0  0  0
    6.5019   -4.3457    2.4849 H   0  0  0  0  0  0  0  0  0  0  0  0
    3.8515    0.9279    2.6678 H   0  0  0  0  0  0  0  0  0  0  0  0
    0.1274   -0.8008    3.1365 H   0  0  0  0  0  0  0  0  0  0  0  0
    4.0124   -5.5047    2.3394 H   0  0  0  0  0  0  0  0  0  0  0  0
    1.8195   -4.6291    0.4144 H   0  0  0  0  0  0  0  0  0  0  0  0
    2.9526   -6.0113    0.2141 H   0  0  0  0  0  0  0  0  0  0  0  0
    0.4855   -6.3036    1.6117 H   0  0  0  0  0  0  0  0  0  0  0  0
    1.9672   -7.2929    1.9230 H   0  0  0  0  0  0  0  0  0  0  0  0
    2.2582   -5.8907    3.9178 H   0  0  0  0  0  0  0  0  0  0  0  0
    1.1764   -4.6404    3.2003 H   0  0  0  0  0  0  0  0  0  0  0  0
    4.2082    0.7707   -3.2699 H   0  0  0  0  0  0  0  0  0  0  0  0
    2.4667   -0.2441   -4.4762 H   0  0  0  0  0  0  0  0  0  0  0  0
  1 25  2  0
  1  2  1  0
  1 26  1  0
  2  3  2  0
  2 27  1  0
  3  4  1  0
  3 23  1  0
  4  8  1  0
  4  5  1  0
  5  6  1  0
  5 28  1  0
  5 29  1  0
  6  9  1  0
  6  7  1  0
  6 30  1  1
  7  8  1  0
  7  9  1  0
  7 31  1  1
  8 32  1  0
  8 33  1  0
  9 10  1  0
  9 34  1  1
 10 18  1  0
 10 11  2  0
 11 12  1  0
 12 17  2  0
 12 13  1  0
 13 14  2  0
 13 35  1  0
 14 15  1  0
 15 16  2  0
 15 36  1  0
 16 17  1  0
 17 18  1  0
 18 19  1  0
 19 22  1  0
 19 20  1  0
 19 37  1  0
 20 21  1  0
 20 38  1  0
 20 39  1  0
 21 22  1  0
 21 40  1  0
 21 41  1  0
 22 42  1  0
 22 43  1  0
 23 24  2  0
 24 25  1  0
 24 44  1  0
 25 45  1  0
M  CHG  1  25   1
M  END
>  <i_m_ct_stereo_status>  (152) 
1

>  <s_m_source_file>  (152) 
/var/tmp/pbs.5076255.sched01/tmpcdf8lnea/434bzo3qpq.sdf

>  <i_m_source_file_index>  (152) 
22

>  <i_lp_mmshare_version>  (152) 
48012

>  <i_f3d_flags>  (152) 
0

>  <s_epik_input>  (152) 
bjFbY0hdbltjSF1bY0hdYzFOKFtDSDJdMilbQ0gyXVtDQEBIXShbQ0BASF0yMylbQ0BIXTNjKG40KW4oW0NIXTVbQ0gyXVtDSDJdW0NIMl01KWMoYzQ2KW5bY0hdbltjSF02

>  <s_epik_cmdline>  (152) 
J2VwaWtfcHl0aG9uJywgJy1waHQnLCAnMi4wJywgJy1waCcsICc3LjAnLCAnLXRuJywgJzgnLCAnLW1hJywgJzIwMCcsICctaW1hZScsICc8aW5maWxlLm1hZT4nLCAnLW9tYWUnLCAnPG91dGZpbGUubWFlPic=

>  <r_lp_tautomer_probability>  (152) 
0.999336

>  <r_epik_Ionization_Penalty>  (152) 
0.984925

>  <r_epik_Ionization_Penalty_Charging>  (152) 
0.984256

>  <r_epik_Ionization_Penalty_Neutral>  (152) 
0.000668778

>  <r_epik_State_Penalty>  (152) 
1.03138

>  <r_epik_Charging_Adjusted_Penalty>  (152) 
2.01564

>  <i_epik_Tot_Q>  (152) 
1

>  <i_epik_Tot_abs_Q>  (152) 
1

>  <s_lp_Force_Field>  (152) 
OPLS3e

>  <r_lp_Energy>  (152) 
49.7637

>  <b_lp_Chiralities_Consistent>  (152) 
1

>  <s_lp_Variant>  (152) 
50:0-4

>  <s_i_glide_gridfile>  (152) 
pfpi4k_grid

>  <i_i_glide_lignum>  (152) 
22

>  <i_i_glide_rotatable_bonds>  (152) 
3

>  <r_i_docking_score>  (152) 
-3.5828

>  <r_i_glide_ligand_efficiency>  (152) 
-0.143312

>  <r_i_glide_ligand_efficiency_sa>  (152) 
-0.419047

>  <r_i_glide_ligand_efficiency_ln>  (152) 
-0.849232

>  <r_i_glide_gscore>  (152) 
-3.5828

>  <r_i_glide_lipo>  (152) 
-0.572641

>  <r_i_glide_hbond>  (152) 
0

>  <r_i_glide_metal>  (152) 
-0

>  <r_i_glide_rewards>  (152) 
-1.50597

>  <r_i_glide_evdw>  (152) 
-27.4392

>  <r_i_glide_ecoul>  (152) 
-4.0772

>  <r_i_glide_erotb>  (152) 
0.505982

>  <r_i_glide_esite>  (152) 
-0.0266395

>  <r_i_glide_emodel>  (152) 
-40.0555

>  <r_i_glide_energy>  (152) 
-31.5164

>  <r_i_glide_einternal>  (152) 
1.27784

>  <r_i_glide_intrahb_reward>  (152) 
-0

>  <i_i_glide_confnum>  (152) 
1

>  <i_i_glide_posenum>  (152) 
5

>  <r_i_glide_eff_state_penalty>  (152) 
0

>  <ligand_id>  (152) 
50

>  <original_smiles>  (152) 
c1cc(N2CC3C(C2)C3c2nc3cncnc3n2C2CCC2)ncn1

>  <smiles>  (152) 
[H]c1nc([H])c2nc(C3([H])C4([H])C([H])([H])N(c5nc([H])[n+]([H])c([H])c5[H])C([H])([H])C34[H])n(C3([H])C([H])([H])C([H])([H])C3([H])[H])c2n1

$$$$
50:3:2
     RDKit          3D

 45 50  0  0  1  0  0  0  0  0999 V2000
    3.8047   -0.3730   -3.5158 C   0  0  0  0  0  0  0  0  0  0  0  0
    4.6129   -0.9151   -2.5060 C   0  0  0  0  0  0  0  0  0  0  0  0
    4.4709   -2.2813   -2.2257 C   0  0  0  0  0  0  0  0  0  0  0  0
    5.3051   -2.9293   -1.3006 N   0  0  0  0  0  0  0  0  0  0  0  0
    6.4782   -2.3260   -0.6897 C   0  0  0  0  0  0  0  0  0  0  0  0
    6.9066   -3.2954    0.3909 C   0  0  2  0  0  0  0  0  0  0  0  0
    6.0063   -4.4862    0.3324 C   0  0  2  0  0  0  0  0  0  0  0  0
    5.0162   -4.2570   -0.7907 C   0  0  0  0  0  0  0  0  0  0  0  0
    6.0286   -3.6272    1.5844 C   0  0  2  0  0  0  0  0  0  0  0  0
    4.8707   -2.7449    1.9443 C   0  0  0  0  0  0  0  0  0  0  0  0
    5.0232   -1.4177    2.0179 N   0  0  0  0  0  0  0  0  0  0  0  0
    3.7395   -0.9923    2.2662 C   0  0  0  0  0  0  0  0  0  0  0  0
    3.1695    0.2986    2.3827 C   0  0  0  0  0  0  0  0  0  0  0  0
    1.8498    0.4013    2.6586 N   0  0  0  0  0  0  0  0  0  0  0  0
    1.1249   -0.7101    2.7840 C   0  0  0  0  0  0  0  0  0  0  0  0
    1.5185   -1.9824    2.6771 N   0  0  0  0  0  0  0  0  0  0  0  0
    2.8523   -2.0880    2.4130 C   0  0  0  0  0  0  0  0  0  0  0  0
    3.6309   -3.2328    2.2345 N   0  0  0  0  0  0  0  0  0  0  0  0
    3.2000   -4.6245    2.2980 C   0  0  0  0  0  0  0  0  0  0  0  0
    2.4372   -5.2858    1.1371 C   0  0  0  0  0  0  0  0  0  0  0  0
    1.6548   -6.1079    2.1549 C   0  0  0  0  0  0  0  0  0  0  0  0
    2.0481   -5.0820    3.2190 C   0  0  0  0  0  0  0  0  0  0  0  0
    3.5633   -3.0253   -2.8828 N   0  0  0  0  0  0  0  0  0  0  0  0
    2.8042   -2.4572   -3.8229 C   0  0  0  0  0  0  0  0  0  0  0  0
    2.9340   -1.1713   -4.1749 N   0  0  0  0  0  0  0  0  0  0  0  0
    3.8303    0.6684   -3.8046 H   0  0  0  0  0  0  0  0  0  0  0  0
    5.3048   -0.2870   -1.9578 H   0  0  0  0  0  0  0  0  0  0  0  0
    7.2516   -2.2389   -1.4519 H   0  0  0  0  0  0  0  0  0  0  0  0
    6.2808   -1.3450   -0.2554 H   0  0  0  0  0  0  0  0  0  0  0  0
    7.9776   -3.4669    0.4816 H   0  0  0  0  0  0  0  0  0  0  0  0
    6.4480   -5.4799    0.4106 H   0  0  0  0  0  0  0  0  0  0  0  0
    4.0023   -4.2380   -0.4103 H   0  0  0  0  0  0  0  0  0  0  0  0
    5.0976   -5.0323   -1.5578 H   0  0  0  0  0  0  0  0  0  0  0  0
    6.5101   -4.0185    2.4768 H   0  0  0  0  0  0  0  0  0  0  0  0
    3.7422    1.2098    2.2778 H   0  0  0  0  0  0  0  0  0  0  0  0
    0.0836   -0.5666    3.0134 H   0  0  0  0  0  0  0  0  0  0  0  0
    4.0915   -5.2078    2.5289 H   0  0  0  0  0  0  0  0  0  0  0  0
    1.8217   -4.5753    0.5833 H   0  0  0  0  0  0  0  0  0  0  0  0
    3.0230   -5.9221    0.4741 H   0  0  0  0  0  0  0  0  0  0  0  0
    0.5840   -6.1738    1.9512 H   0  0  0  0  0  0  0  0  0  0  0  0
    2.1000   -7.0895    2.3213 H   0  0  0  0  0  0  0  0  0  0  0  0
    2.3777   -5.5018    4.1695 H   0  0  0  0  0  0  0  0  0  0  0  0
    1.2421   -4.3600    3.3626 H   0  0  0  0  0  0  0  0  0  0  0  0
    2.0633   -3.0380   -4.3485 H   0  0  0  0  0  0  0  0  0  0  0  0
    2.3398   -0.7792   -4.9049 H   0  0  0  0  0  0  0  0  0  0  0  0
  1 25  2  0
  1  2  1  0
  1 26  1  0
  2  3  2  0
  2 27  1  0
  3  4  1  0
  3 23  1  0
  4  8  1  0
  4  5  1  0
  5  6  1  0
  5 28  1  0
  5 29  1  0
  6  9  1  0
  6  7  1  0
  6 30  1  1
  7  8  1  0
  7  9  1  0
  7 31  1  1
  8 32  1  0
  8 33  1  0
  9 10  1  0
  9 34  1  1
 10 18  1  0
 10 11  2  0
 11 12  1  0
 12 17  2  0
 12 13  1  0
 13 14  2  0
 13 35  1  0
 14 15  1  0
 15 16  2  0
 15 36  1  0
 16 17  1  0
 17 18  1  0
 18 19  1  0
 19 22  1  0
 19 20  1  0
 19 37  1  0
 20 21  1  0
 20 38  1  0
 20 39  1  0
 21 22  1  0
 21 40  1  0
 21 41  1  0
 22 42  1  0
 22 43  1  0
 23 24  2  0
 24 25  1  0
 24 44  1  0
 25 45  1  0
M  CHG  1  25   1
M  END
>  <i_m_ct_stereo_status>  (153) 
1

>  <s_m_source_file>  (153) 
/var/tmp/pbs.5076255.sched01/tmpcdf8lnea/434bzo3qpq.sdf

>  <i_m_source_file_index>  (153) 
22

>  <i_lp_mmshare_version>  (153) 
48012

>  <i_f3d_flags>  (153) 
0

>  <s_epik_input>  (153) 
bjFbY0hdbltjSF1bY0hdYzFOKFtDSDJdMilbQ0gyXVtDQEBIXShbQ0BASF0yMylbQ0BIXTNjKG40KW4oW0NIXTVbQ0gyXVtDSDJdW0NIMl01KWMoYzQ2KW5bY0hdbltjSF02

>  <s_epik_cmdline>  (153) 
J2VwaWtfcHl0aG9uJywgJy1waHQnLCAnMi4wJywgJy1waCcsICc3LjAnLCAnLXRuJywgJzgnLCAnLW1hJywgJzIwMCcsICctaW1hZScsICc8aW5maWxlLm1hZT4nLCAnLW9tYWUnLCAnPG91dGZpbGUubWFlPic=

>  <r_lp_tautomer_probability>  (153) 
0.999336

>  <r_epik_Ionization_Penalty>  (153) 
0.984925

>  <r_epik_Ionization_Penalty_Charging>  (153) 
0.984256

>  <r_epik_Ionization_Penalty_Neutral>  (153) 
0.000668778

>  <r_epik_State_Penalty>  (153) 
1.03138

>  <r_epik_Charging_Adjusted_Penalty>  (153) 
2.01564

>  <i_epik_Tot_Q>  (153) 
1

>  <i_epik_Tot_abs_Q>  (153) 
1

>  <s_lp_Force_Field>  (153) 
OPLS3e

>  <r_lp_Energy>  (153) 
49.7637

>  <b_lp_Chiralities_Consistent>  (153) 
1

>  <s_lp_Variant>  (153) 
50:0-4

>  <s_i_glide_gridfile>  (153) 
pfpi4k_grid

>  <i_i_glide_lignum>  (153) 
22

>  <i_i_glide_rotatable_bonds>  (153) 
3

>  <r_i_docking_score>  (153) 
-3.198

>  <r_i_glide_ligand_efficiency>  (153) 
-0.12792

>  <r_i_glide_ligand_efficiency_sa>  (153) 
-0.37404

>  <r_i_glide_ligand_efficiency_ln>  (153) 
-0.758022

>  <r_i_glide_gscore>  (153) 
-3.198

>  <r_i_glide_lipo>  (153) 
-0.655278

>  <r_i_glide_hbond>  (153) 
0

>  <r_i_glide_metal>  (153) 
-0

>  <r_i_glide_rewards>  (153) 
-1.45957

>  <r_i_glide_evdw>  (153) 
-29.0842

>  <r_i_glide_ecoul>  (153) 
-0.665928

>  <r_i_glide_erotb>  (153) 
0.505982

>  <r_i_glide_esite>  (153) 
-0.0350374

>  <r_i_glide_emodel>  (153) 
-37.2085

>  <r_i_glide_energy>  (153) 
-29.7501

>  <r_i_glide_einternal>  (153) 
1.55585

>  <r_i_glide_intrahb_reward>  (153) 
-0

>  <i_i_glide_confnum>  (153) 
4

>  <i_i_glide_posenum>  (153) 
28

>  <r_i_glide_eff_state_penalty>  (153) 
0

>  <ligand_id>  (153) 
50

>  <original_smiles>  (153) 
c1cc(N2CC3C(C2)C3c2nc3cncnc3n2C2CCC2)ncn1

>  <smiles>  (153) 
[H]c1nc([H])c2nc(C3([H])C4([H])C([H])([H])N(c5nc([H])[n+]([H])c([H])c5[H])C([H])([H])C34[H])n(C3([H])C([H])([H])C([H])([H])C3([H])[H])c2n1

$$$$
51:0:0
     RDKit          3D

 68 74  0  0  1  0  0  0  0  0999 V2000
    3.2482  -10.3789    3.0651 C   0  0  0  0  0  0  0  0  0  0  0  0
    2.0235   -9.5613    3.5330 C   0  0  1  0  0  0  0  0  0  0  0  0
    2.1398   -9.1655    5.0241 C   0  0  0  0  0  0  0  0  0  0  0  0
    3.1914   -8.0723    5.2411 C   0  0  0  0  0  0  0  0  0  0  0  0
    2.8657   -6.7794    4.4480 C   0  0  2  0  0  0  0  0  0  0  0  0
    2.6971   -7.1111    2.9434 C   0  0  2  0  0  0  0  0  0  0  0  0
    2.2722   -5.8747    2.1402 C   0  0  0  0  0  0  0  0  0  0  0  0
    2.9512   -4.6034    2.5844 C   0  0  0  0  0  0  0  0  0  0  0  0
    3.6828   -4.4426    3.7055 C   0  0  0  0  0  0  0  0  0  0  0  0
    4.3911   -3.1176    4.0724 C   0  0  1  0  0  0  0  0  0  0  0  0
    4.3952   -1.9726    3.0193 C   0  0  1  0  0  0  0  0  0  0  0  0
    4.9552   -2.0681    1.5764 C   0  0  1  0  0  0  0  0  0  0  0  0
    5.2412   -3.3669    1.0955 O   0  0  0  0  0  0  0  0  0  0  0  0
    3.9809   -1.2148    0.7089 C   0  0  1  0  0  0  0  0  0  0  0  0
    3.0247   -2.0564    0.0883 O   0  0  0  0  0  0  0  0  0  0  0  0
    3.2775   -0.3059    1.7512 C   0  0  1  0  0  0  0  0  0  0  0  0
    2.0770    0.2879    1.2836 O   0  0  0  0  0  0  0  0  0  0  0  0
    3.0584   -1.2426    2.9438 C   0  0  2  0  0  0  0  0  0  0  0  0
    2.8800   -0.6176    4.2071 O   0  0  0  0  0  0  0  0  0  0  0  0
    2.6747   -1.5883    5.2407 C   0  0  0  0  0  0  0  0  0  0  0  0
    3.9124   -2.5084    5.4490 C   0  0  2  0  0  0  0  0  0  0  0  0
    5.0425   -1.6590    6.0809 C   0  0  0  0  0  0  0  0  0  0  0  0
    3.5637   -3.5941    6.4647 C   0  0  1  0  0  0  0  0  0  0  0  0
    2.3715   -4.3542    6.2192 O   0  0  0  0  0  0  0  0  0  0  0  0
    3.6056   -5.0593    6.1111 C   0  0  1  0  0  0  0  0  0  0  0  0
    3.8740   -5.5983    4.7138 C   0  0  1  0  0  0  0  0  0  0  0  0
    5.3430   -6.0811    4.6253 C   0  0  0  0  0  0  0  0  0  0  0  0
    1.7598   -8.3198    2.6536 C   0  0  2  0  0  0  0  0  0  0  0  0
    0.2376   -8.0692    2.7660 C   0  0  0  0  0  0  0  0  0  0  0  0
   -0.4163   -9.4497    2.8845 C   0  0  0  0  0  0  0  0  0  0  0  0
    0.7267  -10.3423    3.3257 C   0  0  0  0  0  0  0  0  0  0  0  0
    0.6187  -11.5570    3.4749 O   0  0  0  0  0  0  0  0  0  0  0  0
    4.1433   -9.7595    2.9940 H   0  0  0  0  0  0  0  0  0  0  0  0
    3.0827  -10.8186    2.0794 H   0  0  0  0  0  0  0  0  0  0  0  0
    3.4693  -11.2019    3.7493 H   0  0  0  0  0  0  0  0  0  0  0  0
    1.1827   -8.8067    5.3989 H   0  0  0  0  0  0  0  0  0  0  0  0
    2.3807  -10.0378    5.6372 H   0  0  0  0  0  0  0  0  0  0  0  0
    3.2603   -7.8573    6.3064 H   0  0  0  0  0  0  0  0  0  0  0  0
    4.1573   -8.4775    4.9381 H   0  0  0  0  0  0  0  0  0  0  0  0
    1.8819   -6.4468    4.7858 H   0  0  0  0  0  0  0  0  0  0  0  0
    3.6848   -7.3957    2.5791 H   0  0  0  0  0  0  0  0  0  0  0  0
    2.4953   -6.0272    1.0818 H   0  0  0  0  0  0  0  0  0  0  0  0
    1.2045   -5.6845    2.2267 H   0  0  0  0  0  0  0  0  0  0  0  0
    2.8178   -3.7935    1.8955 H   0  0  0  0  0  0  0  0  0  0  0  0
    5.4345   -3.3852    4.1963 H   0  0  0  0  0  0  0  0  0  0  0  0
    5.0806   -1.2428    3.4406 H   0  0  0  0  0  0  0  0  0  0  0  0
    5.9171   -1.5524    1.5674 H   0  0  0  0  0  0  0  0  0  0  0  0
    5.8363   -3.7881    1.6952 H   0  0  0  0  0  0  0  0  0  0  0  0
    4.5071   -0.6377   -0.0566 H   0  0  0  0  0  0  0  0  0  0  0  0
    2.3728   -1.5234   -0.3679 H   0  0  0  0  0  0  0  0  0  0  0  0
    3.9654    0.4888    2.0420 H   0  0  0  0  0  0  0  0  0  0  0  0
    1.6059   -0.2966    0.7008 H   0  0  0  0  0  0  0  0  0  0  0  0
    2.2296   -1.9177    2.7360 H   0  0  0  0  0  0  0  0  0  0  0  0
    2.4386   -1.0576    6.1664 H   0  0  0  0  0  0  0  0  0  0  0  0
    1.7906   -2.1766    4.9932 H   0  0  0  0  0  0  0  0  0  0  0  0
    4.7692   -1.3151    7.0812 H   0  0  0  0  0  0  0  0  0  0  0  0
    5.2568   -0.7569    5.5073 H   0  0  0  0  0  0  0  0  0  0  0  0
    5.9674   -2.2253    6.1729 H   0  0  0  0  0  0  0  0  0  0  0  0
    3.6618   -3.3152    7.5143 H   0  0  0  0  0  0  0  0  0  0  0  0
    3.7885   -5.7515    6.9330 H   0  0  0  0  0  0  0  0  0  0  0  0
    5.5700   -6.8728    5.3399 H   0  0  0  0  0  0  0  0  0  0  0  0
    6.0522   -5.2877    4.8441 H   0  0  0  0  0  0  0  0  0  0  0  0
    5.5653   -6.4495    3.6232 H   0  0  0  0  0  0  0  0  0  0  0  0
    1.9383   -8.6226    1.6168 H   0  0  0  0  0  0  0  0  0  0  0  0
    0.0107   -7.4932    3.6627 H   0  0  0  0  0  0  0  0  0  0  0  0
   -0.1497   -7.5345    1.9020 H   0  0  0  0  0  0  0  0  0  0  0  0
   -1.2309   -9.4698    3.6098 H   0  0  0  0  0  0  0  0  0  0  0  0
   -0.7903   -9.8053    1.9263 H   0  0  0  0  0  0  0  0  0  0  0  0
  2  1  1  6
  1 33  1  0
  1 34  1  0
  1 35  1  0
  2 28  1  0
  2 31  1  0
  2  3  1  0
  3  4  1  0
  3 36  1  0
  3 37  1  0
  4  5  1  0
  4 38  1  0
  4 39  1  0
  5 26  1  0
  5  6  1  0
  5 40  1  1
  6  7  1  0
  6 28  1  0
  6 41  1  6
  7  8  1  0
  7 42  1  0
  7 43  1  0
  8  9  2  0
  8 44  1  0
  9 26  1  0
  9 10  1  0
 10 21  1  0
 10 11  1  0
 10 45  1  1
 11 18  1  0
 11 12  1  0
 11 46  1  1
 12 13  1  0
 12 14  1  0
 12 47  1  1
 13 48  1  0
 14 15  1  0
 14 16  1  0
 14 49  1  6
 15 50  1  0
 16 17  1  0
 16 18  1  0
 16 51  1  1
 17 52  1  0
 18 19  1  0
 18 53  1  6
 19 20  1  0
 20 21  1  0
 20 54  1  0
 20 55  1  0
 21 22  1  1
 21 23  1  0
 22 56  1  0
 22 57  1  0
 22 58  1  0
 23 25  1  0
 23 24  1  0
 23 59  1  1
 24 25  1  0
 25 26  1  0
 25 60  1  1
 26 27  1  1
 27 61  1  0
 27 62  1  0
 27 63  1  0
 28 29  1  0
 28 64  1  6
 29 30  1  0
 29 65  1  0
 29 66  1  0
 30 31  1  0
 30 67  1  0
 30 68  1  0
 31 32  2  0
M  END
>  <i_m_ct_stereo_status>  (154) 
1

>  <s_m_source_file>  (154) 
/var/tmp/pbs.5076255.sched01/tmpcdf8lnea/434bzo3qpq.sdf

>  <i_m_source_file_index>  (154) 
23

>  <i_lp_mmshare_version>  (154) 
48012

>  <i_f3d_flags>  (154) 
0

>  <s_epik_input>  (154) 
Tz1DMVtDSDJdW0NIMl1bQ0BIXShbQ0BdMTJbQ0gzXSlbQ0BASF0zW0NAQEhdKFtDSDJdW0NIMl0yKVtDQEBdNChbQ0gzXSlDKD1bQ0hdW0NIMl0zKVtDQEhdNVtDQEBIXTZbQ0BIXShbQ0BIXShbT0hdKVtDQEhdKFtPSF0pW0NAQEhdNltPSF0pT1tDSDJdW0NAQF01KFtDSDNdKVtDQEBIXTdbQ0BIXTRPNw==

>  <s_epik_cmdline>  (154) 
J2VwaWtfcHl0aG9uJywgJy1waHQnLCAnMi4wJywgJy1waCcsICc3LjAnLCAnLXRuJywgJzgnLCAnLW1hJywgJzIwMCcsICctaW1hZScsICc8aW5maWxlLm1hZT4nLCAnLW9tYWUnLCAnPG91dGZpbGUubWFlPic=

>  <r_lp_tautomer_probability>  (154) 
1

>  <r_epik_Ionization_Penalty>  (154) 
1.62691e-07

>  <r_epik_Ionization_Penalty_Charging>  (154) 
0

>  <r_epik_Ionization_Penalty_Neutral>  (154) 
1.62691e-07

>  <r_epik_State_Penalty>  (154) 
-0

>  <r_epik_Charging_Adjusted_Penalty>  (154) 
0

>  <i_epik_Tot_Q>  (154) 
0

>  <i_epik_Tot_abs_Q>  (154) 
0

>  <s_lp_Force_Field>  (154) 
OPLS3e

>  <r_lp_Energy>  (154) 
54.0454

>  <b_lp_Chiralities_Consistent>  (154) 
1

>  <s_lp_Variant>  (154) 
51:0-1

>  <s_i_glide_gridfile>  (154) 
pfpi4k_grid

>  <i_i_glide_lignum>  (154) 
23

>  <i_i_glide_rotatable_bonds>  (154) 
3

>  <r_i_docking_score>  (154) 
-2.7479

>  <r_i_glide_ligand_efficiency>  (154) 
-0.0858718

>  <r_i_glide_ligand_efficiency_sa>  (154) 
-0.272626

>  <r_i_glide_ligand_efficiency_ln>  (154) 
-0.615329

>  <r_i_glide_gscore>  (154) 
-2.7479

>  <r_i_glide_lipo>  (154) 
-0.0912374

>  <r_i_glide_hbond>  (154) 
0

>  <r_i_glide_metal>  (154) 
-0

>  <r_i_glide_rewards>  (154) 
-0.436062

>  <r_i_glide_evdw>  (154) 
-26.2594

>  <r_i_glide_ecoul>  (154) 
-6.05087

>  <r_i_glide_erotb>  (154) 
0

>  <r_i_glide_esite>  (154) 
0

>  <r_i_glide_emodel>  (154) 
-37.5822

>  <r_i_glide_energy>  (154) 
-32.3103

>  <r_i_glide_einternal>  (154) 
1.34093

>  <r_i_glide_intrahb_reward>  (154) 
-0

>  <i_i_glide_confnum>  (154) 
2

>  <i_i_glide_posenum>  (154) 
38

>  <r_i_glide_eff_state_penalty>  (154) 
0

>  <ligand_id>  (154) 
51

>  <original_smiles>  (154) 
CC12CCC3C(CC=C4C5C6C(O)C(O)C(O)C6OCC5(C)C5OC5C43C)C1CCC2=O

>  <smiles>  (154) 
[H]OC1([H])C([H])(O[H])C2([H])OC([H])([H])C3(C([H])([H])[H])C4([H])OC4([H])C4(C([H])([H])[H])C(=C([H])C([H])([H])C5([H])C6([H])C([H])([H])C([H])([H])C(=O)C6(C([H])([H])[H])C([H])([H])C([H])([H])C54[H])C3([H])C2([H])C1([H])O[H]

$$$$
51:0:1
     RDKit          3D

 68 74  0  0  1  0  0  0  0  0999 V2000
    2.8751   -9.9601    4.7818 C   0  0  0  0  0  0  0  0  0  0  0  0
    1.4311   -9.4950    4.5181 C   0  0  1  0  0  0  0  0  0  0  0  0
    0.6862   -9.1376    5.8267 C   0  0  0  0  0  0  0  0  0  0  0  0
    1.1946   -7.8217    6.4295 C   0  0  0  0  0  0  0  0  0  0  0  0
    1.0160   -6.6259    5.4595 C   0  0  2  0  0  0  0  0  0  0  0  0
    1.7035   -6.9287    4.1074 C   0  0  2  0  0  0  0  0  0  0  0  0
    1.4540   -5.8084    3.0885 C   0  0  0  0  0  0  0  0  0  0  0  0
    1.4959   -4.4249    3.6890 C   0  0  0  0  0  0  0  0  0  0  0  0
    1.5173   -4.1343    5.0034 C   0  0  0  0  0  0  0  0  0  0  0  0
    1.6117   -2.6871    5.5460 C   0  0  1  0  0  0  0  0  0  0  0  0
    1.8732   -1.5361    4.5304 C   0  0  1  0  0  0  0  0  0  0  0  0
    3.0826   -1.4352    3.5606 C   0  0  1  0  0  0  0  0  0  0  0  0
    3.8792   -2.5952    3.3984 O   0  0  0  0  0  0  0  0  0  0  0  0
    2.5024   -0.8250    2.2548 C   0  0  1  0  0  0  0  0  0  0  0  0
    2.2235   -1.8552    1.3116 O   0  0  0  0  0  0  0  0  0  0  0  0
    1.1935   -0.1466    2.7274 C   0  0  1  0  0  0  0  0  0  0  0  0
    0.2934    0.1464    1.6904 O   0  0  0  0  0  0  0  0  0  0  0  0
    0.6266   -1.1494    3.7418 C   0  0  2  0  0  0  0  0  0  0  0  0
   -0.3062   -0.6511    4.6909 O   0  0  0  0  0  0  0  0  0  0  0  0
   -0.7584   -1.6816    5.5732 C   0  0  0  0  0  0  0  0  0  0  0  0
    0.3855   -2.2692    6.4469 C   0  0  2  0  0  0  0  0  0  0  0  0
    0.8138   -1.1911    7.4726 C   0  0  0  0  0  0  0  0  0  0  0  0
   -0.1507   -3.4448    7.2588 C   0  0  1  0  0  0  0  0  0  0  0  0
   -0.8562   -4.4711    6.5345 O   0  0  0  0  0  0  0  0  0  0  0  0
    0.4029   -4.8436    7.1047 C   0  0  1  0  0  0  0  0  0  0  0  0
    1.4439   -5.2424    6.0744 C   0  0  1  0  0  0  0  0  0  0  0  0
    2.8292   -5.3390    6.7668 C   0  0  0  0  0  0  0  0  0  0  0  0
    1.3525   -8.3230    3.5136 C   0  0  2  0  0  0  0  0  0  0  0  0
   -0.0353   -8.4591    2.8416 C   0  0  0  0  0  0  0  0  0  0  0  0
   -0.3075   -9.9620    2.7551 C   0  0  0  0  0  0  0  0  0  0  0  0
    0.6342  -10.5673    3.7763 C   0  0  0  0  0  0  0  0  0  0  0  0
    0.7468  -11.7712    3.9623 O   0  0  0  0  0  0  0  0  0  0  0  0
    3.5107   -9.1375    5.1032 H   0  0  0  0  0  0  0  0  0  0  0  0
    3.3279  -10.3847    3.8860 H   0  0  0  0  0  0  0  0  0  0  0  0
    2.9113  -10.7274    5.5555 H   0  0  0  0  0  0  0  0  0  0  0  0
   -0.3878   -9.0472    5.6478 H   0  0  0  0  0  0  0  0  0  0  0  0
    0.7910   -9.9471    6.5547 H   0  0  0  0  0  0  0  0  0  0  0  0
    0.6725   -7.6415    7.3674 H   0  0  0  0  0  0  0  0  0  0  0  0
    2.2473   -7.9636    6.6799 H   0  0  0  0  0  0  0  0  0  0  0  0
   -0.0523   -6.5621    5.2435 H   0  0  0  0  0  0  0  0  0  0  0  0
    2.7774   -6.9434    4.3033 H   0  0  0  0  0  0  0  0  0  0  0  0
    2.2009   -5.8633    2.2940 H   0  0  0  0  0  0  0  0  0  0  0  0
    0.4767   -5.9004    2.6199 H   0  0  0  0  0  0  0  0  0  0  0  0
    1.5179   -3.6512    2.9488 H   0  0  0  0  0  0  0  0  0  0  0  0
    2.4915   -2.6892    6.1856 H   0  0  0  0  0  0  0  0  0  0  0  0
    2.0670   -0.6746    5.1670 H   0  0  0  0  0  0  0  0  0  0  0  0
    3.7663   -0.6952    3.9813 H   0  0  0  0  0  0  0  0  0  0  0  0
    3.3824   -3.2291    2.9059 H   0  0  0  0  0  0  0  0  0  0  0  0
    3.1854   -0.1168    1.7926 H   0  0  0  0  0  0  0  0  0  0  0  0
    1.8142   -1.4701    0.5442 H   0  0  0  0  0  0  0  0  0  0  0  0
    1.4365    0.7826    3.2461 H   0  0  0  0  0  0  0  0  0  0  0  0
    0.6003   -0.1626    0.8293 H   0  0  0  0  0  0  0  0  0  0  0  0
    0.2114   -2.0097    3.2250 H   0  0  0  0  0  0  0  0  0  0  0  0
   -1.5428   -1.2635    6.2055 H   0  0  0  0  0  0  0  0  0  0  0  0
   -1.2330   -2.4636    4.9798 H   0  0  0  0  0  0  0  0  0  0  0  0
    0.0152   -0.9615    8.1772 H   0  0  0  0  0  0  0  0  0  0  0  0
    1.0685   -0.2438    6.9971 H   0  0  0  0  0  0  0  0  0  0  0  0
    1.6768   -1.5120    8.0558 H   0  0  0  0  0  0  0  0  0  0  0  0
   -0.6446   -3.1990    8.1973 H   0  0  0  0  0  0  0  0  0  0  0  0
    0.3129   -5.4950    7.9724 H   0  0  0  0  0  0  0  0  0  0  0  0
    2.8519   -6.0719    7.5713 H   0  0  0  0  0  0  0  0  0  0  0  0
    3.1306   -4.4007    7.2299 H   0  0  0  0  0  0  0  0  0  0  0  0
    3.6050   -5.6026    6.0428 H   0  0  0  0  0  0  0  0  0  0  0  0
    2.0835   -8.5259    2.7257 H   0  0  0  0  0  0  0  0  0  0  0  0
   -0.8119   -7.9938    3.4513 H   0  0  0  0  0  0  0  0  0  0  0  0
   -0.0611   -8.0092    1.8490 H   0  0  0  0  0  0  0  0  0  0  0  0
   -1.3427  -10.2125    2.9836 H   0  0  0  0  0  0  0  0  0  0  0  0
   -0.0580  -10.3699    1.7771 H   0  0  0  0  0  0  0  0  0  0  0  0
  2  1  1  1
  1 33  1  0
  1 34  1  0
  1 35  1  0
  2 28  1  0
  2 31  1  0
  2  3  1  0
  3  4  1  0
  3 36  1  0
  3 37  1  0
  4  5  1  0
  4 38  1  0
  4 39  1  0
  5 26  1  0
  5  6  1  0
  5 40  1  6
  6  7  1  0
  6 28  1  0
  6 41  1  1
  7  8  1  0
  7 42  1  0
  7 43  1  0
  8  9  2  0
  8 44  1  0
  9 26  1  0
  9 10  1  0
 10 21  1  0
 10 11  1  0
 10 45  1  1
 11 18  1  0
 11 12  1  0
 11 46  1  1
 12 13  1  0
 12 14  1  0
 12 47  1  1
 13 48  1  0
 14 15  1  0
 14 16  1  0
 14 49  1  6
 15 50  1  0
 16 17  1  0
 16 18  1  0
 16 51  1  1
 17 52  1  0
 18 19  1  0
 18 53  1  6
 19 20  1  0
 20 21  1  0
 20 54  1  0
 20 55  1  0
 21 22  1  1
 21 23  1  0
 22 56  1  0
 22 57  1  0
 22 58  1  0
 23 25  1  0
 23 24  1  0
 23 59  1  1
 24 25  1  0
 25 26  1  0
 25 60  1  1
 26 27  1  1
 27 61  1  0
 27 62  1  0
 27 63  1  0
 28 29  1  0
 28 64  1  6
 29 30  1  0
 29 65  1  0
 29 66  1  0
 30 31  1  0
 30 67  1  0
 30 68  1  0
 31 32  2  0
M  END
>  <i_m_ct_stereo_status>  (155) 
1

>  <s_m_source_file>  (155) 
/var/tmp/pbs.5076255.sched01/tmpcdf8lnea/434bzo3qpq.sdf

>  <i_m_source_file_index>  (155) 
23

>  <i_lp_mmshare_version>  (155) 
48012

>  <i_f3d_flags>  (155) 
0

>  <s_epik_input>  (155) 
Tz1DMVtDSDJdW0NIMl1bQ0BIXShbQ0BdMTJbQ0gzXSlbQ0BASF0zW0NAQEhdKFtDSDJdW0NIMl0yKVtDQEBdNChbQ0gzXSlDKD1bQ0hdW0NIMl0zKVtDQEhdNVtDQEBIXTZbQ0BIXShbQ0BIXShbT0hdKVtDQEhdKFtPSF0pW0NAQEhdNltPSF0pT1tDSDJdW0NAQF01KFtDSDNdKVtDQEBIXTdbQ0BIXTRPNw==

>  <s_epik_cmdline>  (155) 
J2VwaWtfcHl0aG9uJywgJy1waHQnLCAnMi4wJywgJy1waCcsICc3LjAnLCAnLXRuJywgJzgnLCAnLW1hJywgJzIwMCcsICctaW1hZScsICc8aW5maWxlLm1hZT4nLCAnLW9tYWUnLCAnPG91dGZpbGUubWFlPic=

>  <r_lp_tautomer_probability>  (155) 
1

>  <r_epik_Ionization_Penalty>  (155) 
1.62691e-07

>  <r_epik_Ionization_Penalty_Charging>  (155) 
0

>  <r_epik_Ionization_Penalty_Neutral>  (155) 
1.62691e-07

>  <r_epik_State_Penalty>  (155) 
-0

>  <r_epik_Charging_Adjusted_Penalty>  (155) 
0

>  <i_epik_Tot_Q>  (155) 
0

>  <i_epik_Tot_abs_Q>  (155) 
0

>  <s_lp_Force_Field>  (155) 
OPLS3e

>  <r_lp_Energy>  (155) 
54.0454

>  <b_lp_Chiralities_Consistent>  (155) 
1

>  <s_lp_Variant>  (155) 
51:0-1

>  <s_i_glide_gridfile>  (155) 
pfpi4k_grid

>  <i_i_glide_lignum>  (155) 
23

>  <i_i_glide_rotatable_bonds>  (155) 
3

>  <r_i_docking_score>  (155) 
-2.51366

>  <r_i_glide_ligand_efficiency>  (155) 
-0.0785519

>  <r_i_glide_ligand_efficiency_sa>  (155) 
-0.249387

>  <r_i_glide_ligand_efficiency_ln>  (155) 
-0.562877

>  <r_i_glide_gscore>  (155) 
-2.51366

>  <r_i_glide_lipo>  (155) 
-0.00229515

>  <r_i_glide_hbond>  (155) 
0

>  <r_i_glide_metal>  (155) 
-0

>  <r_i_glide_rewards>  (155) 
-0.377997

>  <r_i_glide_evdw>  (155) 
-26.2862

>  <r_i_glide_ecoul>  (155) 
-5.35764

>  <r_i_glide_erotb>  (155) 
0

>  <r_i_glide_esite>  (155) 
-0.0154145

>  <r_i_glide_emodel>  (155) 
-36.0867

>  <r_i_glide_energy>  (155) 
-31.6438

>  <r_i_glide_einternal>  (155) 
1.78042

>  <r_i_glide_intrahb_reward>  (155) 
-0

>  <i_i_glide_confnum>  (155) 
1

>  <i_i_glide_posenum>  (155) 
14

>  <r_i_glide_eff_state_penalty>  (155) 
0

>  <ligand_id>  (155) 
51

>  <original_smiles>  (155) 
CC12CCC3C(CC=C4C5C6C(O)C(O)C(O)C6OCC5(C)C5OC5C43C)C1CCC2=O

>  <smiles>  (155) 
[H]OC1([H])C([H])(O[H])C2([H])OC([H])([H])C3(C([H])([H])[H])C4([H])OC4([H])C4(C([H])([H])[H])C(=C([H])C([H])([H])C5([H])C6([H])C([H])([H])C([H])([H])C(=O)C6(C([H])([H])[H])C([H])([H])C([H])([H])C54[H])C3([H])C2([H])C1([H])O[H]

$$$$
51:0:2
     RDKit          3D

 68 74  0  0  1  0  0  0  0  0999 V2000
    2.8622   -9.8498    4.8027 C   0  0  0  0  0  0  0  0  0  0  0  0
    1.4155   -9.3797    4.5551 C   0  0  1  0  0  0  0  0  0  0  0  0
    0.6856   -9.0231    5.8726 C   0  0  0  0  0  0  0  0  0  0  0  0
    1.2059   -7.7089    6.4706 C   0  0  0  0  0  0  0  0  0  0  0  0
    1.0178   -6.5106    5.5040 C   0  0  2  0  0  0  0  0  0  0  0  0
    1.6919   -6.8147    4.1450 C   0  0  2  0  0  0  0  0  0  0  0  0
    1.4333   -5.6929    3.1281 C   0  0  0  0  0  0  0  0  0  0  0  0
    1.4909   -4.3115    3.7280 C   0  0  0  0  0  0  0  0  0  0  0  0
    1.5246   -4.0205    5.0434 C   0  0  0  0  0  0  0  0  0  0  0  0
    1.6331   -2.5734    5.5836 C   0  0  1  0  0  0  0  0  0  0  0  0
    1.8861   -1.4248    4.5635 C   0  0  1  0  0  0  0  0  0  0  0  0
    3.0795   -1.3243    3.5755 C   0  0  1  0  0  0  0  0  0  0  0  0
    3.8614   -2.4915    3.4052 O   0  0  0  0  0  0  0  0  0  0  0  0
    2.4884   -0.7091    2.2739 C   0  0  1  0  0  0  0  0  0  0  0  0
    2.2193   -1.7329    1.3186 O   0  0  0  0  0  0  0  0  0  0  0  0
    1.1811   -0.0374    2.7664 C   0  0  1  0  0  0  0  0  0  0  0  0
    0.2592    0.2356    1.7334 O   0  0  0  0  0  0  0  0  0  0  0  0
    0.6315   -1.0386    3.7906 C   0  0  2  0  0  0  0  0  0  0  0  0
   -0.2889   -0.5339    4.7489 O   0  0  0  0  0  0  0  0  0  0  0  0
   -0.7354   -1.5610    5.6378 C   0  0  0  0  0  0  0  0  0  0  0  0
    0.4183   -2.1540    6.4989 C   0  0  2  0  0  0  0  0  0  0  0  0
    0.8606   -1.0758    7.5208 C   0  0  0  0  0  0  0  0  0  0  0  0
   -0.1162   -3.3287    7.3173 C   0  0  1  0  0  0  0  0  0  0  0  0
   -0.8326   -4.3490    6.6030 O   0  0  0  0  0  0  0  0  0  0  0  0
    0.4273   -4.7285    7.1573 C   0  0  1  0  0  0  0  0  0  0  0  0
    1.4603   -5.1277    6.1154 C   0  0  1  0  0  0  0  0  0  0  0  0
    2.8529   -5.2312    6.7900 C   0  0  0  0  0  0  0  0  0  0  0  0
    1.3277   -8.2078    3.5499 C   0  0  2  0  0  0  0  0  0  0  0  0
   -0.0685   -8.3431    2.8976 C   0  0  0  0  0  0  0  0  0  0  0  0
   -0.3482   -9.8474    2.8176 C   0  0  0  0  0  0  0  0  0  0  0  0
    0.6141  -10.4533    3.8200 C   0  0  0  0  0  0  0  0  0  0  0  0
    0.7339  -11.6609    4.0016 O   0  0  0  0  0  0  0  0  0  0  0  0
    3.5044   -9.0304    5.1182 H   0  0  0  0  0  0  0  0  0  0  0  0
    3.3032  -10.2762    3.9028 H   0  0  0  0  0  0  0  0  0  0  0  0
    2.9033  -10.6176    5.5755 H   0  0  0  0  0  0  0  0  0  0  0  0
   -0.3894   -8.9283    5.7033 H   0  0  0  0  0  0  0  0  0  0  0  0
    0.7970   -9.8333    6.5994 H   0  0  0  0  0  0  0  0  0  0  0  0
    0.6947   -7.5273    7.4148 H   0  0  0  0  0  0  0  0  0  0  0  0
    2.2602   -7.8528    6.7098 H   0  0  0  0  0  0  0  0  0  0  0  0
   -0.0515   -6.4437    5.2991 H   0  0  0  0  0  0  0  0  0  0  0  0
    2.7674   -6.8333    4.3271 H   0  0  0  0  0  0  0  0  0  0  0  0
    2.1727   -5.7480    2.3267 H   0  0  0  0  0  0  0  0  0  0  0  0
    0.4507   -5.7817    2.6704 H   0  0  0  0  0  0  0  0  0  0  0  0
    1.5284   -3.5345    2.9907 H   0  0  0  0  0  0  0  0  0  0  0  0
    2.5189   -2.5797    6.2129 H   0  0  0  0  0  0  0  0  0  0  0  0
    2.0878   -0.5636    5.1977 H   0  0  0  0  0  0  0  0  0  0  0  0
    3.7722   -0.5887    3.9885 H   0  0  0  0  0  0  0  0  0  0  0  0
    4.5441   -2.2983    2.7797 H   0  0  0  0  0  0  0  0  0  0  0  0
    3.1696    0.0133    1.8213 H   0  0  0  0  0  0  0  0  0  0  0  0
    1.7683   -1.3692    0.5636 H   0  0  0  0  0  0  0  0  0  0  0  0
    1.4317    0.8951    3.2776 H   0  0  0  0  0  0  0  0  0  0  0  0
    0.6083   -0.0333    0.8910 H   0  0  0  0  0  0  0  0  0  0  0  0
    0.1989   -1.8928    3.2753 H   0  0  0  0  0  0  0  0  0  0  0  0
   -1.5075   -1.1397    6.2821 H   0  0  0  0  0  0  0  0  0  0  0  0
   -1.2227   -2.3405    5.0514 H   0  0  0  0  0  0  0  0  0  0  0  0
    0.0704   -0.8457    8.2356 H   0  0  0  0  0  0  0  0  0  0  0  0
    1.1128   -0.1300    7.0441 H   0  0  0  0  0  0  0  0  0  0  0  0
    1.7283   -1.4010    8.0951 H   0  0  0  0  0  0  0  0  0  0  0  0
   -0.5927   -3.0784    8.2633 H   0  0  0  0  0  0  0  0  0  0  0  0
    0.3505   -5.3802    8.0261 H   0  0  0  0  0  0  0  0  0  0  0  0
    2.8817   -5.9651    7.5951 H   0  0  0  0  0  0  0  0  0  0  0  0
    3.1620   -4.2940    7.2515 H   0  0  0  0  0  0  0  0  0  0  0  0
    3.6187   -5.4972    6.0574 H   0  0  0  0  0  0  0  0  0  0  0  0
    2.0506   -8.4113    2.7556 H   0  0  0  0  0  0  0  0  0  0  0  0
   -0.8348   -7.8704    3.5141 H   0  0  0  0  0  0  0  0  0  0  0  0
   -0.1037   -7.8913    1.9055 H   0  0  0  0  0  0  0  0  0  0  0  0
   -1.3824  -10.0903    3.0603 H   0  0  0  0  0  0  0  0  0  0  0  0
   -0.1144  -10.2494    1.8333 H   0  0  0  0  0  0  0  0  0  0  0  0
  2  1  1  1
  1 33  1  0
  1 34  1  0
  1 35  1  0
  2 28  1  0
  2 31  1  0
  2  3  1  0
  3  4  1  0
  3 36  1  0
  3 37  1  0
  4  5  1  0
  4 38  1  0
  4 39  1  0
  5 26  1  0
  5  6  1  0
  5 40  1  6
  6  7  1  0
  6 28  1  0
  6 41  1  1
  7  8  1  0
  7 42  1  0
  7 43  1  0
  8  9  2  0
  8 44  1  0
  9 26  1  0
  9 10  1  0
 10 21  1  0
 10 11  1  0
 10 45  1  1
 11 18  1  0
 11 12  1  0
 11 46  1  1
 12 13  1  0
 12 14  1  0
 12 47  1  1
 13 48  1  0
 14 15  1  0
 14 16  1  0
 14 49  1  6
 15 50  1  0
 16 17  1  0
 16 18  1  0
 16 51  1  1
 17 52  1  0
 18 19  1  0
 18 53  1  6
 19 20  1  0
 20 21  1  0
 20 54  1  0
 20 55  1  0
 21 22  1  1
 21 23  1  0
 22 56  1  0
 22 57  1  0
 22 58  1  0
 23 25  1  0
 23 24  1  0
 23 59  1  1
 24 25  1  0
 25 26  1  0
 25 60  1  1
 26 27  1  1
 27 61  1  0
 27 62  1  0
 27 63  1  0
 28 29  1  0
 28 64  1  6
 29 30  1  0
 29 65  1  0
 29 66  1  0
 30 31  1  0
 30 67  1  0
 30 68  1  0
 31 32  2  0
M  END
>  <i_m_ct_stereo_status>  (156) 
1

>  <s_m_source_file>  (156) 
/var/tmp/pbs.5076255.sched01/tmpcdf8lnea/434bzo3qpq.sdf

>  <i_m_source_file_index>  (156) 
23

>  <i_lp_mmshare_version>  (156) 
48012

>  <i_f3d_flags>  (156) 
0

>  <s_epik_input>  (156) 
Tz1DMVtDSDJdW0NIMl1bQ0BIXShbQ0BdMTJbQ0gzXSlbQ0BASF0zW0NAQEhdKFtDSDJdW0NIMl0yKVtDQEBdNChbQ0gzXSlDKD1bQ0hdW0NIMl0zKVtDQEhdNVtDQEBIXTZbQ0BIXShbQ0BIXShbT0hdKVtDQEhdKFtPSF0pW0NAQEhdNltPSF0pT1tDSDJdW0NAQF01KFtDSDNdKVtDQEBIXTdbQ0BIXTRPNw==

>  <s_epik_cmdline>  (156) 
J2VwaWtfcHl0aG9uJywgJy1waHQnLCAnMi4wJywgJy1waCcsICc3LjAnLCAnLXRuJywgJzgnLCAnLW1hJywgJzIwMCcsICctaW1hZScsICc8aW5maWxlLm1hZT4nLCAnLW9tYWUnLCAnPG91dGZpbGUubWFlPic=

>  <r_lp_tautomer_probability>  (156) 
1

>  <r_epik_Ionization_Penalty>  (156) 
1.62691e-07

>  <r_epik_Ionization_Penalty_Charging>  (156) 
0

>  <r_epik_Ionization_Penalty_Neutral>  (156) 
1.62691e-07

>  <r_epik_State_Penalty>  (156) 
-0

>  <r_epik_Charging_Adjusted_Penalty>  (156) 
0

>  <i_epik_Tot_Q>  (156) 
0

>  <i_epik_Tot_abs_Q>  (156) 
0

>  <s_lp_Force_Field>  (156) 
OPLS3e

>  <r_lp_Energy>  (156) 
54.0454

>  <b_lp_Chiralities_Consistent>  (156) 
1

>  <s_lp_Variant>  (156) 
51:0-1

>  <s_i_glide_gridfile>  (156) 
pfpi4k_grid

>  <i_i_glide_lignum>  (156) 
23

>  <i_i_glide_rotatable_bonds>  (156) 
3

>  <r_i_docking_score>  (156) 
-2.38311

>  <r_i_glide_ligand_efficiency>  (156) 
-0.0744723

>  <r_i_glide_ligand_efficiency_sa>  (156) 
-0.236435

>  <r_i_glide_ligand_efficiency_ln>  (156) 
-0.533644

>  <r_i_glide_gscore>  (156) 
-2.38311

>  <r_i_glide_lipo>  (156) 
-0.00246701

>  <r_i_glide_hbond>  (156) 
0

>  <r_i_glide_metal>  (156) 
-0

>  <r_i_glide_rewards>  (156) 
-0.377997

>  <r_i_glide_evdw>  (156) 
-26.6867

>  <r_i_glide_ecoul>  (156) 
-4.29137

>  <r_i_glide_erotb>  (156) 
0

>  <r_i_glide_esite>  (156) 
-0.0246078

>  <r_i_glide_emodel>  (156) 
-35.1428

>  <r_i_glide_energy>  (156) 
-30.9781

>  <r_i_glide_einternal>  (156) 
2.0903

>  <r_i_glide_intrahb_reward>  (156) 
-0

>  <i_i_glide_confnum>  (156) 
1

>  <i_i_glide_posenum>  (156) 
39

>  <r_i_glide_eff_state_penalty>  (156) 
0

>  <ligand_id>  (156) 
51

>  <original_smiles>  (156) 
CC12CCC3C(CC=C4C5C6C(O)C(O)C(O)C6OCC5(C)C5OC5C43C)C1CCC2=O

>  <smiles>  (156) 
[H]OC1([H])C([H])(O[H])C2([H])OC([H])([H])C3(C([H])([H])[H])C4([H])OC4([H])C4(C([H])([H])[H])C(=C([H])C([H])([H])C5([H])C6([H])C([H])([H])C([H])([H])C(=O)C6(C([H])([H])[H])C([H])([H])C([H])([H])C54[H])C3([H])C2([H])C1([H])O[H]

$$$$
52:0:0
     RDKit          3D

 68 72  0  0  1  0  0  0  0  0999 V2000
    5.0055   -3.4584   -3.0683 C   0  0  0  0  0  0  0  0  0  0  0  0
    4.3372   -3.0832   -1.7352 C   0  0  0  0  0  0  0  0  0  0  0  0
    2.8236   -2.8747   -1.9841 C   0  0  0  0  0  0  0  0  0  0  0  0
    5.0374   -1.8732   -1.0467 C   0  0  2  0  0  0  0  0  0  0  0  0
    6.5488   -2.0777   -0.8341 C   0  0  0  0  0  0  0  0  0  0  0  0
    4.3405   -1.5003    0.2513 C   0  0  0  0  0  0  0  0  0  0  0  0
    4.8969   -1.3225    1.4838 C   0  0  0  0  0  0  0  0  0  0  0  0
    4.2036   -0.8582    2.7543 C   0  0  2  0  0  0  0  0  0  0  0  0
    4.3556   -1.9529    3.8224 C   0  0  0  0  0  0  0  0  0  0  0  0
    2.7465   -0.3250    2.5346 C   0  0  2  0  0  0  0  0  0  0  0  0
    2.6655    0.8196    1.5076 C   0  0  0  0  0  0  0  0  0  0  0  0
    1.7429    1.8752    2.0667 C   0  0  0  0  0  0  0  0  0  0  0  0
    0.8534    1.1559    3.0764 C   0  0  1  0  0  0  0  0  0  0  0  0
   -0.2015    0.5485    2.3389 O   0  0  0  0  0  0  0  0  0  0  0  0
    1.8377    0.1329    3.7293 C   0  0  1  0  0  0  0  0  0  0  0  0
    1.1525   -1.1303    4.3221 C   0  0  0  0  0  0  0  0  0  0  0  0
    2.4573    0.9686    4.9085 C   0  0  1  0  0  0  0  0  0  0  0  0
    3.7061    1.5554    4.5551 O   0  0  0  0  0  0  0  0  0  0  0  0
    1.4041    2.0385    5.2994 C   0  0  2  0  0  0  0  0  0  0  0  0
    2.0932    3.2176    5.6524 O   0  0  0  0  0  0  0  0  0  0  0  0
    0.2911    1.7302    6.3335 C   0  0  1  0  0  0  0  0  0  0  0  0
    0.3853    0.6195    7.2064 O   0  0  0  0  0  0  0  0  0  0  0  0
   -0.3388    2.9256    6.8783 O   0  0  0  0  0  0  0  0  0  0  0  0
   -1.3038    2.9238    5.7848 C   0  0  1  0  0  0  0  0  0  0  0  0
   -1.0631    4.0723    4.8192 C   0  0  0  0  0  0  0  0  0  0  0  0
   -0.2038    3.4879    3.6793 C   0  0  1  0  0  0  0  0  0  0  0  0
    0.7669    4.4214    3.2805 O   0  0  0  0  0  0  0  0  0  0  0  0
    0.3414    2.1166    4.1771 C   0  0  1  0  0  0  0  0  0  0  0  0
   -0.7095    1.6605    5.2030 C   0  0  1  0  0  0  0  0  0  0  0  0
   -1.7492    0.5798    4.9362 C   0  0  0  0  0  0  0  0  0  0  0  0
    5.0006   -2.6176   -3.7634 H   0  0  0  0  0  0  0  0  0  0  0  0
    4.4803   -4.2862   -3.5439 H   0  0  0  0  0  0  0  0  0  0  0  0
    6.0361   -3.7834   -2.9304 H   0  0  0  0  0  0  0  0  0  0  0  0
    4.4330   -3.9391   -1.0663 H   0  0  0  0  0  0  0  0  0  0  0  0
    2.6312   -1.9980   -2.6035 H   0  0  0  0  0  0  0  0  0  0  0  0
    2.2543   -2.7606   -1.0641 H   0  0  0  0  0  0  0  0  0  0  0  0
    2.3831   -3.7369   -2.4843 H   0  0  0  0  0  0  0  0  0  0  0  0
    4.9060   -1.0049   -1.7007 H   0  0  0  0  0  0  0  0  0  0  0  0
    6.9874   -1.2064   -0.3488 H   0  0  0  0  0  0  0  0  0  0  0  0
    7.1008   -2.2529   -1.7607 H   0  0  0  0  0  0  0  0  0  0  0  0
    6.7109   -2.9326   -0.1811 H   0  0  0  0  0  0  0  0  0  0  0  0
    3.2882   -1.3503    0.1218 H   0  0  0  0  0  0  0  0  0  0  0  0
    5.9446   -1.4983    1.6499 H   0  0  0  0  0  0  0  0  0  0  0  0
    4.8280   -0.0245    3.0725 H   0  0  0  0  0  0  0  0  0  0  0  0
    5.3986   -2.2621    3.9255 H   0  0  0  0  0  0  0  0  0  0  0  0
    3.7746   -2.8428    3.5723 H   0  0  0  0  0  0  0  0  0  0  0  0
    4.0500   -1.5913    4.8002 H   0  0  0  0  0  0  0  0  0  0  0  0
    2.2051   -1.1637    2.0908 H   0  0  0  0  0  0  0  0  0  0  0  0
    3.6520    1.2263    1.2789 H   0  0  0  0  0  0  0  0  0  0  0  0
    2.2079    0.4620    0.5890 H   0  0  0  0  0  0  0  0  0  0  0  0
    2.3771    2.6189    2.5354 H   0  0  0  0  0  0  0  0  0  0  0  0
    1.1676    2.3842    1.2989 H   0  0  0  0  0  0  0  0  0  0  0  0
   -0.1619    0.8540    1.4383 H   0  0  0  0  0  0  0  0  0  0  0  0
    0.5337   -0.9012    5.1826 H   0  0  0  0  0  0  0  0  0  0  0  0
    1.8718   -1.8616    4.6908 H   0  0  0  0  0  0  0  0  0  0  0  0
    0.5355   -1.6485    3.5836 H   0  0  0  0  0  0  0  0  0  0  0  0
    2.6985    0.3135    5.7545 H   0  0  0  0  0  0  0  0  0  0  0  0
    3.6106    2.0462    3.7473 H   0  0  0  0  0  0  0  0  0  0  0  0
    2.3977    3.5775    4.8437 H   0  0  0  0  0  0  0  0  0  0  0  0
    1.0122    0.8782    7.8500 H   0  0  0  0  0  0  0  0  0  0  0  0
   -2.3214    2.8120    6.1652 H   0  0  0  0  0  0  0  0  0  0  0  0
   -2.0055    4.4151    4.4076 H   0  0  0  0  0  0  0  0  0  0  0  0
   -0.5807    4.9225    5.3136 H   0  0  0  0  0  0  0  0  0  0  0  0
   -0.8485    3.3337    2.8107 H   0  0  0  0  0  0  0  0  0  0  0  0
    0.6431    4.5555    2.3295 H   0  0  0  0  0  0  0  0  0  0  0  0
   -2.4216    0.9530    4.1643 H   0  0  0  0  0  0  0  0  0  0  0  0
   -2.3752    0.3591    5.8114 H   0  0  0  0  0  0  0  0  0  0  0  0
   -1.3656   -0.3631    4.5480 H   0  0  0  0  0  0  0  0  0  0  0  0
  1  2  1  0
  1 31  1  0
  1 32  1  0
  1 33  1  0
  2  3  1  0
  2  4  1  0
  2 34  1  0
  3 35  1  0
  3 36  1  0
  3 37  1  0
  4  5  1  0
  4  6  1  0
  4 38  1  6
  5 39  1  0
  5 40  1  0
  5 41  1  0
  6  7  2  3
  6 42  1  0
  7  8  1  0
  7 43  1  0
  8  9  1  0
  8 10  1  0
  8 44  1  1
  9 45  1  0
  9 46  1  0
  9 47  1  0
 10 15  1  0
 10 11  1  0
 10 48  1  6
 11 12  1  0
 11 49  1  0
 11 50  1  0
 12 13  1  0
 12 51  1  0
 12 52  1  0
 28 13  1  6
 13 14  1  6
 13 15  1  0
 14 53  1  0
 15 16  1  1
 15 17  1  0
 16 54  1  0
 16 55  1  0
 16 56  1  0
 17 18  1  0
 17 19  1  0
 17 57  1  1
 18 58  1  0
 19 28  1  0
 19 20  1  1
 19 21  1  0
 20 59  1  0
 21 29  1  0
 21 22  1  1
 21 23  1  0
 22 60  1  0
 23 24  1  0
 24 29  1  0
 24 25  1  0
 24 61  1  1
 25 26  1  0
 25 62  1  0
 25 63  1  0
 26 27  1  0
 26 28  1  0
 26 64  1  6
 27 65  1  0
 28 29  1  0
 29 30  1  6
 30 66  1  0
 30 67  1  0
 30 68  1  0
M  END
>  <i_m_ct_stereo_status>  (157) 
1

>  <s_m_source_file>  (157) 
/var/tmp/pbs.5076255.sched01/tmpcdf8lnea/434bzo3qpq.sdf

>  <i_m_source_file_index>  (157) 
24

>  <i_lp_mmshare_version>  (157) 
48012

>  <i_f3d_flags>  (157) 
0

>  <s_epik_input>  (157) 
W0NIM11bQ0hdKFtDSDNdKVtDQEhdKFtDSDNdKS9bQ0hdPVtDSF0vW0NASF0oW0NIM10pW0NASF0oW0NIMl1bQ0gyXTEpW0NAXShbQ0gzXSkoW0NAXTEoW0NAQF0yMzQpW09IXSlbQ0BASF0oW09IXSlbQ0BdMihbT0hdKVtDQF01KFtPSF0pW0NAQF00KFtDSDNdKVtDQEBIXShPNSlbQ0gyXVtDQEhdM1tPSF0=

>  <s_epik_cmdline>  (157) 
J2VwaWtfcHl0aG9uJywgJy1waHQnLCAnMi4wJywgJy1waCcsICc3LjAnLCAnLXRuJywgJzgnLCAnLW1hJywgJzIwMCcsICctaW1hZScsICc8aW5maWxlLm1hZT4nLCAnLW9tYWUnLCAnPG91dGZpbGUubWFlPic=

>  <r_lp_tautomer_probability>  (157) 
1

>  <r_epik_Ionization_Penalty>  (157) 
1.33988e-06

>  <r_epik_Ionization_Penalty_Charging>  (157) 
0

>  <r_epik_Ionization_Penalty_Neutral>  (157) 
1.33988e-06

>  <r_epik_State_Penalty>  (157) 
-0

>  <r_epik_Charging_Adjusted_Penalty>  (157) 
0

>  <i_epik_Tot_Q>  (157) 
0

>  <i_epik_Tot_abs_Q>  (157) 
0

>  <s_lp_Force_Field>  (157) 
OPLS3e

>  <r_lp_Energy>  (157) 
60.3847

>  <b_lp_Chiralities_Consistent>  (157) 
1

>  <s_lp_Variant>  (157) 
52:0-1

>  <s_i_glide_gridfile>  (157) 
pfpi4k_grid

>  <i_i_glide_lignum>  (157) 
24

>  <i_i_glide_rotatable_bonds>  (157) 
9

>  <r_i_docking_score>  (157) 
-2.86311

>  <r_i_glide_ligand_efficiency>  (157) 
-0.0954369

>  <r_i_glide_ligand_efficiency_sa>  (157) 
-0.296545

>  <r_i_glide_ligand_efficiency_ln>  (157) 
-0.650529

>  <r_i_glide_gscore>  (157) 
-2.86311

>  <r_i_glide_lipo>  (157) 
-0.341721

>  <r_i_glide_hbond>  (157) 
0

>  <r_i_glide_metal>  (157) 
-0

>  <r_i_glide_rewards>  (157) 
-0.528035

>  <r_i_glide_evdw>  (157) 
-23.6072

>  <r_i_glide_ecoul>  (157) 
-7.6383

>  <r_i_glide_erotb>  (157) 
0.332868

>  <r_i_glide_esite>  (157) 
-0.000115574

>  <r_i_glide_emodel>  (157) 
-34.7982

>  <r_i_glide_energy>  (157) 
-31.2455

>  <r_i_glide_einternal>  (157) 
4.79741

>  <r_i_glide_intrahb_reward>  (157) 
-0

>  <i_i_glide_confnum>  (157) 
4

>  <i_i_glide_posenum>  (157) 
16

>  <r_i_glide_eff_state_penalty>  (157) 
0

>  <ligand_id>  (157) 
52

>  <original_smiles>  (157) 
CC(C)C(C)C=CC(C)C1CCC2(O)C1(C)C(O)C1(O)C3(O)OC4CC(O)C21C43C

>  <smiles>  (157) 
[H]OC1([H])C2(O[H])C3(O[H])OC4([H])C([H])([H])C([H])(O[H])C2(C2(O[H])C([H])([H])C([H])([H])C([H])(C([H])(C([H])=C([H])C([H])(C([H])([H])[H])C([H])(C([H])([H])[H])C([H])([H])[H])C([H])([H])[H])C12C([H])([H])[H])C43C([H])([H])[H]

$$$$
52:0:1
     RDKit          3D

 68 72  0  0  1  0  0  0  0  0999 V2000
    3.8523   -3.0564   -2.9470 C   0  0  0  0  0  0  0  0  0  0  0  0
    3.6688   -1.9852   -1.8610 C   0  0  0  0  0  0  0  0  0  0  0  0
    4.5718   -0.7844   -2.1823 C   0  0  0  0  0  0  0  0  0  0  0  0
    3.9332   -2.5319   -0.4283 C   0  0  2  0  0  0  0  0  0  0  0  0
    3.1990   -3.8587   -0.1566 C   0  0  0  0  0  0  0  0  0  0  0  0
    3.4434   -1.5337    0.6103 C   0  0  0  0  0  0  0  0  0  0  0  0
    4.1922   -0.7416    1.4066 C   0  0  0  0  0  0  0  0  0  0  0  0
    3.6894    0.2725    2.4500 C   0  0  2  0  0  0  0  0  0  0  0  0
    4.6938    0.3318    3.6219 C   0  0  0  0  0  0  0  0  0  0  0  0
    2.1859    0.0889    2.8826 C   0  0  2  0  0  0  0  0  0  0  0  0
    1.1673    0.3440    1.7516 C   0  0  0  0  0  0  0  0  0  0  0  0
    0.0272    1.1607    2.3098 C   0  0  0  0  0  0  0  0  0  0  0  0
    0.0393    0.9011    3.8219 C   0  0  1  0  0  0  0  0  0  0  0  0
   -0.6381   -0.3293    4.0426 O   0  0  0  0  0  0  0  0  0  0  0  0
    1.5729    0.8149    4.1449 C   0  0  1  0  0  0  0  0  0  0  0  0
    1.9060   -0.0235    5.4103 C   0  0  0  0  0  0  0  0  0  0  0  0
    1.9234    2.3152    4.4468 C   0  0  1  0  0  0  0  0  0  0  0  0
    2.4322    2.9595    3.2839 O   0  0  0  0  0  0  0  0  0  0  0  0
    0.6154    3.0180    4.9227 C   0  0  2  0  0  0  0  0  0  0  0  0
    0.5853    4.3256    4.4095 O   0  0  0  0  0  0  0  0  0  0  0  0
    0.2286    2.9852    6.4272 C   0  0  1  0  0  0  0  0  0  0  0  0
    1.1622    2.6811    7.4235 O   0  0  0  0  0  0  0  0  0  0  0  0
   -0.7703    3.9939    6.7558 O   0  0  0  0  0  0  0  0  0  0  0  0
   -1.8456    3.0696    6.4328 C   0  0  1  0  0  0  0  0  0  0  0  0
   -2.5754    3.4415    5.1521 C   0  0  0  0  0  0  0  0  0  0  0  0
   -1.9082    2.6361    4.0180 C   0  0  1  0  0  0  0  0  0  0  0  0
   -1.8000    3.4991    2.8921 O   0  0  0  0  0  0  0  0  0  0  0  0
   -0.5793    2.0722    4.5991 C   0  0  1  0  0  0  0  0  0  0  0  0
   -0.8614    1.9755    6.1083 C   0  0  1  0  0  0  0  0  0  0  0  0
   -1.1355    0.6624    6.8401 C   0  0  0  0  0  0  0  0  0  0  0  0
    4.8333   -3.5246   -2.8570 H   0  0  0  0  0  0  0  0  0  0  0  0
    3.7603   -2.6377   -3.9527 H   0  0  0  0  0  0  0  0  0  0  0  0
    3.0944   -3.8375   -2.8658 H   0  0  0  0  0  0  0  0  0  0  0  0
    2.6330   -1.6431   -1.9378 H   0  0  0  0  0  0  0  0  0  0  0  0
    5.6191   -1.0572   -2.0684 H   0  0  0  0  0  0  0  0  0  0  0  0
    4.3733    0.0513   -1.5155 H   0  0  0  0  0  0  0  0  0  0  0  0
    4.4222   -0.4269   -3.2030 H   0  0  0  0  0  0  0  0  0  0  0  0
    5.0035   -2.6887   -0.2921 H   0  0  0  0  0  0  0  0  0  0  0  0
    3.2940   -4.1577    0.8877 H   0  0  0  0  0  0  0  0  0  0  0  0
    3.5980   -4.6720   -0.7570 H   0  0  0  0  0  0  0  0  0  0  0  0
    2.1307   -3.7817   -0.3721 H   0  0  0  0  0  0  0  0  0  0  0  0
    2.3538   -1.5139    0.6502 H   0  0  0  0  0  0  0  0  0  0  0  0
    5.2661   -0.8010    1.3187 H   0  0  0  0  0  0  0  0  0  0  0  0
    3.7549    1.2249    1.9333 H   0  0  0  0  0  0  0  0  0  0  0  0
    5.7120    0.5020    3.2657 H   0  0  0  0  0  0  0  0  0  0  0  0
    4.7108   -0.5944    4.1998 H   0  0  0  0  0  0  0  0  0  0  0  0
    4.4784    1.1552    4.3030 H   0  0  0  0  0  0  0  0  0  0  0  0
    2.0964   -0.9729    3.1132 H   0  0  0  0  0  0  0  0  0  0  0  0
    1.6098    0.8344    0.8827 H   0  0  0  0  0  0  0  0  0  0  0  0
    0.7127   -0.5948    1.4413 H   0  0  0  0  0  0  0  0  0  0  0  0
    0.2486    2.2031    2.0815 H   0  0  0  0  0  0  0  0  0  0  0  0
   -0.9177    0.9182    1.8192 H   0  0  0  0  0  0  0  0  0  0  0  0
   -0.2031   -0.9899    3.5268 H   0  0  0  0  0  0  0  0  0  0  0  0
    1.5417    0.4376    6.3225 H   0  0  0  0  0  0  0  0  0  0  0  0
    2.9789   -0.1160    5.5632 H   0  0  0  0  0  0  0  0  0  0  0  0
    1.5042   -1.0381    5.3538 H   0  0  0  0  0  0  0  0  0  0  0  0
    2.7119    2.3917    5.1996 H   0  0  0  0  0  0  0  0  0  0  0  0
    3.2648    2.5747    3.0551 H   0  0  0  0  0  0  0  0  0  0  0  0
    0.6998    4.2172    3.4679 H   0  0  0  0  0  0  0  0  0  0  0  0
    1.6717    3.4783    7.5493 H   0  0  0  0  0  0  0  0  0  0  0  0
   -2.4668    2.8495    7.3042 H   0  0  0  0  0  0  0  0  0  0  0  0
   -3.6300    3.1822    5.2274 H   0  0  0  0  0  0  0  0  0  0  0  0
   -2.4880    4.5112    4.9580 H   0  0  0  0  0  0  0  0  0  0  0  0
   -2.5720    1.8090    3.7361 H   0  0  0  0  0  0  0  0  0  0  0  0
   -1.1507    3.1786    2.2784 H   0  0  0  0  0  0  0  0  0  0  0  0
   -2.0824    0.2829    6.4568 H   0  0  0  0  0  0  0  0  0  0  0  0
   -1.2467    0.8150    7.9193 H   0  0  0  0  0  0  0  0  0  0  0  0
   -0.4074   -0.1270    6.6703 H   0  0  0  0  0  0  0  0  0  0  0  0
  1  2  1  0
  1 31  1  0
  1 32  1  0
  1 33  1  0
  2  3  1  0
  2  4  1  0
  2 34  1  0
  3 35  1  0
  3 36  1  0
  3 37  1  0
  4  5  1  0
  4  6  1  0
  4 38  1  1
  5 39  1  0
  5 40  1  0
  5 41  1  0
  6  7  2  3
  6 42  1  0
  7  8  1  0
  7 43  1  0
  8  9  1  0
  8 10  1  0
  8 44  1  6
  9 45  1  0
  9 46  1  0
  9 47  1  0
 10 15  1  0
 10 11  1  0
 10 48  1  1
 11 12  1  0
 11 49  1  0
 11 50  1  0
 12 13  1  0
 12 51  1  0
 12 52  1  0
 28 13  1  6
 13 14  1  6
 13 15  1  0
 14 53  1  0
 15 16  1  1
 15 17  1  0
 16 54  1  0
 16 55  1  0
 16 56  1  0
 17 18  1  0
 17 19  1  0
 17 57  1  1
 18 58  1  0
 19 28  1  0
 19 20  1  6
 19 21  1  0
 20 59  1  0
 21 29  1  0
 21 22  1  1
 21 23  1  0
 22 60  1  0
 23 24  1  0
 24 29  1  0
 24 25  1  0
 24 61  1  1
 25 26  1  0
 25 62  1  0
 25 63  1  0
 26 27  1  0
 26 28  1  0
 26 64  1  6
 27 65  1  0
 28 29  1  0
 29 30  1  1
 30 66  1  0
 30 67  1  0
 30 68  1  0
M  END
>  <i_m_ct_stereo_status>  (158) 
1

>  <s_m_source_file>  (158) 
/var/tmp/pbs.5076255.sched01/tmpcdf8lnea/434bzo3qpq.sdf

>  <i_m_source_file_index>  (158) 
24

>  <i_lp_mmshare_version>  (158) 
48012

>  <i_f3d_flags>  (158) 
0

>  <s_epik_input>  (158) 
W0NIM11bQ0hdKFtDSDNdKVtDQEhdKFtDSDNdKS9bQ0hdPVtDSF0vW0NASF0oW0NIM10pW0NASF0oW0NIMl1bQ0gyXTEpW0NAXShbQ0gzXSkoW0NAXTEoW0NAQF0yMzQpW09IXSlbQ0BASF0oW09IXSlbQ0BdMihbT0hdKVtDQF01KFtPSF0pW0NAQF00KFtDSDNdKVtDQEBIXShPNSlbQ0gyXVtDQEhdM1tPSF0=

>  <s_epik_cmdline>  (158) 
J2VwaWtfcHl0aG9uJywgJy1waHQnLCAnMi4wJywgJy1waCcsICc3LjAnLCAnLXRuJywgJzgnLCAnLW1hJywgJzIwMCcsICctaW1hZScsICc8aW5maWxlLm1hZT4nLCAnLW9tYWUnLCAnPG91dGZpbGUubWFlPic=

>  <r_lp_tautomer_probability>  (158) 
1

>  <r_epik_Ionization_Penalty>  (158) 
1.33988e-06

>  <r_epik_Ionization_Penalty_Charging>  (158) 
0

>  <r_epik_Ionization_Penalty_Neutral>  (158) 
1.33988e-06

>  <r_epik_State_Penalty>  (158) 
-0

>  <r_epik_Charging_Adjusted_Penalty>  (158) 
0

>  <i_epik_Tot_Q>  (158) 
0

>  <i_epik_Tot_abs_Q>  (158) 
0

>  <s_lp_Force_Field>  (158) 
OPLS3e

>  <r_lp_Energy>  (158) 
60.3847

>  <b_lp_Chiralities_Consistent>  (158) 
1

>  <s_lp_Variant>  (158) 
52:0-1

>  <s_i_glide_gridfile>  (158) 
pfpi4k_grid

>  <i_i_glide_lignum>  (158) 
24

>  <i_i_glide_rotatable_bonds>  (158) 
9

>  <r_i_docking_score>  (158) 
-2.55161

>  <r_i_glide_ligand_efficiency>  (158) 
-0.0850537

>  <r_i_glide_ligand_efficiency_sa>  (158) 
-0.264282

>  <r_i_glide_ligand_efficiency_ln>  (158) 
-0.579754

>  <r_i_glide_gscore>  (158) 
-2.55161

>  <r_i_glide_lipo>  (158) 
-0.195256

>  <r_i_glide_hbond>  (158) 
0

>  <r_i_glide_metal>  (158) 
-0

>  <r_i_glide_rewards>  (158) 
-0.528035

>  <r_i_glide_evdw>  (158) 
-25.0993

>  <r_i_glide_ecoul>  (158) 
-6.0415

>  <r_i_glide_erotb>  (158) 
0.332868

>  <r_i_glide_esite>  (158) 
0

>  <r_i_glide_emodel>  (158) 
-34.4796

>  <r_i_glide_energy>  (158) 
-31.1408

>  <r_i_glide_einternal>  (158) 
3.59247

>  <r_i_glide_intrahb_reward>  (158) 
-0

>  <i_i_glide_confnum>  (158) 
4

>  <i_i_glide_posenum>  (158) 
1

>  <r_i_glide_eff_state_penalty>  (158) 
0

>  <ligand_id>  (158) 
52

>  <original_smiles>  (158) 
CC(C)C(C)C=CC(C)C1CCC2(O)C1(C)C(O)C1(O)C3(O)OC4CC(O)C21C43C

>  <smiles>  (158) 
[H]OC1([H])C2(O[H])C3(O[H])OC4([H])C([H])([H])C([H])(O[H])C2(C2(O[H])C([H])([H])C([H])([H])C([H])(C([H])(C([H])=C([H])C([H])(C([H])([H])[H])C([H])(C([H])([H])[H])C([H])([H])[H])C([H])([H])[H])C12C([H])([H])[H])C43C([H])([H])[H]

$$$$
52:0:2
     RDKit          3D

 68 72  0  0  1  0  0  0  0  0999 V2000
    3.7995   -3.0332   -2.9738 C   0  0  0  0  0  0  0  0  0  0  0  0
    3.6650   -1.9536   -1.8885 C   0  0  0  0  0  0  0  0  0  0  0  0
    4.5849   -0.7720   -2.2319 C   0  0  0  0  0  0  0  0  0  0  0  0
    3.9473   -2.4936   -0.4517 C   0  0  2  0  0  0  0  0  0  0  0  0
    3.2318   -3.8334   -0.1762 C   0  0  0  0  0  0  0  0  0  0  0  0
    3.4587   -1.5027    0.5834 C   0  0  0  0  0  0  0  0  0  0  0  0
    4.2014   -0.7392    1.4048 C   0  0  0  0  0  0  0  0  0  0  0  0
    3.6999    0.2707    2.4605 C   0  0  2  0  0  0  0  0  0  0  0  0
    4.7114    0.3271    3.6293 C   0  0  0  0  0  0  0  0  0  0  0  0
    2.2025    0.0796    2.8952 C   0  0  2  0  0  0  0  0  0  0  0  0
    1.1751    0.3126    1.7676 C   0  0  0  0  0  0  0  0  0  0  0  0
    0.0269    1.1284    2.3234 C   0  0  0  0  0  0  0  0  0  0  0  0
    0.0482    0.8801    3.8342 C   0  0  1  0  0  0  0  0  0  0  0  0
   -0.6149   -0.3583    4.0674 O   0  0  0  0  0  0  0  0  0  0  0  0
    1.5833    0.8162    4.1525 C   0  0  1  0  0  0  0  0  0  0  0  0
    1.9286   -0.0141    5.4225 C   0  0  0  0  0  0  0  0  0  0  0  0
    1.9243    2.3262    4.4245 C   0  0  1  0  0  0  0  0  0  0  0  0
    2.4633    2.9823    3.2816 O   0  0  0  0  0  0  0  0  0  0  0  0
    0.6161    3.0148    4.9247 C   0  0  2  0  0  0  0  0  0  0  0  0
    0.5662    4.3335    4.4101 O   0  0  0  0  0  0  0  0  0  0  0  0
    0.2249    2.9843    6.4167 C   0  0  1  0  0  0  0  0  0  0  0  0
    1.1715    2.6923    7.4227 O   0  0  0  0  0  0  0  0  0  0  0  0
   -0.7646    3.9831    6.7537 O   0  0  0  0  0  0  0  0  0  0  0  0
   -1.8434    3.0600    6.4352 C   0  0  1  0  0  0  0  0  0  0  0  0
   -2.5790    3.4058    5.1554 C   0  0  0  0  0  0  0  0  0  0  0  0
   -1.9102    2.6067    4.0184 C   0  0  1  0  0  0  0  0  0  0  0  0
   -1.7986    3.4728    2.9047 O   0  0  0  0  0  0  0  0  0  0  0  0
   -0.5763    2.0625    4.6081 C   0  0  1  0  0  0  0  0  0  0  0  0
   -0.8496    1.9609    6.1220 C   0  0  1  0  0  0  0  0  0  0  0  0
   -1.1199    0.6573    6.8566 C   0  0  0  0  0  0  0  0  0  0  0  0
    4.7701   -3.5222   -2.9041 H   0  0  0  0  0  0  0  0  0  0  0  0
    3.6924   -2.6145   -3.9766 H   0  0  0  0  0  0  0  0  0  0  0  0
    3.0254   -3.7944   -2.8713 H   0  0  0  0  0  0  0  0  0  0  0  0
    2.6369   -1.5918   -1.9411 H   0  0  0  0  0  0  0  0  0  0  0  0
    5.6278   -1.0670   -2.1410 H   0  0  0  0  0  0  0  0  0  0  0  0
    4.4198    0.0706   -1.5633 H   0  0  0  0  0  0  0  0  0  0  0  0
    4.4190   -0.4149   -3.2493 H   0  0  0  0  0  0  0  0  0  0  0  0
    5.0299   -2.6485   -0.3318 H   0  0  0  0  0  0  0  0  0  0  0  0
    3.3429   -4.1297    0.8667 H   0  0  0  0  0  0  0  0  0  0  0  0
    3.6324   -4.6431   -0.7814 H   0  0  0  0  0  0  0  0  0  0  0  0
    2.1630   -3.7642   -0.3785 H   0  0  0  0  0  0  0  0  0  0  0  0
    2.3783   -1.4653    0.5972 H   0  0  0  0  0  0  0  0  0  0  0  0
    5.2864   -0.8138    1.3434 H   0  0  0  0  0  0  0  0  0  0  0  0
    3.7640    1.2345    1.9601 H   0  0  0  0  0  0  0  0  0  0  0  0
    5.7243    0.5042    3.2714 H   0  0  0  0  0  0  0  0  0  0  0  0
    4.7315   -0.5993    4.2059 H   0  0  0  0  0  0  0  0  0  0  0  0
    4.4895    1.1516    4.3066 H   0  0  0  0  0  0  0  0  0  0  0  0
    2.1243   -0.9839    3.1357 H   0  0  0  0  0  0  0  0  0  0  0  0
    1.6104    0.7935    0.8936 H   0  0  0  0  0  0  0  0  0  0  0  0
    0.7322   -0.6353    1.4785 H   0  0  0  0  0  0  0  0  0  0  0  0
    0.2329    2.1681    2.0742 H   0  0  0  0  0  0  0  0  0  0  0  0
   -0.9138    0.8669    1.8348 H   0  0  0  0  0  0  0  0  0  0  0  0
   -0.1824   -1.0132    3.5513 H   0  0  0  0  0  0  0  0  0  0  0  0
    1.5574    0.4382    6.3360 H   0  0  0  0  0  0  0  0  0  0  0  0
    3.0009   -0.0955    5.5759 H   0  0  0  0  0  0  0  0  0  0  0  0
    1.5390   -1.0342    5.3743 H   0  0  0  0  0  0  0  0  0  0  0  0
    2.7070    2.4068    5.1779 H   0  0  0  0  0  0  0  0  0  0  0  0
    1.8330    2.9765    2.5713 H   0  0  0  0  0  0  0  0  0  0  0  0
    0.6138    4.2546    3.4744 H   0  0  0  0  0  0  0  0  0  0  0  0
    1.6577    1.9581    7.1077 H   0  0  0  0  0  0  0  0  0  0  0  0
   -2.4588    2.8449    7.3089 H   0  0  0  0  0  0  0  0  0  0  0  0
   -3.6368    3.1384    5.2290 H   0  0  0  0  0  0  0  0  0  0  0  0
   -2.5110    4.4758    4.9495 H   0  0  0  0  0  0  0  0  0  0  0  0
   -2.5624    1.7731    3.7412 H   0  0  0  0  0  0  0  0  0  0  0  0
   -1.1425    3.1652    2.2949 H   0  0  0  0  0  0  0  0  0  0  0  0
   -2.0624    0.2684    6.4725 H   0  0  0  0  0  0  0  0  0  0  0  0
   -1.2293    0.8159    7.9359 H   0  0  0  0  0  0  0  0  0  0  0  0
   -0.3860   -0.1320    6.6934 H   0  0  0  0  0  0  0  0  0  0  0  0
  1  2  1  0
  1 31  1  0
  1 32  1  0
  1 33  1  0
  2  3  1  0
  2  4  1  0
  2 34  1  0
  3 35  1  0
  3 36  1  0
  3 37  1  0
  4  5  1  0
  4  6  1  0
  4 38  1  6
  5 39  1  0
  5 40  1  0
  5 41  1  0
  6  7  2  3
  6 42  1  0
  7  8  1  0
  7 43  1  0
  8  9  1  0
  8 10  1  0
  8 44  1  6
  9 45  1  0
  9 46  1  0
  9 47  1  0
 10 15  1  0
 10 11  1  0
 10 48  1  1
 11 12  1  0
 11 49  1  0
 11 50  1  0
 12 13  1  0
 12 51  1  0
 12 52  1  0
 28 13  1  6
 13 14  1  6
 13 15  1  0
 14 53  1  0
 15 16  1  1
 15 17  1  0
 16 54  1  0
 16 55  1  0
 16 56  1  0
 17 18  1  0
 17 19  1  0
 17 57  1  1
 18 58  1  0
 19 28  1  0
 19 20  1  6
 19 21  1  0
 20 59  1  0
 21 29  1  0
 21 22  1  1
 21 23  1  0
 22 60  1  0
 23 24  1  0
 24 29  1  0
 24 25  1  0
 24 61  1  1
 25 26  1  0
 25 62  1  0
 25 63  1  0
 26 27  1  0
 26 28  1  0
 26 64  1  6
 27 65  1  0
 28 29  1  0
 29 30  1  1
 30 66  1  0
 30 67  1  0
 30 68  1  0
M  END
>  <i_m_ct_stereo_status>  (159) 
1

>  <s_m_source_file>  (159) 
/var/tmp/pbs.5076255.sched01/tmpcdf8lnea/434bzo3qpq.sdf

>  <i_m_source_file_index>  (159) 
24

>  <i_lp_mmshare_version>  (159) 
48012

>  <i_f3d_flags>  (159) 
0

>  <s_epik_input>  (159) 
W0NIM11bQ0hdKFtDSDNdKVtDQEhdKFtDSDNdKS9bQ0hdPVtDSF0vW0NASF0oW0NIM10pW0NASF0oW0NIMl1bQ0gyXTEpW0NAXShbQ0gzXSkoW0NAXTEoW0NAQF0yMzQpW09IXSlbQ0BASF0oW09IXSlbQ0BdMihbT0hdKVtDQF01KFtPSF0pW0NAQF00KFtDSDNdKVtDQEBIXShPNSlbQ0gyXVtDQEhdM1tPSF0=

>  <s_epik_cmdline>  (159) 
J2VwaWtfcHl0aG9uJywgJy1waHQnLCAnMi4wJywgJy1waCcsICc3LjAnLCAnLXRuJywgJzgnLCAnLW1hJywgJzIwMCcsICctaW1hZScsICc8aW5maWxlLm1hZT4nLCAnLW9tYWUnLCAnPG91dGZpbGUubWFlPic=

>  <r_lp_tautomer_probability>  (159) 
1

>  <r_epik_Ionization_Penalty>  (159) 
1.33988e-06

>  <r_epik_Ionization_Penalty_Charging>  (159) 
0

>  <r_epik_Ionization_Penalty_Neutral>  (159) 
1.33988e-06

>  <r_epik_State_Penalty>  (159) 
-0

>  <r_epik_Charging_Adjusted_Penalty>  (159) 
0

>  <i_epik_Tot_Q>  (159) 
0

>  <i_epik_Tot_abs_Q>  (159) 
0

>  <s_lp_Force_Field>  (159) 
OPLS3e

>  <r_lp_Energy>  (159) 
60.3847

>  <b_lp_Chiralities_Consistent>  (159) 
1

>  <s_lp_Variant>  (159) 
52:0-1

>  <s_i_glide_gridfile>  (159) 
pfpi4k_grid

>  <i_i_glide_lignum>  (159) 
24

>  <i_i_glide_rotatable_bonds>  (159) 
9

>  <r_i_docking_score>  (159) 
-2.45584

>  <r_i_glide_ligand_efficiency>  (159) 
-0.0818614

>  <r_i_glide_ligand_efficiency_sa>  (159) 
-0.254362

>  <r_i_glide_ligand_efficiency_ln>  (159) 
-0.557994

>  <r_i_glide_gscore>  (159) 
-2.45584

>  <r_i_glide_lipo>  (159) 
-0.20579

>  <r_i_glide_hbond>  (159) 
0

>  <r_i_glide_metal>  (159) 
-0

>  <r_i_glide_rewards>  (159) 
-0.528035

>  <r_i_glide_evdw>  (159) 
-25.2227

>  <r_i_glide_ecoul>  (159) 
-5.29167

>  <r_i_glide_erotb>  (159) 
0.332868

>  <r_i_glide_esite>  (159) 
0

>  <r_i_glide_emodel>  (159) 
-33.2727

>  <r_i_glide_energy>  (159) 
-30.5144

>  <r_i_glide_einternal>  (159) 
4.02954

>  <r_i_glide_intrahb_reward>  (159) 
-0

>  <i_i_glide_confnum>  (159) 
4

>  <i_i_glide_posenum>  (159) 
26

>  <r_i_glide_eff_state_penalty>  (159) 
0

>  <ligand_id>  (159) 
52

>  <original_smiles>  (159) 
CC(C)C(C)C=CC(C)C1CCC2(O)C1(C)C(O)C1(O)C3(O)OC4CC(O)C21C43C

>  <smiles>  (159) 
[H]OC1([H])C2(O[H])C3(O[H])OC4([H])C([H])([H])C([H])(O[H])C2(C2(O[H])C([H])([H])C([H])([H])C([H])(C([H])(C([H])=C([H])C([H])(C([H])([H])[H])C([H])(C([H])([H])[H])C([H])([H])[H])C([H])([H])[H])C12C([H])([H])[H])C43C([H])([H])[H]

$$$$
52:1:0
     RDKit          3D

 68 72  0  0  1  0  0  0  0  0999 V2000
    4.5441   -2.6071   -2.4471 C   0  0  0  0  0  0  0  0  0  0  0  0
    5.3991   -2.0729   -1.2837 C   0  0  0  0  0  0  0  0  0  0  0  0
    6.8369   -2.5803   -1.3349 C   0  0  0  0  0  0  0  0  0  0  0  0
    4.7759   -2.3992    0.0804 C   0  0  2  0  0  0  0  0  0  0  0  0
    4.5832   -3.8508    0.4868 C   0  0  0  0  0  0  0  0  0  0  0  0
    3.4620   -1.6742    0.2575 C   0  0  0  0  0  0  0  0  0  0  0  0
    3.1378   -0.6198    1.0057 C   0  0  0  0  0  0  0  0  0  0  0  0
    3.9334    0.3037    1.9524 C   0  0  2  0  0  0  0  0  0  0  0  0
    5.3974   -0.1797    2.1287 C   0  0  0  0  0  0  0  0  0  0  0  0
    3.2664    0.5500    3.3565 C   0  0  2  0  0  0  0  0  0  0  0  0
    2.6164   -0.7083    3.9682 C   0  0  0  0  0  0  0  0  0  0  0  0
    1.2733   -0.2545    4.5201 C   0  0  0  0  0  0  0  0  0  0  0  0
    1.3884    1.2599    4.8083 C   0  0  1  0  0  0  0  0  0  0  0  0
    2.0258    1.3845    6.0678 O   0  0  0  0  0  0  0  0  0  0  0  0
    2.2807    1.7597    3.6124 C   0  0  1  0  0  0  0  0  0  0  0  0
    3.1311    3.0267    3.9538 C   0  0  0  0  0  0  0  0  0  0  0  0
    1.2062    2.1587    2.5205 C   0  0  1  0  0  0  0  0  0  0  0  0
    0.8564    1.1240    1.6890 O   0  0  0  0  0  0  0  0  0  0  0  0
   -0.1143    2.5177    3.2879 C   0  0  2  0  0  0  0  0  0  0  0  0
   -1.2734    2.0524    2.6024 O   0  0  0  0  0  0  0  0  0  0  0  0
   -0.3378    3.9537    3.8217 C   0  0  1  0  0  0  0  0  0  0  0  0
    0.4244    5.0003    3.2769 O   0  0  0  0  0  0  0  0  0  0  0  0
   -1.7376    4.2285    4.1073 O   0  0  0  0  0  0  0  0  0  0  0  0
   -1.5494    3.7353    5.4654 C   0  0  1  0  0  0  0  0  0  0  0  0
   -2.2173    2.4013    5.7005 C   0  0  0  0  0  0  0  0  0  0  0  0
   -1.1531    1.3112    5.4704 C   0  0  1  0  0  0  0  0  0  0  0  0
   -1.7493    0.1989    4.8168 O   0  0  0  0  0  0  0  0  0  0  0  0
    0.0364    2.0192    4.7632 C   0  0  1  0  0  0  0  0  0  0  0  0
   -0.0809    3.4883    5.2495 C   0  0  1  0  0  0  0  0  0  0  0  0
    0.8401    4.1222    6.3176 C   0  0  0  0  0  0  0  0  0  0  0  0
    4.3732   -3.6732   -2.3094 H   0  0  0  0  0  0  0  0  0  0  0  0
    5.0679   -2.4581   -3.3921 H   0  0  0  0  0  0  0  0  0  0  0  0
    3.5759   -2.1026   -2.4874 H   0  0  0  0  0  0  0  0  0  0  0  0
    5.4338   -0.9802   -1.3806 H   0  0  0  0  0  0  0  0  0  0  0  0
    6.8669   -3.6502   -1.1391 H   0  0  0  0  0  0  0  0  0  0  0  0
    7.4679   -2.0962   -0.5837 H   0  0  0  0  0  0  0  0  0  0  0  0
    7.2724   -2.4167   -2.3119 H   0  0  0  0  0  0  0  0  0  0  0  0
    5.5126   -2.1728    0.7844 H   0  0  0  0  0  0  0  0  0  0  0  0
    4.1204   -3.8813    1.4872 H   0  0  0  0  0  0  0  0  0  0  0  0
    5.5727   -4.2885    0.5816 H   0  0  0  0  0  0  0  0  0  0  0  0
    3.9537   -4.4091   -0.2287 H   0  0  0  0  0  0  0  0  0  0  0  0
    2.6227   -2.0584   -0.3131 H   0  0  0  0  0  0  0  0  0  0  0  0
    2.1125   -0.4526    0.8785 H   0  0  0  0  0  0  0  0  0  0  0  0
    3.9759    1.2650    1.4354 H   0  0  0  0  0  0  0  0  0  0  0  0
    5.8247   -0.2041    1.1155 H   0  0  0  0  0  0  0  0  0  0  0  0
    5.3629   -1.1829    2.5745 H   0  0  0  0  0  0  0  0  0  0  0  0
    6.0782    0.4008    2.7298 H   0  0  0  0  0  0  0  0  0  0  0  0
    4.1092    0.7374    4.0268 H   0  0  0  0  0  0  0  0  0  0  0  0
    2.4716   -1.5268    3.2642 H   0  0  0  0  0  0  0  0  0  0  0  0
    3.2338   -1.1102    4.7732 H   0  0  0  0  0  0  0  0  0  0  0  0
    0.5317   -0.4214    3.7396 H   0  0  0  0  0  0  0  0  0  0  0  0
    0.9594   -0.8266    5.3930 H   0  0  0  0  0  0  0  0  0  0  0  0
    2.1788    2.3052    6.2087 H   0  0  0  0  0  0  0  0  0  0  0  0
    2.5269    3.9033    4.1119 H   0  0  0  0  0  0  0  0  0  0  0  0
    3.7849    3.3054    3.1373 H   0  0  0  0  0  0  0  0  0  0  0  0
    3.7709    2.8939    4.8259 H   0  0  0  0  0  0  0  0  0  0  0  0
    1.5644    2.9909    1.9171 H   0  0  0  0  0  0  0  0  0  0  0  0
    0.3379    1.4446    0.9816 H   0  0  0  0  0  0  0  0  0  0  0  0
   -1.1681    2.3658    1.7187 H   0  0  0  0  0  0  0  0  0  0  0  0
    0.3390    4.9274    2.3198 H   0  0  0  0  0  0  0  0  0  0  0  0
   -1.7949    4.5202    6.1641 H   0  0  0  0  0  0  0  0  0  0  0  0
   -2.6263    2.3271    6.7026 H   0  0  0  0  0  0  0  0  0  0  0  0
   -3.0084    2.3461    4.9781 H   0  0  0  0  0  0  0  0  0  0  0  0
   -0.8091    0.9703    6.4493 H   0  0  0  0  0  0  0  0  0  0  0  0
   -2.0765    0.5012    3.9763 H   0  0  0  0  0  0  0  0  0  0  0  0
    0.6716    3.6623    7.2822 H   0  0  0  0  0  0  0  0  0  0  0  0
    0.6316    5.1711    6.4524 H   0  0  0  0  0  0  0  0  0  0  0  0
    1.8948    4.0264    6.1297 H   0  0  0  0  0  0  0  0  0  0  0  0
  1  2  1  0
  1 31  1  0
  1 32  1  0
  1 33  1  0
  2  3  1  0
  2  4  1  0
  2 34  1  0
  3 35  1  0
  3 36  1  0
  3 37  1  0
  4  5  1  0
  4  6  1  0
  4 38  1  1
  5 39  1  0
  5 40  1  0
  5 41  1  0
  6  7  2  3
  6 42  1  0
  7  8  1  0
  7 43  1  0
  8  9  1  0
  8 10  1  0
  8 44  1  6
  9 45  1  0
  9 46  1  0
  9 47  1  0
 10 15  1  0
 10 11  1  0
 10 48  1  1
 11 12  1  0
 11 49  1  0
 11 50  1  0
 12 13  1  0
 12 51  1  0
 12 52  1  0
 28 13  1  6
 13 14  1  1
 13 15  1  0
 14 53  1  0
 15 16  1  1
 15 17  1  0
 16 54  1  0
 16 55  1  0
 16 56  1  0
 17 18  1  0
 17 19  1  0
 17 57  1  6
 18 58  1  0
 19 28  1  0
 19 20  1  6
 19 21  1  0
 20 59  1  0
 21 29  1  0
 21 22  1  6
 21 23  1  0
 22 60  1  0
 23 24  1  0
 24 29  1  0
 24 25  1  0
 24 61  1  1
 25 26  1  0
 25 62  1  0
 25 63  1  0
 26 27  1  0
 26 28  1  0
 26 64  1  1
 27 65  1  0
 28 29  1  0
 29 30  1  1
 30 66  1  0
 30 67  1  0
 30 68  1  0
M  END
>  <i_m_ct_stereo_status>  (160) 
1

>  <s_m_source_file>  (160) 
/var/tmp/pbs.5076255.sched01/tmpcdf8lnea/434bzo3qpq.sdf

>  <i_m_source_file_index>  (160) 
25

>  <i_lp_mmshare_version>  (160) 
48012

>  <i_f3d_flags>  (160) 
0

>  <s_epik_input>  (160) 
W0NIM11bQ0hdKFtDSDNdKVtDQEhdKFtDSDNdKS9bQ0hdPVtDSF0vW0NASF0oW0NIM10pW0NASF0oW0NIMl1bQ0gyXTEpW0NAXShbQ0gzXSkoW0NAXTEoW0NAQF0yMzQpW09IXSlbQ0BASF0oW09IXSlbQ0BdMihbT0hdKVtDQF01KFtPSF0pW0NAQF00KFtDSDNdKVtDQEBIXShPNSlbQ0gyXVtDQEhdM1tPSF0=

>  <s_epik_cmdline>  (160) 
J2VwaWtfcHl0aG9uJywgJy1waHQnLCAnMi4wJywgJy1waCcsICc3LjAnLCAnLXRuJywgJzgnLCAnLW1hJywgJzIwMCcsICctaW1hZScsICc8aW5maWxlLm1hZT4nLCAnLW9tYWUnLCAnPG91dGZpbGUubWFlPic=

>  <r_lp_tautomer_probability>  (160) 
1

>  <r_epik_Ionization_Penalty>  (160) 
1.33988e-06

>  <r_epik_Ionization_Penalty_Charging>  (160) 
0

>  <r_epik_Ionization_Penalty_Neutral>  (160) 
1.33988e-06

>  <r_epik_State_Penalty>  (160) 
-0

>  <r_epik_Charging_Adjusted_Penalty>  (160) 
0

>  <i_epik_Tot_Q>  (160) 
0

>  <i_epik_Tot_abs_Q>  (160) 
0

>  <s_lp_Force_Field>  (160) 
OPLS3e

>  <r_lp_Energy>  (160) 
60.561

>  <b_lp_Chiralities_Consistent>  (160) 
1

>  <s_lp_Variant>  (160) 
52:0-2

>  <s_i_glide_gridfile>  (160) 
pfpi4k_grid

>  <i_i_glide_lignum>  (160) 
25

>  <i_i_glide_rotatable_bonds>  (160) 
9

>  <r_i_docking_score>  (160) 
-3.67978

>  <r_i_glide_ligand_efficiency>  (160) 
-0.122659

>  <r_i_glide_ligand_efficiency_sa>  (160) 
-0.381131

>  <r_i_glide_ligand_efficiency_ln>  (160) 
-0.836086

>  <r_i_glide_gscore>  (160) 
-3.67978

>  <r_i_glide_lipo>  (160) 
-0.240064

>  <r_i_glide_hbond>  (160) 
-0.0703888

>  <r_i_glide_metal>  (160) 
-0

>  <r_i_glide_rewards>  (160) 
-1.02803

>  <r_i_glide_evdw>  (160) 
-20.7123

>  <r_i_glide_ecoul>  (160) 
-10.3162

>  <r_i_glide_erotb>  (160) 
0.332868

>  <r_i_glide_esite>  (160) 
-0.0911167

>  <r_i_glide_emodel>  (160) 
-34.0073

>  <r_i_glide_energy>  (160) 
-31.0285

>  <r_i_glide_einternal>  (160) 
14.8255

>  <r_i_glide_intrahb_reward>  (160) 
-0.5

>  <i_i_glide_confnum>  (160) 
3

>  <i_i_glide_posenum>  (160) 
13

>  <r_i_glide_eff_state_penalty>  (160) 
0

>  <ligand_id>  (160) 
52

>  <original_smiles>  (160) 
CC(C)C(C)C=CC(C)C1CCC2(O)C1(C)C(O)C1(O)C3(O)OC4CC(O)C21C43C

>  <smiles>  (160) 
[H]OC1([H])C2(O[H])C3(O[H])OC4([H])C([H])([H])C([H])(O[H])C2(C2(O[H])C([H])([H])C([H])([H])C([H])(C([H])(C([H])=C([H])C([H])(C([H])([H])[H])C([H])(C([H])([H])[H])C([H])([H])[H])C([H])([H])[H])C12C([H])([H])[H])C43C([H])([H])[H]

$$$$
52:1:1
     RDKit          3D

 68 72  0  0  1  0  0  0  0  0999 V2000
    5.0904   -1.0367   -1.4785 C   0  0  0  0  0  0  0  0  0  0  0  0
    4.9964   -2.5257   -1.0587 C   0  0  0  0  0  0  0  0  0  0  0  0
    4.1404   -3.3027   -2.0453 C   0  0  0  0  0  0  0  0  0  0  0  0
    4.4927   -2.7714    0.3653 C   0  0  2  0  0  0  0  0  0  0  0  0
    4.3984   -4.1815    0.8939 C   0  0  0  0  0  0  0  0  0  0  0  0
    3.2259   -2.0327    0.6631 C   0  0  0  0  0  0  0  0  0  0  0  0
    3.0300   -0.9514    1.4207 C   0  0  0  0  0  0  0  0  0  0  0  0
    3.9138   -0.0071    2.2449 C   0  0  2  0  0  0  0  0  0  0  0  0
    5.3246   -0.5996    2.3692 C   0  0  0  0  0  0  0  0  0  0  0  0
    3.3256    0.3673    3.6510 C   0  0  2  0  0  0  0  0  0  0  0  0
    2.7321   -0.8253    4.4236 C   0  0  0  0  0  0  0  0  0  0  0  0
    1.4167   -0.3313    5.0097 C   0  0  0  0  0  0  0  0  0  0  0  0
    1.5195    1.2012    5.1277 C   0  0  1  0  0  0  0  0  0  0  0  0
    2.2292    1.4810    6.3198 O   0  0  0  0  0  0  0  0  0  0  0  0
    2.3197    1.5806    3.8332 C   0  0  1  0  0  0  0  0  0  0  0  0
    3.1582    2.8895    3.9775 C   0  0  0  0  0  0  0  0  0  0  0  0
    1.1549    1.8744    2.7908 C   0  0  1  0  0  0  0  0  0  0  0  0
    0.7221    0.7285    2.0788 O   0  0  0  0  0  0  0  0  0  0  0  0
   -0.1176    2.2643    3.6035 C   0  0  2  0  0  0  0  0  0  0  0  0
   -1.3036    1.7090    3.0265 O   0  0  0  0  0  0  0  0  0  0  0  0
   -0.3225    3.7368    3.9747 C   0  0  1  0  0  0  0  0  0  0  0  0
    0.3901    4.7247    3.3167 O   0  0  0  0  0  0  0  0  0  0  0  0
   -1.7153    3.9971    4.3203 O   0  0  0  0  0  0  0  0  0  0  0  0
   -1.4460    3.6776    5.7049 C   0  0  1  0  0  0  0  0  0  0  0  0
   -2.0872    2.3648    6.1283 C   0  0  0  0  0  0  0  0  0  0  0  0
   -0.9819    1.2856    5.9452 C   0  0  1  0  0  0  0  0  0  0  0  0
   -1.5768    0.0935    5.4555 O   0  0  0  0  0  0  0  0  0  0  0  0
    0.1495    1.9192    5.0967 C   0  0  1  0  0  0  0  0  0  0  0  0
    0.0252    3.4289    5.4300 C   0  0  1  0  0  0  0  0  0  0  0  0
    0.9966    4.1962    6.3690 C   0  0  0  0  0  0  0  0  0  0  0  0
    4.1337   -0.5197   -1.3930 H   0  0  0  0  0  0  0  0  0  0  0  0
    5.3932   -0.9597   -2.5210 H   0  0  0  0  0  0  0  0  0  0  0  0
    5.8114   -0.4668   -0.8954 H   0  0  0  0  0  0  0  0  0  0  0  0
    6.0082   -2.9118   -1.0729 H   0  0  0  0  0  0  0  0  0  0  0  0
    3.1013   -2.9815   -1.9975 H   0  0  0  0  0  0  0  0  0  0  0  0
    4.1910   -4.3600   -1.8131 H   0  0  0  0  0  0  0  0  0  0  0  0
    4.5097   -3.1710   -3.0541 H   0  0  0  0  0  0  0  0  0  0  0  0
    5.3179   -2.5238    1.0066 H   0  0  0  0  0  0  0  0  0  0  0  0
    4.0463   -4.1781    1.9341 H   0  0  0  0  0  0  0  0  0  0  0  0
    5.3948   -4.6132    0.8861 H   0  0  0  0  0  0  0  0  0  0  0  0
    3.7115   -4.7558    0.2848 H   0  0  0  0  0  0  0  0  0  0  0  0
    2.3194   -2.4160    0.1980 H   0  0  0  0  0  0  0  0  0  0  0  0
    1.9775   -0.8108    1.3905 H   0  0  0  0  0  0  0  0  0  0  0  0
    4.0265    0.9157    1.6700 H   0  0  0  0  0  0  0  0  0  0  0  0
    5.7125   -0.6461    1.3573 H   0  0  0  0  0  0  0  0  0  0  0  0
    5.2623   -1.5854    2.8445 H   0  0  0  0  0  0  0  0  0  0  0  0
    6.0867   -0.0155    2.8617 H   0  0  0  0  0  0  0  0  0  0  0  0
    4.2100    0.6395    4.2389 H   0  0  0  0  0  0  0  0  0  0  0  0
    2.5701   -1.7069    3.8069 H   0  0  0  0  0  0  0  0  0  0  0  0
    3.4041   -1.1323    5.2260 H   0  0  0  0  0  0  0  0  0  0  0  0
    0.6248   -0.6010    4.3103 H   0  0  0  0  0  0  0  0  0  0  0  0
    1.1781   -0.8097    5.9573 H   0  0  0  0  0  0  0  0  0  0  0  0
    2.3865    2.4116    6.3437 H   0  0  0  0  0  0  0  0  0  0  0  0
    2.5467    3.7726    4.0787 H   0  0  0  0  0  0  0  0  0  0  0  0
    3.7518    3.0961    3.0979 H   0  0  0  0  0  0  0  0  0  0  0  0
    3.8555    2.8719    4.8144 H   0  0  0  0  0  0  0  0  0  0  0  0
    1.4689    2.6129    2.0533 H   0  0  0  0  0  0  0  0  0  0  0  0
    0.4121    0.9879    1.2135 H   0  0  0  0  0  0  0  0  0  0  0  0
   -1.2805    1.8882    2.0962 H   0  0  0  0  0  0  0  0  0  0  0  0
    0.2195    4.5764    2.3626 H   0  0  0  0  0  0  0  0  0  0  0  0
   -1.7159    4.5300    6.3194 H   0  0  0  0  0  0  0  0  0  0  0  0
   -2.3880    2.4041    7.1784 H   0  0  0  0  0  0  0  0  0  0  0  0
   -2.9501    2.1826    5.5489 H   0  0  0  0  0  0  0  0  0  0  0  0
   -0.5654    1.0737    6.9275 H   0  0  0  0  0  0  0  0  0  0  0  0
   -1.8741    0.2676    4.5700 H   0  0  0  0  0  0  0  0  0  0  0  0
    0.9205    3.8550    7.4065 H   0  0  0  0  0  0  0  0  0  0  0  0
    0.7862    5.2610    6.4058 H   0  0  0  0  0  0  0  0  0  0  0  0
    2.0467    4.1053    6.1239 H   0  0  0  0  0  0  0  0  0  0  0  0
  1  2  1  0
  1 31  1  0
  1 32  1  0
  1 33  1  0
  2  3  1  0
  2  4  1  0
  2 34  1  0
  3 35  1  0
  3 36  1  0
  3 37  1  0
  4  5  1  0
  4  6  1  0
  4 38  1  1
  5 39  1  0
  5 40  1  0
  5 41  1  0
  6  7  2  3
  6 42  1  0
  7  8  1  0
  7 43  1  0
  8  9  1  0
  8 10  1  0
  8 44  1  6
  9 45  1  0
  9 46  1  0
  9 47  1  0
 10 15  1  0
 10 11  1  0
 10 48  1  1
 11 12  1  0
 11 49  1  0
 11 50  1  0
 12 13  1  0
 12 51  1  0
 12 52  1  0
 28 13  1  6
 13 14  1  1
 13 15  1  0
 14 53  1  0
 15 16  1  1
 15 17  1  0
 16 54  1  0
 16 55  1  0
 16 56  1  0
 17 18  1  0
 17 19  1  0
 17 57  1  6
 18 58  1  0
 19 28  1  0
 19 20  1  6
 19 21  1  0
 20 59  1  0
 21 29  1  0
 21 22  1  6
 21 23  1  0
 22 60  1  0
 23 24  1  0
 24 29  1  0
 24 25  1  0
 24 61  1  1
 25 26  1  0
 25 62  1  0
 25 63  1  0
 26 27  1  0
 26 28  1  0
 26 64  1  1
 27 65  1  0
 28 29  1  0
 29 30  1  1
 30 66  1  0
 30 67  1  0
 30 68  1  0
M  END
>  <i_m_ct_stereo_status>  (161) 
1

>  <s_m_source_file>  (161) 
/var/tmp/pbs.5076255.sched01/tmpcdf8lnea/434bzo3qpq.sdf

>  <i_m_source_file_index>  (161) 
25

>  <i_lp_mmshare_version>  (161) 
48012

>  <i_f3d_flags>  (161) 
0

>  <s_epik_input>  (161) 
W0NIM11bQ0hdKFtDSDNdKVtDQEhdKFtDSDNdKS9bQ0hdPVtDSF0vW0NASF0oW0NIM10pW0NASF0oW0NIMl1bQ0gyXTEpW0NAXShbQ0gzXSkoW0NAXTEoW0NAQF0yMzQpW09IXSlbQ0BASF0oW09IXSlbQ0BdMihbT0hdKVtDQF01KFtPSF0pW0NAQF00KFtDSDNdKVtDQEBIXShPNSlbQ0gyXVtDQEhdM1tPSF0=

>  <s_epik_cmdline>  (161) 
J2VwaWtfcHl0aG9uJywgJy1waHQnLCAnMi4wJywgJy1waCcsICc3LjAnLCAnLXRuJywgJzgnLCAnLW1hJywgJzIwMCcsICctaW1hZScsICc8aW5maWxlLm1hZT4nLCAnLW9tYWUnLCAnPG91dGZpbGUubWFlPic=

>  <r_lp_tautomer_probability>  (161) 
1

>  <r_epik_Ionization_Penalty>  (161) 
1.33988e-06

>  <r_epik_Ionization_Penalty_Charging>  (161) 
0

>  <r_epik_Ionization_Penalty_Neutral>  (161) 
1.33988e-06

>  <r_epik_State_Penalty>  (161) 
-0

>  <r_epik_Charging_Adjusted_Penalty>  (161) 
0

>  <i_epik_Tot_Q>  (161) 
0

>  <i_epik_Tot_abs_Q>  (161) 
0

>  <s_lp_Force_Field>  (161) 
OPLS3e

>  <r_lp_Energy>  (161) 
60.561

>  <b_lp_Chiralities_Consistent>  (161) 
1

>  <s_lp_Variant>  (161) 
52:0-2

>  <s_i_glide_gridfile>  (161) 
pfpi4k_grid

>  <i_i_glide_lignum>  (161) 
25

>  <i_i_glide_rotatable_bonds>  (161) 
9

>  <r_i_docking_score>  (161) 
-3.27299

>  <r_i_glide_ligand_efficiency>  (161) 
-0.1091

>  <r_i_glide_ligand_efficiency_sa>  (161) 
-0.338998

>  <r_i_glide_ligand_efficiency_ln>  (161) 
-0.743658

>  <r_i_glide_gscore>  (161) 
-3.27299

>  <r_i_glide_lipo>  (161) 
-0.207052

>  <r_i_glide_hbond>  (161) 
0

>  <r_i_glide_metal>  (161) 
-0

>  <r_i_glide_rewards>  (161) 
-1.02803

>  <r_i_glide_evdw>  (161) 
-20.1361

>  <r_i_glide_ecoul>  (161) 
-10.0218

>  <r_i_glide_erotb>  (161) 
0.332868

>  <r_i_glide_esite>  (161) 
-0.0725066

>  <r_i_glide_emodel>  (161) 
-32.3323

>  <r_i_glide_energy>  (161) 
-30.1579

>  <r_i_glide_einternal>  (161) 
13.509

>  <r_i_glide_intrahb_reward>  (161) 
-0.5

>  <i_i_glide_confnum>  (161) 
3

>  <i_i_glide_posenum>  (161) 
18

>  <r_i_glide_eff_state_penalty>  (161) 
0

>  <ligand_id>  (161) 
52

>  <original_smiles>  (161) 
CC(C)C(C)C=CC(C)C1CCC2(O)C1(C)C(O)C1(O)C3(O)OC4CC(O)C21C43C

>  <smiles>  (161) 
[H]OC1([H])C2(O[H])C3(O[H])OC4([H])C([H])([H])C([H])(O[H])C2(C2(O[H])C([H])([H])C([H])([H])C([H])(C([H])(C([H])=C([H])C([H])(C([H])([H])[H])C([H])(C([H])([H])[H])C([H])([H])[H])C([H])([H])[H])C12C([H])([H])[H])C43C([H])([H])[H]

$$$$
52:1:2
     RDKit          3D

 68 72  0  0  1  0  0  0  0  0999 V2000
    2.6240   -2.5139   -2.8641 C   0  0  0  0  0  0  0  0  0  0  0  0
    3.5217   -1.6767   -1.9270 C   0  0  0  0  0  0  0  0  0  0  0  0
    4.7278   -1.1200   -2.6875 C   0  0  0  0  0  0  0  0  0  0  0  0
    3.9504   -2.4159   -0.6319 C   0  0  2  0  0  0  0  0  0  0  0  0
    4.8077   -3.6717   -0.8972 C   0  0  0  0  0  0  0  0  0  0  0  0
    2.7586   -2.8254    0.2032 C   0  0  0  0  0  0  0  0  0  0  0  0
    2.6204   -2.7401    1.5340 C   0  0  0  0  0  0  0  0  0  0  0  0
    3.5573   -2.1206    2.5658 C   0  0  2  0  0  0  0  0  0  0  0  0
    4.6136   -3.1841    2.9676 C   0  0  0  0  0  0  0  0  0  0  0  0
    2.7976   -1.5471    3.8122 C   0  0  2  0  0  0  0  0  0  0  0  0
    1.7679   -2.4813    4.5087 C   0  0  0  0  0  0  0  0  0  0  0  0
    0.5559   -1.5879    4.7659 C   0  0  0  0  0  0  0  0  0  0  0  0
    1.0682   -0.1387    4.8801 C   0  0  1  0  0  0  0  0  0  0  0  0
    1.5497   -0.0254    6.2083 O   0  0  0  0  0  0  0  0  0  0  0  0
    2.1941   -0.0836    3.7923 C   0  0  1  0  0  0  0  0  0  0  0  0
    3.3339    0.9223    4.1304 C   0  0  0  0  0  0  0  0  0  0  0  0
    1.4256    0.4733    2.5159 C   0  0  1  0  0  0  0  0  0  0  0  0
    0.9524   -0.5650    1.6942 O   0  0  0  0  0  0  0  0  0  0  0  0
    0.1842    1.2681    3.0456 C   0  0  2  0  0  0  0  0  0  0  0  0
   -0.9385    1.0505    2.2088 O   0  0  0  0  0  0  0  0  0  0  0  0
    0.3079    2.7704    3.3654 C   0  0  1  0  0  0  0  0  0  0  0  0
    1.3868    3.5435    2.8854 O   0  0  0  0  0  0  0  0  0  0  0  0
   -0.9718    3.4486    3.4321 O   0  0  0  0  0  0  0  0  0  0  0  0
   -1.1031    3.1079    4.8371 C   0  0  1  0  0  0  0  0  0  0  0  0
   -2.1704    2.0488    5.0703 C   0  0  0  0  0  0  0  0  0  0  0  0
   -1.4133    0.7025    5.1339 C   0  0  1  0  0  0  0  0  0  0  0  0
   -2.1711   -0.3238    4.5405 O   0  0  0  0  0  0  0  0  0  0  0  0
    0.0025    0.9415    4.5517 C   0  0  1  0  0  0  0  0  0  0  0  0
    0.2501    2.4392    4.8494 C   0  0  1  0  0  0  0  0  0  0  0  0
    1.1835    2.9559    5.9574 C   0  0  0  0  0  0  0  0  0  0  0  0
    3.1013   -3.4478   -3.1640 H   0  0  0  0  0  0  0  0  0  0  0  0
    2.3969   -1.9644   -3.7748 H   0  0  0  0  0  0  0  0  0  0  0  0
    1.6671   -2.7631   -2.4045 H   0  0  0  0  0  0  0  0  0  0  0  0
    2.9385   -0.8117   -1.6170 H   0  0  0  0  0  0  0  0  0  0  0  0
    5.3991   -1.9209   -2.9962 H   0  0  0  0  0  0  0  0  0  0  0  0
    5.2855   -0.4184   -2.0651 H   0  0  0  0  0  0  0  0  0  0  0  0
    4.4064   -0.5987   -3.5870 H   0  0  0  0  0  0  0  0  0  0  0  0
    4.5401   -1.7230   -0.0286 H   0  0  0  0  0  0  0  0  0  0  0  0
    5.0373   -4.2045    0.0270 H   0  0  0  0  0  0  0  0  0  0  0  0
    5.7601   -3.4242   -1.3712 H   0  0  0  0  0  0  0  0  0  0  0  0
    4.2755   -4.3948   -1.5185 H   0  0  0  0  0  0  0  0  0  0  0  0
    1.9458   -3.2765   -0.3377 H   0  0  0  0  0  0  0  0  0  0  0  0
    1.7022   -3.1556    1.9018 H   0  0  0  0  0  0  0  0  0  0  0  0
    4.1088   -1.3016    2.1096 H   0  0  0  0  0  0  0  0  0  0  0  0
    5.1247   -3.5767    2.0946 H   0  0  0  0  0  0  0  0  0  0  0  0
    4.1700   -4.0364    3.4811 H   0  0  0  0  0  0  0  0  0  0  0  0
    5.3949   -2.7733    3.6093 H   0  0  0  0  0  0  0  0  0  0  0  0
    3.5912   -1.4826    4.5576 H   0  0  0  0  0  0  0  0  0  0  0  0
    1.4784   -3.3655    3.9491 H   0  0  0  0  0  0  0  0  0  0  0  0
    2.1775   -2.8294    5.4691 H   0  0  0  0  0  0  0  0  0  0  0  0
   -0.0748   -1.6631    3.8854 H   0  0  0  0  0  0  0  0  0  0  0  0
   -0.0378   -1.9192    5.6216 H   0  0  0  0  0  0  0  0  0  0  0  0
    1.9657    0.8160    6.2988 H   0  0  0  0  0  0  0  0  0  0  0  0
    3.0008    1.9555    4.1010 H   0  0  0  0  0  0  0  0  0  0  0  0
    4.1361    0.8564    3.3923 H   0  0  0  0  0  0  0  0  0  0  0  0
    3.7902    0.7535    5.1112 H   0  0  0  0  0  0  0  0  0  0  0  0
    2.1020    1.0913    1.9046 H   0  0  0  0  0  0  0  0  0  0  0  0
    1.0198   -0.3728    0.7593 H   0  0  0  0  0  0  0  0  0  0  0  0
   -0.6124    1.1188    1.3242 H   0  0  0  0  0  0  0  0  0  0  0  0
    1.0912    3.8314    2.0008 H   0  0  0  0  0  0  0  0  0  0  0  0
   -1.1612    4.0100    5.4513 H   0  0  0  0  0  0  0  0  0  0  0  0
   -2.6713    2.2315    6.0120 H   0  0  0  0  0  0  0  0  0  0  0  0
   -2.9138    2.1033    4.2678 H   0  0  0  0  0  0  0  0  0  0  0  0
   -1.3165    0.4112    6.1854 H   0  0  0  0  0  0  0  0  0  0  0  0
   -2.6419    0.0633    3.7924 H   0  0  0  0  0  0  0  0  0  0  0  0
    0.7425    2.6822    6.9155 H   0  0  0  0  0  0  0  0  0  0  0  0
    1.2590    4.0452    5.9495 H   0  0  0  0  0  0  0  0  0  0  0  0
    2.1877    2.5419    5.9481 H   0  0  0  0  0  0  0  0  0  0  0  0
  1  2  1  0
  1 31  1  0
  1 32  1  0
  1 33  1  0
  2  3  1  0
  2  4  1  0
  2 34  1  0
  3 35  1  0
  3 36  1  0
  3 37  1  0
  4  5  1  0
  4  6  1  0
  4 38  1  1
  5 39  1  0
  5 40  1  0
  5 41  1  0
  6  7  2  3
  6 42  1  0
  7  8  1  0
  7 43  1  0
  8  9  1  0
  8 10  1  0
  8 44  1  6
  9 45  1  0
  9 46  1  0
  9 47  1  0
 10 15  1  0
 10 11  1  0
 10 48  1  1
 11 12  1  0
 11 49  1  0
 11 50  1  0
 12 13  1  0
 12 51  1  0
 12 52  1  0
 28 13  1  1
 13 14  1  1
 13 15  1  0
 14 53  1  0
 15 16  1  1
 15 17  1  0
 16 54  1  0
 16 55  1  0
 16 56  1  0
 17 18  1  0
 17 19  1  0
 17 57  1  6
 18 58  1  0
 19 28  1  0
 19 20  1  6
 19 21  1  0
 20 59  1  0
 21 29  1  0
 21 22  1  1
 21 23  1  0
 22 60  1  0
 23 24  1  0
 24 29  1  0
 24 25  1  0
 24 61  1  1
 25 26  1  0
 25 62  1  0
 25 63  1  0
 26 27  1  0
 26 28  1  0
 26 64  1  1
 27 65  1  0
 28 29  1  0
 29 30  1  1
 30 66  1  0
 30 67  1  0
 30 68  1  0
M  END
>  <i_m_ct_stereo_status>  (162) 
1

>  <s_m_source_file>  (162) 
/var/tmp/pbs.5076255.sched01/tmpcdf8lnea/434bzo3qpq.sdf

>  <i_m_source_file_index>  (162) 
25

>  <i_lp_mmshare_version>  (162) 
48012

>  <i_f3d_flags>  (162) 
0

>  <s_epik_input>  (162) 
W0NIM11bQ0hdKFtDSDNdKVtDQEhdKFtDSDNdKS9bQ0hdPVtDSF0vW0NASF0oW0NIM10pW0NASF0oW0NIMl1bQ0gyXTEpW0NAXShbQ0gzXSkoW0NAXTEoW0NAQF0yMzQpW09IXSlbQ0BASF0oW09IXSlbQ0BdMihbT0hdKVtDQF01KFtPSF0pW0NAQF00KFtDSDNdKVtDQEBIXShPNSlbQ0gyXVtDQEhdM1tPSF0=

>  <s_epik_cmdline>  (162) 
J2VwaWtfcHl0aG9uJywgJy1waHQnLCAnMi4wJywgJy1waCcsICc3LjAnLCAnLXRuJywgJzgnLCAnLW1hJywgJzIwMCcsICctaW1hZScsICc8aW5maWxlLm1hZT4nLCAnLW9tYWUnLCAnPG91dGZpbGUubWFlPic=

>  <r_lp_tautomer_probability>  (162) 
1

>  <r_epik_Ionization_Penalty>  (162) 
1.33988e-06

>  <r_epik_Ionization_Penalty_Charging>  (162) 
0

>  <r_epik_Ionization_Penalty_Neutral>  (162) 
1.33988e-06

>  <r_epik_State_Penalty>  (162) 
-0

>  <r_epik_Charging_Adjusted_Penalty>  (162) 
0

>  <i_epik_Tot_Q>  (162) 
0

>  <i_epik_Tot_abs_Q>  (162) 
0

>  <s_lp_Force_Field>  (162) 
OPLS3e

>  <r_lp_Energy>  (162) 
60.561

>  <b_lp_Chiralities_Consistent>  (162) 
1

>  <s_lp_Variant>  (162) 
52:0-2

>  <s_i_glide_gridfile>  (162) 
pfpi4k_grid

>  <i_i_glide_lignum>  (162) 
25

>  <i_i_glide_rotatable_bonds>  (162) 
9

>  <r_i_docking_score>  (162) 
-2.99886

>  <r_i_glide_ligand_efficiency>  (162) 
-0.0999622

>  <r_i_glide_ligand_efficiency_sa>  (162) 
-0.310606

>  <r_i_glide_ligand_efficiency_ln>  (162) 
-0.681375

>  <r_i_glide_gscore>  (162) 
-2.99886

>  <r_i_glide_lipo>  (162) 
-0.0510325

>  <r_i_glide_hbond>  (162) 
0

>  <r_i_glide_metal>  (162) 
-0

>  <r_i_glide_rewards>  (162) 
-0.528035

>  <r_i_glide_evdw>  (162) 
-18.6303

>  <r_i_glide_ecoul>  (162) 
-11.6593

>  <r_i_glide_erotb>  (162) 
0.332868

>  <r_i_glide_esite>  (162) 
-0.0722514

>  <r_i_glide_emodel>  (162) 
-28.7858

>  <r_i_glide_energy>  (162) 
-30.2896

>  <r_i_glide_einternal>  (162) 
15.025

>  <r_i_glide_intrahb_reward>  (162) 
-0

>  <i_i_glide_confnum>  (162) 
3

>  <i_i_glide_posenum>  (162) 
19

>  <r_i_glide_eff_state_penalty>  (162) 
0

>  <ligand_id>  (162) 
52

>  <original_smiles>  (162) 
CC(C)C(C)C=CC(C)C1CCC2(O)C1(C)C(O)C1(O)C3(O)OC4CC(O)C21C43C

>  <smiles>  (162) 
[H]OC1([H])C2(O[H])C3(O[H])OC4([H])C([H])([H])C([H])(O[H])C2(C2(O[H])C([H])([H])C([H])([H])C([H])(C([H])(C([H])=C([H])C([H])(C([H])([H])[H])C([H])(C([H])([H])[H])C([H])([H])[H])C([H])([H])[H])C12C([H])([H])[H])C43C([H])([H])[H]

$$$$
53:0:0
     RDKit          3D

 24 26  0  0  1  0  0  0  0  0999 V2000
    2.7796   -3.7833   -0.4770 C   0  0  0  0  0  0  0  0  0  0  0  0
    3.0165   -2.5153   -1.2047 N   0  0  1  0  0  0  0  0  0  0  0  0
    4.4247   -2.0661   -1.3239 C   0  0  2  0  0  0  0  0  0  0  0  0
    4.3006   -0.8136   -2.2143 C   0  0  0  0  0  0  0  0  0  0  0  0
    2.9764   -0.9985   -2.9745 C   0  0  0  0  0  0  0  0  0  0  0  0
    2.5135   -2.4142   -2.5869 C   0  0  1  0  0  0  0  0  0  0  0  0
    3.1704   -3.4788   -3.4550 C   0  0  1  0  0  0  0  0  0  0  0  0
    4.2446   -3.0297   -4.2936 O   0  0  0  0  0  0  0  0  0  0  0  0
    4.6163   -3.8398   -3.1725 C   0  0  1  0  0  0  0  0  0  0  0  0
    5.3061   -3.1653   -1.9896 C   0  0  0  0  0  0  0  0  0  0  0  0
    3.2234   -4.6515   -0.9614 H   0  0  0  0  0  0  0  0  0  0  0  0
    1.7136   -3.9612   -0.4026 H   0  0  0  0  0  0  0  0  0  0  0  0
    3.1862   -3.7242    0.5330 H   0  0  0  0  0  0  0  0  0  0  0  0
    4.8426   -1.8006   -0.3512 H   0  0  0  0  0  0  0  0  0  0  0  0
    4.2515    0.0851   -1.6004 H   0  0  0  0  0  0  0  0  0  0  0  0
    5.1448   -0.6913   -2.8895 H   0  0  0  0  0  0  0  0  0  0  0  0
    2.2545   -0.2638   -2.6171 H   0  0  0  0  0  0  0  0  0  0  0  0
    3.0716   -0.8459   -4.0516 H   0  0  0  0  0  0  0  0  0  0  0  0
    1.4315   -2.5355   -2.6326 H   0  0  0  0  0  0  0  0  0  0  0  0
    2.5220   -4.2249   -3.9077 H   0  0  0  0  0  0  0  0  0  0  0  0
    4.9767   -4.8292   -3.4405 H   0  0  0  0  0  0  0  0  0  0  0  0
    6.2676   -2.7688   -2.3226 H   0  0  0  0  0  0  0  0  0  0  0  0
    5.5392   -3.9367   -1.2530 H   0  0  0  0  0  0  0  0  0  0  0  0
    2.4925   -1.7924   -0.7219 H   0  0  0  0  0  0  0  0  0  0  0  0
  1  2  1  0
  1 11  1  0
  1 12  1  0
  1 13  1  0
  2  6  1  0
  2  3  1  0
  2 24  1  1
  3 10  1  0
  3  4  1  0
  3 14  1  1
  4  5  1  0
  4 15  1  0
  4 16  1  0
  5  6  1  0
  5 17  1  0
  5 18  1  0
  6  7  1  0
  6 19  1  1
  7  9  1  0
  7  8  1  0
  7 20  1  6
  8  9  1  0
  9 10  1  0
  9 21  1  6
 10 22  1  0
 10 23  1  0
M  CHG  1   2   1
M  END
>  <i_m_ct_stereo_status>  (163) 
1

>  <s_m_source_file>  (163) 
/var/tmp/pbs.5076255.sched01/tmpcdf8lnea/434bzo3qpq.sdf

>  <i_m_source_file_index>  (163) 
26

>  <i_lp_mmshare_version>  (163) 
48012

>  <i_f3d_flags>  (163) 
0

>  <s_epik_input>  (163) 
W0NIM11OKFtDSF0xMilbQ0BASF0oW0NIMl1bQ0gyXTEpW0NAQEhdM1tDQEBIXShPMylbQ0gyXTI=

>  <s_epik_cmdline>  (163) 
J2VwaWtfcHl0aG9uJywgJy1waHQnLCAnMi4wJywgJy1waCcsICc3LjAnLCAnLXRuJywgJzgnLCAnLW1hJywgJzIwMCcsICctaW1hZScsICc8aW5maWxlLm1hZT4nLCAnLW9tYWUnLCAnPG91dGZpbGUubWFlPic=

>  <r_epik_Ionization_Penalty>  (163) 
0.00631433

>  <r_epik_Ionization_Penalty_Charging>  (163) 
0.00631433

>  <r_epik_Ionization_Penalty_Neutral>  (163) 
3.63101e-14

>  <r_epik_State_Penalty>  (163) 
0.00466425

>  <r_epik_Charging_Adjusted_Penalty>  (163) 
0.0109786

>  <i_epik_Tot_Q>  (163) 
1

>  <i_epik_Tot_abs_Q>  (163) 
1

>  <s_lp_Force_Field>  (163) 
OPLS3e

>  <r_lp_Energy>  (163) 
27.4227

>  <b_lp_Chiralities_Consistent>  (163) 
1

>  <s_lp_Variant>  (163) 
53:0-1

>  <s_i_glide_gridfile>  (163) 
pfpi4k_grid

>  <i_i_glide_lignum>  (163) 
26

>  <i_i_glide_rotatable_bonds>  (163) 
0

>  <r_i_docking_score>  (163) 
-4.78907

>  <r_i_glide_ligand_efficiency>  (163) 
-0.478907

>  <r_i_glide_ligand_efficiency_sa>  (163) 
-1.03177

>  <r_i_glide_ligand_efficiency_ln>  (163) 
-1.4501

>  <r_i_glide_gscore>  (163) 
-4.78907

>  <r_i_glide_lipo>  (163) 
-0.26828

>  <r_i_glide_hbond>  (163) 
-0.37659

>  <r_i_glide_metal>  (163) 
-0

>  <r_i_glide_rewards>  (163) 
-2.25

>  <r_i_glide_evdw>  (163) 
-11.2759

>  <r_i_glide_ecoul>  (163) 
-8.4725

>  <r_i_glide_erotb>  (163) 
0

>  <r_i_glide_esite>  (163) 
-0.0595342

>  <r_i_glide_emodel>  (163) 
-26.6264

>  <r_i_glide_energy>  (163) 
-19.7484

>  <r_i_glide_einternal>  (163) 
0

>  <r_i_glide_intrahb_reward>  (163) 
-0

>  <i_i_glide_confnum>  (163) 
2

>  <i_i_glide_posenum>  (163) 
23

>  <r_i_glide_eff_state_penalty>  (163) 
0

>  <ligand_id>  (163) 
53

>  <original_smiles>  (163) 
CN1C2CCC1C1OC1C2

>  <smiles>  (163) 
[H]C1([H])C([H])([H])C2([H])C3([H])OC3([H])C([H])([H])C1([H])[N+]2([H])C([H])([H])[H]

$$$$
53:0:1
     RDKit          3D

 24 26  0  0  1  0  0  0  0  0999 V2000
    5.4861   -3.7498   -3.2607 C   0  0  0  0  0  0  0  0  0  0  0  0
    4.1967   -3.7528   -2.5482 N   0  0  1  0  0  0  0  0  0  0  0  0
    4.1440   -3.1007   -1.2186 C   0  0  2  0  0  0  0  0  0  0  0  0
    2.6494   -3.1997   -0.8595 C   0  0  0  0  0  0  0  0  0  0  0  0
    1.9339   -3.3395   -2.2161 C   0  0  0  0  0  0  0  0  0  0  0  0
    3.0452   -3.1687   -3.2622 C   0  0  1  0  0  0  0  0  0  0  0  0
    3.3506   -1.7038   -3.5769 C   0  0  1  0  0  0  0  0  0  0  0  0
    2.7348   -0.7461   -2.7168 O   0  0  0  0  0  0  0  0  0  0  0  0
    4.1403   -0.9014   -2.5520 C   0  0  1  0  0  0  0  0  0  0  0  0
    4.6427   -1.6266   -1.3063 C   0  0  0  0  0  0  0  0  0  0  0  0
    5.8446   -2.7485   -3.5117 H   0  0  0  0  0  0  0  0  0  0  0  0
    5.3893   -4.3221   -4.1831 H   0  0  0  0  0  0  0  0  0  0  0  0
    6.2260   -4.2246   -2.6242 H   0  0  0  0  0  0  0  0  0  0  0  0
    4.7402   -3.6481   -0.4877 H   0  0  0  0  0  0  0  0  0  0  0  0
    2.4549   -4.0885   -0.2560 H   0  0  0  0  0  0  0  0  0  0  0  0
    2.3156   -2.3373   -0.2825 H   0  0  0  0  0  0  0  0  0  0  0  0
    1.4835   -4.3254   -2.2952 H   0  0  0  0  0  0  0  0  0  0  0  0
    1.1038   -2.6581   -2.3414 H   0  0  0  0  0  0  0  0  0  0  0  0
    2.8189   -3.7007   -4.1879 H   0  0  0  0  0  0  0  0  0  0  0  0
    3.3832   -1.4078   -4.6216 H   0  0  0  0  0  0  0  0  0  0  0  0
    4.6974   -0.0211   -2.8635 H   0  0  0  0  0  0  0  0  0  0  0  0
    4.3579   -1.0575   -0.4183 H   0  0  0  0  0  0  0  0  0  0  0  0
    5.7326   -1.6219   -1.3435 H   0  0  0  0  0  0  0  0  0  0  0  0
    3.9271   -4.7246   -2.4020 H   0  0  0  0  0  0  0  0  0  0  0  0
  1  2  1  0
  1 11  1  0
  1 12  1  0
  1 13  1  0
  2  6  1  0
  2  3  1  0
  2 24  1  1
  3 10  1  0
  3  4  1  0
  3 14  1  1
  4  5  1  0
  4 15  1  0
  4 16  1  0
  5  6  1  0
  5 17  1  0
  5 18  1  0
  6  7  1  0
  6 19  1  6
  7  9  1  0
  7  8  1  0
  7 20  1  6
  8  9  1  0
  9 10  1  0
  9 21  1  6
 10 22  1  0
 10 23  1  0
M  CHG  1   2   1
M  END
>  <i_m_ct_stereo_status>  (164) 
1

>  <s_m_source_file>  (164) 
/var/tmp/pbs.5076255.sched01/tmpcdf8lnea/434bzo3qpq.sdf

>  <i_m_source_file_index>  (164) 
26

>  <i_lp_mmshare_version>  (164) 
48012

>  <i_f3d_flags>  (164) 
0

>  <s_epik_input>  (164) 
W0NIM11OKFtDSF0xMilbQ0BASF0oW0NIMl1bQ0gyXTEpW0NAQEhdM1tDQEBIXShPMylbQ0gyXTI=

>  <s_epik_cmdline>  (164) 
J2VwaWtfcHl0aG9uJywgJy1waHQnLCAnMi4wJywgJy1waCcsICc3LjAnLCAnLXRuJywgJzgnLCAnLW1hJywgJzIwMCcsICctaW1hZScsICc8aW5maWxlLm1hZT4nLCAnLW9tYWUnLCAnPG91dGZpbGUubWFlPic=

>  <r_epik_Ionization_Penalty>  (164) 
0.00631433

>  <r_epik_Ionization_Penalty_Charging>  (164) 
0.00631433

>  <r_epik_Ionization_Penalty_Neutral>  (164) 
3.63101e-14

>  <r_epik_State_Penalty>  (164) 
0.00466425

>  <r_epik_Charging_Adjusted_Penalty>  (164) 
0.0109786

>  <i_epik_Tot_Q>  (164) 
1

>  <i_epik_Tot_abs_Q>  (164) 
1

>  <s_lp_Force_Field>  (164) 
OPLS3e

>  <r_lp_Energy>  (164) 
27.4227

>  <b_lp_Chiralities_Consistent>  (164) 
1

>  <s_lp_Variant>  (164) 
53:0-1

>  <s_i_glide_gridfile>  (164) 
pfpi4k_grid

>  <i_i_glide_lignum>  (164) 
26

>  <i_i_glide_rotatable_bonds>  (164) 
0

>  <r_i_docking_score>  (164) 
-3.97398

>  <r_i_glide_ligand_efficiency>  (164) 
-0.397398

>  <r_i_glide_ligand_efficiency_sa>  (164) 
-0.856167

>  <r_i_glide_ligand_efficiency_ln>  (164) 
-1.20329

>  <r_i_glide_gscore>  (164) 
-3.97398

>  <r_i_glide_lipo>  (164) 
-0.600688

>  <r_i_glide_hbond>  (164) 
0

>  <r_i_glide_metal>  (164) 
-0

>  <r_i_glide_rewards>  (164) 
-2.25

>  <r_i_glide_evdw>  (164) 
-9.91989

>  <r_i_glide_ecoul>  (164) 
-3.89882

>  <r_i_glide_erotb>  (164) 
0

>  <r_i_glide_esite>  (164) 
-0.0424719

>  <r_i_glide_emodel>  (164) 
-19.514

>  <r_i_glide_energy>  (164) 
-13.8187

>  <r_i_glide_einternal>  (164) 
0

>  <r_i_glide_intrahb_reward>  (164) 
-0

>  <i_i_glide_confnum>  (164) 
2

>  <i_i_glide_posenum>  (164) 
5

>  <r_i_glide_eff_state_penalty>  (164) 
0

>  <ligand_id>  (164) 
53

>  <original_smiles>  (164) 
CN1C2CCC1C1OC1C2

>  <smiles>  (164) 
[H]C1([H])C([H])([H])C2([H])C3([H])OC3([H])C([H])([H])C1([H])[N+]2([H])C([H])([H])[H]

$$$$
53:0:2
     RDKit          3D

 24 26  0  0  1  0  0  0  0  0999 V2000
    4.3711   -4.3799   -0.4308 C   0  0  0  0  0  0  0  0  0  0  0  0
    4.4546   -3.0011   -0.9554 N   0  0  1  0  0  0  0  0  0  0  0  0
    5.2075   -2.7806   -2.2112 C   0  0  2  0  0  0  0  0  0  0  0  0
    4.9819   -1.2783   -2.4752 C   0  0  0  0  0  0  0  0  0  0  0  0
    3.6924   -0.9426   -1.7146 C   0  0  0  0  0  0  0  0  0  0  0  0
    3.1866   -2.2941   -1.1999 C   0  0  1  0  0  0  0  0  0  0  0  0
    2.3750   -3.0219   -2.2737 C   0  0  1  0  0  0  0  0  0  0  0  0
    2.4394   -2.4387   -3.5924 O   0  0  0  0  0  0  0  0  0  0  0  0
    3.1236   -3.6733   -3.4158 C   0  0  1  0  0  0  0  0  0  0  0  0
    4.6469   -3.6621   -3.3602 C   0  0  0  0  0  0  0  0  0  0  0  0
    3.8336   -5.0505   -1.0943 H   0  0  0  0  0  0  0  0  0  0  0  0
    3.8586   -4.3796    0.5293 H   0  0  0  0  0  0  0  0  0  0  0  0
    5.3723   -4.7822   -0.2874 H   0  0  0  0  0  0  0  0  0  0  0  0
    6.2712   -2.9847   -2.0746 H   0  0  0  0  0  0  0  0  0  0  0  0
    5.7978   -0.6844   -2.0613 H   0  0  0  0  0  0  0  0  0  0  0  0
    4.8971   -1.0489   -3.5395 H   0  0  0  0  0  0  0  0  0  0  0  0
    3.9372   -0.3069   -0.8625 H   0  0  0  0  0  0  0  0  0  0  0  0
    2.9562   -0.4165   -2.3325 H   0  0  0  0  0  0  0  0  0  0  0  0
    2.6157   -2.1915   -0.2792 H   0  0  0  0  0  0  0  0  0  0  0  0
    1.4106   -3.4376   -1.9870 H   0  0  0  0  0  0  0  0  0  0  0  0
    2.6538   -4.4859   -3.9586 H   0  0  0  0  0  0  0  0  0  0  0  0
    5.0159   -3.3315   -4.3246 H   0  0  0  0  0  0  0  0  0  0  0  0
    4.9971   -4.6844   -3.2277 H   0  0  0  0  0  0  0  0  0  0  0  0
    4.9185   -2.4493   -0.2496 H   0  0  0  0  0  0  0  0  0  0  0  0
  1  2  1  0
  1 11  1  0
  1 12  1  0
  1 13  1  0
  2  6  1  0
  2  3  1  0
  2 24  1  1
  3 10  1  0
  3  4  1  0
  3 14  1  1
  4  5  1  0
  4 15  1  0
  4 16  1  0
  5  6  1  0
  5 17  1  0
  5 18  1  0
  6  7  1  0
  6 19  1  1
  7  9  1  0
  7  8  1  0
  7 20  1  1
  8  9  1  0
  9 10  1  0
  9 21  1  6
 10 22  1  0
 10 23  1  0
M  CHG  1   2   1
M  END
>  <i_m_ct_stereo_status>  (165) 
1

>  <s_m_source_file>  (165) 
/var/tmp/pbs.5076255.sched01/tmpcdf8lnea/434bzo3qpq.sdf

>  <i_m_source_file_index>  (165) 
26

>  <i_lp_mmshare_version>  (165) 
48012

>  <i_f3d_flags>  (165) 
0

>  <s_epik_input>  (165) 
W0NIM11OKFtDSF0xMilbQ0BASF0oW0NIMl1bQ0gyXTEpW0NAQEhdM1tDQEBIXShPMylbQ0gyXTI=

>  <s_epik_cmdline>  (165) 
J2VwaWtfcHl0aG9uJywgJy1waHQnLCAnMi4wJywgJy1waCcsICc3LjAnLCAnLXRuJywgJzgnLCAnLW1hJywgJzIwMCcsICctaW1hZScsICc8aW5maWxlLm1hZT4nLCAnLW9tYWUnLCAnPG91dGZpbGUubWFlPic=

>  <r_epik_Ionization_Penalty>  (165) 
0.00631433

>  <r_epik_Ionization_Penalty_Charging>  (165) 
0.00631433

>  <r_epik_Ionization_Penalty_Neutral>  (165) 
3.63101e-14

>  <r_epik_State_Penalty>  (165) 
0.00466425

>  <r_epik_Charging_Adjusted_Penalty>  (165) 
0.0109786

>  <i_epik_Tot_Q>  (165) 
1

>  <i_epik_Tot_abs_Q>  (165) 
1

>  <s_lp_Force_Field>  (165) 
OPLS3e

>  <r_lp_Energy>  (165) 
27.4227

>  <b_lp_Chiralities_Consistent>  (165) 
1

>  <s_lp_Variant>  (165) 
53:0-1

>  <s_i_glide_gridfile>  (165) 
pfpi4k_grid

>  <i_i_glide_lignum>  (165) 
26

>  <i_i_glide_rotatable_bonds>  (165) 
0

>  <r_i_docking_score>  (165) 
-3.64306

>  <r_i_glide_ligand_efficiency>  (165) 
-0.364306

>  <r_i_glide_ligand_efficiency_sa>  (165) 
-0.784873

>  <r_i_glide_ligand_efficiency_ln>  (165) 
-1.10309

>  <r_i_glide_gscore>  (165) 
-3.64306

>  <r_i_glide_lipo>  (165) 
-0.322389

>  <r_i_glide_hbond>  (165) 
0

>  <r_i_glide_metal>  (165) 
-0

>  <r_i_glide_rewards>  (165) 
-2.25

>  <r_i_glide_evdw>  (165) 
-9.8232

>  <r_i_glide_ecoul>  (165) 
-3.8536

>  <r_i_glide_erotb>  (165) 
0

>  <r_i_glide_esite>  (165) 
-0.00146802

>  <r_i_glide_emodel>  (165) 
-18.8851

>  <r_i_glide_energy>  (165) 
-13.6768

>  <r_i_glide_einternal>  (165) 
0

>  <r_i_glide_intrahb_reward>  (165) 
-0

>  <i_i_glide_confnum>  (165) 
2

>  <i_i_glide_posenum>  (165) 
29

>  <r_i_glide_eff_state_penalty>  (165) 
0

>  <ligand_id>  (165) 
53

>  <original_smiles>  (165) 
CN1C2CCC1C1OC1C2

>  <smiles>  (165) 
[H]C1([H])C([H])([H])C2([H])C3([H])OC3([H])C([H])([H])C1([H])[N+]2([H])C([H])([H])[H]

$$$$
54:0:0
     RDKit          3D

 56 60  0  0  1  0  0  0  0  0999 V2000
   -0.4000   -4.2844    6.5143 C   0  0  0  0  0  0  0  0  0  0  0  0
    0.5595   -4.0018    5.3352 C   0  0  0  0  0  0  0  0  0  0  0  0
    0.9766   -4.8260    4.3676 C   0  0  0  0  0  0  0  0  0  0  0  0
    0.5218   -6.2090    4.1912 C   0  0  0  0  0  0  0  0  0  0  0  0
   -0.2392   -6.8027    4.9535 O   0  0  0  0  0  0  0  0  0  0  0  0
    1.0623   -6.8309    2.9358 C   0  0  1  0  0  0  0  0  0  0  0  0
    1.4347   -8.3113    2.9413 C   0  0  0  0  0  0  0  0  0  0  0  0
    0.2539   -7.8597    2.1268 C   0  0  1  0  0  0  0  0  0  0  0  0
   -1.1739   -8.2943    2.4557 C   0  0  0  0  0  0  0  0  0  0  0  0
    1.8107   -5.7225    2.1905 C   0  0  1  0  0  0  0  0  0  0  0  0
    1.7522   -4.4615    3.0933 C   0  0  2  0  0  0  0  0  0  0  0  0
    3.2276   -4.0108    3.2680 C   0  0  2  0  0  0  0  0  0  0  0  0
    3.4775   -2.9935    2.1050 C   0  0  1  0  0  0  0  0  0  0  0  0
    4.7228   -2.1031    2.1357 C   0  0  0  0  0  0  0  0  0  0  0  0
    5.3579   -1.8205    3.1559 O   0  0  0  0  0  0  0  0  0  0  0  0
    5.0704   -1.5738    0.7509 C   0  0  1  0  0  0  0  0  0  0  0  0
    4.3163   -0.2570    0.4826 C   0  0  0  0  0  0  0  0  0  0  0  0
    6.4661   -1.3828    0.5653 O   0  0  0  0  0  0  0  0  0  0  0  0
    4.5231   -2.7262   -0.0880 C   0  0  0  0  0  0  0  0  0  0  0  0
    4.8124   -2.9012   -1.2795 O   0  0  0  0  0  0  0  0  0  0  0  0
    3.4629   -3.5720    0.6489 C   0  0  2  0  0  0  0  0  0  0  0  0
    2.2181   -3.2818    0.0615 O   0  0  0  0  0  0  0  0  0  0  0  0
    3.6420   -5.1390    0.5523 C   0  0  1  0  0  0  0  0  0  0  0  0
    4.8924   -5.5735    0.0597 O   0  0  0  0  0  0  0  0  0  0  0  0
    3.3276   -5.9062    1.8782 C   0  0  1  0  0  0  0  0  0  0  0  0
    4.0796   -5.2999    3.0960 C   0  0  0  0  0  0  0  0  0  0  0  0
    5.6069   -5.0975    2.8955 C   0  0  0  0  0  0  0  0  0  0  0  0
    4.0278   -6.2072    4.3477 C   0  0  0  0  0  0  0  0  0  0  0  0
   -1.2511   -3.6080    6.4702 H   0  0  0  0  0  0  0  0  0  0  0  0
    0.1122   -4.1285    7.4598 H   0  0  0  0  0  0  0  0  0  0  0  0
   -0.8410   -5.2790    6.5786 H   0  0  0  0  0  0  0  0  0  0  0  0
    0.9012   -2.9744    5.3036 H   0  0  0  0  0  0  0  0  0  0  0  0
    2.3208   -8.6333    2.3954 H   0  0  0  0  0  0  0  0  0  0  0  0
    1.2329   -8.8972    3.8322 H   0  0  0  0  0  0  0  0  0  0  0  0
    0.4262   -7.8450    1.0583 H   0  0  0  0  0  0  0  0  0  0  0  0
   -1.2589   -8.7089    3.4552 H   0  0  0  0  0  0  0  0  0  0  0  0
   -1.5215   -9.0752    1.7724 H   0  0  0  0  0  0  0  0  0  0  0  0
   -1.8359   -7.4347    2.3642 H   0  0  0  0  0  0  0  0  0  0  0  0
    1.2613   -5.5394    1.2701 H   0  0  0  0  0  0  0  0  0  0  0  0
    1.1465   -3.6718    2.6258 H   0  0  0  0  0  0  0  0  0  0  0  0
    3.4092   -3.5332    4.2455 H   0  0  0  0  0  0  0  0  0  0  0  0
    2.6792   -2.2532    2.1805 H   0  0  0  0  0  0  0  0  0  0  0  0
    3.2387   -0.3704    0.6058 H   0  0  0  0  0  0  0  0  0  0  0  0
    4.4917    0.0751   -0.5399 H   0  0  0  0  0  0  0  0  0  0  0  0
    4.6417    0.5336    1.1511 H   0  0  0  0  0  0  0  0  0  0  0  0
    6.7578   -0.7169    1.1778 H   0  0  0  0  0  0  0  0  0  0  0  0
    2.1112   -2.3504   -0.0914 H   0  0  0  0  0  0  0  0  0  0  0  0
    2.9513   -5.5087   -0.2066 H   0  0  0  0  0  0  0  0  0  0  0  0
    4.8992   -5.4217   -0.8756 H   0  0  0  0  0  0  0  0  0  0  0  0
    3.5762   -6.9545    1.7428 H   0  0  0  0  0  0  0  0  0  0  0  0
    6.1061   -6.0544    2.7466 H   0  0  0  0  0  0  0  0  0  0  0  0
    6.0612   -4.6321    3.7702 H   0  0  0  0  0  0  0  0  0  0  0  0
    5.8857   -4.4866    2.0443 H   0  0  0  0  0  0  0  0  0  0  0  0
    4.5074   -7.1660    4.1580 H   0  0  0  0  0  0  0  0  0  0  0  0
    3.0388   -6.4382    4.7095 H   0  0  0  0  0  0  0  0  0  0  0  0
    4.5421   -5.7427    5.1894 H   0  0  0  0  0  0  0  0  0  0  0  0
  1  2  1  0
  1 29  1  0
  1 30  1  0
  1 31  1  0
  2  3  2  3
  2 32  1  0
  3 11  1  0
  3  4  1  0
  4  5  2  0
  4  6  1  0
  6  8  1  0
  6  7  1  1
  6 10  1  0
  7  8  1  0
  7 33  1  0
  7 34  1  0
  8  9  1  0
  8 35  1  6
  9 36  1  0
  9 37  1  0
  9 38  1  0
 10 25  1  0
 10 11  1  0
 10 39  1  6
 11 12  1  0
 11 40  1  6
 12 26  1  0
 12 13  1  0
 12 41  1  1
 13 21  1  0
 13 14  1  0
 13 42  1  6
 14 15  2  0
 14 16  1  0
 16 17  1  0
 16 18  1  1
 16 19  1  0
 17 43  1  0
 17 44  1  0
 17 45  1  0
 18 46  1  0
 19 20  2  0
 19 21  1  0
 21 22  1  6
 21 23  1  0
 22 47  1  0
 23 24  1  0
 23 25  1  0
 23 48  1  6
 24 49  1  0
 25 26  1  0
 25 50  1  6
 26 27  1  0
 26 28  1  0
 27 51  1  0
 27 52  1  0
 27 53  1  0
 28 54  1  0
 28 55  1  0
 28 56  1  0
M  END
>  <i_m_ct_stereo_status>  (166) 
1

>  <s_m_source_file>  (166) 
/var/tmp/pbs.5076255.sched01/tmpcdf8lnea/434bzo3qpq.sdf

>  <i_m_source_file_index>  (166) 
27

>  <i_lp_mmshare_version>  (166) 
48012

>  <i_f3d_flags>  (166) 
0

>  <s_epik_input>  (166) 
W0NIM11bQ0BASF0xW0NIMl1bQ0BAXTEyW0NASF0zW0NAQEhdKEMoXEMyPU8pPVtDSF1cW0NIM10pW0NAQEhdNFtDQEBIXTVbQ0BAXShbT0hdKShDKD1PKVtDQF0oQzU9TykoW0NIM10pW09IXSlbQ0BASF0oW09IXSlbQ0BIXTNDNChbQ0gzXSlbQ0gzXQ==

>  <s_epik_cmdline>  (166) 
J2VwaWtfcHl0aG9uJywgJy1waHQnLCAnMi4wJywgJy1waCcsICc3LjAnLCAnLXRuJywgJzgnLCAnLW1hJywgJzIwMCcsICctaW1hZScsICc8aW5maWxlLm1hZT4nLCAnLW9tYWUnLCAnPG91dGZpbGUubWFlPic=

>  <r_lp_tautomer_probability>  (166) 
1

>  <r_epik_Ionization_Penalty>  (166) 
6.87632e-07

>  <r_epik_Ionization_Penalty_Charging>  (166) 
0

>  <r_epik_Ionization_Penalty_Neutral>  (166) 
6.87632e-07

>  <r_epik_State_Penalty>  (166) 
-0

>  <r_epik_Charging_Adjusted_Penalty>  (166) 
0

>  <i_epik_Tot_Q>  (166) 
0

>  <i_epik_Tot_abs_Q>  (166) 
0

>  <s_lp_Force_Field>  (166) 
OPLS3e

>  <r_lp_Energy>  (166) 
49.9285

>  <b_lp_Chiralities_Consistent>  (166) 
1

>  <s_lp_Variant>  (166) 
54:0-1

>  <s_i_glide_gridfile>  (166) 
pfpi4k_grid

>  <i_i_glide_lignum>  (166) 
27

>  <i_i_glide_rotatable_bonds>  (166) 
3

>  <r_i_docking_score>  (166) 
-3.28103

>  <r_i_glide_ligand_efficiency>  (166) 
-0.11718

>  <r_i_glide_ligand_efficiency_sa>  (166) 
-0.355827

>  <r_i_glide_ligand_efficiency_ln>  (166) 
-0.757359

>  <r_i_glide_gscore>  (166) 
-3.28103

>  <r_i_glide_lipo>  (166) 
-0.22306

>  <r_i_glide_hbond>  (166) 
0

>  <r_i_glide_metal>  (166) 
-0

>  <r_i_glide_rewards>  (166) 
-0.817399

>  <r_i_glide_evdw>  (166) 
-27.1956

>  <r_i_glide_ecoul>  (166) 
-5.70053

>  <r_i_glide_erotb>  (166) 
0

>  <r_i_glide_esite>  (166) 
-0.0257176

>  <r_i_glide_emodel>  (166) 
-37.7738

>  <r_i_glide_energy>  (166) 
-32.8961

>  <r_i_glide_einternal>  (166) 
2.52158

>  <r_i_glide_intrahb_reward>  (166) 
-0

>  <i_i_glide_confnum>  (166) 
1

>  <i_i_glide_posenum>  (166) 
19

>  <r_i_glide_eff_state_penalty>  (166) 
0

>  <ligand_id>  (166) 
54

>  <original_smiles>  (166) 
CC=C1C(=O)C2(CC2C)C2C1C1C3C(=O)C(C)(O)C(=O)C3(O)C(O)C2C1(C)C

>  <smiles>  (166) 
[H]OC1(C([H])([H])[H])C(=O)C2([H])C(O[H])(C1=O)C([H])(O[H])C1([H])C3([H])C([H])(C(=C([H])C([H])([H])[H])C(=O)C34C([H])([H])C4([H])C([H])([H])[H])C2([H])C1(C([H])([H])[H])C([H])([H])[H]

$$$$
54:0:1
     RDKit          3D

 56 60  0  0  1  0  0  0  0  0999 V2000
    0.3226   -1.5627    5.4946 C   0  0  0  0  0  0  0  0  0  0  0  0
    1.1392   -1.8760    4.2307 C   0  0  0  0  0  0  0  0  0  0  0  0
    1.5229   -3.0759    3.7507 C   0  0  0  0  0  0  0  0  0  0  0  0
    1.1608   -4.3744    4.3339 C   0  0  0  0  0  0  0  0  0  0  0  0
    0.5326   -4.5603    5.3710 O   0  0  0  0  0  0  0  0  0  0  0  0
    1.6490   -5.5191    3.4822 C   0  0  1  0  0  0  0  0  0  0  0  0
    2.1473   -6.7813    4.1732 C   0  0  0  0  0  0  0  0  0  0  0  0
    0.8646   -6.8360    3.3885 C   0  0  1  0  0  0  0  0  0  0  0  0
   -0.4792   -7.0751    4.0750 C   0  0  0  0  0  0  0  0  0  0  0  0
    2.2277   -4.8962    2.2108 C   0  0  1  0  0  0  0  0  0  0  0  0
    2.1666   -3.3523    2.3983 C   0  0  2  0  0  0  0  0  0  0  0  0
    3.5970   -2.8440    2.1172 C   0  0  2  0  0  0  0  0  0  0  0  0
    3.6226   -2.5279    0.5882 C   0  0  1  0  0  0  0  0  0  0  0  0
    4.7845   -1.6911    0.0445 C   0  0  0  0  0  0  0  0  0  0  0  0
    5.4927   -0.9470    0.7210 O   0  0  0  0  0  0  0  0  0  0  0  0
    4.9433   -1.9284   -1.4461 C   0  0  1  0  0  0  0  0  0  0  0  0
    4.0986   -0.9585   -2.2901 C   0  0  0  0  0  0  0  0  0  0  0  0
    6.2982   -1.8826   -1.8582 O   0  0  0  0  0  0  0  0  0  0  0  0
    4.4257   -3.3429   -1.5548 C   0  0  0  0  0  0  0  0  0  0  0  0
    4.6709   -4.0416   -2.5392 O   0  0  0  0  0  0  0  0  0  0  0  0
    3.5203   -3.7591   -0.3726 C   0  0  2  0  0  0  0  0  0  0  0  0
    2.2013   -3.8523   -0.8734 O   0  0  0  0  0  0  0  0  0  0  0  0
    3.8298   -5.1649    0.2827 C   0  0  1  0  0  0  0  0  0  0  0  0
    5.0645   -5.7348   -0.0972 O   0  0  0  0  0  0  0  0  0  0  0  0
    3.7148   -5.1810    1.8391 C   0  0  1  0  0  0  0  0  0  0  0  0
    4.5269   -4.0304    2.4941 C   0  0  0  0  0  0  0  0  0  0  0  0
    5.9956   -3.9107    2.0147 C   0  0  0  0  0  0  0  0  0  0  0  0
    4.6762   -4.1892    4.0275 C   0  0  0  0  0  0  0  0  0  0  0  0
   -0.5821   -1.0194    5.2243 H   0  0  0  0  0  0  0  0  0  0  0  0
    0.9057   -0.9387    6.1687 H   0  0  0  0  0  0  0  0  0  0  0  0
   -0.0193   -2.4067    6.0914 H   0  0  0  0  0  0  0  0  0  0  0  0
    1.3944   -0.9951    3.6539 H   0  0  0  0  0  0  0  0  0  0  0  0
    3.0052   -7.3032    3.7506 H   0  0  0  0  0  0  0  0  0  0  0  0
    2.0808   -6.8455    5.2555 H   0  0  0  0  0  0  0  0  0  0  0  0
    0.9282   -7.3481    2.4356 H   0  0  0  0  0  0  0  0  0  0  0  0
   -0.4234   -6.9015    5.1468 H   0  0  0  0  0  0  0  0  0  0  0  0
   -0.8332   -8.1022    3.9238 H   0  0  0  0  0  0  0  0  0  0  0  0
   -1.2235   -6.4009    3.6581 H   0  0  0  0  0  0  0  0  0  0  0  0
    1.5725   -5.2045    1.3931 H   0  0  0  0  0  0  0  0  0  0  0  0
    1.4667   -2.9048    1.6800 H   0  0  0  0  0  0  0  0  0  0  0  0
    3.8284   -1.9407    2.7018 H   0  0  0  0  0  0  0  0  0  0  0  0
    2.7696   -1.8781    0.3867 H   0  0  0  0  0  0  0  0  0  0  0  0
    3.0528   -1.0100   -1.9930 H   0  0  0  0  0  0  0  0  0  0  0  0
    4.1418   -1.1747   -3.3555 H   0  0  0  0  0  0  0  0  0  0  0  0
    4.4276    0.0663   -2.1456 H   0  0  0  0  0  0  0  0  0  0  0  0
    6.3353   -2.2364   -2.7324 H   0  0  0  0  0  0  0  0  0  0  0  0
    2.2229   -4.4796   -1.5978 H   0  0  0  0  0  0  0  0  0  0  0  0
    3.1146   -5.8953   -0.0998 H   0  0  0  0  0  0  0  0  0  0  0  0
    5.0440   -5.8864   -1.0364 H   0  0  0  0  0  0  0  0  0  0  0  0
    4.0419   -6.1482    2.2053 H   0  0  0  0  0  0  0  0  0  0  0  0
    6.5692   -4.7901    2.3080 H   0  0  0  0  0  0  0  0  0  0  0  0
    6.4671   -3.0372    2.4598 H   0  0  0  0  0  0  0  0  0  0  0  0
    6.1377   -3.8032    0.9453 H   0  0  0  0  0  0  0  0  0  0  0  0
    5.2149   -5.1016    4.2750 H   0  0  0  0  0  0  0  0  0  0  0  0
    3.7476   -4.2329    4.5736 H   0  0  0  0  0  0  0  0  0  0  0  0
    5.2272   -3.3520    4.4562 H   0  0  0  0  0  0  0  0  0  0  0  0
  1  2  1  0
  1 29  1  0
  1 30  1  0
  1 31  1  0
  2  3  2  3
  2 32  1  0
  3 11  1  0
  3  4  1  0
  4  5  2  0
  4  6  1  0
  6  8  1  0
  6  7  1  1
  6 10  1  0
  7  8  1  0
  7 33  1  0
  7 34  1  0
  8  9  1  0
  8 35  1  6
  9 36  1  0
  9 37  1  0
  9 38  1  0
 10 25  1  0
 10 11  1  0
 10 39  1  6
 11 12  1  0
 11 40  1  6
 12 26  1  0
 12 13  1  0
 12 41  1  1
 13 21  1  0
 13 14  1  0
 13 42  1  1
 14 15  2  0
 14 16  1  0
 16 17  1  0
 16 18  1  6
 16 19  1  0
 17 43  1  0
 17 44  1  0
 17 45  1  0
 18 46  1  0
 19 20  2  0
 19 21  1  0
 21 22  1  6
 21 23  1  0
 22 47  1  0
 23 24  1  0
 23 25  1  0
 23 48  1  6
 24 49  1  0
 25 26  1  0
 25 50  1  1
 26 27  1  0
 26 28  1  0
 27 51  1  0
 27 52  1  0
 27 53  1  0
 28 54  1  0
 28 55  1  0
 28 56  1  0
M  END
>  <i_m_ct_stereo_status>  (167) 
1

>  <s_m_source_file>  (167) 
/var/tmp/pbs.5076255.sched01/tmpcdf8lnea/434bzo3qpq.sdf

>  <i_m_source_file_index>  (167) 
27

>  <i_lp_mmshare_version>  (167) 
48012

>  <i_f3d_flags>  (167) 
0

>  <s_epik_input>  (167) 
W0NIM11bQ0BASF0xW0NIMl1bQ0BAXTEyW0NASF0zW0NAQEhdKEMoXEMyPU8pPVtDSF1cW0NIM10pW0NAQEhdNFtDQEBIXTVbQ0BAXShbT0hdKShDKD1PKVtDQF0oQzU9TykoW0NIM10pW09IXSlbQ0BASF0oW09IXSlbQ0BIXTNDNChbQ0gzXSlbQ0gzXQ==

>  <s_epik_cmdline>  (167) 
J2VwaWtfcHl0aG9uJywgJy1waHQnLCAnMi4wJywgJy1waCcsICc3LjAnLCAnLXRuJywgJzgnLCAnLW1hJywgJzIwMCcsICctaW1hZScsICc8aW5maWxlLm1hZT4nLCAnLW9tYWUnLCAnPG91dGZpbGUubWFlPic=

>  <r_lp_tautomer_probability>  (167) 
1

>  <r_epik_Ionization_Penalty>  (167) 
6.87632e-07

>  <r_epik_Ionization_Penalty_Charging>  (167) 
0

>  <r_epik_Ionization_Penalty_Neutral>  (167) 
6.87632e-07

>  <r_epik_State_Penalty>  (167) 
-0

>  <r_epik_Charging_Adjusted_Penalty>  (167) 
0

>  <i_epik_Tot_Q>  (167) 
0

>  <i_epik_Tot_abs_Q>  (167) 
0

>  <s_lp_Force_Field>  (167) 
OPLS3e

>  <r_lp_Energy>  (167) 
49.9285

>  <b_lp_Chiralities_Consistent>  (167) 
1

>  <s_lp_Variant>  (167) 
54:0-1

>  <s_i_glide_gridfile>  (167) 
pfpi4k_grid

>  <i_i_glide_lignum>  (167) 
27

>  <i_i_glide_rotatable_bonds>  (167) 
3

>  <r_i_docking_score>  (167) 
-3.17866

>  <r_i_glide_ligand_efficiency>  (167) 
-0.113524

>  <r_i_glide_ligand_efficiency_sa>  (167) 
-0.344724

>  <r_i_glide_ligand_efficiency_ln>  (167) 
-0.733728

>  <r_i_glide_gscore>  (167) 
-3.17866

>  <r_i_glide_lipo>  (167) 
-0.0987005

>  <r_i_glide_hbond>  (167) 
0

>  <r_i_glide_metal>  (167) 
-0

>  <r_i_glide_rewards>  (167) 
-0.76445

>  <r_i_glide_evdw>  (167) 
-24.7433

>  <r_i_glide_ecoul>  (167) 
-7.10945

>  <r_i_glide_erotb>  (167) 
0

>  <r_i_glide_esite>  (167) 
-0.0119268

>  <r_i_glide_emodel>  (167) 
-36.8915

>  <r_i_glide_energy>  (167) 
-31.8527

>  <r_i_glide_einternal>  (167) 
2.40951

>  <r_i_glide_intrahb_reward>  (167) 
-0

>  <i_i_glide_confnum>  (167) 
1

>  <i_i_glide_posenum>  (167) 
27

>  <r_i_glide_eff_state_penalty>  (167) 
0

>  <ligand_id>  (167) 
54

>  <original_smiles>  (167) 
CC=C1C(=O)C2(CC2C)C2C1C1C3C(=O)C(C)(O)C(=O)C3(O)C(O)C2C1(C)C

>  <smiles>  (167) 
[H]OC1(C([H])([H])[H])C(=O)C2([H])C(O[H])(C1=O)C([H])(O[H])C1([H])C3([H])C([H])(C(=C([H])C([H])([H])[H])C(=O)C34C([H])([H])C4([H])C([H])([H])[H])C2([H])C1(C([H])([H])[H])C([H])([H])[H]

$$$$
54:0:2
     RDKit          3D

 56 60  0  0  1  0  0  0  0  0999 V2000
    0.1442   -3.5509    6.4620 C   0  0  0  0  0  0  0  0  0  0  0  0
    0.9998   -3.4896    5.1951 C   0  0  0  0  0  0  0  0  0  0  0  0
    1.2484   -4.4700    4.2821 C   0  0  0  0  0  0  0  0  0  0  0  0
    0.6582   -5.8138    4.3263 C   0  0  0  0  0  0  0  0  0  0  0  0
   -0.0724   -6.2743    5.1934 O   0  0  0  0  0  0  0  0  0  0  0  0
    1.0622   -6.6165    3.1127 C   0  0  1  0  0  0  0  0  0  0  0  0
    1.3185   -8.1088    3.2763 C   0  0  0  0  0  0  0  0  0  0  0  0
    0.1085   -7.6580    2.5077 C   0  0  1  0  0  0  0  0  0  0  0  0
   -1.3059   -7.9093    3.0273 C   0  0  0  0  0  0  0  0  0  0  0  0
    1.8202   -5.6578    2.1888 C   0  0  1  0  0  0  0  0  0  0  0  0
    1.9483   -4.3087    2.9417 C   0  0  2  0  0  0  0  0  0  0  0  0
    3.4696   -3.9667    2.9088 C   0  0  2  0  0  0  0  0  0  0  0  0
    3.6752   -3.1108    1.6127 C   0  0  1  0  0  0  0  0  0  0  0  0
    4.9969   -2.3380    1.4481 C   0  0  0  0  0  0  0  0  0  0  0  0
    5.7450   -2.0210    2.3614 O   0  0  0  0  0  0  0  0  0  0  0  0
    5.2297   -2.0215   -0.0274 C   0  0  1  0  0  0  0  0  0  0  0  0
    4.5690   -0.6860   -0.4085 C   0  0  0  0  0  0  0  0  0  0  0  0
    6.6107   -1.9702   -0.3708 O   0  0  0  0  0  0  0  0  0  0  0  0
    4.5173   -3.2024   -0.6903 C   0  0  0  0  0  0  0  0  0  0  0  0
    4.7063   -3.5391   -1.8503 O   0  0  0  0  0  0  0  0  0  0  0  0
    3.4790   -3.8453    0.2542 C   0  0  2  0  0  0  0  0  0  0  0  0
    2.2180   -3.5000   -0.2654 O   0  0  0  0  0  0  0  0  0  0  0  0
    3.5194   -5.4249    0.3373 C   0  0  1  0  0  0  0  0  0  0  0  0
    4.6817   -6.0145   -0.2099 O   0  0  0  0  0  0  0  0  0  0  0  0
    3.2788   -6.0125    1.7689 C   0  0  1  0  0  0  0  0  0  0  0  0
    4.1923   -5.3407    2.8320 C   0  0  0  0  0  0  0  0  0  0  0  0
    5.7036   -5.2989    2.4772 C   0  0  0  0  0  0  0  0  0  0  0  0
    4.1872   -6.0898    4.1889 C   0  0  0  0  0  0  0  0  0  0  0  0
   -0.6508   -2.8078    6.4053 H   0  0  0  0  0  0  0  0  0  0  0  0
    0.7540   -3.3288    7.3360 H   0  0  0  0  0  0  0  0  0  0  0  0
   -0.3618   -4.4893    6.6861 H   0  0  0  0  0  0  0  0  0  0  0  0
    1.4265   -2.5157    5.0012 H   0  0  0  0  0  0  0  0  0  0  0  0
    2.1293   -8.5637    2.7071 H   0  0  0  0  0  0  0  0  0  0  0  0
    1.1563   -8.5625    4.2534 H   0  0  0  0  0  0  0  0  0  0  0  0
    0.1732   -7.7849    1.4290 H   0  0  0  0  0  0  0  0  0  0  0  0
   -1.3071   -8.1524    4.0886 H   0  0  0  0  0  0  0  0  0  0  0  0
   -1.7853   -8.7362    2.4987 H   0  0  0  0  0  0  0  0  0  0  0  0
   -1.9095   -7.0188    2.8740 H   0  0  0  0  0  0  0  0  0  0  0  0
    1.1979   -5.5338    1.3014 H   0  0  0  0  0  0  0  0  0  0  0  0
    1.3717   -3.5313    2.4309 H   0  0  0  0  0  0  0  0  0  0  0  0
    3.7675   -3.4050    3.8009 H   0  0  0  0  0  0  0  0  0  0  0  0
    2.9482   -2.3022    1.6737 H   0  0  0  0  0  0  0  0  0  0  0  0
    3.5051   -0.6819   -0.1737 H   0  0  0  0  0  0  0  0  0  0  0  0
    4.6662   -0.4666   -1.4708 H   0  0  0  0  0  0  0  0  0  0  0  0
    5.0174    0.1412    0.1436 H   0  0  0  0  0  0  0  0  0  0  0  0
    7.0037   -2.8068   -0.1488 H   0  0  0  0  0  0  0  0  0  0  0  0
    2.1600   -2.5606   -0.4126 H   0  0  0  0  0  0  0  0  0  0  0  0
    2.7406   -5.8241   -0.3117 H   0  0  0  0  0  0  0  0  0  0  0  0
    4.6297   -5.9169   -1.1547 H   0  0  0  0  0  0  0  0  0  0  0  0
    3.4364   -7.0877    1.7387 H   0  0  0  0  0  0  0  0  0  0  0  0
    6.1116   -6.3061    2.4049 H   0  0  0  0  0  0  0  0  0  0  0  0
    6.2693   -4.7724    3.2437 H   0  0  0  0  0  0  0  0  0  0  0  0
    5.9443   -4.8164    1.5378 H   0  0  0  0  0  0  0  0  0  0  0  0
    4.5718   -7.1032    4.0766 H   0  0  0  0  0  0  0  0  0  0  0  0
    3.2197   -6.1883    4.6559 H   0  0  0  0  0  0  0  0  0  0  0  0
    4.8130   -5.5784    4.9212 H   0  0  0  0  0  0  0  0  0  0  0  0
  1  2  1  0
  1 29  1  0
  1 30  1  0
  1 31  1  0
  2  3  2  3
  2 32  1  0
  3 11  1  0
  3  4  1  0
  4  5  2  0
  4  6  1  0
  6  8  1  0
  6  7  1  1
  6 10  1  0
  7  8  1  0
  7 33  1  0
  7 34  1  0
  8  9  1  0
  8 35  1  6
  9 36  1  0
  9 37  1  0
  9 38  1  0
 10 25  1  0
 10 11  1  0
 10 39  1  6
 11 12  1  0
 11 40  1  6
 12 26  1  0
 12 13  1  0
 12 41  1  1
 13 21  1  0
 13 14  1  0
 13 42  1  1
 14 15  2  0
 14 16  1  0
 16 17  1  0
 16 18  1  1
 16 19  1  0
 17 43  1  0
 17 44  1  0
 17 45  1  0
 18 46  1  0
 19 20  2  0
 19 21  1  0
 21 22  1  6
 21 23  1  0
 22 47  1  0
 23 24  1  0
 23 25  1  0
 23 48  1  6
 24 49  1  0
 25 26  1  0
 25 50  1  6
 26 27  1  0
 26 28  1  0
 27 51  1  0
 27 52  1  0
 27 53  1  0
 28 54  1  0
 28 55  1  0
 28 56  1  0
M  END
>  <i_m_ct_stereo_status>  (168) 
1

>  <s_m_source_file>  (168) 
/var/tmp/pbs.5076255.sched01/tmpcdf8lnea/434bzo3qpq.sdf

>  <i_m_source_file_index>  (168) 
27

>  <i_lp_mmshare_version>  (168) 
48012

>  <i_f3d_flags>  (168) 
0

>  <s_epik_input>  (168) 
W0NIM11bQ0BASF0xW0NIMl1bQ0BAXTEyW0NASF0zW0NAQEhdKEMoXEMyPU8pPVtDSF1cW0NIM10pW0NAQEhdNFtDQEBIXTVbQ0BAXShbT0hdKShDKD1PKVtDQF0oQzU9TykoW0NIM10pW09IXSlbQ0BASF0oW09IXSlbQ0BIXTNDNChbQ0gzXSlbQ0gzXQ==

>  <s_epik_cmdline>  (168) 
J2VwaWtfcHl0aG9uJywgJy1waHQnLCAnMi4wJywgJy1waCcsICc3LjAnLCAnLXRuJywgJzgnLCAnLW1hJywgJzIwMCcsICctaW1hZScsICc8aW5maWxlLm1hZT4nLCAnLW9tYWUnLCAnPG91dGZpbGUubWFlPic=

>  <r_lp_tautomer_probability>  (168) 
1

>  <r_epik_Ionization_Penalty>  (168) 
6.87632e-07

>  <r_epik_Ionization_Penalty_Charging>  (168) 
0

>  <r_epik_Ionization_Penalty_Neutral>  (168) 
6.87632e-07

>  <r_epik_State_Penalty>  (168) 
-0

>  <r_epik_Charging_Adjusted_Penalty>  (168) 
0

>  <i_epik_Tot_Q>  (168) 
0

>  <i_epik_Tot_abs_Q>  (168) 
0

>  <s_lp_Force_Field>  (168) 
OPLS3e

>  <r_lp_Energy>  (168) 
49.9285

>  <b_lp_Chiralities_Consistent>  (168) 
1

>  <s_lp_Variant>  (168) 
54:0-1

>  <s_i_glide_gridfile>  (168) 
pfpi4k_grid

>  <i_i_glide_lignum>  (168) 
27

>  <i_i_glide_rotatable_bonds>  (168) 
3

>  <r_i_docking_score>  (168) 
-3.17721

>  <r_i_glide_ligand_efficiency>  (168) 
-0.113472

>  <r_i_glide_ligand_efficiency_sa>  (168) 
-0.344567

>  <r_i_glide_ligand_efficiency_ln>  (168) 
-0.733394

>  <r_i_glide_gscore>  (168) 
-3.17721

>  <r_i_glide_lipo>  (168) 
-0.0446283

>  <r_i_glide_hbond>  (168) 
0

>  <r_i_glide_metal>  (168) 
-0

>  <r_i_glide_rewards>  (168) 
-0.853888

>  <r_i_glide_evdw>  (168) 
-27.5317

>  <r_i_glide_ecoul>  (168) 
-5.90637

>  <r_i_glide_erotb>  (168) 
0

>  <r_i_glide_esite>  (168) 
-0.0161566

>  <r_i_glide_emodel>  (168) 
-37.5162

>  <r_i_glide_energy>  (168) 
-33.438

>  <r_i_glide_einternal>  (168) 
4.02202

>  <r_i_glide_intrahb_reward>  (168) 
-0

>  <i_i_glide_confnum>  (168) 
2

>  <i_i_glide_posenum>  (168) 
36

>  <r_i_glide_eff_state_penalty>  (168) 
0

>  <ligand_id>  (168) 
54

>  <original_smiles>  (168) 
CC=C1C(=O)C2(CC2C)C2C1C1C3C(=O)C(C)(O)C(=O)C3(O)C(O)C2C1(C)C

>  <smiles>  (168) 
[H]OC1(C([H])([H])[H])C(=O)C2([H])C(O[H])(C1=O)C([H])(O[H])C1([H])C3([H])C([H])(C(=C([H])C([H])([H])[H])C(=O)C34C([H])([H])C4([H])C([H])([H])[H])C2([H])C1(C([H])([H])[H])C([H])([H])[H]

$$$$
54:1:0
     RDKit          3D

 56 60  0  0  1  0  0  0  0  0999 V2000
    0.7702   -0.8576    3.6865 C   0  0  0  0  0  0  0  0  0  0  0  0
    0.8446   -2.2089    4.3230 C   0  0  0  0  0  0  0  0  0  0  0  0
    1.4886   -3.2958    3.8436 C   0  0  0  0  0  0  0  0  0  0  0  0
    1.3996   -4.5713    4.5529 C   0  0  0  0  0  0  0  0  0  0  0  0
    0.8290   -4.7534    5.6274 O   0  0  0  0  0  0  0  0  0  0  0  0
    2.0912   -5.6425    3.7679 C   0  0  1  0  0  0  0  0  0  0  0  0
    2.8298   -6.7486    4.5275 C   0  0  0  0  0  0  0  0  0  0  0  0
    1.5642   -7.0878    3.7860 C   0  0  1  0  0  0  0  0  0  0  0  0
    0.2916   -7.5129    4.5070 C   0  0  0  0  0  0  0  0  0  0  0  0
    2.5272   -5.0110    2.4378 C   0  0  1  0  0  0  0  0  0  0  0  0
    2.1749   -3.5096    2.5158 C   0  0  2  0  0  0  0  0  0  0  0  0
    3.4757   -2.7351    2.1655 C   0  0  2  0  0  0  0  0  0  0  0  0
    3.3916   -2.5579    0.6158 C   0  0  1  0  0  0  0  0  0  0  0  0
    4.3236   -1.5453   -0.0161 C   0  0  0  0  0  0  0  0  0  0  0  0
    4.9050   -0.6327    0.5814 O   0  0  0  0  0  0  0  0  0  0  0  0
    4.5206   -1.8707   -1.4847 C   0  0  1  0  0  0  0  0  0  0  0  0
    3.5136   -1.1837   -2.4058 C   0  0  0  0  0  0  0  0  0  0  0  0
    5.8041   -1.5011   -1.8859 O   0  0  0  0  0  0  0  0  0  0  0  0
    4.3243   -3.3828   -1.4754 C   0  0  0  0  0  0  0  0  0  0  0  0
    4.7662   -4.1077   -2.3667 O   0  0  0  0  0  0  0  0  0  0  0  0
    3.5387   -3.8655   -0.2464 C   0  0  2  0  0  0  0  0  0  0  0  0
    2.2538   -4.2607   -0.6922 O   0  0  0  0  0  0  0  0  0  0  0  0
    4.1432   -5.1219    0.4992 C   0  0  1  0  0  0  0  0  0  0  0  0
    5.4683   -5.4525    0.1162 O   0  0  0  0  0  0  0  0  0  0  0  0
    4.0312   -5.0393    2.0600 C   0  0  1  0  0  0  0  0  0  0  0  0
    4.5999   -3.6932    2.5918 C   0  0  0  0  0  0  0  0  0  0  0  0
    5.9932   -3.3146    2.0595 C   0  0  0  0  0  0  0  0  0  0  0  0
    4.8014   -3.6980    4.1369 C   0  0  0  0  0  0  0  0  0  0  0  0
   -0.2757   -0.5500    3.5645 H   0  0  0  0  0  0  0  0  0  0  0  0
    1.2592   -0.8668    2.7202 H   0  0  0  0  0  0  0  0  0  0  0  0
    1.2702   -0.1508    4.3514 H   0  0  0  0  0  0  0  0  0  0  0  0
    0.3112   -2.3070    5.2491 H   0  0  0  0  0  0  0  0  0  0  0  0
    3.7545   -7.1264    4.1196 H   0  0  0  0  0  0  0  0  0  0  0  0
    2.7816   -6.7482    5.6250 H   0  0  0  0  0  0  0  0  0  0  0  0
    1.7116   -7.6520    2.8567 H   0  0  0  0  0  0  0  0  0  0  0  0
    0.3051   -7.1833    5.5573 H   0  0  0  0  0  0  0  0  0  0  0  0
    0.1547   -8.5954    4.4728 H   0  0  0  0  0  0  0  0  0  0  0  0
   -0.5691   -7.0573    4.0173 H   0  0  0  0  0  0  0  0  0  0  0  0
    1.9272   -5.5118    1.6571 H   0  0  0  0  0  0  0  0  0  0  0  0
    1.4118   -3.2631    1.7751 H   0  0  0  0  0  0  0  0  0  0  0  0
    3.5083   -1.7905    2.6723 H   0  0  0  0  0  0  0  0  0  0  0  0
    2.4277   -2.1173    0.3931 H   0  0  0  0  0  0  0  0  0  0  0  0
    2.5023   -1.4202   -2.0894 H   0  0  0  0  0  0  0  0  0  0  0  0
    3.5928   -1.4829   -3.4563 H   0  0  0  0  0  0  0  0  0  0  0  0
    3.6392   -0.1048   -2.3708 H   0  0  0  0  0  0  0  0  0  0  0  0
    5.7517   -0.5867   -2.0718 H   0  0  0  0  0  0  0  0  0  0  0  0
    2.3878   -4.8880   -1.3897 H   0  0  0  0  0  0  0  0  0  0  0  0
    3.5869   -6.0122    0.1831 H   0  0  0  0  0  0  0  0  0  0  0  0
    5.4746   -5.6207   -0.8116 H   0  0  0  0  0  0  0  0  0  0  0  0
    4.5619   -5.8876    2.4873 H   0  0  0  0  0  0  0  0  0  0  0  0
    6.6939   -4.0877    2.3613 H   0  0  0  0  0  0  0  0  0  0  0  0
    6.3149   -2.3495    2.4514 H   0  0  0  0  0  0  0  0  0  0  0  0
    6.0975   -3.2474    0.9823 H   0  0  0  0  0  0  0  0  0  0  0  0
    5.5267   -4.4538    4.4321 H   0  0  0  0  0  0  0  0  0  0  0  0
    3.9104   -3.8957    4.7088 H   0  0  0  0  0  0  0  0  0  0  0  0
    5.1666   -2.7319    4.4866 H   0  0  0  0  0  0  0  0  0  0  0  0
  1  2  1  0
  1 29  1  0
  1 30  1  0
  1 31  1  0
  2  3  2  3
  2 32  1  0
  3 11  1  0
  3  4  1  0
  4  5  2  0
  4  6  1  0
  6  8  1  0
  6  7  1  1
  6 10  1  0
  7  8  1  0
  7 33  1  0
  7 34  1  0
  8  9  1  0
  8 35  1  6
  9 36  1  0
  9 37  1  0
  9 38  1  0
 10 25  1  0
 10 11  1  0
 10 39  1  6
 11 12  1  0
 11 40  1  6
 12 26  1  0
 12 13  1  0
 12 41  1  1
 13 21  1  0
 13 14  1  0
 13 42  1  1
 14 15  2  0
 14 16  1  0
 16 17  1  0
 16 18  1  6
 16 19  1  0
 17 43  1  0
 17 44  1  0
 17 45  1  0
 18 46  1  0
 19 20  2  0
 19 21  1  0
 21 22  1  6
 21 23  1  0
 22 47  1  0
 23 24  1  0
 23 25  1  0
 23 48  1  6
 24 49  1  0
 25 26  1  0
 25 50  1  1
 26 27  1  0
 26 28  1  0
 27 51  1  0
 27 52  1  0
 27 53  1  0
 28 54  1  0
 28 55  1  0
 28 56  1  0
M  END
>  <i_m_ct_stereo_status>  (169) 
1

>  <s_m_source_file>  (169) 
/var/tmp/pbs.5076255.sched01/tmpcdf8lnea/434bzo3qpq.sdf

>  <i_m_source_file_index>  (169) 
28

>  <i_lp_mmshare_version>  (169) 
48012

>  <i_f3d_flags>  (169) 
0

>  <s_epik_input>  (169) 
W0NIM11bQ0BASF0xW0NIMl1bQ0BAXTEyW0NASF0zW0NAQEhdKEMoXEMyPU8pPVtDSF1cW0NIM10pW0NAQEhdNFtDQEBIXTVbQ0BAXShbT0hdKShDKD1PKVtDQF0oQzU9TykoW0NIM10pW09IXSlbQ0BASF0oW09IXSlbQ0BIXTNDNChbQ0gzXSlbQ0gzXQ==

>  <s_epik_cmdline>  (169) 
J2VwaWtfcHl0aG9uJywgJy1waHQnLCAnMi4wJywgJy1waCcsICc3LjAnLCAnLXRuJywgJzgnLCAnLW1hJywgJzIwMCcsICctaW1hZScsICc8aW5maWxlLm1hZT4nLCAnLW9tYWUnLCAnPG91dGZpbGUubWFlPic=

>  <r_lp_tautomer_probability>  (169) 
1

>  <r_epik_Ionization_Penalty>  (169) 
6.87632e-07

>  <r_epik_Ionization_Penalty_Charging>  (169) 
0

>  <r_epik_Ionization_Penalty_Neutral>  (169) 
6.87632e-07

>  <r_epik_State_Penalty>  (169) 
-0

>  <r_epik_Charging_Adjusted_Penalty>  (169) 
0

>  <i_epik_Tot_Q>  (169) 
0

>  <i_epik_Tot_abs_Q>  (169) 
0

>  <s_lp_Force_Field>  (169) 
OPLS3e

>  <r_lp_Energy>  (169) 
46.0004

>  <b_lp_Chiralities_Consistent>  (169) 
1

>  <s_lp_Variant>  (169) 
54:0-2

>  <s_i_glide_gridfile>  (169) 
pfpi4k_grid

>  <i_i_glide_lignum>  (169) 
28

>  <i_i_glide_rotatable_bonds>  (169) 
3

>  <r_i_docking_score>  (169) 
-3.55214

>  <r_i_glide_ligand_efficiency>  (169) 
-0.126862

>  <r_i_glide_ligand_efficiency_sa>  (169) 
-0.385229

>  <r_i_glide_ligand_efficiency_ln>  (169) 
-0.819939

>  <r_i_glide_gscore>  (169) 
-3.55214

>  <r_i_glide_lipo>  (169) 
-0.167401

>  <r_i_glide_hbond>  (169) 
0

>  <r_i_glide_metal>  (169) 
-0

>  <r_i_glide_rewards>  (169) 
-1.26144

>  <r_i_glide_evdw>  (169) 
-22.0725

>  <r_i_glide_ecoul>  (169) 
-6.58232

>  <r_i_glide_erotb>  (169) 
0

>  <r_i_glide_esite>  (169) 
-0.0323309

>  <r_i_glide_emodel>  (169) 
-39.1566

>  <r_i_glide_energy>  (169) 
-28.6548

>  <r_i_glide_einternal>  (169) 
2.28524

>  <r_i_glide_intrahb_reward>  (169) 
-0.5

>  <i_i_glide_confnum>  (169) 
2

>  <i_i_glide_posenum>  (169) 
36

>  <r_i_glide_eff_state_penalty>  (169) 
0

>  <ligand_id>  (169) 
54

>  <original_smiles>  (169) 
CC=C1C(=O)C2(CC2C)C2C1C1C3C(=O)C(C)(O)C(=O)C3(O)C(O)C2C1(C)C

>  <smiles>  (169) 
[H]OC1(C([H])([H])[H])C(=O)C2([H])C(O[H])(C1=O)C([H])(O[H])C1([H])C3([H])C([H])(C(=C([H])C([H])([H])[H])C(=O)C34C([H])([H])C4([H])C([H])([H])[H])C2([H])C1(C([H])([H])[H])C([H])([H])[H]

$$$$
54:1:1
     RDKit          3D

 56 60  0  0  1  0  0  0  0  0999 V2000
    1.4025   -0.8821    3.9348 C   0  0  0  0  0  0  0  0  0  0  0  0
    1.1515   -2.3002    4.3656 C   0  0  0  0  0  0  0  0  0  0  0  0
    1.5445   -3.4160    3.7292 C   0  0  0  0  0  0  0  0  0  0  0  0
    1.1525   -4.7346    4.2332 C   0  0  0  0  0  0  0  0  0  0  0  0
    0.5275   -4.9511    5.2741 O   0  0  0  0  0  0  0  0  0  0  0  0
    1.6180   -5.8053    3.2952 C   0  0  1  0  0  0  0  0  0  0  0  0
    2.0659   -7.1415    3.8788 C   0  0  0  0  0  0  0  0  0  0  0  0
    0.7796   -7.0757    3.0952 C   0  0  1  0  0  0  0  0  0  0  0  0
   -0.5657   -7.3012    3.7775 C   0  0  0  0  0  0  0  0  0  0  0  0
    2.2155   -5.0954    2.0735 C   0  0  1  0  0  0  0  0  0  0  0  0
    2.1980   -3.5745    2.3647 C   0  0  2  0  0  0  0  0  0  0  0  0
    3.6490   -3.0810    2.1083 C   0  0  2  0  0  0  0  0  0  0  0  0
    3.6684   -2.6522    0.6080 C   0  0  1  0  0  0  0  0  0  0  0  0
    4.8452   -1.8095    0.1219 C   0  0  0  0  0  0  0  0  0  0  0  0
    5.5935   -1.1410    0.8414 O   0  0  0  0  0  0  0  0  0  0  0  0
    4.9839   -1.9485   -1.3873 C   0  0  1  0  0  0  0  0  0  0  0  0
    4.1440   -0.9100   -2.1464 C   0  0  0  0  0  0  0  0  0  0  0  0
    6.3319   -1.8757   -1.8070 O   0  0  0  0  0  0  0  0  0  0  0  0
    4.4266   -3.3469   -1.6113 C   0  0  0  0  0  0  0  0  0  0  0  0
    4.6657   -3.9979   -2.6250 O   0  0  0  0  0  0  0  0  0  0  0  0
    3.5297   -3.8138   -0.4431 C   0  0  2  0  0  0  0  0  0  0  0  0
    2.2112   -3.8492   -0.9377 O   0  0  0  0  0  0  0  0  0  0  0  0
    3.8045   -5.2669    0.1192 C   0  0  1  0  0  0  0  0  0  0  0  0
    5.0099   -5.8461   -0.3141 O   0  0  0  0  0  0  0  0  0  0  0  0
    3.6948   -5.3942    1.6728 C   0  0  1  0  0  0  0  0  0  0  0  0
    4.5420   -4.3182    2.4005 C   0  0  0  0  0  0  0  0  0  0  0  0
    6.0120   -4.2014    1.9310 C   0  0  0  0  0  0  0  0  0  0  0  0
    4.6852   -4.5910    3.9228 C   0  0  0  0  0  0  0  0  0  0  0  0
    0.4594   -0.3347    3.8657 H   0  0  0  0  0  0  0  0  0  0  0  0
    1.9051   -0.8587    2.9724 H   0  0  0  0  0  0  0  0  0  0  0  0
    2.0346   -0.4094    4.6892 H   0  0  0  0  0  0  0  0  0  0  0  0
    0.5943   -2.4004    5.2837 H   0  0  0  0  0  0  0  0  0  0  0  0
    2.8978   -7.6551    3.4093 H   0  0  0  0  0  0  0  0  0  0  0  0
    1.9922   -7.2897    4.9562 H   0  0  0  0  0  0  0  0  0  0  0  0
    0.8186   -7.5190    2.1012 H   0  0  0  0  0  0  0  0  0  0  0  0
   -0.5036   -7.1311    4.8569 H   0  0  0  0  0  0  0  0  0  0  0  0
   -0.9366   -8.3111    3.5925 H   0  0  0  0  0  0  0  0  0  0  0  0
   -1.3035   -6.6166    3.3678 H   0  0  0  0  0  0  0  0  0  0  0  0
    1.5529   -5.3258    1.2386 H   0  0  0  0  0  0  0  0  0  0  0  0
    1.5164   -3.0624    1.6996 H   0  0  0  0  0  0  0  0  0  0  0  0
    3.8962   -2.2420    2.7563 H   0  0  0  0  0  0  0  0  0  0  0  0
    2.8248   -1.9768    0.4616 H   0  0  0  0  0  0  0  0  0  0  0  0
    3.0955   -0.9642   -1.8439 H   0  0  0  0  0  0  0  0  0  0  0  0
    4.1731   -1.0565   -3.2275 H   0  0  0  0  0  0  0  0  0  0  0  0
    4.4930    0.1003   -1.9417 H   0  0  0  0  0  0  0  0  0  0  0  0
    6.7777   -2.6748   -1.5693 H   0  0  0  0  0  0  0  0  0  0  0  0
    2.2109   -4.4472   -1.6798 H   0  0  0  0  0  0  0  0  0  0  0  0
    3.0698   -5.9557   -0.3039 H   0  0  0  0  0  0  0  0  0  0  0  0
    4.9424   -5.9923   -1.2476 H   0  0  0  0  0  0  0  0  0  0  0  0
    3.9929   -6.3962    1.9665 H   0  0  0  0  0  0  0  0  0  0  0  0
    6.5650   -5.1129    2.1569 H   0  0  0  0  0  0  0  0  0  0  0  0
    6.5082   -3.3733    2.4345 H   0  0  0  0  0  0  0  0  0  0  0  0
    6.1476   -4.0210    0.8702 H   0  0  0  0  0  0  0  0  0  0  0  0
    5.2123   -5.5276    4.1020 H   0  0  0  0  0  0  0  0  0  0  0  0
    3.7564   -4.6647    4.4676 H   0  0  0  0  0  0  0  0  0  0  0  0
    5.2489   -3.7958    4.4127 H   0  0  0  0  0  0  0  0  0  0  0  0
  1  2  1  0
  1 29  1  0
  1 30  1  0
  1 31  1  0
  2  3  2  3
  2 32  1  0
  3 11  1  0
  3  4  1  0
  4  5  2  0
  4  6  1  0
  6  8  1  0
  6  7  1  1
  6 10  1  0
  7  8  1  0
  7 33  1  0
  7 34  1  0
  8  9  1  0
  8 35  1  6
  9 36  1  0
  9 37  1  0
  9 38  1  0
 10 25  1  0
 10 11  1  0
 10 39  1  6
 11 12  1  0
 11 40  1  6
 12 26  1  0
 12 13  1  0
 12 41  1  1
 13 21  1  0
 13 14  1  0
 13 42  1  1
 14 15  2  0
 14 16  1  0
 16 17  1  0
 16 18  1  1
 16 19  1  0
 17 43  1  0
 17 44  1  0
 17 45  1  0
 18 46  1  0
 19 20  2  0
 19 21  1  0
 21 22  1  6
 21 23  1  0
 22 47  1  0
 23 24  1  0
 23 25  1  0
 23 48  1  6
 24 49  1  0
 25 26  1  0
 25 50  1  1
 26 27  1  0
 26 28  1  0
 27 51  1  0
 27 52  1  0
 27 53  1  0
 28 54  1  0
 28 55  1  0
 28 56  1  0
M  END
>  <i_m_ct_stereo_status>  (170) 
1

>  <s_m_source_file>  (170) 
/var/tmp/pbs.5076255.sched01/tmpcdf8lnea/434bzo3qpq.sdf

>  <i_m_source_file_index>  (170) 
28

>  <i_lp_mmshare_version>  (170) 
48012

>  <i_f3d_flags>  (170) 
0

>  <s_epik_input>  (170) 
W0NIM11bQ0BASF0xW0NIMl1bQ0BAXTEyW0NASF0zW0NAQEhdKEMoXEMyPU8pPVtDSF1cW0NIM10pW0NAQEhdNFtDQEBIXTVbQ0BAXShbT0hdKShDKD1PKVtDQF0oQzU9TykoW0NIM10pW09IXSlbQ0BASF0oW09IXSlbQ0BIXTNDNChbQ0gzXSlbQ0gzXQ==

>  <s_epik_cmdline>  (170) 
J2VwaWtfcHl0aG9uJywgJy1waHQnLCAnMi4wJywgJy1waCcsICc3LjAnLCAnLXRuJywgJzgnLCAnLW1hJywgJzIwMCcsICctaW1hZScsICc8aW5maWxlLm1hZT4nLCAnLW9tYWUnLCAnPG91dGZpbGUubWFlPic=

>  <r_lp_tautomer_probability>  (170) 
1

>  <r_epik_Ionization_Penalty>  (170) 
6.87632e-07

>  <r_epik_Ionization_Penalty_Charging>  (170) 
0

>  <r_epik_Ionization_Penalty_Neutral>  (170) 
6.87632e-07

>  <r_epik_State_Penalty>  (170) 
-0

>  <r_epik_Charging_Adjusted_Penalty>  (170) 
0

>  <i_epik_Tot_Q>  (170) 
0

>  <i_epik_Tot_abs_Q>  (170) 
0

>  <s_lp_Force_Field>  (170) 
OPLS3e

>  <r_lp_Energy>  (170) 
46.0004

>  <b_lp_Chiralities_Consistent>  (170) 
1

>  <s_lp_Variant>  (170) 
54:0-2

>  <s_i_glide_gridfile>  (170) 
pfpi4k_grid

>  <i_i_glide_lignum>  (170) 
28

>  <i_i_glide_rotatable_bonds>  (170) 
3

>  <r_i_docking_score>  (170) 
-3.24346

>  <r_i_glide_ligand_efficiency>  (170) 
-0.115838

>  <r_i_glide_ligand_efficiency_sa>  (170) 
-0.351752

>  <r_i_glide_ligand_efficiency_ln>  (170) 
-0.748686

>  <r_i_glide_gscore>  (170) 
-3.24346

>  <r_i_glide_lipo>  (170) 
-0.0979808

>  <r_i_glide_hbond>  (170) 
0

>  <r_i_glide_metal>  (170) 
-0

>  <r_i_glide_rewards>  (170) 
-0.76054

>  <r_i_glide_evdw>  (170) 
-24.2972

>  <r_i_glide_ecoul>  (170) 
-7.72299

>  <r_i_glide_erotb>  (170) 
0

>  <r_i_glide_esite>  (170) 
-0.0116315

>  <r_i_glide_emodel>  (170) 
-35.9359

>  <r_i_glide_energy>  (170) 
-32.0202

>  <r_i_glide_einternal>  (170) 
4.18849

>  <r_i_glide_intrahb_reward>  (170) 
-0

>  <i_i_glide_confnum>  (170) 
2

>  <i_i_glide_posenum>  (170) 
14

>  <r_i_glide_eff_state_penalty>  (170) 
0

>  <ligand_id>  (170) 
54

>  <original_smiles>  (170) 
CC=C1C(=O)C2(CC2C)C2C1C1C3C(=O)C(C)(O)C(=O)C3(O)C(O)C2C1(C)C

>  <smiles>  (170) 
[H]OC1(C([H])([H])[H])C(=O)C2([H])C(O[H])(C1=O)C([H])(O[H])C1([H])C3([H])C([H])(C(=C([H])C([H])([H])[H])C(=O)C34C([H])([H])C4([H])C([H])([H])[H])C2([H])C1(C([H])([H])[H])C([H])([H])[H]

$$$$
54:1:2
     RDKit          3D

 56 60  0  0  1  0  0  0  0  0999 V2000
    1.3507   -0.6139    3.7999 C   0  0  0  0  0  0  0  0  0  0  0  0
    1.1201   -2.0049    4.3171 C   0  0  0  0  0  0  0  0  0  0  0  0
    1.5290   -3.1531    3.7497 C   0  0  0  0  0  0  0  0  0  0  0  0
    1.1623   -4.4445    4.3350 C   0  0  0  0  0  0  0  0  0  0  0  0
    0.5408   -4.6115    5.3852 O   0  0  0  0  0  0  0  0  0  0  0  0
    1.6511   -5.5621    3.4640 C   0  0  1  0  0  0  0  0  0  0  0  0
    2.1235   -6.8497    4.1289 C   0  0  0  0  0  0  0  0  0  0  0  0
    0.8384   -6.8555    3.3435 C   0  0  1  0  0  0  0  0  0  0  0  0
   -0.5033   -7.0593    4.0390 C   0  0  0  0  0  0  0  0  0  0  0  0
    2.2374   -4.9154    2.2015 C   0  0  1  0  0  0  0  0  0  0  0  0
    2.1891   -3.3812    2.3988 C   0  0  2  0  0  0  0  0  0  0  0  0
    3.6347   -2.8803    2.1141 C   0  0  2  0  0  0  0  0  0  0  0  0
    3.6517   -2.5442    0.5896 C   0  0  1  0  0  0  0  0  0  0  0  0
    4.8190   -1.7075    0.0559 C   0  0  0  0  0  0  0  0  0  0  0  0
    5.5339   -0.9747    0.7384 O   0  0  0  0  0  0  0  0  0  0  0  0
    4.9554   -1.9418   -1.4499 C   0  0  1  0  0  0  0  0  0  0  0  0
    4.0982   -0.9683   -2.2654 C   0  0  0  0  0  0  0  0  0  0  0  0
    6.2926   -1.8805   -1.8926 O   0  0  0  0  0  0  0  0  0  0  0  0
    4.4310   -3.3599   -1.5722 C   0  0  0  0  0  0  0  0  0  0  0  0
    4.6968   -4.0700   -2.5455 O   0  0  0  0  0  0  0  0  0  0  0  0
    3.5331   -3.7738   -0.3867 C   0  0  2  0  0  0  0  0  0  0  0  0
    2.2126   -3.8500   -0.8824 O   0  0  0  0  0  0  0  0  0  0  0  0
    3.8322   -5.1881    0.2626 C   0  0  1  0  0  0  0  0  0  0  0  0
    5.0568   -5.7734   -0.1222 O   0  0  0  0  0  0  0  0  0  0  0  0
    3.7185   -5.2171    1.8221 C   0  0  1  0  0  0  0  0  0  0  0  0
    4.5481   -4.0821    2.4797 C   0  0  0  0  0  0  0  0  0  0  0  0
    6.0162   -3.9672    2.0012 C   0  0  0  0  0  0  0  0  0  0  0  0
    4.6967   -4.2572    4.0170 C   0  0  0  0  0  0  0  0  0  0  0  0
    0.3990   -0.0859    3.6961 H   0  0  0  0  0  0  0  0  0  0  0  0
    1.8541   -0.6408    2.8378 H   0  0  0  0  0  0  0  0  0  0  0  0
    1.9741   -0.0847    4.5232 H   0  0  0  0  0  0  0  0  0  0  0  0
    0.5646   -2.0584    5.2393 H   0  0  0  0  0  0  0  0  0  0  0  0
    2.9662   -7.3762    3.6938 H   0  0  0  0  0  0  0  0  0  0  0  0
    2.0500   -6.9323    5.2148 H   0  0  0  0  0  0  0  0  0  0  0  0
    0.8854   -7.3585    2.3754 H   0  0  0  0  0  0  0  0  0  0  0  0
   -0.4406   -6.8198    5.1070 H   0  0  0  0  0  0  0  0  0  0  0  0
   -0.8615   -8.0822    3.9163 H   0  0  0  0  0  0  0  0  0  0  0  0
   -1.2480   -6.4031    3.5954 H   0  0  0  0  0  0  0  0  0  0  0  0
    1.5780   -5.2091    1.3784 H   0  0  0  0  0  0  0  0  0  0  0  0
    1.4986   -2.9281    1.7005 H   0  0  0  0  0  0  0  0  0  0  0  0
    3.8674   -2.0005    2.7058 H   0  0  0  0  0  0  0  0  0  0  0  0
    2.7960   -1.8956    0.4026 H   0  0  0  0  0  0  0  0  0  0  0  0
    3.0516   -1.0173   -1.9611 H   0  0  0  0  0  0  0  0  0  0  0  0
    4.1291   -1.1795   -3.3349 H   0  0  0  0  0  0  0  0  0  0  0  0
    4.4274    0.0593   -2.1263 H   0  0  0  0  0  0  0  0  0  0  0  0
    6.3374   -2.2368   -2.7738 H   0  0  0  0  0  0  0  0  0  0  0  0
    2.2205   -4.4691   -1.6083 H   0  0  0  0  0  0  0  0  0  0  0  0
    3.1092   -5.9127   -0.1227 H   0  0  0  0  0  0  0  0  0  0  0  0
    5.0318   -5.9299   -1.0570 H   0  0  0  0  0  0  0  0  0  0  0  0
    4.0391   -6.1914    2.1778 H   0  0  0  0  0  0  0  0  0  0  0  0
    6.5855   -4.8525    2.2828 H   0  0  0  0  0  0  0  0  0  0  0  0
    6.4966   -3.1014    2.4536 H   0  0  0  0  0  0  0  0  0  0  0  0
    6.1508   -3.8497    0.9312 H   0  0  0  0  0  0  0  0  0  0  0  0
    5.2398   -5.1707    4.2531 H   0  0  0  0  0  0  0  0  0  0  0  0
    3.7683   -4.3123    4.5639 H   0  0  0  0  0  0  0  0  0  0  0  0
    5.2461   -3.4236    4.4558 H   0  0  0  0  0  0  0  0  0  0  0  0
  1  2  1  0
  1 29  1  0
  1 30  1  0
  1 31  1  0
  2  3  2  3
  2 32  1  0
  3 11  1  0
  3  4  1  0
  4  5  2  0
  4  6  1  0
  6  8  1  0
  6  7  1  1
  6 10  1  0
  7  8  1  0
  7 33  1  0
  7 34  1  0
  8  9  1  0
  8 35  1  6
  9 36  1  0
  9 37  1  0
  9 38  1  0
 10 25  1  0
 10 11  1  0
 10 39  1  6
 11 12  1  0
 11 40  1  6
 12 26  1  0
 12 13  1  0
 12 41  1  1
 13 21  1  0
 13 14  1  0
 13 42  1  1
 14 15  2  0
 14 16  1  0
 16 17  1  0
 16 18  1  6
 16 19  1  0
 17 43  1  0
 17 44  1  0
 17 45  1  0
 18 46  1  0
 19 20  2  0
 19 21  1  0
 21 22  1  6
 21 23  1  0
 22 47  1  0
 23 24  1  0
 23 25  1  0
 23 48  1  6
 24 49  1  0
 25 26  1  0
 25 50  1  1
 26 27  1  0
 26 28  1  0
 27 51  1  0
 27 52  1  0
 27 53  1  0
 28 54  1  0
 28 55  1  0
 28 56  1  0
M  END
>  <i_m_ct_stereo_status>  (171) 
1

>  <s_m_source_file>  (171) 
/var/tmp/pbs.5076255.sched01/tmpcdf8lnea/434bzo3qpq.sdf

>  <i_m_source_file_index>  (171) 
28

>  <i_lp_mmshare_version>  (171) 
48012

>  <i_f3d_flags>  (171) 
0

>  <s_epik_input>  (171) 
W0NIM11bQ0BASF0xW0NIMl1bQ0BAXTEyW0NASF0zW0NAQEhdKEMoXEMyPU8pPVtDSF1cW0NIM10pW0NAQEhdNFtDQEBIXTVbQ0BAXShbT0hdKShDKD1PKVtDQF0oQzU9TykoW0NIM10pW09IXSlbQ0BASF0oW09IXSlbQ0BIXTNDNChbQ0gzXSlbQ0gzXQ==

>  <s_epik_cmdline>  (171) 
J2VwaWtfcHl0aG9uJywgJy1waHQnLCAnMi4wJywgJy1waCcsICc3LjAnLCAnLXRuJywgJzgnLCAnLW1hJywgJzIwMCcsICctaW1hZScsICc8aW5maWxlLm1hZT4nLCAnLW9tYWUnLCAnPG91dGZpbGUubWFlPic=

>  <r_lp_tautomer_probability>  (171) 
1

>  <r_epik_Ionization_Penalty>  (171) 
6.87632e-07

>  <r_epik_Ionization_Penalty_Charging>  (171) 
0

>  <r_epik_Ionization_Penalty_Neutral>  (171) 
6.87632e-07

>  <r_epik_State_Penalty>  (171) 
-0

>  <r_epik_Charging_Adjusted_Penalty>  (171) 
0

>  <i_epik_Tot_Q>  (171) 
0

>  <i_epik_Tot_abs_Q>  (171) 
0

>  <s_lp_Force_Field>  (171) 
OPLS3e

>  <r_lp_Energy>  (171) 
46.0004

>  <b_lp_Chiralities_Consistent>  (171) 
1

>  <s_lp_Variant>  (171) 
54:0-2

>  <s_i_glide_gridfile>  (171) 
pfpi4k_grid

>  <i_i_glide_lignum>  (171) 
28

>  <i_i_glide_rotatable_bonds>  (171) 
3

>  <r_i_docking_score>  (171) 
-3.13261

>  <r_i_glide_ligand_efficiency>  (171) 
-0.111879

>  <r_i_glide_ligand_efficiency_sa>  (171) 
-0.339731

>  <r_i_glide_ligand_efficiency_ln>  (171) 
-0.723099

>  <r_i_glide_gscore>  (171) 
-3.13261

>  <r_i_glide_lipo>  (171) 
-0.0979057

>  <r_i_glide_hbond>  (171) 
0

>  <r_i_glide_metal>  (171) 
-0

>  <r_i_glide_rewards>  (171) 
-0.762454

>  <r_i_glide_evdw>  (171) 
-24.5463

>  <r_i_glide_ecoul>  (171) 
-6.89576

>  <r_i_glide_erotb>  (171) 
0

>  <r_i_glide_esite>  (171) 
-0.0105747

>  <r_i_glide_emodel>  (171) 
-35.9744

>  <r_i_glide_energy>  (171) 
-31.4421

>  <r_i_glide_einternal>  (171) 
2.46087

>  <r_i_glide_intrahb_reward>  (171) 
-0

>  <i_i_glide_confnum>  (171) 
2

>  <i_i_glide_posenum>  (171) 
28

>  <r_i_glide_eff_state_penalty>  (171) 
0

>  <ligand_id>  (171) 
54

>  <original_smiles>  (171) 
CC=C1C(=O)C2(CC2C)C2C1C1C3C(=O)C(C)(O)C(=O)C3(O)C(O)C2C1(C)C

>  <smiles>  (171) 
[H]OC1(C([H])([H])[H])C(=O)C2([H])C(O[H])(C1=O)C([H])(O[H])C1([H])C3([H])C([H])(C(=C([H])C([H])([H])[H])C(=O)C34C([H])([H])C4([H])C([H])([H])[H])C2([H])C1(C([H])([H])[H])C([H])([H])[H]

$$$$
55:0:0
     RDKit          3D

 51 55  0  0  1  0  0  0  0  0999 V2000
    2.2159   -3.6799   -3.2255 C   0  0  0  0  0  0  0  0  0  0  0  0
    3.5751   -3.4091   -2.9693 O   0  0  0  0  0  0  0  0  0  0  0  0
    3.8689   -2.6853   -1.8432 C   0  0  0  0  0  0  0  0  0  0  0  0
    5.0152   -1.8818   -1.9320 C   0  0  0  0  0  0  0  0  0  0  0  0
    5.3895   -1.0553   -0.8578 C   0  0  0  0  0  0  0  0  0  0  0  0
    4.6501   -1.0767    0.3274 C   0  0  0  0  0  0  0  0  0  0  0  0
    3.5272   -1.9158    0.4651 C   0  0  0  0  0  0  0  0  0  0  0  0
    3.1149   -2.7050   -0.6352 C   0  0  0  0  0  0  0  0  0  0  0  0
    2.7852   -1.8467    1.8091 C   0  0  1  0  0  0  0  0  0  0  0  0
    1.8205   -2.8747    2.0168 O   0  0  0  0  0  0  0  0  0  0  0  0
    2.3009   -4.2132    2.1199 C   0  0  0  0  0  0  0  0  0  0  0  0
    3.8504   -1.8138    2.9427 C   0  0  2  0  0  0  0  0  0  0  0  0
    3.2101   -1.8271    4.3375 C   0  0  0  0  0  0  0  0  0  0  0  0
    2.6465   -0.4153    4.4524 C   0  0  0  0  0  0  0  0  0  0  0  0
    2.9701    0.2110    3.0718 C   0  0  2  0  0  0  0  0  0  0  0  0
    2.7141    1.7228    3.0398 C   0  0  0  0  0  0  0  0  0  0  0  0
    1.2029    1.9924    3.2441 C   0  0  0  0  0  0  0  0  0  0  0  0
    0.3314    1.2484    2.2827 N   0  0  2  0  0  0  0  0  0  0  0  0
   -1.1082    1.4983    2.5388 C   0  0  0  0  0  0  0  0  0  0  0  0
    0.6471   -0.2112    2.1826 C   0  0  0  0  0  0  0  0  0  0  0  0
    2.1501   -0.4265    1.9473 C   0  0  2  0  0  0  0  0  0  0  0  0
    4.3675   -0.3799    2.8196 C   0  0  2  0  0  0  0  0  0  0  0  0
    5.0451   -0.1258    1.4468 C   0  0  0  0  0  0  0  0  0  0  0  0
    2.1938   -4.2921   -4.1251 H   0  0  0  0  0  0  0  0  0  0  0  0
    1.6666   -2.7574   -3.4182 H   0  0  0  0  0  0  0  0  0  0  0  0
    1.7414   -4.2405   -2.4178 H   0  0  0  0  0  0  0  0  0  0  0  0
    5.5689   -1.8737   -2.8555 H   0  0  0  0  0  0  0  0  0  0  0  0
    6.2089   -0.3716   -0.9424 H   0  0  0  0  0  0  0  0  0  0  0  0
    2.2331   -3.3250   -0.5464 H   0  0  0  0  0  0  0  0  0  0  0  0
    1.4522   -4.8944    2.0888 H   0  0  0  0  0  0  0  0  0  0  0  0
    2.8104   -4.3680    3.0669 H   0  0  0  0  0  0  0  0  0  0  0  0
    2.9792   -4.5044    1.3185 H   0  0  0  0  0  0  0  0  0  0  0  0
    4.6112   -2.5840    2.8345 H   0  0  0  0  0  0  0  0  0  0  0  0
    2.4361   -2.5854    4.4535 H   0  0  0  0  0  0  0  0  0  0  0  0
    3.9628   -1.9974    5.1075 H   0  0  0  0  0  0  0  0  0  0  0  0
    1.5918   -0.4271    4.7209 H   0  0  0  0  0  0  0  0  0  0  0  0
    3.1659    0.1295    5.2413 H   0  0  0  0  0  0  0  0  0  0  0  0
    3.2940    2.2379    3.8090 H   0  0  0  0  0  0  0  0  0  0  0  0
    3.0160    2.1373    2.0779 H   0  0  0  0  0  0  0  0  0  0  0  0
    0.9155    1.7312    4.2631 H   0  0  0  0  0  0  0  0  0  0  0  0
    1.0062    3.0590    3.1346 H   0  0  0  0  0  0  0  0  0  0  0  0
   -1.4191    1.1098    3.5131 H   0  0  0  0  0  0  0  0  0  0  0  0
   -1.7361    1.0289    1.7772 H   0  0  0  0  0  0  0  0  0  0  0  0
   -1.3243    2.5700    2.5270 H   0  0  0  0  0  0  0  0  0  0  0  0
    0.2771   -0.7586    3.0517 H   0  0  0  0  0  0  0  0  0  0  0  0
    0.1310   -0.5900    1.3105 H   0  0  0  0  0  0  0  0  0  0  0  0
    2.3384    0.1150    1.0163 H   0  0  0  0  0  0  0  0  0  0  0  0
    5.0431   -0.1032    3.6314 H   0  0  0  0  0  0  0  0  0  0  0  0
    6.1206   -0.2364    1.5850 H   0  0  0  0  0  0  0  0  0  0  0  0
    4.8409    0.8791    1.0626 H   0  0  0  0  0  0  0  0  0  0  0  0
    0.5067    1.6406    1.3673 H   0  0  0  0  0  0  0  0  0  0  0  0
  1  2  1  0
  1 24  1  0
  1 25  1  0
  1 26  1  0
  2  3  1  0
  3  8  2  0
  3  4  1  0
  4  5  2  0
  4 27  1  0
  5  6  1  0
  5 28  1  0
  6 23  1  0
  6  7  2  0
  7  8  1  0
  7  9  1  0
  8 29  1  0
  9 21  1  0
  9 10  1  1
  9 12  1  0
 10 11  1  0
 11 30  1  0
 11 31  1  0
 11 32  1  0
 12 22  1  0
 12 13  1  0
 12 33  1  1
 13 14  1  0
 13 34  1  0
 13 35  1  0
 15 14  1  1
 14 36  1  0
 14 37  1  0
 15 21  1  0
 15 16  1  0
 15 22  1  0
 16 17  1  0
 16 38  1  0
 16 39  1  0
 17 18  1  0
 17 40  1  0
 17 41  1  0
 18 19  1  0
 18 20  1  0
 18 51  1  6
 19 42  1  0
 19 43  1  0
 19 44  1  0
 20 21  1  0
 20 45  1  0
 20 46  1  0
 21 47  1  6
 22 23  1  0
 22 48  1  1
 23 49  1  0
 23 50  1  0
M  CHG  1  18   1
M  END
>  <i_m_ct_stereo_status>  (172) 
1

>  <s_m_source_file>  (172) 
/var/tmp/pbs.5076255.sched01/tmpcdf8lnea/434bzo3qpq.sdf

>  <i_m_source_file_index>  (172) 
29

>  <i_lp_mmshare_version>  (172) 
48012

>  <i_f3d_flags>  (172) 
0

>  <s_epik_input>  (172) 
W0NIM11PYyhbY0hdMSlbY0hdW2NIXWMoW0NIMl1bQ0BASF0yW0NASF0zW0NIMl1bQ0gyXTQpYzFbQ0BdMyhPW0NIM10pW0NASF0oW0NAXTI0NSlbQ0gyXU4oW0NIM10pW0NIMl1bQ0gyXTU=

>  <s_epik_cmdline>  (172) 
J2VwaWtfcHl0aG9uJywgJy1waHQnLCAnMi4wJywgJy1waCcsICc3LjAnLCAnLXRuJywgJzgnLCAnLW1hJywgJzIwMCcsICctaW1hZScsICc8aW5maWxlLm1hZT4nLCAnLW9tYWUnLCAnPG91dGZpbGUubWFlPic=

>  <r_lp_tautomer_probability>  (172) 
1

>  <r_epik_Ionization_Penalty>  (172) 
0.00239242

>  <r_epik_Ionization_Penalty_Charging>  (172) 
0.00239242

>  <r_epik_Ionization_Penalty_Neutral>  (172) 
1.24625e-12

>  <r_epik_State_Penalty>  (172) 
0.0016542

>  <r_epik_Charging_Adjusted_Penalty>  (172) 
0.00404662

>  <i_epik_Tot_Q>  (172) 
1

>  <i_epik_Tot_abs_Q>  (172) 
1

>  <s_lp_Force_Field>  (172) 
OPLS3e

>  <r_lp_Energy>  (172) 
83.1073

>  <b_lp_Chiralities_Consistent>  (172) 
1

>  <s_lp_Variant>  (172) 
55:0-1

>  <s_i_glide_gridfile>  (172) 
pfpi4k_grid

>  <i_i_glide_lignum>  (172) 
29

>  <i_i_glide_rotatable_bonds>  (172) 
2

>  <r_i_docking_score>  (172) 
-2.93684

>  <r_i_glide_ligand_efficiency>  (172) 
-0.127689

>  <r_i_glide_ligand_efficiency_sa>  (172) 
-0.363129

>  <r_i_glide_ligand_efficiency_ln>  (172) 
-0.710154

>  <r_i_glide_gscore>  (172) 
-2.93684

>  <r_i_glide_lipo>  (172) 
-0.389377

>  <r_i_glide_hbond>  (172) 
0

>  <r_i_glide_metal>  (172) 
-0

>  <r_i_glide_rewards>  (172) 
-1.26517

>  <r_i_glide_evdw>  (172) 
-18.0876

>  <r_i_glide_ecoul>  (172) 
-2.11114

>  <r_i_glide_erotb>  (172) 
0

>  <r_i_glide_esite>  (172) 
-0.0612406

>  <r_i_glide_emodel>  (172) 
-24.1005

>  <r_i_glide_energy>  (172) 
-20.1987

>  <r_i_glide_einternal>  (172) 
2.01822

>  <r_i_glide_intrahb_reward>  (172) 
-0

>  <i_i_glide_confnum>  (172) 
2

>  <i_i_glide_posenum>  (172) 
9

>  <r_i_glide_eff_state_penalty>  (172) 
0

>  <ligand_id>  (172) 
55

>  <original_smiles>  (172) 
COc1ccc2c(c1)C1(OC)C3CCC4(CCN(C)CC41)C3C2

>  <smiles>  (172) 
[H]c1c([H])c2c(c([H])c1OC([H])([H])[H])C1(OC([H])([H])[H])C3([H])C([H])([H])C([H])([H])C4(C([H])([H])C([H])([H])[N+]([H])(C([H])([H])[H])C([H])([H])C14[H])C3([H])C2([H])[H]

$$$$
55:0:1
     RDKit          3D

 51 55  0  0  1  0  0  0  0  0999 V2000
    3.9064   -3.5809   -1.0636 C   0  0  0  0  0  0  0  0  0  0  0  0
    4.0583   -3.0052    0.2252 O   0  0  0  0  0  0  0  0  0  0  0  0
    3.9063   -3.8150    1.3268 C   0  0  0  0  0  0  0  0  0  0  0  0
    3.9726   -3.1807    2.5859 C   0  0  0  0  0  0  0  0  0  0  0  0
    3.8197   -3.9191    3.7759 C   0  0  0  0  0  0  0  0  0  0  0  0
    3.6151   -5.3082    3.7192 C   0  0  0  0  0  0  0  0  0  0  0  0
    3.5841   -5.9711    2.4659 C   0  0  0  0  0  0  0  0  0  0  0  0
    3.6988   -5.2178    1.2723 C   0  0  0  0  0  0  0  0  0  0  0  0
    3.3751   -7.4908    2.4785 C   0  0  1  0  0  0  0  0  0  0  0  0
    3.5641   -8.1180    1.2135 O   0  0  0  0  0  0  0  0  0  0  0  0
    4.8983   -8.1806    0.7175 C   0  0  0  0  0  0  0  0  0  0  0  0
    4.2675   -8.0847    3.6102 C   0  0  2  0  0  0  0  0  0  0  0  0
    4.1773   -9.6182    3.6846 C   0  0  0  0  0  0  0  0  0  0  0  0
    2.7909   -9.8373    4.2827 C   0  0  0  0  0  0  0  0  0  0  0  0
    2.2273   -8.3969    4.4037 C   0  0  2  0  0  0  0  0  0  0  0  0
    0.9265   -8.3480    5.2180 C   0  0  0  0  0  0  0  0  0  0  0  0
   -0.1686   -9.1452    4.4664 C   0  0  0  0  0  0  0  0  0  0  0  0
   -0.3608   -8.7019    3.0506 N   0  0  2  0  0  0  0  0  0  0  0  0
   -1.3966   -9.4912    2.3588 C   0  0  0  0  0  0  0  0  0  0  0  0
    0.9017   -8.6012    2.2520 C   0  0  0  0  0  0  0  0  0  0  0  0
    1.9461   -7.7747    3.0283 C   0  0  2  0  0  0  0  0  0  0  0  0
    3.4940   -7.6407    4.8565 C   0  0  2  0  0  0  0  0  0  0  0  0
    3.4153   -6.0986    5.0127 C   0  0  0  0  0  0  0  0  0  0  0  0
    4.0548   -2.8108   -1.8206 H   0  0  0  0  0  0  0  0  0  0  0  0
    2.9023   -3.9831   -1.1970 H   0  0  0  0  0  0  0  0  0  0  0  0
    4.6425   -4.3640   -1.2473 H   0  0  0  0  0  0  0  0  0  0  0  0
    4.1283   -2.1135    2.6363 H   0  0  0  0  0  0  0  0  0  0  0  0
    3.8566   -3.4097    4.7295 H   0  0  0  0  0  0  0  0  0  0  0  0
    3.6440   -5.7301    0.3235 H   0  0  0  0  0  0  0  0  0  0  0  0
    4.8568   -8.5627   -0.2991 H   0  0  0  0  0  0  0  0  0  0  0  0
    5.5281   -8.8557    1.2934 H   0  0  0  0  0  0  0  0  0  0  0  0
    5.3939   -7.2118    0.6829 H   0  0  0  0  0  0  0  0  0  0  0  0
    5.2990   -7.7374    3.5745 H   0  0  0  0  0  0  0  0  0  0  0  0
    4.2829  -10.1105    2.7173 H   0  0  0  0  0  0  0  0  0  0  0  0
    4.9402  -10.0212    4.3509 H   0  0  0  0  0  0  0  0  0  0  0  0
    2.1980  -10.5216    3.6761 H   0  0  0  0  0  0  0  0  0  0  0  0
    2.8770  -10.2964    5.2706 H   0  0  0  0  0  0  0  0  0  0  0  0
    1.0733   -8.7602    6.2173 H   0  0  0  0  0  0  0  0  0  0  0  0
    0.6012   -7.3126    5.3415 H   0  0  0  0  0  0  0  0  0  0  0  0
    0.0633  -10.2099    4.4900 H   0  0  0  0  0  0  0  0  0  0  0  0
   -1.1098   -9.0346    5.0036 H   0  0  0  0  0  0  0  0  0  0  0  0
   -1.0553  -10.5151    2.2233 H   0  0  0  0  0  0  0  0  0  0  0  0
   -1.6114   -9.0818    1.3733 H   0  0  0  0  0  0  0  0  0  0  0  0
   -2.3280   -9.4951    2.9261 H   0  0  0  0  0  0  0  0  0  0  0  0
    1.2713   -9.5901    1.9837 H   0  0  0  0  0  0  0  0  0  0  0  0
    0.6726   -8.0982    1.3130 H   0  0  0  0  0  0  0  0  0  0  0  0
    1.4578   -6.8103    3.1846 H   0  0  0  0  0  0  0  0  0  0  0  0
    3.8807   -8.0827    5.7769 H   0  0  0  0  0  0  0  0  0  0  0  0
    4.2125   -5.7948    5.6891 H   0  0  0  0  0  0  0  0  0  0  0  0
    2.4830   -5.7968    5.4882 H   0  0  0  0  0  0  0  0  0  0  0  0
   -0.7286   -7.7621    3.1194 H   0  0  0  0  0  0  0  0  0  0  0  0
  1  2  1  0
  1 24  1  0
  1 25  1  0
  1 26  1  0
  2  3  1  0
  3  8  2  0
  3  4  1  0
  4  5  2  0
  4 27  1  0
  5  6  1  0
  5 28  1  0
  6 23  1  0
  6  7  2  0
  7  8  1  0
  7  9  1  0
  8 29  1  0
  9 21  1  0
  9 10  1  6
  9 12  1  0
 10 11  1  0
 11 30  1  0
 11 31  1  0
 11 32  1  0
 12 22  1  0
 12 13  1  0
 12 33  1  1
 13 14  1  0
 13 34  1  0
 13 35  1  0
 15 14  1  6
 14 36  1  0
 14 37  1  0
 15 21  1  0
 15 16  1  0
 15 22  1  0
 16 17  1  0
 16 38  1  0
 16 39  1  0
 17 18  1  0
 17 40  1  0
 17 41  1  0
 18 19  1  0
 18 20  1  0
 18 51  1  1
 19 42  1  0
 19 43  1  0
 19 44  1  0
 20 21  1  0
 20 45  1  0
 20 46  1  0
 21 47  1  1
 22 23  1  0
 22 48  1  1
 23 49  1  0
 23 50  1  0
M  CHG  1  18   1
M  END
>  <i_m_ct_stereo_status>  (173) 
1

>  <s_m_source_file>  (173) 
/var/tmp/pbs.5076255.sched01/tmpcdf8lnea/434bzo3qpq.sdf

>  <i_m_source_file_index>  (173) 
29

>  <i_lp_mmshare_version>  (173) 
48012

>  <i_f3d_flags>  (173) 
0

>  <s_epik_input>  (173) 
W0NIM11PYyhbY0hdMSlbY0hdW2NIXWMoW0NIMl1bQ0BASF0yW0NASF0zW0NIMl1bQ0gyXTQpYzFbQ0BdMyhPW0NIM10pW0NASF0oW0NAXTI0NSlbQ0gyXU4oW0NIM10pW0NIMl1bQ0gyXTU=

>  <s_epik_cmdline>  (173) 
J2VwaWtfcHl0aG9uJywgJy1waHQnLCAnMi4wJywgJy1waCcsICc3LjAnLCAnLXRuJywgJzgnLCAnLW1hJywgJzIwMCcsICctaW1hZScsICc8aW5maWxlLm1hZT4nLCAnLW9tYWUnLCAnPG91dGZpbGUubWFlPic=

>  <r_lp_tautomer_probability>  (173) 
1

>  <r_epik_Ionization_Penalty>  (173) 
0.00239242

>  <r_epik_Ionization_Penalty_Charging>  (173) 
0.00239242

>  <r_epik_Ionization_Penalty_Neutral>  (173) 
1.24625e-12

>  <r_epik_State_Penalty>  (173) 
0.0016542

>  <r_epik_Charging_Adjusted_Penalty>  (173) 
0.00404662

>  <i_epik_Tot_Q>  (173) 
1

>  <i_epik_Tot_abs_Q>  (173) 
1

>  <s_lp_Force_Field>  (173) 
OPLS3e

>  <r_lp_Energy>  (173) 
83.1073

>  <b_lp_Chiralities_Consistent>  (173) 
1

>  <s_lp_Variant>  (173) 
55:0-1

>  <s_i_glide_gridfile>  (173) 
pfpi4k_grid

>  <i_i_glide_lignum>  (173) 
29

>  <i_i_glide_rotatable_bonds>  (173) 
2

>  <r_i_docking_score>  (173) 
-2.83685

>  <r_i_glide_ligand_efficiency>  (173) 
-0.123341

>  <r_i_glide_ligand_efficiency_sa>  (173) 
-0.350766

>  <r_i_glide_ligand_efficiency_ln>  (173) 
-0.685975

>  <r_i_glide_gscore>  (173) 
-2.83685

>  <r_i_glide_lipo>  (173) 
-0.29235

>  <r_i_glide_hbond>  (173) 
0

>  <r_i_glide_metal>  (173) 
-0

>  <r_i_glide_rewards>  (173) 
-1.26517

>  <r_i_glide_evdw>  (173) 
-16.1071

>  <r_i_glide_ecoul>  (173) 
-2.89468

>  <r_i_glide_erotb>  (173) 
0

>  <r_i_glide_esite>  (173) 
-0.0397685

>  <r_i_glide_emodel>  (173) 
-23.9553

>  <r_i_glide_energy>  (173) 
-19.0018

>  <r_i_glide_einternal>  (173) 
0.0550976

>  <r_i_glide_intrahb_reward>  (173) 
-0

>  <i_i_glide_confnum>  (173) 
1

>  <i_i_glide_posenum>  (173) 
18

>  <r_i_glide_eff_state_penalty>  (173) 
0

>  <ligand_id>  (173) 
55

>  <original_smiles>  (173) 
COc1ccc2c(c1)C1(OC)C3CCC4(CCN(C)CC41)C3C2

>  <smiles>  (173) 
[H]c1c([H])c2c(c([H])c1OC([H])([H])[H])C1(OC([H])([H])[H])C3([H])C([H])([H])C([H])([H])C4(C([H])([H])C([H])([H])[N+]([H])(C([H])([H])[H])C([H])([H])C14[H])C3([H])C2([H])[H]

$$$$
55:0:2
     RDKit          3D

 51 55  0  0  1  0  0  0  0  0999 V2000
    1.9217   -5.0397    8.5982 C   0  0  0  0  0  0  0  0  0  0  0  0
    0.7966   -5.0634    7.7334 O   0  0  0  0  0  0  0  0  0  0  0  0
    0.7531   -6.0184    6.7403 C   0  0  0  0  0  0  0  0  0  0  0  0
   -0.3754   -5.9883    5.8976 C   0  0  0  0  0  0  0  0  0  0  0  0
   -0.5220   -6.9207    4.8517 C   0  0  0  0  0  0  0  0  0  0  0  0
    0.4663   -7.9004    4.6408 C   0  0  0  0  0  0  0  0  0  0  0  0
    1.5959   -7.9649    5.4962 C   0  0  0  0  0  0  0  0  0  0  0  0
    1.7465   -7.0078    6.5283 C   0  0  0  0  0  0  0  0  0  0  0  0
    2.6372   -9.0599    5.2183 C   0  0  1  0  0  0  0  0  0  0  0  0
    3.6371   -9.1840    6.2361 O   0  0  0  0  0  0  0  0  0  0  0  0
    3.2299   -9.7906    7.4640 C   0  0  0  0  0  0  0  0  0  0  0  0
    1.8617  -10.3788    4.9127 C   0  0  2  0  0  0  0  0  0  0  0  0
    2.8010  -11.5690    4.6569 C   0  0  0  0  0  0  0  0  0  0  0  0
    3.3624  -11.2556    3.2747 C   0  0  0  0  0  0  0  0  0  0  0  0
    2.7312   -9.8782    2.9403 C   0  0  2  0  0  0  0  0  0  0  0  0
    2.9618   -9.4675    1.4803 C   0  0  0  0  0  0  0  0  0  0  0  0
    4.4795   -9.2859    1.2374 C   0  0  0  0  0  0  0  0  0  0  0  0
    5.1188   -8.3327    2.1967 N   0  0  2  0  0  0  0  0  0  0  0  0
    6.5733   -8.2010    1.9491 C   0  0  0  0  0  0  0  0  0  0  0  0
    4.8100   -8.6036    3.6375 C   0  0  0  0  0  0  0  0  0  0  0  0
    3.2869   -8.7588    3.8324 C   0  0  2  0  0  0  0  0  0  0  0  0
    1.3129  -10.0821    3.5105 C   0  0  2  0  0  0  0  0  0  0  0  0
    0.3219   -8.8865    3.4794 C   0  0  0  0  0  0  0  0  0  0  0  0
    1.8016   -4.2319    9.3209 H   0  0  0  0  0  0  0  0  0  0  0  0
    2.8429   -4.8516    8.0460 H   0  0  0  0  0  0  0  0  0  0  0  0
    2.0145   -5.9696    9.1602 H   0  0  0  0  0  0  0  0  0  0  0  0
   -1.1429   -5.2492    6.0733 H   0  0  0  0  0  0  0  0  0  0  0  0
   -1.3989   -6.8876    4.2201 H   0  0  0  0  0  0  0  0  0  0  0  0
    2.6262   -7.0531    7.1534 H   0  0  0  0  0  0  0  0  0  0  0  0
    4.0422   -9.7181    8.1868 H   0  0  0  0  0  0  0  0  0  0  0  0
    3.0167  -10.8504    7.3492 H   0  0  0  0  0  0  0  0  0  0  0  0
    2.3495   -9.3209    7.9016 H   0  0  0  0  0  0  0  0  0  0  0  0
    1.0973  -10.6169    5.6525 H   0  0  0  0  0  0  0  0  0  0  0  0
    3.5917  -11.6719    5.3978 H   0  0  0  0  0  0  0  0  0  0  0  0
    2.2422  -12.5050    4.6443 H   0  0  0  0  0  0  0  0  0  0  0  0
    4.4507  -11.2815    3.2701 H   0  0  0  0  0  0  0  0  0  0  0  0
    3.0324  -12.0115    2.5587 H   0  0  0  0  0  0  0  0  0  0  0  0
    2.5676  -10.2205    0.7995 H   0  0  0  0  0  0  0  0  0  0  0  0
    2.4377   -8.5354    1.2635 H   0  0  0  0  0  0  0  0  0  0  0  0
    4.9889  -10.2499    1.2908 H   0  0  0  0  0  0  0  0  0  0  0  0
    4.6279   -8.9204    0.2212 H   0  0  0  0  0  0  0  0  0  0  0  0
    7.0917   -9.1398    2.1426 H   0  0  0  0  0  0  0  0  0  0  0  0
    7.0115   -7.4341    2.5885 H   0  0  0  0  0  0  0  0  0  0  0  0
    6.7723   -7.9187    0.9146 H   0  0  0  0  0  0  0  0  0  0  0  0
    5.3612   -9.4720    3.9956 H   0  0  0  0  0  0  0  0  0  0  0  0
    5.1617   -7.7571    4.2268 H   0  0  0  0  0  0  0  0  0  0  0  0
    2.8826   -7.8082    3.4776 H   0  0  0  0  0  0  0  0  0  0  0  0
    0.8434  -10.9521    3.0456 H   0  0  0  0  0  0  0  0  0  0  0  0
   -0.6883   -9.2917    3.5336 H   0  0  0  0  0  0  0  0  0  0  0  0
    0.3838   -8.3520    2.5319 H   0  0  0  0  0  0  0  0  0  0  0  0
    4.7138   -7.4295    1.9928 H   0  0  0  0  0  0  0  0  0  0  0  0
  1  2  1  0
  1 24  1  0
  1 25  1  0
  1 26  1  0
  2  3  1  0
  3  8  2  0
  3  4  1  0
  4  5  2  0
  4 27  1  0
  5  6  1  0
  5 28  1  0
  6 23  1  0
  6  7  2  0
  7  8  1  0
  7  9  1  0
  8 29  1  0
  9 21  1  0
  9 10  1  1
  9 12  1  0
 10 11  1  0
 11 30  1  0
 11 31  1  0
 11 32  1  0
 12 22  1  0
 12 13  1  0
 12 33  1  1
 13 14  1  0
 13 34  1  0
 13 35  1  0
 15 14  1  1
 14 36  1  0
 14 37  1  0
 15 21  1  0
 15 16  1  0
 15 22  1  0
 16 17  1  0
 16 38  1  0
 16 39  1  0
 17 18  1  0
 17 40  1  0
 17 41  1  0
 18 19  1  0
 18 20  1  0
 18 51  1  6
 19 42  1  0
 19 43  1  0
 19 44  1  0
 20 21  1  0
 20 45  1  0
 20 46  1  0
 21 47  1  6
 22 23  1  0
 22 48  1  6
 23 49  1  0
 23 50  1  0
M  CHG  1  18   1
M  END
>  <i_m_ct_stereo_status>  (174) 
1

>  <s_m_source_file>  (174) 
/var/tmp/pbs.5076255.sched01/tmpcdf8lnea/434bzo3qpq.sdf

>  <i_m_source_file_index>  (174) 
29

>  <i_lp_mmshare_version>  (174) 
48012

>  <i_f3d_flags>  (174) 
0

>  <s_epik_input>  (174) 
W0NIM11PYyhbY0hdMSlbY0hdW2NIXWMoW0NIMl1bQ0BASF0yW0NASF0zW0NIMl1bQ0gyXTQpYzFbQ0BdMyhPW0NIM10pW0NASF0oW0NAXTI0NSlbQ0gyXU4oW0NIM10pW0NIMl1bQ0gyXTU=

>  <s_epik_cmdline>  (174) 
J2VwaWtfcHl0aG9uJywgJy1waHQnLCAnMi4wJywgJy1waCcsICc3LjAnLCAnLXRuJywgJzgnLCAnLW1hJywgJzIwMCcsICctaW1hZScsICc8aW5maWxlLm1hZT4nLCAnLW9tYWUnLCAnPG91dGZpbGUubWFlPic=

>  <r_lp_tautomer_probability>  (174) 
1

>  <r_epik_Ionization_Penalty>  (174) 
0.00239242

>  <r_epik_Ionization_Penalty_Charging>  (174) 
0.00239242

>  <r_epik_Ionization_Penalty_Neutral>  (174) 
1.24625e-12

>  <r_epik_State_Penalty>  (174) 
0.0016542

>  <r_epik_Charging_Adjusted_Penalty>  (174) 
0.00404662

>  <i_epik_Tot_Q>  (174) 
1

>  <i_epik_Tot_abs_Q>  (174) 
1

>  <s_lp_Force_Field>  (174) 
OPLS3e

>  <r_lp_Energy>  (174) 
83.1073

>  <b_lp_Chiralities_Consistent>  (174) 
1

>  <s_lp_Variant>  (174) 
55:0-1

>  <s_i_glide_gridfile>  (174) 
pfpi4k_grid

>  <i_i_glide_lignum>  (174) 
29

>  <i_i_glide_rotatable_bonds>  (174) 
2

>  <r_i_docking_score>  (174) 
-2.573

>  <r_i_glide_ligand_efficiency>  (174) 
-0.11187

>  <r_i_glide_ligand_efficiency_sa>  (174) 
-0.318143

>  <r_i_glide_ligand_efficiency_ln>  (174) 
-0.622176

>  <r_i_glide_gscore>  (174) 
-2.573

>  <r_i_glide_lipo>  (174) 
-0.1492

>  <r_i_glide_hbond>  (174) 
0

>  <r_i_glide_metal>  (174) 
-0

>  <r_i_glide_rewards>  (174) 
-1.26517

>  <r_i_glide_evdw>  (174) 
-16.4881

>  <r_i_glide_ecoul>  (174) 
-2.22819

>  <r_i_glide_erotb>  (174) 
0

>  <r_i_glide_esite>  (174) 
0

>  <r_i_glide_emodel>  (174) 
-23.1555

>  <r_i_glide_energy>  (174) 
-18.7163

>  <r_i_glide_einternal>  (174) 
0.10501

>  <r_i_glide_intrahb_reward>  (174) 
-0

>  <i_i_glide_confnum>  (174) 
2

>  <i_i_glide_posenum>  (174) 
17

>  <r_i_glide_eff_state_penalty>  (174) 
0

>  <ligand_id>  (174) 
55

>  <original_smiles>  (174) 
COc1ccc2c(c1)C1(OC)C3CCC4(CCN(C)CC41)C3C2

>  <smiles>  (174) 
[H]c1c([H])c2c(c([H])c1OC([H])([H])[H])C1(OC([H])([H])[H])C3([H])C([H])([H])C([H])([H])C4(C([H])([H])C([H])([H])[N+]([H])(C([H])([H])[H])C([H])([H])C14[H])C3([H])C2([H])[H]

$$$$
56:1:0
     RDKit          3D

 72 78  0  0  1  0  0  0  0  0999 V2000
    7.0296   -5.8537    3.0013 C   0  0  0  0  0  0  0  0  0  0  0  0
    5.9339   -5.0910    2.9400 C   0  0  0  0  0  0  0  0  0  0  0  0
    5.1498   -4.6833    4.1387 C   0  0  0  0  0  0  0  0  0  0  0  0
    4.6001   -5.6396    4.8701 C   0  0  0  0  0  0  0  0  0  0  0  0
    3.5592   -5.1675    5.8415 C   0  0  0  0  0  0  0  0  0  0  0  0
    3.3679   -3.6849    5.4679 C   0  0  1  0  0  0  0  0  0  0  0  0
    3.3426   -2.8871    6.8051 C   0  0  0  0  0  0  0  0  0  0  0  0
    4.6329   -3.2862    4.6396 C   0  0  2  0  0  0  0  0  0  0  0  0
    4.0657   -2.0063    3.8800 C   0  0  1  0  0  0  0  0  0  0  0  0
    4.6009   -0.7277    4.5597 C   0  0  0  0  0  0  0  0  0  0  0  0
    4.2982   -1.7663    2.4676 O   0  0  0  0  0  0  0  0  0  0  0  0
    2.9261   -1.8268    2.0987 C   0  0  1  0  0  0  0  0  0  0  0  0
    2.4697   -0.5556    1.6904 O   0  0  0  0  0  0  0  0  0  0  0  0
    2.7923   -2.7213    0.7773 C   0  0  0  0  0  0  0  0  0  0  0  0
    4.0042   -2.9008   -0.3183 C   0  0  2  0  0  0  0  0  0  0  0  0
    3.5214   -2.1608   -1.5395 N   0  0  0  0  0  0  0  0  0  0  0  0
    4.2347   -0.8918   -1.8152 C   0  0  0  0  0  0  0  0  0  0  0  0
    3.7124   -0.2107   -3.0998 C   0  0  0  0  0  0  0  0  0  0  0  0
    3.7881   -1.1204   -4.1825 O   0  0  0  0  0  0  0  0  0  0  0  0
    2.9138   -2.2267   -3.9854 C   0  0  0  0  0  0  0  0  0  0  0  0
    3.3789   -3.0090   -2.7552 C   0  0  0  0  0  0  0  0  0  0  0  0
    4.8148   -4.2739   -0.7700 C   0  0  1  0  0  0  0  0  0  0  0  0
    5.9515   -3.3090   -1.1492 C   0  0  0  0  0  0  0  0  0  0  0  0
    5.4654   -2.5822    0.1137 C   0  0  2  0  0  0  0  0  0  0  0  0
    6.0125   -3.3237    1.3556 C   0  0  0  0  0  0  0  0  0  0  0  0
    5.3234   -4.7110    1.6146 C   0  0  2  0  0  0  0  0  0  0  0  0
    3.8443   -5.1273    1.8105 C   0  0  0  0  0  0  0  0  0  0  0  0
    5.4695   -5.3446    0.2247 C   0  0  0  0  0  0  0  0  0  0  0  0
    2.5726   -2.1054    3.6435 C   0  0  1  0  0  0  0  0  0  0  0  0
    2.1172   -3.3254    4.5272 C   0  0  1  0  0  0  0  0  0  0  0  0
    1.3509   -4.4837    3.8222 C   0  0  0  0  0  0  0  0  0  0  0  0
    1.0683   -2.7995    5.3299 O   0  0  0  0  0  0  0  0  0  0  0  0
    7.5376   -6.1665    2.0946 H   0  0  0  0  0  0  0  0  0  0  0  0
    7.4469   -6.1786    3.9401 H   0  0  0  0  0  0  0  0  0  0  0  0
    4.7899   -6.6964    4.7165 H   0  0  0  0  0  0  0  0  0  0  0  0
    2.6553   -5.7670    5.7712 H   0  0  0  0  0  0  0  0  0  0  0  0
    3.9782   -5.3087    6.8387 H   0  0  0  0  0  0  0  0  0  0  0  0
    3.0221   -1.8570    6.6751 H   0  0  0  0  0  0  0  0  0  0  0  0
    4.3286   -2.8749    7.2677 H   0  0  0  0  0  0  0  0  0  0  0  0
    2.6530   -3.3448    7.5230 H   0  0  0  0  0  0  0  0  0  0  0  0
    5.4520   -2.9701    5.2942 H   0  0  0  0  0  0  0  0  0  0  0  0
    4.5083   -0.7526    5.6351 H   0  0  0  0  0  0  0  0  0  0  0  0
    4.0732    0.1667    4.2153 H   0  0  0  0  0  0  0  0  0  0  0  0
    5.6607   -0.5839    4.3467 H   0  0  0  0  0  0  0  0  0  0  0  0
    1.8016   -0.6616    1.0267 H   0  0  0  0  0  0  0  0  0  0  0  0
    2.1939   -3.5935    0.9907 H   0  0  0  0  0  0  0  0  0  0  0  0
    1.9584   -2.2841    0.2441 H   0  0  0  0  0  0  0  0  0  0  0  0
    4.1059   -0.2140   -0.9526 H   0  0  0  0  0  0  0  0  0  0  0  0
    5.2856   -1.0415   -1.9695 H   0  0  0  0  0  0  0  0  0  0  0  0
    2.6747    0.1309   -3.0201 H   0  0  0  0  0  0  0  0  0  0  0  0
    4.3485    0.6516   -3.3214 H   0  0  0  0  0  0  0  0  0  0  0  0
    1.8600   -1.9168   -3.9471 H   0  0  0  0  0  0  0  0  0  0  0  0
    3.0082   -2.8970   -4.8448 H   0  0  0  0  0  0  0  0  0  0  0  0
    4.3407   -3.4664   -3.0121 H   0  0  0  0  0  0  0  0  0  0  0  0
    2.6601   -3.8243   -2.5772 H   0  0  0  0  0  0  0  0  0  0  0  0
    4.3741   -4.7754   -1.6322 H   0  0  0  0  0  0  0  0  0  0  0  0
    6.9618   -3.7190   -1.0333 H   0  0  0  0  0  0  0  0  0  0  0  0
    5.8168   -2.8012   -2.0914 H   0  0  0  0  0  0  0  0  0  0  0  0
    5.7048   -1.5262    0.1587 H   0  0  0  0  0  0  0  0  0  0  0  0
    7.0661   -3.5406    1.1504 H   0  0  0  0  0  0  0  0  0  0  0  0
    6.2103   -2.7201    2.2437 H   0  0  0  0  0  0  0  0  0  0  0  0
    3.2357   -5.2892    0.9205 H   0  0  0  0  0  0  0  0  0  0  0  0
    3.3693   -4.4114    2.4471 H   0  0  0  0  0  0  0  0  0  0  0  0
    3.7768   -6.1097    2.2899 H   0  0  0  0  0  0  0  0  0  0  0  0
    4.9965   -6.3277    0.1352 H   0  0  0  0  0  0  0  0  0  0  0  0
    6.5210   -5.5470    0.0061 H   0  0  0  0  0  0  0  0  0  0  0  0
    2.1074   -1.1890    4.0126 H   0  0  0  0  0  0  0  0  0  0  0  0
    1.9639   -5.3471    3.5938 H   0  0  0  0  0  0  0  0  0  0  0  0
    0.8776   -4.1456    2.8958 H   0  0  0  0  0  0  0  0  0  0  0  0
    0.5620   -4.8942    4.4494 H   0  0  0  0  0  0  0  0  0  0  0  0
    0.3958   -2.4594    4.7581 H   0  0  0  0  0  0  0  0  0  0  0  0
    2.5757   -1.8815   -1.3288 H   0  0  0  0  0  0  0  0  0  0  0  0
  1  2  2  0
  1 33  1  0
  1 34  1  0
  2 26  1  0
  2  3  1  0
  3  8  1  0
  3  4  2  0
  4  5  1  0
  4 35  1  0
  5  6  1  0
  5 36  1  0
  5 37  1  0
  6 30  1  0
  6  7  1  1
  6  8  1  0
  7 38  1  0
  7 39  1  0
  7 40  1  0
  8  9  1  0
  8 41  1  1
  9 29  1  0
  9 10  1  1
  9 11  1  0
 10 42  1  0
 10 43  1  0
 10 44  1  0
 11 12  1  0
 12 13  1  6
 12 14  1  0
 12 29  1  0
 13 45  1  0
 14 15  1  0
 14 46  1  0
 14 47  1  0
 15 24  1  0
 15 16  1  6
 15 22  1  0
 16 21  1  0
 16 17  1  0
 16 72  1  0
 17 18  1  0
 17 48  1  0
 17 49  1  0
 18 19  1  0
 18 50  1  0
 18 51  1  0
 19 20  1  0
 20 21  1  0
 20 52  1  0
 20 53  1  0
 21 54  1  0
 21 55  1  0
 22 28  1  0
 22 23  1  0
 22 56  1  6
 23 24  1  0
 23 57  1  0
 23 58  1  0
 24 25  1  0
 24 59  1  6
 25 26  1  0
 25 60  1  0
 25 61  1  0
 26 27  1  1
 26 28  1  0
 27 62  1  0
 27 63  1  0
 27 64  1  0
 28 65  1  0
 28 66  1  0
 29 30  1  0
 29 67  1  1
 30 31  1  0
 30 32  1  1
 31 68  1  0
 31 69  1  0
 31 70  1  0
 32 71  1  0
M  CHG  1  16   1
M  END
>  <i_m_ct_stereo_status>  (175) 
1

>  <s_m_source_file>  (175) 
/var/tmp/pbs.5076255.sched01/tmpcdf8lnea/434bzo3qpq.sdf

>  <i_m_source_file_index>  (175) 
31

>  <i_lp_mmshare_version>  (175) 
48012

>  <i_f3d_flags>  (175) 
1

>  <s_epik_input>  (175) 
W0NIM11bQ0BAXTEyW0NASF0zQyg9W0NIXVtDSDJdMSlDKD1bQ0gyXSlbQ0BAXTQoW0NIM10pW0NIMl1bQ0BASF01W0NAXShbQ0BASF0oW0NIMl01KVtDSDJdNCkoW0NIMl1bQ0BAXTYoW09IXSlbQ0BIXShbQ0BAXTMoTzYpW0NIM10pW0NAXTIoW0NIM10pW09IXSlON1tDSDJdW0NIMl1PW0NIMl1bQ0gyXTc=

>  <s_epik_cmdline>  (175) 
J2VwaWtfcHl0aG9uJywgJy1waHQnLCAnMi4wJywgJy1waCcsICc3LjAnLCAnLXRuJywgJzgnLCAnLW1hJywgJzIwMCcsICctaW1hZScsICc8aW5maWxlLm1hZT4nLCAnLW9tYWUnLCAnPG91dGZpbGUubWFlPic=

>  <r_epik_Ionization_Penalty>  (175) 
0.242916

>  <r_epik_Ionization_Penalty_Charging>  (175) 
0.242914

>  <r_epik_Ionization_Penalty_Neutral>  (175) 
1.45257e-06

>  <r_epik_State_Penalty>  (175) 
0.233966

>  <r_epik_Charging_Adjusted_Penalty>  (175) 
0.47688

>  <i_epik_Tot_Q>  (175) 
1

>  <i_epik_Tot_abs_Q>  (175) 
1

>  <s_lp_Force_Field>  (175) 
OPLS3e

>  <r_lp_Energy>  (175) 
196.446

>  <b_lp_Chiralities_Consistent>  (175) 
1

>  <s_lp_Variant>  (175) 
56:0-2

>  <s_i_glide_gridfile>  (175) 
pfpi4k_grid

>  <i_i_glide_lignum>  (175) 
31

>  <i_i_glide_rotatable_bonds>  (175) 
3

>  <r_i_docking_score>  (175) 
-3.65793

>  <r_i_glide_ligand_efficiency>  (175) 
-0.11431

>  <r_i_glide_ligand_efficiency_sa>  (175) 
-0.362912

>  <r_i_glide_ligand_efficiency_ln>  (175) 
-0.819109

>  <r_i_glide_gscore>  (175) 
-3.65793

>  <r_i_glide_lipo>  (175) 
-0.648177

>  <r_i_glide_hbond>  (175) 
-0.202913

>  <r_i_glide_metal>  (175) 
-0

>  <r_i_glide_rewards>  (175) 
-0.39129

>  <r_i_glide_evdw>  (175) 
-21.4895

>  <r_i_glide_ecoul>  (175) 
-9.12936

>  <r_i_glide_erotb>  (175) 
0.102013

>  <r_i_glide_esite>  (175) 
-0.0736819

>  <r_i_glide_emodel>  (175) 
-25.2703

>  <r_i_glide_energy>  (175) 
-30.6188

>  <r_i_glide_einternal>  (175) 
21.3049

>  <r_i_glide_intrahb_reward>  (175) 
-0

>  <i_i_glide_confnum>  (175) 
4

>  <i_i_glide_posenum>  (175) 
3

>  <r_i_glide_eff_state_penalty>  (175) 
0

>  <ligand_id>  (175) 
56

>  <original_smiles>  (175) 
C=C1C2=CCC3(C)C2C2(C)OC(O)(CC4(N5CCOCC5)C5CC4CC1(C)C5)C2C3(C)O

>  <smiles>  (175) 
[H]OC12OC3(C([H])([H])[H])C4([H])C(=C([H])C([H])([H])C4(C([H])([H])[H])C(O[H])(C([H])([H])[H])C13[H])C(=C([H])[H])C1(C([H])([H])[H])C([H])([H])C3([H])C([H])([H])C([H])(C1([H])[H])C3([N+]1([H])C([H])([H])C([H])([H])OC([H])([H])C1([H])[H])C2([H])[H]

$$$$
56:1:1
     RDKit          3D

 72 78  0  0  1  0  0  0  0  0999 V2000
    6.8843   -5.8531    3.2349 C   0  0  0  0  0  0  0  0  0  0  0  0
    5.7988   -5.0850    3.1456 C   0  0  0  0  0  0  0  0  0  0  0  0
    4.9910   -4.6594    4.3263 C   0  0  0  0  0  0  0  0  0  0  0  0
    4.4229   -5.6100    5.0569 C   0  0  0  0  0  0  0  0  0  0  0  0
    3.3666   -5.1246    6.0042 C   0  0  0  0  0  0  0  0  0  0  0  0
    3.1893   -3.6428    5.6169 C   0  0  1  0  0  0  0  0  0  0  0  0
    3.1450   -2.8343    6.9462 C   0  0  0  0  0  0  0  0  0  0  0  0
    4.4711   -3.2567    4.8068 C   0  0  2  0  0  0  0  0  0  0  0  0
    3.9232   -1.9818    4.0246 C   0  0  1  0  0  0  0  0  0  0  0  0
    4.4540   -0.7002    4.7033 C   0  0  0  0  0  0  0  0  0  0  0  0
    4.1817   -1.7569    2.6159 O   0  0  0  0  0  0  0  0  0  0  0  0
    2.8129   -1.8171    2.2216 C   0  0  1  0  0  0  0  0  0  0  0  0
    2.3782   -0.5468    1.7899 O   0  0  0  0  0  0  0  0  0  0  0  0
    2.6964   -2.7356    0.9096 C   0  0  0  0  0  0  0  0  0  0  0  0
    3.9275   -2.9213   -0.1683 C   0  0  2  0  0  0  0  0  0  0  0  0
    3.4651   -2.1780   -1.4044 N   0  0  0  0  0  0  0  0  0  0  0  0
    4.1920   -0.9188   -1.6772 C   0  0  0  0  0  0  0  0  0  0  0  0
    3.7119   -0.2414   -2.9736 C   0  0  0  0  0  0  0  0  0  0  0  0
    3.8000   -1.1568   -4.0454 O   0  0  0  0  0  0  0  0  0  0  0  0
    2.9191   -2.2579   -3.8673 C   0  0  0  0  0  0  0  0  0  0  0  0
    3.3512   -3.0285   -2.6210 C   0  0  0  0  0  0  0  0  0  0  0  0
    4.7446   -4.2998   -0.5979 C   0  0  1  0  0  0  0  0  0  0  0  0
    5.8920   -3.3423   -0.9580 C   0  0  0  0  0  0  0  0  0  0  0  0
    5.3873   -2.6018    0.2880 C   0  0  2  0  0  0  0  0  0  0  0  0
    5.9093   -3.3321    1.5456 C   0  0  0  0  0  0  0  0  0  0  0  0
    5.2117   -4.7135    1.8013 C   0  0  2  0  0  0  0  0  0  0  0  0
    3.7282   -5.1221    1.9804 C   0  0  0  0  0  0  0  0  0  0  0  0
    5.3775   -5.3625    0.4177 C   0  0  0  0  0  0  0  0  0  0  0  0
    2.4308   -2.0762    3.7651 C   0  0  1  0  0  0  0  0  0  0  0  0
    1.9556   -3.2851    4.6512 C   0  0  1  0  0  0  0  0  0  0  0  0
    1.1973   -4.4454    3.9408 C   0  0  0  0  0  0  0  0  0  0  0  0
    0.8950   -2.7687    5.4408 O   0  0  0  0  0  0  0  0  0  0  0  0
    7.4069   -6.1777    2.3398 H   0  0  0  0  0  0  0  0  0  0  0  0
    7.2824   -6.1742    4.1850 H   0  0  0  0  0  0  0  0  0  0  0  0
    4.6076   -6.6673    4.9146 H   0  0  0  0  0  0  0  0  0  0  0  0
    2.4603   -5.7198    5.9222 H   0  0  0  0  0  0  0  0  0  0  0  0
    3.7655   -5.2585    7.0098 H   0  0  0  0  0  0  0  0  0  0  0  0
    2.8336   -1.8030    6.8006 H   0  0  0  0  0  0  0  0  0  0  0  0
    4.1233   -2.8220    7.4248 H   0  0  0  0  0  0  0  0  0  0  0  0
    2.4431   -3.2803    7.6578 H   0  0  0  0  0  0  0  0  0  0  0  0
    5.2794   -2.9400    5.4722 H   0  0  0  0  0  0  0  0  0  0  0  0
    4.3424   -0.7146    5.7792 H   0  0  0  0  0  0  0  0  0  0  0  0
    3.9383    0.1942    4.3424 H   0  0  0  0  0  0  0  0  0  0  0  0
    5.5191   -0.5649    4.5094 H   0  0  0  0  0  0  0  0  0  0  0  0
    1.7591   -0.6502    1.0776 H   0  0  0  0  0  0  0  0  0  0  0  0
    2.1094   -3.6090    1.1378 H   0  0  0  0  0  0  0  0  0  0  0  0
    1.8407   -2.3894    0.3579 H   0  0  0  0  0  0  0  0  0  0  0  0
    4.0523   -0.2421   -0.8215 H   0  0  0  0  0  0  0  0  0  0  0  0
    5.2512   -1.0715   -1.8050 H   0  0  0  0  0  0  0  0  0  0  0  0
    2.6848    0.1344   -2.9163 H   0  0  0  0  0  0  0  0  0  0  0  0
    4.3649    0.6091   -3.1873 H   0  0  0  0  0  0  0  0  0  0  0  0
    1.8690   -1.9486   -3.8486 H   0  0  0  0  0  0  0  0  0  0  0  0
    3.0240   -2.9294   -4.7276 H   0  0  0  0  0  0  0  0  0  0  0  0
    4.3122   -3.4984   -2.8546 H   0  0  0  0  0  0  0  0  0  0  0  0
    2.6223   -3.8331   -2.4456 H   0  0  0  0  0  0  0  0  0  0  0  0
    4.3179   -4.8048   -1.4661 H   0  0  0  0  0  0  0  0  0  0  0  0
    6.8962   -3.7535   -0.8225 H   0  0  0  0  0  0  0  0  0  0  0  0
    5.7834   -2.8407   -1.9075 H   0  0  0  0  0  0  0  0  0  0  0  0
    5.6322   -1.5455    0.3277 H   0  0  0  0  0  0  0  0  0  0  0  0
    6.9637   -3.5551    1.3624 H   0  0  0  0  0  0  0  0  0  0  0  0
    6.0914   -2.7226    2.4302 H   0  0  0  0  0  0  0  0  0  0  0  0
    3.1341   -5.2888    1.0806 H   0  0  0  0  0  0  0  0  0  0  0  0
    3.2458   -4.3992    2.6047 H   0  0  0  0  0  0  0  0  0  0  0  0
    3.6429   -6.0990    2.4668 H   0  0  0  0  0  0  0  0  0  0  0  0
    4.9016   -6.3428    0.3346 H   0  0  0  0  0  0  0  0  0  0  0  0
    6.4287   -5.5729    0.2103 H   0  0  0  0  0  0  0  0  0  0  0  0
    1.9585   -1.1565    4.1200 H   0  0  0  0  0  0  0  0  0  0  0  0
    1.8099   -5.3133    3.7278 H   0  0  0  0  0  0  0  0  0  0  0  0
    0.7426   -4.1070    3.0070 H   0  0  0  0  0  0  0  0  0  0  0  0
    0.3904   -4.8505    4.5498 H   0  0  0  0  0  0  0  0  0  0  0  0
    0.6356   -3.4448    6.0494 H   0  0  0  0  0  0  0  0  0  0  0  0
    2.5143   -1.8861   -1.2080 H   0  0  0  0  0  0  0  0  0  0  0  0
  1  2  2  0
  1 33  1  0
  1 34  1  0
  2 26  1  0
  2  3  1  0
  3  8  1  0
  3  4  2  0
  4  5  1  0
  4 35  1  0
  5  6  1  0
  5 36  1  0
  5 37  1  0
  6 30  1  0
  6  7  1  1
  6  8  1  0
  7 38  1  0
  7 39  1  0
  7 40  1  0
  8  9  1  0
  8 41  1  1
  9 29  1  0
  9 10  1  1
  9 11  1  0
 10 42  1  0
 10 43  1  0
 10 44  1  0
 11 12  1  0
 12 13  1  6
 12 14  1  0
 12 29  1  0
 13 45  1  0
 14 15  1  0
 14 46  1  0
 14 47  1  0
 15 24  1  0
 15 16  1  6
 15 22  1  0
 16 21  1  0
 16 17  1  0
 16 72  1  0
 17 18  1  0
 17 48  1  0
 17 49  1  0
 18 19  1  0
 18 50  1  0
 18 51  1  0
 19 20  1  0
 20 21  1  0
 20 52  1  0
 20 53  1  0
 21 54  1  0
 21 55  1  0
 22 28  1  0
 22 23  1  0
 22 56  1  6
 23 24  1  0
 23 57  1  0
 23 58  1  0
 24 25  1  0
 24 59  1  6
 25 26  1  0
 25 60  1  0
 25 61  1  0
 26 27  1  1
 26 28  1  0
 27 62  1  0
 27 63  1  0
 27 64  1  0
 28 65  1  0
 28 66  1  0
 29 30  1  0
 29 67  1  1
 30 31  1  0
 30 32  1  1
 31 68  1  0
 31 69  1  0
 31 70  1  0
 32 71  1  0
M  CHG  1  16   1
M  END
>  <i_m_ct_stereo_status>  (176) 
1

>  <s_m_source_file>  (176) 
/var/tmp/pbs.5076255.sched01/tmpcdf8lnea/434bzo3qpq.sdf

>  <i_m_source_file_index>  (176) 
31

>  <i_lp_mmshare_version>  (176) 
48012

>  <i_f3d_flags>  (176) 
1

>  <s_epik_input>  (176) 
W0NIM11bQ0BAXTEyW0NASF0zQyg9W0NIXVtDSDJdMSlDKD1bQ0gyXSlbQ0BAXTQoW0NIM10pW0NIMl1bQ0BASF01W0NAXShbQ0BASF0oW0NIMl01KVtDSDJdNCkoW0NIMl1bQ0BAXTYoW09IXSlbQ0BIXShbQ0BAXTMoTzYpW0NIM10pW0NAXTIoW0NIM10pW09IXSlON1tDSDJdW0NIMl1PW0NIMl1bQ0gyXTc=

>  <s_epik_cmdline>  (176) 
J2VwaWtfcHl0aG9uJywgJy1waHQnLCAnMi4wJywgJy1waCcsICc3LjAnLCAnLXRuJywgJzgnLCAnLW1hJywgJzIwMCcsICctaW1hZScsICc8aW5maWxlLm1hZT4nLCAnLW9tYWUnLCAnPG91dGZpbGUubWFlPic=

>  <r_epik_Ionization_Penalty>  (176) 
0.242916

>  <r_epik_Ionization_Penalty_Charging>  (176) 
0.242914

>  <r_epik_Ionization_Penalty_Neutral>  (176) 
1.45257e-06

>  <r_epik_State_Penalty>  (176) 
0.233966

>  <r_epik_Charging_Adjusted_Penalty>  (176) 
0.47688

>  <i_epik_Tot_Q>  (176) 
1

>  <i_epik_Tot_abs_Q>  (176) 
1

>  <s_lp_Force_Field>  (176) 
OPLS3e

>  <r_lp_Energy>  (176) 
196.446

>  <b_lp_Chiralities_Consistent>  (176) 
1

>  <s_lp_Variant>  (176) 
56:0-2

>  <s_i_glide_gridfile>  (176) 
pfpi4k_grid

>  <i_i_glide_lignum>  (176) 
31

>  <i_i_glide_rotatable_bonds>  (176) 
3

>  <r_i_docking_score>  (176) 
-3.52478

>  <r_i_glide_ligand_efficiency>  (176) 
-0.110149

>  <r_i_glide_ligand_efficiency_sa>  (176) 
-0.349702

>  <r_i_glide_ligand_efficiency_ln>  (176) 
-0.789294

>  <r_i_glide_gscore>  (176) 
-3.52478

>  <r_i_glide_lipo>  (176) 
-0.667826

>  <r_i_glide_hbond>  (176) 
-0.2

>  <r_i_glide_metal>  (176) 
-0

>  <r_i_glide_rewards>  (176) 
-0.39129

>  <r_i_glide_evdw>  (176) 
-21.8859

>  <r_i_glide_ecoul>  (176) 
-7.98263

>  <r_i_glide_erotb>  (176) 
0.102013

>  <r_i_glide_esite>  (176) 
-0.0759866

>  <r_i_glide_emodel>  (176) 
-23.9748

>  <r_i_glide_energy>  (176) 
-29.8685

>  <r_i_glide_einternal>  (176) 
21.3342

>  <r_i_glide_intrahb_reward>  (176) 
-0

>  <i_i_glide_confnum>  (176) 
4

>  <i_i_glide_posenum>  (176) 
37

>  <r_i_glide_eff_state_penalty>  (176) 
0

>  <ligand_id>  (176) 
56

>  <original_smiles>  (176) 
C=C1C2=CCC3(C)C2C2(C)OC(O)(CC4(N5CCOCC5)C5CC4CC1(C)C5)C2C3(C)O

>  <smiles>  (176) 
[H]OC12OC3(C([H])([H])[H])C4([H])C(=C([H])C([H])([H])C4(C([H])([H])[H])C(O[H])(C([H])([H])[H])C13[H])C(=C([H])[H])C1(C([H])([H])[H])C([H])([H])C3([H])C([H])([H])C([H])(C1([H])[H])C3([N+]1([H])C([H])([H])C([H])([H])OC([H])([H])C1([H])[H])C2([H])[H]

$$$$
56:1:2
     RDKit          3D

 72 78  0  0  1  0  0  0  0  0999 V2000
    5.2216  -10.2209    3.5580 C   0  0  0  0  0  0  0  0  0  0  0  0
    4.1149   -9.4682    3.5552 C   0  0  0  0  0  0  0  0  0  0  0  0
    2.9088   -9.7954    4.3522 C   0  0  0  0  0  0  0  0  0  0  0  0
    2.2908  -10.9350    4.0730 C   0  0  0  0  0  0  0  0  0  0  0  0
    0.9167  -11.0568    4.6383 C   0  0  0  0  0  0  0  0  0  0  0  0
    0.6443   -9.6395    5.2100 C   0  0  1  0  0  0  0  0  0  0  0  0
    0.0367   -9.8077    6.6339 C   0  0  0  0  0  0  0  0  0  0  0  0
    2.0459   -8.9400    5.3382 C   0  0  2  0  0  0  0  0  0  0  0  0
    1.6035   -7.4147    5.3171 C   0  0  1  0  0  0  0  0  0  0  0  0
    1.6357   -6.8641    6.7543 C   0  0  0  0  0  0  0  0  0  0  0  0
    2.2658   -6.3737    4.5489 O   0  0  0  0  0  0  0  0  0  0  0  0
    1.1452   -6.1171    3.7202 C   0  0  1  0  0  0  0  0  0  0  0  0
    0.6109   -4.8399    4.0119 O   0  0  0  0  0  0  0  0  0  0  0  0
    1.6377   -5.9645    2.1915 C   0  0  0  0  0  0  0  0  0  0  0  0
    3.1899   -5.5919    1.7717 C   0  0  2  0  0  0  0  0  0  0  0  0
    3.0915   -4.1959    1.1755 N   0  0  0  0  0  0  0  0  0  0  0  0
    3.5337   -3.0492    2.0391 C   0  0  0  0  0  0  0  0  0  0  0  0
    3.3708   -1.6994    1.3296 C   0  0  0  0  0  0  0  0  0  0  0  0
    3.9814   -1.7641    0.0591 O   0  0  0  0  0  0  0  0  0  0  0  0
    3.3321   -2.6564   -0.8187 C   0  0  0  0  0  0  0  0  0  0  0  0
    3.4918   -4.0623   -0.2704 C   0  0  0  0  0  0  0  0  0  0  0  0
    4.3042   -6.4961    0.9397 C   0  0  1  0  0  0  0  0  0  0  0  0
    5.3386   -5.6211    1.6814 C   0  0  0  0  0  0  0  0  0  0  0  0
    4.3290   -5.7572    2.8295 C   0  0  2  0  0  0  0  0  0  0  0  0
    4.4878   -7.1381    3.4896 C   0  0  0  0  0  0  0  0  0  0  0  0
    3.9728   -8.3106    2.5946 C   0  0  2  0  0  0  0  0  0  0  0  0
    2.6014   -8.6130    1.9315 C   0  0  0  0  0  0  0  0  0  0  0  0
    4.7028   -8.0049    1.2757 C   0  0  0  0  0  0  0  0  0  0  0  0
    0.3166   -7.2183    4.5229 C   0  0  1  0  0  0  0  0  0  0  0  0
   -0.2271   -8.6718    4.2754 C   0  0  1  0  0  0  0  0  0  0  0  0
   -0.5103   -9.0741    2.7935 C   0  0  0  0  0  0  0  0  0  0  0  0
   -1.5029   -8.6453    4.7478 O   0  0  0  0  0  0  0  0  0  0  0  0
    6.0379   -9.9564    2.9001 H   0  0  0  0  0  0  0  0  0  0  0  0
    5.3157  -11.0921    4.1822 H   0  0  0  0  0  0  0  0  0  0  0  0
    2.6851  -11.6647    3.3861 H   0  0  0  0  0  0  0  0  0  0  0  0
    0.2052  -11.3930    3.8824 H   0  0  0  0  0  0  0  0  0  0  0  0
    0.9707  -11.8168    5.4084 H   0  0  0  0  0  0  0  0  0  0  0  0
   -0.3980   -8.8839    7.0298 H   0  0  0  0  0  0  0  0  0  0  0  0
    0.7893  -10.1524    7.3364 H   0  0  0  0  0  0  0  0  0  0  0  0
   -0.7472  -10.5623    6.6723 H   0  0  0  0  0  0  0  0  0  0  0  0
    2.4851   -9.1837    6.3040 H   0  0  0  0  0  0  0  0  0  0  0  0
    1.1695   -7.5415    7.4772 H   0  0  0  0  0  0  0  0  0  0  0  0
    1.1245   -5.9048    6.8438 H   0  0  0  0  0  0  0  0  0  0  0  0
    2.6658   -6.7367    7.0869 H   0  0  0  0  0  0  0  0  0  0  0  0
    1.1508   -4.1903    3.6561 H   0  0  0  0  0  0  0  0  0  0  0  0
    1.1322   -6.7137    1.5922 H   0  0  0  0  0  0  0  0  0  0  0  0
    1.0507   -5.1449    1.7979 H   0  0  0  0  0  0  0  0  0  0  0  0
    2.9202   -3.0130    2.9576 H   0  0  0  0  0  0  0  0  0  0  0  0
    4.5853   -3.1645    2.2825 H   0  0  0  0  0  0  0  0  0  0  0  0
    2.3374   -1.3389    1.2123 H   0  0  0  0  0  0  0  0  0  0  0  0
    3.9019   -0.9426    1.9095 H   0  0  0  0  0  0  0  0  0  0  0  0
    2.3011   -2.3394   -1.0209 H   0  0  0  0  0  0  0  0  0  0  0  0
    3.8367   -2.6091   -1.7846 H   0  0  0  0  0  0  0  0  0  0  0  0
    4.5280   -4.3694   -0.4041 H   0  0  0  0  0  0  0  0  0  0  0  0
    2.8261   -4.7074   -0.8645 H   0  0  0  0  0  0  0  0  0  0  0  0
    4.2587   -6.3137   -0.1514 H   0  0  0  0  0  0  0  0  0  0  0  0
    6.2625   -6.1414    1.9333 H   0  0  0  0  0  0  0  0  0  0  0  0
    5.4451   -4.6156    1.2826 H   0  0  0  0  0  0  0  0  0  0  0  0
    4.3571   -4.9584    3.5733 H   0  0  0  0  0  0  0  0  0  0  0  0
    5.5611   -7.3186    3.6144 H   0  0  0  0  0  0  0  0  0  0  0  0
    4.2522   -7.2153    4.5495 H   0  0  0  0  0  0  0  0  0  0  0  0
    2.3872   -8.1333    0.9748 H   0  0  0  0  0  0  0  0  0  0  0  0
    1.8192   -8.3819    2.6214 H   0  0  0  0  0  0  0  0  0  0  0  0
    2.5271   -9.6700    1.6544 H   0  0  0  0  0  0  0  0  0  0  0  0
    4.4408   -8.6976    0.4766 H   0  0  0  0  0  0  0  0  0  0  0  0
    5.7783   -8.1667    1.3938 H   0  0  0  0  0  0  0  0  0  0  0  0
   -0.3878   -6.6888    5.1677 H   0  0  0  0  0  0  0  0  0  0  0  0
    0.2705   -9.6845    2.3325 H   0  0  0  0  0  0  0  0  0  0  0  0
   -0.6909   -8.2093    2.1562 H   0  0  0  0  0  0  0  0  0  0  0  0
   -1.3964   -9.7090    2.7180 H   0  0  0  0  0  0  0  0  0  0  0  0
   -1.7427   -9.6118    4.8780 H   0  0  0  0  0  0  0  0  0  0  0  0
    2.1025   -4.0366    1.1174 H   0  0  0  0  0  0  0  0  0  0  0  0
  1  2  2  0
  1 33  1  0
  1 34  1  0
  2 26  1  0
  2  3  1  0
  3  8  1  0
  3  4  2  0
  4  5  1  0
  4 35  1  0
  5  6  1  0
  5 36  1  0
  5 37  1  0
  6 30  1  0
  6  7  1  1
  6  8  1  0
  7 38  1  0
  7 39  1  0
  7 40  1  0
  8  9  1  0
  8 41  1  1
  9 29  1  0
  9 10  1  1
  9 11  1  0
 10 42  1  0
 10 43  1  0
 10 44  1  0
 11 12  1  0
 12 13  1  1
 12 14  1  0
 12 29  1  0
 13 45  1  0
 14 15  1  0
 14 46  1  0
 14 47  1  0
 15 24  1  0
 15 16  1  6
 15 22  1  0
 16 21  1  0
 16 17  1  0
 16 72  1  0
 17 18  1  0
 17 48  1  0
 17 49  1  0
 18 19  1  0
 18 50  1  0
 18 51  1  0
 19 20  1  0
 20 21  1  0
 20 52  1  0
 20 53  1  0
 21 54  1  0
 21 55  1  0
 22 28  1  0
 22 23  1  0
 22 56  1  6
 23 24  1  0
 23 57  1  0
 23 58  1  0
 24 25  1  0
 24 59  1  1
 25 26  1  0
 25 60  1  0
 25 61  1  0
 26 27  1  6
 26 28  1  0
 27 62  1  0
 27 63  1  0
 27 64  1  0
 28 65  1  0
 28 66  1  0
 29 30  1  0
 29 67  1  1
 30 31  1  0
 30 32  1  1
 31 68  1  0
 31 69  1  0
 31 70  1  0
 32 71  1  0
M  CHG  1  16   1
M  END
>  <i_m_ct_stereo_status>  (177) 
1

>  <s_m_source_file>  (177) 
/var/tmp/pbs.5076255.sched01/tmpcdf8lnea/434bzo3qpq.sdf

>  <i_m_source_file_index>  (177) 
31

>  <i_lp_mmshare_version>  (177) 
48012

>  <i_f3d_flags>  (177) 
1

>  <s_epik_input>  (177) 
W0NIM11bQ0BAXTEyW0NASF0zQyg9W0NIXVtDSDJdMSlDKD1bQ0gyXSlbQ0BAXTQoW0NIM10pW0NIMl1bQ0BASF01W0NAXShbQ0BASF0oW0NIMl01KVtDSDJdNCkoW0NIMl1bQ0BAXTYoW09IXSlbQ0BIXShbQ0BAXTMoTzYpW0NIM10pW0NAXTIoW0NIM10pW09IXSlON1tDSDJdW0NIMl1PW0NIMl1bQ0gyXTc=

>  <s_epik_cmdline>  (177) 
J2VwaWtfcHl0aG9uJywgJy1waHQnLCAnMi4wJywgJy1waCcsICc3LjAnLCAnLXRuJywgJzgnLCAnLW1hJywgJzIwMCcsICctaW1hZScsICc8aW5maWxlLm1hZT4nLCAnLW9tYWUnLCAnPG91dGZpbGUubWFlPic=

>  <r_epik_Ionization_Penalty>  (177) 
0.242916

>  <r_epik_Ionization_Penalty_Charging>  (177) 
0.242914

>  <r_epik_Ionization_Penalty_Neutral>  (177) 
1.45257e-06

>  <r_epik_State_Penalty>  (177) 
0.233966

>  <r_epik_Charging_Adjusted_Penalty>  (177) 
0.47688

>  <i_epik_Tot_Q>  (177) 
1

>  <i_epik_Tot_abs_Q>  (177) 
1

>  <s_lp_Force_Field>  (177) 
OPLS3e

>  <r_lp_Energy>  (177) 
196.446

>  <b_lp_Chiralities_Consistent>  (177) 
1

>  <s_lp_Variant>  (177) 
56:0-2

>  <s_i_glide_gridfile>  (177) 
pfpi4k_grid

>  <i_i_glide_lignum>  (177) 
31

>  <i_i_glide_rotatable_bonds>  (177) 
3

>  <r_i_docking_score>  (177) 
-3.2656

>  <r_i_glide_ligand_efficiency>  (177) 
-0.10205

>  <r_i_glide_ligand_efficiency_sa>  (177) 
-0.323989

>  <r_i_glide_ligand_efficiency_ln>  (177) 
-0.731258

>  <r_i_glide_gscore>  (177) 
-3.2656

>  <r_i_glide_lipo>  (177) 
-0.201432

>  <r_i_glide_hbond>  (177) 
-0.156301

>  <r_i_glide_metal>  (177) 
-0

>  <r_i_glide_rewards>  (177) 
-0.39129

>  <r_i_glide_evdw>  (177) 
-18.7572

>  <r_i_glide_ecoul>  (177) 
-11.0723

>  <r_i_glide_erotb>  (177) 
0.102013

>  <r_i_glide_esite>  (177) 
-0.0198948

>  <r_i_glide_emodel>  (177) 
-24.523

>  <r_i_glide_energy>  (177) 
-29.8295

>  <r_i_glide_einternal>  (177) 
20.4575

>  <r_i_glide_intrahb_reward>  (177) 
-0

>  <i_i_glide_confnum>  (177) 
2

>  <i_i_glide_posenum>  (177) 
34

>  <r_i_glide_eff_state_penalty>  (177) 
0

>  <ligand_id>  (177) 
56

>  <original_smiles>  (177) 
C=C1C2=CCC3(C)C2C2(C)OC(O)(CC4(N5CCOCC5)C5CC4CC1(C)C5)C2C3(C)O

>  <smiles>  (177) 
[H]OC12OC3(C([H])([H])[H])C4([H])C(=C([H])C([H])([H])C4(C([H])([H])[H])C(O[H])(C([H])([H])[H])C13[H])C(=C([H])[H])C1(C([H])([H])[H])C([H])([H])C3([H])C([H])([H])C([H])(C1([H])[H])C3([N+]1([H])C([H])([H])C([H])([H])OC([H])([H])C1([H])[H])C2([H])[H]

$$$$
56:3:0
     RDKit          3D

 71 77  0  0  1  0  0  0  0  0999 V2000
    5.2319  -10.2390    3.9408 C   0  0  0  0  0  0  0  0  0  0  0  0
    4.5037   -9.1848    3.5308 C   0  0  0  0  0  0  0  0  0  0  0  0
    3.0344   -9.0926    3.7406 C   0  0  0  0  0  0  0  0  0  0  0  0
    2.2685  -10.0367    3.1860 C   0  0  0  0  0  0  0  0  0  0  0  0
    0.8052   -9.7084    3.1470 C   0  0  0  0  0  0  0  0  0  0  0  0
    0.7424   -8.2472    3.6322 C   0  0  1  0  0  0  0  0  0  0  0  0
   -0.4201   -8.1427    4.6513 C   0  0  0  0  0  0  0  0  0  0  0  0
    2.1069   -7.9857    4.3656 C   0  0  2  0  0  0  0  0  0  0  0  0
    2.1642   -6.4057    4.2940 C   0  0  1  0  0  0  0  0  0  0  0  0
    1.7799   -5.7992    5.6527 C   0  0  0  0  0  0  0  0  0  0  0  0
    3.3505   -5.6781    3.9345 O   0  0  0  0  0  0  0  0  0  0  0  0
    2.7853   -5.1194    2.7583 C   0  0  1  0  0  0  0  0  0  0  0  0
    2.5703   -3.7266    2.9221 O   0  0  0  0  0  0  0  0  0  0  0  0
    3.8338   -5.2311    1.5519 C   0  0  0  0  0  0  0  0  0  0  0  0
    5.4676   -5.2719    1.7853 C   0  0  2  0  0  0  0  0  0  0  0  0
    5.9536   -3.9579    1.2417 N   0  0  0  0  0  0  0  0  0  0  0  0
    5.8475   -3.8175   -0.2197 C   0  0  0  0  0  0  0  0  0  0  0  0
    6.4197   -2.4830   -0.7105 C   0  0  0  0  0  0  0  0  0  0  0  0
    5.8049   -1.4049   -0.0189 O   0  0  0  0  0  0  0  0  0  0  0  0
    6.0068   -1.4600    1.3875 C   0  0  0  0  0  0  0  0  0  0  0  0
    5.4347   -2.7682    1.9314 C   0  0  0  0  0  0  0  0  0  0  0  0
    6.5374   -6.4912    1.4226 C   0  0  1  0  0  0  0  0  0  0  0  0
    7.3725   -5.8589    2.5499 C   0  0  0  0  0  0  0  0  0  0  0  0
    5.9925   -5.6914    3.2002 C   0  0  2  0  0  0  0  0  0  0  0  0
    5.5198   -7.0523    3.7665 C   0  0  0  0  0  0  0  0  0  0  0  0
    5.1126   -8.0965    2.6727 C   0  0  2  0  0  0  0  0  0  0  0  0
    4.1088   -8.0558    1.4901 C   0  0  0  0  0  0  0  0  0  0  0  0
    6.3676   -8.0450    1.7926 C   0  0  0  0  0  0  0  0  0  0  0  0
    1.4324   -5.8876    3.0651 C   0  0  1  0  0  0  0  0  0  0  0  0
    0.6587   -7.1092    2.5011 C   0  0  1  0  0  0  0  0  0  0  0  0
    0.9027   -7.4791    1.0139 C   0  0  0  0  0  0  0  0  0  0  0  0
   -0.6826   -6.6711    2.3962 O   0  0  0  0  0  0  0  0  0  0  0  0
    6.2903  -10.2896    3.7133 H   0  0  0  0  0  0  0  0  0  0  0  0
    4.7956  -11.0514    4.5015 H   0  0  0  0  0  0  0  0  0  0  0  0
    2.6521  -10.9074    2.6760 H   0  0  0  0  0  0  0  0  0  0  0  0
    0.3824   -9.8598    2.1524 H   0  0  0  0  0  0  0  0  0  0  0  0
    0.3006  -10.3958    3.8318 H   0  0  0  0  0  0  0  0  0  0  0  0
   -0.6712   -7.1153    4.9151 H   0  0  0  0  0  0  0  0  0  0  0  0
   -0.1725   -8.6655    5.5754 H   0  0  0  0  0  0  0  0  0  0  0  0
   -1.3328   -8.6003    4.2644 H   0  0  0  0  0  0  0  0  0  0  0  0
    2.0579   -8.2890    5.4097 H   0  0  0  0  0  0  0  0  0  0  0  0
    0.8841   -6.2485    6.0761 H   0  0  0  0  0  0  0  0  0  0  0  0
    1.5955   -4.7264    5.5827 H   0  0  0  0  0  0  0  0  0  0  0  0
    2.5752   -5.9512    6.3832 H   0  0  0  0  0  0  0  0  0  0  0  0
    2.4098   -3.3539    2.0687 H   0  0  0  0  0  0  0  0  0  0  0  0
    3.4872   -5.8770    0.7621 H   0  0  0  0  0  0  0  0  0  0  0  0
    3.5924   -4.3627    0.9525 H   0  0  0  0  0  0  0  0  0  0  0  0
    6.3734   -4.6362   -0.7110 H   0  0  0  0  0  0  0  0  0  0  0  0
    4.8139   -3.8815   -0.5582 H   0  0  0  0  0  0  0  0  0  0  0  0
    7.4988   -2.4350   -0.5750 H   0  0  0  0  0  0  0  0  0  0  0  0
    6.2166   -2.3777   -1.7757 H   0  0  0  0  0  0  0  0  0  0  0  0
    7.0589   -1.3398    1.6293 H   0  0  0  0  0  0  0  0  0  0  0  0
    5.4675   -0.6362    1.8536 H   0  0  0  0  0  0  0  0  0  0  0  0
    4.3631   -2.6762    1.7889 H   0  0  0  0  0  0  0  0  0  0  0  0
    5.6240   -2.8492    3.0061 H   0  0  0  0  0  0  0  0  0  0  0  0
    7.0590   -6.3476    0.4734 H   0  0  0  0  0  0  0  0  0  0  0  0
    8.0458   -6.5323    3.0842 H   0  0  0  0  0  0  0  0  0  0  0  0
    7.9129   -4.9573    2.2947 H   0  0  0  0  0  0  0  0  0  0  0  0
    5.9872   -4.8857    3.9330 H   0  0  0  0  0  0  0  0  0  0  0  0
    6.3667   -7.4983    4.2940 H   0  0  0  0  0  0  0  0  0  0  0  0
    4.8679   -7.0134    4.6341 H   0  0  0  0  0  0  0  0  0  0  0  0
    4.4446   -7.6055    0.5527 H   0  0  0  0  0  0  0  0  0  0  0  0
    3.2093   -7.5834    1.8222 H   0  0  0  0  0  0  0  0  0  0  0  0
    3.8478   -9.0616    1.1541 H   0  0  0  0  0  0  0  0  0  0  0  0
    6.3105   -8.6698    0.8984 H   0  0  0  0  0  0  0  0  0  0  0  0
    7.2315   -8.4441    2.3261 H   0  0  0  0  0  0  0  0  0  0  0  0
    0.7182   -5.1205    3.3853 H   0  0  0  0  0  0  0  0  0  0  0  0
    1.5676   -8.3264    0.8774 H   0  0  0  0  0  0  0  0  0  0  0  0
    1.2862   -6.6442    0.4324 H   0  0  0  0  0  0  0  0  0  0  0  0
   -0.0150   -7.8070    0.5223 H   0  0  0  0  0  0  0  0  0  0  0  0
   -1.1979   -7.4455    2.2095 H   0  0  0  0  0  0  0  0  0  0  0  0
  1  2  2  0
  1 33  1  0
  1 34  1  0
  2 26  1  0
  2  3  1  0
  3  8  1  0
  3  4  2  0
  4  5  1  0
  4 35  1  0
  5  6  1  0
  5 36  1  0
  5 37  1  0
  6 30  1  0
  6  7  1  1
  6  8  1  0
  7 38  1  0
  7 39  1  0
  7 40  1  0
  8  9  1  0
  8 41  1  1
  9 29  1  0
  9 10  1  1
  9 11  1  0
 10 42  1  0
 10 43  1  0
 10 44  1  0
 11 12  1  0
 12 13  1  1
 12 14  1  0
 12 29  1  0
 13 45  1  0
 14 15  1  0
 14 46  1  0
 14 47  1  0
 15 24  1  0
 15 16  1  6
 15 22  1  0
 16 21  1  0
 16 17  1  0
 17 18  1  0
 17 48  1  0
 17 49  1  0
 18 19  1  0
 18 50  1  0
 18 51  1  0
 19 20  1  0
 20 21  1  0
 20 52  1  0
 20 53  1  0
 21 54  1  0
 21 55  1  0
 22 28  1  0
 22 23  1  0
 22 56  1  6
 23 24  1  0
 23 57  1  0
 23 58  1  0
 24 25  1  0
 24 59  1  1
 25 26  1  0
 25 60  1  0
 25 61  1  0
 26 27  1  6
 26 28  1  0
 27 62  1  0
 27 63  1  0
 27 64  1  0
 28 65  1  0
 28 66  1  0
 29 30  1  0
 29 67  1  1
 30 31  1  0
 30 32  1  6
 31 68  1  0
 31 69  1  0
 31 70  1  0
 32 71  1  0
M  END
>  <i_m_ct_stereo_status>  (178) 
1

>  <s_m_source_file>  (178) 
/var/tmp/pbs.5076255.sched01/tmpcdf8lnea/434bzo3qpq.sdf

>  <i_m_source_file_index>  (178) 
33

>  <i_lp_mmshare_version>  (178) 
48012

>  <i_f3d_flags>  (178) 
1

>  <s_epik_input>  (178) 
W0NIM11bQ0BAXTEyW0NASF0zQyg9W0NIXVtDSDJdMSlDKD1bQ0gyXSlbQ0BAXTQoW0NIM10pW0NIMl1bQ0BASF01W0NAXShbQ0BASF0oW0NIMl01KVtDSDJdNCkoW0NIMl1bQ0BAXTYoW09IXSlbQ0BIXShbQ0BAXTMoTzYpW0NIM10pW0NAXTIoW0NIM10pW09IXSlON1tDSDJdW0NIMl1PW0NIMl1bQ0gyXTc=

>  <s_epik_cmdline>  (178) 
J2VwaWtfcHl0aG9uJywgJy1waHQnLCAnMi4wJywgJy1waCcsICc3LjAnLCAnLXRuJywgJzgnLCAnLW1hJywgJzIwMCcsICctaW1hZScsICc8aW5maWxlLm1hZT4nLCAnLW9tYWUnLCAnPG91dGZpbGUubWFlPic=

>  <r_epik_Ionization_Penalty>  (178) 
0.645584

>  <r_epik_Ionization_Penalty_Charging>  (178) 
0

>  <r_epik_Ionization_Penalty_Neutral>  (178) 
0.645584

>  <r_epik_State_Penalty>  (178) 
0.663647

>  <r_epik_Charging_Adjusted_Penalty>  (178) 
0.663647

>  <i_epik_Tot_Q>  (178) 
0

>  <i_epik_Tot_abs_Q>  (178) 
0

>  <s_lp_Force_Field>  (178) 
OPLS3e

>  <r_lp_Energy>  (178) 
198.448

>  <b_lp_Chiralities_Consistent>  (178) 
1

>  <s_lp_Variant>  (178) 
56:0-4

>  <s_i_glide_gridfile>  (178) 
pfpi4k_grid

>  <i_i_glide_lignum>  (178) 
33

>  <i_i_glide_rotatable_bonds>  (178) 
3

>  <r_i_docking_score>  (178) 
-3.02221

>  <r_i_glide_ligand_efficiency>  (178) 
-0.0944441

>  <r_i_glide_ligand_efficiency_sa>  (178) 
-0.299841

>  <r_i_glide_ligand_efficiency_ln>  (178) 
-0.676756

>  <r_i_glide_gscore>  (178) 
-3.02221

>  <r_i_glide_lipo>  (178) 
-0.593473

>  <r_i_glide_hbond>  (178) 
-0.16

>  <r_i_glide_metal>  (178) 
-0

>  <r_i_glide_rewards>  (178) 
-0.398162

>  <r_i_glide_evdw>  (178) 
-22.4022

>  <r_i_glide_ecoul>  (178) 
-5.66554

>  <r_i_glide_erotb>  (178) 
0.102436

>  <r_i_glide_esite>  (178) 
-0.00307263

>  <r_i_glide_emodel>  (178) 
-32.6434

>  <r_i_glide_energy>  (178) 
-28.0677

>  <r_i_glide_einternal>  (178) 
0.833935

>  <r_i_glide_intrahb_reward>  (178) 
-0

>  <i_i_glide_confnum>  (178) 
5

>  <i_i_glide_posenum>  (178) 
33

>  <r_i_glide_eff_state_penalty>  (178) 
0

>  <ligand_id>  (178) 
56

>  <original_smiles>  (178) 
C=C1C2=CCC3(C)C2C2(C)OC(O)(CC4(N5CCOCC5)C5CC4CC1(C)C5)C2C3(C)O

>  <smiles>  (178) 
[H]OC12OC3(C([H])([H])[H])C4([H])C(=C([H])C([H])([H])C4(C([H])([H])[H])C(O[H])(C([H])([H])[H])C13[H])C(=C([H])[H])C1(C([H])([H])[H])C([H])([H])C3([H])C([H])([H])C([H])(C1([H])[H])C3(N1C([H])([H])C([H])([H])OC([H])([H])C1([H])[H])C2([H])[H]

$$$$
56:3:1
     RDKit          3D

 71 77  0  0  1  0  0  0  0  0999 V2000
    5.1566   -9.9893    3.2313 C   0  0  0  0  0  0  0  0  0  0  0  0
    4.3572   -8.9916    2.8662 C   0  0  0  0  0  0  0  0  0  0  0  0
    2.8855   -8.9287    3.1612 C   0  0  0  0  0  0  0  0  0  0  0  0
    2.1449   -9.8868    2.6814 C   0  0  0  0  0  0  0  0  0  0  0  0
    0.6676   -9.6107    2.7483 C   0  0  0  0  0  0  0  0  0  0  0  0
    0.5950   -8.1223    3.1799 C   0  0  1  0  0  0  0  0  0  0  0  0
   -0.4876   -8.0373    4.2846 C   0  0  0  0  0  0  0  0  0  0  0  0
    2.0056   -7.7936    3.7968 C   0  0  2  0  0  0  0  0  0  0  0  0
    2.0134   -6.2209    3.6422 C   0  0  1  0  0  0  0  0  0  0  0  0
    1.6953   -5.5845    5.0090 C   0  0  0  0  0  0  0  0  0  0  0  0
    3.1462   -5.4590    3.1856 O   0  0  0  0  0  0  0  0  0  0  0  0
    2.4829   -4.9692    2.0222 C   0  0  1  0  0  0  0  0  0  0  0  0
    2.2751   -3.5740    2.1164 O   0  0  0  0  0  0  0  0  0  0  0  0
    3.4818   -5.0557    0.7617 C   0  0  0  0  0  0  0  0  0  0  0  0
    5.1340   -5.1295    0.9285 C   0  0  2  0  0  0  0  0  0  0  0  0
    5.5689   -3.7830    0.3245 N   0  0  0  0  0  0  0  0  0  0  0  0
    5.9920   -2.7736    1.2942 C   0  0  0  0  0  0  0  0  0  0  0  0
    6.5281   -1.5026    0.6464 C   0  0  0  0  0  0  0  0  0  0  0  0
    7.5245   -1.8320   -0.3173 O   0  0  0  0  0  0  0  0  0  0  0  0
    6.9931   -2.5705   -1.4087 C   0  0  0  0  0  0  0  0  0  0  0  0
    6.4626   -3.8667   -0.8479 C   0  0  0  0  0  0  0  0  0  0  0  0
    6.1410   -6.3842    0.6137 C   0  0  1  0  0  0  0  0  0  0  0  0
    7.0761   -5.7546    1.6319 C   0  0  0  0  0  0  0  0  0  0  0  0
    5.7263   -5.5066    2.3281 C   0  0  2  0  0  0  0  0  0  0  0  0
    5.2971   -6.8288    2.9787 C   0  0  0  0  0  0  0  0  0  0  0  0
    4.8233   -7.9086    1.9713 C   0  0  2  0  0  0  0  0  0  0  0  0
    3.7801   -7.9006    0.8297 C   0  0  0  0  0  0  0  0  0  0  0  0
    5.9947   -7.9447    1.0024 C   0  0  0  0  0  0  0  0  0  0  0  0
    1.1722   -5.7660    2.4656 C   0  0  1  0  0  0  0  0  0  0  0  0
    0.3676   -7.0023    2.0534 C   0  0  1  0  0  0  0  0  0  0  0  0
    0.5195   -7.4394    0.5814 C   0  0  0  0  0  0  0  0  0  0  0  0
   -0.9833   -6.6381    2.0927 O   0  0  0  0  0  0  0  0  0  0  0  0
    6.1975  -10.0025    2.9154 H   0  0  0  0  0  0  0  0  0  0  0  0
    4.8077  -10.8003    3.8282 H   0  0  0  0  0  0  0  0  0  0  0  0
    2.5275  -10.7820    2.1921 H   0  0  0  0  0  0  0  0  0  0  0  0
    0.1786   -9.8157    1.8057 H   0  0  0  0  0  0  0  0  0  0  0  0
    0.2448  -10.2930    3.4913 H   0  0  0  0  0  0  0  0  0  0  0  0
   -0.7497   -7.0115    4.5254 H   0  0  0  0  0  0  0  0  0  0  0  0
   -0.1462   -8.5188    5.1997 H   0  0  0  0  0  0  0  0  0  0  0  0
   -1.3999   -8.5418    3.9712 H   0  0  0  0  0  0  0  0  0  0  0  0
    2.0518   -8.0715    4.8589 H   0  0  0  0  0  0  0  0  0  0  0  0
    0.8477   -6.0525    5.5131 H   0  0  0  0  0  0  0  0  0  0  0  0
    1.4553   -4.5202    4.9342 H   0  0  0  0  0  0  0  0  0  0  0  0
    2.5357   -5.6856    5.6965 H   0  0  0  0  0  0  0  0  0  0  0  0
    2.1030   -3.3835    3.0298 H   0  0  0  0  0  0  0  0  0  0  0  0
    3.0890   -5.7385    0.0236 H   0  0  0  0  0  0  0  0  0  0  0  0
    3.2555   -4.1925    0.1313 H   0  0  0  0  0  0  0  0  0  0  0  0
    5.1782   -2.5665    2.0004 H   0  0  0  0  0  0  0  0  0  0  0  0
    6.8393   -3.1185    1.8720 H   0  0  0  0  0  0  0  0  0  0  0  0
    5.7255   -0.9154    0.1969 H   0  0  0  0  0  0  0  0  0  0  0  0
    7.0005   -0.9174    1.4323 H   0  0  0  0  0  0  0  0  0  0  0  0
    6.2200   -2.0283   -1.9590 H   0  0  0  0  0  0  0  0  0  0  0  0
    7.8120   -2.8075   -2.0982 H   0  0  0  0  0  0  0  0  0  0  0  0
    7.4218   -4.3155   -0.5950 H   0  0  0  0  0  0  0  0  0  0  0  0
    5.9533   -4.4131   -1.6555 H   0  0  0  0  0  0  0  0  0  0  0  0
    6.5721   -6.2164   -0.3239 H   0  0  0  0  0  0  0  0  0  0  0  0
    7.7449   -6.4409    2.1454 H   0  0  0  0  0  0  0  0  0  0  0  0
    7.6650   -4.8773    1.3165 H   0  0  0  0  0  0  0  0  0  0  0  0
    5.7195   -4.6816    3.0226 H   0  0  0  0  0  0  0  0  0  0  0  0
    6.2020   -7.2224    3.4442 H   0  0  0  0  0  0  0  0  0  0  0  0
    4.6991   -6.7466    3.8793 H   0  0  0  0  0  0  0  0  0  0  0  0
    4.0691   -7.4595   -0.1285 H   0  0  0  0  0  0  0  0  0  0  0  0
    2.9070   -7.4107    1.1884 H   0  0  0  0  0  0  0  0  0  0  0  0
    3.5360   -8.9243    0.5189 H   0  0  0  0  0  0  0  0  0  0  0  0
    5.8616   -8.6738    0.2320 H   0  0  0  0  0  0  0  0  0  0  0  0
    6.9166   -8.2912    1.4287 H   0  0  0  0  0  0  0  0  0  0  0  0
    0.4977   -4.9987    2.8241 H   0  0  0  0  0  0  0  0  0  0  0  0
    1.2198   -8.2132    0.4595 H   0  0  0  0  0  0  0  0  0  0  0  0
    0.8601   -6.5954   -0.0851 H   0  0  0  0  0  0  0  0  0  0  0  0
   -0.4113   -7.8141    0.1598 H   0  0  0  0  0  0  0  0  0  0  0  0
   -1.4553   -7.4348    1.8493 H   0  0  0  0  0  0  0  0  0  0  0  0
  1  2  2  0
  1 33  1  0
  1 34  1  0
  2 26  1  0
  2  3  1  0
  3  8  1  0
  3  4  2  0
  4  5  1  0
  4 35  1  0
  5  6  1  0
  5 36  1  0
  5 37  1  0
  6 30  1  0
  6  7  1  1
  6  8  1  0
  7 38  1  0
  7 39  1  0
  7 40  1  0
  8  9  1  0
  8 41  1  1
  9 29  1  0
  9 10  1  1
  9 11  1  0
 10 42  1  0
 10 43  1  0
 10 44  1  0
 11 12  1  0
 12 13  1  1
 12 14  1  0
 12 29  1  0
 13 45  1  0
 14 15  1  0
 14 46  1  0
 14 47  1  0
 15 24  1  0
 15 16  1  6
 15 22  1  0
 16 21  1  0
 16 17  1  0
 17 18  1  0
 17 48  1  0
 17 49  1  0
 18 19  1  0
 18 50  1  0
 18 51  1  0
 19 20  1  0
 20 21  1  0
 20 52  1  0
 20 53  1  0
 21 54  1  0
 21 55  1  0
 22 28  1  0
 22 23  1  0
 22 56  1  6
 23 24  1  0
 23 57  1  0
 23 58  1  0
 24 25  1  0
 24 59  1  1
 25 26  1  0
 25 60  1  0
 25 61  1  0
 26 27  1  6
 26 28  1  0
 27 62  1  0
 27 63  1  0
 27 64  1  0
 28 65  1  0
 28 66  1  0
 29 30  1  0
 29 67  1  1
 30 31  1  0
 30 32  1  6
 31 68  1  0
 31 69  1  0
 31 70  1  0
 32 71  1  0
M  END
>  <i_m_ct_stereo_status>  (179) 
1

>  <s_m_source_file>  (179) 
/var/tmp/pbs.5076255.sched01/tmpcdf8lnea/434bzo3qpq.sdf

>  <i_m_source_file_index>  (179) 
33

>  <i_lp_mmshare_version>  (179) 
48012

>  <i_f3d_flags>  (179) 
1

>  <s_epik_input>  (179) 
W0NIM11bQ0BAXTEyW0NASF0zQyg9W0NIXVtDSDJdMSlDKD1bQ0gyXSlbQ0BAXTQoW0NIM10pW0NIMl1bQ0BASF01W0NAXShbQ0BASF0oW0NIMl01KVtDSDJdNCkoW0NIMl1bQ0BAXTYoW09IXSlbQ0BIXShbQ0BAXTMoTzYpW0NIM10pW0NAXTIoW0NIM10pW09IXSlON1tDSDJdW0NIMl1PW0NIMl1bQ0gyXTc=

>  <s_epik_cmdline>  (179) 
J2VwaWtfcHl0aG9uJywgJy1waHQnLCAnMi4wJywgJy1waCcsICc3LjAnLCAnLXRuJywgJzgnLCAnLW1hJywgJzIwMCcsICctaW1hZScsICc8aW5maWxlLm1hZT4nLCAnLW9tYWUnLCAnPG91dGZpbGUubWFlPic=

>  <r_epik_Ionization_Penalty>  (179) 
0.645584

>  <r_epik_Ionization_Penalty_Charging>  (179) 
0

>  <r_epik_Ionization_Penalty_Neutral>  (179) 
0.645584

>  <r_epik_State_Penalty>  (179) 
0.663647

>  <r_epik_Charging_Adjusted_Penalty>  (179) 
0.663647

>  <i_epik_Tot_Q>  (179) 
0

>  <i_epik_Tot_abs_Q>  (179) 
0

>  <s_lp_Force_Field>  (179) 
OPLS3e

>  <r_lp_Energy>  (179) 
198.448

>  <b_lp_Chiralities_Consistent>  (179) 
1

>  <s_lp_Variant>  (179) 
56:0-4

>  <s_i_glide_gridfile>  (179) 
pfpi4k_grid

>  <i_i_glide_lignum>  (179) 
33

>  <i_i_glide_rotatable_bonds>  (179) 
3

>  <r_i_docking_score>  (179) 
-2.7701

>  <r_i_glide_ligand_efficiency>  (179) 
-0.0865656

>  <r_i_glide_ligand_efficiency_sa>  (179) 
-0.274829

>  <r_i_glide_ligand_efficiency_ln>  (179) 
-0.620301

>  <r_i_glide_gscore>  (179) 
-2.7701

>  <r_i_glide_lipo>  (179) 
-0.57479

>  <r_i_glide_hbond>  (179) 
-0.304953

>  <r_i_glide_metal>  (179) 
-0

>  <r_i_glide_rewards>  (179) 
-0.398162

>  <r_i_glide_evdw>  (179) 
-9.43334

>  <r_i_glide_ecoul>  (179) 
-7.38942

>  <r_i_glide_erotb>  (179) 
0.102436

>  <r_i_glide_esite>  (179) 
-0.0145497

>  <r_i_glide_emodel>  (179) 
-7.39371

>  <r_i_glide_energy>  (179) 
-16.8228

>  <r_i_glide_einternal>  (179) 
22.8462

>  <r_i_glide_intrahb_reward>  (179) 
-0

>  <i_i_glide_confnum>  (179) 
5

>  <i_i_glide_posenum>  (179) 
9

>  <r_i_glide_eff_state_penalty>  (179) 
0

>  <ligand_id>  (179) 
56

>  <original_smiles>  (179) 
C=C1C2=CCC3(C)C2C2(C)OC(O)(CC4(N5CCOCC5)C5CC4CC1(C)C5)C2C3(C)O

>  <smiles>  (179) 
[H]OC12OC3(C([H])([H])[H])C4([H])C(=C([H])C([H])([H])C4(C([H])([H])[H])C(O[H])(C([H])([H])[H])C13[H])C(=C([H])[H])C1(C([H])([H])[H])C([H])([H])C3([H])C([H])([H])C([H])(C1([H])[H])C3(N1C([H])([H])C([H])([H])OC([H])([H])C1([H])[H])C2([H])[H]

$$$$
56:3:2
     RDKit          3D

 71 77  0  0  1  0  0  0  0  0999 V2000
    5.2895   -9.9254    3.3090 C   0  0  0  0  0  0  0  0  0  0  0  0
    4.4711   -8.9242    2.9227 C   0  0  0  0  0  0  0  0  0  0  0  0
    3.0138   -8.8853    3.1831 C   0  0  0  0  0  0  0  0  0  0  0  0
    2.2817   -9.8484    2.6958 C   0  0  0  0  0  0  0  0  0  0  0  0
    0.8116   -9.5845    2.7261 C   0  0  0  0  0  0  0  0  0  0  0  0
    0.7310   -8.0909    3.1514 C   0  0  1  0  0  0  0  0  0  0  0  0
   -0.3850   -8.0009    4.2202 C   0  0  0  0  0  0  0  0  0  0  0  0
    2.1107   -7.7372    3.7810 C   0  0  2  0  0  0  0  0  0  0  0  0
    2.1183   -6.1608    3.6039 C   0  0  1  0  0  0  0  0  0  0  0  0
    1.7668   -5.5096    4.9482 C   0  0  0  0  0  0  0  0  0  0  0  0
    3.2535   -5.3945    3.1473 O   0  0  0  0  0  0  0  0  0  0  0  0
    2.6216   -4.9296    1.9592 C   0  0  1  0  0  0  0  0  0  0  0  0
    2.4028   -3.5444    2.0403 O   0  0  0  0  0  0  0  0  0  0  0  0
    3.6371   -5.0504    0.7226 C   0  0  0  0  0  0  0  0  0  0  0  0
    5.2720   -5.0806    0.9359 C   0  0  2  0  0  0  0  0  0  0  0  0
    5.6959   -3.7613    0.3160 N   0  0  0  0  0  0  0  0  0  0  0  0
    6.1123   -2.7348    1.2908 C   0  0  0  0  0  0  0  0  0  0  0  0
    6.6339   -1.4588    0.6236 C   0  0  0  0  0  0  0  0  0  0  0  0
    7.6478   -1.7864   -0.3179 O   0  0  0  0  0  0  0  0  0  0  0  0
    7.1402   -2.5385   -1.4059 C   0  0  0  0  0  0  0  0  0  0  0  0
    6.6385   -3.8580   -0.8260 C   0  0  0  0  0  0  0  0  0  0  0  0
    6.3335   -6.3400    0.6298 C   0  0  1  0  0  0  0  0  0  0  0  0
    7.2016   -5.6702    1.6921 C   0  0  0  0  0  0  0  0  0  0  0  0
    5.8418   -5.4407    2.3554 C   0  0  2  0  0  0  0  0  0  0  0  0
    5.4053   -6.7626    3.0248 C   0  0  0  0  0  0  0  0  0  0  0  0
    4.9647   -7.8618    2.0151 C   0  0  2  0  0  0  0  0  0  0  0  0
    3.9437   -7.8821    0.8355 C   0  0  0  0  0  0  0  0  0  0  0  0
    6.1841   -7.8802    1.1243 C   0  0  0  0  0  0  0  0  0  0  0  0
    1.3068   -5.7119    2.4068 C   0  0  1  0  0  0  0  0  0  0  0  0
    0.5141   -6.9967    1.9826 C   0  0  1  0  0  0  0  0  0  0  0  0
    0.6578   -7.4355    0.5118 C   0  0  0  0  0  0  0  0  0  0  0  0
   -0.8495   -6.6499    2.0055 O   0  0  0  0  0  0  0  0  0  0  0  0
    6.3279   -9.9190    3.0036 H   0  0  0  0  0  0  0  0  0  0  0  0
    4.9346  -10.7313    3.9088 H   0  0  0  0  0  0  0  0  0  0  0  0
    2.6886  -10.7379    2.2069 H   0  0  0  0  0  0  0  0  0  0  0  0
    0.3527   -9.8093    1.7720 H   0  0  0  0  0  0  0  0  0  0  0  0
    0.3860  -10.2589    3.4660 H   0  0  0  0  0  0  0  0  0  0  0  0
   -0.6693   -6.9718    4.4441 H   0  0  0  0  0  0  0  0  0  0  0  0
   -0.0657   -8.4667    5.1495 H   0  0  0  0  0  0  0  0  0  0  0  0
   -1.2915   -8.5145    3.8910 H   0  0  0  0  0  0  0  0  0  0  0  0
    2.1362   -7.9950    4.8387 H   0  0  0  0  0  0  0  0  0  0  0  0
    0.9123   -5.9818    5.4359 H   0  0  0  0  0  0  0  0  0  0  0  0
    1.5211   -4.4531    4.8426 H   0  0  0  0  0  0  0  0  0  0  0  0
    2.5969   -5.5962    5.6492 H   0  0  0  0  0  0  0  0  0  0  0  0
    3.2449   -3.1477    2.2175 H   0  0  0  0  0  0  0  0  0  0  0  0
    3.2625   -5.7338   -0.0211 H   0  0  0  0  0  0  0  0  0  0  0  0
    3.4241   -4.1901    0.0790 H   0  0  0  0  0  0  0  0  0  0  0  0
    5.2867   -2.4905    1.9759 H   0  0  0  0  0  0  0  0  0  0  0  0
    6.9649   -3.0968    1.8725 H   0  0  0  0  0  0  0  0  0  0  0  0
    5.8446   -0.8708    0.1406 H   0  0  0  0  0  0  0  0  0  0  0  0
    7.0876   -0.8402    1.3962 H   0  0  0  0  0  0  0  0  0  0  0  0
    6.3816   -1.9997   -1.9827 H   0  0  0  0  0  0  0  0  0  0  0  0
    7.9669   -2.7879   -2.0702 H   0  0  0  0  0  0  0  0  0  0  0  0
    7.5428   -4.3459   -0.5144 H   0  0  0  0  0  0  0  0  0  0  0  0
    6.2645   -4.3918   -1.6746 H   0  0  0  0  0  0  0  0  0  0  0  0
    6.8991   -6.2370   -0.2659 H   0  0  0  0  0  0  0  0  0  0  0  0
    7.8717   -6.3551    2.2209 H   0  0  0  0  0  0  0  0  0  0  0  0
    7.7445   -4.7993    1.3250 H   0  0  0  0  0  0  0  0  0  0  0  0
    5.8260   -4.6052    3.0414 H   0  0  0  0  0  0  0  0  0  0  0  0
    6.3068   -7.1551    3.5064 H   0  0  0  0  0  0  0  0  0  0  0  0
    4.7944   -6.6719    3.9137 H   0  0  0  0  0  0  0  0  0  0  0  0
    4.2446   -7.4735   -0.1332 H   0  0  0  0  0  0  0  0  0  0  0  0
    3.0590   -7.3849    1.1559 H   0  0  0  0  0  0  0  0  0  0  0  0
    3.7014   -8.9074    0.5376 H   0  0  0  0  0  0  0  0  0  0  0  0
    6.0818   -8.6421    0.3567 H   0  0  0  0  0  0  0  0  0  0  0  0
    7.0927   -8.2512    1.6030 H   0  0  0  0  0  0  0  0  0  0  0  0
    0.6084   -4.9476    2.7395 H   0  0  0  0  0  0  0  0  0  0  0  0
    1.3746   -8.2303    0.5497 H   0  0  0  0  0  0  0  0  0  0  0  0
    1.0461   -6.6299   -0.1327 H   0  0  0  0  0  0  0  0  0  0  0  0
   -0.2429   -7.8497    0.1151 H   0  0  0  0  0  0  0  0  0  0  0  0
   -1.2953   -7.4471    1.6986 H   0  0  0  0  0  0  0  0  0  0  0  0
  1  2  2  0
  1 33  1  0
  1 34  1  0
  2 26  1  0
  2  3  1  0
  3  8  1  0
  3  4  2  0
  4  5  1  0
  4 35  1  0
  5  6  1  0
  5 36  1  0
  5 37  1  0
  6 30  1  0
  6  7  1  1
  6  8  1  0
  7 38  1  0
  7 39  1  0
  7 40  1  0
  8  9  1  0
  8 41  1  1
  9 29  1  0
  9 10  1  1
  9 11  1  0
 10 42  1  0
 10 43  1  0
 10 44  1  0
 11 12  1  0
 12 13  1  1
 12 14  1  0
 12 29  1  0
 13 45  1  0
 14 15  1  0
 14 46  1  0
 14 47  1  0
 15 24  1  0
 15 16  1  6
 15 22  1  0
 16 21  1  0
 16 17  1  0
 17 18  1  0
 17 48  1  0
 17 49  1  0
 18 19  1  0
 18 50  1  0
 18 51  1  0
 19 20  1  0
 20 21  1  0
 20 52  1  0
 20 53  1  0
 21 54  1  0
 21 55  1  0
 22 28  1  0
 22 23  1  0
 22 56  1  6
 23 24  1  0
 23 57  1  0
 23 58  1  0
 24 25  1  0
 24 59  1  1
 25 26  1  0
 25 60  1  0
 25 61  1  0
 26 27  1  6
 26 28  1  0
 27 62  1  0
 27 63  1  0
 27 64  1  0
 28 65  1  0
 28 66  1  0
 29 30  1  0
 29 67  1  1
 30 31  1  0
 30 32  1  6
 31 68  1  0
 31 69  1  0
 31 70  1  0
 32 71  1  0
M  END
>  <i_m_ct_stereo_status>  (180) 
1

>  <s_m_source_file>  (180) 
/var/tmp/pbs.5076255.sched01/tmpcdf8lnea/434bzo3qpq.sdf

>  <i_m_source_file_index>  (180) 
33

>  <i_lp_mmshare_version>  (180) 
48012

>  <i_f3d_flags>  (180) 
1

>  <s_epik_input>  (180) 
W0NIM11bQ0BAXTEyW0NASF0zQyg9W0NIXVtDSDJdMSlDKD1bQ0gyXSlbQ0BAXTQoW0NIM10pW0NIMl1bQ0BASF01W0NAXShbQ0BASF0oW0NIMl01KVtDSDJdNCkoW0NIMl1bQ0BAXTYoW09IXSlbQ0BIXShbQ0BAXTMoTzYpW0NIM10pW0NAXTIoW0NIM10pW09IXSlON1tDSDJdW0NIMl1PW0NIMl1bQ0gyXTc=

>  <s_epik_cmdline>  (180) 
J2VwaWtfcHl0aG9uJywgJy1waHQnLCAnMi4wJywgJy1waCcsICc3LjAnLCAnLXRuJywgJzgnLCAnLW1hJywgJzIwMCcsICctaW1hZScsICc8aW5maWxlLm1hZT4nLCAnLW9tYWUnLCAnPG91dGZpbGUubWFlPic=

>  <r_epik_Ionization_Penalty>  (180) 
0.645584

>  <r_epik_Ionization_Penalty_Charging>  (180) 
0

>  <r_epik_Ionization_Penalty_Neutral>  (180) 
0.645584

>  <r_epik_State_Penalty>  (180) 
0.663647

>  <r_epik_Charging_Adjusted_Penalty>  (180) 
0.663647

>  <i_epik_Tot_Q>  (180) 
0

>  <i_epik_Tot_abs_Q>  (180) 
0

>  <s_lp_Force_Field>  (180) 
OPLS3e

>  <r_lp_Energy>  (180) 
198.448

>  <b_lp_Chiralities_Consistent>  (180) 
1

>  <s_lp_Variant>  (180) 
56:0-4

>  <s_i_glide_gridfile>  (180) 
pfpi4k_grid

>  <i_i_glide_lignum>  (180) 
33

>  <i_i_glide_rotatable_bonds>  (180) 
3

>  <r_i_docking_score>  (180) 
-2.54817

>  <r_i_glide_ligand_efficiency>  (180) 
-0.0796303

>  <r_i_glide_ligand_efficiency_sa>  (180) 
-0.252811

>  <r_i_glide_ligand_efficiency_ln>  (180) 
-0.570605

>  <r_i_glide_gscore>  (180) 
-2.54817

>  <r_i_glide_lipo>  (180) 
-0.585147

>  <r_i_glide_hbond>  (180) 
-0.298333

>  <r_i_glide_metal>  (180) 
-0

>  <r_i_glide_rewards>  (180) 
-0.398162

>  <r_i_glide_evdw>  (180) 
-7.78764

>  <r_i_glide_ecoul>  (180) 
-6.45087

>  <r_i_glide_erotb>  (180) 
0.102436

>  <r_i_glide_esite>  (180) 
-0.011951

>  <r_i_glide_emodel>  (180) 
-4.80826

>  <r_i_glide_energy>  (180) 
-14.2385

>  <r_i_glide_einternal>  (180) 
23.3409

>  <r_i_glide_intrahb_reward>  (180) 
-0

>  <i_i_glide_confnum>  (180) 
5

>  <i_i_glide_posenum>  (180) 
30

>  <r_i_glide_eff_state_penalty>  (180) 
0

>  <ligand_id>  (180) 
56

>  <original_smiles>  (180) 
C=C1C2=CCC3(C)C2C2(C)OC(O)(CC4(N5CCOCC5)C5CC4CC1(C)C5)C2C3(C)O

>  <smiles>  (180) 
[H]OC12OC3(C([H])([H])[H])C4([H])C(=C([H])C([H])([H])C4(C([H])([H])[H])C(O[H])(C([H])([H])[H])C13[H])C(=C([H])[H])C1(C([H])([H])[H])C([H])([H])C3([H])C([H])([H])C([H])(C1([H])[H])C3(N1C([H])([H])C([H])([H])OC([H])([H])C1([H])[H])C2([H])[H]

$$$$
57:0:0
     RDKit          3D

 67 75  0  0  1  0  0  0  0  0999 V2000
    2.7323   -5.3768    0.0765 O   0  0  0  0  0  0  0  0  0  0  0  0
    3.0157   -4.0792    0.3619 C   0  0  0  0  0  0  0  0  0  0  0  0
    3.3462   -3.1679   -0.6819 C   0  0  0  0  0  0  0  0  0  0  0  0
    3.6644   -1.8105   -0.4234 C   0  0  0  0  0  0  0  0  0  0  0  0
    3.6083   -1.3329    0.9047 C   0  0  0  0  0  0  0  0  0  0  0  0
    3.2294   -2.2797    1.8566 C   0  0  0  0  0  0  0  0  0  0  0  0
    2.9788   -3.6228    1.7003 C   0  0  0  0  0  0  0  0  0  0  0  0
    2.7257   -4.2718    2.8973 O   0  0  0  0  0  0  0  0  0  0  0  0
    3.2466   -3.3495    3.8819 C   0  0  2  0  0  0  0  0  0  0  0  0
    2.7584   -3.3387    5.3130 C   0  0  0  0  0  0  0  0  0  0  0  0
    1.8514   -4.2136    5.7802 C   0  0  0  0  0  0  0  0  0  0  0  0
    1.3008   -4.2799    7.1985 C   0  0  2  0  0  0  0  0  0  0  0  0
    1.3530   -5.6699    7.8611 C   0  0  1  0  0  0  0  0  0  0  0  0
    1.4612   -5.4048    9.3436 C   0  0  0  0  0  0  0  0  0  0  0  0
    0.3115   -4.8634    9.7694 C   0  0  0  0  0  0  0  0  0  0  0  0
   -0.6944   -4.8336    8.6269 C   0  0  2  0  0  0  0  0  0  0  0  0
   -0.1418   -5.9825    7.7781 C   0  0  1  0  0  0  0  0  0  0  0  0
   -0.9073   -5.3262    6.6331 C   0  0  0  0  0  0  0  0  0  0  0  0
   -0.2177   -4.1348    7.3080 C   0  0  2  0  0  0  0  0  0  0  0  0
    3.4387   -2.2010    6.1092 C   0  0  0  0  0  0  0  0  0  0  0  0
    3.4796   -0.8034    5.3913 C   0  0  0  0  0  0  0  0  0  0  0  0
    3.7843   -0.8673    3.8626 C   0  0  2  0  0  0  0  0  0  0  0  0
    5.1739   -1.1350    3.7807 O   0  0  0  0  0  0  0  0  0  0  0  0
    3.4962    0.3629    2.9494 C   0  0  1  0  0  0  0  0  0  0  0  0
    3.9414    0.0519    1.4699 C   0  0  0  0  0  0  0  0  0  0  0  0
    2.0579    0.7874    3.0339 N   0  0  1  0  0  0  0  0  0  0  0  0
    1.7652    2.0906    2.3714 C   0  0  0  0  0  0  0  0  0  0  0  0
    1.6466    3.2200    3.3661 C   0  0  0  0  0  0  0  0  0  0  0  0
    2.1822    4.5951    3.0056 C   0  0  0  0  0  0  0  0  0  0  0  0
    2.8774    3.7706    4.0499 C   0  0  0  0  0  0  0  0  0  0  0  0
    1.1111   -0.2883    2.6328 C   0  0  0  0  0  0  0  0  0  0  0  0
    1.4228   -1.6010    3.3737 C   0  0  0  0  0  0  0  0  0  0  0  0
    2.9393   -1.9859    3.2716 C   0  0  1  0  0  0  0  0  0  0  0  0
    2.8671   -5.5877   -0.8479 H   0  0  0  0  0  0  0  0  0  0  0  0
    3.3425   -3.5107   -1.7056 H   0  0  0  0  0  0  0  0  0  0  0  0
    3.9094   -1.1305   -1.2296 H   0  0  0  0  0  0  0  0  0  0  0  0
    4.3198   -3.5356    3.9257 H   0  0  0  0  0  0  0  0  0  0  0  0
    1.4784   -4.9527    5.0865 H   0  0  0  0  0  0  0  0  0  0  0  0
    1.7832   -3.5401    7.8335 H   0  0  0  0  0  0  0  0  0  0  0  0
    2.0291   -6.4221    7.4471 H   0  0  0  0  0  0  0  0  0  0  0  0
    2.3591   -5.5452    9.9237 H   0  0  0  0  0  0  0  0  0  0  0  0
    0.1119   -4.5049   10.7711 H   0  0  0  0  0  0  0  0  0  0  0  0
   -1.7624   -4.8833    8.8614 H   0  0  0  0  0  0  0  0  0  0  0  0
   -0.4695   -6.9738    8.0902 H   0  0  0  0  0  0  0  0  0  0  0  0
   -0.5346   -5.6112    5.6469 H   0  0  0  0  0  0  0  0  0  0  0  0
   -1.9984   -5.3743    6.6949 H   0  0  0  0  0  0  0  0  0  0  0  0
   -0.6587   -3.1633    7.0922 H   0  0  0  0  0  0  0  0  0  0  0  0
    2.9897   -2.0496    7.0879 H   0  0  0  0  0  0  0  0  0  0  0  0
    4.4593   -2.5371    6.3014 H   0  0  0  0  0  0  0  0  0  0  0  0
    2.5270   -0.3085    5.5689 H   0  0  0  0  0  0  0  0  0  0  0  0
    4.2163   -0.1779    5.8943 H   0  0  0  0  0  0  0  0  0  0  0  0
    5.3824   -1.3783    2.8907 H   0  0  0  0  0  0  0  0  0  0  0  0
    4.0951    1.1876    3.3246 H   0  0  0  0  0  0  0  0  0  0  0  0
    5.0252    0.1452    1.4172 H   0  0  0  0  0  0  0  0  0  0  0  0
    3.5705    0.7951    0.7693 H   0  0  0  0  0  0  0  0  0  0  0  0
    2.5463    2.3652    1.6876 H   0  0  0  0  0  0  0  0  0  0  0  0
    0.8487    2.0484    1.7842 H   0  0  0  0  0  0  0  0  0  0  0  0
    0.7188    3.2142    3.9381 H   0  0  0  0  0  0  0  0  0  0  0  0
    2.6719    4.7119    2.0401 H   0  0  0  0  0  0  0  0  0  0  0  0
    1.6375    5.4707    3.3528 H   0  0  0  0  0  0  0  0  0  0  0  0
    2.7751    4.0701    5.0911 H   0  0  0  0  0  0  0  0  0  0  0  0
    3.8348    3.3406    3.7757 H   0  0  0  0  0  0  0  0  0  0  0  0
    0.0934    0.0247    2.8630 H   0  0  0  0  0  0  0  0  0  0  0  0
    1.1507   -0.4423    1.5551 H   0  0  0  0  0  0  0  0  0  0  0  0
    1.1058   -1.4916    4.4126 H   0  0  0  0  0  0  0  0  0  0  0  0
    0.7925   -2.3973    2.9749 H   0  0  0  0  0  0  0  0  0  0  0  0
    1.8764    0.9495    4.0157 H   0  0  0  0  0  0  0  0  0  0  0  0
  1  2  1  0
  1 34  1  0
  2  7  2  0
  2  3  1  0
  3  4  2  0
  3 35  1  0
  4  5  1  0
  4 36  1  0
  5 25  1  0
  5  6  2  0
  6 33  1  0
  6  7  1  0
  7  8  1  0
  8  9  1  0
  9 33  1  0
  9 10  1  0
  9 37  1  1
 10 11  2  3
 10 20  1  0
 11 12  1  0
 11 38  1  0
 12 19  1  0
 12 13  1  0
 12 39  1  1
 13 17  1  0
 13 14  1  0
 13 40  1  6
 14 15  2  0
 14 41  1  0
 15 16  1  0
 15 42  1  0
 16 19  1  0
 16 17  1  0
 16 43  1  1
 17 18  1  0
 17 44  1  1
 18 19  1  0
 18 45  1  0
 18 46  1  0
 19 47  1  6
 20 21  1  0
 20 48  1  0
 20 49  1  0
 21 22  1  0
 21 50  1  0
 21 51  1  0
 22 33  1  0
 22 23  1  1
 22 24  1  0
 23 52  1  0
 24 25  1  0
 24 26  1  0
 24 53  1  1
 25 54  1  0
 25 55  1  0
 26 27  1  0
 26 31  1  0
 26 67  1  1
 27 28  1  0
 27 56  1  0
 27 57  1  0
 28 30  1  0
 28 29  1  0
 28 58  1  0
 29 30  1  0
 29 59  1  0
 29 60  1  0
 30 61  1  0
 30 62  1  0
 31 32  1  0
 31 63  1  0
 31 64  1  0
 33 32  1  6
 32 65  1  0
 32 66  1  0
M  CHG  1  26   1
M  END
>  <i_m_ct_stereo_status>  (181) 
1

>  <s_m_source_file>  (181) 
/var/tmp/pbs.5076255.sched01/tmpcdf8lnea/434bzo3qpq.sdf

>  <i_m_source_file_index>  (181) 
34

>  <i_lp_mmshare_version>  (181) 
48012

>  <i_f3d_flags>  (181) 
0

>  <s_epik_input>  (181) 
W0NAXTEyM2M0YzVbY0hdW2NIXWMoW09IXSljNE9bQ0BASF0xL0MoPVtDSF0vW0NASF02W0NAQEhdKFtDSDJdNylbQ0BIXShbQ0hdPVtDSF04KVtDQEBIXTdbQ0BASF02OClbQ0gyXVtDSDJdW0NAXTIoW09IXSlbQ0BASF0oW0NIMl01KU4oW0NIMl1bQ0gyXTMpW0NIMl1bQ0hdOVtDSDJdW0NIMl05

>  <s_epik_cmdline>  (181) 
J2VwaWtfcHl0aG9uJywgJy1waHQnLCAnMi4wJywgJy1waCcsICc3LjAnLCAnLXRuJywgJzgnLCAnLW1hJywgJzIwMCcsICctaW1hZScsICc8aW5maWxlLm1hZT4nLCAnLW9tYWUnLCAnPG91dGZpbGUubWFlPic=

>  <r_lp_tautomer_probability>  (181) 
1

>  <r_epik_Ionization_Penalty>  (181) 
0.0381101

>  <r_epik_Ionization_Penalty_Charging>  (181) 
0.0270267

>  <r_epik_Ionization_Penalty_Neutral>  (181) 
0.0110834

>  <r_epik_State_Penalty>  (181) 
0.0302984

>  <r_epik_Charging_Adjusted_Penalty>  (181) 
0.0573251

>  <i_epik_Tot_Q>  (181) 
1

>  <i_epik_Tot_abs_Q>  (181) 
1

>  <s_lp_Force_Field>  (181) 
OPLS3e

>  <r_lp_Energy>  (181) 
117.716

>  <b_lp_Chiralities_Consistent>  (181) 
1

>  <s_lp_Variant>  (181) 
57:0-1

>  <s_i_glide_gridfile>  (181) 
pfpi4k_grid

>  <i_i_glide_lignum>  (181) 
34

>  <i_i_glide_rotatable_bonds>  (181) 
5

>  <r_i_docking_score>  (181) 
-2.87988

>  <r_i_glide_ligand_efficiency>  (181) 
-0.0872692

>  <r_i_glide_ligand_efficiency_sa>  (181) 
-0.279919

>  <r_i_glide_ligand_efficiency_ln>  (181) 
-0.640471

>  <r_i_glide_gscore>  (181) 
-2.87988

>  <r_i_glide_lipo>  (181) 
-0.177459

>  <r_i_glide_hbond>  (181) 
0

>  <r_i_glide_metal>  (181) 
-0

>  <r_i_glide_rewards>  (181) 
-0.377828

>  <r_i_glide_evdw>  (181) 
-26.243

>  <r_i_glide_ecoul>  (181) 
-8.04837

>  <r_i_glide_erotb>  (181) 
0.202384

>  <r_i_glide_esite>  (181) 
-0.00757244

>  <r_i_glide_emodel>  (181) 
-38.827

>  <r_i_glide_energy>  (181) 
-34.2914

>  <r_i_glide_einternal>  (181) 
3.18353

>  <r_i_glide_intrahb_reward>  (181) 
-0

>  <i_i_glide_confnum>  (181) 
3

>  <i_i_glide_posenum>  (181) 
13

>  <r_i_glide_eff_state_penalty>  (181) 
0

>  <ligand_id>  (181) 
57

>  <original_smiles>  (181) 
Oc1ccc2c3c1OC1C(=CC4C5C=CC6C5CC46)CCC4(O)C(C2)N(CC2CC2)CCC314

>  <smiles>  (181) 
[H]Oc1c([H])c([H])c2c3c1OC1([H])C(=C([H])C4([H])C5([H])C([H])=C([H])C6([H])C4([H])C([H])([H])C56[H])C([H])([H])C([H])([H])C4(O[H])C31C([H])([H])C([H])([H])[N+]([H])(C([H])([H])C1([H])C([H])([H])C1([H])[H])C4([H])C2([H])[H]

$$$$
57:0:1
     RDKit          3D

 67 75  0  0  1  0  0  0  0  0999 V2000
   -0.2902   -6.6587    2.8552 O   0  0  0  0  0  0  0  0  0  0  0  0
    0.9841   -6.2926    2.5433 C   0  0  0  0  0  0  0  0  0  0  0  0
    1.8206   -7.1775    1.8046 C   0  0  0  0  0  0  0  0  0  0  0  0
    3.1565   -6.8323    1.4601 C   0  0  0  0  0  0  0  0  0  0  0  0
    3.6577   -5.5661    1.8197 C   0  0  0  0  0  0  0  0  0  0  0  0
    2.7571   -4.7438    2.4991 C   0  0  0  0  0  0  0  0  0  0  0  0
    1.4779   -5.0285    2.9372 C   0  0  0  0  0  0  0  0  0  0  0  0
    0.9179   -3.9991    3.6758 O   0  0  0  0  0  0  0  0  0  0  0  0
    2.0569   -3.1913    4.0377 C   0  0  2  0  0  0  0  0  0  0  0  0
    1.9241   -1.7235    4.3673 C   0  0  0  0  0  0  0  0  0  0  0  0
    0.7461   -1.0721    4.3694 C   0  0  0  0  0  0  0  0  0  0  0  0
    0.5340    0.3927    4.7098 C   0  0  2  0  0  0  0  0  0  0  0  0
   -0.9450    0.8400    4.7871 C   0  0  1  0  0  0  0  0  0  0  0  0
   -0.9690    2.0156    5.7340 C   0  0  0  0  0  0  0  0  0  0  0  0
   -0.3356    3.0442    5.1586 C   0  0  0  0  0  0  0  0  0  0  0  0
    0.0570    2.6734    3.7355 C   0  0  2  0  0  0  0  0  0  0  0  0
   -0.9945    1.5958    3.4561 C   0  0  1  0  0  0  0  0  0  0  0  0
   -0.0251    1.1209    2.3794 C   0  0  0  0  0  0  0  0  0  0  0  0
    0.8968    1.3618    3.5809 C   0  0  2  0  0  0  0  0  0  0  0  0
    3.3103   -1.1056    4.6565 C   0  0  0  0  0  0  0  0  0  0  0  0
    4.4500   -1.4874    3.6319 C   0  0  0  0  0  0  0  0  0  0  0  0
    4.4251   -2.9763    3.1513 C   0  0  2  0  0  0  0  0  0  0  0  0
    4.9334   -3.7273    4.2421 O   0  0  0  0  0  0  0  0  0  0  0  0
    5.2203   -3.4127    1.8804 C   0  0  1  0  0  0  0  0  0  0  0  0
    5.0638   -4.9633    1.6388 C   0  0  0  0  0  0  0  0  0  0  0  0
    4.8116   -2.6114    0.6769 N   0  0  1  0  0  0  0  0  0  0  0  0
    5.6662   -2.8233   -0.5244 C   0  0  0  0  0  0  0  0  0  0  0  0
    7.0898   -2.3518   -0.2958 C   0  0  0  0  0  0  0  0  0  0  0  0
    8.1911   -2.7849   -1.2410 C   0  0  0  0  0  0  0  0  0  0  0  0
    8.1503   -3.3364    0.1548 C   0  0  0  0  0  0  0  0  0  0  0  0
    3.3668   -2.7312    0.3557 C   0  0  0  0  0  0  0  0  0  0  0  0
    2.5138   -2.4643    1.6074 C   0  0  0  0  0  0  0  0  0  0  0  0
    2.9807   -3.3260    2.8315 C   0  0  1  0  0  0  0  0  0  0  0  0
   -0.4425   -7.5888    2.7286 H   0  0  0  0  0  0  0  0  0  0  0  0
    1.4420   -8.1393    1.4947 H   0  0  0  0  0  0  0  0  0  0  0  0
    3.7821   -7.5289    0.9184 H   0  0  0  0  0  0  0  0  0  0  0  0
    2.4841   -3.6673    4.9204 H   0  0  0  0  0  0  0  0  0  0  0  0
   -0.1460   -1.6261    4.1200 H   0  0  0  0  0  0  0  0  0  0  0  0
    1.0866    0.6215    5.6246 H   0  0  0  0  0  0  0  0  0  0  0  0
   -1.7200    0.0850    4.9288 H   0  0  0  0  0  0  0  0  0  0  0  0
   -1.3590    1.9835    6.7384 H   0  0  0  0  0  0  0  0  0  0  0  0
   -0.1299    4.0024    5.6172 H   0  0  0  0  0  0  0  0  0  0  0  0
    0.1500    3.4651    2.9844 H   0  0  0  0  0  0  0  0  0  0  0  0
   -1.9548    1.9893    3.1187 H   0  0  0  0  0  0  0  0  0  0  0  0
   -0.1693    0.0778    2.0935 H   0  0  0  0  0  0  0  0  0  0  0  0
    0.0947    1.7781    1.5125 H   0  0  0  0  0  0  0  0  0  0  0  0
    1.9465    1.4957    3.3258 H   0  0  0  0  0  0  0  0  0  0  0  0
    3.2404   -0.0202    4.7350 H   0  0  0  0  0  0  0  0  0  0  0  0
    3.6055   -1.4572    5.6465 H   0  0  0  0  0  0  0  0  0  0  0  0
    4.3788   -0.8122    2.7809 H   0  0  0  0  0  0  0  0  0  0  0  0
    5.4179   -1.2637    4.0794 H   0  0  0  0  0  0  0  0  0  0  0  0
    4.7571   -4.6439    4.0843 H   0  0  0  0  0  0  0  0  0  0  0  0
    6.2662   -3.1985    2.0818 H   0  0  0  0  0  0  0  0  0  0  0  0
    5.7148   -5.4810    2.3429 H   0  0  0  0  0  0  0  0  0  0  0  0
    5.4293   -5.2796    0.6634 H   0  0  0  0  0  0  0  0  0  0  0  0
    5.6767   -3.8613   -0.8571 H   0  0  0  0  0  0  0  0  0  0  0  0
    5.2645   -2.2614   -1.3663 H   0  0  0  0  0  0  0  0  0  0  0  0
    7.1749   -1.3317    0.0815 H   0  0  0  0  0  0  0  0  0  0  0  0
    7.9321   -3.4603   -2.0513 H   0  0  0  0  0  0  0  0  0  0  0  0
    8.9912   -2.0781   -1.4597 H   0  0  0  0  0  0  0  0  0  0  0  0
    8.8902   -2.9734    0.8676 H   0  0  0  0  0  0  0  0  0  0  0  0
    7.8396   -4.3734    0.2910 H   0  0  0  0  0  0  0  0  0  0  0  0
    3.0970   -2.0120   -0.4181 H   0  0  0  0  0  0  0  0  0  0  0  0
    3.1484   -3.7159   -0.0588 H   0  0  0  0  0  0  0  0  0  0  0  0
    2.5374   -1.3926    1.8199 H   0  0  0  0  0  0  0  0  0  0  0  0
    1.4657   -2.6549    1.3830 H   0  0  0  0  0  0  0  0  0  0  0  0
    4.9366   -1.6428    0.9348 H   0  0  0  0  0  0  0  0  0  0  0  0
  1  2  1  0
  1 34  1  0
  2  7  2  0
  2  3  1  0
  3  4  2  0
  3 35  1  0
  4  5  1  0
  4 36  1  0
  5 25  1  0
  5  6  2  0
  6 33  1  0
  6  7  1  0
  7  8  1  0
  8  9  1  0
  9 33  1  0
  9 10  1  0
  9 37  1  1
 10 11  2  3
 10 20  1  0
 11 12  1  0
 11 38  1  0
 12 19  1  0
 12 13  1  0
 12 39  1  1
 13 17  1  0
 13 14  1  0
 13 40  1  1
 14 15  2  0
 14 41  1  0
 15 16  1  0
 15 42  1  0
 16 19  1  0
 16 17  1  0
 16 43  1  6
 17 18  1  0
 17 44  1  6
 18 19  1  0
 18 45  1  0
 18 46  1  0
 19 47  1  6
 20 21  1  0
 20 48  1  0
 20 49  1  0
 21 22  1  0
 21 50  1  0
 21 51  1  0
 22 33  1  0
 22 23  1  1
 22 24  1  0
 23 52  1  0
 24 25  1  0
 24 26  1  0
 24 53  1  1
 25 54  1  0
 25 55  1  0
 26 27  1  0
 26 31  1  0
 26 67  1  1
 27 28  1  0
 27 56  1  0
 27 57  1  0
 28 30  1  0
 28 29  1  0
 28 58  1  0
 29 30  1  0
 29 59  1  0
 29 60  1  0
 30 61  1  0
 30 62  1  0
 31 32  1  0
 31 63  1  0
 31 64  1  0
 33 32  1  6
 32 65  1  0
 32 66  1  0
M  CHG  1  26   1
M  END
>  <i_m_ct_stereo_status>  (182) 
1

>  <s_m_source_file>  (182) 
/var/tmp/pbs.5076255.sched01/tmpcdf8lnea/434bzo3qpq.sdf

>  <i_m_source_file_index>  (182) 
34

>  <i_lp_mmshare_version>  (182) 
48012

>  <i_f3d_flags>  (182) 
0

>  <s_epik_input>  (182) 
W0NAXTEyM2M0YzVbY0hdW2NIXWMoW09IXSljNE9bQ0BASF0xL0MoPVtDSF0vW0NASF02W0NAQEhdKFtDSDJdNylbQ0BIXShbQ0hdPVtDSF04KVtDQEBIXTdbQ0BASF02OClbQ0gyXVtDSDJdW0NAXTIoW09IXSlbQ0BASF0oW0NIMl01KU4oW0NIMl1bQ0gyXTMpW0NIMl1bQ0hdOVtDSDJdW0NIMl05

>  <s_epik_cmdline>  (182) 
J2VwaWtfcHl0aG9uJywgJy1waHQnLCAnMi4wJywgJy1waCcsICc3LjAnLCAnLXRuJywgJzgnLCAnLW1hJywgJzIwMCcsICctaW1hZScsICc8aW5maWxlLm1hZT4nLCAnLW9tYWUnLCAnPG91dGZpbGUubWFlPic=

>  <r_lp_tautomer_probability>  (182) 
1

>  <r_epik_Ionization_Penalty>  (182) 
0.0381101

>  <r_epik_Ionization_Penalty_Charging>  (182) 
0.0270267

>  <r_epik_Ionization_Penalty_Neutral>  (182) 
0.0110834

>  <r_epik_State_Penalty>  (182) 
0.0302984

>  <r_epik_Charging_Adjusted_Penalty>  (182) 
0.0573251

>  <i_epik_Tot_Q>  (182) 
1

>  <i_epik_Tot_abs_Q>  (182) 
1

>  <s_lp_Force_Field>  (182) 
OPLS3e

>  <r_lp_Energy>  (182) 
117.716

>  <b_lp_Chiralities_Consistent>  (182) 
1

>  <s_lp_Variant>  (182) 
57:0-1

>  <s_i_glide_gridfile>  (182) 
pfpi4k_grid

>  <i_i_glide_lignum>  (182) 
34

>  <i_i_glide_rotatable_bonds>  (182) 
5

>  <r_i_docking_score>  (182) 
-2.77577

>  <r_i_glide_ligand_efficiency>  (182) 
-0.0841144

>  <r_i_glide_ligand_efficiency_sa>  (182) 
-0.2698

>  <r_i_glide_ligand_efficiency_ln>  (182) 
-0.617318

>  <r_i_glide_gscore>  (182) 
-2.77577

>  <r_i_glide_lipo>  (182) 
-0.440312

>  <r_i_glide_hbond>  (182) 
0

>  <r_i_glide_metal>  (182) 
-0

>  <r_i_glide_rewards>  (182) 
-0.377828

>  <r_i_glide_evdw>  (182) 
-29.0756

>  <r_i_glide_ecoul>  (182) 
-4.70826

>  <r_i_glide_erotb>  (182) 
0.202384

>  <r_i_glide_esite>  (182) 
0

>  <r_i_glide_emodel>  (182) 
-37.9505

>  <r_i_glide_energy>  (182) 
-33.7838

>  <r_i_glide_einternal>  (182) 
3.76651

>  <r_i_glide_intrahb_reward>  (182) 
-0

>  <i_i_glide_confnum>  (182) 
3

>  <i_i_glide_posenum>  (182) 
18

>  <r_i_glide_eff_state_penalty>  (182) 
0

>  <ligand_id>  (182) 
57

>  <original_smiles>  (182) 
Oc1ccc2c3c1OC1C(=CC4C5C=CC6C5CC46)CCC4(O)C(C2)N(CC2CC2)CCC314

>  <smiles>  (182) 
[H]Oc1c([H])c([H])c2c3c1OC1([H])C(=C([H])C4([H])C5([H])C([H])=C([H])C6([H])C4([H])C([H])([H])C56[H])C([H])([H])C([H])([H])C4(O[H])C31C([H])([H])C([H])([H])[N+]([H])(C([H])([H])C1([H])C([H])([H])C1([H])[H])C4([H])C2([H])[H]

$$$$
57:0:2
     RDKit          3D

 67 75  0  0  1  0  0  0  0  0999 V2000
    4.3403   -5.5385   -0.3241 O   0  0  0  0  0  0  0  0  0  0  0  0
    4.1636   -4.2198   -0.0226 C   0  0  0  0  0  0  0  0  0  0  0  0
    3.9833   -3.2660   -1.0614 C   0  0  0  0  0  0  0  0  0  0  0  0
    3.8122   -1.8798   -0.7880 C   0  0  0  0  0  0  0  0  0  0  0  0
    3.7687   -1.4421    0.5511 C   0  0  0  0  0  0  0  0  0  0  0  0
    3.9021   -2.4493    1.5032 C   0  0  0  0  0  0  0  0  0  0  0  0
    4.1489   -3.8004    1.3262 C   0  0  0  0  0  0  0  0  0  0  0  0
    4.3225   -4.4794    2.5152 O   0  0  0  0  0  0  0  0  0  0  0  0
    4.5880   -3.4217    3.4636 C   0  0  2  0  0  0  0  0  0  0  0  0
    4.3247   -3.5846    4.9428 C   0  0  0  0  0  0  0  0  0  0  0  0
    3.8721   -4.7313    5.4848 C   0  0  0  0  0  0  0  0  0  0  0  0
    3.5852   -4.9839    6.9579 C   0  0  2  0  0  0  0  0  0  0  0  0
    4.0995   -6.3284    7.5106 C   0  0  1  0  0  0  0  0  0  0  0  0
    4.3543   -6.0862    8.9794 C   0  0  0  0  0  0  0  0  0  0  0  0
    3.1829   -5.8882    9.5928 C   0  0  0  0  0  0  0  0  0  0  0  0
    2.0440   -6.1013    8.6059 C   0  0  2  0  0  0  0  0  0  0  0  0
    2.7439   -7.0329    7.6104 C   0  0  1  0  0  0  0  0  0  0  0  0
    1.6692   -6.5706    6.6292 C   0  0  0  0  0  0  0  0  0  0  0  0
    2.1175   -5.2579    7.2861 C   0  0  2  0  0  0  0  0  0  0  0  0
    4.6269   -2.2663    5.6917 C   0  0  0  0  0  0  0  0  0  0  0  0
    4.0502   -0.9581    5.0320 C   0  0  0  0  0  0  0  0  0  0  0  0
    4.1512   -0.9125    3.4758 C   0  0  2  0  0  0  0  0  0  0  0  0
    5.5148   -0.6435    3.2025 O   0  0  0  0  0  0  0  0  0  0  0  0
    3.3026    0.1157    2.6640 C   0  0  1  0  0  0  0  0  0  0  0  0
    3.6267   -0.0213    1.1321 C   0  0  0  0  0  0  0  0  0  0  0  0
    1.8351   -0.0430    2.9387 N   0  0  1  0  0  0  0  0  0  0  0  0
    0.9879    1.0448    2.3695 C   0  0  0  0  0  0  0  0  0  0  0  0
   -0.4063    1.0849    2.9797 C   0  0  0  0  0  0  0  0  0  0  0  0
   -1.2227    2.3562    2.9387 C   0  0  0  0  0  0  0  0  0  0  0  0
   -0.6589    1.8652    4.2470 C   0  0  0  0  0  0  0  0  0  0  0  0
    1.3326   -1.4052    2.6191 C   0  0  0  0  0  0  0  0  0  0  0  0
    2.1999   -2.4922    3.2628 C   0  0  0  0  0  0  0  0  0  0  0  0
    3.7186   -2.2759    2.9518 C   0  0  1  0  0  0  0  0  0  0  0  0
    4.0697   -5.7586   -1.2110 H   0  0  0  0  0  0  0  0  0  0  0  0
    3.9748   -3.5947   -2.0893 H   0  0  0  0  0  0  0  0  0  0  0  0
    3.6770   -1.1692   -1.5928 H   0  0  0  0  0  0  0  0  0  0  0  0
    5.6486   -3.1914    3.3602 H   0  0  0  0  0  0  0  0  0  0  0  0
    3.7030   -5.5651    4.8198 H   0  0  0  0  0  0  0  0  0  0  0  0
    3.9568   -4.1604    7.5630 H   0  0  0  0  0  0  0  0  0  0  0  0
    4.8752   -6.8578    6.9550 H   0  0  0  0  0  0  0  0  0  0  0  0
    5.3380   -6.0003    9.4171 H   0  0  0  0  0  0  0  0  0  0  0  0
    3.0451   -5.6266   10.6352 H   0  0  0  0  0  0  0  0  0  0  0  0
    1.0749   -6.4364    8.9858 H   0  0  0  0  0  0  0  0  0  0  0  0
    2.7347   -8.0845    7.8994 H   0  0  0  0  0  0  0  0  0  0  0  0
    1.9548   -6.7052    5.5842 H   0  0  0  0  0  0  0  0  0  0  0  0
    0.6506   -6.9132    6.8289 H   0  0  0  0  0  0  0  0  0  0  0  0
    1.4088   -4.4343    7.2046 H   0  0  0  0  0  0  0  0  0  0  0  0
    4.2818   -2.2913    6.7233 H   0  0  0  0  0  0  0  0  0  0  0  0
    5.7148   -2.1910    5.7445 H   0  0  0  0  0  0  0  0  0  0  0  0
    3.0136   -0.8560    5.3482 H   0  0  0  0  0  0  0  0  0  0  0  0
    4.5581   -0.0973    5.4659 H   0  0  0  0  0  0  0  0  0  0  0  0
    5.6829   -0.8308    2.2906 H   0  0  0  0  0  0  0  0  0  0  0  0
    3.5775    1.1186    2.9883 H   0  0  0  0  0  0  0  0  0  0  0  0
    4.5707    0.4871    0.9287 H   0  0  0  0  0  0  0  0  0  0  0  0
    2.8912    0.5119    0.5346 H   0  0  0  0  0  0  0  0  0  0  0  0
    1.4680    2.0075    2.5525 H   0  0  0  0  0  0  0  0  0  0  0  0
    0.8794    0.9452    1.2899 H   0  0  0  0  0  0  0  0  0  0  0  0
   -1.0044    0.1872    2.8269 H   0  0  0  0  0  0  0  0  0  0  0  0
   -0.7698    3.2352    2.4853 H   0  0  0  0  0  0  0  0  0  0  0  0
   -2.2991    2.2677    2.8003 H   0  0  0  0  0  0  0  0  0  0  0  0
   -1.3556    1.4360    4.9648 H   0  0  0  0  0  0  0  0  0  0  0  0
    0.1883    2.4012    4.6715 H   0  0  0  0  0  0  0  0  0  0  0  0
    0.3206   -1.5332    2.9971 H   0  0  0  0  0  0  0  0  0  0  0  0
    1.2728   -1.5432    1.5391 H   0  0  0  0  0  0  0  0  0  0  0  0
    1.9972   -2.4970    4.3354 H   0  0  0  0  0  0  0  0  0  0  0  0
    1.8615   -3.4697    2.9170 H   0  0  0  0  0  0  0  0  0  0  0  0
    1.7485    0.0565    3.9407 H   0  0  0  0  0  0  0  0  0  0  0  0
  1  2  1  0
  1 34  1  0
  2  7  2  0
  2  3  1  0
  3  4  2  0
  3 35  1  0
  4  5  1  0
  4 36  1  0
  5 25  1  0
  5  6  2  0
  6 33  1  0
  6  7  1  0
  7  8  1  0
  8  9  1  0
  9 33  1  0
  9 10  1  0
  9 37  1  1
 10 11  2  3
 10 20  1  0
 11 12  1  0
 11 38  1  0
 12 19  1  0
 12 13  1  0
 12 39  1  1
 13 17  1  0
 13 14  1  0
 13 40  1  6
 14 15  2  0
 14 41  1  0
 15 16  1  0
 15 42  1  0
 16 19  1  0
 16 17  1  0
 16 43  1  1
 17 18  1  0
 17 44  1  1
 18 19  1  0
 18 45  1  0
 18 46  1  0
 19 47  1  1
 20 21  1  0
 20 48  1  0
 20 49  1  0
 21 22  1  0
 21 50  1  0
 21 51  1  0
 22 33  1  0
 22 23  1  1
 22 24  1  0
 23 52  1  0
 24 25  1  0
 24 26  1  0
 24 53  1  1
 25 54  1  0
 25 55  1  0
 26 27  1  0
 26 31  1  0
 26 67  1  1
 27 28  1  0
 27 56  1  0
 27 57  1  0
 28 30  1  0
 28 29  1  0
 28 58  1  0
 29 30  1  0
 29 59  1  0
 29 60  1  0
 30 61  1  0
 30 62  1  0
 31 32  1  0
 31 63  1  0
 31 64  1  0
 33 32  1  6
 32 65  1  0
 32 66  1  0
M  CHG  1  26   1
M  END
>  <i_m_ct_stereo_status>  (183) 
1

>  <s_m_source_file>  (183) 
/var/tmp/pbs.5076255.sched01/tmpcdf8lnea/434bzo3qpq.sdf

>  <i_m_source_file_index>  (183) 
34

>  <i_lp_mmshare_version>  (183) 
48012

>  <i_f3d_flags>  (183) 
0

>  <s_epik_input>  (183) 
W0NAXTEyM2M0YzVbY0hdW2NIXWMoW09IXSljNE9bQ0BASF0xL0MoPVtDSF0vW0NASF02W0NAQEhdKFtDSDJdNylbQ0BIXShbQ0hdPVtDSF04KVtDQEBIXTdbQ0BASF02OClbQ0gyXVtDSDJdW0NAXTIoW09IXSlbQ0BASF0oW0NIMl01KU4oW0NIMl1bQ0gyXTMpW0NIMl1bQ0hdOVtDSDJdW0NIMl05

>  <s_epik_cmdline>  (183) 
J2VwaWtfcHl0aG9uJywgJy1waHQnLCAnMi4wJywgJy1waCcsICc3LjAnLCAnLXRuJywgJzgnLCAnLW1hJywgJzIwMCcsICctaW1hZScsICc8aW5maWxlLm1hZT4nLCAnLW9tYWUnLCAnPG91dGZpbGUubWFlPic=

>  <r_lp_tautomer_probability>  (183) 
1

>  <r_epik_Ionization_Penalty>  (183) 
0.0381101

>  <r_epik_Ionization_Penalty_Charging>  (183) 
0.0270267

>  <r_epik_Ionization_Penalty_Neutral>  (183) 
0.0110834

>  <r_epik_State_Penalty>  (183) 
0.0302984

>  <r_epik_Charging_Adjusted_Penalty>  (183) 
0.0573251

>  <i_epik_Tot_Q>  (183) 
1

>  <i_epik_Tot_abs_Q>  (183) 
1

>  <s_lp_Force_Field>  (183) 
OPLS3e

>  <r_lp_Energy>  (183) 
117.716

>  <b_lp_Chiralities_Consistent>  (183) 
1

>  <s_lp_Variant>  (183) 
57:0-1

>  <s_i_glide_gridfile>  (183) 
pfpi4k_grid

>  <i_i_glide_lignum>  (183) 
34

>  <i_i_glide_rotatable_bonds>  (183) 
5

>  <r_i_docking_score>  (183) 
-2.74105

>  <r_i_glide_ligand_efficiency>  (183) 
-0.083062

>  <r_i_glide_ligand_efficiency_sa>  (183) 
-0.266424

>  <r_i_glide_ligand_efficiency_ln>  (183) 
-0.609594

>  <r_i_glide_gscore>  (183) 
-2.74105

>  <r_i_glide_lipo>  (183) 
-0.09362

>  <r_i_glide_hbond>  (183) 
0

>  <r_i_glide_metal>  (183) 
-0

>  <r_i_glide_rewards>  (183) 
-0.377828

>  <r_i_glide_evdw>  (183) 
-23.7555

>  <r_i_glide_ecoul>  (183) 
-8.45996

>  <r_i_glide_erotb>  (183) 
0.202384

>  <r_i_glide_esite>  (183) 
-0.0152136

>  <r_i_glide_emodel>  (183) 
-37.8155

>  <r_i_glide_energy>  (183) 
-32.2154

>  <r_i_glide_einternal>  (183) 
0.742451

>  <r_i_glide_intrahb_reward>  (183) 
-0

>  <i_i_glide_confnum>  (183) 
3

>  <i_i_glide_posenum>  (183) 
1

>  <r_i_glide_eff_state_penalty>  (183) 
0

>  <ligand_id>  (183) 
57

>  <original_smiles>  (183) 
Oc1ccc2c3c1OC1C(=CC4C5C=CC6C5CC46)CCC4(O)C(C2)N(CC2CC2)CCC314

>  <smiles>  (183) 
[H]Oc1c([H])c([H])c2c3c1OC1([H])C(=C([H])C4([H])C5([H])C([H])=C([H])C6([H])C4([H])C([H])([H])C56[H])C([H])([H])C([H])([H])C4(O[H])C31C([H])([H])C([H])([H])[N+]([H])(C([H])([H])C1([H])C([H])([H])C1([H])[H])C4([H])C2([H])[H]

$$$$
57:1:0
     RDKit          3D

 67 75  0  0  1  0  0  0  0  0999 V2000
    2.7610   -5.0652   -0.2993 O   0  0  0  0  0  0  0  0  0  0  0  0
    3.0688   -3.8043    0.1207 C   0  0  0  0  0  0  0  0  0  0  0  0
    3.5184   -2.8285   -0.8250 C   0  0  0  0  0  0  0  0  0  0  0  0
    3.8548   -1.5149   -0.4112 C   0  0  0  0  0  0  0  0  0  0  0  0
    3.6888   -1.1569    0.9419 C   0  0  0  0  0  0  0  0  0  0  0  0
    3.1989   -2.1811    1.7831 C   0  0  0  0  0  0  0  0  0  0  0  0
    2.9270   -3.4732    1.4821 C   0  0  0  0  0  0  0  0  0  0  0  0
    2.5582   -4.1824    2.5601 O   0  0  0  0  0  0  0  0  0  0  0  0
    2.9860   -3.4400    3.6849 C   0  0  2  0  0  0  0  0  0  0  0  0
    2.3435   -3.5503    5.0568 C   0  0  0  0  0  0  0  0  0  0  0  0
    1.3460   -4.3939    5.4128 C   0  0  0  0  0  0  0  0  0  0  0  0
    0.6069   -5.4105    4.5213 C   0  0  2  0  0  0  0  0  0  0  0  0
    0.0292   -6.6500    5.2967 C   0  0  1  0  0  0  0  0  0  0  0  0
   -1.1828   -7.0987    4.4960 C   0  0  0  0  0  0  0  0  0  0  0  0
   -0.7663   -7.5868    3.3236 C   0  0  0  0  0  0  0  0  0  0  0  0
    0.7541   -7.6569    3.3374 C   0  0  2  0  0  0  0  0  0  0  0  0
    1.0512   -7.6876    4.8249 C   0  0  1  0  0  0  0  0  0  0  0  0
    2.4216   -7.1128    4.4430 C   0  0  0  0  0  0  0  0  0  0  0  0
    1.4552   -6.2999    3.5785 C   0  0  2  0  0  0  0  0  0  0  0  0
    2.9869   -2.5422    6.0345 C   0  0  0  0  0  0  0  0  0  0  0  0
    3.1549   -1.0786    5.4684 C   0  0  0  0  0  0  0  0  0  0  0  0
    3.6195   -0.9967    3.9699 C   0  0  2  0  0  0  0  0  0  0  0  0
    4.9879   -1.3595    3.9680 O   0  0  0  0  0  0  0  0  0  0  0  0
    3.4775    0.3177    3.1293 C   0  0  1  0  0  0  0  0  0  0  0  0
    4.0394    0.1305    1.6611 C   0  0  0  0  0  0  0  0  0  0  0  0
    2.0320    0.7914    3.1264 N   0  0  1  0  0  0  0  0  0  0  0  0
    1.8567    2.1748    2.5610 C   0  0  0  0  0  0  0  0  0  0  0  0
    2.5388    3.2545    3.3934 C   0  0  0  0  0  0  0  0  0  0  0  0
    1.7156    4.2090    4.2027 C   0  0  0  0  0  0  0  0  0  0  0  0
    2.4409    4.6879    2.9631 C   0  0  0  0  0  0  0  0  0  0  0  0
    1.0715   -0.2069    2.5414 C   0  0  0  0  0  0  0  0  0  0  0  0
    1.2711   -1.5716    3.1913 C   0  0  0  0  0  0  0  0  0  0  0  0
    2.7807   -2.0072    3.1899 C   0  0  1  0  0  0  0  0  0  0  0  0
    2.9441   -5.2762   -1.1991 H   0  0  0  0  0  0  0  0  0  0  0  0
    3.6055   -3.1109   -1.8819 H   0  0  0  0  0  0  0  0  0  0  0  0
    4.2152   -0.7834   -1.1374 H   0  0  0  0  0  0  0  0  0  0  0  0
    4.0492   -3.6735    3.8247 H   0  0  0  0  0  0  0  0  0  0  0  0
    0.9833   -4.3593    6.4320 H   0  0  0  0  0  0  0  0  0  0  0  0
   -0.2013   -4.8693    4.0102 H   0  0  0  0  0  0  0  0  0  0  0  0
   -0.0806   -6.5872    6.3890 H   0  0  0  0  0  0  0  0  0  0  0  0
   -2.1971   -6.9741    4.8271 H   0  0  0  0  0  0  0  0  0  0  0  0
   -1.3692   -7.9324    2.4807 H   0  0  0  0  0  0  0  0  0  0  0  0
    1.2578   -8.3265    2.6395 H   0  0  0  0  0  0  0  0  0  0  0  0
    1.0293   -8.6904    5.2352 H   0  0  0  0  0  0  0  0  0  0  0  0
    2.9053   -6.5468    5.2554 H   0  0  0  0  0  0  0  0  0  0  0  0
    3.1250   -7.7303    3.8825 H   0  0  0  0  0  0  0  0  0  0  0  0
    1.7436   -5.9920    2.5832 H   0  0  0  0  0  0  0  0  0  0  0  0
    2.4296   -2.5272    6.9794 H   0  0  0  0  0  0  0  0  0  0  0  0
    3.9712   -2.9456    6.2819 H   0  0  0  0  0  0  0  0  0  0  0  0
    2.2077   -0.5618    5.5885 H   0  0  0  0  0  0  0  0  0  0  0  0
    3.8534   -0.5371    6.0930 H   0  0  0  0  0  0  0  0  0  0  0  0
    5.2641   -1.5271    3.0775 H   0  0  0  0  0  0  0  0  0  0  0  0
    4.0791    1.0495    3.6586 H   0  0  0  0  0  0  0  0  0  0  0  0
    5.1263    0.1694    1.7240 H   0  0  0  0  0  0  0  0  0  0  0  0
    3.7623    0.9740    1.0090 H   0  0  0  0  0  0  0  0  0  0  0  0
    2.2121    2.1976    1.5318 H   0  0  0  0  0  0  0  0  0  0  0  0
    0.7882    2.3918    2.4678 H   0  0  0  0  0  0  0  0  0  0  0  0
    3.5097    2.9830    3.7932 H   0  0  0  0  0  0  0  0  0  0  0  0
    0.6333    4.1063    4.1512 H   0  0  0  0  0  0  0  0  0  0  0  0
    2.1232    4.4984    5.1637 H   0  0  0  0  0  0  0  0  0  0  0  0
    3.3140    5.3111    3.1139 H   0  0  0  0  0  0  0  0  0  0  0  0
    1.8429    4.9273    2.0846 H   0  0  0  0  0  0  0  0  0  0  0  0
    0.0525    0.1415    2.6982 H   0  0  0  0  0  0  0  0  0  0  0  0
    1.2074   -0.2503    1.4634 H   0  0  0  0  0  0  0  0  0  0  0  0
    0.8500   -1.5402    4.1887 H   0  0  0  0  0  0  0  0  0  0  0  0
    0.6658   -2.2977    2.6767 H   0  0  0  0  0  0  0  0  0  0  0  0
    1.7584    0.8728    4.1101 H   0  0  0  0  0  0  0  0  0  0  0  0
  1  2  1  0
  1 34  1  0
  2  7  2  0
  2  3  1  0
  3  4  2  0
  3 35  1  0
  4  5  1  0
  4 36  1  0
  5 25  1  0
  5  6  2  0
  6 33  1  0
  6  7  1  0
  7  8  1  0
  8  9  1  0
  9 33  1  0
  9 10  1  0
  9 37  1  1
 10 11  2  3
 10 20  1  0
 11 12  1  0
 11 38  1  0
 12 19  1  0
 12 13  1  0
 12 39  1  6
 13 17  1  0
 13 14  1  0
 13 40  1  1
 14 15  2  0
 14 41  1  0
 15 16  1  0
 15 42  1  0
 16 19  1  0
 16 17  1  0
 16 43  1  6
 17 18  1  0
 17 44  1  1
 18 19  1  0
 18 45  1  0
 18 46  1  0
 19 47  1  6
 20 21  1  0
 20 48  1  0
 20 49  1  0
 21 22  1  0
 21 50  1  0
 21 51  1  0
 22 33  1  0
 22 23  1  1
 22 24  1  0
 23 52  1  0
 24 25  1  0
 24 26  1  0
 24 53  1  1
 25 54  1  0
 25 55  1  0
 26 27  1  0
 26 31  1  0
 26 67  1  1
 27 28  1  0
 27 56  1  0
 27 57  1  0
 28 30  1  0
 28 29  1  0
 28 58  1  0
 29 30  1  0
 29 59  1  0
 29 60  1  0
 30 61  1  0
 30 62  1  0
 31 32  1  0
 31 63  1  0
 31 64  1  0
 33 32  1  6
 32 65  1  0
 32 66  1  0
M  CHG  1  26   1
M  END
>  <i_m_ct_stereo_status>  (184) 
1

>  <s_m_source_file>  (184) 
/var/tmp/pbs.5076255.sched01/tmpcdf8lnea/434bzo3qpq.sdf

>  <i_m_source_file_index>  (184) 
35

>  <i_lp_mmshare_version>  (184) 
48012

>  <i_f3d_flags>  (184) 
0

>  <s_epik_input>  (184) 
W0NAXTEyM2M0YzVbY0hdW2NIXWMoW09IXSljNE9bQ0BASF0xL0MoPVtDSF0vW0NASF02W0NAQEhdKFtDSDJdNylbQ0BIXShbQ0hdPVtDSF04KVtDQEBIXTdbQ0BASF02OClbQ0gyXVtDSDJdW0NAXTIoW09IXSlbQ0BASF0oW0NIMl01KU4oW0NIMl1bQ0gyXTMpW0NIMl1bQ0hdOVtDSDJdW0NIMl05

>  <s_epik_cmdline>  (184) 
J2VwaWtfcHl0aG9uJywgJy1waHQnLCAnMi4wJywgJy1waCcsICc3LjAnLCAnLXRuJywgJzgnLCAnLW1hJywgJzIwMCcsICctaW1hZScsICc8aW5maWxlLm1hZT4nLCAnLW9tYWUnLCAnPG91dGZpbGUubWFlPic=

>  <r_lp_tautomer_probability>  (184) 
1

>  <r_epik_Ionization_Penalty>  (184) 
0.0381101

>  <r_epik_Ionization_Penalty_Charging>  (184) 
0.0270267

>  <r_epik_Ionization_Penalty_Neutral>  (184) 
0.0110834

>  <r_epik_State_Penalty>  (184) 
0.0302984

>  <r_epik_Charging_Adjusted_Penalty>  (184) 
0.0573251

>  <i_epik_Tot_Q>  (184) 
1

>  <i_epik_Tot_abs_Q>  (184) 
1

>  <s_lp_Force_Field>  (184) 
OPLS3e

>  <r_lp_Energy>  (184) 
117.491

>  <b_lp_Chiralities_Consistent>  (184) 
1

>  <s_lp_Variant>  (184) 
57:0-2

>  <s_i_glide_gridfile>  (184) 
pfpi4k_grid

>  <i_i_glide_lignum>  (184) 
35

>  <i_i_glide_rotatable_bonds>  (184) 
5

>  <r_i_docking_score>  (184) 
-2.90024

>  <r_i_glide_ligand_efficiency>  (184) 
-0.0878859

>  <r_i_glide_ligand_efficiency_sa>  (184) 
-0.281897

>  <r_i_glide_ligand_efficiency_ln>  (184) 
-0.644997

>  <r_i_glide_gscore>  (184) 
-2.90024

>  <r_i_glide_lipo>  (184) 
-0.0302891

>  <r_i_glide_hbond>  (184) 
0

>  <r_i_glide_metal>  (184) 
-0

>  <r_i_glide_rewards>  (184) 
-0.377828

>  <r_i_glide_evdw>  (184) 
-26.8388

>  <r_i_glide_ecoul>  (184) 
-8.96794

>  <r_i_glide_erotb>  (184) 
0.202384

>  <r_i_glide_esite>  (184) 
-0.00737182

>  <r_i_glide_emodel>  (184) 
-38.2127

>  <r_i_glide_energy>  (184) 
-35.8067

>  <r_i_glide_einternal>  (184) 
3.61141

>  <r_i_glide_intrahb_reward>  (184) 
-0

>  <i_i_glide_confnum>  (184) 
4

>  <i_i_glide_posenum>  (184) 
6

>  <r_i_glide_eff_state_penalty>  (184) 
0

>  <ligand_id>  (184) 
57

>  <original_smiles>  (184) 
Oc1ccc2c3c1OC1C(=CC4C5C=CC6C5CC46)CCC4(O)C(C2)N(CC2CC2)CCC314

>  <smiles>  (184) 
[H]Oc1c([H])c([H])c2c3c1OC1([H])C(=C([H])C4([H])C5([H])C([H])=C([H])C6([H])C4([H])C([H])([H])C56[H])C([H])([H])C([H])([H])C4(O[H])C31C([H])([H])C([H])([H])[N+]([H])(C([H])([H])C1([H])C([H])([H])C1([H])[H])C4([H])C2([H])[H]

$$$$
57:1:1
     RDKit          3D

 67 75  0  0  1  0  0  0  0  0999 V2000
    3.4677   -5.7042    0.0842 O   0  0  0  0  0  0  0  0  0  0  0  0
    3.5631   -4.3748    0.3222 C   0  0  0  0  0  0  0  0  0  0  0  0
    3.7169   -3.4538   -0.7548 C   0  0  0  0  0  0  0  0  0  0  0  0
    3.8337   -2.0555   -0.5332 C   0  0  0  0  0  0  0  0  0  0  0  0
    3.7727   -1.5551    0.7811 C   0  0  0  0  0  0  0  0  0  0  0  0
    3.5813   -2.5284    1.7704 C   0  0  0  0  0  0  0  0  0  0  0  0
    3.5089   -3.8956    1.6474 C   0  0  0  0  0  0  0  0  0  0  0  0
    3.3907   -4.5505    2.8570 O   0  0  0  0  0  0  0  0  0  0  0  0
    3.8084   -3.5516    3.8144 C   0  0  2  0  0  0  0  0  0  0  0  0
    3.3638   -3.5712    5.2642 C   0  0  0  0  0  0  0  0  0  0  0  0
    2.5787   -4.5039    5.8357 C   0  0  0  0  0  0  0  0  0  0  0  0
    1.9772   -5.7209    5.1442 C   0  0  2  0  0  0  0  0  0  0  0  0
    0.6069   -5.4677    4.4843 C   0  0  1  0  0  0  0  0  0  0  0  0
    0.5028   -6.4582    3.3480 C   0  0  0  0  0  0  0  0  0  0  0  0
    0.3869   -7.6872    3.8591 C   0  0  0  0  0  0  0  0  0  0  0  0
    0.3055   -7.6047    5.3777 C   0  0  2  0  0  0  0  0  0  0  0  0
   -0.2571   -6.1884    5.5195 C   0  0  1  0  0  0  0  0  0  0  0  0
    0.3016   -6.2546    6.9361 C   0  0  0  0  0  0  0  0  0  0  0  0
    1.4561   -6.8061    6.0877 C   0  0  2  0  0  0  0  0  0  0  0  0
    3.9024   -2.3377    6.0187 C   0  0  0  0  0  0  0  0  0  0  0  0
    3.7081   -0.9575    5.2782 C   0  0  0  0  0  0  0  0  0  0  0  0
    3.9839   -1.0053    3.7386 C   0  0  2  0  0  0  0  0  0  0  0  0
    5.3960   -1.0822    3.6245 O   0  0  0  0  0  0  0  0  0  0  0  0
    3.5011    0.1527    2.8085 C   0  0  1  0  0  0  0  0  0  0  0  0
    3.9267   -0.1194    1.3215 C   0  0  0  0  0  0  0  0  0  0  0  0
    2.0217    0.3397    2.9138 N   0  0  1  0  0  0  0  0  0  0  0  0
    1.4947    1.5650    2.2587 C   0  0  0  0  0  0  0  0  0  0  0  0
    0.2251    2.0993    2.9285 C   0  0  0  0  0  0  0  0  0  0  0  0
   -0.4255    1.4371    4.1367 C   0  0  0  0  0  0  0  0  0  0  0  0
   -1.1174    1.4070    2.7875 C   0  0  0  0  0  0  0  0  0  0  0  0
    1.2539   -0.8892    2.5640 C   0  0  0  0  0  0  0  0  0  0  0  0
    1.7727   -2.0995    3.3312 C   0  0  0  0  0  0  0  0  0  0  0  0
    3.3114   -2.2563    3.1883 C   0  0  1  0  0  0  0  0  0  0  0  0
    3.4150   -5.8834   -0.8506 H   0  0  0  0  0  0  0  0  0  0  0  0
    3.7479   -3.8214   -1.7674 H   0  0  0  0  0  0  0  0  0  0  0  0
    3.9623   -1.3689   -1.3611 H   0  0  0  0  0  0  0  0  0  0  0  0
    4.8994   -3.5844    3.8294 H   0  0  0  0  0  0  0  0  0  0  0  0
    2.3619   -4.3900    6.8861 H   0  0  0  0  0  0  0  0  0  0  0  0
    2.7097   -6.1575    4.4637 H   0  0  0  0  0  0  0  0  0  0  0  0
    0.3028   -4.4459    4.2693 H   0  0  0  0  0  0  0  0  0  0  0  0
    0.6119   -6.2116    2.3035 H   0  0  0  0  0  0  0  0  0  0  0  0
    0.3631   -8.6134    3.2981 H   0  0  0  0  0  0  0  0  0  0  0  0
   -0.2296   -8.3894    5.9244 H   0  0  0  0  0  0  0  0  0  0  0  0
   -1.3417   -6.1290    5.4222 H   0  0  0  0  0  0  0  0  0  0  0  0
    0.4441   -5.2699    7.3843 H   0  0  0  0  0  0  0  0  0  0  0  0
   -0.1831   -6.9580    7.6206 H   0  0  0  0  0  0  0  0  0  0  0  0
    2.1802   -7.4123    6.6294 H   0  0  0  0  0  0  0  0  0  0  0  0
    3.4558   -2.2899    7.0151 H   0  0  0  0  0  0  0  0  0  0  0  0
    4.9699   -2.5076    6.1768 H   0  0  0  0  0  0  0  0  0  0  0  0
    2.6969   -0.6022    5.4772 H   0  0  0  0  0  0  0  0  0  0  0  0
    4.3575   -0.2138    5.7412 H   0  0  0  0  0  0  0  0  0  0  0  0
    5.6710   -1.8931    4.0272 H   0  0  0  0  0  0  0  0  0  0  0  0
    3.9702    1.0726    3.1474 H   0  0  0  0  0  0  0  0  0  0  0  0
    4.9847    0.1301    1.2086 H   0  0  0  0  0  0  0  0  0  0  0  0
    3.3996    0.5478    0.6453 H   0  0  0  0  0  0  0  0  0  0  0  0
    2.2335    2.3670    2.2965 H   0  0  0  0  0  0  0  0  0  0  0  0
    1.2956    1.4031    1.2008 H   0  0  0  0  0  0  0  0  0  0  0  0
    0.1577    3.1859    2.8665 H   0  0  0  0  0  0  0  0  0  0  0  0
    0.0675    0.5593    4.5534 H   0  0  0  0  0  0  0  0  0  0  0  0
   -0.8328    2.1102    4.8917 H   0  0  0  0  0  0  0  0  0  0  0  0
   -2.0210    2.0178    2.7299 H   0  0  0  0  0  0  0  0  0  0  0  0
   -1.1176    0.5424    2.1294 H   0  0  0  0  0  0  0  0  0  0  0  0
    0.2210   -0.8512    2.8716 H   0  0  0  0  0  0  0  0  0  0  0  0
    1.2621   -1.0684    1.4827 H   0  0  0  0  0  0  0  0  0  0  0  0
    1.4597   -2.0019    4.3724 H   0  0  0  0  0  0  0  0  0  0  0  0
    1.2455   -2.9751    2.9521 H   0  0  0  0  0  0  0  0  0  0  0  0
    1.8732    0.5128    3.8920 H   0  0  0  0  0  0  0  0  0  0  0  0
  1  2  1  0
  1 34  1  0
  2  7  2  0
  2  3  1  0
  3  4  2  0
  3 35  1  0
  4  5  1  0
  4 36  1  0
  5 25  1  0
  5  6  2  0
  6 33  1  0
  6  7  1  0
  7  8  1  0
  8  9  1  0
  9 33  1  0
  9 10  1  0
  9 37  1  1
 10 11  2  3
 10 20  1  0
 11 12  1  0
 11 38  1  0
 12 19  1  0
 12 13  1  0
 12 39  1  6
 13 17  1  0
 13 14  1  0
 13 40  1  6
 14 15  2  0
 14 41  1  0
 15 16  1  0
 15 42  1  0
 16 19  1  0
 16 17  1  0
 16 43  1  1
 17 18  1  0
 17 44  1  1
 18 19  1  0
 18 45  1  0
 18 46  1  0
 19 47  1  1
 20 21  1  0
 20 48  1  0
 20 49  1  0
 21 22  1  0
 21 50  1  0
 21 51  1  0
 22 33  1  0
 22 23  1  1
 22 24  1  0
 23 52  1  0
 24 25  1  0
 24 26  1  0
 24 53  1  1
 25 54  1  0
 25 55  1  0
 26 27  1  0
 26 31  1  0
 26 67  1  1
 27 28  1  0
 27 56  1  0
 27 57  1  0
 28 30  1  0
 28 29  1  0
 28 58  1  0
 29 30  1  0
 29 59  1  0
 29 60  1  0
 30 61  1  0
 30 62  1  0
 31 32  1  0
 31 63  1  0
 31 64  1  0
 33 32  1  6
 32 65  1  0
 32 66  1  0
M  CHG  1  26   1
M  END
>  <i_m_ct_stereo_status>  (185) 
1

>  <s_m_source_file>  (185) 
/var/tmp/pbs.5076255.sched01/tmpcdf8lnea/434bzo3qpq.sdf

>  <i_m_source_file_index>  (185) 
35

>  <i_lp_mmshare_version>  (185) 
48012

>  <i_f3d_flags>  (185) 
0

>  <s_epik_input>  (185) 
W0NAXTEyM2M0YzVbY0hdW2NIXWMoW09IXSljNE9bQ0BASF0xL0MoPVtDSF0vW0NASF02W0NAQEhdKFtDSDJdNylbQ0BIXShbQ0hdPVtDSF04KVtDQEBIXTdbQ0BASF02OClbQ0gyXVtDSDJdW0NAXTIoW09IXSlbQ0BASF0oW0NIMl01KU4oW0NIMl1bQ0gyXTMpW0NIMl1bQ0hdOVtDSDJdW0NIMl05

>  <s_epik_cmdline>  (185) 
J2VwaWtfcHl0aG9uJywgJy1waHQnLCAnMi4wJywgJy1waCcsICc3LjAnLCAnLXRuJywgJzgnLCAnLW1hJywgJzIwMCcsICctaW1hZScsICc8aW5maWxlLm1hZT4nLCAnLW9tYWUnLCAnPG91dGZpbGUubWFlPic=

>  <r_lp_tautomer_probability>  (185) 
1

>  <r_epik_Ionization_Penalty>  (185) 
0.0381101

>  <r_epik_Ionization_Penalty_Charging>  (185) 
0.0270267

>  <r_epik_Ionization_Penalty_Neutral>  (185) 
0.0110834

>  <r_epik_State_Penalty>  (185) 
0.0302984

>  <r_epik_Charging_Adjusted_Penalty>  (185) 
0.0573251

>  <i_epik_Tot_Q>  (185) 
1

>  <i_epik_Tot_abs_Q>  (185) 
1

>  <s_lp_Force_Field>  (185) 
OPLS3e

>  <r_lp_Energy>  (185) 
117.491

>  <b_lp_Chiralities_Consistent>  (185) 
1

>  <s_lp_Variant>  (185) 
57:0-2

>  <s_i_glide_gridfile>  (185) 
pfpi4k_grid

>  <i_i_glide_lignum>  (185) 
35

>  <i_i_glide_rotatable_bonds>  (185) 
5

>  <r_i_docking_score>  (185) 
-2.82268

>  <r_i_glide_ligand_efficiency>  (185) 
-0.0855358

>  <r_i_glide_ligand_efficiency_sa>  (185) 
-0.274359

>  <r_i_glide_ligand_efficiency_ln>  (185) 
-0.62775

>  <r_i_glide_gscore>  (185) 
-2.82268

>  <r_i_glide_lipo>  (185) 
-0.123168

>  <r_i_glide_hbond>  (185) 
0

>  <r_i_glide_metal>  (185) 
-0

>  <r_i_glide_rewards>  (185) 
-0.377828

>  <r_i_glide_evdw>  (185) 
-27.4031

>  <r_i_glide_ecoul>  (185) 
-7.6125

>  <r_i_glide_erotb>  (185) 
0.202384

>  <r_i_glide_esite>  (185) 
-0.0120385

>  <r_i_glide_emodel>  (185) 
-35.3933

>  <r_i_glide_energy>  (185) 
-35.0156

>  <r_i_glide_einternal>  (185) 
10.9017

>  <r_i_glide_intrahb_reward>  (185) 
-0

>  <i_i_glide_confnum>  (185) 
4

>  <i_i_glide_posenum>  (185) 
27

>  <r_i_glide_eff_state_penalty>  (185) 
0

>  <ligand_id>  (185) 
57

>  <original_smiles>  (185) 
Oc1ccc2c3c1OC1C(=CC4C5C=CC6C5CC46)CCC4(O)C(C2)N(CC2CC2)CCC314

>  <smiles>  (185) 
[H]Oc1c([H])c([H])c2c3c1OC1([H])C(=C([H])C4([H])C5([H])C([H])=C([H])C6([H])C4([H])C([H])([H])C56[H])C([H])([H])C([H])([H])C4(O[H])C31C([H])([H])C([H])([H])[N+]([H])(C([H])([H])C1([H])C([H])([H])C1([H])[H])C4([H])C2([H])[H]

$$$$
57:1:2
     RDKit          3D

 67 75  0  0  1  0  0  0  0  0999 V2000
    3.0908   -5.6405    0.1673 O   0  0  0  0  0  0  0  0  0  0  0  0
    3.2521   -4.3147    0.3216 C   0  0  0  0  0  0  0  0  0  0  0  0
    3.3465   -3.4103   -0.7793 C   0  0  0  0  0  0  0  0  0  0  0  0
    3.5314   -2.0167   -0.5657 C   0  0  0  0  0  0  0  0  0  0  0  0
    3.5847   -1.5137    0.7468 C   0  0  0  0  0  0  0  0  0  0  0  0
    3.4462   -2.4696    1.7482 C   0  0  0  0  0  0  0  0  0  0  0  0
    3.3300   -3.8326    1.6522 C   0  0  0  0  0  0  0  0  0  0  0  0
    3.3127   -4.4945    2.8378 O   0  0  0  0  0  0  0  0  0  0  0  0
    3.7932   -3.5038    3.7808 C   0  0  2  0  0  0  0  0  0  0  0  0
    3.4201   -3.5189    5.2506 C   0  0  0  0  0  0  0  0  0  0  0  0
    2.6451   -4.4217    5.8871 C   0  0  0  0  0  0  0  0  0  0  0  0
    1.9267   -5.6216    5.2698 C   0  0  2  0  0  0  0  0  0  0  0  0
    0.4849   -5.8458    5.7656 C   0  0  1  0  0  0  0  0  0  0  0  0
   -0.2309   -6.5378    4.6324 C   0  0  0  0  0  0  0  0  0  0  0  0
    0.2731   -7.7698    4.4874 C   0  0  0  0  0  0  0  0  0  0  0  0
    1.2877   -8.0394    5.5887 C   0  0  2  0  0  0  0  0  0  0  0  0
    0.7733   -7.0588    6.6534 C   0  0  1  0  0  0  0  0  0  0  0  0
    2.1834   -7.1724    7.2276 C   0  0  0  0  0  0  0  0  0  0  0  0
    2.4414   -6.9841    5.7263 C   0  0  2  0  0  0  0  0  0  0  0  0
    4.0554   -2.3038    5.9587 C   0  0  0  0  0  0  0  0  0  0  0  0
    3.8586   -0.9136    5.2336 C   0  0  0  0  0  0  0  0  0  0  0  0
    4.0219   -0.9640    3.6825 C   0  0  2  0  0  0  0  0  0  0  0  0
    5.4182   -1.0655    3.4420 O   0  0  0  0  0  0  0  0  0  0  0  0
    3.4956    0.1992    2.7858 C   0  0  1  0  0  0  0  0  0  0  0  0
    3.8152   -0.0752    1.2801 C   0  0  0  0  0  0  0  0  0  0  0  0
    2.0231    0.4201    2.9933 N   0  0  1  0  0  0  0  0  0  0  0  0
    1.4882    1.6715    2.3899 C   0  0  0  0  0  0  0  0  0  0  0  0
    0.1881    2.1516    3.0347 C   0  0  0  0  0  0  0  0  0  0  0  0
   -0.5109    1.4430    4.1812 C   0  0  0  0  0  0  0  0  0  0  0  0
   -1.1165    1.4239    2.7992 C   0  0  0  0  0  0  0  0  0  0  0  0
    1.1965   -0.7891    2.6899 C   0  0  0  0  0  0  0  0  0  0  0  0
    1.7424   -2.0095    3.4326 C   0  0  0  0  0  0  0  0  0  0  0  0
    3.2789   -2.1969    3.1848 C   0  0  1  0  0  0  0  0  0  0  0  0
    3.0700   -5.8528   -0.7802 H   0  0  0  0  0  0  0  0  0  0  0  0
    3.2814   -3.7796   -1.7863 H   0  0  0  0  0  0  0  0  0  0  0  0
    3.6110   -1.3331   -1.4092 H   0  0  0  0  0  0  0  0  0  0  0  0
    4.8828   -3.5464    3.7266 H   0  0  0  0  0  0  0  0  0  0  0  0
    2.5022   -4.2900    6.9499 H   0  0  0  0  0  0  0  0  0  0  0  0
    1.9178   -5.5774    4.1875 H   0  0  0  0  0  0  0  0  0  0  0  0
   -0.0386   -5.0062    6.2258 H   0  0  0  0  0  0  0  0  0  0  0  0
   -0.9585   -6.0753    3.9924 H   0  0  0  0  0  0  0  0  0  0  0  0
    0.0036   -8.4840    3.7159 H   0  0  0  0  0  0  0  0  0  0  0  0
    1.4503   -9.0663    5.9280 H   0  0  0  0  0  0  0  0  0  0  0  0
   -0.0431   -7.4535    7.2660 H   0  0  0  0  0  0  0  0  0  0  0  0
    2.4676   -6.3312    7.8697 H   0  0  0  0  0  0  0  0  0  0  0  0
    2.4526   -8.1396    7.6563 H   0  0  0  0  0  0  0  0  0  0  0  0
    3.4247   -7.3141    5.3807 H   0  0  0  0  0  0  0  0  0  0  0  0
    3.6897   -2.2383    6.9883 H   0  0  0  0  0  0  0  0  0  0  0  0
    5.1261   -2.5049    6.0321 H   0  0  0  0  0  0  0  0  0  0  0  0
    2.8798   -0.5271    5.5063 H   0  0  0  0  0  0  0  0  0  0  0  0
    4.5657   -0.1957    5.6450 H   0  0  0  0  0  0  0  0  0  0  0  0
    5.5393   -1.3264    2.5405 H   0  0  0  0  0  0  0  0  0  0  0  0
    4.0035    1.1088    3.0981 H   0  0  0  0  0  0  0  0  0  0  0  0
    4.8649    0.1436    1.0900 H   0  0  0  0  0  0  0  0  0  0  0  0
    3.2522    0.6028    0.6392 H   0  0  0  0  0  0  0  0  0  0  0  0
    2.2110    2.4701    2.5014 H   0  0  0  0  0  0  0  0  0  0  0  0
    1.3361    1.5745    1.3162 H   0  0  0  0  0  0  0  0  0  0  0  0
    0.0965    3.2365    2.9798 H   0  0  0  0  0  0  0  0  0  0  0  0
    0.0061    0.5700    4.5787 H   0  0  0  0  0  0  0  0  0  0  0  0
   -1.0083    2.0759    4.9135 H   0  0  0  0  0  0  0  0  0  0  0  0
   -2.0240    2.0092    2.6816 H   0  0  0  0  0  0  0  0  0  0  0  0
   -1.0214    0.5789    2.1191 H   0  0  0  0  0  0  0  0  0  0  0  0
    0.1871   -0.7049    3.0288 H   0  0  0  0  0  0  0  0  0  0  0  0
    1.1893   -0.9737    1.6054 H   0  0  0  0  0  0  0  0  0  0  0  0
    1.5228   -1.8816    4.4921 H   0  0  0  0  0  0  0  0  0  0  0  0
    1.1744   -2.8889    3.1332 H   0  0  0  0  0  0  0  0  0  0  0  0
    1.9469    0.5863    3.9949 H   0  0  0  0  0  0  0  0  0  0  0  0
  1  2  1  0
  1 34  1  0
  2  7  2  0
  2  3  1  0
  3  4  2  0
  3 35  1  0
  4  5  1  0
  4 36  1  0
  5 25  1  0
  5  6  2  0
  6 33  1  0
  6  7  1  0
  7  8  1  0
  8  9  1  0
  9 33  1  0
  9 10  1  0
  9 37  1  1
 10 11  2  3
 10 20  1  0
 11 12  1  0
 11 38  1  0
 12 19  1  0
 12 13  1  0
 12 39  1  6
 13 17  1  0
 13 14  1  0
 13 40  1  1
 14 15  2  0
 14 41  1  0
 15 16  1  0
 15 42  1  0
 16 19  1  0
 16 17  1  0
 16 43  1  1
 17 18  1  0
 17 44  1  1
 18 19  1  0
 18 45  1  0
 18 46  1  0
 19 47  1  1
 20 21  1  0
 20 48  1  0
 20 49  1  0
 21 22  1  0
 21 50  1  0
 21 51  1  0
 22 33  1  0
 22 23  1  1
 22 24  1  0
 23 52  1  0
 24 25  1  0
 24 26  1  0
 24 53  1  1
 25 54  1  0
 25 55  1  0
 26 27  1  0
 26 31  1  0
 26 67  1  1
 27 28  1  0
 27 56  1  0
 27 57  1  0
 28 30  1  0
 28 29  1  0
 28 58  1  0
 29 30  1  0
 29 59  1  0
 29 60  1  0
 30 61  1  0
 30 62  1  0
 31 32  1  0
 31 63  1  0
 31 64  1  0
 33 32  1  6
 32 65  1  0
 32 66  1  0
M  CHG  1  26   1
M  END
>  <i_m_ct_stereo_status>  (186) 
1

>  <s_m_source_file>  (186) 
/var/tmp/pbs.5076255.sched01/tmpcdf8lnea/434bzo3qpq.sdf

>  <i_m_source_file_index>  (186) 
35

>  <i_lp_mmshare_version>  (186) 
48012

>  <i_f3d_flags>  (186) 
0

>  <s_epik_input>  (186) 
W0NAXTEyM2M0YzVbY0hdW2NIXWMoW09IXSljNE9bQ0BASF0xL0MoPVtDSF0vW0NASF02W0NAQEhdKFtDSDJdNylbQ0BIXShbQ0hdPVtDSF04KVtDQEBIXTdbQ0BASF02OClbQ0gyXVtDSDJdW0NAXTIoW09IXSlbQ0BASF0oW0NIMl01KU4oW0NIMl1bQ0gyXTMpW0NIMl1bQ0hdOVtDSDJdW0NIMl05

>  <s_epik_cmdline>  (186) 
J2VwaWtfcHl0aG9uJywgJy1waHQnLCAnMi4wJywgJy1waCcsICc3LjAnLCAnLXRuJywgJzgnLCAnLW1hJywgJzIwMCcsICctaW1hZScsICc8aW5maWxlLm1hZT4nLCAnLW9tYWUnLCAnPG91dGZpbGUubWFlPic=

>  <r_lp_tautomer_probability>  (186) 
1

>  <r_epik_Ionization_Penalty>  (186) 
0.0381101

>  <r_epik_Ionization_Penalty_Charging>  (186) 
0.0270267

>  <r_epik_Ionization_Penalty_Neutral>  (186) 
0.0110834

>  <r_epik_State_Penalty>  (186) 
0.0302984

>  <r_epik_Charging_Adjusted_Penalty>  (186) 
0.0573251

>  <i_epik_Tot_Q>  (186) 
1

>  <i_epik_Tot_abs_Q>  (186) 
1

>  <s_lp_Force_Field>  (186) 
OPLS3e

>  <r_lp_Energy>  (186) 
117.491

>  <b_lp_Chiralities_Consistent>  (186) 
1

>  <s_lp_Variant>  (186) 
57:0-2

>  <s_i_glide_gridfile>  (186) 
pfpi4k_grid

>  <i_i_glide_lignum>  (186) 
35

>  <i_i_glide_rotatable_bonds>  (186) 
5

>  <r_i_docking_score>  (186) 
-2.7444

>  <r_i_glide_ligand_efficiency>  (186) 
-0.0831637

>  <r_i_glide_ligand_efficiency_sa>  (186) 
-0.26675

>  <r_i_glide_ligand_efficiency_ln>  (186) 
-0.610341

>  <r_i_glide_gscore>  (186) 
-2.7444

>  <r_i_glide_lipo>  (186) 
-0.135795

>  <r_i_glide_hbond>  (186) 
0

>  <r_i_glide_metal>  (186) 
-0

>  <r_i_glide_rewards>  (186) 
-0.377828

>  <r_i_glide_evdw>  (186) 
-25.9085

>  <r_i_glide_ecoul>  (186) 
-7.51482

>  <r_i_glide_erotb>  (186) 
0.202384

>  <r_i_glide_esite>  (186) 
-0.010514

>  <r_i_glide_emodel>  (186) 
-33.9005

>  <r_i_glide_energy>  (186) 
-33.4233

>  <r_i_glide_einternal>  (186) 
9.21665

>  <r_i_glide_intrahb_reward>  (186) 
-0

>  <i_i_glide_confnum>  (186) 
4

>  <i_i_glide_posenum>  (186) 
29

>  <r_i_glide_eff_state_penalty>  (186) 
0

>  <ligand_id>  (186) 
57

>  <original_smiles>  (186) 
Oc1ccc2c3c1OC1C(=CC4C5C=CC6C5CC46)CCC4(O)C(C2)N(CC2CC2)CCC314

>  <smiles>  (186) 
[H]Oc1c([H])c([H])c2c3c1OC1([H])C(=C([H])C4([H])C5([H])C([H])=C([H])C6([H])C4([H])C([H])([H])C56[H])C([H])([H])C([H])([H])C4(O[H])C31C([H])([H])C([H])([H])[N+]([H])(C([H])([H])C1([H])C([H])([H])C1([H])[H])C4([H])C2([H])[H]

$$$$
57:4:0
     RDKit          3D

 66 74  0  0  1  0  0  0  0  0999 V2000
   -2.5561    0.9463    6.9249 O   0  0  0  0  0  0  0  0  0  0  0  0
   -1.5234    0.4203    6.2222 C   0  0  0  0  0  0  0  0  0  0  0  0
   -1.6586   -0.8550    5.6009 C   0  0  0  0  0  0  0  0  0  0  0  0
   -0.6044   -1.4782    4.8906 C   0  0  0  0  0  0  0  0  0  0  0  0
    0.6042   -0.7905    4.7519 C   0  0  0  0  0  0  0  0  0  0  0  0
    0.6429    0.4895    5.3439 C   0  0  0  0  0  0  0  0  0  0  0  0
   -0.3076    1.1195    6.1015 C   0  0  0  0  0  0  0  0  0  0  0  0
    0.1338    2.3388    6.6077 O   0  0  0  0  0  0  0  0  0  0  0  0
    1.5703    2.2507    6.4563 C   0  0  2  0  0  0  0  0  0  0  0  0
    2.4716    3.4687    6.3681 C   0  0  0  0  0  0  0  0  0  0  0  0
    1.9999    4.7312    6.4463 C   0  0  0  0  0  0  0  0  0  0  0  0
    2.7873    6.0399    6.3592 C   0  0  2  0  0  0  0  0  0  0  0  0
    1.9718    7.2386    5.7995 C   0  0  1  0  0  0  0  0  0  0  0  0
    2.6162    8.4723    6.4090 C   0  0  0  0  0  0  0  0  0  0  0  0
    3.8447    8.6206    5.9043 C   0  0  0  0  0  0  0  0  0  0  0  0
    4.0558    7.5956    4.8034 C   0  0  2  0  0  0  0  0  0  0  0  0
    2.6172    7.2935    4.4043 C   0  0  1  0  0  0  0  0  0  0  0  0
    3.1851    5.9739    3.8898 C   0  0  0  0  0  0  0  0  0  0  0  0
    3.8637    6.1278    5.2549 C   0  0  2  0  0  0  0  0  0  0  0  0
    3.9436    3.0130    6.2086 C   0  0  0  0  0  0  0  0  0  0  0  0
    4.1688    1.9668    5.0657 C   0  0  0  0  0  0  0  0  0  0  0  0
    3.1225    0.8183    5.0399 C   0  0  2  0  0  0  0  0  0  0  0  0
    3.4820    0.0336    6.1653 O   0  0  0  0  0  0  0  0  0  0  0  0
    3.0111   -0.1364    3.8105 C   0  0  1  0  0  0  0  0  0  0  0  0
    1.9133   -1.2396    4.0996 C   0  0  0  0  0  0  0  0  0  0  0  0
    2.7264    0.6382    2.5497 N   0  0  1  0  0  0  0  0  0  0  0  0
    2.8090   -0.1805    1.3023 C   0  0  0  0  0  0  0  0  0  0  0  0
    4.2376   -0.4367    0.8838 C   0  0  0  0  0  0  0  0  0  0  0  0
    4.5120   -1.4346   -0.2185 C   0  0  0  0  0  0  0  0  0  0  0  0
    4.8842   -1.7615    1.2045 C   0  0  0  0  0  0  0  0  0  0  0  0
    1.4706    1.4354    2.6226 C   0  0  0  0  0  0  0  0  0  0  0  0
    1.4311    2.2820    3.8990 C   0  0  0  0  0  0  0  0  0  0  0  0
    1.7407    1.4462    5.1769 C   0  0  1  0  0  0  0  0  0  0  0  0
   -2.5921   -1.3623    5.6775 H   0  0  0  0  0  0  0  0  0  0  0  0
   -0.7275   -2.4683    4.4509 H   0  0  0  0  0  0  0  0  0  0  0  0
    1.9129    1.6957    7.3306 H   0  0  0  0  0  0  0  0  0  0  0  0
    0.9319    4.8652    6.6117 H   0  0  0  0  0  0  0  0  0  0  0  0
    3.1781    6.2484    7.3591 H   0  0  0  0  0  0  0  0  0  0  0  0
    0.8742    7.2156    5.8140 H   0  0  0  0  0  0  0  0  0  0  0  0
    2.1760    9.0758    7.1888 H   0  0  0  0  0  0  0  0  0  0  0  0
    4.5776    9.3566    6.2088 H   0  0  0  0  0  0  0  0  0  0  0  0
    4.7924    7.7703    4.0159 H   0  0  0  0  0  0  0  0  0  0  0  0
    2.2261    7.9906    3.6635 H   0  0  0  0  0  0  0  0  0  0  0  0
    2.3936    5.2292    3.8237 H   0  0  0  0  0  0  0  0  0  0  0  0
    3.8355    6.0033    3.0101 H   0  0  0  0  0  0  0  0  0  0  0  0
    4.8542    5.7118    5.3888 H   0  0  0  0  0  0  0  0  0  0  0  0
    4.6360    3.8221    6.0126 H   0  0  0  0  0  0  0  0  0  0  0  0
    4.2436    2.5828    7.1692 H   0  0  0  0  0  0  0  0  0  0  0  0
    4.1747    2.4774    4.1022 H   0  0  0  0  0  0  0  0  0  0  0  0
    5.1699    1.5480    5.1666 H   0  0  0  0  0  0  0  0  0  0  0  0
    3.4325    0.5905    6.9290 H   0  0  0  0  0  0  0  0  0  0  0  0
    3.9792   -0.6175    3.6721 H   0  0  0  0  0  0  0  0  0  0  0  0
    2.3799   -1.9728    4.7657 H   0  0  0  0  0  0  0  0  0  0  0  0
    1.6504   -1.8096    3.2115 H   0  0  0  0  0  0  0  0  0  0  0  0
    2.2765   -1.1320    1.3623 H   0  0  0  0  0  0  0  0  0  0  0  0
    2.3014    0.3310    0.4928 H   0  0  0  0  0  0  0  0  0  0  0  0
    4.8708    0.4512    0.8656 H   0  0  0  0  0  0  0  0  0  0  0  0
    3.6704   -1.9727   -0.6550 H   0  0  0  0  0  0  0  0  0  0  0  0
    5.3350   -1.2376   -0.8993 H   0  0  0  0  0  0  0  0  0  0  0  0
    5.9384   -1.7445    1.4710 H   0  0  0  0  0  0  0  0  0  0  0  0
    4.2781   -2.4987    1.7302 H   0  0  0  0  0  0  0  0  0  0  0  0
    1.4037    2.0894    1.7534 H   0  0  0  0  0  0  0  0  0  0  0  0
    0.5977    0.7855    2.5727 H   0  0  0  0  0  0  0  0  0  0  0  0
    2.1474    3.0844    3.7666 H   0  0  0  0  0  0  0  0  0  0  0  0
    0.4638    2.7815    3.9710 H   0  0  0  0  0  0  0  0  0  0  0  0
    3.4591    1.3369    2.4707 H   0  0  0  0  0  0  0  0  0  0  0  0
  1  2  1  0
  2  7  2  0
  2  3  1  0
  3  4  2  0
  3 34  1  0
  4  5  1  0
  4 35  1  0
  5 25  1  0
  5  6  2  0
  6 33  1  0
  6  7  1  0
  7  8  1  0
  8  9  1  0
  9 33  1  0
  9 10  1  0
  9 36  1  1
 10 11  2  3
 10 20  1  0
 11 12  1  0
 11 37  1  0
 12 19  1  0
 12 13  1  0
 12 38  1  1
 13 17  1  0
 13 14  1  0
 13 39  1  6
 14 15  2  0
 14 40  1  0
 15 16  1  0
 15 41  1  0
 16 19  1  0
 16 17  1  0
 16 42  1  6
 17 18  1  0
 17 43  1  6
 18 19  1  0
 18 44  1  0
 18 45  1  0
 19 46  1  1
 20 21  1  0
 20 47  1  0
 20 48  1  0
 21 22  1  0
 21 49  1  0
 21 50  1  0
 22 33  1  0
 22 23  1  1
 22 24  1  0
 23 51  1  0
 24 25  1  0
 24 26  1  0
 24 52  1  6
 25 53  1  0
 25 54  1  0
 26 27  1  0
 26 31  1  0
 26 66  1  6
 27 28  1  0
 27 55  1  0
 27 56  1  0
 28 30  1  0
 28 29  1  0
 28 57  1  0
 29 30  1  0
 29 58  1  0
 29 59  1  0
 30 60  1  0
 30 61  1  0
 31 32  1  0
 31 62  1  0
 31 63  1  0
 33 32  1  6
 32 64  1  0
 32 65  1  0
M  CHG  2   1  -1  26   1
M  END
>  <i_m_ct_stereo_status>  (187) 
1

>  <s_m_source_file>  (187) 
/var/tmp/pbs.5076255.sched01/tmpcdf8lnea/434bzo3qpq.sdf

>  <i_m_source_file_index>  (187) 
38

>  <i_lp_mmshare_version>  (187) 
48012

>  <i_f3d_flags>  (187) 
0

>  <s_epik_input>  (187) 
W0NAXTEyM2M0YzVbY0hdW2NIXWMoW09IXSljNE9bQ0BASF0xL0MoPVtDSF0vW0NASF02W0NAQEhdKFtDSDJdNylbQ0BIXShbQ0hdPVtDSF04KVtDQEBIXTdbQ0BASF02OClbQ0gyXVtDSDJdW0NAXTIoW09IXSlbQ0BASF0oW0NIMl01KU4oW0NIMl1bQ0gyXTMpW0NIMl1bQ0hdOVtDSDJdW0NIMl05

>  <s_epik_cmdline>  (187) 
J2VwaWtfcHl0aG9uJywgJy1waHQnLCAnMi4wJywgJy1waCcsICc3LjAnLCAnLXRuJywgJzgnLCAnLW1hJywgJzIwMCcsICctaW1hZScsICc8aW5maWxlLm1hZT4nLCAnLW9tYWUnLCAnPG91dGZpbGUubWFlPic=

>  <r_epik_Ionization_Penalty>  (187) 
2.3878

>  <r_epik_Ionization_Penalty_Charging>  (187) 
2.3878

>  <r_epik_Ionization_Penalty_Neutral>  (187) 
1.11657e-07

>  <r_epik_State_Penalty>  (187) 
2.53995

>  <r_epik_Charging_Adjusted_Penalty>  (187) 
4.92775

>  <i_epik_Tot_Q>  (187) 
0

>  <i_epik_Tot_abs_Q>  (187) 
2

>  <s_lp_Force_Field>  (187) 
OPLS3e

>  <r_lp_Energy>  (187) 
115.364

>  <b_lp_Chiralities_Consistent>  (187) 
1

>  <s_lp_Variant>  (187) 
57:0-5

>  <s_i_glide_gridfile>  (187) 
pfpi4k_grid

>  <i_i_glide_lignum>  (187) 
38

>  <i_i_glide_rotatable_bonds>  (187) 
4

>  <r_i_docking_score>  (187) 
-2.95227

>  <r_i_glide_ligand_efficiency>  (187) 
-0.0894627

>  <r_i_glide_ligand_efficiency_sa>  (187) 
-0.286955

>  <r_i_glide_ligand_efficiency_ln>  (187) 
-0.656569

>  <r_i_glide_gscore>  (187) 
-2.95227

>  <r_i_glide_lipo>  (187) 
-0.285625

>  <r_i_glide_hbond>  (187) 
-0.2

>  <r_i_glide_metal>  (187) 
-0

>  <r_i_glide_rewards>  (187) 
-0.384701

>  <r_i_glide_evdw>  (187) 
-24.8057

>  <r_i_glide_ecoul>  (187) 
-6.96585

>  <r_i_glide_erotb>  (187) 
0.20322

>  <r_i_glide_esite>  (187) 
0

>  <r_i_glide_emodel>  (187) 
-38.149

>  <r_i_glide_energy>  (187) 
-31.7716

>  <r_i_glide_einternal>  (187) 
3.97641

>  <r_i_glide_intrahb_reward>  (187) 
-0

>  <i_i_glide_confnum>  (187) 
3

>  <i_i_glide_posenum>  (187) 
17

>  <r_i_glide_eff_state_penalty>  (187) 
0

>  <ligand_id>  (187) 
57

>  <original_smiles>  (187) 
Oc1ccc2c3c1OC1C(=CC4C5C=CC6C5CC46)CCC4(O)C(C2)N(CC2CC2)CCC314

>  <smiles>  (187) 
[H]OC12C([H])([H])C([H])([H])C(=C([H])C3([H])C4([H])C([H])=C([H])C5([H])C3([H])C([H])([H])C45[H])C3([H])Oc4c([O-])c([H])c([H])c5c4C31C([H])([H])C([H])([H])[N+]([H])(C([H])([H])C1([H])C([H])([H])C1([H])[H])C2([H])C5([H])[H]

$$$$
57:4:1
     RDKit          3D

 66 74  0  0  1  0  0  0  0  0999 V2000
   -2.1837    0.2279    6.4747 O   0  0  0  0  0  0  0  0  0  0  0  0
   -1.1313   -0.4399    5.9384 C   0  0  0  0  0  0  0  0  0  0  0  0
   -1.2649   -1.8091    5.5502 C   0  0  0  0  0  0  0  0  0  0  0  0
   -0.1849   -2.5430    4.9794 C   0  0  0  0  0  0  0  0  0  0  0  0
    1.0351   -1.8883    4.7530 C   0  0  0  0  0  0  0  0  0  0  0  0
    1.0730   -0.5408    5.1320 C   0  0  0  0  0  0  0  0  0  0  0  0
    0.1052    0.2178    5.7569 C   0  0  0  0  0  0  0  0  0  0  0  0
    0.5293    1.5001    6.0793 O   0  0  0  0  0  0  0  0  0  0  0  0
    1.9602    1.3875    6.0003 C   0  0  2  0  0  0  0  0  0  0  0  0
    2.8474    2.5839    5.7418 C   0  0  0  0  0  0  0  0  0  0  0  0
    2.3705    3.8378    5.6204 C   0  0  0  0  0  0  0  0  0  0  0  0
    3.1870    5.0986    5.3619 C   0  0  2  0  0  0  0  0  0  0  0  0
    2.8495    6.3013    6.2614 C   0  0  1  0  0  0  0  0  0  0  0  0
    4.1272    7.1056    6.3470 C   0  0  0  0  0  0  0  0  0  0  0  0
    4.3889    7.6362    5.1462 C   0  0  0  0  0  0  0  0  0  0  0  0
    3.2424    7.3275    4.1910 C   0  0  2  0  0  0  0  0  0  0  0  0
    2.1136    7.1299    5.2094 C   0  0  1  0  0  0  0  0  0  0  0  0
    1.4270    6.3510    4.0953 C   0  0  0  0  0  0  0  0  0  0  0  0
    2.8603    5.8149    4.0517 C   0  0  2  0  0  0  0  0  0  0  0  0
    4.3265    2.1492    5.6395 C   0  0  0  0  0  0  0  0  0  0  0  0
    4.5994    0.8927    4.7361 C   0  0  0  0  0  0  0  0  0  0  0  0
    3.5462   -0.2490    4.8846 C   0  0  2  0  0  0  0  0  0  0  0  0
    3.8206   -0.8462    6.1490 O   0  0  0  0  0  0  0  0  0  0  0  0
    3.4677   -1.3798    3.8074 C   0  0  1  0  0  0  0  0  0  0  0  0
    2.3590   -2.4296    4.2078 C   0  0  0  0  0  0  0  0  0  0  0  0
    3.2229   -0.8231    2.4352 N   0  0  1  0  0  0  0  0  0  0  0  0
    3.3462   -1.8348    1.3522 C   0  0  0  0  0  0  0  0  0  0  0  0
    3.9259   -1.2533    0.0799 C   0  0  0  0  0  0  0  0  0  0  0  0
    4.3851   -2.1715   -1.0373 C   0  0  0  0  0  0  0  0  0  0  0  0
    5.3976   -1.4069   -0.2281 C   0  0  0  0  0  0  0  0  0  0  0  0
    1.9754   -0.0218    2.3323 C   0  0  0  0  0  0  0  0  0  0  0  0
    1.9046    1.0251    3.4546 C   0  0  0  0  0  0  0  0  0  0  0  0
    2.1708    0.3913    4.8610 C   0  0  1  0  0  0  0  0  0  0  0  0
   -2.2146   -2.2967    5.6835 H   0  0  0  0  0  0  0  0  0  0  0  0
   -0.3049   -3.5774    4.7017 H   0  0  0  0  0  0  0  0  0  0  0  0
    2.2780    0.9761    6.9591 H   0  0  0  0  0  0  0  0  0  0  0  0
    1.3028    3.9737    5.7191 H   0  0  0  0  0  0  0  0  0  0  0  0
    4.2525    4.8863    5.4021 H   0  0  0  0  0  0  0  0  0  0  0  0
    2.3122    6.1233    7.1954 H   0  0  0  0  0  0  0  0  0  0  0  0
    4.7539    7.1480    7.2209 H   0  0  0  0  0  0  0  0  0  0  0  0
    5.2688    8.2061    4.8817 H   0  0  0  0  0  0  0  0  0  0  0  0
    3.0395    8.0193    3.3689 H   0  0  0  0  0  0  0  0  0  0  0  0
    1.6411    8.0593    5.5231 H   0  0  0  0  0  0  0  0  0  0  0  0
    0.6643    5.6593    4.4546 H   0  0  0  0  0  0  0  0  0  0  0  0
    1.0888    6.9380    3.2412 H   0  0  0  0  0  0  0  0  0  0  0  0
    3.1419    5.3394    3.1139 H   0  0  0  0  0  0  0  0  0  0  0  0
    4.9645    2.9508    5.2812 H   0  0  0  0  0  0  0  0  0  0  0  0
    4.6568    1.9442    6.6586 H   0  0  0  0  0  0  0  0  0  0  0  0
    4.6388    1.2278    3.7002 H   0  0  0  0  0  0  0  0  0  0  0  0
    5.6050    0.5242    4.9483 H   0  0  0  0  0  0  0  0  0  0  0  0
    4.7218   -1.1244    6.1874 H   0  0  0  0  0  0  0  0  0  0  0  0
    4.4315   -1.8887    3.7745 H   0  0  0  0  0  0  0  0  0  0  0  0
    2.7762   -3.0675    4.9924 H   0  0  0  0  0  0  0  0  0  0  0  0
    2.1491   -3.1070    3.3794 H   0  0  0  0  0  0  0  0  0  0  0  0
    3.9947   -2.6530    1.6630 H   0  0  0  0  0  0  0  0  0  0  0  0
    2.3785   -2.2833    1.1233 H   0  0  0  0  0  0  0  0  0  0  0  0
    3.4453   -0.3408   -0.2653 H   0  0  0  0  0  0  0  0  0  0  0  0
    4.3168   -3.2464   -0.8802 H   0  0  0  0  0  0  0  0  0  0  0  0
    4.2402   -1.8480   -2.0673 H   0  0  0  0  0  0  0  0  0  0  0  0
    5.8896   -0.5640   -0.7084 H   0  0  0  0  0  0  0  0  0  0  0  0
    6.0007   -1.9581    0.4920 H   0  0  0  0  0  0  0  0  0  0  0  0
    1.9263    0.4760    1.3655 H   0  0  0  0  0  0  0  0  0  0  0  0
    1.0963   -0.6661    2.3673 H   0  0  0  0  0  0  0  0  0  0  0  0
    2.6105    1.8244    3.2210 H   0  0  0  0  0  0  0  0  0  0  0  0
    0.9292    1.5149    3.4266 H   0  0  0  0  0  0  0  0  0  0  0  0
    3.9759   -0.1685    2.2774 H   0  0  0  0  0  0  0  0  0  0  0  0
  1  2  1  0
  2  7  2  0
  2  3  1  0
  3  4  2  0
  3 34  1  0
  4  5  1  0
  4 35  1  0
  5 25  1  0
  5  6  2  0
  6 33  1  0
  6  7  1  0
  7  8  1  0
  8  9  1  0
  9 33  1  0
  9 10  1  0
  9 36  1  1
 10 11  2  3
 10 20  1  0
 11 12  1  0
 11 37  1  0
 12 19  1  0
 12 13  1  0
 12 38  1  6
 13 17  1  0
 13 14  1  0
 13 39  1  1
 14 15  2  0
 14 40  1  0
 15 16  1  0
 15 41  1  0
 16 19  1  0
 16 17  1  0
 16 42  1  6
 17 18  1  0
 17 43  1  1
 18 19  1  0
 18 44  1  0
 18 45  1  0
 19 46  1  6
 20 21  1  0
 20 47  1  0
 20 48  1  0
 21 22  1  0
 21 49  1  0
 21 50  1  0
 22 33  1  0
 22 23  1  1
 22 24  1  0
 23 51  1  0
 24 25  1  0
 24 26  1  0
 24 52  1  6
 25 53  1  0
 25 54  1  0
 26 27  1  0
 26 31  1  0
 26 66  1  6
 27 28  1  0
 27 55  1  0
 27 56  1  0
 28 30  1  0
 28 29  1  0
 28 57  1  0
 29 30  1  0
 29 58  1  0
 29 59  1  0
 30 60  1  0
 30 61  1  0
 31 32  1  0
 31 62  1  0
 31 63  1  0
 33 32  1  6
 32 64  1  0
 32 65  1  0
M  CHG  2   1  -1  26   1
M  END
>  <i_m_ct_stereo_status>  (188) 
1

>  <s_m_source_file>  (188) 
/var/tmp/pbs.5076255.sched01/tmpcdf8lnea/434bzo3qpq.sdf

>  <i_m_source_file_index>  (188) 
38

>  <i_lp_mmshare_version>  (188) 
48012

>  <i_f3d_flags>  (188) 
0

>  <s_epik_input>  (188) 
W0NAXTEyM2M0YzVbY0hdW2NIXWMoW09IXSljNE9bQ0BASF0xL0MoPVtDSF0vW0NASF02W0NAQEhdKFtDSDJdNylbQ0BIXShbQ0hdPVtDSF04KVtDQEBIXTdbQ0BASF02OClbQ0gyXVtDSDJdW0NAXTIoW09IXSlbQ0BASF0oW0NIMl01KU4oW0NIMl1bQ0gyXTMpW0NIMl1bQ0hdOVtDSDJdW0NIMl05

>  <s_epik_cmdline>  (188) 
J2VwaWtfcHl0aG9uJywgJy1waHQnLCAnMi4wJywgJy1waCcsICc3LjAnLCAnLXRuJywgJzgnLCAnLW1hJywgJzIwMCcsICctaW1hZScsICc8aW5maWxlLm1hZT4nLCAnLW9tYWUnLCAnPG91dGZpbGUubWFlPic=

>  <r_epik_Ionization_Penalty>  (188) 
2.3878

>  <r_epik_Ionization_Penalty_Charging>  (188) 
2.3878

>  <r_epik_Ionization_Penalty_Neutral>  (188) 
1.11657e-07

>  <r_epik_State_Penalty>  (188) 
2.53995

>  <r_epik_Charging_Adjusted_Penalty>  (188) 
4.92775

>  <i_epik_Tot_Q>  (188) 
0

>  <i_epik_Tot_abs_Q>  (188) 
2

>  <s_lp_Force_Field>  (188) 
OPLS3e

>  <r_lp_Energy>  (188) 
115.364

>  <b_lp_Chiralities_Consistent>  (188) 
1

>  <s_lp_Variant>  (188) 
57:0-5

>  <s_i_glide_gridfile>  (188) 
pfpi4k_grid

>  <i_i_glide_lignum>  (188) 
38

>  <i_i_glide_rotatable_bonds>  (188) 
4

>  <r_i_docking_score>  (188) 
-2.41502

>  <r_i_glide_ligand_efficiency>  (188) 
-0.0731824

>  <r_i_glide_ligand_efficiency_sa>  (188) 
-0.234735

>  <r_i_glide_ligand_efficiency_ln>  (188) 
-0.537088

>  <r_i_glide_gscore>  (188) 
-2.41502

>  <r_i_glide_lipo>  (188) 
-0.0416128

>  <r_i_glide_hbond>  (188) 
-0.2

>  <r_i_glide_metal>  (188) 
-0

>  <r_i_glide_rewards>  (188) 
-0.384701

>  <r_i_glide_evdw>  (188) 
-22.6112

>  <r_i_glide_ecoul>  (188) 
-5.71936

>  <r_i_glide_erotb>  (188) 
0.20322

>  <r_i_glide_esite>  (188) 
-0.0034633

>  <r_i_glide_emodel>  (188) 
-35.2139

>  <r_i_glide_energy>  (188) 
-28.3305

>  <r_i_glide_einternal>  (188) 
0.623123

>  <r_i_glide_intrahb_reward>  (188) 
-0

>  <i_i_glide_confnum>  (188) 
3

>  <i_i_glide_posenum>  (188) 
1

>  <r_i_glide_eff_state_penalty>  (188) 
0

>  <ligand_id>  (188) 
57

>  <original_smiles>  (188) 
Oc1ccc2c3c1OC1C(=CC4C5C=CC6C5CC46)CCC4(O)C(C2)N(CC2CC2)CCC314

>  <smiles>  (188) 
[H]OC12C([H])([H])C([H])([H])C(=C([H])C3([H])C4([H])C([H])=C([H])C5([H])C3([H])C([H])([H])C45[H])C3([H])Oc4c([O-])c([H])c([H])c5c4C31C([H])([H])C([H])([H])[N+]([H])(C([H])([H])C1([H])C([H])([H])C1([H])[H])C2([H])C5([H])[H]

$$$$
57:4:2
     RDKit          3D

 66 74  0  0  1  0  0  0  0  0999 V2000
   -1.2773   -2.6966    6.4714 O   0  0  0  0  0  0  0  0  0  0  0  0
   -0.1072   -2.9363    5.8006 C   0  0  0  0  0  0  0  0  0  0  0  0
    0.2126   -4.2533    5.3569 C   0  0  0  0  0  0  0  0  0  0  0  0
    1.3987   -4.5468    4.6325 C   0  0  0  0  0  0  0  0  0  0  0  0
    2.2860   -3.4963    4.3176 C   0  0  0  0  0  0  0  0  0  0  0  0
    1.8907   -2.2376    4.7767 C   0  0  0  0  0  0  0  0  0  0  0  0
    0.7936   -1.8819    5.5380 C   0  0  0  0  0  0  0  0  0  0  0  0
    0.7802   -0.5391    5.8824 O   0  0  0  0  0  0  0  0  0  0  0  0
    2.1482   -0.1296    5.6504 C   0  0  2  0  0  0  0  0  0  0  0  0
    2.5186    1.3099    5.3682 C   0  0  0  0  0  0  0  0  0  0  0  0
    1.6203    2.3126    5.3668 C   0  0  0  0  0  0  0  0  0  0  0  0
    1.9053    3.7853    5.0966 C   0  0  2  0  0  0  0  0  0  0  0  0
    1.2461    4.7788    6.0745 C   0  0  1  0  0  0  0  0  0  0  0  0
    2.1543    5.9850    6.0904 C   0  0  0  0  0  0  0  0  0  0  0  0
    2.0941    6.5865    4.8965 C   0  0  0  0  0  0  0  0  0  0  0  0
    1.0510    5.8987    4.0311 C   0  0  2  0  0  0  0  0  0  0  0  0
    0.1622    5.3015    5.1283 C   0  0  1  0  0  0  0  0  0  0  0  0
   -0.3041    4.3400    4.0388 C   0  0  0  0  0  0  0  0  0  0  0  0
    1.2197    4.3507    3.8540 C   0  0  2  0  0  0  0  0  0  0  0  0
    4.0319    1.4317    5.0779 C   0  0  0  0  0  0  0  0  0  0  0  0
    4.6226    0.3643    4.0853 C   0  0  0  0  0  0  0  0  0  0  0  0
    4.0665   -1.0793    4.2835 C   0  0  2  0  0  0  0  0  0  0  0  0
    4.6746   -1.5614    5.4741 O   0  0  0  0  0  0  0  0  0  0  0  0
    4.2595   -2.1502    3.1534 C   0  0  1  0  0  0  0  0  0  0  0  0
    3.6527   -3.5272    3.6081 C   0  0  0  0  0  0  0  0  0  0  0  0
    3.6738   -1.6825    1.8496 N   0  0  1  0  0  0  0  0  0  0  0  0
    4.0108   -2.5634    0.6955 C   0  0  0  0  0  0  0  0  0  0  0  0
    3.9004   -1.8551   -0.6495 C   0  0  0  0  0  0  0  0  0  0  0  0
    4.2972   -2.5800   -1.9213 C   0  0  0  0  0  0  0  0  0  0  0  0
    5.1487   -1.4535   -1.4023 C   0  0  0  0  0  0  0  0  0  0  0  0
    2.2202   -1.3840    1.9420 C   0  0  0  0  0  0  0  0  0  0  0  0
    1.9205   -0.4440    3.1141 C   0  0  0  0  0  0  0  0  0  0  0  0
    2.5564   -0.9682    4.4450 C   0  0  1  0  0  0  0  0  0  0  0  0
   -0.4759   -5.0586    5.5686 H   0  0  0  0  0  0  0  0  0  0  0  0
    1.6216   -5.5528    4.3142 H   0  0  0  0  0  0  0  0  0  0  0  0
    2.6997   -0.4176    6.5456 H   0  0  0  0  0  0  0  0  0  0  0  0
    0.5937    2.0613    5.5847 H   0  0  0  0  0  0  0  0  0  0  0  0
    2.9759    3.9638    5.0419 H   0  0  0  0  0  0  0  0  0  0  0  0
    0.9020    4.4068    7.0411 H   0  0  0  0  0  0  0  0  0  0  0  0
    2.8083    6.2422    6.9102 H   0  0  0  0  0  0  0  0  0  0  0  0
    2.6817    7.4385    4.5784 H   0  0  0  0  0  0  0  0  0  0  0  0
    0.5450    6.4802    3.2538 H   0  0  0  0  0  0  0  0  0  0  0  0
   -0.5750    5.9946    5.5314 H   0  0  0  0  0  0  0  0  0  0  0  0
   -0.7301    3.4121    4.4249 H   0  0  0  0  0  0  0  0  0  0  0  0
   -0.8990    4.7652    3.2252 H   0  0  0  0  0  0  0  0  0  0  0  0
    1.5656    4.0195    2.8746 H   0  0  0  0  0  0  0  0  0  0  0  0
    4.2979    2.4149    4.6939 H   0  0  0  0  0  0  0  0  0  0  0  0
    4.5341    1.3397    6.0431 H   0  0  0  0  0  0  0  0  0  0  0  0
    4.4203    0.7091    3.0721 H   0  0  0  0  0  0  0  0  0  0  0  0
    5.7099    0.3737    4.1695 H   0  0  0  0  0  0  0  0  0  0  0  0
    5.6107   -1.6072    5.3611 H   0  0  0  0  0  0  0  0  0  0  0  0
    5.3336   -2.2806    2.9889 H   0  0  0  0  0  0  0  0  0  0  0  0
    4.3469   -3.9863    4.3115 H   0  0  0  0  0  0  0  0  0  0  0  0
    3.5927   -4.2283    2.7762 H   0  0  0  0  0  0  0  0  0  0  0  0
    5.0324   -2.9309    0.7995 H   0  0  0  0  0  0  0  0  0  0  0  0
    3.3667   -3.4413    0.6735 H   0  0  0  0  0  0  0  0  0  0  0  0
    3.0263   -1.2155   -0.7762 H   0  0  0  0  0  0  0  0  0  0  0  0
    4.6839   -3.5941   -1.8366 H   0  0  0  0  0  0  0  0  0  0  0  0
    3.7141   -2.3803   -2.8191 H   0  0  0  0  0  0  0  0  0  0  0  0
    5.1125   -0.5054   -1.9366 H   0  0  0  0  0  0  0  0  0  0  0  0
    6.1059   -1.7067   -0.9501 H   0  0  0  0  0  0  0  0  0  0  0  0
    1.8799   -0.8880    1.0377 H   0  0  0  0  0  0  0  0  0  0  0  0
    1.6354   -2.3017    2.0235 H   0  0  0  0  0  0  0  0  0  0  0  0
    2.2694    0.5544    2.8500 H   0  0  0  0  0  0  0  0  0  0  0  0
    0.8383   -0.3368    3.2134 H   0  0  0  0  0  0  0  0  0  0  0  0
    4.1221   -0.7994    1.6521 H   0  0  0  0  0  0  0  0  0  0  0  0
  1  2  1  0
  2  7  2  0
  2  3  1  0
  3  4  2  0
  3 34  1  0
  4  5  1  0
  4 35  1  0
  5 25  1  0
  5  6  2  0
  6 33  1  0
  6  7  1  0
  7  8  1  0
  8  9  1  0
  9 33  1  0
  9 10  1  0
  9 36  1  1
 10 11  2  3
 10 20  1  0
 11 12  1  0
 11 37  1  0
 12 19  1  0
 12 13  1  0
 12 38  1  6
 13 17  1  0
 13 14  1  0
 13 39  1  1
 14 15  2  0
 14 40  1  0
 15 16  1  0
 15 41  1  0
 16 19  1  0
 16 17  1  0
 16 42  1  6
 17 18  1  0
 17 43  1  1
 18 19  1  0
 18 44  1  0
 18 45  1  0
 19 46  1  6
 20 21  1  0
 20 47  1  0
 20 48  1  0
 21 22  1  0
 21 49  1  0
 21 50  1  0
 22 33  1  0
 22 23  1  1
 22 24  1  0
 23 51  1  0
 24 25  1  0
 24 26  1  0
 24 52  1  6
 25 53  1  0
 25 54  1  0
 26 27  1  0
 26 31  1  0
 26 66  1  6
 27 28  1  0
 27 55  1  0
 27 56  1  0
 28 30  1  0
 28 29  1  0
 28 57  1  0
 29 30  1  0
 29 58  1  0
 29 59  1  0
 30 60  1  0
 30 61  1  0
 31 32  1  0
 31 62  1  0
 31 63  1  0
 33 32  1  6
 32 64  1  0
 32 65  1  0
M  CHG  2   1  -1  26   1
M  END
>  <i_m_ct_stereo_status>  (189) 
1

>  <s_m_source_file>  (189) 
/var/tmp/pbs.5076255.sched01/tmpcdf8lnea/434bzo3qpq.sdf

>  <i_m_source_file_index>  (189) 
38

>  <i_lp_mmshare_version>  (189) 
48012

>  <i_f3d_flags>  (189) 
0

>  <s_epik_input>  (189) 
W0NAXTEyM2M0YzVbY0hdW2NIXWMoW09IXSljNE9bQ0BASF0xL0MoPVtDSF0vW0NASF02W0NAQEhdKFtDSDJdNylbQ0BIXShbQ0hdPVtDSF04KVtDQEBIXTdbQ0BASF02OClbQ0gyXVtDSDJdW0NAXTIoW09IXSlbQ0BASF0oW0NIMl01KU4oW0NIMl1bQ0gyXTMpW0NIMl1bQ0hdOVtDSDJdW0NIMl05

>  <s_epik_cmdline>  (189) 
J2VwaWtfcHl0aG9uJywgJy1waHQnLCAnMi4wJywgJy1waCcsICc3LjAnLCAnLXRuJywgJzgnLCAnLW1hJywgJzIwMCcsICctaW1hZScsICc8aW5maWxlLm1hZT4nLCAnLW9tYWUnLCAnPG91dGZpbGUubWFlPic=

>  <r_epik_Ionization_Penalty>  (189) 
2.3878

>  <r_epik_Ionization_Penalty_Charging>  (189) 
2.3878

>  <r_epik_Ionization_Penalty_Neutral>  (189) 
1.11657e-07

>  <r_epik_State_Penalty>  (189) 
2.53995

>  <r_epik_Charging_Adjusted_Penalty>  (189) 
4.92775

>  <i_epik_Tot_Q>  (189) 
0

>  <i_epik_Tot_abs_Q>  (189) 
2

>  <s_lp_Force_Field>  (189) 
OPLS3e

>  <r_lp_Energy>  (189) 
115.364

>  <b_lp_Chiralities_Consistent>  (189) 
1

>  <s_lp_Variant>  (189) 
57:0-5

>  <s_i_glide_gridfile>  (189) 
pfpi4k_grid

>  <i_i_glide_lignum>  (189) 
38

>  <i_i_glide_rotatable_bonds>  (189) 
4

>  <r_i_docking_score>  (189) 
-1.96052

>  <r_i_glide_ligand_efficiency>  (189) 
-0.0594097

>  <r_i_glide_ligand_efficiency_sa>  (189) 
-0.190559

>  <r_i_glide_ligand_efficiency_ln>  (189) 
-0.43601

>  <r_i_glide_gscore>  (189) 
-1.96052

>  <r_i_glide_lipo>  (189) 
-0.0539308

>  <r_i_glide_hbond>  (189) 
0

>  <r_i_glide_metal>  (189) 
-0

>  <r_i_glide_rewards>  (189) 
-0.384701

>  <r_i_glide_evdw>  (189) 
-23.6945

>  <r_i_glide_ecoul>  (189) 
-3.54573

>  <r_i_glide_erotb>  (189) 
0.20322

>  <r_i_glide_esite>  (189) 
-0.00852631

>  <r_i_glide_emodel>  (189) 
-32.8813

>  <r_i_glide_energy>  (189) 
-27.2402

>  <r_i_glide_einternal>  (189) 
0.331925

>  <r_i_glide_intrahb_reward>  (189) 
-0

>  <i_i_glide_confnum>  (189) 
3

>  <i_i_glide_posenum>  (189) 
11

>  <r_i_glide_eff_state_penalty>  (189) 
0

>  <ligand_id>  (189) 
57

>  <original_smiles>  (189) 
Oc1ccc2c3c1OC1C(=CC4C5C=CC6C5CC46)CCC4(O)C(C2)N(CC2CC2)CCC314

>  <smiles>  (189) 
[H]OC12C([H])([H])C([H])([H])C(=C([H])C3([H])C4([H])C([H])=C([H])C5([H])C3([H])C([H])([H])C45[H])C3([H])Oc4c([O-])c([H])c([H])c5c4C31C([H])([H])C([H])([H])[N+]([H])(C([H])([H])C1([H])C([H])([H])C1([H])[H])C2([H])C5([H])[H]

$$$$
57:5:0
     RDKit          3D

 66 74  0  0  1  0  0  0  0  0999 V2000
   -1.2400   -7.0434    2.8911 O   0  0  0  0  0  0  0  0  0  0  0  0
   -0.0335   -6.6685    2.4006 C   0  0  0  0  0  0  0  0  0  0  0  0
    0.1863   -6.6734    1.0001 C   0  0  0  0  0  0  0  0  0  0  0  0
    1.4140   -6.2324    0.4291 C   0  0  0  0  0  0  0  0  0  0  0  0
    2.4494   -5.7725    1.2672 C   0  0  0  0  0  0  0  0  0  0  0  0
    2.1399   -5.7850    2.6150 C   0  0  0  0  0  0  0  0  0  0  0  0
    1.0006   -6.2325    3.2606 C   0  0  0  0  0  0  0  0  0  0  0  0
    1.0872   -6.1569    4.6374 O   0  0  0  0  0  0  0  0  0  0  0  0
    2.4984   -5.9843    4.8854 C   0  0  2  0  0  0  0  0  0  0  0  0
    3.0336   -5.2984    6.1294 C   0  0  0  0  0  0  0  0  0  0  0  0
    2.3122   -4.7921    7.1508 C   0  0  0  0  0  0  0  0  0  0  0  0
    0.7903   -4.7646    7.2941 C   0  0  2  0  0  0  0  0  0  0  0  0
    0.1774   -3.3647    7.4555 C   0  0  1  0  0  0  0  0  0  0  0  0
   -1.2189   -3.4573    6.8815 C   0  0  0  0  0  0  0  0  0  0  0  0
   -1.9583   -4.2481    7.6705 C   0  0  0  0  0  0  0  0  0  0  0  0
   -1.1434   -4.6477    8.8957 C   0  0  2  0  0  0  0  0  0  0  0  0
   -0.1586   -3.4763    8.9482 C   0  0  1  0  0  0  0  0  0  0  0  0
    0.7004   -4.4294    9.7771 C   0  0  0  0  0  0  0  0  0  0  0  0
    0.2451   -5.3120    8.6124 C   0  0  2  0  0  0  0  0  0  0  0  0
    4.5732   -5.2128    6.0667 C   0  0  0  0  0  0  0  0  0  0  0  0
    5.1698   -4.6828    4.7036 C   0  0  0  0  0  0  0  0  0  0  0  0
    4.4578   -5.2352    3.4272 C   0  0  2  0  0  0  0  0  0  0  0  0
    4.9054   -6.5746    3.2975 O   0  0  0  0  0  0  0  0  0  0  0  0
    4.6677   -4.5453    2.0394 C   0  0  1  0  0  0  0  0  0  0  0  0
    3.8740   -5.3054    0.9133 C   0  0  0  0  0  0  0  0  0  0  0  0
    4.2555   -3.1077    2.0997 N   0  0  1  0  0  0  0  0  0  0  0  0
    4.6356   -2.2991    0.9016 C   0  0  0  0  0  0  0  0  0  0  0  0
    4.7056   -0.8021    1.1751 C   0  0  0  0  0  0  0  0  0  0  0  0
    4.4600   -0.2011    2.5482 C   0  0  0  0  0  0  0  0  0  0  0  0
    3.4582    0.0265    1.4248 C   0  0  0  0  0  0  0  0  0  0  0  0
    2.8149   -2.9445    2.5042 C   0  0  0  0  0  0  0  0  0  0  0  0
    2.5208   -3.6957    3.7927 C   0  0  0  0  0  0  0  0  0  0  0  0
    2.9544   -5.1766    3.6815 C   0  0  1  0  0  0  0  0  0  0  0  0
   -0.5936   -7.0362    0.3491 H   0  0  0  0  0  0  0  0  0  0  0  0
    1.5616   -6.2276   -0.6359 H   0  0  0  0  0  0  0  0  0  0  0  0
    2.9304   -6.9866    4.8688 H   0  0  0  0  0  0  0  0  0  0  0  0
    2.8749   -4.3370    7.9518 H   0  0  0  0  0  0  0  0  0  0  0  0
    0.2860   -5.3049    6.5037 H   0  0  0  0  0  0  0  0  0  0  0  0
    0.7730   -2.5028    7.1535 H   0  0  0  0  0  0  0  0  0  0  0  0
   -1.5110   -3.0368    5.9337 H   0  0  0  0  0  0  0  0  0  0  0  0
   -2.9780   -4.5682    7.4767 H   0  0  0  0  0  0  0  0  0  0  0  0
   -1.6752   -4.8712    9.8291 H   0  0  0  0  0  0  0  0  0  0  0  0
   -0.5341   -2.5954    9.4641 H   0  0  0  0  0  0  0  0  0  0  0  0
    1.7556   -4.1555    9.7959 H   0  0  0  0  0  0  0  0  0  0  0  0
    0.3204   -4.6902   10.7736 H   0  0  0  0  0  0  0  0  0  0  0  0
    0.3016   -6.3839    8.7837 H   0  0  0  0  0  0  0  0  0  0  0  0
    4.9493   -4.6084    6.8981 H   0  0  0  0  0  0  0  0  0  0  0  0
    4.9487   -6.2238    6.2411 H   0  0  0  0  0  0  0  0  0  0  0  0
    5.1400   -3.5932    4.7242 H   0  0  0  0  0  0  0  0  0  0  0  0
    6.2318   -4.9305    4.6658 H   0  0  0  0  0  0  0  0  0  0  0  0
    4.3182   -7.0163    2.6974 H   0  0  0  0  0  0  0  0  0  0  0  0
    5.7298   -4.5797    1.7995 H   0  0  0  0  0  0  0  0  0  0  0  0
    4.4273   -6.2038    0.6477 H   0  0  0  0  0  0  0  0  0  0  0  0
    3.8271   -4.7205   -0.0002 H   0  0  0  0  0  0  0  0  0  0  0  0
    5.6215   -2.6070    0.5639 H   0  0  0  0  0  0  0  0  0  0  0  0
    3.9749   -2.4764    0.0597 H   0  0  0  0  0  0  0  0  0  0  0  0
    5.4277   -0.3025    0.5360 H   0  0  0  0  0  0  0  0  0  0  0  0
    4.3002   -0.8859    3.3777 H   0  0  0  0  0  0  0  0  0  0  0  0
    5.0863    0.6340    2.8377 H   0  0  0  0  0  0  0  0  0  0  0  0
    3.4164    1.0475    1.0408 H   0  0  0  0  0  0  0  0  0  0  0  0
    2.5205   -0.5142    1.2873 H   0  0  0  0  0  0  0  0  0  0  0  0
    2.5162   -1.9426    2.8079 H   0  0  0  0  0  0  0  0  0  0  0  0
    2.1405   -3.2181    1.6862 H   0  0  0  0  0  0  0  0  0  0  0  0
    3.0157   -3.1659    4.6096 H   0  0  0  0  0  0  0  0  0  0  0  0
    1.4562   -3.5867    4.0105 H   0  0  0  0  0  0  0  0  0  0  0  0
    4.8115   -2.7222    2.8391 H   0  0  0  0  0  0  0  0  0  0  0  0
  1  2  1  0
  2  7  2  0
  2  3  1  0
  3  4  2  0
  3 34  1  0
  4  5  1  0
  4 35  1  0
  5 25  1  0
  5  6  2  0
  6 33  1  0
  6  7  1  0
  7  8  1  0
  8  9  1  0
  9 33  1  0
  9 10  1  0
  9 36  1  6
 10 11  2  3
 10 20  1  0
 11 12  1  0
 11 37  1  0
 12 19  1  0
 12 13  1  0
 12 38  1  6
 13 17  1  0
 13 14  1  0
 13 39  1  1
 14 15  2  0
 14 40  1  0
 15 16  1  0
 15 41  1  0
 16 19  1  0
 16 17  1  0
 16 42  1  1
 17 18  1  0
 17 43  1  1
 18 19  1  0
 18 44  1  0
 18 45  1  0
 19 46  1  1
 20 21  1  0
 20 47  1  0
 20 48  1  0
 21 22  1  0
 21 49  1  0
 21 50  1  0
 22 33  1  0
 22 23  1  6
 22 24  1  0
 23 51  1  0
 24 25  1  0
 24 26  1  0
 24 52  1  6
 25 53  1  0
 25 54  1  0
 26 27  1  0
 26 31  1  0
 26 66  1  1
 27 28  1  0
 27 55  1  0
 27 56  1  0
 28 30  1  0
 28 29  1  0
 28 57  1  0
 29 30  1  0
 29 58  1  0
 29 59  1  0
 30 60  1  0
 30 61  1  0
 31 32  1  0
 31 62  1  0
 31 63  1  0
 33 32  1  1
 32 64  1  0
 32 65  1  0
M  CHG  2   1  -1  26   1
M  END
>  <i_m_ct_stereo_status>  (190) 
1

>  <s_m_source_file>  (190) 
/var/tmp/pbs.5076255.sched01/tmpcdf8lnea/434bzo3qpq.sdf

>  <i_m_source_file_index>  (190) 
39

>  <i_lp_mmshare_version>  (190) 
48012

>  <i_f3d_flags>  (190) 
0

>  <s_epik_input>  (190) 
W0NAXTEyM2M0YzVbY0hdW2NIXWMoW09IXSljNE9bQ0BASF0xL0MoPVtDSF0vW0NASF02W0NAQEhdKFtDSDJdNylbQ0BIXShbQ0hdPVtDSF04KVtDQEBIXTdbQ0BASF02OClbQ0gyXVtDSDJdW0NAXTIoW09IXSlbQ0BASF0oW0NIMl01KU4oW0NIMl1bQ0gyXTMpW0NIMl1bQ0hdOVtDSDJdW0NIMl05

>  <s_epik_cmdline>  (190) 
J2VwaWtfcHl0aG9uJywgJy1waHQnLCAnMi4wJywgJy1waCcsICc3LjAnLCAnLXRuJywgJzgnLCAnLW1hJywgJzIwMCcsICctaW1hZScsICc8aW5maWxlLm1hZT4nLCAnLW9tYWUnLCAnPG91dGZpbGUubWFlPic=

>  <r_epik_Ionization_Penalty>  (190) 
2.3878

>  <r_epik_Ionization_Penalty_Charging>  (190) 
2.3878

>  <r_epik_Ionization_Penalty_Neutral>  (190) 
1.11657e-07

>  <r_epik_State_Penalty>  (190) 
2.53995

>  <r_epik_Charging_Adjusted_Penalty>  (190) 
4.92775

>  <i_epik_Tot_Q>  (190) 
0

>  <i_epik_Tot_abs_Q>  (190) 
2

>  <s_lp_Force_Field>  (190) 
OPLS3e

>  <r_lp_Energy>  (190) 
115.075

>  <b_lp_Chiralities_Consistent>  (190) 
1

>  <s_lp_Variant>  (190) 
57:0-6

>  <s_i_glide_gridfile>  (190) 
pfpi4k_grid

>  <i_i_glide_lignum>  (190) 
39

>  <i_i_glide_rotatable_bonds>  (190) 
4

>  <r_i_docking_score>  (190) 
-2.46639

>  <r_i_glide_ligand_efficiency>  (190) 
-0.0747392

>  <r_i_glide_ligand_efficiency_sa>  (190) 
-0.239729

>  <r_i_glide_ligand_efficiency_ln>  (190) 
-0.548513

>  <r_i_glide_gscore>  (190) 
-2.46639

>  <r_i_glide_lipo>  (190) 
-0.242377

>  <r_i_glide_hbond>  (190) 
-0.2

>  <r_i_glide_metal>  (190) 
-0

>  <r_i_glide_rewards>  (190) 
-0.384701

>  <r_i_glide_evdw>  (190) 
-23.2413

>  <r_i_glide_ecoul>  (190) 
-4.53646

>  <r_i_glide_erotb>  (190) 
0.20322

>  <r_i_glide_esite>  (190) 
0

>  <r_i_glide_emodel>  (190) 
-28.4945

>  <r_i_glide_energy>  (190) 
-27.7778

>  <r_i_glide_einternal>  (190) 
9.35341

>  <r_i_glide_intrahb_reward>  (190) 
-0

>  <i_i_glide_confnum>  (190) 
3

>  <i_i_glide_posenum>  (190) 
3

>  <r_i_glide_eff_state_penalty>  (190) 
0

>  <ligand_id>  (190) 
57

>  <original_smiles>  (190) 
Oc1ccc2c3c1OC1C(=CC4C5C=CC6C5CC46)CCC4(O)C(C2)N(CC2CC2)CCC314

>  <smiles>  (190) 
[H]OC12C([H])([H])C([H])([H])C(=C([H])C3([H])C4([H])C([H])=C([H])C5([H])C3([H])C([H])([H])C45[H])C3([H])Oc4c([O-])c([H])c([H])c5c4C31C([H])([H])C([H])([H])[N+]([H])(C([H])([H])C1([H])C([H])([H])C1([H])[H])C2([H])C5([H])[H]

$$$$
57:5:1
     RDKit          3D

 66 74  0  0  1  0  0  0  0  0999 V2000
   -1.4223   -2.4782    6.3028 O   0  0  0  0  0  0  0  0  0  0  0  0
   -0.2649   -2.9753    5.7915 C   0  0  0  0  0  0  0  0  0  0  0  0
   -0.1016   -4.3633    5.6098 C   0  0  0  0  0  0  0  0  0  0  0  0
    1.0893   -4.9198    5.0536 C   0  0  0  0  0  0  0  0  0  0  0  0
    2.1375   -4.0489    4.6621 C   0  0  0  0  0  0  0  0  0  0  0  0
    1.8658   -2.6922    4.8680 C   0  0  0  0  0  0  0  0  0  0  0  0
    0.7807   -2.0815    5.4398 C   0  0  0  0  0  0  0  0  0  0  0  0
    0.8880   -0.7094    5.5677 O   0  0  0  0  0  0  0  0  0  0  0  0
    2.3015   -0.4755    5.3779 C   0  0  2  0  0  0  0  0  0  0  0  0
    2.8528    0.8374    4.8464 C   0  0  0  0  0  0  0  0  0  0  0  0
    2.1538    1.9437    4.5114 C   0  0  0  0  0  0  0  0  0  0  0  0
    0.6409    2.1229    4.5485 C   0  0  2  0  0  0  0  0  0  0  0  0
    0.0420    2.8491    3.3372 C   0  0  1  0  0  0  0  0  0  0  0  0
   -1.3751    2.3444    3.2107 C   0  0  0  0  0  0  0  0  0  0  0  0
   -2.0869    2.7991    4.2378 C   0  0  0  0  0  0  0  0  0  0  0  0
   -1.2336    3.7187    5.0967 C   0  0  2  0  0  0  0  0  0  0  0  0
   -0.2379    4.1927    4.0299 C   0  0  1  0  0  0  0  0  0  0  0  0
    0.6423    4.5448    5.2290 C   0  0  0  0  0  0  0  0  0  0  0  0
    0.1394    3.1356    5.5803 C   0  0  2  0  0  0  0  0  0  0  0  0
    4.3840    0.7400    4.7123 C   0  0  0  0  0  0  0  0  0  0  0  0
    4.9279   -0.5484    3.9756 C   0  0  0  0  0  0  0  0  0  0  0  0
    4.1942   -1.8676    4.3719 C   0  0  2  0  0  0  0  0  0  0  0  0
    4.6862   -2.1987    5.6611 O   0  0  0  0  0  0  0  0  0  0  0  0
    4.3355   -3.1522    3.4853 C   0  0  1  0  0  0  0  0  0  0  0  0
    3.5422   -4.3473    4.1045 C   0  0  0  0  0  0  0  0  0  0  0  0
    3.9010   -2.8720    2.0798 N   0  0  1  0  0  0  0  0  0  0  0  0
    4.2118   -3.9544    1.1071 C   0  0  0  0  0  0  0  0  0  0  0  0
    4.3114   -3.4694   -0.3389 C   0  0  0  0  0  0  0  0  0  0  0  0
    4.1380   -2.0160   -0.7648 C   0  0  0  0  0  0  0  0  0  0  0  0
    3.0955   -3.0457   -1.1390 C   0  0  0  0  0  0  0  0  0  0  0  0
    2.4764   -2.4054    2.0005 C   0  0  0  0  0  0  0  0  0  0  0  0
    2.2278   -1.2333    2.9508 C   0  0  0  0  0  0  0  0  0  0  0  0
    2.6983   -1.5770    4.3934 C   0  0  1  0  0  0  0  0  0  0  0  0
   -0.9111   -5.0358    5.8938 H   0  0  0  0  0  0  0  0  0  0  0  0
    1.1988   -5.9775    4.9400 H   0  0  0  0  0  0  0  0  0  0  0  0
    2.7744   -0.6417    6.3510 H   0  0  0  0  0  0  0  0  0  0  0  0
    2.7176    2.7977    4.1574 H   0  0  0  0  0  0  0  0  0  0  0  0
    0.1239    1.1812    4.6755 H   0  0  0  0  0  0  0  0  0  0  0  0
    0.6368    2.8901    2.4304 H   0  0  0  0  0  0  0  0  0  0  0  0
   -1.7127    1.6525    2.4467 H   0  0  0  0  0  0  0  0  0  0  0  0
   -3.1288    2.5578    4.4400 H   0  0  0  0  0  0  0  0  0  0  0  0
   -1.7196    4.5101    5.6835 H   0  0  0  0  0  0  0  0  0  0  0  0
   -0.5934    5.0235    3.4131 H   0  0  0  0  0  0  0  0  0  0  0  0
    1.7027    4.6382    4.9803 H   0  0  0  0  0  0  0  0  0  0  0  0
    0.2859    5.3684    5.8608 H   0  0  0  0  0  0  0  0  0  0  0  0
    0.1986    2.8777    6.6403 H   0  0  0  0  0  0  0  0  0  0  0  0
    4.7634    1.6406    4.2142 H   0  0  0  0  0  0  0  0  0  0  0  0
    4.7967    0.7594    5.7267 H   0  0  0  0  0  0  0  0  0  0  0  0
    4.8691   -0.3705    2.9019 H   0  0  0  0  0  0  0  0  0  0  0  0
    5.9917   -0.6443    4.1837 H   0  0  0  0  0  0  0  0  0  0  0  0
    4.0966   -2.8475    6.0242 H   0  0  0  0  0  0  0  0  0  0  0  0
    5.3904   -3.4199    3.4635 H   0  0  0  0  0  0  0  0  0  0  0  0
    4.1006   -4.7485    4.9476 H   0  0  0  0  0  0  0  0  0  0  0  0
    3.4501   -5.1693    3.3972 H   0  0  0  0  0  0  0  0  0  0  0  0
    5.1706   -4.3834    1.3564 H   0  0  0  0  0  0  0  0  0  0  0  0
    3.5136   -4.7809    1.1587 H   0  0  0  0  0  0  0  0  0  0  0  0
    5.0062   -4.0802   -0.9128 H   0  0  0  0  0  0  0  0  0  0  0  0
    3.9707   -1.2841    0.0290 H   0  0  0  0  0  0  0  0  0  0  0  0
    4.7778   -1.6654   -1.5748 H   0  0  0  0  0  0  0  0  0  0  0  0
    3.0571   -3.2860   -2.1982 H   0  0  0  0  0  0  0  0  0  0  0  0
    2.1509   -3.1826   -0.6151 H   0  0  0  0  0  0  0  0  0  0  0  0
    2.1917   -1.9733    1.0354 H   0  0  0  0  0  0  0  0  0  0  0  0
    1.7738   -3.2281    2.2050 H   0  0  0  0  0  0  0  0  0  0  0  0
    2.7371   -0.3607    2.5456 H   0  0  0  0  0  0  0  0  0  0  0  0
    1.1651   -0.9787    2.9201 H   0  0  0  0  0  0  0  0  0  0  0  0
    4.4692   -2.0975    1.7966 H   0  0  0  0  0  0  0  0  0  0  0  0
  1  2  1  0
  2  7  2  0
  2  3  1  0
  3  4  2  0
  3 34  1  0
  4  5  1  0
  4 35  1  0
  5 25  1  0
  5  6  2  0
  6 33  1  0
  6  7  1  0
  7  8  1  0
  8  9  1  0
  9 33  1  0
  9 10  1  0
  9 36  1  1
 10 11  2  3
 10 20  1  0
 11 12  1  0
 11 37  1  0
 12 19  1  0
 12 13  1  0
 12 38  1  1
 13 17  1  0
 13 14  1  0
 13 39  1  6
 14 15  2  0
 14 40  1  0
 15 16  1  0
 15 41  1  0
 16 19  1  0
 16 17  1  0
 16 42  1  1
 17 18  1  0
 17 43  1  6
 18 19  1  0
 18 44  1  0
 18 45  1  0
 19 46  1  1
 20 21  1  0
 20 47  1  0
 20 48  1  0
 21 22  1  0
 21 49  1  0
 21 50  1  0
 22 33  1  0
 22 23  1  1
 22 24  1  0
 23 51  1  0
 24 25  1  0
 24 26  1  0
 24 52  1  6
 25 53  1  0
 25 54  1  0
 26 27  1  0
 26 31  1  0
 26 66  1  6
 27 28  1  0
 27 55  1  0
 27 56  1  0
 28 30  1  0
 28 29  1  0
 28 57  1  0
 29 30  1  0
 29 58  1  0
 29 59  1  0
 30 60  1  0
 30 61  1  0
 31 32  1  0
 31 62  1  0
 31 63  1  0
 33 32  1  6
 32 64  1  0
 32 65  1  0
M  CHG  2   1  -1  26   1
M  END
>  <i_m_ct_stereo_status>  (191) 
1

>  <s_m_source_file>  (191) 
/var/tmp/pbs.5076255.sched01/tmpcdf8lnea/434bzo3qpq.sdf

>  <i_m_source_file_index>  (191) 
39

>  <i_lp_mmshare_version>  (191) 
48012

>  <i_f3d_flags>  (191) 
0

>  <s_epik_input>  (191) 
W0NAXTEyM2M0YzVbY0hdW2NIXWMoW09IXSljNE9bQ0BASF0xL0MoPVtDSF0vW0NASF02W0NAQEhdKFtDSDJdNylbQ0BIXShbQ0hdPVtDSF04KVtDQEBIXTdbQ0BASF02OClbQ0gyXVtDSDJdW0NAXTIoW09IXSlbQ0BASF0oW0NIMl01KU4oW0NIMl1bQ0gyXTMpW0NIMl1bQ0hdOVtDSDJdW0NIMl05

>  <s_epik_cmdline>  (191) 
J2VwaWtfcHl0aG9uJywgJy1waHQnLCAnMi4wJywgJy1waCcsICc3LjAnLCAnLXRuJywgJzgnLCAnLW1hJywgJzIwMCcsICctaW1hZScsICc8aW5maWxlLm1hZT4nLCAnLW9tYWUnLCAnPG91dGZpbGUubWFlPic=

>  <r_epik_Ionization_Penalty>  (191) 
2.3878

>  <r_epik_Ionization_Penalty_Charging>  (191) 
2.3878

>  <r_epik_Ionization_Penalty_Neutral>  (191) 
1.11657e-07

>  <r_epik_State_Penalty>  (191) 
2.53995

>  <r_epik_Charging_Adjusted_Penalty>  (191) 
4.92775

>  <i_epik_Tot_Q>  (191) 
0

>  <i_epik_Tot_abs_Q>  (191) 
2

>  <s_lp_Force_Field>  (191) 
OPLS3e

>  <r_lp_Energy>  (191) 
115.075

>  <b_lp_Chiralities_Consistent>  (191) 
1

>  <s_lp_Variant>  (191) 
57:0-6

>  <s_i_glide_gridfile>  (191) 
pfpi4k_grid

>  <i_i_glide_lignum>  (191) 
39

>  <i_i_glide_rotatable_bonds>  (191) 
4

>  <r_i_docking_score>  (191) 
-2.10168

>  <r_i_glide_ligand_efficiency>  (191) 
-0.0636872

>  <r_i_glide_ligand_efficiency_sa>  (191) 
-0.204279

>  <r_i_glide_ligand_efficiency_ln>  (191) 
-0.467402

>  <r_i_glide_gscore>  (191) 
-2.10168

>  <r_i_glide_lipo>  (191) 
-0.177922

>  <r_i_glide_hbond>  (191) 
0

>  <r_i_glide_metal>  (191) 
-0

>  <r_i_glide_rewards>  (191) 
-0.384701

>  <r_i_glide_evdw>  (191) 
-22.9098

>  <r_i_glide_ecoul>  (191) 
-3.97856

>  <r_i_glide_erotb>  (191) 
0.20322

>  <r_i_glide_esite>  (191) 
0

>  <r_i_glide_emodel>  (191) 
-27.0605

>  <r_i_glide_energy>  (191) 
-26.8884

>  <r_i_glide_einternal>  (191) 
9.17495

>  <r_i_glide_intrahb_reward>  (191) 
-0

>  <i_i_glide_confnum>  (191) 
3

>  <i_i_glide_posenum>  (191) 
31

>  <r_i_glide_eff_state_penalty>  (191) 
0

>  <ligand_id>  (191) 
57

>  <original_smiles>  (191) 
Oc1ccc2c3c1OC1C(=CC4C5C=CC6C5CC46)CCC4(O)C(C2)N(CC2CC2)CCC314

>  <smiles>  (191) 
[H]OC12C([H])([H])C([H])([H])C(=C([H])C3([H])C4([H])C([H])=C([H])C5([H])C3([H])C([H])([H])C45[H])C3([H])Oc4c([O-])c([H])c([H])c5c4C31C([H])([H])C([H])([H])[N+]([H])(C([H])([H])C1([H])C([H])([H])C1([H])[H])C2([H])C5([H])[H]

$$$$
57:5:2
     RDKit          3D

 66 74  0  0  1  0  0  0  0  0999 V2000
    2.9468   -4.6158    2.6641 O   0  0  0  0  0  0  0  0  0  0  0  0
    2.8220   -3.2598    2.5980 C   0  0  0  0  0  0  0  0  0  0  0  0
    2.9391   -2.5875    1.3516 C   0  0  0  0  0  0  0  0  0  0  0  0
    2.8156   -1.1762    1.2476 C   0  0  0  0  0  0  0  0  0  0  0  0
    2.5193   -0.4139    2.3935 C   0  0  0  0  0  0  0  0  0  0  0  0
    2.3860   -1.1593    3.5619 C   0  0  0  0  0  0  0  0  0  0  0  0
    2.5645   -2.5108    3.7671 C   0  0  0  0  0  0  0  0  0  0  0  0
    2.4507   -2.8820    5.0894 O   0  0  0  0  0  0  0  0  0  0  0  0
    2.5969   -1.6327    5.7952 C   0  0  2  0  0  0  0  0  0  0  0  0
    2.0405   -1.4067    7.1852 C   0  0  0  0  0  0  0  0  0  0  0  0
    1.3759   -2.3099    7.9282 C   0  0  0  0  0  0  0  0  0  0  0  0
    1.0416   -3.7434    7.5304 C   0  0  2  0  0  0  0  0  0  0  0  0
   -0.3508   -3.9214    6.8865 C   0  0  1  0  0  0  0  0  0  0  0  0
   -0.2362   -5.1226    5.9793 C   0  0  0  0  0  0  0  0  0  0  0  0
   -0.0811   -6.2160    6.7337 C   0  0  0  0  0  0  0  0  0  0  0  0
   -0.1841   -5.8408    8.2046 C   0  0  2  0  0  0  0  0  0  0  0  0
   -1.0433   -4.5772    8.0846 C   0  0  1  0  0  0  0  0  0  0  0  0
   -0.4861   -4.2350    9.4624 C   0  0  0  0  0  0  0  0  0  0  0  0
    0.7632   -4.6918    8.6949 C   0  0  2  0  0  0  0  0  0  0  0  0
    2.2995    0.0397    7.6507 C   0  0  0  0  0  0  0  0  0  0  0  0
    1.9409    1.1567    6.5948 C   0  0  0  0  0  0  0  0  0  0  0  0
    2.3534    0.8089    5.1288 C   0  0  2  0  0  0  0  0  0  0  0  0
    3.7629    0.9670    5.1191 O   0  0  0  0  0  0  0  0  0  0  0  0
    1.7666    1.6190    3.9210 C   0  0  1  0  0  0  0  0  0  0  0  0
    2.3753    1.1066    2.5648 C   0  0  0  0  0  0  0  0  0  0  0  0
    0.2661    1.5620    3.9075 N   0  0  1  0  0  0  0  0  0  0  0  0
   -0.3608    2.4863    2.9236 C   0  0  0  0  0  0  0  0  0  0  0  0
   -1.8172    2.7678    3.2443 C   0  0  0  0  0  0  0  0  0  0  0  0
   -2.4355    4.1010    2.8883 C   0  0  0  0  0  0  0  0  0  0  0  0
   -2.1724    3.7453    4.3308 C   0  0  0  0  0  0  0  0  0  0  0  0
   -0.2723    0.1789    3.8246 C   0  0  0  0  0  0  0  0  0  0  0  0
    0.3703   -0.7272    4.8837 C   0  0  0  0  0  0  0  0  0  0  0  0
    1.9333   -0.6291    4.8589 C   0  0  1  0  0  0  0  0  0  0  0  0
    3.1162   -3.1591    0.4541 H   0  0  0  0  0  0  0  0  0  0  0  0
    2.9013   -0.6861    0.2904 H   0  0  0  0  0  0  0  0  0  0  0  0
    3.6715   -1.4642    5.8692 H   0  0  0  0  0  0  0  0  0  0  0  0
    1.0540   -1.9947    8.9078 H   0  0  0  0  0  0  0  0  0  0  0  0
    1.8451   -4.1639    6.9260 H   0  0  0  0  0  0  0  0  0  0  0  0
   -0.8497   -3.0462    6.4701 H   0  0  0  0  0  0  0  0  0  0  0  0
   -0.1931   -5.0749    4.9019 H   0  0  0  0  0  0  0  0  0  0  0  0
    0.0920   -7.2223    6.3715 H   0  0  0  0  0  0  0  0  0  0  0  0
   -0.5324   -6.5950    8.9136 H   0  0  0  0  0  0  0  0  0  0  0  0
   -2.1162   -4.7675    8.0219 H   0  0  0  0  0  0  0  0  0  0  0  0
   -0.5489   -3.1722    9.7002 H   0  0  0  0  0  0  0  0  0  0  0  0
   -0.8165   -4.8629   10.2942 H   0  0  0  0  0  0  0  0  0  0  0  0
    1.6038   -5.0087    9.3110 H   0  0  0  0  0  0  0  0  0  0  0  0
    1.7651    0.2309    8.5858 H   0  0  0  0  0  0  0  0  0  0  0  0
    3.3618    0.1089    7.8978 H   0  0  0  0  0  0  0  0  0  0  0  0
    0.8712    1.3534    6.6509 H   0  0  0  0  0  0  0  0  0  0  0  0
    2.4121    2.0929    6.8976 H   0  0  0  0  0  0  0  0  0  0  0  0
    4.1382    0.3505    5.7298 H   0  0  0  0  0  0  0  0  0  0  0  0
    2.0464    2.6673    4.0475 H   0  0  0  0  0  0  0  0  0  0  0  0
    3.3805    1.5148    2.4705 H   0  0  0  0  0  0  0  0  0  0  0  0
    1.8316    1.5041    1.7075 H   0  0  0  0  0  0  0  0  0  0  0  0
    0.1769    3.4335    2.9247 H   0  0  0  0  0  0  0  0  0  0  0  0
   -0.3072    2.0934    1.9095 H   0  0  0  0  0  0  0  0  0  0  0  0
   -2.4882    1.9180    3.1146 H   0  0  0  0  0  0  0  0  0  0  0  0
   -1.7913    4.8440    2.4171 H   0  0  0  0  0  0  0  0  0  0  0  0
   -3.4736    4.1120    2.5564 H   0  0  0  0  0  0  0  0  0  0  0  0
   -3.0304    3.5022    4.9589 H   0  0  0  0  0  0  0  0  0  0  0  0
   -1.3466    4.2477    4.8338 H   0  0  0  0  0  0  0  0  0  0  0  0
   -1.3483    0.1831    3.9873 H   0  0  0  0  0  0  0  0  0  0  0  0
   -0.1187   -0.2316    2.8261 H   0  0  0  0  0  0  0  0  0  0  0  0
   -0.0394   -0.4627    5.8605 H   0  0  0  0  0  0  0  0  0  0  0  0
    0.0459   -1.7544    4.7108 H   0  0  0  0  0  0  0  0  0  0  0  0
   -0.0114    1.9178    4.8126 H   0  0  0  0  0  0  0  0  0  0  0  0
  1  2  1  0
  2  7  2  0
  2  3  1  0
  3  4  2  0
  3 34  1  0
  4  5  1  0
  4 35  1  0
  5 25  1  0
  5  6  2  0
  6 33  1  0
  6  7  1  0
  7  8  1  0
  8  9  1  0
  9 33  1  0
  9 10  1  0
  9 36  1  1
 10 11  2  3
 10 20  1  0
 11 12  1  0
 11 37  1  0
 12 19  1  0
 12 13  1  0
 12 38  1  6
 13 17  1  0
 13 14  1  0
 13 39  1  6
 14 15  2  0
 14 40  1  0
 15 16  1  0
 15 41  1  0
 16 19  1  0
 16 17  1  0
 16 42  1  1
 17 18  1  0
 17 43  1  1
 18 19  1  0
 18 44  1  0
 18 45  1  0
 19 46  1  1
 20 21  1  0
 20 47  1  0
 20 48  1  0
 21 22  1  0
 21 49  1  0
 21 50  1  0
 22 33  1  0
 22 23  1  1
 22 24  1  0
 23 51  1  0
 24 25  1  0
 24 26  1  0
 24 52  1  1
 25 53  1  0
 25 54  1  0
 26 27  1  0
 26 31  1  0
 26 66  1  1
 27 28  1  0
 27 55  1  0
 27 56  1  0
 28 30  1  0
 28 29  1  0
 28 57  1  0
 29 30  1  0
 29 58  1  0
 29 59  1  0
 30 60  1  0
 30 61  1  0
 31 32  1  0
 31 62  1  0
 31 63  1  0
 33 32  1  6
 32 64  1  0
 32 65  1  0
M  CHG  2   1  -1  26   1
M  END
>  <i_m_ct_stereo_status>  (192) 
1

>  <s_m_source_file>  (192) 
/var/tmp/pbs.5076255.sched01/tmpcdf8lnea/434bzo3qpq.sdf

>  <i_m_source_file_index>  (192) 
39

>  <i_lp_mmshare_version>  (192) 
48012

>  <i_f3d_flags>  (192) 
0

>  <s_epik_input>  (192) 
W0NAXTEyM2M0YzVbY0hdW2NIXWMoW09IXSljNE9bQ0BASF0xL0MoPVtDSF0vW0NASF02W0NAQEhdKFtDSDJdNylbQ0BIXShbQ0hdPVtDSF04KVtDQEBIXTdbQ0BASF02OClbQ0gyXVtDSDJdW0NAXTIoW09IXSlbQ0BASF0oW0NIMl01KU4oW0NIMl1bQ0gyXTMpW0NIMl1bQ0hdOVtDSDJdW0NIMl05

>  <s_epik_cmdline>  (192) 
J2VwaWtfcHl0aG9uJywgJy1waHQnLCAnMi4wJywgJy1waCcsICc3LjAnLCAnLXRuJywgJzgnLCAnLW1hJywgJzIwMCcsICctaW1hZScsICc8aW5maWxlLm1hZT4nLCAnLW9tYWUnLCAnPG91dGZpbGUubWFlPic=

>  <r_epik_Ionization_Penalty>  (192) 
2.3878

>  <r_epik_Ionization_Penalty_Charging>  (192) 
2.3878

>  <r_epik_Ionization_Penalty_Neutral>  (192) 
1.11657e-07

>  <r_epik_State_Penalty>  (192) 
2.53995

>  <r_epik_Charging_Adjusted_Penalty>  (192) 
4.92775

>  <i_epik_Tot_Q>  (192) 
0

>  <i_epik_Tot_abs_Q>  (192) 
2

>  <s_lp_Force_Field>  (192) 
OPLS3e

>  <r_lp_Energy>  (192) 
115.075

>  <b_lp_Chiralities_Consistent>  (192) 
1

>  <s_lp_Variant>  (192) 
57:0-6

>  <s_i_glide_gridfile>  (192) 
pfpi4k_grid

>  <i_i_glide_lignum>  (192) 
39

>  <i_i_glide_rotatable_bonds>  (192) 
4

>  <r_i_docking_score>  (192) 
-1.57057

>  <r_i_glide_ligand_efficiency>  (192) 
-0.0475932

>  <r_i_glide_ligand_efficiency_sa>  (192) 
-0.152657

>  <r_i_glide_ligand_efficiency_ln>  (192) 
-0.349288

>  <r_i_glide_gscore>  (192) 
-1.57057

>  <r_i_glide_lipo>  (192) 
-0.0158936

>  <r_i_glide_hbond>  (192) 
0

>  <r_i_glide_metal>  (192) 
-0

>  <r_i_glide_rewards>  (192) 
-0.384701

>  <r_i_glide_evdw>  (192) 
-24.4707

>  <r_i_glide_ecoul>  (192) 
-0.856442

>  <r_i_glide_erotb>  (192) 
0.20322

>  <r_i_glide_esite>  (192) 
-0.0212004

>  <r_i_glide_emodel>  (192) 
-28.4881

>  <r_i_glide_energy>  (192) 
-25.3271

>  <r_i_glide_einternal>  (192) 
2.05048

>  <r_i_glide_intrahb_reward>  (192) 
-0

>  <i_i_glide_confnum>  (192) 
3

>  <i_i_glide_posenum>  (192) 
22

>  <r_i_glide_eff_state_penalty>  (192) 
0

>  <ligand_id>  (192) 
57

>  <original_smiles>  (192) 
Oc1ccc2c3c1OC1C(=CC4C5C=CC6C5CC46)CCC4(O)C(C2)N(CC2CC2)CCC314

>  <smiles>  (192) 
[H]OC12C([H])([H])C([H])([H])C(=C([H])C3([H])C4([H])C([H])=C([H])C5([H])C3([H])C([H])([H])C45[H])C3([H])Oc4c([O-])c([H])c([H])c5c4C31C([H])([H])C([H])([H])[N+]([H])(C([H])([H])C1([H])C([H])([H])C1([H])[H])C2([H])C5([H])[H]

$$$$
58:0:0
     RDKit          3D

 64 69  0  0  1  0  0  0  0  0999 V2000
    3.0976   -3.8326   -0.4175 C   0  0  0  0  0  0  0  0  0  0  0  0
    4.3801   -3.0619   -0.1303 C   0  0  2  0  0  0  0  0  0  0  0  0
    5.3362   -2.7432   -1.2905 C   0  0  0  0  0  0  0  0  0  0  0  0
    6.2905   -2.4733   -0.1164 C   0  0  2  0  0  0  0  0  0  0  0  0
    5.6166   -3.7404    0.3858 C   0  0  0  0  0  0  0  0  0  0  0  0
    5.7141   -4.1539    1.6596 C   0  0  0  0  0  0  0  0  0  0  0  0
    4.7581   -3.6458    2.7308 C   0  0  0  0  0  0  0  0  0  0  0  0
    3.8378   -2.4438    2.2717 C   0  0  1  0  0  0  0  0  0  0  0  0
    3.5971   -1.3911    3.4018 C   0  0  2  0  0  0  0  0  0  0  0  0
    3.4077   -2.0279    4.8107 C   0  0  0  0  0  0  0  0  0  0  0  0
    2.2077   -1.3717    5.4948 C   0  0  1  0  0  0  0  0  0  0  0  0
    2.4727   -1.0911    6.8603 O   0  0  0  0  0  0  0  0  0  0  0  0
    1.9109   -0.1315    4.6387 C   0  0  1  0  0  0  0  0  0  0  0  0
    2.3054   -0.5634    3.2048 C   0  0  1  0  0  0  0  0  0  0  0  0
    2.2952    0.6901    2.2735 C   0  0  1  0  0  0  0  0  0  0  0  0
    2.4308    0.4386    0.9335 O   0  0  0  0  0  0  0  0  0  0  0  0
    0.8986    1.3554    2.3021 C   0  0  0  0  0  0  0  0  0  0  0  0
    0.4467    1.7072    3.7257 C   0  0  1  0  0  0  0  0  0  0  0  0
   -0.9247    2.3936    3.6975 C   0  0  0  0  0  0  0  0  0  0  0  0
   -1.3232    2.8308    5.1214 C   0  0  1  0  0  0  0  0  0  0  0  0
   -2.6305    3.3457    5.0732 O   0  0  0  0  0  0  0  0  0  0  0  0
   -1.2750    1.6724    6.1368 C   0  0  0  0  0  0  0  0  0  0  0  0
    0.0976    0.9705    6.1026 C   0  0  0  0  0  0  0  0  0  0  0  0
    0.4629    0.4621    4.6781 C   0  0  2  0  0  0  0  0  0  0  0  0
   -0.5864   -0.6103    4.2344 C   0  0  0  0  0  0  0  0  0  0  0  0
    4.2270   -1.8866    0.8446 C   0  0  1  0  0  0  0  0  0  0  0  0
    5.6758   -1.3244    0.7175 C   0  0  1  0  0  0  0  0  0  0  0  0
    6.4046   -1.0203    1.9095 O   0  0  0  0  0  0  0  0  0  0  0  0
    2.3595   -3.1812   -0.8834 H   0  0  0  0  0  0  0  0  0  0  0  0
    2.6202   -4.2488    0.4755 H   0  0  0  0  0  0  0  0  0  0  0  0
    3.2860   -4.6339   -1.1060 H   0  0  0  0  0  0  0  0  0  0  0  0
    5.5655   -3.5765   -1.9517 H   0  0  0  0  0  0  0  0  0  0  0  0
    5.0303   -1.8325   -1.8137 H   0  0  0  0  0  0  0  0  0  0  0  0
    7.3406   -2.4396   -0.3721 H   0  0  0  0  0  0  0  0  0  0  0  0
    6.7134   -4.2941    2.0676 H   0  0  0  0  0  0  0  0  0  0  0  0
    4.1420   -4.4693    3.0785 H   0  0  0  0  0  0  0  0  0  0  0  0
    5.3548   -3.3345    3.5851 H   0  0  0  0  0  0  0  0  0  0  0  0
    2.8735   -2.9307    2.1324 H   0  0  0  0  0  0  0  0  0  0  0  0
    4.4350   -0.6863    3.4929 H   0  0  0  0  0  0  0  0  0  0  0  0
    3.1529   -3.0891    4.7878 H   0  0  0  0  0  0  0  0  0  0  0  0
    4.3142   -1.9389    5.4143 H   0  0  0  0  0  0  0  0  0  0  0  0
    1.4104   -2.1149    5.4721 H   0  0  0  0  0  0  0  0  0  0  0  0
    3.1974   -0.4918    6.9076 H   0  0  0  0  0  0  0  0  0  0  0  0
    2.6319    0.6399    4.9445 H   0  0  0  0  0  0  0  0  0  0  0  0
    1.5907   -1.2977    2.8521 H   0  0  0  0  0  0  0  0  0  0  0  0
    3.0587    1.3913    2.6378 H   0  0  0  0  0  0  0  0  0  0  0  0
    1.7744   -0.1779    0.6486 H   0  0  0  0  0  0  0  0  0  0  0  0
    0.9257    2.2414    1.6736 H   0  0  0  0  0  0  0  0  0  0  0  0
    0.1719    0.7031    1.8194 H   0  0  0  0  0  0  0  0  0  0  0  0
    1.1799    2.4466    4.0754 H   0  0  0  0  0  0  0  0  0  0  0  0
   -0.9022    3.2489    3.0153 H   0  0  0  0  0  0  0  0  0  0  0  0
   -1.6635    1.7166    3.2670 H   0  0  0  0  0  0  0  0  0  0  0  0
   -0.6352    3.6090    5.4485 H   0  0  0  0  0  0  0  0  0  0  0  0
   -3.1867    2.7011    4.6725 H   0  0  0  0  0  0  0  0  0  0  0  0
   -1.4866    2.0299    7.1437 H   0  0  0  0  0  0  0  0  0  0  0  0
   -2.0787    0.9633    5.9435 H   0  0  0  0  0  0  0  0  0  0  0  0
    0.8665    1.6617    6.4683 H   0  0  0  0  0  0  0  0  0  0  0  0
    0.0957    0.1352    6.7974 H   0  0  0  0  0  0  0  0  0  0  0  0
   -1.6286   -0.2817    4.2643 H   0  0  0  0  0  0  0  0  0  0  0  0
   -0.5518   -1.5385    4.8206 H   0  0  0  0  0  0  0  0  0  0  0  0
   -0.4506   -0.8888    3.1959 H   0  0  0  0  0  0  0  0  0  0  0  0
    3.4961   -1.2938    0.3625 H   0  0  0  0  0  0  0  0  0  0  0  0
    5.6348   -0.4083    0.1511 H   0  0  0  0  0  0  0  0  0  0  0  0
    7.1019   -0.3912    1.7003 H   0  0  0  0  0  0  0  0  0  0  0  0
  2  1  1  6
  1 29  1  0
  1 30  1  0
  1 31  1  0
  2  5  1  0
  2 26  1  0
  2  3  1  0
  3  4  1  0
  3 32  1  0
  3 33  1  0
  4 27  1  0
  4  5  1  0
  4 34  1  6
  5  6  2  0
  6  7  1  0
  6 35  1  0
  7  8  1  0
  7 36  1  0
  7 37  1  0
  8  9  1  0
  8 26  1  0
  8 38  1  6
  9 14  1  0
  9 10  1  0
  9 39  1  1
 10 11  1  0
 10 40  1  0
 10 41  1  0
 11 12  1  0
 11 13  1  0
 11 42  1  1
 12 43  1  0
 13 24  1  0
 13 14  1  0
 13 44  1  1
 14 15  1  0
 14 45  1  6
 15 16  1  0
 15 17  1  0
 15 46  1  1
 16 47  1  0
 17 18  1  0
 17 48  1  0
 17 49  1  0
 18 24  1  0
 18 19  1  0
 18 50  1  1
 19 20  1  0
 19 51  1  0
 19 52  1  0
 20 21  1  0
 20 22  1  0
 20 53  1  1
 21 54  1  0
 22 23  1  0
 22 55  1  0
 22 56  1  0
 23 24  1  0
 23 57  1  0
 23 58  1  0
 24 25  1  6
 25 59  1  0
 25 60  1  0
 25 61  1  0
 26 27  1  0
 26 62  1  6
 27 28  1  0
 27 63  1  6
 28 64  1  0
M  END
>  <i_m_ct_stereo_status>  (193) 
1

>  <s_m_source_file>  (193) 
/var/tmp/pbs.5076255.sched01/tmpcdf8lnea/434bzo3qpq.sdf

>  <i_m_source_file_index>  (193) 
40

>  <i_lp_mmshare_version>  (193) 
48012

>  <i_f3d_flags>  (193) 
1

>  <s_epik_input>  (193) 
W0NIM11bQ0BAXTEyQz0zW0NAQEhdKFtDSDJdMSlbQ0BIXShbT0hdKVtDQEBIXTJbQ0BASF0oW0NIMl1bQ0hdMylbQ0BIXShbQ0gyXVtDQEhdNFtPSF0pW0NAQEhdKFtDQEhdNFtDQF01NltDSDNdKVtDQEBIXShbT0hdKVtDSDJdW0NASF01W0NIMl1bQ0BASF0oW09IXSlbQ0gyXVtDSDJdNg==

>  <s_epik_cmdline>  (193) 
J2VwaWtfcHl0aG9uJywgJy1waHQnLCAnMi4wJywgJy1waCcsICc3LjAnLCAnLXRuJywgJzgnLCAnLW1hJywgJzIwMCcsICctaW1hZScsICc8aW5maWxlLm1hZT4nLCAnLW9tYWUnLCAnPG91dGZpbGUubWFlPic=

>  <r_lp_tautomer_probability>  (193) 
1

>  <r_epik_Ionization_Penalty>  (193) 
7.30069e-06

>  <r_epik_Ionization_Penalty_Charging>  (193) 
0

>  <r_epik_Ionization_Penalty_Neutral>  (193) 
7.30069e-06

>  <r_epik_State_Penalty>  (193) 
-0

>  <r_epik_Charging_Adjusted_Penalty>  (193) 
0

>  <i_epik_Tot_Q>  (193) 
0

>  <i_epik_Tot_abs_Q>  (193) 
0

>  <s_lp_Force_Field>  (193) 
OPLS3e

>  <r_lp_Energy>  (193) 
91.4485

>  <b_lp_Chiralities_Consistent>  (193) 
1

>  <s_lp_Variant>  (193) 
58:0-1

>  <s_i_glide_gridfile>  (193) 
pfpi4k_grid

>  <i_i_glide_lignum>  (193) 
40

>  <i_i_glide_rotatable_bonds>  (193) 
5

>  <r_i_docking_score>  (193) 
-3.37052

>  <r_i_glide_ligand_efficiency>  (193) 
-0.120376

>  <r_i_glide_ligand_efficiency_sa>  (193) 
-0.365531

>  <r_i_glide_ligand_efficiency_ln>  (193) 
-0.778015

>  <r_i_glide_gscore>  (193) 
-3.37052

>  <r_i_glide_lipo>  (193) 
-0.270411

>  <r_i_glide_hbond>  (193) 
-0.455614

>  <r_i_glide_metal>  (193) 
-0

>  <r_i_glide_rewards>  (193) 
-0.759953

>  <r_i_glide_evdw>  (193) 
-14.4655

>  <r_i_glide_ecoul>  (193) 
-8.60225

>  <r_i_glide_erotb>  (193) 
0.129071

>  <r_i_glide_esite>  (193) 
0

>  <r_i_glide_emodel>  (193) 
-25.3488

>  <r_i_glide_energy>  (193) 
-23.0677

>  <r_i_glide_einternal>  (193) 
1.73721

>  <r_i_glide_intrahb_reward>  (193) 
-0

>  <i_i_glide_confnum>  (193) 
2

>  <i_i_glide_posenum>  (193) 
9

>  <r_i_glide_eff_state_penalty>  (193) 
0

>  <ligand_id>  (193) 
58

>  <original_smiles>  (193) 
CC12CC3C1=CCC(C1CC(O)C4C1C(O)CC1CC(O)CCC14C)C2C3O

>  <smiles>  (193) 
[H]OC1([H])C([H])([H])C([H])([H])C2(C([H])([H])[H])C([H])(C1([H])[H])C([H])([H])C([H])(O[H])C1([H])C([H])(C3([H])C([H])([H])C([H])=C4C5([H])C([H])([H])C4(C([H])([H])[H])C3([H])C5([H])O[H])C([H])([H])C([H])(O[H])C12[H]

$$$$
58:0:1
     RDKit          3D

 64 69  0  0  1  0  0  0  0  0999 V2000
    2.7699   -3.2240   -1.4038 C   0  0  0  0  0  0  0  0  0  0  0  0
    3.9316   -3.4610   -0.4335 C   0  0  2  0  0  0  0  0  0  0  0  0
    5.3365   -3.6487   -1.0128 C   0  0  0  0  0  0  0  0  0  0  0  0
    5.5965   -4.2048    0.3977 C   0  0  2  0  0  0  0  0  0  0  0  0
    4.2288   -4.8519    0.1187 C   0  0  0  0  0  0  0  0  0  0  0  0
    3.4699   -5.4242    1.0585 C   0  0  0  0  0  0  0  0  0  0  0  0
    2.5090   -4.5671    1.8876 C   0  0  0  0  0  0  0  0  0  0  0  0
    2.6719   -3.0101    1.6986 C   0  0  1  0  0  0  0  0  0  0  0  0
    2.4275   -2.2051    3.0254 C   0  0  2  0  0  0  0  0  0  0  0  0
    1.3097   -2.8314    3.9384 C   0  0  0  0  0  0  0  0  0  0  0  0
    0.4014   -1.7083    4.4255 C   0  0  1  0  0  0  0  0  0  0  0  0
    0.0863   -1.8564    5.8003 O   0  0  0  0  0  0  0  0  0  0  0  0
    1.1782   -0.4185    4.0794 C   0  0  1  0  0  0  0  0  0  0  0  0
    1.9388   -0.7666    2.7846 C   0  0  1  0  0  0  0  0  0  0  0  0
    2.9449    0.3662    2.4653 C   0  0  1  0  0  0  0  0  0  0  0  0
    3.5315    0.2720    1.2146 O   0  0  0  0  0  0  0  0  0  0  0  0
    2.2157    1.7048    2.3340 C   0  0  0  0  0  0  0  0  0  0  0  0
    1.3757    2.0384    3.5789 C   0  0  1  0  0  0  0  0  0  0  0  0
    0.6663    3.3979    3.4235 C   0  0  0  0  0  0  0  0  0  0  0  0
   -0.1065    3.7697    4.6980 C   0  0  1  0  0  0  0  0  0  0  0  0
   -0.8065    4.9596    4.4420 O   0  0  0  0  0  0  0  0  0  0  0  0
   -1.0815    2.6598    5.1332 C   0  0  0  0  0  0  0  0  0  0  0  0
   -0.3611    1.2980    5.2410 C   0  0  0  0  0  0  0  0  0  0  0  0
    0.3512    0.9027    3.9157 C   0  0  2  0  0  0  0  0  0  0  0  0
   -0.7173    0.7449    2.7716 C   0  0  0  0  0  0  0  0  0  0  0  0
    3.9217   -2.6285    0.8281 C   0  0  1  0  0  0  0  0  0  0  0  0
    5.2929   -3.0907    1.3974 C   0  0  1  0  0  0  0  0  0  0  0  0
    5.3707   -3.5063    2.7519 O   0  0  0  0  0  0  0  0  0  0  0  0
    2.7791   -2.1974   -1.7672 H   0  0  0  0  0  0  0  0  0  0  0  0
    1.7846   -3.4022   -0.9713 H   0  0  0  0  0  0  0  0  0  0  0  0
    2.8578   -3.8132   -2.3134 H   0  0  0  0  0  0  0  0  0  0  0  0
    5.4318   -4.3430   -1.8578 H   0  0  0  0  0  0  0  0  0  0  0  0
    5.8327   -2.6899   -1.1898 H   0  0  0  0  0  0  0  0  0  0  0  0
    6.5015   -4.8041    0.5224 H   0  0  0  0  0  0  0  0  0  0  0  0
    3.9375   -6.1954    1.6604 H   0  0  0  0  0  0  0  0  0  0  0  0
    1.4926   -4.9020    1.6615 H   0  0  0  0  0  0  0  0  0  0  0  0
    2.6745   -4.8442    2.9303 H   0  0  0  0  0  0  0  0  0  0  0  0
    1.8229   -2.7638    1.0669 H   0  0  0  0  0  0  0  0  0  0  0  0
    3.3310   -2.1722    3.6311 H   0  0  0  0  0  0  0  0  0  0  0  0
    0.6452   -3.5169    3.4118 H   0  0  0  0  0  0  0  0  0  0  0  0
    1.7562   -3.3892    4.7666 H   0  0  0  0  0  0  0  0  0  0  0  0
   -0.5301   -1.7974    3.8666 H   0  0  0  0  0  0  0  0  0  0  0  0
    0.8925   -1.8357    6.2929 H   0  0  0  0  0  0  0  0  0  0  0  0
    1.9244   -0.2813    4.8722 H   0  0  0  0  0  0  0  0  0  0  0  0
    1.2139   -0.8636    1.9812 H   0  0  0  0  0  0  0  0  0  0  0  0
    3.7064    0.4156    3.2399 H   0  0  0  0  0  0  0  0  0  0  0  0
    2.8879   -0.1406    0.6293 H   0  0  0  0  0  0  0  0  0  0  0  0
    2.9401    2.5017    2.1488 H   0  0  0  0  0  0  0  0  0  0  0  0
    1.5693    1.7059    1.4518 H   0  0  0  0  0  0  0  0  0  0  0  0
    2.0969    2.1376    4.3980 H   0  0  0  0  0  0  0  0  0  0  0  0
    1.3984    4.1643    3.1531 H   0  0  0  0  0  0  0  0  0  0  0  0
   -0.0088    3.3377    2.5717 H   0  0  0  0  0  0  0  0  0  0  0  0
    0.6217    3.9337    5.4888 H   0  0  0  0  0  0  0  0  0  0  0  0
   -0.2116    5.5320    3.9681 H   0  0  0  0  0  0  0  0  0  0  0  0
   -1.5497    2.9104    6.0834 H   0  0  0  0  0  0  0  0  0  0  0  0
   -1.9112    2.5939    4.4301 H   0  0  0  0  0  0  0  0  0  0  0  0
    0.3594    1.3329    6.0606 H   0  0  0  0  0  0  0  0  0  0  0  0
   -1.0836    0.5314    5.5071 H   0  0  0  0  0  0  0  0  0  0  0  0
   -1.3632    1.6148    2.6454 H   0  0  0  0  0  0  0  0  0  0  0  0
   -1.3911   -0.0893    2.9711 H   0  0  0  0  0  0  0  0  0  0  0  0
   -0.2764    0.6029    1.7778 H   0  0  0  0  0  0  0  0  0  0  0  0
    3.9450   -1.6129    0.4747 H   0  0  0  0  0  0  0  0  0  0  0  0
    5.9974   -2.2724    1.2820 H   0  0  0  0  0  0  0  0  0  0  0  0
    5.1425   -2.7751    3.3062 H   0  0  0  0  0  0  0  0  0  0  0  0
  2  1  1  6
  1 29  1  0
  1 30  1  0
  1 31  1  0
  2  5  1  0
  2 26  1  0
  2  3  1  0
  3  4  1  0
  3 32  1  0
  3 33  1  0
  4 27  1  0
  4  5  1  0
  4 34  1  6
  5  6  2  0
  6  7  1  0
  6 35  1  0
  7  8  1  0
  7 36  1  0
  7 37  1  0
  8  9  1  0
  8 26  1  0
  8 38  1  6
  9 14  1  0
  9 10  1  0
  9 39  1  1
 10 11  1  0
 10 40  1  0
 10 41  1  0
 11 12  1  0
 11 13  1  0
 11 42  1  6
 12 43  1  0
 13 24  1  0
 13 14  1  0
 13 44  1  1
 14 15  1  0
 14 45  1  6
 15 16  1  0
 15 17  1  0
 15 46  1  1
 16 47  1  0
 17 18  1  0
 17 48  1  0
 17 49  1  0
 18 24  1  0
 18 19  1  0
 18 50  1  1
 19 20  1  0
 19 51  1  0
 19 52  1  0
 20 21  1  0
 20 22  1  0
 20 53  1  1
 21 54  1  0
 22 23  1  0
 22 55  1  0
 22 56  1  0
 23 24  1  0
 23 57  1  0
 23 58  1  0
 24 25  1  6
 25 59  1  0
 25 60  1  0
 25 61  1  0
 26 27  1  0
 26 62  1  6
 27 28  1  0
 27 63  1  1
 28 64  1  0
M  END
>  <i_m_ct_stereo_status>  (194) 
1

>  <s_m_source_file>  (194) 
/var/tmp/pbs.5076255.sched01/tmpcdf8lnea/434bzo3qpq.sdf

>  <i_m_source_file_index>  (194) 
40

>  <i_lp_mmshare_version>  (194) 
48012

>  <i_f3d_flags>  (194) 
1

>  <s_epik_input>  (194) 
W0NIM11bQ0BAXTEyQz0zW0NAQEhdKFtDSDJdMSlbQ0BIXShbT0hdKVtDQEBIXTJbQ0BASF0oW0NIMl1bQ0hdMylbQ0BIXShbQ0gyXVtDQEhdNFtPSF0pW0NAQEhdKFtDQEhdNFtDQF01NltDSDNdKVtDQEBIXShbT0hdKVtDSDJdW0NASF01W0NIMl1bQ0BASF0oW09IXSlbQ0gyXVtDSDJdNg==

>  <s_epik_cmdline>  (194) 
J2VwaWtfcHl0aG9uJywgJy1waHQnLCAnMi4wJywgJy1waCcsICc3LjAnLCAnLXRuJywgJzgnLCAnLW1hJywgJzIwMCcsICctaW1hZScsICc8aW5maWxlLm1hZT4nLCAnLW9tYWUnLCAnPG91dGZpbGUubWFlPic=

>  <r_lp_tautomer_probability>  (194) 
1

>  <r_epik_Ionization_Penalty>  (194) 
7.30069e-06

>  <r_epik_Ionization_Penalty_Charging>  (194) 
0

>  <r_epik_Ionization_Penalty_Neutral>  (194) 
7.30069e-06

>  <r_epik_State_Penalty>  (194) 
-0

>  <r_epik_Charging_Adjusted_Penalty>  (194) 
0

>  <i_epik_Tot_Q>  (194) 
0

>  <i_epik_Tot_abs_Q>  (194) 
0

>  <s_lp_Force_Field>  (194) 
OPLS3e

>  <r_lp_Energy>  (194) 
91.4485

>  <b_lp_Chiralities_Consistent>  (194) 
1

>  <s_lp_Variant>  (194) 
58:0-1

>  <s_i_glide_gridfile>  (194) 
pfpi4k_grid

>  <i_i_glide_lignum>  (194) 
40

>  <i_i_glide_rotatable_bonds>  (194) 
5

>  <r_i_docking_score>  (194) 
-2.87603

>  <r_i_glide_ligand_efficiency>  (194) 
-0.102715

>  <r_i_glide_ligand_efficiency_sa>  (194) 
-0.311904

>  <r_i_glide_ligand_efficiency_ln>  (194) 
-0.663871

>  <r_i_glide_gscore>  (194) 
-2.87603

>  <r_i_glide_lipo>  (194) 
-0.402604

>  <r_i_glide_hbond>  (194) 
-0.0492443

>  <r_i_glide_metal>  (194) 
-0

>  <r_i_glide_rewards>  (194) 
-0.759953

>  <r_i_glide_evdw>  (194) 
-20.422

>  <r_i_glide_ecoul>  (194) 
-5.14798

>  <r_i_glide_erotb>  (194) 
0.129071

>  <r_i_glide_esite>  (194) 
0

>  <r_i_glide_emodel>  (194) 
-26.6751

>  <r_i_glide_energy>  (194) 
-25.5699

>  <r_i_glide_einternal>  (194) 
1.43533

>  <r_i_glide_intrahb_reward>  (194) 
-0

>  <i_i_glide_confnum>  (194) 
2

>  <i_i_glide_posenum>  (194) 
27

>  <r_i_glide_eff_state_penalty>  (194) 
0

>  <ligand_id>  (194) 
58

>  <original_smiles>  (194) 
CC12CC3C1=CCC(C1CC(O)C4C1C(O)CC1CC(O)CCC14C)C2C3O

>  <smiles>  (194) 
[H]OC1([H])C([H])([H])C([H])([H])C2(C([H])([H])[H])C([H])(C1([H])[H])C([H])([H])C([H])(O[H])C1([H])C([H])(C3([H])C([H])([H])C([H])=C4C5([H])C([H])([H])C4(C([H])([H])[H])C3([H])C5([H])O[H])C([H])([H])C([H])(O[H])C12[H]

$$$$
58:0:2
     RDKit          3D

 64 69  0  0  1  0  0  0  0  0999 V2000
    2.0318   -5.3788    3.3056 C   0  0  0  0  0  0  0  0  0  0  0  0
    3.2989   -4.8624    2.6174 C   0  0  2  0  0  0  0  0  0  0  0  0
    3.7967   -5.5975    1.3652 C   0  0  0  0  0  0  0  0  0  0  0  0
    5.0793   -4.8066    1.6941 C   0  0  2  0  0  0  0  0  0  0  0  0
    4.6795   -5.2433    3.1090 C   0  0  0  0  0  0  0  0  0  0  0  0
    5.2044   -4.7079    4.2369 C   0  0  0  0  0  0  0  0  0  0  0  0
    4.6051   -3.4366    4.8258 C   0  0  0  0  0  0  0  0  0  0  0  0
    3.5312   -2.7113    3.9236 C   0  0  1  0  0  0  0  0  0  0  0  0
    3.6208   -1.1465    4.0292 C   0  0  2  0  0  0  0  0  0  0  0  0
    3.9647   -0.6344    5.4688 C   0  0  0  0  0  0  0  0  0  0  0  0
    3.0257    0.5183    5.8063 C   0  0  1  0  0  0  0  0  0  0  0  0
    3.7236    1.5792    6.4302 O   0  0  0  0  0  0  0  0  0  0  0  0
    2.3804    0.9038    4.4647 C   0  0  1  0  0  0  0  0  0  0  0  0
    2.2977   -0.4346    3.7220 C   0  0  1  0  0  0  0  0  0  0  0  0
    1.8760   -0.1704    2.2870 C   0  0  1  0  0  0  0  0  0  0  0  0
    1.4348   -1.3206    1.7250 O   0  0  0  0  0  0  0  0  0  0  0  0
    0.5543    0.5770    2.1907 C   0  0  0  0  0  0  0  0  0  0  0  0
    0.5698    1.8717    3.0173 C   0  0  1  0  0  0  0  0  0  0  0  0
   -0.7874    2.6032    2.9518 C   0  0  0  0  0  0  0  0  0  0  0  0
   -0.7077    3.9534    3.6898 C   0  0  1  0  0  0  0  0  0  0  0  0
   -1.9873    4.5427    3.6617 O   0  0  0  0  0  0  0  0  0  0  0  0
   -0.2333    3.7870    5.1427 C   0  0  0  0  0  0  0  0  0  0  0  0
    1.0918    3.0037    5.2029 C   0  0  0  0  0  0  0  0  0  0  0  0
    0.9885    1.6206    4.5064 C   0  0  2  0  0  0  0  0  0  0  0  0
   -0.0745    0.7284    5.2457 C   0  0  0  0  0  0  0  0  0  0  0  0
    3.4361   -3.3670    2.4971 C   0  0  1  0  0  0  0  0  0  0  0  0
    4.7267   -3.3242    1.6352 C   0  0  1  0  0  0  0  0  0  0  0  0
    5.7960   -2.4647    2.0302 O   0  0  0  0  0  0  0  0  0  0  0  0
    1.1491   -5.0769    2.7362 H   0  0  0  0  0  0  0  0  0  0  0  0
    1.8911   -4.9887    4.3142 H   0  0  0  0  0  0  0  0  0  0  0  0
    2.0164   -6.4654    3.3534 H   0  0  0  0  0  0  0  0  0  0  0  0
    3.8476   -6.6882    1.4240 H   0  0  0  0  0  0  0  0  0  0  0  0
    3.2972   -5.2428    0.4526 H   0  0  0  0  0  0  0  0  0  0  0  0
    5.9939   -5.1562    1.2115 H   0  0  0  0  0  0  0  0  0  0  0  0
    6.2802   -4.7326    4.3089 H   0  0  0  0  0  0  0  0  0  0  0  0
    4.1909   -3.6915    5.8072 H   0  0  0  0  0  0  0  0  0  0  0  0
    5.4467   -2.7682    5.0268 H   0  0  0  0  0  0  0  0  0  0  0  0
    2.6059   -2.9706    4.4330 H   0  0  0  0  0  0  0  0  0  0  0  0
    4.3851   -0.7515    3.3639 H   0  0  0  0  0  0  0  0  0  0  0  0
    3.7964   -1.3860    6.2412 H   0  0  0  0  0  0  0  0  0  0  0  0
    5.0144   -0.3395    5.5243 H   0  0  0  0  0  0  0  0  0  0  0  0
    2.3036    0.1254    6.5218 H   0  0  0  0  0  0  0  0  0  0  0  0
    3.9552    1.3073    7.3017 H   0  0  0  0  0  0  0  0  0  0  0  0
    3.1074    1.5286    3.9305 H   0  0  0  0  0  0  0  0  0  0  0  0
    1.5394   -1.0474    4.1863 H   0  0  0  0  0  0  0  0  0  0  0  0
    2.6321    0.3366    1.7209 H   0  0  0  0  0  0  0  0  0  0  0  0
    1.3761   -1.1422    0.7959 H   0  0  0  0  0  0  0  0  0  0  0  0
    0.2742    0.7975    1.1510 H   0  0  0  0  0  0  0  0  0  0  0  0
   -0.2666   -0.0438    2.5563 H   0  0  0  0  0  0  0  0  0  0  0  0
    1.3094    2.5161    2.5241 H   0  0  0  0  0  0  0  0  0  0  0  0
   -1.0497    2.7414    1.9070 H   0  0  0  0  0  0  0  0  0  0  0  0
   -1.5801    1.9678    3.3510 H   0  0  0  0  0  0  0  0  0  0  0  0
   -0.0095    4.5981    3.1551 H   0  0  0  0  0  0  0  0  0  0  0  0
   -2.3020    4.4553    2.7748 H   0  0  0  0  0  0  0  0  0  0  0  0
   -0.1129    4.7572    5.6213 H   0  0  0  0  0  0  0  0  0  0  0  0
   -0.9996    3.2826    5.7298 H   0  0  0  0  0  0  0  0  0  0  0  0
    1.8868    3.5927    4.7440 H   0  0  0  0  0  0  0  0  0  0  0  0
    1.3832    2.8628    6.2379 H   0  0  0  0  0  0  0  0  0  0  0  0
   -1.0464    1.2096    5.3519 H   0  0  0  0  0  0  0  0  0  0  0  0
    0.2394    0.4649    6.2583 H   0  0  0  0  0  0  0  0  0  0  0  0
   -0.3018   -0.2035    4.7179 H   0  0  0  0  0  0  0  0  0  0  0  0
    2.5653   -3.1307    1.9050 H   0  0  0  0  0  0  0  0  0  0  0  0
    4.4563   -3.0278    0.6283 H   0  0  0  0  0  0  0  0  0  0  0  0
    5.4924   -1.5744    2.0061 H   0  0  0  0  0  0  0  0  0  0  0  0
  2  1  1  1
  1 29  1  0
  1 30  1  0
  1 31  1  0
  2  5  1  0
  2 26  1  0
  2  3  1  0
  3  4  1  0
  3 32  1  0
  3 33  1  0
  4 27  1  0
  4  5  1  0
  4 34  1  6
  5  6  2  0
  6  7  1  0
  6 35  1  0
  7  8  1  0
  7 36  1  0
  7 37  1  0
  8  9  1  0
  8 26  1  0
  8 38  1  1
  9 14  1  0
  9 10  1  0
  9 39  1  6
 10 11  1  0
 10 40  1  0
 10 41  1  0
 11 12  1  0
 11 13  1  0
 11 42  1  1
 12 43  1  0
 13 24  1  0
 13 14  1  0
 13 44  1  6
 14 15  1  0
 14 45  1  1
 15 16  1  0
 15 17  1  0
 15 46  1  6
 16 47  1  0
 17 18  1  0
 17 48  1  0
 17 49  1  0
 18 24  1  0
 18 19  1  0
 18 50  1  6
 19 20  1  0
 19 51  1  0
 19 52  1  0
 20 21  1  0
 20 22  1  0
 20 53  1  6
 21 54  1  0
 22 23  1  0
 22 55  1  0
 22 56  1  0
 23 24  1  0
 23 57  1  0
 23 58  1  0
 24 25  1  1
 25 59  1  0
 25 60  1  0
 25 61  1  0
 26 27  1  0
 26 62  1  6
 27 28  1  0
 27 63  1  6
 28 64  1  0
M  END
>  <i_m_ct_stereo_status>  (195) 
1

>  <s_m_source_file>  (195) 
/var/tmp/pbs.5076255.sched01/tmpcdf8lnea/434bzo3qpq.sdf

>  <i_m_source_file_index>  (195) 
40

>  <i_lp_mmshare_version>  (195) 
48012

>  <i_f3d_flags>  (195) 
1

>  <s_epik_input>  (195) 
W0NIM11bQ0BAXTEyQz0zW0NAQEhdKFtDSDJdMSlbQ0BIXShbT0hdKVtDQEBIXTJbQ0BASF0oW0NIMl1bQ0hdMylbQ0BIXShbQ0gyXVtDQEhdNFtPSF0pW0NAQEhdKFtDQEhdNFtDQF01NltDSDNdKVtDQEBIXShbT0hdKVtDSDJdW0NASF01W0NIMl1bQ0BASF0oW09IXSlbQ0gyXVtDSDJdNg==

>  <s_epik_cmdline>  (195) 
J2VwaWtfcHl0aG9uJywgJy1waHQnLCAnMi4wJywgJy1waCcsICc3LjAnLCAnLXRuJywgJzgnLCAnLW1hJywgJzIwMCcsICctaW1hZScsICc8aW5maWxlLm1hZT4nLCAnLW9tYWUnLCAnPG91dGZpbGUubWFlPic=

>  <r_lp_tautomer_probability>  (195) 
1

>  <r_epik_Ionization_Penalty>  (195) 
7.30069e-06

>  <r_epik_Ionization_Penalty_Charging>  (195) 
0

>  <r_epik_Ionization_Penalty_Neutral>  (195) 
7.30069e-06

>  <r_epik_State_Penalty>  (195) 
-0

>  <r_epik_Charging_Adjusted_Penalty>  (195) 
0

>  <i_epik_Tot_Q>  (195) 
0

>  <i_epik_Tot_abs_Q>  (195) 
0

>  <s_lp_Force_Field>  (195) 
OPLS3e

>  <r_lp_Energy>  (195) 
91.4485

>  <b_lp_Chiralities_Consistent>  (195) 
1

>  <s_lp_Variant>  (195) 
58:0-1

>  <s_i_glide_gridfile>  (195) 
pfpi4k_grid

>  <i_i_glide_lignum>  (195) 
40

>  <i_i_glide_rotatable_bonds>  (195) 
5

>  <r_i_docking_score>  (195) 
-2.65916

>  <r_i_glide_ligand_efficiency>  (195) 
-0.0949699

>  <r_i_glide_ligand_efficiency_sa>  (195) 
-0.288385

>  <r_i_glide_ligand_efficiency_ln>  (195) 
-0.613812

>  <r_i_glide_gscore>  (195) 
-2.65916

>  <r_i_glide_lipo>  (195) 
-0.104152

>  <r_i_glide_hbond>  (195) 
-0.32

>  <r_i_glide_metal>  (195) 
-0

>  <r_i_glide_rewards>  (195) 
-0.759953

>  <r_i_glide_evdw>  (195) 
-12.6658

>  <r_i_glide_ecoul>  (195) 
-6.73629

>  <r_i_glide_erotb>  (195) 
0.129071

>  <r_i_glide_esite>  (195) 
0

>  <r_i_glide_emodel>  (195) 
-19.2842

>  <r_i_glide_energy>  (195) 
-19.4021

>  <r_i_glide_einternal>  (195) 
1.84606

>  <r_i_glide_intrahb_reward>  (195) 
-0

>  <i_i_glide_confnum>  (195) 
3

>  <i_i_glide_posenum>  (195) 
7

>  <r_i_glide_eff_state_penalty>  (195) 
0

>  <ligand_id>  (195) 
58

>  <original_smiles>  (195) 
CC12CC3C1=CCC(C1CC(O)C4C1C(O)CC1CC(O)CCC14C)C2C3O

>  <smiles>  (195) 
[H]OC1([H])C([H])([H])C([H])([H])C2(C([H])([H])[H])C([H])(C1([H])[H])C([H])([H])C([H])(O[H])C1([H])C([H])(C3([H])C([H])([H])C([H])=C4C5([H])C([H])([H])C4(C([H])([H])[H])C3([H])C5([H])O[H])C([H])([H])C([H])(O[H])C12[H]

$$$$
60:0:0
     RDKit          3D

 44 48  0  0  1  0  0  0  0  0999 V2000
    0.7665   -3.9191    4.2915 C   0  0  0  0  0  0  0  0  0  0  0  0
    2.0693   -4.4206    4.5724 O   0  0  0  0  0  0  0  0  0  0  0  0
    2.9133   -4.5091    3.4936 C   0  0  0  0  0  0  0  0  0  0  0  0
    3.6074   -5.7269    3.2749 C   0  0  0  0  0  0  0  0  0  0  0  0
    4.5222   -5.8793    2.2032 C   0  0  0  0  0  0  0  0  0  0  0  0
    4.7311   -4.8114    1.3119 C   0  0  0  0  0  0  0  0  0  0  0  0
    3.9805   -3.6476    1.5548 C   0  0  0  0  0  0  0  0  0  0  0  0
    3.1470   -3.4167    2.6291 C   0  0  0  0  0  0  0  0  0  0  0  0
    2.6950   -2.1294    2.7017 O   0  0  0  0  0  0  0  0  0  0  0  0
    3.4549   -1.3511    1.7578 C   0  0  1  0  0  0  0  0  0  0  0  0
    4.6079   -0.5961    2.4830 C   0  0  1  0  0  0  0  0  0  0  0  0
    4.4840   -0.6257    3.8900 O   0  0  0  0  0  0  0  0  0  0  0  0
    6.0103   -1.0205    2.0851 C   0  0  0  0  0  0  0  0  0  0  0  0
    6.3216   -1.7156    0.9776 C   0  0  0  0  0  0  0  0  0  0  0  0
    5.2732   -2.1907   -0.0044 C   0  0  1  0  0  0  0  0  0  0  0  0
    5.6036   -3.5066   -0.7672 C   0  0  1  0  0  0  0  0  0  0  0  0
    5.7626   -4.7079    0.1913 C   0  0  0  0  0  0  0  0  0  0  0  0
    4.5633   -3.8037   -1.8040 N   0  0  2  0  0  0  0  0  0  0  0  0
    4.6971   -2.9863   -3.0345 C   0  0  0  0  0  0  0  0  0  0  0  0
    3.1688   -3.8095   -1.2854 C   0  0  0  0  0  0  0  0  0  0  0  0
    2.8802   -2.5917   -0.4010 C   0  0  0  0  0  0  0  0  0  0  0  0
    3.9339   -2.4093    0.7099 C   0  0  1  0  0  0  0  0  0  0  0  0
    0.2206   -3.7735    5.2254 H   0  0  0  0  0  0  0  0  0  0  0  0
    0.2299   -4.6576    3.6954 H   0  0  0  0  0  0  0  0  0  0  0  0
    0.7394   -2.9686    3.7576 H   0  0  0  0  0  0  0  0  0  0  0  0
    3.4405   -6.5508    3.9485 H   0  0  0  0  0  0  0  0  0  0  0  0
    5.0706   -6.8055    2.0794 H   0  0  0  0  0  0  0  0  0  0  0  0
    2.7867   -0.6158    1.3029 H   0  0  0  0  0  0  0  0  0  0  0  0
    4.5312    0.4557    2.2156 H   0  0  0  0  0  0  0  0  0  0  0  0
    3.6356   -0.2819    4.1278 H   0  0  0  0  0  0  0  0  0  0  0  0
    6.7984   -0.6699    2.7372 H   0  0  0  0  0  0  0  0  0  0  0  0
    7.3566   -1.9359    0.7531 H   0  0  0  0  0  0  0  0  0  0  0  0
    5.1827   -1.3701   -0.7182 H   0  0  0  0  0  0  0  0  0  0  0  0
    6.5523   -3.3920   -1.2950 H   0  0  0  0  0  0  0  0  0  0  0  0
    6.7357   -4.6313    0.6730 H   0  0  0  0  0  0  0  0  0  0  0  0
    5.7802   -5.6481   -0.3597 H   0  0  0  0  0  0  0  0  0  0  0  0
    4.4635   -1.9385   -2.8379 H   0  0  0  0  0  0  0  0  0  0  0  0
    4.0066   -3.3432   -3.8020 H   0  0  0  0  0  0  0  0  0  0  0  0
    5.7091   -3.0514   -3.4410 H   0  0  0  0  0  0  0  0  0  0  0  0
    2.4576   -3.8450   -2.1136 H   0  0  0  0  0  0  0  0  0  0  0  0
    2.9865   -4.7175   -0.7108 H   0  0  0  0  0  0  0  0  0  0  0  0
    2.8554   -1.6967   -1.0297 H   0  0  0  0  0  0  0  0  0  0  0  0
    1.8871   -2.6966    0.0379 H   0  0  0  0  0  0  0  0  0  0  0  0
    4.7172   -4.7558   -2.1082 H   0  0  0  0  0  0  0  0  0  0  0  0
  1  2  1  0
  1 23  1  0
  1 24  1  0
  1 25  1  0
  2  3  1  0
  3  8  2  0
  3  4  1  0
  4  5  2  0
  4 26  1  0
  5  6  1  0
  5 27  1  0
  6 17  1  0
  6  7  2  0
  7 22  1  0
  7  8  1  0
  8  9  1  0
  9 10  1  0
 10 22  1  0
 10 11  1  0
 10 28  1  6
 11 12  1  0
 11 13  1  0
 11 29  1  6
 12 30  1  0
 13 14  2  0
 13 31  1  0
 14 15  1  0
 14 32  1  0
 15 22  1  0
 15 16  1  0
 15 33  1  6
 16 17  1  0
 16 18  1  0
 16 34  1  6
 17 35  1  0
 17 36  1  0
 18 19  1  0
 18 20  1  0
 18 44  1  6
 19 37  1  0
 19 38  1  0
 19 39  1  0
 20 21  1  0
 20 40  1  0
 20 41  1  0
 22 21  1  6
 21 42  1  0
 21 43  1  0
M  CHG  1  18   1
M  END
>  <i_m_ct_stereo_status>  (196) 
1

>  <s_m_source_file>  (196) 
/var/tmp/pbs.5076255.sched01/tmpz7m1v8ep/860kfiy9lw.sdf

>  <i_m_source_file_index>  (196) 
1

>  <i_lp_mmshare_version>  (196) 
48012

>  <i_f3d_flags>  (196) 
0

>  <s_epik_input>  (196) 
W0NAXTEyM2M0YzVbY0hdW2NIXWMoT1tDSDNdKWM0T1tDQEhdMVtDQEBIXShbT0hdKVtDSF09W0NIXVtDQEhdMltDQEBIXShbQ0gyXTUpTihbQ0gzXSlbQ0gyXVtDSDJdMw==

>  <s_epik_cmdline>  (196) 
J2VwaWtfcHl0aG9uJywgJy1waHQnLCAnMi4wJywgJy1waCcsICc3LjAnLCAnLXRuJywgJzgnLCAnLW1hJywgJzIwMCcsICctaW1hZScsICc8aW5maWxlLm1hZT4nLCAnLW9tYWUnLCAnPG91dGZpbGUubWFlPic=

>  <r_lp_tautomer_probability>  (196) 
1

>  <r_epik_Ionization_Penalty>  (196) 
0.0528967

>  <r_epik_Ionization_Penalty_Charging>  (196) 
0.0528894

>  <r_epik_Ionization_Penalty_Neutral>  (196) 
7.36794e-06

>  <r_epik_State_Penalty>  (196) 
0.0454017

>  <r_epik_Charging_Adjusted_Penalty>  (196) 
0.0982911

>  <i_epik_Tot_Q>  (196) 
1

>  <i_epik_Tot_abs_Q>  (196) 
1

>  <s_lp_Force_Field>  (196) 
OPLS3e

>  <r_lp_Energy>  (196) 
61.354

>  <b_lp_Chiralities_Consistent>  (196) 
1

>  <s_lp_Variant>  (196) 
60:0-1

>  <s_i_glide_gridfile>  (196) 
pfpi4k_grid

>  <i_i_glide_lignum>  (196) 
1

>  <i_i_glide_rotatable_bonds>  (196) 
2

>  <r_i_docking_score>  (196) 
-3.48807

>  <r_i_glide_ligand_efficiency>  (196) 
-0.158548

>  <r_i_glide_ligand_efficiency_sa>  (196) 
-0.444259

>  <r_i_glide_ligand_efficiency_ln>  (196) 
-0.85261

>  <r_i_glide_gscore>  (196) 
-3.48807

>  <r_i_glide_lipo>  (196) 
-0.656283

>  <r_i_glide_hbond>  (196) 
0

>  <r_i_glide_metal>  (196) 
-0

>  <r_i_glide_rewards>  (196) 
-1.3611

>  <r_i_glide_evdw>  (196) 
-16.3554

>  <r_i_glide_ecoul>  (196) 
-4.19523

>  <r_i_glide_erotb>  (196) 
0

>  <r_i_glide_esite>  (196) 
-0.0236313

>  <r_i_glide_emodel>  (196) 
-21.8558

>  <r_i_glide_energy>  (196) 
-20.5506

>  <r_i_glide_einternal>  (196) 
6.17151

>  <r_i_glide_intrahb_reward>  (196) 
-0

>  <i_i_glide_confnum>  (196) 
1

>  <i_i_glide_posenum>  (196) 
3

>  <r_i_glide_eff_state_penalty>  (196) 
0

>  <ligand_id>  (196) 
60

>  <original_smiles>  (196) 
COc1ccc2c3c1OC1C(O)C=CC4C(C2)N(C)CCC341

>  <smiles>  (196) 
[H]OC1([H])C([H])=C([H])C2([H])C34c5c(c(OC([H])([H])[H])c([H])c([H])c5C([H])([H])C2([H])[N+]([H])(C([H])([H])[H])C([H])([H])C3([H])[H])OC14[H]

$$$$
60:0:1
     RDKit          3D

 44 48  0  0  1  0  0  0  0  0999 V2000
    3.7561   -4.8825    5.7688 C   0  0  0  0  0  0  0  0  0  0  0  0
    3.7406   -3.8608    4.7877 O   0  0  0  0  0  0  0  0  0  0  0  0
    4.0924   -4.1948    3.4997 C   0  0  0  0  0  0  0  0  0  0  0  0
    4.4359   -5.5102    3.0721 C   0  0  0  0  0  0  0  0  0  0  0  0
    4.8320   -5.7827    1.7346 C   0  0  0  0  0  0  0  0  0  0  0  0
    4.8232   -4.7398    0.7932 C   0  0  0  0  0  0  0  0  0  0  0  0
    4.4249   -3.4856    1.2610 C   0  0  0  0  0  0  0  0  0  0  0  0
    4.1165   -3.1353    2.5637 C   0  0  0  0  0  0  0  0  0  0  0  0
    3.8940   -1.8015    2.7425 O   0  0  0  0  0  0  0  0  0  0  0  0
    4.3434   -1.1299    1.5452 C   0  0  1  0  0  0  0  0  0  0  0  0
    5.7764   -0.5700    1.7177 C   0  0  1  0  0  0  0  0  0  0  0  0
    6.1569   -0.5274    3.0696 O   0  0  0  0  0  0  0  0  0  0  0  0
    6.8584   -1.2139    0.8597 C   0  0  0  0  0  0  0  0  0  0  0  0
    6.6207   -1.9202   -0.2540 C   0  0  0  0  0  0  0  0  0  0  0  0
    5.2155   -2.1874   -0.7361 C   0  0  1  0  0  0  0  0  0  0  0  0
    5.0259   -3.5024   -1.5160 C   0  0  1  0  0  0  0  0  0  0  0  0
    5.3368   -4.7378   -0.6443 C   0  0  0  0  0  0  0  0  0  0  0  0
    3.6521   -3.5755   -2.0675 N   0  0  2  0  0  0  0  0  0  0  0  0
    3.4103   -2.8026   -3.2974 C   0  0  0  0  0  0  0  0  0  0  0  0
    2.5779   -3.4439   -1.0658 C   0  0  0  0  0  0  0  0  0  0  0  0
    2.8371   -2.2498   -0.1526 C   0  0  0  0  0  0  0  0  0  0  0  0
    4.2422   -2.2387    0.4533 C   0  0  1  0  0  0  0  0  0  0  0  0
    3.4729   -4.4488    6.7253 H   0  0  0  0  0  0  0  0  0  0  0  0
    4.7495   -5.3110    5.8812 H   0  0  0  0  0  0  0  0  0  0  0  0
    3.0393   -5.6685    5.5377 H   0  0  0  0  0  0  0  0  0  0  0  0
    4.4278   -6.3422    3.7615 H   0  0  0  0  0  0  0  0  0  0  0  0
    5.1534   -6.7759    1.4399 H   0  0  0  0  0  0  0  0  0  0  0  0
    3.6690   -0.2946    1.3381 H   0  0  0  0  0  0  0  0  0  0  0  0
    5.7511    0.4660    1.4019 H   0  0  0  0  0  0  0  0  0  0  0  0
    6.9934   -0.0953    3.1342 H   0  0  0  0  0  0  0  0  0  0  0  0
    7.8820   -1.0174    1.1559 H   0  0  0  0  0  0  0  0  0  0  0  0
    7.4376   -2.3066   -0.8530 H   0  0  0  0  0  0  0  0  0  0  0  0
    4.9799   -1.3442   -1.3883 H   0  0  0  0  0  0  0  0  0  0  0  0
    5.7109   -3.5354   -2.3594 H   0  0  0  0  0  0  0  0  0  0  0  0
    6.4097   -4.7783   -0.5126 H   0  0  0  0  0  0  0  0  0  0  0  0
    5.0223   -5.6561   -1.1337 H   0  0  0  0  0  0  0  0  0  0  0  0
    3.4138   -1.7352   -3.0995 H   0  0  0  0  0  0  0  0  0  0  0  0
    2.4413   -3.0668   -3.7173 H   0  0  0  0  0  0  0  0  0  0  0  0
    4.1634   -3.0358   -4.0463 H   0  0  0  0  0  0  0  0  0  0  0  0
    1.6108   -3.3502   -1.5524 H   0  0  0  0  0  0  0  0  0  0  0  0
    2.5010   -4.3485   -0.4647 H   0  0  0  0  0  0  0  0  0  0  0  0
    2.7440   -1.3464   -0.7603 H   0  0  0  0  0  0  0  0  0  0  0  0
    2.0751   -2.2163    0.6325 H   0  0  0  0  0  0  0  0  0  0  0  0
    3.5316   -4.5372   -2.3637 H   0  0  0  0  0  0  0  0  0  0  0  0
  1  2  1  0
  1 23  1  0
  1 24  1  0
  1 25  1  0
  2  3  1  0
  3  8  2  0
  3  4  1  0
  4  5  2  0
  4 26  1  0
  5  6  1  0
  5 27  1  0
  6 17  1  0
  6  7  2  0
  7 22  1  0
  7  8  1  0
  8  9  1  0
  9 10  1  0
 10 22  1  0
 10 11  1  0
 10 28  1  6
 11 12  1  0
 11 13  1  0
 11 29  1  6
 12 30  1  0
 13 14  2  0
 13 31  1  0
 14 15  1  0
 14 32  1  0
 15 22  1  0
 15 16  1  0
 15 33  1  6
 16 17  1  0
 16 18  1  0
 16 34  1  6
 17 35  1  0
 17 36  1  0
 18 19  1  0
 18 20  1  0
 18 44  1  6
 19 37  1  0
 19 38  1  0
 19 39  1  0
 20 21  1  0
 20 40  1  0
 20 41  1  0
 22 21  1  6
 21 42  1  0
 21 43  1  0
M  CHG  1  18   1
M  END
>  <i_m_ct_stereo_status>  (197) 
1

>  <s_m_source_file>  (197) 
/var/tmp/pbs.5076255.sched01/tmpz7m1v8ep/860kfiy9lw.sdf

>  <i_m_source_file_index>  (197) 
1

>  <i_lp_mmshare_version>  (197) 
48012

>  <i_f3d_flags>  (197) 
0

>  <s_epik_input>  (197) 
W0NAXTEyM2M0YzVbY0hdW2NIXWMoT1tDSDNdKWM0T1tDQEhdMVtDQEBIXShbT0hdKVtDSF09W0NIXVtDQEhdMltDQEBIXShbQ0gyXTUpTihbQ0gzXSlbQ0gyXVtDSDJdMw==

>  <s_epik_cmdline>  (197) 
J2VwaWtfcHl0aG9uJywgJy1waHQnLCAnMi4wJywgJy1waCcsICc3LjAnLCAnLXRuJywgJzgnLCAnLW1hJywgJzIwMCcsICctaW1hZScsICc8aW5maWxlLm1hZT4nLCAnLW9tYWUnLCAnPG91dGZpbGUubWFlPic=

>  <r_lp_tautomer_probability>  (197) 
1

>  <r_epik_Ionization_Penalty>  (197) 
0.0528967

>  <r_epik_Ionization_Penalty_Charging>  (197) 
0.0528894

>  <r_epik_Ionization_Penalty_Neutral>  (197) 
7.36794e-06

>  <r_epik_State_Penalty>  (197) 
0.0454017

>  <r_epik_Charging_Adjusted_Penalty>  (197) 
0.0982911

>  <i_epik_Tot_Q>  (197) 
1

>  <i_epik_Tot_abs_Q>  (197) 
1

>  <s_lp_Force_Field>  (197) 
OPLS3e

>  <r_lp_Energy>  (197) 
61.354

>  <b_lp_Chiralities_Consistent>  (197) 
1

>  <s_lp_Variant>  (197) 
60:0-1

>  <s_i_glide_gridfile>  (197) 
pfpi4k_grid

>  <i_i_glide_lignum>  (197) 
1

>  <i_i_glide_rotatable_bonds>  (197) 
2

>  <r_i_docking_score>  (197) 
-3.4093

>  <r_i_glide_ligand_efficiency>  (197) 
-0.154968

>  <r_i_glide_ligand_efficiency_sa>  (197) 
-0.434227

>  <r_i_glide_ligand_efficiency_ln>  (197) 
-0.833358

>  <r_i_glide_gscore>  (197) 
-3.4093

>  <r_i_glide_lipo>  (197) 
-0.384309

>  <r_i_glide_hbond>  (197) 
0

>  <r_i_glide_metal>  (197) 
-0

>  <r_i_glide_rewards>  (197) 
-1.3611

>  <r_i_glide_evdw>  (197) 
-12.7837

>  <r_i_glide_ecoul>  (197) 
-6.69442

>  <r_i_glide_erotb>  (197) 
0

>  <r_i_glide_esite>  (197) 
-0.0205447

>  <r_i_glide_emodel>  (197) 
-23.6258

>  <r_i_glide_energy>  (197) 
-19.4781

>  <r_i_glide_einternal>  (197) 
0.389731

>  <r_i_glide_intrahb_reward>  (197) 
-0

>  <i_i_glide_confnum>  (197) 
2

>  <i_i_glide_posenum>  (197) 
6

>  <r_i_glide_eff_state_penalty>  (197) 
0

>  <ligand_id>  (197) 
60

>  <original_smiles>  (197) 
COc1ccc2c3c1OC1C(O)C=CC4C(C2)N(C)CCC341

>  <smiles>  (197) 
[H]OC1([H])C([H])=C([H])C2([H])C34c5c(c(OC([H])([H])[H])c([H])c([H])c5C([H])([H])C2([H])[N+]([H])(C([H])([H])[H])C([H])([H])C3([H])[H])OC14[H]

$$$$
60:0:2
     RDKit          3D

 44 48  0  0  1  0  0  0  0  0999 V2000
    3.3083   -5.3093    5.6786 C   0  0  0  0  0  0  0  0  0  0  0  0
    3.2412   -4.2819    4.7063 O   0  0  0  0  0  0  0  0  0  0  0  0
    3.7777   -4.5304    3.4633 C   0  0  0  0  0  0  0  0  0  0  0  0
    4.2883   -5.7939    3.0426 C   0  0  0  0  0  0  0  0  0  0  0  0
    4.8729   -5.9665    1.7613 C   0  0  0  0  0  0  0  0  0  0  0  0
    4.8986   -4.8852    0.8636 C   0  0  0  0  0  0  0  0  0  0  0  0
    4.3160   -3.6906    1.3079 C   0  0  0  0  0  0  0  0  0  0  0  0
    3.8216   -3.4417    2.5683 C   0  0  0  0  0  0  0  0  0  0  0  0
    3.4652   -2.1384    2.7664 O   0  0  0  0  0  0  0  0  0  0  0  0
    3.9915   -1.3789    1.6554 C   0  0  1  0  0  0  0  0  0  0  0  0
    5.3367   -0.6986    2.0393 C   0  0  1  0  0  0  0  0  0  0  0  0
    5.5837   -0.7165    3.4289 O   0  0  0  0  0  0  0  0  0  0  0  0
    6.5589   -1.1907    1.2772 C   0  0  0  0  0  0  0  0  0  0  0  0
    6.5293   -1.8783    0.1282 C   0  0  0  0  0  0  0  0  0  0  0  0
    5.2317   -2.2660   -0.5353 C   0  0  1  0  0  0  0  0  0  0  0  0
    5.2744   -3.5720   -1.3656 C   0  0  1  0  0  0  0  0  0  0  0  0
    5.5906   -4.8037   -0.4907 C   0  0  0  0  0  0  0  0  0  0  0  0
    3.9866   -3.7767   -2.0920 N   0  0  2  0  0  0  0  0  0  0  0  0
    3.8387   -2.9507   -3.3145 C   0  0  0  0  0  0  0  0  0  0  0  0
    2.7790   -3.7329   -1.2318 C   0  0  0  0  0  0  0  0  0  0  0  0
    2.8053   -2.5337   -0.2796 C   0  0  0  0  0  0  0  0  0  0  0  0
    4.1218   -2.4342    0.5125 C   0  0  1  0  0  0  0  0  0  0  0  0
    2.8564   -4.9460    6.5990 H   0  0  0  0  0  0  0  0  0  0  0  0
    4.3412   -5.5763    5.8996 H   0  0  0  0  0  0  0  0  0  0  0  0
    2.7585   -6.1983    5.3718 H   0  0  0  0  0  0  0  0  0  0  0  0
    4.2687   -6.6490    3.6950 H   0  0  0  0  0  0  0  0  0  0  0  0
    5.3117   -6.9160    1.4775 H   0  0  0  0  0  0  0  0  0  0  0  0
    3.2750   -0.5956    1.3941 H   0  0  0  0  0  0  0  0  0  0  0  0
    5.2465    0.3528    1.7905 H   0  0  0  0  0  0  0  0  0  0  0  0
    4.8482   -0.3297    3.8808 H   0  0  0  0  0  0  0  0  0  0  0  0
    7.5167   -0.9120    1.6778 H   0  0  0  0  0  0  0  0  0  0  0  0
    7.4547   -2.1624   -0.3599 H   0  0  0  0  0  0  0  0  0  0  0  0
    5.0059   -1.4238   -1.1923 H   0  0  0  0  0  0  0  0  0  0  0  0
    6.0593   -3.5017   -2.1221 H   0  0  0  0  0  0  0  0  0  0  0  0
    6.6591   -4.8007   -0.2862 H   0  0  0  0  0  0  0  0  0  0  0  0
    5.3786   -5.7195   -1.0390 H   0  0  0  0  0  0  0  0  0  0  0  0
    3.7238   -1.8939   -3.0625 H   0  0  0  0  0  0  0  0  0  0  0  0
    2.9500   -3.2601   -3.8722 H   0  0  0  0  0  0  0  0  0  0  0  0
    4.7035   -3.0670   -3.9731 H   0  0  0  0  0  0  0  0  0  0  0  0
    1.8798   -3.7009   -1.8520 H   0  0  0  0  0  0  0  0  0  0  0  0
    2.7003   -4.6593   -0.6608 H   0  0  0  0  0  0  0  0  0  0  0  0
    2.6819   -1.6246   -0.8765 H   0  0  0  0  0  0  0  0  0  0  0  0
    1.9535   -2.5927    0.4007 H   0  0  0  0  0  0  0  0  0  0  0  0
    3.9781   -4.7391   -2.4164 H   0  0  0  0  0  0  0  0  0  0  0  0
  1  2  1  0
  1 23  1  0
  1 24  1  0
  1 25  1  0
  2  3  1  0
  3  8  2  0
  3  4  1  0
  4  5  2  0
  4 26  1  0
  5  6  1  0
  5 27  1  0
  6 17  1  0
  6  7  2  0
  7 22  1  0
  7  8  1  0
  8  9  1  0
  9 10  1  0
 10 22  1  0
 10 11  1  0
 10 28  1  6
 11 12  1  0
 11 13  1  0
 11 29  1  6
 12 30  1  0
 13 14  2  0
 13 31  1  0
 14 15  1  0
 14 32  1  0
 15 22  1  0
 15 16  1  0
 15 33  1  6
 16 17  1  0
 16 18  1  0
 16 34  1  6
 17 35  1  0
 17 36  1  0
 18 19  1  0
 18 20  1  0
 18 44  1  6
 19 37  1  0
 19 38  1  0
 19 39  1  0
 20 21  1  0
 20 40  1  0
 20 41  1  0
 22 21  1  6
 21 42  1  0
 21 43  1  0
M  CHG  1  18   1
M  END
>  <i_m_ct_stereo_status>  (198) 
1

>  <s_m_source_file>  (198) 
/var/tmp/pbs.5076255.sched01/tmpz7m1v8ep/860kfiy9lw.sdf

>  <i_m_source_file_index>  (198) 
1

>  <i_lp_mmshare_version>  (198) 
48012

>  <i_f3d_flags>  (198) 
0

>  <s_epik_input>  (198) 
W0NAXTEyM2M0YzVbY0hdW2NIXWMoT1tDSDNdKWM0T1tDQEhdMVtDQEBIXShbT0hdKVtDSF09W0NIXVtDQEhdMltDQEBIXShbQ0gyXTUpTihbQ0gzXSlbQ0gyXVtDSDJdMw==

>  <s_epik_cmdline>  (198) 
J2VwaWtfcHl0aG9uJywgJy1waHQnLCAnMi4wJywgJy1waCcsICc3LjAnLCAnLXRuJywgJzgnLCAnLW1hJywgJzIwMCcsICctaW1hZScsICc8aW5maWxlLm1hZT4nLCAnLW9tYWUnLCAnPG91dGZpbGUubWFlPic=

>  <r_lp_tautomer_probability>  (198) 
1

>  <r_epik_Ionization_Penalty>  (198) 
0.0528967

>  <r_epik_Ionization_Penalty_Charging>  (198) 
0.0528894

>  <r_epik_Ionization_Penalty_Neutral>  (198) 
7.36794e-06

>  <r_epik_State_Penalty>  (198) 
0.0454017

>  <r_epik_Charging_Adjusted_Penalty>  (198) 
0.0982911

>  <i_epik_Tot_Q>  (198) 
1

>  <i_epik_Tot_abs_Q>  (198) 
1

>  <s_lp_Force_Field>  (198) 
OPLS3e

>  <r_lp_Energy>  (198) 
61.354

>  <b_lp_Chiralities_Consistent>  (198) 
1

>  <s_lp_Variant>  (198) 
60:0-1

>  <s_i_glide_gridfile>  (198) 
pfpi4k_grid

>  <i_i_glide_lignum>  (198) 
1

>  <i_i_glide_rotatable_bonds>  (198) 
2

>  <r_i_docking_score>  (198) 
-3.37292

>  <r_i_glide_ligand_efficiency>  (198) 
-0.153315

>  <r_i_glide_ligand_efficiency_sa>  (198) 
-0.429593

>  <r_i_glide_ligand_efficiency_ln>  (198) 
-0.824465

>  <r_i_glide_gscore>  (198) 
-3.37292

>  <r_i_glide_lipo>  (198) 
-0.50564

>  <r_i_glide_hbond>  (198) 
0

>  <r_i_glide_metal>  (198) 
-0

>  <r_i_glide_rewards>  (198) 
-1.3611

>  <r_i_glide_evdw>  (198) 
-13.438

>  <r_i_glide_ecoul>  (198) 
-5.29807

>  <r_i_glide_erotb>  (198) 
0

>  <r_i_glide_esite>  (198) 
-0.0395686

>  <r_i_glide_emodel>  (198) 
-22.7276

>  <r_i_glide_energy>  (198) 
-18.7361

>  <r_i_glide_einternal>  (198) 
0.56683

>  <r_i_glide_intrahb_reward>  (198) 
-0

>  <i_i_glide_confnum>  (198) 
1

>  <i_i_glide_posenum>  (198) 
11

>  <r_i_glide_eff_state_penalty>  (198) 
0

>  <ligand_id>  (198) 
60

>  <original_smiles>  (198) 
COc1ccc2c3c1OC1C(O)C=CC4C(C2)N(C)CCC341

>  <smiles>  (198) 
[H]OC1([H])C([H])=C([H])C2([H])C34c5c(c(OC([H])([H])[H])c([H])c([H])c5C([H])([H])C2([H])[N+]([H])(C([H])([H])[H])C([H])([H])C3([H])[H])OC14[H]

$$$$
60:1:0
     RDKit          3D

 43 47  0  0  1  0  0  0  0  0999 V2000
    5.8324   -7.1646    3.4404 C   0  0  0  0  0  0  0  0  0  0  0  0
    4.9622   -6.1554    2.9575 O   0  0  0  0  0  0  0  0  0  0  0  0
    5.4267   -5.3063    1.9771 C   0  0  0  0  0  0  0  0  0  0  0  0
    6.7541   -5.3300    1.4577 C   0  0  0  0  0  0  0  0  0  0  0  0
    7.1801   -4.3902    0.4829 C   0  0  0  0  0  0  0  0  0  0  0  0
    6.2629   -3.4604   -0.0419 C   0  0  0  0  0  0  0  0  0  0  0  0
    4.9550   -3.5283    0.4625 C   0  0  0  0  0  0  0  0  0  0  0  0
    4.5169   -4.3481    1.4809 C   0  0  0  0  0  0  0  0  0  0  0  0
    3.2406   -4.0777    1.8869 O   0  0  0  0  0  0  0  0  0  0  0  0
    2.8723   -2.8020    1.3109 C   0  0  1  0  0  0  0  0  0  0  0  0
    3.0585   -1.6413    2.3453 C   0  0  1  0  0  0  0  0  0  0  0  0
    3.2098   -2.1250    3.6680 O   0  0  0  0  0  0  0  0  0  0  0  0
    4.1603   -0.6446    2.0171 C   0  0  0  0  0  0  0  0  0  0  0  0
    4.6785   -0.4787    0.7887 C   0  0  0  0  0  0  0  0  0  0  0  0
    4.2342   -1.2995   -0.4040 C   0  0  1  0  0  0  0  0  0  0  0  0
    5.3186   -1.5045   -1.5007 C   0  0  1  0  0  0  0  0  0  0  0  0
    6.5423   -2.3053   -0.9964 C   0  0  0  0  0  0  0  0  0  0  0  0
    4.7711   -2.1890   -2.6872 N   0  0  0  0  0  0  0  0  0  0  0  0
    3.9882   -1.3018   -3.5373 C   0  0  0  0  0  0  0  0  0  0  0  0
    4.0581   -3.4420   -2.3922 C   0  0  0  0  0  0  0  0  0  0  0  0
    3.0873   -3.3131   -1.2002 C   0  0  0  0  0  0  0  0  0  0  0  0
    3.7774   -2.6917    0.0358 C   0  0  1  0  0  0  0  0  0  0  0  0
    5.3100   -7.7448    4.1976 H   0  0  0  0  0  0  0  0  0  0  0  0
    6.7209   -6.7404    3.9067 H   0  0  0  0  0  0  0  0  0  0  0  0
    6.1298   -7.8500    2.6473 H   0  0  0  0  0  0  0  0  0  0  0  0
    7.4773   -6.0448    1.8106 H   0  0  0  0  0  0  0  0  0  0  0  0
    8.2070   -4.3820    0.1478 H   0  0  0  0  0  0  0  0  0  0  0  0
    1.8184   -2.8406    1.0382 H   0  0  0  0  0  0  0  0  0  0  0  0
    2.1358   -1.0606    2.3504 H   0  0  0  0  0  0  0  0  0  0  0  0
    3.1880   -1.3924    4.2645 H   0  0  0  0  0  0  0  0  0  0  0  0
    4.4947   -0.0154    2.8308 H   0  0  0  0  0  0  0  0  0  0  0  0
    5.4342    0.2701    0.6094 H   0  0  0  0  0  0  0  0  0  0  0  0
    3.3920   -0.7469   -0.8199 H   0  0  0  0  0  0  0  0  0  0  0  0
    5.6746   -0.5307   -1.8373 H   0  0  0  0  0  0  0  0  0  0  0  0
    7.1825   -1.6261   -0.4390 H   0  0  0  0  0  0  0  0  0  0  0  0
    7.1346   -2.6697   -1.8382 H   0  0  0  0  0  0  0  0  0  0  0  0
    3.7115   -1.8147   -4.4589 H   0  0  0  0  0  0  0  0  0  0  0  0
    4.5851   -0.4322   -3.8186 H   0  0  0  0  0  0  0  0  0  0  0  0
    3.0759   -0.9562   -3.0495 H   0  0  0  0  0  0  0  0  0  0  0  0
    3.5233   -3.7828   -3.2777 H   0  0  0  0  0  0  0  0  0  0  0  0
    4.7861   -4.2243   -2.1748 H   0  0  0  0  0  0  0  0  0  0  0  0
    2.2342   -2.7004   -1.4952 H   0  0  0  0  0  0  0  0  0  0  0  0
    2.6806   -4.2961   -0.9618 H   0  0  0  0  0  0  0  0  0  0  0  0
  1  2  1  0
  1 23  1  0
  1 24  1  0
  1 25  1  0
  2  3  1  0
  3  8  2  0
  3  4  1  0
  4  5  2  0
  4 26  1  0
  5  6  1  0
  5 27  1  0
  6 17  1  0
  6  7  2  0
  7 22  1  0
  7  8  1  0
  8  9  1  0
  9 10  1  0
 10 22  1  0
 10 11  1  0
 10 28  1  6
 11 12  1  0
 11 13  1  0
 11 29  1  1
 12 30  1  0
 13 14  2  0
 13 31  1  0
 14 15  1  0
 14 32  1  0
 15 22  1  0
 15 16  1  0
 15 33  1  6
 16 17  1  0
 16 18  1  0
 16 34  1  6
 17 35  1  0
 17 36  1  0
 18 19  1  0
 18 20  1  0
 19 37  1  0
 19 38  1  0
 19 39  1  0
 20 21  1  0
 20 40  1  0
 20 41  1  0
 22 21  1  6
 21 42  1  0
 21 43  1  0
M  END
>  <i_m_ct_stereo_status>  (199) 
1

>  <s_m_source_file>  (199) 
/var/tmp/pbs.5076255.sched01/tmpz7m1v8ep/860kfiy9lw.sdf

>  <i_m_source_file_index>  (199) 
2

>  <i_lp_mmshare_version>  (199) 
48012

>  <i_f3d_flags>  (199) 
0

>  <s_epik_input>  (199) 
W0NAXTEyM2M0YzVbY0hdW2NIXWMoT1tDSDNdKWM0T1tDQEhdMVtDQEBIXShbT0hdKVtDSF09W0NIXVtDQEhdMltDQEBIXShbQ0gyXTUpTihbQ0gzXSlbQ0gyXVtDSDJdMw==

>  <s_epik_cmdline>  (199) 
J2VwaWtfcHl0aG9uJywgJy1waHQnLCAnMi4wJywgJy1waCcsICc3LjAnLCAnLXRuJywgJzgnLCAnLW1hJywgJzIwMCcsICctaW1hZScsICc8aW5maWxlLm1hZT4nLCAnLW9tYWUnLCAnPG91dGZpbGUubWFlPic=

>  <r_lp_tautomer_probability>  (199) 
1

>  <r_epik_Ionization_Penalty>  (199) 
1.45777

>  <r_epik_Ionization_Penalty_Charging>  (199) 
0

>  <r_epik_Ionization_Penalty_Neutral>  (199) 
1.45777

>  <r_epik_State_Penalty>  (199) 
1.54452

>  <r_epik_Charging_Adjusted_Penalty>  (199) 
1.54452

>  <i_epik_Tot_Q>  (199) 
0

>  <i_epik_Tot_abs_Q>  (199) 
0

>  <s_lp_Force_Field>  (199) 
OPLS3e

>  <r_lp_Energy>  (199) 
56.455

>  <b_lp_Chiralities_Consistent>  (199) 
1

>  <s_lp_Variant>  (199) 
60:0-2

>  <s_i_glide_gridfile>  (199) 
pfpi4k_grid

>  <i_i_glide_lignum>  (199) 
2

>  <i_i_glide_rotatable_bonds>  (199) 
2

>  <r_i_docking_score>  (199) 
-3.57473

>  <r_i_glide_ligand_efficiency>  (199) 
-0.162488

>  <r_i_glide_ligand_efficiency_sa>  (199) 
-0.455297

>  <r_i_glide_ligand_efficiency_ln>  (199) 
-0.873795

>  <r_i_glide_gscore>  (199) 
-3.57473

>  <r_i_glide_lipo>  (199) 
-0.906398

>  <r_i_glide_hbond>  (199) 
0

>  <r_i_glide_metal>  (199) 
-0

>  <r_i_glide_rewards>  (199) 
-1.36797

>  <r_i_glide_evdw>  (199) 
-22.3911

>  <r_i_glide_ecoul>  (199) 
-1.20538

>  <r_i_glide_erotb>  (199) 
0

>  <r_i_glide_esite>  (199) 
0

>  <r_i_glide_emodel>  (199) 
-28.4525

>  <r_i_glide_energy>  (199) 
-23.5965

>  <r_i_glide_einternal>  (199) 
0.396868

>  <r_i_glide_intrahb_reward>  (199) 
-0

>  <i_i_glide_confnum>  (199) 
1

>  <i_i_glide_posenum>  (199) 
16

>  <r_i_glide_eff_state_penalty>  (199) 
0

>  <ligand_id>  (199) 
60

>  <original_smiles>  (199) 
COc1ccc2c3c1OC1C(O)C=CC4C(C2)N(C)CCC341

>  <smiles>  (199) 
[H]OC1([H])C([H])=C([H])C2([H])C3([H])N(C([H])([H])[H])C([H])([H])C([H])([H])C24c2c(c(OC([H])([H])[H])c([H])c([H])c2C3([H])[H])OC14[H]

$$$$
60:1:1
     RDKit          3D

 43 47  0  0  1  0  0  0  0  0999 V2000
    1.5576   -3.3408    4.8776 C   0  0  0  0  0  0  0  0  0  0  0  0
    2.5345   -2.3011    4.8965 O   0  0  0  0  0  0  0  0  0  0  0  0
    3.0522   -1.9716    3.6703 C   0  0  0  0  0  0  0  0  0  0  0  0
    3.0137   -0.6073    3.2820 C   0  0  0  0  0  0  0  0  0  0  0  0
    3.4742   -0.1922    2.0017 C   0  0  0  0  0  0  0  0  0  0  0  0
    4.0708   -1.1272    1.1353 C   0  0  0  0  0  0  0  0  0  0  0  0
    4.1703   -2.4452    1.6255 C   0  0  0  0  0  0  0  0  0  0  0  0
    3.6449   -2.9353    2.8045 C   0  0  0  0  0  0  0  0  0  0  0  0
    3.7584   -4.2784    2.9429 O   0  0  0  0  0  0  0  0  0  0  0  0
    4.0961   -4.8139    1.6466 C   0  0  1  0  0  0  0  0  0  0  0  0
    2.8140   -5.3126    0.9087 C   0  0  1  0  0  0  0  0  0  0  0  0
    1.6961   -5.4748    1.7671 O   0  0  0  0  0  0  0  0  0  0  0  0
    2.4147   -4.5140   -0.3242 C   0  0  0  0  0  0  0  0  0  0  0  0
    3.2462   -3.7027   -0.9971 C   0  0  0  0  0  0  0  0  0  0  0  0
    4.6834   -3.4804   -0.5815 C   0  0  1  0  0  0  0  0  0  0  0  0
    5.2617   -2.0951   -0.9820 C   0  0  1  0  0  0  0  0  0  0  0  0
    4.5202   -0.9273   -0.2993 C   0  0  0  0  0  0  0  0  0  0  0  0
    6.6980   -1.9894   -0.6498 N   0  0  0  0  0  0  0  0  0  0  0  0
    7.5497   -2.6917   -1.6006 C   0  0  0  0  0  0  0  0  0  0  0  0
    7.0274   -2.3403    0.7376 C   0  0  0  0  0  0  0  0  0  0  0  0
    6.3379   -3.6366    1.2154 C   0  0  0  0  0  0  0  0  0  0  0  0
    4.8229   -3.6152    0.9345 C   0  0  1  0  0  0  0  0  0  0  0  0
    1.3032   -3.6158    5.9045 H   0  0  0  0  0  0  0  0  0  0  0  0
    1.8698   -4.2598    4.3798 H   0  0  0  0  0  0  0  0  0  0  0  0
    0.6599   -2.9702    4.3788 H   0  0  0  0  0  0  0  0  0  0  0  0
    2.5819    0.1113    3.9517 H   0  0  0  0  0  0  0  0  0  0  0  0
    3.3538    0.8389    1.6919 H   0  0  0  0  0  0  0  0  0  0  0  0
    4.7737   -5.6583    1.7914 H   0  0  0  0  0  0  0  0  0  0  0  0
    3.0242   -6.3128    0.5382 H   0  0  0  0  0  0  0  0  0  0  0  0
    1.9392   -6.0493    2.4708 H   0  0  0  0  0  0  0  0  0  0  0  0
    1.4154   -4.6850   -0.7017 H   0  0  0  0  0  0  0  0  0  0  0  0
    2.9079   -3.2135   -1.9014 H   0  0  0  0  0  0  0  0  0  0  0  0
    5.2406   -4.2729   -1.0824 H   0  0  0  0  0  0  0  0  0  0  0  0
    5.1703   -1.9547   -2.0581 H   0  0  0  0  0  0  0  0  0  0  0  0
    3.6160   -0.7245   -0.8747 H   0  0  0  0  0  0  0  0  0  0  0  0
    5.1115   -0.0147   -0.3432 H   0  0  0  0  0  0  0  0  0  0  0  0
    8.6049   -2.4888   -1.3966 H   0  0  0  0  0  0  0  0  0  0  0  0
    7.3429   -2.3440   -2.6131 H   0  0  0  0  0  0  0  0  0  0  0  0
    7.3969   -3.7691   -1.5686 H   0  0  0  0  0  0  0  0  0  0  0  0
    8.1074   -2.4309    0.8509 H   0  0  0  0  0  0  0  0  0  0  0  0
    6.7327   -1.5195    1.3930 H   0  0  0  0  0  0  0  0  0  0  0  0
    6.7926   -4.4993    0.7231 H   0  0  0  0  0  0  0  0  0  0  0  0
    6.5219   -3.7760    2.2802 H   0  0  0  0  0  0  0  0  0  0  0  0
  1  2  1  0
  1 23  1  0
  1 24  1  0
  1 25  1  0
  2  3  1  0
  3  8  2  0
  3  4  1  0
  4  5  2  0
  4 26  1  0
  5  6  1  0
  5 27  1  0
  6 17  1  0
  6  7  2  0
  7 22  1  0
  7  8  1  0
  8  9  1  0
  9 10  1  0
 10 22  1  0
 10 11  1  0
 10 28  1  1
 11 12  1  0
 11 13  1  0
 11 29  1  6
 12 30  1  0
 13 14  2  0
 13 31  1  0
 14 15  1  0
 14 32  1  0
 15 22  1  0
 15 16  1  0
 15 33  1  6
 16 17  1  0
 16 18  1  0
 16 34  1  6
 17 35  1  0
 17 36  1  0
 18 19  1  0
 18 20  1  0
 19 37  1  0
 19 38  1  0
 19 39  1  0
 20 21  1  0
 20 40  1  0
 20 41  1  0
 22 21  1  6
 21 42  1  0
 21 43  1  0
M  END
>  <i_m_ct_stereo_status>  (200) 
1

>  <s_m_source_file>  (200) 
/var/tmp/pbs.5076255.sched01/tmpz7m1v8ep/860kfiy9lw.sdf

>  <i_m_source_file_index>  (200) 
2

>  <i_lp_mmshare_version>  (200) 
48012

>  <i_f3d_flags>  (200) 
0

>  <s_epik_input>  (200) 
W0NAXTEyM2M0YzVbY0hdW2NIXWMoT1tDSDNdKWM0T1tDQEhdMVtDQEBIXShbT0hdKVtDSF09W0NIXVtDQEhdMltDQEBIXShbQ0gyXTUpTihbQ0gzXSlbQ0gyXVtDSDJdMw==

>  <s_epik_cmdline>  (200) 
J2VwaWtfcHl0aG9uJywgJy1waHQnLCAnMi4wJywgJy1waCcsICc3LjAnLCAnLXRuJywgJzgnLCAnLW1hJywgJzIwMCcsICctaW1hZScsICc8aW5maWxlLm1hZT4nLCAnLW9tYWUnLCAnPG91dGZpbGUubWFlPic=

>  <r_lp_tautomer_probability>  (200) 
1

>  <r_epik_Ionization_Penalty>  (200) 
1.45777

>  <r_epik_Ionization_Penalty_Charging>  (200) 
0

>  <r_epik_Ionization_Penalty_Neutral>  (200) 
1.45777

>  <r_epik_State_Penalty>  (200) 
1.54452

>  <r_epik_Charging_Adjusted_Penalty>  (200) 
1.54452

>  <i_epik_Tot_Q>  (200) 
0

>  <i_epik_Tot_abs_Q>  (200) 
0

>  <s_lp_Force_Field>  (200) 
OPLS3e

>  <r_lp_Energy>  (200) 
56.455

>  <b_lp_Chiralities_Consistent>  (200) 
1

>  <s_lp_Variant>  (200) 
60:0-2

>  <s_i_glide_gridfile>  (200) 
pfpi4k_grid

>  <i_i_glide_lignum>  (200) 
2

>  <i_i_glide_rotatable_bonds>  (200) 
2

>  <r_i_docking_score>  (200) 
-3.138

>  <r_i_glide_ligand_efficiency>  (200) 
-0.142637

>  <r_i_glide_ligand_efficiency_sa>  (200) 
-0.399673

>  <r_i_glide_ligand_efficiency_ln>  (200) 
-0.767042

>  <r_i_glide_gscore>  (200) 
-3.138

>  <r_i_glide_lipo>  (200) 
-0.277436

>  <r_i_glide_hbond>  (200) 
-0.16

>  <r_i_glide_metal>  (200) 
-0

>  <r_i_glide_rewards>  (200) 
-1.36797

>  <r_i_glide_evdw>  (200) 
-15.3477

>  <r_i_glide_ecoul>  (200) 
-3.76808

>  <r_i_glide_erotb>  (200) 
0

>  <r_i_glide_esite>  (200) 
0

>  <r_i_glide_emodel>  (200) 
-20.1438

>  <r_i_glide_energy>  (200) 
-19.1158

>  <r_i_glide_einternal>  (200) 
6.56777

>  <r_i_glide_intrahb_reward>  (200) 
-0

>  <i_i_glide_confnum>  (200) 
2

>  <i_i_glide_posenum>  (200) 
2

>  <r_i_glide_eff_state_penalty>  (200) 
0

>  <ligand_id>  (200) 
60

>  <original_smiles>  (200) 
COc1ccc2c3c1OC1C(O)C=CC4C(C2)N(C)CCC341

>  <smiles>  (200) 
[H]OC1([H])C([H])=C([H])C2([H])C3([H])N(C([H])([H])[H])C([H])([H])C([H])([H])C24c2c(c(OC([H])([H])[H])c([H])c([H])c2C3([H])[H])OC14[H]

$$$$
60:1:2
     RDKit          3D

 43 47  0  0  1  0  0  0  0  0999 V2000
    0.7774   -5.5690    4.6858 C   0  0  0  0  0  0  0  0  0  0  0  0
    1.1238   -4.4740    3.8549 O   0  0  0  0  0  0  0  0  0  0  0  0
    2.2953   -4.5490    3.1314 C   0  0  0  0  0  0  0  0  0  0  0  0
    3.1921   -5.6552    3.1668 C   0  0  0  0  0  0  0  0  0  0  0  0
    4.4009   -5.6466    2.4220 C   0  0  0  0  0  0  0  0  0  0  0  0
    4.6984   -4.5624    1.5747 C   0  0  0  0  0  0  0  0  0  0  0  0
    3.7452   -3.5319    1.5337 C   0  0  0  0  0  0  0  0  0  0  0  0
    2.6126   -3.4421    2.3151 C   0  0  0  0  0  0  0  0  0  0  0  0
    1.9601   -2.2480    2.1993 O   0  0  0  0  0  0  0  0  0  0  0  0
    2.8468   -1.3448    1.5014 C   0  0  1  0  0  0  0  0  0  0  0  0
    3.5992   -0.4200    2.5112 C   0  0  1  0  0  0  0  0  0  0  0  0
    3.0108   -0.4232    3.7986 O   0  0  0  0  0  0  0  0  0  0  0  0
    5.0978   -0.6531    2.6242 C   0  0  0  0  0  0  0  0  0  0  0  0
    5.8326   -1.2747    1.6878 C   0  0  0  0  0  0  0  0  0  0  0  0
    5.2314   -1.8561    0.4277 C   0  0  1  0  0  0  0  0  0  0  0  0
    5.9920   -3.0854   -0.1537 C   0  0  1  0  0  0  0  0  0  0  0  0
    5.9835   -4.3082    0.7920 C   0  0  0  0  0  0  0  0  0  0  0  0
    5.4256   -3.4971   -1.4514 N   0  0  0  0  0  0  0  0  0  0  0  0
    5.8459   -2.6518   -2.5554 C   0  0  0  0  0  0  0  0  0  0  0  0
    3.9728   -3.7120   -1.4486 C   0  0  0  0  0  0  0  0  0  0  0  0
    3.1999   -2.5909   -0.7283 C   0  0  0  0  0  0  0  0  0  0  0  0
    3.7825   -2.2955    0.6723 C   0  0  1  0  0  0  0  0  0  0  0  0
   -0.1634   -5.3469    5.1844 H   0  0  0  0  0  0  0  0  0  0  0  0
    1.5268   -5.7411    5.4577 H   0  0  0  0  0  0  0  0  0  0  0  0
    0.6365   -6.4811    4.1070 H   0  0  0  0  0  0  0  0  0  0  0  0
    2.9908   -6.5174    3.7792 H   0  0  0  0  0  0  0  0  0  0  0  0
    5.0985   -6.4672    2.5114 H   0  0  0  0  0  0  0  0  0  0  0  0
    2.2381   -0.7062    0.8616 H   0  0  0  0  0  0  0  0  0  0  0  0
    3.5000    0.6042    2.1548 H   0  0  0  0  0  0  0  0  0  0  0  0
    2.1523   -0.0334    3.7350 H   0  0  0  0  0  0  0  0  0  0  0  0
    5.5756   -0.2380    3.5007 H   0  0  0  0  0  0  0  0  0  0  0  0
    6.9006   -1.3686    1.8107 H   0  0  0  0  0  0  0  0  0  0  0  0
    5.2575   -1.0359   -0.2899 H   0  0  0  0  0  0  0  0  0  0  0  0
    7.0360   -2.8245   -0.3319 H   0  0  0  0  0  0  0  0  0  0  0  0
    6.7659   -4.1602    1.5324 H   0  0  0  0  0  0  0  0  0  0  0  0
    6.2547   -5.2145    0.2481 H   0  0  0  0  0  0  0  0  0  0  0  0
    5.5128   -3.0745   -3.5041 H   0  0  0  0  0  0  0  0  0  0  0  0
    6.9363   -2.6126   -2.5891 H   0  0  0  0  0  0  0  0  0  0  0  0
    5.4475   -1.6399   -2.4690 H   0  0  0  0  0  0  0  0  0  0  0  0
    3.6088   -3.8334   -2.4683 H   0  0  0  0  0  0  0  0  0  0  0  0
    3.7617   -4.6580   -0.9526 H   0  0  0  0  0  0  0  0  0  0  0  0
    3.2151   -1.6842   -1.3363 H   0  0  0  0  0  0  0  0  0  0  0  0
    2.1535   -2.8831   -0.6550 H   0  0  0  0  0  0  0  0  0  0  0  0
  1  2  1  0
  1 23  1  0
  1 24  1  0
  1 25  1  0
  2  3  1  0
  3  8  2  0
  3  4  1  0
  4  5  2  0
  4 26  1  0
  5  6  1  0
  5 27  1  0
  6 17  1  0
  6  7  2  0
  7 22  1  0
  7  8  1  0
  8  9  1  0
  9 10  1  0
 10 22  1  0
 10 11  1  0
 10 28  1  6
 11 12  1  0
 11 13  1  0
 11 29  1  6
 12 30  1  0
 13 14  2  0
 13 31  1  0
 14 15  1  0
 14 32  1  0
 15 22  1  0
 15 16  1  0
 15 33  1  6
 16 17  1  0
 16 18  1  0
 16 34  1  6
 17 35  1  0
 17 36  1  0
 18 19  1  0
 18 20  1  0
 19 37  1  0
 19 38  1  0
 19 39  1  0
 20 21  1  0
 20 40  1  0
 20 41  1  0
 22 21  1  6
 21 42  1  0
 21 43  1  0
M  END
>  <i_m_ct_stereo_status>  (201) 
1

>  <s_m_source_file>  (201) 
/var/tmp/pbs.5076255.sched01/tmpz7m1v8ep/860kfiy9lw.sdf

>  <i_m_source_file_index>  (201) 
2

>  <i_lp_mmshare_version>  (201) 
48012

>  <i_f3d_flags>  (201) 
0

>  <s_epik_input>  (201) 
W0NAXTEyM2M0YzVbY0hdW2NIXWMoT1tDSDNdKWM0T1tDQEhdMVtDQEBIXShbT0hdKVtDSF09W0NIXVtDQEhdMltDQEBIXShbQ0gyXTUpTihbQ0gzXSlbQ0gyXVtDSDJdMw==

>  <s_epik_cmdline>  (201) 
J2VwaWtfcHl0aG9uJywgJy1waHQnLCAnMi4wJywgJy1waCcsICc3LjAnLCAnLXRuJywgJzgnLCAnLW1hJywgJzIwMCcsICctaW1hZScsICc8aW5maWxlLm1hZT4nLCAnLW9tYWUnLCAnPG91dGZpbGUubWFlPic=

>  <r_lp_tautomer_probability>  (201) 
1

>  <r_epik_Ionization_Penalty>  (201) 
1.45777

>  <r_epik_Ionization_Penalty_Charging>  (201) 
0

>  <r_epik_Ionization_Penalty_Neutral>  (201) 
1.45777

>  <r_epik_State_Penalty>  (201) 
1.54452

>  <r_epik_Charging_Adjusted_Penalty>  (201) 
1.54452

>  <i_epik_Tot_Q>  (201) 
0

>  <i_epik_Tot_abs_Q>  (201) 
0

>  <s_lp_Force_Field>  (201) 
OPLS3e

>  <r_lp_Energy>  (201) 
56.455

>  <b_lp_Chiralities_Consistent>  (201) 
1

>  <s_lp_Variant>  (201) 
60:0-2

>  <s_i_glide_gridfile>  (201) 
pfpi4k_grid

>  <i_i_glide_lignum>  (201) 
2

>  <i_i_glide_rotatable_bonds>  (201) 
2

>  <r_i_docking_score>  (201) 
-2.81217

>  <r_i_glide_ligand_efficiency>  (201) 
-0.127826

>  <r_i_glide_ligand_efficiency_sa>  (201) 
-0.358174

>  <r_i_glide_ligand_efficiency_ln>  (201) 
-0.687398

>  <r_i_glide_gscore>  (201) 
-2.81217

>  <r_i_glide_lipo>  (201) 
-0.597448

>  <r_i_glide_hbond>  (201) 
0

>  <r_i_glide_metal>  (201) 
-0

>  <r_i_glide_rewards>  (201) 
-1.36797

>  <r_i_glide_evdw>  (201) 
-18.5781

>  <r_i_glide_ecoul>  (201) 
0.547665

>  <r_i_glide_erotb>  (201) 
0

>  <r_i_glide_esite>  (201) 
0

>  <r_i_glide_emodel>  (201) 
-21.7307

>  <r_i_glide_energy>  (201) 
-18.0305

>  <r_i_glide_einternal>  (201) 
0.485323

>  <r_i_glide_intrahb_reward>  (201) 
-0

>  <i_i_glide_confnum>  (201) 
1

>  <i_i_glide_posenum>  (201) 
6

>  <r_i_glide_eff_state_penalty>  (201) 
0

>  <ligand_id>  (201) 
60

>  <original_smiles>  (201) 
COc1ccc2c3c1OC1C(O)C=CC4C(C2)N(C)CCC341

>  <smiles>  (201) 
[H]OC1([H])C([H])=C([H])C2([H])C3([H])N(C([H])([H])[H])C([H])([H])C([H])([H])C24c2c(c(OC([H])([H])[H])c([H])c([H])c2C3([H])[H])OC14[H]

$$$$
61:0:0
     RDKit          3D

 41 45  0  0  1  0  0  0  0  0999 V2000
    6.1391   -2.9682   -2.3940 C   0  0  0  0  0  0  0  0  0  0  0  0
    4.8762   -2.4736   -1.6489 C   0  0  1  0  0  0  0  0  0  0  0  0
    4.2812   -1.3933   -2.5497 C   0  0  0  0  0  0  0  0  0  0  0  0
    4.6165   -0.2248   -2.4840 O   0  0  0  0  0  0  0  0  0  0  0  0
    3.3659   -1.9798   -3.5153 C   0  0  0  0  0  0  0  0  0  0  0  0
    3.0996   -3.2136   -3.0904 C   0  0  0  0  0  0  0  0  0  0  0  0
    3.7613   -3.5499   -1.7591 C   0  0  2  0  0  0  0  0  0  0  0  0
    2.6597   -3.4942   -0.6713 C   0  0  1  0  0  0  0  0  0  0  0  0
    1.8270   -4.6434   -0.7174 O   0  0  0  0  0  0  0  0  0  0  0  0
    3.1803   -3.1659    0.7464 C   0  0  2  0  0  0  0  0  0  0  0  0
    3.9261   -1.8099    0.6590 C   0  0  1  0  0  0  0  0  0  0  0  0
    4.1641   -1.1143    2.0195 C   0  0  0  0  0  0  0  0  0  0  0  0
    4.8639   -1.8680    3.1667 C   0  0  0  0  0  0  0  0  0  0  0  0
    4.8966   -1.3370    4.2724 O   0  0  0  0  0  0  0  0  0  0  0  0
    5.4123   -3.0996    2.9515 O   0  0  0  0  0  0  0  0  0  0  0  0
    5.4832   -3.8209    1.7188 C   0  0  2  0  0  0  0  0  0  0  0  0
    6.4058   -5.0173    2.0733 C   0  0  0  0  0  0  0  0  0  0  0  0
    6.1257   -2.9737    0.5900 C   0  0  0  0  0  0  0  0  0  0  0  0
    7.3300   -3.0294    0.3353 O   0  0  0  0  0  0  0  0  0  0  0  0
    5.2059   -2.0097   -0.1806 C   0  0  1  0  0  0  0  0  0  0  0  0
    4.0461   -4.2587    1.3877 C   0  0  1  0  0  0  0  0  0  0  0  0
    3.3210   -5.2580    2.2723 C   0  0  0  0  0  0  0  0  0  0  0  0
    3.8361   -5.6287    0.9927 O   0  0  0  0  0  0  0  0  0  0  0  0
    6.4594   -3.9333   -2.0205 H   0  0  0  0  0  0  0  0  0  0  0  0
    6.9819   -2.2836   -2.2801 H   0  0  0  0  0  0  0  0  0  0  0  0
    5.9724   -3.0978   -3.4672 H   0  0  0  0  0  0  0  0  0  0  0  0
    3.0125   -1.4907   -4.4147 H   0  0  0  0  0  0  0  0  0  0  0  0
    4.2380   -4.5327   -1.7690 H   0  0  0  0  0  0  0  0  0  0  0  0
    2.4487   -3.9111   -3.6009 H   0  0  0  0  0  0  0  0  0  0  0  0
    2.0042   -2.6701   -0.9370 H   0  0  0  0  0  0  0  0  0  0  0  0
    2.2109   -5.2160   -1.3814 H   0  0  0  0  0  0  0  0  0  0  0  0
    2.3099   -3.0266    1.3891 H   0  0  0  0  0  0  0  0  0  0  0  0
    3.2854   -1.1094    0.1177 H   0  0  0  0  0  0  0  0  0  0  0  0
    4.7273   -0.1934    1.8556 H   0  0  0  0  0  0  0  0  0  0  0  0
    3.1929   -0.8096    2.4149 H   0  0  0  0  0  0  0  0  0  0  0  0
    6.5324   -5.7112    1.2434 H   0  0  0  0  0  0  0  0  0  0  0  0
    6.0447   -5.5775    2.9330 H   0  0  0  0  0  0  0  0  0  0  0  0
    7.3995   -4.6699    2.3498 H   0  0  0  0  0  0  0  0  0  0  0  0
    5.7408   -1.0583   -0.2345 H   0  0  0  0  0  0  0  0  0  0  0  0
    3.8465   -5.6763    3.1249 H   0  0  0  0  0  0  0  0  0  0  0  0
    2.2369   -5.2365    2.3388 H   0  0  0  0  0  0  0  0  0  0  0  0
  1 24  1  0
  1 25  1  0
  1 26  1  0
  2  1  1  6
  2  7  1  0
  2 20  1  0
  2  3  1  0
  3  4  2  0
  3  5  1  0
  5  6  2  0
  5 27  1  0
  6 29  1  0
  6  7  1  0
  7  8  1  0
  7 28  1  6
  8  9  1  0
  8 10  1  0
  8 30  1  6
  9 31  1  0
 10 21  1  0
 10 11  1  0
 10 32  1  1
 11 20  1  0
 11 12  1  0
 11 33  1  6
 12 13  1  0
 12 34  1  0
 12 35  1  0
 13 14  2  0
 13 15  1  0
 15 16  1  0
 16 17  1  1
 16 18  1  0
 16 21  1  0
 17 36  1  0
 17 37  1  0
 17 38  1  0
 18 19  2  0
 18 20  1  0
 20 39  1  6
 21 23  1  6
 21 22  1  0
 22 23  1  0
 22 40  1  0
 22 41  1  0
M  END
>  <i_m_ct_stereo_status>  (202) 
1

>  <s_m_source_file>  (202) 
/var/tmp/pbs.5076255.sched01/tmpz7m1v8ep/860kfiy9lw.sdf

>  <i_m_source_file_index>  (202) 
3

>  <i_lp_mmshare_version>  (202) 
48012

>  <i_f3d_flags>  (202) 
0

>  <s_epik_input>  (202) 
Tz1DMVtDSDJdW0NIXT1DKFtDQEhdMltPSF0pW0NAXTEoW0NIM10pW0NIXShbQ0BIXTNbQ0BASF0yW0NAXTQ1W0NIMl1PNSlDKD1PKVtDQEBdNChbQ0gzXSlPQyg9TylbQ0gyXTM=

>  <s_epik_cmdline>  (202) 
J2VwaWtfcHl0aG9uJywgJy1waHQnLCAnMi4wJywgJy1waCcsICc3LjAnLCAnLXRuJywgJzgnLCAnLW1hJywgJzIwMCcsICctaW1hZScsICc8aW5maWxlLm1hZT4nLCAnLW9tYWUnLCAnPG91dGZpbGUubWFlPic=

>  <r_lp_tautomer_probability>  (202) 
1

>  <r_epik_Ionization_Penalty>  (202) 
4.11156e-07

>  <r_epik_Ionization_Penalty_Charging>  (202) 
0

>  <r_epik_Ionization_Penalty_Neutral>  (202) 
4.11156e-07

>  <r_epik_State_Penalty>  (202) 
-0

>  <r_epik_Charging_Adjusted_Penalty>  (202) 
0

>  <i_epik_Tot_Q>  (202) 
0

>  <i_epik_Tot_abs_Q>  (202) 
0

>  <s_epik_Chemistry_Notes>  (202) 
This compound has an ester and may undergo hydrolysis at high or low pH.

>  <s_lp_Force_Field>  (202) 
OPLS3e

>  <r_lp_Energy>  (202) 
26.9416

>  <b_lp_Chiralities_Consistent>  (202) 
1

>  <s_lp_Variant>  (202) 
61:0-1

>  <s_i_glide_gridfile>  (202) 
pfpi4k_grid

>  <i_i_glide_lignum>  (202) 
3

>  <i_i_glide_rotatable_bonds>  (202) 
1

>  <r_i_docking_score>  (202) 
-4.23385

>  <r_i_glide_ligand_efficiency>  (202) 
-0.18408

>  <r_i_glide_ligand_efficiency_sa>  (202) 
-0.5235

>  <r_i_glide_ligand_efficiency_ln>  (202) 
-1.02378

>  <r_i_glide_gscore>  (202) 
-4.23385

>  <r_i_glide_lipo>  (202) 
-0.511698

>  <r_i_glide_hbond>  (202) 
0

>  <r_i_glide_metal>  (202) 
-0

>  <r_i_glide_rewards>  (202) 
-1.42253

>  <r_i_glide_evdw>  (202) 
-23.3089

>  <r_i_glide_ecoul>  (202) 
-7.29735

>  <r_i_glide_erotb>  (202) 
0

>  <r_i_glide_esite>  (202) 
-0.0395757

>  <r_i_glide_emodel>  (202) 
-37.775

>  <r_i_glide_energy>  (202) 
-30.6063

>  <r_i_glide_einternal>  (202) 
1.45196

>  <r_i_glide_intrahb_reward>  (202) 
-0

>  <i_i_glide_confnum>  (202) 
1

>  <i_i_glide_posenum>  (202) 
32

>  <r_i_glide_eff_state_penalty>  (202) 
0

>  <ligand_id>  (202) 
61

>  <original_smiles>  (202) 
CC12C(=O)CC=C1C(O)C1C3CC(=O)OC(C)(C(=O)C32)C12CO2

>  <smiles>  (202) 
[H]OC1([H])C2([H])C([H])=C([H])C(=O)C2(C([H])([H])[H])C2([H])C(=O)C3(C([H])([H])[H])OC(=O)C([H])([H])C2([H])C1([H])C31OC1([H])[H]

$$$$
61:0:1
     RDKit          3D

 41 45  0  0  1  0  0  0  0  0999 V2000
    2.2818   -3.2516   -1.9362 C   0  0  0  0  0  0  0  0  0  0  0  0
    3.7928   -3.0943   -1.6033 C   0  0  1  0  0  0  0  0  0  0  0  0
    4.4819   -2.9783   -2.9729 C   0  0  0  0  0  0  0  0  0  0  0  0
    4.9109   -3.9252   -3.6306 O   0  0  0  0  0  0  0  0  0  0  0  0
    4.5087   -1.5788   -3.3676 C   0  0  0  0  0  0  0  0  0  0  0  0
    4.2494   -0.8439   -2.2942 C   0  0  0  0  0  0  0  0  0  0  0  0
    4.0469   -1.6610   -1.0259 C   0  0  2  0  0  0  0  0  0  0  0  0
    5.3304   -1.5277   -0.1649 C   0  0  1  0  0  0  0  0  0  0  0  0
    5.3556   -0.3001    0.5281 O   0  0  0  0  0  0  0  0  0  0  0  0
    5.6216   -2.7180    0.7728 C   0  0  2  0  0  0  0  0  0  0  0  0
    5.7241   -3.9716   -0.1159 C   0  0  1  0  0  0  0  0  0  0  0  0
    6.4037   -5.1812    0.5711 C   0  0  0  0  0  0  0  0  0  0  0  0
    5.8860   -5.7240    1.9141 C   0  0  0  0  0  0  0  0  0  0  0  0
    6.5627   -6.5675    2.4927 O   0  0  0  0  0  0  0  0  0  0  0  0
    4.7102   -5.2729    2.4346 O   0  0  0  0  0  0  0  0  0  0  0  0
    3.8595   -4.2604    1.8891 C   0  0  2  0  0  0  0  0  0  0  0  0
    2.6591   -4.2985    2.8641 C   0  0  0  0  0  0  0  0  0  0  0  0
    3.3878   -4.6344    0.4672 C   0  0  0  0  0  0  0  0  0  0  0  0
    2.3332   -5.2403    0.2736 O   0  0  0  0  0  0  0  0  0  0  0  0
    4.3257   -4.2669   -0.6957 C   0  0  1  0  0  0  0  0  0  0  0  0
    4.6165   -2.9164    1.9208 C   0  0  1  0  0  0  0  0  0  0  0  0
    4.9625   -2.2469    3.2347 C   0  0  0  0  0  0  0  0  0  0  0  0
    3.9122   -1.7565    2.4054 O   0  0  0  0  0  0  0  0  0  0  0  0
    1.6545   -3.0562   -1.0690 H   0  0  0  0  0  0  0  0  0  0  0  0
    2.0341   -4.2483   -2.2933 H   0  0  0  0  0  0  0  0  0  0  0  0
    1.9529   -2.5669   -2.7175 H   0  0  0  0  0  0  0  0  0  0  0  0
    4.6991   -1.2203   -4.3708 H   0  0  0  0  0  0  0  0  0  0  0  0
    3.1717   -1.3131   -0.4706 H   0  0  0  0  0  0  0  0  0  0  0  0
    4.2230    0.2374   -2.2933 H   0  0  0  0  0  0  0  0  0  0  0  0
    6.1826   -1.4769   -0.8419 H   0  0  0  0  0  0  0  0  0  0  0  0
    4.5492   -0.2346    1.0192 H   0  0  0  0  0  0  0  0  0  0  0  0
    6.5969   -2.5432    1.2305 H   0  0  0  0  0  0  0  0  0  0  0  0
    6.3862   -3.7414   -0.9537 H   0  0  0  0  0  0  0  0  0  0  0  0
    6.3882   -6.0250   -0.1211 H   0  0  0  0  0  0  0  0  0  0  0  0
    7.4601   -4.9361    0.7262 H   0  0  0  0  0  0  0  0  0  0  0  0
    1.8887   -3.5721    2.6023 H   0  0  0  0  0  0  0  0  0  0  0  0
    2.9565   -4.1187    3.8964 H   0  0  0  0  0  0  0  0  0  0  0  0
    2.1954   -5.2840    2.8624 H   0  0  0  0  0  0  0  0  0  0  0  0
    4.4264   -5.1578   -1.3143 H   0  0  0  0  0  0  0  0  0  0  0  0
    4.6508   -2.7281    4.1545 H   0  0  0  0  0  0  0  0  0  0  0  0
    5.8285   -1.5895    3.3046 H   0  0  0  0  0  0  0  0  0  0  0  0
  1 24  1  0
  1 25  1  0
  1 26  1  0
  2  1  1  6
  2  7  1  0
  2 20  1  0
  2  3  1  0
  3  4  2  0
  3  5  1  0
  5  6  2  0
  5 27  1  0
  6 29  1  0
  6  7  1  0
  7  8  1  0
  7 28  1  1
  8  9  1  0
  8 10  1  0
  8 30  1  6
  9 31  1  0
 10 21  1  0
 10 11  1  0
 10 32  1  1
 11 20  1  0
 11 12  1  0
 11 33  1  6
 12 13  1  0
 12 34  1  0
 12 35  1  0
 13 14  2  0
 13 15  1  0
 15 16  1  0
 16 17  1  1
 16 18  1  0
 16 21  1  0
 17 36  1  0
 17 37  1  0
 17 38  1  0
 18 19  2  0
 18 20  1  0
 20 39  1  6
 21 23  1  6
 21 22  1  0
 22 23  1  0
 22 40  1  0
 22 41  1  0
M  END
>  <i_m_ct_stereo_status>  (203) 
1

>  <s_m_source_file>  (203) 
/var/tmp/pbs.5076255.sched01/tmpz7m1v8ep/860kfiy9lw.sdf

>  <i_m_source_file_index>  (203) 
3

>  <i_lp_mmshare_version>  (203) 
48012

>  <i_f3d_flags>  (203) 
0

>  <s_epik_input>  (203) 
Tz1DMVtDSDJdW0NIXT1DKFtDQEhdMltPSF0pW0NAXTEoW0NIM10pW0NIXShbQ0BIXTNbQ0BASF0yW0NAXTQ1W0NIMl1PNSlDKD1PKVtDQEBdNChbQ0gzXSlPQyg9TylbQ0gyXTM=

>  <s_epik_cmdline>  (203) 
J2VwaWtfcHl0aG9uJywgJy1waHQnLCAnMi4wJywgJy1waCcsICc3LjAnLCAnLXRuJywgJzgnLCAnLW1hJywgJzIwMCcsICctaW1hZScsICc8aW5maWxlLm1hZT4nLCAnLW9tYWUnLCAnPG91dGZpbGUubWFlPic=

>  <r_lp_tautomer_probability>  (203) 
1

>  <r_epik_Ionization_Penalty>  (203) 
4.11156e-07

>  <r_epik_Ionization_Penalty_Charging>  (203) 
0

>  <r_epik_Ionization_Penalty_Neutral>  (203) 
4.11156e-07

>  <r_epik_State_Penalty>  (203) 
-0

>  <r_epik_Charging_Adjusted_Penalty>  (203) 
0

>  <i_epik_Tot_Q>  (203) 
0

>  <i_epik_Tot_abs_Q>  (203) 
0

>  <s_epik_Chemistry_Notes>  (203) 
This compound has an ester and may undergo hydrolysis at high or low pH.

>  <s_lp_Force_Field>  (203) 
OPLS3e

>  <r_lp_Energy>  (203) 
26.9416

>  <b_lp_Chiralities_Consistent>  (203) 
1

>  <s_lp_Variant>  (203) 
61:0-1

>  <s_i_glide_gridfile>  (203) 
pfpi4k_grid

>  <i_i_glide_lignum>  (203) 
3

>  <i_i_glide_rotatable_bonds>  (203) 
1

>  <r_i_docking_score>  (203) 
-3.85074

>  <r_i_glide_ligand_efficiency>  (203) 
-0.167424

>  <r_i_glide_ligand_efficiency_sa>  (203) 
-0.47613

>  <r_i_glide_ligand_efficiency_ln>  (203) 
-0.931144

>  <r_i_glide_gscore>  (203) 
-3.85074

>  <r_i_glide_lipo>  (203) 
-0.541011

>  <r_i_glide_hbond>  (203) 
0

>  <r_i_glide_metal>  (203) 
-0

>  <r_i_glide_rewards>  (203) 
-1.94147

>  <r_i_glide_evdw>  (203) 
-26.6767

>  <r_i_glide_ecoul>  (203) 
-0.171881

>  <r_i_glide_erotb>  (203) 
0

>  <r_i_glide_esite>  (203) 
-0.00864917

>  <r_i_glide_emodel>  (203) 
-38.9274

>  <r_i_glide_energy>  (203) 
-26.8486

>  <r_i_glide_einternal>  (203) 
0.104363

>  <r_i_glide_intrahb_reward>  (203) 
-0.5

>  <i_i_glide_confnum>  (203) 
1

>  <i_i_glide_posenum>  (203) 
2

>  <r_i_glide_eff_state_penalty>  (203) 
0

>  <ligand_id>  (203) 
61

>  <original_smiles>  (203) 
CC12C(=O)CC=C1C(O)C1C3CC(=O)OC(C)(C(=O)C32)C12CO2

>  <smiles>  (203) 
[H]OC1([H])C2([H])C([H])=C([H])C(=O)C2(C([H])([H])[H])C2([H])C(=O)C3(C([H])([H])[H])OC(=O)C([H])([H])C2([H])C1([H])C31OC1([H])[H]

$$$$
61:0:2
     RDKit          3D

 41 45  0  0  1  0  0  0  0  0999 V2000
    2.3056   -3.3959   -1.4040 C   0  0  0  0  0  0  0  0  0  0  0  0
    3.7949   -3.1890   -1.0218 C   0  0  1  0  0  0  0  0  0  0  0  0
    4.5573   -3.2253   -2.3550 C   0  0  0  0  0  0  0  0  0  0  0  0
    5.0102   -4.2448   -2.8584 O   0  0  0  0  0  0  0  0  0  0  0  0
    4.6087   -1.8856   -2.9263 C   0  0  0  0  0  0  0  0  0  0  0  0
    4.2756   -1.0289   -1.9539 C   0  0  0  0  0  0  0  0  0  0  0  0
    4.0214   -1.6945   -0.6118 C   0  0  2  0  0  0  0  0  0  0  0  0
    5.2679   -1.4510    0.2767 C   0  0  1  0  0  0  0  0  0  0  0  0
    5.2707   -0.1483    0.8155 O   0  0  0  0  0  0  0  0  0  0  0  0
    5.5018   -2.5167    1.3682 C   0  0  2  0  0  0  0  0  0  0  0  0
    5.6472   -3.8751    0.6494 C   0  0  1  0  0  0  0  0  0  0  0  0
    6.2917   -4.9866    1.5081 C   0  0  0  0  0  0  0  0  0  0  0  0
    5.7082   -5.3565    2.8847 C   0  0  0  0  0  0  0  0  0  0  0  0
    6.3517   -6.1151    3.6042 O   0  0  0  0  0  0  0  0  0  0  0  0
    4.5091   -4.8415    3.2844 O   0  0  0  0  0  0  0  0  0  0  0  0
    3.6877   -3.9122    2.5780 C   0  0  2  0  0  0  0  0  0  0  0  0
    2.4387   -3.8321    3.4972 C   0  0  0  0  0  0  0  0  0  0  0  0
    3.2875   -4.4673    1.1905 C   0  0  0  0  0  0  0  0  0  0  0  0
    2.2436   -5.1009    1.0231 O   0  0  0  0  0  0  0  0  0  0  0  0
    4.2808   -4.2467    0.0358 C   0  0  1  0  0  0  0  0  0  0  0  0
    4.4454   -2.5705    2.4850 C   0  0  1  0  0  0  0  0  0  0  0  0
    4.7347   -1.7461    3.7268 C   0  0  0  0  0  0  0  0  0  0  0  0
    3.7154   -1.3702    2.8056 O   0  0  0  0  0  0  0  0  0  0  0  0
    1.6496   -3.0538   -0.6067 H   0  0  0  0  0  0  0  0  0  0  0  0
    2.0429   -4.4333   -1.5733 H   0  0  0  0  0  0  0  0  0  0  0  0
    2.0181   -2.8281   -2.2949 H   0  0  0  0  0  0  0  0  0  0  0  0
    4.8485   -1.6571   -3.9509 H   0  0  0  0  0  0  0  0  0  0  0  0
    3.1297   -1.2818   -0.1408 H   0  0  0  0  0  0  0  0  0  0  0  0
    4.2205    0.0400   -2.0846 H   0  0  0  0  0  0  0  0  0  0  0  0
    6.1514   -1.4809   -0.3654 H   0  0  0  0  0  0  0  0  0  0  0  0
    5.1292    0.4676    0.1076 H   0  0  0  0  0  0  0  0  0  0  0  0
    6.4545   -2.2788    1.8454 H   0  0  0  0  0  0  0  0  0  0  0  0
    6.3504   -3.7439   -0.1771 H   0  0  0  0  0  0  0  0  0  0  0  0
    6.3225   -5.9064    0.9250 H   0  0  0  0  0  0  0  0  0  0  0  0
    7.3329   -4.7133    1.6899 H   0  0  0  0  0  0  0  0  0  0  0  0
    1.6855   -3.1444    3.1139 H   0  0  0  0  0  0  0  0  0  0  0  0
    2.6868   -3.5265    4.5123 H   0  0  0  0  0  0  0  0  0  0  0  0
    1.9697   -4.8102    3.5950 H   0  0  0  0  0  0  0  0  0  0  0  0
    4.3774   -5.2130   -0.4688 H   0  0  0  0  0  0  0  0  0  0  0  0
    4.3848   -2.1116    4.6886 H   0  0  0  0  0  0  0  0  0  0  0  0
    5.5931   -1.0806    3.7491 H   0  0  0  0  0  0  0  0  0  0  0  0
  1 24  1  0
  1 25  1  0
  1 26  1  0
  2  1  1  6
  2  7  1  0
  2 20  1  0
  2  3  1  0
  3  4  2  0
  3  5  1  0
  5  6  2  0
  5 27  1  0
  6 29  1  0
  6  7  1  0
  7  8  1  0
  7 28  1  1
  8  9  1  0
  8 10  1  0
  8 30  1  6
  9 31  1  0
 10 21  1  0
 10 11  1  0
 10 32  1  1
 11 20  1  0
 11 12  1  0
 11 33  1  6
 12 13  1  0
 12 34  1  0
 12 35  1  0
 13 14  2  0
 13 15  1  0
 15 16  1  0
 16 17  1  1
 16 18  1  0
 16 21  1  0
 17 36  1  0
 17 37  1  0
 17 38  1  0
 18 19  2  0
 18 20  1  0
 20 39  1  6
 21 23  1  6
 21 22  1  0
 22 23  1  0
 22 40  1  0
 22 41  1  0
M  END
>  <i_m_ct_stereo_status>  (204) 
1

>  <s_m_source_file>  (204) 
/var/tmp/pbs.5076255.sched01/tmpz7m1v8ep/860kfiy9lw.sdf

>  <i_m_source_file_index>  (204) 
3

>  <i_lp_mmshare_version>  (204) 
48012

>  <i_f3d_flags>  (204) 
0

>  <s_epik_input>  (204) 
Tz1DMVtDSDJdW0NIXT1DKFtDQEhdMltPSF0pW0NAXTEoW0NIM10pW0NIXShbQ0BIXTNbQ0BASF0yW0NAXTQ1W0NIMl1PNSlDKD1PKVtDQEBdNChbQ0gzXSlPQyg9TylbQ0gyXTM=

>  <s_epik_cmdline>  (204) 
J2VwaWtfcHl0aG9uJywgJy1waHQnLCAnMi4wJywgJy1waCcsICc3LjAnLCAnLXRuJywgJzgnLCAnLW1hJywgJzIwMCcsICctaW1hZScsICc8aW5maWxlLm1hZT4nLCAnLW9tYWUnLCAnPG91dGZpbGUubWFlPic=

>  <r_lp_tautomer_probability>  (204) 
1

>  <r_epik_Ionization_Penalty>  (204) 
4.11156e-07

>  <r_epik_Ionization_Penalty_Charging>  (204) 
0

>  <r_epik_Ionization_Penalty_Neutral>  (204) 
4.11156e-07

>  <r_epik_State_Penalty>  (204) 
-0

>  <r_epik_Charging_Adjusted_Penalty>  (204) 
0

>  <i_epik_Tot_Q>  (204) 
0

>  <i_epik_Tot_abs_Q>  (204) 
0

>  <s_epik_Chemistry_Notes>  (204) 
This compound has an ester and may undergo hydrolysis at high or low pH.

>  <s_lp_Force_Field>  (204) 
OPLS3e

>  <r_lp_Energy>  (204) 
26.9416

>  <b_lp_Chiralities_Consistent>  (204) 
1

>  <s_lp_Variant>  (204) 
61:0-1

>  <s_i_glide_gridfile>  (204) 
pfpi4k_grid

>  <i_i_glide_lignum>  (204) 
3

>  <i_i_glide_rotatable_bonds>  (204) 
1

>  <r_i_docking_score>  (204) 
-3.2056

>  <r_i_glide_ligand_efficiency>  (204) 
-0.139374

>  <r_i_glide_ligand_efficiency_sa>  (204) 
-0.396361

>  <r_i_glide_ligand_efficiency_ln>  (204) 
-0.775142

>  <r_i_glide_gscore>  (204) 
-3.2056

>  <r_i_glide_lipo>  (204) 
-0.453303

>  <r_i_glide_hbond>  (204) 
-0.0116456

>  <r_i_glide_metal>  (204) 
-0

>  <r_i_glide_rewards>  (204) 
-1.28736

>  <r_i_glide_evdw>  (204) 
-23.6325

>  <r_i_glide_ecoul>  (204) 
-1.80425

>  <r_i_glide_erotb>  (204) 
0

>  <r_i_glide_esite>  (204) 
-0.00102528

>  <r_i_glide_emodel>  (204) 
-31.2004

>  <r_i_glide_energy>  (204) 
-25.4367

>  <r_i_glide_einternal>  (204) 
0.35434

>  <r_i_glide_intrahb_reward>  (204) 
-0

>  <i_i_glide_confnum>  (204) 
2

>  <i_i_glide_posenum>  (204) 
5

>  <r_i_glide_eff_state_penalty>  (204) 
0

>  <ligand_id>  (204) 
61

>  <original_smiles>  (204) 
CC12C(=O)CC=C1C(O)C1C3CC(=O)OC(C)(C(=O)C32)C12CO2

>  <smiles>  (204) 
[H]OC1([H])C2([H])C([H])=C([H])C(=O)C2(C([H])([H])[H])C2([H])C(=O)C3(C([H])([H])[H])OC(=O)C([H])([H])C2([H])C1([H])C31OC1([H])[H]

$$$$
62:0:0
     RDKit          3D

 51 55  0  0  1  0  0  0  0  0999 V2000
    6.8064   -6.2087    1.3640 C   0  0  0  0  0  0  0  0  0  0  0  0
    6.2870   -4.9973    0.5504 C   0  0  2  0  0  0  0  0  0  0  0  0
    7.2476   -3.7991    0.5749 C   0  0  0  0  0  0  0  0  0  0  0  0
    8.3949   -3.8800    1.0011 O   0  0  0  0  0  0  0  0  0  0  0  0
    6.6988   -2.4815   -0.0171 C   0  0  1  0  0  0  0  0  0  0  0  0
    6.2487   -2.6485   -1.4761 C   0  0  1  0  0  0  0  0  0  0  0  0
    7.1323   -3.4339   -2.2538 O   0  0  0  0  0  0  0  0  0  0  0  0
    4.8409   -3.2897   -1.4256 C   0  0  2  0  0  0  0  0  0  0  0  0
    3.8366   -2.6918   -2.4820 C   0  0  0  0  0  0  0  0  0  0  0  0
    3.7805   -1.1335   -2.4824 C   0  0  0  0  0  0  0  0  0  0  0  0
    4.2449   -3.1292   -3.8792 C   0  0  0  0  0  0  0  0  0  0  0  0
    2.4294   -3.2806   -2.3048 C   0  0  0  0  0  0  0  0  0  0  0  0
    2.1335   -3.7001   -0.8735 C   0  0  0  0  0  0  0  0  0  0  0  0
    2.9050   -2.9021    0.1884 C   0  0  1  0  0  0  0  0  0  0  0  0
    2.3247   -3.1839    1.4423 O   0  0  0  0  0  0  0  0  0  0  0  0
    4.4303   -3.2163    0.1014 C   0  0  1  0  0  0  0  0  0  0  0  0
    4.8519   -4.5370    0.8887 C   0  0  2  0  0  0  0  0  0  0  0  0
    4.7466   -4.3384    2.4011 C   0  0  0  0  0  0  0  0  0  0  0  0
    5.0135   -3.1620    2.9596 C   0  0  0  0  0  0  0  0  0  0  0  0
    4.6391   -2.6880    4.3357 C   0  0  0  0  0  0  0  0  0  0  0  0
    4.1783   -1.3680    4.0887 O   0  0  0  0  0  0  0  0  0  0  0  0
    4.5091   -0.9321    2.8475 C   0  0  0  0  0  0  0  0  0  0  0  0
    4.1371    0.1155    2.3200 O   0  0  0  0  0  0  0  0  0  0  0  0
    5.4222   -1.9408    2.1876 C   0  0  2  0  0  0  0  0  0  0  0  0
    5.3513   -2.0908    0.6360 C   0  0  1  0  0  0  0  0  0  0  0  0
    7.7507   -6.5758    0.9597 H   0  0  0  0  0  0  0  0  0  0  0  0
    6.0988   -7.0372    1.3190 H   0  0  0  0  0  0  0  0  0  0  0  0
    6.9796   -5.9669    2.4144 H   0  0  0  0  0  0  0  0  0  0  0  0
    6.2394   -5.3351   -0.4748 H   0  0  0  0  0  0  0  0  0  0  0  0
    7.4577   -1.7073    0.0890 H   0  0  0  0  0  0  0  0  0  0  0  0
    6.2338   -1.6576   -1.9179 H   0  0  0  0  0  0  0  0  0  0  0  0
    7.5919   -2.9273   -2.9096 H   0  0  0  0  0  0  0  0  0  0  0  0
    4.9114   -4.3427   -1.6823 H   0  0  0  0  0  0  0  0  0  0  0  0
    2.9841   -0.7665   -3.1260 H   0  0  0  0  0  0  0  0  0  0  0  0
    4.6849   -0.6668   -2.8713 H   0  0  0  0  0  0  0  0  0  0  0  0
    3.6080   -0.7012   -1.5038 H   0  0  0  0  0  0  0  0  0  0  0  0
    3.5532   -2.7549   -4.6402 H   0  0  0  0  0  0  0  0  0  0  0  0
    4.3291   -4.2170   -3.9760 H   0  0  0  0  0  0  0  0  0  0  0  0
    5.2270   -2.7055   -4.0061 H   0  0  0  0  0  0  0  0  0  0  0  0
    1.6951   -2.5552   -2.6312 H   0  0  0  0  0  0  0  0  0  0  0  0
    2.2471   -4.1321   -2.9711 H   0  0  0  0  0  0  0  0  0  0  0  0
    1.0648   -3.5394   -0.7776 H   0  0  0  0  0  0  0  0  0  0  0  0
    2.3148   -4.7639   -0.7278 H   0  0  0  0  0  0  0  0  0  0  0  0
    2.7324   -1.8374    0.0347 H   0  0  0  0  0  0  0  0  0  0  0  0
    2.6230   -2.5332    2.0580 H   0  0  0  0  0  0  0  0  0  0  0  0
    4.1739   -5.3421    0.6158 H   0  0  0  0  0  0  0  0  0  0  0  0
    4.3364   -5.1591    2.9783 H   0  0  0  0  0  0  0  0  0  0  0  0
    3.8828   -3.3237    4.8091 H   0  0  0  0  0  0  0  0  0  0  0  0
    5.5322   -2.6660    4.9617 H   0  0  0  0  0  0  0  0  0  0  0  0
    6.4344   -1.6544    2.4739 H   0  0  0  0  0  0  0  0  0  0  0  0
    5.0515   -1.1340    0.2056 H   0  0  0  0  0  0  0  0  0  0  0  0
  1  2  1  0
  1 26  1  0
  1 27  1  0
  1 28  1  0
  2 17  1  0
  2  3  1  0
  2 29  1  6
  3  4  2  0
  3  5  1  0
  5 25  1  0
  5  6  1  0
  5 30  1  6
  6  7  1  0
  6  8  1  0
  6 31  1  6
  7 32  1  0
  8 16  1  0
  8  9  1  0
  8 33  1  6
  9 10  1  0
  9 11  1  0
  9 12  1  0
 10 34  1  0
 10 35  1  0
 10 36  1  0
 11 37  1  0
 11 38  1  0
 11 39  1  0
 12 13  1  0
 12 40  1  0
 12 41  1  0
 13 14  1  0
 13 42  1  0
 13 43  1  0
 14 15  1  0
 16 14  1  6
 14 44  1  6
 15 45  1  0
 16 25  1  0
 16 17  1  0
 17 18  1  0
 17 46  1  6
 18 19  2  0
 18 47  1  0
 19 24  1  0
 19 20  1  0
 20 21  1  0
 20 48  1  0
 20 49  1  0
 21 22  1  0
 22 23  2  0
 22 24  1  0
 24 25  1  0
 24 50  1  6
 25 51  1  6
M  END
>  <i_m_ct_stereo_status>  (205) 
1

>  <s_m_source_file>  (205) 
/var/tmp/pbs.5076255.sched01/tmpz7m1v8ep/860kfiy9lw.sdf

>  <i_m_source_file_index>  (205) 
4

>  <i_lp_mmshare_version>  (205) 
48012

>  <i_f3d_flags>  (205) 
0

>  <s_epik_input>  (205) 
Tz1DMVtDQEBIXShbQ0gzXSlbQ0BIXTJbQ0hdPUMoW0NIMl1PQzM9TylbQ0BIXTNbQ0BIXTRbQ0BASF0xW0NAQEhdKFtPSF0pW0NAQEhdKFtDQEBdMjQ1KUMoW0NIM10pKFtDSDNdKVtDSDJdW0NIMl1bQ0BIXTVbT0hd

>  <s_epik_cmdline>  (205) 
J2VwaWtfcHl0aG9uJywgJy1waHQnLCAnMi4wJywgJy1waCcsICc3LjAnLCAnLXRuJywgJzgnLCAnLW1hJywgJzIwMCcsICctaW1hZScsICc8aW5maWxlLm1hZT4nLCAnLW9tYWUnLCAnPG91dGZpbGUubWFlPic=

>  <r_lp_tautomer_probability>  (205) 
1

>  <r_epik_Ionization_Penalty>  (205) 
2.42514e-07

>  <r_epik_Ionization_Penalty_Charging>  (205) 
0

>  <r_epik_Ionization_Penalty_Neutral>  (205) 
2.42514e-07

>  <r_epik_State_Penalty>  (205) 
-0

>  <r_epik_Charging_Adjusted_Penalty>  (205) 
0

>  <i_epik_Tot_Q>  (205) 
0

>  <i_epik_Tot_abs_Q>  (205) 
0

>  <s_epik_Chemistry_Notes>  (205) 
This compound has an ester and may undergo hydrolysis at high or low pH.

>  <s_lp_Force_Field>  (205) 
OPLS3e

>  <r_lp_Energy>  (205) 
55.0538

>  <b_lp_Chiralities_Consistent>  (205) 
1

>  <s_lp_Variant>  (205) 
62:0-1

>  <s_i_glide_gridfile>  (205) 
pfpi4k_grid

>  <i_i_glide_lignum>  (205) 
4

>  <i_i_glide_rotatable_bonds>  (205) 
2

>  <r_i_docking_score>  (205) 
-3.70129

>  <r_i_glide_ligand_efficiency>  (205) 
-0.148052

>  <r_i_glide_ligand_efficiency_sa>  (205) 
-0.432905

>  <r_i_glide_ligand_efficiency_ln>  (205) 
-0.877316

>  <r_i_glide_gscore>  (205) 
-3.70129

>  <r_i_glide_lipo>  (205) 
-0.788093

>  <r_i_glide_hbond>  (205) 
-0.284681

>  <r_i_glide_metal>  (205) 
-0

>  <r_i_glide_rewards>  (205) 
-1.31181

>  <r_i_glide_evdw>  (205) 
-21.4644

>  <r_i_glide_ecoul>  (205) 
-1.62319

>  <r_i_glide_erotb>  (205) 
0

>  <r_i_glide_esite>  (205) 
0

>  <r_i_glide_emodel>  (205) 
-25.4519

>  <r_i_glide_energy>  (205) 
-23.0876

>  <r_i_glide_einternal>  (205) 
1.73393

>  <r_i_glide_intrahb_reward>  (205) 
-0

>  <i_i_glide_confnum>  (205) 
1

>  <i_i_glide_posenum>  (205) 
6

>  <r_i_glide_eff_state_penalty>  (205) 
0

>  <ligand_id>  (205) 
62

>  <original_smiles>  (205) 
CC1C(=O)C2C(O)C3C(C)(C)CCC(O)C34C1C=C1COC(=O)C1C24

>  <smiles>  (205) 
[H]OC1([H])C2([H])C(=O)C([H])(C([H])([H])[H])C3([H])C([H])=C4C([H])([H])OC(=O)C4([H])C2([H])C32C([H])(O[H])C([H])([H])C([H])([H])C(C([H])([H])[H])(C([H])([H])[H])C12[H]

$$$$
62:0:1
     RDKit          3D

 51 55  0  0  1  0  0  0  0  0999 V2000
    6.8403   -5.8970    1.3455 C   0  0  0  0  0  0  0  0  0  0  0  0
    6.2659   -4.7639    0.4720 C   0  0  2  0  0  0  0  0  0  0  0  0
    7.1762   -3.5270    0.4096 C   0  0  0  0  0  0  0  0  0  0  0  0
    8.3330   -3.5387    0.8293 O   0  0  0  0  0  0  0  0  0  0  0  0
    6.5716   -2.2738   -0.2672 C   0  0  1  0  0  0  0  0  0  0  0  0
    6.0956   -2.5649   -1.6930 C   0  0  1  0  0  0  0  0  0  0  0  0
    7.0107   -3.3957   -2.3409 O   0  0  0  0  0  0  0  0  0  0  0  0
    4.7145   -3.2358   -1.5711 C   0  0  2  0  0  0  0  0  0  0  0  0
    3.6723   -2.7291   -2.6366 C   0  0  0  0  0  0  0  0  0  0  0  0
    3.5451   -1.1842   -2.7508 C   0  0  0  0  0  0  0  0  0  0  0  0
    4.0574   -3.2491   -4.0053 C   0  0  0  0  0  0  0  0  0  0  0  0
    2.2931   -3.3512   -2.3845 C   0  0  0  0  0  0  0  0  0  0  0  0
    2.0734   -3.6964   -0.9163 C   0  0  0  0  0  0  0  0  0  0  0  0
    2.8398   -2.8028    0.0742 C   0  0  1  0  0  0  0  0  0  0  0  0
    2.2922   -2.9738    1.3713 O   0  0  0  0  0  0  0  0  0  0  0  0
    4.3575   -3.0757   -0.0395 C   0  0  1  0  0  0  0  0  0  0  0  0
    4.8306   -4.3268    0.8254 C   0  0  2  0  0  0  0  0  0  0  0  0
    4.7606   -4.0224    2.3225 C   0  0  0  0  0  0  0  0  0  0  0  0
    5.0004   -2.7966    2.7890 C   0  0  0  0  0  0  0  0  0  0  0  0
    4.6617   -2.2330    4.1406 C   0  0  0  0  0  0  0  0  0  0  0  0
    4.1523   -0.9452    3.8127 O   0  0  0  0  0  0  0  0  0  0  0  0
    4.3843   -0.6132    2.5279 C   0  0  0  0  0  0  0  0  0  0  0  0
    3.8968    0.3315    1.9177 O   0  0  0  0  0  0  0  0  0  0  0  0
    5.3460   -1.6219    1.9221 C   0  0  2  0  0  0  0  0  0  0  0  0
    5.2416   -1.8790    0.3945 C   0  0  1  0  0  0  0  0  0  0  0  0
    7.7812   -6.2647    0.9353 H   0  0  0  0  0  0  0  0  0  0  0  0
    6.1527   -6.7424    1.3821 H   0  0  0  0  0  0  0  0  0  0  0  0
    7.0370   -5.5712    2.3686 H   0  0  0  0  0  0  0  0  0  0  0  0
    6.2028   -5.1581   -0.5367 H   0  0  0  0  0  0  0  0  0  0  0  0
    7.3052   -1.4750   -0.2574 H   0  0  0  0  0  0  0  0  0  0  0  0
    6.0293   -1.6194   -2.2313 H   0  0  0  0  0  0  0  0  0  0  0  0
    7.3205   -2.9897   -3.1432 H   0  0  0  0  0  0  0  0  0  0  0  0
    4.7844   -4.3079   -1.7634 H   0  0  0  0  0  0  0  0  0  0  0  0
    2.7096   -0.8914   -3.3880 H   0  0  0  0  0  0  0  0  0  0  0  0
    4.4202   -0.7152   -3.1967 H   0  0  0  0  0  0  0  0  0  0  0  0
    3.3772   -0.6926   -1.7962 H   0  0  0  0  0  0  0  0  0  0  0  0
    3.3142   -2.9690   -4.7502 H   0  0  0  0  0  0  0  0  0  0  0  0
    4.1629   -4.3313   -4.0463 H   0  0  0  0  0  0  0  0  0  0  0  0
    5.0174   -2.8151   -4.2627 H   0  0  0  0  0  0  0  0  0  0  0  0
    1.5039   -2.6665   -2.7023 H   0  0  0  0  0  0  0  0  0  0  0  0
    2.1125   -4.2578   -2.9846 H   0  0  0  0  0  0  0  0  0  0  0  0
    1.0089   -3.5263   -0.7942 H   0  0  0  0  0  0  0  0  0  0  0  0
    2.2829   -4.7573   -0.7225 H   0  0  0  0  0  0  0  0  0  0  0  0
    2.6655   -1.7496   -0.1371 H   0  0  0  0  0  0  0  0  0  0  0  0
    2.7740   -3.6373    1.8350 H   0  0  0  0  0  0  0  0  0  0  0  0
    4.1644   -5.1641    0.6215 H   0  0  0  0  0  0  0  0  0  0  0  0
    4.3952   -4.8041    2.9699 H   0  0  0  0  0  0  0  0  0  0  0  0
    3.9367   -2.8457    4.6799 H   0  0  0  0  0  0  0  0  0  0  0  0
    5.5731   -2.1366    4.7293 H   0  0  0  0  0  0  0  0  0  0  0  0
    6.3509   -1.2791    2.1585 H   0  0  0  0  0  0  0  0  0  0  0  0
    4.8931   -0.9712   -0.1045 H   0  0  0  0  0  0  0  0  0  0  0  0
  1  2  1  0
  1 26  1  0
  1 27  1  0
  1 28  1  0
  2 17  1  0
  2  3  1  0
  2 29  1  6
  3  4  2  0
  3  5  1  0
  5 25  1  0
  5  6  1  0
  5 30  1  6
  6  7  1  0
  6  8  1  0
  6 31  1  6
  7 32  1  0
  8 16  1  0
  8  9  1  0
  8 33  1  6
  9 10  1  0
  9 11  1  0
  9 12  1  0
 10 34  1  0
 10 35  1  0
 10 36  1  0
 11 37  1  0
 11 38  1  0
 11 39  1  0
 12 13  1  0
 12 40  1  0
 12 41  1  0
 13 14  1  0
 13 42  1  0
 13 43  1  0
 14 15  1  0
 16 14  1  6
 14 44  1  6
 15 45  1  0
 16 25  1  0
 16 17  1  0
 17 18  1  0
 17 46  1  1
 18 19  2  0
 18 47  1  0
 19 24  1  0
 19 20  1  0
 20 21  1  0
 20 48  1  0
 20 49  1  0
 21 22  1  0
 22 23  2  0
 22 24  1  0
 24 25  1  0
 24 50  1  6
 25 51  1  6
M  END
>  <i_m_ct_stereo_status>  (206) 
1

>  <s_m_source_file>  (206) 
/var/tmp/pbs.5076255.sched01/tmpz7m1v8ep/860kfiy9lw.sdf

>  <i_m_source_file_index>  (206) 
4

>  <i_lp_mmshare_version>  (206) 
48012

>  <i_f3d_flags>  (206) 
0

>  <s_epik_input>  (206) 
Tz1DMVtDQEBIXShbQ0gzXSlbQ0BIXTJbQ0hdPUMoW0NIMl1PQzM9TylbQ0BIXTNbQ0BIXTRbQ0BASF0xW0NAQEhdKFtPSF0pW0NAQEhdKFtDQEBdMjQ1KUMoW0NIM10pKFtDSDNdKVtDSDJdW0NIMl1bQ0BIXTVbT0hd

>  <s_epik_cmdline>  (206) 
J2VwaWtfcHl0aG9uJywgJy1waHQnLCAnMi4wJywgJy1waCcsICc3LjAnLCAnLXRuJywgJzgnLCAnLW1hJywgJzIwMCcsICctaW1hZScsICc8aW5maWxlLm1hZT4nLCAnLW9tYWUnLCAnPG91dGZpbGUubWFlPic=

>  <r_lp_tautomer_probability>  (206) 
1

>  <r_epik_Ionization_Penalty>  (206) 
2.42514e-07

>  <r_epik_Ionization_Penalty_Charging>  (206) 
0

>  <r_epik_Ionization_Penalty_Neutral>  (206) 
2.42514e-07

>  <r_epik_State_Penalty>  (206) 
-0

>  <r_epik_Charging_Adjusted_Penalty>  (206) 
0

>  <i_epik_Tot_Q>  (206) 
0

>  <i_epik_Tot_abs_Q>  (206) 
0

>  <s_epik_Chemistry_Notes>  (206) 
This compound has an ester and may undergo hydrolysis at high or low pH.

>  <s_lp_Force_Field>  (206) 
OPLS3e

>  <r_lp_Energy>  (206) 
55.0538

>  <b_lp_Chiralities_Consistent>  (206) 
1

>  <s_lp_Variant>  (206) 
62:0-1

>  <s_i_glide_gridfile>  (206) 
pfpi4k_grid

>  <i_i_glide_lignum>  (206) 
4

>  <i_i_glide_rotatable_bonds>  (206) 
2

>  <r_i_docking_score>  (206) 
-3.29756

>  <r_i_glide_ligand_efficiency>  (206) 
-0.131903

>  <r_i_glide_ligand_efficiency_sa>  (206) 
-0.385685

>  <r_i_glide_ligand_efficiency_ln>  (206) 
-0.781621

>  <r_i_glide_gscore>  (206) 
-3.29756

>  <r_i_glide_lipo>  (206) 
-0.769537

>  <r_i_glide_hbond>  (206) 
0

>  <r_i_glide_metal>  (206) 
-0

>  <r_i_glide_rewards>  (206) 
-1.33145

>  <r_i_glide_evdw>  (206) 
-21.5297

>  <r_i_glide_ecoul>  (206) 
-0.80061

>  <r_i_glide_erotb>  (206) 
0

>  <r_i_glide_esite>  (206) 
0

>  <r_i_glide_emodel>  (206) 
-23.0539

>  <r_i_glide_energy>  (206) 
-22.3303

>  <r_i_glide_einternal>  (206) 
2.26853

>  <r_i_glide_intrahb_reward>  (206) 
-0

>  <i_i_glide_confnum>  (206) 
1

>  <i_i_glide_posenum>  (206) 
1

>  <r_i_glide_eff_state_penalty>  (206) 
0

>  <ligand_id>  (206) 
62

>  <original_smiles>  (206) 
CC1C(=O)C2C(O)C3C(C)(C)CCC(O)C34C1C=C1COC(=O)C1C24

>  <smiles>  (206) 
[H]OC1([H])C2([H])C(=O)C([H])(C([H])([H])[H])C3([H])C([H])=C4C([H])([H])OC(=O)C4([H])C2([H])C32C([H])(O[H])C([H])([H])C([H])([H])C(C([H])([H])[H])(C([H])([H])[H])C12[H]

$$$$
63:0:0
     RDKit          3D

 49 53  0  0  1  0  0  0  0  0999 V2000
    8.6089   -6.0424    3.5659 C   0  0  0  0  0  0  0  0  0  0  0  0
    7.2088   -5.9598    3.3879 O   0  0  0  0  0  0  0  0  0  0  0  0
    6.7204   -5.4691    2.2465 C   0  0  0  0  0  0  0  0  0  0  0  0
    7.3983   -4.8718    1.4074 O   0  0  0  0  0  0  0  0  0  0  0  0
    5.2662   -5.7480    2.0985 C   0  0  0  0  0  0  0  0  0  0  0  0
    4.4073   -4.8962    1.4905 C   0  0  0  0  0  0  0  0  0  0  0  0
    4.6751   -3.5196    0.8901 C   0  0  0  0  0  0  0  0  0  0  0  0
    3.0615   -5.1822    1.3695 O   0  0  0  0  0  0  0  0  0  0  0  0
    2.6186   -6.5083    1.2013 C   0  0  2  0  0  0  0  0  0  0  0  0
    1.3069   -6.7311    1.6754 O   0  0  0  0  0  0  0  0  0  0  0  0
    1.3320   -7.6811    2.6630 C   0  0  0  0  0  0  0  0  0  0  0  0
    0.3007   -8.1157    3.5090 C   0  0  0  0  0  0  0  0  0  0  0  0
   -0.9537   -7.6007    3.2527 O   0  0  0  0  0  0  0  0  0  0  0  0
   -2.0682   -8.2765    3.7875 C   0  0  0  0  0  0  0  0  0  0  0  0
    0.5920   -9.0241    4.5600 C   0  0  0  0  0  0  0  0  0  0  0  0
    1.9316   -9.4453    4.8178 C   0  0  0  0  0  0  0  0  0  0  0  0
    2.9678   -9.0179    3.9543 C   0  0  0  0  0  0  0  0  0  0  0  0
    2.5914   -8.2041    2.8889 C   0  0  0  0  0  0  0  0  0  0  0  0
    3.5315   -7.5769    1.9009 C   0  0  1  0  0  0  0  0  0  0  0  0
    4.0581   -8.5644    0.8293 C   0  0  0  0  0  0  0  0  0  0  0  0
    4.9632   -9.6693    1.3651 C   0  0  0  0  0  0  0  0  0  0  0  0
    5.9810   -9.1353    2.2595 N   0  0  0  0  0  0  0  0  0  0  0  0
    7.1036   -8.6097    1.5145 C   0  0  0  0  0  0  0  0  0  0  0  0
    5.4276   -8.2596    3.3017 C   0  0  2  0  0  0  0  0  0  0  0  0
    4.4914   -9.1301    4.1843 C   0  0  0  0  0  0  0  0  0  0  0  0
    4.6518   -7.0055    2.7456 C   0  0  1  0  0  0  0  0  0  0  0  0
    8.8245   -6.5289    4.5231 H   0  0  0  0  0  0  0  0  0  0  0  0
    9.0085   -5.0464    3.5769 H   0  0  0  0  0  0  0  0  0  0  0  0
    9.0955   -6.6028    2.7603 H   0  0  0  0  0  0  0  0  0  0  0  0
    5.6435   -3.0893    1.1365 H   0  0  0  0  0  0  0  0  0  0  0  0
    3.9052   -2.8235    1.2485 H   0  0  0  0  0  0  0  0  0  0  0  0
    4.5716   -3.5730   -0.1957 H   0  0  0  0  0  0  0  0  0  0  0  0
    2.5770   -6.6449    0.1138 H   0  0  0  0  0  0  0  0  0  0  0  0
   -2.9763   -7.7400    3.5164 H   0  0  0  0  0  0  0  0  0  0  0  0
   -2.0296   -8.3304    4.8753 H   0  0  0  0  0  0  0  0  0  0  0  0
   -2.1270   -9.2875    3.3779 H   0  0  0  0  0  0  0  0  0  0  0  0
   -0.1771   -9.3774    5.2321 H   0  0  0  0  0  0  0  0  0  0  0  0
    2.1426  -10.0438    5.6890 H   0  0  0  0  0  0  0  0  0  0  0  0
    3.2575   -9.0840    0.3226 H   0  0  0  0  0  0  0  0  0  0  0  0
    4.5985   -7.9895    0.0853 H   0  0  0  0  0  0  0  0  0  0  0  0
    4.3433  -10.3885    1.8960 H   0  0  0  0  0  0  0  0  0  0  0  0
    5.4269  -10.2159    0.5437 H   0  0  0  0  0  0  0  0  0  0  0  0
    7.9151   -8.3730    2.2127 H   0  0  0  0  0  0  0  0  0  0  0  0
    6.8692   -7.7421    0.8955 H   0  0  0  0  0  0  0  0  0  0  0  0
    7.4008   -9.4075    0.8443 H   0  0  0  0  0  0  0  0  0  0  0  0
    6.2624   -7.9928    3.9480 H   0  0  0  0  0  0  0  0  0  0  0  0
    4.6388   -8.7497    5.1899 H   0  0  0  0  0  0  0  0  0  0  0  0
    4.8188  -10.1709    4.1943 H   0  0  0  0  0  0  0  0  0  0  0  0
    4.1918   -6.5403    3.6233 H   0  0  0  0  0  0  0  0  0  0  0  0
  1  2  1  0
  1 27  1  0
  1 28  1  0
  1 29  1  0
  2  3  1  0
  3  4  2  0
  3  5  1  0
  5 26  1  0
  5  6  2  0
  6  7  1  0
  6  8  1  0
  7 30  1  0
  7 31  1  0
  7 32  1  0
  8  9  1  0
  9 19  1  0
  9 10  1  0
  9 33  1  6
 10 11  1  0
 11 18  2  0
 11 12  1  0
 12 13  1  0
 12 15  2  0
 13 14  1  0
 14 34  1  0
 14 35  1  0
 14 36  1  0
 15 16  1  0
 15 37  1  0
 16 17  2  0
 16 38  1  0
 17 25  1  0
 17 18  1  0
 18 19  1  0
 19 26  1  0
 19 20  1  6
 20 21  1  0
 20 39  1  0
 20 40  1  0
 21 22  1  0
 21 41  1  0
 21 42  1  0
 22 23  1  0
 22 24  1  0
 23 43  1  0
 23 44  1  0
 23 45  1  0
 24 25  1  0
 24 26  1  0
 24 46  1  1
 25 47  1  0
 25 48  1  0
 26 49  1  1
M  END
>  <i_m_ct_stereo_status>  (207) 
1

>  <s_m_source_file>  (207) 
/var/tmp/pbs.5076255.sched01/tmpz7m1v8ep/860kfiy9lw.sdf

>  <i_m_source_file_index>  (207) 
5

>  <i_lp_mmshare_version>  (207) 
48012

>  <i_f3d_flags>  (207) 
0

>  <s_epik_input>  (207) 
W0NAXTEyM1tDQEBIXTRPQyhbQ0gzXSk9QyhDKD1PKU9bQ0gzXSlbQ0BASF0zW0NASF0oTihbQ0gzXSlbQ0gyXVtDSDJdMilbQ0gyXWM1YzFjKE80KWMoT1tDSDNdKVtjSF1bY0hdNQ==

>  <s_epik_cmdline>  (207) 
J2VwaWtfcHl0aG9uJywgJy1waHQnLCAnMi4wJywgJy1waCcsICc3LjAnLCAnLXRuJywgJzgnLCAnLW1hJywgJzIwMCcsICctaW1hZScsICc8aW5maWxlLm1hZT4nLCAnLW9tYWUnLCAnPG91dGZpbGUubWFlPic=

>  <r_lp_tautomer_probability>  (207) 
1

>  <r_epik_Ionization_Penalty>  (207) 
0.136752

>  <r_epik_Ionization_Penalty_Charging>  (207) 
0

>  <r_epik_Ionization_Penalty_Neutral>  (207) 
0.136752

>  <r_epik_State_Penalty>  (207) 
0.126095

>  <r_epik_Charging_Adjusted_Penalty>  (207) 
0.126095

>  <i_epik_Tot_Q>  (207) 
0

>  <i_epik_Tot_abs_Q>  (207) 
0

>  <s_epik_Chemistry_Notes>  (207) 
This compound has an ester and may undergo hydrolysis at high or low pH. This compound contains an acetal/aminal-like group ( X-CH(R)-Y where X, Y are N, S, or O) that may be acid/base labile, releasing an aldehyde.

>  <s_lp_Force_Field>  (207) 
OPLS3e

>  <r_lp_Energy>  (207) 
65.2546

>  <b_lp_Chiralities_Consistent>  (207) 
1

>  <s_lp_Variant>  (207) 
63:0-1

>  <s_i_glide_gridfile>  (207) 
pfpi4k_grid

>  <i_i_glide_lignum>  (207) 
5

>  <i_i_glide_rotatable_bonds>  (207) 
3

>  <r_i_docking_score>  (207) 
-2.44866

>  <r_i_glide_ligand_efficiency>  (207) 
-0.0941792

>  <r_i_glide_ligand_efficiency_sa>  (207) 
-0.279005

>  <r_i_glide_ligand_efficiency_ln>  (207) 
-0.575059

>  <r_i_glide_gscore>  (207) 
-2.44866

>  <r_i_glide_lipo>  (207) 
-0.229436

>  <r_i_glide_hbond>  (207) 
0

>  <r_i_glide_metal>  (207) 
-0

>  <r_i_glide_rewards>  (207) 
-1.02728

>  <r_i_glide_evdw>  (207) 
-20.7977

>  <r_i_glide_ecoul>  (207) 
-1.97181

>  <r_i_glide_erotb>  (207) 
0.14987

>  <r_i_glide_esite>  (207) 
-0.00615368

>  <r_i_glide_emodel>  (207) 
-23.1913

>  <r_i_glide_energy>  (207) 
-22.7695

>  <r_i_glide_einternal>  (207) 
4.11811

>  <r_i_glide_intrahb_reward>  (207) 
-0

>  <i_i_glide_confnum>  (207) 
2

>  <i_i_glide_posenum>  (207) 
35

>  <r_i_glide_eff_state_penalty>  (207) 
0

>  <ligand_id>  (207) 
63

>  <original_smiles>  (207) 
COC(=O)C1=C(C)OC2Oc3c(OC)ccc4c3C23CCN(C)C(C4)C13

>  <smiles>  (207) 
[H]c1c([H])c2c3c(c1OC([H])([H])[H])OC1([H])OC(C([H])([H])[H])=C(C(=O)OC([H])([H])[H])C4([H])C([H])(N(C([H])([H])[H])C([H])([H])C([H])([H])C314)C2([H])[H]

$$$$
63:0:1
     RDKit          3D

 49 53  0  0  1  0  0  0  0  0999 V2000
    8.8561   -5.5072    2.3488 C   0  0  0  0  0  0  0  0  0  0  0  0
    7.4590   -5.5816    2.6264 O   0  0  0  0  0  0  0  0  0  0  0  0
    6.6332   -4.7534    1.9622 C   0  0  0  0  0  0  0  0  0  0  0  0
    6.9913   -3.6696    1.4791 O   0  0  0  0  0  0  0  0  0  0  0  0
    5.2725   -5.3151    1.8152 C   0  0  0  0  0  0  0  0  0  0  0  0
    4.2669   -4.6113    1.2176 C   0  0  0  0  0  0  0  0  0  0  0  0
    4.2589   -3.2083    0.6299 C   0  0  0  0  0  0  0  0  0  0  0  0
    2.9878   -5.1335    1.1255 O   0  0  0  0  0  0  0  0  0  0  0  0
    2.7854   -6.4951    0.9035 C   0  0  2  0  0  0  0  0  0  0  0  0
    1.5296   -6.9768    1.3613 O   0  0  0  0  0  0  0  0  0  0  0  0
    1.7117   -7.9191    2.3121 C   0  0  0  0  0  0  0  0  0  0  0  0
    0.7642   -8.5494    3.1428 C   0  0  0  0  0  0  0  0  0  0  0  0
   -0.5535   -8.2330    2.8982 O   0  0  0  0  0  0  0  0  0  0  0  0
   -1.5353   -9.0018    3.5556 C   0  0  0  0  0  0  0  0  0  0  0  0
    1.2280   -9.4168    4.1791 C   0  0  0  0  0  0  0  0  0  0  0  0
    2.6106   -9.5943    4.4266 C   0  0  0  0  0  0  0  0  0  0  0  0
    3.5546   -8.9716    3.5828 C   0  0  0  0  0  0  0  0  0  0  0  0
    3.0372   -8.2145    2.5212 C   0  0  0  0  0  0  0  0  0  0  0  0
    3.8670   -7.4127    1.5615 C   0  0  1  0  0  0  0  0  0  0  0  0
    4.5281   -8.2603    0.4488 C   0  0  0  0  0  0  0  0  0  0  0  0
    5.5824   -9.2604    0.9502 C   0  0  0  0  0  0  0  0  0  0  0  0
    6.5291   -8.6010    1.8545 N   0  0  0  0  0  0  0  0  0  0  0  0
    7.6555   -7.9631    1.1874 C   0  0  0  0  0  0  0  0  0  0  0  0
    5.8594   -7.8330    2.9274 C   0  0  2  0  0  0  0  0  0  0  0  0
    5.0632   -8.8314    3.8285 C   0  0  0  0  0  0  0  0  0  0  0  0
    4.8961   -6.6845    2.4130 C   0  0  1  0  0  0  0  0  0  0  0  0
    9.3705   -6.2752    2.9566 H   0  0  0  0  0  0  0  0  0  0  0  0
    9.3031   -4.6146    2.4942 H   0  0  0  0  0  0  0  0  0  0  0  0
    9.0240   -5.7487    1.2781 H   0  0  0  0  0  0  0  0  0  0  0  0
    5.1243   -2.5966    0.8677 H   0  0  0  0  0  0  0  0  0  0  0  0
    3.3815   -2.6746    1.0103 H   0  0  0  0  0  0  0  0  0  0  0  0
    4.1550   -3.2709   -0.4577 H   0  0  0  0  0  0  0  0  0  0  0  0
    2.8067   -6.5766   -0.1782 H   0  0  0  0  0  0  0  0  0  0  0  0
   -2.5236   -8.6524    3.2648 H   0  0  0  0  0  0  0  0  0  0  0  0
   -1.4663   -8.9205    4.6424 H   0  0  0  0  0  0  0  0  0  0  0  0
   -1.4488  -10.0477    3.2613 H   0  0  0  0  0  0  0  0  0  0  0  0
    0.5414   -9.8956    4.8349 H   0  0  0  0  0  0  0  0  0  0  0  0
    2.9473  -10.1662    5.2890 H   0  0  0  0  0  0  0  0  0  0  0  0
    3.8077   -8.8569   -0.1104 H   0  0  0  0  0  0  0  0  0  0  0  0
    4.9912   -7.5609   -0.2404 H   0  0  0  0  0  0  0  0  0  0  0  0
    5.0932  -10.1034    1.4574 H   0  0  0  0  0  0  0  0  0  0  0  0
    6.1829   -9.6725    0.1387 H   0  0  0  0  0  0  0  0  0  0  0  0
    8.3459   -7.5952    1.9392 H   0  0  0  0  0  0  0  0  0  0  0  0
    7.2828   -7.1155    0.5960 H   0  0  0  0  0  0  0  0  0  0  0  0
    8.0947   -8.6559    0.4482 H   0  0  0  0  0  0  0  0  0  0  0  0
    6.6200   -7.4156    3.5814 H   0  0  0  0  0  0  0  0  0  0  0  0
    5.1779   -8.4645    4.8562 H   0  0  0  0  0  0  0  0  0  0  0  0
    5.5606   -9.8092    3.8216 H   0  0  0  0  0  0  0  0  0  0  0  0
    4.3620   -6.3335    3.2993 H   0  0  0  0  0  0  0  0  0  0  0  0
  1  2  1  0
  1 27  1  0
  1 28  1  0
  1 29  1  0
  2  3  1  0
  3  4  2  0
  3  5  1  0
  5 26  1  0
  5  6  2  0
  6  7  1  0
  6  8  1  0
  7 30  1  0
  7 31  1  0
  7 32  1  0
  8  9  1  0
  9 19  1  0
  9 10  1  0
  9 33  1  6
 10 11  1  0
 11 18  2  0
 11 12  1  0
 12 13  1  0
 12 15  2  0
 13 14  1  0
 14 34  1  0
 14 35  1  0
 14 36  1  0
 15 16  1  0
 15 37  1  0
 16 17  2  0
 16 38  1  0
 17 25  1  0
 17 18  1  0
 18 19  1  0
 19 26  1  0
 19 20  1  6
 20 21  1  0
 20 39  1  0
 20 40  1  0
 21 22  1  0
 21 41  1  0
 21 42  1  0
 22 23  1  0
 22 24  1  0
 23 43  1  0
 23 44  1  0
 23 45  1  0
 24 25  1  0
 24 26  1  0
 24 46  1  1
 25 47  1  0
 25 48  1  0
 26 49  1  1
M  END
>  <i_m_ct_stereo_status>  (208) 
1

>  <s_m_source_file>  (208) 
/var/tmp/pbs.5076255.sched01/tmpz7m1v8ep/860kfiy9lw.sdf

>  <i_m_source_file_index>  (208) 
5

>  <i_lp_mmshare_version>  (208) 
48012

>  <i_f3d_flags>  (208) 
0

>  <s_epik_input>  (208) 
W0NAXTEyM1tDQEBIXTRPQyhbQ0gzXSk9QyhDKD1PKU9bQ0gzXSlbQ0BASF0zW0NASF0oTihbQ0gzXSlbQ0gyXVtDSDJdMilbQ0gyXWM1YzFjKE80KWMoT1tDSDNdKVtjSF1bY0hdNQ==

>  <s_epik_cmdline>  (208) 
J2VwaWtfcHl0aG9uJywgJy1waHQnLCAnMi4wJywgJy1waCcsICc3LjAnLCAnLXRuJywgJzgnLCAnLW1hJywgJzIwMCcsICctaW1hZScsICc8aW5maWxlLm1hZT4nLCAnLW9tYWUnLCAnPG91dGZpbGUubWFlPic=

>  <r_lp_tautomer_probability>  (208) 
1

>  <r_epik_Ionization_Penalty>  (208) 
0.136752

>  <r_epik_Ionization_Penalty_Charging>  (208) 
0

>  <r_epik_Ionization_Penalty_Neutral>  (208) 
0.136752

>  <r_epik_State_Penalty>  (208) 
0.126095

>  <r_epik_Charging_Adjusted_Penalty>  (208) 
0.126095

>  <i_epik_Tot_Q>  (208) 
0

>  <i_epik_Tot_abs_Q>  (208) 
0

>  <s_epik_Chemistry_Notes>  (208) 
This compound has an ester and may undergo hydrolysis at high or low pH. This compound contains an acetal/aminal-like group ( X-CH(R)-Y where X, Y are N, S, or O) that may be acid/base labile, releasing an aldehyde.

>  <s_lp_Force_Field>  (208) 
OPLS3e

>  <r_lp_Energy>  (208) 
65.2546

>  <b_lp_Chiralities_Consistent>  (208) 
1

>  <s_lp_Variant>  (208) 
63:0-1

>  <s_i_glide_gridfile>  (208) 
pfpi4k_grid

>  <i_i_glide_lignum>  (208) 
5

>  <i_i_glide_rotatable_bonds>  (208) 
3

>  <r_i_docking_score>  (208) 
-2.09828

>  <r_i_glide_ligand_efficiency>  (208) 
-0.080703

>  <r_i_glide_ligand_efficiency_sa>  (208) 
-0.239082

>  <r_i_glide_ligand_efficiency_ln>  (208) 
-0.492774

>  <r_i_glide_gscore>  (208) 
-2.09828

>  <r_i_glide_lipo>  (208) 
-0.141935

>  <r_i_glide_hbond>  (208) 
0

>  <r_i_glide_metal>  (208) 
-0

>  <r_i_glide_rewards>  (208) 
-1.04265

>  <r_i_glide_evdw>  (208) 
-15.5776

>  <r_i_glide_ecoul>  (208) 
-1.85126

>  <r_i_glide_erotb>  (208) 
0.14987

>  <r_i_glide_esite>  (208) 
-0.00698838

>  <r_i_glide_emodel>  (208) 
-12.8979

>  <r_i_glide_energy>  (208) 
-17.4289

>  <r_i_glide_einternal>  (208) 
7.05086

>  <r_i_glide_intrahb_reward>  (208) 
-0

>  <i_i_glide_confnum>  (208) 
2

>  <i_i_glide_posenum>  (208) 
33

>  <r_i_glide_eff_state_penalty>  (208) 
0

>  <ligand_id>  (208) 
63

>  <original_smiles>  (208) 
COC(=O)C1=C(C)OC2Oc3c(OC)ccc4c3C23CCN(C)C(C4)C13

>  <smiles>  (208) 
[H]c1c([H])c2c3c(c1OC([H])([H])[H])OC1([H])OC(C([H])([H])[H])=C(C(=O)OC([H])([H])[H])C4([H])C([H])(N(C([H])([H])[H])C([H])([H])C([H])([H])C314)C2([H])[H]

$$$$
63:1:0
     RDKit          3D

 50 54  0  0  1  0  0  0  0  0999 V2000
    4.4281   -0.8513    3.2572 C   0  0  0  0  0  0  0  0  0  0  0  0
    5.6474   -1.1660    2.5461 O   0  0  0  0  0  0  0  0  0  0  0  0
    5.8183   -2.2862    1.7478 C   0  0  0  0  0  0  0  0  0  0  0  0
    6.8725   -2.5965    1.2094 O   0  0  0  0  0  0  0  0  0  0  0  0
    4.6064   -3.0897    1.5392 C   0  0  0  0  0  0  0  0  0  0  0  0
    3.5770   -2.6343    0.7966 C   0  0  0  0  0  0  0  0  0  0  0  0
    3.4388   -1.2744    0.1129 C   0  0  0  0  0  0  0  0  0  0  0  0
    2.4712   -3.4233    0.5959 O   0  0  0  0  0  0  0  0  0  0  0  0
    2.6338   -4.8159    0.4203 C   0  0  2  0  0  0  0  0  0  0  0  0
    1.4932   -5.5713    0.7482 O   0  0  0  0  0  0  0  0  0  0  0  0
    1.8221   -6.4584    1.7345 C   0  0  0  0  0  0  0  0  0  0  0  0
    0.9740   -7.3056    2.4709 C   0  0  0  0  0  0  0  0  0  0  0  0
   -0.3519   -7.3149    2.0954 O   0  0  0  0  0  0  0  0  0  0  0  0
   -1.2032   -8.2816    2.6806 C   0  0  0  0  0  0  0  0  0  0  0  0
    1.5171   -8.0742    3.5322 C   0  0  0  0  0  0  0  0  0  0  0  0
    2.8746   -7.9299    3.9357 C   0  0  0  0  0  0  0  0  0  0  0  0
    3.7241   -7.0518    3.2242 C   0  0  0  0  0  0  0  0  0  0  0  0
    3.1534   -6.4221    2.1180 C   0  0  0  0  0  0  0  0  0  0  0  0
    3.8291   -5.4171    1.2464 C   0  0  1  0  0  0  0  0  0  0  0  0
    4.8753   -5.9694    0.2391 C   0  0  0  0  0  0  0  0  0  0  0  0
    6.1712   -6.4989    0.8718 C   0  0  0  0  0  0  0  0  0  0  0  0
    6.7067   -5.5579    1.8944 N   0  0  2  0  0  0  0  0  0  0  0  0
    7.9997   -6.0345    2.4712 C   0  0  0  0  0  0  0  0  0  0  0  0
    5.6519   -5.2223    2.8968 C   0  0  2  0  0  0  0  0  0  0  0  0
    5.1248   -6.5072    3.6237 C   0  0  0  0  0  0  0  0  0  0  0  0
    4.4716   -4.4416    2.2150 C   0  0  1  0  0  0  0  0  0  0  0  0
    4.5587    0.0415    3.8688 H   0  0  0  0  0  0  0  0  0  0  0  0
    4.1151   -1.6707    3.9066 H   0  0  0  0  0  0  0  0  0  0  0  0
    3.6088   -0.6190    2.5838 H   0  0  0  0  0  0  0  0  0  0  0  0
    4.2341   -0.5603    0.3443 H   0  0  0  0  0  0  0  0  0  0  0  0
    2.5222   -0.8348    0.4818 H   0  0  0  0  0  0  0  0  0  0  0  0
    3.3918   -1.3849   -0.9659 H   0  0  0  0  0  0  0  0  0  0  0  0
    2.7943   -4.9426   -0.6547 H   0  0  0  0  0  0  0  0  0  0  0  0
   -2.2056   -8.1742    2.2665 H   0  0  0  0  0  0  0  0  0  0  0  0
   -1.2787   -8.1518    3.7577 H   0  0  0  0  0  0  0  0  0  0  0  0
   -0.8522   -9.2865    2.4552 H   0  0  0  0  0  0  0  0  0  0  0  0
    0.8903   -8.7435    4.1097 H   0  0  0  0  0  0  0  0  0  0  0  0
    3.2378   -8.4477    4.8149 H   0  0  0  0  0  0  0  0  0  0  0  0
    4.4253   -6.7394   -0.3909 H   0  0  0  0  0  0  0  0  0  0  0  0
    5.1462   -5.1381   -0.4197 H   0  0  0  0  0  0  0  0  0  0  0  0
    5.9710   -7.4831    1.2959 H   0  0  0  0  0  0  0  0  0  0  0  0
    6.9378   -6.5819    0.1151 H   0  0  0  0  0  0  0  0  0  0  0  0
    7.9077   -7.0135    2.9353 H   0  0  0  0  0  0  0  0  0  0  0  0
    8.3887   -5.3435    3.2099 H   0  0  0  0  0  0  0  0  0  0  0  0
    8.7299   -6.1174    1.6713 H   0  0  0  0  0  0  0  0  0  0  0  0
    6.1179   -4.5808    3.6426 H   0  0  0  0  0  0  0  0  0  0  0  0
    5.0473   -6.2716    4.6816 H   0  0  0  0  0  0  0  0  0  0  0  0
    5.8309   -7.3415    3.5697 H   0  0  0  0  0  0  0  0  0  0  0  0
    3.7699   -4.2106    3.0166 H   0  0  0  0  0  0  0  0  0  0  0  0
    6.9063   -4.6863    1.4230 H   0  0  0  0  0  0  0  0  0  0  0  0
  1  2  1  0
  1 27  1  0
  1 28  1  0
  1 29  1  0
  2  3  1  0
  3  4  2  0
  3  5  1  0
  5 26  1  0
  5  6  2  0
  6  7  1  0
  6  8  1  0
  7 30  1  0
  7 31  1  0
  7 32  1  0
  8  9  1  0
  9 19  1  0
  9 10  1  0
  9 33  1  6
 10 11  1  0
 11 18  2  0
 11 12  1  0
 12 13  1  0
 12 15  2  0
 13 14  1  0
 14 34  1  0
 14 35  1  0
 14 36  1  0
 15 16  1  0
 15 37  1  0
 16 17  2  0
 16 38  1  0
 17 25  1  0
 17 18  1  0
 18 19  1  0
 19 26  1  0
 19 20  1  6
 20 21  1  0
 20 39  1  0
 20 40  1  0
 21 22  1  0
 21 41  1  0
 21 42  1  0
 22 23  1  0
 22 24  1  0
 22 50  1  6
 23 43  1  0
 23 44  1  0
 23 45  1  0
 24 25  1  0
 24 26  1  0
 24 46  1  1
 25 47  1  0
 25 48  1  0
 26 49  1  1
M  CHG  1  22   1
M  END
>  <i_m_ct_stereo_status>  (209) 
1

>  <s_m_source_file>  (209) 
/var/tmp/pbs.5076255.sched01/tmpz7m1v8ep/860kfiy9lw.sdf

>  <i_m_source_file_index>  (209) 
6

>  <i_lp_mmshare_version>  (209) 
48012

>  <i_f3d_flags>  (209) 
0

>  <s_epik_input>  (209) 
W0NAXTEyM1tDQEBIXTRPQyhbQ0gzXSk9QyhDKD1PKU9bQ0gzXSlbQ0BASF0zW0NASF0oTihbQ0gzXSlbQ0gyXVtDSDJdMilbQ0gyXWM1YzFjKE80KWMoT1tDSDNdKVtjSF1bY0hdNQ==

>  <s_epik_cmdline>  (209) 
J2VwaWtfcHl0aG9uJywgJy1waHQnLCAnMi4wJywgJy1waCcsICc3LjAnLCAnLXRuJywgJzgnLCAnLW1hJywgJzIwMCcsICctaW1hZScsICc8aW5maWxlLm1hZT4nLCAnLW9tYWUnLCAnPG91dGZpbGUubWFlPic=

>  <r_lp_tautomer_probability>  (209) 
1

>  <r_epik_Ionization_Penalty>  (209) 
0.935738

>  <r_epik_Ionization_Penalty_Charging>  (209) 
0.935738

>  <r_epik_Ionization_Penalty_Neutral>  (209) 
0

>  <r_epik_State_Penalty>  (209) 
0.978678

>  <r_epik_Charging_Adjusted_Penalty>  (209) 
1.91442

>  <i_epik_Tot_Q>  (209) 
1

>  <i_epik_Tot_abs_Q>  (209) 
1

>  <s_epik_Chemistry_Notes>  (209) 
This compound has an ester and may undergo hydrolysis at high or low pH. This compound contains an acetal/aminal-like group ( X-CH(R)-Y where X, Y are N, S, or O) that may be acid/base labile, releasing an aldehyde.

>  <s_lp_Force_Field>  (209) 
OPLS3e

>  <r_lp_Energy>  (209) 
64.9716

>  <b_lp_Chiralities_Consistent>  (209) 
1

>  <s_lp_Variant>  (209) 
63:0-2

>  <s_i_glide_gridfile>  (209) 
pfpi4k_grid

>  <i_i_glide_lignum>  (209) 
6

>  <i_i_glide_rotatable_bonds>  (209) 
3

>  <r_i_docking_score>  (209) 
-3.54372

>  <r_i_glide_ligand_efficiency>  (209) 
-0.136297

>  <r_i_glide_ligand_efficiency_sa>  (209) 
-0.40378

>  <r_i_glide_ligand_efficiency_ln>  (209) 
-0.832232

>  <r_i_glide_gscore>  (209) 
-3.54372

>  <r_i_glide_lipo>  (209) 
-0.283873

>  <r_i_glide_hbond>  (209) 
-0.134542

>  <r_i_glide_metal>  (209) 
-0

>  <r_i_glide_rewards>  (209) 
-1.56952

>  <r_i_glide_evdw>  (209) 
-18.5217

>  <r_i_glide_ecoul>  (209) 
-4.92926

>  <r_i_glide_erotb>  (209) 
0.14912

>  <r_i_glide_esite>  (209) 
-0.0394398

>  <r_i_glide_emodel>  (209) 
-31.7775

>  <r_i_glide_energy>  (209) 
-23.451

>  <r_i_glide_einternal>  (209) 
6.94138

>  <r_i_glide_intrahb_reward>  (209) 
-0.5

>  <i_i_glide_confnum>  (209) 
2

>  <i_i_glide_posenum>  (209) 
25

>  <r_i_glide_eff_state_penalty>  (209) 
0

>  <ligand_id>  (209) 
63

>  <original_smiles>  (209) 
COC(=O)C1=C(C)OC2Oc3c(OC)ccc4c3C23CCN(C)C(C4)C13

>  <smiles>  (209) 
[H]c1c([H])c2c3c(c1OC([H])([H])[H])OC1([H])OC(C([H])([H])[H])=C(C(=O)OC([H])([H])[H])C4([H])C31C([H])([H])C([H])([H])[N+]([H])(C([H])([H])[H])C4([H])C2([H])[H]

$$$$
63:1:1
     RDKit          3D

 50 54  0  0  1  0  0  0  0  0999 V2000
    8.2670   -3.0406   -1.0430 C   0  0  0  0  0  0  0  0  0  0  0  0
    7.0084   -3.5395   -0.6325 O   0  0  0  0  0  0  0  0  0  0  0  0
    5.9364   -2.7368   -0.5902 C   0  0  0  0  0  0  0  0  0  0  0  0
    5.9466   -1.5464   -0.9005 O   0  0  0  0  0  0  0  0  0  0  0  0
    4.7498   -3.4677   -0.0891 C   0  0  0  0  0  0  0  0  0  0  0  0
    3.5855   -3.5169   -0.7755 C   0  0  0  0  0  0  0  0  0  0  0  0
    3.2460   -2.9132   -2.1272 C   0  0  0  0  0  0  0  0  0  0  0  0
    2.5178   -4.2430   -0.2981 O   0  0  0  0  0  0  0  0  0  0  0  0
    2.7341   -5.4383    0.4072 C   0  0  2  0  0  0  0  0  0  0  0  0
    1.6843   -5.7584    1.2783 O   0  0  0  0  0  0  0  0  0  0  0  0
    2.1805   -5.8793    2.5432 C   0  0  0  0  0  0  0  0  0  0  0  0
    1.4883   -6.0742    3.7557 C   0  0  0  0  0  0  0  0  0  0  0  0
    0.1349   -6.3116    3.7866 O   0  0  0  0  0  0  0  0  0  0  0  0
   -0.3220   -7.3704    2.9465 C   0  0  0  0  0  0  0  0  0  0  0  0
    2.1943   -5.9599    4.9810 C   0  0  0  0  0  0  0  0  0  0  0  0
    3.5766   -5.6312    5.0156 C   0  0  0  0  0  0  0  0  0  0  0  0
    4.2831   -5.4495    3.8074 C   0  0  0  0  0  0  0  0  0  0  0  0
    3.5403   -5.6524    2.6332 C   0  0  0  0  0  0  0  0  0  0  0  0
    4.0512   -5.4429    1.2529 C   0  0  1  0  0  0  0  0  0  0  0  0
    4.9809   -6.5609    0.7058 C   0  0  0  0  0  0  0  0  0  0  0  0
    6.3669   -6.6274    1.3762 C   0  0  0  0  0  0  0  0  0  0  0  0
    6.9645   -5.2755    1.4953 N   0  0  2  0  0  0  0  0  0  0  0  0
    8.3510   -5.2906    2.0314 C   0  0  0  0  0  0  0  0  0  0  0  0
    6.0393   -4.3184    2.1631 C   0  0  2  0  0  0  0  0  0  0  0  0
    5.6747   -4.8219    3.6081 C   0  0  0  0  0  0  0  0  0  0  0  0
    4.7578   -4.1007    1.2973 C   0  0  1  0  0  0  0  0  0  0  0  0
    9.0016   -3.8435   -0.9936 H   0  0  0  0  0  0  0  0  0  0  0  0
    8.5991   -2.2378   -0.3840 H   0  0  0  0  0  0  0  0  0  0  0  0
    8.2238   -2.6791   -2.0691 H   0  0  0  0  0  0  0  0  0  0  0  0
    3.9797   -2.1968   -2.4826 H   0  0  0  0  0  0  0  0  0  0  0  0
    2.2790   -2.4154   -2.0660 H   0  0  0  0  0  0  0  0  0  0  0  0
    3.1488   -3.7098   -2.8634 H   0  0  0  0  0  0  0  0  0  0  0  0
    2.7367   -6.2466   -0.3173 H   0  0  0  0  0  0  0  0  0  0  0  0
   -1.4138   -7.3929    2.9404 H   0  0  0  0  0  0  0  0  0  0  0  0
    0.0377   -8.3204    3.3457 H   0  0  0  0  0  0  0  0  0  0  0  0
   -0.0035   -7.3041    1.9048 H   0  0  0  0  0  0  0  0  0  0  0  0
    1.6546   -6.0836    5.9064 H   0  0  0  0  0  0  0  0  0  0  0  0
    4.0742   -5.4727    5.9656 H   0  0  0  0  0  0  0  0  0  0  0  0
    4.4969   -7.5369    0.7757 H   0  0  0  0  0  0  0  0  0  0  0  0
    5.1247   -6.3656   -0.3597 H   0  0  0  0  0  0  0  0  0  0  0  0
    6.2856   -7.1066    2.3509 H   0  0  0  0  0  0  0  0  0  0  0  0
    7.0458   -7.2475    0.7965 H   0  0  0  0  0  0  0  0  0  0  0  0
    8.4029   -5.7179    3.0321 H   0  0  0  0  0  0  0  0  0  0  0  0
    8.7646   -4.2827    2.0668 H   0  0  0  0  0  0  0  0  0  0  0  0
    8.9942   -5.8864    1.3839 H   0  0  0  0  0  0  0  0  0  0  0  0
    6.5560   -3.3619    2.2370 H   0  0  0  0  0  0  0  0  0  0  0  0
    5.7218   -3.9711    4.2824 H   0  0  0  0  0  0  0  0  0  0  0  0
    6.4134   -5.5222    3.9995 H   0  0  0  0  0  0  0  0  0  0  0  0
    4.1390   -3.3989    1.8569 H   0  0  0  0  0  0  0  0  0  0  0  0
    7.0516   -4.9087    0.5508 H   0  0  0  0  0  0  0  0  0  0  0  0
  1  2  1  0
  1 27  1  0
  1 28  1  0
  1 29  1  0
  2  3  1  0
  3  4  2  0
  3  5  1  0
  5 26  1  0
  5  6  2  0
  6  7  1  0
  6  8  1  0
  7 30  1  0
  7 31  1  0
  7 32  1  0
  8  9  1  0
  9 19  1  0
  9 10  1  0
  9 33  1  6
 10 11  1  0
 11 18  2  0
 11 12  1  0
 12 13  1  0
 12 15  2  0
 13 14  1  0
 14 34  1  0
 14 35  1  0
 14 36  1  0
 15 16  1  0
 15 37  1  0
 16 17  2  0
 16 38  1  0
 17 25  1  0
 17 18  1  0
 18 19  1  0
 19 26  1  0
 19 20  1  6
 20 21  1  0
 20 39  1  0
 20 40  1  0
 21 22  1  0
 21 41  1  0
 21 42  1  0
 22 23  1  0
 22 24  1  0
 22 50  1  6
 23 43  1  0
 23 44  1  0
 23 45  1  0
 24 25  1  0
 24 26  1  0
 24 46  1  1
 25 47  1  0
 25 48  1  0
 26 49  1  1
M  CHG  1  22   1
M  END
>  <i_m_ct_stereo_status>  (210) 
1

>  <s_m_source_file>  (210) 
/var/tmp/pbs.5076255.sched01/tmpz7m1v8ep/860kfiy9lw.sdf

>  <i_m_source_file_index>  (210) 
6

>  <i_lp_mmshare_version>  (210) 
48012

>  <i_f3d_flags>  (210) 
0

>  <s_epik_input>  (210) 
W0NAXTEyM1tDQEBIXTRPQyhbQ0gzXSk9QyhDKD1PKU9bQ0gzXSlbQ0BASF0zW0NASF0oTihbQ0gzXSlbQ0gyXVtDSDJdMilbQ0gyXWM1YzFjKE80KWMoT1tDSDNdKVtjSF1bY0hdNQ==

>  <s_epik_cmdline>  (210) 
J2VwaWtfcHl0aG9uJywgJy1waHQnLCAnMi4wJywgJy1waCcsICc3LjAnLCAnLXRuJywgJzgnLCAnLW1hJywgJzIwMCcsICctaW1hZScsICc8aW5maWxlLm1hZT4nLCAnLW9tYWUnLCAnPG91dGZpbGUubWFlPic=

>  <r_lp_tautomer_probability>  (210) 
1

>  <r_epik_Ionization_Penalty>  (210) 
0.935738

>  <r_epik_Ionization_Penalty_Charging>  (210) 
0.935738

>  <r_epik_Ionization_Penalty_Neutral>  (210) 
0

>  <r_epik_State_Penalty>  (210) 
0.978678

>  <r_epik_Charging_Adjusted_Penalty>  (210) 
1.91442

>  <i_epik_Tot_Q>  (210) 
1

>  <i_epik_Tot_abs_Q>  (210) 
1

>  <s_epik_Chemistry_Notes>  (210) 
This compound has an ester and may undergo hydrolysis at high or low pH. This compound contains an acetal/aminal-like group ( X-CH(R)-Y where X, Y are N, S, or O) that may be acid/base labile, releasing an aldehyde.

>  <s_lp_Force_Field>  (210) 
OPLS3e

>  <r_lp_Energy>  (210) 
64.9716

>  <b_lp_Chiralities_Consistent>  (210) 
1

>  <s_lp_Variant>  (210) 
63:0-2

>  <s_i_glide_gridfile>  (210) 
pfpi4k_grid

>  <i_i_glide_lignum>  (210) 
6

>  <i_i_glide_rotatable_bonds>  (210) 
3

>  <r_i_docking_score>  (210) 
-3.54045

>  <r_i_glide_ligand_efficiency>  (210) 
-0.136171

>  <r_i_glide_ligand_efficiency_sa>  (210) 
-0.403406

>  <r_i_glide_ligand_efficiency_ln>  (210) 
-0.831462

>  <r_i_glide_gscore>  (210) 
-3.54045

>  <r_i_glide_lipo>  (210) 
-0.393333

>  <r_i_glide_hbond>  (210) 
-0.172387

>  <r_i_glide_metal>  (210) 
-0

>  <r_i_glide_rewards>  (210) 
-1.4654

>  <r_i_glide_evdw>  (210) 
-22.3668

>  <r_i_glide_ecoul>  (210) 
-3.30454

>  <r_i_glide_erotb>  (210) 
0.14912

>  <r_i_glide_esite>  (210) 
-0.0444258

>  <r_i_glide_emodel>  (210) 
-32.2217

>  <r_i_glide_energy>  (210) 
-25.6714

>  <r_i_glide_einternal>  (210) 
10.8553

>  <r_i_glide_intrahb_reward>  (210) 
-0.5

>  <i_i_glide_confnum>  (210) 
2

>  <i_i_glide_posenum>  (210) 
32

>  <r_i_glide_eff_state_penalty>  (210) 
0

>  <ligand_id>  (210) 
63

>  <original_smiles>  (210) 
COC(=O)C1=C(C)OC2Oc3c(OC)ccc4c3C23CCN(C)C(C4)C13

>  <smiles>  (210) 
[H]c1c([H])c2c3c(c1OC([H])([H])[H])OC1([H])OC(C([H])([H])[H])=C(C(=O)OC([H])([H])[H])C4([H])C31C([H])([H])C([H])([H])[N+]([H])(C([H])([H])[H])C4([H])C2([H])[H]

$$$$
63:1:2
     RDKit          3D

 50 54  0  0  1  0  0  0  0  0999 V2000
    2.5802   -2.3538    1.2522 C   0  0  0  0  0  0  0  0  0  0  0  0
    2.0585   -1.8701    2.4711 O   0  0  0  0  0  0  0  0  0  0  0  0
    1.4663   -2.6675    3.3543 C   0  0  0  0  0  0  0  0  0  0  0  0
    1.3979   -3.8848    3.2122 O   0  0  0  0  0  0  0  0  0  0  0  0
    0.8916   -1.8952    4.4982 C   0  0  0  0  0  0  0  0  0  0  0  0
    0.7885   -2.4179    5.7467 C   0  0  0  0  0  0  0  0  0  0  0  0
    1.2123   -3.7841    6.2643 C   0  0  0  0  0  0  0  0  0  0  0  0
    0.2822   -1.6637    6.7840 O   0  0  0  0  0  0  0  0  0  0  0  0
    0.5387   -0.2849    6.8642 C   0  0  2  0  0  0  0  0  0  0  0  0
   -0.4437    0.4114    7.5929 O   0  0  0  0  0  0  0  0  0  0  0  0
   -0.9877    1.3738    6.7958 C   0  0  0  0  0  0  0  0  0  0  0  0
   -2.0711    2.2316    7.0688 C   0  0  0  0  0  0  0  0  0  0  0  0
   -2.5869    2.1914    8.3444 O   0  0  0  0  0  0  0  0  0  0  0  0
   -3.6223    3.0981    8.6869 C   0  0  0  0  0  0  0  0  0  0  0  0
   -2.5723    3.0553    6.0169 C   0  0  0  0  0  0  0  0  0  0  0  0
   -2.0637    2.9668    4.6976 C   0  0  0  0  0  0  0  0  0  0  0  0
   -0.9810    2.1139    4.4237 C   0  0  0  0  0  0  0  0  0  0  0  0
   -0.4587    1.4115    5.5222 C   0  0  0  0  0  0  0  0  0  0  0  0
    0.6407    0.4065    5.4611 C   0  0  1  0  0  0  0  0  0  0  0  0
    2.0789    0.9835    5.3072 C   0  0  0  0  0  0  0  0  0  0  0  0
    2.3725    1.6254    3.9371 C   0  0  0  0  0  0  0  0  0  0  0  0
    1.8713    0.7717    2.8398 N   0  0  2  0  0  0  0  0  0  0  0  0
    2.2191    1.2601    1.4901 C   0  0  0  0  0  0  0  0  0  0  0  0
    0.4467    0.3923    3.0110 C   0  0  2  0  0  0  0  0  0  0  0  0
   -0.4609    1.6660    3.0507 C   0  0  0  0  0  0  0  0  0  0  0  0
    0.2770   -0.5013    4.2921 C   0  0  1  0  0  0  0  0  0  0  0  0
    2.9279   -1.5024    0.6672 H   0  0  0  0  0  0  0  0  0  0  0  0
    1.8236   -2.8717    0.6665 H   0  0  0  0  0  0  0  0  0  0  0  0
    3.4262   -3.0076    1.4510 H   0  0  0  0  0  0  0  0  0  0  0  0
    1.4630   -4.5122    5.5028 H   0  0  0  0  0  0  0  0  0  0  0  0
    0.4087   -4.2082    6.8629 H   0  0  0  0  0  0  0  0  0  0  0  0
    2.0811   -3.6707    6.9087 H   0  0  0  0  0  0  0  0  0  0  0  0
    1.4584   -0.1622    7.4423 H   0  0  0  0  0  0  0  0  0  0  0  0
   -3.9049    2.9361    9.7268 H   0  0  0  0  0  0  0  0  0  0  0  0
   -4.5119    2.9407    8.0783 H   0  0  0  0  0  0  0  0  0  0  0  0
   -3.2889    4.1316    8.5882 H   0  0  0  0  0  0  0  0  0  0  0  0
   -3.3974    3.7185    6.1852 H   0  0  0  0  0  0  0  0  0  0  0  0
   -2.5301    3.5102    3.8844 H   0  0  0  0  0  0  0  0  0  0  0  0
    2.2954    1.7064    6.0968 H   0  0  0  0  0  0  0  0  0  0  0  0
    2.7856    0.1614    5.4471 H   0  0  0  0  0  0  0  0  0  0  0  0
    1.9296    2.6208    3.8832 H   0  0  0  0  0  0  0  0  0  0  0  0
    3.4508    1.7538    3.8180 H   0  0  0  0  0  0  0  0  0  0  0  0
    1.7989    2.2477    1.2793 H   0  0  0  0  0  0  0  0  0  0  0  0
    1.8588    0.5570    0.7328 H   0  0  0  0  0  0  0  0  0  0  0  0
    3.3051    1.3231    1.3872 H   0  0  0  0  0  0  0  0  0  0  0  0
    0.1463   -0.1883    2.1388 H   0  0  0  0  0  0  0  0  0  0  0  0
   -1.3409    1.4658    2.4364 H   0  0  0  0  0  0  0  0  0  0  0  0
    0.0159    2.5234    2.5701 H   0  0  0  0  0  0  0  0  0  0  0  0
   -0.7907   -0.7237    4.3549 H   0  0  0  0  0  0  0  0  0  0  0  0
    2.3556   -0.1147    2.9067 H   0  0  0  0  0  0  0  0  0  0  0  0
  1  2  1  0
  1 27  1  0
  1 28  1  0
  1 29  1  0
  2  3  1  0
  3  4  2  0
  3  5  1  0
  5 26  1  0
  5  6  2  0
  6  7  1  0
  6  8  1  0
  7 30  1  0
  7 31  1  0
  7 32  1  0
  8  9  1  0
  9 19  1  0
  9 10  1  0
  9 33  1  1
 10 11  1  0
 11 18  2  0
 11 12  1  0
 12 13  1  0
 12 15  2  0
 13 14  1  0
 14 34  1  0
 14 35  1  0
 14 36  1  0
 15 16  1  0
 15 37  1  0
 16 17  2  0
 16 38  1  0
 17 25  1  0
 17 18  1  0
 18 19  1  0
 19 26  1  0
 19 20  1  6
 20 21  1  0
 20 39  1  0
 20 40  1  0
 21 22  1  0
 21 41  1  0
 21 42  1  0
 22 23  1  0
 22 24  1  0
 22 50  1  1
 23 43  1  0
 23 44  1  0
 23 45  1  0
 24 25  1  0
 24 26  1  0
 24 46  1  6
 25 47  1  0
 25 48  1  0
 26 49  1  1
M  CHG  1  22   1
M  END
>  <i_m_ct_stereo_status>  (211) 
1

>  <s_m_source_file>  (211) 
/var/tmp/pbs.5076255.sched01/tmpz7m1v8ep/860kfiy9lw.sdf

>  <i_m_source_file_index>  (211) 
6

>  <i_lp_mmshare_version>  (211) 
48012

>  <i_f3d_flags>  (211) 
0

>  <s_epik_input>  (211) 
W0NAXTEyM1tDQEBIXTRPQyhbQ0gzXSk9QyhDKD1PKU9bQ0gzXSlbQ0BASF0zW0NASF0oTihbQ0gzXSlbQ0gyXVtDSDJdMilbQ0gyXWM1YzFjKE80KWMoT1tDSDNdKVtjSF1bY0hdNQ==

>  <s_epik_cmdline>  (211) 
J2VwaWtfcHl0aG9uJywgJy1waHQnLCAnMi4wJywgJy1waCcsICc3LjAnLCAnLXRuJywgJzgnLCAnLW1hJywgJzIwMCcsICctaW1hZScsICc8aW5maWxlLm1hZT4nLCAnLW9tYWUnLCAnPG91dGZpbGUubWFlPic=

>  <r_lp_tautomer_probability>  (211) 
1

>  <r_epik_Ionization_Penalty>  (211) 
0.935738

>  <r_epik_Ionization_Penalty_Charging>  (211) 
0.935738

>  <r_epik_Ionization_Penalty_Neutral>  (211) 
0

>  <r_epik_State_Penalty>  (211) 
0.978678

>  <r_epik_Charging_Adjusted_Penalty>  (211) 
1.91442

>  <i_epik_Tot_Q>  (211) 
1

>  <i_epik_Tot_abs_Q>  (211) 
1

>  <s_epik_Chemistry_Notes>  (211) 
This compound has an ester and may undergo hydrolysis at high or low pH. This compound contains an acetal/aminal-like group ( X-CH(R)-Y where X, Y are N, S, or O) that may be acid/base labile, releasing an aldehyde.

>  <s_lp_Force_Field>  (211) 
OPLS3e

>  <r_lp_Energy>  (211) 
64.9716

>  <b_lp_Chiralities_Consistent>  (211) 
1

>  <s_lp_Variant>  (211) 
63:0-2

>  <s_i_glide_gridfile>  (211) 
pfpi4k_grid

>  <i_i_glide_lignum>  (211) 
6

>  <i_i_glide_rotatable_bonds>  (211) 
3

>  <r_i_docking_score>  (211) 
-3.35768

>  <r_i_glide_ligand_efficiency>  (211) 
-0.129142

>  <r_i_glide_ligand_efficiency_sa>  (211) 
-0.382582

>  <r_i_glide_ligand_efficiency_ln>  (211) 
-0.788541

>  <r_i_glide_gscore>  (211) 
-3.35768

>  <r_i_glide_lipo>  (211) 
-0.0852726

>  <r_i_glide_hbond>  (211) 
-0.0119439

>  <r_i_glide_metal>  (211) 
-0

>  <r_i_glide_rewards>  (211) 
-1.5245

>  <r_i_glide_evdw>  (211) 
-21.6871

>  <r_i_glide_ecoul>  (211) 
-5.1308

>  <r_i_glide_erotb>  (211) 
0.14912

>  <r_i_glide_esite>  (211) 
-0.0311145

>  <r_i_glide_emodel>  (211) 
-34.805

>  <r_i_glide_energy>  (211) 
-26.8179

>  <r_i_glide_einternal>  (211) 
6.27103

>  <r_i_glide_intrahb_reward>  (211) 
-0.5

>  <i_i_glide_confnum>  (211) 
2

>  <i_i_glide_posenum>  (211) 
4

>  <r_i_glide_eff_state_penalty>  (211) 
0

>  <ligand_id>  (211) 
63

>  <original_smiles>  (211) 
COC(=O)C1=C(C)OC2Oc3c(OC)ccc4c3C23CCN(C)C(C4)C13

>  <smiles>  (211) 
[H]c1c([H])c2c3c(c1OC([H])([H])[H])OC1([H])OC(C([H])([H])[H])=C(C(=O)OC([H])([H])[H])C4([H])C31C([H])([H])C([H])([H])[N+]([H])(C([H])([H])[H])C4([H])C2([H])[H]

$$$$
64:0:0
     RDKit          3D

 49 53  0  0  1  0  0  0  0  0999 V2000
    6.8780   -6.1283    1.3882 C   0  0  0  0  0  0  0  0  0  0  0  0
    6.2997   -4.9188    1.4213 C   0  0  0  0  0  0  0  0  0  0  0  0
    6.6372   -3.8800    0.4390 C   0  0  0  0  0  0  0  0  0  0  0  0
    7.7883   -3.7741    0.0105 O   0  0  0  0  0  0  0  0  0  0  0  0
    5.5084   -2.8294    0.0906 C   0  0  1  0  0  0  0  0  0  0  0  0
    6.0593   -1.9826   -1.1272 C   0  0  2  0  0  0  0  0  0  0  0  0
    5.0349   -1.0762   -1.7916 C   0  0  0  0  0  0  0  0  0  0  0  0
    4.1976   -1.8643   -2.4779 C   0  0  0  0  0  0  0  0  0  0  0  0
    3.0224   -1.4791   -3.3318 C   0  0  0  0  0  0  0  0  0  0  0  0
    4.5750   -3.3053   -2.1796 C   0  0  1  0  0  0  0  0  0  0  0  0
    6.0654   -3.0518   -2.2538 C   0  0  0  0  0  0  0  0  0  0  0  0
    4.3007   -3.4861   -0.6444 C   0  0  1  0  0  0  0  0  0  0  0  0
    3.8287   -4.6554    0.0162 O   0  0  0  0  0  0  0  0  0  0  0  0
    3.1435   -4.4821    1.2546 C   0  0  1  0  0  0  0  0  0  0  0  0
    2.0132   -5.3220    1.2101 O   0  0  0  0  0  0  0  0  0  0  0  0
    3.9986   -5.0128    2.4360 C   0  0  0  0  0  0  0  0  0  0  0  0
    5.4144   -4.4297    2.5408 C   0  0  2  0  0  0  0  0  0  0  0  0
    5.5010   -2.9005    2.6940 C   0  0  0  0  0  0  0  0  0  0  0  0
    5.0392   -2.1119    1.4453 C   0  0  2  0  0  0  0  0  0  0  0  0
    3.5218   -1.7841    1.6703 C   0  0  0  0  0  0  0  0  0  0  0  0
    3.2503   -1.1194    3.0592 C   0  0  0  0  0  0  0  0  0  0  0  0
    3.0681   -0.6406    0.7388 C   0  0  0  0  0  0  0  0  0  0  0  0
    2.5650   -3.0293    1.5425 C   0  0  0  0  0  0  0  0  0  0  0  0
    6.6787   -6.8603    2.1581 H   0  0  0  0  0  0  0  0  0  0  0  0
    7.5658   -6.4158    0.6066 H   0  0  0  0  0  0  0  0  0  0  0  0
    7.0265   -1.5179   -0.9552 H   0  0  0  0  0  0  0  0  0  0  0  0
    5.0205   -0.0002   -1.7434 H   0  0  0  0  0  0  0  0  0  0  0  0
    3.1785   -1.8244   -4.3538 H   0  0  0  0  0  0  0  0  0  0  0  0
    2.8847   -0.3969   -3.3317 H   0  0  0  0  0  0  0  0  0  0  0  0
    2.1296   -1.9546   -2.9264 H   0  0  0  0  0  0  0  0  0  0  0  0
    4.1694   -4.0414   -2.8719 H   0  0  0  0  0  0  0  0  0  0  0  0
    6.3781   -2.6689   -3.2255 H   0  0  0  0  0  0  0  0  0  0  0  0
    6.6641   -3.9260   -2.1149 H   0  0  0  0  0  0  0  0  0  0  0  0
    3.4124   -2.8873   -0.6126 H   0  0  0  0  0  0  0  0  0  0  0  0
    2.3423   -6.2055    1.1209 H   0  0  0  0  0  0  0  0  0  0  0  0
    3.4517   -4.8387    3.3622 H   0  0  0  0  0  0  0  0  0  0  0  0
    4.0770   -6.0963    2.3395 H   0  0  0  0  0  0  0  0  0  0  0  0
    5.8442   -4.8468    3.4525 H   0  0  0  0  0  0  0  0  0  0  0  0
    5.1044   -2.5977    3.6550 H   0  0  0  0  0  0  0  0  0  0  0  0
    6.5403   -2.6202    2.7707 H   0  0  0  0  0  0  0  0  0  0  0  0
    5.5661   -1.1567    1.4860 H   0  0  0  0  0  0  0  0  0  0  0  0
    2.2734   -0.6358    3.0972 H   0  0  0  0  0  0  0  0  0  0  0  0
    3.9985   -0.3559    3.2836 H   0  0  0  0  0  0  0  0  0  0  0  0
    3.2222   -1.8330    3.8832 H   0  0  0  0  0  0  0  0  0  0  0  0
    2.0787   -0.2669    1.0076 H   0  0  0  0  0  0  0  0  0  0  0  0
    2.9620   -0.9332   -0.2951 H   0  0  0  0  0  0  0  0  0  0  0  0
    3.7561    0.2047    0.7596 H   0  0  0  0  0  0  0  0  0  0  0  0
    1.8214   -2.8127    0.7764 H   0  0  0  0  0  0  0  0  0  0  0  0
    1.9865   -3.1215    2.4627 H   0  0  0  0  0  0  0  0  0  0  0  0
  1  2  2  0
  1 24  1  0
  1 25  1  0
  2 17  1  0
  2  3  1  0
  3  4  2  0
  5  3  1  1
  5 12  1  0
  5 19  1  0
  5  6  1  0
  6 11  1  0
  6  7  1  0
  6 26  1  1
  7  8  2  0
  7 27  1  0
  8  9  1  0
  8 10  1  0
  9 28  1  0
  9 29  1  0
  9 30  1  0
 10 11  1  0
 10 12  1  0
 10 31  1  6
 11 32  1  0
 11 33  1  0
 12 13  1  0
 12 34  1  1
 13 14  1  0
 14 23  1  0
 14 15  1  6
 14 16  1  0
 15 35  1  0
 16 17  1  0
 16 36  1  0
 16 37  1  0
 17 18  1  0
 17 38  1  1
 18 19  1  0
 18 39  1  0
 18 40  1  0
 19 20  1  0
 19 41  1  1
 20 21  1  0
 20 22  1  0
 20 23  1  0
 21 42  1  0
 21 43  1  0
 21 44  1  0
 22 45  1  0
 22 46  1  0
 22 47  1  0
 23 48  1  0
 23 49  1  0
M  END
>  <i_m_ct_stereo_status>  (212) 
1

>  <s_m_source_file>  (212) 
/var/tmp/pbs.5076255.sched01/tmpz7m1v8ep/860kfiy9lw.sdf

>  <i_m_source_file_index>  (212) 
7

>  <i_lp_mmshare_version>  (212) 
48012

>  <i_f3d_flags>  (212) 
0

>  <s_epik_input>  (212) 
W0NIM11DKFtDSDNdKShbQ0gyXTEpW0NASF0yW0NIMl1bQ0BIXShDKD1bQ0gyXSlDMz1PKVtDSDJdW0NAXTEoW09IXSlPW0NAQEhdNFtDQEhdKFtDSDJdNSlDKFtDSDNdKT1bQ0hdW0NASF01W0NAXTIzNA==

>  <s_epik_cmdline>  (212) 
J2VwaWtfcHl0aG9uJywgJy1waHQnLCAnMi4wJywgJy1waCcsICc3LjAnLCAnLXRuJywgJzgnLCAnLW1hJywgJzIwMCcsICctaW1hZScsICc8aW5maWxlLm1hZT4nLCAnLW9tYWUnLCAnPG91dGZpbGUubWFlPic=

>  <r_lp_tautomer_probability>  (212) 
1

>  <r_epik_Ionization_Penalty>  (212) 
2.94646e-07

>  <r_epik_Ionization_Penalty_Charging>  (212) 
0

>  <r_epik_Ionization_Penalty_Neutral>  (212) 
2.94646e-07

>  <r_epik_State_Penalty>  (212) 
-0

>  <r_epik_Charging_Adjusted_Penalty>  (212) 
0

>  <i_epik_Tot_Q>  (212) 
0

>  <i_epik_Tot_abs_Q>  (212) 
0

>  <s_lp_Force_Field>  (212) 
OPLS3e

>  <r_lp_Energy>  (212) 
101.514

>  <b_lp_Chiralities_Consistent>  (212) 
1

>  <s_lp_Variant>  (212) 
64:0-1

>  <s_i_glide_gridfile>  (212) 
pfpi4k_grid

>  <i_i_glide_lignum>  (212) 
7

>  <i_i_glide_rotatable_bonds>  (212) 
1

>  <r_i_docking_score>  (212) 
-3.27525

>  <r_i_glide_ligand_efficiency>  (212) 
-0.142402

>  <r_i_glide_ligand_efficiency_sa>  (212) 
-0.404973

>  <r_i_glide_ligand_efficiency_ln>  (212) 
-0.791985

>  <r_i_glide_gscore>  (212) 
-3.27525

>  <r_i_glide_lipo>  (212) 
-0.620662

>  <r_i_glide_hbond>  (212) 
0

>  <r_i_glide_metal>  (212) 
-0

>  <r_i_glide_rewards>  (212) 
-1.41944

>  <r_i_glide_evdw>  (212) 
-21.4333

>  <r_i_glide_ecoul>  (212) 
-1.08074

>  <r_i_glide_erotb>  (212) 
0

>  <r_i_glide_esite>  (212) 
-0.00137295

>  <r_i_glide_emodel>  (212) 
-26.4937

>  <r_i_glide_energy>  (212) 
-22.514

>  <r_i_glide_einternal>  (212) 
0.0812265

>  <r_i_glide_intrahb_reward>  (212) 
-0

>  <i_i_glide_confnum>  (212) 
2

>  <i_i_glide_posenum>  (212) 
30

>  <r_i_glide_eff_state_penalty>  (212) 
0

>  <ligand_id>  (212) 
64

>  <original_smiles>  (212) 
C=C1C(=O)C23C4C=C(C)C(C4)C2OC2(O)CC1CC3C(C)(C)C2

>  <smiles>  (212) 
[H]OC12OC3([H])C4([H])C(C([H])([H])[H])=C([H])C([H])(C4([H])[H])C34C(=O)C(=C([H])[H])C([H])(C1([H])[H])C([H])([H])C4([H])C(C([H])([H])[H])(C([H])([H])[H])C2([H])[H]

$$$$
64:0:1
     RDKit          3D

 49 53  0  0  1  0  0  0  0  0999 V2000
    6.6490   -5.4574    2.4984 C   0  0  0  0  0  0  0  0  0  0  0  0
    6.0570   -4.2635    2.2986 C   0  0  0  0  0  0  0  0  0  0  0  0
    6.3741   -3.4404    1.1368 C   0  0  0  0  0  0  0  0  0  0  0  0
    7.5150   -3.4358    0.6542 O   0  0  0  0  0  0  0  0  0  0  0  0
    5.2520   -2.4586    0.6204 C   0  0  1  0  0  0  0  0  0  0  0  0
    5.7791   -1.8832   -0.7605 C   0  0  2  0  0  0  0  0  0  0  0  0
    4.7383   -1.1274   -1.5627 C   0  0  0  0  0  0  0  0  0  0  0  0
    3.8912   -2.0344   -2.0394 C   0  0  0  0  0  0  0  0  0  0  0  0
    2.6860   -1.8480   -2.9260 C   0  0  0  0  0  0  0  0  0  0  0  0
    4.2567   -3.3787   -1.4718 C   0  0  1  0  0  0  0  0  0  0  0  0
    5.7569   -3.1799   -1.6423 C   0  0  0  0  0  0  0  0  0  0  0  0
    4.0159   -3.2352    0.0784 C   0  0  1  0  0  0  0  0  0  0  0  0
    3.5375   -4.2380    0.9628 O   0  0  0  0  0  0  0  0  0  0  0  0
    2.9502   -3.8111    2.1871 C   0  0  1  0  0  0  0  0  0  0  0  0
    1.8081   -4.6400    2.3954 O   0  0  0  0  0  0  0  0  0  0  0  0
    3.8282   -4.1092    3.4180 C   0  0  0  0  0  0  0  0  0  0  0  0
    5.2439   -3.5338    3.3327 C   0  0  2  0  0  0  0  0  0  0  0  0
    5.3345   -2.0022    3.1825 C   0  0  0  0  0  0  0  0  0  0  0  0
    4.8183   -1.4823    1.8267 C   0  0  2  0  0  0  0  0  0  0  0  0
    3.3055   -1.1164    2.0430 C   0  0  0  0  0  0  0  0  0  0  0  0
    3.0894   -0.1748    3.2756 C   0  0  0  0  0  0  0  0  0  0  0  0
    2.8174   -0.1762    0.9449 C   0  0  0  0  0  0  0  0  0  0  0  0
    2.3335   -2.3416    2.1996 C   0  0  0  0  0  0  0  0  0  0  0  0
    6.4921   -6.0050    3.4104 H   0  0  0  0  0  0  0  0  0  0  0  0
    7.3181   -5.8961    1.7720 H   0  0  0  0  0  0  0  0  0  0  0  0
    6.7569   -1.4090   -0.7262 H   0  0  0  0  0  0  0  0  0  0  0  0
    4.7250   -0.0561   -1.7210 H   0  0  0  0  0  0  0  0  0  0  0  0
    2.7927   -2.3796   -3.8697 H   0  0  0  0  0  0  0  0  0  0  0  0
    2.5406   -0.7838   -3.1205 H   0  0  0  0  0  0  0  0  0  0  0  0
    1.8158   -2.2506   -2.4056 H   0  0  0  0  0  0  0  0  0  0  0  0
    3.8171   -4.2364   -1.9684 H   0  0  0  0  0  0  0  0  0  0  0  0
    6.0379   -2.9781   -2.6862 H   0  0  0  0  0  0  0  0  0  0  0  0
    6.3262   -4.0442   -1.3467 H   0  0  0  0  0  0  0  0  0  0  0  0
    3.1356   -2.6281    0.0169 H   0  0  0  0  0  0  0  0  0  0  0  0
    1.0860   -4.1519    2.0704 H   0  0  0  0  0  0  0  0  0  0  0  0
    3.3193   -3.7501    4.3036 H   0  0  0  0  0  0  0  0  0  0  0  0
    3.8971   -5.1898    3.5241 H   0  0  0  0  0  0  0  0  0  0  0  0
    5.7070   -3.7727    4.2933 H   0  0  0  0  0  0  0  0  0  0  0  0
    4.9617   -1.5208    4.0783 H   0  0  0  0  0  0  0  0  0  0  0  0
    6.3517   -1.6726    3.1730 H   0  0  0  0  0  0  0  0  0  0  0  0
    5.3405   -0.5423    1.6536 H   0  0  0  0  0  0  0  0  0  0  0  0
    2.1158    0.3191    3.2508 H   0  0  0  0  0  0  0  0  0  0  0  0
    3.8446    0.6121    3.3082 H   0  0  0  0  0  0  0  0  0  0  0  0
    3.0922   -0.7031    4.2308 H   0  0  0  0  0  0  0  0  0  0  0  0
    1.8354    0.2532    1.1538 H   0  0  0  0  0  0  0  0  0  0  0  0
    2.6602   -0.6762   -0.0093 H   0  0  0  0  0  0  0  0  0  0  0  0
    3.5208    0.6375    0.7644 H   0  0  0  0  0  0  0  0  0  0  0  0
    1.5420   -2.2715    1.4619 H   0  0  0  0  0  0  0  0  0  0  0  0
    1.8126   -2.2492    3.1549 H   0  0  0  0  0  0  0  0  0  0  0  0
  1  2  2  0
  1 24  1  0
  1 25  1  0
  2 17  1  0
  2  3  1  0
  3  4  2  0
  5  3  1  1
  5 12  1  0
  5 19  1  0
  5  6  1  0
  6 11  1  0
  6  7  1  0
  6 26  1  1
  7  8  2  0
  7 27  1  0
  8  9  1  0
  8 10  1  0
  9 28  1  0
  9 29  1  0
  9 30  1  0
 10 11  1  0
 10 12  1  0
 10 31  1  6
 11 32  1  0
 11 33  1  0
 12 13  1  0
 12 34  1  6
 13 14  1  0
 14 23  1  0
 14 15  1  1
 14 16  1  0
 15 35  1  0
 16 17  1  0
 16 36  1  0
 16 37  1  0
 17 18  1  0
 17 38  1  1
 18 19  1  0
 18 39  1  0
 18 40  1  0
 19 20  1  0
 19 41  1  6
 20 21  1  0
 20 22  1  0
 20 23  1  0
 21 42  1  0
 21 43  1  0
 21 44  1  0
 22 45  1  0
 22 46  1  0
 22 47  1  0
 23 48  1  0
 23 49  1  0
M  END
>  <i_m_ct_stereo_status>  (213) 
1

>  <s_m_source_file>  (213) 
/var/tmp/pbs.5076255.sched01/tmpz7m1v8ep/860kfiy9lw.sdf

>  <i_m_source_file_index>  (213) 
7

>  <i_lp_mmshare_version>  (213) 
48012

>  <i_f3d_flags>  (213) 
0

>  <s_epik_input>  (213) 
W0NIM11DKFtDSDNdKShbQ0gyXTEpW0NASF0yW0NIMl1bQ0BIXShDKD1bQ0gyXSlDMz1PKVtDSDJdW0NAXTEoW09IXSlPW0NAQEhdNFtDQEhdKFtDSDJdNSlDKFtDSDNdKT1bQ0hdW0NASF01W0NAXTIzNA==

>  <s_epik_cmdline>  (213) 
J2VwaWtfcHl0aG9uJywgJy1waHQnLCAnMi4wJywgJy1waCcsICc3LjAnLCAnLXRuJywgJzgnLCAnLW1hJywgJzIwMCcsICctaW1hZScsICc8aW5maWxlLm1hZT4nLCAnLW9tYWUnLCAnPG91dGZpbGUubWFlPic=

>  <r_lp_tautomer_probability>  (213) 
1

>  <r_epik_Ionization_Penalty>  (213) 
2.94646e-07

>  <r_epik_Ionization_Penalty_Charging>  (213) 
0

>  <r_epik_Ionization_Penalty_Neutral>  (213) 
2.94646e-07

>  <r_epik_State_Penalty>  (213) 
-0

>  <r_epik_Charging_Adjusted_Penalty>  (213) 
0

>  <i_epik_Tot_Q>  (213) 
0

>  <i_epik_Tot_abs_Q>  (213) 
0

>  <s_lp_Force_Field>  (213) 
OPLS3e

>  <r_lp_Energy>  (213) 
101.514

>  <b_lp_Chiralities_Consistent>  (213) 
1

>  <s_lp_Variant>  (213) 
64:0-1

>  <s_i_glide_gridfile>  (213) 
pfpi4k_grid

>  <i_i_glide_lignum>  (213) 
7

>  <i_i_glide_rotatable_bonds>  (213) 
1

>  <r_i_docking_score>  (213) 
-3.10849

>  <r_i_glide_ligand_efficiency>  (213) 
-0.135152

>  <r_i_glide_ligand_efficiency_sa>  (213) 
-0.384354

>  <r_i_glide_ligand_efficiency_ln>  (213) 
-0.751661

>  <r_i_glide_gscore>  (213) 
-3.10849

>  <r_i_glide_lipo>  (213) 
-0.362979

>  <r_i_glide_hbond>  (213) 
0

>  <r_i_glide_metal>  (213) 
-0

>  <r_i_glide_rewards>  (213) 
-1.37542

>  <r_i_glide_evdw>  (213) 
-16.6055

>  <r_i_glide_ecoul>  (213) 
-3.5868

>  <r_i_glide_erotb>  (213) 
0

>  <r_i_glide_esite>  (213) 
-0.00179833

>  <r_i_glide_emodel>  (213) 
-22.9318

>  <r_i_glide_energy>  (213) 
-20.1923

>  <r_i_glide_einternal>  (213) 
1.06235

>  <r_i_glide_intrahb_reward>  (213) 
-0

>  <i_i_glide_confnum>  (213) 
1

>  <i_i_glide_posenum>  (213) 
20

>  <r_i_glide_eff_state_penalty>  (213) 
0

>  <ligand_id>  (213) 
64

>  <original_smiles>  (213) 
C=C1C(=O)C23C4C=C(C)C(C4)C2OC2(O)CC1CC3C(C)(C)C2

>  <smiles>  (213) 
[H]OC12OC3([H])C4([H])C(C([H])([H])[H])=C([H])C([H])(C4([H])[H])C34C(=O)C(=C([H])[H])C([H])(C1([H])[H])C([H])([H])C4([H])C(C([H])([H])[H])(C([H])([H])[H])C2([H])[H]

$$$$
64:0:2
     RDKit          3D

 49 53  0  0  1  0  0  0  0  0999 V2000
    4.0395   -6.1485    5.0661 C   0  0  0  0  0  0  0  0  0  0  0  0
    4.2996   -4.9989    4.4261 C   0  0  0  0  0  0  0  0  0  0  0  0
    5.0140   -4.9848    3.1434 C   0  0  0  0  0  0  0  0  0  0  0  0
    5.9101   -5.8022    2.9129 O   0  0  0  0  0  0  0  0  0  0  0  0
    4.6950   -3.7977    2.1571 C   0  0  1  0  0  0  0  0  0  0  0  0
    5.4286   -4.1625    0.7952 C   0  0  2  0  0  0  0  0  0  0  0  0
    5.0510   -3.2693   -0.3772 C   0  0  0  0  0  0  0  0  0  0  0  0
    3.8049   -3.6018   -0.7392 C   0  0  0  0  0  0  0  0  0  0  0  0
    2.9537   -3.0568   -1.8610 C   0  0  0  0  0  0  0  0  0  0  0  0
    3.2953   -4.6297    0.2578 C   0  0  1  0  0  0  0  0  0  0  0  0
    4.6026   -5.4066    0.3317 C   0  0  0  0  0  0  0  0  0  0  0  0
    3.2291   -3.8581    1.6245 C   0  0  1  0  0  0  0  0  0  0  0  0
    2.2467   -4.0132    2.6436 O   0  0  0  0  0  0  0  0  0  0  0  0
    2.0345   -2.9170    3.5321 C   0  0  1  0  0  0  0  0  0  0  0  0
    0.6435   -2.8066    3.7181 O   0  0  0  0  0  0  0  0  0  0  0  0
    2.5988   -3.2169    4.9466 C   0  0  0  0  0  0  0  0  0  0  0  0
    4.0773   -3.6313    5.0193 C   0  0  2  0  0  0  0  0  0  0  0  0
    5.0942   -2.6222    4.4686 C   0  0  0  0  0  0  0  0  0  0  0  0
    4.9640   -2.4084    2.9202 C   0  0  2  0  0  0  0  0  0  0  0  0
    3.9761   -1.1897    2.6771 C   0  0  0  0  0  0  0  0  0  0  0  0
    4.3873    0.0565    3.5296 C   0  0  0  0  0  0  0  0  0  0  0  0
    4.1088   -0.6057    1.2401 C   0  0  0  0  0  0  0  0  0  0  0  0
    2.4599   -1.4879    2.9996 C   0  0  0  0  0  0  0  0  0  0  0  0
    3.5825   -6.1482    6.0449 H   0  0  0  0  0  0  0  0  0  0  0  0
    4.2830   -7.1092    4.6368 H   0  0  0  0  0  0  0  0  0  0  0  0
    6.5026   -4.3426    0.8543 H   0  0  0  0  0  0  0  0  0  0  0  0
    5.6988   -2.5358   -0.8329 H   0  0  0  0  0  0  0  0  0  0  0  0
    2.6998   -3.8537   -2.5562 H   0  0  0  0  0  0  0  0  0  0  0  0
    3.4636   -2.2593   -2.3986 H   0  0  0  0  0  0  0  0  0  0  0  0
    2.0229   -2.6635   -1.4581 H   0  0  0  0  0  0  0  0  0  0  0  0
    2.4172   -5.1852   -0.0674 H   0  0  0  0  0  0  0  0  0  0  0  0
    4.9255   -5.7817   -0.6439 H   0  0  0  0  0  0  0  0  0  0  0  0
    4.5427   -6.2842    0.9718 H   0  0  0  0  0  0  0  0  0  0  0  0
    2.8888   -2.9264    1.2177 H   0  0  0  0  0  0  0  0  0  0  0  0
    0.2881   -2.4710    2.9105 H   0  0  0  0  0  0  0  0  0  0  0  0
    2.4192   -2.3513    5.5827 H   0  0  0  0  0  0  0  0  0  0  0  0
    2.0010   -4.0197    5.3763 H   0  0  0  0  0  0  0  0  0  0  0  0
    4.3097   -3.7315    6.0808 H   0  0  0  0  0  0  0  0  0  0  0  0
    5.0967   -1.7257    5.0745 H   0  0  0  0  0  0  0  0  0  0  0  0
    6.0797   -3.0350    4.6784 H   0  0  0  0  0  0  0  0  0  0  0  0
    5.9440   -2.0652    2.5862 H   0  0  0  0  0  0  0  0  0  0  0  0
    3.9049    0.9698    3.1799 H   0  0  0  0  0  0  0  0  0  0  0  0
    5.4649    0.2257    3.4934 H   0  0  0  0  0  0  0  0  0  0  0  0
    4.0880   -0.0113    4.5753 H   0  0  0  0  0  0  0  0  0  0  0  0
    3.6069    0.3583    1.1502 H   0  0  0  0  0  0  0  0  0  0  0  0
    3.6470   -1.1974    0.4596 H   0  0  0  0  0  0  0  0  0  0  0  0
    5.1534   -0.4545    0.9695 H   0  0  0  0  0  0  0  0  0  0  0  0
    1.8394   -1.2403    2.1349 H   0  0  0  0  0  0  0  0  0  0  0  0
    2.1227   -0.7842    3.7614 H   0  0  0  0  0  0  0  0  0  0  0  0
  1  2  2  0
  1 24  1  0
  1 25  1  0
  2 17  1  0
  2  3  1  0
  3  4  2  0
  5  3  1  1
  5 12  1  0
  5 19  1  0
  5  6  1  0
  6 11  1  0
  6  7  1  0
  6 26  1  1
  7  8  2  0
  7 27  1  0
  8  9  1  0
  8 10  1  0
  9 28  1  0
  9 29  1  0
  9 30  1  0
 10 11  1  0
 10 12  1  0
 10 31  1  6
 11 32  1  0
 11 33  1  0
 12 13  1  0
 12 34  1  6
 13 14  1  0
 14 23  1  0
 14 15  1  1
 14 16  1  0
 15 35  1  0
 16 17  1  0
 16 36  1  0
 16 37  1  0
 17 18  1  0
 17 38  1  1
 18 19  1  0
 18 39  1  0
 18 40  1  0
 19 20  1  0
 19 41  1  6
 20 21  1  0
 20 22  1  0
 20 23  1  0
 21 42  1  0
 21 43  1  0
 21 44  1  0
 22 45  1  0
 22 46  1  0
 22 47  1  0
 23 48  1  0
 23 49  1  0
M  END
>  <i_m_ct_stereo_status>  (214) 
1

>  <s_m_source_file>  (214) 
/var/tmp/pbs.5076255.sched01/tmpz7m1v8ep/860kfiy9lw.sdf

>  <i_m_source_file_index>  (214) 
7

>  <i_lp_mmshare_version>  (214) 
48012

>  <i_f3d_flags>  (214) 
0

>  <s_epik_input>  (214) 
W0NIM11DKFtDSDNdKShbQ0gyXTEpW0NASF0yW0NIMl1bQ0BIXShDKD1bQ0gyXSlDMz1PKVtDSDJdW0NAXTEoW09IXSlPW0NAQEhdNFtDQEhdKFtDSDJdNSlDKFtDSDNdKT1bQ0hdW0NASF01W0NAXTIzNA==

>  <s_epik_cmdline>  (214) 
J2VwaWtfcHl0aG9uJywgJy1waHQnLCAnMi4wJywgJy1waCcsICc3LjAnLCAnLXRuJywgJzgnLCAnLW1hJywgJzIwMCcsICctaW1hZScsICc8aW5maWxlLm1hZT4nLCAnLW9tYWUnLCAnPG91dGZpbGUubWFlPic=

>  <r_lp_tautomer_probability>  (214) 
1

>  <r_epik_Ionization_Penalty>  (214) 
2.94646e-07

>  <r_epik_Ionization_Penalty_Charging>  (214) 
0

>  <r_epik_Ionization_Penalty_Neutral>  (214) 
2.94646e-07

>  <r_epik_State_Penalty>  (214) 
-0

>  <r_epik_Charging_Adjusted_Penalty>  (214) 
0

>  <i_epik_Tot_Q>  (214) 
0

>  <i_epik_Tot_abs_Q>  (214) 
0

>  <s_lp_Force_Field>  (214) 
OPLS3e

>  <r_lp_Energy>  (214) 
101.514

>  <b_lp_Chiralities_Consistent>  (214) 
1

>  <s_lp_Variant>  (214) 
64:0-1

>  <s_i_glide_gridfile>  (214) 
pfpi4k_grid

>  <i_i_glide_lignum>  (214) 
7

>  <i_i_glide_rotatable_bonds>  (214) 
1

>  <r_i_docking_score>  (214) 
-2.99644

>  <r_i_glide_ligand_efficiency>  (214) 
-0.13028

>  <r_i_glide_ligand_efficiency_sa>  (214) 
-0.370498

>  <r_i_glide_ligand_efficiency_ln>  (214) 
-0.724565

>  <r_i_glide_gscore>  (214) 
-2.99644

>  <r_i_glide_lipo>  (214) 
-0.399708

>  <r_i_glide_hbond>  (214) 
0

>  <r_i_glide_metal>  (214) 
-0

>  <r_i_glide_rewards>  (214) 
-1.28126

>  <r_i_glide_evdw>  (214) 
-18.9527

>  <r_i_glide_ecoul>  (214) 
-2.45221

>  <r_i_glide_erotb>  (214) 
0

>  <r_i_glide_esite>  (214) 
0

>  <r_i_glide_emodel>  (214) 
-25.0567

>  <r_i_glide_energy>  (214) 
-21.4049

>  <r_i_glide_einternal>  (214) 
0.0766681

>  <r_i_glide_intrahb_reward>  (214) 
-0

>  <i_i_glide_confnum>  (214) 
2

>  <i_i_glide_posenum>  (214) 
2

>  <r_i_glide_eff_state_penalty>  (214) 
0

>  <ligand_id>  (214) 
64

>  <original_smiles>  (214) 
C=C1C(=O)C23C4C=C(C)C(C4)C2OC2(O)CC1CC3C(C)(C)C2

>  <smiles>  (214) 
[H]OC12OC3([H])C4([H])C(C([H])([H])[H])=C([H])C([H])(C4([H])[H])C34C(=O)C(=C([H])[H])C([H])(C1([H])[H])C([H])([H])C4([H])C(C([H])([H])[H])(C([H])([H])[H])C2([H])[H]

$$$$
66:0:0
     RDKit          3D

 82 89  0  0  1  0  0  0  0  0999 V2000
    5.5089   -3.7653    4.6610 C   0  0  0  0  0  0  0  0  0  0  0  0
    4.1595   -3.6864    3.9956 C   0  0  0  0  0  0  0  0  0  0  0  0
    3.6921   -2.6847    3.2456 C   0  0  0  0  0  0  0  0  0  0  0  0
    4.4930   -1.8070    2.5617 O   0  0  0  0  0  0  0  0  0  0  0  0
    4.2353   -2.0745    1.1817 C   0  0  2  0  0  0  0  0  0  0  0  0
    4.5831   -1.1137    0.0311 C   0  0  0  0  0  0  0  0  0  0  0  0
    4.8808   -2.4237   -0.7576 C   0  0  2  0  0  0  0  0  0  0  0  0
    5.8915   -2.3126   -1.8993 C   0  0  0  0  0  0  0  0  0  0  0  0
    3.6317   -3.2048   -1.2409 C   0  0  0  0  0  0  0  0  0  0  0  0
    2.7345   -3.6627   -0.0539 C   0  0  0  0  0  0  0  0  0  0  0  0
    2.8176   -2.6286    1.0921 C   0  0  1  0  0  0  0  0  0  0  0  0
    2.4000   -2.9331    2.5475 C   0  0  2  0  0  0  0  0  0  0  0  0
    1.3734   -1.8832    3.0487 C   0  0  0  0  0  0  0  0  0  0  0  0
    2.0611   -4.3593    3.0824 C   0  0  1  0  0  0  0  0  0  0  0  0
    1.2587   -5.2320    2.2775 O   0  0  0  0  0  0  0  0  0  0  0  0
    1.2408   -6.6008    2.7004 C   0  0  1  0  0  0  0  0  0  0  0  0
    2.4574   -7.2427    1.9393 C   0  0  0  0  0  0  0  0  0  0  0  0
    3.6375   -7.6177    2.5940 O   0  0  0  0  0  0  0  0  0  0  0  0
    3.5936   -8.3875    3.7720 C   0  0  1  0  0  0  0  0  0  0  0  0
    5.0058   -9.0249    3.6169 C   0  0  0  0  0  0  0  0  0  0  0  0
    3.7550   -7.3506    4.9517 C   0  0  0  0  0  0  0  0  0  0  0  0
    3.1133   -5.9241    4.9254 C   0  0  2  0  0  0  0  0  0  0  0  0
    1.7448   -6.0075    5.2130 O   0  0  0  0  0  0  0  0  0  0  0  0
    0.9433   -6.6826    4.2622 C   0  0  2  0  0  0  0  0  0  0  0  0
    0.6018   -8.0669    4.8364 C   0  0  1  0  0  0  0  0  0  0  0  0
   -0.7758   -8.1371    5.1480 O   0  0  0  0  0  0  0  0  0  0  0  0
    0.9144   -9.1661    3.8306 C   0  0  1  0  0  0  0  0  0  0  0  0
    0.1470   -8.8730    2.4753 C   0  0  1  0  0  0  0  0  0  0  0  0
   -1.2366   -9.5401    2.3885 C   0  0  0  0  0  0  0  0  0  0  0  0
    0.0418   -7.3598    2.1081 C   0  0  0  0  0  0  0  0  0  0  0  0
    2.4661   -9.5533    3.8313 C   0  0  0  0  0  0  0  0  0  0  0  0
    2.6796  -10.5860    2.6892 C   0  0  0  0  0  0  0  0  0  0  0  0
    2.6933  -10.3904    5.1252 C   0  0  0  0  0  0  0  0  0  0  0  0
    3.3542   -4.9402    3.7321 C   0  0  2  0  0  0  0  0  0  0  0  0
    5.3974   -2.9192    0.6093 C   0  0  1  0  0  0  0  0  0  0  0  0
    6.8299   -2.6355    1.0384 C   0  0  0  0  0  0  0  0  0  0  0  0
    5.3771   -3.7991    5.7425 H   0  0  0  0  0  0  0  0  0  0  0  0
    6.0598   -2.8662    4.4143 H   0  0  0  0  0  0  0  0  0  0  0  0
    6.0658   -4.6469    4.3404 H   0  0  0  0  0  0  0  0  0  0  0  0
    3.7288   -0.5671   -0.3741 H   0  0  0  0  0  0  0  0  0  0  0  0
    5.4260   -0.4514    0.1992 H   0  0  0  0  0  0  0  0  0  0  0  0
    6.2620   -3.2915   -2.2100 H   0  0  0  0  0  0  0  0  0  0  0  0
    6.7576   -1.7365   -1.5839 H   0  0  0  0  0  0  0  0  0  0  0  0
    5.4499   -1.8172   -2.7662 H   0  0  0  0  0  0  0  0  0  0  0  0
    3.0417   -2.5797   -1.9127 H   0  0  0  0  0  0  0  0  0  0  0  0
    3.9180   -4.0754   -1.8281 H   0  0  0  0  0  0  0  0  0  0  0  0
    1.7176   -3.8241   -0.3995 H   0  0  0  0  0  0  0  0  0  0  0  0
    3.1003   -4.6146    0.3056 H   0  0  0  0  0  0  0  0  0  0  0  0
    2.1785   -1.8135    0.7557 H   0  0  0  0  0  0  0  0  0  0  0  0
    0.3901   -2.0557    2.6144 H   0  0  0  0  0  0  0  0  0  0  0  0
    1.6804   -0.8663    2.7867 H   0  0  0  0  0  0  0  0  0  0  0  0
    1.2682   -1.9057    4.1332 H   0  0  0  0  0  0  0  0  0  0  0  0
    1.4023   -4.1302    3.9153 H   0  0  0  0  0  0  0  0  0  0  0  0
    2.2056   -8.0625    1.2800 H   0  0  0  0  0  0  0  0  0  0  0  0
    2.7998   -6.5312    1.1950 H   0  0  0  0  0  0  0  0  0  0  0  0
    5.3016   -9.6162    4.4841 H   0  0  0  0  0  0  0  0  0  0  0  0
    5.7769   -8.2616    3.4894 H   0  0  0  0  0  0  0  0  0  0  0  0
    5.0931   -9.6522    2.7284 H   0  0  0  0  0  0  0  0  0  0  0  0
    3.4717   -7.8213    5.8885 H   0  0  0  0  0  0  0  0  0  0  0  0
    4.8163   -7.1487    5.0951 H   0  0  0  0  0  0  0  0  0  0  0  0
    3.5157   -5.4172    5.8015 H   0  0  0  0  0  0  0  0  0  0  0  0
    0.0340   -6.0941    4.3744 H   0  0  0  0  0  0  0  0  0  0  0  0
    1.1227   -8.2301    5.7772 H   0  0  0  0  0  0  0  0  0  0  0  0
   -1.0104   -9.0409    5.2880 H   0  0  0  0  0  0  0  0  0  0  0  0
    0.4218  -10.0640    4.2088 H   0  0  0  0  0  0  0  0  0  0  0  0
    0.6792   -9.3807    1.6810 H   0  0  0  0  0  0  0  0  0  0  0  0
   -1.9498   -9.1852    3.1333 H   0  0  0  0  0  0  0  0  0  0  0  0
   -1.0969  -10.6077    2.5132 H   0  0  0  0  0  0  0  0  0  0  0  0
   -1.6883   -9.3823    1.4079 H   0  0  0  0  0  0  0  0  0  0  0  0
   -0.8927   -6.9519    2.4909 H   0  0  0  0  0  0  0  0  0  0  0  0
   -0.0054   -7.2467    1.0230 H   0  0  0  0  0  0  0  0  0  0  0  0
    1.8367  -11.2758    2.6217 H   0  0  0  0  0  0  0  0  0  0  0  0
    3.5562  -11.2135    2.8490 H   0  0  0  0  0  0  0  0  0  0  0  0
    2.8070  -10.1242    1.7114 H   0  0  0  0  0  0  0  0  0  0  0  0
    1.9876  -11.2197    5.2020 H   0  0  0  0  0  0  0  0  0  0  0  0
    2.5898   -9.8157    6.0449 H   0  0  0  0  0  0  0  0  0  0  0  0
    3.6777  -10.8526    5.1557 H   0  0  0  0  0  0  0  0  0  0  0  0
    3.9753   -5.3907    2.9637 H   0  0  0  0  0  0  0  0  0  0  0  0
    5.1965   -3.9854    0.7347 H   0  0  0  0  0  0  0  0  0  0  0  0
    7.1146   -1.5794    0.9917 H   0  0  0  0  0  0  0  0  0  0  0  0
    7.5451   -3.1883    0.4275 H   0  0  0  0  0  0  0  0  0  0  0  0
    6.9702   -2.9566    2.0660 H   0  0  0  0  0  0  0  0  0  0  0  0
  1  2  1  0
  1 37  1  0
  1 38  1  0
  1 39  1  0
  2 34  1  0
  2  3  2  0
  3 12  1  0
  3  4  1  0
  5  4  1  1
  5 11  1  0
  5 35  1  0
  5  6  1  0
  6  7  1  0
  6 40  1  0
  6 41  1  0
  7  8  1  6
  7  9  1  0
  7 35  1  0
  8 42  1  0
  8 43  1  0
  8 44  1  0
  9 10  1  0
  9 45  1  0
  9 46  1  0
 10 11  1  0
 10 47  1  0
 10 48  1  0
 11 12  1  0
 11 49  1  6
 12 13  1  1
 12 14  1  0
 13 50  1  0
 13 51  1  0
 13 52  1  0
 14 34  1  0
 14 15  1  0
 14 53  1  1
 16 15  1  6
 16 24  1  0
 16 30  1  0
 16 17  1  0
 17 18  1  0
 17 54  1  0
 17 55  1  0
 18 19  1  0
 19 31  1  0
 19 20  1  6
 19 21  1  0
 20 56  1  0
 20 57  1  0
 20 58  1  0
 21 22  1  0
 21 59  1  0
 21 60  1  0
 22 23  1  0
 22 34  1  0
 22 61  1  1
 23 24  1  0
 24 25  1  0
 24 62  1  6
 25 26  1  0
 25 27  1  0
 25 63  1  1
 26 64  1  0
 27 28  1  0
 27 31  1  0
 27 65  1  1
 28 29  1  0
 28 30  1  0
 28 66  1  6
 29 67  1  0
 29 68  1  0
 29 69  1  0
 30 70  1  0
 30 71  1  0
 31 32  1  0
 31 33  1  0
 32 72  1  0
 32 73  1  0
 32 74  1  0
 33 75  1  0
 33 76  1  0
 33 77  1  0
 34 78  1  6
 35 36  1  0
 35 79  1  6
 36 80  1  0
 36 81  1  0
 36 82  1  0
M  END
>  <i_m_ct_stereo_status>  (215) 
1

>  <s_m_source_file>  (215) 
/var/tmp/pbs.5076255.sched01/tmpz7m1v8ep/860kfiy9lw.sdf

>  <i_m_source_file_index>  (215) 
14

>  <i_lp_mmshare_version>  (215) 
48012

>  <i_f3d_flags>  (215) 
0

>  <s_epik_input>  (215) 
W0NIM11bQ0BASF0xW0NAQF0oW0NIMl0yKShbQ0gzXSlbQ0gyXVtDSDJdW0NASF0oW0NAQF0xMjMpW0NAXTQoW0NIM10pQyhPMyk9QyhbQ0gzXSlbQ0BASF01W0NAQEhdNE9bQ0BdNjdbQ0BASF04T1tDQEhdNVtDSDJdW0NAXShbQ0gzXSkoT1tDSDJdNilDKFtDSDNdKShbQ0gzXSlbQ0BASF0oW0NAQEhdOFtPSF0pW0NAQEhdKFtDSDNdKVtDSDJdNw==

>  <s_epik_cmdline>  (215) 
J2VwaWtfcHl0aG9uJywgJy1waHQnLCAnMi4wJywgJy1waCcsICc3LjAnLCAnLXRuJywgJzgnLCAnLW1hJywgJzIwMCcsICctaW1hZScsICc8aW5maWxlLm1hZT4nLCAnLW9tYWUnLCAnPG91dGZpbGUubWFlPic=

>  <r_lp_tautomer_probability>  (215) 
1

>  <r_epik_Ionization_Penalty>  (215) 
4.41853e-08

>  <r_epik_Ionization_Penalty_Charging>  (215) 
0

>  <r_epik_Ionization_Penalty_Neutral>  (215) 
4.41853e-08

>  <r_epik_State_Penalty>  (215) 
-0

>  <r_epik_Charging_Adjusted_Penalty>  (215) 
0

>  <i_epik_Tot_Q>  (215) 
0

>  <i_epik_Tot_abs_Q>  (215) 
0

>  <s_lp_Force_Field>  (215) 
OPLS3e

>  <r_lp_Energy>  (215) 
144.902

>  <b_lp_Chiralities_Consistent>  (215) 
1

>  <s_lp_Variant>  (215) 
66:0-1

>  <s_i_glide_gridfile>  (215) 
pfpi4k_grid

>  <i_i_glide_lignum>  (215) 
14

>  <i_i_glide_rotatable_bonds>  (215) 
1

>  <r_i_docking_score>  (215) 
-1.91765

>  <r_i_glide_ligand_efficiency>  (215) 
-0.0532681

>  <r_i_glide_ligand_efficiency_sa>  (215) 
-0.175887

>  <r_i_glide_ligand_efficiency_ln>  (215) 
-0.41838

>  <r_i_glide_gscore>  (215) 
-1.91765

>  <r_i_glide_lipo>  (215) 
-0.373172

>  <r_i_glide_hbond>  (215) 
-0.045491

>  <r_i_glide_metal>  (215) 
-0

>  <r_i_glide_rewards>  (215) 
-0.00890495

>  <r_i_glide_evdw>  (215) 
-19.9162

>  <r_i_glide_ecoul>  (215) 
-3.29516

>  <r_i_glide_erotb>  (215) 
0

>  <r_i_glide_esite>  (215) 
0

>  <r_i_glide_emodel>  (215) 
-25.5301

>  <r_i_glide_energy>  (215) 
-23.2113

>  <r_i_glide_einternal>  (215) 
0.729089

>  <r_i_glide_intrahb_reward>  (215) 
-0

>  <i_i_glide_confnum>  (215) 
2

>  <i_i_glide_posenum>  (215) 
22

>  <r_i_glide_eff_state_penalty>  (215) 
0

>  <ligand_id>  (215) 
66

>  <original_smiles>  (215) 
CC1=C2OC34CC(C)(CCC3C2(C)C2OC35COC6(C)CC(OC3C(O)C(C(C)C5)C6(C)C)C12)C4C

>  <smiles>  (215) 
[H]OC1([H])C2([H])OC3([H])C([H])([H])C4(C([H])([H])[H])OC([H])([H])C2(OC2([H])C3([H])C(C([H])([H])[H])=C3OC56C([H])([H])C(C([H])([H])[H])(C([H])([H])C([H])([H])C5([H])C32C([H])([H])[H])C6([H])C([H])([H])[H])C([H])([H])C([H])(C([H])([H])[H])C1([H])C4(C([H])([H])[H])C([H])([H])[H]

$$$$
66:0:1
     RDKit          3D

 82 89  0  0  1  0  0  0  0  0999 V2000
    6.0392   -5.0702    2.6436 C   0  0  0  0  0  0  0  0  0  0  0  0
    5.2171   -4.9212    3.9103 C   0  0  0  0  0  0  0  0  0  0  0  0
    4.9860   -3.8035    4.6094 C   0  0  0  0  0  0  0  0  0  0  0  0
    5.0052   -2.5573    4.0177 O   0  0  0  0  0  0  0  0  0  0  0  0
    3.6447   -2.1033    4.0821 C   0  0  2  0  0  0  0  0  0  0  0  0
    3.2322   -0.6390    3.9058 C   0  0  0  0  0  0  0  0  0  0  0  0
    1.9939   -1.2413    3.1802 C   0  0  2  0  0  0  0  0  0  0  0  0
    1.3209   -0.3366    2.1441 C   0  0  0  0  0  0  0  0  0  0  0  0
    0.9227   -1.8771    4.1012 C   0  0  0  0  0  0  0  0  0  0  0  0
    1.5002   -3.0632    4.9377 C   0  0  0  0  0  0  0  0  0  0  0  0
    2.9829   -2.7863    5.2670 C   0  0  1  0  0  0  0  0  0  0  0  0
    3.9709   -3.8946    5.6925 C   0  0  2  0  0  0  0  0  0  0  0  0
    4.6626   -3.5018    7.0270 C   0  0  0  0  0  0  0  0  0  0  0  0
    3.6491   -5.4258    5.6621 C   0  0  1  0  0  0  0  0  0  0  0  0
    2.3666   -5.8731    6.1165 O   0  0  0  0  0  0  0  0  0  0  0  0
    2.0559   -7.2312    5.7682 C   0  0  1  0  0  0  0  0  0  0  0  0
    1.3773   -7.1237    4.3562 C   0  0  0  0  0  0  0  0  0  0  0  0
    2.0098   -7.5459    3.1801 O   0  0  0  0  0  0  0  0  0  0  0  0
    2.6214   -8.8115    3.1137 C   0  0  1  0  0  0  0  0  0  0  0  0
    2.5046   -8.9814    1.5739 C   0  0  0  0  0  0  0  0  0  0  0  0
    4.1564   -8.5505    3.3603 C   0  0  0  0  0  0  0  0  0  0  0  0
    4.6857   -7.4791    4.3703 C   0  0  2  0  0  0  0  0  0  0  0  0
    4.5740   -7.9730    5.6789 O   0  0  0  0  0  0  0  0  0  0  0  0
    3.2631   -8.1862    6.1803 C   0  0  2  0  0  0  0  0  0  0  0  0
    3.0035   -9.7096    6.1567 C   0  0  1  0  0  0  0  0  0  0  0  0
    3.0030  -10.2409    7.4772 O   0  0  0  0  0  0  0  0  0  0  0  0
    1.6792  -10.0149    5.4527 C   0  0  1  0  0  0  0  0  0  0  0  0
    0.4948   -9.2067    6.1308 C   0  0  1  0  0  0  0  0  0  0  0  0
   -0.2048   -9.9973    7.2553 C   0  0  0  0  0  0  0  0  0  0  0  0
    0.9124   -7.7890    6.6393 C   0  0  0  0  0  0  0  0  0  0  0  0
    1.8471  -10.0261    3.8607 C   0  0  0  0  0  0  0  0  0  0  0  0
    0.4291  -10.2353    3.2521 C   0  0  0  0  0  0  0  0  0  0  0  0
    2.5833  -11.3583    3.5268 C   0  0  0  0  0  0  0  0  0  0  0  0
    4.2160   -5.9897    4.3128 C   0  0  2  0  0  0  0  0  0  0  0  0
    3.0388   -2.2651    2.6648 C   0  0  1  0  0  0  0  0  0  0  0  0
    3.8598   -1.9875    1.4192 C   0  0  0  0  0  0  0  0  0  0  0  0
    6.9216   -5.6757    2.8702 H   0  0  0  0  0  0  0  0  0  0  0  0
    6.3856   -4.1090    2.2664 H   0  0  0  0  0  0  0  0  0  0  0  0
    5.4680   -5.5736    1.8621 H   0  0  0  0  0  0  0  0  0  0  0  0
    2.9596   -0.1318    4.8372 H   0  0  0  0  0  0  0  0  0  0  0  0
    3.8827   -0.0195    3.2979 H   0  0  0  0  0  0  0  0  0  0  0  0
    0.6657   -0.9044    1.4846 H   0  0  0  0  0  0  0  0  0  0  0  0
    2.0634    0.1532    1.5031 H   0  0  0  0  0  0  0  0  0  0  0  0
    0.7283    0.4577    2.6021 H   0  0  0  0  0  0  0  0  0  0  0  0
    0.5205   -1.1210    4.7762 H   0  0  0  0  0  0  0  0  0  0  0  0
    0.0685   -2.2356    3.5268 H   0  0  0  0  0  0  0  0  0  0  0  0
    0.9117   -3.2272    5.8434 H   0  0  0  0  0  0  0  0  0  0  0  0
    1.4255   -3.9668    4.3554 H   0  0  0  0  0  0  0  0  0  0  0  0
    2.9364   -2.0771    6.0910 H   0  0  0  0  0  0  0  0  0  0  0  0
    3.9814   -3.6036    7.8781 H   0  0  0  0  0  0  0  0  0  0  0  0
    5.0130   -2.4675    7.0022 H   0  0  0  0  0  0  0  0  0  0  0  0
    5.5404   -4.1171    7.2250 H   0  0  0  0  0  0  0  0  0  0  0  0
    4.3197   -5.8046    6.4251 H   0  0  0  0  0  0  0  0  0  0  0  0
    0.3635   -7.4965    4.3044 H   0  0  0  0  0  0  0  0  0  0  0  0
    1.1754   -6.0728    4.1669 H   0  0  0  0  0  0  0  0  0  0  0  0
    3.0073   -9.8714    1.1941 H   0  0  0  0  0  0  0  0  0  0  0  0
    2.9430   -8.1343    1.0419 H   0  0  0  0  0  0  0  0  0  0  0  0
    1.4663   -9.0047    1.2480 H   0  0  0  0  0  0  0  0  0  0  0  0
    4.6546   -9.4899    3.5769 H   0  0  0  0  0  0  0  0  0  0  0  0
    4.6160   -8.2518    2.4160 H   0  0  0  0  0  0  0  0  0  0  0  0
    5.7617   -7.4484    4.2134 H   0  0  0  0  0  0  0  0  0  0  0  0
    3.4353   -7.9463    7.2267 H   0  0  0  0  0  0  0  0  0  0  0  0
    3.8246  -10.2212    5.6717 H   0  0  0  0  0  0  0  0  0  0  0  0
    2.4505  -11.0208    7.5035 H   0  0  0  0  0  0  0  0  0  0  0  0
    1.4434  -11.0551    5.6801 H   0  0  0  0  0  0  0  0  0  0  0  0
   -0.3146   -9.1012    5.4178 H   0  0  0  0  0  0  0  0  0  0  0  0
    0.4491  -10.1944    8.1042 H   0  0  0  0  0  0  0  0  0  0  0  0
   -0.5757  -10.9533    6.8780 H   0  0  0  0  0  0  0  0  0  0  0  0
   -1.0741   -9.4548    7.6247 H   0  0  0  0  0  0  0  0  0  0  0  0
    1.2174   -7.8364    7.6839 H   0  0  0  0  0  0  0  0  0  0  0  0
    0.0491   -7.1163    6.6225 H   0  0  0  0  0  0  0  0  0  0  0  0
   -0.1622  -10.9299    3.8524 H   0  0  0  0  0  0  0  0  0  0  0  0
    0.4605  -10.6661    2.2517 H   0  0  0  0  0  0  0  0  0  0  0  0
   -0.1403   -9.3107    3.1727 H   0  0  0  0  0  0  0  0  0  0  0  0
    2.0816  -12.2228    3.9664 H   0  0  0  0  0  0  0  0  0  0  0  0
    3.6149  -11.3902    3.8714 H   0  0  0  0  0  0  0  0  0  0  0  0
    2.6149  -11.5644    2.4625 H   0  0  0  0  0  0  0  0  0  0  0  0
    3.4833   -5.8347    3.5252 H   0  0  0  0  0  0  0  0  0  0  0  0
    2.5660   -3.2541    2.5726 H   0  0  0  0  0  0  0  0  0  0  0  0
    4.3831   -1.0287    1.4397 H   0  0  0  0  0  0  0  0  0  0  0  0
    3.2353   -1.9898    0.5231 H   0  0  0  0  0  0  0  0  0  0  0  0
    4.6208   -2.7538    1.2780 H   0  0  0  0  0  0  0  0  0  0  0  0
  1  2  1  0
  1 37  1  0
  1 38  1  0
  1 39  1  0
  2 34  1  0
  2  3  2  0
  3 12  1  0
  3  4  1  0
  5  4  1  6
  5 11  1  0
  5 35  1  0
  5  6  1  0
  6  7  1  0
  6 40  1  0
  6 41  1  0
  7  8  1  6
  7  9  1  0
  7 35  1  0
  8 42  1  0
  8 43  1  0
  8 44  1  0
  9 10  1  0
  9 45  1  0
  9 46  1  0
 10 11  1  0
 10 47  1  0
 10 48  1  0
 11 12  1  0
 11 49  1  1
 12 13  1  1
 12 14  1  0
 13 50  1  0
 13 51  1  0
 13 52  1  0
 14 34  1  0
 14 15  1  0
 14 53  1  1
 16 15  1  1
 16 24  1  0
 16 30  1  0
 16 17  1  0
 17 18  1  0
 17 54  1  0
 17 55  1  0
 18 19  1  0
 19 31  1  0
 19 20  1  6
 19 21  1  0
 20 56  1  0
 20 57  1  0
 20 58  1  0
 21 22  1  0
 21 59  1  0
 21 60  1  0
 22 23  1  0
 22 34  1  0
 22 61  1  6
 23 24  1  0
 24 25  1  0
 24 62  1  1
 25 26  1  0
 25 27  1  0
 25 63  1  6
 26 64  1  0
 27 28  1  0
 27 31  1  0
 27 65  1  1
 28 29  1  0
 28 30  1  0
 28 66  1  6
 29 67  1  0
 29 68  1  0
 29 69  1  0
 30 70  1  0
 30 71  1  0
 31 32  1  0
 31 33  1  0
 32 72  1  0
 32 73  1  0
 32 74  1  0
 33 75  1  0
 33 76  1  0
 33 77  1  0
 34 78  1  6
 35 36  1  0
 35 79  1  6
 36 80  1  0
 36 81  1  0
 36 82  1  0
M  END
>  <i_m_ct_stereo_status>  (216) 
1

>  <s_m_source_file>  (216) 
/var/tmp/pbs.5076255.sched01/tmpz7m1v8ep/860kfiy9lw.sdf

>  <i_m_source_file_index>  (216) 
14

>  <i_lp_mmshare_version>  (216) 
48012

>  <i_f3d_flags>  (216) 
0

>  <s_epik_input>  (216) 
W0NIM11bQ0BASF0xW0NAQF0oW0NIMl0yKShbQ0gzXSlbQ0gyXVtDSDJdW0NASF0oW0NAQF0xMjMpW0NAXTQoW0NIM10pQyhPMyk9QyhbQ0gzXSlbQ0BASF01W0NAQEhdNE9bQ0BdNjdbQ0BASF04T1tDQEhdNVtDSDJdW0NAXShbQ0gzXSkoT1tDSDJdNilDKFtDSDNdKShbQ0gzXSlbQ0BASF0oW0NAQEhdOFtPSF0pW0NAQEhdKFtDSDNdKVtDSDJdNw==

>  <s_epik_cmdline>  (216) 
J2VwaWtfcHl0aG9uJywgJy1waHQnLCAnMi4wJywgJy1waCcsICc3LjAnLCAnLXRuJywgJzgnLCAnLW1hJywgJzIwMCcsICctaW1hZScsICc8aW5maWxlLm1hZT4nLCAnLW9tYWUnLCAnPG91dGZpbGUubWFlPic=

>  <r_lp_tautomer_probability>  (216) 
1

>  <r_epik_Ionization_Penalty>  (216) 
4.41853e-08

>  <r_epik_Ionization_Penalty_Charging>  (216) 
0

>  <r_epik_Ionization_Penalty_Neutral>  (216) 
4.41853e-08

>  <r_epik_State_Penalty>  (216) 
-0

>  <r_epik_Charging_Adjusted_Penalty>  (216) 
0

>  <i_epik_Tot_Q>  (216) 
0

>  <i_epik_Tot_abs_Q>  (216) 
0

>  <s_lp_Force_Field>  (216) 
OPLS3e

>  <r_lp_Energy>  (216) 
144.902

>  <b_lp_Chiralities_Consistent>  (216) 
1

>  <s_lp_Variant>  (216) 
66:0-1

>  <s_i_glide_gridfile>  (216) 
pfpi4k_grid

>  <i_i_glide_lignum>  (216) 
14

>  <i_i_glide_rotatable_bonds>  (216) 
1

>  <r_i_docking_score>  (216) 
-1.85413

>  <r_i_glide_ligand_efficiency>  (216) 
-0.0515036

>  <r_i_glide_ligand_efficiency_sa>  (216) 
-0.170061

>  <r_i_glide_ligand_efficiency_ln>  (216) 
-0.404521

>  <r_i_glide_gscore>  (216) 
-1.85413

>  <r_i_glide_lipo>  (216) 
-0.062151

>  <r_i_glide_hbond>  (216) 
0

>  <r_i_glide_metal>  (216) 
-0

>  <r_i_glide_rewards>  (216) 
-0.00890495

>  <r_i_glide_evdw>  (216) 
-19.6472

>  <r_i_glide_ecoul>  (216) 
-5.33808

>  <r_i_glide_erotb>  (216) 
0

>  <r_i_glide_esite>  (216) 
0

>  <r_i_glide_emodel>  (216) 
-27.0946

>  <r_i_glide_energy>  (216) 
-24.9853

>  <r_i_glide_einternal>  (216) 
0.918893

>  <r_i_glide_intrahb_reward>  (216) 
-0

>  <i_i_glide_confnum>  (216) 
1

>  <i_i_glide_posenum>  (216) 
1

>  <r_i_glide_eff_state_penalty>  (216) 
0

>  <ligand_id>  (216) 
66

>  <original_smiles>  (216) 
CC1=C2OC34CC(C)(CCC3C2(C)C2OC35COC6(C)CC(OC3C(O)C(C(C)C5)C6(C)C)C12)C4C

>  <smiles>  (216) 
[H]OC1([H])C2([H])OC3([H])C([H])([H])C4(C([H])([H])[H])OC([H])([H])C2(OC2([H])C3([H])C(C([H])([H])[H])=C3OC56C([H])([H])C(C([H])([H])[H])(C([H])([H])C([H])([H])C5([H])C32C([H])([H])[H])C6([H])C([H])([H])[H])C([H])([H])C([H])(C([H])([H])[H])C1([H])C4(C([H])([H])[H])C([H])([H])[H]

$$$$
66:0:2
     RDKit          3D

 82 89  0  0  1  0  0  0  0  0999 V2000
    4.7414   -4.4508    1.1676 C   0  0  0  0  0  0  0  0  0  0  0  0
    4.6339   -4.4090    2.6813 C   0  0  0  0  0  0  0  0  0  0  0  0
    5.0576   -3.4405    3.4942 C   0  0  0  0  0  0  0  0  0  0  0  0
    5.1319   -2.1348    3.0771 O   0  0  0  0  0  0  0  0  0  0  0  0
    4.1547   -1.4293    3.8357 C   0  0  2  0  0  0  0  0  0  0  0  0
    4.1346    0.0904    4.0262 C   0  0  0  0  0  0  0  0  0  0  0  0
    2.5932   -0.0741    3.9129 C   0  0  2  0  0  0  0  0  0  0  0  0
    1.8191    1.1470    3.4086 C   0  0  0  0  0  0  0  0  0  0  0  0
    1.8983   -0.6621    5.1772 C   0  0  0  0  0  0  0  0  0  0  0  0
    2.4235   -2.0878    5.5253 C   0  0  0  0  0  0  0  0  0  0  0  0
    3.9111   -2.2042    5.1344 C   0  0  1  0  0  0  0  0  0  0  0  0
    4.6343   -3.5542    4.9342 C   0  0  2  0  0  0  0  0  0  0  0  0
    5.9122   -3.6075    5.8022 C   0  0  0  0  0  0  0  0  0  0  0  0
    3.9155   -4.9395    4.9065 C   0  0  1  0  0  0  0  0  0  0  0  0
    2.8866   -5.2019    5.8784 O   0  0  0  0  0  0  0  0  0  0  0  0
    2.0937   -6.3647    5.5945 C   0  0  1  0  0  0  0  0  0  0  0  0
    0.9249   -5.8119    4.6882 C   0  0  0  0  0  0  0  0  0  0  0  0
    0.8194   -6.0967    3.3213 O   0  0  0  0  0  0  0  0  0  0  0  0
    0.9685   -7.4156    2.8592 C   0  0  1  0  0  0  0  0  0  0  0  0
    0.1429   -7.2116    1.5550 C   0  0  0  0  0  0  0  0  0  0  0  0
    2.4620   -7.5373    2.3632 C   0  0  0  0  0  0  0  0  0  0  0  0
    3.6581   -6.8414    3.0918 C   0  0  2  0  0  0  0  0  0  0  0  0
    3.9942   -7.5684    4.2408 O   0  0  0  0  0  0  0  0  0  0  0  0
    3.0365   -7.6105    5.2840 C   0  0  2  0  0  0  0  0  0  0  0  0
    2.3799   -9.0083    5.2542 C   0  0  1  0  0  0  0  0  0  0  0  0
    2.7761   -9.7692    6.3915 O   0  0  0  0  0  0  0  0  0  0  0  0
    0.8593   -8.8844    5.2384 C   0  0  1  0  0  0  0  0  0  0  0  0
    0.3851   -8.0193    6.4747 C   0  0  1  0  0  0  0  0  0  0  0  0
    0.0230   -8.8630    7.7180 C   0  0  0  0  0  0  0  0  0  0  0  0
    1.3550   -6.8526    6.8535 C   0  0  0  0  0  0  0  0  0  0  0  0
    0.2975   -8.5805    3.7714 C   0  0  0  0  0  0  0  0  0  0  0  0
   -1.2381   -8.3546    3.8919 C   0  0  0  0  0  0  0  0  0  0  0  0
    0.3996   -9.9320    3.0028 C   0  0  0  0  0  0  0  0  0  0  0  0
    3.6471   -5.3081    3.4131 C   0  0  2  0  0  0  0  0  0  0  0  0
    2.9690   -1.1613    2.8871 C   0  0  1  0  0  0  0  0  0  0  0  0
    3.2134   -0.7939    1.4163 C   0  0  0  0  0  0  0  0  0  0  0  0
    5.4223   -5.2570    0.8859 H   0  0  0  0  0  0  0  0  0  0  0  0
    5.1495   -3.5236    0.7558 H   0  0  0  0  0  0  0  0  0  0  0  0
    3.7760   -4.6491    0.7009 H   0  0  0  0  0  0  0  0  0  0  0  0
    4.4472    0.4296    5.0129 H   0  0  0  0  0  0  0  0  0  0  0  0
    4.6021    0.6767    3.2406 H   0  0  0  0  0  0  0  0  0  0  0  0
    0.8120    0.8856    3.0779 H   0  0  0  0  0  0  0  0  0  0  0  0
    2.3210    1.5979    2.5532 H   0  0  0  0  0  0  0  0  0  0  0  0
    1.7347    1.9272    4.1677 H   0  0  0  0  0  0  0  0  0  0  0  0
    2.0636    0.0023    6.0283 H   0  0  0  0  0  0  0  0  0  0  0  0
    0.8159   -0.7016    5.0476 H   0  0  0  0  0  0  0  0  0  0  0  0
    2.2737   -2.3175    6.5751 H   0  0  0  0  0  0  0  0  0  0  0  0
    1.8507   -2.8160    4.9619 H   0  0  0  0  0  0  0  0  0  0  0  0
    4.4393   -1.6864    5.9438 H   0  0  0  0  0  0  0  0  0  0  0  0
    5.6754   -3.7488    6.8569 H   0  0  0  0  0  0  0  0  0  0  0  0
    6.4888   -2.6855    5.7158 H   0  0  0  0  0  0  0  0  0  0  0  0
    6.5807   -4.4135    5.4963 H   0  0  0  0  0  0  0  0  0  0  0  0
    4.7172   -5.6061    5.2202 H   0  0  0  0  0  0  0  0  0  0  0  0
   -0.0673   -5.9407    5.0988 H   0  0  0  0  0  0  0  0  0  0  0  0
    0.9694   -4.7303    4.7201 H   0  0  0  0  0  0  0  0  0  0  0  0
    0.1713   -8.0790    0.9069 H   0  0  0  0  0  0  0  0  0  0  0  0
    0.5315   -6.3865    0.9553 H   0  0  0  0  0  0  0  0  0  0  0  0
   -0.9038   -6.9691    1.7349 H   0  0  0  0  0  0  0  0  0  0  0  0
    2.7191   -8.5847    2.2323 H   0  0  0  0  0  0  0  0  0  0  0  0
    2.5278   -7.1489    1.3481 H   0  0  0  0  0  0  0  0  0  0  0  0
    4.5224   -7.0017    2.4472 H   0  0  0  0  0  0  0  0  0  0  0  0
    3.7099   -7.6389    6.1436 H   0  0  0  0  0  0  0  0  0  0  0  0
    2.7351   -9.5743    4.3905 H   0  0  0  0  0  0  0  0  0  0  0  0
    2.2963  -10.5866    6.4162 H   0  0  0  0  0  0  0  0  0  0  0  0
    0.4705   -9.8802    5.4668 H   0  0  0  0  0  0  0  0  0  0  0  0
   -0.5303   -7.5725    6.1940 H   0  0  0  0  0  0  0  0  0  0  0  0
    0.8772   -9.3859    8.1470 H   0  0  0  0  0  0  0  0  0  0  0  0
   -0.7312   -9.6138    7.4749 H   0  0  0  0  0  0  0  0  0  0  0  0
   -0.3988   -8.2372    8.5054 H   0  0  0  0  0  0  0  0  0  0  0  0
    2.0614   -7.1703    7.6240 H   0  0  0  0  0  0  0  0  0  0  0  0
    0.7891   -6.0411    7.3072 H   0  0  0  0  0  0  0  0  0  0  0  0
   -1.6752   -9.0247    4.6315 H   0  0  0  0  0  0  0  0  0  0  0  0
   -1.7711   -8.5681    2.9651 H   0  0  0  0  0  0  0  0  0  0  0  0
   -1.5035   -7.3388    4.1789 H   0  0  0  0  0  0  0  0  0  0  0  0
   -0.0765  -10.7461    3.5505 H   0  0  0  0  0  0  0  0  0  0  0  0
    1.4197  -10.2487    2.7973 H   0  0  0  0  0  0  0  0  0  0  0  0
   -0.1172   -9.9047    2.0500 H   0  0  0  0  0  0  0  0  0  0  0  0
    2.7257   -4.8467    3.0834 H   0  0  0  0  0  0  0  0  0  0  0  0
    2.2595   -1.9783    2.9304 H   0  0  0  0  0  0  0  0  0  0  0  0
    3.9371    0.0096    1.2804 H   0  0  0  0  0  0  0  0  0  0  0  0
    2.2866   -0.4802    0.9318 H   0  0  0  0  0  0  0  0  0  0  0  0
    3.5836   -1.6541    0.8610 H   0  0  0  0  0  0  0  0  0  0  0  0
  1  2  1  0
  1 37  1  0
  1 38  1  0
  1 39  1  0
  2 34  1  0
  2  3  2  0
  3 12  1  0
  3  4  1  0
  5  4  1  6
  5 11  1  0
  5 35  1  0
  5  6  1  0
  6  7  1  0
  6 40  1  0
  6 41  1  0
  7  8  1  6
  7  9  1  0
  7 35  1  0
  8 42  1  0
  8 43  1  0
  8 44  1  0
  9 10  1  0
  9 45  1  0
  9 46  1  0
 10 11  1  0
 10 47  1  0
 10 48  1  0
 11 12  1  0
 11 49  1  1
 12 13  1  1
 12 14  1  0
 13 50  1  0
 13 51  1  0
 13 52  1  0
 14 34  1  0
 14 15  1  0
 14 53  1  1
 16 15  1  1
 16 24  1  0
 16 30  1  0
 16 17  1  0
 17 18  1  0
 17 54  1  0
 17 55  1  0
 18 19  1  0
 19 31  1  0
 19 20  1  6
 19 21  1  0
 20 56  1  0
 20 57  1  0
 20 58  1  0
 21 22  1  0
 21 59  1  0
 21 60  1  0
 22 23  1  0
 22 34  1  0
 22 61  1  6
 23 24  1  0
 24 25  1  0
 24 62  1  1
 25 26  1  0
 25 27  1  0
 25 63  1  6
 26 64  1  0
 27 28  1  0
 27 31  1  0
 27 65  1  1
 28 29  1  0
 28 30  1  0
 28 66  1  6
 29 67  1  0
 29 68  1  0
 29 69  1  0
 30 70  1  0
 30 71  1  0
 31 32  1  0
 31 33  1  0
 32 72  1  0
 32 73  1  0
 32 74  1  0
 33 75  1  0
 33 76  1  0
 33 77  1  0
 34 78  1  6
 35 36  1  0
 35 79  1  6
 36 80  1  0
 36 81  1  0
 36 82  1  0
M  END
>  <i_m_ct_stereo_status>  (217) 
1

>  <s_m_source_file>  (217) 
/var/tmp/pbs.5076255.sched01/tmpz7m1v8ep/860kfiy9lw.sdf

>  <i_m_source_file_index>  (217) 
14

>  <i_lp_mmshare_version>  (217) 
48012

>  <i_f3d_flags>  (217) 
0

>  <s_epik_input>  (217) 
W0NIM11bQ0BASF0xW0NAQF0oW0NIMl0yKShbQ0gzXSlbQ0gyXVtDSDJdW0NASF0oW0NAQF0xMjMpW0NAXTQoW0NIM10pQyhPMyk9QyhbQ0gzXSlbQ0BASF01W0NAQEhdNE9bQ0BdNjdbQ0BASF04T1tDQEhdNVtDSDJdW0NAXShbQ0gzXSkoT1tDSDJdNilDKFtDSDNdKShbQ0gzXSlbQ0BASF0oW0NAQEhdOFtPSF0pW0NAQEhdKFtDSDNdKVtDSDJdNw==

>  <s_epik_cmdline>  (217) 
J2VwaWtfcHl0aG9uJywgJy1waHQnLCAnMi4wJywgJy1waCcsICc3LjAnLCAnLXRuJywgJzgnLCAnLW1hJywgJzIwMCcsICctaW1hZScsICc8aW5maWxlLm1hZT4nLCAnLW9tYWUnLCAnPG91dGZpbGUubWFlPic=

>  <r_lp_tautomer_probability>  (217) 
1

>  <r_epik_Ionization_Penalty>  (217) 
4.41853e-08

>  <r_epik_Ionization_Penalty_Charging>  (217) 
0

>  <r_epik_Ionization_Penalty_Neutral>  (217) 
4.41853e-08

>  <r_epik_State_Penalty>  (217) 
-0

>  <r_epik_Charging_Adjusted_Penalty>  (217) 
0

>  <i_epik_Tot_Q>  (217) 
0

>  <i_epik_Tot_abs_Q>  (217) 
0

>  <s_lp_Force_Field>  (217) 
OPLS3e

>  <r_lp_Energy>  (217) 
144.902

>  <b_lp_Chiralities_Consistent>  (217) 
1

>  <s_lp_Variant>  (217) 
66:0-1

>  <s_i_glide_gridfile>  (217) 
pfpi4k_grid

>  <i_i_glide_lignum>  (217) 
14

>  <i_i_glide_rotatable_bonds>  (217) 
1

>  <r_i_docking_score>  (217) 
-1.44398

>  <r_i_glide_ligand_efficiency>  (217) 
-0.0401107

>  <r_i_glide_ligand_efficiency_sa>  (217) 
-0.132442

>  <r_i_glide_ligand_efficiency_ln>  (217) 
-0.315038

>  <r_i_glide_gscore>  (217) 
-1.44398

>  <r_i_glide_lipo>  (217) 
-0.116655

>  <r_i_glide_hbond>  (217) 
0

>  <r_i_glide_metal>  (217) 
-0

>  <r_i_glide_rewards>  (217) 
-0.00890495

>  <r_i_glide_evdw>  (217) 
-20.0867

>  <r_i_glide_ecoul>  (217) 
-2.09391

>  <r_i_glide_erotb>  (217) 
0

>  <r_i_glide_esite>  (217) 
0

>  <r_i_glide_emodel>  (217) 
-23.8776

>  <r_i_glide_energy>  (217) 
-22.1807

>  <r_i_glide_einternal>  (217) 
0.449956

>  <r_i_glide_intrahb_reward>  (217) 
-0

>  <i_i_glide_confnum>  (217) 
1

>  <i_i_glide_posenum>  (217) 
38

>  <r_i_glide_eff_state_penalty>  (217) 
0

>  <ligand_id>  (217) 
66

>  <original_smiles>  (217) 
CC1=C2OC34CC(C)(CCC3C2(C)C2OC35COC6(C)CC(OC3C(O)C(C(C)C5)C6(C)C)C12)C4C

>  <smiles>  (217) 
[H]OC1([H])C2([H])OC3([H])C([H])([H])C4(C([H])([H])[H])OC([H])([H])C2(OC2([H])C3([H])C(C([H])([H])[H])=C3OC56C([H])([H])C(C([H])([H])[H])(C([H])([H])C([H])([H])C5([H])C32C([H])([H])[H])C6([H])C([H])([H])[H])C([H])([H])C([H])(C([H])([H])[H])C1([H])C4(C([H])([H])[H])C([H])([H])[H]

$$$$
67:0:0
     RDKit          3D

 27 29  0  0  1  0  0  0  0  0999 V2000
    3.4142   -1.1696   -4.3263 C   0  0  0  0  0  0  0  0  0  0  0  0
    3.8235   -0.2474   -3.4179 C   0  0  0  0  0  0  0  0  0  0  0  0
    4.5934   -0.9772   -2.0483 S   0  0  0  0  0  0  0  0  0  0  0  0
    4.2085   -2.5534   -2.7287 C   0  0  0  0  0  0  0  0  0  0  0  0
    4.5085   -3.7060   -1.9979 N   0  0  0  0  0  0  0  0  0  0  0  0
    5.0651   -3.8567   -0.6557 C   0  0  2  0  0  0  0  0  0  0  0  0
    5.0706   -5.3087   -0.1423 C   0  0  0  0  0  0  0  0  0  0  0  0
    4.3058   -5.1960    1.1884 C   0  0  2  0  0  0  0  0  0  0  0  0
    2.8089   -4.9514    0.8903 C   0  0  0  0  0  0  0  0  0  0  0  0
    2.7828   -3.4880    0.4143 C   0  0  0  0  0  0  0  0  0  0  0  0
    4.2755   -3.1143    0.4559 C   0  0  1  0  0  0  0  0  0  0  0  0
    4.7536   -3.8314    1.6993 C   0  0  0  0  0  0  0  0  0  0  0  0
    3.6059   -2.4961   -3.9175 N   0  0  0  0  0  0  0  0  0  0  0  0
    2.9815   -0.9577   -5.2923 H   0  0  0  0  0  0  0  0  0  0  0  0
    3.7673    0.8297   -3.4687 H   0  0  0  0  0  0  0  0  0  0  0  0
    6.0910   -3.4924   -0.6888 H   0  0  0  0  0  0  0  0  0  0  0  0
    4.6150   -6.0309   -0.8196 H   0  0  0  0  0  0  0  0  0  0  0  0
    6.0970   -5.6290    0.0345 H   0  0  0  0  0  0  0  0  0  0  0  0
    4.4904   -6.0225    1.8766 H   0  0  0  0  0  0  0  0  0  0  0  0
    2.4308   -5.6312    0.1254 H   0  0  0  0  0  0  0  0  0  0  0  0
    2.2008   -5.0637    1.7903 H   0  0  0  0  0  0  0  0  0  0  0  0
    2.3215   -3.3689   -0.5685 H   0  0  0  0  0  0  0  0  0  0  0  0
    2.2162   -2.8556    1.0994 H   0  0  0  0  0  0  0  0  0  0  0  0
    4.4547   -2.0471    0.5391 H   0  0  0  0  0  0  0  0  0  0  0  0
    4.2382   -3.4907    2.5994 H   0  0  0  0  0  0  0  0  0  0  0  0
    5.8311   -3.7373    1.8442 H   0  0  0  0  0  0  0  0  0  0  0  0
    4.0372   -4.5368   -2.3525 H   0  0  0  0  0  0  0  0  0  0  0  0
  1 13  1  0
  1  2  2  0
  1 14  1  0
  2  3  1  0
  2 15  1  0
  3  4  1  0
  4  5  1  0
  4 13  2  0
  5  6  1  0
  5 27  1  0
  6 11  1  0
  6  7  1  0
  6 16  1  6
  7  8  1  0
  7 17  1  0
  7 18  1  0
  8 12  1  0
  8  9  1  0
  8 19  1  1
  9 10  1  0
  9 20  1  0
  9 21  1  0
 10 11  1  0
 10 22  1  0
 10 23  1  0
 11 12  1  0
 11 24  1  1
 12 25  1  0
 12 26  1  0
M  END
>  <i_m_ct_stereo_status>  (218) 
1

>  <s_m_source_file>  (218) 
/var/tmp/pbs.5076255.sched01/tmpz7m1v8ep/860kfiy9lw.sdf

>  <i_m_source_file_index>  (218) 
15

>  <i_lp_mmshare_version>  (218) 
48012

>  <i_f3d_flags>  (218) 
0

>  <s_epik_input>  (218) 
W25IXTFbY0hdW2NIXXMvYzE9TlxbQ0BIXShbQ0gyXVtDQEhdMjMpW0NASF0oW0NIMl0zKVtDSDJdW0NIMl0y

>  <s_epik_cmdline>  (218) 
J2VwaWtfcHl0aG9uJywgJy1waHQnLCAnMi4wJywgJy1waCcsICc3LjAnLCAnLXRuJywgJzgnLCAnLW1hJywgJzIwMCcsICctaW1hZScsICc8aW5maWxlLm1hZT4nLCAnLW9tYWUnLCAnPG91dGZpbGUubWFlPic=

>  <r_epik_Ionization_Penalty>  (218) 
0.0466061

>  <r_epik_Ionization_Penalty_Charging>  (218) 
0

>  <r_epik_Ionization_Penalty_Neutral>  (218) 
0.0466061

>  <r_epik_State_Penalty>  (218) 
0.0396278

>  <r_epik_Charging_Adjusted_Penalty>  (218) 
0.0396278

>  <i_epik_Tot_Q>  (218) 
0

>  <i_epik_Tot_abs_Q>  (218) 
0

>  <s_lp_Force_Field>  (218) 
OPLS3e

>  <r_lp_Energy>  (218) 
36.4071

>  <b_lp_Chiralities_Consistent>  (218) 
1

>  <s_lp_Variant>  (218) 
67:0-1

>  <s_i_glide_gridfile>  (218) 
pfpi4k_grid

>  <i_i_glide_lignum>  (218) 
15

>  <i_i_glide_rotatable_bonds>  (218) 
2

>  <r_i_docking_score>  (218) 
-3.73088

>  <r_i_glide_ligand_efficiency>  (218) 
-0.286991

>  <r_i_glide_ligand_efficiency_sa>  (218) 
-0.674812

>  <r_i_glide_ligand_efficiency_ln>  (218) 
-1.04655

>  <r_i_glide_gscore>  (218) 
-3.73088

>  <r_i_glide_lipo>  (218) 
-0.399606

>  <r_i_glide_hbond>  (218) 
-0.42791

>  <r_i_glide_metal>  (218) 
-0

>  <r_i_glide_rewards>  (218) 
-2.08433

>  <r_i_glide_evdw>  (218) 
-21.3104

>  <r_i_glide_ecoul>  (218) 
-3.93359

>  <r_i_glide_erotb>  (218) 
0.856924

>  <r_i_glide_esite>  (218) 
-0.0203961

>  <r_i_glide_emodel>  (218) 
-29.8035

>  <r_i_glide_energy>  (218) 
-25.244

>  <r_i_glide_einternal>  (218) 
1.41901

>  <r_i_glide_intrahb_reward>  (218) 
-0

>  <i_i_glide_confnum>  (218) 
1

>  <i_i_glide_posenum>  (218) 
35

>  <r_i_glide_eff_state_penalty>  (218) 
0

>  <ligand_id>  (218) 
67

>  <original_smiles>  (218) 
c1csc(=NC2CC3CCC2C3)[nH]1

>  <smiles>  (218) 
[H]c1nc(N([H])C2([H])C([H])([H])C3([H])C([H])([H])C([H])([H])C2([H])C3([H])[H])sc1[H]

$$$$
67:0:1
     RDKit          3D

 27 29  0  0  1  0  0  0  0  0999 V2000
    3.8131   -0.3170   -3.4248 C   0  0  0  0  0  0  0  0  0  0  0  0
    3.0152   -1.0194   -4.2951 C   0  0  0  0  0  0  0  0  0  0  0  0
    2.9650   -2.7191   -3.9132 S   0  0  0  0  0  0  0  0  0  0  0  0
    4.1273   -2.4280   -2.6389 C   0  0  0  0  0  0  0  0  0  0  0  0
    4.5931   -3.4484   -1.8311 N   0  0  0  0  0  0  0  0  0  0  0  0
    5.3621   -3.3603   -0.6120 C   0  0  2  0  0  0  0  0  0  0  0  0
    5.5169   -4.7051    0.1146 C   0  0  0  0  0  0  0  0  0  0  0  0
    4.9541   -4.3908    1.5156 C   0  0  2  0  0  0  0  0  0  0  0  0
    3.4192   -4.2321    1.4243 C   0  0  0  0  0  0  0  0  0  0  0  0
    3.2496   -2.8635    0.7422 C   0  0  0  0  0  0  0  0  0  0  0  0
    4.7133   -2.4558    0.4675 C   0  0  1  0  0  0  0  0  0  0  0  0
    5.4080   -2.9485    1.7288 C   0  0  0  0  0  0  0  0  0  0  0  0
    4.4745   -1.1444   -2.5158 N   0  0  0  0  0  0  0  0  0  0  0  0
    3.9783    0.7476   -3.3934 H   0  0  0  0  0  0  0  0  0  0  0  0
    2.4172   -0.6399   -5.1090 H   0  0  0  0  0  0  0  0  0  0  0  0
    6.3534   -2.9746   -0.8508 H   0  0  0  0  0  0  0  0  0  0  0  0
    4.9928   -5.5323   -0.3647 H   0  0  0  0  0  0  0  0  0  0  0  0
    6.5720   -4.9769    0.1747 H   0  0  0  0  0  0  0  0  0  0  0  0
    5.2755   -5.0964    2.2847 H   0  0  0  0  0  0  0  0  0  0  0  0
    2.9618   -5.0323    0.8410 H   0  0  0  0  0  0  0  0  0  0  0  0
    2.9589   -4.2231    2.4135 H   0  0  0  0  0  0  0  0  0  0  0  0
    2.6280   -2.9082   -0.1531 H   0  0  0  0  0  0  0  0  0  0  0  0
    2.7705   -2.1479    1.4134 H   0  0  0  0  0  0  0  0  0  0  0  0
    4.8347   -1.3891    0.2845 H   0  0  0  0  0  0  0  0  0  0  0  0
    5.0186   -2.4943    2.6435 H   0  0  0  0  0  0  0  0  0  0  0  0
    6.4912   -2.8205    1.6984 H   0  0  0  0  0  0  0  0  0  0  0  0
    4.1367   -4.3425   -1.9907 H   0  0  0  0  0  0  0  0  0  0  0  0
  1 13  1  0
  1  2  2  0
  1 14  1  0
  2  3  1  0
  2 15  1  0
  3  4  1  0
  4  5  1  0
  4 13  2  0
  5  6  1  0
  5 27  1  0
  6 11  1  0
  6  7  1  0
  6 16  1  6
  7  8  1  0
  7 17  1  0
  7 18  1  0
  8 12  1  0
  8  9  1  0
  8 19  1  1
  9 10  1  0
  9 20  1  0
  9 21  1  0
 10 11  1  0
 10 22  1  0
 10 23  1  0
 11 12  1  0
 11 24  1  6
 12 25  1  0
 12 26  1  0
M  END
>  <i_m_ct_stereo_status>  (219) 
1

>  <s_m_source_file>  (219) 
/var/tmp/pbs.5076255.sched01/tmpz7m1v8ep/860kfiy9lw.sdf

>  <i_m_source_file_index>  (219) 
15

>  <i_lp_mmshare_version>  (219) 
48012

>  <i_f3d_flags>  (219) 
0

>  <s_epik_input>  (219) 
W25IXTFbY0hdW2NIXXMvYzE9TlxbQ0BIXShbQ0gyXVtDQEhdMjMpW0NASF0oW0NIMl0zKVtDSDJdW0NIMl0y

>  <s_epik_cmdline>  (219) 
J2VwaWtfcHl0aG9uJywgJy1waHQnLCAnMi4wJywgJy1waCcsICc3LjAnLCAnLXRuJywgJzgnLCAnLW1hJywgJzIwMCcsICctaW1hZScsICc8aW5maWxlLm1hZT4nLCAnLW9tYWUnLCAnPG91dGZpbGUubWFlPic=

>  <r_epik_Ionization_Penalty>  (219) 
0.0466061

>  <r_epik_Ionization_Penalty_Charging>  (219) 
0

>  <r_epik_Ionization_Penalty_Neutral>  (219) 
0.0466061

>  <r_epik_State_Penalty>  (219) 
0.0396278

>  <r_epik_Charging_Adjusted_Penalty>  (219) 
0.0396278

>  <i_epik_Tot_Q>  (219) 
0

>  <i_epik_Tot_abs_Q>  (219) 
0

>  <s_lp_Force_Field>  (219) 
OPLS3e

>  <r_lp_Energy>  (219) 
36.4071

>  <b_lp_Chiralities_Consistent>  (219) 
1

>  <s_lp_Variant>  (219) 
67:0-1

>  <s_i_glide_gridfile>  (219) 
pfpi4k_grid

>  <i_i_glide_lignum>  (219) 
15

>  <i_i_glide_rotatable_bonds>  (219) 
2

>  <r_i_docking_score>  (219) 
-3.68841

>  <r_i_glide_ligand_efficiency>  (219) 
-0.283724

>  <r_i_glide_ligand_efficiency_sa>  (219) 
-0.667131

>  <r_i_glide_ligand_efficiency_ln>  (219) 
-1.03463

>  <r_i_glide_gscore>  (219) 
-3.68841

>  <r_i_glide_lipo>  (219) 
-0.721513

>  <r_i_glide_hbond>  (219) 
-0.180995

>  <r_i_glide_metal>  (219) 
-0

>  <r_i_glide_rewards>  (219) 
-2.08433

>  <r_i_glide_evdw>  (219) 
-22.3624

>  <r_i_glide_ecoul>  (219) 
-2.92637

>  <r_i_glide_erotb>  (219) 
0.856924

>  <r_i_glide_esite>  (219) 
-0.0014206

>  <r_i_glide_emodel>  (219) 
-30.7115

>  <r_i_glide_energy>  (219) 
-25.2888

>  <r_i_glide_einternal>  (219) 
0.376261

>  <r_i_glide_intrahb_reward>  (219) 
-0

>  <i_i_glide_confnum>  (219) 
1

>  <i_i_glide_posenum>  (219) 
11

>  <r_i_glide_eff_state_penalty>  (219) 
0

>  <ligand_id>  (219) 
67

>  <original_smiles>  (219) 
c1csc(=NC2CC3CCC2C3)[nH]1

>  <smiles>  (219) 
[H]c1nc(N([H])C2([H])C([H])([H])C3([H])C([H])([H])C([H])([H])C2([H])C3([H])[H])sc1[H]

$$$$
67:0:2
     RDKit          3D

 27 29  0  0  1  0  0  0  0  0999 V2000
    3.8078   -0.0686   -3.6165 C   0  0  0  0  0  0  0  0  0  0  0  0
    3.0209   -0.9411   -4.3172 C   0  0  0  0  0  0  0  0  0  0  0  0
    3.1340   -2.5691   -3.6965 S   0  0  0  0  0  0  0  0  0  0  0  0
    4.3132   -1.9859   -2.5339 C   0  0  0  0  0  0  0  0  0  0  0  0
    4.9020   -2.8098   -1.5844 N   0  0  0  0  0  0  0  0  0  0  0  0
    5.7134   -2.4482   -0.4306 C   0  0  2  0  0  0  0  0  0  0  0  0
    5.9331   -3.6086    0.5548 C   0  0  0  0  0  0  0  0  0  0  0  0
    5.4019   -3.0255    1.8790 C   0  0  2  0  0  0  0  0  0  0  0  0
    3.8617   -2.9233    1.8136 C   0  0  0  0  0  0  0  0  0  0  0  0
    3.6325   -1.7282    0.8715 C   0  0  0  0  0  0  0  0  0  0  0  0
    5.0730   -1.3532    0.4645 C   0  0  1  0  0  0  0  0  0  0  0  0
    5.8145   -1.5593    1.7755 C   0  0  0  0  0  0  0  0  0  0  0  0
    4.5604   -0.6794   -2.6178 N   0  0  0  0  0  0  0  0  0  0  0  0
    3.8791    0.9992   -3.7442 H   0  0  0  0  0  0  0  0  0  0  0  0
    2.3477   -0.6992   -5.1215 H   0  0  0  0  0  0  0  0  0  0  0  0
    6.6842   -2.1004   -0.7836 H   0  0  0  0  0  0  0  0  0  0  0  0
    5.4179   -4.5278    0.2750 H   0  0  0  0  0  0  0  0  0  0  0  0
    6.9954   -3.8388    0.6309 H   0  0  0  0  0  0  0  0  0  0  0  0
    5.7668   -3.5497    2.7642 H   0  0  0  0  0  0  0  0  0  0  0  0
    3.4073   -3.8358    1.4254 H   0  0  0  0  0  0  0  0  0  0  0  0
    3.4312   -2.7203    2.7956 H   0  0  0  0  0  0  0  0  0  0  0  0
    2.9874   -1.9744    0.0289 H   0  0  0  0  0  0  0  0  0  0  0  0
    3.1514   -0.9012    1.3986 H   0  0  0  0  0  0  0  0  0  0  0  0
    5.1609   -0.3408    0.0723 H   0  0  0  0  0  0  0  0  0  0  0  0
    5.4402   -0.9363    2.5930 H   0  0  0  0  0  0  0  0  0  0  0  0
    6.8924   -1.4120    1.6828 H   0  0  0  0  0  0  0  0  0  0  0  0
    4.5345   -3.7584   -1.5624 H   0  0  0  0  0  0  0  0  0  0  0  0
  1 13  1  0
  1  2  2  0
  1 14  1  0
  2  3  1  0
  2 15  1  0
  3  4  1  0
  4  5  1  0
  4 13  2  0
  5  6  1  0
  5 27  1  0
  6 11  1  0
  6  7  1  0
  6 16  1  6
  7  8  1  0
  7 17  1  0
  7 18  1  0
  8 12  1  0
  8  9  1  0
  8 19  1  1
  9 10  1  0
  9 20  1  0
  9 21  1  0
 10 11  1  0
 10 22  1  0
 10 23  1  0
 11 12  1  0
 11 24  1  6
 12 25  1  0
 12 26  1  0
M  END
>  <i_m_ct_stereo_status>  (220) 
1

>  <s_m_source_file>  (220) 
/var/tmp/pbs.5076255.sched01/tmpz7m1v8ep/860kfiy9lw.sdf

>  <i_m_source_file_index>  (220) 
15

>  <i_lp_mmshare_version>  (220) 
48012

>  <i_f3d_flags>  (220) 
0

>  <s_epik_input>  (220) 
W25IXTFbY0hdW2NIXXMvYzE9TlxbQ0BIXShbQ0gyXVtDQEhdMjMpW0NASF0oW0NIMl0zKVtDSDJdW0NIMl0y

>  <s_epik_cmdline>  (220) 
J2VwaWtfcHl0aG9uJywgJy1waHQnLCAnMi4wJywgJy1waCcsICc3LjAnLCAnLXRuJywgJzgnLCAnLW1hJywgJzIwMCcsICctaW1hZScsICc8aW5maWxlLm1hZT4nLCAnLW9tYWUnLCAnPG91dGZpbGUubWFlPic=

>  <r_epik_Ionization_Penalty>  (220) 
0.0466061

>  <r_epik_Ionization_Penalty_Charging>  (220) 
0

>  <r_epik_Ionization_Penalty_Neutral>  (220) 
0.0466061

>  <r_epik_State_Penalty>  (220) 
0.0396278

>  <r_epik_Charging_Adjusted_Penalty>  (220) 
0.0396278

>  <i_epik_Tot_Q>  (220) 
0

>  <i_epik_Tot_abs_Q>  (220) 
0

>  <s_lp_Force_Field>  (220) 
OPLS3e

>  <r_lp_Energy>  (220) 
36.4071

>  <b_lp_Chiralities_Consistent>  (220) 
1

>  <s_lp_Variant>  (220) 
67:0-1

>  <s_i_glide_gridfile>  (220) 
pfpi4k_grid

>  <i_i_glide_lignum>  (220) 
15

>  <i_i_glide_rotatable_bonds>  (220) 
2

>  <r_i_docking_score>  (220) 
-3.42316

>  <r_i_glide_ligand_efficiency>  (220) 
-0.26332

>  <r_i_glide_ligand_efficiency_sa>  (220) 
-0.619154

>  <r_i_glide_ligand_efficiency_ln>  (220) 
-0.960228

>  <r_i_glide_gscore>  (220) 
-3.42316

>  <r_i_glide_lipo>  (220) 
-0.76626

>  <r_i_glide_hbond>  (220) 
0

>  <r_i_glide_metal>  (220) 
-0

>  <r_i_glide_rewards>  (220) 
-2.08433

>  <r_i_glide_evdw>  (220) 
-22.6238

>  <r_i_glide_ecoul>  (220) 
-1.96102

>  <r_i_glide_erotb>  (220) 
0.856924

>  <r_i_glide_esite>  (220) 
-0.00414749

>  <r_i_glide_emodel>  (220) 
-29.3945

>  <r_i_glide_energy>  (220) 
-24.5849

>  <r_i_glide_einternal>  (220) 
0.699265

>  <r_i_glide_intrahb_reward>  (220) 
-0

>  <i_i_glide_confnum>  (220) 
1

>  <i_i_glide_posenum>  (220) 
6

>  <r_i_glide_eff_state_penalty>  (220) 
0

>  <ligand_id>  (220) 
67

>  <original_smiles>  (220) 
c1csc(=NC2CC3CCC2C3)[nH]1

>  <smiles>  (220) 
[H]c1nc(N([H])C2([H])C([H])([H])C3([H])C([H])([H])C([H])([H])C2([H])C3([H])[H])sc1[H]

$$$$
67:1:0
     RDKit          3D

 28 30  0  0  1  0  0  0  0  0999 V2000
    3.8942   -0.6955   -2.8215 C   0  0  0  0  0  0  0  0  0  0  0  0
    3.1197   -1.1904   -3.8359 C   0  0  0  0  0  0  0  0  0  0  0  0
    2.6201   -2.8282   -3.5104 S   0  0  0  0  0  0  0  0  0  0  0  0
    3.4817   -2.8020   -1.9995 C   0  0  0  0  0  0  0  0  0  0  0  0
    3.5215   -3.8321   -1.1453 N   0  0  0  0  0  0  0  0  0  0  0  0
    4.0946   -3.7391    0.1969 C   0  0  2  0  0  0  0  0  0  0  0  0
    5.4590   -4.4553    0.3250 C   0  0  0  0  0  0  0  0  0  0  0  0
    5.2006   -5.4893    1.4376 C   0  0  2  0  0  0  0  0  0  0  0  0
    4.2868   -6.6047    0.8938 C   0  0  0  0  0  0  0  0  0  0  0  0
    2.9147   -5.9117    0.8199 C   0  0  0  0  0  0  0  0  0  0  0  0
    3.2397   -4.4691    1.2611 C   0  0  1  0  0  0  0  0  0  0  0  0
    4.2632   -4.7260    2.3629 C   0  0  0  0  0  0  0  0  0  0  0  0
    4.0861   -1.6189   -1.7993 N   0  0  0  0  0  0  0  0  0  0  0  0
    4.6059   -1.4070   -0.9569 H   0  0  0  0  0  0  0  0  0  0  0  0
    4.3140    0.2942   -2.7209 H   0  0  0  0  0  0  0  0  0  0  0  0
    2.7823   -0.6824   -4.7263 H   0  0  0  0  0  0  0  0  0  0  0  0
    4.2055   -2.6969    0.5044 H   0  0  0  0  0  0  0  0  0  0  0  0
    5.7975   -4.9234   -0.6004 H   0  0  0  0  0  0  0  0  0  0  0  0
    6.2302   -3.7472    0.6363 H   0  0  0  0  0  0  0  0  0  0  0  0
    6.1097   -5.8615    1.9086 H   0  0  0  0  0  0  0  0  0  0  0  0
    4.6183   -6.9727   -0.0778 H   0  0  0  0  0  0  0  0  0  0  0  0
    4.2512   -7.4535    1.5767 H   0  0  0  0  0  0  0  0  0  0  0  0
    2.4648   -5.9768   -0.1703 H   0  0  0  0  0  0  0  0  0  0  0  0
    2.2173   -6.3786    1.5157 H   0  0  0  0  0  0  0  0  0  0  0  0
    2.3626   -3.9012    1.5777 H   0  0  0  0  0  0  0  0  0  0  0  0
    3.8739   -5.3367    3.1784 H   0  0  0  0  0  0  0  0  0  0  0  0
    4.7018   -3.8172    2.7769 H   0  0  0  0  0  0  0  0  0  0  0  0
    3.1798   -4.7425   -1.4427 H   0  0  0  0  0  0  0  0  0  0  0  0
  1 13  1  0
  1  2  2  0
  1 15  1  0
  2  3  1  0
  2 16  1  0
  3  4  1  0
  4  5  1  0
  4 13  2  0
  5  6  1  0
  5 28  1  0
  6 11  1  0
  6  7  1  0
  6 17  1  1
  7  8  1  0
  7 18  1  0
  7 19  1  0
  8 12  1  0
  8  9  1  0
  8 20  1  1
  9 10  1  0
  9 21  1  0
  9 22  1  0
 10 11  1  0
 10 23  1  0
 10 24  1  0
 11 12  1  0
 11 25  1  1
 12 26  1  0
 12 27  1  0
 13 14  1  0
M  CHG  1  13   1
M  END
>  <i_m_ct_stereo_status>  (221) 
1

>  <s_m_source_file>  (221) 
/var/tmp/pbs.5076255.sched01/tmpz7m1v8ep/860kfiy9lw.sdf

>  <i_m_source_file_index>  (221) 
16

>  <i_lp_mmshare_version>  (221) 
48012

>  <i_f3d_flags>  (221) 
0

>  <s_epik_input>  (221) 
W25IXTFbY0hdW2NIXXMvYzE9TlxbQ0BIXShbQ0gyXVtDQEhdMjMpW0NASF0oW0NIMl0zKVtDSDJdW0NIMl0y

>  <s_epik_cmdline>  (221) 
J2VwaWtfcHl0aG9uJywgJy1waHQnLCAnMi4wJywgJy1waCcsICc3LjAnLCAnLXRuJywgJzgnLCAnLW1hJywgJzIwMCcsICctaW1hZScsICc8aW5maWxlLm1hZT4nLCAnLW9tYWUnLCAnPG91dGZpbGUubWFlPic=

>  <r_lp_tautomer_probability>  (221) 
1

>  <r_epik_Ionization_Penalty>  (221) 
1.53285

>  <r_epik_Ionization_Penalty_Charging>  (221) 
1.52973

>  <r_epik_Ionization_Penalty_Neutral>  (221) 
0.00311578

>  <r_epik_State_Penalty>  (221) 
1.62226

>  <r_epik_Charging_Adjusted_Penalty>  (221) 
3.15199

>  <i_epik_Tot_Q>  (221) 
1

>  <i_epik_Tot_abs_Q>  (221) 
1

>  <s_lp_Force_Field>  (221) 
OPLS3e

>  <r_lp_Energy>  (221) 
38.3758

>  <b_lp_Chiralities_Consistent>  (221) 
1

>  <s_lp_Variant>  (221) 
67:0-2

>  <s_i_glide_gridfile>  (221) 
pfpi4k_grid

>  <i_i_glide_lignum>  (221) 
16

>  <i_i_glide_rotatable_bonds>  (221) 
2

>  <r_i_docking_score>  (221) 
-3.90345

>  <r_i_glide_ligand_efficiency>  (221) 
-0.300265

>  <r_i_glide_ligand_efficiency_sa>  (221) 
-0.706024

>  <r_i_glide_ligand_efficiency_ln>  (221) 
-1.09495

>  <r_i_glide_gscore>  (221) 
-3.90345

>  <r_i_glide_lipo>  (221) 
-0.728918

>  <r_i_glide_hbond>  (221) 
0

>  <r_i_glide_metal>  (221) 
-0

>  <r_i_glide_rewards>  (221) 
-2.07746

>  <r_i_glide_evdw>  (221) 
-19.6717

>  <r_i_glide_ecoul>  (221) 
-6.08038

>  <r_i_glide_erotb>  (221) 
0.849591

>  <r_i_glide_esite>  (221) 
-0.0510167

>  <r_i_glide_emodel>  (221) 
-30.8358

>  <r_i_glide_energy>  (221) 
-25.7521

>  <r_i_glide_einternal>  (221) 
3.25318

>  <r_i_glide_intrahb_reward>  (221) 
-0

>  <i_i_glide_confnum>  (221) 
3

>  <i_i_glide_posenum>  (221) 
33

>  <r_i_glide_eff_state_penalty>  (221) 
0

>  <ligand_id>  (221) 
67

>  <original_smiles>  (221) 
c1csc(=NC2CC3CCC2C3)[nH]1

>  <smiles>  (221) 
[H]c1sc(N([H])C2([H])C([H])([H])C3([H])C([H])([H])C([H])([H])C2([H])C3([H])[H])[n+]([H])c1[H]

$$$$
67:1:1
     RDKit          3D

 28 30  0  0  1  0  0  0  0  0999 V2000
    8.9484   -3.0681    0.0653 C   0  0  0  0  0  0  0  0  0  0  0  0
    8.2467   -3.9077    0.8793 C   0  0  0  0  0  0  0  0  0  0  0  0
    6.6533   -4.2320    0.2496 S   0  0  0  0  0  0  0  0  0  0  0  0
    7.0559   -3.3407   -1.1985 C   0  0  0  0  0  0  0  0  0  0  0  0
    6.3303   -3.2031   -2.3144 N   0  0  0  0  0  0  0  0  0  0  0  0
    4.9420   -3.6529   -2.3546 C   0  0  2  0  0  0  0  0  0  0  0  0
    4.3229   -3.5149   -3.7626 C   0  0  0  0  0  0  0  0  0  0  0  0
    3.1190   -2.5877   -3.5355 C   0  0  2  0  0  0  0  0  0  0  0  0
    3.6204   -1.1636   -3.2329 C   0  0  0  0  0  0  0  0  0  0  0  0
    4.1785   -1.2950   -1.8030 C   0  0  0  0  0  0  0  0  0  0  0  0
    3.9806   -2.7950   -1.5001 C   0  0  1  0  0  0  0  0  0  0  0  0
    2.6426   -3.0618   -2.1834 C   0  0  0  0  0  0  0  0  0  0  0  0
    8.2805   -2.8135   -1.1235 N   0  0  0  0  0  0  0  0  0  0  0  0
    8.7605   -2.3406   -1.8861 H   0  0  0  0  0  0  0  0  0  0  0  0
    9.9331   -2.6338    0.1911 H   0  0  0  0  0  0  0  0  0  0  0  0
    8.5609   -4.3145    1.8347 H   0  0  0  0  0  0  0  0  0  0  0  0
    4.8821   -4.7003   -2.0478 H   0  0  0  0  0  0  0  0  0  0  0  0
    5.0165   -3.1204   -4.4855 H   0  0  0  0  0  0  0  0  0  0  0  0
    3.9845   -4.4871   -4.1310 H   0  0  0  0  0  0  0  0  0  0  0  0
    2.3613   -2.6328   -4.3147 H   0  0  0  0  0  0  0  0  0  0  0  0
    4.3771   -0.8362   -3.9478 H   0  0  0  0  0  0  0  0  0  0  0  0
    2.8036   -0.4415   -3.2566 H   0  0  0  0  0  0  0  0  0  0  0  0
    5.2104   -0.9535   -1.7211 H   0  0  0  0  0  0  0  0  0  0  0  0
    3.5882   -0.6968   -1.1085 H   0  0  0  0  0  0  0  0  0  0  0  0
    3.9895   -3.0350   -0.4365 H   0  0  0  0  0  0  0  0  0  0  0  0
    1.8188   -2.4615   -1.8318 H   0  0  0  0  0  0  0  0  0  0  0  0
    2.3103   -4.0982   -2.1598 H   0  0  0  0  0  0  0  0  0  0  0  0
    6.7325   -2.7705   -3.1359 H   0  0  0  0  0  0  0  0  0  0  0  0
  1 13  1  0
  1  2  2  0
  1 15  1  0
  2  3  1  0
  2 16  1  0
  3  4  1  0
  4  5  1  0
  4 13  2  0
  5  6  1  0
  5 28  1  0
  6 11  1  0
  6  7  1  0
  6 17  1  1
  7  8  1  0
  7 18  1  0
  7 19  1  0
  8 12  1  0
  8  9  1  0
  8 20  1  6
  9 10  1  0
  9 21  1  0
  9 22  1  0
 10 11  1  0
 10 23  1  0
 10 24  1  0
 11 12  1  0
 11 25  1  1
 12 26  1  0
 12 27  1  0
 13 14  1  0
M  CHG  1  13   1
M  END
>  <i_m_ct_stereo_status>  (222) 
1

>  <s_m_source_file>  (222) 
/var/tmp/pbs.5076255.sched01/tmpz7m1v8ep/860kfiy9lw.sdf

>  <i_m_source_file_index>  (222) 
16

>  <i_lp_mmshare_version>  (222) 
48012

>  <i_f3d_flags>  (222) 
0

>  <s_epik_input>  (222) 
W25IXTFbY0hdW2NIXXMvYzE9TlxbQ0BIXShbQ0gyXVtDQEhdMjMpW0NASF0oW0NIMl0zKVtDSDJdW0NIMl0y

>  <s_epik_cmdline>  (222) 
J2VwaWtfcHl0aG9uJywgJy1waHQnLCAnMi4wJywgJy1waCcsICc3LjAnLCAnLXRuJywgJzgnLCAnLW1hJywgJzIwMCcsICctaW1hZScsICc8aW5maWxlLm1hZT4nLCAnLW9tYWUnLCAnPG91dGZpbGUubWFlPic=

>  <r_lp_tautomer_probability>  (222) 
1

>  <r_epik_Ionization_Penalty>  (222) 
1.53285

>  <r_epik_Ionization_Penalty_Charging>  (222) 
1.52973

>  <r_epik_Ionization_Penalty_Neutral>  (222) 
0.00311578

>  <r_epik_State_Penalty>  (222) 
1.62226

>  <r_epik_Charging_Adjusted_Penalty>  (222) 
3.15199

>  <i_epik_Tot_Q>  (222) 
1

>  <i_epik_Tot_abs_Q>  (222) 
1

>  <s_lp_Force_Field>  (222) 
OPLS3e

>  <r_lp_Energy>  (222) 
38.3758

>  <b_lp_Chiralities_Consistent>  (222) 
1

>  <s_lp_Variant>  (222) 
67:0-2

>  <s_i_glide_gridfile>  (222) 
pfpi4k_grid

>  <i_i_glide_lignum>  (222) 
16

>  <i_i_glide_rotatable_bonds>  (222) 
2

>  <r_i_docking_score>  (222) 
-3.64325

>  <r_i_glide_ligand_efficiency>  (222) 
-0.28025

>  <r_i_glide_ligand_efficiency_sa>  (222) 
-0.658962

>  <r_i_glide_ligand_efficiency_ln>  (222) 
-1.02196

>  <r_i_glide_gscore>  (222) 
-3.64325

>  <r_i_glide_lipo>  (222) 
-0.839251

>  <r_i_glide_hbond>  (222) 
-0.0189813

>  <r_i_glide_metal>  (222) 
-0

>  <r_i_glide_rewards>  (222) 
-2.07746

>  <r_i_glide_evdw>  (222) 
-17.6568

>  <r_i_glide_ecoul>  (222) 
-4.01686

>  <r_i_glide_erotb>  (222) 
0.849591

>  <r_i_glide_esite>  (222) 
-0.0717781

>  <r_i_glide_emodel>  (222) 
-27.8655

>  <r_i_glide_energy>  (222) 
-21.6736

>  <r_i_glide_einternal>  (222) 
0.132584

>  <r_i_glide_intrahb_reward>  (222) 
-0

>  <i_i_glide_confnum>  (222) 
1

>  <i_i_glide_posenum>  (222) 
3

>  <r_i_glide_eff_state_penalty>  (222) 
0

>  <ligand_id>  (222) 
67

>  <original_smiles>  (222) 
c1csc(=NC2CC3CCC2C3)[nH]1

>  <smiles>  (222) 
[H]c1sc(N([H])C2([H])C([H])([H])C3([H])C([H])([H])C([H])([H])C2([H])C3([H])[H])[n+]([H])c1[H]

$$$$
67:1:2
     RDKit          3D

 28 30  0  0  1  0  0  0  0  0999 V2000
    3.2854   -1.5825   -3.6860 C   0  0  0  0  0  0  0  0  0  0  0  0
    3.8974   -0.6145   -2.9374 C   0  0  0  0  0  0  0  0  0  0  0  0
    4.3129   -1.2035   -1.3477 S   0  0  0  0  0  0  0  0  0  0  0  0
    3.6363   -2.7605   -1.7449 C   0  0  0  0  0  0  0  0  0  0  0  0
    3.5522   -3.8474   -0.9730 N   0  0  0  0  0  0  0  0  0  0  0  0
    4.1031   -3.8750    0.3837 C   0  0  2  0  0  0  0  0  0  0  0  0
    5.4466   -4.6354    0.4899 C   0  0  0  0  0  0  0  0  0  0  0  0
    5.1369   -5.7450    1.5138 C   0  0  2  0  0  0  0  0  0  0  0  0
    4.2053   -6.7857    0.8689 C   0  0  0  0  0  0  0  0  0  0  0  0
    2.8549   -6.0485    0.8234 C   0  0  0  0  0  0  0  0  0  0  0  0
    3.2119   -4.6549    1.3795 C   0  0  1  0  0  0  0  0  0  0  0  0
    4.2036   -5.0308    2.4774 C   0  0  0  0  0  0  0  0  0  0  0  0
    3.1541   -2.7817   -2.9952 N   0  0  0  0  0  0  0  0  0  0  0  0
    2.6933   -3.5953   -3.3864 H   0  0  0  0  0  0  0  0  0  0  0  0
    2.8809   -1.4883   -4.6836 H   0  0  0  0  0  0  0  0  0  0  0  0
    4.0884    0.4173   -3.2029 H   0  0  0  0  0  0  0  0  0  0  0  0
    4.2397   -2.8674    0.7809 H   0  0  0  0  0  0  0  0  0  0  0  0
    5.8059   -5.0403   -0.4591 H   0  0  0  0  0  0  0  0  0  0  0  0
    6.2263   -3.9776    0.8804 H   0  0  0  0  0  0  0  0  0  0  0  0
    6.0234   -6.1820    1.9714 H   0  0  0  0  0  0  0  0  0  0  0  0
    4.5508   -7.0802   -0.1236 H   0  0  0  0  0  0  0  0  0  0  0  0
    4.1299   -7.6868    1.4761 H   0  0  0  0  0  0  0  0  0  0  0  0
    2.4242   -6.0238   -0.1759 H   0  0  0  0  0  0  0  0  0  0  0  0
    2.1298   -6.5450    1.4683 H   0  0  0  0  0  0  0  0  0  0  0  0
    2.3468   -4.0861    1.7278 H   0  0  0  0  0  0  0  0  0  0  0  0
    3.7779   -5.6961    3.2301 H   0  0  0  0  0  0  0  0  0  0  0  0
    4.6604   -4.1760    2.9793 H   0  0  0  0  0  0  0  0  0  0  0  0
    3.1833   -4.7133   -1.3554 H   0  0  0  0  0  0  0  0  0  0  0  0
  1 13  1  0
  1  2  2  0
  1 15  1  0
  2  3  1  0
  2 16  1  0
  3  4  1  0
  4  5  1  0
  4 13  2  0
  5  6  1  0
  5 28  1  0
  6 11  1  0
  6  7  1  0
  6 17  1  1
  7  8  1  0
  7 18  1  0
  7 19  1  0
  8 12  1  0
  8  9  1  0
  8 20  1  1
  9 10  1  0
  9 21  1  0
  9 22  1  0
 10 11  1  0
 10 23  1  0
 10 24  1  0
 11 12  1  0
 11 25  1  1
 12 26  1  0
 12 27  1  0
 13 14  1  0
M  CHG  1  13   1
M  END
>  <i_m_ct_stereo_status>  (223) 
1

>  <s_m_source_file>  (223) 
/var/tmp/pbs.5076255.sched01/tmpz7m1v8ep/860kfiy9lw.sdf

>  <i_m_source_file_index>  (223) 
16

>  <i_lp_mmshare_version>  (223) 
48012

>  <i_f3d_flags>  (223) 
0

>  <s_epik_input>  (223) 
W25IXTFbY0hdW2NIXXMvYzE9TlxbQ0BIXShbQ0gyXVtDQEhdMjMpW0NASF0oW0NIMl0zKVtDSDJdW0NIMl0y

>  <s_epik_cmdline>  (223) 
J2VwaWtfcHl0aG9uJywgJy1waHQnLCAnMi4wJywgJy1waCcsICc3LjAnLCAnLXRuJywgJzgnLCAnLW1hJywgJzIwMCcsICctaW1hZScsICc8aW5maWxlLm1hZT4nLCAnLW9tYWUnLCAnPG91dGZpbGUubWFlPic=

>  <r_lp_tautomer_probability>  (223) 
1

>  <r_epik_Ionization_Penalty>  (223) 
1.53285

>  <r_epik_Ionization_Penalty_Charging>  (223) 
1.52973

>  <r_epik_Ionization_Penalty_Neutral>  (223) 
0.00311578

>  <r_epik_State_Penalty>  (223) 
1.62226

>  <r_epik_Charging_Adjusted_Penalty>  (223) 
3.15199

>  <i_epik_Tot_Q>  (223) 
1

>  <i_epik_Tot_abs_Q>  (223) 
1

>  <s_lp_Force_Field>  (223) 
OPLS3e

>  <r_lp_Energy>  (223) 
38.3758

>  <b_lp_Chiralities_Consistent>  (223) 
1

>  <s_lp_Variant>  (223) 
67:0-2

>  <s_i_glide_gridfile>  (223) 
pfpi4k_grid

>  <i_i_glide_lignum>  (223) 
16

>  <i_i_glide_rotatable_bonds>  (223) 
2

>  <r_i_docking_score>  (223) 
-3.55613

>  <r_i_glide_ligand_efficiency>  (223) 
-0.273549

>  <r_i_glide_ligand_efficiency_sa>  (223) 
-0.643204

>  <r_i_glide_ligand_efficiency_ln>  (223) 
-0.997527

>  <r_i_glide_gscore>  (223) 
-3.55613

>  <r_i_glide_lipo>  (223) 
-0.613695

>  <r_i_glide_hbond>  (223) 
0

>  <r_i_glide_metal>  (223) 
-0

>  <r_i_glide_rewards>  (223) 
-2.07746

>  <r_i_glide_evdw>  (223) 
-17.4754

>  <r_i_glide_ecoul>  (223) 
-5.52753

>  <r_i_glide_erotb>  (223) 
0.849591

>  <r_i_glide_esite>  (223) 
-0.0116654

>  <r_i_glide_emodel>  (223) 
-28.7563

>  <r_i_glide_energy>  (223) 
-23.003

>  <r_i_glide_einternal>  (223) 
0.844414

>  <r_i_glide_intrahb_reward>  (223) 
-0

>  <i_i_glide_confnum>  (223) 
3

>  <i_i_glide_posenum>  (223) 
7

>  <r_i_glide_eff_state_penalty>  (223) 
0

>  <ligand_id>  (223) 
67

>  <original_smiles>  (223) 
c1csc(=NC2CC3CCC2C3)[nH]1

>  <smiles>  (223) 
[H]c1sc(N([H])C2([H])C([H])([H])C3([H])C([H])([H])C([H])([H])C2([H])C3([H])[H])[n+]([H])c1[H]

$$$$
68:0:0
     RDKit          3D

 70 75  0  0  1  0  0  0  0  0999 V2000
    2.9237   -1.0791    8.1951 C   0  0  0  0  0  0  0  0  0  0  0  0
    2.8250    0.0255    7.1008 C   0  0  2  0  0  0  0  0  0  0  0  0
    4.2954    0.5467    6.9229 C   0  0  0  0  0  0  0  0  0  0  0  0
    5.1045    0.1665    5.6751 C   0  0  0  0  0  0  0  0  0  0  0  0
    4.4359   -0.8250    4.7468 C   0  0  0  0  0  0  0  0  0  0  0  0
    2.9402   -0.5517    4.4225 C   0  0  2  0  0  0  0  0  0  0  0  0
    2.6262   -1.8496    3.6025 C   0  0  0  0  0  0  0  0  0  0  0  0
    2.7784    0.8351    3.5610 C   0  0  1  0  0  0  0  0  0  0  0  0
    2.0124    0.7844    2.2304 C   0  0  1  0  0  0  0  0  0  0  0  0
    2.5857   -0.0868    1.2766 O   0  0  0  0  0  0  0  0  0  0  0  0
    0.5378    0.4935    2.4762 C   0  0  0  0  0  0  0  0  0  0  0  0
   -0.1544    1.5763    3.2786 C   0  0  0  0  0  0  0  0  0  0  0  0
   -1.3597    1.9267    2.7799 C   0  0  0  0  0  0  0  0  0  0  0  0
   -2.0984    3.1965    3.0557 C   0  0  1  0  0  0  0  0  0  0  0  0
   -3.2858    2.9433    3.7753 O   0  0  0  0  0  0  0  0  0  0  0  0
   -1.2153    4.2769    3.6736 C   0  0  0  0  0  0  0  0  0  0  0  0
    0.2792    3.9008    3.8842 C   0  0  1  0  0  0  0  0  0  0  0  0
    0.7721    4.9928    4.6307 O   0  0  0  0  0  0  0  0  0  0  0  0
    0.6190    2.4076    4.3547 C   0  0  2  0  0  0  0  0  0  0  0  0
    2.1797    2.0890    4.2905 C   0  0  0  0  0  0  0  0  0  0  0  0
    3.0817    3.0820    5.0418 C   0  0  1  0  0  0  0  0  0  0  0  0
    3.3536    4.2310    4.2764 O   0  0  0  0  0  0  0  0  0  0  0  0
    2.4832    3.3901    6.4557 C   0  0  0  0  0  0  0  0  0  0  0  0
    1.3868    2.3859    6.9657 C   0  0  2  0  0  0  0  0  0  0  0  0
    1.9637    1.1593    7.7628 C   0  0  0  0  0  0  0  0  0  0  0  0
    0.2296    2.0574    5.8984 C   0  0  1  0  0  0  0  0  0  0  0  0
   -0.9931    2.8652    6.4079 C   0  0  0  0  0  0  0  0  0  0  0  0
   -0.2585    0.5798    6.0725 C   0  0  0  0  0  0  0  0  0  0  0  0
    0.6209   -0.6704    5.7858 C   0  0  0  0  0  0  0  0  0  0  0  0
    2.1805   -0.6696    5.8263 C   0  0  2  0  0  0  0  0  0  0  0  0
    3.6092   -1.8741    7.8974 H   0  0  0  0  0  0  0  0  0  0  0  0
    1.9540   -1.5406    8.3932 H   0  0  0  0  0  0  0  0  0  0  0  0
    3.2873   -0.6828    9.1464 H   0  0  0  0  0  0  0  0  0  0  0  0
    4.3358    1.6204    7.0354 H   0  0  0  0  0  0  0  0  0  0  0  0
    4.8853    0.2363    7.7836 H   0  0  0  0  0  0  0  0  0  0  0  0
    5.3711    1.0478    5.1016 H   0  0  0  0  0  0  0  0  0  0  0  0
    6.0617   -0.2433    5.9934 H   0  0  0  0  0  0  0  0  0  0  0  0
    5.0164   -0.8860    3.8239 H   0  0  0  0  0  0  0  0  0  0  0  0
    4.5394   -1.8078    5.2087 H   0  0  0  0  0  0  0  0  0  0  0  0
    1.6014   -1.9622    3.2723 H   0  0  0  0  0  0  0  0  0  0  0  0
    2.8293   -2.7528    4.1778 H   0  0  0  0  0  0  0  0  0  0  0  0
    3.2658   -1.9305    2.7231 H   0  0  0  0  0  0  0  0  0  0  0  0
    3.7931    1.1230    3.2715 H   0  0  0  0  0  0  0  0  0  0  0  0
    2.0859    1.7787    1.7825 H   0  0  0  0  0  0  0  0  0  0  0  0
    1.9635   -0.2341    0.5660 H   0  0  0  0  0  0  0  0  0  0  0  0
    0.0791    0.4418    1.4885 H   0  0  0  0  0  0  0  0  0  0  0  0
    0.3361   -0.4609    2.9256 H   0  0  0  0  0  0  0  0  0  0  0  0
   -1.7905    1.3427    1.9832 H   0  0  0  0  0  0  0  0  0  0  0  0
   -2.4157    3.5569    2.0818 H   0  0  0  0  0  0  0  0  0  0  0  0
   -3.6541    2.1352    3.4264 H   0  0  0  0  0  0  0  0  0  0  0  0
   -1.2331    5.1284    2.9934 H   0  0  0  0  0  0  0  0  0  0  0  0
   -1.6863    4.6459    4.5781 H   0  0  0  0  0  0  0  0  0  0  0  0
    0.7511    3.9890    2.9043 H   0  0  0  0  0  0  0  0  0  0  0  0
    0.7541    5.7751    4.0915 H   0  0  0  0  0  0  0  0  0  0  0  0
    2.2706    1.4641    5.1086 H   0  0  0  0  0  0  0  0  0  0  0  0
    4.0658    2.6543    5.1776 H   0  0  0  0  0  0  0  0  0  0  0  0
    2.5063    4.6256    4.0898 H   0  0  0  0  0  0  0  0  0  0  0  0
    3.2913    3.4717    7.1802 H   0  0  0  0  0  0  0  0  0  0  0  0
    2.0759    4.3959    6.5073 H   0  0  0  0  0  0  0  0  0  0  0  0
    0.9238    2.9425    7.7816 H   0  0  0  0  0  0  0  0  0  0  0  0
    1.1444    0.7002    8.3154 H   0  0  0  0  0  0  0  0  0  0  0  0
    2.5642    1.5757    8.5720 H   0  0  0  0  0  0  0  0  0  0  0  0
   -1.2728    2.5786    7.4240 H   0  0  0  0  0  0  0  0  0  0  0  0
   -1.8764    2.6854    5.8018 H   0  0  0  0  0  0  0  0  0  0  0  0
   -0.7885    3.9342    6.4476 H   0  0  0  0  0  0  0  0  0  0  0  0
   -0.6249    0.4700    7.0936 H   0  0  0  0  0  0  0  0  0  0  0  0
   -1.1689    0.4550    5.4844 H   0  0  0  0  0  0  0  0  0  0  0  0
    0.3046   -1.4084    6.5225 H   0  0  0  0  0  0  0  0  0  0  0  0
    0.2890   -1.1224    4.8618 H   0  0  0  0  0  0  0  0  0  0  0  0
    2.3503   -1.7244    6.0305 H   0  0  0  0  0  0  0  0  0  0  0  0
  2  1  1  1
  1 31  1  0
  1 32  1  0
  1 33  1  0
  2 25  1  0
  2 30  1  0
  2  3  1  0
  3  4  1  0
  3 34  1  0
  3 35  1  0
  4  5  1  0
  4 36  1  0
  4 37  1  0
  5  6  1  0
  5 38  1  0
  5 39  1  0
  6 30  1  0
  6  7  1  6
  6  8  1  0
  7 40  1  0
  7 41  1  0
  7 42  1  0
  8 20  1  0
  8  9  1  0
  8 43  1  6
  9 10  1  0
  9 11  1  0
  9 44  1  6
 10 45  1  0
 11 12  1  0
 11 46  1  0
 11 47  1  0
 19 12  1  6
 12 13  2  0
 13 14  1  0
 13 48  1  0
 14 15  1  0
 14 16  1  0
 14 49  1  6
 15 50  1  0
 16 17  1  0
 16 51  1  0
 16 52  1  0
 17 18  1  0
 17 19  1  0
 17 53  1  6
 18 54  1  0
 19 26  1  0
 19 20  1  0
 20 21  1  0
 20 55  1  0
 21 22  1  0
 21 23  1  0
 21 56  1  1
 22 57  1  0
 23 24  1  0
 23 58  1  0
 23 59  1  0
 24 25  1  0
 24 26  1  0
 24 60  1  1
 25 61  1  0
 25 62  1  0
 26 27  1  1
 26 28  1  0
 27 63  1  0
 27 64  1  0
 27 65  1  0
 28 29  1  0
 28 66  1  0
 28 67  1  0
 29 30  1  0
 29 68  1  0
 29 69  1  0
 30 70  1  1
M  END
>  <i_m_ct_stereo_status>  (224) 
1

>  <s_m_source_file>  (224) 
/var/tmp/pbs.5076255.sched01/tmpz7m1v8ep/860kfiy9lw.sdf

>  <i_m_source_file_index>  (224) 
17

>  <i_lp_mmshare_version>  (224) 
48012

>  <i_f3d_flags>  (224) 
0

>  <s_epik_input>  (224) 
W0NIXTEyW0NAQEhdKFtPSF0pW0NIMl1bQ0BASF0oW0NAXTMoW0NIM10pW0NIMl1bQ0gyXTQpW0NIMl1bQ0BdKFtDSDNdKShbQ0gyXVtDSDJdW0NIMl01KVtDQEBIXTRbQ0BAXTUoW0NIM10pW0NASF0xW0NAQEhdKFtPSF0pW0NIMl1DKEMyMzYpPVtDSF1bQ0BASF0oW09IXSlbQ0gyXVtDQEhdNltPSF0=

>  <s_epik_cmdline>  (224) 
J2VwaWtfcHl0aG9uJywgJy1waHQnLCAnMi4wJywgJy1waCcsICc3LjAnLCAnLXRuJywgJzgnLCAnLW1hJywgJzIwMCcsICctaW1hZScsICc8aW5maWxlLm1hZT4nLCAnLW9tYWUnLCAnPG91dGZpbGUubWFlPic=

>  <r_lp_tautomer_probability>  (224) 
1

>  <r_epik_Ionization_Penalty>  (224) 
2.28399e-06

>  <r_epik_Ionization_Penalty_Charging>  (224) 
0

>  <r_epik_Ionization_Penalty_Neutral>  (224) 
2.28399e-06

>  <r_epik_State_Penalty>  (224) 
-0

>  <r_epik_Charging_Adjusted_Penalty>  (224) 
0

>  <i_epik_Tot_Q>  (224) 
0

>  <i_epik_Tot_abs_Q>  (224) 
0

>  <s_lp_Force_Field>  (224) 
OPLS3e

>  <r_lp_Energy>  (224) 
185.425

>  <b_lp_Chiralities_Consistent>  (224) 
1

>  <s_lp_Variant>  (224) 
68:0-1

>  <s_i_glide_gridfile>  (224) 
pfpi4k_grid

>  <i_i_glide_lignum>  (224) 
17

>  <i_i_glide_rotatable_bonds>  (224) 
4

>  <r_i_docking_score>  (224) 
-3.76828

>  <r_i_glide_ligand_efficiency>  (224) 
-0.125609

>  <r_i_glide_ligand_efficiency_sa>  (224) 
-0.390298

>  <r_i_glide_ligand_efficiency_ln>  (224) 
-0.856195

>  <r_i_glide_gscore>  (224) 
-3.76828

>  <r_i_glide_lipo>  (224) 
-0.055924

>  <r_i_glide_hbond>  (224) 
-0.453306

>  <r_i_glide_metal>  (224) 
-0

>  <r_i_glide_rewards>  (224) 
-1.06868

>  <r_i_glide_evdw>  (224) 
-25.558

>  <r_i_glide_ecoul>  (224) 
-6.08313

>  <r_i_glide_erotb>  (224) 
0

>  <r_i_glide_esite>  (224) 
0

>  <r_i_glide_emodel>  (224) 
-43.9461

>  <r_i_glide_energy>  (224) 
-31.6411

>  <r_i_glide_einternal>  (224) 
1.99331

>  <r_i_glide_intrahb_reward>  (224) 
-0.5

>  <i_i_glide_confnum>  (224) 
1

>  <i_i_glide_posenum>  (224) 
26

>  <r_i_glide_eff_state_penalty>  (224) 
0

>  <ligand_id>  (224) 
68

>  <original_smiles>  (224) 
CC12CCCC3(C)C4C(O)CC5=CC(O)CC(O)C56C4C(O)CC(C1)C6(C)CCC23

>  <smiles>  (224) 
[H]OC1([H])C([H])=C2C([H])([H])C([H])(O[H])C3([H])C4([H])C([H])(O[H])C([H])([H])C5([H])C([H])([H])C6(C([H])([H])[H])C([H])([H])C([H])([H])C([H])([H])C3(C([H])([H])[H])C6([H])C([H])([H])C([H])([H])C5(C([H])([H])[H])C24C([H])(O[H])C1([H])[H]

$$$$
68:0:1
     RDKit          3D

 70 75  0  0  1  0  0  0  0  0999 V2000
    3.0064   -1.2651    7.9729 C   0  0  0  0  0  0  0  0  0  0  0  0
    2.8988   -0.1329    6.9078 C   0  0  2  0  0  0  0  0  0  0  0  0
    4.3720    0.3742    6.7114 C   0  0  0  0  0  0  0  0  0  0  0  0
    5.1505    0.0177    5.4370 C   0  0  0  0  0  0  0  0  0  0  0  0
    4.4514   -0.9454    4.5002 C   0  0  0  0  0  0  0  0  0  0  0  0
    2.9513   -0.6476    4.2153 C   0  0  2  0  0  0  0  0  0  0  0  0
    2.6045   -1.9239    3.3679 C   0  0  0  0  0  0  0  0  0  0  0  0
    2.7882    0.7688    3.3989 C   0  0  1  0  0  0  0  0  0  0  0  0
    2.0050    0.7596    2.0825 C   0  0  1  0  0  0  0  0  0  0  0  0
    2.5822   -0.0955    1.1126 O   0  0  0  0  0  0  0  0  0  0  0  0
    0.5301    0.4758    2.3394 C   0  0  0  0  0  0  0  0  0  0  0  0
   -0.1426    1.5480    3.1799 C   0  0  0  0  0  0  0  0  0  0  0  0
   -1.3508    1.9188    2.7173 C   0  0  0  0  0  0  0  0  0  0  0  0
   -2.0757    3.1936    3.0350 C   0  0  1  0  0  0  0  0  0  0  0  0
   -3.2443    2.9446    3.7811 O   0  0  0  0  0  0  0  0  0  0  0  0
   -1.1709    4.2492    3.6540 C   0  0  0  0  0  0  0  0  0  0  0  0
    0.3181    3.8533    3.8519 C   0  0  1  0  0  0  0  0  0  0  0  0
    0.7590    4.9186    4.6626 O   0  0  0  0  0  0  0  0  0  0  0  0
    0.6580    2.3438    4.2684 C   0  0  2  0  0  0  0  0  0  0  0  0
    2.2130    2.0101    4.1685 C   0  0  0  0  0  0  0  0  0  0  0  0
    3.1375    2.9891    4.9107 C   0  0  1  0  0  0  0  0  0  0  0  0
    3.4148    4.1533    4.1632 O   0  0  0  0  0  0  0  0  0  0  0  0
    2.5821    3.2594    6.3481 C   0  0  0  0  0  0  0  0  0  0  0  0
    1.4848    2.2538    6.8576 C   0  0  2  0  0  0  0  0  0  0  0  0
    2.0655    1.0010    7.6131 C   0  0  0  0  0  0  0  0  0  0  0  0
    0.2989    1.9603    5.8084 C   0  0  1  0  0  0  0  0  0  0  0  0
   -0.9051    2.7718    6.3605 C   0  0  0  0  0  0  0  0  0  0  0  0
   -0.1995    0.4821    5.9527 C   0  0  0  0  0  0  0  0  0  0  0  0
    0.6606   -0.7704    5.6170 C   0  0  0  0  0  0  0  0  0  0  0  0
    2.2199   -0.7904    5.6306 C   0  0  2  0  0  0  0  0  0  0  0  0
    3.6766   -2.0622    7.6423 H   0  0  0  0  0  0  0  0  0  0  0  0
    2.0366   -1.7222    8.1800 H   0  0  0  0  0  0  0  0  0  0  0  0
    3.3951   -0.8992    8.9264 H   0  0  0  0  0  0  0  0  0  0  0  0
    4.4168    1.4491    6.8275 H   0  0  0  0  0  0  0  0  0  0  0  0
    4.9783    0.0592    7.5591 H   0  0  0  0  0  0  0  0  0  0  0  0
    5.4088    0.9120    4.8798 H   0  0  0  0  0  0  0  0  0  0  0  0
    6.1131   -0.4052    5.7195 H   0  0  0  0  0  0  0  0  0  0  0  0
    5.0124   -0.9928    3.5651 H   0  0  0  0  0  0  0  0  0  0  0  0
    4.5535   -1.9397    4.9399 H   0  0  0  0  0  0  0  0  0  0  0  0
    1.5724   -2.0182    3.0550 H   0  0  0  0  0  0  0  0  0  0  0  0
    2.8082   -2.8444    3.9159 H   0  0  0  0  0  0  0  0  0  0  0  0
    3.2244   -1.9965    2.4740 H   0  0  0  0  0  0  0  0  0  0  0  0
    3.8011    1.0484    3.0990 H   0  0  0  0  0  0  0  0  0  0  0  0
    2.0766    1.7633    1.6540 H   0  0  0  0  0  0  0  0  0  0  0  0
    1.9464   -0.2609    0.4182 H   0  0  0  0  0  0  0  0  0  0  0  0
    0.0536    0.4484    1.3589 H   0  0  0  0  0  0  0  0  0  0  0  0
    0.3255   -0.4854    2.7699 H   0  0  0  0  0  0  0  0  0  0  0  0
   -1.8076    1.3528    1.9180 H   0  0  0  0  0  0  0  0  0  0  0  0
   -2.4138    3.5843    2.0823 H   0  0  0  0  0  0  0  0  0  0  0  0
   -3.6433    2.1626    3.4195 H   0  0  0  0  0  0  0  0  0  0  0  0
   -1.1821    5.1158    2.9929 H   0  0  0  0  0  0  0  0  0  0  0  0
   -1.6271    4.6092    4.5710 H   0  0  0  0  0  0  0  0  0  0  0  0
    0.8063    3.9935    2.8878 H   0  0  0  0  0  0  0  0  0  0  0  0
    0.9890    5.6437    4.1008 H   0  0  0  0  0  0  0  0  0  0  0  0
    2.3203    1.3629    4.9677 H   0  0  0  0  0  0  0  0  0  0  0  0
    4.1204    2.5477    5.0086 H   0  0  0  0  0  0  0  0  0  0  0  0
    3.7549    3.8804    3.3181 H   0  0  0  0  0  0  0  0  0  0  0  0
    3.4075    3.3095    7.0561 H   0  0  0  0  0  0  0  0  0  0  0  0
    2.1922    4.2696    6.4221 H   0  0  0  0  0  0  0  0  0  0  0  0
    1.0463    2.7994    7.6943 H   0  0  0  0  0  0  0  0  0  0  0  0
    1.2509    0.5392    8.1711 H   0  0  0  0  0  0  0  0  0  0  0  0
    2.6881    1.3910    8.4189 H   0  0  0  0  0  0  0  0  0  0  0  0
   -1.1700    2.4682    7.3747 H   0  0  0  0  0  0  0  0  0  0  0  0
   -1.8006    2.6223    5.7656 H   0  0  0  0  0  0  0  0  0  0  0  0
   -0.6915    3.8378    6.4257 H   0  0  0  0  0  0  0  0  0  0  0  0
   -0.5483    0.3495    6.9773 H   0  0  0  0  0  0  0  0  0  0  0  0
   -1.1215    0.3828    5.3791 H   0  0  0  0  0  0  0  0  0  0  0  0
    0.3470   -1.5245    6.3385 H   0  0  0  0  0  0  0  0  0  0  0  0
    0.3048   -1.1959    4.6895 H   0  0  0  0  0  0  0  0  0  0  0  0
    2.3815   -1.8536    5.8047 H   0  0  0  0  0  0  0  0  0  0  0  0
  2  1  1  1
  1 31  1  0
  1 32  1  0
  1 33  1  0
  2 25  1  0
  2 30  1  0
  2  3  1  0
  3  4  1  0
  3 34  1  0
  3 35  1  0
  4  5  1  0
  4 36  1  0
  4 37  1  0
  5  6  1  0
  5 38  1  0
  5 39  1  0
  6 30  1  0
  6  7  1  6
  6  8  1  0
  7 40  1  0
  7 41  1  0
  7 42  1  0
  8 20  1  0
  8  9  1  0
  8 43  1  6
  9 10  1  0
  9 11  1  0
  9 44  1  6
 10 45  1  0
 11 12  1  0
 11 46  1  0
 11 47  1  0
 19 12  1  6
 12 13  2  0
 13 14  1  0
 13 48  1  0
 14 15  1  0
 14 16  1  0
 14 49  1  6
 15 50  1  0
 16 17  1  0
 16 51  1  0
 16 52  1  0
 17 18  1  0
 17 19  1  0
 17 53  1  6
 18 54  1  0
 19 26  1  0
 19 20  1  0
 20 21  1  0
 20 55  1  0
 21 22  1  0
 21 23  1  0
 21 56  1  1
 22 57  1  0
 23 24  1  0
 23 58  1  0
 23 59  1  0
 24 25  1  0
 24 26  1  0
 24 60  1  1
 25 61  1  0
 25 62  1  0
 26 27  1  1
 26 28  1  0
 27 63  1  0
 27 64  1  0
 27 65  1  0
 28 29  1  0
 28 66  1  0
 28 67  1  0
 29 30  1  0
 29 68  1  0
 29 69  1  0
 30 70  1  1
M  END
>  <i_m_ct_stereo_status>  (225) 
1

>  <s_m_source_file>  (225) 
/var/tmp/pbs.5076255.sched01/tmpz7m1v8ep/860kfiy9lw.sdf

>  <i_m_source_file_index>  (225) 
17

>  <i_lp_mmshare_version>  (225) 
48012

>  <i_f3d_flags>  (225) 
0

>  <s_epik_input>  (225) 
W0NIXTEyW0NAQEhdKFtPSF0pW0NIMl1bQ0BASF0oW0NAXTMoW0NIM10pW0NIMl1bQ0gyXTQpW0NIMl1bQ0BdKFtDSDNdKShbQ0gyXVtDSDJdW0NIMl01KVtDQEBIXTRbQ0BAXTUoW0NIM10pW0NASF0xW0NAQEhdKFtPSF0pW0NIMl1DKEMyMzYpPVtDSF1bQ0BASF0oW09IXSlbQ0gyXVtDQEhdNltPSF0=

>  <s_epik_cmdline>  (225) 
J2VwaWtfcHl0aG9uJywgJy1waHQnLCAnMi4wJywgJy1waCcsICc3LjAnLCAnLXRuJywgJzgnLCAnLW1hJywgJzIwMCcsICctaW1hZScsICc8aW5maWxlLm1hZT4nLCAnLW9tYWUnLCAnPG91dGZpbGUubWFlPic=

>  <r_lp_tautomer_probability>  (225) 
1

>  <r_epik_Ionization_Penalty>  (225) 
2.28399e-06

>  <r_epik_Ionization_Penalty_Charging>  (225) 
0

>  <r_epik_Ionization_Penalty_Neutral>  (225) 
2.28399e-06

>  <r_epik_State_Penalty>  (225) 
-0

>  <r_epik_Charging_Adjusted_Penalty>  (225) 
0

>  <i_epik_Tot_Q>  (225) 
0

>  <i_epik_Tot_abs_Q>  (225) 
0

>  <s_lp_Force_Field>  (225) 
OPLS3e

>  <r_lp_Energy>  (225) 
185.425

>  <b_lp_Chiralities_Consistent>  (225) 
1

>  <s_lp_Variant>  (225) 
68:0-1

>  <s_i_glide_gridfile>  (225) 
pfpi4k_grid

>  <i_i_glide_lignum>  (225) 
17

>  <i_i_glide_rotatable_bonds>  (225) 
4

>  <r_i_docking_score>  (225) 
-3.55945

>  <r_i_glide_ligand_efficiency>  (225) 
-0.118648

>  <r_i_glide_ligand_efficiency_sa>  (225) 
-0.368668

>  <r_i_glide_ligand_efficiency_ln>  (225) 
-0.808746

>  <r_i_glide_gscore>  (225) 
-3.55945

>  <r_i_glide_lipo>  (225) 
-0.062143

>  <r_i_glide_hbond>  (225) 
-0.43546

>  <r_i_glide_metal>  (225) 
-0

>  <r_i_glide_rewards>  (225) 
-0.568681

>  <r_i_glide_evdw>  (225) 
-24.9554

>  <r_i_glide_ecoul>  (225) 
-8.30263

>  <r_i_glide_erotb>  (225) 
0

>  <r_i_glide_esite>  (225) 
0

>  <r_i_glide_emodel>  (225) 
-39.8354

>  <r_i_glide_energy>  (225) 
-33.2581

>  <r_i_glide_einternal>  (225) 
2.27404

>  <r_i_glide_intrahb_reward>  (225) 
-0

>  <i_i_glide_confnum>  (225) 
1

>  <i_i_glide_posenum>  (225) 
8

>  <r_i_glide_eff_state_penalty>  (225) 
0

>  <ligand_id>  (225) 
68

>  <original_smiles>  (225) 
CC12CCCC3(C)C4C(O)CC5=CC(O)CC(O)C56C4C(O)CC(C1)C6(C)CCC23

>  <smiles>  (225) 
[H]OC1([H])C([H])=C2C([H])([H])C([H])(O[H])C3([H])C4([H])C([H])(O[H])C([H])([H])C5([H])C([H])([H])C6(C([H])([H])[H])C([H])([H])C([H])([H])C([H])([H])C3(C([H])([H])[H])C6([H])C([H])([H])C([H])([H])C5(C([H])([H])[H])C24C([H])(O[H])C1([H])[H]

$$$$
68:0:2
     RDKit          3D

 70 75  0  0  1  0  0  0  0  0999 V2000
   -0.9794    3.7004    4.3086 C   0  0  0  0  0  0  0  0  0  0  0  0
    0.0715    2.6213    4.7143 C   0  0  2  0  0  0  0  0  0  0  0  0
    0.4615    2.9641    6.1891 C   0  0  0  0  0  0  0  0  0  0  0  0
   -0.0549    2.0947    7.3411 C   0  0  0  0  0  0  0  0  0  0  0  0
   -1.0424    1.0094    6.9482 C   0  0  0  0  0  0  0  0  0  0  0  0
   -0.6682    0.1728    5.6960 C   0  0  2  0  0  0  0  0  0  0  0  0
   -1.9614   -0.6915    5.5087 C   0  0  0  0  0  0  0  0  0  0  0  0
    0.6760   -0.7190    5.9939 C   0  0  1  0  0  0  0  0  0  0  0  0
    0.6155   -2.2285    5.7605 C   0  0  1  0  0  0  0  0  0  0  0  0
   -0.3368   -2.8970    6.5668 O   0  0  0  0  0  0  0  0  0  0  0  0
    0.4607   -2.5463    4.2775 C   0  0  0  0  0  0  0  0  0  0  0  0
    1.6418   -2.0757    3.4428 C   0  0  0  0  0  0  0  0  0  0  0  0
    2.0585   -2.9846    2.5418 C   0  0  0  0  0  0  0  0  0  0  0  0
    3.3895   -3.0263    1.8548 C   0  0  1  0  0  0  0  0  0  0  0  0
    3.2544   -2.7745    0.4677 O   0  0  0  0  0  0  0  0  0  0  0  0
    4.4330   -2.1577    2.5596 C   0  0  0  0  0  0  0  0  0  0  0  0
    3.9441   -1.4063    3.8358 C   0  0  1  0  0  0  0  0  0  0  0  0
    5.0197   -0.5351    4.1090 O   0  0  0  0  0  0  0  0  0  0  0  0
    2.4575   -0.8099    3.8559 C   0  0  2  0  0  0  0  0  0  0  0  0
    2.0171   -0.2910    5.2979 C   0  0  0  0  0  0  0  0  0  0  0  0
    2.9866    0.6970    5.9612 C   0  0  1  0  0  0  0  0  0  0  0  0
    4.0817    0.0412    6.5639 O   0  0  0  0  0  0  0  0  0  0  0  0
    3.4139    1.8058    4.9343 C   0  0  0  0  0  0  0  0  0  0  0  0
    2.5264    1.9056    3.6413 C   0  0  2  0  0  0  0  0  0  0  0  0
    1.3099    2.8966    3.7776 C   0  0  0  0  0  0  0  0  0  0  0  0
    2.2287    0.5014    2.9174 C   0  0  1  0  0  0  0  0  0  0  0  0
    3.1490    0.4852    1.6750 C   0  0  0  0  0  0  0  0  0  0  0  0
    0.8078    0.5384    2.2612 C   0  0  0  0  0  0  0  0  0  0  0  0
   -0.5184    0.6470    3.0624 C   0  0  0  0  0  0  0  0  0  0  0  0
   -0.6403    1.2229    4.4962 C   0  0  2  0  0  0  0  0  0  0  0  0
   -1.8421    3.6853    4.9759 H   0  0  0  0  0  0  0  0  0  0  0  0
   -1.3492    3.5419    3.2941 H   0  0  0  0  0  0  0  0  0  0  0  0
   -0.5602    4.7084    4.3404 H   0  0  0  0  0  0  0  0  0  0  0  0
    1.5346    3.0318    6.2866 H   0  0  0  0  0  0  0  0  0  0  0  0
    0.1775    3.9969    6.4089 H   0  0  0  0  0  0  0  0  0  0  0  0
    0.7715    1.6313    7.8713 H   0  0  0  0  0  0  0  0  0  0  0  0
   -0.5153    2.7382    8.0880 H   0  0  0  0  0  0  0  0  0  0  0  0
   -1.1794    0.3656    7.8122 H   0  0  0  0  0  0  0  0  0  0  0  0
   -2.0047    1.5035    6.7956 H   0  0  0  0  0  0  0  0  0  0  0  0
   -2.0259   -1.2849    4.6134 H   0  0  0  0  0  0  0  0  0  0  0  0
   -2.8514   -0.0760    5.4605 H   0  0  0  0  0  0  0  0  0  0  0  0
   -2.1335   -1.3679    6.3261 H   0  0  0  0  0  0  0  0  0  0  0  0
    0.8667   -0.6243    7.0633 H   0  0  0  0  0  0  0  0  0  0  0  0
    1.5746   -2.6439    6.0882 H   0  0  0  0  0  0  0  0  0  0  0  0
   -0.1647   -3.8243    6.5212 H   0  0  0  0  0  0  0  0  0  0  0  0
    0.3627   -3.6299    4.1931 H   0  0  0  0  0  0  0  0  0  0  0  0
   -0.4356   -2.1716    3.8248 H   0  0  0  0  0  0  0  0  0  0  0  0
    1.4637   -3.8679    2.3662 H   0  0  0  0  0  0  0  0  0  0  0  0
    3.7216   -4.0587    1.9394 H   0  0  0  0  0  0  0  0  0  0  0  0
    2.7398   -1.9931    0.3366 H   0  0  0  0  0  0  0  0  0  0  0  0
    5.2471   -2.8123    2.8713 H   0  0  0  0  0  0  0  0  0  0  0  0
    4.9081   -1.5007    1.8368 H   0  0  0  0  0  0  0  0  0  0  0  0
    3.9634   -2.1386    4.6468 H   0  0  0  0  0  0  0  0  0  0  0  0
    5.0214    0.1365    3.4496 H   0  0  0  0  0  0  0  0  0  0  0  0
    1.4348    0.5240    5.0339 H   0  0  0  0  0  0  0  0  0  0  0  0
    2.5004    1.1794    6.7958 H   0  0  0  0  0  0  0  0  0  0  0  0
    4.5940   -0.3349    5.8592 H   0  0  0  0  0  0  0  0  0  0  0  0
    3.4576    2.7702    5.4382 H   0  0  0  0  0  0  0  0  0  0  0  0
    4.4517    1.6952    4.6359 H   0  0  0  0  0  0  0  0  0  0  0  0
    3.1584    2.4809    2.9602 H   0  0  0  0  0  0  0  0  0  0  0  0
    0.9447    3.1208    2.7749 H   0  0  0  0  0  0  0  0  0  0  0  0
    1.7262    3.8571    4.0841 H   0  0  0  0  0  0  0  0  0  0  0  0
    2.9355    1.3298    1.0245 H   0  0  0  0  0  0  0  0  0  0  0  0
    2.9950   -0.3889    1.0596 H   0  0  0  0  0  0  0  0  0  0  0  0
    4.2019    0.5660    1.9275 H   0  0  0  0  0  0  0  0  0  0  0  0
    0.7833    1.3506    1.5342 H   0  0  0  0  0  0  0  0  0  0  0  0
    0.7020   -0.3406    1.6289 H   0  0  0  0  0  0  0  0  0  0  0  0
   -1.2017    1.2134    2.4262 H   0  0  0  0  0  0  0  0  0  0  0  0
   -0.9711   -0.3215    3.0795 H   0  0  0  0  0  0  0  0  0  0  0  0
   -1.6946    1.5024    4.4799 H   0  0  0  0  0  0  0  0  0  0  0  0
  2  1  1  6
  1 31  1  0
  1 32  1  0
  1 33  1  0
  2 25  1  0
  2 30  1  0
  2  3  1  0
  3  4  1  0
  3 34  1  0
  3 35  1  0
  4  5  1  0
  4 36  1  0
  4 37  1  0
  5  6  1  0
  5 38  1  0
  5 39  1  0
  6 30  1  0
  6  7  1  6
  6  8  1  0
  7 40  1  0
  7 41  1  0
  7 42  1  0
  8 20  1  0
  8  9  1  0
  8 43  1  1
  9 10  1  0
  9 11  1  0
  9 44  1  1
 10 45  1  0
 11 12  1  0
 11 46  1  0
 11 47  1  0
 19 12  1  6
 12 13  2  0
 13 14  1  0
 13 48  1  0
 14 15  1  0
 14 16  1  0
 14 49  1  6
 15 50  1  0
 16 17  1  0
 16 51  1  0
 16 52  1  0
 17 18  1  0
 17 19  1  0
 17 53  1  1
 18 54  1  0
 19 26  1  0
 19 20  1  0
 20 21  1  0
 20 55  1  0
 21 22  1  0
 21 23  1  0
 21 56  1  1
 22 57  1  0
 23 24  1  0
 23 58  1  0
 23 59  1  0
 24 25  1  0
 24 26  1  0
 24 60  1  6
 25 61  1  0
 25 62  1  0
 26 27  1  6
 26 28  1  0
 27 63  1  0
 27 64  1  0
 27 65  1  0
 28 29  1  0
 28 66  1  0
 28 67  1  0
 29 30  1  0
 29 68  1  0
 29 69  1  0
 30 70  1  6
M  END
>  <i_m_ct_stereo_status>  (226) 
1

>  <s_m_source_file>  (226) 
/var/tmp/pbs.5076255.sched01/tmpz7m1v8ep/860kfiy9lw.sdf

>  <i_m_source_file_index>  (226) 
17

>  <i_lp_mmshare_version>  (226) 
48012

>  <i_f3d_flags>  (226) 
0

>  <s_epik_input>  (226) 
W0NIXTEyW0NAQEhdKFtPSF0pW0NIMl1bQ0BASF0oW0NAXTMoW0NIM10pW0NIMl1bQ0gyXTQpW0NIMl1bQ0BdKFtDSDNdKShbQ0gyXVtDSDJdW0NIMl01KVtDQEBIXTRbQ0BAXTUoW0NIM10pW0NASF0xW0NAQEhdKFtPSF0pW0NIMl1DKEMyMzYpPVtDSF1bQ0BASF0oW09IXSlbQ0gyXVtDQEhdNltPSF0=

>  <s_epik_cmdline>  (226) 
J2VwaWtfcHl0aG9uJywgJy1waHQnLCAnMi4wJywgJy1waCcsICc3LjAnLCAnLXRuJywgJzgnLCAnLW1hJywgJzIwMCcsICctaW1hZScsICc8aW5maWxlLm1hZT4nLCAnLW9tYWUnLCAnPG91dGZpbGUubWFlPic=

>  <r_lp_tautomer_probability>  (226) 
1

>  <r_epik_Ionization_Penalty>  (226) 
2.28399e-06

>  <r_epik_Ionization_Penalty_Charging>  (226) 
0

>  <r_epik_Ionization_Penalty_Neutral>  (226) 
2.28399e-06

>  <r_epik_State_Penalty>  (226) 
-0

>  <r_epik_Charging_Adjusted_Penalty>  (226) 
0

>  <i_epik_Tot_Q>  (226) 
0

>  <i_epik_Tot_abs_Q>  (226) 
0

>  <s_lp_Force_Field>  (226) 
OPLS3e

>  <r_lp_Energy>  (226) 
185.425

>  <b_lp_Chiralities_Consistent>  (226) 
1

>  <s_lp_Variant>  (226) 
68:0-1

>  <s_i_glide_gridfile>  (226) 
pfpi4k_grid

>  <i_i_glide_lignum>  (226) 
17

>  <i_i_glide_rotatable_bonds>  (226) 
4

>  <r_i_docking_score>  (226) 
-2.94711

>  <r_i_glide_ligand_efficiency>  (226) 
-0.0982372

>  <r_i_glide_ligand_efficiency_sa>  (226) 
-0.305246

>  <r_i_glide_ligand_efficiency_ln>  (226) 
-0.669617

>  <r_i_glide_gscore>  (226) 
-2.94711

>  <r_i_glide_lipo>  (226) 
-0.222104

>  <r_i_glide_hbond>  (226) 
0

>  <r_i_glide_metal>  (226) 
-0

>  <r_i_glide_rewards>  (226) 
-1.06868

>  <r_i_glide_evdw>  (226) 
-24.5489

>  <r_i_glide_ecoul>  (226) 
-2.85925

>  <r_i_glide_erotb>  (226) 
0

>  <r_i_glide_esite>  (226) 
0

>  <r_i_glide_emodel>  (226) 
-38.4052

>  <r_i_glide_energy>  (226) 
-27.4081

>  <r_i_glide_einternal>  (226) 
0.657856

>  <r_i_glide_intrahb_reward>  (226) 
-0.5

>  <i_i_glide_confnum>  (226) 
2

>  <i_i_glide_posenum>  (226) 
2

>  <r_i_glide_eff_state_penalty>  (226) 
0

>  <ligand_id>  (226) 
68

>  <original_smiles>  (226) 
CC12CCCC3(C)C4C(O)CC5=CC(O)CC(O)C56C4C(O)CC(C1)C6(C)CCC23

>  <smiles>  (226) 
[H]OC1([H])C([H])=C2C([H])([H])C([H])(O[H])C3([H])C4([H])C([H])(O[H])C([H])([H])C5([H])C([H])([H])C6(C([H])([H])[H])C([H])([H])C([H])([H])C([H])([H])C3(C([H])([H])[H])C6([H])C([H])([H])C([H])([H])C5(C([H])([H])[H])C24C([H])(O[H])C1([H])[H]

$$$$
68:1:0
     RDKit          3D

 70 75  0  0  1  0  0  0  0  0999 V2000
    4.9452   -0.4889    4.7338 C   0  0  0  0  0  0  0  0  0  0  0  0
    3.6370    0.3355    4.5476 C   0  0  2  0  0  0  0  0  0  0  0  0
    3.3612    0.3362    3.0127 C   0  0  0  0  0  0  0  0  0  0  0  0
    2.4765   -0.7705    2.4107 C   0  0  0  0  0  0  0  0  0  0  0  0
    1.5085   -1.4871    3.3744 C   0  0  0  0  0  0  0  0  0  0  0  0
    1.0678   -0.6680    4.6207 C   0  0  2  0  0  0  0  0  0  0  0  0
    0.2686   -1.6923    5.4672 C   0  0  0  0  0  0  0  0  0  0  0  0
    0.1654    0.5950    4.0655 C   0  0  1  0  0  0  0  0  0  0  0  0
   -1.3770    0.8718    4.0879 C   0  0  1  0  0  0  0  0  0  0  0  0
   -2.1778   -0.1881    4.5785 O   0  0  0  0  0  0  0  0  0  0  0  0
   -1.8317    2.3064    4.6346 C   0  0  0  0  0  0  0  0  0  0  0  0
   -0.9599    2.9592    5.7701 C   0  0  0  0  0  0  0  0  0  0  0  0
   -1.6353    3.6816    6.6862 C   0  0  0  0  0  0  0  0  0  0  0  0
   -1.3158    3.5919    8.1581 C   0  0  1  0  0  0  0  0  0  0  0  0
   -2.4901    3.7952    8.9140 O   0  0  0  0  0  0  0  0  0  0  0  0
   -0.7128    2.1962    8.5064 C   0  0  0  0  0  0  0  0  0  0  0  0
   -0.3159    1.3057    7.2746 C   0  0  1  0  0  0  0  0  0  0  0  0
   -1.5120    0.5955    7.0007 O   0  0  0  0  0  0  0  0  0  0  0  0
    0.3357    2.1849    6.0889 C   0  0  1  0  0  0  0  0  0  0  0  0
    0.7053    1.8518    4.6108 C   0  0  2  0  0  0  0  0  0  0  0  0
    1.1262    3.0431    3.6693 C   0  0  1  0  0  0  0  0  0  0  0  0
    0.1669    4.0205    3.3314 O   0  0  0  0  0  0  0  0  0  0  0  0
    2.3464    3.7653    4.2772 C   0  0  0  0  0  0  0  0  0  0  0  0
    2.9592    2.9819    5.4571 C   0  0  2  0  0  0  0  0  0  0  0  0
    3.9864    1.8241    5.0283 C   0  0  0  0  0  0  0  0  0  0  0  0
    1.8286    2.6834    6.5682 C   0  0  1  0  0  0  0  0  0  0  0  0
    1.7554    3.9926    7.4071 C   0  0  0  0  0  0  0  0  0  0  0  0
    2.5121    1.5468    7.4153 C   0  0  0  0  0  0  0  0  0  0  0  0
    2.5632    0.0456    6.8916 C   0  0  0  0  0  0  0  0  0  0  0  0
    2.4927   -0.3763    5.3790 C   0  0  2  0  0  0  0  0  0  0  0  0
    4.8419   -1.4971    4.3349 H   0  0  0  0  0  0  0  0  0  0  0  0
    5.2297   -0.5868    5.7809 H   0  0  0  0  0  0  0  0  0  0  0  0
    5.7959   -0.0312    4.2216 H   0  0  0  0  0  0  0  0  0  0  0  0
    2.9550    1.2901    2.7202 H   0  0  0  0  0  0  0  0  0  0  0  0
    4.3091    0.3367    2.4643 H   0  0  0  0  0  0  0  0  0  0  0  0
    1.8875   -0.3123    1.6125 H   0  0  0  0  0  0  0  0  0  0  0  0
    3.0843   -1.5093    1.8967 H   0  0  0  0  0  0  0  0  0  0  0  0
    0.6396   -1.8405    2.8180 H   0  0  0  0  0  0  0  0  0  0  0  0
    2.0170   -2.3977    3.7020 H   0  0  0  0  0  0  0  0  0  0  0  0
   -0.0840   -1.2948    6.4085 H   0  0  0  0  0  0  0  0  0  0  0  0
    0.8950   -2.5502    5.7286 H   0  0  0  0  0  0  0  0  0  0  0  0
   -0.5821   -2.1027    4.9219 H   0  0  0  0  0  0  0  0  0  0  0  0
    0.3851    0.6405    2.9985 H   0  0  0  0  0  0  0  0  0  0  0  0
   -1.6671    0.8892    3.0362 H   0  0  0  0  0  0  0  0  0  0  0  0
   -2.9737   -0.1753    4.0458 H   0  0  0  0  0  0  0  0  0  0  0  0
   -1.9337    2.9932    3.7988 H   0  0  0  0  0  0  0  0  0  0  0  0
   -2.8547    2.2182    5.0047 H   0  0  0  0  0  0  0  0  0  0  0  0
   -2.6256    4.0387    6.4603 H   0  0  0  0  0  0  0  0  0  0  0  0
   -0.6482    4.4134    8.4193 H   0  0  0  0  0  0  0  0  0  0  0  0
   -2.2704    3.7547    9.8320 H   0  0  0  0  0  0  0  0  0  0  0  0
    0.1430    2.3374    9.1622 H   0  0  0  0  0  0  0  0  0  0  0  0
   -1.4050    1.6443    9.1410 H   0  0  0  0  0  0  0  0  0  0  0  0
    0.2803    0.5164    7.6654 H   0  0  0  0  0  0  0  0  0  0  0  0
   -1.5212    0.3489    6.0787 H   0  0  0  0  0  0  0  0  0  0  0  0
    1.6428    1.4777    4.5161 H   0  0  0  0  0  0  0  0  0  0  0  0
    1.4164    2.6506    2.6951 H   0  0  0  0  0  0  0  0  0  0  0  0
    0.2095    4.1589    2.3632 H   0  0  0  0  0  0  0  0  0  0  0  0
    3.0905    3.9726    3.5056 H   0  0  0  0  0  0  0  0  0  0  0  0
    2.0418    4.7442    4.6458 H   0  0  0  0  0  0  0  0  0  0  0  0
    3.6660    3.6980    5.8806 H   0  0  0  0  0  0  0  0  0  0  0  0
    4.7228    1.7474    5.8285 H   0  0  0  0  0  0  0  0  0  0  0  0
    4.5608    2.2564    4.2171 H   0  0  0  0  0  0  0  0  0  0  0  0
    2.7198    4.4860    7.5326 H   0  0  0  0  0  0  0  0  0  0  0  0
    1.4250    3.8343    8.4228 H   0  0  0  0  0  0  0  0  0  0  0  0
    1.1002    4.7234    6.9269 H   0  0  0  0  0  0  0  0  0  0  0  0
    3.5294    1.8575    7.6492 H   0  0  0  0  0  0  0  0  0  0  0  0
    2.0819    1.5202    8.4142 H   0  0  0  0  0  0  0  0  0  0  0  0
    3.5244   -0.3184    7.2544 H   0  0  0  0  0  0  0  0  0  0  0  0
    1.9049   -0.6077    7.4529 H   0  0  0  0  0  0  0  0  0  0  0  0
    2.8596   -1.3999    5.4756 H   0  0  0  0  0  0  0  0  0  0  0  0
  2  1  1  6
  1 31  1  0
  1 32  1  0
  1 33  1  0
  2 25  1  0
  2 30  1  0
  2  3  1  0
  3  4  1  0
  3 34  1  0
  3 35  1  0
  4  5  1  0
  4 36  1  0
  4 37  1  0
  5  6  1  0
  5 38  1  0
  5 39  1  0
  6 30  1  0
  6  7  1  1
  6  8  1  0
  7 40  1  0
  7 41  1  0
  7 42  1  0
  8 20  1  0
  8  9  1  0
  8 43  1  6
  9 10  1  0
  9 11  1  0
  9 44  1  6
 10 45  1  0
 11 12  1  0
 11 46  1  0
 11 47  1  0
 19 12  1  6
 12 13  2  0
 13 14  1  0
 13 48  1  0
 14 15  1  0
 14 16  1  0
 14 49  1  1
 15 50  1  0
 16 17  1  0
 16 51  1  0
 16 52  1  0
 17 18  1  0
 17 19  1  0
 17 53  1  1
 18 54  1  0
 19 26  1  0
 19 20  1  0
 20 21  1  0
 20 55  1  1
 21 22  1  0
 21 23  1  0
 21 56  1  6
 22 57  1  0
 23 24  1  0
 23 58  1  0
 23 59  1  0
 24 25  1  0
 24 26  1  0
 24 60  1  1
 25 61  1  0
 25 62  1  0
 26 27  1  1
 26 28  1  0
 27 63  1  0
 27 64  1  0
 27 65  1  0
 28 29  1  0
 28 66  1  0
 28 67  1  0
 29 30  1  0
 29 68  1  0
 29 69  1  0
 30 70  1  1
M  END
>  <i_m_ct_stereo_status>  (227) 
1

>  <s_m_source_file>  (227) 
/var/tmp/pbs.5076255.sched01/tmpz7m1v8ep/860kfiy9lw.sdf

>  <i_m_source_file_index>  (227) 
18

>  <i_lp_mmshare_version>  (227) 
48012

>  <i_f3d_flags>  (227) 
0

>  <s_epik_input>  (227) 
W0NIXTEyW0NAQEhdKFtPSF0pW0NIMl1bQ0BASF0oW0NAXTMoW0NIM10pW0NIMl1bQ0gyXTQpW0NIMl1bQ0BdKFtDSDNdKShbQ0gyXVtDSDJdW0NIMl01KVtDQEBIXTRbQ0BAXTUoW0NIM10pW0NASF0xW0NAQEhdKFtPSF0pW0NIMl1DKEMyMzYpPVtDSF1bQ0BASF0oW09IXSlbQ0gyXVtDQEhdNltPSF0=

>  <s_epik_cmdline>  (227) 
J2VwaWtfcHl0aG9uJywgJy1waHQnLCAnMi4wJywgJy1waCcsICc3LjAnLCAnLXRuJywgJzgnLCAnLW1hJywgJzIwMCcsICctaW1hZScsICc8aW5maWxlLm1hZT4nLCAnLW9tYWUnLCAnPG91dGZpbGUubWFlPic=

>  <r_lp_tautomer_probability>  (227) 
1

>  <r_epik_Ionization_Penalty>  (227) 
2.28399e-06

>  <r_epik_Ionization_Penalty_Charging>  (227) 
0

>  <r_epik_Ionization_Penalty_Neutral>  (227) 
2.28399e-06

>  <r_epik_State_Penalty>  (227) 
-0

>  <r_epik_Charging_Adjusted_Penalty>  (227) 
0

>  <i_epik_Tot_Q>  (227) 
0

>  <i_epik_Tot_abs_Q>  (227) 
0

>  <s_lp_Force_Field>  (227) 
OPLS3e

>  <r_lp_Energy>  (227) 
252.046

>  <b_lp_Chiralities_Consistent>  (227) 
1

>  <s_lp_Variant>  (227) 
68:0-2

>  <s_i_glide_gridfile>  (227) 
pfpi4k_grid

>  <i_i_glide_lignum>  (227) 
18

>  <i_i_glide_rotatable_bonds>  (227) 
4

>  <r_i_docking_score>  (227) 
-4.01993

>  <r_i_glide_ligand_efficiency>  (227) 
-0.133998

>  <r_i_glide_ligand_efficiency_sa>  (227) 
-0.416362

>  <r_i_glide_ligand_efficiency_ln>  (227) 
-0.913371

>  <r_i_glide_gscore>  (227) 
-4.01993

>  <r_i_glide_lipo>  (227) 
-0.113936

>  <r_i_glide_hbond>  (227) 
-0.152

>  <r_i_glide_metal>  (227) 
-0

>  <r_i_glide_rewards>  (227) 
-0.568681

>  <r_i_glide_evdw>  (227) 
-18.7878

>  <r_i_glide_ecoul>  (227) 
-14.9728

>  <r_i_glide_erotb>  (227) 
0

>  <r_i_glide_esite>  (227) 
0

>  <r_i_glide_emodel>  (227) 
-41.2152

>  <r_i_glide_energy>  (227) 
-33.7606

>  <r_i_glide_einternal>  (227) 
3.41284

>  <r_i_glide_intrahb_reward>  (227) 
-0

>  <i_i_glide_confnum>  (227) 
2

>  <i_i_glide_posenum>  (227) 
12

>  <r_i_glide_eff_state_penalty>  (227) 
0

>  <ligand_id>  (227) 
68

>  <original_smiles>  (227) 
CC12CCCC3(C)C4C(O)CC5=CC(O)CC(O)C56C4C(O)CC(C1)C6(C)CCC23

>  <smiles>  (227) 
[H]OC1([H])C([H])=C2C([H])([H])C([H])(O[H])C3([H])C4([H])C([H])(O[H])C([H])([H])C5([H])C([H])([H])C6(C([H])([H])[H])C([H])([H])C([H])([H])C([H])([H])C3(C([H])([H])[H])C6([H])C([H])([H])C([H])([H])C5(C([H])([H])[H])C24C([H])(O[H])C1([H])[H]

$$$$
68:1:1
     RDKit          3D

 70 75  0  0  1  0  0  0  0  0999 V2000
    0.4876   -2.6897    7.3864 C   0  0  0  0  0  0  0  0  0  0  0  0
    0.9769   -1.3357    6.7984 C   0  0  2  0  0  0  0  0  0  0  0  0
    2.5311   -1.3657    6.9408 C   0  0  0  0  0  0  0  0  0  0  0  0
    3.3795   -1.9189    5.7777 C   0  0  0  0  0  0  0  0  0  0  0  0
    2.7279   -1.9322    4.3820 C   0  0  0  0  0  0  0  0  0  0  0  0
    1.6152   -0.8710    4.1450 C   0  0  2  0  0  0  0  0  0  0  0  0
    1.0482   -1.2452    2.7598 C   0  0  0  0  0  0  0  0  0  0  0  0
    2.3379    0.6042    4.1965 C   0  0  1  0  0  0  0  0  0  0  0  0
    2.7140    1.6237    3.0625 C   0  0  1  0  0  0  0  0  0  0  0  0
    2.5205    1.1500    1.7449 O   0  0  0  0  0  0  0  0  0  0  0  0
    2.2429    3.1412    3.2817 C   0  0  0  0  0  0  0  0  0  0  0  0
    0.9051    3.3773    4.0787 C   0  0  0  0  0  0  0  0  0  0  0  0
    0.1669    4.4403    3.6967 C   0  0  0  0  0  0  0  0  0  0  0  0
   -1.3364    4.3496    3.5689 C   0  0  1  0  0  0  0  0  0  0  0  0
   -1.7858    5.2117    2.5493 O   0  0  0  0  0  0  0  0  0  0  0  0
   -1.7758    2.8926    3.2403 C   0  0  0  0  0  0  0  0  0  0  0  0
   -0.6581    1.8002    3.3888 C   0  0  1  0  0  0  0  0  0  0  0  0
   -0.0750    1.7601    2.0967 O   0  0  0  0  0  0  0  0  0  0  0  0
    0.2867    2.0844    4.6679 C   0  0  1  0  0  0  0  0  0  0  0  0
    1.6293    1.4607    5.1541 C   0  0  2  0  0  0  0  0  0  0  0  0
    2.3856    2.1515    6.3503 C   0  0  1  0  0  0  0  0  0  0  0  0
    2.9421    3.4332    6.1636 O   0  0  0  0  0  0  0  0  0  0  0  0
    1.4581    2.2190    7.5761 C   0  0  0  0  0  0  0  0  0  0  0  0
    0.1875    1.3609    7.3961 C   0  0  2  0  0  0  0  0  0  0  0  0
    0.3826   -0.1948    7.7516 C   0  0  0  0  0  0  0  0  0  0  0  0
   -0.5817    1.8014    6.0424 C   0  0  1  0  0  0  0  0  0  0  0  0
   -1.4208    3.0392    6.4641 C   0  0  0  0  0  0  0  0  0  0  0  0
   -1.5296    0.5717    5.8043 C   0  0  0  0  0  0  0  0  0  0  0  0
   -0.9910   -0.7904    5.1984 C   0  0  0  0  0  0  0  0  0  0  0  0
    0.5018   -1.2727    5.2855 C   0  0  2  0  0  0  0  0  0  0  0  0
    0.9387   -3.5372    6.8692 H   0  0  0  0  0  0  0  0  0  0  0  0
   -0.5916   -2.8112    7.3093 H   0  0  0  0  0  0  0  0  0  0  0  0
    0.7423   -2.7923    8.4430 H   0  0  0  0  0  0  0  0  0  0  0  0
    2.8863   -0.3734    7.1727 H   0  0  0  0  0  0  0  0  0  0  0  0
    2.8101   -1.9098    7.8425 H   0  0  0  0  0  0  0  0  0  0  0  0
    4.2864   -1.3163    5.7278 H   0  0  0  0  0  0  0  0  0  0  0  0
    3.7353   -2.9191    6.0176 H   0  0  0  0  0  0  0  0  0  0  0  0
    3.5055   -1.8446    3.6207 H   0  0  0  0  0  0  0  0  0  0  0  0
    2.3124   -2.9334    4.2398 H   0  0  0  0  0  0  0  0  0  0  0  0
    0.2237   -0.6164    2.4501 H   0  0  0  0  0  0  0  0  0  0  0  0
    0.6574   -2.2648    2.7661 H   0  0  0  0  0  0  0  0  0  0  0  0
    1.8126   -1.2238    1.9816 H   0  0  0  0  0  0  0  0  0  0  0  0
    3.3078    0.4136    4.6523 H   0  0  0  0  0  0  0  0  0  0  0  0
    3.8007    1.6806    3.1201 H   0  0  0  0  0  0  0  0  0  0  0  0
    1.5794    1.1161    1.5856 H   0  0  0  0  0  0  0  0  0  0  0  0
    3.0464    3.6964    3.7525 H   0  0  0  0  0  0  0  0  0  0  0  0
    2.1483    3.6101    2.2996 H   0  0  0  0  0  0  0  0  0  0  0  0
    0.6400    5.2325    3.1329 H   0  0  0  0  0  0  0  0  0  0  0  0
   -1.7768    4.7168    4.4910 H   0  0  0  0  0  0  0  0  0  0  0  0
   -1.2101    5.0698    1.7995 H   0  0  0  0  0  0  0  0  0  0  0  0
   -2.6346    2.6457    3.8551 H   0  0  0  0  0  0  0  0  0  0  0  0
   -2.1956    2.8450    2.2341 H   0  0  0  0  0  0  0  0  0  0  0  0
   -1.1694    0.8641    3.3780 H   0  0  0  0  0  0  0  0  0  0  0  0
    0.0472    2.6562    1.7854 H   0  0  0  0  0  0  0  0  0  0  0  0
    1.4860    0.6563    5.7510 H   0  0  0  0  0  0  0  0  0  0  0  0
    3.2565    1.5568    6.6183 H   0  0  0  0  0  0  0  0  0  0  0  0
    3.5173    3.3957    5.4148 H   0  0  0  0  0  0  0  0  0  0  0  0
    1.9991    1.9374    8.4797 H   0  0  0  0  0  0  0  0  0  0  0  0
    1.1441    3.2509    7.7390 H   0  0  0  0  0  0  0  0  0  0  0  0
   -0.4286    1.6599    8.2430 H   0  0  0  0  0  0  0  0  0  0  0  0
   -0.5856   -0.5474    8.0988 H   0  0  0  0  0  0  0  0  0  0  0  0
    0.9643   -0.2269    8.6746 H   0  0  0  0  0  0  0  0  0  0  0  0
   -1.8115    2.9776    7.4788 H   0  0  0  0  0  0  0  0  0  0  0  0
   -2.3116    3.1770    5.8662 H   0  0  0  0  0  0  0  0  0  0  0  0
   -0.8151    3.9457    6.4233 H   0  0  0  0  0  0  0  0  0  0  0  0
   -2.0390    0.3628    6.7417 H   0  0  0  0  0  0  0  0  0  0  0  0
   -2.3657    0.8760    5.1831 H   0  0  0  0  0  0  0  0  0  0  0  0
   -1.5834   -1.5553    5.7010 H   0  0  0  0  0  0  0  0  0  0  0  0
   -1.3311   -0.9449    4.1807 H   0  0  0  0  0  0  0  0  0  0  0  0
    0.3493   -2.3223    5.0283 H   0  0  0  0  0  0  0  0  0  0  0  0
  2  1  1  1
  1 31  1  0
  1 32  1  0
  1 33  1  0
  2 25  1  0
  2 30  1  0
  2  3  1  0
  3  4  1  0
  3 34  1  0
  3 35  1  0
  4  5  1  0
  4 36  1  0
  4 37  1  0
  5  6  1  0
  5 38  1  0
  5 39  1  0
  6 30  1  0
  6  7  1  6
  6  8  1  0
  7 40  1  0
  7 41  1  0
  7 42  1  0
  8 20  1  0
  8  9  1  0
  8 43  1  1
  9 10  1  0
  9 11  1  0
  9 44  1  6
 10 45  1  0
 11 12  1  0
 11 46  1  0
 11 47  1  0
 19 12  1  1
 12 13  2  0
 13 14  1  0
 13 48  1  0
 14 15  1  0
 14 16  1  0
 14 49  1  1
 15 50  1  0
 16 17  1  0
 16 51  1  0
 16 52  1  0
 17 18  1  0
 17 19  1  0
 17 53  1  1
 18 54  1  0
 19 26  1  0
 19 20  1  0
 20 21  1  0
 20 55  1  1
 21 22  1  0
 21 23  1  0
 21 56  1  1
 22 57  1  0
 23 24  1  0
 23 58  1  0
 23 59  1  0
 24 25  1  0
 24 26  1  0
 24 60  1  1
 25 61  1  0
 25 62  1  0
 26 27  1  1
 26 28  1  0
 27 63  1  0
 27 64  1  0
 27 65  1  0
 28 29  1  0
 28 66  1  0
 28 67  1  0
 29 30  1  0
 29 68  1  0
 29 69  1  0
 30 70  1  6
M  END
>  <i_m_ct_stereo_status>  (228) 
1

>  <s_m_source_file>  (228) 
/var/tmp/pbs.5076255.sched01/tmpz7m1v8ep/860kfiy9lw.sdf

>  <i_m_source_file_index>  (228) 
18

>  <i_lp_mmshare_version>  (228) 
48012

>  <i_f3d_flags>  (228) 
0

>  <s_epik_input>  (228) 
W0NIXTEyW0NAQEhdKFtPSF0pW0NIMl1bQ0BASF0oW0NAXTMoW0NIM10pW0NIMl1bQ0gyXTQpW0NIMl1bQ0BdKFtDSDNdKShbQ0gyXVtDSDJdW0NIMl01KVtDQEBIXTRbQ0BAXTUoW0NIM10pW0NASF0xW0NAQEhdKFtPSF0pW0NIMl1DKEMyMzYpPVtDSF1bQ0BASF0oW09IXSlbQ0gyXVtDQEhdNltPSF0=

>  <s_epik_cmdline>  (228) 
J2VwaWtfcHl0aG9uJywgJy1waHQnLCAnMi4wJywgJy1waCcsICc3LjAnLCAnLXRuJywgJzgnLCAnLW1hJywgJzIwMCcsICctaW1hZScsICc8aW5maWxlLm1hZT4nLCAnLW9tYWUnLCAnPG91dGZpbGUubWFlPic=

>  <r_lp_tautomer_probability>  (228) 
1

>  <r_epik_Ionization_Penalty>  (228) 
2.28399e-06

>  <r_epik_Ionization_Penalty_Charging>  (228) 
0

>  <r_epik_Ionization_Penalty_Neutral>  (228) 
2.28399e-06

>  <r_epik_State_Penalty>  (228) 
-0

>  <r_epik_Charging_Adjusted_Penalty>  (228) 
0

>  <i_epik_Tot_Q>  (228) 
0

>  <i_epik_Tot_abs_Q>  (228) 
0

>  <s_lp_Force_Field>  (228) 
OPLS3e

>  <r_lp_Energy>  (228) 
252.046

>  <b_lp_Chiralities_Consistent>  (228) 
1

>  <s_lp_Variant>  (228) 
68:0-2

>  <s_i_glide_gridfile>  (228) 
pfpi4k_grid

>  <i_i_glide_lignum>  (228) 
18

>  <i_i_glide_rotatable_bonds>  (228) 
4

>  <r_i_docking_score>  (228) 
-3.76495

>  <r_i_glide_ligand_efficiency>  (228) 
-0.125498

>  <r_i_glide_ligand_efficiency_sa>  (228) 
-0.389953

>  <r_i_glide_ligand_efficiency_ln>  (228) 
-0.855439

>  <r_i_glide_gscore>  (228) 
-3.76495

>  <r_i_glide_lipo>  (228) 
-0.0364717

>  <r_i_glide_hbond>  (228) 
-0.304

>  <r_i_glide_metal>  (228) 
-0

>  <r_i_glide_rewards>  (228) 
-1.06868

>  <r_i_glide_evdw>  (228) 
-23.1593

>  <r_i_glide_ecoul>  (228) 
-7.98556

>  <r_i_glide_erotb>  (228) 
0

>  <r_i_glide_esite>  (228) 
0

>  <r_i_glide_emodel>  (228) 
-44.7221

>  <r_i_glide_energy>  (228) 
-31.1449

>  <r_i_glide_einternal>  (228) 
0.922119

>  <r_i_glide_intrahb_reward>  (228) 
-0.5

>  <i_i_glide_confnum>  (228) 
2

>  <i_i_glide_posenum>  (228) 
24

>  <r_i_glide_eff_state_penalty>  (228) 
0

>  <ligand_id>  (228) 
68

>  <original_smiles>  (228) 
CC12CCCC3(C)C4C(O)CC5=CC(O)CC(O)C56C4C(O)CC(C1)C6(C)CCC23

>  <smiles>  (228) 
[H]OC1([H])C([H])=C2C([H])([H])C([H])(O[H])C3([H])C4([H])C([H])(O[H])C([H])([H])C5([H])C([H])([H])C6(C([H])([H])[H])C([H])([H])C([H])([H])C([H])([H])C3(C([H])([H])[H])C6([H])C([H])([H])C([H])([H])C5(C([H])([H])[H])C24C([H])(O[H])C1([H])[H]

$$$$
68:1:2
     RDKit          3D

 70 75  0  0  1  0  0  0  0  0999 V2000
    0.7495   -3.3101    7.0098 C   0  0  0  0  0  0  0  0  0  0  0  0
    1.1655   -1.8587    6.6331 C   0  0  2  0  0  0  0  0  0  0  0  0
    2.6915   -1.7748    6.9416 C   0  0  0  0  0  0  0  0  0  0  0  0
    3.6973   -2.1125    5.8223 C   0  0  0  0  0  0  0  0  0  0  0  0
    3.1913   -2.0089    4.3721 C   0  0  0  0  0  0  0  0  0  0  0  0
    2.0059   -1.0254    4.1366 C   0  0  2  0  0  0  0  0  0  0  0  0
    1.6132   -1.2729    2.6602 C   0  0  0  0  0  0  0  0  0  0  0  0
    2.5753    0.4871    4.4359 C   0  0  1  0  0  0  0  0  0  0  0  0
    2.9662    1.6657    3.4841 C   0  0  1  0  0  0  0  0  0  0  0  0
    3.0151    1.3417    2.1104 O   0  0  0  0  0  0  0  0  0  0  0  0
    2.3309    3.1017    3.8094 C   0  0  0  0  0  0  0  0  0  0  0  0
    0.9059    3.1309    4.4735 C   0  0  0  0  0  0  0  0  0  0  0  0
    0.1180    4.1696    4.1320 C   0  0  0  0  0  0  0  0  0  0  0  0
   -1.3531    3.9810    3.8330 C   0  0  1  0  0  0  0  0  0  0  0  0
   -1.7783    4.9347    2.8813 O   0  0  0  0  0  0  0  0  0  0  0  0
   -1.6320    2.5382    3.3016 C   0  0  0  0  0  0  0  0  0  0  0  0
   -0.4369    1.5352    3.4440 C   0  0  1  0  0  0  0  0  0  0  0  0
    0.2470    1.7198    2.2192 O   0  0  0  0  0  0  0  0  0  0  0  0
    0.3541    1.7324    4.8395 C   0  0  1  0  0  0  0  0  0  0  0  0
    1.6975    1.1628    5.3977 C   0  0  2  0  0  0  0  0  0  0  0  0
    2.2668    1.7615    6.7395 C   0  0  1  0  0  0  0  0  0  0  0  0
    2.7159    3.0969    6.7650 O   0  0  0  0  0  0  0  0  0  0  0  0
    1.2205    1.6004    7.8560 C   0  0  0  0  0  0  0  0  0  0  0  0
    0.0642    0.6679    7.4425 C   0  0  2  0  0  0  0  0  0  0  0  0
    0.3748   -0.8984    7.6356 C   0  0  0  0  0  0  0  0  0  0  0  0
   -0.6072    1.2083    6.0715 C   0  0  1  0  0  0  0  0  0  0  0  0
   -1.5980    2.3083    6.5388 C   0  0  0  0  0  0  0  0  0  0  0  0
   -1.4073   -0.0581    5.5950 C   0  0  0  0  0  0  0  0  0  0  0  0
   -0.6817   -1.2846    4.9074 C   0  0  0  0  0  0  0  0  0  0  0  0
    0.8325   -1.6522    5.0996 C   0  0  2  0  0  0  0  0  0  0  0  0
    1.3246   -4.0496    6.4516 H   0  0  0  0  0  0  0  0  0  0  0  0
   -0.3029   -3.5076    6.8053 H   0  0  0  0  0  0  0  0  0  0  0  0
    0.9070   -3.5203    8.0695 H   0  0  0  0  0  0  0  0  0  0  0  0
    2.9269   -0.7932    7.3238 H   0  0  0  0  0  0  0  0  0  0  0  0
    2.9312   -2.4025    7.7992 H   0  0  0  0  0  0  0  0  0  0  0  0
    4.5433   -1.4358    5.9409 H   0  0  0  0  0  0  0  0  0  0  0  0
    4.1225   -3.1017    5.9859 H   0  0  0  0  0  0  0  0  0  0  0  0
    4.0278   -1.7628    3.7130 H   0  0  0  0  0  0  0  0  0  0  0  0
    2.8889   -3.0147    4.0726 H   0  0  0  0  0  0  0  0  0  0  0  0
    0.7697   -0.6764    2.3300 H   0  0  0  0  0  0  0  0  0  0  0  0
    1.3281   -2.3156    2.4988 H   0  0  0  0  0  0  0  0  0  0  0  0
    2.4433   -1.0851    1.9757 H   0  0  0  0  0  0  0  0  0  0  0  0
    3.5078    0.3178    4.9740 H   0  0  0  0  0  0  0  0  0  0  0  0
    4.0255    1.8091    3.6981 H   0  0  0  0  0  0  0  0  0  0  0  0
    3.6426    1.9286    1.6995 H   0  0  0  0  0  0  0  0  0  0  0  0
    3.0291    3.6652    4.4233 H   0  0  0  0  0  0  0  0  0  0  0  0
    2.2948    3.6706    2.8784 H   0  0  0  0  0  0  0  0  0  0  0  0
    0.5677    5.0604    3.7168 H   0  0  0  0  0  0  0  0  0  0  0  0
   -1.9182    4.1966    4.7359 H   0  0  0  0  0  0  0  0  0  0  0  0
   -1.2088    4.8390    2.1136 H   0  0  0  0  0  0  0  0  0  0  0  0
   -2.5231    2.1512    3.7888 H   0  0  0  0  0  0  0  0  0  0  0  0
   -1.9464    2.5822    2.2580 H   0  0  0  0  0  0  0  0  0  0  0  0
   -0.8447    0.5632    3.2763 H   0  0  0  0  0  0  0  0  0  0  0  0
    0.2486    2.6429    1.9815 H   0  0  0  0  0  0  0  0  0  0  0  0
    1.5761    0.2806    5.8805 H   0  0  0  0  0  0  0  0  0  0  0  0
    3.1596    1.2105    7.0335 H   0  0  0  0  0  0  0  0  0  0  0  0
    3.3786    3.1954    6.0981 H   0  0  0  0  0  0  0  0  0  0  0  0
    1.6968    1.2582    8.7770 H   0  0  0  0  0  0  0  0  0  0  0  0
    0.7966    2.5764    8.0999 H   0  0  0  0  0  0  0  0  0  0  0  0
   -0.6546    0.8101    8.2472 H   0  0  0  0  0  0  0  0  0  0  0  0
   -0.5813   -1.3785    7.8160 H   0  0  0  0  0  0  0  0  0  0  0  0
    0.8573   -0.9963    8.6102 H   0  0  0  0  0  0  0  0  0  0  0  0
   -2.0808    2.0932    7.4928 H   0  0  0  0  0  0  0  0  0  0  0  0
   -2.4348    2.4477    5.8650 H   0  0  0  0  0  0  0  0  0  0  0  0
   -1.0813    3.2615    6.6659 H   0  0  0  0  0  0  0  0  0  0  0  0
   -1.9786   -0.4318    6.4410 H   0  0  0  0  0  0  0  0  0  0  0  0
   -2.2146    0.2465    4.9322 H   0  0  0  0  0  0  0  0  0  0  0  0
   -1.2430   -2.1528    5.2528 H   0  0  0  0  0  0  0  0  0  0  0  0
   -0.8941   -1.3389    3.8471 H   0  0  0  0  0  0  0  0  0  0  0  0
    0.8083   -2.6691    4.7075 H   0  0  0  0  0  0  0  0  0  0  0  0
  2  1  1  1
  1 31  1  0
  1 32  1  0
  1 33  1  0
  2 25  1  0
  2 30  1  0
  2  3  1  0
  3  4  1  0
  3 34  1  0
  3 35  1  0
  4  5  1  0
  4 36  1  0
  4 37  1  0
  5  6  1  0
  5 38  1  0
  5 39  1  0
  6 30  1  0
  6  7  1  6
  6  8  1  0
  7 40  1  0
  7 41  1  0
  7 42  1  0
  8 20  1  0
  8  9  1  0
  8 43  1  1
  9 10  1  0
  9 11  1  0
  9 44  1  1
 10 45  1  0
 11 12  1  0
 11 46  1  0
 11 47  1  0
 19 12  1  1
 12 13  2  0
 13 14  1  0
 13 48  1  0
 14 15  1  0
 14 16  1  0
 14 49  1  1
 15 50  1  0
 16 17  1  0
 16 51  1  0
 16 52  1  0
 17 18  1  0
 17 19  1  0
 17 53  1  6
 18 54  1  0
 19 26  1  0
 19 20  1  0
 20 21  1  0
 20 55  1  1
 21 22  1  0
 21 23  1  0
 21 56  1  1
 22 57  1  0
 23 24  1  0
 23 58  1  0
 23 59  1  0
 24 25  1  0
 24 26  1  0
 24 60  1  1
 25 61  1  0
 25 62  1  0
 26 27  1  1
 26 28  1  0
 27 63  1  0
 27 64  1  0
 27 65  1  0
 28 29  1  0
 28 66  1  0
 28 67  1  0
 29 30  1  0
 29 68  1  0
 29 69  1  0
 30 70  1  6
M  END
>  <i_m_ct_stereo_status>  (229) 
1

>  <s_m_source_file>  (229) 
/var/tmp/pbs.5076255.sched01/tmpz7m1v8ep/860kfiy9lw.sdf

>  <i_m_source_file_index>  (229) 
18

>  <i_lp_mmshare_version>  (229) 
48012

>  <i_f3d_flags>  (229) 
0

>  <s_epik_input>  (229) 
W0NIXTEyW0NAQEhdKFtPSF0pW0NIMl1bQ0BASF0oW0NAXTMoW0NIM10pW0NIMl1bQ0gyXTQpW0NIMl1bQ0BdKFtDSDNdKShbQ0gyXVtDSDJdW0NIMl01KVtDQEBIXTRbQ0BAXTUoW0NIM10pW0NASF0xW0NAQEhdKFtPSF0pW0NIMl1DKEMyMzYpPVtDSF1bQ0BASF0oW09IXSlbQ0gyXVtDQEhdNltPSF0=

>  <s_epik_cmdline>  (229) 
J2VwaWtfcHl0aG9uJywgJy1waHQnLCAnMi4wJywgJy1waCcsICc3LjAnLCAnLXRuJywgJzgnLCAnLW1hJywgJzIwMCcsICctaW1hZScsICc8aW5maWxlLm1hZT4nLCAnLW9tYWUnLCAnPG91dGZpbGUubWFlPic=

>  <r_lp_tautomer_probability>  (229) 
1

>  <r_epik_Ionization_Penalty>  (229) 
2.28399e-06

>  <r_epik_Ionization_Penalty_Charging>  (229) 
0

>  <r_epik_Ionization_Penalty_Neutral>  (229) 
2.28399e-06

>  <r_epik_State_Penalty>  (229) 
-0

>  <r_epik_Charging_Adjusted_Penalty>  (229) 
0

>  <i_epik_Tot_Q>  (229) 
0

>  <i_epik_Tot_abs_Q>  (229) 
0

>  <s_lp_Force_Field>  (229) 
OPLS3e

>  <r_lp_Energy>  (229) 
252.046

>  <b_lp_Chiralities_Consistent>  (229) 
1

>  <s_lp_Variant>  (229) 
68:0-2

>  <s_i_glide_gridfile>  (229) 
pfpi4k_grid

>  <i_i_glide_lignum>  (229) 
18

>  <i_i_glide_rotatable_bonds>  (229) 
4

>  <r_i_docking_score>  (229) 
-3.41172

>  <r_i_glide_ligand_efficiency>  (229) 
-0.113724

>  <r_i_glide_ligand_efficiency_sa>  (229) 
-0.353367

>  <r_i_glide_ligand_efficiency_ln>  (229) 
-0.77518

>  <r_i_glide_gscore>  (229) 
-3.41172

>  <r_i_glide_lipo>  (229) 
-0.00223988

>  <r_i_glide_hbond>  (229) 
-0.293308

>  <r_i_glide_metal>  (229) 
-0

>  <r_i_glide_rewards>  (229) 
-0.568681

>  <r_i_glide_evdw>  (229) 
-24.3174

>  <r_i_glide_ecoul>  (229) 
-8.87747

>  <r_i_glide_erotb>  (229) 
0

>  <r_i_glide_esite>  (229) 
0

>  <r_i_glide_emodel>  (229) 
-40.4355

>  <r_i_glide_energy>  (229) 
-33.1949

>  <r_i_glide_einternal>  (229) 
1.57706

>  <r_i_glide_intrahb_reward>  (229) 
-0

>  <i_i_glide_confnum>  (229) 
2

>  <i_i_glide_posenum>  (229) 
27

>  <r_i_glide_eff_state_penalty>  (229) 
0

>  <ligand_id>  (229) 
68

>  <original_smiles>  (229) 
CC12CCCC3(C)C4C(O)CC5=CC(O)CC(O)C56C4C(O)CC(C1)C6(C)CCC23

>  <smiles>  (229) 
[H]OC1([H])C([H])=C2C([H])([H])C([H])(O[H])C3([H])C4([H])C([H])(O[H])C([H])([H])C5([H])C([H])([H])C6(C([H])([H])[H])C([H])([H])C([H])([H])C([H])([H])C3(C([H])([H])[H])C6([H])C([H])([H])C([H])([H])C5(C([H])([H])[H])C24C([H])(O[H])C1([H])[H]

$$$$
68:2:0
     RDKit          3D

 70 75  0  0  1  0  0  0  0  0999 V2000
    4.5482  -11.2699    4.1352 C   0  0  0  0  0  0  0  0  0  0  0  0
    3.3819  -10.2491    3.9885 C   0  0  2  0  0  0  0  0  0  0  0  0
    2.1347  -11.0820    4.3885 C   0  0  0  0  0  0  0  0  0  0  0  0
    0.8971  -10.3138    4.8129 C   0  0  0  0  0  0  0  0  0  0  0  0
    1.1819   -9.2378    5.8620 C   0  0  0  0  0  0  0  0  0  0  0  0
    2.4498   -8.3028    5.7122 C   0  0  2  0  0  0  0  0  0  0  0  0
    2.8861   -8.2279    7.2148 C   0  0  0  0  0  0  0  0  0  0  0  0
    2.0890   -6.7938    5.2129 C   0  0  1  0  0  0  0  0  0  0  0  0
    2.8120   -5.5154    5.7742 C   0  0  1  0  0  0  0  0  0  0  0  0
    3.0708   -5.4316    7.1602 O   0  0  0  0  0  0  0  0  0  0  0  0
    4.0210   -5.0030    4.9899 C   0  0  0  0  0  0  0  0  0  0  0  0
    3.7353   -4.8367    3.5074 C   0  0  0  0  0  0  0  0  0  0  0  0
    4.1210   -3.6508    2.9759 C   0  0  0  0  0  0  0  0  0  0  0  0
    3.8139   -3.1176    1.6074 C   0  0  1  0  0  0  0  0  0  0  0  0
    5.0012   -2.6901    0.9654 O   0  0  0  0  0  0  0  0  0  0  0  0
    3.0698   -4.1134    0.7313 C   0  0  0  0  0  0  0  0  0  0  0  0
    2.2177   -5.1201    1.5383 C   0  0  1  0  0  0  0  0  0  0  0  0
    1.5645   -5.8517    0.5171 O   0  0  0  0  0  0  0  0  0  0  0  0
    2.9002   -5.9252    2.7545 C   0  0  2  0  0  0  0  0  0  0  0  0
    1.7396   -6.4299    3.7156 C   0  0  1  0  0  0  0  0  0  0  0  0
    0.7377   -7.4005    3.0748 C   0  0  1  0  0  0  0  0  0  0  0  0
   -0.3839   -6.7502    2.4992 O   0  0  0  0  0  0  0  0  0  0  0  0
    1.3546   -8.3674    2.0491 C   0  0  0  0  0  0  0  0  0  0  0  0
    2.8924   -8.4790    2.0130 C   0  0  2  0  0  0  0  0  0  0  0  0
    3.4089   -9.8556    2.4851 C   0  0  0  0  0  0  0  0  0  0  0  0
    3.7798   -7.1980    2.3121 C   0  0  1  0  0  0  0  0  0  0  0  0
    4.5616   -6.8756    1.0006 C   0  0  0  0  0  0  0  0  0  0  0  0
    4.9885   -7.5544    3.2566 C   0  0  0  0  0  0  0  0  0  0  0  0
    4.8411   -8.1910    4.6587 C   0  0  0  0  0  0  0  0  0  0  0  0
    3.6350   -9.0695    4.9877 C   0  0  2  0  0  0  0  0  0  0  0  0
    4.6209  -11.6613    5.1515 H   0  0  0  0  0  0  0  0  0  0  0  0
    5.5186  -10.8357    3.8912 H   0  0  0  0  0  0  0  0  0  0  0  0
    4.4039  -12.1292    3.4753 H   0  0  0  0  0  0  0  0  0  0  0  0
    1.8688  -11.7747    3.5945 H   0  0  0  0  0  0  0  0  0  0  0  0
    2.3856  -11.7147    5.2490 H   0  0  0  0  0  0  0  0  0  0  0  0
    0.3038   -9.9763    3.9751 H   0  0  0  0  0  0  0  0  0  0  0  0
    0.2164  -11.0279    5.2651 H   0  0  0  0  0  0  0  0  0  0  0  0
    0.2827   -8.6502    6.0203 H   0  0  0  0  0  0  0  0  0  0  0  0
    1.2414   -9.8343    6.7835 H   0  0  0  0  0  0  0  0  0  0  0  0
    3.8531   -7.7510    7.3626 H   0  0  0  0  0  0  0  0  0  0  0  0
    3.0167   -9.2119    7.6722 H   0  0  0  0  0  0  0  0  0  0  0  0
    2.1363   -7.7184    7.8255 H   0  0  0  0  0  0  0  0  0  0  0  0
    1.1230   -6.6782    5.7082 H   0  0  0  0  0  0  0  0  0  0  0  0
    2.0775   -4.7190    5.6698 H   0  0  0  0  0  0  0  0  0  0  0  0
    3.7256   -6.0766    7.3803 H   0  0  0  0  0  0  0  0  0  0  0  0
    4.2484   -4.0208    5.4054 H   0  0  0  0  0  0  0  0  0  0  0  0
    4.9459   -5.5286    5.1523 H   0  0  0  0  0  0  0  0  0  0  0  0
    4.6621   -2.9442    3.5880 H   0  0  0  0  0  0  0  0  0  0  0  0
    3.1848   -2.2389    1.7593 H   0  0  0  0  0  0  0  0  0  0  0  0
    4.7608   -2.1967    0.1964 H   0  0  0  0  0  0  0  0  0  0  0  0
    2.4193   -3.5406    0.0640 H   0  0  0  0  0  0  0  0  0  0  0  0
    3.7677   -4.5985    0.0531 H   0  0  0  0  0  0  0  0  0  0  0  0
    1.4420   -4.5114    1.9982 H   0  0  0  0  0  0  0  0  0  0  0  0
    2.2185   -6.2745   -0.0123 H   0  0  0  0  0  0  0  0  0  0  0  0
    1.1313   -5.5384    3.8676 H   0  0  0  0  0  0  0  0  0  0  0  0
    0.2508   -7.9400    3.8734 H   0  0  0  0  0  0  0  0  0  0  0  0
   -0.9587   -7.4365    2.1924 H   0  0  0  0  0  0  0  0  0  0  0  0
    0.9266   -9.3578    2.1365 H   0  0  0  0  0  0  0  0  0  0  0  0
    1.0085   -8.1115    1.0448 H   0  0  0  0  0  0  0  0  0  0  0  0
    3.0276   -8.6401    0.9529 H   0  0  0  0  0  0  0  0  0  0  0  0
    4.4254   -9.9559    2.0974 H   0  0  0  0  0  0  0  0  0  0  0  0
    2.8939  -10.6322    1.9220 H   0  0  0  0  0  0  0  0  0  0  0  0
    5.2419   -7.6782    0.7113 H   0  0  0  0  0  0  0  0  0  0  0  0
    5.1770   -5.9823    1.1119 H   0  0  0  0  0  0  0  0  0  0  0  0
    3.9250   -6.7473    0.1317 H   0  0  0  0  0  0  0  0  0  0  0  0
    5.6326   -8.2605    2.7280 H   0  0  0  0  0  0  0  0  0  0  0  0
    5.6460   -6.6910    3.3503 H   0  0  0  0  0  0  0  0  0  0  0  0
    5.7398   -8.7919    4.8139 H   0  0  0  0  0  0  0  0  0  0  0  0
    4.9391   -7.4746    5.4591 H   0  0  0  0  0  0  0  0  0  0  0  0
    4.0294   -9.6539    5.8196 H   0  0  0  0  0  0  0  0  0  0  0  0
  2  1  1  6
  1 31  1  0
  1 32  1  0
  1 33  1  0
  2 25  1  0
  2 30  1  0
  2  3  1  0
  3  4  1  0
  3 34  1  0
  3 35  1  0
  4  5  1  0
  4 36  1  0
  4 37  1  0
  5  6  1  0
  5 38  1  0
  5 39  1  0
  6 30  1  0
  6  7  1  1
  6  8  1  0
  7 40  1  0
  7 41  1  0
  7 42  1  0
  8 20  1  0
  8  9  1  0
  8 43  1  1
  9 10  1  0
  9 11  1  0
  9 44  1  1
 10 45  1  0
 11 12  1  0
 11 46  1  0
 11 47  1  0
 19 12  1  1
 12 13  2  0
 13 14  1  0
 13 48  1  0
 14 15  1  0
 14 16  1  0
 14 49  1  1
 15 50  1  0
 16 17  1  0
 16 51  1  0
 16 52  1  0
 17 18  1  0
 17 19  1  0
 17 53  1  1
 18 54  1  0
 19 26  1  0
 19 20  1  0
 20 21  1  0
 20 55  1  1
 21 22  1  0
 21 23  1  0
 21 56  1  1
 22 57  1  0
 23 24  1  0
 23 58  1  0
 23 59  1  0
 24 25  1  0
 24 26  1  0
 24 60  1  6
 25 61  1  0
 25 62  1  0
 26 27  1  6
 26 28  1  0
 27 63  1  0
 27 64  1  0
 27 65  1  0
 28 29  1  0
 28 66  1  0
 28 67  1  0
 29 30  1  0
 29 68  1  0
 29 69  1  0
 30 70  1  1
M  END
>  <i_m_ct_stereo_status>  (230) 
1

>  <s_m_source_file>  (230) 
/var/tmp/pbs.5076255.sched01/tmpz7m1v8ep/860kfiy9lw.sdf

>  <i_m_source_file_index>  (230) 
19

>  <i_lp_mmshare_version>  (230) 
48012

>  <i_f3d_flags>  (230) 
0

>  <s_epik_input>  (230) 
W0NIXTEyW0NAQEhdKFtPSF0pW0NIMl1bQ0BASF0oW0NAXTMoW0NIM10pW0NIMl1bQ0gyXTQpW0NIMl1bQ0BdKFtDSDNdKShbQ0gyXVtDSDJdW0NIMl01KVtDQEBIXTRbQ0BAXTUoW0NIM10pW0NASF0xW0NAQEhdKFtPSF0pW0NIMl1DKEMyMzYpPVtDSF1bQ0BASF0oW09IXSlbQ0gyXVtDQEhdNltPSF0=

>  <s_epik_cmdline>  (230) 
J2VwaWtfcHl0aG9uJywgJy1waHQnLCAnMi4wJywgJy1waCcsICc3LjAnLCAnLXRuJywgJzgnLCAnLW1hJywgJzIwMCcsICctaW1hZScsICc8aW5maWxlLm1hZT4nLCAnLW9tYWUnLCAnPG91dGZpbGUubWFlPic=

>  <r_lp_tautomer_probability>  (230) 
1

>  <r_epik_Ionization_Penalty>  (230) 
2.28399e-06

>  <r_epik_Ionization_Penalty_Charging>  (230) 
0

>  <r_epik_Ionization_Penalty_Neutral>  (230) 
2.28399e-06

>  <r_epik_State_Penalty>  (230) 
-0

>  <r_epik_Charging_Adjusted_Penalty>  (230) 
0

>  <i_epik_Tot_Q>  (230) 
0

>  <i_epik_Tot_abs_Q>  (230) 
0

>  <s_lp_Force_Field>  (230) 
OPLS3e

>  <r_lp_Energy>  (230) 
160.323

>  <b_lp_Chiralities_Consistent>  (230) 
1

>  <s_lp_Variant>  (230) 
68:0-3

>  <s_i_glide_gridfile>  (230) 
pfpi4k_grid

>  <i_i_glide_lignum>  (230) 
19

>  <i_i_glide_rotatable_bonds>  (230) 
4

>  <r_i_docking_score>  (230) 
-3.1103

>  <r_i_glide_ligand_efficiency>  (230) 
-0.103677

>  <r_i_glide_ligand_efficiency_sa>  (230) 
-0.322147

>  <r_i_glide_ligand_efficiency_ln>  (230) 
-0.706693

>  <r_i_glide_gscore>  (230) 
-3.1103

>  <r_i_glide_lipo>  (230) 
-0.109328

>  <r_i_glide_hbond>  (230) 
0

>  <r_i_glide_metal>  (230) 
-0

>  <r_i_glide_rewards>  (230) 
-0.568681

>  <r_i_glide_evdw>  (230) 
-24.8087

>  <r_i_glide_ecoul>  (230) 
-7.94568

>  <r_i_glide_erotb>  (230) 
0

>  <r_i_glide_esite>  (230) 
0

>  <r_i_glide_emodel>  (230) 
-39.1978

>  <r_i_glide_energy>  (230) 
-32.7544

>  <r_i_glide_einternal>  (230) 
0.902458

>  <r_i_glide_intrahb_reward>  (230) 
-0

>  <i_i_glide_confnum>  (230) 
1

>  <i_i_glide_posenum>  (230) 
5

>  <r_i_glide_eff_state_penalty>  (230) 
0

>  <ligand_id>  (230) 
68

>  <original_smiles>  (230) 
CC12CCCC3(C)C4C(O)CC5=CC(O)CC(O)C56C4C(O)CC(C1)C6(C)CCC23

>  <smiles>  (230) 
[H]OC1([H])C([H])=C2C([H])([H])C([H])(O[H])C3([H])C4([H])C([H])(O[H])C([H])([H])C5([H])C([H])([H])C6(C([H])([H])[H])C([H])([H])C([H])([H])C([H])([H])C3(C([H])([H])[H])C6([H])C([H])([H])C([H])([H])C5(C([H])([H])[H])C24C([H])(O[H])C1([H])[H]

$$$$
68:2:1
     RDKit          3D

 70 75  0  0  1  0  0  0  0  0999 V2000
    6.4594   -9.9743    3.0406 C   0  0  0  0  0  0  0  0  0  0  0  0
    5.1238   -9.1869    3.1569 C   0  0  2  0  0  0  0  0  0  0  0  0
    4.1429  -10.2381    3.7502 C   0  0  0  0  0  0  0  0  0  0  0  0
    2.8951   -9.7157    4.4338 C   0  0  0  0  0  0  0  0  0  0  0  0
    3.1798   -8.6146    5.4552 C   0  0  0  0  0  0  0  0  0  0  0  0
    4.2080   -7.4587    5.1104 C   0  0  2  0  0  0  0  0  0  0  0  0
    4.9014   -7.3160    6.5046 C   0  0  0  0  0  0  0  0  0  0  0  0
    3.4963   -6.0334    4.7562 C   0  0  1  0  0  0  0  0  0  0  0  0
    4.0679   -4.6500    5.2291 C   0  0  1  0  0  0  0  0  0  0  0  0
    4.5727   -4.5400    6.5469 O   0  0  0  0  0  0  0  0  0  0  0  0
    4.9944   -3.9174    4.2566 C   0  0  0  0  0  0  0  0  0  0  0  0
    4.4067   -3.7972    2.8592 C   0  0  0  0  0  0  0  0  0  0  0  0
    4.4650   -2.5556    2.3167 C   0  0  0  0  0  0  0  0  0  0  0  0
    3.8139   -2.0765    1.0544 C   0  0  1  0  0  0  0  0  0  0  0  0
    4.7560   -1.4267    0.2184 O   0  0  0  0  0  0  0  0  0  0  0  0
    3.1059   -3.1826    0.2865 C   0  0  0  0  0  0  0  0  0  0  0  0
    2.6188   -4.3443    1.1828 C   0  0  1  0  0  0  0  0  0  0  0  0
    1.9546   -5.1922    0.2579 O   0  0  0  0  0  0  0  0  0  0  0  0
    3.6518   -5.0129    2.2293 C   0  0  2  0  0  0  0  0  0  0  0  0
    2.8104   -5.7329    3.3694 C   0  0  1  0  0  0  0  0  0  0  0  0
    1.8967   -6.8679    2.8871 C   0  0  1  0  0  0  0  0  0  0  0  0
    0.5989   -6.3861    2.5824 O   0  0  0  0  0  0  0  0  0  0  0  0
    2.4530   -7.6974    1.7269 C   0  0  0  0  0  0  0  0  0  0  0  0
    3.9529   -7.5196    1.3885 C   0  0  2  0  0  0  0  0  0  0  0  0
    4.7895   -8.7834    1.6914 C   0  0  0  0  0  0  0  0  0  0  0  0
    4.6395   -6.0998    1.5799 C   0  0  1  0  0  0  0  0  0  0  0  0
    5.0790   -5.6106    0.1660 C   0  0  0  0  0  0  0  0  0  0  0  0
    6.0534   -6.2368    2.2601 C   0  0  0  0  0  0  0  0  0  0  0  0
    6.2945   -6.9021    3.6342 C   0  0  0  0  0  0  0  0  0  0  0  0
    5.3478   -7.9886    4.1421 C   0  0  2  0  0  0  0  0  0  0  0  0
    6.7948  -10.3514    4.0066 H   0  0  0  0  0  0  0  0  0  0  0  0
    7.2732   -9.3670    2.6409 H   0  0  0  0  0  0  0  0  0  0  0  0
    6.3503  -10.8418    2.3854 H   0  0  0  0  0  0  0  0  0  0  0  0
    3.8580  -10.9561    2.9895 H   0  0  0  0  0  0  0  0  0  0  0  0
    4.6705  -10.8211    4.5185 H   0  0  0  0  0  0  0  0  0  0  0  0
    2.1009   -9.4834    3.7341 H   0  0  0  0  0  0  0  0  0  0  0  0
    2.4483  -10.5444    4.9709 H   0  0  0  0  0  0  0  0  0  0  0  0
    2.2400   -8.2000    5.8002 H   0  0  0  0  0  0  0  0  0  0  0  0
    3.5209   -9.1923    6.3315 H   0  0  0  0  0  0  0  0  0  0  0  0
    5.7675   -6.6571    6.4916 H   0  0  0  0  0  0  0  0  0  0  0  0
    5.2988   -8.2579    6.8899 H   0  0  0  0  0  0  0  0  0  0  0  0
    4.2029   -6.9593    7.2655 H   0  0  0  0  0  0  0  0  0  0  0  0
    2.6396   -6.1066    5.4302 H   0  0  0  0  0  0  0  0  0  0  0  0
    3.1952   -4.0016    5.2961 H   0  0  0  0  0  0  0  0  0  0  0  0
    4.7483   -3.6328    6.7328 H   0  0  0  0  0  0  0  0  0  0  0  0
    5.1245   -2.9136    4.6562 H   0  0  0  0  0  0  0  0  0  0  0  0
    6.0033   -4.2783    4.2236 H   0  0  0  0  0  0  0  0  0  0  0  0
    4.9784   -1.7643    2.8436 H   0  0  0  0  0  0  0  0  0  0  0  0
    3.0765   -1.3322    1.3583 H   0  0  0  0  0  0  0  0  0  0  0  0
    4.2822   -0.9078   -0.4100 H   0  0  0  0  0  0  0  0  0  0  0  0
    2.2440   -2.7375   -0.2170 H   0  0  0  0  0  0  0  0  0  0  0  0
    3.7349   -3.5233   -0.5318 H   0  0  0  0  0  0  0  0  0  0  0  0
    1.8345   -3.8999    1.7922 H   0  0  0  0  0  0  0  0  0  0  0  0
    2.5620   -5.4570   -0.4142 H   0  0  0  0  0  0  0  0  0  0  0  0
    2.0991   -4.9638    3.6691 H   0  0  0  0  0  0  0  0  0  0  0  0
    1.6688   -7.4977    3.7367 H   0  0  0  0  0  0  0  0  0  0  0  0
    0.2072   -6.1488    3.4018 H   0  0  0  0  0  0  0  0  0  0  0  0
    2.2408   -8.7512    1.8485 H   0  0  0  0  0  0  0  0  0  0  0  0
    1.8390   -7.4972    0.8472 H   0  0  0  0  0  0  0  0  0  0  0  0
    3.9084   -7.6305    0.3193 H   0  0  0  0  0  0  0  0  0  0  0  0
    5.7185   -8.6907    1.1175 H   0  0  0  0  0  0  0  0  0  0  0  0
    4.3243   -9.6384    1.1991 H   0  0  0  0  0  0  0  0  0  0  0  0
    5.8284   -6.2520   -0.2852 H   0  0  0  0  0  0  0  0  0  0  0  0
    5.5324   -4.6189    0.2013 H   0  0  0  0  0  0  0  0  0  0  0  0
    4.2824   -5.6057   -0.5684 H   0  0  0  0  0  0  0  0  0  0  0  0
    6.6994   -6.8069    1.5878 H   0  0  0  0  0  0  0  0  0  0  0  0
    6.5513   -5.2680    2.2685 H   0  0  0  0  0  0  0  0  0  0  0  0
    7.2996   -7.3277    3.5943 H   0  0  0  0  0  0  0  0  0  0  0  0
    6.4129   -6.1899    4.4361 H   0  0  0  0  0  0  0  0  0  0  0  0
    5.9931   -8.4963    4.8613 H   0  0  0  0  0  0  0  0  0  0  0  0
  2  1  1  6
  1 31  1  0
  1 32  1  0
  1 33  1  0
  2 25  1  0
  2 30  1  0
  2  3  1  0
  3  4  1  0
  3 34  1  0
  3 35  1  0
  4  5  1  0
  4 36  1  0
  4 37  1  0
  5  6  1  0
  5 38  1  0
  5 39  1  0
  6 30  1  0
  6  7  1  1
  6  8  1  0
  7 40  1  0
  7 41  1  0
  7 42  1  0
  8 20  1  0
  8  9  1  0
  8 43  1  1
  9 10  1  0
  9 11  1  0
  9 44  1  1
 10 45  1  0
 11 12  1  0
 11 46  1  0
 11 47  1  0
 19 12  1  1
 12 13  2  0
 13 14  1  0
 13 48  1  0
 14 15  1  0
 14 16  1  0
 14 49  1  1
 15 50  1  0
 16 17  1  0
 16 51  1  0
 16 52  1  0
 17 18  1  0
 17 19  1  0
 17 53  1  1
 18 54  1  0
 19 26  1  0
 19 20  1  0
 20 21  1  0
 20 55  1  1
 21 22  1  0
 21 23  1  0
 21 56  1  1
 22 57  1  0
 23 24  1  0
 23 58  1  0
 23 59  1  0
 24 25  1  0
 24 26  1  0
 24 60  1  6
 25 61  1  0
 25 62  1  0
 26 27  1  6
 26 28  1  0
 27 63  1  0
 27 64  1  0
 27 65  1  0
 28 29  1  0
 28 66  1  0
 28 67  1  0
 29 30  1  0
 29 68  1  0
 29 69  1  0
 30 70  1  1
M  END
>  <i_m_ct_stereo_status>  (231) 
1

>  <s_m_source_file>  (231) 
/var/tmp/pbs.5076255.sched01/tmpz7m1v8ep/860kfiy9lw.sdf

>  <i_m_source_file_index>  (231) 
19

>  <i_lp_mmshare_version>  (231) 
48012

>  <i_f3d_flags>  (231) 
0

>  <s_epik_input>  (231) 
W0NIXTEyW0NAQEhdKFtPSF0pW0NIMl1bQ0BASF0oW0NAXTMoW0NIM10pW0NIMl1bQ0gyXTQpW0NIMl1bQ0BdKFtDSDNdKShbQ0gyXVtDSDJdW0NIMl01KVtDQEBIXTRbQ0BAXTUoW0NIM10pW0NASF0xW0NAQEhdKFtPSF0pW0NIMl1DKEMyMzYpPVtDSF1bQ0BASF0oW09IXSlbQ0gyXVtDQEhdNltPSF0=

>  <s_epik_cmdline>  (231) 
J2VwaWtfcHl0aG9uJywgJy1waHQnLCAnMi4wJywgJy1waCcsICc3LjAnLCAnLXRuJywgJzgnLCAnLW1hJywgJzIwMCcsICctaW1hZScsICc8aW5maWxlLm1hZT4nLCAnLW9tYWUnLCAnPG91dGZpbGUubWFlPic=

>  <r_lp_tautomer_probability>  (231) 
1

>  <r_epik_Ionization_Penalty>  (231) 
2.28399e-06

>  <r_epik_Ionization_Penalty_Charging>  (231) 
0

>  <r_epik_Ionization_Penalty_Neutral>  (231) 
2.28399e-06

>  <r_epik_State_Penalty>  (231) 
-0

>  <r_epik_Charging_Adjusted_Penalty>  (231) 
0

>  <i_epik_Tot_Q>  (231) 
0

>  <i_epik_Tot_abs_Q>  (231) 
0

>  <s_lp_Force_Field>  (231) 
OPLS3e

>  <r_lp_Energy>  (231) 
160.323

>  <b_lp_Chiralities_Consistent>  (231) 
1

>  <s_lp_Variant>  (231) 
68:0-3

>  <s_i_glide_gridfile>  (231) 
pfpi4k_grid

>  <i_i_glide_lignum>  (231) 
19

>  <i_i_glide_rotatable_bonds>  (231) 
4

>  <r_i_docking_score>  (231) 
-2.79674

>  <r_i_glide_ligand_efficiency>  (231) 
-0.0932246

>  <r_i_glide_ligand_efficiency_sa>  (231) 
-0.28967

>  <r_i_glide_ligand_efficiency_ln>  (231) 
-0.635449

>  <r_i_glide_gscore>  (231) 
-2.79674

>  <r_i_glide_lipo>  (231) 
-0.26314

>  <r_i_glide_hbond>  (231) 
0

>  <r_i_glide_metal>  (231) 
-0

>  <r_i_glide_rewards>  (231) 
-0.568681

>  <r_i_glide_evdw>  (231) 
-22.0438

>  <r_i_glide_ecoul>  (231) 
-5.75149

>  <r_i_glide_erotb>  (231) 
0

>  <r_i_glide_esite>  (231) 
0

>  <r_i_glide_emodel>  (231) 
-33.1925

>  <r_i_glide_energy>  (231) 
-27.7953

>  <r_i_glide_einternal>  (231) 
1.38135

>  <r_i_glide_intrahb_reward>  (231) 
-0

>  <i_i_glide_confnum>  (231) 
1

>  <i_i_glide_posenum>  (231) 
1

>  <r_i_glide_eff_state_penalty>  (231) 
0

>  <ligand_id>  (231) 
68

>  <original_smiles>  (231) 
CC12CCCC3(C)C4C(O)CC5=CC(O)CC(O)C56C4C(O)CC(C1)C6(C)CCC23

>  <smiles>  (231) 
[H]OC1([H])C([H])=C2C([H])([H])C([H])(O[H])C3([H])C4([H])C([H])(O[H])C([H])([H])C5([H])C([H])([H])C6(C([H])([H])[H])C([H])([H])C([H])([H])C([H])([H])C3(C([H])([H])[H])C6([H])C([H])([H])C([H])([H])C5(C([H])([H])[H])C24C([H])(O[H])C1([H])[H]

$$$$
68:3:0
     RDKit          3D

 70 75  0  0  1  0  0  0  0  0999 V2000
    7.9460   -7.3211    1.0547 C   0  0  0  0  0  0  0  0  0  0  0  0
    7.0257   -6.2745    1.7358 C   0  0  2  0  0  0  0  0  0  0  0  0
    7.9732   -5.0213    1.6208 C   0  0  0  0  0  0  0  0  0  0  0  0
    7.3718   -3.6750    1.1875 C   0  0  0  0  0  0  0  0  0  0  0  0
    6.2795   -3.7756    0.1569 C   0  0  0  0  0  0  0  0  0  0  0  0
    5.0830   -4.6499    0.6126 C   0  0  2  0  0  0  0  0  0  0  0  0
    4.2697   -4.7165   -0.6844 C   0  0  0  0  0  0  0  0  0  0  0  0
    4.3036   -3.8525    1.7807 C   0  0  1  0  0  0  0  0  0  0  0  0
    2.8847   -3.1190    1.7976 C   0  0  1  0  0  0  0  0  0  0  0  0
    2.3238   -2.9312    0.5184 O   0  0  0  0  0  0  0  0  0  0  0  0
    1.8250   -3.5331    2.9566 C   0  0  0  0  0  0  0  0  0  0  0  0
    1.9336   -5.0020    3.5236 C   0  0  0  0  0  0  0  0  0  0  0  0
    0.7880   -5.5385    3.9803 C   0  0  0  0  0  0  0  0  0  0  0  0
    0.3841   -6.9401    3.6174 C   0  0  1  0  0  0  0  0  0  0  0  0
   -1.0181   -7.0338    3.4951 O   0  0  0  0  0  0  0  0  0  0  0  0
    1.0264   -7.3485    2.2597 C   0  0  0  0  0  0  0  0  0  0  0  0
    2.1635   -6.3968    1.7350 C   0  0  1  0  0  0  0  0  0  0  0  0
    1.4561   -5.5201    0.8898 O   0  0  0  0  0  0  0  0  0  0  0  0
    3.1261   -5.8171    2.9125 C   0  0  1  0  0  0  0  0  0  0  0  0
    4.2272   -4.6555    3.0080 C   0  0  1  0  0  0  0  0  0  0  0  0
    5.4058   -4.5454    4.0340 C   0  0  1  0  0  0  0  0  0  0  0  0
    5.4701   -3.3719    4.8527 O   0  0  0  0  0  0  0  0  0  0  0  0
    5.4532   -5.7017    4.9719 C   0  0  0  0  0  0  0  0  0  0  0  0
    5.4600   -6.8678    4.0325 C   0  0  2  0  0  0  0  0  0  0  0  0
    6.7956   -6.9275    3.1713 C   0  0  0  0  0  0  0  0  0  0  0  0
    3.9979   -7.1088    3.4250 C   0  0  1  0  0  0  0  0  0  0  0  0
    3.2501   -7.9135    4.5228 C   0  0  0  0  0  0  0  0  0  0  0  0
    4.3379   -8.0659    2.2285 C   0  0  0  0  0  0  0  0  0  0  0  0
    4.9184   -7.4535    0.9006 C   0  0  0  0  0  0  0  0  0  0  0  0
    5.7307   -6.1180    0.8935 C   0  0  2  0  0  0  0  0  0  0  0  0
    8.2145   -7.0560    0.0279 H   0  0  0  0  0  0  0  0  0  0  0  0
    7.5747   -8.3467    1.0236 H   0  0  0  0  0  0  0  0  0  0  0  0
    8.8739   -7.3568    1.6227 H   0  0  0  0  0  0  0  0  0  0  0  0
    8.5251   -4.9164    2.5484 H   0  0  0  0  0  0  0  0  0  0  0  0
    8.7809   -5.1875    0.9024 H   0  0  0  0  0  0  0  0  0  0  0  0
    6.9889   -3.1226    2.0333 H   0  0  0  0  0  0  0  0  0  0  0  0
    8.1714   -3.0434    0.8192 H   0  0  0  0  0  0  0  0  0  0  0  0
    5.9351   -2.7756   -0.1106 H   0  0  0  0  0  0  0  0  0  0  0  0
    6.7347   -4.1801   -0.7392 H   0  0  0  0  0  0  0  0  0  0  0  0
    3.3768   -5.3135   -0.5704 H   0  0  0  0  0  0  0  0  0  0  0  0
    4.8369   -5.1924   -1.4793 H   0  0  0  0  0  0  0  0  0  0  0  0
    3.9885   -3.7397   -1.0777 H   0  0  0  0  0  0  0  0  0  0  0  0
    4.9302   -3.0021    2.0305 H   0  0  0  0  0  0  0  0  0  0  0  0
    3.1243   -2.0886    2.0636 H   0  0  0  0  0  0  0  0  0  0  0  0
    1.9417   -2.0619    0.4244 H   0  0  0  0  0  0  0  0  0  0  0  0
    1.9693   -2.8623    3.8034 H   0  0  0  0  0  0  0  0  0  0  0  0
    0.8148   -3.3218    2.6390 H   0  0  0  0  0  0  0  0  0  0  0  0
   -0.0320   -4.8833    4.2379 H   0  0  0  0  0  0  0  0  0  0  0  0
    0.6583   -7.6019    4.4355 H   0  0  0  0  0  0  0  0  0  0  0  0
   -1.2592   -7.9441    3.6246 H   0  0  0  0  0  0  0  0  0  0  0  0
    1.3853   -8.3709    2.3390 H   0  0  0  0  0  0  0  0  0  0  0  0
    0.2514   -7.4330    1.4924 H   0  0  0  0  0  0  0  0  0  0  0  0
    2.6098   -6.9399    0.9462 H   0  0  0  0  0  0  0  0  0  0  0  0
    2.0828   -4.9573    0.4315 H   0  0  0  0  0  0  0  0  0  0  0  0
    3.8286   -3.9816    3.7403 H   0  0  0  0  0  0  0  0  0  0  0  0
    6.3140   -4.5515    3.4731 H   0  0  0  0  0  0  0  0  0  0  0  0
    5.6202   -2.6185    4.2962 H   0  0  0  0  0  0  0  0  0  0  0  0
    6.3516   -5.6772    5.5939 H   0  0  0  0  0  0  0  0  0  0  0  0
    4.5917   -5.7078    5.6441 H   0  0  0  0  0  0  0  0  0  0  0  0
    5.6622   -7.6966    4.7059 H   0  0  0  0  0  0  0  0  0  0  0  0
    7.0067   -7.9980    3.0950 H   0  0  0  0  0  0  0  0  0  0  0  0
    7.6190   -6.6045    3.8085 H   0  0  0  0  0  0  0  0  0  0  0  0
    3.8834   -8.5824    5.1074 H   0  0  0  0  0  0  0  0  0  0  0  0
    2.5071   -8.5939    4.1173 H   0  0  0  0  0  0  0  0  0  0  0  0
    2.7761   -7.2456    5.2413 H   0  0  0  0  0  0  0  0  0  0  0  0
    5.0249   -8.8404    2.5764 H   0  0  0  0  0  0  0  0  0  0  0  0
    3.4805   -8.6769    1.9496 H   0  0  0  0  0  0  0  0  0  0  0  0
    5.5546   -8.2475    0.5242 H   0  0  0  0  0  0  0  0  0  0  0  0
    4.2431   -7.4405    0.0518 H   0  0  0  0  0  0  0  0  0  0  0  0
    6.1564   -6.2351   -0.0947 H   0  0  0  0  0  0  0  0  0  0  0  0
  2  1  1  6
  1 31  1  0
  1 32  1  0
  1 33  1  0
  2 25  1  0
  2 30  1  0
  2  3  1  0
  3  4  1  0
  3 34  1  0
  3 35  1  0
  4  5  1  0
  4 36  1  0
  4 37  1  0
  5  6  1  0
  5 38  1  0
  5 39  1  0
  6 30  1  0
  6  7  1  6
  6  8  1  0
  7 40  1  0
  7 41  1  0
  7 42  1  0
  8 20  1  0
  8  9  1  0
  8 43  1  1
  9 10  1  0
  9 11  1  0
  9 44  1  1
 10 45  1  0
 11 12  1  0
 11 46  1  0
 11 47  1  0
 19 12  1  1
 12 13  2  0
 13 14  1  0
 13 48  1  0
 14 15  1  0
 14 16  1  0
 14 49  1  1
 15 50  1  0
 16 17  1  0
 16 51  1  0
 16 52  1  0
 17 18  1  0
 17 19  1  0
 17 53  1  6
 18 54  1  0
 19 26  1  0
 19 20  1  0
 20 21  1  0
 20 55  1  1
 21 22  1  0
 21 23  1  0
 21 56  1  6
 22 57  1  0
 23 24  1  0
 23 58  1  0
 23 59  1  0
 24 25  1  0
 24 26  1  0
 24 60  1  1
 25 61  1  0
 25 62  1  0
 26 27  1  1
 26 28  1  0
 27 63  1  0
 27 64  1  0
 27 65  1  0
 28 29  1  0
 28 66  1  0
 28 67  1  0
 29 30  1  0
 29 68  1  0
 29 69  1  0
 30 70  1  6
M  END
>  <i_m_ct_stereo_status>  (232) 
1

>  <s_m_source_file>  (232) 
/var/tmp/pbs.5076255.sched01/tmpz7m1v8ep/860kfiy9lw.sdf

>  <i_m_source_file_index>  (232) 
20

>  <i_lp_mmshare_version>  (232) 
48012

>  <i_f3d_flags>  (232) 
0

>  <s_epik_input>  (232) 
W0NIXTEyW0NAQEhdKFtPSF0pW0NIMl1bQ0BASF0oW0NAXTMoW0NIM10pW0NIMl1bQ0gyXTQpW0NIMl1bQ0BdKFtDSDNdKShbQ0gyXVtDSDJdW0NIMl01KVtDQEBIXTRbQ0BAXTUoW0NIM10pW0NASF0xW0NAQEhdKFtPSF0pW0NIMl1DKEMyMzYpPVtDSF1bQ0BASF0oW09IXSlbQ0gyXVtDQEhdNltPSF0=

>  <s_epik_cmdline>  (232) 
J2VwaWtfcHl0aG9uJywgJy1waHQnLCAnMi4wJywgJy1waCcsICc3LjAnLCAnLXRuJywgJzgnLCAnLW1hJywgJzIwMCcsICctaW1hZScsICc8aW5maWxlLm1hZT4nLCAnLW9tYWUnLCAnPG91dGZpbGUubWFlPic=

>  <r_lp_tautomer_probability>  (232) 
1

>  <r_epik_Ionization_Penalty>  (232) 
2.28399e-06

>  <r_epik_Ionization_Penalty_Charging>  (232) 
0

>  <r_epik_Ionization_Penalty_Neutral>  (232) 
2.28399e-06

>  <r_epik_State_Penalty>  (232) 
-0

>  <r_epik_Charging_Adjusted_Penalty>  (232) 
0

>  <i_epik_Tot_Q>  (232) 
0

>  <i_epik_Tot_abs_Q>  (232) 
0

>  <s_lp_Force_Field>  (232) 
OPLS3e

>  <r_lp_Energy>  (232) 
277.197

>  <b_lp_Chiralities_Consistent>  (232) 
1

>  <s_lp_Variant>  (232) 
68:0-4

>  <s_i_glide_gridfile>  (232) 
pfpi4k_grid

>  <i_i_glide_lignum>  (232) 
20

>  <i_i_glide_rotatable_bonds>  (232) 
4

>  <r_i_docking_score>  (232) 
-3.16301

>  <r_i_glide_ligand_efficiency>  (232) 
-0.105434

>  <r_i_glide_ligand_efficiency_sa>  (232) 
-0.327607

>  <r_i_glide_ligand_efficiency_ln>  (232) 
-0.71867

>  <r_i_glide_gscore>  (232) 
-3.16301

>  <r_i_glide_lipo>  (232) 
-0.547172

>  <r_i_glide_hbond>  (232) 
-0.0897047

>  <r_i_glide_metal>  (232) 
-0

>  <r_i_glide_rewards>  (232) 
-0.568681

>  <r_i_glide_evdw>  (232) 
-12.7768

>  <r_i_glide_ecoul>  (232) 
-8.79074

>  <r_i_glide_erotb>  (232) 
0

>  <r_i_glide_esite>  (232) 
0

>  <r_i_glide_emodel>  (232) 
-26.312

>  <r_i_glide_energy>  (232) 
-21.5675

>  <r_i_glide_einternal>  (232) 
2.14312

>  <r_i_glide_intrahb_reward>  (232) 
-0

>  <i_i_glide_confnum>  (232) 
1

>  <i_i_glide_posenum>  (232) 
8

>  <r_i_glide_eff_state_penalty>  (232) 
0

>  <ligand_id>  (232) 
68

>  <original_smiles>  (232) 
CC12CCCC3(C)C4C(O)CC5=CC(O)CC(O)C56C4C(O)CC(C1)C6(C)CCC23

>  <smiles>  (232) 
[H]OC1([H])C([H])=C2C([H])([H])C([H])(O[H])C3([H])C4([H])C([H])(O[H])C([H])([H])C5([H])C([H])([H])C6(C([H])([H])[H])C([H])([H])C([H])([H])C([H])([H])C3(C([H])([H])[H])C6([H])C([H])([H])C([H])([H])C5(C([H])([H])[H])C24C([H])(O[H])C1([H])[H]

$$$$
68:3:1
     RDKit          3D

 70 75  0  0  1  0  0  0  0  0999 V2000
    4.9945   -8.2484    5.3278 C   0  0  0  0  0  0  0  0  0  0  0  0
    3.9923   -7.2806    4.6087 C   0  0  2  0  0  0  0  0  0  0  0  0
    2.6626   -7.6159    5.3956 C   0  0  0  0  0  0  0  0  0  0  0  0
    1.7459   -6.4670    5.8487 C   0  0  0  0  0  0  0  0  0  0  0  0
    2.5129   -5.2120    6.2767 C   0  0  0  0  0  0  0  0  0  0  0  0
    3.4179   -4.6027    5.1649 C   0  0  2  0  0  0  0  0  0  0  0  0
    4.1964   -3.4882    5.9111 C   0  0  0  0  0  0  0  0  0  0  0  0
    2.4051   -4.0213    4.0389 C   0  0  1  0  0  0  0  0  0  0  0  0
    2.0717   -2.5130    3.6183 C   0  0  1  0  0  0  0  0  0  0  0  0
    2.4717   -1.5002    4.5171 O   0  0  0  0  0  0  0  0  0  0  0  0
    2.2259   -2.1016    2.0612 C   0  0  0  0  0  0  0  0  0  0  0  0
    3.2678   -2.9227    1.2052 C   0  0  0  0  0  0  0  0  0  0  0  0
    3.8217   -2.2545    0.1746 C   0  0  0  0  0  0  0  0  0  0  0  0
    5.3100   -2.2846   -0.0694 C   0  0  1  0  0  0  0  0  0  0  0  0
    5.7569   -1.0606   -0.6241 O   0  0  0  0  0  0  0  0  0  0  0  0
    6.0528   -2.5519    1.2736 C   0  0  0  0  0  0  0  0  0  0  0  0
    5.1429   -3.0135    2.4772 C   0  0  1  0  0  0  0  0  0  0  0  0
    4.8502   -1.7805    3.1034 O   0  0  0  0  0  0  0  0  0  0  0  0
    3.9649   -4.0623    2.0303 C   0  0  1  0  0  0  0  0  0  0  0  0
    2.6312   -4.6507    2.7287 C   0  0  1  0  0  0  0  0  0  0  0  0
    1.8948   -6.0103    2.4155 C   0  0  1  0  0  0  0  0  0  0  0  0
    0.5062   -5.9835    2.0934 O   0  0  0  0  0  0  0  0  0  0  0  0
    2.5604   -6.7354    1.2979 C   0  0  0  0  0  0  0  0  0  0  0  0
    3.9714   -6.8430    1.7904 C   0  0  2  0  0  0  0  0  0  0  0  0
    4.0694   -7.7579    3.0894 C   0  0  0  0  0  0  0  0  0  0  0  0
    4.7422   -5.4498    1.6200 C   0  0  1  0  0  0  0  0  0  0  0  0
    5.1914   -5.4288    0.1329 C   0  0  0  0  0  0  0  0  0  0  0  0
    5.9873   -5.6926    2.5487 C   0  0  0  0  0  0  0  0  0  0  0  0
    5.8334   -5.5631    4.1099 C   0  0  0  0  0  0  0  0  0  0  0  0
    4.4694   -5.8045    4.8296 C   0  0  2  0  0  0  0  0  0  0  0  0
    5.1052   -8.0119    6.3894 H   0  0  0  0  0  0  0  0  0  0  0  0
    5.9985   -8.2551    4.9023 H   0  0  0  0  0  0  0  0  0  0  0  0
    4.6386   -9.2808    5.2706 H   0  0  0  0  0  0  0  0  0  0  0  0
    2.0760   -8.3562    4.8552 H   0  0  0  0  0  0  0  0  0  0  0  0
    2.9018   -8.1232    6.3311 H   0  0  0  0  0  0  0  0  0  0  0  0
    0.9829   -6.2499    5.1096 H   0  0  0  0  0  0  0  0  0  0  0  0
    1.1646   -6.8194    6.6994 H   0  0  0  0  0  0  0  0  0  0  0  0
    1.8105   -4.4619    6.6470 H   0  0  0  0  0  0  0  0  0  0  0  0
    3.1152   -5.4874    7.1439 H   0  0  0  0  0  0  0  0  0  0  0  0
    4.8742   -2.9367    5.2706 H   0  0  0  0  0  0  0  0  0  0  0  0
    4.8072   -3.8906    6.7191 H   0  0  0  0  0  0  0  0  0  0  0  0
    3.5276   -2.7713    6.3852 H   0  0  0  0  0  0  0  0  0  0  0  0
    1.4126   -4.3480    4.3394 H   0  0  0  0  0  0  0  0  0  0  0  0
    0.9916   -2.4448    3.7585 H   0  0  0  0  0  0  0  0  0  0  0  0
    2.1369   -0.6680    4.2186 H   0  0  0  0  0  0  0  0  0  0  0  0
    1.2601   -2.2378    1.5813 H   0  0  0  0  0  0  0  0  0  0  0  0
    2.4160   -1.0316    1.9718 H   0  0  0  0  0  0  0  0  0  0  0  0
    3.3001   -1.3902   -0.2180 H   0  0  0  0  0  0  0  0  0  0  0  0
    5.5273   -3.0342   -0.8266 H   0  0  0  0  0  0  0  0  0  0  0  0
    5.3756   -0.3448   -0.1358 H   0  0  0  0  0  0  0  0  0  0  0  0
    6.8579   -3.2575    1.0921 H   0  0  0  0  0  0  0  0  0  0  0  0
    6.6046   -1.6572    1.5678 H   0  0  0  0  0  0  0  0  0  0  0  0
    5.8169   -3.3532    3.2176 H   0  0  0  0  0  0  0  0  0  0  0  0
    4.2408   -1.3049    2.5613 H   0  0  0  0  0  0  0  0  0  0  0  0
    1.8153   -4.2908    2.1241 H   0  0  0  0  0  0  0  0  0  0  0  0
    1.8846   -6.6497    3.2722 H   0  0  0  0  0  0  0  0  0  0  0  0
    0.2176   -6.8849    2.0312 H   0  0  0  0  0  0  0  0  0  0  0  0
    2.1178   -7.7208    1.1392 H   0  0  0  0  0  0  0  0  0  0  0  0
    2.4894   -6.1885    0.3567 H   0  0  0  0  0  0  0  0  0  0  0  0
    4.4064   -7.5326    1.0707 H   0  0  0  0  0  0  0  0  0  0  0  0
    5.0084   -8.2941    2.9563 H   0  0  0  0  0  0  0  0  0  0  0  0
    3.3502   -8.5694    2.9727 H   0  0  0  0  0  0  0  0  0  0  0  0
    5.4156   -6.4091   -0.2771 H   0  0  0  0  0  0  0  0  0  0  0  0
    6.1235   -4.8952   -0.0180 H   0  0  0  0  0  0  0  0  0  0  0  0
    4.4185   -5.0090   -0.5122 H   0  0  0  0  0  0  0  0  0  0  0  0
    6.3953   -6.6792    2.3285 H   0  0  0  0  0  0  0  0  0  0  0  0
    6.8252   -5.0657    2.2537 H   0  0  0  0  0  0  0  0  0  0  0  0
    6.5515   -6.2793    4.5005 H   0  0  0  0  0  0  0  0  0  0  0  0
    6.2906   -4.6771    4.5403 H   0  0  0  0  0  0  0  0  0  0  0  0
    4.8734   -5.8991    5.8362 H   0  0  0  0  0  0  0  0  0  0  0  0
  2  1  1  1
  1 31  1  0
  1 32  1  0
  1 33  1  0
  2 25  1  0
  2 30  1  0
  2  3  1  0
  3  4  1  0
  3 34  1  0
  3 35  1  0
  4  5  1  0
  4 36  1  0
  4 37  1  0
  5  6  1  0
  5 38  1  0
  5 39  1  0
  6 30  1  0
  6  7  1  1
  6  8  1  0
  7 40  1  0
  7 41  1  0
  7 42  1  0
  8 20  1  0
  8  9  1  0
  8 43  1  1
  9 10  1  0
  9 11  1  0
  9 44  1  1
 10 45  1  0
 11 12  1  0
 11 46  1  0
 11 47  1  0
 19 12  1  6
 12 13  2  0
 13 14  1  0
 13 48  1  0
 14 15  1  0
 14 16  1  0
 14 49  1  6
 15 50  1  0
 16 17  1  0
 16 51  1  0
 16 52  1  0
 17 18  1  0
 17 19  1  0
 17 53  1  1
 18 54  1  0
 19 26  1  0
 19 20  1  0
 20 21  1  0
 20 55  1  6
 21 22  1  0
 21 23  1  0
 21 56  1  1
 22 57  1  0
 23 24  1  0
 23 58  1  0
 23 59  1  0
 24 25  1  0
 24 26  1  0
 24 60  1  6
 25 61  1  0
 25 62  1  0
 26 27  1  6
 26 28  1  0
 27 63  1  0
 27 64  1  0
 27 65  1  0
 28 29  1  0
 28 66  1  0
 28 67  1  0
 29 30  1  0
 29 68  1  0
 29 69  1  0
 30 70  1  1
M  END
>  <i_m_ct_stereo_status>  (233) 
1

>  <s_m_source_file>  (233) 
/var/tmp/pbs.5076255.sched01/tmpz7m1v8ep/860kfiy9lw.sdf

>  <i_m_source_file_index>  (233) 
20

>  <i_lp_mmshare_version>  (233) 
48012

>  <i_f3d_flags>  (233) 
0

>  <s_epik_input>  (233) 
W0NIXTEyW0NAQEhdKFtPSF0pW0NIMl1bQ0BASF0oW0NAXTMoW0NIM10pW0NIMl1bQ0gyXTQpW0NIMl1bQ0BdKFtDSDNdKShbQ0gyXVtDSDJdW0NIMl01KVtDQEBIXTRbQ0BAXTUoW0NIM10pW0NASF0xW0NAQEhdKFtPSF0pW0NIMl1DKEMyMzYpPVtDSF1bQ0BASF0oW09IXSlbQ0gyXVtDQEhdNltPSF0=

>  <s_epik_cmdline>  (233) 
J2VwaWtfcHl0aG9uJywgJy1waHQnLCAnMi4wJywgJy1waCcsICc3LjAnLCAnLXRuJywgJzgnLCAnLW1hJywgJzIwMCcsICctaW1hZScsICc8aW5maWxlLm1hZT4nLCAnLW9tYWUnLCAnPG91dGZpbGUubWFlPic=

>  <r_lp_tautomer_probability>  (233) 
1

>  <r_epik_Ionization_Penalty>  (233) 
2.28399e-06

>  <r_epik_Ionization_Penalty_Charging>  (233) 
0

>  <r_epik_Ionization_Penalty_Neutral>  (233) 
2.28399e-06

>  <r_epik_State_Penalty>  (233) 
-0

>  <r_epik_Charging_Adjusted_Penalty>  (233) 
0

>  <i_epik_Tot_Q>  (233) 
0

>  <i_epik_Tot_abs_Q>  (233) 
0

>  <s_lp_Force_Field>  (233) 
OPLS3e

>  <r_lp_Energy>  (233) 
277.197

>  <b_lp_Chiralities_Consistent>  (233) 
1

>  <s_lp_Variant>  (233) 
68:0-4

>  <s_i_glide_gridfile>  (233) 
pfpi4k_grid

>  <i_i_glide_lignum>  (233) 
20

>  <i_i_glide_rotatable_bonds>  (233) 
4

>  <r_i_docking_score>  (233) 
-3.09402

>  <r_i_glide_ligand_efficiency>  (233) 
-0.103134

>  <r_i_glide_ligand_efficiency_sa>  (233) 
-0.320461

>  <r_i_glide_ligand_efficiency_ln>  (233) 
-0.702994

>  <r_i_glide_gscore>  (233) 
-3.09402

>  <r_i_glide_lipo>  (233) 
-0.325764

>  <r_i_glide_hbond>  (233) 
-0.220469

>  <r_i_glide_metal>  (233) 
-0

>  <r_i_glide_rewards>  (233) 
-0.568681

>  <r_i_glide_evdw>  (233) 
-19.8639

>  <r_i_glide_ecoul>  (233) 
-6.57272

>  <r_i_glide_erotb>  (233) 
0

>  <r_i_glide_esite>  (233) 
0

>  <r_i_glide_emodel>  (233) 
-32.0866

>  <r_i_glide_energy>  (233) 
-26.4366

>  <r_i_glide_einternal>  (233) 
0.909596

>  <r_i_glide_intrahb_reward>  (233) 
-0

>  <i_i_glide_confnum>  (233) 
1

>  <i_i_glide_posenum>  (233) 
24

>  <r_i_glide_eff_state_penalty>  (233) 
0

>  <ligand_id>  (233) 
68

>  <original_smiles>  (233) 
CC12CCCC3(C)C4C(O)CC5=CC(O)CC(O)C56C4C(O)CC(C1)C6(C)CCC23

>  <smiles>  (233) 
[H]OC1([H])C([H])=C2C([H])([H])C([H])(O[H])C3([H])C4([H])C([H])(O[H])C([H])([H])C5([H])C([H])([H])C6(C([H])([H])[H])C([H])([H])C([H])([H])C([H])([H])C3(C([H])([H])[H])C6([H])C([H])([H])C([H])([H])C5(C([H])([H])[H])C24C([H])(O[H])C1([H])[H]

$$$$
68:3:2
     RDKit          3D

 70 75  0  0  1  0  0  0  0  0999 V2000
    3.0053  -10.8444    3.8561 C   0  0  0  0  0  0  0  0  0  0  0  0
    2.0578   -9.6061    4.0266 C   0  0  2  0  0  0  0  0  0  0  0  0
    0.8785  -10.2695    4.8407 C   0  0  0  0  0  0  0  0  0  0  0  0
    0.2709   -9.5163    6.0365 C   0  0  0  0  0  0  0  0  0  0  0  0
    1.3007   -8.7209    6.8396 C   0  0  0  0  0  0  0  0  0  0  0  0
    2.0552   -7.6383    6.0123 C   0  0  2  0  0  0  0  0  0  0  0  0
    3.1400   -7.1335    6.9992 C   0  0  0  0  0  0  0  0  0  0  0  0
    0.9475   -6.5086    5.6505 C   0  0  1  0  0  0  0  0  0  0  0  0
    0.7788   -5.0031    6.1694 C   0  0  1  0  0  0  0  0  0  0  0  0
    1.5503   -4.6480    7.2962 O   0  0  0  0  0  0  0  0  0  0  0  0
    0.6810   -3.8231    5.0651 C   0  0  0  0  0  0  0  0  0  0  0  0
    1.3981   -4.0875    3.6810 C   0  0  0  0  0  0  0  0  0  0  0  0
    1.8399   -2.9841    3.0479 C   0  0  0  0  0  0  0  0  0  0  0  0
    3.2184   -2.9286    2.4480 C   0  0  1  0  0  0  0  0  0  0  0  0
    3.7278   -1.6160    2.5358 O   0  0  0  0  0  0  0  0  0  0  0  0
    4.1605   -3.8967    3.2244 C   0  0  0  0  0  0  0  0  0  0  0  0
    3.4488   -4.9128    4.2011 C   0  0  1  0  0  0  0  0  0  0  0  0
    3.4670   -4.2146    5.4338 O   0  0  0  0  0  0  0  0  0  0  0  0
    2.0486   -5.5127    3.5894 C   0  0  1  0  0  0  0  0  0  0  0  0
    0.8030   -6.3423    4.1962 C   0  0  1  0  0  0  0  0  0  0  0  0
   -0.1934   -7.2977    3.4350 C   0  0  1  0  0  0  0  0  0  0  0  0
   -1.5953   -7.0585    3.5821 O   0  0  0  0  0  0  0  0  0  0  0  0
    0.1018   -7.3185    1.9729 C   0  0  0  0  0  0  0  0  0  0  0  0
    1.5467   -7.7166    1.9535 C   0  0  2  0  0  0  0  0  0  0  0  0
    1.7513   -9.1913    2.5174 C   0  0  0  0  0  0  0  0  0  0  0  0
    2.4893   -6.4787    2.3343 C   0  0  1  0  0  0  0  0  0  0  0  0
    2.6368   -5.6699    1.0142 C   0  0  0  0  0  0  0  0  0  0  0  0
    3.8365   -7.2247    2.6503 C   0  0  0  0  0  0  0  0  0  0  0  0
    4.0223   -7.9536    4.0329 C   0  0  0  0  0  0  0  0  0  0  0  0
    2.8071   -8.5016    4.8477 C   0  0  2  0  0  0  0  0  0  0  0  0
    3.3607  -11.2254    4.8186 H   0  0  0  0  0  0  0  0  0  0  0  0
    3.8905  -10.6558    3.2451 H   0  0  0  0  0  0  0  0  0  0  0  0
    2.4775  -11.6704    3.3683 H   0  0  0  0  0  0  0  0  0  0  0  0
    0.0805  -10.5774    4.1683 H   0  0  0  0  0  0  0  0  0  0  0  0
    1.2075  -11.2124    5.2809 H   0  0  0  0  0  0  0  0  0  0  0  0
   -0.5813   -8.9160    5.7402 H   0  0  0  0  0  0  0  0  0  0  0  0
   -0.1778  -10.2576    6.6964 H   0  0  0  0  0  0  0  0  0  0  0  0
    0.8193   -8.2707    7.7102 H   0  0  0  0  0  0  0  0  0  0  0  0
    2.0053   -9.4458    7.2493 H   0  0  0  0  0  0  0  0  0  0  0  0
    3.7681   -6.3534    6.5862 H   0  0  0  0  0  0  0  0  0  0  0  0
    3.8199   -7.9328    7.2935 H   0  0  0  0  0  0  0  0  0  0  0  0
    2.7065   -6.7674    7.9297 H   0  0  0  0  0  0  0  0  0  0  0  0
   -0.0045   -6.9140    5.9823 H   0  0  0  0  0  0  0  0  0  0  0  0
   -0.2170   -4.9876    6.6165 H   0  0  0  0  0  0  0  0  0  0  0  0
    2.4646   -4.6791    7.0335 H   0  0  0  0  0  0  0  0  0  0  0  0
   -0.3713   -3.6477    4.8436 H   0  0  0  0  0  0  0  0  0  0  0  0
    1.0309   -2.8860    5.5020 H   0  0  0  0  0  0  0  0  0  0  0  0
    1.4195   -2.0253    3.3129 H   0  0  0  0  0  0  0  0  0  0  0  0
    3.1600   -3.1479    1.3852 H   0  0  0  0  0  0  0  0  0  0  0  0
    3.2479   -1.0678    1.9309 H   0  0  0  0  0  0  0  0  0  0  0  0
    4.7868   -4.4147    2.5045 H   0  0  0  0  0  0  0  0  0  0  0  0
    4.8976   -3.3178    3.7848 H   0  0  0  0  0  0  0  0  0  0  0  0
    4.2067   -5.6111    4.4492 H   0  0  0  0  0  0  0  0  0  0  0  0
    2.9821   -3.4095    5.3190 H   0  0  0  0  0  0  0  0  0  0  0  0
   -0.0459   -5.6869    4.0925 H   0  0  0  0  0  0  0  0  0  0  0  0
   -0.1277   -8.2960    3.8071 H   0  0  0  0  0  0  0  0  0  0  0  0
   -2.0511   -7.8650    3.3720 H   0  0  0  0  0  0  0  0  0  0  0  0
   -0.5205   -8.0417    1.4425 H   0  0  0  0  0  0  0  0  0  0  0  0
   -0.0620   -6.3474    1.5056 H   0  0  0  0  0  0  0  0  0  0  0  0
    1.7097   -7.9178    0.8956 H   0  0  0  0  0  0  0  0  0  0  0  0
    2.5415   -9.6021    1.8899 H   0  0  0  0  0  0  0  0  0  0  0  0
    0.8983   -9.7868    2.1891 H   0  0  0  0  0  0  0  0  0  0  0  0
    2.6144   -6.2682    0.1053 H   0  0  0  0  0  0  0  0  0  0  0  0
    3.5967   -5.1708    0.9319 H   0  0  0  0  0  0  0  0  0  0  0  0
    1.8347   -4.9402    0.9083 H   0  0  0  0  0  0  0  0  0  0  0  0
    4.0227   -7.9502    1.8578 H   0  0  0  0  0  0  0  0  0  0  0  0
    4.6910   -6.5650    2.5171 H   0  0  0  0  0  0  0  0  0  0  0  0
    4.6711   -8.7937    3.7981 H   0  0  0  0  0  0  0  0  0  0  0  0
    4.7029   -7.4578    4.7196 H   0  0  0  0  0  0  0  0  0  0  0  0
    3.3794   -9.1409    5.5177 H   0  0  0  0  0  0  0  0  0  0  0  0
  2  1  1  6
  1 31  1  0
  1 32  1  0
  1 33  1  0
  2 25  1  0
  2 30  1  0
  2  3  1  0
  3  4  1  0
  3 34  1  0
  3 35  1  0
  4  5  1  0
  4 36  1  0
  4 37  1  0
  5  6  1  0
  5 38  1  0
  5 39  1  0
  6 30  1  0
  6  7  1  1
  6  8  1  0
  7 40  1  0
  7 41  1  0
  7 42  1  0
  8 20  1  0
  8  9  1  0
  8 43  1  1
  9 10  1  0
  9 11  1  0
  9 44  1  1
 10 45  1  0
 11 12  1  0
 11 46  1  0
 11 47  1  0
 19 12  1  6
 12 13  2  0
 13 14  1  0
 13 48  1  0
 14 15  1  0
 14 16  1  0
 14 49  1  6
 15 50  1  0
 16 17  1  0
 16 51  1  0
 16 52  1  0
 17 18  1  0
 17 19  1  0
 17 53  1  1
 18 54  1  0
 19 26  1  0
 19 20  1  0
 20 21  1  0
 20 55  1  1
 21 22  1  0
 21 23  1  0
 21 56  1  1
 22 57  1  0
 23 24  1  0
 23 58  1  0
 23 59  1  0
 24 25  1  0
 24 26  1  0
 24 60  1  6
 25 61  1  0
 25 62  1  0
 26 27  1  6
 26 28  1  0
 27 63  1  0
 27 64  1  0
 27 65  1  0
 28 29  1  0
 28 66  1  0
 28 67  1  0
 29 30  1  0
 29 68  1  0
 29 69  1  0
 30 70  1  1
M  END
>  <i_m_ct_stereo_status>  (234) 
1

>  <s_m_source_file>  (234) 
/var/tmp/pbs.5076255.sched01/tmpz7m1v8ep/860kfiy9lw.sdf

>  <i_m_source_file_index>  (234) 
20

>  <i_lp_mmshare_version>  (234) 
48012

>  <i_f3d_flags>  (234) 
0

>  <s_epik_input>  (234) 
W0NIXTEyW0NAQEhdKFtPSF0pW0NIMl1bQ0BASF0oW0NAXTMoW0NIM10pW0NIMl1bQ0gyXTQpW0NIMl1bQ0BdKFtDSDNdKShbQ0gyXVtDSDJdW0NIMl01KVtDQEBIXTRbQ0BAXTUoW0NIM10pW0NASF0xW0NAQEhdKFtPSF0pW0NIMl1DKEMyMzYpPVtDSF1bQ0BASF0oW09IXSlbQ0gyXVtDQEhdNltPSF0=

>  <s_epik_cmdline>  (234) 
J2VwaWtfcHl0aG9uJywgJy1waHQnLCAnMi4wJywgJy1waCcsICc3LjAnLCAnLXRuJywgJzgnLCAnLW1hJywgJzIwMCcsICctaW1hZScsICc8aW5maWxlLm1hZT4nLCAnLW9tYWUnLCAnPG91dGZpbGUubWFlPic=

>  <r_lp_tautomer_probability>  (234) 
1

>  <r_epik_Ionization_Penalty>  (234) 
2.28399e-06

>  <r_epik_Ionization_Penalty_Charging>  (234) 
0

>  <r_epik_Ionization_Penalty_Neutral>  (234) 
2.28399e-06

>  <r_epik_State_Penalty>  (234) 
-0

>  <r_epik_Charging_Adjusted_Penalty>  (234) 
0

>  <i_epik_Tot_Q>  (234) 
0

>  <i_epik_Tot_abs_Q>  (234) 
0

>  <s_lp_Force_Field>  (234) 
OPLS3e

>  <r_lp_Energy>  (234) 
277.197

>  <b_lp_Chiralities_Consistent>  (234) 
1

>  <s_lp_Variant>  (234) 
68:0-4

>  <s_i_glide_gridfile>  (234) 
pfpi4k_grid

>  <i_i_glide_lignum>  (234) 
20

>  <i_i_glide_rotatable_bonds>  (234) 
4

>  <r_i_docking_score>  (234) 
-3.01748

>  <r_i_glide_ligand_efficiency>  (234) 
-0.100583

>  <r_i_glide_ligand_efficiency_sa>  (234) 
-0.312534

>  <r_i_glide_ligand_efficiency_ln>  (234) 
-0.685605

>  <r_i_glide_gscore>  (234) 
-3.01748

>  <r_i_glide_lipo>  (234) 
-0.0494069

>  <r_i_glide_hbond>  (234) 
-0.0687136

>  <r_i_glide_metal>  (234) 
-0

>  <r_i_glide_rewards>  (234) 
-1.06868

>  <r_i_glide_evdw>  (234) 
-27.1895

>  <r_i_glide_ecoul>  (234) 
-3.14137

>  <r_i_glide_erotb>  (234) 
0

>  <r_i_glide_esite>  (234) 
0

>  <r_i_glide_emodel>  (234) 
-40.7415

>  <r_i_glide_energy>  (234) 
-30.3308

>  <r_i_glide_einternal>  (234) 
0.98875

>  <r_i_glide_intrahb_reward>  (234) 
-0.5

>  <i_i_glide_confnum>  (234) 
1

>  <i_i_glide_posenum>  (234) 
23

>  <r_i_glide_eff_state_penalty>  (234) 
0

>  <ligand_id>  (234) 
68

>  <original_smiles>  (234) 
CC12CCCC3(C)C4C(O)CC5=CC(O)CC(O)C56C4C(O)CC(C1)C6(C)CCC23

>  <smiles>  (234) 
[H]OC1([H])C([H])=C2C([H])([H])C([H])(O[H])C3([H])C4([H])C([H])(O[H])C([H])([H])C5([H])C([H])([H])C6(C([H])([H])[H])C([H])([H])C([H])([H])C([H])([H])C3(C([H])([H])[H])C6([H])C([H])([H])C([H])([H])C5(C([H])([H])[H])C24C([H])(O[H])C1([H])[H]

$$$$
69:0:0
     RDKit          3D

 76 82  0  0  1  0  0  0  0  0999 V2000
   -1.0194   -8.4158    3.1996 C   0  0  0  0  0  0  0  0  0  0  0  0
    0.4698   -8.0855    2.9748 C   0  0  2  0  0  0  0  0  0  0  0  0
    1.2570   -9.4025    2.7395 C   0  0  0  0  0  0  0  0  0  0  0  0
    2.7819   -9.2630    2.8933 C   0  0  0  0  0  0  0  0  0  0  0  0
    3.2127   -7.8104    2.6597 C   0  0  2  0  0  0  0  0  0  0  0  0
    4.7251   -7.5818    2.4918 C   0  0  1  0  0  0  0  0  0  0  0  0
    5.4461   -8.5375    1.5202 C   0  0  0  0  0  0  0  0  0  0  0  0
    4.9398   -6.1037    2.1156 C   0  0  1  0  0  0  0  0  0  0  0  0
    4.4890   -5.6854    0.6802 C   0  0  0  0  0  0  0  0  0  0  0  0
    4.9891   -4.3069    0.1604 C   0  0  1  0  0  0  0  0  0  0  0  0
    4.3335   -3.1233    0.9175 C   0  0  0  0  0  0  0  0  0  0  0  0
    4.8364   -1.7846    0.3438 C   0  0  2  0  0  0  0  0  0  0  0  0
    4.4485   -1.6682   -1.1403 C   0  0  0  0  0  0  0  0  0  0  0  0
    5.0825   -2.8316   -1.9379 C   0  0  1  0  0  0  0  0  0  0  0  0
    4.6842   -2.7401   -3.4219 C   0  0  0  0  0  0  0  0  0  0  0  0
    6.6202   -2.7687   -1.7904 C   0  0  0  0  0  0  0  0  0  0  0  0
    7.0395   -2.8519   -0.3045 C   0  0  1  0  0  0  0  0  0  0  0  0
    8.5720   -2.7820   -0.1726 C   0  0  0  0  0  0  0  0  0  0  0  0
    6.3685   -1.7069    0.4936 C   0  0  0  0  0  0  0  0  0  0  0  0
    6.5323   -4.1885    0.2703 C   0  0  0  0  0  0  0  0  0  0  0  0
    4.5982   -4.1719   -1.3372 C   0  0  0  0  0  0  0  0  0  0  0  0
    4.3473   -5.2929    3.1289 O   0  0  0  0  0  0  0  0  0  0  0  0
    2.9709   -5.4231    3.3591 C   0  0  2  0  0  0  0  0  0  0  0  0
    2.6074   -4.4860    4.3193 O   0  0  0  0  0  0  0  0  0  0  0  0
    2.3928   -4.9691    5.6281 C   0  0  1  0  0  0  0  0  0  0  0  0
    2.7823   -3.8237    6.5773 C   0  0  0  0  0  0  0  0  0  0  0  0
    0.8961   -5.2941    5.7631 C   0  0  0  0  0  0  0  0  0  0  0  0
    0.3084   -6.0077    4.5367 C   0  0  0  0  0  0  0  0  0  0  0  0
    1.1367   -7.2180    4.0853 C   0  0  2  0  0  0  0  0  0  0  0  0
    2.6499   -6.8911    3.7879 C   0  0  1  0  0  0  0  0  0  0  0  0
    3.3486   -7.1718    4.9963 O   0  0  0  0  0  0  0  0  0  0  0  0
    3.2494   -6.0439    6.0177 O   0  0  0  0  0  0  0  0  0  0  0  0
   -1.1671   -8.9309    4.1512 H   0  0  0  0  0  0  0  0  0  0  0  0
   -1.3817   -9.0771    2.4095 H   0  0  0  0  0  0  0  0  0  0  0  0
   -1.6485   -7.5244    3.1827 H   0  0  0  0  0  0  0  0  0  0  0  0
    0.5156   -7.5159    2.0482 H   0  0  0  0  0  0  0  0  0  0  0  0
    0.9000  -10.1879    3.4128 H   0  0  0  0  0  0  0  0  0  0  0  0
    1.0368   -9.7506    1.7276 H   0  0  0  0  0  0  0  0  0  0  0  0
    3.0944   -9.5803    3.8877 H   0  0  0  0  0  0  0  0  0  0  0  0
    3.2534   -9.9392    2.1800 H   0  0  0  0  0  0  0  0  0  0  0  0
    2.7581   -7.5163    1.7109 H   0  0  0  0  0  0  0  0  0  0  0  0
    5.2017   -7.7379    3.4606 H   0  0  0  0  0  0  0  0  0  0  0  0
    4.9527   -8.5883    0.5503 H   0  0  0  0  0  0  0  0  0  0  0  0
    5.4952   -9.5513    1.9201 H   0  0  0  0  0  0  0  0  0  0  0  0
    6.4742   -8.2121    1.3569 H   0  0  0  0  0  0  0  0  0  0  0  0
    6.0124   -5.9549    2.1978 H   0  0  0  0  0  0  0  0  0  0  0  0
    4.8272   -6.4401   -0.0279 H   0  0  0  0  0  0  0  0  0  0  0  0
    3.4078   -5.7300    0.5807 H   0  0  0  0  0  0  0  0  0  0  0  0
    3.2461   -3.1748    0.8412 H   0  0  0  0  0  0  0  0  0  0  0  0
    4.5705   -3.1523    1.9804 H   0  0  0  0  0  0  0  0  0  0  0  0
    4.3759   -0.9676    0.9004 H   0  0  0  0  0  0  0  0  0  0  0  0
    3.3612   -1.6840   -1.2372 H   0  0  0  0  0  0  0  0  0  0  0  0
    4.7764   -0.7030   -1.5315 H   0  0  0  0  0  0  0  0  0  0  0  0
    5.1281   -3.5515   -4.0003 H   0  0  0  0  0  0  0  0  0  0  0  0
    5.0088   -1.7993   -3.8685 H   0  0  0  0  0  0  0  0  0  0  0  0
    3.6025   -2.8043   -3.5480 H   0  0  0  0  0  0  0  0  0  0  0  0
    7.0868   -3.5737   -2.3582 H   0  0  0  0  0  0  0  0  0  0  0  0
    7.0001   -1.8562   -2.2393 H   0  0  0  0  0  0  0  0  0  0  0  0
    8.8845   -2.8520    0.8693 H   0  0  0  0  0  0  0  0  0  0  0  0
    8.9772   -1.8538   -0.5727 H   0  0  0  0  0  0  0  0  0  0  0  0
    9.0507   -3.5978   -0.7135 H   0  0  0  0  0  0  0  0  0  0  0  0
    6.7270   -0.7329    0.1630 H   0  0  0  0  0  0  0  0  0  0  0  0
    6.6279   -1.7858    1.5498 H   0  0  0  0  0  0  0  0  0  0  0  0
    6.8628   -4.2464    1.3063 H   0  0  0  0  0  0  0  0  0  0  0  0
    6.9965   -5.0228   -0.2504 H   0  0  0  0  0  0  0  0  0  0  0  0
    5.0105   -5.0019   -1.9100 H   0  0  0  0  0  0  0  0  0  0  0  0
    3.5167   -4.2485   -1.4458 H   0  0  0  0  0  0  0  0  0  0  0  0
    2.4214   -5.1485    2.4598 H   0  0  0  0  0  0  0  0  0  0  0  0
    3.8459   -3.5969    6.4776 H   0  0  0  0  0  0  0  0  0  0  0  0
    2.5970   -4.0902    7.6207 H   0  0  0  0  0  0  0  0  0  0  0  0
    2.2303   -2.9074    6.3619 H   0  0  0  0  0  0  0  0  0  0  0  0
    0.7225   -5.8686    6.6739 H   0  0  0  0  0  0  0  0  0  0  0  0
    0.3388   -4.3626    5.8848 H   0  0  0  0  0  0  0  0  0  0  0  0
   -0.6986   -6.3143    4.8074 H   0  0  0  0  0  0  0  0  0  0  0  0
    0.2055   -5.3065    3.7094 H   0  0  0  0  0  0  0  0  0  0  0  0
    1.1466   -7.8794    4.9519 H   0  0  0  0  0  0  0  0  0  0  0  0
  1  2  1  0
  1 33  1  0
  1 34  1  0
  1 35  1  0
  2 29  1  0
  2  3  1  0
  2 36  1  6
  3  4  1  0
  3 37  1  0
  3 38  1  0
  4  5  1  0
  4 39  1  0
  4 40  1  0
  5 30  1  0
  5  6  1  0
  5 41  1  6
  6  7  1  0
  6  8  1  0
  6 42  1  1
  7 43  1  0
  7 44  1  0
  7 45  1  0
  8  9  1  0
  8 22  1  0
  8 46  1  6
 10  9  1  1
  9 47  1  0
  9 48  1  0
 10 20  1  0
 10 21  1  0
 10 11  1  0
 11 12  1  0
 11 49  1  0
 11 50  1  0
 12 19  1  0
 12 13  1  0
 12 51  1  1
 13 14  1  0
 13 52  1  0
 13 53  1  0
 14 15  1  6
 14 16  1  0
 14 21  1  0
 15 54  1  0
 15 55  1  0
 15 56  1  0
 16 17  1  0
 16 57  1  0
 16 58  1  0
 17 18  1  6
 17 19  1  0
 17 20  1  0
 18 59  1  0
 18 60  1  0
 18 61  1  0
 19 62  1  0
 19 63  1  0
 20 64  1  0
 20 65  1  0
 21 66  1  0
 21 67  1  0
 22 23  1  0
 23 30  1  0
 23 24  1  0
 23 68  1  6
 24 25  1  0
 25 32  1  0
 25 26  1  1
 25 27  1  0
 26 69  1  0
 26 70  1  0
 26 71  1  0
 27 28  1  0
 27 72  1  0
 27 73  1  0
 28 29  1  0
 28 74  1  0
 28 75  1  0
 29 30  1  0
 29 76  1  1
 30 31  1  1
 31 32  1  0
M  END
>  <i_m_ct_stereo_status>  (235) 
1

>  <s_m_source_file>  (235) 
/var/tmp/pbs.5076255.sched01/tmpz7m1v8ep/860kfiy9lw.sdf

>  <i_m_source_file_index>  (235) 
21

>  <i_lp_mmshare_version>  (235) 
48012

>  <i_f3d_flags>  (235) 
0

>  <s_epik_input>  (235) 
W0NAXTEyM1tDQEBIXTRbQ0gyXVtDSDJdW0NAQEhdKFtDSDNdKVtDQEBIXTJbQ0gyXVtDSDJdW0NAQF0oW0NIM10pKE9PMylPW0NASF0xT1tDQEBIXShbQ0BASF00W0NIM10pW0NIMl1bQ0BAXTU2W0NIMl1bQ0BASF03W0NIMl1bQ0BdKFtDSDNdKShbQ0gyXTYpW0NIMl1bQ0BAXShbQ0gzXSkoW0NIMl03KVtDSDJdNQ==

>  <s_epik_cmdline>  (235) 
J2VwaWtfcHl0aG9uJywgJy1waHQnLCAnMi4wJywgJy1waCcsICc3LjAnLCAnLXRuJywgJzgnLCAnLW1hJywgJzIwMCcsICctaW1hZScsICc8aW5maWxlLm1hZT4nLCAnLW9tYWUnLCAnPG91dGZpbGUubWFlPic=

>  <r_lp_tautomer_probability>  (235) 
1

>  <r_epik_Ionization_Penalty>  (235) 
4.65716e-14

>  <r_epik_Ionization_Penalty_Charging>  (235) 
0

>  <r_epik_Ionization_Penalty_Neutral>  (235) 
4.65716e-14

>  <r_epik_State_Penalty>  (235) 
-0

>  <r_epik_Charging_Adjusted_Penalty>  (235) 
0

>  <i_epik_Tot_Q>  (235) 
0

>  <i_epik_Tot_abs_Q>  (235) 
0

>  <s_epik_Chemistry_Notes>  (235) 
This compound contains an acetal/aminal-like group ( X-CH(R)-Y where X, Y are N, S, or O) that may be acid/base labile, releasing an aldehyde.

>  <s_lp_Force_Field>  (235) 
OPLS3e

>  <r_lp_Energy>  (235) 
52.0252

>  <b_lp_Chiralities_Consistent>  (235) 
1

>  <s_lp_Variant>  (235) 
69:0-1

>  <s_i_glide_gridfile>  (235) 
pfpi4k_grid

>  <i_i_glide_lignum>  (235) 
21

>  <i_i_glide_rotatable_bonds>  (235) 
2

>  <r_i_docking_score>  (235) 
-2.14286

>  <r_i_glide_ligand_efficiency>  (235) 
-0.0669643

>  <r_i_glide_ligand_efficiency_sa>  (235) 
-0.212598

>  <r_i_glide_ligand_efficiency_ln>  (235) 
-0.479844

>  <r_i_glide_gscore>  (235) 
-2.14286

>  <r_i_glide_lipo>  (235) 
-0.665772

>  <r_i_glide_hbond>  (235) 
0

>  <r_i_glide_metal>  (235) 
-0

>  <r_i_glide_rewards>  (235) 
-0.37741

>  <r_i_glide_evdw>  (235) 
-25.5121

>  <r_i_glide_ecoul>  (235) 
-0.175608

>  <r_i_glide_erotb>  (235) 
0.202333

>  <r_i_glide_esite>  (235) 
-6.0126e-05

>  <r_i_glide_emodel>  (235) 
-28.4894

>  <r_i_glide_energy>  (235) 
-25.6878

>  <r_i_glide_einternal>  (235) 
0.137866

>  <r_i_glide_intrahb_reward>  (235) 
-0

>  <i_i_glide_confnum>  (235) 
5

>  <i_i_glide_posenum>  (235) 
13

>  <r_i_glide_eff_state_penalty>  (235) 
0

>  <ligand_id>  (235) 
69

>  <original_smiles>  (235) 
CC1CCC2C(C)C(CC34CC5CC(C)(CC(C)(C5)C3)C4)OC3OC4(C)CCC1C32OO4

>  <smiles>  (235) 
[H]C([H])([H])C12OOC34C([H])(OC([H])(C([H])([H])C56C([H])([H])C7([H])C([H])([H])C(C([H])([H])[H])(C([H])([H])C(C([H])([H])[H])(C7([H])[H])C5([H])[H])C6([H])[H])C([H])(C([H])([H])[H])C3([H])C([H])([H])C([H])([H])C([H])(C([H])([H])[H])C4([H])C([H])([H])C1([H])[H])O2

$$$$
69:0:1
     RDKit          3D

 76 82  0  0  1  0  0  0  0  0999 V2000
   -1.2892   -8.4110    3.1937 C   0  0  0  0  0  0  0  0  0  0  0  0
    0.2041   -8.0762    3.0054 C   0  0  2  0  0  0  0  0  0  0  0  0
    1.0024   -9.3909    2.7932 C   0  0  0  0  0  0  0  0  0  0  0  0
    2.5221   -9.2438    2.9814 C   0  0  0  0  0  0  0  0  0  0  0  0
    2.9510   -7.7899    2.7545 C   0  0  2  0  0  0  0  0  0  0  0  0
    4.4657   -7.5570    2.6217 C   0  0  1  0  0  0  0  0  0  0  0  0
    5.2134   -8.5111    1.6686 C   0  0  0  0  0  0  0  0  0  0  0  0
    4.6854   -6.0789    2.2484 C   0  0  1  0  0  0  0  0  0  0  0  0
    4.2726   -5.6639    0.8002 C   0  0  0  0  0  0  0  0  0  0  0  0
    4.7953   -4.2914    0.2905 C   0  0  1  0  0  0  0  0  0  0  0  0
    6.3288   -4.1595    0.4813 C   0  0  0  0  0  0  0  0  0  0  0  0
    6.8255   -2.8221   -0.0875 C   0  0  2  0  0  0  0  0  0  0  0  0
    6.1332   -1.6656    0.6619 C   0  0  0  0  0  0  0  0  0  0  0  0
    4.6005   -1.7488    0.4657 C   0  0  1  0  0  0  0  0  0  0  0  0
    3.8960   -0.6082    1.2223 C   0  0  0  0  0  0  0  0  0  0  0  0
    4.2902   -1.6697   -1.0454 C   0  0  0  0  0  0  0  0  0  0  0  0
    4.9829   -2.8261   -1.8093 C   0  0  1  0  0  0  0  0  0  0  0  0
    4.6681   -2.7277   -3.3143 C   0  0  0  0  0  0  0  0  0  0  0  0
    6.5102   -2.7542   -1.5901 C   0  0  0  0  0  0  0  0  0  0  0  0
    4.4814   -4.1690   -1.2272 C   0  0  0  0  0  0  0  0  0  0  0  0
    4.0996   -3.1073    1.0094 C   0  0  0  0  0  0  0  0  0  0  0  0
    4.0645   -5.2694    3.2465 O   0  0  0  0  0  0  0  0  0  0  0  0
    2.6833   -5.4035    3.4450 C   0  0  2  0  0  0  0  0  0  0  0  0
    2.2938   -4.4668    4.3950 O   0  0  0  0  0  0  0  0  0  0  0  0
    2.0511   -4.9498    5.7003 C   0  0  1  0  0  0  0  0  0  0  0  0
    2.4145   -3.8019    6.6566 C   0  0  0  0  0  0  0  0  0  0  0  0
    0.5530   -5.2814    5.8014 C   0  0  0  0  0  0  0  0  0  0  0  0
   -0.0037   -6.0018    4.5650 C   0  0  0  0  0  0  0  0  0  0  0  0
    0.8407   -7.2069    4.1320 C   0  0  2  0  0  0  0  0  0  0  0  0
    2.3581   -6.8723    3.8679 C   0  0  1  0  0  0  0  0  0  0  0  0
    3.0309   -7.1483    5.0925 O   0  0  0  0  0  0  0  0  0  0  0  0
    2.9029   -6.0207    6.1100 O   0  0  0  0  0  0  0  0  0  0  0  0
   -1.4558   -8.9253    4.1419 H   0  0  0  0  0  0  0  0  0  0  0  0
   -1.6297   -9.0747    2.3962 H   0  0  0  0  0  0  0  0  0  0  0  0
   -1.9214   -7.5220    3.1609 H   0  0  0  0  0  0  0  0  0  0  0  0
    0.2707   -7.5071    2.0799 H   0  0  0  0  0  0  0  0  0  0  0  0
    0.6315  -10.1763    3.4589 H   0  0  0  0  0  0  0  0  0  0  0  0
    0.8133   -9.7415    1.7763 H   0  0  0  0  0  0  0  0  0  0  0  0
    2.8138   -9.5605    3.9828 H   0  0  0  0  0  0  0  0  0  0  0  0
    3.0111   -9.9191    2.2785 H   0  0  0  0  0  0  0  0  0  0  0  0
    2.5179   -7.4995    1.7942 H   0  0  0  0  0  0  0  0  0  0  0  0
    4.9182   -7.7118    3.6019 H   0  0  0  0  0  0  0  0  0  0  0  0
    4.7443   -8.5649    0.6868 H   0  0  0  0  0  0  0  0  0  0  0  0
    5.2584   -9.5248    2.0699 H   0  0  0  0  0  0  0  0  0  0  0  0
    6.2434   -8.1805    1.5300 H   0  0  0  0  0  0  0  0  0  0  0  0
    5.7550   -5.9264    2.3564 H   0  0  0  0  0  0  0  0  0  0  0  0
    4.6227   -6.4234    0.1034 H   0  0  0  0  0  0  0  0  0  0  0  0
    3.1931   -5.7019    0.6743 H   0  0  0  0  0  0  0  0  0  0  0  0
    6.6095   -4.1897    1.5342 H   0  0  0  0  0  0  0  0  0  0  0  0
    6.8412   -4.9932    0.0017 H   0  0  0  0  0  0  0  0  0  0  0  0
    7.9038   -2.7561    0.0578 H   0  0  0  0  0  0  0  0  0  0  0  0
    6.3802   -1.7208    1.7224 H   0  0  0  0  0  0  0  0  0  0  0  0
    6.5131   -0.7064    0.3103 H   0  0  0  0  0  0  0  0  0  0  0  0
    2.8138   -0.6504    1.0874 H   0  0  0  0  0  0  0  0  0  0  0  0
    4.2281    0.3722    0.8816 H   0  0  0  0  0  0  0  0  0  0  0  0
    4.0893   -0.6665    2.2941 H   0  0  0  0  0  0  0  0  0  0  0  0
    3.2112   -1.7211   -1.2018 H   0  0  0  0  0  0  0  0  0  0  0  0
    4.6105   -0.7044   -1.4388 H   0  0  0  0  0  0  0  0  0  0  0  0
    5.1585   -3.5208   -3.8808 H   0  0  0  0  0  0  0  0  0  0  0  0
    5.0053   -1.7762   -3.7258 H   0  0  0  0  0  0  0  0  0  0  0  0
    3.5967   -2.8031   -3.5054 H   0  0  0  0  0  0  0  0  0  0  0  0
    6.9166   -1.8448   -2.0169 H   0  0  0  0  0  0  0  0  0  0  0  0
    7.0108   -3.5657   -2.1183 H   0  0  0  0  0  0  0  0  0  0  0  0
    4.9474   -4.9920   -1.7721 H   0  0  0  0  0  0  0  0  0  0  0  0
    3.4060   -4.2552   -1.3929 H   0  0  0  0  0  0  0  0  0  0  0  0
    3.0177   -3.1823    0.8879 H   0  0  0  0  0  0  0  0  0  0  0  0
    4.2894   -3.1441    2.0814 H   0  0  0  0  0  0  0  0  0  0  0  0
    2.1541   -5.1307    2.5323 H   0  0  0  0  0  0  0  0  0  0  0  0
    3.4795   -3.5716    6.5819 H   0  0  0  0  0  0  0  0  0  0  0  0
    2.2055   -4.0678    7.6958 H   0  0  0  0  0  0  0  0  0  0  0  0
    1.8649   -2.8880    6.4270 H   0  0  0  0  0  0  0  0  0  0  0  0
    0.3607   -5.8541    6.7097 H   0  0  0  0  0  0  0  0  0  0  0  0
   -0.0108   -4.3523    5.9067 H   0  0  0  0  0  0  0  0  0  0  0  0
   -1.0149   -6.3132    4.8128 H   0  0  0  0  0  0  0  0  0  0  0  0
   -0.0910   -5.3053    3.7340 H   0  0  0  0  0  0  0  0  0  0  0  0
    0.8341   -7.8691    4.9981 H   0  0  0  0  0  0  0  0  0  0  0  0
  1  2  1  0
  1 33  1  0
  1 34  1  0
  1 35  1  0
  2 29  1  0
  2  3  1  0
  2 36  1  6
  3  4  1  0
  3 37  1  0
  3 38  1  0
  4  5  1  0
  4 39  1  0
  4 40  1  0
  5 30  1  0
  5  6  1  0
  5 41  1  6
  6  7  1  0
  6  8  1  0
  6 42  1  1
  7 43  1  0
  7 44  1  0
  7 45  1  0
  8  9  1  0
  8 22  1  0
  8 46  1  6
 10  9  1  1
  9 47  1  0
  9 48  1  0
 10 20  1  0
 10 21  1  0
 10 11  1  0
 11 12  1  0
 11 49  1  0
 11 50  1  0
 12 19  1  0
 12 13  1  0
 12 51  1  6
 13 14  1  0
 13 52  1  0
 13 53  1  0
 14 15  1  1
 14 16  1  0
 14 21  1  0
 15 54  1  0
 15 55  1  0
 15 56  1  0
 16 17  1  0
 16 57  1  0
 16 58  1  0
 17 18  1  6
 17 19  1  0
 17 20  1  0
 18 59  1  0
 18 60  1  0
 18 61  1  0
 19 62  1  0
 19 63  1  0
 20 64  1  0
 20 65  1  0
 21 66  1  0
 21 67  1  0
 22 23  1  0
 23 30  1  0
 23 24  1  0
 23 68  1  6
 24 25  1  0
 25 32  1  0
 25 26  1  1
 25 27  1  0
 26 69  1  0
 26 70  1  0
 26 71  1  0
 27 28  1  0
 27 72  1  0
 27 73  1  0
 28 29  1  0
 28 74  1  0
 28 75  1  0
 29 30  1  0
 29 76  1  1
 30 31  1  1
 31 32  1  0
M  END
>  <i_m_ct_stereo_status>  (236) 
1

>  <s_m_source_file>  (236) 
/var/tmp/pbs.5076255.sched01/tmpz7m1v8ep/860kfiy9lw.sdf

>  <i_m_source_file_index>  (236) 
21

>  <i_lp_mmshare_version>  (236) 
48012

>  <i_f3d_flags>  (236) 
0

>  <s_epik_input>  (236) 
W0NAXTEyM1tDQEBIXTRbQ0gyXVtDSDJdW0NAQEhdKFtDSDNdKVtDQEBIXTJbQ0gyXVtDSDJdW0NAQF0oW0NIM10pKE9PMylPW0NASF0xT1tDQEBIXShbQ0BASF00W0NIM10pW0NIMl1bQ0BAXTU2W0NIMl1bQ0BASF03W0NIMl1bQ0BdKFtDSDNdKShbQ0gyXTYpW0NIMl1bQ0BAXShbQ0gzXSkoW0NIMl03KVtDSDJdNQ==

>  <s_epik_cmdline>  (236) 
J2VwaWtfcHl0aG9uJywgJy1waHQnLCAnMi4wJywgJy1waCcsICc3LjAnLCAnLXRuJywgJzgnLCAnLW1hJywgJzIwMCcsICctaW1hZScsICc8aW5maWxlLm1hZT4nLCAnLW9tYWUnLCAnPG91dGZpbGUubWFlPic=

>  <r_lp_tautomer_probability>  (236) 
1

>  <r_epik_Ionization_Penalty>  (236) 
4.65716e-14

>  <r_epik_Ionization_Penalty_Charging>  (236) 
0

>  <r_epik_Ionization_Penalty_Neutral>  (236) 
4.65716e-14

>  <r_epik_State_Penalty>  (236) 
-0

>  <r_epik_Charging_Adjusted_Penalty>  (236) 
0

>  <i_epik_Tot_Q>  (236) 
0

>  <i_epik_Tot_abs_Q>  (236) 
0

>  <s_epik_Chemistry_Notes>  (236) 
This compound contains an acetal/aminal-like group ( X-CH(R)-Y where X, Y are N, S, or O) that may be acid/base labile, releasing an aldehyde.

>  <s_lp_Force_Field>  (236) 
OPLS3e

>  <r_lp_Energy>  (236) 
52.0252

>  <b_lp_Chiralities_Consistent>  (236) 
1

>  <s_lp_Variant>  (236) 
69:0-1

>  <s_i_glide_gridfile>  (236) 
pfpi4k_grid

>  <i_i_glide_lignum>  (236) 
21

>  <i_i_glide_rotatable_bonds>  (236) 
2

>  <r_i_docking_score>  (236) 
-2.06495

>  <r_i_glide_ligand_efficiency>  (236) 
-0.0645296

>  <r_i_glide_ligand_efficiency_sa>  (236) 
-0.204869

>  <r_i_glide_ligand_efficiency_ln>  (236) 
-0.462398

>  <r_i_glide_gscore>  (236) 
-2.06495

>  <r_i_glide_lipo>  (236) 
-0.625206

>  <r_i_glide_hbond>  (236) 
0

>  <r_i_glide_metal>  (236) 
-0

>  <r_i_glide_rewards>  (236) 
-0.37741

>  <r_i_glide_evdw>  (236) 
-25.0202

>  <r_i_glide_ecoul>  (236) 
-0.0908452

>  <r_i_glide_erotb>  (236) 
0.202333

>  <r_i_glide_esite>  (236) 
-2.72743e-05

>  <r_i_glide_emodel>  (236) 
-27.6717

>  <r_i_glide_energy>  (236) 
-25.111

>  <r_i_glide_einternal>  (236) 
0.333377

>  <r_i_glide_intrahb_reward>  (236) 
-0

>  <i_i_glide_confnum>  (236) 
5

>  <i_i_glide_posenum>  (236) 
1

>  <r_i_glide_eff_state_penalty>  (236) 
0

>  <ligand_id>  (236) 
69

>  <original_smiles>  (236) 
CC1CCC2C(C)C(CC34CC5CC(C)(CC(C)(C5)C3)C4)OC3OC4(C)CCC1C32OO4

>  <smiles>  (236) 
[H]C([H])([H])C12OOC34C([H])(OC([H])(C([H])([H])C56C([H])([H])C7([H])C([H])([H])C(C([H])([H])[H])(C([H])([H])C(C([H])([H])[H])(C7([H])[H])C5([H])[H])C6([H])[H])C([H])(C([H])([H])[H])C3([H])C([H])([H])C([H])([H])C([H])(C([H])([H])[H])C4([H])C([H])([H])C1([H])[H])O2

$$$$
69:0:2
     RDKit          3D

 76 82  0  0  1  0  0  0  0  0999 V2000
    2.3497    1.3123    3.3364 C   0  0  0  0  0  0  0  0  0  0  0  0
    2.9128   -0.0962    3.6095 C   0  0  2  0  0  0  0  0  0  0  0  0
    3.6984   -0.0833    4.9484 C   0  0  0  0  0  0  0  0  0  0  0  0
    4.6320   -1.2918    5.1406 C   0  0  0  0  0  0  0  0  0  0  0  0
    4.1480   -2.4790    4.3008 C   0  0  2  0  0  0  0  0  0  0  0  0
    4.7989   -3.8369    4.6218 C   0  0  1  0  0  0  0  0  0  0  0  0
    4.8827   -4.2095    6.1150 C   0  0  0  0  0  0  0  0  0  0  0  0
    4.0826   -4.9187    3.7933 C   0  0  1  0  0  0  0  0  0  0  0  0
    2.6239   -5.2591    4.2275 C   0  0  0  0  0  0  0  0  0  0  0  0
    1.9795   -6.5207    3.5911 C   0  0  1  0  0  0  0  0  0  0  0  0
    1.7811   -6.3651    2.0603 C   0  0  0  0  0  0  0  0  0  0  0  0
    1.1158   -7.6223    1.4805 C   0  0  2  0  0  0  0  0  0  0  0  0
   -0.2686   -7.8288    2.1116 C   0  0  0  0  0  0  0  0  0  0  0  0
   -0.1171   -7.9956    3.6370 C   0  0  1  0  0  0  0  0  0  0  0  0
   -1.5010   -8.1889    4.2676 C   0  0  0  0  0  0  0  0  0  0  0  0
    0.7769   -9.2284    3.9218 C   0  0  0  0  0  0  0  0  0  0  0  0
    2.1730   -9.0502    3.2817 C   0  0  1  0  0  0  0  0  0  0  0  0
    3.0587  -10.2780    3.5612 C   0  0  0  0  0  0  0  0  0  0  0  0
    2.0137   -8.8459    1.7572 C   0  0  0  0  0  0  0  0  0  0  0  0
    2.8332   -7.7876    3.8727 C   0  0  0  0  0  0  0  0  0  0  0  0
    0.5753   -6.7386    4.2218 C   0  0  0  0  0  0  0  0  0  0  0  0
    4.1722   -4.5465    2.4199 O   0  0  0  0  0  0  0  0  0  0  0  0
    3.5960   -3.3332    2.0211 C   0  0  2  0  0  0  0  0  0  0  0  0
    3.7200   -3.2383    0.6413 O   0  0  0  0  0  0  0  0  0  0  0  0
    4.7236   -2.3754    0.1518 C   0  0  1  0  0  0  0  0  0  0  0  0
    5.1886   -2.9785   -1.1862 C   0  0  0  0  0  0  0  0  0  0  0  0
    4.0868   -0.9944   -0.0713 C   0  0  0  0  0  0  0  0  0  0  0  0
    3.1477   -0.5585    1.0621 C   0  0  0  0  0  0  0  0  0  0  0  0
    3.7649   -0.7071    2.4582 C   0  0  2  0  0  0  0  0  0  0  0  0
    4.2903   -2.1569    2.7799 C   0  0  1  0  0  0  0  0  0  0  0  0
    5.6711   -2.1484    2.4370 O   0  0  0  0  0  0  0  0  0  0  0  0
    5.9145   -2.3280    0.9412 O   0  0  0  0  0  0  0  0  0  0  0  0
    3.1467    2.0176    3.0997 H   0  0  0  0  0  0  0  0  0  0  0  0
    1.8234    1.6883    4.2155 H   0  0  0  0  0  0  0  0  0  0  0  0
    1.6302    1.3127    2.5149 H   0  0  0  0  0  0  0  0  0  0  0  0
    2.0473   -0.7427    3.7453 H   0  0  0  0  0  0  0  0  0  0  0  0
    4.2821    0.8349    5.0386 H   0  0  0  0  0  0  0  0  0  0  0  0
    2.9711   -0.0641    5.7636 H   0  0  0  0  0  0  0  0  0  0  0  0
    5.6514   -1.0329    4.8551 H   0  0  0  0  0  0  0  0  0  0  0  0
    4.6520   -1.5366    6.2026 H   0  0  0  0  0  0  0  0  0  0  0  0
    3.0897   -2.5924    4.5369 H   0  0  0  0  0  0  0  0  0  0  0  0
    5.8265   -3.8088    4.2716 H   0  0  0  0  0  0  0  0  0  0  0  0
    3.9195   -4.1236    6.6150 H   0  0  0  0  0  0  0  0  0  0  0  0
    5.5943   -3.5749    6.6444 H   0  0  0  0  0  0  0  0  0  0  0  0
    5.2304   -5.2373    6.2324 H   0  0  0  0  0  0  0  0  0  0  0  0
    4.6942   -5.8094    3.9039 H   0  0  0  0  0  0  0  0  0  0  0  0
    2.6076   -5.3994    5.3061 H   0  0  0  0  0  0  0  0  0  0  0  0
    1.9649   -4.4089    4.0726 H   0  0  0  0  0  0  0  0  0  0  0  0
    1.1767   -5.4836    1.8459 H   0  0  0  0  0  0  0  0  0  0  0  0
    2.7287   -6.2267    1.5426 H   0  0  0  0  0  0  0  0  0  0  0  0
    0.9973   -7.4908    0.4082 H   0  0  0  0  0  0  0  0  0  0  0  0
   -0.9157   -6.9833    1.8788 H   0  0  0  0  0  0  0  0  0  0  0  0
   -0.7436   -8.7113    1.6814 H   0  0  0  0  0  0  0  0  0  0  0  0
   -1.3861   -8.3626    5.3326 H   0  0  0  0  0  0  0  0  0  0  0  0
   -2.0203   -9.0578    3.8573 H   0  0  0  0  0  0  0  0  0  0  0  0
   -2.1409   -7.3148    4.1276 H   0  0  0  0  0  0  0  0  0  0  0  0
    0.8842   -9.3698    4.9990 H   0  0  0  0  0  0  0  0  0  0  0  0
    0.3023  -10.1335    3.5391 H   0  0  0  0  0  0  0  0  0  0  0  0
    4.0438  -10.1709    3.1053 H   0  0  0  0  0  0  0  0  0  0  0  0
    2.6159  -11.1900    3.1602 H   0  0  0  0  0  0  0  0  0  0  0  0
    3.2098  -10.4285    4.6311 H   0  0  0  0  0  0  0  0  0  0  0  0
    1.5977   -9.7414    1.2969 H   0  0  0  0  0  0  0  0  0  0  0  0
    2.9900   -8.6942    1.2955 H   0  0  0  0  0  0  0  0  0  0  0  0
    3.8266   -7.6974    3.4345 H   0  0  0  0  0  0  0  0  0  0  0  0
    2.9758   -7.9073    4.9479 H   0  0  0  0  0  0  0  0  0  0  0  0
    0.6680   -6.8457    5.3040 H   0  0  0  0  0  0  0  0  0  0  0  0
   -0.0512   -5.8596    4.0579 H   0  0  0  0  0  0  0  0  0  0  0  0
    2.5264   -3.3500    2.2211 H   0  0  0  0  0  0  0  0  0  0  0  0
    5.6405   -3.9597   -1.0250 H   0  0  0  0  0  0  0  0  0  0  0  0
    5.9348   -2.3465   -1.6717 H   0  0  0  0  0  0  0  0  0  0  0  0
    4.3603   -3.1139   -1.8836 H   0  0  0  0  0  0  0  0  0  0  0  0
    4.8628   -0.2493   -0.2477 H   0  0  0  0  0  0  0  0  0  0  0  0
    3.4853   -1.0267   -0.9824 H   0  0  0  0  0  0  0  0  0  0  0  0
    2.8803    0.4790    0.8787 H   0  0  0  0  0  0  0  0  0  0  0  0
    2.2165   -1.1230    1.0106 H   0  0  0  0  0  0  0  0  0  0  0  0
    4.6504   -0.0712    2.4315 H   0  0  0  0  0  0  0  0  0  0  0  0
  1  2  1  0
  1 33  1  0
  1 34  1  0
  1 35  1  0
  2 29  1  0
  2  3  1  0
  2 36  1  1
  3  4  1  0
  3 37  1  0
  3 38  1  0
  4  5  1  0
  4 39  1  0
  4 40  1  0
  5 30  1  0
  5  6  1  0
  5 41  1  6
  6  7  1  0
  6  8  1  0
  6 42  1  6
  7 43  1  0
  7 44  1  0
  7 45  1  0
  8  9  1  0
  8 22  1  0
  8 46  1  6
 10  9  1  1
  9 47  1  0
  9 48  1  0
 10 20  1  0
 10 21  1  0
 10 11  1  0
 11 12  1  0
 11 49  1  0
 11 50  1  0
 12 19  1  0
 12 13  1  0
 12 51  1  6
 13 14  1  0
 13 52  1  0
 13 53  1  0
 14 15  1  1
 14 16  1  0
 14 21  1  0
 15 54  1  0
 15 55  1  0
 15 56  1  0
 16 17  1  0
 16 57  1  0
 16 58  1  0
 17 18  1  6
 17 19  1  0
 17 20  1  0
 18 59  1  0
 18 60  1  0
 18 61  1  0
 19 62  1  0
 19 63  1  0
 20 64  1  0
 20 65  1  0
 21 66  1  0
 21 67  1  0
 22 23  1  0
 23 30  1  0
 23 24  1  0
 23 68  1  6
 24 25  1  0
 25 32  1  0
 25 26  1  6
 25 27  1  0
 26 69  1  0
 26 70  1  0
 26 71  1  0
 27 28  1  0
 27 72  1  0
 27 73  1  0
 28 29  1  0
 28 74  1  0
 28 75  1  0
 29 30  1  0
 29 76  1  6
 30 31  1  6
 31 32  1  0
M  END
>  <i_m_ct_stereo_status>  (237) 
1

>  <s_m_source_file>  (237) 
/var/tmp/pbs.5076255.sched01/tmpz7m1v8ep/860kfiy9lw.sdf

>  <i_m_source_file_index>  (237) 
21

>  <i_lp_mmshare_version>  (237) 
48012

>  <i_f3d_flags>  (237) 
0

>  <s_epik_input>  (237) 
W0NAXTEyM1tDQEBIXTRbQ0gyXVtDSDJdW0NAQEhdKFtDSDNdKVtDQEBIXTJbQ0gyXVtDSDJdW0NAQF0oW0NIM10pKE9PMylPW0NASF0xT1tDQEBIXShbQ0BASF00W0NIM10pW0NIMl1bQ0BAXTU2W0NIMl1bQ0BASF03W0NIMl1bQ0BdKFtDSDNdKShbQ0gyXTYpW0NIMl1bQ0BAXShbQ0gzXSkoW0NIMl03KVtDSDJdNQ==

>  <s_epik_cmdline>  (237) 
J2VwaWtfcHl0aG9uJywgJy1waHQnLCAnMi4wJywgJy1waCcsICc3LjAnLCAnLXRuJywgJzgnLCAnLW1hJywgJzIwMCcsICctaW1hZScsICc8aW5maWxlLm1hZT4nLCAnLW9tYWUnLCAnPG91dGZpbGUubWFlPic=

>  <r_lp_tautomer_probability>  (237) 
1

>  <r_epik_Ionization_Penalty>  (237) 
4.65716e-14

>  <r_epik_Ionization_Penalty_Charging>  (237) 
0

>  <r_epik_Ionization_Penalty_Neutral>  (237) 
4.65716e-14

>  <r_epik_State_Penalty>  (237) 
-0

>  <r_epik_Charging_Adjusted_Penalty>  (237) 
0

>  <i_epik_Tot_Q>  (237) 
0

>  <i_epik_Tot_abs_Q>  (237) 
0

>  <s_epik_Chemistry_Notes>  (237) 
This compound contains an acetal/aminal-like group ( X-CH(R)-Y where X, Y are N, S, or O) that may be acid/base labile, releasing an aldehyde.

>  <s_lp_Force_Field>  (237) 
OPLS3e

>  <r_lp_Energy>  (237) 
52.0252

>  <b_lp_Chiralities_Consistent>  (237) 
1

>  <s_lp_Variant>  (237) 
69:0-1

>  <s_i_glide_gridfile>  (237) 
pfpi4k_grid

>  <i_i_glide_lignum>  (237) 
21

>  <i_i_glide_rotatable_bonds>  (237) 
2

>  <r_i_docking_score>  (237) 
-1.48166

>  <r_i_glide_ligand_efficiency>  (237) 
-0.0463019

>  <r_i_glide_ligand_efficiency_sa>  (237) 
-0.146999

>  <r_i_glide_ligand_efficiency_ln>  (237) 
-0.331784

>  <r_i_glide_gscore>  (237) 
-1.48166

>  <r_i_glide_lipo>  (237) 
-0.103775

>  <r_i_glide_hbond>  (237) 
0

>  <r_i_glide_metal>  (237) 
-0

>  <r_i_glide_rewards>  (237) 
-0.380617

>  <r_i_glide_evdw>  (237) 
-22.5771

>  <r_i_glide_ecoul>  (237) 
-0.453333

>  <r_i_glide_erotb>  (237) 
0.202333

>  <r_i_glide_esite>  (237) 
-0.00274634

>  <r_i_glide_emodel>  (237) 
-24.8313

>  <r_i_glide_energy>  (237) 
-23.0304

>  <r_i_glide_einternal>  (237) 
0.0876812

>  <r_i_glide_intrahb_reward>  (237) 
-0

>  <i_i_glide_confnum>  (237) 
2

>  <i_i_glide_posenum>  (237) 
14

>  <r_i_glide_eff_state_penalty>  (237) 
0

>  <ligand_id>  (237) 
69

>  <original_smiles>  (237) 
CC1CCC2C(C)C(CC34CC5CC(C)(CC(C)(C5)C3)C4)OC3OC4(C)CCC1C32OO4

>  <smiles>  (237) 
[H]C([H])([H])C12OOC34C([H])(OC([H])(C([H])([H])C56C([H])([H])C7([H])C([H])([H])C(C([H])([H])[H])(C([H])([H])C(C([H])([H])[H])(C7([H])[H])C5([H])[H])C6([H])[H])C([H])(C([H])([H])[H])C3([H])C([H])([H])C([H])([H])C([H])(C([H])([H])[H])C4([H])C([H])([H])C1([H])[H])O2

$$$$
70:0:0
     RDKit          3D

 52 56  0  0  1  0  0  0  0  0999 V2000
    2.2975   -2.7505   -3.3558 C   0  0  0  0  0  0  0  0  0  0  0  0
    3.1330   -1.6445   -2.6619 C   0  0  0  0  0  0  0  0  0  0  0  0
    3.8829   -0.8626   -3.7574 C   0  0  0  0  0  0  0  0  0  0  0  0
    4.0227   -2.1001   -1.4278 C   0  0  1  0  0  0  0  0  0  0  0  0
    4.9118   -1.0117   -1.1701 O   0  0  0  0  0  0  0  0  0  0  0  0
    5.9928   -1.9339   -0.9685 C   0  0  1  0  0  0  0  0  0  0  0  0
    6.3894   -1.6118    0.4373 C   0  0  0  0  0  0  0  0  0  0  0  0
    5.4291   -2.0628    1.5521 C   0  0  2  0  0  0  0  0  0  0  0  0
    5.7212   -1.0864    2.5501 O   0  0  0  0  0  0  0  0  0  0  0  0
    6.0188   -3.3369    2.2070 C   0  0  0  0  0  0  0  0  0  0  0  0
    5.2812   -4.6025    1.8719 C   0  0  2  0  0  0  0  0  0  0  0  0
    5.4712   -5.0475    0.3882 C   0  0  0  0  0  0  0  0  0  0  0  0
    4.6900   -4.4026   -0.7916 C   0  0  1  0  0  0  0  0  0  0  0  0
    3.2373   -4.0734   -0.4842 C   0  0  1  0  0  0  0  0  0  0  0  0
    2.3740   -5.0175    0.1118 O   0  0  0  0  0  0  0  0  0  0  0  0
    3.2521   -2.5744   -0.1589 C   0  0  1  0  0  0  0  0  0  0  0  0
    3.8264   -2.1219    1.2886 C   0  0  2  0  0  0  0  0  0  0  0  0
    3.2502   -0.6945    1.5223 C   0  0  0  0  0  0  0  0  0  0  0  0
    3.2549   -3.0360    2.4370 C   0  0  1  0  0  0  0  0  0  0  0  0
    1.8385   -3.0850    2.4823 O   0  0  0  0  0  0  0  0  0  0  0  0
    3.8697   -4.4571    2.4633 C   0  0  0  0  0  0  0  0  0  0  0  0
    3.2869   -5.4212    2.9569 O   0  0  0  0  0  0  0  0  0  0  0  0
    5.1870   -3.1139   -1.5402 C   0  0  1  0  0  0  0  0  0  0  0  0
    5.7258   -3.5324   -2.9130 C   0  0  0  0  0  0  0  0  0  0  0  0
    2.8750   -3.6502   -3.5798 H   0  0  0  0  0  0  0  0  0  0  0  0
    1.8851   -2.4110   -4.3049 H   0  0  0  0  0  0  0  0  0  0  0  0
    1.4444   -3.0417   -2.7375 H   0  0  0  0  0  0  0  0  0  0  0  0
    2.4136   -0.9126   -2.3063 H   0  0  0  0  0  0  0  0  0  0  0  0
    4.6516   -1.4437   -4.2509 H   0  0  0  0  0  0  0  0  0  0  0  0
    4.3223    0.0506   -3.3551 H   0  0  0  0  0  0  0  0  0  0  0  0
    3.1909   -0.5484   -4.5421 H   0  0  0  0  0  0  0  0  0  0  0  0
    6.8088   -1.7135   -1.6465 H   0  0  0  0  0  0  0  0  0  0  0  0
    7.4036   -1.9715    0.6130 H   0  0  0  0  0  0  0  0  0  0  0  0
    6.5308   -0.5277    0.4964 H   0  0  0  0  0  0  0  0  0  0  0  0
    5.1710   -1.2393    3.2992 H   0  0  0  0  0  0  0  0  0  0  0  0
    7.0691   -3.5013    1.9751 H   0  0  0  0  0  0  0  0  0  0  0  0
    5.9755   -3.2497    3.2948 H   0  0  0  0  0  0  0  0  0  0  0  0
    5.7418   -5.3951    2.4624 H   0  0  0  0  0  0  0  0  0  0  0  0
    6.5362   -5.0647    0.1392 H   0  0  0  0  0  0  0  0  0  0  0  0
    5.1680   -6.0959    0.3755 H   0  0  0  0  0  0  0  0  0  0  0  0
    4.6596   -5.2116   -1.5197 H   0  0  0  0  0  0  0  0  0  0  0  0
    2.7658   -4.1698   -1.4430 H   0  0  0  0  0  0  0  0  0  0  0  0
    2.4244   -5.7884   -0.4328 H   0  0  0  0  0  0  0  0  0  0  0  0
    2.2103   -2.2727   -0.2197 H   0  0  0  0  0  0  0  0  0  0  0  0
    2.1817   -0.6457    1.3128 H   0  0  0  0  0  0  0  0  0  0  0  0
    3.7423    0.0472    0.8879 H   0  0  0  0  0  0  0  0  0  0  0  0
    3.3638   -0.3654    2.5593 H   0  0  0  0  0  0  0  0  0  0  0  0
    3.5502   -2.5945    3.3914 H   0  0  0  0  0  0  0  0  0  0  0  0
    1.5076   -2.2066    2.4032 H   0  0  0  0  0  0  0  0  0  0  0  0
    6.5431   -4.2234   -2.7739 H   0  0  0  0  0  0  0  0  0  0  0  0
    6.1480   -2.7074   -3.4740 H   0  0  0  0  0  0  0  0  0  0  0  0
    4.9843   -4.0200   -3.5379 H   0  0  0  0  0  0  0  0  0  0  0  0
  1  2  1  0
  1 25  1  0
  1 26  1  0
  1 27  1  0
  2  3  1  0
  4  2  1  6
  2 28  1  0
  3 29  1  0
  3 30  1  0
  3 31  1  0
  4 16  1  0
  4 23  1  0
  4  5  1  0
  5  6  1  0
  6 23  1  0
  6  7  1  0
  6 32  1  6
  7  8  1  0
  7 33  1  0
  7 34  1  0
  8 17  1  0
  8  9  1  1
  8 10  1  0
  9 35  1  0
 10 11  1  0
 10 36  1  0
 10 37  1  0
 11 21  1  0
 11 12  1  0
 11 38  1  1
 12 13  1  0
 12 39  1  0
 12 40  1  0
 13 14  1  0
 13 23  1  0
 13 41  1  6
 14 15  1  0
 14 16  1  0
 14 42  1  6
 15 43  1  0
 16 17  1  0
 16 44  1  6
 17 18  1  1
 17 19  1  0
 18 45  1  0
 18 46  1  0
 18 47  1  0
 19 20  1  0
 19 21  1  0
 19 48  1  1
 20 49  1  0
 21 22  2  0
 23 24  1  6
 24 50  1  0
 24 51  1  0
 24 52  1  0
M  END
>  <i_m_ct_stereo_status>  (238) 
1

>  <s_m_source_file>  (238) 
/var/tmp/pbs.5076255.sched01/tmpz7m1v8ep/860kfiy9lw.sdf

>  <i_m_source_file_index>  (238) 
22

>  <i_lp_mmshare_version>  (238) 
48012

>  <i_f3d_flags>  (238) 
0

>  <s_epik_input>  (238) 
W0NIM11bQ0hdKFtDSDNdKVtDQF0xMltDQEBIXTNbQ0BdNChbQ0gzXSlbQ0BdNShbT0hdKVtDSDJdW0NASF0oTzEpW0NAQF0yKFtDSDNdKVtDQEhdKFtDQEhdM1tPSF0pW0NIMl1bQ0BASF0oW0NIMl01KUMoPU8pW0NAQEhdNFtPSF0=

>  <s_epik_cmdline>  (238) 
J2VwaWtfcHl0aG9uJywgJy1waHQnLCAnMi4wJywgJy1waCcsICc3LjAnLCAnLXRuJywgJzgnLCAnLW1hJywgJzIwMCcsICctaW1hZScsICc8aW5maWxlLm1hZT4nLCAnLW9tYWUnLCAnPG91dGZpbGUubWFlPic=

>  <r_lp_tautomer_probability>  (238) 
1

>  <r_epik_Ionization_Penalty>  (238) 
2.01117e-07

>  <r_epik_Ionization_Penalty_Charging>  (238) 
0

>  <r_epik_Ionization_Penalty_Neutral>  (238) 
2.01117e-07

>  <r_epik_State_Penalty>  (238) 
-0

>  <r_epik_Charging_Adjusted_Penalty>  (238) 
0

>  <i_epik_Tot_Q>  (238) 
0

>  <i_epik_Tot_abs_Q>  (238) 
0

>  <s_lp_Force_Field>  (238) 
OPLS3e

>  <r_lp_Energy>  (238) 
102.117

>  <b_lp_Chiralities_Consistent>  (238) 
1

>  <s_lp_Variant>  (238) 
70:0-1

>  <s_i_glide_gridfile>  (238) 
pfpi4k_grid

>  <i_i_glide_lignum>  (238) 
22

>  <i_i_glide_rotatable_bonds>  (238) 
4

>  <r_i_docking_score>  (238) 
-3.36319

>  <r_i_glide_ligand_efficiency>  (238) 
-0.140133

>  <r_i_glide_ligand_efficiency_sa>  (238) 
-0.404214

>  <r_i_glide_ligand_efficiency_ln>  (238) 
-0.804966

>  <r_i_glide_gscore>  (238) 
-3.36319

>  <r_i_glide_lipo>  (238) 
-0.92803

>  <r_i_glide_hbond>  (238) 
0

>  <r_i_glide_metal>  (238) 
-0

>  <r_i_glide_rewards>  (238) 
-1.1153

>  <r_i_glide_evdw>  (238) 
-20.2844

>  <r_i_glide_ecoul>  (238) 
-2.03761

>  <r_i_glide_erotb>  (238) 
0

>  <r_i_glide_esite>  (238) 
0

>  <r_i_glide_emodel>  (238) 
-24.5446

>  <r_i_glide_energy>  (238) 
-22.322

>  <r_i_glide_einternal>  (238) 
4.00812

>  <r_i_glide_intrahb_reward>  (238) 
-0

>  <i_i_glide_confnum>  (238) 
2

>  <i_i_glide_posenum>  (238) 
13

>  <r_i_glide_eff_state_penalty>  (238) 
0

>  <ligand_id>  (238) 
70

>  <original_smiles>  (238) 
CC(C)C12OC3CC4(O)CC5CC(C(O)C1C4(C)C(O)C5=O)C32C

>  <smiles>  (238) 
[H]OC1([H])C(=O)C2([H])C([H])([H])C3([H])C([H])(O[H])C4([H])C5(C([H])(C([H])([H])[H])C([H])([H])[H])OC([H])(C([H])([H])C(O[H])(C2([H])[H])C14C([H])([H])[H])C35C([H])([H])[H]

$$$$
70:0:1
     RDKit          3D

 52 56  0  0  1  0  0  0  0  0999 V2000
    2.5232   -1.9157   -3.9919 C   0  0  0  0  0  0  0  0  0  0  0  0
    3.2340   -1.1802   -2.8491 C   0  0  0  0  0  0  0  0  0  0  0  0
    3.8056    0.0910   -3.4746 C   0  0  0  0  0  0  0  0  0  0  0  0
    4.2477   -1.9506   -1.8885 C   0  0  1  0  0  0  0  0  0  0  0  0
    5.5620   -1.5046   -2.2309 O   0  0  0  0  0  0  0  0  0  0  0  0
    6.0564   -2.8545   -2.1210 C   0  0  1  0  0  0  0  0  0  0  0  0
    7.0975   -2.7126   -1.0935 C   0  0  0  0  0  0  0  0  0  0  0  0
    6.5753   -2.4454    0.3310 C   0  0  2  0  0  0  0  0  0  0  0  0
    7.6258   -1.6431    0.8078 O   0  0  0  0  0  0  0  0  0  0  0  0
    6.7931   -3.7455    1.1472 C   0  0  0  0  0  0  0  0  0  0  0  0
    5.4840   -4.3966    1.5038 C   0  0  2  0  0  0  0  0  0  0  0  0
    4.7576   -5.0028    0.2511 C   0  0  0  0  0  0  0  0  0  0  0  0
    3.9541   -4.1395   -0.7643 C   0  0  1  0  0  0  0  0  0  0  0  0
    3.0922   -3.0152   -0.2226 C   0  0  1  0  0  0  0  0  0  0  0  0
    2.3229   -3.2578    0.9206 O   0  0  0  0  0  0  0  0  0  0  0  0
    3.9374   -1.7546   -0.3816 C   0  0  1  0  0  0  0  0  0  0  0  0
    5.2005   -1.6340    0.6133 C   0  0  2  0  0  0  0  0  0  0  0  0
    5.5303   -0.1336    0.5888 C   0  0  0  0  0  0  0  0  0  0  0  0
    4.8393   -1.9328    2.1123 C   0  0  1  0  0  0  0  0  0  0  0  0
    3.6820   -1.2179    2.5312 O   0  0  0  0  0  0  0  0  0  0  0  0
    4.7015   -3.4446    2.4207 C   0  0  0  0  0  0  0  0  0  0  0  0
    4.0353   -3.8599    3.3505 O   0  0  0  0  0  0  0  0  0  0  0  0
    4.6477   -3.4549   -2.0031 C   0  0  1  0  0  0  0  0  0  0  0  0
    4.3903   -4.2462   -3.2828 C   0  0  0  0  0  0  0  0  0  0  0  0
    3.2248   -2.3338   -4.7137 H   0  0  0  0  0  0  0  0  0  0  0  0
    1.9089   -1.2119   -4.5726 H   0  0  0  0  0  0  0  0  0  0  0  0
    1.8337   -2.6586   -3.5937 H   0  0  0  0  0  0  0  0  0  0  0  0
    2.4096   -0.8294   -2.2289 H   0  0  0  0  0  0  0  0  0  0  0  0
    4.6129   -0.1605   -4.1707 H   0  0  0  0  0  0  0  0  0  0  0  0
    4.1874    0.7950   -2.7335 H   0  0  0  0  0  0  0  0  0  0  0  0
    3.0262    0.5962   -4.0476 H   0  0  0  0  0  0  0  0  0  0  0  0
    6.5089   -3.1583   -3.0640 H   0  0  0  0  0  0  0  0  0  0  0  0
    7.7882   -3.5458   -1.1525 H   0  0  0  0  0  0  0  0  0  0  0  0
    7.7694   -1.9313   -1.4387 H   0  0  0  0  0  0  0  0  0  0  0  0
    8.4365   -2.1093    0.6928 H   0  0  0  0  0  0  0  0  0  0  0  0
    7.4239   -4.4807    0.6353 H   0  0  0  0  0  0  0  0  0  0  0  0
    7.2889   -3.5347    2.0764 H   0  0  0  0  0  0  0  0  0  0  0  0
    5.7230   -5.2431    2.1361 H   0  0  0  0  0  0  0  0  0  0  0  0
    5.4722   -5.6188   -0.2932 H   0  0  0  0  0  0  0  0  0  0  0  0
    4.0504   -5.7034    0.6766 H   0  0  0  0  0  0  0  0  0  0  0  0
    3.2008   -4.8169   -1.1077 H   0  0  0  0  0  0  0  0  0  0  0  0
    2.2989   -2.8970   -0.9510 H   0  0  0  0  0  0  0  0  0  0  0  0
    1.8777   -2.4510    1.1441 H   0  0  0  0  0  0  0  0  0  0  0  0
    3.2857   -0.8918   -0.2384 H   0  0  0  0  0  0  0  0  0  0  0  0
    4.6517    0.4942    0.6653 H   0  0  0  0  0  0  0  0  0  0  0  0
    6.0474    0.1423   -0.3215 H   0  0  0  0  0  0  0  0  0  0  0  0
    6.1814    0.1222    1.4306 H   0  0  0  0  0  0  0  0  0  0  0  0
    5.6595   -1.5966    2.7605 H   0  0  0  0  0  0  0  0  0  0  0  0
    3.8408   -0.2851    2.4087 H   0  0  0  0  0  0  0  0  0  0  0  0
    4.7761   -5.2713   -3.2111 H   0  0  0  0  0  0  0  0  0  0  0  0
    4.8690   -3.8318   -4.1629 H   0  0  0  0  0  0  0  0  0  0  0  0
    3.3314   -4.2396   -3.4824 H   0  0  0  0  0  0  0  0  0  0  0  0
  1  2  1  0
  1 25  1  0
  1 26  1  0
  1 27  1  0
  2  3  1  0
  4  2  1  6
  2 28  1  0
  3 29  1  0
  3 30  1  0
  3 31  1  0
  4 16  1  0
  4 23  1  0
  4  5  1  0
  5  6  1  0
  6 23  1  0
  6  7  1  0
  6 32  1  6
  7  8  1  0
  7 33  1  0
  7 34  1  0
  8 17  1  0
  8  9  1  1
  8 10  1  0
  9 35  1  0
 10 11  1  0
 10 36  1  0
 10 37  1  0
 11 21  1  0
 11 12  1  0
 11 38  1  1
 12 13  1  0
 12 39  1  0
 12 40  1  0
 13 14  1  0
 13 23  1  0
 13 41  1  6
 14 15  1  0
 14 16  1  0
 14 42  1  6
 15 43  1  0
 16 17  1  0
 16 44  1  6
 17 18  1  1
 17 19  1  0
 18 45  1  0
 18 46  1  0
 18 47  1  0
 19 20  1  0
 19 21  1  0
 19 48  1  1
 20 49  1  0
 21 22  2  0
 23 24  1  6
 24 50  1  0
 24 51  1  0
 24 52  1  0
M  END
>  <i_m_ct_stereo_status>  (239) 
1

>  <s_m_source_file>  (239) 
/var/tmp/pbs.5076255.sched01/tmpz7m1v8ep/860kfiy9lw.sdf

>  <i_m_source_file_index>  (239) 
22

>  <i_lp_mmshare_version>  (239) 
48012

>  <i_f3d_flags>  (239) 
0

>  <s_epik_input>  (239) 
W0NIM11bQ0hdKFtDSDNdKVtDQF0xMltDQEBIXTNbQ0BdNChbQ0gzXSlbQ0BdNShbT0hdKVtDSDJdW0NASF0oTzEpW0NAQF0yKFtDSDNdKVtDQEhdKFtDQEhdM1tPSF0pW0NIMl1bQ0BASF0oW0NIMl01KUMoPU8pW0NAQEhdNFtPSF0=

>  <s_epik_cmdline>  (239) 
J2VwaWtfcHl0aG9uJywgJy1waHQnLCAnMi4wJywgJy1waCcsICc3LjAnLCAnLXRuJywgJzgnLCAnLW1hJywgJzIwMCcsICctaW1hZScsICc8aW5maWxlLm1hZT4nLCAnLW9tYWUnLCAnPG91dGZpbGUubWFlPic=

>  <r_lp_tautomer_probability>  (239) 
1

>  <r_epik_Ionization_Penalty>  (239) 
2.01117e-07

>  <r_epik_Ionization_Penalty_Charging>  (239) 
0

>  <r_epik_Ionization_Penalty_Neutral>  (239) 
2.01117e-07

>  <r_epik_State_Penalty>  (239) 
-0

>  <r_epik_Charging_Adjusted_Penalty>  (239) 
0

>  <i_epik_Tot_Q>  (239) 
0

>  <i_epik_Tot_abs_Q>  (239) 
0

>  <s_lp_Force_Field>  (239) 
OPLS3e

>  <r_lp_Energy>  (239) 
102.117

>  <b_lp_Chiralities_Consistent>  (239) 
1

>  <s_lp_Variant>  (239) 
70:0-1

>  <s_i_glide_gridfile>  (239) 
pfpi4k_grid

>  <i_i_glide_lignum>  (239) 
22

>  <i_i_glide_rotatable_bonds>  (239) 
4

>  <r_i_docking_score>  (239) 
-2.73806

>  <r_i_glide_ligand_efficiency>  (239) 
-0.114086

>  <r_i_glide_ligand_efficiency_sa>  (239) 
-0.329081

>  <r_i_glide_ligand_efficiency_ln>  (239) 
-0.655344

>  <r_i_glide_gscore>  (239) 
-2.73806

>  <r_i_glide_lipo>  (239) 
-0.705209

>  <r_i_glide_hbond>  (239) 
-0.00367895

>  <r_i_glide_metal>  (239) 
-0

>  <r_i_glide_rewards>  (239) 
-1.15408

>  <r_i_glide_evdw>  (239) 
-10.3568

>  <r_i_glide_ecoul>  (239) 
-2.38171

>  <r_i_glide_erotb>  (239) 
0

>  <r_i_glide_esite>  (239) 
0

>  <r_i_glide_emodel>  (239) 
-10.6782

>  <r_i_glide_energy>  (239) 
-12.7385

>  <r_i_glide_einternal>  (239) 
8.43996

>  <r_i_glide_intrahb_reward>  (239) 
-0

>  <i_i_glide_confnum>  (239) 
1

>  <i_i_glide_posenum>  (239) 
22

>  <r_i_glide_eff_state_penalty>  (239) 
0

>  <ligand_id>  (239) 
70

>  <original_smiles>  (239) 
CC(C)C12OC3CC4(O)CC5CC(C(O)C1C4(C)C(O)C5=O)C32C

>  <smiles>  (239) 
[H]OC1([H])C(=O)C2([H])C([H])([H])C3([H])C([H])(O[H])C4([H])C5(C([H])(C([H])([H])[H])C([H])([H])[H])OC([H])(C([H])([H])C(O[H])(C2([H])[H])C14C([H])([H])[H])C35C([H])([H])[H]

$$$$
72:0:0
     RDKit          3D

 67 74  0  0  1  0  0  0  0  0999 V2000
    4.6343   -6.6801    3.2996 C   0  0  0  0  0  0  0  0  0  0  0  0
    3.5588   -6.8369    2.2176 C   0  0  2  0  0  0  0  0  0  0  0  0
    3.7568   -6.4141    0.7203 C   0  0  2  0  0  0  0  0  0  0  0  0
    5.0339   -5.7485    0.0358 C   0  0  0  0  0  0  0  0  0  0  0  0
    5.0482   -4.1561   -0.0672 C   0  0  1  0  0  0  0  0  0  0  0  0
    4.9216   -3.9339    1.3833 C   0  0  1  0  0  0  0  0  0  0  0  0
    6.3383   -4.1064    1.9532 C   0  0  0  0  0  0  0  0  0  0  0  0
    6.6858   -2.7741    1.5309 C   0  0  2  0  0  0  0  0  0  0  0  0
    5.8480   -1.9257    2.7295 C   0  0  2  0  0  0  0  0  0  0  0  0
    5.3104   -2.4703    4.1390 C   0  0  0  0  0  0  0  0  0  0  0  0
    3.8773   -2.0385    4.5809 C   0  0  0  0  0  0  0  0  0  0  0  0
    2.8168   -2.3248    3.4891 C   0  0  2  0  0  0  0  0  0  0  0  0
    2.8707   -3.7649    3.3609 O   0  0  0  0  0  0  0  0  0  0  0  0
    1.9635   -4.5055    2.4909 C   0  0  1  0  0  0  0  0  0  0  0  0
    2.2297   -4.3264    1.0792 O   0  0  0  0  0  0  0  0  0  0  0  0
    2.3357   -5.7604    0.8610 C   0  0  2  0  0  0  0  0  0  0  0  0
    2.2453   -6.0270    2.3421 C   0  0  1  0  0  0  0  0  0  0  0  0
    3.2309   -1.2923    2.3714 C   0  0  2  0  0  0  0  0  0  0  0  0
    2.4999   -1.1732    0.9327 C   0  0  0  0  0  0  0  0  0  0  0  0
    3.2244   -1.4019   -0.5532 C   0  0  1  0  0  0  0  0  0  0  0  0
    4.5807   -0.9669   -0.8596 O   0  0  0  0  0  0  0  0  0  0  0  0
    5.8129   -1.7664   -0.9200 C   0  0  0  0  0  0  0  0  0  0  0  0
    6.2340   -3.0524   -0.0558 C   0  0  2  0  0  0  0  0  0  0  0  0
    7.4865   -3.5877   -0.7939 C   0  0  0  0  0  0  0  0  0  0  0  0
    2.9319   -2.7321   -1.2613 C   0  0  1  0  0  0  0  0  0  0  0  0
    2.4258   -2.5458   -2.6989 C   0  0  0  0  0  0  0  0  0  0  0  0
    3.9688   -3.8679   -1.1781 C   0  0  1  0  0  0  0  0  0  0  0  0
    4.6210   -4.0325   -2.4291 O   0  0  0  0  0  0  0  0  0  0  0  0
    4.6442   -1.5139    1.9845 C   0  0  1  0  0  0  0  0  0  0  0  0
    5.0283   -0.2662    1.4018 O   0  0  0  0  0  0  0  0  0  0  0  0
    4.3306   -2.6562    1.2824 O   0  0  0  0  0  0  0  0  0  0  0  0
    4.5962   -5.6881    3.7477 H   0  0  0  0  0  0  0  0  0  0  0  0
    5.6379   -6.8427    2.9104 H   0  0  0  0  0  0  0  0  0  0  0  0
    4.4641   -7.3659    4.1321 H   0  0  0  0  0  0  0  0  0  0  0  0
    3.2622   -7.8777    2.1752 H   0  0  0  0  0  0  0  0  0  0  0  0
    3.6157   -7.3682    0.2190 H   0  0  0  0  0  0  0  0  0  0  0  0
    5.9230   -6.1854    0.4857 H   0  0  0  0  0  0  0  0  0  0  0  0
    5.0789   -6.1315   -0.9782 H   0  0  0  0  0  0  0  0  0  0  0  0
    4.3473   -4.5570    1.9808 H   0  0  0  0  0  0  0  0  0  0  0  0
    6.4296   -4.3859    2.9826 H   0  0  0  0  0  0  0  0  0  0  0  0
    6.9756   -4.8373    1.4865 H   0  0  0  0  0  0  0  0  0  0  0  0
    7.7641   -2.6876    1.4946 H   0  0  0  0  0  0  0  0  0  0  0  0
    6.4200   -1.0243    2.9542 H   0  0  0  0  0  0  0  0  0  0  0  0
    5.2783   -3.5429    4.2742 H   0  0  0  0  0  0  0  0  0  0  0  0
    5.9501   -2.1316    4.9477 H   0  0  0  0  0  0  0  0  0  0  0  0
    3.6273   -2.5677    5.5023 H   0  0  0  0  0  0  0  0  0  0  0  0
    3.8741   -0.9814    4.8407 H   0  0  0  0  0  0  0  0  0  0  0  0
    1.8320   -2.0597    3.8663 H   0  0  0  0  0  0  0  0  0  0  0  0
    0.9325   -4.3372    2.7294 H   0  0  0  0  0  0  0  0  0  0  0  0
    1.5310   -6.2087    0.2873 H   0  0  0  0  0  0  0  0  0  0  0  0
    1.3581   -6.6563    2.5542 H   0  0  0  0  0  0  0  0  0  0  0  0
    3.1552   -0.3139    2.8468 H   0  0  0  0  0  0  0  0  0  0  0  0
    1.6278   -1.8240    1.0269 H   0  0  0  0  0  0  0  0  0  0  0  0
    2.1231   -0.1485    0.9135 H   0  0  0  0  0  0  0  0  0  0  0  0
    2.6995   -0.6670   -1.1585 H   0  0  0  0  0  0  0  0  0  0  0  0
    5.9216   -1.9916   -1.9803 H   0  0  0  0  0  0  0  0  0  0  0  0
    6.5974   -1.0427   -0.7211 H   0  0  0  0  0  0  0  0  0  0  0  0
    8.2967   -2.8552   -0.7873 H   0  0  0  0  0  0  0  0  0  0  0  0
    7.2656   -3.8089   -1.8370 H   0  0  0  0  0  0  0  0  0  0  0  0
    7.8877   -4.4974   -0.3429 H   0  0  0  0  0  0  0  0  0  0  0  0
    2.0226   -3.0885   -0.7966 H   0  0  0  0  0  0  0  0  0  0  0  0
    3.1457   -2.0475   -3.3487 H   0  0  0  0  0  0  0  0  0  0  0  0
    1.5460   -1.9434   -2.6190 H   0  0  0  0  0  0  0  0  0  0  0  0
    2.1130   -3.4818   -3.1644 H   0  0  0  0  0  0  0  0  0  0  0  0
    3.2798   -4.6790   -1.1476 H   0  0  0  0  0  0  0  0  0  0  0  0
    4.2722   -4.8293   -2.7874 H   0  0  0  0  0  0  0  0  0  0  0  0
    4.4301   -0.0781    0.7011 H   0  0  0  0  0  0  0  0  0  0  0  0
  1  2  1  0
  1 32  1  0
  1 33  1  0
  1 34  1  0
  2 17  1  0
  2  3  1  0
  2 35  1  6
  3 16  1  0
  3  4  1  0
  3 36  1  6
  5  4  1  1
  4 37  1  0
  4 38  1  0
  5 23  1  0
  5 27  1  0
  5  6  1  0
  6 31  1  0
  6  7  1  0
  6 39  1  1
  7  8  1  0
  7 40  1  0
  7 41  1  0
  8 23  1  0
  8  9  1  0
  8 42  1  6
  9 29  1  0
  9 10  1  0
  9 43  1  1
 10 11  1  0
 10 44  1  0
 10 45  1  0
 11 12  1  0
 11 46  1  0
 11 47  1  0
 12 13  1  0
 12 18  1  0
 12 48  1  1
 13 14  1  0
 14 17  1  0
 14 15  1  0
 14 49  1  6
 15 16  1  0
 16 17  1  0
 16 50  1  6
 17 51  1  6
 18 19  1  0
 18 29  1  0
 18 52  1  1
 19 20  1  0
 19 53  1  0
 19 54  1  0
 20 21  1  0
 20 25  1  0
 20 55  1  6
 21 22  1  0
 22 23  1  0
 22 56  1  0
 22 57  1  0
 23 24  1  6
 24 58  1  0
 24 59  1  0
 24 60  1  0
 25 26  1  0
 25 27  1  0
 25 61  1  1
 26 62  1  0
 26 63  1  0
 26 64  1  0
 27 28  1  0
 27 65  1  6
 28 66  1  0
 29 30  1  6
 29 31  1  0
 30 67  1  0
M  END
>  <i_m_ct_stereo_status>  (240) 
1

>  <s_m_source_file>  (240) 
/var/tmp/pbs.5076255.sched01/tmpz7m1v8ep/860kfiy9lw.sdf

>  <i_m_source_file_index>  (240) 
25

>  <i_lp_mmshare_version>  (240) 
48012

>  <i_f3d_flags>  (240) 
0

>  <s_epik_input>  (240) 
W0NIM11bQ0BASF0xW0NASF0oW0NIMl0yKVtDQEhdKE8zKVtDQEBIXTFbQ0BIXTNPW0NAQEhdKFtDSDJdW0NIMl00KVtDQEBIXShbQ0BAXShPNSkoW09IXSlbQ0BASF00W0NASF02W0NIMl1bQ0BASF01W0NAXTI3OClbQ0gyXVtDQEhdKFtDQEBIXShbQ0gzXSlbQ0BIXThbT0hdKU9bQ0gyXVtDQEBdNjdbQ0gzXQ==

>  <s_epik_cmdline>  (240) 
J2VwaWtfcHl0aG9uJywgJy1waHQnLCAnMi4wJywgJy1waCcsICc3LjAnLCAnLXRuJywgJzgnLCAnLW1hJywgJzIwMCcsICctaW1hZScsICc8aW5maWxlLm1hZT4nLCAnLW9tYWUnLCAnPG91dGZpbGUubWFlPic=

>  <r_lp_tautomer_probability>  (240) 
1

>  <r_epik_Ionization_Penalty>  (240) 
3.83501e-07

>  <r_epik_Ionization_Penalty_Charging>  (240) 
0

>  <r_epik_Ionization_Penalty_Neutral>  (240) 
3.83501e-07

>  <r_epik_State_Penalty>  (240) 
-0

>  <r_epik_Charging_Adjusted_Penalty>  (240) 
0

>  <i_epik_Tot_Q>  (240) 
0

>  <i_epik_Tot_abs_Q>  (240) 
0

>  <s_epik_Chemistry_Notes>  (240) 
This compound contains an acetal/aminal-like group ( X-CH(R)-Y where X, Y are N, S, or O) that may be acid/base labile, releasing an aldehyde.

>  <s_lp_Force_Field>  (240) 
OPLS3e

>  <r_lp_Energy>  (240) 
338.182

>  <b_lp_Chiralities_Consistent>  (240) 
1

>  <s_lp_Variant>  (240) 
72:0-1

>  <s_i_glide_gridfile>  (240) 
pfpi4k_grid

>  <i_i_glide_lignum>  (240) 
25

>  <i_i_glide_rotatable_bonds>  (240) 
2

>  <r_i_docking_score>  (240) 
-2.03673

>  <r_i_glide_ligand_efficiency>  (240) 
-0.065701

>  <r_i_glide_ligand_efficiency_sa>  (240) 
-0.206392

>  <r_i_glide_ligand_efficiency_ln>  (240) 
-0.459345

>  <r_i_glide_gscore>  (240) 
-2.03673

>  <r_i_glide_lipo>  (240) 
-0.589691

>  <r_i_glide_hbond>  (240) 
-0.00221184

>  <r_i_glide_metal>  (240) 
-0

>  <r_i_glide_rewards>  (240) 
-0.520977

>  <r_i_glide_evdw>  (240) 
-5.12379

>  <r_i_glide_ecoul>  (240) 
-4.37332

>  <r_i_glide_erotb>  (240) 
0

>  <r_i_glide_esite>  (240) 
-0.0116624

>  <r_i_glide_emodel>  (240) 
-8.69382

>  <r_i_glide_energy>  (240) 
-9.49712

>  <r_i_glide_einternal>  (240) 
1.38575

>  <r_i_glide_intrahb_reward>  (240) 
-0

>  <i_i_glide_confnum>  (240) 
2

>  <i_i_glide_posenum>  (240) 
10

>  <r_i_glide_eff_state_penalty>  (240) 
0

>  <ligand_id>  (240) 
72

>  <original_smiles>  (240) 
CC1C2CC34C5CC6C7CCC(OC8OC2C81)C(CC(OCC63C)C(C)C4O)C7(O)O5

>  <smiles>  (240) 
[H]OC1([H])C([H])(C([H])([H])[H])C2([H])OC([H])([H])C3(C([H])([H])[H])C4([H])C([H])([H])C5([H])OC6(O[H])C([H])(C2([H])[H])C([H])(OC2([H])OC7([H])C2([H])C([H])(C([H])([H])[H])C7([H])C([H])([H])C513)C([H])([H])C([H])([H])C64[H]

$$$$
72:0:1
     RDKit          3D

 67 74  0  0  1  0  0  0  0  0999 V2000
    4.7187   -6.8687    2.8797 C   0  0  0  0  0  0  0  0  0  0  0  0
    3.6818   -6.9530    1.7596 C   0  0  2  0  0  0  0  0  0  0  0  0
    3.9251   -6.4350    0.3076 C   0  0  2  0  0  0  0  0  0  0  0  0
    5.2479   -5.7203   -0.2538 C   0  0  0  0  0  0  0  0  0  0  0  0
    5.2585   -4.1408   -0.2724 C   0  0  1  0  0  0  0  0  0  0  0  0
    5.0816   -4.0185    1.1887 C   0  0  1  0  0  0  0  0  0  0  0  0
    6.4857   -4.2312    1.8044 C   0  0  0  0  0  0  0  0  0  0  0  0
    6.8361   -2.8819    1.4732 C   0  0  2  0  0  0  0  0  0  0  0  0
    5.9668   -2.1006    2.6820 C   0  0  2  0  0  0  0  0  0  0  0  0
    5.3931   -2.7313    4.0447 C   0  0  0  0  0  0  0  0  0  0  0  0
    3.9363   -2.3365    4.4613 C   0  0  0  0  0  0  0  0  0  0  0  0
    2.9144   -2.5338    3.3148 C   0  0  2  0  0  0  0  0  0  0  0  0
    2.9663   -3.9635    3.0702 O   0  0  0  0  0  0  0  0  0  0  0  0
    2.0823   -4.6449    2.1518 C   0  0  1  0  0  0  0  0  0  0  0  0
    2.3041   -4.3634    0.7548 O   0  0  0  0  0  0  0  0  0  0  0  0
    2.4989   -5.7775    0.4220 C   0  0  2  0  0  0  0  0  0  0  0  0
    2.3417   -6.1700    1.8863 C   0  0  1  0  0  0  0  0  0  0  0  0
    3.3633   -1.4206    2.2857 C   0  0  2  0  0  0  0  0  0  0  0  0
    2.6589   -1.2185    0.8419 C   0  0  0  0  0  0  0  0  0  0  0  0
    3.4253   -1.3876   -0.6199 C   0  0  1  0  0  0  0  0  0  0  0  0
    4.7858   -0.9390   -0.8935 O   0  0  0  0  0  0  0  0  0  0  0  0
    6.0404   -1.7206   -0.9326 C   0  0  0  0  0  0  0  0  0  0  0  0
    6.4456   -3.0553   -0.1518 C   0  0  2  0  0  0  0  0  0  0  0  0
    7.7385   -3.5243   -0.8856 C   0  0  0  0  0  0  0  0  0  0  0  0
    3.1589   -2.6517   -1.4434 C   0  0  1  0  0  0  0  0  0  0  0  0
    2.7185   -2.3184   -2.8885 C   0  0  0  0  0  0  0  0  0  0  0  0
    4.2254   -3.8105   -1.4301 C   0  0  1  0  0  0  0  0  0  0  0  0
    4.9561   -3.8675   -2.6617 O   0  0  0  0  0  0  0  0  0  0  0  0
    4.7883   -1.6406    1.9266 C   0  0  1  0  0  0  0  0  0  0  0  0
    5.2219   -0.3877    1.4146 O   0  0  0  0  0  0  0  0  0  0  0  0
    4.4749   -2.7441    1.1521 O   0  0  0  0  0  0  0  0  0  0  0  0
    4.6763   -5.9103    3.3899 H   0  0  0  0  0  0  0  0  0  0  0  0
    5.7351   -7.0187    2.5137 H   0  0  0  0  0  0  0  0  0  0  0  0
    4.5195   -7.6114    3.6533 H   0  0  0  0  0  0  0  0  0  0  0  0
    3.4160   -7.9992    1.6277 H   0  0  0  0  0  0  0  0  0  0  0  0
    3.8375   -7.3241   -0.2938 H   0  0  0  0  0  0  0  0  0  0  0  0
    6.1255   -6.1992    0.1782 H   0  0  0  0  0  0  0  0  0  0  0  0
    5.3125   -5.9904   -1.2886 H   0  0  0  0  0  0  0  0  0  0  0  0
    4.4659   -4.6768    1.7044 H   0  0  0  0  0  0  0  0  0  0  0  0
    6.5801   -4.5605    2.8238 H   0  0  0  0  0  0  0  0  0  0  0  0
    7.1457   -4.9259    1.3079 H   0  0  0  0  0  0  0  0  0  0  0  0
    7.8993   -2.8015    1.4882 H   0  0  0  0  0  0  0  0  0  0  0  0
    6.5280   -1.2170    2.9680 H   0  0  0  0  0  0  0  0  0  0  0  0
    5.3386   -3.8114    4.0979 H   0  0  0  0  0  0  0  0  0  0  0  0
    6.0346   -2.4678    4.8780 H   0  0  0  0  0  0  0  0  0  0  0  0
    3.6421   -2.9225    5.3339 H   0  0  0  0  0  0  0  0  0  0  0  0
    3.9249   -1.2970    4.7926 H   0  0  0  0  0  0  0  0  0  0  0  0
    1.9120   -2.3088    3.6644 H   0  0  0  0  0  0  0  0  0  0  0  0
    1.0411   -4.4951    2.4308 H   0  0  0  0  0  0  0  0  0  0  0  0
    1.7413   -6.1907   -0.2403 H   0  0  0  0  0  0  0  0  0  0  0  0
    1.4687   -6.8088    2.0215 H   0  0  0  0  0  0  0  0  0  0  0  0
    3.2876   -0.4699    2.8316 H   0  0  0  0  0  0  0  0  0  0  0  0
    1.7732   -1.8554    0.8645 H   0  0  0  0  0  0  0  0  0  0  0  0
    2.2890   -0.1963    0.8724 H   0  0  0  0  0  0  0  0  0  0  0  0
    2.8930   -0.6631   -1.1995 H   0  0  0  0  0  0  0  0  0  0  0  0
    6.2274   -1.8443   -1.9987 H   0  0  0  0  0  0  0  0  0  0  0  0
    6.8098   -1.0232   -0.6168 H   0  0  0  0  0  0  0  0  0  0  0  0
    8.5465   -2.7939   -0.7780 H   0  0  0  0  0  0  0  0  0  0  0  0
    7.5895   -3.6596   -1.9548 H   0  0  0  0  0  0  0  0  0  0  0  0
    8.1352   -4.4594   -0.4972 H   0  0  0  0  0  0  0  0  0  0  0  0
    2.2366   -3.0583   -1.0544 H   0  0  0  0  0  0  0  0  0  0  0  0
    3.4874   -1.7754   -3.4492 H   0  0  0  0  0  0  0  0  0  0  0  0
    1.8404   -1.7142   -2.8253 H   0  0  0  0  0  0  0  0  0  0  0  0
    2.4367   -3.2087   -3.4533 H   0  0  0  0  0  0  0  0  0  0  0  0
    3.5641   -4.6529   -1.5100 H   0  0  0  0  0  0  0  0  0  0  0  0
    5.6130   -3.1987   -2.6554 H   0  0  0  0  0  0  0  0  0  0  0  0
    4.5759   -0.0775    0.7885 H   0  0  0  0  0  0  0  0  0  0  0  0
  1  2  1  0
  1 32  1  0
  1 33  1  0
  1 34  1  0
  2 17  1  0
  2  3  1  0
  2 35  1  6
  3 16  1  0
  3  4  1  0
  3 36  1  6
  5  4  1  1
  4 37  1  0
  4 38  1  0
  5 23  1  0
  5 27  1  0
  5  6  1  0
  6 31  1  0
  6  7  1  0
  6 39  1  1
  7  8  1  0
  7 40  1  0
  7 41  1  0
  8 23  1  0
  8  9  1  0
  8 42  1  6
  9 29  1  0
  9 10  1  0
  9 43  1  1
 10 11  1  0
 10 44  1  0
 10 45  1  0
 11 12  1  0
 11 46  1  0
 11 47  1  0
 12 13  1  0
 12 18  1  0
 12 48  1  1
 13 14  1  0
 14 17  1  0
 14 15  1  0
 14 49  1  1
 15 16  1  0
 16 17  1  0
 16 50  1  6
 17 51  1  6
 18 19  1  0
 18 29  1  0
 18 52  1  1
 19 20  1  0
 19 53  1  0
 19 54  1  0
 20 21  1  0
 20 25  1  0
 20 55  1  6
 21 22  1  0
 22 23  1  0
 22 56  1  0
 22 57  1  0
 23 24  1  6
 24 58  1  0
 24 59  1  0
 24 60  1  0
 25 26  1  0
 25 27  1  0
 25 61  1  1
 26 62  1  0
 26 63  1  0
 26 64  1  0
 27 28  1  0
 27 65  1  6
 28 66  1  0
 29 30  1  6
 29 31  1  0
 30 67  1  0
M  END
>  <i_m_ct_stereo_status>  (241) 
1

>  <s_m_source_file>  (241) 
/var/tmp/pbs.5076255.sched01/tmpz7m1v8ep/860kfiy9lw.sdf

>  <i_m_source_file_index>  (241) 
25

>  <i_lp_mmshare_version>  (241) 
48012

>  <i_f3d_flags>  (241) 
0

>  <s_epik_input>  (241) 
W0NIM11bQ0BASF0xW0NASF0oW0NIMl0yKVtDQEhdKE8zKVtDQEBIXTFbQ0BIXTNPW0NAQEhdKFtDSDJdW0NIMl00KVtDQEBIXShbQ0BAXShPNSkoW09IXSlbQ0BASF00W0NASF02W0NIMl1bQ0BASF01W0NAXTI3OClbQ0gyXVtDQEhdKFtDQEBIXShbQ0gzXSlbQ0BIXThbT0hdKU9bQ0gyXVtDQEBdNjdbQ0gzXQ==

>  <s_epik_cmdline>  (241) 
J2VwaWtfcHl0aG9uJywgJy1waHQnLCAnMi4wJywgJy1waCcsICc3LjAnLCAnLXRuJywgJzgnLCAnLW1hJywgJzIwMCcsICctaW1hZScsICc8aW5maWxlLm1hZT4nLCAnLW9tYWUnLCAnPG91dGZpbGUubWFlPic=

>  <r_lp_tautomer_probability>  (241) 
1

>  <r_epik_Ionization_Penalty>  (241) 
3.83501e-07

>  <r_epik_Ionization_Penalty_Charging>  (241) 
0

>  <r_epik_Ionization_Penalty_Neutral>  (241) 
3.83501e-07

>  <r_epik_State_Penalty>  (241) 
-0

>  <r_epik_Charging_Adjusted_Penalty>  (241) 
0

>  <i_epik_Tot_Q>  (241) 
0

>  <i_epik_Tot_abs_Q>  (241) 
0

>  <s_epik_Chemistry_Notes>  (241) 
This compound contains an acetal/aminal-like group ( X-CH(R)-Y where X, Y are N, S, or O) that may be acid/base labile, releasing an aldehyde.

>  <s_lp_Force_Field>  (241) 
OPLS3e

>  <r_lp_Energy>  (241) 
338.182

>  <b_lp_Chiralities_Consistent>  (241) 
1

>  <s_lp_Variant>  (241) 
72:0-1

>  <s_i_glide_gridfile>  (241) 
pfpi4k_grid

>  <i_i_glide_lignum>  (241) 
25

>  <i_i_glide_rotatable_bonds>  (241) 
2

>  <r_i_docking_score>  (241) 
-1.39325

>  <r_i_glide_ligand_efficiency>  (241) 
-0.0449436

>  <r_i_glide_ligand_efficiency_sa>  (241) 
-0.141185

>  <r_i_glide_ligand_efficiency_ln>  (241) 
-0.314221

>  <r_i_glide_gscore>  (241) 
-1.39325

>  <r_i_glide_lipo>  (241) 
-0.584168

>  <r_i_glide_hbond>  (241) 
-0.00223115

>  <r_i_glide_metal>  (241) 
-0

>  <r_i_glide_rewards>  (241) 
-0.534083

>  <r_i_glide_evdw>  (241) 
-6.45173

>  <r_i_glide_ecoul>  (241) 
0.456362

>  <r_i_glide_erotb>  (241) 
0

>  <r_i_glide_esite>  (241) 
-0.0186375

>  <r_i_glide_emodel>  (241) 
-6.03968

>  <r_i_glide_energy>  (241) 
-5.99537

>  <r_i_glide_einternal>  (241) 
0.221593

>  <r_i_glide_intrahb_reward>  (241) 
-0

>  <i_i_glide_confnum>  (241) 
2

>  <i_i_glide_posenum>  (241) 
37

>  <r_i_glide_eff_state_penalty>  (241) 
0

>  <ligand_id>  (241) 
72

>  <original_smiles>  (241) 
CC1C2CC34C5CC6C7CCC(OC8OC2C81)C(CC(OCC63C)C(C)C4O)C7(O)O5

>  <smiles>  (241) 
[H]OC1([H])C([H])(C([H])([H])[H])C2([H])OC([H])([H])C3(C([H])([H])[H])C4([H])C([H])([H])C5([H])OC6(O[H])C([H])(C2([H])[H])C([H])(OC2([H])OC7([H])C2([H])C([H])(C([H])([H])[H])C7([H])C([H])([H])C513)C([H])([H])C([H])([H])C64[H]

$$$$
73:0:0
     RDKit          3D

 45 49  0  0  1  0  0  0  0  0999 V2000
    8.0862   -6.6597    2.4753 C   0  0  0  0  0  0  0  0  0  0  0  0
    7.7744   -5.3967    1.9154 O   0  0  0  0  0  0  0  0  0  0  0  0
    6.5450   -5.2289    1.3211 C   0  0  0  0  0  0  0  0  0  0  0  0
    5.5181   -6.2202    1.2951 C   0  0  0  0  0  0  0  0  0  0  0  0
    4.2562   -5.9662    0.6975 C   0  0  0  0  0  0  0  0  0  0  0  0
    4.0218   -4.7355    0.0646 C   0  0  0  0  0  0  0  0  0  0  0  0
    5.0978   -3.8307    0.0589 C   0  0  0  0  0  0  0  0  0  0  0  0
    6.3048   -3.9831    0.7082 C   0  0  0  0  0  0  0  0  0  0  0  0
    7.0905   -2.8603    0.6631 O   0  0  0  0  0  0  0  0  0  0  0  0
    6.2417   -1.7889    0.1974 C   0  0  2  0  0  0  0  0  0  0  0  0
    5.6272   -1.0697    1.4066 C   0  0  0  0  0  0  0  0  0  0  0  0
    6.1946   -1.0383    2.4905 O   0  0  0  0  0  0  0  0  0  0  0  0
    4.2851   -0.3819    1.2227 C   0  0  0  0  0  0  0  0  0  0  0  0
    3.2791   -1.3388    0.5604 C   0  0  0  0  0  0  0  0  0  0  0  0
    3.7698   -1.8899   -0.8110 C   0  0  2  0  0  0  0  0  0  0  0  0
    3.8197   -0.7725   -1.6751 O   0  0  0  0  0  0  0  0  0  0  0  0
    2.8778   -2.9878   -1.4803 C   0  0  2  0  0  0  0  0  0  0  0  0
    2.7262   -4.2094   -0.5517 C   0  0  0  0  0  0  0  0  0  0  0  0
    3.3916   -3.4214   -2.8223 N   0  0  1  0  0  0  0  0  0  0  0  0
    2.9865   -2.5382   -3.9468 C   0  0  0  0  0  0  0  0  0  0  0  0
    4.8340   -3.7758   -2.8741 C   0  0  0  0  0  0  0  0  0  0  0  0
    5.7186   -2.7842   -2.1043 C   0  0  0  0  0  0  0  0  0  0  0  0
    5.1727   -2.5190   -0.6692 C   0  0  2  0  0  0  0  0  0  0  0  0
    9.0806   -6.6101    2.9149 H   0  0  0  0  0  0  0  0  0  0  0  0
    8.0999   -7.4368    1.7119 H   0  0  0  0  0  0  0  0  0  0  0  0
    7.3902   -6.9347    3.2670 H   0  0  0  0  0  0  0  0  0  0  0  0
    5.6613   -7.1832    1.7515 H   0  0  0  0  0  0  0  0  0  0  0  0
    3.4701   -6.7092    0.7244 H   0  0  0  0  0  0  0  0  0  0  0  0
    6.8131   -1.0532   -0.3630 H   0  0  0  0  0  0  0  0  0  0  0  0
    3.9151   -0.0506    2.1938 H   0  0  0  0  0  0  0  0  0  0  0  0
    4.4363    0.5119    0.6209 H   0  0  0  0  0  0  0  0  0  0  0  0
    3.0911   -2.1591    1.2551 H   0  0  0  0  0  0  0  0  0  0  0  0
    2.3350   -0.8072    0.4813 H   0  0  0  0  0  0  0  0  0  0  0  0
    2.9484   -0.3950   -1.7102 H   0  0  0  0  0  0  0  0  0  0  0  0
    1.8558   -2.6638   -1.6510 H   0  0  0  0  0  0  0  0  0  0  0  0
    2.1873   -4.9984   -1.0629 H   0  0  0  0  0  0  0  0  0  0  0  0
    2.0732   -3.9358    0.2742 H   0  0  0  0  0  0  0  0  0  0  0  0
    3.5743   -1.6198   -3.9820 H   0  0  0  0  0  0  0  0  0  0  0  0
    1.9271   -2.2719   -3.9097 H   0  0  0  0  0  0  0  0  0  0  0  0
    3.1585   -3.0625   -4.8863 H   0  0  0  0  0  0  0  0  0  0  0  0
    4.9778   -4.7725   -2.4568 H   0  0  0  0  0  0  0  0  0  0  0  0
    5.1694   -3.8478   -3.9105 H   0  0  0  0  0  0  0  0  0  0  0  0
    6.7410   -3.1686   -2.0678 H   0  0  0  0  0  0  0  0  0  0  0  0
    5.7841   -1.8489   -2.6688 H   0  0  0  0  0  0  0  0  0  0  0  0
    2.9185   -4.3040   -2.9932 H   0  0  0  0  0  0  0  0  0  0  0  0
  1  2  1  0
  1 24  1  0
  1 25  1  0
  1 26  1  0
  2  3  1  0
  3  8  2  0
  3  4  1  0
  4  5  2  0
  4 27  1  0
  5  6  1  0
  5 28  1  0
  6 18  1  0
  6  7  2  0
  7 23  1  0
  7  8  1  0
  8  9  1  0
  9 10  1  0
 10 23  1  0
 10 11  1  0
 10 29  1  6
 11 12  2  0
 11 13  1  0
 13 14  1  0
 13 30  1  0
 13 31  1  0
 14 15  1  0
 14 32  1  0
 14 33  1  0
 15 23  1  0
 15 16  1  6
 15 17  1  0
 16 34  1  0
 17 18  1  0
 17 19  1  0
 17 35  1  6
 18 36  1  0
 18 37  1  0
 19 20  1  0
 19 21  1  0
 19 45  1  6
 20 38  1  0
 20 39  1  0
 20 40  1  0
 21 22  1  0
 21 41  1  0
 21 42  1  0
 23 22  1  6
 22 43  1  0
 22 44  1  0
M  CHG  1  19   1
M  END
>  <i_m_ct_stereo_status>  (242) 
1

>  <s_m_source_file>  (242) 
/var/tmp/pbs.5076255.sched01/tmpz7m1v8ep/860kfiy9lw.sdf

>  <i_m_source_file_index>  (242) 
26

>  <i_lp_mmshare_version>  (242) 
48012

>  <i_f3d_flags>  (242) 
0

>  <s_epik_input>  (242) 
W0NAQF0xMjNjNGM1W2NIXVtjSF1jKE9bQ0gzXSljNE9bQ0BASF0xQyg9TylbQ0gyXVtDSDJdW0NAXTIoW09IXSlbQ0BIXShbQ0gyXTUpTihbQ0gzXSlbQ0gyXVtDSDJdMw==

>  <s_epik_cmdline>  (242) 
J2VwaWtfcHl0aG9uJywgJy1waHQnLCAnMi4wJywgJy1waCcsICc3LjAnLCAnLXRuJywgJzgnLCAnLW1hJywgJzIwMCcsICctaW1hZScsICc8aW5maWxlLm1hZT4nLCAnLW9tYWUnLCAnPG91dGZpbGUubWFlPic=

>  <r_lp_tautomer_probability>  (242) 
1

>  <r_epik_Ionization_Penalty>  (242) 
0.107017

>  <r_epik_Ionization_Penalty_Charging>  (242) 
0.107017

>  <r_epik_Ionization_Penalty_Neutral>  (242) 
3.97358e-07

>  <r_epik_State_Penalty>  (242) 
0.0968499

>  <r_epik_Charging_Adjusted_Penalty>  (242) 
0.203867

>  <i_epik_Tot_Q>  (242) 
1

>  <i_epik_Tot_abs_Q>  (242) 
1

>  <s_lp_Force_Field>  (242) 
OPLS3e

>  <r_lp_Energy>  (242) 
59.7313

>  <b_lp_Chiralities_Consistent>  (242) 
1

>  <s_lp_Variant>  (242) 
73:0-1

>  <s_i_glide_gridfile>  (242) 
pfpi4k_grid

>  <i_i_glide_lignum>  (242) 
26

>  <i_i_glide_rotatable_bonds>  (242) 
2

>  <r_i_docking_score>  (242) 
-4.24572

>  <r_i_glide_ligand_efficiency>  (242) 
-0.184596

>  <r_i_glide_ligand_efficiency_sa>  (242) 
-0.524968

>  <r_i_glide_ligand_efficiency_ln>  (242) 
-1.02665

>  <r_i_glide_gscore>  (242) 
-4.24572

>  <r_i_glide_lipo>  (242) 
-0.742152

>  <r_i_glide_hbond>  (242) 
0

>  <r_i_glide_metal>  (242) 
-0

>  <r_i_glide_rewards>  (242) 
-1.43179

>  <r_i_glide_evdw>  (242) 
-21.0054

>  <r_i_glide_ecoul>  (242) 
-6.67675

>  <r_i_glide_erotb>  (242) 
0

>  <r_i_glide_esite>  (242) 
-0.0199922

>  <r_i_glide_emodel>  (242) 
-35.3973

>  <r_i_glide_energy>  (242) 
-27.6822

>  <r_i_glide_einternal>  (242) 
0.0751575

>  <r_i_glide_intrahb_reward>  (242) 
-0

>  <i_i_glide_confnum>  (242) 
1

>  <i_i_glide_posenum>  (242) 
1

>  <r_i_glide_eff_state_penalty>  (242) 
0

>  <ligand_id>  (242) 
73

>  <original_smiles>  (242) 
COc1ccc2c3c1OC1C(=O)CCC4(O)C(C2)N(C)CCC314

>  <smiles>  (242) 
[H]OC12C([H])([H])C([H])([H])C(=O)C3([H])Oc4c(OC([H])([H])[H])c([H])c([H])c5c4C31C([H])([H])C([H])([H])[N+]([H])(C([H])([H])[H])C2([H])C5([H])[H]

$$$$
73:0:1
     RDKit          3D

 45 49  0  0  1  0  0  0  0  0999 V2000
    4.0454   -6.1371    5.5883 C   0  0  0  0  0  0  0  0  0  0  0  0
    4.5578   -6.0222    4.2728 O   0  0  0  0  0  0  0  0  0  0  0  0
    4.3422   -4.8474    3.5909 C   0  0  0  0  0  0  0  0  0  0  0  0
    3.6184   -3.7318    4.1056 C   0  0  0  0  0  0  0  0  0  0  0  0
    3.4686   -2.5323    3.3605 C   0  0  0  0  0  0  0  0  0  0  0  0
    3.9878   -2.4554    2.0551 C   0  0  0  0  0  0  0  0  0  0  0  0
    4.6278   -3.6127    1.5826 C   0  0  0  0  0  0  0  0  0  0  0  0
    4.8880   -4.7635    2.2959 C   0  0  0  0  0  0  0  0  0  0  0  0
    5.6788   -5.6577    1.6276 O   0  0  0  0  0  0  0  0  0  0  0  0
    6.2114   -4.9535    0.4883 C   0  0  2  0  0  0  0  0  0  0  0  0
    7.5880   -4.3695    0.8520 C   0  0  0  0  0  0  0  0  0  0  0  0
    8.3389   -4.9351    1.6424 O   0  0  0  0  0  0  0  0  0  0  0  0
    8.0313   -3.0898    0.1493 C   0  0  0  0  0  0  0  0  0  0  0  0
    6.9157   -2.0257    0.1850 C   0  0  0  0  0  0  0  0  0  0  0  0
    5.6032   -2.5287   -0.4654 C   0  0  2  0  0  0  0  0  0  0  0  0
    5.9603   -2.6785   -1.8317 O   0  0  0  0  0  0  0  0  0  0  0  0
    4.3769   -1.5656   -0.3667 C   0  0  2  0  0  0  0  0  0  0  0  0
    4.0348   -1.2524    1.1087 C   0  0  0  0  0  0  0  0  0  0  0  0
    3.1512   -2.0978   -1.0586 N   0  0  1  0  0  0  0  0  0  0  0  0
    3.0849   -1.8462   -2.5161 C   0  0  0  0  0  0  0  0  0  0  0  0
    2.7797   -3.4931   -0.7052 C   0  0  0  0  0  0  0  0  0  0  0  0
    3.9952   -4.4330   -0.6675 C   0  0  0  0  0  0  0  0  0  0  0  0
    5.1477   -3.8531    0.1930 C   0  0  2  0  0  0  0  0  0  0  0  0
    4.3145   -7.1149    5.9833 H   0  0  0  0  0  0  0  0  0  0  0  0
    2.9590   -6.0613    5.6008 H   0  0  0  0  0  0  0  0  0  0  0  0
    4.4715   -5.3827    6.2478 H   0  0  0  0  0  0  0  0  0  0  0  0
    3.1830   -3.7608    5.0897 H   0  0  0  0  0  0  0  0  0  0  0  0
    2.9603   -1.6763    3.7866 H   0  0  0  0  0  0  0  0  0  0  0  0
    6.3508   -5.6507   -0.3234 H   0  0  0  0  0  0  0  0  0  0  0  0
    8.9349   -2.7121    0.6304 H   0  0  0  0  0  0  0  0  0  0  0  0
    8.3086   -3.3519   -0.8717 H   0  0  0  0  0  0  0  0  0  0  0  0
    6.7561   -1.7337    1.2245 H   0  0  0  0  0  0  0  0  0  0  0  0
    7.2676   -1.1258   -0.3187 H   0  0  0  0  0  0  0  0  0  0  0  0
    5.2944   -3.1868   -2.2724 H   0  0  0  0  0  0  0  0  0  0  0  0
    4.6307   -0.6162   -0.8390 H   0  0  0  0  0  0  0  0  0  0  0  0
    3.0918   -0.7088    1.1718 H   0  0  0  0  0  0  0  0  0  0  0  0
    4.7899   -0.5722    1.4963 H   0  0  0  0  0  0  0  0  0  0  0  0
    3.7326   -2.5210   -3.0712 H   0  0  0  0  0  0  0  0  0  0  0  0
    3.3473   -0.8128   -2.7494 H   0  0  0  0  0  0  0  0  0  0  0  0
    2.0666   -2.0200   -2.8627 H   0  0  0  0  0  0  0  0  0  0  0  0
    2.2848   -3.4972    0.2683 H   0  0  0  0  0  0  0  0  0  0  0  0
    2.0315   -3.8724   -1.4039 H   0  0  0  0  0  0  0  0  0  0  0  0
    3.6762   -5.4069   -0.2870 H   0  0  0  0  0  0  0  0  0  0  0  0
    4.3499   -4.6241   -1.6861 H   0  0  0  0  0  0  0  0  0  0  0  0
    2.3671   -1.5342   -0.7280 H   0  0  0  0  0  0  0  0  0  0  0  0
  1  2  1  0
  1 24  1  0
  1 25  1  0
  1 26  1  0
  2  3  1  0
  3  8  2  0
  3  4  1  0
  4  5  2  0
  4 27  1  0
  5  6  1  0
  5 28  1  0
  6 18  1  0
  6  7  2  0
  7 23  1  0
  7  8  1  0
  8  9  1  0
  9 10  1  0
 10 23  1  0
 10 11  1  0
 10 29  1  6
 11 12  2  0
 11 13  1  0
 13 14  1  0
 13 30  1  0
 13 31  1  0
 14 15  1  0
 14 32  1  0
 14 33  1  0
 15 23  1  0
 15 16  1  6
 15 17  1  0
 16 34  1  0
 17 18  1  0
 17 19  1  0
 17 35  1  6
 18 36  1  0
 18 37  1  0
 19 20  1  0
 19 21  1  0
 19 45  1  1
 20 38  1  0
 20 39  1  0
 20 40  1  0
 21 22  1  0
 21 41  1  0
 21 42  1  0
 23 22  1  6
 22 43  1  0
 22 44  1  0
M  CHG  1  19   1
M  END
>  <i_m_ct_stereo_status>  (243) 
1

>  <s_m_source_file>  (243) 
/var/tmp/pbs.5076255.sched01/tmpz7m1v8ep/860kfiy9lw.sdf

>  <i_m_source_file_index>  (243) 
26

>  <i_lp_mmshare_version>  (243) 
48012

>  <i_f3d_flags>  (243) 
0

>  <s_epik_input>  (243) 
W0NAQF0xMjNjNGM1W2NIXVtjSF1jKE9bQ0gzXSljNE9bQ0BASF0xQyg9TylbQ0gyXVtDSDJdW0NAXTIoW09IXSlbQ0BIXShbQ0gyXTUpTihbQ0gzXSlbQ0gyXVtDSDJdMw==

>  <s_epik_cmdline>  (243) 
J2VwaWtfcHl0aG9uJywgJy1waHQnLCAnMi4wJywgJy1waCcsICc3LjAnLCAnLXRuJywgJzgnLCAnLW1hJywgJzIwMCcsICctaW1hZScsICc8aW5maWxlLm1hZT4nLCAnLW9tYWUnLCAnPG91dGZpbGUubWFlPic=

>  <r_lp_tautomer_probability>  (243) 
1

>  <r_epik_Ionization_Penalty>  (243) 
0.107017

>  <r_epik_Ionization_Penalty_Charging>  (243) 
0.107017

>  <r_epik_Ionization_Penalty_Neutral>  (243) 
3.97358e-07

>  <r_epik_State_Penalty>  (243) 
0.0968499

>  <r_epik_Charging_Adjusted_Penalty>  (243) 
0.203867

>  <i_epik_Tot_Q>  (243) 
1

>  <i_epik_Tot_abs_Q>  (243) 
1

>  <s_lp_Force_Field>  (243) 
OPLS3e

>  <r_lp_Energy>  (243) 
59.7313

>  <b_lp_Chiralities_Consistent>  (243) 
1

>  <s_lp_Variant>  (243) 
73:0-1

>  <s_i_glide_gridfile>  (243) 
pfpi4k_grid

>  <i_i_glide_lignum>  (243) 
26

>  <i_i_glide_rotatable_bonds>  (243) 
2

>  <r_i_docking_score>  (243) 
-4.00466

>  <r_i_glide_ligand_efficiency>  (243) 
-0.174116

>  <r_i_glide_ligand_efficiency_sa>  (243) 
-0.495161

>  <r_i_glide_ligand_efficiency_ln>  (243) 
-0.968363

>  <r_i_glide_gscore>  (243) 
-4.00466

>  <r_i_glide_lipo>  (243) 
-0.417399

>  <r_i_glide_hbond>  (243) 
-0.2

>  <r_i_glide_metal>  (243) 
-0

>  <r_i_glide_rewards>  (243) 
-1.44954

>  <r_i_glide_evdw>  (243) 
-18.4775

>  <r_i_glide_ecoul>  (243) 
-6.14369

>  <r_i_glide_erotb>  (243) 
0

>  <r_i_glide_esite>  (243) 
-0.0922917

>  <r_i_glide_emodel>  (243) 
-31.9965

>  <r_i_glide_energy>  (243) 
-24.6212

>  <r_i_glide_einternal>  (243) 
0.0379538

>  <r_i_glide_intrahb_reward>  (243) 
-0

>  <i_i_glide_confnum>  (243) 
2

>  <i_i_glide_posenum>  (243) 
25

>  <r_i_glide_eff_state_penalty>  (243) 
0

>  <ligand_id>  (243) 
73

>  <original_smiles>  (243) 
COc1ccc2c3c1OC1C(=O)CCC4(O)C(C2)N(C)CCC314

>  <smiles>  (243) 
[H]OC12C([H])([H])C([H])([H])C(=O)C3([H])Oc4c(OC([H])([H])[H])c([H])c([H])c5c4C31C([H])([H])C([H])([H])[N+]([H])(C([H])([H])[H])C2([H])C5([H])[H]

$$$$
73:0:2
     RDKit          3D

 45 49  0  0  1  0  0  0  0  0999 V2000
    1.6679   -6.7088    3.8680 C   0  0  0  0  0  0  0  0  0  0  0  0
    2.5783   -6.4233    2.8208 O   0  0  0  0  0  0  0  0  0  0  0  0
    2.7683   -5.1086    2.4637 C   0  0  0  0  0  0  0  0  0  0  0  0
    2.0870   -3.9992    3.0483 C   0  0  0  0  0  0  0  0  0  0  0  0
    2.3602   -2.6639    2.6522 C   0  0  0  0  0  0  0  0  0  0  0  0
    3.2835   -2.4214    1.6209 C   0  0  0  0  0  0  0  0  0  0  0  0
    3.8742   -3.5548    1.0405 C   0  0  0  0  0  0  0  0  0  0  0  0
    3.7142   -4.8637    1.4493 C   0  0  0  0  0  0  0  0  0  0  0  0
    4.5413   -5.7388    0.8037 O   0  0  0  0  0  0  0  0  0  0  0  0
    5.5179   -4.9349    0.1107 C   0  0  2  0  0  0  0  0  0  0  0  0
    6.7525   -4.7593    1.0117 C   0  0  0  0  0  0  0  0  0  0  0  0
    7.0642   -5.5938    1.8578 O   0  0  0  0  0  0  0  0  0  0  0  0
    7.5920   -3.5007    0.8257 C   0  0  0  0  0  0  0  0  0  0  0  0
    6.7048   -2.2363    0.8311 C   0  0  0  0  0  0  0  0  0  0  0  0
    5.6141   -2.2892   -0.2661 C   0  0  2  0  0  0  0  0  0  0  0  0
    6.3596   -2.2152   -1.4745 O   0  0  0  0  0  0  0  0  0  0  0  0
    4.5623   -1.1292   -0.2464 C   0  0  2  0  0  0  0  0  0  0  0  0
    3.8024   -1.0805    1.1015 C   0  0  0  0  0  0  0  0  0  0  0  0
    3.5650   -1.2175   -1.3709 N   0  0  1  0  0  0  0  0  0  0  0  0
    4.0075   -0.6369   -2.6617 C   0  0  0  0  0  0  0  0  0  0  0  0
    2.9211   -2.5377   -1.5473 C   0  0  0  0  0  0  0  0  0  0  0  0
    3.9187   -3.6912   -1.4258 C   0  0  0  0  0  0  0  0  0  0  0  0
    4.7893   -3.5867   -0.1520 C   0  0  2  0  0  0  0  0  0  0  0  0
    1.6527   -7.7845    4.0354 H   0  0  0  0  0  0  0  0  0  0  0  0
    0.6556   -6.3998    3.6097 H   0  0  0  0  0  0  0  0  0  0  0  0
    1.9668   -6.2323    4.8013 H   0  0  0  0  0  0  0  0  0  0  0  0
    1.3549   -4.1478    3.8226 H   0  0  0  0  0  0  0  0  0  0  0  0
    1.8637   -1.8307    3.1369 H   0  0  0  0  0  0  0  0  0  0  0  0
    5.8067   -5.4329   -0.8123 H   0  0  0  0  0  0  0  0  0  0  0  0
    8.3400   -3.4567    1.6170 H   0  0  0  0  0  0  0  0  0  0  0  0
    8.1404   -3.5953   -0.1096 H   0  0  0  0  0  0  0  0  0  0  0  0
    6.2537   -2.1477    1.8210 H   0  0  0  0  0  0  0  0  0  0  0  0
    7.3354   -1.3531    0.7041 H   0  0  0  0  0  0  0  0  0  0  0  0
    5.8474   -2.5950   -2.1741 H   0  0  0  0  0  0  0  0  0  0  0  0
    5.0876   -0.1781   -0.3411 H   0  0  0  0  0  0  0  0  0  0  0  0
    2.9753   -0.3716    1.0471 H   0  0  0  0  0  0  0  0  0  0  0  0
    4.4750   -0.6817    1.8593 H   0  0  0  0  0  0  0  0  0  0  0  0
    4.6997   -1.3024   -3.1769 H   0  0  0  0  0  0  0  0  0  0  0  0
    4.4919    0.3332   -2.5296 H   0  0  0  0  0  0  0  0  0  0  0  0
    3.1476   -0.4908   -3.3206 H   0  0  0  0  0  0  0  0  0  0  0  0
    2.1604   -2.6574   -0.7826 H   0  0  0  0  0  0  0  0  0  0  0  0
    2.3774   -2.5754   -2.4918 H   0  0  0  0  0  0  0  0  0  0  0  0
    3.3470   -4.6095   -1.3546 H   0  0  0  0  0  0  0  0  0  0  0  0
    4.5189   -3.7530   -2.3410 H   0  0  0  0  0  0  0  0  0  0  0  0
    2.7845   -0.6393   -1.0898 H   0  0  0  0  0  0  0  0  0  0  0  0
  1  2  1  0
  1 24  1  0
  1 25  1  0
  1 26  1  0
  2  3  1  0
  3  8  2  0
  3  4  1  0
  4  5  2  0
  4 27  1  0
  5  6  1  0
  5 28  1  0
  6 18  1  0
  6  7  2  0
  7 23  1  0
  7  8  1  0
  8  9  1  0
  9 10  1  0
 10 23  1  0
 10 11  1  0
 10 29  1  6
 11 12  2  0
 11 13  1  0
 13 14  1  0
 13 30  1  0
 13 31  1  0
 14 15  1  0
 14 32  1  0
 14 33  1  0
 15 23  1  0
 15 16  1  6
 15 17  1  0
 16 34  1  0
 17 18  1  0
 17 19  1  0
 17 35  1  6
 18 36  1  0
 18 37  1  0
 19 20  1  0
 19 21  1  0
 19 45  1  1
 20 38  1  0
 20 39  1  0
 20 40  1  0
 21 22  1  0
 21 41  1  0
 21 42  1  0
 23 22  1  6
 22 43  1  0
 22 44  1  0
M  CHG  1  19   1
M  END
>  <i_m_ct_stereo_status>  (244) 
1

>  <s_m_source_file>  (244) 
/var/tmp/pbs.5076255.sched01/tmpz7m1v8ep/860kfiy9lw.sdf

>  <i_m_source_file_index>  (244) 
26

>  <i_lp_mmshare_version>  (244) 
48012

>  <i_f3d_flags>  (244) 
0

>  <s_epik_input>  (244) 
W0NAQF0xMjNjNGM1W2NIXVtjSF1jKE9bQ0gzXSljNE9bQ0BASF0xQyg9TylbQ0gyXVtDSDJdW0NAXTIoW09IXSlbQ0BIXShbQ0gyXTUpTihbQ0gzXSlbQ0gyXVtDSDJdMw==

>  <s_epik_cmdline>  (244) 
J2VwaWtfcHl0aG9uJywgJy1waHQnLCAnMi4wJywgJy1waCcsICc3LjAnLCAnLXRuJywgJzgnLCAnLW1hJywgJzIwMCcsICctaW1hZScsICc8aW5maWxlLm1hZT4nLCAnLW9tYWUnLCAnPG91dGZpbGUubWFlPic=

>  <r_lp_tautomer_probability>  (244) 
1

>  <r_epik_Ionization_Penalty>  (244) 
0.107017

>  <r_epik_Ionization_Penalty_Charging>  (244) 
0.107017

>  <r_epik_Ionization_Penalty_Neutral>  (244) 
3.97358e-07

>  <r_epik_State_Penalty>  (244) 
0.0968499

>  <r_epik_Charging_Adjusted_Penalty>  (244) 
0.203867

>  <i_epik_Tot_Q>  (244) 
1

>  <i_epik_Tot_abs_Q>  (244) 
1

>  <s_lp_Force_Field>  (244) 
OPLS3e

>  <r_lp_Energy>  (244) 
59.7313

>  <b_lp_Chiralities_Consistent>  (244) 
1

>  <s_lp_Variant>  (244) 
73:0-1

>  <s_i_glide_gridfile>  (244) 
pfpi4k_grid

>  <i_i_glide_lignum>  (244) 
26

>  <i_i_glide_rotatable_bonds>  (244) 
2

>  <r_i_docking_score>  (244) 
-3.96191

>  <r_i_glide_ligand_efficiency>  (244) 
-0.172257

>  <r_i_glide_ligand_efficiency_sa>  (244) 
-0.489876

>  <r_i_glide_ligand_efficiency_ln>  (244) 
-0.958026

>  <r_i_glide_gscore>  (244) 
-3.96191

>  <r_i_glide_lipo>  (244) 
-0.408216

>  <r_i_glide_hbond>  (244) 
-0.233722

>  <r_i_glide_metal>  (244) 
-0

>  <r_i_glide_rewards>  (244) 
-1.39952

>  <r_i_glide_evdw>  (244) 
-17.758

>  <r_i_glide_ecoul>  (244) 
-6.31046

>  <r_i_glide_erotb>  (244) 
0

>  <r_i_glide_esite>  (244) 
-0.0859843

>  <r_i_glide_emodel>  (244) 
-31.1375

>  <r_i_glide_energy>  (244) 
-24.0684

>  <r_i_glide_einternal>  (244) 
0.228184

>  <r_i_glide_intrahb_reward>  (244) 
-0

>  <i_i_glide_confnum>  (244) 
2

>  <i_i_glide_posenum>  (244) 
2

>  <r_i_glide_eff_state_penalty>  (244) 
0

>  <ligand_id>  (244) 
73

>  <original_smiles>  (244) 
COc1ccc2c3c1OC1C(=O)CCC4(O)C(C2)N(C)CCC314

>  <smiles>  (244) 
[H]OC12C([H])([H])C([H])([H])C(=O)C3([H])Oc4c(OC([H])([H])[H])c([H])c([H])c5c4C31C([H])([H])C([H])([H])[N+]([H])(C([H])([H])[H])C2([H])C5([H])[H]

$$$$
73:1:0
     RDKit          3D

 44 48  0  0  1  0  0  0  0  0999 V2000
    3.4874    0.0359   -4.3882 C   0  0  0  0  0  0  0  0  0  0  0  0
    4.2129   -0.2921   -3.2135 O   0  0  0  0  0  0  0  0  0  0  0  0
    3.7993   -1.3792   -2.4738 C   0  0  0  0  0  0  0  0  0  0  0  0
    2.8005   -2.3056   -2.8985 C   0  0  0  0  0  0  0  0  0  0  0  0
    2.4354   -3.4102   -2.0864 C   0  0  0  0  0  0  0  0  0  0  0  0
    3.0226   -3.5843   -0.8186 C   0  0  0  0  0  0  0  0  0  0  0  0
    3.9620   -2.6113   -0.4442 C   0  0  0  0  0  0  0  0  0  0  0  0
    4.4260   -1.5707   -1.2196 C   0  0  0  0  0  0  0  0  0  0  0  0
    5.4646   -0.8863   -0.6448 O   0  0  0  0  0  0  0  0  0  0  0  0
    5.9215   -1.6998    0.4590 C   0  0  2  0  0  0  0  0  0  0  0  0
    7.0549   -2.6047   -0.0572 C   0  0  0  0  0  0  0  0  0  0  0  0
    7.7765   -2.2642   -0.9893 O   0  0  0  0  0  0  0  0  0  0  0  0
    7.2581   -3.9640    0.6094 C   0  0  0  0  0  0  0  0  0  0  0  0
    5.9214   -4.7233    0.7299 C   0  0  0  0  0  0  0  0  0  0  0  0
    4.8635   -3.9052    1.5123 C   0  0  2  0  0  0  0  0  0  0  0  0
    5.4096   -3.8195    2.8201 O   0  0  0  0  0  0  0  0  0  0  0  0
    3.4354   -4.5496    1.5697 C   0  0  2  0  0  0  0  0  0  0  0  0
    2.8662   -4.7538    0.1495 C   0  0  0  0  0  0  0  0  0  0  0  0
    2.4600   -3.7830    2.3804 N   0  0  0  0  0  0  0  0  0  0  0  0
    2.4745   -4.0623    3.8038 C   0  0  0  0  0  0  0  0  0  0  0  0
    2.3964   -2.3507    2.0479 C   0  0  0  0  0  0  0  0  0  0  0  0
    3.7719   -1.6821    1.8553 C   0  0  0  0  0  0  0  0  0  0  0  0
    4.6570   -2.5085    0.8840 C   0  0  2  0  0  0  0  0  0  0  0  0
    3.9549    0.9045   -4.8439 H   0  0  0  0  0  0  0  0  0  0  0  0
    2.4553    0.2938   -4.1505 H   0  0  0  0  0  0  0  0  0  0  0  0
    3.5060   -0.7723   -5.1206 H   0  0  0  0  0  0  0  0  0  0  0  0
    2.3018   -2.1978   -3.8441 H   0  0  0  0  0  0  0  0  0  0  0  0
    1.7209   -4.1324   -2.4462 H   0  0  0  0  0  0  0  0  0  0  0  0
    6.3185   -1.0891    1.2678 H   0  0  0  0  0  0  0  0  0  0  0  0
    7.9791   -4.5520    0.0385 H   0  0  0  0  0  0  0  0  0  0  0  0
    7.6949   -3.7949    1.5911 H   0  0  0  0  0  0  0  0  0  0  0  0
    5.5690   -4.9478   -0.2779 H   0  0  0  0  0  0  0  0  0  0  0  0
    6.0943   -5.6859    1.2146 H   0  0  0  0  0  0  0  0  0  0  0  0
    5.4858   -4.6911    3.1714 H   0  0  0  0  0  0  0  0  0  0  0  0
    3.5180   -5.5432    2.0044 H   0  0  0  0  0  0  0  0  0  0  0  0
    1.8125   -5.0107    0.2189 H   0  0  0  0  0  0  0  0  0  0  0  0
    3.3476   -5.6180   -0.2978 H   0  0  0  0  0  0  0  0  0  0  0  0
    1.6008   -3.6244    4.2854 H   0  0  0  0  0  0  0  0  0  0  0  0
    3.3608   -3.6654    4.2973 H   0  0  0  0  0  0  0  0  0  0  0  0
    2.4279   -5.1354    3.9853 H   0  0  0  0  0  0  0  0  0  0  0  0
    1.8183   -2.2162    1.1314 H   0  0  0  0  0  0  0  0  0  0  0  0
    1.8375   -1.8156    2.8150 H   0  0  0  0  0  0  0  0  0  0  0  0
    3.6276   -0.6640    1.4841 H   0  0  0  0  0  0  0  0  0  0  0  0
    4.2632   -1.5754    2.8236 H   0  0  0  0  0  0  0  0  0  0  0  0
  1  2  1  0
  1 24  1  0
  1 25  1  0
  1 26  1  0
  2  3  1  0
  3  8  2  0
  3  4  1  0
  4  5  2  0
  4 27  1  0
  5  6  1  0
  5 28  1  0
  6 18  1  0
  6  7  2  0
  7 23  1  0
  7  8  1  0
  8  9  1  0
  9 10  1  0
 10 23  1  0
 10 11  1  0
 10 29  1  1
 11 12  2  0
 11 13  1  0
 13 14  1  0
 13 30  1  0
 13 31  1  0
 14 15  1  0
 14 32  1  0
 14 33  1  0
 15 23  1  0
 15 16  1  1
 15 17  1  0
 16 34  1  0
 17 18  1  0
 17 19  1  0
 17 35  1  1
 18 36  1  0
 18 37  1  0
 19 20  1  0
 19 21  1  0
 20 38  1  0
 20 39  1  0
 20 40  1  0
 21 22  1  0
 21 41  1  0
 21 42  1  0
 23 22  1  1
 22 43  1  0
 22 44  1  0
M  END
>  <i_m_ct_stereo_status>  (245) 
1

>  <s_m_source_file>  (245) 
/var/tmp/pbs.5076255.sched01/tmpz7m1v8ep/860kfiy9lw.sdf

>  <i_m_source_file_index>  (245) 
27

>  <i_lp_mmshare_version>  (245) 
48012

>  <i_f3d_flags>  (245) 
0

>  <s_epik_input>  (245) 
W0NAQF0xMjNjNGM1W2NIXVtjSF1jKE9bQ0gzXSljNE9bQ0BASF0xQyg9TylbQ0gyXVtDSDJdW0NAXTIoW09IXSlbQ0BIXShbQ0gyXTUpTihbQ0gzXSlbQ0gyXVtDSDJdMw==

>  <s_epik_cmdline>  (245) 
J2VwaWtfcHl0aG9uJywgJy1waHQnLCAnMi4wJywgJy1waCcsICc3LjAnLCAnLXRuJywgJzgnLCAnLW1hJywgJzIwMCcsICctaW1hZScsICc8aW5maWxlLm1hZT4nLCAnLW9tYWUnLCAnPG91dGZpbGUubWFlPic=

>  <r_lp_tautomer_probability>  (245) 
1

>  <r_epik_Ionization_Penalty>  (245) 
1.06665

>  <r_epik_Ionization_Penalty_Charging>  (245) 
0

>  <r_epik_Ionization_Penalty_Neutral>  (245) 
1.06665

>  <r_epik_State_Penalty>  (245) 
1.12085

>  <r_epik_Charging_Adjusted_Penalty>  (245) 
1.12085

>  <i_epik_Tot_Q>  (245) 
0

>  <i_epik_Tot_abs_Q>  (245) 
0

>  <s_lp_Force_Field>  (245) 
OPLS3e

>  <r_lp_Energy>  (245) 
56.4362

>  <b_lp_Chiralities_Consistent>  (245) 
1

>  <s_lp_Variant>  (245) 
73:0-2

>  <s_i_glide_gridfile>  (245) 
pfpi4k_grid

>  <i_i_glide_lignum>  (245) 
27

>  <i_i_glide_rotatable_bonds>  (245) 
2

>  <r_i_docking_score>  (245) 
-3.74766

>  <r_i_glide_ligand_efficiency>  (245) 
-0.162942

>  <r_i_glide_ligand_efficiency_sa>  (245) 
-0.463384

>  <r_i_glide_ligand_efficiency_ln>  (245) 
-0.906218

>  <r_i_glide_gscore>  (245) 
-3.74766

>  <r_i_glide_lipo>  (245) 
-0.707328

>  <r_i_glide_hbond>  (245) 
-0.16

>  <r_i_glide_metal>  (245) 
-0

>  <r_i_glide_rewards>  (245) 
-1.31064

>  <r_i_glide_evdw>  (245) 
-25.2517

>  <r_i_glide_ecoul>  (245) 
-2.04739

>  <r_i_glide_erotb>  (245) 
0

>  <r_i_glide_esite>  (245) 
0

>  <r_i_glide_emodel>  (245) 
-33.9424

>  <r_i_glide_energy>  (245) 
-27.299

>  <r_i_glide_einternal>  (245) 
0.177312

>  <r_i_glide_intrahb_reward>  (245) 
-0

>  <i_i_glide_confnum>  (245) 
1

>  <i_i_glide_posenum>  (245) 
18

>  <r_i_glide_eff_state_penalty>  (245) 
0

>  <ligand_id>  (245) 
73

>  <original_smiles>  (245) 
COc1ccc2c3c1OC1C(=O)CCC4(O)C(C2)N(C)CCC314

>  <smiles>  (245) 
[H]OC12C([H])([H])C([H])([H])C(=O)C3([H])Oc4c(OC([H])([H])[H])c([H])c([H])c5c4C31C([H])([H])C([H])([H])N(C([H])([H])[H])C2([H])C5([H])[H]

$$$$
73:1:1
     RDKit          3D

 44 48  0  0  1  0  0  0  0  0999 V2000
    2.2227   -5.6182    4.7052 C   0  0  0  0  0  0  0  0  0  0  0  0
    3.0081   -5.6120    3.5266 O   0  0  0  0  0  0  0  0  0  0  0  0
    3.2864   -4.4006    2.9320 C   0  0  0  0  0  0  0  0  0  0  0  0
    2.8310   -3.1411    3.4219 C   0  0  0  0  0  0  0  0  0  0  0  0
    3.1894   -1.9260    2.7799 C   0  0  0  0  0  0  0  0  0  0  0  0
    3.9577   -1.9566    1.6014 C   0  0  0  0  0  0  0  0  0  0  0  0
    4.3224   -3.2302    1.1374 C   0  0  0  0  0  0  0  0  0  0  0  0
    4.0823   -4.4329    1.7688 C   0  0  0  0  0  0  0  0  0  0  0  0
    4.7094   -5.4960    1.1671 O   0  0  0  0  0  0  0  0  0  0  0  0
    5.6718   -4.9289    0.2498 C   0  0  2  0  0  0  0  0  0  0  0  0
    7.0258   -4.7857    0.9760 C   0  0  0  0  0  0  0  0  0  0  0  0
    7.3546   -5.5455    1.8836 O   0  0  0  0  0  0  0  0  0  0  0  0
    7.9608   -3.6605    0.5374 C   0  0  0  0  0  0  0  0  0  0  0  0
    7.2115   -2.3152    0.4465 C   0  0  0  0  0  0  0  0  0  0  0  0
    6.0096   -2.3923   -0.5209 C   0  0  2  0  0  0  0  0  0  0  0  0
    6.6157   -2.5904   -1.7852 O   0  0  0  0  0  0  0  0  0  0  0  0
    5.1107   -1.1138   -0.5818 C   0  0  2  0  0  0  0  0  0  0  0  0
    4.5196   -0.7777    0.8054 C   0  0  0  0  0  0  0  0  0  0  0  0
    4.0217   -1.2121   -1.5774 N   0  0  0  0  0  0  0  0  0  0  0  0
    4.3512   -0.8220   -2.9327 C   0  0  0  0  0  0  0  0  0  0  0  0
    3.2048   -2.4256   -1.4774 C   0  0  0  0  0  0  0  0  0  0  0  0
    4.0238   -3.7138   -1.2899 C   0  0  0  0  0  0  0  0  0  0  0  0
    5.0546   -3.5499   -0.1390 C   0  0  2  0  0  0  0  0  0  0  0  0
    2.1116   -6.6454    5.0445 H   0  0  0  0  0  0  0  0  0  0  0  0
    1.2261   -5.2189    4.5214 H   0  0  0  0  0  0  0  0  0  0  0  0
    2.7006   -5.0543    5.5052 H   0  0  0  0  0  0  0  0  0  0  0  0
    2.2185   -3.0747    4.3053 H   0  0  0  0  0  0  0  0  0  0  0  0
    2.8759   -0.9770    3.1907 H   0  0  0  0  0  0  0  0  0  0  0  0
    5.8140   -5.5770   -0.6142 H   0  0  0  0  0  0  0  0  0  0  0  0
    8.7883   -3.5856    1.2447 H   0  0  0  0  0  0  0  0  0  0  0  0
    8.3885   -3.9359   -0.4258 H   0  0  0  0  0  0  0  0  0  0  0  0
    6.8787   -2.0413    1.4478 H   0  0  0  0  0  0  0  0  0  0  0  0
    7.9074   -1.5380    0.1286 H   0  0  0  0  0  0  0  0  0  0  0  0
    5.9390   -2.8717   -2.3827 H   0  0  0  0  0  0  0  0  0  0  0  0
    5.7320   -0.2623   -0.8535 H   0  0  0  0  0  0  0  0  0  0  0  0
    3.7390   -0.0258    0.6963 H   0  0  0  0  0  0  0  0  0  0  0  0
    5.2941   -0.3150    1.4093 H   0  0  0  0  0  0  0  0  0  0  0  0
    3.4449   -0.7016   -3.5241 H   0  0  0  0  0  0  0  0  0  0  0  0
    4.9860   -1.5509   -3.4324 H   0  0  0  0  0  0  0  0  0  0  0  0
    4.8511    0.1431   -2.9219 H   0  0  0  0  0  0  0  0  0  0  0  0
    2.5337   -2.3275   -0.6247 H   0  0  0  0  0  0  0  0  0  0  0  0
    2.5526   -2.5138   -2.3467 H   0  0  0  0  0  0  0  0  0  0  0  0
    3.3387   -4.5369   -1.0791 H   0  0  0  0  0  0  0  0  0  0  0  0
    4.5144   -3.9768   -2.2280 H   0  0  0  0  0  0  0  0  0  0  0  0
  1  2  1  0
  1 24  1  0
  1 25  1  0
  1 26  1  0
  2  3  1  0
  3  8  2  0
  3  4  1  0
  4  5  2  0
  4 27  1  0
  5  6  1  0
  5 28  1  0
  6 18  1  0
  6  7  2  0
  7 23  1  0
  7  8  1  0
  8  9  1  0
  9 10  1  0
 10 23  1  0
 10 11  1  0
 10 29  1  6
 11 12  2  0
 11 13  1  0
 13 14  1  0
 13 30  1  0
 13 31  1  0
 14 15  1  0
 14 32  1  0
 14 33  1  0
 15 23  1  0
 15 16  1  6
 15 17  1  0
 16 34  1  0
 17 18  1  0
 17 19  1  0
 17 35  1  6
 18 36  1  0
 18 37  1  0
 19 20  1  0
 19 21  1  0
 20 38  1  0
 20 39  1  0
 20 40  1  0
 21 22  1  0
 21 41  1  0
 21 42  1  0
 23 22  1  6
 22 43  1  0
 22 44  1  0
M  END
>  <i_m_ct_stereo_status>  (246) 
1

>  <s_m_source_file>  (246) 
/var/tmp/pbs.5076255.sched01/tmpz7m1v8ep/860kfiy9lw.sdf

>  <i_m_source_file_index>  (246) 
27

>  <i_lp_mmshare_version>  (246) 
48012

>  <i_f3d_flags>  (246) 
0

>  <s_epik_input>  (246) 
W0NAQF0xMjNjNGM1W2NIXVtjSF1jKE9bQ0gzXSljNE9bQ0BASF0xQyg9TylbQ0gyXVtDSDJdW0NAXTIoW09IXSlbQ0BIXShbQ0gyXTUpTihbQ0gzXSlbQ0gyXVtDSDJdMw==

>  <s_epik_cmdline>  (246) 
J2VwaWtfcHl0aG9uJywgJy1waHQnLCAnMi4wJywgJy1waCcsICc3LjAnLCAnLXRuJywgJzgnLCAnLW1hJywgJzIwMCcsICctaW1hZScsICc8aW5maWxlLm1hZT4nLCAnLW9tYWUnLCAnPG91dGZpbGUubWFlPic=

>  <r_lp_tautomer_probability>  (246) 
1

>  <r_epik_Ionization_Penalty>  (246) 
1.06665

>  <r_epik_Ionization_Penalty_Charging>  (246) 
0

>  <r_epik_Ionization_Penalty_Neutral>  (246) 
1.06665

>  <r_epik_State_Penalty>  (246) 
1.12085

>  <r_epik_Charging_Adjusted_Penalty>  (246) 
1.12085

>  <i_epik_Tot_Q>  (246) 
0

>  <i_epik_Tot_abs_Q>  (246) 
0

>  <s_lp_Force_Field>  (246) 
OPLS3e

>  <r_lp_Energy>  (246) 
56.4362

>  <b_lp_Chiralities_Consistent>  (246) 
1

>  <s_lp_Variant>  (246) 
73:0-2

>  <s_i_glide_gridfile>  (246) 
pfpi4k_grid

>  <i_i_glide_lignum>  (246) 
27

>  <i_i_glide_rotatable_bonds>  (246) 
2

>  <r_i_docking_score>  (246) 
-3.29863

>  <r_i_glide_ligand_efficiency>  (246) 
-0.143419

>  <r_i_glide_ligand_efficiency_sa>  (246) 
-0.407864

>  <r_i_glide_ligand_efficiency_ln>  (246) 
-0.797639

>  <r_i_glide_gscore>  (246) 
-3.29863

>  <r_i_glide_lipo>  (246) 
-0.621501

>  <r_i_glide_hbond>  (246) 
-0.0601194

>  <r_i_glide_metal>  (246) 
-0

>  <r_i_glide_rewards>  (246) 
-1.41491

>  <r_i_glide_evdw>  (246) 
-21.6061

>  <r_i_glide_ecoul>  (246) 
-0.811971

>  <r_i_glide_erotb>  (246) 
0

>  <r_i_glide_esite>  (246) 
0

>  <r_i_glide_emodel>  (246) 
-28.214

>  <r_i_glide_energy>  (246) 
-22.4181

>  <r_i_glide_einternal>  (246) 
0.122355

>  <r_i_glide_intrahb_reward>  (246) 
-0

>  <i_i_glide_confnum>  (246) 
1

>  <i_i_glide_posenum>  (246) 
2

>  <r_i_glide_eff_state_penalty>  (246) 
0

>  <ligand_id>  (246) 
73

>  <original_smiles>  (246) 
COc1ccc2c3c1OC1C(=O)CCC4(O)C(C2)N(C)CCC314

>  <smiles>  (246) 
[H]OC12C([H])([H])C([H])([H])C(=O)C3([H])Oc4c(OC([H])([H])[H])c([H])c([H])c5c4C31C([H])([H])C([H])([H])N(C([H])([H])[H])C2([H])C5([H])[H]

$$$$
73:1:2
     RDKit          3D

 44 48  0  0  1  0  0  0  0  0999 V2000
    4.9522   -7.6699    3.4826 C   0  0  0  0  0  0  0  0  0  0  0  0
    5.3877   -6.4368    2.9375 O   0  0  0  0  0  0  0  0  0  0  0  0
    4.6032   -5.8329    1.9811 C   0  0  0  0  0  0  0  0  0  0  0  0
    3.3554   -6.3563    1.5185 C   0  0  0  0  0  0  0  0  0  0  0  0
    2.5726   -5.6602    0.5640 C   0  0  0  0  0  0  0  0  0  0  0  0
    3.0564   -4.4582    0.0048 C   0  0  0  0  0  0  0  0  0  0  0  0
    4.3140   -4.0345    0.4492 C   0  0  0  0  0  0  0  0  0  0  0  0
    5.0760   -4.6163    1.4423 C   0  0  0  0  0  0  0  0  0  0  0  0
    6.1770   -3.8769    1.7825 O   0  0  0  0  0  0  0  0  0  0  0  0
    5.9845   -2.5688    1.1964 C   0  0  2  0  0  0  0  0  0  0  0  0
    5.2713   -1.6641    2.2229 C   0  0  0  0  0  0  0  0  0  0  0  0
    5.4087   -1.8262    3.4324 O   0  0  0  0  0  0  0  0  0  0  0  0
    4.3824   -0.5422    1.6959 C   0  0  0  0  0  0  0  0  0  0  0  0
    3.4101   -1.0755    0.6287 C   0  0  0  0  0  0  0  0  0  0  0  0
    4.1577   -1.7370   -0.5535 C   0  0  2  0  0  0  0  0  0  0  0  0
    4.8881   -0.6703   -1.1458 O   0  0  0  0  0  0  0  0  0  0  0  0
    3.2378   -2.4206   -1.6236 C   0  0  2  0  0  0  0  0  0  0  0  0
    2.3665   -3.5279   -0.9922 C   0  0  0  0  0  0  0  0  0  0  0  0
    3.9711   -2.9872   -2.7743 N   0  0  0  0  0  0  0  0  0  0  0  0
    4.2552   -2.0542   -3.8445 C   0  0  0  0  0  0  0  0  0  0  0  0
    5.0990   -3.8496   -2.4004 C   0  0  0  0  0  0  0  0  0  0  0  0
    5.9744   -3.2916   -1.2623 C   0  0  0  0  0  0  0  0  0  0  0  0
    5.0998   -2.8527   -0.0575 C   0  0  2  0  0  0  0  0  0  0  0  0
    5.6772   -7.9969    4.2245 H   0  0  0  0  0  0  0  0  0  0  0  0
    4.8848   -8.4419    2.7168 H   0  0  0  0  0  0  0  0  0  0  0  0
    3.9901   -7.5689    3.9829 H   0  0  0  0  0  0  0  0  0  0  0  0
    2.9685   -7.2890    1.8927 H   0  0  0  0  0  0  0  0  0  0  0  0
    1.6202   -6.0562    0.2437 H   0  0  0  0  0  0  0  0  0  0  0  0
    6.9380   -2.1101    0.9386 H   0  0  0  0  0  0  0  0  0  0  0  0
    3.8339   -0.0976    2.5281 H   0  0  0  0  0  0  0  0  0  0  0  0
    5.0265    0.2332    1.2858 H   0  0  0  0  0  0  0  0  0  0  0  0
    2.7344   -1.7787    1.1087 H   0  0  0  0  0  0  0  0  0  0  0  0
    2.7787   -0.2574    0.2813 H   0  0  0  0  0  0  0  0  0  0  0  0
    4.2874    0.0319   -1.3380 H   0  0  0  0  0  0  0  0  0  0  0  0
    2.5511   -1.6733   -2.0155 H   0  0  0  0  0  0  0  0  0  0  0  0
    1.8869   -4.1184   -1.7734 H   0  0  0  0  0  0  0  0  0  0  0  0
    1.5465   -3.0642   -0.4556 H   0  0  0  0  0  0  0  0  0  0  0  0
    4.6064   -2.5982   -4.7163 H   0  0  0  0  0  0  0  0  0  0  0  0
    5.0114   -1.3292   -3.5633 H   0  0  0  0  0  0  0  0  0  0  0  0
    3.3513   -1.5172   -4.1375 H   0  0  0  0  0  0  0  0  0  0  0  0
    4.7207   -4.8205   -2.0864 H   0  0  0  0  0  0  0  0  0  0  0  0
    5.7189   -4.0493   -3.2751 H   0  0  0  0  0  0  0  0  0  0  0  0
    6.6959   -4.0444   -0.9468 H   0  0  0  0  0  0  0  0  0  0  0  0
    6.5675   -2.4585   -1.6399 H   0  0  0  0  0  0  0  0  0  0  0  0
  1  2  1  0
  1 24  1  0
  1 25  1  0
  1 26  1  0
  2  3  1  0
  3  8  2  0
  3  4  1  0
  4  5  2  0
  4 27  1  0
  5  6  1  0
  5 28  1  0
  6 18  1  0
  6  7  2  0
  7 23  1  0
  7  8  1  0
  8  9  1  0
  9 10  1  0
 10 23  1  0
 10 11  1  0
 10 29  1  6
 11 12  2  0
 11 13  1  0
 13 14  1  0
 13 30  1  0
 13 31  1  0
 14 15  1  0
 14 32  1  0
 14 33  1  0
 15 23  1  0
 15 16  1  6
 15 17  1  0
 16 34  1  0
 17 18  1  0
 17 19  1  0
 17 35  1  6
 18 36  1  0
 18 37  1  0
 19 20  1  0
 19 21  1  0
 20 38  1  0
 20 39  1  0
 20 40  1  0
 21 22  1  0
 21 41  1  0
 21 42  1  0
 23 22  1  6
 22 43  1  0
 22 44  1  0
M  END
>  <i_m_ct_stereo_status>  (247) 
1

>  <s_m_source_file>  (247) 
/var/tmp/pbs.5076255.sched01/tmpz7m1v8ep/860kfiy9lw.sdf

>  <i_m_source_file_index>  (247) 
27

>  <i_lp_mmshare_version>  (247) 
48012

>  <i_f3d_flags>  (247) 
0

>  <s_epik_input>  (247) 
W0NAQF0xMjNjNGM1W2NIXVtjSF1jKE9bQ0gzXSljNE9bQ0BASF0xQyg9TylbQ0gyXVtDSDJdW0NAXTIoW09IXSlbQ0BIXShbQ0gyXTUpTihbQ0gzXSlbQ0gyXVtDSDJdMw==

>  <s_epik_cmdline>  (247) 
J2VwaWtfcHl0aG9uJywgJy1waHQnLCAnMi4wJywgJy1waCcsICc3LjAnLCAnLXRuJywgJzgnLCAnLW1hJywgJzIwMCcsICctaW1hZScsICc8aW5maWxlLm1hZT4nLCAnLW9tYWUnLCAnPG91dGZpbGUubWFlPic=

>  <r_lp_tautomer_probability>  (247) 
1

>  <r_epik_Ionization_Penalty>  (247) 
1.06665

>  <r_epik_Ionization_Penalty_Charging>  (247) 
0

>  <r_epik_Ionization_Penalty_Neutral>  (247) 
1.06665

>  <r_epik_State_Penalty>  (247) 
1.12085

>  <r_epik_Charging_Adjusted_Penalty>  (247) 
1.12085

>  <i_epik_Tot_Q>  (247) 
0

>  <i_epik_Tot_abs_Q>  (247) 
0

>  <s_lp_Force_Field>  (247) 
OPLS3e

>  <r_lp_Energy>  (247) 
56.4362

>  <b_lp_Chiralities_Consistent>  (247) 
1

>  <s_lp_Variant>  (247) 
73:0-2

>  <s_i_glide_gridfile>  (247) 
pfpi4k_grid

>  <i_i_glide_lignum>  (247) 
27

>  <i_i_glide_rotatable_bonds>  (247) 
2

>  <r_i_docking_score>  (247) 
-3.0256

>  <r_i_glide_ligand_efficiency>  (247) 
-0.131548

>  <r_i_glide_ligand_efficiency_sa>  (247) 
-0.374104

>  <r_i_glide_ligand_efficiency_ln>  (247) 
-0.731617

>  <r_i_glide_gscore>  (247) 
-3.0256

>  <r_i_glide_lipo>  (247) 
-0.545731

>  <r_i_glide_hbond>  (247) 
-0.0106854

>  <r_i_glide_metal>  (247) 
-0

>  <r_i_glide_rewards>  (247) 
-1.38555

>  <r_i_glide_evdw>  (247) 
-21.2143

>  <r_i_glide_ecoul>  (247) 
-0.152781

>  <r_i_glide_erotb>  (247) 
0

>  <r_i_glide_esite>  (247) 
0

>  <r_i_glide_emodel>  (247) 
-26.7155

>  <r_i_glide_energy>  (247) 
-21.3671

>  <r_i_glide_einternal>  (247) 
0.0579093

>  <r_i_glide_intrahb_reward>  (247) 
-0

>  <i_i_glide_confnum>  (247) 
2

>  <i_i_glide_posenum>  (247) 
12

>  <r_i_glide_eff_state_penalty>  (247) 
0

>  <ligand_id>  (247) 
73

>  <original_smiles>  (247) 
COc1ccc2c3c1OC1C(=O)CCC4(O)C(C2)N(C)CCC314

>  <smiles>  (247) 
[H]OC12C([H])([H])C([H])([H])C(=O)C3([H])Oc4c(OC([H])([H])[H])c([H])c([H])c5c4C31C([H])([H])C([H])([H])N(C([H])([H])[H])C2([H])C5([H])[H]

$$$$
74:0:0
     RDKit          3D

 50 54  0  0  1  0  0  0  0  0999 V2000
    3.0200   -2.8981    3.8834 C   0  0  0  0  0  0  0  0  0  0  0  0
    4.1933   -3.9124    3.7552 C   0  0  0  0  0  0  0  0  0  0  0  0
    3.9666   -5.2577    2.9286 C   0  0  1  0  0  0  0  0  0  0  0  0
    3.5545   -6.4358    3.8664 C   0  0  1  0  0  0  0  0  0  0  0  0
    2.4155   -6.0280    4.8315 C   0  0  0  0  0  0  0  0  0  0  0  0
    1.2294   -5.7416    3.8686 C   0  0  0  0  0  0  0  0  0  0  0  0
    1.8353   -6.1890    2.5256 C   0  0  2  0  0  0  0  0  0  0  0  0
    2.7446   -7.3256    2.9312 C   0  0  0  0  0  0  0  0  0  0  0  0
    2.8102   -5.2164    2.0099 N   0  0  0  0  0  0  0  0  0  0  0  0
    2.8353   -4.9306    0.6662 C   0  0  0  0  0  0  0  0  0  0  0  0
    1.8144   -5.0734    0.0146 O   0  0  0  0  0  0  0  0  0  0  0  0
    4.1929   -4.6090   -0.0458 C   0  0  1  0  0  0  0  0  0  0  0  0
    4.0960   -3.3735   -0.9869 C   0  0  0  0  0  0  0  0  0  0  0  0
    5.0169   -2.2934   -0.9156 C   0  0  0  0  0  0  0  0  0  0  0  0
    4.9160   -1.1877   -1.7858 C   0  0  0  0  0  0  0  0  0  0  0  0
    3.9149   -1.1354   -2.7712 C   0  0  0  0  0  0  0  0  0  0  0  0
    3.8158   -0.0677   -3.6086 F   0  0  0  0  0  0  0  0  0  0  0  0
    3.0058   -2.2032   -2.8731 C   0  0  0  0  0  0  0  0  0  0  0  0
    3.1159   -3.3012   -2.0049 C   0  0  0  0  0  0  0  0  0  0  0  0
    5.3704   -4.5757    0.9565 C   0  0  2  0  0  0  0  0  0  0  0  0
    6.7848   -4.8392    0.4431 C   0  0  0  0  0  0  0  0  0  0  0  0
    7.6056   -5.1784    1.6969 C   0  0  0  0  0  0  0  0  0  0  0  0
    6.5975   -5.6792    2.7557 C   0  0  0  0  0  0  0  0  0  0  0  0
    5.2187   -5.6113    2.0701 C   0  0  1  0  0  0  0  0  0  0  0  0
    3.4128   -1.9331    4.2259 H   0  0  0  0  0  0  0  0  0  0  0  0
    2.2700   -3.1934    4.6248 H   0  0  0  0  0  0  0  0  0  0  0  0
    2.5085   -2.6994    2.9301 H   0  0  0  0  0  0  0  0  0  0  0  0
    5.0032   -3.3036    3.3553 H   0  0  0  0  0  0  0  0  0  0  0  0
    4.5613   -4.1708    4.7575 H   0  0  0  0  0  0  0  0  0  0  0  0
    4.3860   -6.9354    4.3610 H   0  0  0  0  0  0  0  0  0  0  0  0
    2.1478   -6.8804    5.4669 H   0  0  0  0  0  0  0  0  0  0  0  0
    2.6684   -5.1928    5.4834 H   0  0  0  0  0  0  0  0  0  0  0  0
    0.3600   -6.3566    4.1170 H   0  0  0  0  0  0  0  0  0  0  0  0
    0.8995   -4.6965    3.8168 H   0  0  0  0  0  0  0  0  0  0  0  0
    1.0643   -6.4964    1.8241 H   0  0  0  0  0  0  0  0  0  0  0  0
    3.2957   -7.7314    2.0800 H   0  0  0  0  0  0  0  0  0  0  0  0
    2.2062   -8.1359    3.4187 H   0  0  0  0  0  0  0  0  0  0  0  0
    4.3375   -5.4681   -0.6973 H   0  0  0  0  0  0  0  0  0  0  0  0
    5.8243   -2.2502   -0.1938 H   0  0  0  0  0  0  0  0  0  0  0  0
    5.6213   -0.3709   -1.6941 H   0  0  0  0  0  0  0  0  0  0  0  0
    2.2100   -2.1804   -3.6157 H   0  0  0  0  0  0  0  0  0  0  0  0
    2.3889   -4.0938   -2.1422 H   0  0  0  0  0  0  0  0  0  0  0  0
    5.3841   -3.5867    1.3848 H   0  0  0  0  0  0  0  0  0  0  0  0
    6.7689   -5.6999   -0.2324 H   0  0  0  0  0  0  0  0  0  0  0  0
    7.2281   -3.9791   -0.0719 H   0  0  0  0  0  0  0  0  0  0  0  0
    8.3708   -5.9223    1.4659 H   0  0  0  0  0  0  0  0  0  0  0  0
    8.1195   -4.2857    2.0640 H   0  0  0  0  0  0  0  0  0  0  0  0
    6.8241   -6.7093    3.0534 H   0  0  0  0  0  0  0  0  0  0  0  0
    6.6393   -5.0549    3.6545 H   0  0  0  0  0  0  0  0  0  0  0  0
    5.0857   -6.5910    1.5959 H   0  0  0  0  0  0  0  0  0  0  0  0
  1  2  1  0
  1 25  1  0
  1 26  1  0
  1 27  1  0
  3  2  1  1
  2 28  1  0
  2 29  1  0
  3  9  1  0
  3 24  1  0
  3  4  1  0
  4  8  1  0
  4  5  1  0
  4 30  1  1
  5  6  1  0
  5 31  1  0
  5 32  1  0
  6  7  1  0
  6 33  1  0
  6 34  1  0
  7  8  1  0
  7  9  1  0
  7 35  1  6
  8 36  1  0
  8 37  1  0
  9 10  1  0
 10 11  2  0
 10 12  1  0
 12 13  1  0
 12 20  1  0
 12 38  1  6
 13 19  1  0
 13 14  2  0
 14 15  1  0
 14 39  1  0
 15 16  2  0
 15 40  1  0
 16 17  1  0
 16 18  1  0
 18 19  2  0
 18 41  1  0
 19 42  1  0
 20 24  1  0
 20 21  1  0
 20 43  1  1
 21 22  1  0
 21 44  1  0
 21 45  1  0
 22 23  1  0
 22 46  1  0
 22 47  1  0
 23 24  1  0
 23 48  1  0
 23 49  1  0
 24 50  1  6
M  END
>  <i_m_ct_stereo_status>  (248) 
1

>  <s_m_source_file>  (248) 
/var/tmp/pbs.5076255.sched01/tmpz7m1v8ep/860kfiy9lw.sdf

>  <i_m_source_file_index>  (248) 
28

>  <i_lp_mmshare_version>  (248) 
48012

>  <i_f3d_flags>  (248) 
0

>  <s_epik_input>  (248) 
W0NIM11bQ0gyXVtDQEBdMTJbQ0BIXTNbQ0gyXVtDSDJdW0NASF0oW0NIMl0zKU4xQyg9TylbQ0BIXShbQ0BIXTRbQ0BIXTJbQ0gyXVtDSDJdW0NIMl00KWM1W2NIXVtjSF1jKEYpW2NIXVtjSF01

>  <s_epik_cmdline>  (248) 
J2VwaWtfcHl0aG9uJywgJy1waHQnLCAnMi4wJywgJy1waCcsICc3LjAnLCAnLXRuJywgJzgnLCAnLW1hJywgJzIwMCcsICctaW1hZScsICc8aW5maWxlLm1hZT4nLCAnLW9tYWUnLCAnPG91dGZpbGUubWFlPic=

>  <r_lp_tautomer_probability>  (248) 
1

>  <r_epik_Ionization_Penalty>  (248) 
8.66595e-08

>  <r_epik_Ionization_Penalty_Charging>  (248) 
0

>  <r_epik_Ionization_Penalty_Neutral>  (248) 
8.66595e-08

>  <r_epik_State_Penalty>  (248) 
-0

>  <r_epik_Charging_Adjusted_Penalty>  (248) 
0

>  <i_epik_Tot_Q>  (248) 
0

>  <i_epik_Tot_abs_Q>  (248) 
0

>  <s_lp_Force_Field>  (248) 
OPLS3e

>  <r_lp_Energy>  (248) 
76.9458

>  <b_lp_Chiralities_Consistent>  (248) 
1

>  <s_lp_Variant>  (248) 
74:0-1

>  <s_i_glide_gridfile>  (248) 
pfpi4k_grid

>  <i_i_glide_lignum>  (248) 
28

>  <i_i_glide_rotatable_bonds>  (248) 
2

>  <r_i_docking_score>  (248) 
-2.78037

>  <r_i_glide_ligand_efficiency>  (248) 
-0.115849

>  <r_i_glide_ligand_efficiency_sa>  (248) 
-0.334166

>  <r_i_glide_ligand_efficiency_ln>  (248) 
-0.66547

>  <r_i_glide_gscore>  (248) 
-2.78037

>  <r_i_glide_lipo>  (248) 
-0.322639

>  <r_i_glide_hbond>  (248) 
-0.0692406

>  <r_i_glide_metal>  (248) 
-0

>  <r_i_glide_rewards>  (248) 
-1.3301

>  <r_i_glide_evdw>  (248) 
-18.7596

>  <r_i_glide_ecoul>  (248) 
-1.7422

>  <r_i_glide_erotb>  (248) 
0.175053

>  <r_i_glide_esite>  (248) 
-0.0341306

>  <r_i_glide_emodel>  (248) 
-20.5626

>  <r_i_glide_energy>  (248) 
-20.5018

>  <r_i_glide_einternal>  (248) 
6.08803

>  <r_i_glide_intrahb_reward>  (248) 
-0

>  <i_i_glide_confnum>  (248) 
3

>  <i_i_glide_posenum>  (248) 
1

>  <r_i_glide_eff_state_penalty>  (248) 
0

>  <ligand_id>  (248) 
74

>  <original_smiles>  (248) 
CCC12C3CCC(C3)N1C(=O)C(c1ccc(F)cc1)C1CCCC12

>  <smiles>  (248) 
[H]c1c([H])c(C2([H])C(=O)N3C4([H])C([H])([H])C([H])([H])C([H])(C4([H])[H])C3(C([H])([H])C([H])([H])[H])C3([H])C([H])([H])C([H])([H])C([H])([H])C23[H])c([H])c([H])c1F

$$$$
74:0:1
     RDKit          3D

 50 54  0  0  1  0  0  0  0  0999 V2000
    2.5703   -4.0310    4.4475 C   0  0  0  0  0  0  0  0  0  0  0  0
    3.6982   -5.0647    4.2213 C   0  0  0  0  0  0  0  0  0  0  0  0
    3.4862   -6.2409    3.1885 C   0  0  1  0  0  0  0  0  0  0  0  0
    2.9134   -7.5276    3.8679 C   0  0  1  0  0  0  0  0  0  0  0  0
    1.7083   -7.2035    4.7796 C   0  0  0  0  0  0  0  0  0  0  0  0
    0.6542   -6.6870    3.7711 C   0  0  0  0  0  0  0  0  0  0  0  0
    1.3522   -6.9564    2.4248 C   0  0  2  0  0  0  0  0  0  0  0  0
    2.1582   -8.2043    2.7276 C   0  0  0  0  0  0  0  0  0  0  0  0
    2.4327   -5.9787    2.1732 N   0  0  0  0  0  0  0  0  0  0  0  0
    2.6269   -5.5180    0.9058 C   0  0  0  0  0  0  0  0  0  0  0  0
    1.6991   -5.4519    0.0982 O   0  0  0  0  0  0  0  0  0  0  0  0
    4.0686   -5.2246    0.3998 C   0  0  1  0  0  0  0  0  0  0  0  0
    4.1572   -3.8898   -0.3371 C   0  0  0  0  0  0  0  0  0  0  0  0
    4.6861   -3.8538   -1.6437 C   0  0  0  0  0  0  0  0  0  0  0  0
    4.7773   -2.6381   -2.3460 C   0  0  0  0  0  0  0  0  0  0  0  0
    4.3459   -1.4433   -1.7417 C   0  0  0  0  0  0  0  0  0  0  0  0
    4.4412   -0.2785   -2.4243 F   0  0  0  0  0  0  0  0  0  0  0  0
    3.8244   -1.4671   -0.4327 C   0  0  0  0  0  0  0  0  0  0  0  0
    3.7345   -2.6855    0.2685 C   0  0  0  0  0  0  0  0  0  0  0  0
    5.1382   -5.3417    1.4977 C   0  0  2  0  0  0  0  0  0  0  0  0
    6.5867   -5.5888    1.0855 C   0  0  0  0  0  0  0  0  0  0  0  0
    7.2376   -6.2140    2.3351 C   0  0  0  0  0  0  0  0  0  0  0  0
    6.1052   -6.8096    3.1973 C   0  0  0  0  0  0  0  0  0  0  0  0
    4.8143   -6.5161    2.4223 C   0  0  1  0  0  0  0  0  0  0  0  0
    2.9658   -3.1675    4.9821 H   0  0  0  0  0  0  0  0  0  0  0  0
    1.7595   -4.4083    5.0700 H   0  0  0  0  0  0  0  0  0  0  0  0
    2.1467   -3.6626    3.5098 H   0  0  0  0  0  0  0  0  0  0  0  0
    4.5633   -4.4643    3.9616 H   0  0  0  0  0  0  0  0  0  0  0  0
    3.9872   -5.4983    5.1813 H   0  0  0  0  0  0  0  0  0  0  0  0
    3.6644   -8.1536    4.3523 H   0  0  0  0  0  0  0  0  0  0  0  0
    1.3413   -8.1198    5.2507 H   0  0  0  0  0  0  0  0  0  0  0  0
    1.9416   -6.5172    5.5915 H   0  0  0  0  0  0  0  0  0  0  0  0
   -0.2676   -7.2638    3.8590 H   0  0  0  0  0  0  0  0  0  0  0  0
    0.3914   -5.6350    3.8838 H   0  0  0  0  0  0  0  0  0  0  0  0
    0.6453   -7.0888    1.6065 H   0  0  0  0  0  0  0  0  0  0  0  0
    2.7805   -8.5204    1.8902 H   0  0  0  0  0  0  0  0  0  0  0  0
    1.5395   -9.0481    3.0390 H   0  0  0  0  0  0  0  0  0  0  0  0
    4.2520   -6.0203   -0.3216 H   0  0  0  0  0  0  0  0  0  0  0  0
    5.0159   -4.7631   -2.1213 H   0  0  0  0  0  0  0  0  0  0  0  0
    5.1737   -2.6235   -3.3514 H   0  0  0  0  0  0  0  0  0  0  0  0
    3.4811   -0.5534    0.0356 H   0  0  0  0  0  0  0  0  0  0  0  0
    3.3281   -2.6949    1.2671 H   0  0  0  0  0  0  0  0  0  0  0  0
    5.1592   -4.3996    2.0324 H   0  0  0  0  0  0  0  0  0  0  0  0
    6.6386   -6.2723    0.2388 H   0  0  0  0  0  0  0  0  0  0  0  0
    7.0845   -4.6645    0.7867 H   0  0  0  0  0  0  0  0  0  0  0  0
    7.9795   -6.9652    2.0579 H   0  0  0  0  0  0  0  0  0  0  0  0
    7.7583   -5.4497    2.9132 H   0  0  0  0  0  0  0  0  0  0  0  0
    6.2319   -7.8871    3.3214 H   0  0  0  0  0  0  0  0  0  0  0  0
    6.1092   -6.3670    4.1935 H   0  0  0  0  0  0  0  0  0  0  0  0
    4.6770   -7.3852    1.7772 H   0  0  0  0  0  0  0  0  0  0  0  0
  1  2  1  0
  1 25  1  0
  1 26  1  0
  1 27  1  0
  3  2  1  1
  2 28  1  0
  2 29  1  0
  3  9  1  0
  3 24  1  0
  3  4  1  0
  4  8  1  0
  4  5  1  0
  4 30  1  1
  5  6  1  0
  5 31  1  0
  5 32  1  0
  6  7  1  0
  6 33  1  0
  6 34  1  0
  7  8  1  0
  7  9  1  0
  7 35  1  6
  8 36  1  0
  8 37  1  0
  9 10  1  0
 10 11  2  0
 10 12  1  0
 12 13  1  0
 12 20  1  0
 12 38  1  6
 13 19  1  0
 13 14  2  0
 14 15  1  0
 14 39  1  0
 15 16  2  0
 15 40  1  0
 16 17  1  0
 16 18  1  0
 18 19  2  0
 18 41  1  0
 19 42  1  0
 20 24  1  0
 20 21  1  0
 20 43  1  1
 21 22  1  0
 21 44  1  0
 21 45  1  0
 22 23  1  0
 22 46  1  0
 22 47  1  0
 23 24  1  0
 23 48  1  0
 23 49  1  0
 24 50  1  6
M  END
>  <i_m_ct_stereo_status>  (249) 
1

>  <s_m_source_file>  (249) 
/var/tmp/pbs.5076255.sched01/tmpz7m1v8ep/860kfiy9lw.sdf

>  <i_m_source_file_index>  (249) 
28

>  <i_lp_mmshare_version>  (249) 
48012

>  <i_f3d_flags>  (249) 
0

>  <s_epik_input>  (249) 
W0NIM11bQ0gyXVtDQEBdMTJbQ0BIXTNbQ0gyXVtDSDJdW0NASF0oW0NIMl0zKU4xQyg9TylbQ0BIXShbQ0BIXTRbQ0BIXTJbQ0gyXVtDSDJdW0NIMl00KWM1W2NIXVtjSF1jKEYpW2NIXVtjSF01

>  <s_epik_cmdline>  (249) 
J2VwaWtfcHl0aG9uJywgJy1waHQnLCAnMi4wJywgJy1waCcsICc3LjAnLCAnLXRuJywgJzgnLCAnLW1hJywgJzIwMCcsICctaW1hZScsICc8aW5maWxlLm1hZT4nLCAnLW9tYWUnLCAnPG91dGZpbGUubWFlPic=

>  <r_lp_tautomer_probability>  (249) 
1

>  <r_epik_Ionization_Penalty>  (249) 
8.66595e-08

>  <r_epik_Ionization_Penalty_Charging>  (249) 
0

>  <r_epik_Ionization_Penalty_Neutral>  (249) 
8.66595e-08

>  <r_epik_State_Penalty>  (249) 
-0

>  <r_epik_Charging_Adjusted_Penalty>  (249) 
0

>  <i_epik_Tot_Q>  (249) 
0

>  <i_epik_Tot_abs_Q>  (249) 
0

>  <s_lp_Force_Field>  (249) 
OPLS3e

>  <r_lp_Energy>  (249) 
76.9458

>  <b_lp_Chiralities_Consistent>  (249) 
1

>  <s_lp_Variant>  (249) 
74:0-1

>  <s_i_glide_gridfile>  (249) 
pfpi4k_grid

>  <i_i_glide_lignum>  (249) 
28

>  <i_i_glide_rotatable_bonds>  (249) 
2

>  <r_i_docking_score>  (249) 
-2.77624

>  <r_i_glide_ligand_efficiency>  (249) 
-0.115677

>  <r_i_glide_ligand_efficiency_sa>  (249) 
-0.33367

>  <r_i_glide_ligand_efficiency_ln>  (249) 
-0.664483

>  <r_i_glide_gscore>  (249) 
-2.77624

>  <r_i_glide_lipo>  (249) 
-0.281347

>  <r_i_glide_hbond>  (249) 
-0.105626

>  <r_i_glide_metal>  (249) 
-0

>  <r_i_glide_rewards>  (249) 
-1.24379

>  <r_i_glide_evdw>  (249) 
-20.2366

>  <r_i_glide_ecoul>  (249) 
-1.78659

>  <r_i_glide_erotb>  (249) 
0.175053

>  <r_i_glide_esite>  (249) 
-0.0407178

>  <r_i_glide_emodel>  (249) 
-25.2754

>  <r_i_glide_energy>  (249) 
-22.0231

>  <r_i_glide_einternal>  (249) 
0.468148

>  <r_i_glide_intrahb_reward>  (249) 
-0

>  <i_i_glide_confnum>  (249) 
3

>  <i_i_glide_posenum>  (249) 
39

>  <r_i_glide_eff_state_penalty>  (249) 
0

>  <ligand_id>  (249) 
74

>  <original_smiles>  (249) 
CCC12C3CCC(C3)N1C(=O)C(c1ccc(F)cc1)C1CCCC12

>  <smiles>  (249) 
[H]c1c([H])c(C2([H])C(=O)N3C4([H])C([H])([H])C([H])([H])C([H])(C4([H])[H])C3(C([H])([H])C([H])([H])[H])C3([H])C([H])([H])C([H])([H])C([H])([H])C23[H])c([H])c([H])c1F

$$$$
75:0:0
     RDKit          3D

 59 62  0  0  1  0  0  0  0  0999 V2000
    5.2970   -3.4131   -2.9195 C   0  0  0  0  0  0  0  0  0  0  0  0
    5.1876   -2.2724   -1.9018 C   0  0  0  0  0  0  0  0  0  0  0  0
    5.0003   -1.1256   -2.2708 O   0  0  0  0  0  0  0  0  0  0  0  0
    5.3286   -2.6033   -0.5951 O   0  0  0  0  0  0  0  0  0  0  0  0
    5.6970   -3.9084   -0.1551 C   0  0  2  0  0  0  0  0  0  0  0  0
    4.5159   -4.9119   -0.2277 C   0  0  0  0  0  0  0  0  0  0  0  0
    4.5279   -5.6018    1.1276 C   0  0  2  0  0  0  0  0  0  0  0  0
    3.3464   -6.5040    1.5594 C   0  0  2  0  0  0  0  0  0  0  0  0
    1.9445   -6.1375    1.0632 C   0  0  0  0  0  0  0  0  0  0  0  0
    0.9531   -7.2506    1.4473 C   0  0  0  0  0  0  0  0  0  0  0  0
    0.9320   -7.5880    2.9660 C   0  0  1  0  0  0  0  0  0  0  0  0
   -0.0595   -8.7519    3.2962 C   0  0  1  0  0  0  0  0  0  0  0  0
   -1.4873   -8.5271    2.7635 C   0  0  0  0  0  0  0  0  0  0  0  0
    0.4647  -10.1383    2.8781 C   0  0  0  0  0  0  0  0  0  0  0  0
    1.9045  -10.3697    3.3337 C   0  0  0  0  0  0  0  0  0  0  0  0
    2.2540  -11.4000    3.8699 O   0  0  0  0  0  0  0  0  0  0  0  0
    2.8891   -9.2307    3.0367 C   0  0  0  0  0  0  0  0  0  0  0  0
    2.3732   -7.8582    3.5408 C   0  0  2  0  0  0  0  0  0  0  0  0
    2.3215   -7.8772    5.0954 C   0  0  0  0  0  0  0  0  0  0  0  0
    3.2940   -6.6696    3.1031 C   0  0  1  0  0  0  0  0  0  0  0  0
    4.7295   -6.6014    3.6998 C   0  0  0  0  0  0  0  0  0  0  0  0
    5.4557   -5.2500    3.4124 C   0  0  0  0  0  0  0  0  0  0  0  0
    4.9878   -4.5357    2.1181 C   0  0  2  0  0  0  0  0  0  0  0  0
    3.9262   -3.4372    2.3980 C   0  0  0  0  0  0  0  0  0  0  0  0
    6.1285   -3.8744    1.3260 C   0  0  0  0  0  0  0  0  0  0  0  0
    4.5640   -4.1883   -2.7223 H   0  0  0  0  0  0  0  0  0  0  0  0
    6.2926   -3.8505   -2.9070 H   0  0  0  0  0  0  0  0  0  0  0  0
    5.0990   -3.0584   -3.9294 H   0  0  0  0  0  0  0  0  0  0  0  0
    6.5559   -4.2683   -0.7212 H   0  0  0  0  0  0  0  0  0  0  0  0
    3.5736   -4.3836   -0.3928 H   0  0  0  0  0  0  0  0  0  0  0  0
    4.6471   -5.6453   -1.0256 H   0  0  0  0  0  0  0  0  0  0  0  0
    5.3731   -6.2964    1.0480 H   0  0  0  0  0  0  0  0  0  0  0  0
    3.5810   -7.4566    1.0931 H   0  0  0  0  0  0  0  0  0  0  0  0
    1.6332   -5.1863    1.4870 H   0  0  0  0  0  0  0  0  0  0  0  0
    1.9424   -6.0214   -0.0217 H   0  0  0  0  0  0  0  0  0  0  0  0
   -0.0402   -6.9463    1.1161 H   0  0  0  0  0  0  0  0  0  0  0  0
    1.1970   -8.1489    0.8805 H   0  0  0  0  0  0  0  0  0  0  0  0
    0.5415   -6.6997    3.4653 H   0  0  0  0  0  0  0  0  0  0  0  0
   -0.1898   -8.7794    4.3780 H   0  0  0  0  0  0  0  0  0  0  0  0
   -1.5316   -8.6175    1.6766 H   0  0  0  0  0  0  0  0  0  0  0  0
   -1.8747   -7.5461    3.0455 H   0  0  0  0  0  0  0  0  0  0  0  0
   -2.1687   -9.2769    3.1728 H   0  0  0  0  0  0  0  0  0  0  0  0
   -0.1702  -10.9185    3.3016 H   0  0  0  0  0  0  0  0  0  0  0  0
    0.4305  -10.2535    1.7955 H   0  0  0  0  0  0  0  0  0  0  0  0
    3.8564   -9.4725    3.4780 H   0  0  0  0  0  0  0  0  0  0  0  0
    3.0290   -9.2368    1.9591 H   0  0  0  0  0  0  0  0  0  0  0  0
    3.2841   -8.1629    5.5207 H   0  0  0  0  0  0  0  0  0  0  0  0
    1.6194   -8.6045    5.5006 H   0  0  0  0  0  0  0  0  0  0  0  0
    2.0510   -6.9047    5.5051 H   0  0  0  0  0  0  0  0  0  0  0  0
    2.7964   -5.7980    3.5127 H   0  0  0  0  0  0  0  0  0  0  0  0
    4.7230   -6.7318    4.7824 H   0  0  0  0  0  0  0  0  0  0  0  0
    5.3194   -7.4172    3.2901 H   0  0  0  0  0  0  0  0  0  0  0  0
    5.2997   -4.5759    4.2500 H   0  0  0  0  0  0  0  0  0  0  0  0
    6.5332   -5.4412    3.3806 H   0  0  0  0  0  0  0  0  0  0  0  0
    4.3549   -2.6412    3.0011 H   0  0  0  0  0  0  0  0  0  0  0  0
    3.0477   -3.7971    2.9147 H   0  0  0  0  0  0  0  0  0  0  0  0
    3.5774   -2.9690    1.4790 H   0  0  0  0  0  0  0  0  0  0  0  0
    7.0407   -4.4721    1.4130 H   0  0  0  0  0  0  0  0  0  0  0  0
    6.3833   -2.8688    1.6689 H   0  0  0  0  0  0  0  0  0  0  0  0
  1  2  1  0
  1 26  1  0
  1 27  1  0
  1 28  1  0
  2  3  2  0
  2  4  1  0
  4  5  1  0
  5 25  1  0
  5  6  1  0
  5 29  1  6
  6  7  1  0
  6 30  1  0
  6 31  1  0
  7 23  1  0
  7  8  1  0
  7 32  1  6
  8 20  1  0
  8  9  1  0
  8 33  1  6
  9 10  1  0
  9 34  1  0
  9 35  1  0
 10 11  1  0
 10 36  1  0
 10 37  1  0
 11 18  1  0
 11 12  1  0
 11 38  1  1
 12 13  1  0
 12 14  1  0
 12 39  1  1
 13 40  1  0
 13 41  1  0
 13 42  1  0
 14 15  1  0
 14 43  1  0
 14 44  1  0
 15 16  2  0
 15 17  1  0
 17 18  1  0
 17 45  1  0
 17 46  1  0
 18 19  1  1
 18 20  1  0
 19 47  1  0
 19 48  1  0
 19 49  1  0
 20 21  1  0
 20 50  1  1
 21 22  1  0
 21 51  1  0
 21 52  1  0
 22 23  1  0
 22 53  1  0
 22 54  1  0
 23 24  1  1
 23 25  1  0
 24 55  1  0
 24 56  1  0
 24 57  1  0
 25 58  1  0
 25 59  1  0
M  END
>  <i_m_ct_stereo_status>  (250) 
1

>  <s_m_source_file>  (250) 
/var/tmp/pbs.5076255.sched01/tmpz7m1v8ep/860kfiy9lw.sdf

>  <i_m_source_file_index>  (250) 
29

>  <i_lp_mmshare_version>  (250) 
48012

>  <i_f3d_flags>  (250) 
0

>  <s_epik_input>  (250) 
W0NIM11DKD1PKU9bQ0BIXShbQ0gyXTEpW0NIMl1bQ0BdKFtDSDNdKShbQ0gyXVtDSDJdW0NAQEhdMjMpW0NASF0xW0NAQEhdMltDSDJdW0NIMl1bQ0BIXShbQ0BdMzRbQ0gzXSlbQ0BASF0oW0NIM10pW0NIMl1DKD1PKVtDSDJdNA==

>  <s_epik_cmdline>  (250) 
J2VwaWtfcHl0aG9uJywgJy1waHQnLCAnMi4wJywgJy1waCcsICc3LjAnLCAnLXRuJywgJzgnLCAnLW1hJywgJzIwMCcsICctaW1hZScsICc8aW5maWxlLm1hZT4nLCAnLW9tYWUnLCAnPG91dGZpbGUubWFlPic=

>  <r_lp_tautomer_probability>  (250) 
1

>  <r_epik_Ionization_Penalty>  (250) 
8.74862e-14

>  <r_epik_Ionization_Penalty_Charging>  (250) 
0

>  <r_epik_Ionization_Penalty_Neutral>  (250) 
8.74862e-14

>  <r_epik_State_Penalty>  (250) 
-0

>  <r_epik_Charging_Adjusted_Penalty>  (250) 
0

>  <i_epik_Tot_Q>  (250) 
0

>  <i_epik_Tot_abs_Q>  (250) 
0

>  <s_epik_Chemistry_Notes>  (250) 
This compound has an ester and may undergo hydrolysis at high or low pH.

>  <s_lp_Force_Field>  (250) 
OPLS3e

>  <r_lp_Energy>  (250) 
44.3021

>  <b_lp_Chiralities_Consistent>  (250) 
1

>  <s_lp_Variant>  (250) 
75:0-1

>  <s_i_glide_gridfile>  (250) 
pfpi4k_grid

>  <i_i_glide_lignum>  (250) 
29

>  <i_i_glide_rotatable_bonds>  (250) 
2

>  <r_i_docking_score>  (250) 
-3.14625

>  <r_i_glide_ligand_efficiency>  (250) 
-0.12585

>  <r_i_glide_ligand_efficiency_sa>  (250) 
-0.367987

>  <r_i_glide_ligand_efficiency_ln>  (250) 
-0.745755

>  <r_i_glide_gscore>  (250) 
-3.14625

>  <r_i_glide_lipo>  (250) 
-0.563324

>  <r_i_glide_hbond>  (250) 
0

>  <r_i_glide_metal>  (250) 
-0

>  <r_i_glide_rewards>  (250) 
-1.13773

>  <r_i_glide_evdw>  (250) 
-32.4127

>  <r_i_glide_ecoul>  (250) 
0.162105

>  <r_i_glide_erotb>  (250) 
0.158356

>  <r_i_glide_esite>  (250) 
-0.00723412

>  <r_i_glide_emodel>  (250) 
-35.4934

>  <r_i_glide_energy>  (250) 
-32.2506

>  <r_i_glide_einternal>  (250) 
5.38824

>  <r_i_glide_intrahb_reward>  (250) 
-0

>  <i_i_glide_confnum>  (250) 
3

>  <i_i_glide_posenum>  (250) 
19

>  <r_i_glide_eff_state_penalty>  (250) 
0

>  <ligand_id>  (250) 
75

>  <original_smiles>  (250) 
CC(=O)OC1CC2C3CCC4C(C)CC(=O)CC4(C)C3CCC2(C)C1

>  <smiles>  (250) 
[H]C([H])([H])C(=O)OC1([H])C([H])([H])C2([H])C3([H])C([H])([H])C([H])([H])C4([H])C([H])(C([H])([H])[H])C([H])([H])C(=O)C([H])([H])C4(C([H])([H])[H])C3([H])C([H])([H])C([H])([H])C2(C([H])([H])[H])C1([H])[H]

$$$$
75:0:1
     RDKit          3D

 59 62  0  0  1  0  0  0  0  0999 V2000
    4.2555   -0.9927   -2.4039 C   0  0  0  0  0  0  0  0  0  0  0  0
    4.9178   -2.3233   -2.0796 C   0  0  0  0  0  0  0  0  0  0  0  0
    5.3336   -3.0709   -2.9647 O   0  0  0  0  0  0  0  0  0  0  0  0
    4.9751   -2.5456   -0.7551 O   0  0  0  0  0  0  0  0  0  0  0  0
    5.4727   -3.7760   -0.2384 C   0  0  2  0  0  0  0  0  0  0  0  0
    4.3838   -4.8719   -0.3108 C   0  0  0  0  0  0  0  0  0  0  0  0
    4.3434   -5.4558    1.1030 C   0  0  2  0  0  0  0  0  0  0  0  0
    3.2014   -6.4107    1.5543 C   0  0  2  0  0  0  0  0  0  0  0  0
    1.8126   -6.1898    0.9472 C   0  0  0  0  0  0  0  0  0  0  0  0
    0.8733   -7.3375    1.3633 C   0  0  0  0  0  0  0  0  0  0  0  0
    0.7692   -7.5611    2.8977 C   0  0  1  0  0  0  0  0  0  0  0  0
   -0.1589   -8.7669    3.2595 C   0  0  1  0  0  0  0  0  0  0  0  0
   -1.5552   -8.6926    2.6182 C   0  0  0  0  0  0  0  0  0  0  0  0
    0.4924  -10.1407    2.9855 C   0  0  0  0  0  0  0  0  0  0  0  0
    1.9103  -10.2242    3.5433 C   0  0  0  0  0  0  0  0  0  0  0  0
    2.2959  -11.1887    4.1975 O   0  0  0  0  0  0  0  0  0  0  0  0
    2.8294   -9.0437    3.2254 C   0  0  0  0  0  0  0  0  0  0  0  0
    2.1827   -7.6738    3.5844 C   0  0  2  0  0  0  0  0  0  0  0  0
    2.0260   -7.5817    5.1299 C   0  0  0  0  0  0  0  0  0  0  0  0
    3.0517   -6.4561    3.1026 C   0  0  1  0  0  0  0  0  0  0  0  0
    4.4292   -6.2315    3.7832 C   0  0  0  0  0  0  0  0  0  0  0  0
    5.0710   -4.8550    3.4261 C   0  0  0  0  0  0  0  0  0  0  0  0
    4.6554   -4.2846    2.0404 C   0  0  2  0  0  0  0  0  0  0  0  0
    3.5001   -3.2540    2.1685 C   0  0  0  0  0  0  0  0  0  0  0  0
    5.8032   -3.6055    1.2639 C   0  0  0  0  0  0  0  0  0  0  0  0
    4.7673   -0.1795   -1.8903 H   0  0  0  0  0  0  0  0  0  0  0  0
    3.2179   -1.0057   -2.0726 H   0  0  0  0  0  0  0  0  0  0  0  0
    4.2760   -0.7926   -3.4753 H   0  0  0  0  0  0  0  0  0  0  0  0
    6.3777   -4.0821   -0.7674 H   0  0  0  0  0  0  0  0  0  0  0  0
    3.4215   -4.4297   -0.5744 H   0  0  0  0  0  0  0  0  0  0  0  0
    4.6182   -5.6251   -1.0627 H   0  0  0  0  0  0  0  0  0  0  0  0
    5.2358   -6.0883    1.1473 H   0  0  0  0  0  0  0  0  0  0  0  0
    3.5306   -7.3825    1.1898 H   0  0  0  0  0  0  0  0  0  0  0  0
    1.4161   -5.2330    1.2724 H   0  0  0  0  0  0  0  0  0  0  0  0
    1.8712   -6.1579   -0.1405 H   0  0  0  0  0  0  0  0  0  0  0  0
   -0.1113   -7.1417    0.9412 H   0  0  0  0  0  0  0  0  0  0  0  0
    1.2231   -8.2540    0.8877 H   0  0  0  0  0  0  0  0  0  0  0  0
    0.2858   -6.6698    3.3010 H   0  0  0  0  0  0  0  0  0  0  0  0
   -0.3595   -8.7261    4.3295 H   0  0  0  0  0  0  0  0  0  0  0  0
   -1.5170   -8.8714    1.5419 H   0  0  0  0  0  0  0  0  0  0  0  0
   -2.0284   -7.7248    2.7918 H   0  0  0  0  0  0  0  0  0  0  0  0
   -2.2088   -9.4550    3.0460 H   0  0  0  0  0  0  0  0  0  0  0  0
   -0.1113  -10.9344    3.4286 H   0  0  0  0  0  0  0  0  0  0  0  0
    0.5391  -10.3342    1.9151 H   0  0  0  0  0  0  0  0  0  0  0  0
    3.7777   -9.1734    3.7448 H   0  0  0  0  0  0  0  0  0  0  0  0
    3.0406   -9.1195    2.1621 H   0  0  0  0  0  0  0  0  0  0  0  0
    2.9728   -7.7578    5.6388 H   0  0  0  0  0  0  0  0  0  0  0  0
    1.3496   -8.3275    5.5455 H   0  0  0  0  0  0  0  0  0  0  0  0
    1.6559   -6.6038    5.4390 H   0  0  0  0  0  0  0  0  0  0  0  0
    2.4583   -5.5937    3.4074 H   0  0  0  0  0  0  0  0  0  0  0  0
    4.3517   -6.2780    4.8669 H   0  0  0  0  0  0  0  0  0  0  0  0
    5.1026   -7.0367    3.4878 H   0  0  0  0  0  0  0  0  0  0  0  0
    4.8170   -4.1300    4.1991 H   0  0  0  0  0  0  0  0  0  0  0  0
    6.1552   -4.9725    3.4853 H   0  0  0  0  0  0  0  0  0  0  0  0
    3.8251   -2.3842    2.7370 H   0  0  0  0  0  0  0  0  0  0  0  0
    2.6153   -3.6385    2.6646 H   0  0  0  0  0  0  0  0  0  0  0  0
    3.1732   -2.8817    1.2001 H   0  0  0  0  0  0  0  0  0  0  0  0
    6.7426   -4.1187    1.4700 H   0  0  0  0  0  0  0  0  0  0  0  0
    5.9507   -2.5620    1.5460 H   0  0  0  0  0  0  0  0  0  0  0  0
  1  2  1  0
  1 26  1  0
  1 27  1  0
  1 28  1  0
  2  3  2  0
  2  4  1  0
  4  5  1  0
  5 25  1  0
  5  6  1  0
  5 29  1  6
  6  7  1  0
  6 30  1  0
  6 31  1  0
  7 23  1  0
  7  8  1  0
  7 32  1  6
  8 20  1  0
  8  9  1  0
  8 33  1  6
  9 10  1  0
  9 34  1  0
  9 35  1  0
 10 11  1  0
 10 36  1  0
 10 37  1  0
 11 18  1  0
 11 12  1  0
 11 38  1  1
 12 13  1  0
 12 14  1  0
 12 39  1  1
 13 40  1  0
 13 41  1  0
 13 42  1  0
 14 15  1  0
 14 43  1  0
 14 44  1  0
 15 16  2  0
 15 17  1  0
 17 18  1  0
 17 45  1  0
 17 46  1  0
 18 19  1  1
 18 20  1  0
 19 47  1  0
 19 48  1  0
 19 49  1  0
 20 21  1  0
 20 50  1  1
 21 22  1  0
 21 51  1  0
 21 52  1  0
 22 23  1  0
 22 53  1  0
 22 54  1  0
 23 24  1  1
 23 25  1  0
 24 55  1  0
 24 56  1  0
 24 57  1  0
 25 58  1  0
 25 59  1  0
M  END
>  <i_m_ct_stereo_status>  (251) 
1

>  <s_m_source_file>  (251) 
/var/tmp/pbs.5076255.sched01/tmpz7m1v8ep/860kfiy9lw.sdf

>  <i_m_source_file_index>  (251) 
29

>  <i_lp_mmshare_version>  (251) 
48012

>  <i_f3d_flags>  (251) 
0

>  <s_epik_input>  (251) 
W0NIM11DKD1PKU9bQ0BIXShbQ0gyXTEpW0NIMl1bQ0BdKFtDSDNdKShbQ0gyXVtDSDJdW0NAQEhdMjMpW0NASF0xW0NAQEhdMltDSDJdW0NIMl1bQ0BIXShbQ0BdMzRbQ0gzXSlbQ0BASF0oW0NIM10pW0NIMl1DKD1PKVtDSDJdNA==

>  <s_epik_cmdline>  (251) 
J2VwaWtfcHl0aG9uJywgJy1waHQnLCAnMi4wJywgJy1waCcsICc3LjAnLCAnLXRuJywgJzgnLCAnLW1hJywgJzIwMCcsICctaW1hZScsICc8aW5maWxlLm1hZT4nLCAnLW9tYWUnLCAnPG91dGZpbGUubWFlPic=

>  <r_lp_tautomer_probability>  (251) 
1

>  <r_epik_Ionization_Penalty>  (251) 
8.74862e-14

>  <r_epik_Ionization_Penalty_Charging>  (251) 
0

>  <r_epik_Ionization_Penalty_Neutral>  (251) 
8.74862e-14

>  <r_epik_State_Penalty>  (251) 
-0

>  <r_epik_Charging_Adjusted_Penalty>  (251) 
0

>  <i_epik_Tot_Q>  (251) 
0

>  <i_epik_Tot_abs_Q>  (251) 
0

>  <s_epik_Chemistry_Notes>  (251) 
This compound has an ester and may undergo hydrolysis at high or low pH.

>  <s_lp_Force_Field>  (251) 
OPLS3e

>  <r_lp_Energy>  (251) 
44.3021

>  <b_lp_Chiralities_Consistent>  (251) 
1

>  <s_lp_Variant>  (251) 
75:0-1

>  <s_i_glide_gridfile>  (251) 
pfpi4k_grid

>  <i_i_glide_lignum>  (251) 
29

>  <i_i_glide_rotatable_bonds>  (251) 
2

>  <r_i_docking_score>  (251) 
-2.94547

>  <r_i_glide_ligand_efficiency>  (251) 
-0.117819

>  <r_i_glide_ligand_efficiency_sa>  (251) 
-0.344504

>  <r_i_glide_ligand_efficiency_ln>  (251) 
-0.698164

>  <r_i_glide_gscore>  (251) 
-2.94547

>  <r_i_glide_lipo>  (251) 
-0.357972

>  <r_i_glide_hbond>  (251) 
0

>  <r_i_glide_metal>  (251) 
-0

>  <r_i_glide_rewards>  (251) 
-1.13024

>  <r_i_glide_evdw>  (251) 
-32.6726

>  <r_i_glide_ecoul>  (251) 
0.12013

>  <r_i_glide_erotb>  (251) 
0.158356

>  <r_i_glide_esite>  (251) 
0

>  <r_i_glide_emodel>  (251) 
-38.0526

>  <r_i_glide_energy>  (251) 
-32.5525

>  <r_i_glide_einternal>  (251) 
0.346938

>  <r_i_glide_intrahb_reward>  (251) 
-0

>  <i_i_glide_confnum>  (251) 
6

>  <i_i_glide_posenum>  (251) 
25

>  <r_i_glide_eff_state_penalty>  (251) 
0

>  <ligand_id>  (251) 
75

>  <original_smiles>  (251) 
CC(=O)OC1CC2C3CCC4C(C)CC(=O)CC4(C)C3CCC2(C)C1

>  <smiles>  (251) 
[H]C([H])([H])C(=O)OC1([H])C([H])([H])C2([H])C3([H])C([H])([H])C([H])([H])C4([H])C([H])(C([H])([H])[H])C([H])([H])C(=O)C([H])([H])C4(C([H])([H])[H])C3([H])C([H])([H])C([H])([H])C2(C([H])([H])[H])C1([H])[H]

$$$$
75:0:2
     RDKit          3D

 59 62  0  0  1  0  0  0  0  0999 V2000
    4.6059   -0.8551   -1.8991 C   0  0  0  0  0  0  0  0  0  0  0  0
    5.4524   -1.9984   -1.3702 C   0  0  0  0  0  0  0  0  0  0  0  0
    6.5480   -2.2691   -1.8675 O   0  0  0  0  0  0  0  0  0  0  0  0
    4.8700   -2.6282   -0.3399 O   0  0  0  0  0  0  0  0  0  0  0  0
    5.4079   -3.8372    0.1862 C   0  0  2  0  0  0  0  0  0  0  0  0
    4.3182   -4.9228    0.0690 C   0  0  0  0  0  0  0  0  0  0  0  0
    4.2905   -5.5684    1.4561 C   0  0  2  0  0  0  0  0  0  0  0  0
    3.1540   -6.5457    1.8727 C   0  0  2  0  0  0  0  0  0  0  0  0
    1.7605   -6.3018    1.2871 C   0  0  0  0  0  0  0  0  0  0  0  0
    0.8308   -7.4710    1.6608 C   0  0  0  0  0  0  0  0  0  0  0  0
    0.7413   -7.7625    3.1853 C   0  0  1  0  0  0  0  0  0  0  0  0
   -0.1791   -8.9878    3.4927 C   0  0  1  0  0  0  0  0  0  0  0  0
   -1.5794   -8.8884    2.8627 C   0  0  0  0  0  0  0  0  0  0  0  0
    0.4764  -10.3434    3.1544 C   0  0  0  0  0  0  0  0  0  0  0  0
    1.8953  -10.4499    3.6998 C   0  0  0  0  0  0  0  0  0  0  0  0
    2.2893  -11.4430    4.3040 O   0  0  0  0  0  0  0  0  0  0  0  0
    2.8096   -9.2539    3.4284 C   0  0  0  0  0  0  0  0  0  0  0  0
    2.1595   -7.9048    3.8532 C   0  0  2  0  0  0  0  0  0  0  0  0
    2.0141   -7.8829    5.4016 C   0  0  0  0  0  0  0  0  0  0  0  0
    3.0190   -6.6636    3.4201 C   0  0  1  0  0  0  0  0  0  0  0  0
    4.4021   -6.4654    4.0951 C   0  0  0  0  0  0  0  0  0  0  0  0
    5.0364   -5.0714    3.7990 C   0  0  0  0  0  0  0  0  0  0  0  0
    4.6049   -4.4391    2.4447 C   0  0  2  0  0  0  0  0  0  0  0  0
    3.4476   -3.4209    2.6294 C   0  0  0  0  0  0  0  0  0  0  0  0
    5.7403   -3.7155    1.6923 C   0  0  0  0  0  0  0  0  0  0  0  0
    4.4010   -0.1486   -1.0970 H   0  0  0  0  0  0  0  0  0  0  0  0
    3.6556   -1.2358   -2.2720 H   0  0  0  0  0  0  0  0  0  0  0  0
    5.1058   -0.3264   -2.7084 H   0  0  0  0  0  0  0  0  0  0  0  0
    6.3093   -4.1509   -0.3446 H   0  0  0  0  0  0  0  0  0  0  0  0
    3.3553   -4.4643   -0.1636 H   0  0  0  0  0  0  0  0  0  0  0  0
    4.5475   -5.6394   -0.7201 H   0  0  0  0  0  0  0  0  0  0  0  0
    5.1860   -6.1991    1.4645 H   0  0  0  0  0  0  0  0  0  0  0  0
    3.4844   -7.4985    1.4608 H   0  0  0  0  0  0  0  0  0  0  0  0
    1.3584   -5.3610    1.6561 H   0  0  0  0  0  0  0  0  0  0  0  0
    1.8132   -6.2265    0.2013 H   0  0  0  0  0  0  0  0  0  0  0  0
   -0.1588   -7.2629    1.2558 H   0  0  0  0  0  0  0  0  0  0  0  0
    1.1833   -8.3662    1.1504 H   0  0  0  0  0  0  0  0  0  0  0  0
    0.2546   -6.8922    3.6332 H   0  0  0  0  0  0  0  0  0  0  0  0
   -0.3752   -8.9989    4.5642 H   0  0  0  0  0  0  0  0  0  0  0  0
   -1.5526   -9.0185    1.7792 H   0  0  0  0  0  0  0  0  0  0  0  0
   -2.0577   -7.9341    3.0873 H   0  0  0  0  0  0  0  0  0  0  0  0
   -2.2249   -9.6731    3.2595 H   0  0  0  0  0  0  0  0  0  0  0  0
   -0.1225  -11.1524    3.5756 H   0  0  0  0  0  0  0  0  0  0  0  0
    0.5080  -10.4955    2.0758 H   0  0  0  0  0  0  0  0  0  0  0  0
    3.7604   -9.4051    3.9349 H   0  0  0  0  0  0  0  0  0  0  0  0
    3.0122   -9.2817    2.3603 H   0  0  0  0  0  0  0  0  0  0  0  0
    2.9653   -8.0800    5.8943 H   0  0  0  0  0  0  0  0  0  0  0  0
    1.3435   -8.6487    5.7874 H   0  0  0  0  0  0  0  0  0  0  0  0
    1.6441   -6.9226    5.7596 H   0  0  0  0  0  0  0  0  0  0  0  0
    2.4267   -5.8180    3.7668 H   0  0  0  0  0  0  0  0  0  0  0  0
    4.3351   -6.5617    5.1761 H   0  0  0  0  0  0  0  0  0  0  0  0
    5.0755   -7.2542    3.7598 H   0  0  0  0  0  0  0  0  0  0  0  0
    4.7860   -4.3820    4.6067 H   0  0  0  0  0  0  0  0  0  0  0  0
    6.1197   -5.1855    3.8420 H   0  0  0  0  0  0  0  0  0  0  0  0
    3.7740   -2.5768    3.2348 H   0  0  0  0  0  0  0  0  0  0  0  0
    2.5695   -3.8333    3.1125 H   0  0  0  0  0  0  0  0  0  0  0  0
    3.1132   -3.0066    1.6796 H   0  0  0  0  0  0  0  0  0  0  0  0
    6.6836   -4.2349    1.8672 H   0  0  0  0  0  0  0  0  0  0  0  0
    5.8930   -2.6849    2.0165 H   0  0  0  0  0  0  0  0  0  0  0  0
  1  2  1  0
  1 26  1  0
  1 27  1  0
  1 28  1  0
  2  3  2  0
  2  4  1  0
  4  5  1  0
  5 25  1  0
  5  6  1  0
  5 29  1  6
  6  7  1  0
  6 30  1  0
  6 31  1  0
  7 23  1  0
  7  8  1  0
  7 32  1  6
  8 20  1  0
  8  9  1  0
  8 33  1  6
  9 10  1  0
  9 34  1  0
  9 35  1  0
 10 11  1  0
 10 36  1  0
 10 37  1  0
 11 18  1  0
 11 12  1  0
 11 38  1  1
 12 13  1  0
 12 14  1  0
 12 39  1  1
 13 40  1  0
 13 41  1  0
 13 42  1  0
 14 15  1  0
 14 43  1  0
 14 44  1  0
 15 16  2  0
 15 17  1  0
 17 18  1  0
 17 45  1  0
 17 46  1  0
 18 19  1  1
 18 20  1  0
 19 47  1  0
 19 48  1  0
 19 49  1  0
 20 21  1  0
 20 50  1  1
 21 22  1  0
 21 51  1  0
 21 52  1  0
 22 23  1  0
 22 53  1  0
 22 54  1  0
 23 24  1  1
 23 25  1  0
 24 55  1  0
 24 56  1  0
 24 57  1  0
 25 58  1  0
 25 59  1  0
M  END
>  <i_m_ct_stereo_status>  (252) 
1

>  <s_m_source_file>  (252) 
/var/tmp/pbs.5076255.sched01/tmpz7m1v8ep/860kfiy9lw.sdf

>  <i_m_source_file_index>  (252) 
29

>  <i_lp_mmshare_version>  (252) 
48012

>  <i_f3d_flags>  (252) 
0

>  <s_epik_input>  (252) 
W0NIM11DKD1PKU9bQ0BIXShbQ0gyXTEpW0NIMl1bQ0BdKFtDSDNdKShbQ0gyXVtDSDJdW0NAQEhdMjMpW0NASF0xW0NAQEhdMltDSDJdW0NIMl1bQ0BIXShbQ0BdMzRbQ0gzXSlbQ0BASF0oW0NIM10pW0NIMl1DKD1PKVtDSDJdNA==

>  <s_epik_cmdline>  (252) 
J2VwaWtfcHl0aG9uJywgJy1waHQnLCAnMi4wJywgJy1waCcsICc3LjAnLCAnLXRuJywgJzgnLCAnLW1hJywgJzIwMCcsICctaW1hZScsICc8aW5maWxlLm1hZT4nLCAnLW9tYWUnLCAnPG91dGZpbGUubWFlPic=

>  <r_lp_tautomer_probability>  (252) 
1

>  <r_epik_Ionization_Penalty>  (252) 
8.74862e-14

>  <r_epik_Ionization_Penalty_Charging>  (252) 
0

>  <r_epik_Ionization_Penalty_Neutral>  (252) 
8.74862e-14

>  <r_epik_State_Penalty>  (252) 
-0

>  <r_epik_Charging_Adjusted_Penalty>  (252) 
0

>  <i_epik_Tot_Q>  (252) 
0

>  <i_epik_Tot_abs_Q>  (252) 
0

>  <s_epik_Chemistry_Notes>  (252) 
This compound has an ester and may undergo hydrolysis at high or low pH.

>  <s_lp_Force_Field>  (252) 
OPLS3e

>  <r_lp_Energy>  (252) 
44.3021

>  <b_lp_Chiralities_Consistent>  (252) 
1

>  <s_lp_Variant>  (252) 
75:0-1

>  <s_i_glide_gridfile>  (252) 
pfpi4k_grid

>  <i_i_glide_lignum>  (252) 
29

>  <i_i_glide_rotatable_bonds>  (252) 
2

>  <r_i_docking_score>  (252) 
-2.92587

>  <r_i_glide_ligand_efficiency>  (252) 
-0.117035

>  <r_i_glide_ligand_efficiency_sa>  (252) 
-0.342211

>  <r_i_glide_ligand_efficiency_ln>  (252) 
-0.693518

>  <r_i_glide_gscore>  (252) 
-2.92587

>  <r_i_glide_lipo>  (252) 
-0.215085

>  <r_i_glide_hbond>  (252) 
-0.15122

>  <r_i_glide_metal>  (252) 
-0

>  <r_i_glide_rewards>  (252) 
-1.08181

>  <r_i_glide_evdw>  (252) 
-30.308

>  <r_i_glide_ecoul>  (252) 
-0.54024

>  <r_i_glide_erotb>  (252) 
0.158356

>  <r_i_glide_esite>  (252) 
-0.0396677

>  <r_i_glide_emodel>  (252) 
-35.7989

>  <r_i_glide_energy>  (252) 
-30.8483

>  <r_i_glide_einternal>  (252) 
1.28445

>  <r_i_glide_intrahb_reward>  (252) 
-0

>  <i_i_glide_confnum>  (252) 
3

>  <i_i_glide_posenum>  (252) 
33

>  <r_i_glide_eff_state_penalty>  (252) 
0

>  <ligand_id>  (252) 
75

>  <original_smiles>  (252) 
CC(=O)OC1CC2C3CCC4C(C)CC(=O)CC4(C)C3CCC2(C)C1

>  <smiles>  (252) 
[H]C([H])([H])C(=O)OC1([H])C([H])([H])C2([H])C3([H])C([H])([H])C([H])([H])C4([H])C([H])(C([H])([H])[H])C([H])([H])C(=O)C([H])([H])C4(C([H])([H])[H])C3([H])C([H])([H])C([H])([H])C2(C([H])([H])[H])C1([H])[H]

$$$$
76:0:0
     RDKit          3D

 83 89  0  0  1  0  0  0  0  0999 V2000
    0.7314    1.6261    2.7421 C   0  0  0  0  0  0  0  0  0  0  0  0
    1.2434    0.5301    3.3282 C   0  0  0  0  0  0  0  0  0  0  0  0
    0.3796   -0.6477    3.7563 C   0  0  0  0  0  0  0  0  0  0  0  0
    0.6422   -1.0250    5.2409 C   0  0  1  0  0  0  0  0  0  0  0  0
    0.3711    0.2737    6.0679 C   0  0  0  0  0  0  0  0  0  0  0  0
   -0.4153   -2.0395    5.7549 C   0  0  0  0  0  0  0  0  0  0  0  0
   -0.1631   -3.5162    5.4399 C   0  0  0  0  0  0  0  0  0  0  0  0
    1.2477   -3.9658    5.8983 C   0  0  2  0  0  0  0  0  0  0  0  0
    2.2832   -3.1145    5.1362 C   0  0  1  0  0  0  0  0  0  0  0  0
    2.2945   -3.6184    3.6739 C   0  0  0  0  0  0  0  0  0  0  0  0
    2.6023   -5.1203    3.5961 C   0  0  0  0  0  0  0  0  0  0  0  0
    1.6951   -6.1011    4.4148 C   0  0  1  0  0  0  0  0  0  0  0  0
    0.3719   -6.5172    3.7236 C   0  0  1  0  0  0  0  0  0  0  0  0
    0.2116   -6.2727    2.3405 O   0  0  0  0  0  0  0  0  0  0  0  0
    0.6447   -7.9560    4.1412 C   0  0  0  0  0  0  0  0  0  0  0  0
    2.1556   -7.6316    4.3189 C   0  0  1  0  0  0  0  0  0  0  0  0
    2.9544   -7.9473    2.9977 C   0  0  0  0  0  0  0  0  0  0  0  0
    3.5788   -9.3521    2.8018 C   0  0  0  0  0  0  0  0  0  0  0  0
    2.4971  -10.4056    2.4811 C   0  0  0  0  0  0  0  0  0  0  0  0
    4.5421   -9.2849    1.5917 C   0  0  0  0  0  0  0  0  0  0  0  0
    4.3869   -9.7645    4.0481 C   0  0  0  0  0  0  0  0  0  0  0  0
    4.3801   -8.6935    5.1479 C   0  0  0  0  0  0  0  0  0  0  0  0
    2.9421   -8.2709    5.5711 C   0  0  2  0  0  0  0  0  0  0  0  0
    2.2204   -9.5454    6.1422 C   0  0  0  0  0  0  0  0  0  0  0  0
    2.9761  -10.2457    7.1173 O   0  0  0  0  0  0  0  0  0  0  0  0
    3.1133   -7.3114    6.8017 C   0  0  0  0  0  0  0  0  0  0  0  0
    2.8859   -5.8111    6.5835 C   0  0  0  0  0  0  0  0  0  0  0  0
    1.5481   -5.5114    5.8675 C   0  0  1  0  0  0  0  0  0  0  0  0
    0.4286   -6.1645    6.7499 C   0  0  0  0  0  0  0  0  0  0  0  0
    2.1247   -1.5678    5.4436 C   0  0  2  0  0  0  0  0  0  0  0  0
    2.5299   -1.3788    6.9364 C   0  0  0  0  0  0  0  0  0  0  0  0
    3.1537   -0.7217    4.6580 C   0  0  1  0  0  0  0  0  0  0  0  0
    3.2699   -0.8463    3.2279 O   0  0  0  0  0  0  0  0  0  0  0  0
    2.6700    0.3482    3.6903 C   0  0  1  0  0  0  0  0  0  0  0  0
    3.4626    1.5113    3.7526 O   0  0  0  0  0  0  0  0  0  0  0  0
    1.3484    2.4638    2.4632 H   0  0  0  0  0  0  0  0  0  0  0  0
   -0.3234    1.6985    2.5280 H   0  0  0  0  0  0  0  0  0  0  0  0
   -0.6680   -0.3955    3.5990 H   0  0  0  0  0  0  0  0  0  0  0  0
    0.5919   -1.4770    3.0889 H   0  0  0  0  0  0  0  0  0  0  0  0
    0.3054    0.0867    7.1413 H   0  0  0  0  0  0  0  0  0  0  0  0
   -0.5745    0.7332    5.7803 H   0  0  0  0  0  0  0  0  0  0  0  0
    1.1488    1.0298    5.9369 H   0  0  0  0  0  0  0  0  0  0  0  0
   -0.4874   -1.9721    6.8404 H   0  0  0  0  0  0  0  0  0  0  0  0
   -1.3977   -1.7629    5.3799 H   0  0  0  0  0  0  0  0  0  0  0  0
   -0.9517   -4.0636    5.9537 H   0  0  0  0  0  0  0  0  0  0  0  0
   -0.3178   -3.7044    4.3825 H   0  0  0  0  0  0  0  0  0  0  0  0
    1.3018   -3.7083    6.9515 H   0  0  0  0  0  0  0  0  0  0  0  0
    3.2737   -3.3656    5.5047 H   0  0  0  0  0  0  0  0  0  0  0  0
    1.3641   -3.4360    3.1437 H   0  0  0  0  0  0  0  0  0  0  0  0
    3.0672   -3.1249    3.0911 H   0  0  0  0  0  0  0  0  0  0  0  0
    2.5741   -5.3659    2.5347 H   0  0  0  0  0  0  0  0  0  0  0  0
    3.6462   -5.2534    3.8763 H   0  0  0  0  0  0  0  0  0  0  0  0
   -0.5093   -6.1180    4.2216 H   0  0  0  0  0  0  0  0  0  0  0  0
    0.8895   -6.7762    1.9025 H   0  0  0  0  0  0  0  0  0  0  0  0
    0.1069   -8.2256    5.0431 H   0  0  0  0  0  0  0  0  0  0  0  0
    0.4182   -8.6816    3.3618 H   0  0  0  0  0  0  0  0  0  0  0  0
    2.3379   -7.7550    2.1208 H   0  0  0  0  0  0  0  0  0  0  0  0
    3.7860   -7.2519    2.9009 H   0  0  0  0  0  0  0  0  0  0  0  0
    2.9463  -11.3849    2.3035 H   0  0  0  0  0  0  0  0  0  0  0  0
    1.9347  -10.1347    1.5856 H   0  0  0  0  0  0  0  0  0  0  0  0
    1.7727  -10.5321    3.2810 H   0  0  0  0  0  0  0  0  0  0  0  0
    5.0039  -10.2538    1.3890 H   0  0  0  0  0  0  0  0  0  0  0  0
    5.3530   -8.5767    1.7736 H   0  0  0  0  0  0  0  0  0  0  0  0
    4.0349   -8.9713    0.6774 H   0  0  0  0  0  0  0  0  0  0  0  0
    4.0106  -10.7063    4.4473 H   0  0  0  0  0  0  0  0  0  0  0  0
    5.4216   -9.9801    3.7821 H   0  0  0  0  0  0  0  0  0  0  0  0
    4.9518   -9.0685    5.9946 H   0  0  0  0  0  0  0  0  0  0  0  0
    4.9297   -7.8150    4.8078 H   0  0  0  0  0  0  0  0  0  0  0  0
    1.2746   -9.2904    6.6166 H   0  0  0  0  0  0  0  0  0  0  0  0
    1.9688  -10.2655    5.3700 H   0  0  0  0  0  0  0  0  0  0  0  0
    2.4602  -11.0094    7.3813 H   0  0  0  0  0  0  0  0  0  0  0  0
    2.4746   -7.6318    7.6254 H   0  0  0  0  0  0  0  0  0  0  0  0
    4.1054   -7.4326    7.2316 H   0  0  0  0  0  0  0  0  0  0  0  0
    2.9323   -5.2991    7.5440 H   0  0  0  0  0  0  0  0  0  0  0  0
    3.7412   -5.4348    6.0286 H   0  0  0  0  0  0  0  0  0  0  0  0
    0.5399   -7.2321    6.9020 H   0  0  0  0  0  0  0  0  0  0  0  0
   -0.5794   -6.0561    6.3577 H   0  0  0  0  0  0  0  0  0  0  0  0
    0.4301   -5.7227    7.7481 H   0  0  0  0  0  0  0  0  0  0  0  0
    3.4416   -1.9213    7.1874 H   0  0  0  0  0  0  0  0  0  0  0  0
    1.7579   -1.7154    7.6259 H   0  0  0  0  0  0  0  0  0  0  0  0
    2.7258   -0.3337    7.1730 H   0  0  0  0  0  0  0  0  0  0  0  0
    4.1320   -0.6218    5.1231 H   0  0  0  0  0  0  0  0  0  0  0  0
    3.6345    1.8229    2.8729 H   0  0  0  0  0  0  0  0  0  0  0  0
  1  2  2  0
  1 36  1  0
  1 37  1  0
  2 34  1  0
  2  3  1  0
  3  4  1  0
  3 38  1  0
  3 39  1  0
  4 30  1  0
  4  5  1  1
  4  6  1  0
  5 40  1  0
  5 41  1  0
  5 42  1  0
  6  7  1  0
  6 43  1  0
  6 44  1  0
  7  8  1  0
  7 45  1  0
  7 46  1  0
  8 28  1  0
  8  9  1  0
  8 47  1  1
  9 10  1  0
  9 30  1  0
  9 48  1  1
 10 11  1  0
 10 49  1  0
 10 50  1  0
 12 11  1  6
 11 51  1  0
 11 52  1  0
 12 16  1  0
 12 28  1  0
 12 13  1  0
 13 14  1  0
 13 15  1  0
 13 53  1  1
 14 54  1  0
 16 15  1  6
 15 55  1  0
 15 56  1  0
 16 23  1  0
 16 17  1  0
 17 18  1  0
 17 57  1  0
 17 58  1  0
 18 19  1  0
 18 20  1  0
 18 21  1  0
 19 59  1  0
 19 60  1  0
 19 61  1  0
 20 62  1  0
 20 63  1  0
 20 64  1  0
 21 22  1  0
 21 65  1  0
 21 66  1  0
 22 23  1  0
 22 67  1  0
 22 68  1  0
 23 24  1  1
 23 26  1  0
 24 25  1  0
 24 69  1  0
 24 70  1  0
 25 71  1  0
 26 27  1  0
 26 72  1  0
 26 73  1  0
 27 28  1  0
 27 74  1  0
 27 75  1  0
 28 29  1  1
 29 76  1  0
 29 77  1  0
 29 78  1  0
 30 31  1  1
 30 32  1  0
 31 79  1  0
 31 80  1  0
 31 81  1  0
 32 34  1  0
 32 33  1  0
 32 82  1  1
 33 34  1  0
 34 35  1  1
 35 83  1  0
M  END
>  <i_m_ct_stereo_status>  (253) 
1

>  <s_m_source_file>  (253) 
/var/tmp/pbs.5076255.sched01/tmpz7m1v8ep/860kfiy9lw.sdf

>  <i_m_source_file_index>  (253) 
30

>  <i_lp_mmshare_version>  (253) 
48012

>  <i_f3d_flags>  (253) 
0

>  <s_epik_input>  (253) 
TzFbQ0BIXTJbQ0BdMShbT0hdKUMoPVtDSDJdKVtDSDJdW0NAQF0oW0NIM10pKFtDSDJdW0NIMl0zKVtDQEBdMihbQ0gzXSlbQ0BIXShbQ0gyXVtDSDJdNClbQ0BASF0zW0NAXTUoW0NIM10pW0NIMl1bQ0gyXVtDQEBdKFtDSDJdW09IXSkoW0NAXTYoW0NAXTQ1NylbQ0gyXVtDQEBIXTdbT0hdKVtDSDJdW0NIMl1DKFtDSDJdNikoW0NIM10pW0NIM10=

>  <s_epik_cmdline>  (253) 
J2VwaWtfcHl0aG9uJywgJy1waHQnLCAnMi4wJywgJy1waCcsICc3LjAnLCAnLXRuJywgJzgnLCAnLW1hJywgJzIwMCcsICctaW1hZScsICc8aW5maWxlLm1hZT4nLCAnLW9tYWUnLCAnPG91dGZpbGUubWFlPic=

>  <r_lp_tautomer_probability>  (253) 
1

>  <r_epik_Ionization_Penalty>  (253) 
4.42568e-06

>  <r_epik_Ionization_Penalty_Charging>  (253) 
0

>  <r_epik_Ionization_Penalty_Neutral>  (253) 
4.42568e-06

>  <r_epik_State_Penalty>  (253) 
-0

>  <r_epik_Charging_Adjusted_Penalty>  (253) 
0

>  <i_epik_Tot_Q>  (253) 
0

>  <i_epik_Tot_abs_Q>  (253) 
0

>  <s_lp_Force_Field>  (253) 
OPLS3e

>  <r_lp_Energy>  (253) 
128.637

>  <b_lp_Chiralities_Consistent>  (253) 
1

>  <s_lp_Variant>  (253) 
76:0-1

>  <s_i_glide_gridfile>  (253) 
pfpi4k_grid

>  <i_i_glide_lignum>  (253) 
30

>  <i_i_glide_rotatable_bonds>  (253) 
4

>  <r_i_docking_score>  (253) 
-2.4717

>  <r_i_glide_ligand_efficiency>  (253) 
-0.07062

>  <r_i_glide_ligand_efficiency_sa>  (253) 
-0.231003

>  <r_i_glide_ligand_efficiency_ln>  (253) 
-0.542593

>  <r_i_glide_gscore>  (253) 
-2.4717

>  <r_i_glide_lipo>  (253) 
-0.00178919

>  <r_i_glide_hbond>  (253) 
-0.342068

>  <r_i_glide_metal>  (253) 
-0

>  <r_i_glide_rewards>  (253) 
-0.104247

>  <r_i_glide_evdw>  (253) 
-17.3741

>  <r_i_glide_ecoul>  (253) 
-8.26448

>  <r_i_glide_erotb>  (253) 
0.0864456

>  <r_i_glide_esite>  (253) 
-0.00166467

>  <r_i_glide_emodel>  (253) 
-30.0424

>  <r_i_glide_energy>  (253) 
-25.6385

>  <r_i_glide_einternal>  (253) 
0.480082

>  <r_i_glide_intrahb_reward>  (253) 
-0

>  <i_i_glide_confnum>  (253) 
4

>  <i_i_glide_posenum>  (253) 
23

>  <r_i_glide_eff_state_penalty>  (253) 
0

>  <ligand_id>  (253) 
76

>  <original_smiles>  (253) 
C=C1CC2(C)CCC3C(CCC45C(O)CC46CC(C)(C)CCC6(CO)CCC35C)C2(C)C2OC12O

>  <smiles>  (253) 
[H]OC([H])([H])C12C([H])([H])C([H])([H])C(C([H])([H])[H])(C([H])([H])[H])C([H])([H])C13C([H])([H])C([H])(O[H])C31C([H])([H])C([H])([H])C3([H])C([H])(C([H])([H])C([H])([H])C4(C([H])([H])[H])C([H])([H])C(=C([H])[H])C5(O[H])OC5([H])C34C([H])([H])[H])C1(C([H])([H])[H])C([H])([H])C2([H])[H]

$$$$
76:0:1
     RDKit          3D

 83 89  0  0  1  0  0  0  0  0999 V2000
    1.5038    0.9462    2.0837 C   0  0  0  0  0  0  0  0  0  0  0  0
    1.8257   -0.1349    2.8263 C   0  0  0  0  0  0  0  0  0  0  0  0
    0.7726   -1.0560    3.4189 C   0  0  0  0  0  0  0  0  0  0  0  0
    1.0059   -1.2591    4.9431 C   0  0  1  0  0  0  0  0  0  0  0  0
    0.9996    0.1713    5.5681 C   0  0  0  0  0  0  0  0  0  0  0  0
   -0.2038   -1.9715    5.6010 C   0  0  0  0  0  0  0  0  0  0  0  0
   -0.2312   -3.4941    5.4993 C   0  0  0  0  0  0  0  0  0  0  0  0
    1.0855   -4.1271    6.0188 C   0  0  2  0  0  0  0  0  0  0  0  0
    2.2369   -3.6076    5.1425 C   0  0  1  0  0  0  0  0  0  0  0  0
    2.1126   -4.3109    3.7695 C   0  0  0  0  0  0  0  0  0  0  0  0
    2.1351   -5.8399    3.9132 C   0  0  0  0  0  0  0  0  0  0  0  0
    1.0796   -6.5023    4.8616 C   0  0  1  0  0  0  0  0  0  0  0  0
   -0.3107   -6.7563    4.2263 C   0  0  1  0  0  0  0  0  0  0  0  0
   -0.4613   -6.6772    2.8252 O   0  0  0  0  0  0  0  0  0  0  0  0
   -0.3004   -8.1483    4.8211 C   0  0  0  0  0  0  0  0  0  0  0  0
    1.2384   -8.0900    4.9884 C   0  0  1  0  0  0  0  0  0  0  0  0
    1.9465   -8.7372    3.7390 C   0  0  0  0  0  0  0  0  0  0  0  0
    2.2892  -10.2485    3.7538 C   0  0  0  0  0  0  0  0  0  0  0  0
    1.0271  -11.1261    3.5751 C   0  0  0  0  0  0  0  0  0  0  0  0
    3.2194  -10.5343    2.5527 C   0  0  0  0  0  0  0  0  0  0  0  0
    3.0395  -10.6183    5.0503 C   0  0  0  0  0  0  0  0  0  0  0  0
    3.2387   -9.4163    5.9871 C   0  0  0  0  0  0  0  0  0  0  0  0
    1.9076   -8.6775    6.3332 C   0  0  2  0  0  0  0  0  0  0  0  0
    1.0353   -9.7581    7.0734 C   0  0  0  0  0  0  0  0  0  0  0  0
   -0.1282   -9.3311    7.7553 O   0  0  0  0  0  0  0  0  0  0  0  0
    2.3112   -7.6008    7.4084 C   0  0  0  0  0  0  0  0  0  0  0  0
    2.3679   -6.1299    6.9713 C   0  0  0  0  0  0  0  0  0  0  0  0
    1.0940   -5.6854    6.2124 C   0  0  1  0  0  0  0  0  0  0  0  0
   -0.0983   -5.9511    7.1827 C   0  0  0  0  0  0  0  0  0  0  0  0
    2.3688   -2.0330    5.2230 C   0  0  2  0  0  0  0  0  0  0  0  0
    2.8447   -1.7068    6.6696 C   0  0  0  0  0  0  0  0  0  0  0  0
    3.5085   -1.5190    4.3200 C   0  0  1  0  0  0  0  0  0  0  0  0
    3.5441   -1.8631    2.9194 O   0  0  0  0  0  0  0  0  0  0  0  0
    3.1984   -0.5258    3.2134 C   0  0  1  0  0  0  0  0  0  0  0  0
    4.2087    0.4451    3.0741 O   0  0  0  0  0  0  0  0  0  0  0  0
    2.2518    1.6034    1.6810 H   0  0  0  0  0  0  0  0  0  0  0  0
    0.4760    1.1699    1.8530 H   0  0  0  0  0  0  0  0  0  0  0  0
   -0.2137   -0.6381    3.2318 H   0  0  0  0  0  0  0  0  0  0  0  0
    0.8040   -1.9979    2.8800 H   0  0  0  0  0  0  0  0  0  0  0  0
    0.9303    0.1575    6.6575 H   0  0  0  0  0  0  0  0  0  0  0  0
    0.1451    0.7501    5.2170 H   0  0  0  0  0  0  0  0  0  0  0  0
    1.8979    0.7447    5.3270 H   0  0  0  0  0  0  0  0  0  0  0  0
   -0.2332   -1.7362    6.6646 H   0  0  0  0  0  0  0  0  0  0  0  0
   -1.1297   -1.5801    5.1888 H   0  0  0  0  0  0  0  0  0  0  0  0
   -1.0906   -3.8014    6.0893 H   0  0  0  0  0  0  0  0  0  0  0  0
   -0.4593   -3.8019    4.4820 H   0  0  0  0  0  0  0  0  0  0  0  0
    1.2195   -3.7346    7.0221 H   0  0  0  0  0  0  0  0  0  0  0  0
    3.1752   -3.9828    5.5429 H   0  0  0  0  0  0  0  0  0  0  0  0
    1.2130   -4.0378    3.2231 H   0  0  0  0  0  0  0  0  0  0  0  0
    2.9468   -4.0587    3.1172 H   0  0  0  0  0  0  0  0  0  0  0  0
    2.0349   -6.2259    2.8987 H   0  0  0  0  0  0  0  0  0  0  0  0
    3.1448   -6.1227    4.2122 H   0  0  0  0  0  0  0  0  0  0  0  0
   -1.0902   -6.1492    4.6724 H   0  0  0  0  0  0  0  0  0  0  0  0
    0.0522   -7.3864    2.4642 H   0  0  0  0  0  0  0  0  0  0  0  0
   -0.8816   -8.1584    5.7195 H   0  0  0  0  0  0  0  0  0  0  0  0
   -0.6608   -8.9285    4.1577 H   0  0  0  0  0  0  0  0  0  0  0  0
    1.3582   -8.5669    2.8402 H   0  0  0  0  0  0  0  0  0  0  0  0
    2.8905   -8.2326    3.5427 H   0  0  0  0  0  0  0  0  0  0  0  0
    1.2801  -12.1879    3.5400 H   0  0  0  0  0  0  0  0  0  0  0  0
    0.4995  -10.8897    2.6479 H   0  0  0  0  0  0  0  0  0  0  0  0
    0.3107  -11.0027    4.3831 H   0  0  0  0  0  0  0  0  0  0  0  0
    3.4864  -11.5916    2.4917 H   0  0  0  0  0  0  0  0  0  0  0  0
    4.1535   -9.9732    2.6276 H   0  0  0  0  0  0  0  0  0  0  0  0
    2.7570  -10.2591    1.6018 H   0  0  0  0  0  0  0  0  0  0  0  0
    2.5237  -11.4214    5.5770 H   0  0  0  0  0  0  0  0  0  0  0  0
    4.0150  -11.0465    4.8202 H   0  0  0  0  0  0  0  0  0  0  0  0
    3.7428   -9.7681    6.8857 H   0  0  0  0  0  0  0  0  0  0  0  0
    3.9390   -8.7176    5.5285 H   0  0  0  0  0  0  0  0  0  0  0  0
    0.6957  -10.5366    6.4029 H   0  0  0  0  0  0  0  0  0  0  0  0
    1.6490  -10.2433    7.8400 H   0  0  0  0  0  0  0  0  0  0  0  0
   -0.7739   -9.1085    7.1033 H   0  0  0  0  0  0  0  0  0  0  0  0
    1.6665   -7.6698    8.2850 H   0  0  0  0  0  0  0  0  0  0  0  0
    3.2843   -7.8419    7.8333 H   0  0  0  0  0  0  0  0  0  0  0  0
    2.5379   -5.5025    7.8456 H   0  0  0  0  0  0  0  0  0  0  0  0
    3.2647   -6.0077    6.3705 H   0  0  0  0  0  0  0  0  0  0  0  0
   -0.1735   -6.9745    7.5041 H   0  0  0  0  0  0  0  0  0  0  0  0
   -1.0805   -5.7301    6.7792 H   0  0  0  0  0  0  0  0  0  0  0  0
    0.0080   -5.3625    8.0958 H   0  0  0  0  0  0  0  0  0  0  0  0
    3.6481   -2.3675    6.9961 H   0  0  0  0  0  0  0  0  0  0  0  0
    2.0433   -1.7922    7.4010 H   0  0  0  0  0  0  0  0  0  0  0  0
    3.2337   -0.6939    6.7479 H   0  0  0  0  0  0  0  0  0  0  0  0
    4.5050   -1.5325    4.7595 H   0  0  0  0  0  0  0  0  0  0  0  0
    3.9756    1.0227    2.3652 H   0  0  0  0  0  0  0  0  0  0  0  0
  1  2  2  0
  1 36  1  0
  1 37  1  0
  2 34  1  0
  2  3  1  0
  3  4  1  0
  3 38  1  0
  3 39  1  0
  4 30  1  0
  4  5  1  1
  4  6  1  0
  5 40  1  0
  5 41  1  0
  5 42  1  0
  6  7  1  0
  6 43  1  0
  6 44  1  0
  7  8  1  0
  7 45  1  0
  7 46  1  0
  8 28  1  0
  8  9  1  0
  8 47  1  1
  9 10  1  0
  9 30  1  0
  9 48  1  1
 10 11  1  0
 10 49  1  0
 10 50  1  0
 12 11  1  6
 11 51  1  0
 11 52  1  0
 12 16  1  0
 12 28  1  0
 12 13  1  0
 13 14  1  0
 13 15  1  0
 13 53  1  1
 14 54  1  0
 16 15  1  1
 15 55  1  0
 15 56  1  0
 16 23  1  0
 16 17  1  0
 17 18  1  0
 17 57  1  0
 17 58  1  0
 18 19  1  0
 18 20  1  0
 18 21  1  0
 19 59  1  0
 19 60  1  0
 19 61  1  0
 20 62  1  0
 20 63  1  0
 20 64  1  0
 21 22  1  0
 21 65  1  0
 21 66  1  0
 22 23  1  0
 22 67  1  0
 22 68  1  0
 23 24  1  1
 23 26  1  0
 24 25  1  0
 24 69  1  0
 24 70  1  0
 25 71  1  0
 26 27  1  0
 26 72  1  0
 26 73  1  0
 27 28  1  0
 27 74  1  0
 27 75  1  0
 28 29  1  1
 29 76  1  0
 29 77  1  0
 29 78  1  0
 30 31  1  1
 30 32  1  0
 31 79  1  0
 31 80  1  0
 31 81  1  0
 32 34  1  0
 32 33  1  0
 32 82  1  1
 33 34  1  0
 34 35  1  6
 35 83  1  0
M  END
>  <i_m_ct_stereo_status>  (254) 
1

>  <s_m_source_file>  (254) 
/var/tmp/pbs.5076255.sched01/tmpz7m1v8ep/860kfiy9lw.sdf

>  <i_m_source_file_index>  (254) 
30

>  <i_lp_mmshare_version>  (254) 
48012

>  <i_f3d_flags>  (254) 
0

>  <s_epik_input>  (254) 
TzFbQ0BIXTJbQ0BdMShbT0hdKUMoPVtDSDJdKVtDSDJdW0NAQF0oW0NIM10pKFtDSDJdW0NIMl0zKVtDQEBdMihbQ0gzXSlbQ0BIXShbQ0gyXVtDSDJdNClbQ0BASF0zW0NAXTUoW0NIM10pW0NIMl1bQ0gyXVtDQEBdKFtDSDJdW09IXSkoW0NAXTYoW0NAXTQ1NylbQ0gyXVtDQEBIXTdbT0hdKVtDSDJdW0NIMl1DKFtDSDJdNikoW0NIM10pW0NIM10=

>  <s_epik_cmdline>  (254) 
J2VwaWtfcHl0aG9uJywgJy1waHQnLCAnMi4wJywgJy1waCcsICc3LjAnLCAnLXRuJywgJzgnLCAnLW1hJywgJzIwMCcsICctaW1hZScsICc8aW5maWxlLm1hZT4nLCAnLW9tYWUnLCAnPG91dGZpbGUubWFlPic=

>  <r_lp_tautomer_probability>  (254) 
1

>  <r_epik_Ionization_Penalty>  (254) 
4.42568e-06

>  <r_epik_Ionization_Penalty_Charging>  (254) 
0

>  <r_epik_Ionization_Penalty_Neutral>  (254) 
4.42568e-06

>  <r_epik_State_Penalty>  (254) 
-0

>  <r_epik_Charging_Adjusted_Penalty>  (254) 
0

>  <i_epik_Tot_Q>  (254) 
0

>  <i_epik_Tot_abs_Q>  (254) 
0

>  <s_lp_Force_Field>  (254) 
OPLS3e

>  <r_lp_Energy>  (254) 
128.637

>  <b_lp_Chiralities_Consistent>  (254) 
1

>  <s_lp_Variant>  (254) 
76:0-1

>  <s_i_glide_gridfile>  (254) 
pfpi4k_grid

>  <i_i_glide_lignum>  (254) 
30

>  <i_i_glide_rotatable_bonds>  (254) 
4

>  <r_i_docking_score>  (254) 
-2.30386

>  <r_i_glide_ligand_efficiency>  (254) 
-0.0658246

>  <r_i_glide_ligand_efficiency_sa>  (254) 
-0.215316

>  <r_i_glide_ligand_efficiency_ln>  (254) 
-0.505748

>  <r_i_glide_gscore>  (254) 
-2.30386

>  <r_i_glide_lipo>  (254) 
-0.190934

>  <r_i_glide_hbond>  (254) 
-0.16

>  <r_i_glide_metal>  (254) 
-0

>  <r_i_glide_rewards>  (254) 
-0.104247

>  <r_i_glide_evdw>  (254) 
-19.563

>  <r_i_glide_ecoul>  (254) 
-6.37841

>  <r_i_glide_erotb>  (254) 
0.0864456

>  <r_i_glide_esite>  (254) 
-0.000210445

>  <r_i_glide_emodel>  (254) 
-28.7066

>  <r_i_glide_energy>  (254) 
-25.9414

>  <r_i_glide_einternal>  (254) 
2.40481

>  <r_i_glide_intrahb_reward>  (254) 
-0

>  <i_i_glide_confnum>  (254) 
5

>  <i_i_glide_posenum>  (254) 
21

>  <r_i_glide_eff_state_penalty>  (254) 
0

>  <ligand_id>  (254) 
76

>  <original_smiles>  (254) 
C=C1CC2(C)CCC3C(CCC45C(O)CC46CC(C)(C)CCC6(CO)CCC35C)C2(C)C2OC12O

>  <smiles>  (254) 
[H]OC([H])([H])C12C([H])([H])C([H])([H])C(C([H])([H])[H])(C([H])([H])[H])C([H])([H])C13C([H])([H])C([H])(O[H])C31C([H])([H])C([H])([H])C3([H])C([H])(C([H])([H])C([H])([H])C4(C([H])([H])[H])C([H])([H])C(=C([H])[H])C5(O[H])OC5([H])C34C([H])([H])[H])C1(C([H])([H])[H])C([H])([H])C2([H])[H]

$$$$
76:0:2
     RDKit          3D

 83 89  0  0  1  0  0  0  0  0999 V2000
    0.7723  -10.4557    3.9927 C   0  0  0  0  0  0  0  0  0  0  0  0
    0.9978   -9.2247    4.4790 C   0  0  0  0  0  0  0  0  0  0  0  0
    2.1528   -8.3642    4.0076 C   0  0  0  0  0  0  0  0  0  0  0  0
    2.9711   -7.8278    5.2202 C   0  0  1  0  0  0  0  0  0  0  0  0
    3.4160   -9.0896    6.0272 C   0  0  0  0  0  0  0  0  0  0  0  0
    4.3046   -7.1846    4.7466 C   0  0  0  0  0  0  0  0  0  0  0  0
    4.2283   -5.7357    4.2642 C   0  0  0  0  0  0  0  0  0  0  0  0
    3.5622   -4.8290    5.3311 C   0  0  2  0  0  0  0  0  0  0  0  0
    2.1280   -5.3321    5.5692 C   0  0  1  0  0  0  0  0  0  0  0  0
    1.3078   -4.9431    4.3201 C   0  0  0  0  0  0  0  0  0  0  0  0
    1.3617   -3.4269    4.0550 C   0  0  0  0  0  0  0  0  0  0  0  0
    2.7702   -2.7539    3.9093 C   0  0  1  0  0  0  0  0  0  0  0  0
    3.4097   -2.8379    2.4981 C   0  0  1  0  0  0  0  0  0  0  0  0
    2.6131   -3.1936    1.3862 O   0  0  0  0  0  0  0  0  0  0  0  0
    3.7773   -1.3693    2.6055 C   0  0  0  0  0  0  0  0  0  0  0  0
    2.7085   -1.1648    3.7144 C   0  0  1  0  0  0  0  0  0  0  0  0
    1.3378   -0.6848    3.0920 C   0  0  0  0  0  0  0  0  0  0  0  0
    1.0518    0.8331    2.9540 C   0  0  0  0  0  0  0  0  0  0  0  0
    1.8723    1.4506    1.8052 C   0  0  0  0  0  0  0  0  0  0  0  0
   -0.4431    1.0188    2.5951 C   0  0  0  0  0  0  0  0  0  0  0  0
    1.3358    1.5624    4.2814 C   0  0  0  0  0  0  0  0  0  0  0  0
    1.8218    0.6131    5.3883 C   0  0  0  0  0  0  0  0  0  0  0  0
    3.0665   -0.2328    4.9735 C   0  0  2  0  0  0  0  0  0  0  0  0
    4.1865    0.8363    4.6749 C   0  0  0  0  0  0  0  0  0  0  0  0
    5.5257    0.3857    4.6150 O   0  0  0  0  0  0  0  0  0  0  0  0
    3.4903   -1.0032    6.2798 C   0  0  0  0  0  0  0  0  0  0  0  0
    3.1860   -2.5062    6.3574 C   0  0  0  0  0  0  0  0  0  0  0  0
    3.6601   -3.2797    5.1015 C   0  0  1  0  0  0  0  0  0  0  0  0
    5.1933   -3.0132    4.9758 C   0  0  0  0  0  0  0  0  0  0  0  0
    2.1160   -6.8223    6.0992 C   0  0  2  0  0  0  0  0  0  0  0  0
    2.7139   -6.7729    7.5384 C   0  0  0  0  0  0  0  0  0  0  0  0
    0.6748   -7.3490    6.3091 C   0  0  1  0  0  0  0  0  0  0  0  0
   -0.3002   -7.2990    5.2429 O   0  0  0  0  0  0  0  0  0  0  0  0
    0.2073   -8.5913    5.5546 C   0  0  1  0  0  0  0  0  0  0  0  0
   -0.5736   -9.4446    6.3673 O   0  0  0  0  0  0  0  0  0  0  0  0
   -0.0404  -11.0580    4.3613 H   0  0  0  0  0  0  0  0  0  0  0  0
    1.4057  -10.8855    3.2320 H   0  0  0  0  0  0  0  0  0  0  0  0
    2.7878   -8.9473    3.3398 H   0  0  0  0  0  0  0  0  0  0  0  0
    1.7594   -7.5462    3.4072 H   0  0  0  0  0  0  0  0  0  0  0  0
    4.1829   -8.8695    6.7730 H   0  0  0  0  0  0  0  0  0  0  0  0
    3.8400   -9.8474    5.3689 H   0  0  0  0  0  0  0  0  0  0  0  0
    2.5916   -9.5628    6.5674 H   0  0  0  0  0  0  0  0  0  0  0  0
    5.0334   -7.2011    5.5613 H   0  0  0  0  0  0  0  0  0  0  0  0
    4.7408   -7.7892    3.9566 H   0  0  0  0  0  0  0  0  0  0  0  0
    5.2614   -5.4565    4.0639 H   0  0  0  0  0  0  0  0  0  0  0  0
    3.7360   -5.6782    3.2950 H   0  0  0  0  0  0  0  0  0  0  0  0
    4.1314   -4.9875    6.2414 H   0  0  0  0  0  0  0  0  0  0  0  0
    1.6840   -4.7473    6.3690 H   0  0  0  0  0  0  0  0  0  0  0  0
    1.6348   -5.4438    3.4141 H   0  0  0  0  0  0  0  0  0  0  0  0
    0.2573   -5.1940    4.4449 H   0  0  0  0  0  0  0  0  0  0  0  0
    0.7691   -3.2666    3.1506 H   0  0  0  0  0  0  0  0  0  0  0  0
    0.7908   -2.9397    4.8489 H   0  0  0  0  0  0  0  0  0  0  0  0
    4.2939   -3.4661    2.4776 H   0  0  0  0  0  0  0  0  0  0  0  0
    2.1394   -2.4176    1.1237 H   0  0  0  0  0  0  0  0  0  0  0  0
    4.8162   -1.2815    2.8907 H   0  0  0  0  0  0  0  0  0  0  0  0
    3.5956   -0.8087    1.6930 H   0  0  0  0  0  0  0  0  0  0  0  0
    1.1970   -1.1169    2.1026 H   0  0  0  0  0  0  0  0  0  0  0  0
    0.5034   -1.0747    3.6763 H   0  0  0  0  0  0  0  0  0  0  0  0
    1.6321    2.5072    1.6619 H   0  0  0  0  0  0  0  0  0  0  0  0
    1.6576    0.9280    0.8755 H   0  0  0  0  0  0  0  0  0  0  0  0
    2.9451    1.3868    1.9583 H   0  0  0  0  0  0  0  0  0  0  0  0
   -0.7015    2.0722    2.4601 H   0  0  0  0  0  0  0  0  0  0  0  0
   -1.0908    0.6217    3.3785 H   0  0  0  0  0  0  0  0  0  0  0  0
   -0.7052    0.5104    1.6667 H   0  0  0  0  0  0  0  0  0  0  0  0
    2.0594    2.3621    4.1222 H   0  0  0  0  0  0  0  0  0  0  0  0
    0.4396    2.0793    4.6258 H   0  0  0  0  0  0  0  0  0  0  0  0
    2.0242    1.2100    6.2774 H   0  0  0  0  0  0  0  0  0  0  0  0
    1.0067   -0.0486    5.6722 H   0  0  0  0  0  0  0  0  0  0  0  0
    4.0118    1.3583    3.7356 H   0  0  0  0  0  0  0  0  0  0  0  0
    4.1959    1.5916    5.4652 H   0  0  0  0  0  0  0  0  0  0  0  0
    5.5235   -0.4508    4.1793 H   0  0  0  0  0  0  0  0  0  0  0  0
    4.5504   -0.8676    6.4950 H   0  0  0  0  0  0  0  0  0  0  0  0
    3.0254   -0.5412    7.1495 H   0  0  0  0  0  0  0  0  0  0  0  0
    3.6443   -2.9156    7.2593 H   0  0  0  0  0  0  0  0  0  0  0  0
    2.1178   -2.6077    6.5256 H   0  0  0  0  0  0  0  0  0  0  0  0
    5.4445   -1.9675    4.9070 H   0  0  0  0  0  0  0  0  0  0  0  0
    5.6676   -3.4633    4.1038 H   0  0  0  0  0  0  0  0  0  0  0  0
    5.7203   -3.3912    5.8583 H   0  0  0  0  0  0  0  0  0  0  0  0
    2.3145   -5.9481    8.1280 H   0  0  0  0  0  0  0  0  0  0  0  0
    3.7978   -6.6686    7.5361 H   0  0  0  0  0  0  0  0  0  0  0  0
    2.4920   -7.6810    8.0985 H   0  0  0  0  0  0  0  0  0  0  0  0
    0.2175   -7.0889    7.2631 H   0  0  0  0  0  0  0  0  0  0  0  0
   -1.1406   -9.9919    5.8057 H   0  0  0  0  0  0  0  0  0  0  0  0
  1  2  2  0
  1 36  1  0
  1 37  1  0
  2 34  1  0
  2  3  1  0
  3  4  1  0
  3 38  1  0
  3 39  1  0
  4 30  1  0
  4  5  1  1
  4  6  1  0
  5 40  1  0
  5 41  1  0
  5 42  1  0
  6  7  1  0
  6 43  1  0
  6 44  1  0
  7  8  1  0
  7 45  1  0
  7 46  1  0
  8 28  1  0
  8  9  1  0
  8 47  1  1
  9 10  1  0
  9 30  1  0
  9 48  1  1
 10 11  1  0
 10 49  1  0
 10 50  1  0
 12 11  1  6
 11 51  1  0
 11 52  1  0
 12 16  1  0
 12 28  1  0
 12 13  1  0
 13 14  1  0
 13 15  1  0
 13 53  1  1
 14 54  1  0
 16 15  1  6
 15 55  1  0
 15 56  1  0
 16 23  1  0
 16 17  1  0
 17 18  1  0
 17 57  1  0
 17 58  1  0
 18 19  1  0
 18 20  1  0
 18 21  1  0
 19 59  1  0
 19 60  1  0
 19 61  1  0
 20 62  1  0
 20 63  1  0
 20 64  1  0
 21 22  1  0
 21 65  1  0
 21 66  1  0
 22 23  1  0
 22 67  1  0
 22 68  1  0
 23 24  1  6
 23 26  1  0
 24 25  1  0
 24 69  1  0
 24 70  1  0
 25 71  1  0
 26 27  1  0
 26 72  1  0
 26 73  1  0
 27 28  1  0
 27 74  1  0
 27 75  1  0
 28 29  1  6
 29 76  1  0
 29 77  1  0
 29 78  1  0
 30 31  1  1
 30 32  1  0
 31 79  1  0
 31 80  1  0
 31 81  1  0
 32 34  1  0
 32 33  1  0
 32 82  1  1
 33 34  1  0
 34 35  1  1
 35 83  1  0
M  END
>  <i_m_ct_stereo_status>  (255) 
1

>  <s_m_source_file>  (255) 
/var/tmp/pbs.5076255.sched01/tmpz7m1v8ep/860kfiy9lw.sdf

>  <i_m_source_file_index>  (255) 
30

>  <i_lp_mmshare_version>  (255) 
48012

>  <i_f3d_flags>  (255) 
0

>  <s_epik_input>  (255) 
TzFbQ0BIXTJbQ0BdMShbT0hdKUMoPVtDSDJdKVtDSDJdW0NAQF0oW0NIM10pKFtDSDJdW0NIMl0zKVtDQEBdMihbQ0gzXSlbQ0BIXShbQ0gyXVtDSDJdNClbQ0BASF0zW0NAXTUoW0NIM10pW0NIMl1bQ0gyXVtDQEBdKFtDSDJdW09IXSkoW0NAXTYoW0NAXTQ1NylbQ0gyXVtDQEBIXTdbT0hdKVtDSDJdW0NIMl1DKFtDSDJdNikoW0NIM10pW0NIM10=

>  <s_epik_cmdline>  (255) 
J2VwaWtfcHl0aG9uJywgJy1waHQnLCAnMi4wJywgJy1waCcsICc3LjAnLCAnLXRuJywgJzgnLCAnLW1hJywgJzIwMCcsICctaW1hZScsICc8aW5maWxlLm1hZT4nLCAnLW9tYWUnLCAnPG91dGZpbGUubWFlPic=

>  <r_lp_tautomer_probability>  (255) 
1

>  <r_epik_Ionization_Penalty>  (255) 
4.42568e-06

>  <r_epik_Ionization_Penalty_Charging>  (255) 
0

>  <r_epik_Ionization_Penalty_Neutral>  (255) 
4.42568e-06

>  <r_epik_State_Penalty>  (255) 
-0

>  <r_epik_Charging_Adjusted_Penalty>  (255) 
0

>  <i_epik_Tot_Q>  (255) 
0

>  <i_epik_Tot_abs_Q>  (255) 
0

>  <s_lp_Force_Field>  (255) 
OPLS3e

>  <r_lp_Energy>  (255) 
128.637

>  <b_lp_Chiralities_Consistent>  (255) 
1

>  <s_lp_Variant>  (255) 
76:0-1

>  <s_i_glide_gridfile>  (255) 
pfpi4k_grid

>  <i_i_glide_lignum>  (255) 
30

>  <i_i_glide_rotatable_bonds>  (255) 
4

>  <r_i_docking_score>  (255) 
-2.07761

>  <r_i_glide_ligand_efficiency>  (255) 
-0.0593603

>  <r_i_glide_ligand_efficiency_sa>  (255) 
-0.194172

>  <r_i_glide_ligand_efficiency_ln>  (255) 
-0.456082

>  <r_i_glide_gscore>  (255) 
-2.07761

>  <r_i_glide_lipo>  (255) 
-0.055252

>  <r_i_glide_hbond>  (255) 
0

>  <r_i_glide_metal>  (255) 
-0

>  <r_i_glide_rewards>  (255) 
-0.104247

>  <r_i_glide_evdw>  (255) 
-18.8087

>  <r_i_glide_ecoul>  (255) 
-6.8035

>  <r_i_glide_erotb>  (255) 
0.0864456

>  <r_i_glide_esite>  (255) 
-0.0435979

>  <r_i_glide_emodel>  (255) 
-28.0173

>  <r_i_glide_energy>  (255) 
-25.6122

>  <r_i_glide_einternal>  (255) 
2.02236

>  <r_i_glide_intrahb_reward>  (255) 
-0

>  <i_i_glide_confnum>  (255) 
2

>  <i_i_glide_posenum>  (255) 
8

>  <r_i_glide_eff_state_penalty>  (255) 
0

>  <ligand_id>  (255) 
76

>  <original_smiles>  (255) 
C=C1CC2(C)CCC3C(CCC45C(O)CC46CC(C)(C)CCC6(CO)CCC35C)C2(C)C2OC12O

>  <smiles>  (255) 
[H]OC([H])([H])C12C([H])([H])C([H])([H])C(C([H])([H])[H])(C([H])([H])[H])C([H])([H])C13C([H])([H])C([H])(O[H])C31C([H])([H])C([H])([H])C3([H])C([H])(C([H])([H])C([H])([H])C4(C([H])([H])[H])C([H])([H])C(=C([H])[H])C5(O[H])OC5([H])C34C([H])([H])[H])C1(C([H])([H])[H])C([H])([H])C2([H])[H]

$$$$
77:0:0
     RDKit          3D

 42 46  0  0  1  0  0  0  0  0999 V2000
    5.2130   -0.3128    1.8732 C   0  0  0  0  0  0  0  0  0  0  0  0
    5.0713   -1.3504    1.0334 C   0  0  0  0  0  0  0  0  0  0  0  0
    6.1268   -2.3904    0.8138 C   0  0  0  0  0  0  0  0  0  0  0  0
    5.6056   -3.7339    1.3535 C   0  0  2  0  0  0  0  0  0  0  0  0
    5.8640   -5.0338    0.6749 C   0  0  1  0  0  0  0  0  0  0  0  0
    5.8899   -5.9809    2.0025 C   0  0  0  0  0  0  0  0  0  0  0  0
    4.8526   -5.5550    3.1384 C   0  0  0  0  0  0  0  0  0  0  0  0
    3.9382   -4.5584    2.8941 C   0  0  0  0  0  0  0  0  0  0  0  0
    4.0733   -4.0493    1.4771 C   0  0  2  0  0  0  0  0  0  0  0  0
    3.5955   -5.3603    0.7344 C   0  0  0  0  0  0  0  0  0  0  0  0
    4.5909   -5.1287   -0.3185 C   0  0  1  0  0  0  0  0  0  0  0  0
    3.7493   -3.8539   -0.8049 C   0  0  1  0  0  0  0  0  0  0  0  0
    3.3171   -3.0979    0.5101 C   0  0  2  0  0  0  0  0  0  0  0  0
    3.8037   -1.6471    0.2780 C   0  0  2  0  0  0  0  0  0  0  0  0
    4.0178   -1.4863   -1.2472 C   0  0  0  0  0  0  0  0  0  0  0  0
    4.2035   -2.8733   -1.9194 C   0  0  0  0  0  0  0  0  0  0  0  0
    5.6228   -3.1683   -2.4674 C   0  0  0  0  0  0  0  0  0  0  0  0
    3.2595   -2.9267   -3.1514 C   0  0  0  0  0  0  0  0  0  0  0  0
    4.4111    0.3983    2.0225 H   0  0  0  0  0  0  0  0  0  0  0  0
    6.1314   -0.1661    2.4241 H   0  0  0  0  0  0  0  0  0  0  0  0
    6.4097   -2.4053   -0.2240 H   0  0  0  0  0  0  0  0  0  0  0  0
    7.0385   -2.1048    1.3360 H   0  0  0  0  0  0  0  0  0  0  0  0
    6.1069   -3.6803    2.3247 H   0  0  0  0  0  0  0  0  0  0  0  0
    6.8148   -5.0527    0.1412 H   0  0  0  0  0  0  0  0  0  0  0  0
    5.7457   -7.0306    1.7376 H   0  0  0  0  0  0  0  0  0  0  0  0
    6.8836   -5.9230    2.4507 H   0  0  0  0  0  0  0  0  0  0  0  0
    4.9055   -6.0599    4.0918 H   0  0  0  0  0  0  0  0  0  0  0  0
    3.2009   -4.1819    3.5872 H   0  0  0  0  0  0  0  0  0  0  0  0
    3.6905   -6.3568    1.1646 H   0  0  0  0  0  0  0  0  0  0  0  0
    2.5346   -5.3816    0.4650 H   0  0  0  0  0  0  0  0  0  0  0  0
    4.6343   -5.9430   -1.0413 H   0  0  0  0  0  0  0  0  0  0  0  0
    2.8229   -4.2514   -1.2249 H   0  0  0  0  0  0  0  0  0  0  0  0
    2.2353   -3.1224    0.6502 H   0  0  0  0  0  0  0  0  0  0  0  0
    3.0396   -0.9403    0.6100 H   0  0  0  0  0  0  0  0  0  0  0  0
    3.1078   -1.0257   -1.6337 H   0  0  0  0  0  0  0  0  0  0  0  0
    4.8170   -0.7854   -1.4903 H   0  0  0  0  0  0  0  0  0  0  0  0
    6.1547   -2.2560   -2.7207 H   0  0  0  0  0  0  0  0  0  0  0  0
    5.5880   -3.7797   -3.3701 H   0  0  0  0  0  0  0  0  0  0  0  0
    6.2506   -3.7348   -1.7852 H   0  0  0  0  0  0  0  0  0  0  0  0
    3.5483   -2.1888   -3.9019 H   0  0  0  0  0  0  0  0  0  0  0  0
    2.2194   -2.7270   -2.8847 H   0  0  0  0  0  0  0  0  0  0  0  0
    3.2806   -3.9031   -3.6357 H   0  0  0  0  0  0  0  0  0  0  0  0
  1  2  2  0
  1 19  1  0
  1 20  1  0
  2 14  1  0
  2  3  1  0
  3  4  1  0
  3 21  1  0
  3 22  1  0
  4  9  1  0
  4  5  1  0
  4 23  1  1
  5 11  1  0
  5  6  1  0
  5 24  1  6
  6  7  1  0
  6 25  1  0
  6 26  1  0
  7  8  2  0
  7 27  1  0
  9  8  1  1
  8 28  1  0
  9 13  1  0
  9 10  1  0
 10 11  1  0
 10 29  1  0
 10 30  1  0
 11 12  1  0
 11 31  1  6
 12 16  1  0
 12 13  1  0
 12 32  1  6
 13 14  1  0
 13 33  1  1
 14 15  1  0
 14 34  1  1
 15 16  1  0
 15 35  1  0
 15 36  1  0
 16 17  1  0
 16 18  1  0
 17 37  1  0
 17 38  1  0
 17 39  1  0
 18 40  1  0
 18 41  1  0
 18 42  1  0
M  END
>  <i_m_ct_stereo_status>  (256) 
1

>  <s_m_source_file>  (256) 
/var/tmp/pbs.5076255.sched01/tmpz7m1v8ep/860kfiy9lw.sdf

>  <i_m_source_file_index>  (256) 
31

>  <i_lp_mmshare_version>  (256) 
48012

>  <i_f3d_flags>  (256) 
2

>  <s_epik_input>  (256) 
W0NIM11DMShbQ0gzXSlbQ0gyXVtDQEhdKEMoPVtDSDJdKVtDSDJdMilbQ0BIXTNbQ0BASF0xW0NAQEhdKFtDSDJdNClbQ0BASF0oW0NAQEhdMltDQEBdMzQ1KVtDSDJdW0NIXT1bQ0hdNQ==

>  <s_epik_cmdline>  (256) 
J2VwaWtfcHl0aG9uJywgJy1waHQnLCAnMi4wJywgJy1waCcsICc3LjAnLCAnLXRuJywgJzgnLCAnLW1hJywgJzIwMCcsICctaW1hZScsICc8aW5maWxlLm1hZT4nLCAnLW9tYWUnLCAnPG91dGZpbGUubWFlPic=

>  <r_lp_tautomer_probability>  (256) 
1

>  <r_epik_Ionization_Penalty>  (256) 
0

>  <r_epik_Ionization_Penalty_Charging>  (256) 
0

>  <r_epik_Ionization_Penalty_Neutral>  (256) 
0

>  <r_epik_State_Penalty>  (256) 
-0

>  <r_epik_Charging_Adjusted_Penalty>  (256) 
0

>  <i_epik_Tot_Q>  (256) 
0

>  <i_epik_Tot_abs_Q>  (256) 
0

>  <s_lp_Force_Field>  (256) 
OPLS3e

>  <r_lp_Energy>  (256) 
159.215

>  <b_lp_Chiralities_Consistent>  (256) 
0

>  <s_lp_Variant>  (256) 
77:0-1

>  <s_i_glide_gridfile>  (256) 
pfpi4k_grid

>  <i_i_glide_lignum>  (256) 
31

>  <i_i_glide_rotatable_bonds>  (256) 
0

>  <r_i_docking_score>  (256) 
-3.74421

>  <r_i_glide_ligand_efficiency>  (256) 
-0.208012

>  <r_i_glide_ligand_efficiency_sa>  (256) 
-0.545145

>  <r_i_glide_ligand_efficiency_ln>  (256) 
-0.96243

>  <r_i_glide_gscore>  (256) 
-3.74421

>  <r_i_glide_lipo>  (256) 
-0.808961

>  <r_i_glide_hbond>  (256) 
0

>  <r_i_glide_metal>  (256) 
-0

>  <r_i_glide_rewards>  (256) 
-1.77011

>  <r_i_glide_evdw>  (256) 
-22.397

>  <r_i_glide_ecoul>  (256) 
-0.301881

>  <r_i_glide_erotb>  (256) 
0

>  <r_i_glide_esite>  (256) 
0

>  <r_i_glide_emodel>  (256) 
-28.0075

>  <r_i_glide_energy>  (256) 
-22.6989

>  <r_i_glide_einternal>  (256) 
0

>  <r_i_glide_intrahb_reward>  (256) 
-0

>  <i_i_glide_confnum>  (256) 
1

>  <i_i_glide_posenum>  (256) 
2

>  <r_i_glide_eff_state_penalty>  (256) 
0

>  <ligand_id>  (256) 
77

>  <original_smiles>  (256) 
C=C1CC2C3CC=CC24CC3C2C4C1CC2(C)C

>  <smiles>  (256) 
[H]C([H])=C1C([H])([H])C2([H])C3([H])C([H])([H])C([H])=C([H])C24C([H])([H])C3([H])C2([H])C4([H])C1([H])C([H])([H])C2(C([H])([H])[H])C([H])([H])[H]

$$$$
77:0:1
     RDKit          3D

 42 46  0  0  1  0  0  0  0  0999 V2000
    8.4198   -3.8419   -0.4467 C   0  0  0  0  0  0  0  0  0  0  0  0
    7.1636   -3.5865   -0.0386 C   0  0  0  0  0  0  0  0  0  0  0  0
    6.5726   -2.2117    0.0009 C   0  0  0  0  0  0  0  0  0  0  0  0
    5.4238   -2.1434   -1.0220 C   0  0  2  0  0  0  0  0  0  0  0  0
    4.1539   -1.4084   -0.7604 C   0  0  1  0  0  0  0  0  0  0  0  0
    3.8258   -0.9737   -2.2996 C   0  0  0  0  0  0  0  0  0  0  0  0
    4.2162   -2.0623   -3.3964 C   0  0  0  0  0  0  0  0  0  0  0  0
    4.6567   -3.3052   -2.9999 C   0  0  0  0  0  0  0  0  0  0  0  0
    4.6353   -3.4182   -1.4920 C   0  0  2  0  0  0  0  0  0  0  0  0
    3.0674   -3.3449   -1.2918 C   0  0  0  0  0  0  0  0  0  0  0  0
    3.2509   -2.5623   -0.0692 C   0  0  1  0  0  0  0  0  0  0  0  0
    3.8586   -3.8565    0.6471 C   0  0  1  0  0  0  0  0  0  0  0  0
    4.8276   -4.5151   -0.4109 C   0  0  2  0  0  0  0  0  0  0  0  0
    6.1693   -4.6545    0.3493 C   0  0  2  0  0  0  0  0  0  0  0  0
    5.8261   -4.5733    1.8572 C   0  0  0  0  0  0  0  0  0  0  0  0
    4.4653   -3.8606    2.0724 C   0  0  0  0  0  0  0  0  0  0  0  0
    4.5405   -2.4566    2.7303 C   0  0  0  0  0  0  0  0  0  0  0  0
    3.6287   -4.7335    3.0425 C   0  0  0  0  0  0  0  0  0  0  0  0
    8.7933   -4.8555   -0.4957 H   0  0  0  0  0  0  0  0  0  0  0  0
    9.0798   -3.0455   -0.7623 H   0  0  0  0  0  0  0  0  0  0  0  0
    6.2859   -1.9751    1.0099 H   0  0  0  0  0  0  0  0  0  0  0  0
    7.3366   -1.4735   -0.2389 H   0  0  0  0  0  0  0  0  0  0  0  0
    5.9988   -1.6804   -1.8308 H   0  0  0  0  0  0  0  0  0  0  0  0
    4.2905   -0.5413   -0.1130 H   0  0  0  0  0  0  0  0  0  0  0  0
    2.7761   -0.6942   -2.4062 H   0  0  0  0  0  0  0  0  0  0  0  0
    4.3981   -0.0748   -2.5331 H   0  0  0  0  0  0  0  0  0  0  0  0
    4.1354   -1.7792   -4.4333 H   0  0  0  0  0  0  0  0  0  0  0  0
    4.9578   -4.1183   -3.6430 H   0  0  0  0  0  0  0  0  0  0  0  0
    2.3994   -2.8471   -1.9949 H   0  0  0  0  0  0  0  0  0  0  0  0
    2.5519   -4.3037   -1.2199 H   0  0  0  0  0  0  0  0  0  0  0  0
    2.3067   -2.2233    0.3571 H   0  0  0  0  0  0  0  0  0  0  0  0
    3.0260   -4.5555    0.7568 H   0  0  0  0  0  0  0  0  0  0  0  0
    4.4597   -5.4918   -0.7270 H   0  0  0  0  0  0  0  0  0  0  0  0
    6.6201   -5.6254    0.1297 H   0  0  0  0  0  0  0  0  0  0  0  0
    5.7619   -5.6018    2.2177 H   0  0  0  0  0  0  0  0  0  0  0  0
    6.6184   -4.1133    2.4472 H   0  0  0  0  0  0  0  0  0  0  0  0
    5.4252   -2.3521    3.3590 H   0  0  0  0  0  0  0  0  0  0  0  0
    3.6774   -2.2682    3.3693 H   0  0  0  0  0  0  0  0  0  0  0  0
    4.5323   -1.6325    2.0221 H   0  0  0  0  0  0  0  0  0  0  0  0
    4.1013   -4.7783    4.0259 H   0  0  0  0  0  0  0  0  0  0  0  0
    3.5240   -5.7607    2.6871 H   0  0  0  0  0  0  0  0  0  0  0  0
    2.6226   -4.3334    3.1805 H   0  0  0  0  0  0  0  0  0  0  0  0
  1  2  2  0
  1 19  1  0
  1 20  1  0
  2 14  1  0
  2  3  1  0
  3  4  1  0
  3 21  1  0
  3 22  1  0
  4  9  1  0
  4  5  1  0
  4 23  1  6
  5 11  1  0
  5  6  1  0
  5 24  1  1
  6  7  1  0
  6 25  1  0
  6 26  1  0
  7  8  2  0
  7 27  1  0
  9  8  1  6
  8 28  1  0
  9 13  1  0
  9 10  1  0
 10 11  1  0
 10 29  1  0
 10 30  1  0
 11 12  1  0
 11 31  1  1
 12 16  1  0
 12 13  1  0
 12 32  1  1
 13 14  1  0
 13 33  1  6
 14 15  1  0
 14 34  1  1
 15 16  1  0
 15 35  1  0
 15 36  1  0
 16 17  1  0
 16 18  1  0
 17 37  1  0
 17 38  1  0
 17 39  1  0
 18 40  1  0
 18 41  1  0
 18 42  1  0
M  END
>  <i_m_ct_stereo_status>  (257) 
1

>  <s_m_source_file>  (257) 
/var/tmp/pbs.5076255.sched01/tmpz7m1v8ep/860kfiy9lw.sdf

>  <i_m_source_file_index>  (257) 
31

>  <i_lp_mmshare_version>  (257) 
48012

>  <i_f3d_flags>  (257) 
2

>  <s_epik_input>  (257) 
W0NIM11DMShbQ0gzXSlbQ0gyXVtDQEhdKEMoPVtDSDJdKVtDSDJdMilbQ0BIXTNbQ0BASF0xW0NAQEhdKFtDSDJdNClbQ0BASF0oW0NAQEhdMltDQEBdMzQ1KVtDSDJdW0NIXT1bQ0hdNQ==

>  <s_epik_cmdline>  (257) 
J2VwaWtfcHl0aG9uJywgJy1waHQnLCAnMi4wJywgJy1waCcsICc3LjAnLCAnLXRuJywgJzgnLCAnLW1hJywgJzIwMCcsICctaW1hZScsICc8aW5maWxlLm1hZT4nLCAnLW9tYWUnLCAnPG91dGZpbGUubWFlPic=

>  <r_lp_tautomer_probability>  (257) 
1

>  <r_epik_Ionization_Penalty>  (257) 
0

>  <r_epik_Ionization_Penalty_Charging>  (257) 
0

>  <r_epik_Ionization_Penalty_Neutral>  (257) 
0

>  <r_epik_State_Penalty>  (257) 
-0

>  <r_epik_Charging_Adjusted_Penalty>  (257) 
0

>  <i_epik_Tot_Q>  (257) 
0

>  <i_epik_Tot_abs_Q>  (257) 
0

>  <s_lp_Force_Field>  (257) 
OPLS3e

>  <r_lp_Energy>  (257) 
159.215

>  <b_lp_Chiralities_Consistent>  (257) 
0

>  <s_lp_Variant>  (257) 
77:0-1

>  <s_i_glide_gridfile>  (257) 
pfpi4k_grid

>  <i_i_glide_lignum>  (257) 
31

>  <i_i_glide_rotatable_bonds>  (257) 
0

>  <r_i_docking_score>  (257) 
-3.69626

>  <r_i_glide_ligand_efficiency>  (257) 
-0.205348

>  <r_i_glide_ligand_efficiency_sa>  (257) 
-0.538163

>  <r_i_glide_ligand_efficiency_ln>  (257) 
-0.950104

>  <r_i_glide_gscore>  (257) 
-3.69626

>  <r_i_glide_lipo>  (257) 
-0.795611

>  <r_i_glide_hbond>  (257) 
0

>  <r_i_glide_metal>  (257) 
-0

>  <r_i_glide_rewards>  (257) 
-1.77011

>  <r_i_glide_evdw>  (257) 
-24.4661

>  <r_i_glide_ecoul>  (257) 
0.618486

>  <r_i_glide_erotb>  (257) 
0

>  <r_i_glide_esite>  (257) 
0

>  <r_i_glide_emodel>  (257) 
-29.0726

>  <r_i_glide_energy>  (257) 
-23.8476

>  <r_i_glide_einternal>  (257) 
0

>  <r_i_glide_intrahb_reward>  (257) 
-0

>  <i_i_glide_confnum>  (257) 
1

>  <i_i_glide_posenum>  (257) 
1

>  <r_i_glide_eff_state_penalty>  (257) 
0

>  <ligand_id>  (257) 
77

>  <original_smiles>  (257) 
C=C1CC2C3CC=CC24CC3C2C4C1CC2(C)C

>  <smiles>  (257) 
[H]C([H])=C1C([H])([H])C2([H])C3([H])C([H])([H])C([H])=C([H])C24C([H])([H])C3([H])C2([H])C4([H])C1([H])C([H])([H])C2(C([H])([H])[H])C([H])([H])[H]

$$$$
77:0:2
     RDKit          3D

 42 46  0  0  1  0  0  0  0  0999 V2000
    8.4155   -3.9732   -0.4621 C   0  0  0  0  0  0  0  0  0  0  0  0
    7.2129   -3.4870   -0.1063 C   0  0  0  0  0  0  0  0  0  0  0  0
    6.7793   -2.0977   -0.4144 C   0  0  0  0  0  0  0  0  0  0  0  0
    5.5814   -2.1499   -1.3754 C   0  0  2  0  0  0  0  0  0  0  0  0
    4.4241   -1.2165   -1.2732 C   0  0  1  0  0  0  0  0  0  0  0  0
    4.0155   -1.1691   -2.8507 C   0  0  0  0  0  0  0  0  0  0  0  0
    4.2015   -2.5548   -3.6175 C   0  0  0  0  0  0  0  0  0  0  0  0
    4.5511   -3.6840   -2.9167 C   0  0  0  0  0  0  0  0  0  0  0  0
    4.6240   -3.3889   -1.4419 C   0  0  2  0  0  0  0  0  0  0  0  0
    3.0928   -3.0739   -1.1965 C   0  0  0  0  0  0  0  0  0  0  0  0
    3.4573   -2.0111   -0.2535 C   0  0  1  0  0  0  0  0  0  0  0  0
    3.9645   -3.1243    0.7655 C   0  0  1  0  0  0  0  0  0  0  0  0
    4.7628   -4.1739   -0.1146 C   0  0  2  0  0  0  0  0  0  0  0  0
    6.1338   -4.2869    0.5902 C   0  0  2  0  0  0  0  0  0  0  0  0
    5.9124   -3.7406    2.0125 C   0  0  0  0  0  0  0  0  0  0  0  0
    4.6808   -2.8173    2.0972 C   0  0  0  0  0  0  0  0  0  0  0  0
    4.9800   -1.3044    2.3369 C   0  0  0  0  0  0  0  0  0  0  0  0
    3.8499   -3.2663    3.3262 C   0  0  0  0  0  0  0  0  0  0  0  0
    8.6761   -5.0031   -0.2488 H   0  0  0  0  0  0  0  0  0  0  0  0
    9.1268   -3.3720   -1.0141 H   0  0  0  0  0  0  0  0  0  0  0  0
    6.6085   -1.5453    0.4907 H   0  0  0  0  0  0  0  0  0  0  0  0
    7.6241   -1.6013   -0.8726 H   0  0  0  0  0  0  0  0  0  0  0  0
    6.1467   -2.0025   -2.3032 H   0  0  0  0  0  0  0  0  0  0  0  0
    4.7172   -0.2424   -0.8924 H   0  0  0  0  0  0  0  0  0  0  0  0
    2.9889   -0.8134   -2.9705 H   0  0  0  0  0  0  0  0  0  0  0  0
    4.6408   -0.4392   -3.3620 H   0  0  0  0  0  0  0  0  0  0  0  0
    4.0408   -2.5696   -4.6852 H   0  0  0  0  0  0  0  0  0  0  0  0
    4.7024   -4.6749   -3.3212 H   0  0  0  0  0  0  0  0  0  0  0  0
    2.4240   -2.7085   -1.9734 H   0  0  0  0  0  0  0  0  0  0  0  0
    2.4961   -3.9225   -0.8432 H   0  0  0  0  0  0  0  0  0  0  0  0
    2.6242   -1.4309    0.1170 H   0  0  0  0  0  0  0  0  0  0  0  0
    3.0744   -3.6480    1.1089 H   0  0  0  0  0  0  0  0  0  0  0  0
    4.2644   -5.1454   -0.1340 H   0  0  0  0  0  0  0  0  0  0  0  0
    6.4719   -5.3313    0.6298 H   0  0  0  0  0  0  0  0  0  0  0  0
    5.8146   -4.5871    2.6921 H   0  0  0  0  0  0  0  0  0  0  0  0
    6.7697   -3.1641    2.3228 H   0  0  0  0  0  0  0  0  0  0  0  0
    5.9194   -1.1529    2.8660 H   0  0  0  0  0  0  0  0  0  0  0  0
    4.2045   -0.8347    2.9415 H   0  0  0  0  0  0  0  0  0  0  0  0
    5.0041   -0.7046    1.4305 H   0  0  0  0  0  0  0  0  0  0  0  0
    4.4081   -3.0932    4.2475 H   0  0  0  0  0  0  0  0  0  0  0  0
    3.6066   -4.3309    3.2880 H   0  0  0  0  0  0  0  0  0  0  0  0
    2.9101   -2.7127    3.4012 H   0  0  0  0  0  0  0  0  0  0  0  0
  1  2  2  0
  1 19  1  0
  1 20  1  0
  2 14  1  0
  2  3  1  0
  3  4  1  0
  3 21  1  0
  3 22  1  0
  4  9  1  0
  4  5  1  0
  4 23  1  6
  5 11  1  0
  5  6  1  0
  5 24  1  1
  6  7  1  0
  6 25  1  0
  6 26  1  0
  7  8  2  0
  7 27  1  0
  9  8  1  6
  8 28  1  0
  9 13  1  0
  9 10  1  0
 10 11  1  0
 10 29  1  0
 10 30  1  0
 11 12  1  0
 11 31  1  1
 12 16  1  0
 12 13  1  0
 12 32  1  1
 13 14  1  0
 13 33  1  6
 14 15  1  0
 14 34  1  1
 15 16  1  0
 15 35  1  0
 15 36  1  0
 16 17  1  0
 16 18  1  0
 17 37  1  0
 17 38  1  0
 17 39  1  0
 18 40  1  0
 18 41  1  0
 18 42  1  0
M  END
>  <i_m_ct_stereo_status>  (258) 
1

>  <s_m_source_file>  (258) 
/var/tmp/pbs.5076255.sched01/tmpz7m1v8ep/860kfiy9lw.sdf

>  <i_m_source_file_index>  (258) 
31

>  <i_lp_mmshare_version>  (258) 
48012

>  <i_f3d_flags>  (258) 
2

>  <s_epik_input>  (258) 
W0NIM11DMShbQ0gzXSlbQ0gyXVtDQEhdKEMoPVtDSDJdKVtDSDJdMilbQ0BIXTNbQ0BASF0xW0NAQEhdKFtDSDJdNClbQ0BASF0oW0NAQEhdMltDQEBdMzQ1KVtDSDJdW0NIXT1bQ0hdNQ==

>  <s_epik_cmdline>  (258) 
J2VwaWtfcHl0aG9uJywgJy1waHQnLCAnMi4wJywgJy1waCcsICc3LjAnLCAnLXRuJywgJzgnLCAnLW1hJywgJzIwMCcsICctaW1hZScsICc8aW5maWxlLm1hZT4nLCAnLW9tYWUnLCAnPG91dGZpbGUubWFlPic=

>  <r_lp_tautomer_probability>  (258) 
1

>  <r_epik_Ionization_Penalty>  (258) 
0

>  <r_epik_Ionization_Penalty_Charging>  (258) 
0

>  <r_epik_Ionization_Penalty_Neutral>  (258) 
0

>  <r_epik_State_Penalty>  (258) 
-0

>  <r_epik_Charging_Adjusted_Penalty>  (258) 
0

>  <i_epik_Tot_Q>  (258) 
0

>  <i_epik_Tot_abs_Q>  (258) 
0

>  <s_lp_Force_Field>  (258) 
OPLS3e

>  <r_lp_Energy>  (258) 
159.215

>  <b_lp_Chiralities_Consistent>  (258) 
0

>  <s_lp_Variant>  (258) 
77:0-1

>  <s_i_glide_gridfile>  (258) 
pfpi4k_grid

>  <i_i_glide_lignum>  (258) 
31

>  <i_i_glide_rotatable_bonds>  (258) 
0

>  <r_i_docking_score>  (258) 
-3.31089

>  <r_i_glide_ligand_efficiency>  (258) 
-0.183938

>  <r_i_glide_ligand_efficiency_sa>  (258) 
-0.482054

>  <r_i_glide_ligand_efficiency_ln>  (258) 
-0.851046

>  <r_i_glide_gscore>  (258) 
-3.31089

>  <r_i_glide_lipo>  (258) 
-0.662344

>  <r_i_glide_hbond>  (258) 
0

>  <r_i_glide_metal>  (258) 
-0

>  <r_i_glide_rewards>  (258) 
-1.77011

>  <r_i_glide_evdw>  (258) 
-20.5965

>  <r_i_glide_ecoul>  (258) 
1.00932

>  <r_i_glide_erotb>  (258) 
0

>  <r_i_glide_esite>  (258) 
0

>  <r_i_glide_emodel>  (258) 
-24.2618

>  <r_i_glide_energy>  (258) 
-19.5872

>  <r_i_glide_einternal>  (258) 
0

>  <r_i_glide_intrahb_reward>  (258) 
-0

>  <i_i_glide_confnum>  (258) 
1

>  <i_i_glide_posenum>  (258) 
15

>  <r_i_glide_eff_state_penalty>  (258) 
0

>  <ligand_id>  (258) 
77

>  <original_smiles>  (258) 
C=C1CC2C3CC=CC24CC3C2C4C1CC2(C)C

>  <smiles>  (258) 
[H]C([H])=C1C([H])([H])C2([H])C3([H])C([H])([H])C([H])=C([H])C24C([H])([H])C3([H])C2([H])C4([H])C1([H])C([H])([H])C2(C([H])([H])[H])C([H])([H])[H]

$$$$
78:0:0
     RDKit          3D

 52 57  0  0  1  0  0  0  0  0999 V2000
    4.7598   -4.5064   -1.5665 C   0  0  0  0  0  0  0  0  0  0  0  0
    3.7402   -3.4525   -1.0656 C   0  0  2  0  0  0  0  0  0  0  0  0
    2.4621   -3.3497   -1.9509 C   0  0  0  0  0  0  0  0  0  0  0  0
    2.8650   -2.5254   -3.1847 C   0  0  0  0  0  0  0  0  0  0  0  0
    4.1909   -1.8338   -2.8171 C   0  0  1  0  0  0  0  0  0  0  0  0
    4.2166   -0.4836   -3.2261 O   0  0  0  0  0  0  0  0  0  0  0  0
    4.2612   -2.0106   -1.2904 C   0  0  2  0  0  0  0  0  0  0  0  0
    5.5724   -1.5710   -0.5904 C   0  0  2  0  0  0  0  0  0  0  0  0
    6.8608   -2.2372   -1.1231 C   0  0  0  0  0  0  0  0  0  0  0  0
    8.0127   -2.1413   -0.4427 C   0  0  0  0  0  0  0  0  0  0  0  0
    8.0383   -1.3815    0.7619 C   0  0  0  0  0  0  0  0  0  0  0  0
    6.9003   -1.0665    1.4447 C   0  0  0  0  0  0  0  0  0  0  0  0
    5.5944   -1.4622    0.9713 C   0  0  1  0  0  0  0  0  0  0  0  0
    4.3424   -1.0370    1.6544 C   0  0  0  0  0  0  0  0  0  0  0  0
    4.8906   -2.4322    1.9393 C   0  0  2  0  0  0  0  0  0  0  0  0
    5.1402   -2.6550    3.4374 C   0  0  0  0  0  0  0  0  0  0  0  0
    4.0632   -3.6205    4.0247 C   0  0  0  0  0  0  0  0  0  0  0  0
    3.7798   -4.9123    3.1732 C   0  0  1  0  0  0  0  0  0  0  0  0
    2.4020   -4.9295    2.4156 C   0  0  0  0  0  0  0  0  0  0  0  0
    2.4863   -4.8988    0.8440 C   0  0  0  0  0  0  0  0  0  0  0  0
    3.4158   -3.7248    0.4228 C   0  0  1  0  0  0  0  0  0  0  0  0
    4.7456   -3.7473    1.1989 C   0  0  2  0  0  0  0  0  0  0  0  0
    4.8491   -4.9660    2.1075 C   0  0  0  0  0  0  0  0  0  0  0  0
    5.6700   -5.8690    1.9760 O   0  0  0  0  0  0  0  0  0  0  0  0
    4.4988   -5.4457   -1.0852 H   0  0  0  0  0  0  0  0  0  0  0  0
    5.8205   -4.3776   -1.3334 H   0  0  0  0  0  0  0  0  0  0  0  0
    4.6689   -4.6156   -2.6493 H   0  0  0  0  0  0  0  0  0  0  0  0
    1.9646   -4.2606   -2.2692 H   0  0  0  0  0  0  0  0  0  0  0  0
    1.6981   -2.8071   -1.3818 H   0  0  0  0  0  0  0  0  0  0  0  0
    2.9790   -3.1527   -4.0677 H   0  0  0  0  0  0  0  0  0  0  0  0
    2.0559   -1.8349   -3.3992 H   0  0  0  0  0  0  0  0  0  0  0  0
    5.0084   -2.3631   -3.3165 H   0  0  0  0  0  0  0  0  0  0  0  0
    3.4396   -0.0675   -2.8712 H   0  0  0  0  0  0  0  0  0  0  0  0
    3.4844   -1.3405   -0.9131 H   0  0  0  0  0  0  0  0  0  0  0  0
    5.6873   -0.5313   -0.9008 H   0  0  0  0  0  0  0  0  0  0  0  0
    6.8614   -2.6617   -2.1126 H   0  0  0  0  0  0  0  0  0  0  0  0
    8.9694   -2.4666   -0.8554 H   0  0  0  0  0  0  0  0  0  0  0  0
    8.9735   -1.0644    1.2054 H   0  0  0  0  0  0  0  0  0  0  0  0
    6.9258   -0.5695    2.4058 H   0  0  0  0  0  0  0  0  0  0  0  0
    4.4531   -0.3067    2.4550 H   0  0  0  0  0  0  0  0  0  0  0  0
    3.4228   -0.9368    1.1062 H   0  0  0  0  0  0  0  0  0  0  0  0
    6.1252   -3.1094    3.5434 H   0  0  0  0  0  0  0  0  0  0  0  0
    5.1441   -1.7137    3.9826 H   0  0  0  0  0  0  0  0  0  0  0  0
    4.3799   -3.9313    5.0236 H   0  0  0  0  0  0  0  0  0  0  0  0
    3.1497   -3.0499    4.1667 H   0  0  0  0  0  0  0  0  0  0  0  0
    3.8734   -5.8000    3.7946 H   0  0  0  0  0  0  0  0  0  0  0  0
    1.8420   -5.8103    2.7362 H   0  0  0  0  0  0  0  0  0  0  0  0
    1.8070   -4.0745    2.7397 H   0  0  0  0  0  0  0  0  0  0  0  0
    2.8247   -5.8668    0.4512 H   0  0  0  0  0  0  0  0  0  0  0  0
    1.5063   -4.7205    0.4167 H   0  0  0  0  0  0  0  0  0  0  0  0
    2.8216   -2.8747    0.7383 H   0  0  0  0  0  0  0  0  0  0  0  0
    5.6246   -3.8483    0.5695 H   0  0  0  0  0  0  0  0  0  0  0  0
  2  1  1  6
  1 25  1  0
  1 26  1  0
  1 27  1  0
  2  7  1  0
  2 21  1  0
  2  3  1  0
  3  4  1  0
  3 28  1  0
  3 29  1  0
  4  5  1  0
  4 30  1  0
  4 31  1  0
  5  6  1  0
  5  7  1  0
  5 32  1  6
  6 33  1  0
  7  8  1  0
  7 34  1  1
  8 13  1  0
  8  9  1  0
  8 35  1  6
  9 10  2  0
  9 36  1  0
 10 11  1  0
 10 37  1  0
 11 12  2  0
 11 38  1  0
 12 13  1  0
 12 39  1  0
 13 15  1  0
 13 14  1  6
 15 14  1  1
 14 40  1  0
 14 41  1  0
 15 22  1  0
 15 16  1  0
 16 17  1  0
 16 42  1  0
 16 43  1  0
 17 18  1  0
 17 44  1  0
 17 45  1  0
 18 23  1  0
 18 19  1  0
 18 46  1  1
 19 20  1  0
 19 47  1  0
 19 48  1  0
 20 21  1  0
 20 49  1  0
 20 50  1  0
 21 22  1  0
 21 51  1  1
 22 23  1  0
 22 52  1  6
 23 24  2  0
M  END
>  <i_m_ct_stereo_status>  (259) 
1

>  <s_m_source_file>  (259) 
/var/tmp/pbs.5076255.sched01/tmpz7m1v8ep/860kfiy9lw.sdf

>  <i_m_source_file_index>  (259) 
32

>  <i_lp_mmshare_version>  (259) 
48012

>  <i_f3d_flags>  (259) 
0

>  <s_epik_input>  (259) 
W0NIMl0xW0NIMl1bQ0BIXShDMj1PKVtDSDJdW0NIMl1bQ0BASF0oW0NIXTJbQ0BAXTEoW0NAXTM0NSlbQ0gyXTUpW0NAXTYoW0NIM10pW0NASF0oW0NASF0oW09IXSlbQ0gyXVtDSDJdNilbQ0BASF0zW0NIXT1bQ0hdW0NIXT1bQ0hdNA==

>  <s_epik_cmdline>  (259) 
J2VwaWtfcHl0aG9uJywgJy1waHQnLCAnMi4wJywgJy1waCcsICc3LjAnLCAnLXRuJywgJzgnLCAnLW1hJywgJzIwMCcsICctaW1hZScsICc8aW5maWxlLm1hZT4nLCAnLW9tYWUnLCAnPG91dGZpbGUubWFlPic=

>  <r_lp_tautomer_probability>  (259) 
1

>  <r_epik_Ionization_Penalty>  (259) 
1.42867e-06

>  <r_epik_Ionization_Penalty_Charging>  (259) 
0

>  <r_epik_Ionization_Penalty_Neutral>  (259) 
1.42867e-06

>  <r_epik_State_Penalty>  (259) 
-0

>  <r_epik_Charging_Adjusted_Penalty>  (259) 
0

>  <i_epik_Tot_Q>  (259) 
0

>  <i_epik_Tot_abs_Q>  (259) 
0

>  <s_lp_Force_Field>  (259) 
OPLS3e

>  <r_lp_Energy>  (259) 
99.5329

>  <b_lp_Chiralities_Consistent>  (259) 
1

>  <s_lp_Variant>  (259) 
78:0-1

>  <s_i_glide_gridfile>  (259) 
pfpi4k_grid

>  <i_i_glide_lignum>  (259) 
32

>  <i_i_glide_rotatable_bonds>  (259) 
1

>  <r_i_docking_score>  (259) 
-2.53878

>  <r_i_glide_ligand_efficiency>  (259) 
-0.105782

>  <r_i_glide_ligand_efficiency_sa>  (259) 
-0.305129

>  <r_i_glide_ligand_efficiency_ln>  (259) 
-0.607646

>  <r_i_glide_gscore>  (259) 
-2.53878

>  <r_i_glide_lipo>  (259) 
-0.585866

>  <r_i_glide_hbond>  (259) 
0

>  <r_i_glide_metal>  (259) 
-0

>  <r_i_glide_rewards>  (259) 
-1.21828

>  <r_i_glide_evdw>  (259) 
-5.89977

>  <r_i_glide_ecoul>  (259) 
-2.93097

>  <r_i_glide_erotb>  (259) 
0

>  <r_i_glide_esite>  (259) 
0

>  <r_i_glide_emodel>  (259) 
-7.56085

>  <r_i_glide_energy>  (259) 
-8.83075

>  <r_i_glide_einternal>  (259) 
0.0246884

>  <r_i_glide_intrahb_reward>  (259) 
-0

>  <i_i_glide_confnum>  (259) 
2

>  <i_i_glide_posenum>  (259) 
16

>  <r_i_glide_eff_state_penalty>  (259) 
0

>  <ligand_id>  (259) 
78

>  <original_smiles>  (259) 
CC12CCC(O)C1C1C=CC=CC13CC31CCC3CCC2C1C3=O

>  <smiles>  (259) 
[H]OC1([H])C([H])([H])C([H])([H])C2(C([H])([H])[H])C3([H])C([H])([H])C([H])([H])C4([H])C(=O)C3([H])C3(C([H])([H])C4([H])[H])C([H])([H])C34C([H])=C([H])C([H])=C([H])C4([H])C12[H]

$$$$
78:0:1
     RDKit          3D

 52 57  0  0  1  0  0  0  0  0999 V2000
    4.9936   -4.0341   -1.6832 C   0  0  0  0  0  0  0  0  0  0  0  0
    3.6659   -3.3011   -1.3064 C   0  0  2  0  0  0  0  0  0  0  0  0
    2.7425   -3.2696   -2.5480 C   0  0  0  0  0  0  0  0  0  0  0  0
    3.2524   -2.1221   -3.4273 C   0  0  0  0  0  0  0  0  0  0  0  0
    4.2075   -1.3336   -2.5598 C   0  0  1  0  0  0  0  0  0  0  0  0
    4.0503    0.0199   -2.9287 O   0  0  0  0  0  0  0  0  0  0  0  0
    3.8442   -1.7531   -1.1202 C   0  0  2  0  0  0  0  0  0  0  0  0
    4.6470   -1.1628    0.0869 C   0  0  2  0  0  0  0  0  0  0  0  0
    6.1382   -1.3393   -0.0406 C   0  0  0  0  0  0  0  0  0  0  0  0
    6.9335   -1.1313    1.0329 C   0  0  0  0  0  0  0  0  0  0  0  0
    6.3527   -0.7425    2.3084 C   0  0  0  0  0  0  0  0  0  0  0  0
    5.0511   -0.8545    2.5698 C   0  0  0  0  0  0  0  0  0  0  0  0
    4.1650   -1.4185    1.5622 C   0  0  1  0  0  0  0  0  0  0  0  0
    2.7102   -1.4446    1.8238 C   0  0  0  0  0  0  0  0  0  0  0  0
    3.5431   -2.7065    2.0902 C   0  0  2  0  0  0  0  0  0  0  0  0
    3.3769   -3.2090    3.5327 C   0  0  0  0  0  0  0  0  0  0  0  0
    2.4736   -4.4806    3.5621 C   0  0  0  0  0  0  0  0  0  0  0  0
    2.8477   -5.5869    2.5136 C   0  0  1  0  0  0  0  0  0  0  0  0
    1.8067   -5.7522    1.3700 C   0  0  0  0  0  0  0  0  0  0  0  0
    2.2773   -5.2972   -0.0400 C   0  0  0  0  0  0  0  0  0  0  0  0
    2.9873   -3.9143   -0.0334 C   0  0  1  0  0  0  0  0  0  0  0  0
    3.9764   -3.8163    1.1532 C   0  0  2  0  0  0  0  0  0  0  0  0
    4.1476   -5.1637    1.8608 C   0  0  0  0  0  0  0  0  0  0  0  0
    5.1862   -5.8184    1.8824 O   0  0  0  0  0  0  0  0  0  0  0  0
    4.8532   -5.1136   -1.6453 H   0  0  0  0  0  0  0  0  0  0  0  0
    5.8434   -3.8109   -1.0388 H   0  0  0  0  0  0  0  0  0  0  0  0
    5.3035   -3.8150   -2.7019 H   0  0  0  0  0  0  0  0  0  0  0  0
    2.7512   -4.1691   -3.1627 H   0  0  0  0  0  0  0  0  0  0  0  0
    1.7140   -3.0863   -2.2439 H   0  0  0  0  0  0  0  0  0  0  0  0
    3.7671   -2.4970   -4.3107 H   0  0  0  0  0  0  0  0  0  0  0  0
    2.3895   -1.5529   -3.7735 H   0  0  0  0  0  0  0  0  0  0  0  0
    5.2437   -1.5964   -2.7808 H   0  0  0  0  0  0  0  0  0  0  0  0
    3.1576    0.2642   -2.6917 H   0  0  0  0  0  0  0  0  0  0  0  0
    2.8468   -1.3701   -0.9584 H   0  0  0  0  0  0  0  0  0  0  0  0
    4.5417   -0.0813   -0.0354 H   0  0  0  0  0  0  0  0  0  0  0  0
    6.5464   -1.5754   -1.0024 H   0  0  0  0  0  0  0  0  0  0  0  0
    8.0087   -1.1976    0.9151 H   0  0  0  0  0  0  0  0  0  0  0  0
    6.9963   -0.3206    3.0832 H   0  0  0  0  0  0  0  0  0  0  0  0
    4.6508   -0.5719    3.5342 H   0  0  0  0  0  0  0  0  0  0  0  0
    2.3736   -0.8754    2.6949 H   0  0  0  0  0  0  0  0  0  0  0  0
    2.0418   -1.3992    0.9819 H   0  0  0  0  0  0  0  0  0  0  0  0
    4.3679   -3.4317    3.9320 H   0  0  0  0  0  0  0  0  0  0  0  0
    2.9391   -2.4251    4.1555 H   0  0  0  0  0  0  0  0  0  0  0  0
    2.5164   -4.9239    4.5549 H   0  0  0  0  0  0  0  0  0  0  0  0
    1.4447   -4.1353    3.4531 H   0  0  0  0  0  0  0  0  0  0  0  0
    2.9847   -6.5501    3.0036 H   0  0  0  0  0  0  0  0  0  0  0  0
    1.4515   -6.7829    1.3066 H   0  0  0  0  0  0  0  0  0  0  0  0
    0.9789   -5.1446    1.6634 H   0  0  0  0  0  0  0  0  0  0  0  0
    2.9860   -6.0563   -0.3696 H   0  0  0  0  0  0  0  0  0  0  0  0
    1.4377   -5.2540   -0.7435 H   0  0  0  0  0  0  0  0  0  0  0  0
    2.1399   -3.2654    0.1436 H   0  0  0  0  0  0  0  0  0  0  0  0
    4.9835   -3.5828    0.8229 H   0  0  0  0  0  0  0  0  0  0  0  0
  2  1  1  6
  1 25  1  0
  1 26  1  0
  1 27  1  0
  2  7  1  0
  2 21  1  0
  2  3  1  0
  3  4  1  0
  3 28  1  0
  3 29  1  0
  4  5  1  0
  4 30  1  0
  4 31  1  0
  5  6  1  0
  5  7  1  0
  5 32  1  6
  6 33  1  0
  7  8  1  0
  7 34  1  1
  8 13  1  0
  8  9  1  0
  8 35  1  6
  9 10  2  0
  9 36  1  0
 10 11  1  0
 10 37  1  0
 11 12  2  0
 11 38  1  0
 12 13  1  0
 12 39  1  0
 13 15  1  0
 13 14  1  6
 15 14  1  6
 14 40  1  0
 14 41  1  0
 15 22  1  0
 15 16  1  0
 16 17  1  0
 16 42  1  0
 16 43  1  0
 17 18  1  0
 17 44  1  0
 17 45  1  0
 18 23  1  0
 18 19  1  0
 18 46  1  1
 19 20  1  0
 19 47  1  0
 19 48  1  0
 20 21  1  0
 20 49  1  0
 20 50  1  0
 21 22  1  0
 21 51  1  1
 22 23  1  0
 22 52  1  6
 23 24  2  0
M  END
>  <i_m_ct_stereo_status>  (260) 
1

>  <s_m_source_file>  (260) 
/var/tmp/pbs.5076255.sched01/tmpz7m1v8ep/860kfiy9lw.sdf

>  <i_m_source_file_index>  (260) 
32

>  <i_lp_mmshare_version>  (260) 
48012

>  <i_f3d_flags>  (260) 
0

>  <s_epik_input>  (260) 
W0NIMl0xW0NIMl1bQ0BIXShDMj1PKVtDSDJdW0NIMl1bQ0BASF0oW0NIXTJbQ0BAXTEoW0NAXTM0NSlbQ0gyXTUpW0NAXTYoW0NIM10pW0NASF0oW0NASF0oW09IXSlbQ0gyXVtDSDJdNilbQ0BASF0zW0NIXT1bQ0hdW0NIXT1bQ0hdNA==

>  <s_epik_cmdline>  (260) 
J2VwaWtfcHl0aG9uJywgJy1waHQnLCAnMi4wJywgJy1waCcsICc3LjAnLCAnLXRuJywgJzgnLCAnLW1hJywgJzIwMCcsICctaW1hZScsICc8aW5maWxlLm1hZT4nLCAnLW9tYWUnLCAnPG91dGZpbGUubWFlPic=

>  <r_lp_tautomer_probability>  (260) 
1

>  <r_epik_Ionization_Penalty>  (260) 
1.42867e-06

>  <r_epik_Ionization_Penalty_Charging>  (260) 
0

>  <r_epik_Ionization_Penalty_Neutral>  (260) 
1.42867e-06

>  <r_epik_State_Penalty>  (260) 
-0

>  <r_epik_Charging_Adjusted_Penalty>  (260) 
0

>  <i_epik_Tot_Q>  (260) 
0

>  <i_epik_Tot_abs_Q>  (260) 
0

>  <s_lp_Force_Field>  (260) 
OPLS3e

>  <r_lp_Energy>  (260) 
99.5329

>  <b_lp_Chiralities_Consistent>  (260) 
1

>  <s_lp_Variant>  (260) 
78:0-1

>  <s_i_glide_gridfile>  (260) 
pfpi4k_grid

>  <i_i_glide_lignum>  (260) 
32

>  <i_i_glide_rotatable_bonds>  (260) 
1

>  <r_i_docking_score>  (260) 
-2.43539

>  <r_i_glide_ligand_efficiency>  (260) 
-0.101474

>  <r_i_glide_ligand_efficiency_sa>  (260) 
-0.292703

>  <r_i_glide_ligand_efficiency_ln>  (260) 
-0.582899

>  <r_i_glide_gscore>  (260) 
-2.43539

>  <r_i_glide_lipo>  (260) 
-0.371102

>  <r_i_glide_hbond>  (260) 
-0.0355286

>  <r_i_glide_metal>  (260) 
-0

>  <r_i_glide_rewards>  (260) 
-1.2143

>  <r_i_glide_evdw>  (260) 
-12.5227

>  <r_i_glide_ecoul>  (260) 
-1.2555

>  <r_i_glide_erotb>  (260) 
0

>  <r_i_glide_esite>  (260) 
0

>  <r_i_glide_emodel>  (260) 
-12.019

>  <r_i_glide_energy>  (260) 
-13.7782

>  <r_i_glide_einternal>  (260) 
0.0859891

>  <r_i_glide_intrahb_reward>  (260) 
-0

>  <i_i_glide_confnum>  (260) 
2

>  <i_i_glide_posenum>  (260) 
22

>  <r_i_glide_eff_state_penalty>  (260) 
0

>  <ligand_id>  (260) 
78

>  <original_smiles>  (260) 
CC12CCC(O)C1C1C=CC=CC13CC31CCC3CCC2C1C3=O

>  <smiles>  (260) 
[H]OC1([H])C([H])([H])C([H])([H])C2(C([H])([H])[H])C3([H])C([H])([H])C([H])([H])C4([H])C(=O)C3([H])C3(C([H])([H])C4([H])[H])C([H])([H])C34C([H])=C([H])C([H])=C([H])C4([H])C12[H]

$$$$
79:0:0
     RDKit          3D

 61 66  0  0  1  0  0  0  0  0999 V2000
    2.9298   -2.2997   -2.6228 C   0  0  0  0  0  0  0  0  0  0  0  0
    4.1076   -2.3203   -1.6657 C   0  0  0  0  0  0  0  0  0  0  0  0
    4.1527   -1.6419   -0.4917 C   0  0  0  0  0  0  0  0  0  0  0  0
    3.1255   -0.9364   -0.0079 O   0  0  0  0  0  0  0  0  0  0  0  0
    5.3420   -1.6353    0.3983 C   0  0  0  0  0  0  0  0  0  0  0  0
    5.4894   -0.7353    1.2241 O   0  0  0  0  0  0  0  0  0  0  0  0
    6.3627   -2.7333    0.2279 C   0  0  2  0  0  0  0  0  0  0  0  0
    7.9700   -1.8718    0.2067 Cl  0  0  0  0  0  0  0  0  0  0  0  0
    6.1471   -3.6188   -1.0011 C   0  0  2  0  0  0  0  0  0  0  0  0
    5.2473   -3.1853   -2.1523 C   0  0  0  0  0  0  0  0  0  0  0  0
    5.7254   -4.7748   -0.0860 C   0  0  2  0  0  0  0  0  0  0  0  0
    4.2674   -5.1426    0.1610 C   0  0  0  0  0  0  0  0  0  0  0  0
    3.8765   -4.4915    1.5092 C   0  0  2  0  0  0  0  0  0  0  0  0
    5.2199   -4.2869    2.2764 C   0  0  1  0  0  0  0  0  0  0  0  0
    5.2007   -3.1019    3.2700 C   0  0  0  0  0  0  0  0  0  0  0  0
    5.5301   -5.6249    3.0352 C   0  0  0  0  0  0  0  0  0  0  0  0
    4.3772   -6.2753    3.8443 C   0  0  1  0  0  0  0  0  0  0  0  0
    4.1507   -5.5732    5.0513 O   0  0  0  0  0  0  0  0  0  0  0  0
    3.0952   -6.5031    2.9879 C   0  0  1  0  0  0  0  0  0  0  0  0
    3.4889   -7.4080    2.0898 F   0  0  0  0  0  0  0  0  0  0  0  0
    1.8601   -7.1452    3.7287 C   0  0  1  0  0  0  0  0  0  0  0  0
    0.8131   -7.7305    2.7346 C   0  0  0  0  0  0  0  0  0  0  0  0
    2.1310   -8.2734    4.7735 C   0  0  0  0  0  0  0  0  0  0  0  0
    1.0976   -7.9565    5.8382 C   0  0  0  0  0  0  0  0  0  0  0  0
    0.7606   -9.1895    6.9975 Cl  0  0  0  0  0  0  0  0  0  0  0  0
    0.5866   -6.7260    5.7457 C   0  0  0  0  0  0  0  0  0  0  0  0
   -0.5399   -5.9817    6.8284 Cl  0  0  0  0  0  0  0  0  0  0  0  0
    1.1452   -6.1104    4.5785 C   0  0  0  0  0  0  0  0  0  0  0  0
    1.1460   -4.8003    4.3194 C   0  0  0  0  0  0  0  0  0  0  0  0
    1.9385   -4.1721    3.1849 C   0  0  0  0  0  0  0  0  0  0  0  0
    2.6987   -5.1782    2.2578 C   0  0  1  0  0  0  0  0  0  0  0  0
    1.8072   -5.4607    1.3078 F   0  0  0  0  0  0  0  0  0  0  0  0
    6.2673   -4.0327    1.1259 C   0  0  2  0  0  0  0  0  0  0  0  0
    7.5446   -4.4793    1.5333 O   0  0  0  0  0  0  0  0  0  0  0  0
    3.2455   -2.0576   -3.6405 H   0  0  0  0  0  0  0  0  0  0  0  0
    2.2208   -1.5406   -2.3242 H   0  0  0  0  0  0  0  0  0  0  0  0
    2.4273   -3.2710   -2.6416 H   0  0  0  0  0  0  0  0  0  0  0  0
    2.3905   -0.9791   -0.6206 H   0  0  0  0  0  0  0  0  0  0  0  0
    7.1379   -3.8524   -1.3860 H   0  0  0  0  0  0  0  0  0  0  0  0
    4.8386   -4.0633   -2.6559 H   0  0  0  0  0  0  0  0  0  0  0  0
    5.8132   -2.6296   -2.9015 H   0  0  0  0  0  0  0  0  0  0  0  0
    6.3186   -5.6603   -0.3048 H   0  0  0  0  0  0  0  0  0  0  0  0
    3.6072   -4.8111   -0.6408 H   0  0  0  0  0  0  0  0  0  0  0  0
    4.1706   -6.2286    0.1902 H   0  0  0  0  0  0  0  0  0  0  0  0
    3.5032   -3.5060    1.2542 H   0  0  0  0  0  0  0  0  0  0  0  0
    6.1888   -2.6534    3.3495 H   0  0  0  0  0  0  0  0  0  0  0  0
    4.9079   -3.3858    4.2753 H   0  0  0  0  0  0  0  0  0  0  0  0
    4.5224   -2.3085    2.9666 H   0  0  0  0  0  0  0  0  0  0  0  0
    5.8365   -6.3690    2.2991 H   0  0  0  0  0  0  0  0  0  0  0  0
    6.3921   -5.4971    3.6900 H   0  0  0  0  0  0  0  0  0  0  0  0
    4.7519   -7.2508    4.1549 H   0  0  0  0  0  0  0  0  0  0  0  0
    3.5624   -6.0831    5.5942 H   0  0  0  0  0  0  0  0  0  0  0  0
    1.2673   -8.4097    2.0075 H   0  0  0  0  0  0  0  0  0  0  0  0
    0.2794   -6.9526    2.1884 H   0  0  0  0  0  0  0  0  0  0  0  0
    0.0427   -8.3022    3.2592 H   0  0  0  0  0  0  0  0  0  0  0  0
    2.0391   -9.2892    4.3742 H   0  0  0  0  0  0  0  0  0  0  0  0
    3.1039   -8.2014    5.2583 H   0  0  0  0  0  0  0  0  0  0  0  0
    0.6453   -4.1170    4.9926 H   0  0  0  0  0  0  0  0  0  0  0  0
    1.2723   -3.5388    2.5971 H   0  0  0  0  0  0  0  0  0  0  0  0
    2.6390   -3.5011    3.6762 H   0  0  0  0  0  0  0  0  0  0  0  0
    7.4497   -5.3685    1.8467 H   0  0  0  0  0  0  0  0  0  0  0  0
  1  2  1  0
  1 35  1  0
  1 36  1  0
  1 37  1  0
  2 10  1  0
  2  3  2  0
  3  4  1  0
  3  5  1  0
  4 38  1  0
  5  6  2  0
  5  7  1  0
  7 33  1  0
  7  8  1  6
  7  9  1  0
  9 10  1  0
  9 11  1  0
  9 39  1  6
 10 40  1  0
 10 41  1  0
 11 33  1  0
 11 12  1  0
 11 42  1  6
 12 13  1  0
 12 43  1  0
 12 44  1  0
 13 31  1  0
 13 14  1  0
 13 45  1  6
 14 15  1  1
 14 16  1  0
 14 33  1  0
 15 46  1  0
 15 47  1  0
 15 48  1  0
 16 17  1  0
 16 49  1  0
 16 50  1  0
 17 18  1  0
 17 19  1  0
 17 51  1  1
 18 52  1  0
 19 31  1  0
 19 20  1  6
 19 21  1  0
 21 28  1  0
 21 22  1  6
 21 23  1  0
 22 53  1  0
 22 54  1  0
 22 55  1  0
 23 24  1  0
 23 56  1  0
 23 57  1  0
 24 25  1  0
 24 26  2  0
 26 27  1  0
 26 28  1  0
 28 29  2  0
 29 30  1  0
 29 58  1  0
 30 31  1  0
 30 59  1  0
 30 60  1  0
 31 32  1  6
 33 34  1  1
 34 61  1  0
M  END
>  <i_m_ct_stereo_status>  (261) 
1

>  <s_m_source_file>  (261) 
/var/tmp/pbs.5076255.sched01/tmpz7m1v8ep/860kfiy9lw.sdf

>  <i_m_source_file_index>  (261) 
33

>  <i_lp_mmshare_version>  (261) 
48012

>  <i_f3d_flags>  (261) 
0

>  <s_epik_input>  (261) 
Tz1DMUMoW09IXSk9QyhbQ0gzXSlbQ0gyXVtDQEBIXShbQ0BAXTEyQ2wpW0NASF0zW0NAXTIoW09IXSlbQ0BAXTQoW0NIM10pW0NAQEhdKFtDSDJdMylbQ0BAXTUoRilbQ0BAXShGKShbQ0BASF0oW0NIMl00KVtPSF0pW0NAXTYoW0NIM10pQyg9W0NIXVtDSDJdNSlDKENsKT1DKENsKVtDSDJdNg==

>  <s_epik_cmdline>  (261) 
J2VwaWtfcHl0aG9uJywgJy1waHQnLCAnMi4wJywgJy1waCcsICc3LjAnLCAnLXRuJywgJzgnLCAnLW1hJywgJzIwMCcsICctaW1hZScsICc8aW5maWxlLm1hZT4nLCAnLW9tYWUnLCAnPG91dGZpbGUubWFlPic=

>  <r_epik_Ionization_Penalty>  (261) 
0.003314

>  <r_epik_Ionization_Penalty_Charging>  (261) 
0

>  <r_epik_Ionization_Penalty_Neutral>  (261) 
0.003314

>  <r_epik_State_Penalty>  (261) 
0.00226496

>  <r_epik_Charging_Adjusted_Penalty>  (261) 
0.00226496

>  <i_epik_Tot_Q>  (261) 
0

>  <i_epik_Tot_abs_Q>  (261) 
0

>  <s_lp_Force_Field>  (261) 
OPLS3e

>  <r_lp_Energy>  (261) 
65.8815

>  <b_lp_Chiralities_Consistent>  (261) 
1

>  <s_lp_Variant>  (261) 
79:0-1

>  <s_i_glide_gridfile>  (261) 
pfpi4k_grid

>  <i_i_glide_lignum>  (261) 
33

>  <i_i_glide_rotatable_bonds>  (261) 
3

>  <r_i_docking_score>  (261) 
-2.96878

>  <r_i_glide_ligand_efficiency>  (261) 
-0.0873171

>  <r_i_glide_ligand_efficiency_sa>  (261) 
-0.282873

>  <r_i_glide_ligand_efficiency_ln>  (261) 
-0.655887

>  <r_i_glide_gscore>  (261) 
-2.96878

>  <r_i_glide_lipo>  (261) 
-0.567117

>  <r_i_glide_hbond>  (261) 
0

>  <r_i_glide_metal>  (261) 
-0

>  <r_i_glide_rewards>  (261) 
-0.113908

>  <r_i_glide_evdw>  (261) 
-26.1193

>  <r_i_glide_ecoul>  (261) 
-6.05735

>  <r_i_glide_erotb>  (261) 
0

>  <r_i_glide_esite>  (261) 
-0.0731893

>  <r_i_glide_emodel>  (261) 
-37.8951

>  <r_i_glide_energy>  (261) 
-32.1766

>  <r_i_glide_einternal>  (261) 
1.35645

>  <r_i_glide_intrahb_reward>  (261) 
-0

>  <i_i_glide_confnum>  (261) 
1

>  <i_i_glide_posenum>  (261) 
2

>  <r_i_glide_eff_state_penalty>  (261) 
0

>  <ligand_id>  (261) 
79

>  <original_smiles>  (261) 
CC1=C(O)C(=O)C2(Cl)C(C1)C1CC3C(C)(CC(O)C4(F)C5(C)CC(Cl)=C(Cl)C5=CCC34F)C12O

>  <smiles>  (261) 
[H]OC1=C(C([H])([H])[H])C([H])([H])C2([H])C(Cl)(C1=O)C1(O[H])C2([H])C([H])([H])C2([H])C3(F)C([H])([H])C([H])=C4C(Cl)=C(Cl)C([H])([H])C4(C([H])([H])[H])C3(F)C([H])(O[H])C([H])([H])C21C([H])([H])[H]

$$$$
79:0:1
     RDKit          3D

 61 66  0  0  1  0  0  0  0  0999 V2000
    3.0300   -2.1505   -2.5987 C   0  0  0  0  0  0  0  0  0  0  0  0
    4.2006   -2.2176   -1.6250 C   0  0  0  0  0  0  0  0  0  0  0  0
    4.2569   -1.5386   -0.4496 C   0  0  0  0  0  0  0  0  0  0  0  0
    3.2560   -0.7874    0.0083 O   0  0  0  0  0  0  0  0  0  0  0  0
    5.4306   -1.5924    0.4630 C   0  0  0  0  0  0  0  0  0  0  0  0
    5.5875   -0.7035    1.3037 O   0  0  0  0  0  0  0  0  0  0  0  0
    6.4181   -2.7249    0.3052 C   0  0  2  0  0  0  0  0  0  0  0  0
    8.0519   -1.9142    0.3263 Cl  0  0  0  0  0  0  0  0  0  0  0  0
    6.1940   -3.5983   -0.9333 C   0  0  2  0  0  0  0  0  0  0  0  0
    5.3260   -3.1242   -2.0921 C   0  0  0  0  0  0  0  0  0  0  0  0
    5.7222   -4.7426   -0.0291 C   0  0  2  0  0  0  0  0  0  0  0  0
    4.2500   -5.0613    0.1858 C   0  0  0  0  0  0  0  0  0  0  0  0
    3.8560   -4.4047    1.5333 C   0  0  2  0  0  0  0  0  0  0  0  0
    5.1891   -4.2493    2.3268 C   0  0  1  0  0  0  0  0  0  0  0  0
    5.1848   -3.0694    3.3267 C   0  0  0  0  0  0  0  0  0  0  0  0
    5.4381   -5.6023    3.0825 C   0  0  0  0  0  0  0  0  0  0  0  0
    4.2495   -6.2164    3.8704 C   0  0  1  0  0  0  0  0  0  0  0  0
    4.0179   -5.5124    5.0774 O   0  0  0  0  0  0  0  0  0  0  0  0
    2.9786   -6.3953    2.9883 C   0  0  1  0  0  0  0  0  0  0  0  0
    3.3571   -7.3079    2.0921 F   0  0  0  0  0  0  0  0  0  0  0  0
    1.7061   -6.9971    3.6957 C   0  0  1  0  0  0  0  0  0  0  0  0
    0.6568   -7.5424    2.6793 C   0  0  0  0  0  0  0  0  0  0  0  0
    1.9191   -8.1429    4.7378 C   0  0  0  0  0  0  0  0  0  0  0  0
    0.8760   -7.7989    5.7838 C   0  0  0  0  0  0  0  0  0  0  0  0
    0.4651   -9.0223    6.9307 Cl  0  0  0  0  0  0  0  0  0  0  0  0
    0.4091   -6.5565    5.6918 C   0  0  0  0  0  0  0  0  0  0  0  0
   -0.7155   -5.8091    6.7598 Cl  0  0  0  0  0  0  0  0  0  0  0  0
    1.0077   -5.9463    4.5360 C   0  0  0  0  0  0  0  0  0  0  0  0
    1.0561   -4.6343    4.2868 C   0  0  0  0  0  0  0  0  0  0  0  0
    1.8931   -4.0280    3.1690 C   0  0  0  0  0  0  0  0  0  0  0  0
    2.6476   -5.0555    2.2583 C   0  0  1  0  0  0  0  0  0  0  0  0
    1.7884   -5.3260    1.2784 F   0  0  0  0  0  0  0  0  0  0  0  0
    6.2615   -4.0257    1.1968 C   0  0  2  0  0  0  0  0  0  0  0  0
    7.5152   -4.5201    1.6330 O   0  0  0  0  0  0  0  0  0  0  0  0
    3.3850   -1.9167   -3.6058 H   0  0  0  0  0  0  0  0  0  0  0  0
    2.2984   -1.3931   -2.3191 H   0  0  0  0  0  0  0  0  0  0  0  0
    2.5176   -3.1147   -2.6422 H   0  0  0  0  0  0  0  0  0  0  0  0
    2.5157   -0.8364   -0.5950 H   0  0  0  0  0  0  0  0  0  0  0  0
    7.1820   -3.8615   -1.2997 H   0  0  0  0  0  0  0  0  0  0  0  0
    4.9023   -3.9857   -2.6121 H   0  0  0  0  0  0  0  0  0  0  0  0
    5.9227   -2.5840   -2.8270 H   0  0  0  0  0  0  0  0  0  0  0  0
    6.2907   -5.6460   -0.2459 H   0  0  0  0  0  0  0  0  0  0  0  0
    3.6146   -4.7041   -0.6245 H   0  0  0  0  0  0  0  0  0  0  0  0
    4.1125   -6.1425    0.2077 H   0  0  0  0  0  0  0  0  0  0  0  0
    3.5172   -3.4064    1.2753 H   0  0  0  0  0  0  0  0  0  0  0  0
    6.1840   -2.6530    3.4288 H   0  0  0  0  0  0  0  0  0  0  0  0
    4.8611   -3.3456    4.3243 H   0  0  0  0  0  0  0  0  0  0  0  0
    4.5397   -2.2525    3.0131 H   0  0  0  0  0  0  0  0  0  0  0  0
    5.7289   -6.3523    2.3463 H   0  0  0  0  0  0  0  0  0  0  0  0
    6.2959   -5.5078    3.7484 H   0  0  0  0  0  0  0  0  0  0  0  0
    4.5803   -7.2081    4.1817 H   0  0  0  0  0  0  0  0  0  0  0  0
    4.7940   -5.5717    5.6154 H   0  0  0  0  0  0  0  0  0  0  0  0
    1.1011   -8.2330    1.9582 H   0  0  0  0  0  0  0  0  0  0  0  0
    0.1617   -6.7440    2.1271 H   0  0  0  0  0  0  0  0  0  0  0  0
   -0.1429   -8.0907    3.1849 H   0  0  0  0  0  0  0  0  0  0  0  0
    1.7977   -9.1495    4.3354 H   0  0  0  0  0  0  0  0  0  0  0  0
    2.8799   -8.0963    5.2467 H   0  0  0  0  0  0  0  0  0  0  0  0
    0.5665   -3.9377    4.9542 H   0  0  0  0  0  0  0  0  0  0  0  0
    1.2608   -3.3704    2.5701 H   0  0  0  0  0  0  0  0  0  0  0  0
    2.6020   -3.3813    3.6809 H   0  0  0  0  0  0  0  0  0  0  0  0
    7.3887   -5.4129    1.9133 H   0  0  0  0  0  0  0  0  0  0  0  0
  1  2  1  0
  1 35  1  0
  1 36  1  0
  1 37  1  0
  2 10  1  0
  2  3  2  0
  3  4  1  0
  3  5  1  0
  4 38  1  0
  5  6  2  0
  5  7  1  0
  7 33  1  0
  7  8  1  6
  7  9  1  0
  9 10  1  0
  9 11  1  0
  9 39  1  6
 10 40  1  0
 10 41  1  0
 11 33  1  0
 11 12  1  0
 11 42  1  6
 12 13  1  0
 12 43  1  0
 12 44  1  0
 13 31  1  0
 13 14  1  0
 13 45  1  6
 14 15  1  1
 14 16  1  0
 14 33  1  0
 15 46  1  0
 15 47  1  0
 15 48  1  0
 16 17  1  0
 16 49  1  0
 16 50  1  0
 17 18  1  0
 17 19  1  0
 17 51  1  1
 18 52  1  0
 19 31  1  0
 19 20  1  6
 19 21  1  0
 21 28  1  0
 21 22  1  6
 21 23  1  0
 22 53  1  0
 22 54  1  0
 22 55  1  0
 23 24  1  0
 23 56  1  0
 23 57  1  0
 24 25  1  0
 24 26  2  0
 26 27  1  0
 26 28  1  0
 28 29  2  0
 29 30  1  0
 29 58  1  0
 30 31  1  0
 30 59  1  0
 30 60  1  0
 31 32  1  6
 33 34  1  1
 34 61  1  0
M  END
>  <i_m_ct_stereo_status>  (262) 
1

>  <s_m_source_file>  (262) 
/var/tmp/pbs.5076255.sched01/tmpz7m1v8ep/860kfiy9lw.sdf

>  <i_m_source_file_index>  (262) 
33

>  <i_lp_mmshare_version>  (262) 
48012

>  <i_f3d_flags>  (262) 
0

>  <s_epik_input>  (262) 
Tz1DMUMoW09IXSk9QyhbQ0gzXSlbQ0gyXVtDQEBIXShbQ0BAXTEyQ2wpW0NASF0zW0NAXTIoW09IXSlbQ0BAXTQoW0NIM10pW0NAQEhdKFtDSDJdMylbQ0BAXTUoRilbQ0BAXShGKShbQ0BASF0oW0NIMl00KVtPSF0pW0NAXTYoW0NIM10pQyg9W0NIXVtDSDJdNSlDKENsKT1DKENsKVtDSDJdNg==

>  <s_epik_cmdline>  (262) 
J2VwaWtfcHl0aG9uJywgJy1waHQnLCAnMi4wJywgJy1waCcsICc3LjAnLCAnLXRuJywgJzgnLCAnLW1hJywgJzIwMCcsICctaW1hZScsICc8aW5maWxlLm1hZT4nLCAnLW9tYWUnLCAnPG91dGZpbGUubWFlPic=

>  <r_epik_Ionization_Penalty>  (262) 
0.003314

>  <r_epik_Ionization_Penalty_Charging>  (262) 
0

>  <r_epik_Ionization_Penalty_Neutral>  (262) 
0.003314

>  <r_epik_State_Penalty>  (262) 
0.00226496

>  <r_epik_Charging_Adjusted_Penalty>  (262) 
0.00226496

>  <i_epik_Tot_Q>  (262) 
0

>  <i_epik_Tot_abs_Q>  (262) 
0

>  <s_lp_Force_Field>  (262) 
OPLS3e

>  <r_lp_Energy>  (262) 
65.8815

>  <b_lp_Chiralities_Consistent>  (262) 
1

>  <s_lp_Variant>  (262) 
79:0-1

>  <s_i_glide_gridfile>  (262) 
pfpi4k_grid

>  <i_i_glide_lignum>  (262) 
33

>  <i_i_glide_rotatable_bonds>  (262) 
3

>  <r_i_docking_score>  (262) 
-2.91958

>  <r_i_glide_ligand_efficiency>  (262) 
-0.0858699

>  <r_i_glide_ligand_efficiency_sa>  (262) 
-0.278185

>  <r_i_glide_ligand_efficiency_ln>  (262) 
-0.645017

>  <r_i_glide_gscore>  (262) 
-2.91958

>  <r_i_glide_lipo>  (262) 
-0.638091

>  <r_i_glide_hbond>  (262) 
0

>  <r_i_glide_metal>  (262) 
-0

>  <r_i_glide_rewards>  (262) 
-0.128136

>  <r_i_glide_evdw>  (262) 
-27.1241

>  <r_i_glide_ecoul>  (262) 
-4.79357

>  <r_i_glide_erotb>  (262) 
0

>  <r_i_glide_esite>  (262) 
-0.0781109

>  <r_i_glide_emodel>  (262) 
-37.47

>  <r_i_glide_energy>  (262) 
-31.9177

>  <r_i_glide_einternal>  (262) 
1.44237

>  <r_i_glide_intrahb_reward>  (262) 
-0

>  <i_i_glide_confnum>  (262) 
1

>  <i_i_glide_posenum>  (262) 
31

>  <r_i_glide_eff_state_penalty>  (262) 
0

>  <ligand_id>  (262) 
79

>  <original_smiles>  (262) 
CC1=C(O)C(=O)C2(Cl)C(C1)C1CC3C(C)(CC(O)C4(F)C5(C)CC(Cl)=C(Cl)C5=CCC34F)C12O

>  <smiles>  (262) 
[H]OC1=C(C([H])([H])[H])C([H])([H])C2([H])C(Cl)(C1=O)C1(O[H])C2([H])C([H])([H])C2([H])C3(F)C([H])([H])C([H])=C4C(Cl)=C(Cl)C([H])([H])C4(C([H])([H])[H])C3(F)C([H])(O[H])C([H])([H])C21C([H])([H])[H]

$$$$
79:0:2
     RDKit          3D

 61 66  0  0  1  0  0  0  0  0999 V2000
    2.6063   -2.9865   -2.2865 C   0  0  0  0  0  0  0  0  0  0  0  0
    3.6391   -3.0179   -1.1662 C   0  0  0  0  0  0  0  0  0  0  0  0
    4.4981   -2.0054   -0.9208 C   0  0  0  0  0  0  0  0  0  0  0  0
    4.4863   -0.8846   -1.6549 O   0  0  0  0  0  0  0  0  0  0  0  0
    5.5261   -2.0594    0.1529 C   0  0  0  0  0  0  0  0  0  0  0  0
    6.4791   -1.2789    0.1163 O   0  0  0  0  0  0  0  0  0  0  0  0
    5.3996   -3.1241    1.2379 C   0  0  2  0  0  0  0  0  0  0  0  0
    7.0554   -3.8802    1.3386 Cl  0  0  0  0  0  0  0  0  0  0  0  0
    4.2879   -4.1576    1.0037 C   0  0  2  0  0  0  0  0  0  0  0  0
    3.6592   -4.3117   -0.3721 C   0  0  0  0  0  0  0  0  0  0  0  0
    3.4760   -3.5570    2.1542 C   0  0  2  0  0  0  0  0  0  0  0  0
    2.3343   -2.5745    1.9156 C   0  0  0  0  0  0  0  0  0  0  0  0
    2.9135   -1.1548    2.1266 C   0  0  2  0  0  0  0  0  0  0  0  0
    4.1653   -1.3535    3.0350 C   0  0  1  0  0  0  0  0  0  0  0  0
    5.2692   -0.2851    2.8575 C   0  0  0  0  0  0  0  0  0  0  0  0
    3.6617   -1.3568    4.5208 C   0  0  0  0  0  0  0  0  0  0  0  0
    2.6854   -0.2316    4.9514 C   0  0  1  0  0  0  0  0  0  0  0  0
    3.3567    1.0011    5.1333 O   0  0  0  0  0  0  0  0  0  0  0  0
    1.4289   -0.1458    4.0375 C   0  0  1  0  0  0  0  0  0  0  0  0
    0.8035   -1.3043    4.2626 F   0  0  0  0  0  0  0  0  0  0  0  0
    0.3781    0.9778    4.3841 C   0  0  1  0  0  0  0  0  0  0  0  0
   -1.0038    0.7194    3.7167 C   0  0  0  0  0  0  0  0  0  0  0  0
    0.0811    1.2588    5.8886 C   0  0  0  0  0  0  0  0  0  0  0  0
   -0.0903    2.7627    5.8864 C   0  0  0  0  0  0  0  0  0  0  0  0
   -0.8497    3.4725    7.2635 Cl  0  0  0  0  0  0  0  0  0  0  0  0
    0.3757    3.3644    4.7911 C   0  0  0  0  0  0  0  0  0  0  0  0
    0.3702    5.0677    4.4922 Cl  0  0  0  0  0  0  0  0  0  0  0  0
    0.8546    2.3376    3.9072 C   0  0  0  0  0  0  0  0  0  0  0  0
    1.6914    2.5108    2.8771 C   0  0  0  0  0  0  0  0  0  0  0  0
    2.3246    1.3560    2.1128 C   0  0  0  0  0  0  0  0  0  0  0  0
    1.8754   -0.0724    2.5441 C   0  0  1  0  0  0  0  0  0  0  0  0
    0.8073   -0.2980    1.7868 F   0  0  0  0  0  0  0  0  0  0  0  0
    4.6990   -2.7715    2.6137 C   0  0  2  0  0  0  0  0  0  0  0  0
    5.3726   -3.3284    3.7279 O   0  0  0  0  0  0  0  0  0  0  0  0
    2.7102   -3.8547   -2.9303 H   0  0  0  0  0  0  0  0  0  0  0  0
    2.6744   -2.0951   -2.9109 H   0  0  0  0  0  0  0  0  0  0  0  0
    1.6019   -3.0110   -1.8599 H   0  0  0  0  0  0  0  0  0  0  0  0
    3.7491   -0.9427   -2.2490 H   0  0  0  0  0  0  0  0  0  0  0  0
    4.6489   -5.1263    1.3475 H   0  0  0  0  0  0  0  0  0  0  0  0
    2.6464   -4.7046   -0.2857 H   0  0  0  0  0  0  0  0  0  0  0  0
    4.2197   -5.0403   -0.9602 H   0  0  0  0  0  0  0  0  0  0  0  0
    3.2034   -4.3391    2.8649 H   0  0  0  0  0  0  0  0  0  0  0  0
    1.9031   -2.6644    0.9197 H   0  0  0  0  0  0  0  0  0  0  0  0
    1.5251   -2.7911    2.6105 H   0  0  0  0  0  0  0  0  0  0  0  0
    3.2666   -0.8427    1.1493 H   0  0  0  0  0  0  0  0  0  0  0  0
    6.2601   -0.6943    3.0590 H   0  0  0  0  0  0  0  0  0  0  0  0
    5.1551    0.5586    3.5266 H   0  0  0  0  0  0  0  0  0  0  0  0
    5.2824    0.1260    1.8513 H   0  0  0  0  0  0  0  0  0  0  0  0
    3.1411   -2.2996    4.6983 H   0  0  0  0  0  0  0  0  0  0  0  0
    4.5094   -1.3730    5.2064 H   0  0  0  0  0  0  0  0  0  0  0  0
    2.3504   -0.5066    5.9496 H   0  0  0  0  0  0  0  0  0  0  0  0
    3.6412    1.3253    4.2873 H   0  0  0  0  0  0  0  0  0  0  0  0
   -1.3796   -0.2852    3.9176 H   0  0  0  0  0  0  0  0  0  0  0  0
   -0.9829    0.8642    2.6364 H   0  0  0  0  0  0  0  0  0  0  0  0
   -1.7632    1.4144    4.0800 H   0  0  0  0  0  0  0  0  0  0  0  0
   -0.7928    0.7302    6.2778 H   0  0  0  0  0  0  0  0  0  0  0  0
    0.9233    1.0503    6.5453 H   0  0  0  0  0  0  0  0  0  0  0  0
    2.0113    3.5066    2.5980 H   0  0  0  0  0  0  0  0  0  0  0  0
    2.1295    1.4857    1.0507 H   0  0  0  0  0  0  0  0  0  0  0  0
    3.3969    1.4758    2.2370 H   0  0  0  0  0  0  0  0  0  0  0  0
    5.5722   -4.2295    3.5124 H   0  0  0  0  0  0  0  0  0  0  0  0
  1  2  1  0
  1 35  1  0
  1 36  1  0
  1 37  1  0
  2 10  1  0
  2  3  2  0
  3  4  1  0
  3  5  1  0
  4 38  1  0
  5  6  2  0
  5  7  1  0
  7 33  1  0
  7  8  1  1
  7  9  1  0
  9 10  1  0
  9 11  1  0
  9 39  1  1
 10 40  1  0
 10 41  1  0
 11 33  1  0
 11 12  1  0
 11 42  1  1
 12 13  1  0
 12 43  1  0
 12 44  1  0
 13 31  1  0
 13 14  1  0
 13 45  1  6
 14 15  1  1
 14 16  1  0
 14 33  1  0
 15 46  1  0
 15 47  1  0
 15 48  1  0
 16 17  1  0
 16 49  1  0
 16 50  1  0
 17 18  1  0
 17 19  1  0
 17 51  1  1
 18 52  1  0
 19 31  1  0
 19 20  1  6
 19 21  1  0
 21 28  1  0
 21 22  1  6
 21 23  1  0
 22 53  1  0
 22 54  1  0
 22 55  1  0
 23 24  1  0
 23 56  1  0
 23 57  1  0
 24 25  1  0
 24 26  2  0
 26 27  1  0
 26 28  1  0
 28 29  2  0
 29 30  1  0
 29 58  1  0
 30 31  1  0
 30 59  1  0
 30 60  1  0
 31 32  1  6
 33 34  1  1
 34 61  1  0
M  END
>  <i_m_ct_stereo_status>  (263) 
1

>  <s_m_source_file>  (263) 
/var/tmp/pbs.5076255.sched01/tmpz7m1v8ep/860kfiy9lw.sdf

>  <i_m_source_file_index>  (263) 
33

>  <i_lp_mmshare_version>  (263) 
48012

>  <i_f3d_flags>  (263) 
0

>  <s_epik_input>  (263) 
Tz1DMUMoW09IXSk9QyhbQ0gzXSlbQ0gyXVtDQEBIXShbQ0BAXTEyQ2wpW0NASF0zW0NAXTIoW09IXSlbQ0BAXTQoW0NIM10pW0NAQEhdKFtDSDJdMylbQ0BAXTUoRilbQ0BAXShGKShbQ0BASF0oW0NIMl00KVtPSF0pW0NAXTYoW0NIM10pQyg9W0NIXVtDSDJdNSlDKENsKT1DKENsKVtDSDJdNg==

>  <s_epik_cmdline>  (263) 
J2VwaWtfcHl0aG9uJywgJy1waHQnLCAnMi4wJywgJy1waCcsICc3LjAnLCAnLXRuJywgJzgnLCAnLW1hJywgJzIwMCcsICctaW1hZScsICc8aW5maWxlLm1hZT4nLCAnLW9tYWUnLCAnPG91dGZpbGUubWFlPic=

>  <r_epik_Ionization_Penalty>  (263) 
0.003314

>  <r_epik_Ionization_Penalty_Charging>  (263) 
0

>  <r_epik_Ionization_Penalty_Neutral>  (263) 
0.003314

>  <r_epik_State_Penalty>  (263) 
0.00226496

>  <r_epik_Charging_Adjusted_Penalty>  (263) 
0.00226496

>  <i_epik_Tot_Q>  (263) 
0

>  <i_epik_Tot_abs_Q>  (263) 
0

>  <s_lp_Force_Field>  (263) 
OPLS3e

>  <r_lp_Energy>  (263) 
65.8815

>  <b_lp_Chiralities_Consistent>  (263) 
1

>  <s_lp_Variant>  (263) 
79:0-1

>  <s_i_glide_gridfile>  (263) 
pfpi4k_grid

>  <i_i_glide_lignum>  (263) 
33

>  <i_i_glide_rotatable_bonds>  (263) 
3

>  <r_i_docking_score>  (263) 
-2.42156

>  <r_i_glide_ligand_efficiency>  (263) 
-0.0712224

>  <r_i_glide_ligand_efficiency_sa>  (263) 
-0.230733

>  <r_i_glide_ligand_efficiency_ln>  (263) 
-0.534991

>  <r_i_glide_gscore>  (263) 
-2.42156

>  <r_i_glide_lipo>  (263) 
-0.333728

>  <r_i_glide_hbond>  (263) 
-0.0292893

>  <r_i_glide_metal>  (263) 
-0

>  <r_i_glide_rewards>  (263) 
-0.0271574

>  <r_i_glide_evdw>  (263) 
-31.0585

>  <r_i_glide_ecoul>  (263) 
-2.49502

>  <r_i_glide_erotb>  (263) 
0

>  <r_i_glide_esite>  (263) 
-0.104207

>  <r_i_glide_emodel>  (263) 
-38.7182

>  <r_i_glide_energy>  (263) 
-33.5535

>  <r_i_glide_einternal>  (263) 
0.0999432

>  <r_i_glide_intrahb_reward>  (263) 
-0

>  <i_i_glide_confnum>  (263) 
1

>  <i_i_glide_posenum>  (263) 
17

>  <r_i_glide_eff_state_penalty>  (263) 
0

>  <ligand_id>  (263) 
79

>  <original_smiles>  (263) 
CC1=C(O)C(=O)C2(Cl)C(C1)C1CC3C(C)(CC(O)C4(F)C5(C)CC(Cl)=C(Cl)C5=CCC34F)C12O

>  <smiles>  (263) 
[H]OC1=C(C([H])([H])[H])C([H])([H])C2([H])C(Cl)(C1=O)C1(O[H])C2([H])C([H])([H])C2([H])C3(F)C([H])([H])C([H])=C4C(Cl)=C(Cl)C([H])([H])C4(C([H])([H])[H])C3(F)C([H])(O[H])C([H])([H])C21C([H])([H])[H]

$$$$
80:0:0
     RDKit          3D

 44 48  0  0  1  0  0  0  0  0999 V2000
    4.6210   -2.3456    4.5012 C   0  0  0  0  0  0  0  0  0  0  0  0
    4.2422   -2.7485    3.2770 C   0  0  0  0  0  0  0  0  0  0  0  0
    4.2985   -1.7324    2.1112 C   0  0  0  0  0  0  0  0  0  0  0  0
    4.8393   -2.4966    0.9207 C   0  0  1  0  0  0  0  0  0  0  0  0
    6.2558   -2.9136    1.3012 C   0  0  0  0  0  0  0  0  0  0  0  0
    6.6190   -4.1473    1.6159 C   0  0  0  0  0  0  0  0  0  0  0  0
    5.6567   -5.2656    1.4726 C   0  0  2  0  0  0  0  0  0  0  0  0
    6.3983   -6.3795    1.5147 F   0  0  0  0  0  0  0  0  0  0  0  0
    5.1956   -5.2168   -0.0459 C   0  0  1  0  0  0  0  0  0  0  0  0
    4.3144   -6.2873   -0.3055 O   0  0  0  0  0  0  0  0  0  0  0  0
    4.5465   -3.9448   -0.6741 C   0  0  1  0  0  0  0  0  0  0  0  0
    3.6283   -3.3007    0.2922 C   0  0  2  0  0  0  0  0  0  0  0  0
    3.4197   -2.1216   -0.6707 C   0  0  0  0  0  0  0  0  0  0  0  0
    4.9092   -2.3934   -0.6124 C   0  0  1  0  0  0  0  0  0  0  0  0
    4.6837   -5.3492    2.7542 C   0  0  2  0  0  0  0  0  0  0  0  0
    5.5321   -5.5667    4.0376 C   0  0  0  0  0  0  0  0  0  0  0  0
    3.8931   -6.6441    2.6092 C   0  0  0  0  0  0  0  0  0  0  0  0
    2.5765   -6.7866    2.7856 C   0  0  0  0  0  0  0  0  0  0  0  0
    1.7482   -5.6523    3.1746 C   0  0  0  0  0  0  0  0  0  0  0  0
    0.5439   -5.8332    3.3623 O   0  0  0  0  0  0  0  0  0  0  0  0
    2.3906   -4.3152    3.3136 C   0  0  0  0  0  0  0  0  0  0  0  0
    1.4426   -3.1729    3.6870 C   0  0  0  0  0  0  0  0  0  0  0  0
    3.7298   -4.1348    3.0922 C   0  0  0  0  0  0  0  0  0  0  0  0
    4.5773   -3.0149    5.3484 H   0  0  0  0  0  0  0  0  0  0  0  0
    4.9859   -1.3451    4.6702 H   0  0  0  0  0  0  0  0  0  0  0  0
    3.2955   -1.3393    1.9422 H   0  0  0  0  0  0  0  0  0  0  0  0
    4.9351   -0.8812    2.3539 H   0  0  0  0  0  0  0  0  0  0  0  0
    6.9830   -2.1171    1.3755 H   0  0  0  0  0  0  0  0  0  0  0  0
    7.6297   -4.3731    1.9250 H   0  0  0  0  0  0  0  0  0  0  0  0
    6.0843   -5.4188   -0.6344 H   0  0  0  0  0  0  0  0  0  0  0  0
    4.0066   -6.2265   -1.2058 H   0  0  0  0  0  0  0  0  0  0  0  0
    4.0779   -4.1931   -1.6319 H   0  0  0  0  0  0  0  0  0  0  0  0
    2.7980   -3.8049    0.7766 H   0  0  0  0  0  0  0  0  0  0  0  0
    2.9088   -2.3457   -1.6094 H   0  0  0  0  0  0  0  0  0  0  0  0
    3.1017   -1.1700   -0.2424 H   0  0  0  0  0  0  0  0  0  0  0  0
    5.6686   -1.8928   -1.2181 H   0  0  0  0  0  0  0  0  0  0  0  0
    4.8826   -5.6960    4.9085 H   0  0  0  0  0  0  0  0  0  0  0  0
    6.1918   -4.7278    4.2609 H   0  0  0  0  0  0  0  0  0  0  0  0
    6.1510   -6.4627    3.9810 H   0  0  0  0  0  0  0  0  0  0  0  0
    4.4608   -7.5180    2.3226 H   0  0  0  0  0  0  0  0  0  0  0  0
    2.0960   -7.7485    2.6511 H   0  0  0  0  0  0  0  0  0  0  0  0
    0.4038   -3.4730    3.8084 H   0  0  0  0  0  0  0  0  0  0  0  0
    1.4479   -2.4031    2.9169 H   0  0  0  0  0  0  0  0  0  0  0  0
    1.7409   -2.7154    4.6290 H   0  0  0  0  0  0  0  0  0  0  0  0
  1  2  2  0
  1 24  1  0
  1 25  1  0
  2 23  1  0
  2  3  1  0
  4  3  1  1
  3 26  1  0
  3 27  1  0
  4 12  1  0
  4 14  1  0
  4  5  1  0
  5  6  2  0
  5 28  1  0
  6  7  1  0
  6 29  1  0
  7  8  1  6
  7  9  1  0
  7 15  1  0
  9 10  1  0
  9 11  1  0
  9 30  1  6
 10 31  1  0
 11 14  1  0
 11 12  1  0
 11 32  1  6
 12 13  1  0
 12 33  1  1
 13 14  1  0
 13 34  1  0
 13 35  1  0
 14 36  1  1
 15 23  1  0
 15 16  1  1
 15 17  1  0
 16 37  1  0
 16 38  1  0
 16 39  1  0
 17 18  2  0
 17 40  1  0
 18 19  1  0
 18 41  1  0
 19 20  2  0
 19 21  1  0
 21 22  1  0
 21 23  2  0
 22 42  1  0
 22 43  1  0
 22 44  1  0
M  END
>  <i_m_ct_stereo_status>  (264) 
1

>  <s_m_source_file>  (264) 
/var/tmp/pbs.5076255.sched01/tmpz7m1v8ep/860kfiy9lw.sdf

>  <i_m_source_file_index>  (264) 
34

>  <i_lp_mmshare_version>  (264) 
48012

>  <i_f3d_flags>  (264) 
3

>  <s_epik_input>  (264) 
W0NIXTE9W0NIXUMoPU8pQyhbQ0gzXSk9QyhDKD1bQ0gyXSlbQ0gyXTIpW0NAXTEoW0NIM10pQyhGKShbQ0hdPVtDSF0zKVtDQEBIXShbT0hdKVtDQEBIXShbQ0BIXTRbQ0BAXTIzNSlbQ0BIXTVbQ0gyXTQ=

>  <s_epik_cmdline>  (264) 
J2VwaWtfcHl0aG9uJywgJy1waHQnLCAnMi4wJywgJy1waCcsICc3LjAnLCAnLXRuJywgJzgnLCAnLW1hJywgJzIwMCcsICctaW1hZScsICc8aW5maWxlLm1hZT4nLCAnLW9tYWUnLCAnPG91dGZpbGUubWFlPic=

>  <r_lp_tautomer_probability>  (264) 
1

>  <r_epik_Ionization_Penalty>  (264) 
2.68833e-06

>  <r_epik_Ionization_Penalty_Charging>  (264) 
0

>  <r_epik_Ionization_Penalty_Neutral>  (264) 
2.68833e-06

>  <r_epik_State_Penalty>  (264) 
-0

>  <r_epik_Charging_Adjusted_Penalty>  (264) 
0

>  <i_epik_Tot_Q>  (264) 
0

>  <i_epik_Tot_abs_Q>  (264) 
0

>  <s_lp_Force_Field>  (264) 
OPLS3e

>  <r_lp_Energy>  (264) 
153.724

>  <b_lp_Chiralities_Consistent>  (264) 
0

>  <s_lp_Variant>  (264) 
80:0-1

>  <s_i_glide_gridfile>  (264) 
pfpi4k_grid

>  <i_i_glide_lignum>  (264) 
34

>  <i_i_glide_rotatable_bonds>  (264) 
1

>  <r_i_docking_score>  (264) 
-3.63176

>  <r_i_glide_ligand_efficiency>  (264) 
-0.157903

>  <r_i_glide_ligand_efficiency_sa>  (264) 
-0.449054

>  <r_i_glide_ligand_efficiency_ln>  (264) 
-0.878192

>  <r_i_glide_gscore>  (264) 
-3.63176

>  <r_i_glide_lipo>  (264) 
-0.348089

>  <r_i_glide_hbond>  (264) 
-0.344885

>  <r_i_glide_metal>  (264) 
-0

>  <r_i_glide_rewards>  (264) 
-1.399

>  <r_i_glide_evdw>  (264) 
-15.439

>  <r_i_glide_ecoul>  (264) 
-5.02701

>  <r_i_glide_erotb>  (264) 
0

>  <r_i_glide_esite>  (264) 
-0.0137804

>  <r_i_glide_emodel>  (264) 
-26.1061

>  <r_i_glide_energy>  (264) 
-20.466

>  <r_i_glide_einternal>  (264) 
0.495081

>  <r_i_glide_intrahb_reward>  (264) 
-0

>  <i_i_glide_confnum>  (264) 
2

>  <i_i_glide_posenum>  (264) 
16

>  <r_i_glide_eff_state_penalty>  (264) 
0

>  <ligand_id>  (264) 
80

>  <original_smiles>  (264) 
C=C1CC23C=CC(F)(C(O)C4C2CC43)C2(C)C=CC(=O)C(C)=C12

>  <smiles>  (264) 
[H]OC1([H])C2(F)C([H])=C([H])C3(C([H])([H])C(=C([H])[H])C4=C(C([H])([H])[H])C(=O)C([H])=C([H])C42C([H])([H])[H])C2([H])C([H])([H])C3([H])C12[H]

$$$$
80:0:1
     RDKit          3D

 44 48  0  0  1  0  0  0  0  0999 V2000
    5.7651   -0.4708    3.2810 C   0  0  0  0  0  0  0  0  0  0  0  0
    5.0407   -0.9878    2.2720 C   0  0  0  0  0  0  0  0  0  0  0  0
    5.4194   -0.6277    0.8218 C   0  0  0  0  0  0  0  0  0  0  0  0
    5.2394   -1.8826    0.0171 C   0  0  1  0  0  0  0  0  0  0  0  0
    6.2652   -2.8834    0.5804 C   0  0  0  0  0  0  0  0  0  0  0  0
    5.9789   -3.9158    1.3432 C   0  0  0  0  0  0  0  0  0  0  0  0
    4.5599   -4.2813    1.5983 C   0  0  2  0  0  0  0  0  0  0  0  0
    4.5863   -5.5284    2.0863 F   0  0  0  0  0  0  0  0  0  0  0  0
    3.9273   -4.5041    0.1459 C   0  0  1  0  0  0  0  0  0  0  0  0
    2.5776   -4.9217    0.2602 O   0  0  0  0  0  0  0  0  0  0  0  0
    3.9438   -3.3695   -0.9100 C   0  0  1  0  0  0  0  0  0  0  0  0
    3.7013   -2.0483   -0.2980 C   0  0  2  0  0  0  0  0  0  0  0  0
    3.9695   -1.3429   -1.6395 C   0  0  0  0  0  0  0  0  0  0  0  0
    5.0690   -2.3702   -1.4394 C   0  0  1  0  0  0  0  0  0  0  0  0
    3.9413   -3.3726    2.7775 C   0  0  2  0  0  0  0  0  0  0  0  0
    4.7787   -3.5955    4.0727 C   0  0  0  0  0  0  0  0  0  0  0  0
    2.5817   -3.9606    3.1107 C   0  0  0  0  0  0  0  0  0  0  0  0
    1.4535   -3.2726    3.3012 C   0  0  0  0  0  0  0  0  0  0  0  0
    1.4552   -1.8115    3.2258 C   0  0  0  0  0  0  0  0  0  0  0  0
    0.4252   -1.1955    3.5077 O   0  0  0  0  0  0  0  0  0  0  0  0
    2.7011   -1.1064    2.8365 C   0  0  0  0  0  0  0  0  0  0  0  0
    2.6006    0.4081    2.7250 C   0  0  0  0  0  0  0  0  0  0  0  0
    3.8628   -1.8166    2.6003 C   0  0  0  0  0  0  0  0  0  0  0  0
    5.5314   -0.6876    4.3166 H   0  0  0  0  0  0  0  0  0  0  0  0
    6.6155    0.1464    3.0845 H   0  0  0  0  0  0  0  0  0  0  0  0
    4.7613    0.1829    0.4824 H   0  0  0  0  0  0  0  0  0  0  0  0
    6.4395   -0.2588    0.7465 H   0  0  0  0  0  0  0  0  0  0  0  0
    7.3057   -2.6525    0.3694 H   0  0  0  0  0  0  0  0  0  0  0  0
    6.7568   -4.5513    1.7511 H   0  0  0  0  0  0  0  0  0  0  0  0
    4.4436   -5.3561   -0.2816 H   0  0  0  0  0  0  0  0  0  0  0  0
    2.3296   -5.2660   -0.5761 H   0  0  0  0  0  0  0  0  0  0  0  0
    3.2305   -3.5960   -1.7281 H   0  0  0  0  0  0  0  0  0  0  0  0
    2.8325   -1.7957    0.3084 H   0  0  0  0  0  0  0  0  0  0  0  0
    3.2427   -1.5378   -2.4308 H   0  0  0  0  0  0  0  0  0  0  0  0
    4.2877   -0.3038   -1.6102 H   0  0  0  0  0  0  0  0  0  0  0  0
    5.8474   -2.6080   -2.1665 H   0  0  0  0  0  0  0  0  0  0  0  0
    4.3338   -3.0414    4.9114 H   0  0  0  0  0  0  0  0  0  0  0  0
    5.8047   -3.2511    3.9846 H   0  0  0  0  0  0  0  0  0  0  0  0
    4.8043   -4.6402    4.3812 H   0  0  0  0  0  0  0  0  0  0  0  0
    2.5410   -5.0417    3.1945 H   0  0  0  0  0  0  0  0  0  0  0  0
    0.5206   -3.7641    3.5284 H   0  0  0  0  0  0  0  0  0  0  0  0
    1.6031    0.8003    2.9161 H   0  0  0  0  0  0  0  0  0  0  0  0
    2.8612    0.7408    1.7217 H   0  0  0  0  0  0  0  0  0  0  0  0
    3.2582    0.8995    3.4332 H   0  0  0  0  0  0  0  0  0  0  0  0
  1  2  2  0
  1 24  1  0
  1 25  1  0
  2 23  1  0
  2  3  1  0
  4  3  1  6
  3 26  1  0
  3 27  1  0
  4 12  1  0
  4 14  1  0
  4  5  1  0
  5  6  2  0
  5 28  1  0
  6  7  1  0
  6 29  1  0
  7  8  1  1
  7  9  1  0
  7 15  1  0
  9 10  1  0
  9 11  1  0
  9 30  1  6
 10 31  1  0
 11 14  1  0
 11 12  1  0
 11 32  1  6
 12 13  1  0
 12 33  1  1
 13 14  1  0
 13 34  1  0
 13 35  1  0
 14 36  1  6
 15 23  1  0
 15 16  1  1
 15 17  1  0
 16 37  1  0
 16 38  1  0
 16 39  1  0
 17 18  2  0
 17 40  1  0
 18 19  1  0
 18 41  1  0
 19 20  2  0
 19 21  1  0
 21 22  1  0
 21 23  2  0
 22 42  1  0
 22 43  1  0
 22 44  1  0
M  END
>  <i_m_ct_stereo_status>  (265) 
1

>  <s_m_source_file>  (265) 
/var/tmp/pbs.5076255.sched01/tmpz7m1v8ep/860kfiy9lw.sdf

>  <i_m_source_file_index>  (265) 
34

>  <i_lp_mmshare_version>  (265) 
48012

>  <i_f3d_flags>  (265) 
3

>  <s_epik_input>  (265) 
W0NIXTE9W0NIXUMoPU8pQyhbQ0gzXSk9QyhDKD1bQ0gyXSlbQ0gyXTIpW0NAXTEoW0NIM10pQyhGKShbQ0hdPVtDSF0zKVtDQEBIXShbT0hdKVtDQEBIXShbQ0BIXTRbQ0BAXTIzNSlbQ0BIXTVbQ0gyXTQ=

>  <s_epik_cmdline>  (265) 
J2VwaWtfcHl0aG9uJywgJy1waHQnLCAnMi4wJywgJy1waCcsICc3LjAnLCAnLXRuJywgJzgnLCAnLW1hJywgJzIwMCcsICctaW1hZScsICc8aW5maWxlLm1hZT4nLCAnLW9tYWUnLCAnPG91dGZpbGUubWFlPic=

>  <r_lp_tautomer_probability>  (265) 
1

>  <r_epik_Ionization_Penalty>  (265) 
2.68833e-06

>  <r_epik_Ionization_Penalty_Charging>  (265) 
0

>  <r_epik_Ionization_Penalty_Neutral>  (265) 
2.68833e-06

>  <r_epik_State_Penalty>  (265) 
-0

>  <r_epik_Charging_Adjusted_Penalty>  (265) 
0

>  <i_epik_Tot_Q>  (265) 
0

>  <i_epik_Tot_abs_Q>  (265) 
0

>  <s_lp_Force_Field>  (265) 
OPLS3e

>  <r_lp_Energy>  (265) 
153.724

>  <b_lp_Chiralities_Consistent>  (265) 
0

>  <s_lp_Variant>  (265) 
80:0-1

>  <s_i_glide_gridfile>  (265) 
pfpi4k_grid

>  <i_i_glide_lignum>  (265) 
34

>  <i_i_glide_rotatable_bonds>  (265) 
1

>  <r_i_docking_score>  (265) 
-3.52464

>  <r_i_glide_ligand_efficiency>  (265) 
-0.153245

>  <r_i_glide_ligand_efficiency_sa>  (265) 
-0.435809

>  <r_i_glide_ligand_efficiency_ln>  (265) 
-0.85229

>  <r_i_glide_gscore>  (265) 
-3.52464

>  <r_i_glide_lipo>  (265) 
-0.6546

>  <r_i_glide_hbond>  (265) 
-0.12874

>  <r_i_glide_metal>  (265) 
-0

>  <r_i_glide_rewards>  (265) 
-1.29612

>  <r_i_glide_evdw>  (265) 
-23.109

>  <r_i_glide_ecoul>  (265) 
-1.92739

>  <r_i_glide_erotb>  (265) 
0

>  <r_i_glide_esite>  (265) 
-0.000619743

>  <r_i_glide_emodel>  (265) 
-30.5124

>  <r_i_glide_energy>  (265) 
-25.0364

>  <r_i_glide_einternal>  (265) 
0.365472

>  <r_i_glide_intrahb_reward>  (265) 
-0

>  <i_i_glide_confnum>  (265) 
2

>  <i_i_glide_posenum>  (265) 
14

>  <r_i_glide_eff_state_penalty>  (265) 
0

>  <ligand_id>  (265) 
80

>  <original_smiles>  (265) 
C=C1CC23C=CC(F)(C(O)C4C2CC43)C2(C)C=CC(=O)C(C)=C12

>  <smiles>  (265) 
[H]OC1([H])C2(F)C([H])=C([H])C3(C([H])([H])C(=C([H])[H])C4=C(C([H])([H])[H])C(=O)C([H])=C([H])C42C([H])([H])[H])C2([H])C([H])([H])C3([H])C12[H]

$$$$
80:0:2
     RDKit          3D

 44 48  0  0  1  0  0  0  0  0999 V2000
    1.7645   -0.0678    7.4131 C   0  0  0  0  0  0  0  0  0  0  0  0
    1.3039   -0.1494    6.1550 C   0  0  0  0  0  0  0  0  0  0  0  0
    0.3943    0.9827    5.6243 C   0  0  0  0  0  0  0  0  0  0  0  0
    0.8517    1.2398    4.2033 C   0  0  1  0  0  0  0  0  0  0  0  0
    2.2911    1.7395    4.3118 C   0  0  0  0  0  0  0  0  0  0  0  0
    3.3666    1.0351    3.9904 C   0  0  0  0  0  0  0  0  0  0  0  0
    3.2111   -0.2861    3.3301 C   0  0  2  0  0  0  0  0  0  0  0  0
    4.4164   -0.5766    2.8271 F   0  0  0  0  0  0  0  0  0  0  0  0
    2.3545   -0.0019    2.0196 C   0  0  1  0  0  0  0  0  0  0  0  0
    2.2124   -1.2097    1.2921 O   0  0  0  0  0  0  0  0  0  0  0  0
    0.9311    0.6402    2.1101 C   0  0  1  0  0  0  0  0  0  0  0  0
    0.1836    0.1351    3.2880 C   0  0  2  0  0  0  0  0  0  0  0  0
   -0.9549    1.1333    3.0138 C   0  0  0  0  0  0  0  0  0  0  0  0
    0.3509    1.8952    2.9046 C   0  0  1  0  0  0  0  0  0  0  0  0
    2.9248   -1.4312    4.4337 C   0  0  2  0  0  0  0  0  0  0  0  0
    4.1108   -1.4845    5.4362 C   0  0  0  0  0  0  0  0  0  0  0  0
    2.9970   -2.7682    3.7023 C   0  0  0  0  0  0  0  0  0  0  0  0
    2.1334   -3.7807    3.8195 C   0  0  0  0  0  0  0  0  0  0  0  0
    0.9963   -3.6862    4.7314 C   0  0  0  0  0  0  0  0  0  0  0  0
    0.2458   -4.6529    4.8588 O   0  0  0  0  0  0  0  0  0  0  0  0
    0.7825   -2.4134    5.4754 C   0  0  0  0  0  0  0  0  0  0  0  0
   -0.4597   -2.3921    6.3734 C   0  0  0  0  0  0  0  0  0  0  0  0
    1.6278   -1.3508    5.3386 C   0  0  0  0  0  0  0  0  0  0  0  0
    2.3831   -0.8466    7.8376 H   0  0  0  0  0  0  0  0  0  0  0  0
    1.5382    0.7853    8.0358 H   0  0  0  0  0  0  0  0  0  0  0  0
   -0.6412    0.6586    5.6814 H   0  0  0  0  0  0  0  0  0  0  0  0
    0.4850    1.8835    6.2313 H   0  0  0  0  0  0  0  0  0  0  0  0
    2.4223    2.7250    4.7379 H   0  0  0  0  0  0  0  0  0  0  0  0
    4.3599    1.4357    4.1296 H   0  0  0  0  0  0  0  0  0  0  0  0
    2.9517    0.6505    1.3788 H   0  0  0  0  0  0  0  0  0  0  0  0
    1.6583   -1.0525    0.5162 H   0  0  0  0  0  0  0  0  0  0  0  0
    0.3921    0.5214    1.1711 H   0  0  0  0  0  0  0  0  0  0  0  0
   -0.0119   -0.9133    3.4852 H   0  0  0  0  0  0  0  0  0  0  0  0
   -1.5224    0.9897    2.0916 H   0  0  0  0  0  0  0  0  0  0  0  0
   -1.5924    1.4213    3.8523 H   0  0  0  0  0  0  0  0  0  0  0  0
    0.4464    2.9408    2.5933 H   0  0  0  0  0  0  0  0  0  0  0  0
    3.9735   -2.2994    6.1519 H   0  0  0  0  0  0  0  0  0  0  0  0
    4.2167   -0.5704    6.0221 H   0  0  0  0  0  0  0  0  0  0  0  0
    5.0670   -1.6692    4.9442 H   0  0  0  0  0  0  0  0  0  0  0  0
    3.8279   -2.8839    3.0213 H   0  0  0  0  0  0  0  0  0  0  0  0
    2.2597   -4.6970    3.2539 H   0  0  0  0  0  0  0  0  0  0  0  0
   -1.0394   -3.3120    6.3572 H   0  0  0  0  0  0  0  0  0  0  0  0
   -1.1346   -1.5979    6.0634 H   0  0  0  0  0  0  0  0  0  0  0  0
   -0.1750   -2.2280    7.4105 H   0  0  0  0  0  0  0  0  0  0  0  0
  1  2  2  0
  1 24  1  0
  1 25  1  0
  2 23  1  0
  2  3  1  0
  4  3  1  1
  3 26  1  0
  3 27  1  0
  4 12  1  0
  4 14  1  0
  4  5  1  0
  5  6  2  0
  5 28  1  0
  6  7  1  0
  6 29  1  0
  7  8  1  6
  7  9  1  0
  7 15  1  0
  9 10  1  0
  9 11  1  0
  9 30  1  6
 10 31  1  0
 11 14  1  0
 11 12  1  0
 11 32  1  6
 12 13  1  0
 12 33  1  1
 13 14  1  0
 13 34  1  0
 13 35  1  0
 14 36  1  6
 15 23  1  0
 15 16  1  1
 15 17  1  0
 16 37  1  0
 16 38  1  0
 16 39  1  0
 17 18  2  0
 17 40  1  0
 18 19  1  0
 18 41  1  0
 19 20  2  0
 19 21  1  0
 21 22  1  0
 21 23  2  0
 22 42  1  0
 22 43  1  0
 22 44  1  0
M  END
>  <i_m_ct_stereo_status>  (266) 
1

>  <s_m_source_file>  (266) 
/var/tmp/pbs.5076255.sched01/tmpz7m1v8ep/860kfiy9lw.sdf

>  <i_m_source_file_index>  (266) 
34

>  <i_lp_mmshare_version>  (266) 
48012

>  <i_f3d_flags>  (266) 
3

>  <s_epik_input>  (266) 
W0NIXTE9W0NIXUMoPU8pQyhbQ0gzXSk9QyhDKD1bQ0gyXSlbQ0gyXTIpW0NAXTEoW0NIM10pQyhGKShbQ0hdPVtDSF0zKVtDQEBIXShbT0hdKVtDQEBIXShbQ0BIXTRbQ0BAXTIzNSlbQ0BIXTVbQ0gyXTQ=

>  <s_epik_cmdline>  (266) 
J2VwaWtfcHl0aG9uJywgJy1waHQnLCAnMi4wJywgJy1waCcsICc3LjAnLCAnLXRuJywgJzgnLCAnLW1hJywgJzIwMCcsICctaW1hZScsICc8aW5maWxlLm1hZT4nLCAnLW9tYWUnLCAnPG91dGZpbGUubWFlPic=

>  <r_lp_tautomer_probability>  (266) 
1

>  <r_epik_Ionization_Penalty>  (266) 
2.68833e-06

>  <r_epik_Ionization_Penalty_Charging>  (266) 
0

>  <r_epik_Ionization_Penalty_Neutral>  (266) 
2.68833e-06

>  <r_epik_State_Penalty>  (266) 
-0

>  <r_epik_Charging_Adjusted_Penalty>  (266) 
0

>  <i_epik_Tot_Q>  (266) 
0

>  <i_epik_Tot_abs_Q>  (266) 
0

>  <s_lp_Force_Field>  (266) 
OPLS3e

>  <r_lp_Energy>  (266) 
153.724

>  <b_lp_Chiralities_Consistent>  (266) 
0

>  <s_lp_Variant>  (266) 
80:0-1

>  <s_i_glide_gridfile>  (266) 
pfpi4k_grid

>  <i_i_glide_lignum>  (266) 
34

>  <i_i_glide_rotatable_bonds>  (266) 
1

>  <r_i_docking_score>  (266) 
-3.08759

>  <r_i_glide_ligand_efficiency>  (266) 
-0.134243

>  <r_i_glide_ligand_efficiency_sa>  (266) 
-0.381769

>  <r_i_glide_ligand_efficiency_ln>  (266) 
-0.746607

>  <r_i_glide_gscore>  (266) 
-3.08759

>  <r_i_glide_lipo>  (266) 
-0.00285444

>  <r_i_glide_hbond>  (266) 
-0.16

>  <r_i_glide_metal>  (266) 
-0

>  <r_i_glide_rewards>  (266) 
-1.38463

>  <r_i_glide_evdw>  (266) 
-17.2704

>  <r_i_glide_ecoul>  (266) 
-4.51053

>  <r_i_glide_erotb>  (266) 
0

>  <r_i_glide_esite>  (266) 
0

>  <r_i_glide_emodel>  (266) 
-26.5825

>  <r_i_glide_energy>  (266) 
-21.7809

>  <r_i_glide_einternal>  (266) 
0.423968

>  <r_i_glide_intrahb_reward>  (266) 
-0

>  <i_i_glide_confnum>  (266) 
2

>  <i_i_glide_posenum>  (266) 
24

>  <r_i_glide_eff_state_penalty>  (266) 
0

>  <ligand_id>  (266) 
80

>  <original_smiles>  (266) 
C=C1CC23C=CC(F)(C(O)C4C2CC43)C2(C)C=CC(=O)C(C)=C12

>  <smiles>  (266) 
[H]OC1([H])C2(F)C([H])=C([H])C3(C([H])([H])C(=C([H])[H])C4=C(C([H])([H])[H])C(=O)C([H])=C([H])C42C([H])([H])[H])C2([H])C([H])([H])C3([H])C12[H]

$$$$
80:1:0
     RDKit          3D

 44 48  0  0  1  0  0  0  0  0999 V2000
    7.3979   -3.9042   -0.2926 C   0  0  0  0  0  0  0  0  0  0  0  0
    6.0592   -4.0007   -0.2389 C   0  0  0  0  0  0  0  0  0  0  0  0
    5.3757   -5.3022    0.2498 C   0  0  0  0  0  0  0  0  0  0  0  0
    4.4022   -4.8692    1.3271 C   0  0  1  0  0  0  0  0  0  0  0  0
    3.1289   -4.3645    0.6397 C   0  0  0  0  0  0  0  0  0  0  0  0
    2.7444   -3.0898    0.5501 C   0  0  0  0  0  0  0  0  0  0  0  0
    3.5547   -2.0371    1.2199 C   0  0  1  0  0  0  0  0  0  0  0  0
    2.8392   -0.9044    1.2806 F   0  0  0  0  0  0  0  0  0  0  0  0
    3.6093   -2.4023    2.7515 C   0  0  1  0  0  0  0  0  0  0  0  0
    2.3364   -2.2628    3.3596 O   0  0  0  0  0  0  0  0  0  0  0  0
    4.0975   -3.7906    3.2140 C   0  0  1  0  0  0  0  0  0  0  0  0
    3.8502   -5.2854    2.7098 C   0  0  2  0  0  0  0  0  0  0  0  0
    5.2481   -5.5979    3.1780 C   0  0  0  0  0  0  0  0  0  0  0  0
    5.2932   -4.2345    2.4658 C   0  0  1  0  0  0  0  0  0  0  0  0
    4.8437   -1.7301    0.2951 C   0  0  2  0  0  0  0  0  0  0  0  0
    6.0292   -1.1519    1.1081 C   0  0  0  0  0  0  0  0  0  0  0  0
    4.4605   -0.5591   -0.5582 C   0  0  0  0  0  0  0  0  0  0  0  0
    4.2924   -0.5054   -1.8830 C   0  0  0  0  0  0  0  0  0  0  0  0
    4.3539   -1.6754   -2.6841 C   0  0  0  0  0  0  0  0  0  0  0  0
    3.9345   -1.6831   -3.8387 O   0  0  0  0  0  0  0  0  0  0  0  0
    5.0183   -2.8170   -2.0549 C   0  0  0  0  0  0  0  0  0  0  0  0
    5.3445   -3.8410   -3.1040 C   0  0  0  0  0  0  0  0  0  0  0  0
    5.2787   -2.8685   -0.7175 C   0  0  0  0  0  0  0  0  0  0  0  0
    7.9092   -3.0285   -0.6717 H   0  0  0  0  0  0  0  0  0  0  0  0
    8.0060   -4.7354    0.0241 H   0  0  0  0  0  0  0  0  0  0  0  0
    4.8782   -5.7962   -0.5805 H   0  0  0  0  0  0  0  0  0  0  0  0
    6.1397   -5.9867    0.6212 H   0  0  0  0  0  0  0  0  0  0  0  0
    2.5486   -5.1260    0.1296 H   0  0  0  0  0  0  0  0  0  0  0  0
    1.8815   -2.7969   -0.0235 H   0  0  0  0  0  0  0  0  0  0  0  0
    4.2310   -1.6353    3.2097 H   0  0  0  0  0  0  0  0  0  0  0  0
    1.7360   -2.8576    2.9403 H   0  0  0  0  0  0  0  0  0  0  0  0
    4.2710   -3.7746    4.3008 H   0  0  0  0  0  0  0  0  0  0  0  0
    2.9647   -5.8918    2.9238 H   0  0  0  0  0  0  0  0  0  0  0  0
    5.4164   -5.5864    4.2569 H   0  0  0  0  0  0  0  0  0  0  0  0
    5.7185   -6.4500    2.6871 H   0  0  0  0  0  0  0  0  0  0  0  0
    6.2355   -3.7173    2.3820 H   0  0  0  0  0  0  0  0  0  0  0  0
    6.8127   -0.7951    0.4342 H   0  0  0  0  0  0  0  0  0  0  0  0
    6.5075   -1.8482    1.7746 H   0  0  0  0  0  0  0  0  0  0  0  0
    5.7300   -0.2947    1.7114 H   0  0  0  0  0  0  0  0  0  0  0  0
    4.3472    0.3650    0.0083 H   0  0  0  0  0  0  0  0  0  0  0  0
    4.0507    0.4131   -2.4145 H   0  0  0  0  0  0  0  0  0  0  0  0
    4.4555   -4.2267   -3.5861 H   0  0  0  0  0  0  0  0  0  0  0  0
    5.7845   -4.6609   -2.6119 H   0  0  0  0  0  0  0  0  0  0  0  0
    6.0256   -3.4437   -3.8514 H   0  0  0  0  0  0  0  0  0  0  0  0
  1  2  2  0
  1 24  1  0
  1 25  1  0
  2 23  1  0
  2  3  1  0
  4  3  1  6
  3 26  1  0
  3 27  1  0
  4 12  1  0
  4 14  1  0
  4  5  1  0
  5  6  2  0
  5 28  1  0
  6  7  1  0
  6 29  1  0
  7  8  1  1
  7  9  1  0
  7 15  1  0
  9 10  1  0
  9 11  1  0
  9 30  1  1
 10 31  1  0
 11 14  1  0
 11 12  1  0
 11 32  1  1
 12 13  1  0
 12 33  1  6
 13 14  1  0
 13 34  1  0
 13 35  1  0
 14 36  1  6
 15 23  1  0
 15 16  1  1
 15 17  1  0
 16 37  1  0
 16 38  1  0
 16 39  1  0
 17 18  2  0
 17 40  1  0
 18 19  1  0
 18 41  1  0
 19 20  2  0
 19 21  1  0
 21 22  1  0
 21 23  2  0
 22 42  1  0
 22 43  1  0
 22 44  1  0
M  END
>  <i_m_ct_stereo_status>  (267) 
1

>  <s_m_source_file>  (267) 
/var/tmp/pbs.5076255.sched01/tmpz7m1v8ep/860kfiy9lw.sdf

>  <i_m_source_file_index>  (267) 
35

>  <i_lp_mmshare_version>  (267) 
48012

>  <i_f3d_flags>  (267) 
1

>  <s_epik_input>  (267) 
W0NIXTE9W0NIXUMoPU8pQyhbQ0gzXSk9QyhDKD1bQ0gyXSlbQ0gyXTIpW0NAXTEoW0NIM10pQyhGKShbQ0hdPVtDSF0zKVtDQEBIXShbT0hdKVtDQEBIXShbQ0BIXTRbQ0BAXTIzNSlbQ0BIXTVbQ0gyXTQ=

>  <s_epik_cmdline>  (267) 
J2VwaWtfcHl0aG9uJywgJy1waHQnLCAnMi4wJywgJy1waCcsICc3LjAnLCAnLXRuJywgJzgnLCAnLW1hJywgJzIwMCcsICctaW1hZScsICc8aW5maWxlLm1hZT4nLCAnLW9tYWUnLCAnPG91dGZpbGUubWFlPic=

>  <r_lp_tautomer_probability>  (267) 
1

>  <r_epik_Ionization_Penalty>  (267) 
2.68833e-06

>  <r_epik_Ionization_Penalty_Charging>  (267) 
0

>  <r_epik_Ionization_Penalty_Neutral>  (267) 
2.68833e-06

>  <r_epik_State_Penalty>  (267) 
-0

>  <r_epik_Charging_Adjusted_Penalty>  (267) 
0

>  <i_epik_Tot_Q>  (267) 
0

>  <i_epik_Tot_abs_Q>  (267) 
0

>  <s_lp_Force_Field>  (267) 
OPLS3e

>  <r_lp_Energy>  (267) 
157.483

>  <b_lp_Chiralities_Consistent>  (267) 
1

>  <s_lp_Variant>  (267) 
80:0-2

>  <s_i_glide_gridfile>  (267) 
pfpi4k_grid

>  <i_i_glide_lignum>  (267) 
35

>  <i_i_glide_rotatable_bonds>  (267) 
1

>  <r_i_docking_score>  (267) 
-3.02673

>  <r_i_glide_ligand_efficiency>  (267) 
-0.131597

>  <r_i_glide_ligand_efficiency_sa>  (267) 
-0.374244

>  <r_i_glide_ligand_efficiency_ln>  (267) 
-0.73189

>  <r_i_glide_gscore>  (267) 
-3.02673

>  <r_i_glide_lipo>  (267) 
-0.608663

>  <r_i_glide_hbond>  (267) 
-0.00181023

>  <r_i_glide_metal>  (267) 
-0

>  <r_i_glide_rewards>  (267) 
-1.27924

>  <r_i_glide_evdw>  (267) 
-16.1486

>  <r_i_glide_ecoul>  (267) 
-1.7446

>  <r_i_glide_erotb>  (267) 
0

>  <r_i_glide_esite>  (267) 
-0.067891

>  <r_i_glide_emodel>  (267) 
-20.7241

>  <r_i_glide_energy>  (267) 
-17.8932

>  <r_i_glide_einternal>  (267) 
0.0306141

>  <r_i_glide_intrahb_reward>  (267) 
-0

>  <i_i_glide_confnum>  (267) 
1

>  <i_i_glide_posenum>  (267) 
1

>  <r_i_glide_eff_state_penalty>  (267) 
0

>  <ligand_id>  (267) 
80

>  <original_smiles>  (267) 
C=C1CC23C=CC(F)(C(O)C4C2CC43)C2(C)C=CC(=O)C(C)=C12

>  <smiles>  (267) 
[H]OC1([H])C2(F)C([H])=C([H])C3(C([H])([H])C(=C([H])[H])C4=C(C([H])([H])[H])C(=O)C([H])=C([H])C42C([H])([H])[H])C2([H])C([H])([H])C3([H])C12[H]

$$$$
80:1:1
     RDKit          3D

 44 48  0  0  1  0  0  0  0  0999 V2000
    3.8381   -5.5621    0.5969 C   0  0  0  0  0  0  0  0  0  0  0  0
    3.4001   -4.3218    0.8891 C   0  0  0  0  0  0  0  0  0  0  0  0
    2.4422   -4.1231    2.0843 C   0  0  0  0  0  0  0  0  0  0  0  0
    3.0179   -2.9960    2.9082 C   0  0  1  0  0  0  0  0  0  0  0  0
    2.6168   -1.6646    2.2448 C   0  0  0  0  0  0  0  0  0  0  0  0
    3.4284   -0.8568    1.5756 C   0  0  0  0  0  0  0  0  0  0  0  0
    4.8770   -1.1935    1.4773 C   0  0  1  0  0  0  0  0  0  0  0  0
    5.5294   -0.1042    1.0568 F   0  0  0  0  0  0  0  0  0  0  0  0
    5.4128   -1.3001    2.9607 C   0  0  1  0  0  0  0  0  0  0  0  0
    5.4317   -0.0332    3.6013 O   0  0  0  0  0  0  0  0  0  0  0  0
    4.7484   -2.2379    4.0034 C   0  0  1  0  0  0  0  0  0  0  0  0
    3.2327   -2.5626    4.3748 C   0  0  2  0  0  0  0  0  0  0  0  0
    3.6928   -3.9567    4.7261 C   0  0  0  0  0  0  0  0  0  0  0  0
    4.4030   -3.5496    3.4210 C   0  0  1  0  0  0  0  0  0  0  0  0
    5.0935   -2.3262    0.3396 C   0  0  2  0  0  0  0  0  0  0  0  0
    6.3463   -3.1985    0.5767 C   0  0  0  0  0  0  0  0  0  0  0  0
    5.4885   -1.5669   -0.9288 C   0  0  0  0  0  0  0  0  0  0  0  0
    4.7543   -1.3937   -2.0316 C   0  0  0  0  0  0  0  0  0  0  0  0
    3.4474   -2.0099   -2.1370 C   0  0  0  0  0  0  0  0  0  0  0  0
    2.7115   -1.7168   -3.0828 O   0  0  0  0  0  0  0  0  0  0  0  0
    3.0709   -3.0249   -1.1233 C   0  0  0  0  0  0  0  0  0  0  0  0
    1.8123   -3.7914   -1.5036 C   0  0  0  0  0  0  0  0  0  0  0  0
    3.8180   -3.2065    0.0141 C   0  0  0  0  0  0  0  0  0  0  0  0
    4.4903   -5.7370   -0.2462 H   0  0  0  0  0  0  0  0  0  0  0  0
    3.5560   -6.4066    1.1999 H   0  0  0  0  0  0  0  0  0  0  0  0
    1.4480   -3.8863    1.7369 H   0  0  0  0  0  0  0  0  0  0  0  0
    2.3534   -5.0606    2.6398 H   0  0  0  0  0  0  0  0  0  0  0  0
    1.5641   -1.4109    2.3048 H   0  0  0  0  0  0  0  0  0  0  0  0
    3.0631    0.0423    1.0906 H   0  0  0  0  0  0  0  0  0  0  0  0
    6.4567   -1.5768    2.8504 H   0  0  0  0  0  0  0  0  0  0  0  0
    4.5476    0.2772    3.6948 H   0  0  0  0  0  0  0  0  0  0  0  0
    5.3992   -2.3252    4.8865 H   0  0  0  0  0  0  0  0  0  0  0  0
    2.5773   -1.9413    4.9915 H   0  0  0  0  0  0  0  0  0  0  0  0
    4.3247   -4.0556    5.6111 H   0  0  0  0  0  0  0  0  0  0  0  0
    2.9225   -4.7259    4.6768 H   0  0  0  0  0  0  0  0  0  0  0  0
    5.0740   -4.2550    2.9460 H   0  0  0  0  0  0  0  0  0  0  0  0
    6.5192   -3.8448   -0.2876 H   0  0  0  0  0  0  0  0  0  0  0  0
    6.2909   -3.8543    1.4302 H   0  0  0  0  0  0  0  0  0  0  0  0
    7.2413   -2.5915    0.7083 H   0  0  0  0  0  0  0  0  0  0  0  0
    6.4689   -1.1154   -0.8886 H   0  0  0  0  0  0  0  0  0  0  0  0
    5.0940   -0.8152   -2.8771 H   0  0  0  0  0  0  0  0  0  0  0  0
    0.9504   -3.1299   -1.5264 H   0  0  0  0  0  0  0  0  0  0  0  0
    1.5709   -4.6351   -0.8630 H   0  0  0  0  0  0  0  0  0  0  0  0
    1.9122   -4.1555   -2.5187 H   0  0  0  0  0  0  0  0  0  0  0  0
  1  2  2  0
  1 24  1  0
  1 25  1  0
  2 23  1  0
  2  3  1  0
  4  3  1  1
  3 26  1  0
  3 27  1  0
  4 12  1  0
  4 14  1  0
  4  5  1  0
  5  6  2  0
  5 28  1  0
  6  7  1  0
  6 29  1  0
  7  8  1  6
  7  9  1  0
  7 15  1  0
  9 10  1  0
  9 11  1  0
  9 30  1  6
 10 31  1  0
 11 14  1  0
 11 12  1  0
 11 32  1  1
 12 13  1  0
 12 33  1  1
 13 14  1  0
 13 34  1  0
 13 35  1  0
 14 36  1  6
 15 23  1  0
 15 16  1  1
 15 17  1  0
 16 37  1  0
 16 38  1  0
 16 39  1  0
 17 18  2  0
 17 40  1  0
 18 19  1  0
 18 41  1  0
 19 20  2  0
 19 21  1  0
 21 22  1  0
 21 23  2  0
 22 42  1  0
 22 43  1  0
 22 44  1  0
M  END
>  <i_m_ct_stereo_status>  (268) 
1

>  <s_m_source_file>  (268) 
/var/tmp/pbs.5076255.sched01/tmpz7m1v8ep/860kfiy9lw.sdf

>  <i_m_source_file_index>  (268) 
35

>  <i_lp_mmshare_version>  (268) 
48012

>  <i_f3d_flags>  (268) 
1

>  <s_epik_input>  (268) 
W0NIXTE9W0NIXUMoPU8pQyhbQ0gzXSk9QyhDKD1bQ0gyXSlbQ0gyXTIpW0NAXTEoW0NIM10pQyhGKShbQ0hdPVtDSF0zKVtDQEBIXShbT0hdKVtDQEBIXShbQ0BIXTRbQ0BAXTIzNSlbQ0BIXTVbQ0gyXTQ=

>  <s_epik_cmdline>  (268) 
J2VwaWtfcHl0aG9uJywgJy1waHQnLCAnMi4wJywgJy1waCcsICc3LjAnLCAnLXRuJywgJzgnLCAnLW1hJywgJzIwMCcsICctaW1hZScsICc8aW5maWxlLm1hZT4nLCAnLW9tYWUnLCAnPG91dGZpbGUubWFlPic=

>  <r_lp_tautomer_probability>  (268) 
1

>  <r_epik_Ionization_Penalty>  (268) 
2.68833e-06

>  <r_epik_Ionization_Penalty_Charging>  (268) 
0

>  <r_epik_Ionization_Penalty_Neutral>  (268) 
2.68833e-06

>  <r_epik_State_Penalty>  (268) 
-0

>  <r_epik_Charging_Adjusted_Penalty>  (268) 
0

>  <i_epik_Tot_Q>  (268) 
0

>  <i_epik_Tot_abs_Q>  (268) 
0

>  <s_lp_Force_Field>  (268) 
OPLS3e

>  <r_lp_Energy>  (268) 
157.483

>  <b_lp_Chiralities_Consistent>  (268) 
1

>  <s_lp_Variant>  (268) 
80:0-2

>  <s_i_glide_gridfile>  (268) 
pfpi4k_grid

>  <i_i_glide_lignum>  (268) 
35

>  <i_i_glide_rotatable_bonds>  (268) 
1

>  <r_i_docking_score>  (268) 
-2.88395

>  <r_i_glide_ligand_efficiency>  (268) 
-0.125389

>  <r_i_glide_ligand_efficiency_sa>  (268) 
-0.35659

>  <r_i_glide_ligand_efficiency_ln>  (268) 
-0.697364

>  <r_i_glide_gscore>  (268) 
-2.88395

>  <r_i_glide_lipo>  (268) 
-0.351703

>  <r_i_glide_hbond>  (268) 
0

>  <r_i_glide_metal>  (268) 
-0

>  <r_i_glide_rewards>  (268) 
-1.39546

>  <r_i_glide_evdw>  (268) 
-21.4082

>  <r_i_glide_ecoul>  (268) 
-0.106534

>  <r_i_glide_erotb>  (268) 
0

>  <r_i_glide_esite>  (268) 
-0.0503966

>  <r_i_glide_emodel>  (268) 
-24.538

>  <r_i_glide_energy>  (268) 
-21.5147

>  <r_i_glide_einternal>  (268) 
0.00681934

>  <r_i_glide_intrahb_reward>  (268) 
-0

>  <i_i_glide_confnum>  (268) 
1

>  <i_i_glide_posenum>  (268) 
4

>  <r_i_glide_eff_state_penalty>  (268) 
0

>  <ligand_id>  (268) 
80

>  <original_smiles>  (268) 
C=C1CC23C=CC(F)(C(O)C4C2CC43)C2(C)C=CC(=O)C(C)=C12

>  <smiles>  (268) 
[H]OC1([H])C2(F)C([H])=C([H])C3(C([H])([H])C(=C([H])[H])C4=C(C([H])([H])[H])C(=O)C([H])=C([H])C42C([H])([H])[H])C2([H])C([H])([H])C3([H])C12[H]

$$$$
80:1:2
     RDKit          3D

 44 48  0  0  1  0  0  0  0  0999 V2000
    3.9400   -5.5585    0.6894 C   0  0  0  0  0  0  0  0  0  0  0  0
    3.4392   -4.3515    0.9960 C   0  0  0  0  0  0  0  0  0  0  0  0
    2.3768   -4.2346    2.1132 C   0  0  0  0  0  0  0  0  0  0  0  0
    2.8341   -3.1314    3.0260 C   0  0  1  0  0  0  0  0  0  0  0  0
    2.4461   -1.7820    2.3864 C   0  0  0  0  0  0  0  0  0  0  0  0
    3.2751   -0.9195    1.8201 C   0  0  0  0  0  0  0  0  0  0  0  0
    4.7351   -1.2055    1.8362 C   0  0  1  0  0  0  0  0  0  0  0  0
    5.4060   -0.0908    1.5229 F   0  0  0  0  0  0  0  0  0  0  0  0
    5.1358   -1.3629    3.3551 C   0  0  1  0  0  0  0  0  0  0  0  0
    5.0922   -0.1289    4.0640 O   0  0  0  0  0  0  0  0  0  0  0  0
    4.4253   -2.3666    4.2948 C   0  0  1  0  0  0  0  0  0  0  0  0
    2.9025   -2.7587    4.5297 C   0  0  2  0  0  0  0  0  0  0  0  0
    3.3872   -4.1523    4.8541 C   0  0  0  0  0  0  0  0  0  0  0  0
    4.1889   -3.6595    3.6360 C   0  0  1  0  0  0  0  0  0  0  0  0
    5.0953   -2.2765    0.6746 C   0  0  2  0  0  0  0  0  0  0  0  0
    6.3500   -3.1213    0.9832 C   0  0  0  0  0  0  0  0  0  0  0  0
    5.5766   -1.4518   -0.5184 C   0  0  0  0  0  0  0  0  0  0  0  0
    4.9412   -1.2487   -1.6779 C   0  0  0  0  0  0  0  0  0  0  0  0
    3.6630   -1.8981   -1.9116 C   0  0  0  0  0  0  0  0  0  0  0  0
    2.9995   -1.5679   -2.8952 O   0  0  0  0  0  0  0  0  0  0  0  0
    3.2305   -2.9704   -0.9785 C   0  0  0  0  0  0  0  0  0  0  0  0
    2.0255   -3.7566   -1.4881 C   0  0  0  0  0  0  0  0  0  0  0  0
    3.8863   -3.1807    0.2049 C   0  0  0  0  0  0  0  0  0  0  0  0
    4.6635   -5.6802   -0.1060 H   0  0  0  0  0  0  0  0  0  0  0  0
    3.6353   -6.4375    1.2267 H   0  0  0  0  0  0  0  0  0  0  0  0
    1.4282   -4.0158    1.6821 H   0  0  0  0  0  0  0  0  0  0  0  0
    2.2753   -5.2048    2.6182 H   0  0  0  0  0  0  0  0  0  0  0  0
    1.3856   -1.5653    2.3708 H   0  0  0  0  0  0  0  0  0  0  0  0
    2.9255   -0.0131    1.3526 H   0  0  0  0  0  0  0  0  0  0  0  0
    6.1659   -1.6307    3.2906 H   0  0  0  0  0  0  0  0  0  0  0  0
    5.4532   -0.2745    4.9177 H   0  0  0  0  0  0  0  0  0  0  0  0
    5.0074   -2.4809    5.2202 H   0  0  0  0  0  0  0  0  0  0  0  0
    2.1831   -2.1845    5.1100 H   0  0  0  0  0  0  0  0  0  0  0  0
    3.9461   -4.2701    5.7870 H   0  0  0  0  0  0  0  0  0  0  0  0
    2.6508   -4.9383    4.7048 H   0  0  0  0  0  0  0  0  0  0  0  0
    4.9226   -4.3204    3.1895 H   0  0  0  0  0  0  0  0  0  0  0  0
    6.6191   -3.7233    0.1104 H   0  0  0  0  0  0  0  0  0  0  0  0
    6.2479   -3.8167    1.7977 H   0  0  0  0  0  0  0  0  0  0  0  0
    7.2092   -2.4963    1.2123 H   0  0  0  0  0  0  0  0  0  0  0  0
    6.5381   -0.9699   -0.3708 H   0  0  0  0  0  0  0  0  0  0  0  0
    5.3348   -0.6236   -2.4651 H   0  0  0  0  0  0  0  0  0  0  0  0
    1.1486   -3.1210   -1.5856 H   0  0  0  0  0  0  0  0  0  0  0  0
    1.7583   -4.6254   -0.8854 H   0  0  0  0  0  0  0  0  0  0  0  0
    2.2242   -4.1187   -2.4945 H   0  0  0  0  0  0  0  0  0  0  0  0
  1  2  2  0
  1 24  1  0
  1 25  1  0
  2 23  1  0
  2  3  1  0
  4  3  1  1
  3 26  1  0
  3 27  1  0
  4 12  1  0
  4 14  1  0
  4  5  1  0
  5  6  2  0
  5 28  1  0
  6  7  1  0
  6 29  1  0
  7  8  1  6
  7  9  1  0
  7 15  1  0
  9 10  1  0
  9 11  1  0
  9 30  1  6
 10 31  1  0
 11 14  1  0
 11 12  1  0
 11 32  1  1
 12 13  1  0
 12 33  1  1
 13 14  1  0
 13 34  1  0
 13 35  1  0
 14 36  1  6
 15 23  1  0
 15 16  1  1
 15 17  1  0
 16 37  1  0
 16 38  1  0
 16 39  1  0
 17 18  2  0
 17 40  1  0
 18 19  1  0
 18 41  1  0
 19 20  2  0
 19 21  1  0
 21 22  1  0
 21 23  2  0
 22 42  1  0
 22 43  1  0
 22 44  1  0
M  END
>  <i_m_ct_stereo_status>  (269) 
1

>  <s_m_source_file>  (269) 
/var/tmp/pbs.5076255.sched01/tmpz7m1v8ep/860kfiy9lw.sdf

>  <i_m_source_file_index>  (269) 
35

>  <i_lp_mmshare_version>  (269) 
48012

>  <i_f3d_flags>  (269) 
1

>  <s_epik_input>  (269) 
W0NIXTE9W0NIXUMoPU8pQyhbQ0gzXSk9QyhDKD1bQ0gyXSlbQ0gyXTIpW0NAXTEoW0NIM10pQyhGKShbQ0hdPVtDSF0zKVtDQEBIXShbT0hdKVtDQEBIXShbQ0BIXTRbQ0BAXTIzNSlbQ0BIXTVbQ0gyXTQ=

>  <s_epik_cmdline>  (269) 
J2VwaWtfcHl0aG9uJywgJy1waHQnLCAnMi4wJywgJy1waCcsICc3LjAnLCAnLXRuJywgJzgnLCAnLW1hJywgJzIwMCcsICctaW1hZScsICc8aW5maWxlLm1hZT4nLCAnLW9tYWUnLCAnPG91dGZpbGUubWFlPic=

>  <r_lp_tautomer_probability>  (269) 
1

>  <r_epik_Ionization_Penalty>  (269) 
2.68833e-06

>  <r_epik_Ionization_Penalty_Charging>  (269) 
0

>  <r_epik_Ionization_Penalty_Neutral>  (269) 
2.68833e-06

>  <r_epik_State_Penalty>  (269) 
-0

>  <r_epik_Charging_Adjusted_Penalty>  (269) 
0

>  <i_epik_Tot_Q>  (269) 
0

>  <i_epik_Tot_abs_Q>  (269) 
0

>  <s_lp_Force_Field>  (269) 
OPLS3e

>  <r_lp_Energy>  (269) 
157.483

>  <b_lp_Chiralities_Consistent>  (269) 
1

>  <s_lp_Variant>  (269) 
80:0-2

>  <s_i_glide_gridfile>  (269) 
pfpi4k_grid

>  <i_i_glide_lignum>  (269) 
35

>  <i_i_glide_rotatable_bonds>  (269) 
1

>  <r_i_docking_score>  (269) 
-2.77029

>  <r_i_glide_ligand_efficiency>  (269) 
-0.120448

>  <r_i_glide_ligand_efficiency_sa>  (269) 
-0.342537

>  <r_i_glide_ligand_efficiency_ln>  (269) 
-0.669882

>  <r_i_glide_gscore>  (269) 
-2.77029

>  <r_i_glide_lipo>  (269) 
-0.32626

>  <r_i_glide_hbond>  (269) 
0

>  <r_i_glide_metal>  (269) 
-0

>  <r_i_glide_rewards>  (269) 
-1.39069

>  <r_i_glide_evdw>  (269) 
-20.1522

>  <r_i_glide_ecoul>  (269) 
0.0414808

>  <r_i_glide_erotb>  (269) 
0

>  <r_i_glide_esite>  (269) 
-0.0519527

>  <r_i_glide_emodel>  (269) 
-22.8388

>  <r_i_glide_energy>  (269) 
-20.1107

>  <r_i_glide_einternal>  (269) 
0.336592

>  <r_i_glide_intrahb_reward>  (269) 
-0

>  <i_i_glide_confnum>  (269) 
1

>  <i_i_glide_posenum>  (269) 
21

>  <r_i_glide_eff_state_penalty>  (269) 
0

>  <ligand_id>  (269) 
80

>  <original_smiles>  (269) 
C=C1CC23C=CC(F)(C(O)C4C2CC43)C2(C)C=CC(=O)C(C)=C12

>  <smiles>  (269) 
[H]OC1([H])C2(F)C([H])=C([H])C3(C([H])([H])C(=C([H])[H])C4=C(C([H])([H])[H])C(=O)C([H])=C([H])C42C([H])([H])[H])C2([H])C([H])([H])C3([H])C12[H]

$$$$
81:0:0
     RDKit          3D

 66 71  0  0  1  0  0  0  0  0999 V2000
   -2.2879    3.5544    3.1277 C   0  0  0  0  0  0  0  0  0  0  0  0
   -1.5326    2.6198    4.0991 C   0  0  2  0  0  0  0  0  0  0  0  0
   -1.9267    3.0100    5.5311 C   0  0  0  0  0  0  0  0  0  0  0  0
   -1.5966    1.9163    6.5308 C   0  0  0  0  0  0  0  0  0  0  0  0
   -0.1813    1.3416    6.2047 C   0  0  1  0  0  0  0  0  0  0  0  0
    0.5688    0.3538    6.8392 C   0  0  2  0  0  0  0  0  0  0  0  0
    0.3257    0.3247    8.3604 C   0  0  0  0  0  0  0  0  0  0  0  0
    2.1748    0.8527    6.4053 C   0  0  2  0  0  0  0  0  0  0  0  0
    2.2812    2.3862    5.7660 C   0  0  0  0  0  0  0  0  0  0  0  0
    1.1767    3.1882    4.7612 C   0  0  1  0  0  0  0  0  0  0  0  0
    1.9916    3.4315    3.7044 O   0  0  0  0  0  0  0  0  0  0  0  0
    1.9489    2.1582    3.1355 C   0  0  0  0  0  0  0  0  0  0  0  0
    0.6931    1.2008    3.5758 C   0  0  1  0  0  0  0  0  0  0  0  0
    0.9803    0.2087    2.4498 C   0  0  0  0  0  0  0  0  0  0  0  0
    2.4502   -0.4435    2.6165 C   0  0  1  0  0  0  0  0  0  0  0  0
    3.2455   -0.2933    1.3035 C   0  0  0  0  0  0  0  0  0  0  0  0
    3.4416   -0.2611    3.9314 C   0  0  1  0  0  0  0  0  0  0  0  0
    4.6228    0.5055    3.7158 O   0  0  0  0  0  0  0  0  0  0  0  0
    3.0104   -0.2725    5.5088 C   0  0  1  0  0  0  0  0  0  0  0  0
    4.2289   -0.4719    6.2149 O   0  0  0  0  0  0  0  0  0  0  0  0
    2.1852   -1.5337    5.6317 C   0  0  0  0  0  0  0  0  0  0  0  0
    2.6789   -2.8556    4.9575 C   0  0  0  0  0  0  0  0  0  0  0  0
    2.0696   -2.0164    7.1289 C   0  0  0  0  0  0  0  0  0  0  0  0
    1.0651   -0.9869    4.8483 O   0  0  0  0  0  0  0  0  0  0  0  0
    0.4070    0.3753    4.9232 C   0  0  1  0  0  0  0  0  0  0  0  0
   -0.5167   -0.4583    5.8096 C   0  0  1  0  0  0  0  0  0  0  0  0
   -0.8873   -1.9864    5.8848 C   0  0  0  0  0  0  0  0  0  0  0  0
    0.0137    2.5581    3.7778 C   0  0  1  0  0  0  0  0  0  0  0  0
   -1.9564    4.5906    3.2253 H   0  0  0  0  0  0  0  0  0  0  0  0
   -3.3622    3.5259    3.3106 H   0  0  0  0  0  0  0  0  0  0  0  0
   -2.1384    3.2586    2.0868 H   0  0  0  0  0  0  0  0  0  0  0  0
   -1.9438    1.6292    3.9013 H   0  0  0  0  0  0  0  0  0  0  0  0
   -1.4293    3.9399    5.8090 H   0  0  0  0  0  0  0  0  0  0  0  0
   -2.9939    3.2194    5.5942 H   0  0  0  0  0  0  0  0  0  0  0  0
   -1.5818    2.3802    7.5198 H   0  0  0  0  0  0  0  0  0  0  0  0
   -2.4245    1.2127    6.6003 H   0  0  0  0  0  0  0  0  0  0  0  0
    0.2899    2.1951    6.6650 H   0  0  0  0  0  0  0  0  0  0  0  0
    0.8709   -0.4499    8.8888 H   0  0  0  0  0  0  0  0  0  0  0  0
   -0.7264    0.1477    8.5692 H   0  0  0  0  0  0  0  0  0  0  0  0
    0.5821    1.2769    8.8274 H   0  0  0  0  0  0  0  0  0  0  0  0
    2.7276    0.9325    7.3434 H   0  0  0  0  0  0  0  0  0  0  0  0
    2.3009    3.0269    6.6504 H   0  0  0  0  0  0  0  0  0  0  0  0
    3.3011    2.5136    5.3966 H   0  0  0  0  0  0  0  0  0  0  0  0
    0.8859    4.1574    5.1692 H   0  0  0  0  0  0  0  0  0  0  0  0
    1.9454    2.3671    2.0644 H   0  0  0  0  0  0  0  0  0  0  0  0
    2.9527    1.9042    3.3039 H   0  0  0  0  0  0  0  0  0  0  0  0
    0.2272   -0.5819    2.4742 H   0  0  0  0  0  0  0  0  0  0  0  0
    0.8495    0.6478    1.4587 H   0  0  0  0  0  0  0  0  0  0  0  0
    2.1837   -1.4943    2.5715 H   0  0  0  0  0  0  0  0  0  0  0  0
    3.5530    0.7345    1.1160 H   0  0  0  0  0  0  0  0  0  0  0  0
    2.6450   -0.6173    0.4527 H   0  0  0  0  0  0  0  0  0  0  0  0
    4.1441   -0.9126    1.3140 H   0  0  0  0  0  0  0  0  0  0  0  0
    4.0170   -1.1773    3.8292 H   0  0  0  0  0  0  0  0  0  0  0  0
    4.3735    1.3882    3.4876 H   0  0  0  0  0  0  0  0  0  0  0  0
    4.6916   -1.1726    5.7868 H   0  0  0  0  0  0  0  0  0  0  0  0
    3.6708   -3.1248    5.3222 H   0  0  0  0  0  0  0  0  0  0  0  0
    2.7417   -2.8759    3.8795 H   0  0  0  0  0  0  0  0  0  0  0  0
    2.0152   -3.6848    5.2055 H   0  0  0  0  0  0  0  0  0  0  0  0
    2.6725   -2.9009    7.3222 H   0  0  0  0  0  0  0  0  0  0  0  0
    1.0726   -2.2815    7.4620 H   0  0  0  0  0  0  0  0  0  0  0  0
    2.4788   -1.3073    7.8408 H   0  0  0  0  0  0  0  0  0  0  0  0
   -1.5217   -0.1488    5.4935 H   0  0  0  0  0  0  0  0  0  0  0  0
   -0.1048   -2.7240    5.7322 H   0  0  0  0  0  0  0  0  0  0  0  0
   -1.6289   -2.2168    5.1208 H   0  0  0  0  0  0  0  0  0  0  0  0
   -1.3448   -2.2269    6.8440 H   0  0  0  0  0  0  0  0  0  0  0  0
   -0.0047    3.1269    2.8335 H   0  0  0  0  0  0  0  0  0  0  0  0
  1  2  1  0
  1 29  1  0
  1 30  1  0
  1 31  1  0
  2 28  1  0
  2  3  1  0
  2 32  1  6
  3  4  1  0
  3 33  1  0
  3 34  1  0
  4  5  1  0
  4 35  1  0
  4 36  1  0
  5 25  1  0
  5  6  1  0
  5 37  1  6
  6 26  1  0
  6  7  1  1
  6  8  1  0
  7 38  1  0
  7 39  1  0
  7 40  1  0
  8 19  1  0
  8  9  1  0
  8 41  1  1
  9 10  1  0
  9 42  1  0
  9 43  1  0
 10 28  1  0
 10 11  1  0
 10 44  1  1
 11 12  1  0
 13 12  1  1
 12 45  1  0
 12 46  1  0
 13 25  1  0
 13 14  1  0
 13 28  1  0
 14 15  1  0
 14 47  1  0
 14 48  1  0
 15 16  1  0
 15 17  1  0
 15 49  1  6
 16 50  1  0
 16 51  1  0
 16 52  1  0
 17 18  1  0
 17 19  1  0
 17 53  1  1
 18 54  1  0
 19 20  1  1
 19 21  1  0
 20 55  1  0
 21 22  1  0
 21 23  1  0
 21 24  1  0
 22 56  1  0
 22 57  1  0
 22 58  1  0
 23 59  1  0
 23 60  1  0
 23 61  1  0
 25 24  1  1
 25 26  1  0
 26 27  1  0
 26 62  1  1
 27 63  1  0
 27 64  1  0
 27 65  1  0
 28 66  1  6
M  END
>  <i_m_ct_stereo_status>  (270) 
1

>  <s_m_source_file>  (270) 
/var/tmp/pbs.5076255.sched01/tmpz7m1v8ep/860kfiy9lw.sdf

>  <i_m_source_file_index>  (270) 
36

>  <i_lp_mmshare_version>  (270) 
48012

>  <i_f3d_flags>  (270) 
0

>  <s_epik_input>  (270) 
W0NIMl0xW0NIMl1bQ0BASF0oW0NIM10pW0NASF0yW0NASF0oT1tDSDJdMylbQ0gyXVtDQEBIXShbQ0BAXShbQ0gzXSkoW0NASF0xW0NAQF00NVtDQEBdMjM2KVtDQEBIXTVbQ0gzXSlbQ0BdKFtPSF0pKEMoTzQpKFtDSDNdKVtDSDNdKVtDQEhdKFtPSF0pW0NAQEhdKFtDSDJdNilbQ0gzXQ==

>  <s_epik_cmdline>  (270) 
J2VwaWtfcHl0aG9uJywgJy1waHQnLCAnMi4wJywgJy1waCcsICc3LjAnLCAnLXRuJywgJzgnLCAnLW1hJywgJzIwMCcsICctaW1hZScsICc8aW5maWxlLm1hZT4nLCAnLW9tYWUnLCAnPG91dGZpbGUubWFlPic=

>  <r_lp_tautomer_probability>  (270) 
1

>  <r_epik_Ionization_Penalty>  (270) 
3.36217e-07

>  <r_epik_Ionization_Penalty_Charging>  (270) 
0

>  <r_epik_Ionization_Penalty_Neutral>  (270) 
3.36217e-07

>  <r_epik_State_Penalty>  (270) 
-0

>  <r_epik_Charging_Adjusted_Penalty>  (270) 
0

>  <i_epik_Tot_Q>  (270) 
0

>  <i_epik_Tot_abs_Q>  (270) 
0

>  <s_lp_Force_Field>  (270) 
OPLS3e

>  <r_lp_Energy>  (270) 
481.038

>  <b_lp_Chiralities_Consistent>  (270) 
1

>  <s_lp_Variant>  (270) 
81:0-1

>  <s_i_glide_gridfile>  (270) 
pfpi4k_grid

>  <i_i_glide_lignum>  (270) 
36

>  <i_i_glide_rotatable_bonds>  (270) 
2

>  <r_i_docking_score>  (270) 
-1.75713

>  <r_i_glide_ligand_efficiency>  (270) 
-0.0627546

>  <r_i_glide_ligand_efficiency_sa>  (270) 
-0.19056

>  <r_i_glide_ligand_efficiency_ln>  (270) 
-0.405597

>  <r_i_glide_gscore>  (270) 
-1.75713

>  <r_i_glide_lipo>  (270) 
-0.0218913

>  <r_i_glide_hbond>  (270) 
0

>  <r_i_glide_metal>  (270) 
-0

>  <r_i_glide_rewards>  (270) 
-0.746208

>  <r_i_glide_evdw>  (270) 
-17.379

>  <r_i_glide_ecoul>  (270) 
-0.800538

>  <r_i_glide_erotb>  (270) 
0

>  <r_i_glide_esite>  (270) 
0

>  <r_i_glide_emodel>  (270) 
-19.8792

>  <r_i_glide_energy>  (270) 
-18.1795

>  <r_i_glide_einternal>  (270) 
0.193801

>  <r_i_glide_intrahb_reward>  (270) 
-0

>  <i_i_glide_confnum>  (270) 
2

>  <i_i_glide_posenum>  (270) 
24

>  <r_i_glide_eff_state_penalty>  (270) 
0

>  <ligand_id>  (270) 
81

>  <original_smiles>  (270) 
CC1CCC2C3(C)C4CC5OCC6(CC(C)C(O)C4(O)C(C)(C)OC26C3C)C15

>  <smiles>  (270) 
[H]OC1([H])C([H])(C([H])([H])[H])C([H])([H])C23C([H])([H])OC4([H])C([H])([H])C5([H])C1(O[H])C(C([H])([H])[H])(C([H])([H])[H])OC21C([H])(C([H])([H])[H])C5(C([H])([H])[H])C1([H])C([H])([H])C([H])([H])C([H])(C([H])([H])[H])C43[H]

$$$$
81:0:1
     RDKit          3D

 66 71  0  0  1  0  0  0  0  0999 V2000
   -1.8911    4.1166    3.1722 C   0  0  0  0  0  0  0  0  0  0  0  0
   -1.2448    3.0552    4.0867 C   0  0  2  0  0  0  0  0  0  0  0  0
   -1.6531    3.3709    5.5322 C   0  0  0  0  0  0  0  0  0  0  0  0
   -1.4543    2.1847    6.4566 C   0  0  0  0  0  0  0  0  0  0  0  0
   -0.0769    1.5202    6.1275 C   0  0  1  0  0  0  0  0  0  0  0  0
    0.5632    0.4278    6.7072 C   0  0  2  0  0  0  0  0  0  0  0  0
    0.2690    0.3061    8.2099 C   0  0  0  0  0  0  0  0  0  0  0  0
    2.2191    0.8177    6.3593 C   0  0  2  0  0  0  0  0  0  0  0  0
    2.4723    2.3794    5.8398 C   0  0  0  0  0  0  0  0  0  0  0  0
    1.4726    3.3452    4.8675 C   0  0  1  0  0  0  0  0  0  0  0  0
    2.3437    3.5954    3.8586 O   0  0  0  0  0  0  0  0  0  0  0  0
    2.2131    2.3776    3.1886 C   0  0  0  0  0  0  0  0  0  0  0  0
    0.8719    1.4992    3.5185 C   0  0  1  0  0  0  0  0  0  0  0  0
    1.1195    0.5683    2.3341 C   0  0  0  0  0  0  0  0  0  0  0  0
    2.5257   -0.2147    2.5009 C   0  0  1  0  0  0  0  0  0  0  0  0
    3.3753   -0.0533    1.2246 C   0  0  0  0  0  0  0  0  0  0  0  0
    3.4786   -0.2105    3.8575 C   0  0  1  0  0  0  0  0  0  0  0  0
    4.7172    0.4876    3.7734 O   0  0  0  0  0  0  0  0  0  0  0  0
    2.9848   -0.3110    5.4098 C   0  0  1  0  0  0  0  0  0  0  0  0
    4.1592   -0.6593    6.1258 O   0  0  0  0  0  0  0  0  0  0  0  0
    2.0562   -1.4988    5.4066 C   0  0  0  0  0  0  0  0  0  0  0  0
    2.4635   -2.8014    4.6461 C   0  0  0  0  0  0  0  0  0  0  0  0
    1.8531   -2.0779    6.8579 C   0  0  0  0  0  0  0  0  0  0  0  0
    1.0141   -0.7993    4.6361 O   0  0  0  0  0  0  0  0  0  0  0  0
    0.4720    0.6053    4.7967 C   0  0  1  0  0  0  0  0  0  0  0  0
   -0.5451   -0.2079    5.5842 C   0  0  1  0  0  0  0  0  0  0  0  0
   -1.0483   -1.7018    5.5375 C   0  0  0  0  0  0  0  0  0  0  0  0
    0.2999    2.8887    3.8024 C   0  0  1  0  0  0  0  0  0  0  0  0
   -1.4496    5.1025    3.3409 H   0  0  0  0  0  0  0  0  0  0  0  0
   -2.9656    4.1799    3.3403 H   0  0  0  0  0  0  0  0  0  0  0  0
   -1.7633    3.8752    2.1151 H   0  0  0  0  0  0  0  0  0  0  0  0
   -1.7282    2.1189    3.8045 H   0  0  0  0  0  0  0  0  0  0  0  0
   -1.0896    4.2308    5.8959 H   0  0  0  0  0  0  0  0  0  0  0  0
   -2.7002    3.6673    5.5831 H   0  0  0  0  0  0  0  0  0  0  0  0
   -1.4403    2.5687    7.4773 H   0  0  0  0  0  0  0  0  0  0  0  0
   -2.3354    1.5478    6.4425 H   0  0  0  0  0  0  0  0  0  0  0  0
    0.4438    2.2922    6.6701 H   0  0  0  0  0  0  0  0  0  0  0  0
    0.7311   -0.5484    8.6925 H   0  0  0  0  0  0  0  0  0  0  0  0
   -0.8000    0.2075    8.3727 H   0  0  0  0  0  0  0  0  0  0  0  0
    0.5909    1.1956    8.7576 H   0  0  0  0  0  0  0  0  0  0  0  0
    2.7421    0.7840    7.3191 H   0  0  0  0  0  0  0  0  0  0  0  0
    2.5181    2.9520    6.7693 H   0  0  0  0  0  0  0  0  0  0  0  0
    3.5108    2.4461    5.5045 H   0  0  0  0  0  0  0  0  0  0  0  0
    1.2462    4.3007    5.3416 H   0  0  0  0  0  0  0  0  0  0  0  0
    2.2592    2.6669    2.1382 H   0  0  0  0  0  0  0  0  0  0  0  0
    3.1868    2.0277    3.3545 H   0  0  0  0  0  0  0  0  0  0  0  0
    0.3027   -0.1542    2.2721 H   0  0  0  0  0  0  0  0  0  0  0  0
    1.0590    1.0883    1.3765 H   0  0  0  0  0  0  0  0  0  0  0  0
    2.1710   -1.2298    2.3681 H   0  0  0  0  0  0  0  0  0  0  0  0
    3.7754    0.9512    1.1137 H   0  0  0  0  0  0  0  0  0  0  0  0
    2.7767   -0.2667    0.3374 H   0  0  0  0  0  0  0  0  0  0  0  0
    4.2171   -0.7466    1.2171 H   0  0  0  0  0  0  0  0  0  0  0  0
    3.9888   -1.1585    3.7033 H   0  0  0  0  0  0  0  0  0  0  0  0
    4.5407    1.3787    3.4952 H   0  0  0  0  0  0  0  0  0  0  0  0
    4.7741    0.0556    5.9962 H   0  0  0  0  0  0  0  0  0  0  0  0
    3.4200   -3.1707    5.0200 H   0  0  0  0  0  0  0  0  0  0  0  0
    2.5637   -2.7459    3.5717 H   0  0  0  0  0  0  0  0  0  0  0  0
    1.7255   -3.5880    4.8129 H   0  0  0  0  0  0  0  0  0  0  0  0
    2.3783   -3.0185    6.9967 H   0  0  0  0  0  0  0  0  0  0  0  0
    0.8279   -2.2831    7.1417 H   0  0  0  0  0  0  0  0  0  0  0  0
    2.2971   -1.4616    7.6307 H   0  0  0  0  0  0  0  0  0  0  0  0
   -1.5083    0.2092    5.2563 H   0  0  0  0  0  0  0  0  0  0  0  0
   -0.3262   -2.4909    5.3499 H   0  0  0  0  0  0  0  0  0  0  0  0
   -1.7797   -1.8062    4.7383 H   0  0  0  0  0  0  0  0  0  0  0  0
   -1.5554   -1.9622    6.4642 H   0  0  0  0  0  0  0  0  0  0  0  0
    0.3576    3.5184    2.8944 H   0  0  0  0  0  0  0  0  0  0  0  0
  1  2  1  0
  1 29  1  0
  1 30  1  0
  1 31  1  0
  2 28  1  0
  2  3  1  0
  2 32  1  6
  3  4  1  0
  3 33  1  0
  3 34  1  0
  4  5  1  0
  4 35  1  0
  4 36  1  0
  5 25  1  0
  5  6  1  0
  5 37  1  1
  6 26  1  0
  6  7  1  1
  6  8  1  0
  7 38  1  0
  7 39  1  0
  7 40  1  0
  8 19  1  0
  8  9  1  0
  8 41  1  1
  9 10  1  0
  9 42  1  0
  9 43  1  0
 10 28  1  0
 10 11  1  0
 10 44  1  1
 11 12  1  0
 13 12  1  1
 12 45  1  0
 12 46  1  0
 13 25  1  0
 13 14  1  0
 13 28  1  0
 14 15  1  0
 14 47  1  0
 14 48  1  0
 15 16  1  0
 15 17  1  0
 15 49  1  6
 16 50  1  0
 16 51  1  0
 16 52  1  0
 17 18  1  0
 17 19  1  0
 17 53  1  6
 18 54  1  0
 19 20  1  1
 19 21  1  0
 20 55  1  0
 21 22  1  0
 21 23  1  0
 21 24  1  0
 22 56  1  0
 22 57  1  0
 22 58  1  0
 23 59  1  0
 23 60  1  0
 23 61  1  0
 25 24  1  1
 25 26  1  0
 26 27  1  0
 26 62  1  1
 27 63  1  0
 27 64  1  0
 27 65  1  0
 28 66  1  6
M  END
>  <i_m_ct_stereo_status>  (271) 
1

>  <s_m_source_file>  (271) 
/var/tmp/pbs.5076255.sched01/tmpz7m1v8ep/860kfiy9lw.sdf

>  <i_m_source_file_index>  (271) 
36

>  <i_lp_mmshare_version>  (271) 
48012

>  <i_f3d_flags>  (271) 
0

>  <s_epik_input>  (271) 
W0NIMl0xW0NIMl1bQ0BASF0oW0NIM10pW0NASF0yW0NASF0oT1tDSDJdMylbQ0gyXVtDQEBIXShbQ0BAXShbQ0gzXSkoW0NASF0xW0NAQF00NVtDQEBdMjM2KVtDQEBIXTVbQ0gzXSlbQ0BdKFtPSF0pKEMoTzQpKFtDSDNdKVtDSDNdKVtDQEhdKFtPSF0pW0NAQEhdKFtDSDJdNilbQ0gzXQ==

>  <s_epik_cmdline>  (271) 
J2VwaWtfcHl0aG9uJywgJy1waHQnLCAnMi4wJywgJy1waCcsICc3LjAnLCAnLXRuJywgJzgnLCAnLW1hJywgJzIwMCcsICctaW1hZScsICc8aW5maWxlLm1hZT4nLCAnLW9tYWUnLCAnPG91dGZpbGUubWFlPic=

>  <r_lp_tautomer_probability>  (271) 
1

>  <r_epik_Ionization_Penalty>  (271) 
3.36217e-07

>  <r_epik_Ionization_Penalty_Charging>  (271) 
0

>  <r_epik_Ionization_Penalty_Neutral>  (271) 
3.36217e-07

>  <r_epik_State_Penalty>  (271) 
-0

>  <r_epik_Charging_Adjusted_Penalty>  (271) 
0

>  <i_epik_Tot_Q>  (271) 
0

>  <i_epik_Tot_abs_Q>  (271) 
0

>  <s_lp_Force_Field>  (271) 
OPLS3e

>  <r_lp_Energy>  (271) 
481.038

>  <b_lp_Chiralities_Consistent>  (271) 
1

>  <s_lp_Variant>  (271) 
81:0-1

>  <s_i_glide_gridfile>  (271) 
pfpi4k_grid

>  <i_i_glide_lignum>  (271) 
36

>  <i_i_glide_rotatable_bonds>  (271) 
2

>  <r_i_docking_score>  (271) 
-1.73795

>  <r_i_glide_ligand_efficiency>  (271) 
-0.0620696

>  <r_i_glide_ligand_efficiency_sa>  (271) 
-0.18848

>  <r_i_glide_ligand_efficiency_ln>  (271) 
-0.401169

>  <r_i_glide_gscore>  (271) 
-1.73795

>  <r_i_glide_lipo>  (271) 
-0.00347823

>  <r_i_glide_hbond>  (271) 
0

>  <r_i_glide_metal>  (271) 
-0

>  <r_i_glide_rewards>  (271) 
-0.746208

>  <r_i_glide_evdw>  (271) 
-17.3783

>  <r_i_glide_ecoul>  (271) 
-0.795652

>  <r_i_glide_erotb>  (271) 
0

>  <r_i_glide_esite>  (271) 
0

>  <r_i_glide_emodel>  (271) 
-19.757

>  <r_i_glide_energy>  (271) 
-18.1739

>  <r_i_glide_einternal>  (271) 
0.208139

>  <r_i_glide_intrahb_reward>  (271) 
-0

>  <i_i_glide_confnum>  (271) 
2

>  <i_i_glide_posenum>  (271) 
19

>  <r_i_glide_eff_state_penalty>  (271) 
0

>  <ligand_id>  (271) 
81

>  <original_smiles>  (271) 
CC1CCC2C3(C)C4CC5OCC6(CC(C)C(O)C4(O)C(C)(C)OC26C3C)C15

>  <smiles>  (271) 
[H]OC1([H])C([H])(C([H])([H])[H])C([H])([H])C23C([H])([H])OC4([H])C([H])([H])C5([H])C1(O[H])C(C([H])([H])[H])(C([H])([H])[H])OC21C([H])(C([H])([H])[H])C5(C([H])([H])[H])C1([H])C([H])([H])C([H])([H])C([H])(C([H])([H])[H])C43[H]

$$$$
81:0:2
     RDKit          3D

 66 71  0  0  1  0  0  0  0  0999 V2000
   -1.9212    4.0959    3.1434 C   0  0  0  0  0  0  0  0  0  0  0  0
   -1.2761    3.0423    4.0692 C   0  0  2  0  0  0  0  0  0  0  0  0
   -1.6983    3.3604    5.5124 C   0  0  0  0  0  0  0  0  0  0  0  0
   -1.4930    2.1791    6.4427 C   0  0  0  0  0  0  0  0  0  0  0  0
   -0.1102    1.5224    6.1236 C   0  0  1  0  0  0  0  0  0  0  0  0
    0.5359    0.4377    6.7099 C   0  0  2  0  0  0  0  0  0  0  0  0
    0.2296    0.3202    8.2143 C   0  0  0  0  0  0  0  0  0  0  0  0
    2.1947    0.8394    6.3707 C   0  0  2  0  0  0  0  0  0  0  0  0
    2.4352    2.4010    5.8485 C   0  0  0  0  0  0  0  0  0  0  0  0
    1.4359    3.3555    4.8654 C   0  0  1  0  0  0  0  0  0  0  0  0
    2.3075    3.6095    3.8592 O   0  0  0  0  0  0  0  0  0  0  0  0
    2.1908    2.3855    3.1955 C   0  0  0  0  0  0  0  0  0  0  0  0
    0.8534    1.4988    3.5206 C   0  0  1  0  0  0  0  0  0  0  0  0
    1.1138    0.5655    2.3384 C   0  0  0  0  0  0  0  0  0  0  0  0
    2.5209   -0.2102    2.5126 C   0  0  1  0  0  0  0  0  0  0  0  0
    3.3782   -0.0438    1.2410 C   0  0  0  0  0  0  0  0  0  0  0  0
    3.4722   -0.1900    3.8661 C   0  0  1  0  0  0  0  0  0  0  0  0
    4.7091    0.5058    3.7340 O   0  0  0  0  0  0  0  0  0  0  0  0
    2.9798   -0.2812    5.4222 C   0  0  1  0  0  0  0  0  0  0  0  0
    4.1620   -0.6262    6.1376 O   0  0  0  0  0  0  0  0  0  0  0  0
    2.0571   -1.4793    5.4265 C   0  0  0  0  0  0  0  0  0  0  0  0
    2.4733   -2.7853    4.6745 C   0  0  0  0  0  0  0  0  0  0  0  0
    1.8442   -2.0568    6.8791 C   0  0  0  0  0  0  0  0  0  0  0  0
    1.0094   -0.7947    4.6490 O   0  0  0  0  0  0  0  0  0  0  0  0
    0.4548    0.6067    4.7990 C   0  0  1  0  0  0  0  0  0  0  0  0
   -0.5617   -0.2118    5.5872 C   0  0  1  0  0  0  0  0  0  0  0  0
   -1.0566   -1.7072    5.5409 C   0  0  0  0  0  0  0  0  0  0  0  0
    0.2715    2.8866    3.7957 C   0  0  1  0  0  0  0  0  0  0  0  0
   -1.4996    5.0883    3.3191 H   0  0  0  0  0  0  0  0  0  0  0  0
   -2.9979    4.1440    3.2907 H   0  0  0  0  0  0  0  0  0  0  0  0
   -1.7750    3.8534    2.0887 H   0  0  0  0  0  0  0  0  0  0  0  0
   -1.7510    2.1017    3.7889 H   0  0  0  0  0  0  0  0  0  0  0  0
   -1.1440    4.2265    5.8761 H   0  0  0  0  0  0  0  0  0  0  0  0
   -2.7479    3.6471    5.5552 H   0  0  0  0  0  0  0  0  0  0  0  0
   -1.4864    2.5676    7.4624 H   0  0  0  0  0  0  0  0  0  0  0  0
   -2.3707    1.5356    6.4306 H   0  0  0  0  0  0  0  0  0  0  0  0
    0.4027    2.3020    6.6622 H   0  0  0  0  0  0  0  0  0  0  0  0
    0.6894   -0.5301    8.7062 H   0  0  0  0  0  0  0  0  0  0  0  0
   -0.8422    0.2157    8.3694 H   0  0  0  0  0  0  0  0  0  0  0  0
    0.5387    1.2139    8.7609 H   0  0  0  0  0  0  0  0  0  0  0  0
    2.7087    0.8158    7.3324 H   0  0  0  0  0  0  0  0  0  0  0  0
    2.4716    2.9761    6.7767 H   0  0  0  0  0  0  0  0  0  0  0  0
    3.4774    2.4730    5.5229 H   0  0  0  0  0  0  0  0  0  0  0  0
    1.2012    4.3108    5.3363 H   0  0  0  0  0  0  0  0  0  0  0  0
    2.2468    2.6678    2.1427 H   0  0  0  0  0  0  0  0  0  0  0  0
    3.1645    2.0450    3.3814 H   0  0  0  0  0  0  0  0  0  0  0  0
    0.3025   -0.1626    2.2755 H   0  0  0  0  0  0  0  0  0  0  0  0
    1.0557    1.0829    1.3792 H   0  0  0  0  0  0  0  0  0  0  0  0
    2.1778   -1.2300    2.3843 H   0  0  0  0  0  0  0  0  0  0  0  0
    3.7715    0.9645    1.1335 H   0  0  0  0  0  0  0  0  0  0  0  0
    2.7891   -0.2637    0.3498 H   0  0  0  0  0  0  0  0  0  0  0  0
    4.2281   -0.7283    1.2428 H   0  0  0  0  0  0  0  0  0  0  0  0
    3.9872   -1.1368    3.7291 H   0  0  0  0  0  0  0  0  0  0  0  0
    4.5266    1.4074    3.5227 H   0  0  0  0  0  0  0  0  0  0  0  0
    3.9107   -0.8766    7.0101 H   0  0  0  0  0  0  0  0  0  0  0  0
    3.4301   -3.1504    5.0523 H   0  0  0  0  0  0  0  0  0  0  0  0
    2.5793   -2.7352    3.6003 H   0  0  0  0  0  0  0  0  0  0  0  0
    1.7404   -3.5774    4.8382 H   0  0  0  0  0  0  0  0  0  0  0  0
    2.3705   -2.9966    7.0273 H   0  0  0  0  0  0  0  0  0  0  0  0
    0.8173   -2.2717    7.1509 H   0  0  0  0  0  0  0  0  0  0  0  0
    2.2674   -1.4347    7.6585 H   0  0  0  0  0  0  0  0  0  0  0  0
   -1.5291    0.1964    5.2565 H   0  0  0  0  0  0  0  0  0  0  0  0
   -0.3278   -2.4924    5.3600 H   0  0  0  0  0  0  0  0  0  0  0  0
   -1.7810   -1.8215    4.7373 H   0  0  0  0  0  0  0  0  0  0  0  0
   -1.5691   -1.9680    6.4653 H   0  0  0  0  0  0  0  0  0  0  0  0
    0.3314    3.5135    2.8881 H   0  0  0  0  0  0  0  0  0  0  0  0
  1  2  1  0
  1 29  1  0
  1 30  1  0
  1 31  1  0
  2 28  1  0
  2  3  1  0
  2 32  1  6
  3  4  1  0
  3 33  1  0
  3 34  1  0
  4  5  1  0
  4 35  1  0
  4 36  1  0
  5 25  1  0
  5  6  1  0
  5 37  1  1
  6 26  1  0
  6  7  1  1
  6  8  1  0
  7 38  1  0
  7 39  1  0
  7 40  1  0
  8 19  1  0
  8  9  1  0
  8 41  1  1
  9 10  1  0
  9 42  1  0
  9 43  1  0
 10 28  1  0
 10 11  1  0
 10 44  1  1
 11 12  1  0
 13 12  1  1
 12 45  1  0
 12 46  1  0
 13 25  1  0
 13 14  1  0
 13 28  1  0
 14 15  1  0
 14 47  1  0
 14 48  1  0
 15 16  1  0
 15 17  1  0
 15 49  1  6
 16 50  1  0
 16 51  1  0
 16 52  1  0
 17 18  1  0
 17 19  1  0
 17 53  1  6
 18 54  1  0
 19 20  1  1
 19 21  1  0
 20 55  1  0
 21 22  1  0
 21 23  1  0
 21 24  1  0
 22 56  1  0
 22 57  1  0
 22 58  1  0
 23 59  1  0
 23 60  1  0
 23 61  1  0
 25 24  1  1
 25 26  1  0
 26 27  1  0
 26 62  1  1
 27 63  1  0
 27 64  1  0
 27 65  1  0
 28 66  1  6
M  END
>  <i_m_ct_stereo_status>  (272) 
1

>  <s_m_source_file>  (272) 
/var/tmp/pbs.5076255.sched01/tmpz7m1v8ep/860kfiy9lw.sdf

>  <i_m_source_file_index>  (272) 
36

>  <i_lp_mmshare_version>  (272) 
48012

>  <i_f3d_flags>  (272) 
0

>  <s_epik_input>  (272) 
W0NIMl0xW0NIMl1bQ0BASF0oW0NIM10pW0NASF0yW0NASF0oT1tDSDJdMylbQ0gyXVtDQEBIXShbQ0BAXShbQ0gzXSkoW0NASF0xW0NAQF00NVtDQEBdMjM2KVtDQEBIXTVbQ0gzXSlbQ0BdKFtPSF0pKEMoTzQpKFtDSDNdKVtDSDNdKVtDQEhdKFtPSF0pW0NAQEhdKFtDSDJdNilbQ0gzXQ==

>  <s_epik_cmdline>  (272) 
J2VwaWtfcHl0aG9uJywgJy1waHQnLCAnMi4wJywgJy1waCcsICc3LjAnLCAnLXRuJywgJzgnLCAnLW1hJywgJzIwMCcsICctaW1hZScsICc8aW5maWxlLm1hZT4nLCAnLW9tYWUnLCAnPG91dGZpbGUubWFlPic=

>  <r_lp_tautomer_probability>  (272) 
1

>  <r_epik_Ionization_Penalty>  (272) 
3.36217e-07

>  <r_epik_Ionization_Penalty_Charging>  (272) 
0

>  <r_epik_Ionization_Penalty_Neutral>  (272) 
3.36217e-07

>  <r_epik_State_Penalty>  (272) 
-0

>  <r_epik_Charging_Adjusted_Penalty>  (272) 
0

>  <i_epik_Tot_Q>  (272) 
0

>  <i_epik_Tot_abs_Q>  (272) 
0

>  <s_lp_Force_Field>  (272) 
OPLS3e

>  <r_lp_Energy>  (272) 
481.038

>  <b_lp_Chiralities_Consistent>  (272) 
1

>  <s_lp_Variant>  (272) 
81:0-1

>  <s_i_glide_gridfile>  (272) 
pfpi4k_grid

>  <i_i_glide_lignum>  (272) 
36

>  <i_i_glide_rotatable_bonds>  (272) 
2

>  <r_i_docking_score>  (272) 
-1.72928

>  <r_i_glide_ligand_efficiency>  (272) 
-0.0617599

>  <r_i_glide_ligand_efficiency_sa>  (272) 
-0.187539

>  <r_i_glide_ligand_efficiency_ln>  (272) 
-0.399168

>  <r_i_glide_gscore>  (272) 
-1.72928

>  <r_i_glide_lipo>  (272) 
-0.00307446

>  <r_i_glide_hbond>  (272) 
0

>  <r_i_glide_metal>  (272) 
-0

>  <r_i_glide_rewards>  (272) 
-0.746208

>  <r_i_glide_evdw>  (272) 
-17.3626

>  <r_i_glide_ecoul>  (272) 
-0.745759

>  <r_i_glide_erotb>  (272) 
0

>  <r_i_glide_esite>  (272) 
0

>  <r_i_glide_emodel>  (272) 
-19.7335

>  <r_i_glide_energy>  (272) 
-18.1084

>  <r_i_glide_einternal>  (272) 
0.267619

>  <r_i_glide_intrahb_reward>  (272) 
-0

>  <i_i_glide_confnum>  (272) 
2

>  <i_i_glide_posenum>  (272) 
16

>  <r_i_glide_eff_state_penalty>  (272) 
0

>  <ligand_id>  (272) 
81

>  <original_smiles>  (272) 
CC1CCC2C3(C)C4CC5OCC6(CC(C)C(O)C4(O)C(C)(C)OC26C3C)C15

>  <smiles>  (272) 
[H]OC1([H])C([H])(C([H])([H])[H])C([H])([H])C23C([H])([H])OC4([H])C([H])([H])C5([H])C1(O[H])C(C([H])([H])[H])(C([H])([H])[H])OC21C([H])(C([H])([H])[H])C5(C([H])([H])[H])C1([H])C([H])([H])C([H])([H])C([H])(C([H])([H])[H])C43[H]

$$$$
82:0:0
     RDKit          3D

 27 30  0  0  1  0  0  0  0  0999 V2000
    7.2085   -2.1545   -1.1555 O   0  0  0  0  0  0  0  0  0  0  0  0
    6.2986   -3.1117   -0.9619 C   0  0  2  0  0  0  0  0  0  0  0  0
    5.3082   -3.2234   -2.1541 C   0  0  2  0  0  0  0  0  0  0  0  0
    4.4632   -2.0709   -2.8695 C   0  0  2  0  0  0  0  0  0  0  0  0
    4.0755   -0.7666   -2.1282 C   0  0  0  0  0  0  0  0  0  0  0  0
    4.1783   -1.0949   -0.6157 C   0  0  1  0  0  0  0  0  0  0  0  0
    4.7572   -0.4417    0.6426 C   0  0  0  0  0  0  0  0  0  0  0  0
    5.7337   -1.5698    1.1213 C   0  0  0  0  0  0  0  0  0  0  0  0
    5.4778   -2.7793    0.2697 N   0  0  1  0  0  0  0  0  0  0  0  0
    4.1044   -2.6002   -0.2501 C   0  0  2  0  0  0  0  0  0  0  0  0
    4.0013   -3.5041   -1.4650 C   0  0  1  0  0  0  0  0  0  0  0  0
    3.3039   -3.0617   -2.7523 C   0  0  0  0  0  0  0  0  0  0  0  0
    6.6370   -4.1168   -0.7384 H   0  0  0  0  0  0  0  0  0  0  0  0
    5.5931   -3.9982   -2.8676 H   0  0  0  0  0  0  0  0  0  0  0  0
    4.7471   -1.9201   -3.9123 H   0  0  0  0  0  0  0  0  0  0  0  0
    4.6643    0.0955   -2.4722 H   0  0  0  0  0  0  0  0  0  0  0  0
    3.0418   -0.5105   -2.3745 H   0  0  0  0  0  0  0  0  0  0  0  0
    5.1875   -0.8985   -0.9547 H   0  0  0  0  0  0  0  0  0  0  0  0
    5.2494    0.5222    0.4931 H   0  0  0  0  0  0  0  0  0  0  0  0
    3.9675   -0.2891    1.3805 H   0  0  0  0  0  0  0  0  0  0  0  0
    6.7787   -1.2484    1.1323 H   0  0  0  0  0  0  0  0  0  0  0  0
    5.4782   -1.8410    2.1443 H   0  0  0  0  0  0  0  0  0  0  0  0
    3.3558   -2.8195    0.5122 H   0  0  0  0  0  0  0  0  0  0  0  0
    3.8652   -4.5586   -1.2189 H   0  0  0  0  0  0  0  0  0  0  0  0
    2.3170   -2.6231   -2.5744 H   0  0  0  0  0  0  0  0  0  0  0  0
    3.2728   -3.8346   -3.5228 H   0  0  0  0  0  0  0  0  0  0  0  0
    5.5083   -3.6192    0.8546 H   0  0  0  0  0  0  0  0  0  0  0  0
  1  2  1  0
  2  9  1  0
  2  3  1  0
  2 13  1  1
  3 11  1  0
  3  4  1  0
  3 14  1  6
  4 12  1  0
  4  5  1  0
  4 15  1  6
  5  6  1  0
  5 16  1  0
  5 17  1  0
  6 10  1  0
  6  7  1  0
  6 18  1  1
  7  8  1  0
  7 19  1  0
  7 20  1  0
  8  9  1  0
  8 21  1  0
  8 22  1  0
  9 10  1  0
  9 27  1  1
 10 11  1  0
 10 23  1  1
 11 12  1  0
 11 24  1  1
 12 25  1  0
 12 26  1  0
M  CHG  2   1  -1   9   1
M  END
>  <i_m_ct_stereo_status>  (273) 
1

>  <s_m_source_file>  (273) 
/var/tmp/pbs.5076255.sched01/tmpz7m1v8ep/860kfiy9lw.sdf

>  <i_m_source_file_index>  (273) 
37

>  <i_lp_mmshare_version>  (273) 
48012

>  <i_f3d_flags>  (273) 
0

>  <s_epik_input>  (273) 
W09IXVtDQEhdMU4oW0NIMl1bQ0gyXTIpW0NASF0oW0NASF0zW0NIMl00KVtDQEhdMltDSDJdW0NASF00W0NAQEhdMTM=

>  <s_epik_cmdline>  (273) 
J2VwaWtfcHl0aG9uJywgJy1waHQnLCAnMi4wJywgJy1waCcsICc3LjAnLCAnLXRuJywgJzgnLCAnLW1hJywgJzIwMCcsICctaW1hZScsICc8aW5maWxlLm1hZT4nLCAnLW9tYWUnLCAnPG91dGZpbGUubWFlPic=

>  <r_epik_Ionization_Penalty>  (273) 
0.399671

>  <r_epik_Ionization_Penalty_Charging>  (273) 
0.399671

>  <r_epik_Ionization_Penalty_Neutral>  (273) 
0

>  <r_epik_State_Penalty>  (273) 
0.399477

>  <r_epik_Charging_Adjusted_Penalty>  (273) 
0.799148

>  <i_epik_Tot_Q>  (273) 
0

>  <i_epik_Tot_abs_Q>  (273) 
2

>  <s_epik_Chemistry_Notes>  (273) 
This compound contains an acetal/aminal-like group ( X-CH(R)-Y where X, Y are N, S, or O) that may be acid/base labile, releasing an aldehyde.

>  <s_lp_Force_Field>  (273) 
OPLS3e

>  <r_lp_Energy>  (273) 
107.396

>  <b_lp_Chiralities_Consistent>  (273) 
1

>  <s_lp_Variant>  (273) 
82:0-1

>  <s_i_glide_gridfile>  (273) 
pfpi4k_grid

>  <i_i_glide_lignum>  (273) 
37

>  <i_i_glide_rotatable_bonds>  (273) 
0

>  <r_i_docking_score>  (273) 
-4.71342

>  <r_i_glide_ligand_efficiency>  (273) 
-0.392785

>  <r_i_glide_ligand_efficiency_sa>  (273) 
-0.899253

>  <r_i_glide_ligand_efficiency_ln>  (273) 
-1.35252

>  <r_i_glide_gscore>  (273) 
-4.71342

>  <r_i_glide_lipo>  (273) 
-0.523022

>  <r_i_glide_hbond>  (273) 
-0.2

>  <r_i_glide_metal>  (273) 
-0

>  <r_i_glide_rewards>  (273) 
-2.33977

>  <r_i_glide_evdw>  (273) 
-15.7855

>  <r_i_glide_ecoul>  (273) 
-5.74236

>  <r_i_glide_erotb>  (273) 
0

>  <r_i_glide_esite>  (273) 
0

>  <r_i_glide_emodel>  (273) 
-30.4481

>  <r_i_glide_energy>  (273) 
-21.5279

>  <r_i_glide_einternal>  (273) 
0

>  <r_i_glide_intrahb_reward>  (273) 
-0

>  <i_i_glide_confnum>  (273) 
1

>  <i_i_glide_posenum>  (273) 
1

>  <r_i_glide_eff_state_penalty>  (273) 
0

>  <ligand_id>  (273) 
82

>  <original_smiles>  (273) 
OC1C2C3CC4CCN1C4C2C3

>  <smiles>  (273) 
[H]C1([H])C2([H])C([H])([H])C3([H])C2([H])C([H])([O-])[N+]2([H])C([H])([H])C([H])([H])C1([H])C32[H]

$$$$
82:0:1
     RDKit          3D

 27 30  0  0  1  0  0  0  0  0999 V2000
    4.4911   -2.6181   -3.1693 O   0  0  0  0  0  0  0  0  0  0  0  0
    4.1101   -1.6389   -2.3979 C   0  0  2  0  0  0  0  0  0  0  0  0
    5.3064   -1.1233   -1.5249 C   0  0  2  0  0  0  0  0  0  0  0  0
    6.3113   -1.9655   -0.6008 C   0  0  2  0  0  0  0  0  0  0  0  0
    5.9042   -3.3215    0.0336 C   0  0  0  0  0  0  0  0  0  0  0  0
    4.3569   -3.3223    0.0245 C   0  0  1  0  0  0  0  0  0  0  0  0
    3.2499   -4.3010   -0.3384 C   0  0  0  0  0  0  0  0  0  0  0  0
    2.4672   -3.4636   -1.4191 C   0  0  0  0  0  0  0  0  0  0  0  0
    3.0398   -2.0713   -1.4040 N   0  0  1  0  0  0  0  0  0  0  0  0
    3.6700   -1.9392   -0.0808 C   0  0  2  0  0  0  0  0  0  0  0  0
    4.6587   -0.7908   -0.2091 C   0  0  1  0  0  0  0  0  0  0  0  0
    6.0507   -0.8457    0.4107 C   0  0  0  0  0  0  0  0  0  0  0  0
    3.6588   -0.7428   -2.8399 H   0  0  0  0  0  0  0  0  0  0  0  0
    5.8064   -0.2709   -1.9859 H   0  0  0  0  0  0  0  0  0  0  0  0
    7.3382   -1.9417   -0.9687 H   0  0  0  0  0  0  0  0  0  0  0  0
    6.3873   -4.1655   -0.4791 H   0  0  0  0  0  0  0  0  0  0  0  0
    6.2767   -3.3682    1.0590 H   0  0  0  0  0  0  0  0  0  0  0  0
    4.6675   -3.5878   -0.9827 H   0  0  0  0  0  0  0  0  0  0  0  0
    3.6175   -5.2653   -0.7085 H   0  0  0  0  0  0  0  0  0  0  0  0
    2.6173   -4.4907    0.5253 H   0  0  0  0  0  0  0  0  0  0  0  0
    2.4602   -3.8916   -2.4189 H   0  0  0  0  0  0  0  0  0  0  0  0
    1.4269   -3.3744   -1.1068 H   0  0  0  0  0  0  0  0  0  0  0  0
    2.9222   -1.7675    0.6937 H   0  0  0  0  0  0  0  0  0  0  0  0
    4.2000    0.1986   -0.1789 H   0  0  0  0  0  0  0  0  0  0  0  0
    6.0442   -1.1541    1.4585 H   0  0  0  0  0  0  0  0  0  0  0  0
    6.6133    0.0720    0.2541 H   0  0  0  0  0  0  0  0  0  0  0  0
    2.2572   -1.4227   -1.4630 H   0  0  0  0  0  0  0  0  0  0  0  0
  1  2  1  0
  2  9  1  0
  2  3  1  0
  2 13  1  6
  3 11  1  0
  3  4  1  0
  3 14  1  6
  4 12  1  0
  4  5  1  0
  4 15  1  6
  5  6  1  0
  5 16  1  0
  5 17  1  0
  6 10  1  0
  6  7  1  0
  6 18  1  1
  7  8  1  0
  7 19  1  0
  7 20  1  0
  8  9  1  0
  8 21  1  0
  8 22  1  0
  9 10  1  0
  9 27  1  1
 10 11  1  0
 10 23  1  1
 11 12  1  0
 11 24  1  6
 12 25  1  0
 12 26  1  0
M  CHG  2   1  -1   9   1
M  END
>  <i_m_ct_stereo_status>  (274) 
1

>  <s_m_source_file>  (274) 
/var/tmp/pbs.5076255.sched01/tmpz7m1v8ep/860kfiy9lw.sdf

>  <i_m_source_file_index>  (274) 
37

>  <i_lp_mmshare_version>  (274) 
48012

>  <i_f3d_flags>  (274) 
0

>  <s_epik_input>  (274) 
W09IXVtDQEhdMU4oW0NIMl1bQ0gyXTIpW0NASF0oW0NASF0zW0NIMl00KVtDQEhdMltDSDJdW0NASF00W0NAQEhdMTM=

>  <s_epik_cmdline>  (274) 
J2VwaWtfcHl0aG9uJywgJy1waHQnLCAnMi4wJywgJy1waCcsICc3LjAnLCAnLXRuJywgJzgnLCAnLW1hJywgJzIwMCcsICctaW1hZScsICc8aW5maWxlLm1hZT4nLCAnLW9tYWUnLCAnPG91dGZpbGUubWFlPic=

>  <r_epik_Ionization_Penalty>  (274) 
0.399671

>  <r_epik_Ionization_Penalty_Charging>  (274) 
0.399671

>  <r_epik_Ionization_Penalty_Neutral>  (274) 
0

>  <r_epik_State_Penalty>  (274) 
0.399477

>  <r_epik_Charging_Adjusted_Penalty>  (274) 
0.799148

>  <i_epik_Tot_Q>  (274) 
0

>  <i_epik_Tot_abs_Q>  (274) 
2

>  <s_epik_Chemistry_Notes>  (274) 
This compound contains an acetal/aminal-like group ( X-CH(R)-Y where X, Y are N, S, or O) that may be acid/base labile, releasing an aldehyde.

>  <s_lp_Force_Field>  (274) 
OPLS3e

>  <r_lp_Energy>  (274) 
107.396

>  <b_lp_Chiralities_Consistent>  (274) 
1

>  <s_lp_Variant>  (274) 
82:0-1

>  <s_i_glide_gridfile>  (274) 
pfpi4k_grid

>  <i_i_glide_lignum>  (274) 
37

>  <i_i_glide_rotatable_bonds>  (274) 
0

>  <r_i_docking_score>  (274) 
-4.52458

>  <r_i_glide_ligand_efficiency>  (274) 
-0.377049

>  <r_i_glide_ligand_efficiency_sa>  (274) 
-0.863226

>  <r_i_glide_ligand_efficiency_ln>  (274) 
-1.29834

>  <r_i_glide_gscore>  (274) 
-4.52458

>  <r_i_glide_lipo>  (274) 
-0.296665

>  <r_i_glide_hbond>  (274) 
-0.184198

>  <r_i_glide_metal>  (274) 
-0

>  <r_i_glide_rewards>  (274) 
-2.55

>  <r_i_glide_evdw>  (274) 
-12.5512

>  <r_i_glide_ecoul>  (274) 
-5.01353

>  <r_i_glide_erotb>  (274) 
0

>  <r_i_glide_esite>  (274) 
-0.114133

>  <r_i_glide_emodel>  (274) 
-26.1185

>  <r_i_glide_energy>  (274) 
-17.5647

>  <r_i_glide_einternal>  (274) 
0

>  <r_i_glide_intrahb_reward>  (274) 
-0

>  <i_i_glide_confnum>  (274) 
2

>  <i_i_glide_posenum>  (274) 
37

>  <r_i_glide_eff_state_penalty>  (274) 
0

>  <ligand_id>  (274) 
82

>  <original_smiles>  (274) 
OC1C2C3CC4CCN1C4C2C3

>  <smiles>  (274) 
[H]C1([H])C2([H])C([H])([H])C3([H])C2([H])C([H])([O-])[N+]2([H])C([H])([H])C([H])([H])C1([H])C32[H]

$$$$
82:0:2
     RDKit          3D

 27 30  0  0  1  0  0  0  0  0999 V2000
    4.3279   -0.6199   -3.2778 O   0  0  0  0  0  0  0  0  0  0  0  0
    3.5925   -1.1144   -2.3047 C   0  0  2  0  0  0  0  0  0  0  0  0
    4.3551   -1.1136   -0.9374 C   0  0  2  0  0  0  0  0  0  0  0  0
    5.8148   -1.6838   -0.5890 C   0  0  2  0  0  0  0  0  0  0  0  0
    6.4693   -2.8052   -1.4342 C   0  0  0  0  0  0  0  0  0  0  0  0
    5.2888   -3.4928   -2.1638 C   0  0  1  0  0  0  0  0  0  0  0  0
    4.9908   -3.9771   -3.5771 C   0  0  0  0  0  0  0  0  0  0  0  0
    3.6550   -3.2080   -3.8674 C   0  0  0  0  0  0  0  0  0  0  0  0
    3.2276   -2.5467   -2.5939 N   0  0  1  0  0  0  0  0  0  0  0  0
    3.8883   -3.3170   -1.5227 C   0  0  2  0  0  0  0  0  0  0  0  0
    3.9014   -2.4073   -0.3016 C   0  0  1  0  0  0  0  0  0  0  0  0
    5.1104   -2.3009    0.6242 C   0  0  0  0  0  0  0  0  0  0  0  0
    2.6278   -0.6826   -2.0921 H   0  0  0  0  0  0  0  0  0  0  0  0
    4.1255   -0.2367   -0.3132 H   0  0  0  0  0  0  0  0  0  0  0  0
    6.5023   -0.8945   -0.2751 H   0  0  0  0  0  0  0  0  0  0  0  0
    7.2638   -2.4236   -2.0907 H   0  0  0  0  0  0  0  0  0  0  0  0
    6.9697   -3.5167   -0.7781 H   0  0  0  0  0  0  0  0  0  0  0  0
    5.4978   -2.5962   -2.7261 H   0  0  0  0  0  0  0  0  0  0  0  0
    5.7897   -3.8019   -4.3054 H   0  0  0  0  0  0  0  0  0  0  0  0
    4.7797   -5.0456   -3.5555 H   0  0  0  0  0  0  0  0  0  0  0  0
    3.7439   -2.5245   -4.7234 H   0  0  0  0  0  0  0  0  0  0  0  0
    2.8768   -3.9337   -4.1303 H   0  0  0  0  0  0  0  0  0  0  0  0
    3.3694   -4.2643   -1.3375 H   0  0  0  0  0  0  0  0  0  0  0  0
    2.9366   -2.3138    0.2122 H   0  0  0  0  0  0  0  0  0  0  0  0
    5.4940   -3.2747    0.9285 H   0  0  0  0  0  0  0  0  0  0  0  0
    4.9660   -1.6287    1.4676 H   0  0  0  0  0  0  0  0  0  0  0  0
    2.2205   -2.5971   -2.4968 H   0  0  0  0  0  0  0  0  0  0  0  0
  1  2  1  0
  2  9  1  0
  2  3  1  0
  2 13  1  1
  3 11  1  0
  3  4  1  0
  3 14  1  1
  4 12  1  0
  4  5  1  0
  4 15  1  1
  5  6  1  0
  5 16  1  0
  5 17  1  0
  6 10  1  0
  6  7  1  0
  6 18  1  1
  7  8  1  0
  7 19  1  0
  7 20  1  0
  8  9  1  0
  8 21  1  0
  8 22  1  0
  9 10  1  0
  9 27  1  1
 10 11  1  0
 10 23  1  1
 11 12  1  0
 11 24  1  1
 12 25  1  0
 12 26  1  0
M  CHG  2   1  -1   9   1
M  END
>  <i_m_ct_stereo_status>  (275) 
1

>  <s_m_source_file>  (275) 
/var/tmp/pbs.5076255.sched01/tmpz7m1v8ep/860kfiy9lw.sdf

>  <i_m_source_file_index>  (275) 
37

>  <i_lp_mmshare_version>  (275) 
48012

>  <i_f3d_flags>  (275) 
0

>  <s_epik_input>  (275) 
W09IXVtDQEhdMU4oW0NIMl1bQ0gyXTIpW0NASF0oW0NASF0zW0NIMl00KVtDQEhdMltDSDJdW0NASF00W0NAQEhdMTM=

>  <s_epik_cmdline>  (275) 
J2VwaWtfcHl0aG9uJywgJy1waHQnLCAnMi4wJywgJy1waCcsICc3LjAnLCAnLXRuJywgJzgnLCAnLW1hJywgJzIwMCcsICctaW1hZScsICc8aW5maWxlLm1hZT4nLCAnLW9tYWUnLCAnPG91dGZpbGUubWFlPic=

>  <r_epik_Ionization_Penalty>  (275) 
0.399671

>  <r_epik_Ionization_Penalty_Charging>  (275) 
0.399671

>  <r_epik_Ionization_Penalty_Neutral>  (275) 
0

>  <r_epik_State_Penalty>  (275) 
0.399477

>  <r_epik_Charging_Adjusted_Penalty>  (275) 
0.799148

>  <i_epik_Tot_Q>  (275) 
0

>  <i_epik_Tot_abs_Q>  (275) 
2

>  <s_epik_Chemistry_Notes>  (275) 
This compound contains an acetal/aminal-like group ( X-CH(R)-Y where X, Y are N, S, or O) that may be acid/base labile, releasing an aldehyde.

>  <s_lp_Force_Field>  (275) 
OPLS3e

>  <r_lp_Energy>  (275) 
107.396

>  <b_lp_Chiralities_Consistent>  (275) 
1

>  <s_lp_Variant>  (275) 
82:0-1

>  <s_i_glide_gridfile>  (275) 
pfpi4k_grid

>  <i_i_glide_lignum>  (275) 
37

>  <i_i_glide_rotatable_bonds>  (275) 
0

>  <r_i_docking_score>  (275) 
-3.87718

>  <r_i_glide_ligand_efficiency>  (275) 
-0.323099

>  <r_i_glide_ligand_efficiency_sa>  (275) 
-0.739711

>  <r_i_glide_ligand_efficiency_ln>  (275) 
-1.11256

>  <r_i_glide_gscore>  (275) 
-3.87718

>  <r_i_glide_lipo>  (275) 
-0.280689

>  <r_i_glide_hbond>  (275) 
0

>  <r_i_glide_metal>  (275) 
-0

>  <r_i_glide_rewards>  (275) 
-2.25

>  <r_i_glide_evdw>  (275) 
-16.362

>  <r_i_glide_ecoul>  (275) 
-2.94608

>  <r_i_glide_erotb>  (275) 
0

>  <r_i_glide_esite>  (275) 
-0.086485

>  <r_i_glide_emodel>  (275) 
-26.6279

>  <r_i_glide_energy>  (275) 
-19.3081

>  <r_i_glide_einternal>  (275) 
0

>  <r_i_glide_intrahb_reward>  (275) 
-0

>  <i_i_glide_confnum>  (275) 
2

>  <i_i_glide_posenum>  (275) 
39

>  <r_i_glide_eff_state_penalty>  (275) 
0

>  <ligand_id>  (275) 
82

>  <original_smiles>  (275) 
OC1C2C3CC4CCN1C4C2C3

>  <smiles>  (275) 
[H]C1([H])C2([H])C([H])([H])C3([H])C2([H])C([H])([O-])[N+]2([H])C([H])([H])C([H])([H])C1([H])C32[H]

$$$$
82:1:0
     RDKit          3D

 28 31  0  0  1  0  0  0  0  0999 V2000
    5.3817   -0.6597   -1.4121 O   0  0  0  0  0  0  0  0  0  0  0  0
    4.3225   -1.2696   -0.6900 C   0  0  2  0  0  0  0  0  0  0  0  0
    4.6564   -2.6521   -0.0257 C   0  0  2  0  0  0  0  0  0  0  0  0
    5.2780   -3.9600   -0.6922 C   0  0  2  0  0  0  0  0  0  0  0  0
    5.2155   -4.1750   -2.2227 C   0  0  0  0  0  0  0  0  0  0  0  0
    4.0485   -3.3211   -2.6970 C   0  0  1  0  0  0  0  0  0  0  0  0
    3.7215   -2.4691   -3.9020 C   0  0  0  0  0  0  0  0  0  0  0  0
    3.2971   -1.1628   -3.1443 C   0  0  0  0  0  0  0  0  0  0  0  0
    3.1781   -1.4902   -1.6717 N   0  0  1  0  0  0  0  0  0  0  0  0
    2.9855   -2.9444   -1.6441 C   0  0  2  0  0  0  0  0  0  0  0  0
    3.3599   -3.3873   -0.2266 C   0  0  1  0  0  0  0  0  0  0  0  0
    4.1223   -4.6877    0.0104 C   0  0  0  0  0  0  0  0  0  0  0  0
    5.3923    0.2637   -1.1834 H   0  0  0  0  0  0  0  0  0  0  0  0
    4.0029   -0.5607    0.0695 H   0  0  0  0  0  0  0  0  0  0  0  0
    4.9547   -2.5972    1.0274 H   0  0  0  0  0  0  0  0  0  0  0  0
    6.2130   -4.2783   -0.2361 H   0  0  0  0  0  0  0  0  0  0  0  0
    6.1815   -3.9596   -2.7136 H   0  0  0  0  0  0  0  0  0  0  0  0
    5.0167   -5.2105   -2.4599 H   0  0  0  0  0  0  0  0  0  0  0  0
    4.8809   -2.6262   -2.6338 H   0  0  0  0  0  0  0  0  0  0  0  0
    4.5464   -2.3288   -4.6090 H   0  0  0  0  0  0  0  0  0  0  0  0
    2.8680   -2.9268   -4.4149 H   0  0  0  0  0  0  0  0  0  0  0  0
    3.9366   -0.3102   -3.3807 H   0  0  0  0  0  0  0  0  0  0  0  0
    2.2962   -0.9066   -3.4854 H   0  0  0  0  0  0  0  0  0  0  0  0
    1.9762   -3.2459   -1.9402 H   0  0  0  0  0  0  0  0  0  0  0  0
    2.6231   -3.1590    0.5497 H   0  0  0  0  0  0  0  0  0  0  0  0
    3.6991   -5.5324   -0.5367 H   0  0  0  0  0  0  0  0  0  0  0  0
    4.2857   -4.9211    1.0666 H   0  0  0  0  0  0  0  0  0  0  0  0
    2.3239   -1.0839   -1.2801 H   0  0  0  0  0  0  0  0  0  0  0  0
  1  2  1  0
  1 13  1  0
  2  9  1  0
  2  3  1  0
  2 14  1  1
  3 11  1  0
  3  4  1  0
  3 15  1  1
  4 12  1  0
  4  5  1  0
  4 16  1  1
  5  6  1  0
  5 17  1  0
  5 18  1  0
  6 10  1  0
  6  7  1  0
  6 19  1  6
  7  8  1  0
  7 20  1  0
  7 21  1  0
  8  9  1  0
  8 22  1  0
  8 23  1  0
  9 10  1  0
  9 28  1  1
 10 11  1  0
 10 24  1  6
 11 12  1  0
 11 25  1  1
 12 26  1  0
 12 27  1  0
M  CHG  1   9   1
M  END
>  <i_m_ct_stereo_status>  (276) 
1

>  <s_m_source_file>  (276) 
/var/tmp/pbs.5076255.sched01/tmpz7m1v8ep/860kfiy9lw.sdf

>  <i_m_source_file_index>  (276) 
38

>  <i_lp_mmshare_version>  (276) 
48012

>  <i_f3d_flags>  (276) 
0

>  <s_epik_input>  (276) 
W09IXVtDQEhdMU4oW0NIMl1bQ0gyXTIpW0NASF0oW0NASF0zW0NIMl00KVtDQEhdMltDSDJdW0NASF00W0NAQEhdMTM=

>  <s_epik_cmdline>  (276) 
J2VwaWtfcHl0aG9uJywgJy1waHQnLCAnMi4wJywgJy1waCcsICc3LjAnLCAnLXRuJywgJzgnLCAnLW1hJywgJzIwMCcsICctaW1hZScsICc8aW5maWxlLm1hZT4nLCAnLW9tYWUnLCAnPG91dGZpbGUubWFlPic=

>  <r_epik_Ionization_Penalty>  (276) 
0.423523

>  <r_epik_Ionization_Penalty_Charging>  (276) 
0.00162586

>  <r_epik_Ionization_Penalty_Neutral>  (276) 
0.421897

>  <r_epik_State_Penalty>  (276) 
0.423194

>  <r_epik_Charging_Adjusted_Penalty>  (276) 
0.42482

>  <i_epik_Tot_Q>  (276) 
1

>  <i_epik_Tot_abs_Q>  (276) 
1

>  <s_epik_Chemistry_Notes>  (276) 
This compound contains an acetal/aminal-like group ( X-CH(R)-Y where X, Y are N, S, or O) that may be acid/base labile, releasing an aldehyde.

>  <s_lp_Force_Field>  (276) 
OPLS3e

>  <r_lp_Energy>  (276) 
100.075

>  <b_lp_Chiralities_Consistent>  (276) 
1

>  <s_lp_Variant>  (276) 
82:0-2

>  <s_i_glide_gridfile>  (276) 
pfpi4k_grid

>  <i_i_glide_lignum>  (276) 
38

>  <i_i_glide_rotatable_bonds>  (276) 
1

>  <r_i_docking_score>  (276) 
-5.14925

>  <r_i_glide_ligand_efficiency>  (276) 
-0.429104

>  <r_i_glide_ligand_efficiency_sa>  (276) 
-0.982403

>  <r_i_glide_ligand_efficiency_ln>  (276) 
-1.47759

>  <r_i_glide_gscore>  (276) 
-5.14925

>  <r_i_glide_lipo>  (276) 
-0.189616

>  <r_i_glide_hbond>  (276) 
-0.524827

>  <r_i_glide_metal>  (276) 
-0

>  <r_i_glide_rewards>  (276) 
-2.25

>  <r_i_glide_evdw>  (276) 
-11.264

>  <r_i_glide_ecoul>  (276) 
-9.86209

>  <r_i_glide_erotb>  (276) 
0

>  <r_i_glide_esite>  (276) 
-0.142289

>  <r_i_glide_emodel>  (276) 
-29.9798

>  <r_i_glide_energy>  (276) 
-21.1261

>  <r_i_glide_einternal>  (276) 
0.627884

>  <r_i_glide_intrahb_reward>  (276) 
-0

>  <i_i_glide_confnum>  (276) 
1

>  <i_i_glide_posenum>  (276) 
2

>  <r_i_glide_eff_state_penalty>  (276) 
0

>  <ligand_id>  (276) 
82

>  <original_smiles>  (276) 
OC1C2C3CC4CCN1C4C2C3

>  <smiles>  (276) 
[H]OC1([H])C2([H])C3([H])C([H])([H])C4([H])C([H])([H])C([H])([H])[N+]1([H])C4([H])C2([H])C3([H])[H]

$$$$
82:1:1
     RDKit          3D

 28 31  0  0  1  0  0  0  0  0999 V2000
    3.2340   -4.3288   -0.3178 O   0  0  0  0  0  0  0  0  0  0  0  0
    2.7594   -3.1642   -0.9472 C   0  0  2  0  0  0  0  0  0  0  0  0
    3.0520   -3.0483   -2.4767 C   0  0  2  0  0  0  0  0  0  0  0  0
    4.4393   -3.2492   -3.2303 C   0  0  2  0  0  0  0  0  0  0  0  0
    5.7897   -3.1160   -2.4932 C   0  0  0  0  0  0  0  0  0  0  0  0
    5.4802   -2.2217   -1.2785 C   0  0  1  0  0  0  0  0  0  0  0  0
    5.8873   -2.1723    0.1764 C   0  0  0  0  0  0  0  0  0  0  0  0
    4.4607   -2.1753    0.8352 C   0  0  0  0  0  0  0  0  0  0  0  0
    3.4366   -1.9938   -0.2716 N   0  0  1  0  0  0  0  0  0  0  0  0
    4.1990   -1.3617   -1.3427 C   0  0  2  0  0  0  0  0  0  0  0  0
    3.3965   -1.5898   -2.6065 C   0  0  1  0  0  0  0  0  0  0  0  0
    4.0528   -1.9405   -3.9242 C   0  0  0  0  0  0  0  0  0  0  0  0
    3.2666   -5.0192   -0.9650 H   0  0  0  0  0  0  0  0  0  0  0  0
    1.6840   -3.1133   -0.7735 H   0  0  0  0  0  0  0  0  0  0  0  0
    2.2367   -3.3611   -3.1241 H   0  0  0  0  0  0  0  0  0  0  0  0
    4.3971   -4.0620   -3.9580 H   0  0  0  0  0  0  0  0  0  0  0  0
    6.2312   -4.0892   -2.2594 H   0  0  0  0  0  0  0  0  0  0  0  0
    6.5355   -2.6488   -3.1299 H   0  0  0  0  0  0  0  0  0  0  0  0
    5.2017   -3.2268   -0.9775 H   0  0  0  0  0  0  0  0  0  0  0  0
    6.5438   -2.9844    0.5147 H   0  0  0  0  0  0  0  0  0  0  0  0
    6.3972   -1.2198    0.3418 H   0  0  0  0  0  0  0  0  0  0  0  0
    4.3039   -3.0318    1.4813 H   0  0  0  0  0  0  0  0  0  0  0  0
    4.4070   -1.2964    1.4680 H   0  0  0  0  0  0  0  0  0  0  0  0
    4.4057   -0.3057   -1.1647 H   0  0  0  0  0  0  0  0  0  0  0  0
    2.4948   -0.9906   -2.7235 H   0  0  0  0  0  0  0  0  0  0  0  0
    4.8816   -1.2692   -4.1613 H   0  0  0  0  0  0  0  0  0  0  0  0
    3.3346   -2.0509   -4.7377 H   0  0  0  0  0  0  0  0  0  0  0  0
    2.6921   -1.3809    0.0142 H   0  0  0  0  0  0  0  0  0  0  0  0
  1  2  1  0
  1 13  1  0
  2  9  1  0
  2  3  1  0
  2 14  1  6
  3 11  1  0
  3  4  1  0
  3 15  1  6
  4 12  1  0
  4  5  1  0
  4 16  1  6
  5  6  1  0
  5 17  1  0
  5 18  1  0
  6 10  1  0
  6  7  1  0
  6 19  1  6
  7  8  1  0
  7 20  1  0
  7 21  1  0
  8  9  1  0
  8 22  1  0
  8 23  1  0
  9 10  1  0
  9 28  1  1
 10 11  1  0
 10 24  1  1
 11 12  1  0
 11 25  1  6
 12 26  1  0
 12 27  1  0
M  CHG  1   9   1
M  END
>  <i_m_ct_stereo_status>  (277) 
1

>  <s_m_source_file>  (277) 
/var/tmp/pbs.5076255.sched01/tmpz7m1v8ep/860kfiy9lw.sdf

>  <i_m_source_file_index>  (277) 
38

>  <i_lp_mmshare_version>  (277) 
48012

>  <i_f3d_flags>  (277) 
0

>  <s_epik_input>  (277) 
W09IXVtDQEhdMU4oW0NIMl1bQ0gyXTIpW0NASF0oW0NASF0zW0NIMl00KVtDQEhdMltDSDJdW0NASF00W0NAQEhdMTM=

>  <s_epik_cmdline>  (277) 
J2VwaWtfcHl0aG9uJywgJy1waHQnLCAnMi4wJywgJy1waCcsICc3LjAnLCAnLXRuJywgJzgnLCAnLW1hJywgJzIwMCcsICctaW1hZScsICc8aW5maWxlLm1hZT4nLCAnLW9tYWUnLCAnPG91dGZpbGUubWFlPic=

>  <r_epik_Ionization_Penalty>  (277) 
0.423523

>  <r_epik_Ionization_Penalty_Charging>  (277) 
0.00162586

>  <r_epik_Ionization_Penalty_Neutral>  (277) 
0.421897

>  <r_epik_State_Penalty>  (277) 
0.423194

>  <r_epik_Charging_Adjusted_Penalty>  (277) 
0.42482

>  <i_epik_Tot_Q>  (277) 
1

>  <i_epik_Tot_abs_Q>  (277) 
1

>  <s_epik_Chemistry_Notes>  (277) 
This compound contains an acetal/aminal-like group ( X-CH(R)-Y where X, Y are N, S, or O) that may be acid/base labile, releasing an aldehyde.

>  <s_lp_Force_Field>  (277) 
OPLS3e

>  <r_lp_Energy>  (277) 
100.075

>  <b_lp_Chiralities_Consistent>  (277) 
1

>  <s_lp_Variant>  (277) 
82:0-2

>  <s_i_glide_gridfile>  (277) 
pfpi4k_grid

>  <i_i_glide_lignum>  (277) 
38

>  <i_i_glide_rotatable_bonds>  (277) 
1

>  <r_i_docking_score>  (277) 
-5.14044

>  <r_i_glide_ligand_efficiency>  (277) 
-0.42837

>  <r_i_glide_ligand_efficiency_sa>  (277) 
-0.980722

>  <r_i_glide_ligand_efficiency_ln>  (277) 
-1.47506

>  <r_i_glide_gscore>  (277) 
-5.14044

>  <r_i_glide_lipo>  (277) 
-0.434265

>  <r_i_glide_hbond>  (277) 
-0.406854

>  <r_i_glide_metal>  (277) 
-0

>  <r_i_glide_rewards>  (277) 
-2.25

>  <r_i_glide_evdw>  (277) 
-18.4828

>  <r_i_glide_ecoul>  (277) 
-6.95179

>  <r_i_glide_erotb>  (277) 
0

>  <r_i_glide_esite>  (277) 
-0.082408

>  <r_i_glide_emodel>  (277) 
-34.4292

>  <r_i_glide_energy>  (277) 
-25.4346

>  <r_i_glide_einternal>  (277) 
0.271829

>  <r_i_glide_intrahb_reward>  (277) 
-0

>  <i_i_glide_confnum>  (277) 
1

>  <i_i_glide_posenum>  (277) 
1

>  <r_i_glide_eff_state_penalty>  (277) 
0

>  <ligand_id>  (277) 
82

>  <original_smiles>  (277) 
OC1C2C3CC4CCN1C4C2C3

>  <smiles>  (277) 
[H]OC1([H])C2([H])C3([H])C([H])([H])C4([H])C([H])([H])C([H])([H])[N+]1([H])C4([H])C2([H])C3([H])[H]

$$$$
82:1:2
     RDKit          3D

 28 31  0  0  1  0  0  0  0  0999 V2000
    5.4121   -0.6583   -0.5576 O   0  0  0  0  0  0  0  0  0  0  0  0
    4.1666   -1.1630   -0.1156 C   0  0  2  0  0  0  0  0  0  0  0  0
    4.2066   -2.4040    0.8596 C   0  0  2  0  0  0  0  0  0  0  0  0
    4.9607   -3.8087    0.6979 C   0  0  2  0  0  0  0  0  0  0  0  0
    5.4323   -4.3010   -0.6876 C   0  0  0  0  0  0  0  0  0  0  0  0
    4.5235   -3.5602   -1.6764 C   0  0  1  0  0  0  0  0  0  0  0  0
    4.6477   -2.9557   -3.0577 C   0  0  0  0  0  0  0  0  0  0  0  0
    4.0189   -1.5407   -2.7512 C   0  0  0  0  0  0  0  0  0  0  0  0
    3.4141   -1.5945   -1.3646 N   0  0  1  0  0  0  0  0  0  0  0  0
    3.1769   -3.0246   -1.1442 C   0  0  2  0  0  0  0  0  0  0  0  0
    3.0272   -3.1976    0.3617 C   0  0  1  0  0  0  0  0  0  0  0  0
    3.6070   -4.4223    1.0632 C   0  0  0  0  0  0  0  0  0  0  0  0
    5.4043    0.2958   -0.4662 H   0  0  0  0  0  0  0  0  0  0  0  0
    3.6282   -0.3408    0.3626 H   0  0  0  0  0  0  0  0  0  0  0  0
    4.1279   -2.1482    1.9206 H   0  0  0  0  0  0  0  0  0  0  0  0
    5.6649   -4.0017    1.5049 H   0  0  0  0  0  0  0  0  0  0  0  0
    6.5094   -4.1313   -0.8148 H   0  0  0  0  0  0  0  0  0  0  0  0
    5.2913   -5.3762   -0.7847 H   0  0  0  0  0  0  0  0  0  0  0  0
    5.3086   -2.8395   -1.4582 H   0  0  0  0  0  0  0  0  0  0  0  0
    5.6667   -2.9198   -3.4631 H   0  0  0  0  0  0  0  0  0  0  0  0
    4.0162   -3.5297   -3.7426 H   0  0  0  0  0  0  0  0  0  0  0  0
    4.7308   -0.7274   -2.8994 H   0  0  0  0  0  0  0  0  0  0  0  0
    3.2066   -1.3738   -3.4566 H   0  0  0  0  0  0  0  0  0  0  0  0
    2.3185   -3.4002   -1.7065 H   0  0  0  0  0  0  0  0  0  0  0  0
    2.0859   -2.8421    0.7892 H   0  0  0  0  0  0  0  0  0  0  0  0
    3.3609   -5.3555    0.5464 H   0  0  0  0  0  0  0  0  0  0  0  0
    3.3827   -4.4683    2.1321 H   0  0  0  0  0  0  0  0  0  0  0  0
    2.5027   -1.1385   -1.3363 H   0  0  0  0  0  0  0  0  0  0  0  0
  1  2  1  0
  1 13  1  0
  2  9  1  0
  2  3  1  0
  2 14  1  1
  3 11  1  0
  3  4  1  0
  3 15  1  1
  4 12  1  0
  4  5  1  0
  4 16  1  1
  5  6  1  0
  5 17  1  0
  5 18  1  0
  6 10  1  0
  6  7  1  0
  6 19  1  6
  7  8  1  0
  7 20  1  0
  7 21  1  0
  8  9  1  0
  8 22  1  0
  8 23  1  0
  9 10  1  0
  9 28  1  6
 10 11  1  0
 10 24  1  6
 11 12  1  0
 11 25  1  1
 12 26  1  0
 12 27  1  0
M  CHG  1   9   1
M  END
>  <i_m_ct_stereo_status>  (278) 
1

>  <s_m_source_file>  (278) 
/var/tmp/pbs.5076255.sched01/tmpz7m1v8ep/860kfiy9lw.sdf

>  <i_m_source_file_index>  (278) 
38

>  <i_lp_mmshare_version>  (278) 
48012

>  <i_f3d_flags>  (278) 
0

>  <s_epik_input>  (278) 
W09IXVtDQEhdMU4oW0NIMl1bQ0gyXTIpW0NASF0oW0NASF0zW0NIMl00KVtDQEhdMltDSDJdW0NASF00W0NAQEhdMTM=

>  <s_epik_cmdline>  (278) 
J2VwaWtfcHl0aG9uJywgJy1waHQnLCAnMi4wJywgJy1waCcsICc3LjAnLCAnLXRuJywgJzgnLCAnLW1hJywgJzIwMCcsICctaW1hZScsICc8aW5maWxlLm1hZT4nLCAnLW9tYWUnLCAnPG91dGZpbGUubWFlPic=

>  <r_epik_Ionization_Penalty>  (278) 
0.423523

>  <r_epik_Ionization_Penalty_Charging>  (278) 
0.00162586

>  <r_epik_Ionization_Penalty_Neutral>  (278) 
0.421897

>  <r_epik_State_Penalty>  (278) 
0.423194

>  <r_epik_Charging_Adjusted_Penalty>  (278) 
0.42482

>  <i_epik_Tot_Q>  (278) 
1

>  <i_epik_Tot_abs_Q>  (278) 
1

>  <s_epik_Chemistry_Notes>  (278) 
This compound contains an acetal/aminal-like group ( X-CH(R)-Y where X, Y are N, S, or O) that may be acid/base labile, releasing an aldehyde.

>  <s_lp_Force_Field>  (278) 
OPLS3e

>  <r_lp_Energy>  (278) 
100.075

>  <b_lp_Chiralities_Consistent>  (278) 
1

>  <s_lp_Variant>  (278) 
82:0-2

>  <s_i_glide_gridfile>  (278) 
pfpi4k_grid

>  <i_i_glide_lignum>  (278) 
38

>  <i_i_glide_rotatable_bonds>  (278) 
1

>  <r_i_docking_score>  (278) 
-5.11334

>  <r_i_glide_ligand_efficiency>  (278) 
-0.426112

>  <r_i_glide_ligand_efficiency_sa>  (278) 
-0.975552

>  <r_i_glide_ligand_efficiency_ln>  (278) 
-1.46728

>  <r_i_glide_gscore>  (278) 
-5.11334

>  <r_i_glide_lipo>  (278) 
-0.213309

>  <r_i_glide_hbond>  (278) 
-0.52

>  <r_i_glide_metal>  (278) 
-0

>  <r_i_glide_rewards>  (278) 
-2.25

>  <r_i_glide_evdw>  (278) 
-15.6202

>  <r_i_glide_ecoul>  (278) 
-8.16346

>  <r_i_glide_erotb>  (278) 
0

>  <r_i_glide_esite>  (278) 
-0.124501

>  <r_i_glide_emodel>  (278) 
-32.5361

>  <r_i_glide_energy>  (278) 
-23.7837

>  <r_i_glide_einternal>  (278) 
0.59862

>  <r_i_glide_intrahb_reward>  (278) 
-0

>  <i_i_glide_confnum>  (278) 
1

>  <i_i_glide_posenum>  (278) 
5

>  <r_i_glide_eff_state_penalty>  (278) 
0

>  <ligand_id>  (278) 
82

>  <original_smiles>  (278) 
OC1C2C3CC4CCN1C4C2C3

>  <smiles>  (278) 
[H]OC1([H])C2([H])C3([H])C([H])([H])C4([H])C([H])([H])C([H])([H])[N+]1([H])C4([H])C2([H])C3([H])[H]

$$$$
83:0:0
     RDKit          3D

 72 77  0  0  1  0  0  0  0  0999 V2000
   -2.7216    3.3509    3.1673 C   0  0  0  0  0  0  0  0  0  0  0  0
   -1.7340    3.7488    4.2843 C   0  0  2  0  0  0  0  0  0  0  0  0
   -0.4899    4.4891    3.6656 C   0  0  0  0  0  0  0  0  0  0  0  0
    0.5425    5.2024    4.6417 C   0  0  1  0  0  0  0  0  0  0  0  0
    0.1972    6.5733    4.6947 O   0  0  0  0  0  0  0  0  0  0  0  0
    0.5269    4.6874    5.9365 O   0  0  0  0  0  0  0  0  0  0  0  0
   -0.6113    4.6371    6.7732 C   0  0  1  0  0  0  0  0  0  0  0  0
   -1.5042    3.4005    6.7111 C   0  0  1  0  0  0  0  0  0  0  0  0
   -1.5335    2.6231    5.3992 C   0  0  2  0  0  0  0  0  0  0  0  0
   -0.5244    1.3950    5.1395 C   0  0  2  0  0  0  0  0  0  0  0  0
   -0.9931    0.8134    3.7835 C   0  0  0  0  0  0  0  0  0  0  0  0
   -0.4045    0.1729    6.1249 C   0  0  1  0  0  0  0  0  0  0  0  0
   -1.4410   -0.7785    5.9581 O   0  0  0  0  0  0  0  0  0  0  0  0
    1.0278   -0.5408    6.0982 C   0  0  0  0  0  0  0  0  0  0  0  0
    1.9733   -0.1923    4.8720 C   0  0  2  0  0  0  0  0  0  0  0  0
    3.3577   -0.8230    4.7034 C   0  0  0  0  0  0  0  0  0  0  0  0
    3.6478   -1.0315    3.1852 C   0  0  1  0  0  0  0  0  0  0  0  0
    3.0910   -2.2756    2.8167 O   0  0  0  0  0  0  0  0  0  0  0  0
    3.1380    0.1087    2.2254 C   0  0  1  0  0  0  0  0  0  0  0  0
    3.0083   -0.3532    0.8868 O   0  0  0  0  0  0  0  0  0  0  0  0
    1.8630    0.8836    2.7020 C   0  0  0  0  0  0  0  0  0  0  0  0
    1.9504    1.2540    4.2460 C   0  0  2  0  0  0  0  0  0  0  0  0
    3.0866    2.3812    4.2561 C   0  0  0  0  0  0  0  0  0  0  0  0
    2.6860    3.7700    3.5355 C   0  0  0  0  0  0  0  0  0  0  0  0
    2.0979    5.0784    4.2404 C   0  0  1  0  0  0  0  0  0  0  0  0
    2.4485    6.1428    3.3748 O   0  0  0  0  0  0  0  0  0  0  0  0
    0.8968    1.9613    5.1332 C   0  0  2  0  0  0  0  0  0  0  0  0
    1.5375    2.3331    6.5675 C   0  0  0  0  0  0  0  0  0  0  0  0
    0.7431    2.6101    7.8694 C   0  0  1  0  0  0  0  0  0  0  0  0
    1.6820    3.1457    8.7825 O   0  0  0  0  0  0  0  0  0  0  0  0
   -0.4663    3.5373    7.7945 C   0  0  1  0  0  0  0  0  0  0  0  0
   -1.0389    3.7577    9.1896 C   0  0  0  0  0  0  0  0  0  0  0  0
   -2.2575    2.7626    2.3805 H   0  0  0  0  0  0  0  0  0  0  0  0
   -3.1252    4.2344    2.6758 H   0  0  0  0  0  0  0  0  0  0  0  0
   -3.5690    2.7861    3.5522 H   0  0  0  0  0  0  0  0  0  0  0  0
   -2.2934    4.5440    4.7784 H   0  0  0  0  0  0  0  0  0  0  0  0
    0.0242    3.8141    2.9818 H   0  0  0  0  0  0  0  0  0  0  0  0
   -0.8521    5.2612    2.9834 H   0  0  0  0  0  0  0  0  0  0  0  0
    0.6014    7.0041    3.9400 H   0  0  0  0  0  0  0  0  0  0  0  0
   -0.9832    5.6030    7.1042 H   0  0  0  0  0  0  0  0  0  0  0  0
   -2.5292    3.6018    7.0360 H   0  0  0  0  0  0  0  0  0  0  0  0
   -2.5025    2.1265    5.4583 H   0  0  0  0  0  0  0  0  0  0  0  0
   -0.6284   -0.1938    3.5977 H   0  0  0  0  0  0  0  0  0  0  0  0
   -0.7024    1.4423    2.9463 H   0  0  0  0  0  0  0  0  0  0  0  0
   -2.0767    0.7214    3.7608 H   0  0  0  0  0  0  0  0  0  0  0  0
   -0.6121    0.5090    7.1303 H   0  0  0  0  0  0  0  0  0  0  0  0
   -1.3653   -1.1358    5.0855 H   0  0  0  0  0  0  0  0  0  0  0  0
    1.5419   -0.3421    7.0376 H   0  0  0  0  0  0  0  0  0  0  0  0
    0.8830   -1.6212    6.1235 H   0  0  0  0  0  0  0  0  0  0  0  0
    1.3973   -0.8246    4.2000 H   0  0  0  0  0  0  0  0  0  0  0  0
    4.1065   -0.1607    5.1340 H   0  0  0  0  0  0  0  0  0  0  0  0
    3.4318   -1.7670    5.2484 H   0  0  0  0  0  0  0  0  0  0  0  0
    4.7282   -1.1229    3.0530 H   0  0  0  0  0  0  0  0  0  0  0  0
    2.1547   -2.1763    2.7887 H   0  0  0  0  0  0  0  0  0  0  0  0
    3.9474    0.8217    2.1160 H   0  0  0  0  0  0  0  0  0  0  0  0
    2.1192   -0.6350    0.7022 H   0  0  0  0  0  0  0  0  0  0  0  0
    1.6751    1.7338    2.0549 H   0  0  0  0  0  0  0  0  0  0  0  0
    1.0447    0.2223    2.4541 H   0  0  0  0  0  0  0  0  0  0  0  0
    3.5784    2.5559    5.2093 H   0  0  0  0  0  0  0  0  0  0  0  0
    3.9593    2.0112    3.7331 H   0  0  0  0  0  0  0  0  0  0  0  0
    3.6642    4.1036    3.1855 H   0  0  0  0  0  0  0  0  0  0  0  0
    2.1686    3.6229    2.5925 H   0  0  0  0  0  0  0  0  0  0  0  0
    2.6783    5.2519    5.1454 H   0  0  0  0  0  0  0  0  0  0  0  0
    1.9781    6.0243    2.5618 H   0  0  0  0  0  0  0  0  0  0  0  0
    0.7689    2.8314    4.6008 H   0  0  0  0  0  0  0  0  0  0  0  0
    2.2978    1.6000    6.8334 H   0  0  0  0  0  0  0  0  0  0  0  0
    2.1435    3.2284    6.4584 H   0  0  0  0  0  0  0  0  0  0  0  0
    0.4353    1.6899    8.3569 H   0  0  0  0  0  0  0  0  0  0  0  0
    2.3830    2.5181    8.8881 H   0  0  0  0  0  0  0  0  0  0  0  0
   -1.2897    2.8012    9.6487 H   0  0  0  0  0  0  0  0  0  0  0  0
   -1.9462    4.3632    9.1453 H   0  0  0  0  0  0  0  0  0  0  0  0
   -0.3264    4.2786    9.8312 H   0  0  0  0  0  0  0  0  0  0  0  0
  1  2  1  0
  1 33  1  0
  1 34  1  0
  1 35  1  0
  2  9  1  0
  2  3  1  0
  2 36  1  1
  3  4  1  0
  3 37  1  0
  3 38  1  0
  4 25  1  0
  4  5  1  1
  4  6  1  0
  5 39  1  0
  6  7  1  0
  7 31  1  0
  7  8  1  0
  7 40  1  1
  8 31  1  0
  8  9  1  0
  8 41  1  1
  9 10  1  0
  9 42  1  1
 10 27  1  0
 10 11  1  6
 10 12  1  0
 11 43  1  0
 11 44  1  0
 11 45  1  0
 12 13  1  0
 12 14  1  0
 12 46  1  1
 13 47  1  0
 14 15  1  0
 14 48  1  0
 14 49  1  0
 15 22  1  0
 15 16  1  0
 15 50  1  6
 16 17  1  0
 16 51  1  0
 16 52  1  0
 17 18  1  0
 17 19  1  0
 17 53  1  1
 18 54  1  0
 19 20  1  0
 19 21  1  0
 19 55  1  6
 20 56  1  0
 22 21  1  6
 21 57  1  0
 21 58  1  0
 22 23  1  0
 22 27  1  0
 23 24  1  0
 23 59  1  0
 23 60  1  0
 24 25  1  0
 24 61  1  0
 24 62  1  0
 25 26  1  0
 25 63  1  1
 26 64  1  0
 27 28  1  0
 27 65  1  6
 28 29  1  0
 28 66  1  0
 28 67  1  0
 29 30  1  0
 29 31  1  0
 29 68  1  1
 30 69  1  0
 31 32  1  1
 32 70  1  0
 32 71  1  0
 32 72  1  0
M  END
>  <i_m_ct_stereo_status>  (279) 
1

>  <s_m_source_file>  (279) 
/var/tmp/pbs.5076255.sched01/tmpz7m1v8ep/860kfiy9lw.sdf

>  <i_m_source_file_index>  (279) 
39

>  <i_lp_mmshare_version>  (279) 
48012

>  <i_f3d_flags>  (279) 
0

>  <s_epik_input>  (279) 
W0NIM11bQ0BASF0xW0NIMl1bQ0BdKFtPSF0pKFtDQEhdKFtPSF0pW0NIMl1bQ0gyXTIpT1tDQEhdKFtDQF0zKFtDSDNdKVtDQEhdKFtPSF0pW0NIMl1bQ0BIXTQ1KVtDQEhdM1tDQEBIXTFbQ0BdNChbQ0gzXSlbQ0BASF0oW09IXSlbQ0gyXVtDQEBIXShbQ0BdMjU2KVtDSDJdW0NAQEhdKFtPSF0pW0NAQEhdKFtPSF0pW0NIMl02

>  <s_epik_cmdline>  (279) 
J2VwaWtfcHl0aG9uJywgJy1waHQnLCAnMi4wJywgJy1waCcsICc3LjAnLCAnLXRuJywgJzgnLCAnLW1hJywgJzIwMCcsICctaW1hZScsICc8aW5maWxlLm1hZT4nLCAnLW9tYWUnLCAnPG91dGZpbGUubWFlPic=

>  <r_lp_tautomer_probability>  (279) 
1

>  <r_epik_Ionization_Penalty>  (279) 
3.6709e-06

>  <r_epik_Ionization_Penalty_Charging>  (279) 
0

>  <r_epik_Ionization_Penalty_Neutral>  (279) 
3.6709e-06

>  <r_epik_State_Penalty>  (279) 
-0

>  <r_epik_Charging_Adjusted_Penalty>  (279) 
0

>  <i_epik_Tot_Q>  (279) 
0

>  <i_epik_Tot_abs_Q>  (279) 
0

>  <s_lp_Force_Field>  (279) 
OPLS3e

>  <r_lp_Energy>  (279) 
184.35

>  <b_lp_Chiralities_Consistent>  (279) 
1

>  <s_lp_Variant>  (279) 
83:0-1

>  <s_i_glide_gridfile>  (279) 
pfpi4k_grid

>  <i_i_glide_lignum>  (279) 
39

>  <i_i_glide_rotatable_bonds>  (279) 
6

>  <r_i_docking_score>  (279) 
-3.28432

>  <r_i_glide_ligand_efficiency>  (279) 
-0.102635

>  <r_i_glide_ligand_efficiency_sa>  (279) 
-0.325846

>  <r_i_glide_ligand_efficiency_ln>  (279) 
-0.73545

>  <r_i_glide_gscore>  (279) 
-3.28432

>  <r_i_glide_lipo>  (279) 
-0.108291

>  <r_i_glide_hbond>  (279) 
-0.0594491

>  <r_i_glide_metal>  (279) 
-0

>  <r_i_glide_rewards>  (279) 
-0.323312

>  <r_i_glide_evdw>  (279) 
-27.7231

>  <r_i_glide_ecoul>  (279) 
-9.11885

>  <r_i_glide_erotb>  (279) 
0

>  <r_i_glide_esite>  (279) 
-0.0392879

>  <r_i_glide_emodel>  (279) 
-43.4913

>  <r_i_glide_energy>  (279) 
-36.842

>  <r_i_glide_einternal>  (279) 
2.71644

>  <r_i_glide_intrahb_reward>  (279) 
-0

>  <i_i_glide_confnum>  (279) 
1

>  <i_i_glide_posenum>  (279) 
26

>  <r_i_glide_eff_state_penalty>  (279) 
0

>  <ligand_id>  (279) 
83

>  <original_smiles>  (279) 
CC1CC2(O)OC3C4C1C1(C)C(O)CC5CC(O)C(O)CC5(CCC2O)C1CC(O)C34C

>  <smiles>  (279) 
[H]OC1([H])C([H])([H])C2([H])C([H])([H])C([H])(O[H])C3(C([H])([H])[H])C4([H])C([H])(C([H])([H])[H])C([H])([H])C5(O[H])OC6([H])C4([H])C6(C([H])([H])[H])C([H])(O[H])C([H])([H])C3([H])C2(C([H])([H])C([H])([H])C5([H])O[H])C([H])([H])C1([H])O[H]

$$$$
83:0:1
     RDKit          3D

 72 77  0  0  1  0  0  0  0  0999 V2000
   -2.7122    3.3521    3.1638 C   0  0  0  0  0  0  0  0  0  0  0  0
   -1.7273    3.7472    4.2842 C   0  0  2  0  0  0  0  0  0  0  0  0
   -0.4812    4.4876    3.6710 C   0  0  0  0  0  0  0  0  0  0  0  0
    0.5483    5.2007    4.6505 C   0  0  1  0  0  0  0  0  0  0  0  0
    0.2014    6.5704    4.7035 O   0  0  0  0  0  0  0  0  0  0  0  0
    0.5325    4.6859    5.9469 O   0  0  0  0  0  0  0  0  0  0  0  0
   -0.6116    4.6320    6.7764 C   0  0  1  0  0  0  0  0  0  0  0  0
   -1.5055    3.3941    6.7097 C   0  0  1  0  0  0  0  0  0  0  0  0
   -1.5280    2.6181    5.3966 C   0  0  2  0  0  0  0  0  0  0  0  0
   -0.5187    1.3903    5.1374 C   0  0  2  0  0  0  0  0  0  0  0  0
   -0.9856    0.8079    3.7791 C   0  0  0  0  0  0  0  0  0  0  0  0
   -0.3966    0.1676    6.1207 C   0  0  1  0  0  0  0  0  0  0  0  0
   -1.4302   -0.7860    5.9535 O   0  0  0  0  0  0  0  0  0  0  0  0
    1.0360   -0.5440    6.0974 C   0  0  0  0  0  0  0  0  0  0  0  0
    1.9860   -0.1933    4.8728 C   0  0  2  0  0  0  0  0  0  0  0  0
    3.3731   -0.8209    4.7076 C   0  0  0  0  0  0  0  0  0  0  0  0
    3.6684   -1.0253    3.1890 C   0  0  1  0  0  0  0  0  0  0  0  0
    3.1169   -2.2718    2.8165 O   0  0  0  0  0  0  0  0  0  0  0  0
    3.1542    0.1145    2.2292 C   0  0  1  0  0  0  0  0  0  0  0  0
    3.0212   -0.3437    0.8921 O   0  0  0  0  0  0  0  0  0  0  0  0
    1.8781    0.8858    2.7045 C   0  0  0  0  0  0  0  0  0  0  0  0
    1.9600    1.2548    4.2473 C   0  0  2  0  0  0  0  0  0  0  0  0
    3.0979    2.3813    4.2617 C   0  0  0  0  0  0  0  0  0  0  0  0
    2.6966    3.7714    3.5438 C   0  0  0  0  0  0  0  0  0  0  0  0
    2.1037    5.0765    4.2522 C   0  0  1  0  0  0  0  0  0  0  0  0
    2.4554    6.1415    3.3891 O   0  0  0  0  0  0  0  0  0  0  0  0
    0.9033    1.9587    5.1332 C   0  0  2  0  0  0  0  0  0  0  0  0
    1.5397    2.3290    6.5685 C   0  0  0  0  0  0  0  0  0  0  0  0
    0.7415    2.6021    7.8708 C   0  0  1  0  0  0  0  0  0  0  0  0
    1.6818    3.1386    8.7796 O   0  0  0  0  0  0  0  0  0  0  0  0
   -0.4686    3.5282    7.7975 C   0  0  1  0  0  0  0  0  0  0  0  0
   -1.0469    3.7445    9.1913 C   0  0  0  0  0  0  0  0  0  0  0  0
   -2.2439    2.7646    2.3779 H   0  0  0  0  0  0  0  0  0  0  0  0
   -3.1178    4.2328    2.6714 H   0  0  0  0  0  0  0  0  0  0  0  0
   -3.5580    2.7837    3.5473 H   0  0  0  0  0  0  0  0  0  0  0  0
   -2.2861    4.5438    4.7767 H   0  0  0  0  0  0  0  0  0  0  0  0
    0.0350    3.8128    2.9879 H   0  0  0  0  0  0  0  0  0  0  0  0
   -0.8432    5.2603    2.9895 H   0  0  0  0  0  0  0  0  0  0  0  0
    0.5948    6.9992    3.9426 H   0  0  0  0  0  0  0  0  0  0  0  0
   -0.9839    5.5981    7.1086 H   0  0  0  0  0  0  0  0  0  0  0  0
   -2.5313    3.5966    7.0298 H   0  0  0  0  0  0  0  0  0  0  0  0
   -2.4969    2.1205    5.4517 H   0  0  0  0  0  0  0  0  0  0  0  0
   -0.6165   -0.1981    3.5930 H   0  0  0  0  0  0  0  0  0  0  0  0
   -0.6924    1.4373    2.9427 H   0  0  0  0  0  0  0  0  0  0  0  0
   -2.0677    0.7135    3.7543 H   0  0  0  0  0  0  0  0  0  0  0  0
   -0.6031    0.5005    7.1268 H   0  0  0  0  0  0  0  0  0  0  0  0
   -1.3510   -1.1455    5.0826 H   0  0  0  0  0  0  0  0  0  0  0  0
    1.5504   -0.3466    7.0382 H   0  0  0  0  0  0  0  0  0  0  0  0
    0.8948   -1.6248    6.1208 H   0  0  0  0  0  0  0  0  0  0  0  0
    1.4131   -0.8244    4.1996 H   0  0  0  0  0  0  0  0  0  0  0  0
    4.1206   -0.1590    5.1411 H   0  0  0  0  0  0  0  0  0  0  0  0
    3.4446   -1.7655    5.2512 H   0  0  0  0  0  0  0  0  0  0  0  0
    4.7481   -1.1127    3.0606 H   0  0  0  0  0  0  0  0  0  0  0  0
    2.1799   -2.1786    2.7963 H   0  0  0  0  0  0  0  0  0  0  0  0
    3.9626    0.8295    2.1212 H   0  0  0  0  0  0  0  0  0  0  0  0
    2.1302   -0.6391    0.7104 H   0  0  0  0  0  0  0  0  0  0  0  0
    1.6894    1.7360    2.0580 H   0  0  0  0  0  0  0  0  0  0  0  0
    1.0606    0.2231    2.4555 H   0  0  0  0  0  0  0  0  0  0  0  0
    3.5873    2.5542    5.2180 H   0  0  0  0  0  0  0  0  0  0  0  0
    3.9712    2.0142    3.7424 H   0  0  0  0  0  0  0  0  0  0  0  0
    3.6747    4.1076    3.1991 H   0  0  0  0  0  0  0  0  0  0  0  0
    2.1806    3.6270    2.5998 H   0  0  0  0  0  0  0  0  0  0  0  0
    2.6839    5.2504    5.1568 H   0  0  0  0  0  0  0  0  0  0  0  0
    1.9868    6.0317    2.5747 H   0  0  0  0  0  0  0  0  0  0  0  0
    0.7778    2.8309    4.6019 H   0  0  0  0  0  0  0  0  0  0  0  0
    2.2989    1.5968    6.8406 H   0  0  0  0  0  0  0  0  0  0  0  0
    2.1480    3.2225    6.4588 H   0  0  0  0  0  0  0  0  0  0  0  0
    0.4401    1.6799    8.3576 H   0  0  0  0  0  0  0  0  0  0  0  0
    1.9629    3.9743    8.4412 H   0  0  0  0  0  0  0  0  0  0  0  0
   -1.2975    2.7869    9.6452 H   0  0  0  0  0  0  0  0  0  0  0  0
   -1.9548    4.3478    9.1476 H   0  0  0  0  0  0  0  0  0  0  0  0
   -0.3397    4.2632    9.8380 H   0  0  0  0  0  0  0  0  0  0  0  0
  1  2  1  0
  1 33  1  0
  1 34  1  0
  1 35  1  0
  2  9  1  0
  2  3  1  0
  2 36  1  1
  3  4  1  0
  3 37  1  0
  3 38  1  0
  4 25  1  0
  4  5  1  1
  4  6  1  0
  5 39  1  0
  6  7  1  0
  7 31  1  0
  7  8  1  0
  7 40  1  1
  8 31  1  0
  8  9  1  0
  8 41  1  1
  9 10  1  0
  9 42  1  1
 10 27  1  0
 10 11  1  6
 10 12  1  0
 11 43  1  0
 11 44  1  0
 11 45  1  0
 12 13  1  0
 12 14  1  0
 12 46  1  1
 13 47  1  0
 14 15  1  0
 14 48  1  0
 14 49  1  0
 15 22  1  0
 15 16  1  0
 15 50  1  6
 16 17  1  0
 16 51  1  0
 16 52  1  0
 17 18  1  0
 17 19  1  0
 17 53  1  1
 18 54  1  0
 19 20  1  0
 19 21  1  0
 19 55  1  6
 20 56  1  0
 22 21  1  6
 21 57  1  0
 21 58  1  0
 22 23  1  0
 22 27  1  0
 23 24  1  0
 23 59  1  0
 23 60  1  0
 24 25  1  0
 24 61  1  0
 24 62  1  0
 25 26  1  0
 25 63  1  1
 26 64  1  0
 27 28  1  0
 27 65  1  6
 28 29  1  0
 28 66  1  0
 28 67  1  0
 29 30  1  0
 29 31  1  0
 29 68  1  1
 30 69  1  0
 31 32  1  1
 32 70  1  0
 32 71  1  0
 32 72  1  0
M  END
>  <i_m_ct_stereo_status>  (280) 
1

>  <s_m_source_file>  (280) 
/var/tmp/pbs.5076255.sched01/tmpz7m1v8ep/860kfiy9lw.sdf

>  <i_m_source_file_index>  (280) 
39

>  <i_lp_mmshare_version>  (280) 
48012

>  <i_f3d_flags>  (280) 
0

>  <s_epik_input>  (280) 
W0NIM11bQ0BASF0xW0NIMl1bQ0BdKFtPSF0pKFtDQEhdKFtPSF0pW0NIMl1bQ0gyXTIpT1tDQEhdKFtDQF0zKFtDSDNdKVtDQEhdKFtPSF0pW0NIMl1bQ0BIXTQ1KVtDQEhdM1tDQEBIXTFbQ0BdNChbQ0gzXSlbQ0BASF0oW09IXSlbQ0gyXVtDQEBIXShbQ0BdMjU2KVtDSDJdW0NAQEhdKFtPSF0pW0NAQEhdKFtPSF0pW0NIMl02

>  <s_epik_cmdline>  (280) 
J2VwaWtfcHl0aG9uJywgJy1waHQnLCAnMi4wJywgJy1waCcsICc3LjAnLCAnLXRuJywgJzgnLCAnLW1hJywgJzIwMCcsICctaW1hZScsICc8aW5maWxlLm1hZT4nLCAnLW9tYWUnLCAnPG91dGZpbGUubWFlPic=

>  <r_lp_tautomer_probability>  (280) 
1

>  <r_epik_Ionization_Penalty>  (280) 
3.6709e-06

>  <r_epik_Ionization_Penalty_Charging>  (280) 
0

>  <r_epik_Ionization_Penalty_Neutral>  (280) 
3.6709e-06

>  <r_epik_State_Penalty>  (280) 
-0

>  <r_epik_Charging_Adjusted_Penalty>  (280) 
0

>  <i_epik_Tot_Q>  (280) 
0

>  <i_epik_Tot_abs_Q>  (280) 
0

>  <s_lp_Force_Field>  (280) 
OPLS3e

>  <r_lp_Energy>  (280) 
184.35

>  <b_lp_Chiralities_Consistent>  (280) 
1

>  <s_lp_Variant>  (280) 
83:0-1

>  <s_i_glide_gridfile>  (280) 
pfpi4k_grid

>  <i_i_glide_lignum>  (280) 
39

>  <i_i_glide_rotatable_bonds>  (280) 
6

>  <r_i_docking_score>  (280) 
-3.27014

>  <r_i_glide_ligand_efficiency>  (280) 
-0.102192

>  <r_i_glide_ligand_efficiency_sa>  (280) 
-0.324439

>  <r_i_glide_ligand_efficiency_ln>  (280) 
-0.732273

>  <r_i_glide_gscore>  (280) 
-3.27014

>  <r_i_glide_lipo>  (280) 
-0.108419

>  <r_i_glide_hbond>  (280) 
-0.0567062

>  <r_i_glide_metal>  (280) 
-0

>  <r_i_glide_rewards>  (280) 
-0.323312

>  <r_i_glide_evdw>  (280) 
-27.8038

>  <r_i_glide_ecoul>  (280) 
-9.01772

>  <r_i_glide_erotb>  (280) 
0

>  <r_i_glide_esite>  (280) 
-0.038854

>  <r_i_glide_emodel>  (280) 
-43.5204

>  <r_i_glide_energy>  (280) 
-36.8215

>  <r_i_glide_einternal>  (280) 
2.36871

>  <r_i_glide_intrahb_reward>  (280) 
-0

>  <i_i_glide_confnum>  (280) 
2

>  <i_i_glide_posenum>  (280) 
15

>  <r_i_glide_eff_state_penalty>  (280) 
0

>  <ligand_id>  (280) 
83

>  <original_smiles>  (280) 
CC1CC2(O)OC3C4C1C1(C)C(O)CC5CC(O)C(O)CC5(CCC2O)C1CC(O)C34C

>  <smiles>  (280) 
[H]OC1([H])C([H])([H])C2([H])C([H])([H])C([H])(O[H])C3(C([H])([H])[H])C4([H])C([H])(C([H])([H])[H])C([H])([H])C5(O[H])OC6([H])C4([H])C6(C([H])([H])[H])C([H])(O[H])C([H])([H])C3([H])C2(C([H])([H])C([H])([H])C5([H])O[H])C([H])([H])C1([H])O[H]

$$$$
83:0:2
     RDKit          3D

 72 77  0  0  1  0  0  0  0  0999 V2000
   -2.7570    3.3456    3.2034 C   0  0  0  0  0  0  0  0  0  0  0  0
   -1.7554    3.7491    4.3062 C   0  0  2  0  0  0  0  0  0  0  0  0
   -0.5208    4.4912    3.6672 C   0  0  0  0  0  0  0  0  0  0  0  0
    0.5270    5.2114    4.6257 C   0  0  1  0  0  0  0  0  0  0  0  0
    0.1949    6.5852    4.6731 O   0  0  0  0  0  0  0  0  0  0  0  0
    0.5237    4.7058    5.9240 O   0  0  0  0  0  0  0  0  0  0  0  0
   -0.6076    4.6600    6.7749 C   0  0  1  0  0  0  0  0  0  0  0  0
   -1.4985    3.4197    6.7348 C   0  0  1  0  0  0  0  0  0  0  0  0
   -1.5405    2.6321    5.4279 C   0  0  2  0  0  0  0  0  0  0  0  0
   -0.5312    1.4034    5.1658 C   0  0  2  0  0  0  0  0  0  0  0  0
   -1.0168    0.8081    3.8211 C   0  0  0  0  0  0  0  0  0  0  0  0
   -0.3961    0.1905    6.1603 C   0  0  1  0  0  0  0  0  0  0  0  0
   -1.4325   -0.7629    6.0161 O   0  0  0  0  0  0  0  0  0  0  0  0
    1.0365   -0.5202    6.1230 C   0  0  0  0  0  0  0  0  0  0  0  0
    1.9662   -0.1802    4.8828 C   0  0  2  0  0  0  0  0  0  0  0  0
    3.3512   -0.8062    4.7093 C   0  0  0  0  0  0  0  0  0  0  0  0
    3.6196   -1.0213    3.1909 C   0  0  1  0  0  0  0  0  0  0  0  0
    3.0467   -2.2538    2.8145 O   0  0  0  0  0  0  0  0  0  0  0  0
    3.1023    0.1003    2.2201 C   0  0  1  0  0  0  0  0  0  0  0  0
    2.9645   -0.4240    0.9058 O   0  0  0  0  0  0  0  0  0  0  0  0
    1.8276    0.8742    2.7020 C   0  0  0  0  0  0  0  0  0  0  0  0
    1.9315    1.2601    4.2430 C   0  0  2  0  0  0  0  0  0  0  0  0
    3.0661    2.3890    4.2286 C   0  0  0  0  0  0  0  0  0  0  0  0
    2.6540    3.7699    3.5011 C   0  0  0  0  0  0  0  0  0  0  0  0
    2.0769    5.0821    4.2037 C   0  0  1  0  0  0  0  0  0  0  0  0
    2.4146    6.1365    3.3211 O   0  0  0  0  0  0  0  0  0  0  0  0
    0.8880    1.9735    5.1379 C   0  0  2  0  0  0  0  0  0  0  0  0
    1.5450    2.3589    6.5608 C   0  0  0  0  0  0  0  0  0  0  0  0
    0.7671    2.6435    7.8725 C   0  0  1  0  0  0  0  0  0  0  0  0
    1.7220    3.1772    8.7698 O   0  0  0  0  0  0  0  0  0  0  0  0
   -0.4452    3.5682    7.8046 C   0  0  1  0  0  0  0  0  0  0  0  0
   -1.0041    3.8019    9.2053 C   0  0  0  0  0  0  0  0  0  0  0  0
   -2.3021    2.7492    2.4155 H   0  0  0  0  0  0  0  0  0  0  0  0
   -3.1694    4.2238    2.7098 H   0  0  0  0  0  0  0  0  0  0  0  0
   -3.5984    2.7807    3.6036 H   0  0  0  0  0  0  0  0  0  0  0  0
   -2.3147    4.5420    4.8019 H   0  0  0  0  0  0  0  0  0  0  0  0
   -0.0163    3.8097    2.9822 H   0  0  0  0  0  0  0  0  0  0  0  0
   -0.8942    5.2560    2.9829 H   0  0  0  0  0  0  0  0  0  0  0  0
    0.5745    7.0027    3.8998 H   0  0  0  0  0  0  0  0  0  0  0  0
   -0.9820    5.6277    7.0954 H   0  0  0  0  0  0  0  0  0  0  0  0
   -2.5220    3.6233    7.0667 H   0  0  0  0  0  0  0  0  0  0  0  0
   -2.5071    2.1322    5.5025 H   0  0  0  0  0  0  0  0  0  0  0  0
   -0.6502   -0.1992    3.6407 H   0  0  0  0  0  0  0  0  0  0  0  0
   -0.7383    1.4304    2.9749 H   0  0  0  0  0  0  0  0  0  0  0  0
   -2.1005    0.7126    3.8143 H   0  0  0  0  0  0  0  0  0  0  0  0
   -0.5933    0.5331    7.1652 H   0  0  0  0  0  0  0  0  0  0  0  0
   -1.3574   -1.1365    5.1499 H   0  0  0  0  0  0  0  0  0  0  0  0
    1.5634   -0.3113    7.0530 H   0  0  0  0  0  0  0  0  0  0  0  0
    0.8964   -1.6011    6.1586 H   0  0  0  0  0  0  0  0  0  0  0  0
    1.3876   -0.8237    4.2223 H   0  0  0  0  0  0  0  0  0  0  0  0
    4.1057   -0.1419    5.1253 H   0  0  0  0  0  0  0  0  0  0  0  0
    3.4311   -1.7517    5.2496 H   0  0  0  0  0  0  0  0  0  0  0  0
    4.6945   -1.1234    3.0380 H   0  0  0  0  0  0  0  0  0  0  0  0
    3.2410   -2.3581    1.8925 H   0  0  0  0  0  0  0  0  0  0  0  0
    3.9048    0.8173    2.0807 H   0  0  0  0  0  0  0  0  0  0  0  0
    2.0504   -0.6096    0.7070 H   0  0  0  0  0  0  0  0  0  0  0  0
    1.6291    1.7174    2.0497 H   0  0  0  0  0  0  0  0  0  0  0  0
    1.0088    0.2061    2.4721 H   0  0  0  0  0  0  0  0  0  0  0  0
    3.5669    2.5741    5.1754 H   0  0  0  0  0  0  0  0  0  0  0  0
    3.9333    2.0174    3.6974 H   0  0  0  0  0  0  0  0  0  0  0  0
    3.6271    4.1036    3.1359 H   0  0  0  0  0  0  0  0  0  0  0  0
    2.1238    3.6145    2.5664 H   0  0  0  0  0  0  0  0  0  0  0  0
    2.6660    5.2651    5.1006 H   0  0  0  0  0  0  0  0  0  0  0  0
    1.9296    6.0122    2.5171 H   0  0  0  0  0  0  0  0  0  0  0  0
    0.7511    2.8393    4.5985 H   0  0  0  0  0  0  0  0  0  0  0  0
    2.3088    1.6314    6.8283 H   0  0  0  0  0  0  0  0  0  0  0  0
    2.1466    3.2541    6.4389 H   0  0  0  0  0  0  0  0  0  0  0  0
    0.4625    1.7238    8.3646 H   0  0  0  0  0  0  0  0  0  0  0  0
    1.2989    3.2868    9.6106 H   0  0  0  0  0  0  0  0  0  0  0  0
   -1.2477    2.8493    9.6760 H   0  0  0  0  0  0  0  0  0  0  0  0
   -1.9160    4.4007    9.1641 H   0  0  0  0  0  0  0  0  0  0  0  0
   -0.2925    4.3377    9.8340 H   0  0  0  0  0  0  0  0  0  0  0  0
  1  2  1  0
  1 33  1  0
  1 34  1  0
  1 35  1  0
  2  9  1  0
  2  3  1  0
  2 36  1  1
  3  4  1  0
  3 37  1  0
  3 38  1  0
  4 25  1  0
  4  5  1  1
  4  6  1  0
  5 39  1  0
  6  7  1  0
  7 31  1  0
  7  8  1  0
  7 40  1  1
  8 31  1  0
  8  9  1  0
  8 41  1  1
  9 10  1  0
  9 42  1  1
 10 27  1  0
 10 11  1  6
 10 12  1  0
 11 43  1  0
 11 44  1  0
 11 45  1  0
 12 13  1  0
 12 14  1  0
 12 46  1  1
 13 47  1  0
 14 15  1  0
 14 48  1  0
 14 49  1  0
 15 22  1  0
 15 16  1  0
 15 50  1  6
 16 17  1  0
 16 51  1  0
 16 52  1  0
 17 18  1  0
 17 19  1  0
 17 53  1  1
 18 54  1  0
 19 20  1  0
 19 21  1  0
 19 55  1  6
 20 56  1  0
 22 21  1  6
 21 57  1  0
 21 58  1  0
 22 23  1  0
 22 27  1  0
 23 24  1  0
 23 59  1  0
 23 60  1  0
 24 25  1  0
 24 61  1  0
 24 62  1  0
 25 26  1  0
 25 63  1  1
 26 64  1  0
 27 28  1  0
 27 65  1  6
 28 29  1  0
 28 66  1  0
 28 67  1  0
 29 30  1  0
 29 31  1  0
 29 68  1  1
 30 69  1  0
 31 32  1  1
 32 70  1  0
 32 71  1  0
 32 72  1  0
M  END
>  <i_m_ct_stereo_status>  (281) 
1

>  <s_m_source_file>  (281) 
/var/tmp/pbs.5076255.sched01/tmpz7m1v8ep/860kfiy9lw.sdf

>  <i_m_source_file_index>  (281) 
39

>  <i_lp_mmshare_version>  (281) 
48012

>  <i_f3d_flags>  (281) 
0

>  <s_epik_input>  (281) 
W0NIM11bQ0BASF0xW0NIMl1bQ0BdKFtPSF0pKFtDQEhdKFtPSF0pW0NIMl1bQ0gyXTIpT1tDQEhdKFtDQF0zKFtDSDNdKVtDQEhdKFtPSF0pW0NIMl1bQ0BIXTQ1KVtDQEhdM1tDQEBIXTFbQ0BdNChbQ0gzXSlbQ0BASF0oW09IXSlbQ0gyXVtDQEBIXShbQ0BdMjU2KVtDSDJdW0NAQEhdKFtPSF0pW0NAQEhdKFtPSF0pW0NIMl02

>  <s_epik_cmdline>  (281) 
J2VwaWtfcHl0aG9uJywgJy1waHQnLCAnMi4wJywgJy1waCcsICc3LjAnLCAnLXRuJywgJzgnLCAnLW1hJywgJzIwMCcsICctaW1hZScsICc8aW5maWxlLm1hZT4nLCAnLW9tYWUnLCAnPG91dGZpbGUubWFlPic=

>  <r_lp_tautomer_probability>  (281) 
1

>  <r_epik_Ionization_Penalty>  (281) 
3.6709e-06

>  <r_epik_Ionization_Penalty_Charging>  (281) 
0

>  <r_epik_Ionization_Penalty_Neutral>  (281) 
3.6709e-06

>  <r_epik_State_Penalty>  (281) 
-0

>  <r_epik_Charging_Adjusted_Penalty>  (281) 
0

>  <i_epik_Tot_Q>  (281) 
0

>  <i_epik_Tot_abs_Q>  (281) 
0

>  <s_lp_Force_Field>  (281) 
OPLS3e

>  <r_lp_Energy>  (281) 
184.35

>  <b_lp_Chiralities_Consistent>  (281) 
1

>  <s_lp_Variant>  (281) 
83:0-1

>  <s_i_glide_gridfile>  (281) 
pfpi4k_grid

>  <i_i_glide_lignum>  (281) 
39

>  <i_i_glide_rotatable_bonds>  (281) 
6

>  <r_i_docking_score>  (281) 
-3.24291

>  <r_i_glide_ligand_efficiency>  (281) 
-0.101341

>  <r_i_glide_ligand_efficiency_sa>  (281) 
-0.321737

>  <r_i_glide_ligand_efficiency_ln>  (281) 
-0.726176

>  <r_i_glide_gscore>  (281) 
-3.24291

>  <r_i_glide_lipo>  (281) 
-0.106717

>  <r_i_glide_hbond>  (281) 
-0.0701618

>  <r_i_glide_metal>  (281) 
-0

>  <r_i_glide_rewards>  (281) 
-0.323312

>  <r_i_glide_evdw>  (281) 
-27.5116

>  <r_i_glide_ecoul>  (281) 
-8.84578

>  <r_i_glide_erotb>  (281) 
0

>  <r_i_glide_esite>  (281) 
-0.0402723

>  <r_i_glide_emodel>  (281) 
-42.1264

>  <r_i_glide_energy>  (281) 
-36.3574

>  <r_i_glide_einternal>  (281) 
3.07071

>  <r_i_glide_intrahb_reward>  (281) 
-0

>  <i_i_glide_confnum>  (281) 
1

>  <i_i_glide_posenum>  (281) 
30

>  <r_i_glide_eff_state_penalty>  (281) 
0

>  <ligand_id>  (281) 
83

>  <original_smiles>  (281) 
CC1CC2(O)OC3C4C1C1(C)C(O)CC5CC(O)C(O)CC5(CCC2O)C1CC(O)C34C

>  <smiles>  (281) 
[H]OC1([H])C([H])([H])C2([H])C([H])([H])C([H])(O[H])C3(C([H])([H])[H])C4([H])C([H])(C([H])([H])[H])C([H])([H])C5(O[H])OC6([H])C4([H])C6(C([H])([H])[H])C([H])(O[H])C([H])([H])C3([H])C2(C([H])([H])C([H])([H])C5([H])O[H])C([H])([H])C1([H])O[H]

$$$$
85:0:0
     RDKit          3D

 84 90  0  0  1  0  0  0  0  0999 V2000
    5.7074  -10.1284    6.3937 C   0  0  0  0  0  0  0  0  0  0  0  0
    4.6183   -9.2710    5.7126 C   0  0  2  0  0  0  0  0  0  0  0  0
    4.1752   -8.0971    6.6372 C   0  0  1  0  0  0  0  0  0  0  0  0
    4.4211   -6.6991    6.0238 C   0  0  0  0  0  0  0  0  0  0  0  0
    3.4476   -6.2358    4.8729 C   0  0  1  0  0  0  0  0  0  0  0  0
    4.0164   -6.8435    3.5412 C   0  0  0  0  0  0  0  0  0  0  0  0
    1.9830   -6.7612    5.1414 C   0  0  1  0  0  0  0  0  0  0  0  0
    1.0171   -6.4486    3.9887 C   0  0  0  0  0  0  0  0  0  0  0  0
    1.4632   -5.2821    3.0848 C   0  0  0  0  0  0  0  0  0  0  0  0
    2.2036   -4.1060    3.7928 C   0  0  2  0  0  0  0  0  0  0  0  0
    1.0662   -3.2677    4.4448 C   0  0  0  0  0  0  0  0  0  0  0  0
    2.9174   -3.2602    2.7162 C   0  0  1  0  0  0  0  0  0  0  0  0
    2.8531   -1.7386    2.4626 C   0  0  2  0  0  0  0  0  0  0  0  0
    3.3923   -1.3504    1.0819 C   0  0  0  0  0  0  0  0  0  0  0  0
    4.8474   -1.8900    0.8341 C   0  0  0  0  0  0  0  0  0  0  0  0
    4.8912   -2.5573   -0.5529 C   0  0  0  0  0  0  0  0  0  0  0  0
    5.8229   -0.6936    0.8120 C   0  0  0  0  0  0  0  0  0  0  0  0
    5.3166   -2.9314    1.9198 C   0  0  0  0  0  0  0  0  0  0  0  0
    4.3556   -2.9985    3.1200 C   0  0  1  0  0  0  0  0  0  0  0  0
    3.8678   -1.6171    3.5911 C   0  0  0  0  0  0  0  0  0  0  0  0
    4.7238   -4.0167    4.1911 C   0  0  0  0  0  0  0  0  0  0  0  0
    3.3794   -4.6229    4.7660 C   0  0  2  0  0  0  0  0  0  0  0  0
    3.1936   -3.9635    6.1822 C   0  0  0  0  0  0  0  0  0  0  0  0
    1.8365   -8.1945    5.7718 C   0  0  2  0  0  0  0  0  0  0  0  0
    2.6941   -8.1648    7.0620 C   0  0  1  0  0  0  0  0  0  0  0  0
    2.3494   -9.1809    8.1759 C   0  0  0  0  0  0  0  0  0  0  0  0
    2.2620   -9.2699    4.8190 N   0  0  2  0  0  0  0  0  0  0  0  0
    1.2762  -10.2785    4.3462 C   0  0  1  0  0  0  0  0  0  0  0  0
    0.1221   -9.7649    3.4750 C   0  0  0  0  0  0  0  0  0  0  0  0
    2.1586  -11.2768    3.5813 C   0  0  0  0  0  0  0  0  0  0  0  0
    3.5943  -11.0556    4.0779 C   0  0  0  0  0  0  0  0  0  0  0  0
    3.4045  -10.1101    5.2548 C   0  0  1  0  0  0  0  0  0  0  0  0
    5.3551  -10.5863    7.3222 H   0  0  0  0  0  0  0  0  0  0  0  0
    6.5725   -9.5089    6.6444 H   0  0  0  0  0  0  0  0  0  0  0  0
    6.0639  -10.9264    5.7391 H   0  0  0  0  0  0  0  0  0  0  0  0
    5.1005   -8.8718    4.8255 H   0  0  0  0  0  0  0  0  0  0  0  0
    4.7846   -8.1341    7.5404 H   0  0  0  0  0  0  0  0  0  0  0  0
    4.3708   -6.0427    6.8843 H   0  0  0  0  0  0  0  0  0  0  0  0
    5.4592   -6.6162    5.7024 H   0  0  0  0  0  0  0  0  0  0  0  0
    3.9948   -6.1585    2.6981 H   0  0  0  0  0  0  0  0  0  0  0  0
    3.4989   -7.7368    3.2128 H   0  0  0  0  0  0  0  0  0  0  0  0
    5.0713   -7.0949    3.6101 H   0  0  0  0  0  0  0  0  0  0  0  0
    1.5881   -6.1269    5.9314 H   0  0  0  0  0  0  0  0  0  0  0  0
    0.8934   -7.3133    3.3479 H   0  0  0  0  0  0  0  0  0  0  0  0
    0.0297   -6.2387    4.3977 H   0  0  0  0  0  0  0  0  0  0  0  0
    2.0562   -5.6867    2.2681 H   0  0  0  0  0  0  0  0  0  0  0  0
    0.5962   -4.9054    2.5543 H   0  0  0  0  0  0  0  0  0  0  0  0
    1.4009   -2.3197    4.8610 H   0  0  0  0  0  0  0  0  0  0  0  0
    0.5440   -3.8114    5.2332 H   0  0  0  0  0  0  0  0  0  0  0  0
    0.3197   -2.9903    3.6980 H   0  0  0  0  0  0  0  0  0  0  0  0
    2.9041   -3.7625    1.7523 H   0  0  0  0  0  0  0  0  0  0  0  0
    1.8959   -1.2828    2.7030 H   0  0  0  0  0  0  0  0  0  0  0  0
    2.7156   -1.7333    0.3153 H   0  0  0  0  0  0  0  0  0  0  0  0
    3.3507   -0.2694    0.9518 H   0  0  0  0  0  0  0  0  0  0  0  0
    5.8903   -2.9308   -0.7900 H   0  0  0  0  0  0  0  0  0  0  0  0
    4.5921   -1.8610   -1.3397 H   0  0  0  0  0  0  0  0  0  0  0  0
    4.2039   -3.4049   -0.5858 H   0  0  0  0  0  0  0  0  0  0  0  0
    6.8456   -1.0070    0.5945 H   0  0  0  0  0  0  0  0  0  0  0  0
    5.8468   -0.1709    1.7655 H   0  0  0  0  0  0  0  0  0  0  0  0
    5.5431    0.0415    0.0592 H   0  0  0  0  0  0  0  0  0  0  0  0
    5.4036   -3.9203    1.4659 H   0  0  0  0  0  0  0  0  0  0  0  0
    6.3246   -2.6945    2.2567 H   0  0  0  0  0  0  0  0  0  0  0  0
    4.5928   -0.8134    3.4737 H   0  0  0  0  0  0  0  0  0  0  0  0
    3.4264   -1.5718    4.5813 H   0  0  0  0  0  0  0  0  0  0  0  0
    5.3999   -4.7691    3.7911 H   0  0  0  0  0  0  0  0  0  0  0  0
    5.3108   -3.5403    4.9782 H   0  0  0  0  0  0  0  0  0  0  0  0
    3.0343   -2.8897    6.1376 H   0  0  0  0  0  0  0  0  0  0  0  0
    4.0805   -4.0386    6.8095 H   0  0  0  0  0  0  0  0  0  0  0  0
    2.3522   -4.3656    6.7452 H   0  0  0  0  0  0  0  0  0  0  0  0
    0.7940   -8.3499    6.0460 H   0  0  0  0  0  0  0  0  0  0  0  0
    2.4746   -7.2238    7.5694 H   0  0  0  0  0  0  0  0  0  0  0  0
    2.6208  -10.2146    7.9754 H   0  0  0  0  0  0  0  0  0  0  0  0
    1.2802   -9.1664    8.3939 H   0  0  0  0  0  0  0  0  0  0  0  0
    2.8655   -8.9101    9.1000 H   0  0  0  0  0  0  0  0  0  0  0  0
    0.8532  -10.7853    5.2171 H   0  0  0  0  0  0  0  0  0  0  0  0
   -0.5081  -10.6139    3.2124 H   0  0  0  0  0  0  0  0  0  0  0  0
    0.4569   -9.3260    2.5355 H   0  0  0  0  0  0  0  0  0  0  0  0
   -0.5172   -9.0611    4.0040 H   0  0  0  0  0  0  0  0  0  0  0  0
    1.8046  -12.2804    3.7837 H   0  0  0  0  0  0  0  0  0  0  0  0
    2.1163  -11.1191    2.5017 H   0  0  0  0  0  0  0  0  0  0  0  0
    4.0765  -11.9893    4.3717 H   0  0  0  0  0  0  0  0  0  0  0  0
    4.1957  -10.5903    3.2946 H   0  0  0  0  0  0  0  0  0  0  0  0
    3.0831  -10.7497    6.0704 H   0  0  0  0  0  0  0  0  0  0  0  0
    2.5883   -8.7997    3.9983 H   0  0  0  0  0  0  0  0  0  0  0  0
  1  2  1  0
  1 33  1  0
  1 34  1  0
  1 35  1  0
  2 32  1  0
  2  3  1  0
  2 36  1  6
  3 25  1  0
  3  4  1  0
  3 37  1  1
  4  5  1  0
  4 38  1  0
  4 39  1  0
  5 22  1  0
  5  6  1  6
  5  7  1  0
  6 40  1  0
  6 41  1  0
  6 42  1  0
  7  8  1  0
  7 24  1  0
  7 43  1  1
  8  9  1  0
  8 44  1  0
  8 45  1  0
  9 10  1  0
  9 46  1  0
  9 47  1  0
 10 22  1  0
 10 11  1  1
 10 12  1  0
 11 48  1  0
 11 49  1  0
 11 50  1  0
 12 19  1  0
 12 13  1  0
 12 51  1  6
 13 20  1  0
 13 14  1  0
 13 52  1  1
 14 15  1  0
 14 53  1  0
 14 54  1  0
 15 16  1  0
 15 17  1  0
 15 18  1  0
 16 55  1  0
 16 56  1  0
 16 57  1  0
 17 58  1  0
 17 59  1  0
 17 60  1  0
 19 18  1  6
 18 61  1  0
 18 62  1  0
 19 20  1  0
 19 21  1  0
 20 63  1  0
 20 64  1  0
 21 22  1  0
 21 65  1  0
 21 66  1  0
 22 23  1  1
 23 67  1  0
 23 68  1  0
 23 69  1  0
 24 25  1  0
 24 27  1  0
 24 70  1  1
 25 26  1  0
 25 71  1  1
 26 72  1  0
 26 73  1  0
 26 74  1  0
 27 32  1  0
 27 28  1  0
 27 84  1  6
 28 29  1  0
 28 30  1  0
 28 75  1  1
 29 76  1  0
 29 77  1  0
 29 78  1  0
 30 31  1  0
 30 79  1  0
 30 80  1  0
 31 32  1  0
 31 81  1  0
 31 82  1  0
 32 83  1  1
M  CHG  1  27   1
M  END
>  <i_m_ct_stereo_status>  (282) 
1

>  <s_m_source_file>  (282) 
/var/tmp/pbs.5076255.sched01/tmpz7m1v8ep/860kfiy9lw.sdf

>  <i_m_source_file_index>  (282) 
41

>  <i_lp_mmshare_version>  (282) 
48012

>  <i_f3d_flags>  (282) 
0

>  <s_epik_input>  (282) 
W0NIM11bQ0BIXTFbQ0BIXShbQ0gyXTIpW0NAQEhdKFtDSDNdKVtDQEhdKFtDSDJdW0NIMl1bQ0BASF0zW0NIM10pTjNbQ0BASF0xW0NASF0oW0NIMl1bQ0gyXTQpW0NAQF0yKFtDSDNdKVtDQF0oW0NIMl01KShbQ0gzXSlbQ0BAXTQoW0NIM10pW0NASF0oW0NAQF01NjcpW0NAQEhdKFtDSDJdNylbQ0gyXUMoW0NIM10pKFtDSDNdKVtDSDJdNg==

>  <s_epik_cmdline>  (282) 
J2VwaWtfcHl0aG9uJywgJy1waHQnLCAnMi4wJywgJy1waCcsICc3LjAnLCAnLXRuJywgJzgnLCAnLW1hJywgJzIwMCcsICctaW1hZScsICc8aW5maWxlLm1hZT4nLCAnLW9tYWUnLCAnPG91dGZpbGUubWFlPic=

>  <r_lp_tautomer_probability>  (282) 
1

>  <r_epik_Ionization_Penalty>  (282) 
5.58096e-05

>  <r_epik_Ionization_Penalty_Charging>  (282) 
5.58096e-05

>  <r_epik_Ionization_Penalty_Neutral>  (282) 
0

>  <r_epik_State_Penalty>  (282) 
-0

>  <r_epik_Charging_Adjusted_Penalty>  (282) 
5.58096e-05

>  <i_epik_Tot_Q>  (282) 
1

>  <i_epik_Tot_abs_Q>  (282) 
1

>  <s_lp_Force_Field>  (282) 
OPLS3e

>  <r_lp_Energy>  (282) 
136.775

>  <b_lp_Chiralities_Consistent>  (282) 
1

>  <s_lp_Variant>  (282) 
85:0-1

>  <s_i_glide_gridfile>  (282) 
pfpi4k_grid

>  <i_i_glide_lignum>  (282) 
41

>  <i_i_glide_rotatable_bonds>  (282) 
0

>  <r_i_docking_score>  (282) 
-2.37759

>  <r_i_glide_ligand_efficiency>  (282) 
-0.0742998

>  <r_i_glide_ligand_efficiency_sa>  (282) 
-0.235887

>  <r_i_glide_ligand_efficiency_ln>  (282) 
-0.532408

>  <r_i_glide_gscore>  (282) 
-2.37759

>  <r_i_glide_lipo>  (282) 
-0.298975

>  <r_i_glide_hbond>  (282) 
0

>  <r_i_glide_metal>  (282) 
-0

>  <r_i_glide_rewards>  (282) 
-0.417605

>  <r_i_glide_evdw>  (282) 
-24.3185

>  <r_i_glide_ecoul>  (282) 
-2.8601

>  <r_i_glide_erotb>  (282) 
0

>  <r_i_glide_esite>  (282) 
-0.0160764

>  <r_i_glide_emodel>  (282) 
-31.8654

>  <r_i_glide_energy>  (282) 
-27.1786

>  <r_i_glide_einternal>  (282) 
0

>  <r_i_glide_intrahb_reward>  (282) 
-0

>  <i_i_glide_confnum>  (282) 
2

>  <i_i_glide_posenum>  (282) 
26

>  <r_i_glide_eff_state_penalty>  (282) 
0

>  <ligand_id>  (282) 
85

>  <original_smiles>  (282) 
CC1C2CC3(C)C(CCC4(C)C5C6CC(C)(C)CC5(C6)CC34C)C(C2C)N2C(C)CCC12

>  <smiles>  (282) 
[H]C([H])([H])C1([H])C2([H])C([H])([H])C3(C([H])([H])[H])C([H])(C([H])([H])C([H])([H])C4(C([H])([H])[H])C5([H])C6([H])C([H])([H])C(C([H])([H])[H])(C([H])([H])[H])C([H])([H])C5(C6([H])[H])C([H])([H])C43C([H])([H])[H])C([H])(C2([H])C([H])([H])[H])[N+]2([H])C([H])(C([H])([H])[H])C([H])([H])C([H])([H])C12[H]

$$$$
85:0:1
     RDKit          3D

 84 90  0  0  1  0  0  0  0  0999 V2000
    6.8017   -9.6526    6.1073 C   0  0  0  0  0  0  0  0  0  0  0  0
    5.3358   -9.2164    5.9077 C   0  0  2  0  0  0  0  0  0  0  0  0
    4.7255   -8.6940    7.2444 C   0  0  1  0  0  0  0  0  0  0  0  0
    4.2525   -7.2229    7.1746 C   0  0  0  0  0  0  0  0  0  0  0  0
    2.9176   -6.9293    6.3858 C   0  0  1  0  0  0  0  0  0  0  0  0
    3.3193   -6.7971    4.8755 C   0  0  0  0  0  0  0  0  0  0  0  0
    1.8873   -8.1092    6.5801 C   0  0  1  0  0  0  0  0  0  0  0  0
    0.6169   -7.9384    5.7319 C   0  0  0  0  0  0  0  0  0  0  0  0
    0.3167   -6.4897    5.2944 C   0  0  0  0  0  0  0  0  0  0  0  0
    0.7194   -5.3724    6.3068 C   0  0  2  0  0  0  0  0  0  0  0  0
   -0.4440   -5.3604    7.3420 C   0  0  0  0  0  0  0  0  0  0  0  0
    0.7595   -4.0241    5.5551 C   0  0  1  0  0  0  0  0  0  0  0  0
    0.0591   -2.6893    5.9046 C   0  0  2  0  0  0  0  0  0  0  0  0
    0.0452   -1.7101    4.7297 C   0  0  0  0  0  0  0  0  0  0  0  0
    1.4860   -1.4369    4.1543 C   0  0  0  0  0  0  0  0  0  0  0  0
    1.4339   -1.5768    2.6217 C   0  0  0  0  0  0  0  0  0  0  0  0
    1.8907    0.0205    4.4725 C   0  0  0  0  0  0  0  0  0  0  0  0
    2.5729   -2.4295    4.7190 C   0  0  0  0  0  0  0  0  0  0  0  0
    2.0418   -3.2743    5.8891 C   0  0  1  0  0  0  0  0  0  0  0  0
    1.1975   -2.4657    6.8915 C   0  0  0  0  0  0  0  0  0  0  0  0
    3.0264   -4.2870    6.4622 C   0  0  0  0  0  0  0  0  0  0  0  0
    2.2075   -5.5682    6.8979 C   0  0  2  0  0  0  0  0  0  0  0  0
    2.1497   -5.5106    8.4675 C   0  0  0  0  0  0  0  0  0  0  0  0
    2.4633   -9.5699    6.6407 C   0  0  2  0  0  0  0  0  0  0  0  0
    3.5423   -9.5385    7.7599 C   0  0  1  0  0  0  0  0  0  0  0  0
    3.9143  -10.8737    8.4486 C   0  0  0  0  0  0  0  0  0  0  0  0
    3.0121  -10.0156    5.3174 N   0  0  2  0  0  0  0  0  0  0  0  0
    2.4085  -11.1720    4.6053 C   0  0  1  0  0  0  0  0  0  0  0  0
    0.9629  -11.0105    4.1125 C   0  0  0  0  0  0  0  0  0  0  0  0
    3.3871  -11.4108    3.4343 C   0  0  0  0  0  0  0  0  0  0  0  0
    4.6978  -10.7101    3.8327 C   0  0  0  0  0  0  0  0  0  0  0  0
    4.4555  -10.3307    5.2892 C   0  0  1  0  0  0  0  0  0  0  0  0
    6.8949  -10.4697    6.8267 H   0  0  0  0  0  0  0  0  0  0  0  0
    7.3964   -8.8171    6.4844 H   0  0  0  0  0  0  0  0  0  0  0  0
    7.2595   -9.9764    5.1700 H   0  0  0  0  0  0  0  0  0  0  0  0
    5.3871   -8.4015    5.1913 H   0  0  0  0  0  0  0  0  0  0  0  0
    5.5055   -8.7176    8.0029 H   0  0  0  0  0  0  0  0  0  0  0  0
    4.1711   -6.9488    8.2197 H   0  0  0  0  0  0  0  0  0  0  0  0
    5.0628   -6.5907    6.8090 H   0  0  0  0  0  0  0  0  0  0  0  0
    2.8219   -5.9825    4.3560 H   0  0  0  0  0  0  0  0  0  0  0  0
    3.1216   -7.6878    4.2906 H   0  0  0  0  0  0  0  0  0  0  0  0
    4.3718   -6.5571    4.7394 H   0  0  0  0  0  0  0  0  0  0  0  0
    1.4900   -7.9826    7.5836 H   0  0  0  0  0  0  0  0  0  0  0  0
    0.6806   -8.5335    4.8281 H   0  0  0  0  0  0  0  0  0  0  0  0
   -0.2316   -8.3386    6.2869 H   0  0  0  0  0  0  0  0  0  0  0  0
    0.7922   -6.3218    4.3297 H   0  0  0  0  0  0  0  0  0  0  0  0
   -0.7414   -6.4167    5.0430 H   0  0  0  0  0  0  0  0  0  0  0  0
   -0.4034   -4.5345    8.0498 H   0  0  0  0  0  0  0  0  0  0  0  0
   -0.4982   -6.2847    7.9169 H   0  0  0  0  0  0  0  0  0  0  0  0
   -1.4050   -5.2438    6.8357 H   0  0  0  0  0  0  0  0  0  0  0  0
    0.7014   -4.1732    4.4745 H   0  0  0  0  0  0  0  0  0  0  0  0
   -0.9076   -2.8073    6.3901 H   0  0  0  0  0  0  0  0  0  0  0  0
   -0.5902   -2.1170    3.9444 H   0  0  0  0  0  0  0  0  0  0  0  0
   -0.4390   -0.7770    5.0120 H   0  0  0  0  0  0  0  0  0  0  0  0
    2.4042   -1.3732    2.1623 H   0  0  0  0  0  0  0  0  0  0  0  0
    0.7036   -0.8942    2.1795 H   0  0  0  0  0  0  0  0  0  0  0  0
    1.1463   -2.5938    2.3561 H   0  0  0  0  0  0  0  0  0  0  0  0
    2.8653    0.2680    4.0480 H   0  0  0  0  0  0  0  0  0  0  0  0
    1.9492    0.2066    5.5438 H   0  0  0  0  0  0  0  0  0  0  0  0
    1.1759    0.7334    4.0598 H   0  0  0  0  0  0  0  0  0  0  0  0
    2.9111   -3.0931    3.9229 H   0  0  0  0  0  0  0  0  0  0  0  0
    3.4684   -1.8843    5.0175 H   0  0  0  0  0  0  0  0  0  0  0  0
    1.5073   -1.4251    7.0124 H   0  0  0  0  0  0  0  0  0  0  0  0
    1.0401   -2.9155    7.8652 H   0  0  0  0  0  0  0  0  0  0  0  0
    3.8143   -4.5001    5.7440 H   0  0  0  0  0  0  0  0  0  0  0  0
    3.5666   -3.8527    7.3053 H   0  0  0  0  0  0  0  0  0  0  0  0
    1.5873   -4.6618    8.8463 H   0  0  0  0  0  0  0  0  0  0  0  0
    3.1264   -5.3608    8.9289 H   0  0  0  0  0  0  0  0  0  0  0  0
    1.6999   -6.3936    8.9213 H   0  0  0  0  0  0  0  0  0  0  0  0
    1.6645  -10.2513    6.9404 H   0  0  0  0  0  0  0  0  0  0  0  0
    3.1108   -8.9916    8.6026 H   0  0  0  0  0  0  0  0  0  0  0  0
    4.4897  -11.5695    7.8474 H   0  0  0  0  0  0  0  0  0  0  0  0
    3.0243  -11.3941    8.7792 H   0  0  0  0  0  0  0  0  0  0  0  0
    4.5072  -10.6813    9.3434 H   0  0  0  0  0  0  0  0  0  0  0  0
    2.4449  -12.0400    5.2734 H   0  0  0  0  0  0  0  0  0  0  0  0
    0.6538  -11.9311    3.6155 H   0  0  0  0  0  0  0  0  0  0  0  0
    0.8571  -10.2082    3.3817 H   0  0  0  0  0  0  0  0  0  0  0  0
    0.2629  -10.8430    4.9307 H   0  0  0  0  0  0  0  0  0  0  0  0
    3.5282  -12.4772    3.2533 H   0  0  0  0  0  0  0  0  0  0  0  0
    3.0131  -10.9758    2.5050 H   0  0  0  0  0  0  0  0  0  0  0  0
    5.5654  -11.3577    3.7117 H   0  0  0  0  0  0  0  0  0  0  0  0
    4.8494   -9.8158    3.2253 H   0  0  0  0  0  0  0  0  0  0  0  0
    4.6237  -11.2529    5.8418 H   0  0  0  0  0  0  0  0  0  0  0  0
    2.9041   -9.2229    4.7042 H   0  0  0  0  0  0  0  0  0  0  0  0
  1  2  1  0
  1 33  1  0
  1 34  1  0
  1 35  1  0
  2 32  1  0
  2  3  1  0
  2 36  1  6
  3 25  1  0
  3  4  1  0
  3 37  1  1
  4  5  1  0
  4 38  1  0
  4 39  1  0
  5 22  1  0
  5  6  1  6
  5  7  1  0
  6 40  1  0
  6 41  1  0
  6 42  1  0
  7  8  1  0
  7 24  1  0
  7 43  1  1
  8  9  1  0
  8 44  1  0
  8 45  1  0
  9 10  1  0
  9 46  1  0
  9 47  1  0
 10 22  1  0
 10 11  1  1
 10 12  1  0
 11 48  1  0
 11 49  1  0
 11 50  1  0
 12 19  1  0
 12 13  1  0
 12 51  1  6
 13 20  1  0
 13 14  1  0
 13 52  1  1
 14 15  1  0
 14 53  1  0
 14 54  1  0
 15 16  1  0
 15 17  1  0
 15 18  1  0
 16 55  1  0
 16 56  1  0
 16 57  1  0
 17 58  1  0
 17 59  1  0
 17 60  1  0
 19 18  1  6
 18 61  1  0
 18 62  1  0
 19 20  1  0
 19 21  1  0
 20 63  1  0
 20 64  1  0
 21 22  1  0
 21 65  1  0
 21 66  1  0
 22 23  1  1
 23 67  1  0
 23 68  1  0
 23 69  1  0
 24 25  1  0
 24 27  1  0
 24 70  1  1
 25 26  1  0
 25 71  1  1
 26 72  1  0
 26 73  1  0
 26 74  1  0
 27 32  1  0
 27 28  1  0
 27 84  1  6
 28 29  1  0
 28 30  1  0
 28 75  1  1
 29 76  1  0
 29 77  1  0
 29 78  1  0
 30 31  1  0
 30 79  1  0
 30 80  1  0
 31 32  1  0
 31 81  1  0
 31 82  1  0
 32 83  1  1
M  CHG  1  27   1
M  END
>  <i_m_ct_stereo_status>  (283) 
1

>  <s_m_source_file>  (283) 
/var/tmp/pbs.5076255.sched01/tmpz7m1v8ep/860kfiy9lw.sdf

>  <i_m_source_file_index>  (283) 
41

>  <i_lp_mmshare_version>  (283) 
48012

>  <i_f3d_flags>  (283) 
0

>  <s_epik_input>  (283) 
W0NIM11bQ0BIXTFbQ0BIXShbQ0gyXTIpW0NAQEhdKFtDSDNdKVtDQEhdKFtDSDJdW0NIMl1bQ0BASF0zW0NIM10pTjNbQ0BASF0xW0NASF0oW0NIMl1bQ0gyXTQpW0NAQF0yKFtDSDNdKVtDQF0oW0NIMl01KShbQ0gzXSlbQ0BAXTQoW0NIM10pW0NASF0oW0NAQF01NjcpW0NAQEhdKFtDSDJdNylbQ0gyXUMoW0NIM10pKFtDSDNdKVtDSDJdNg==

>  <s_epik_cmdline>  (283) 
J2VwaWtfcHl0aG9uJywgJy1waHQnLCAnMi4wJywgJy1waCcsICc3LjAnLCAnLXRuJywgJzgnLCAnLW1hJywgJzIwMCcsICctaW1hZScsICc8aW5maWxlLm1hZT4nLCAnLW9tYWUnLCAnPG91dGZpbGUubWFlPic=

>  <r_lp_tautomer_probability>  (283) 
1

>  <r_epik_Ionization_Penalty>  (283) 
5.58096e-05

>  <r_epik_Ionization_Penalty_Charging>  (283) 
5.58096e-05

>  <r_epik_Ionization_Penalty_Neutral>  (283) 
0

>  <r_epik_State_Penalty>  (283) 
-0

>  <r_epik_Charging_Adjusted_Penalty>  (283) 
5.58096e-05

>  <i_epik_Tot_Q>  (283) 
1

>  <i_epik_Tot_abs_Q>  (283) 
1

>  <s_lp_Force_Field>  (283) 
OPLS3e

>  <r_lp_Energy>  (283) 
136.775

>  <b_lp_Chiralities_Consistent>  (283) 
1

>  <s_lp_Variant>  (283) 
85:0-1

>  <s_i_glide_gridfile>  (283) 
pfpi4k_grid

>  <i_i_glide_lignum>  (283) 
41

>  <i_i_glide_rotatable_bonds>  (283) 
0

>  <r_i_docking_score>  (283) 
-2.16425

>  <r_i_glide_ligand_efficiency>  (283) 
-0.0676327

>  <r_i_glide_ligand_efficiency_sa>  (283) 
-0.21472

>  <r_i_glide_ligand_efficiency_ln>  (283) 
-0.484634

>  <r_i_glide_gscore>  (283) 
-2.16425

>  <r_i_glide_lipo>  (283) 
-0.128507

>  <r_i_glide_hbond>  (283) 
0

>  <r_i_glide_metal>  (283) 
-0

>  <r_i_glide_rewards>  (283) 
-0.417605

>  <r_i_glide_evdw>  (283) 
-21.3949

>  <r_i_glide_ecoul>  (283) 
-3.45982

>  <r_i_glide_erotb>  (283) 
0

>  <r_i_glide_esite>  (283) 
-0.0294147

>  <r_i_glide_emodel>  (283) 
-29.157

>  <r_i_glide_energy>  (283) 
-24.8548

>  <r_i_glide_einternal>  (283) 
0

>  <r_i_glide_intrahb_reward>  (283) 
-0

>  <i_i_glide_confnum>  (283) 
2

>  <i_i_glide_posenum>  (283) 
25

>  <r_i_glide_eff_state_penalty>  (283) 
0

>  <ligand_id>  (283) 
85

>  <original_smiles>  (283) 
CC1C2CC3(C)C(CCC4(C)C5C6CC(C)(C)CC5(C6)CC34C)C(C2C)N2C(C)CCC12

>  <smiles>  (283) 
[H]C([H])([H])C1([H])C2([H])C([H])([H])C3(C([H])([H])[H])C([H])(C([H])([H])C([H])([H])C4(C([H])([H])[H])C5([H])C6([H])C([H])([H])C(C([H])([H])[H])(C([H])([H])[H])C([H])([H])C5(C6([H])[H])C([H])([H])C43C([H])([H])[H])C([H])(C2([H])C([H])([H])[H])[N+]2([H])C([H])(C([H])([H])[H])C([H])([H])C([H])([H])C12[H]

$$$$
85:0:2
     RDKit          3D

 84 90  0  0  1  0  0  0  0  0999 V2000
    4.1806   -8.4541    1.2372 C   0  0  0  0  0  0  0  0  0  0  0  0
    3.4669   -7.9481    2.5104 C   0  0  2  0  0  0  0  0  0  0  0  0
    4.4835   -7.2911    3.4929 C   0  0  1  0  0  0  0  0  0  0  0  0
    4.1800   -5.8055    3.7971 C   0  0  0  0  0  0  0  0  0  0  0  0
    2.9672   -5.4994    4.7598 C   0  0  1  0  0  0  0  0  0  0  0  0
    1.6779   -5.5060    3.8645 C   0  0  0  0  0  0  0  0  0  0  0  0
    2.8637   -6.5995    5.8873 C   0  0  1  0  0  0  0  0  0  0  0  0
    1.6256   -6.4241    6.7822 C   0  0  0  0  0  0  0  0  0  0  0  0
    1.0354   -4.9993    6.7968 C   0  0  0  0  0  0  0  0  0  0  0  0
    2.0642   -3.8316    6.6734 C   0  0  2  0  0  0  0  0  0  0  0  0
    2.6385   -3.6771    8.1119 C   0  0  0  0  0  0  0  0  0  0  0  0
    1.3026   -2.5489    6.2765 C   0  0  1  0  0  0  0  0  0  0  0  0
    1.3162   -1.1574    6.9464 C   0  0  2  0  0  0  0  0  0  0  0  0
    0.1536   -0.2730    6.4907 C   0  0  0  0  0  0  0  0  0  0  0  0
    0.0862   -0.1266    4.9256 C   0  0  0  0  0  0  0  0  0  0  0  0
   -1.3654   -0.3746    4.4805 C   0  0  0  0  0  0  0  0  0  0  0  0
    0.4467    1.3268    4.5365 C   0  0  0  0  0  0  0  0  0  0  0  0
    1.0399   -1.1315    4.1696 C   0  0  0  0  0  0  0  0  0  0  0  0
    2.0061   -1.8516    5.1258 C   0  0  1  0  0  0  0  0  0  0  0  0
    2.6172   -0.9217    6.1906 C   0  0  0  0  0  0  0  0  0  0  0  0
    2.9337   -2.8684    4.4724 C   0  0  0  0  0  0  0  0  0  0  0  0
    3.1342   -4.0651    5.4880 C   0  0  2  0  0  0  0  0  0  0  0  0
    4.5865   -3.8829    6.0666 C   0  0  0  0  0  0  0  0  0  0  0  0
    3.1952   -8.0827    5.4808 C   0  0  2  0  0  0  0  0  0  0  0  0
    4.6091   -8.0268    4.8430 C   0  0  1  0  0  0  0  0  0  0  0  0
    5.4438   -9.3285    4.8344 C   0  0  0  0  0  0  0  0  0  0  0  0
    2.1666   -8.6573    4.5547 N   0  0  2  0  0  0  0  0  0  0  0  0
    1.3502   -9.8320    4.9738 C   0  0  1  0  0  0  0  0  0  0  0  0
    0.3917   -9.6161    6.1584 C   0  0  0  0  0  0  0  0  0  0  0  0
    0.6042  -10.2112    3.6773 C   0  0  0  0  0  0  0  0  0  0  0  0
    1.3820   -9.5494    2.5271 C   0  0  0  0  0  0  0  0  0  0  0  0
    2.6471   -9.0561    3.2098 C   0  0  1  0  0  0  0  0  0  0  0  0
    4.9350   -9.2150    1.4548 H   0  0  0  0  0  0  0  0  0  0  0  0
    4.6874   -7.6263    0.7334 H   0  0  0  0  0  0  0  0  0  0  0  0
    3.4782   -8.8850    0.5216 H   0  0  0  0  0  0  0  0  0  0  0  0
    2.7706   -7.1947    2.1548 H   0  0  0  0  0  0  0  0  0  0  0  0
    5.4647   -7.2997    3.0153 H   0  0  0  0  0  0  0  0  0  0  0  0
    5.1179   -5.4449    4.2018 H   0  0  0  0  0  0  0  0  0  0  0  0
    4.0778   -5.2515    2.8634 H   0  0  0  0  0  0  0  0  0  0  0  0
    0.9784   -4.7066    4.0939 H   0  0  0  0  0  0  0  0  0  0  0  0
    1.1110   -6.4266    3.9254 H   0  0  0  0  0  0  0  0  0  0  0  0
    1.8973   -5.3361    2.8137 H   0  0  0  0  0  0  0  0  0  0  0  0
    3.6655   -6.3731    6.5852 H   0  0  0  0  0  0  0  0  0  0  0  0
    0.8315   -7.0911    6.4693 H   0  0  0  0  0  0  0  0  0  0  0  0
    1.8784   -6.7203    7.7999 H   0  0  0  0  0  0  0  0  0  0  0  0
    0.2805   -4.9351    6.0156 H   0  0  0  0  0  0  0  0  0  0  0  0
    0.4360   -4.8864    7.7015 H   0  0  0  0  0  0  0  0  0  0  0  0
    3.2706   -2.8019    8.2465 H   0  0  0  0  0  0  0  0  0  0  0  0
    3.2097   -4.5506    8.4301 H   0  0  0  0  0  0  0  0  0  0  0  0
    1.8300   -3.5454    8.8335 H   0  0  0  0  0  0  0  0  0  0  0  0
    0.2788   -2.7767    5.9806 H   0  0  0  0  0  0  0  0  0  0  0  0
    1.4556   -1.1792    8.0255 H   0  0  0  0  0  0  0  0  0  0  0  0
   -0.7790   -0.6977    6.8623 H   0  0  0  0  0  0  0  0  0  0  0  0
    0.2132    0.7050    6.9659 H   0  0  0  0  0  0  0  0  0  0  0  0
   -1.4705   -0.2383    3.4018 H   0  0  0  0  0  0  0  0  0  0  0  0
   -2.0620    0.3098    4.9707 H   0  0  0  0  0  0  0  0  0  0  0  0
   -1.6704   -1.3932    4.7227 H   0  0  0  0  0  0  0  0  0  0  0  0
    0.3695    1.4880    3.4588 H   0  0  0  0  0  0  0  0  0  0  0  0
    1.4627    1.5902    4.8256 H   0  0  0  0  0  0  0  0  0  0  0  0
   -0.2189    2.0480    5.0129 H   0  0  0  0  0  0  0  0  0  0  0  0
    0.4423   -1.8702    3.6324 H   0  0  0  0  0  0  0  0  0  0  0  0
    1.5963   -0.6125    3.3873 H   0  0  0  0  0  0  0  0  0  0  0  0
    2.7782    0.1049    5.8611 H   0  0  0  0  0  0  0  0  0  0  0  0
    3.4998   -1.2857    6.7040 H   0  0  0  0  0  0  0  0  0  0  0  0
    2.5413   -3.1807    3.5072 H   0  0  0  0  0  0  0  0  0  0  0  0
    3.8866   -2.4010    4.2185 H   0  0  0  0  0  0  0  0  0  0  0  0
    4.7030   -2.9775    6.6560 H   0  0  0  0  0  0  0  0  0  0  0  0
    5.3440   -3.7525    5.2948 H   0  0  0  0  0  0  0  0  0  0  0  0
    4.9057   -4.7003    6.7122 H   0  0  0  0  0  0  0  0  0  0  0  0
    3.2441   -8.6886    6.3873 H   0  0  0  0  0  0  0  0  0  0  0  0
    5.2249   -7.3938    5.4847 H   0  0  0  0  0  0  0  0  0  0  0  0
    5.1209  -10.0949    4.1343 H   0  0  0  0  0  0  0  0  0  0  0  0
    5.4617   -9.7798    5.8283 H   0  0  0  0  0  0  0  0  0  0  0  0
    6.4807   -9.1030    4.5728 H   0  0  0  0  0  0  0  0  0  0  0  0
    2.0294  -10.6493    5.2356 H   0  0  0  0  0  0  0  0  0  0  0  0
   -0.1285  -10.5545    6.3564 H   0  0  0  0  0  0  0  0  0  0  0  0
   -0.3808   -8.8762    5.9475 H   0  0  0  0  0  0  0  0  0  0  0  0
    0.9118   -9.3491    7.0774 H   0  0  0  0  0  0  0  0  0  0  0  0
    0.5467  -11.2936    3.5697 H   0  0  0  0  0  0  0  0  0  0  0  0
   -0.4212   -9.8372    3.6896 H   0  0  0  0  0  0  0  0  0  0  0  0
    1.6008  -10.2460    1.7178 H   0  0  0  0  0  0  0  0  0  0  0  0
    0.8143   -8.7111    2.1195 H   0  0  0  0  0  0  0  0  0  0  0  0
    3.2680   -9.9408    3.3087 H   0  0  0  0  0  0  0  0  0  0  0  0
    1.5125   -7.9141    4.3866 H   0  0  0  0  0  0  0  0  0  0  0  0
  1  2  1  0
  1 33  1  0
  1 34  1  0
  1 35  1  0
  2 32  1  0
  2  3  1  0
  2 36  1  6
  3 25  1  0
  3  4  1  0
  3 37  1  6
  4  5  1  0
  4 38  1  0
  4 39  1  0
  5 22  1  0
  5  6  1  6
  5  7  1  0
  6 40  1  0
  6 41  1  0
  6 42  1  0
  7  8  1  0
  7 24  1  0
  7 43  1  1
  8  9  1  0
  8 44  1  0
  8 45  1  0
  9 10  1  0
  9 46  1  0
  9 47  1  0
 10 22  1  0
 10 11  1  1
 10 12  1  0
 11 48  1  0
 11 49  1  0
 11 50  1  0
 12 19  1  0
 12 13  1  0
 12 51  1  6
 13 20  1  0
 13 14  1  0
 13 52  1  1
 14 15  1  0
 14 53  1  0
 14 54  1  0
 15 16  1  0
 15 17  1  0
 15 18  1  0
 16 55  1  0
 16 56  1  0
 16 57  1  0
 17 58  1  0
 17 59  1  0
 17 60  1  0
 19 18  1  6
 18 61  1  0
 18 62  1  0
 19 20  1  0
 19 21  1  0
 20 63  1  0
 20 64  1  0
 21 22  1  0
 21 65  1  0
 21 66  1  0
 22 23  1  1
 23 67  1  0
 23 68  1  0
 23 69  1  0
 24 25  1  0
 24 27  1  0
 24 70  1  1
 25 26  1  0
 25 71  1  1
 26 72  1  0
 26 73  1  0
 26 74  1  0
 27 32  1  0
 27 28  1  0
 27 84  1  6
 28 29  1  0
 28 30  1  0
 28 75  1  1
 29 76  1  0
 29 77  1  0
 29 78  1  0
 30 31  1  0
 30 79  1  0
 30 80  1  0
 31 32  1  0
 31 81  1  0
 31 82  1  0
 32 83  1  1
M  CHG  1  27   1
M  END
>  <i_m_ct_stereo_status>  (284) 
1

>  <s_m_source_file>  (284) 
/var/tmp/pbs.5076255.sched01/tmpz7m1v8ep/860kfiy9lw.sdf

>  <i_m_source_file_index>  (284) 
41

>  <i_lp_mmshare_version>  (284) 
48012

>  <i_f3d_flags>  (284) 
0

>  <s_epik_input>  (284) 
W0NIM11bQ0BIXTFbQ0BIXShbQ0gyXTIpW0NAQEhdKFtDSDNdKVtDQEhdKFtDSDJdW0NIMl1bQ0BASF0zW0NIM10pTjNbQ0BASF0xW0NASF0oW0NIMl1bQ0gyXTQpW0NAQF0yKFtDSDNdKVtDQF0oW0NIMl01KShbQ0gzXSlbQ0BAXTQoW0NIM10pW0NASF0oW0NAQF01NjcpW0NAQEhdKFtDSDJdNylbQ0gyXUMoW0NIM10pKFtDSDNdKVtDSDJdNg==

>  <s_epik_cmdline>  (284) 
J2VwaWtfcHl0aG9uJywgJy1waHQnLCAnMi4wJywgJy1waCcsICc3LjAnLCAnLXRuJywgJzgnLCAnLW1hJywgJzIwMCcsICctaW1hZScsICc8aW5maWxlLm1hZT4nLCAnLW9tYWUnLCAnPG91dGZpbGUubWFlPic=

>  <r_lp_tautomer_probability>  (284) 
1

>  <r_epik_Ionization_Penalty>  (284) 
5.58096e-05

>  <r_epik_Ionization_Penalty_Charging>  (284) 
5.58096e-05

>  <r_epik_Ionization_Penalty_Neutral>  (284) 
0

>  <r_epik_State_Penalty>  (284) 
-0

>  <r_epik_Charging_Adjusted_Penalty>  (284) 
5.58096e-05

>  <i_epik_Tot_Q>  (284) 
1

>  <i_epik_Tot_abs_Q>  (284) 
1

>  <s_lp_Force_Field>  (284) 
OPLS3e

>  <r_lp_Energy>  (284) 
136.775

>  <b_lp_Chiralities_Consistent>  (284) 
1

>  <s_lp_Variant>  (284) 
85:0-1

>  <s_i_glide_gridfile>  (284) 
pfpi4k_grid

>  <i_i_glide_lignum>  (284) 
41

>  <i_i_glide_rotatable_bonds>  (284) 
0

>  <r_i_docking_score>  (284) 
-2.01591

>  <r_i_glide_ligand_efficiency>  (284) 
-0.0629971

>  <r_i_glide_ligand_efficiency_sa>  (284) 
-0.200003

>  <r_i_glide_ligand_efficiency_ln>  (284) 
-0.451416

>  <r_i_glide_gscore>  (284) 
-2.01591

>  <r_i_glide_lipo>  (284) 
-0.0861155

>  <r_i_glide_hbond>  (284) 
0

>  <r_i_glide_metal>  (284) 
-0

>  <r_i_glide_rewards>  (284) 
-0.417605

>  <r_i_glide_evdw>  (284) 
-22.9968

>  <r_i_glide_ecoul>  (284) 
-2.363

>  <r_i_glide_erotb>  (284) 
0

>  <r_i_glide_esite>  (284) 
-0.00789396

>  <r_i_glide_emodel>  (284) 
-29.3406

>  <r_i_glide_energy>  (284) 
-25.3598

>  <r_i_glide_einternal>  (284) 
0

>  <r_i_glide_intrahb_reward>  (284) 
-0

>  <i_i_glide_confnum>  (284) 
2

>  <i_i_glide_posenum>  (284) 
30

>  <r_i_glide_eff_state_penalty>  (284) 
0

>  <ligand_id>  (284) 
85

>  <original_smiles>  (284) 
CC1C2CC3(C)C(CCC4(C)C5C6CC(C)(C)CC5(C6)CC34C)C(C2C)N2C(C)CCC12

>  <smiles>  (284) 
[H]C([H])([H])C1([H])C2([H])C([H])([H])C3(C([H])([H])[H])C([H])(C([H])([H])C([H])([H])C4(C([H])([H])[H])C5([H])C6([H])C([H])([H])C(C([H])([H])[H])(C([H])([H])[H])C([H])([H])C5(C6([H])[H])C([H])([H])C43C([H])([H])[H])C([H])(C2([H])C([H])([H])[H])[N+]2([H])C([H])(C([H])([H])[H])C([H])([H])C([H])([H])C12[H]

$$$$
88:0:0
     RDKit          3D

 39 41  0  0  1  0  0  0  0  0999 V2000
    1.9412    4.1854    8.4383 C   0  0  0  0  0  0  0  0  0  0  0  0
    0.6303    3.8150    7.7596 C   0  0  0  0  0  0  0  0  0  0  0  0
   -0.5837    3.6732    8.3477 C   0  0  0  0  0  0  0  0  0  0  0  0
   -1.5664    3.3558    7.3383 C   0  0  0  0  0  0  0  0  0  0  0  0
   -0.9467    3.2876    6.1491 C   0  0  0  0  0  0  0  0  0  0  0  0
   -1.4771    2.9757    4.8148 C   0  0  0  0  0  0  0  0  0  0  0  0
   -2.6718    3.0382    4.5251 O   0  0  0  0  0  0  0  0  0  0  0  0
   -0.4198    2.5119    3.7866 C   0  0  1  0  0  0  0  0  0  0  0  0
   -0.1590    1.0109    4.0516 C   0  0  0  0  0  0  0  0  0  0  0  0
   -0.9605    2.5383    2.4785 O   0  0  0  0  0  0  0  0  0  0  0  0
    0.9019    3.3789    3.8766 C   0  0  1  0  0  0  0  0  0  0  0  0
    2.0762    2.7784    3.0723 C   0  0  0  0  0  0  0  0  0  0  0  0
    0.6555    4.6503    3.2930 O   0  0  0  0  0  0  0  0  0  0  0  0
    1.3256    3.6270    5.3292 C   0  0  0  0  0  0  0  0  0  0  0  0
    0.4439    3.5665    6.3443 C   0  0  0  0  0  0  0  0  0  0  0  0
   -2.9620    3.1620    7.6710 C   0  0  0  0  0  0  0  0  0  0  0  0
   -3.3965    3.3300    8.9366 C   0  0  0  0  0  0  0  0  0  0  0  0
   -2.4765    3.7106   10.0413 C   0  0  0  0  0  0  0  0  0  0  0  0
   -2.9065    3.9465   11.1662 O   0  0  0  0  0  0  0  0  0  0  0  0
   -0.9430    3.8223    9.8268 C   0  0  1  0  0  0  0  0  0  0  0  0
   -0.2077    2.8149   10.7214 C   0  0  0  0  0  0  0  0  0  0  0  0
    2.5816    4.7355    7.7481 H   0  0  0  0  0  0  0  0  0  0  0  0
    2.4754    3.2897    8.7576 H   0  0  0  0  0  0  0  0  0  0  0  0
    1.7647    4.8201    9.3089 H   0  0  0  0  0  0  0  0  0  0  0  0
    0.3400    0.8463    5.0079 H   0  0  0  0  0  0  0  0  0  0  0  0
    0.4601    0.5644    3.2724 H   0  0  0  0  0  0  0  0  0  0  0  0
   -1.0945    0.4454    4.0668 H   0  0  0  0  0  0  0  0  0  0  0  0
   -0.5021    3.1624    1.9249 H   0  0  0  0  0  0  0  0  0  0  0  0
    2.4284    1.8373    3.4969 H   0  0  0  0  0  0  0  0  0  0  0  0
    2.9331    3.4547    3.0584 H   0  0  0  0  0  0  0  0  0  0  0  0
    1.8027    2.5914    2.0321 H   0  0  0  0  0  0  0  0  0  0  0  0
    0.5640    4.5548    2.3355 H   0  0  0  0  0  0  0  0  0  0  0  0
    2.3612    3.8586    5.5048 H   0  0  0  0  0  0  0  0  0  0  0  0
   -3.6686    2.9017    6.8953 H   0  0  0  0  0  0  0  0  0  0  0  0
   -4.4393    3.2100    9.1861 H   0  0  0  0  0  0  0  0  0  0  0  0
   -0.6685    4.8302   10.1324 H   0  0  0  0  0  0  0  0  0  0  0  0
   -0.4306    1.7905   10.4250 H   0  0  0  0  0  0  0  0  0  0  0  0
   -0.4984    2.9183   11.7695 H   0  0  0  0  0  0  0  0  0  0  0  0
    0.8701    2.9503   10.6743 H   0  0  0  0  0  0  0  0  0  0  0  0
  1  2  1  0
  1 22  1  0
  1 23  1  0
  1 24  1  0
  2 15  1  0
  2  3  2  0
  3 20  1  0
  3  4  1  0
  4  5  2  0
  4 16  1  0
  5 15  1  0
  5  6  1  0
  6  7  2  0
  6  8  1  0
  8  9  1  0
  8 10  1  6
  8 11  1  0
  9 25  1  0
  9 26  1  0
  9 27  1  0
 10 28  1  0
 11 12  1  0
 11 13  1  6
 11 14  1  0
 12 29  1  0
 12 30  1  0
 12 31  1  0
 13 32  1  0
 14 15  2  0
 14 33  1  0
 16 17  2  0
 16 34  1  0
 17 18  1  0
 17 35  1  0
 18 19  2  0
 18 20  1  0
 20 21  1  0
 20 36  1  1
 21 37  1  0
 21 38  1  0
 21 39  1  0
M  END
>  <i_m_ct_stereo_status>  (285) 
1

>  <s_m_source_file>  (285) 
/var/tmp/pbs.5076255.sched01/tmpalt_vnqi/12934k3la1h.sdf

>  <i_m_source_file_index>  (285) 
3

>  <i_lp_mmshare_version>  (285) 
48012

>  <i_f3d_flags>  (285) 
0

>  <s_epik_input>  (285) 
Tz1DMVtDQEBdKFtDSDNdKShbT0hdKVtDQEBdKFtDSDNdKShbT0hdKVtDSF09QyhDPTJbQ0gzXSlDMT1DKEMyMylbQ0hdPVtDSF1DKD1PKVtDQEhdM1tDSDNd

>  <s_epik_cmdline>  (285) 
J2VwaWtfcHl0aG9uJywgJy1waHQnLCAnMi4wJywgJy1waCcsICc3LjAnLCAnLXRuJywgJzgnLCAnLW1hJywgJzIwMCcsICctaW1hZScsICc8aW5maWxlLm1hZT4nLCAnLW9tYWUnLCAnPG91dGZpbGUubWFlPic=

>  <r_epik_Ionization_Penalty>  (285) 
0.00990847

>  <r_epik_Ionization_Penalty_Charging>  (285) 
0

>  <r_epik_Ionization_Penalty_Neutral>  (285) 
0.00990847

>  <r_epik_State_Penalty>  (285) 
0.00724771

>  <r_epik_Charging_Adjusted_Penalty>  (285) 
0.00724771

>  <i_epik_Tot_Q>  (285) 
0

>  <i_epik_Tot_abs_Q>  (285) 
0

>  <s_lp_Force_Field>  (285) 
OPLS3e

>  <r_lp_Energy>  (285) 
26.8517

>  <b_lp_Chiralities_Consistent>  (285) 
1

>  <s_lp_Variant>  (285) 
88:0-1

>  <s_i_glide_gridfile>  (285) 
pfpi4k_grid

>  <i_i_glide_lignum>  (285) 
3

>  <i_i_glide_rotatable_bonds>  (285) 
2

>  <r_i_docking_score>  (285) 
-3.72983

>  <r_i_glide_ligand_efficiency>  (285) 
-0.177611

>  <r_i_glide_ligand_efficiency_sa>  (285) 
-0.490015

>  <r_i_glide_ligand_efficiency_ln>  (285) 
-0.922193

>  <r_i_glide_gscore>  (285) 
-3.72983

>  <r_i_glide_lipo>  (285) 
-0.202825

>  <r_i_glide_hbond>  (285) 
0

>  <r_i_glide_metal>  (285) 
-0

>  <r_i_glide_rewards>  (285) 
-1.45689

>  <r_i_glide_evdw>  (285) 
-19.7376

>  <r_i_glide_ecoul>  (285) 
-6.82525

>  <r_i_glide_erotb>  (285) 
0

>  <r_i_glide_esite>  (285) 
-0.0594478

>  <r_i_glide_emodel>  (285) 
-32.2368

>  <r_i_glide_energy>  (285) 
-26.5628

>  <r_i_glide_einternal>  (285) 
2.82206

>  <r_i_glide_intrahb_reward>  (285) 
-0

>  <i_i_glide_confnum>  (285) 
1

>  <i_i_glide_posenum>  (285) 
16

>  <r_i_glide_eff_state_penalty>  (285) 
0

>  <ligand_id>  (285) 
88

>  <original_smiles>  (285) 
CC1=C2C(=C3C(=O)C(C)(O)C(C)(O)C=C13)C=CC(=O)C2C

>  <smiles>  (285) 
[H]OC1(C([H])([H])[H])C(=O)C2=C3C([H])=C([H])C(=O)C([H])(C([H])([H])[H])C3=C(C([H])([H])[H])C2=C([H])C1(O[H])C([H])([H])[H]

$$$$
88:0:1
     RDKit          3D

 39 41  0  0  1  0  0  0  0  0999 V2000
    0.4191    6.0365    5.5503 C   0  0  0  0  0  0  0  0  0  0  0  0
   -0.2194    4.7747    6.1044 C   0  0  0  0  0  0  0  0  0  0  0  0
   -0.8180    4.6218    7.3108 C   0  0  0  0  0  0  0  0  0  0  0  0
   -1.3515    3.2817    7.4123 C   0  0  0  0  0  0  0  0  0  0  0  0
   -1.0541    2.6221    6.2860 C   0  0  0  0  0  0  0  0  0  0  0  0
   -1.3258    1.2305    5.9091 C   0  0  0  0  0  0  0  0  0  0  0  0
   -2.1508    0.5160    6.4803 O   0  0  0  0  0  0  0  0  0  0  0  0
   -0.4159    0.6846    4.7755 C   0  0  1  0  0  0  0  0  0  0  0  0
    0.9217    0.2551    5.4223 C   0  0  0  0  0  0  0  0  0  0  0  0
   -0.9563   -0.5232    4.2595 O   0  0  0  0  0  0  0  0  0  0  0  0
   -0.2021    1.7499    3.6184 C   0  0  1  0  0  0  0  0  0  0  0  0
    0.9043    1.3541    2.6162 C   0  0  0  0  0  0  0  0  0  0  0  0
   -1.3739    1.8332    2.8366 O   0  0  0  0  0  0  0  0  0  0  0  0
    0.0593    3.1518    4.1759 C   0  0  0  0  0  0  0  0  0  0  0  0
   -0.3379    3.5065    5.4131 C   0  0  0  0  0  0  0  0  0  0  0  0
   -2.0615    2.8393    8.5946 C   0  0  0  0  0  0  0  0  0  0  0  0
   -2.3048    3.6861    9.6167 C   0  0  0  0  0  0  0  0  0  0  0  0
   -1.8586    5.1038    9.5917 C   0  0  0  0  0  0  0  0  0  0  0  0
   -2.1571    5.8812   10.4949 O   0  0  0  0  0  0  0  0  0  0  0  0
   -0.9863    5.6500    8.4305 C   0  0  1  0  0  0  0  0  0  0  0  0
    0.3619    6.1552    8.9712 C   0  0  0  0  0  0  0  0  0  0  0  0
    0.3315    6.0670    4.4622 H   0  0  0  0  0  0  0  0  0  0  0  0
    1.4811    6.0712    5.8020 H   0  0  0  0  0  0  0  0  0  0  0  0
   -0.0623    6.9311    5.9505 H   0  0  0  0  0  0  0  0  0  0  0  0
    1.4839    1.1119    5.7902 H   0  0  0  0  0  0  0  0  0  0  0  0
    1.5646   -0.2802    4.7229 H   0  0  0  0  0  0  0  0  0  0  0  0
    0.7580   -0.4151    6.2677 H   0  0  0  0  0  0  0  0  0  0  0  0
   -0.3989   -0.8207    3.5562 H   0  0  0  0  0  0  0  0  0  0  0  0
    1.8941    1.3638    3.0734 H   0  0  0  0  0  0  0  0  0  0  0  0
    0.9459    2.0485    1.7737 H   0  0  0  0  0  0  0  0  0  0  0  0
    0.7399    0.3608    2.1948 H   0  0  0  0  0  0  0  0  0  0  0  0
   -1.1802    2.3585    2.0714 H   0  0  0  0  0  0  0  0  0  0  0  0
    0.5738    3.8519    3.5305 H   0  0  0  0  0  0  0  0  0  0  0  0
   -2.4084    1.8170    8.6659 H   0  0  0  0  0  0  0  0  0  0  0  0
   -2.8411    3.3468   10.4945 H   0  0  0  0  0  0  0  0  0  0  0  0
   -1.5309    6.5007    8.0198 H   0  0  0  0  0  0  0  0  0  0  0  0
    0.9577    5.3306    9.3588 H   0  0  0  0  0  0  0  0  0  0  0  0
    0.2281    6.8743    9.7802 H   0  0  0  0  0  0  0  0  0  0  0  0
    0.9440    6.6527    8.1977 H   0  0  0  0  0  0  0  0  0  0  0  0
  1  2  1  0
  1 22  1  0
  1 23  1  0
  1 24  1  0
  2 15  1  0
  2  3  2  0
  3 20  1  0
  3  4  1  0
  4  5  2  0
  4 16  1  0
  5 15  1  0
  5  6  1  0
  6  7  2  0
  6  8  1  0
  8  9  1  0
  8 10  1  6
  8 11  1  0
  9 25  1  0
  9 26  1  0
  9 27  1  0
 10 28  1  0
 11 12  1  0
 11 13  1  6
 11 14  1  0
 12 29  1  0
 12 30  1  0
 12 31  1  0
 13 32  1  0
 14 15  2  0
 14 33  1  0
 16 17  2  0
 16 34  1  0
 17 18  1  0
 17 35  1  0
 18 19  2  0
 18 20  1  0
 20 21  1  0
 20 36  1  6
 21 37  1  0
 21 38  1  0
 21 39  1  0
M  END
>  <i_m_ct_stereo_status>  (286) 
1

>  <s_m_source_file>  (286) 
/var/tmp/pbs.5076255.sched01/tmpalt_vnqi/12934k3la1h.sdf

>  <i_m_source_file_index>  (286) 
3

>  <i_lp_mmshare_version>  (286) 
48012

>  <i_f3d_flags>  (286) 
0

>  <s_epik_input>  (286) 
Tz1DMVtDQEBdKFtDSDNdKShbT0hdKVtDQEBdKFtDSDNdKShbT0hdKVtDSF09QyhDPTJbQ0gzXSlDMT1DKEMyMylbQ0hdPVtDSF1DKD1PKVtDQEhdM1tDSDNd

>  <s_epik_cmdline>  (286) 
J2VwaWtfcHl0aG9uJywgJy1waHQnLCAnMi4wJywgJy1waCcsICc3LjAnLCAnLXRuJywgJzgnLCAnLW1hJywgJzIwMCcsICctaW1hZScsICc8aW5maWxlLm1hZT4nLCAnLW9tYWUnLCAnPG91dGZpbGUubWFlPic=

>  <r_epik_Ionization_Penalty>  (286) 
0.00990847

>  <r_epik_Ionization_Penalty_Charging>  (286) 
0

>  <r_epik_Ionization_Penalty_Neutral>  (286) 
0.00990847

>  <r_epik_State_Penalty>  (286) 
0.00724771

>  <r_epik_Charging_Adjusted_Penalty>  (286) 
0.00724771

>  <i_epik_Tot_Q>  (286) 
0

>  <i_epik_Tot_abs_Q>  (286) 
0

>  <s_lp_Force_Field>  (286) 
OPLS3e

>  <r_lp_Energy>  (286) 
26.8517

>  <b_lp_Chiralities_Consistent>  (286) 
1

>  <s_lp_Variant>  (286) 
88:0-1

>  <s_i_glide_gridfile>  (286) 
pfpi4k_grid

>  <i_i_glide_lignum>  (286) 
3

>  <i_i_glide_rotatable_bonds>  (286) 
2

>  <r_i_docking_score>  (286) 
-3.40215

>  <r_i_glide_ligand_efficiency>  (286) 
-0.162007

>  <r_i_glide_ligand_efficiency_sa>  (286) 
-0.446965

>  <r_i_glide_ligand_efficiency_ln>  (286) 
-0.841174

>  <r_i_glide_gscore>  (286) 
-3.40215

>  <r_i_glide_lipo>  (286) 
-0.0308463

>  <r_i_glide_hbond>  (286) 
-0.16

>  <r_i_glide_metal>  (286) 
-0

>  <r_i_glide_rewards>  (286) 
-1.45689

>  <r_i_glide_evdw>  (286) 
-20.9947

>  <r_i_glide_ecoul>  (286) 
-4.44985

>  <r_i_glide_erotb>  (286) 
0

>  <r_i_glide_esite>  (286) 
-0.0371961

>  <r_i_glide_emodel>  (286) 
-31.935

>  <r_i_glide_energy>  (286) 
-25.4446

>  <r_i_glide_einternal>  (286) 
0.0624874

>  <r_i_glide_intrahb_reward>  (286) 
-0

>  <i_i_glide_confnum>  (286) 
1

>  <i_i_glide_posenum>  (286) 
26

>  <r_i_glide_eff_state_penalty>  (286) 
0

>  <ligand_id>  (286) 
88

>  <original_smiles>  (286) 
CC1=C2C(=C3C(=O)C(C)(O)C(C)(O)C=C13)C=CC(=O)C2C

>  <smiles>  (286) 
[H]OC1(C([H])([H])[H])C(=O)C2=C3C([H])=C([H])C(=O)C([H])(C([H])([H])[H])C3=C(C([H])([H])[H])C2=C([H])C1(O[H])C([H])([H])[H]

$$$$
88:0:2
     RDKit          3D

 39 41  0  0  1  0  0  0  0  0999 V2000
    1.0833    5.5258    4.0285 C   0  0  0  0  0  0  0  0  0  0  0  0
    0.3982    4.4885    4.9027 C   0  0  0  0  0  0  0  0  0  0  0  0
   -0.1280    4.6740    6.1364 C   0  0  0  0  0  0  0  0  0  0  0  0
   -0.7288    3.4385    6.5896 C   0  0  0  0  0  0  0  0  0  0  0  0
   -0.5475    2.5032    5.6480 C   0  0  0  0  0  0  0  0  0  0  0  0
   -0.9266    1.0811    5.6342 C   0  0  0  0  0  0  0  0  0  0  0  0
   -1.7568    0.5728    6.3966 O   0  0  0  0  0  0  0  0  0  0  0  0
   -0.1243    0.2207    4.6241 C   0  0  1  0  0  0  0  0  0  0  0  0
    1.2235   -0.1386    5.2917 C   0  0  0  0  0  0  0  0  0  0  0  0
   -0.7669   -1.0353    4.4560 O   0  0  0  0  0  0  0  0  0  0  0  0
    0.0816    0.9626    3.2325 C   0  0  1  0  0  0  0  0  0  0  0  0
    1.0950    0.2561    2.3081 C   0  0  0  0  0  0  0  0  0  0  0  0
   -1.1252    0.9503    2.5013 O   0  0  0  0  0  0  0  0  0  0  0  0
    0.4627    2.4329    3.4229 C   0  0  0  0  0  0  0  0  0  0  0  0
    0.1622    3.0999    4.5532 C   0  0  0  0  0  0  0  0  0  0  0  0
   -1.3809    3.3483    7.8783 C   0  0  0  0  0  0  0  0  0  0  0  0
   -1.5016    4.4311    8.6734 C   0  0  0  0  0  0  0  0  0  0  0  0
   -0.9725    5.7635    8.2859 C   0  0  0  0  0  0  0  0  0  0  0  0
   -1.1711    6.7539    8.9864 O   0  0  0  0  0  0  0  0  0  0  0  0
   -0.1510    5.9503    6.9827 C   0  0  1  0  0  0  0  0  0  0  0  0
    1.2599    6.4653    7.3148 C   0  0  0  0  0  0  0  0  0  0  0  0
    0.9271    5.3017    2.9713 H   0  0  0  0  0  0  0  0  0  0  0  0
    2.1595    5.5385    4.2124 H   0  0  0  0  0  0  0  0  0  0  0  0
    0.6857    6.5258    4.2133 H   0  0  0  0  0  0  0  0  0  0  0  0
    1.8591    0.7375    5.4104 H   0  0  0  0  0  0  0  0  0  0  0  0
    1.7845   -0.8730    4.7128 H   0  0  0  0  0  0  0  0  0  0  0  0
    1.0746   -0.5720    6.2825 H   0  0  0  0  0  0  0  0  0  0  0  0
   -0.2743   -1.5362    3.8243 H   0  0  0  0  0  0  0  0  0  0  0  0
    2.1115    0.2997    2.6998 H   0  0  0  0  0  0  0  0  0  0  0  0
    1.1197    0.7179    1.3185 H   0  0  0  0  0  0  0  0  0  0  0  0
    0.8402   -0.7934    2.1525 H   0  0  0  0  0  0  0  0  0  0  0  0
   -0.9655    1.3019    1.6345 H   0  0  0  0  0  0  0  0  0  0  0  0
    0.9695    2.9254    2.6032 H   0  0  0  0  0  0  0  0  0  0  0  0
   -1.7868    2.4000    8.2094 H   0  0  0  0  0  0  0  0  0  0  0  0
   -2.0032    4.3524    9.6295 H   0  0  0  0  0  0  0  0  0  0  0  0
   -0.6625    6.7171    6.4013 H   0  0  0  0  0  0  0  0  0  0  0  0
    1.8289    5.7154    7.8620 H   0  0  0  0  0  0  0  0  0  0  0  0
    1.2255    7.3663    7.9292 H   0  0  0  0  0  0  0  0  0  0  0  0
    1.8199    6.7180    6.4151 H   0  0  0  0  0  0  0  0  0  0  0  0
  1  2  1  0
  1 22  1  0
  1 23  1  0
  1 24  1  0
  2 15  1  0
  2  3  2  0
  3 20  1  0
  3  4  1  0
  4  5  2  0
  4 16  1  0
  5 15  1  0
  5  6  1  0
  6  7  2  0
  6  8  1  0
  8  9  1  0
  8 10  1  6
  8 11  1  0
  9 25  1  0
  9 26  1  0
  9 27  1  0
 10 28  1  0
 11 12  1  0
 11 13  1  6
 11 14  1  0
 12 29  1  0
 12 30  1  0
 12 31  1  0
 13 32  1  0
 14 15  2  0
 14 33  1  0
 16 17  2  0
 16 34  1  0
 17 18  1  0
 17 35  1  0
 18 19  2  0
 18 20  1  0
 20 21  1  0
 20 36  1  6
 21 37  1  0
 21 38  1  0
 21 39  1  0
M  END
>  <i_m_ct_stereo_status>  (287) 
1

>  <s_m_source_file>  (287) 
/var/tmp/pbs.5076255.sched01/tmpalt_vnqi/12934k3la1h.sdf

>  <i_m_source_file_index>  (287) 
3

>  <i_lp_mmshare_version>  (287) 
48012

>  <i_f3d_flags>  (287) 
0

>  <s_epik_input>  (287) 
Tz1DMVtDQEBdKFtDSDNdKShbT0hdKVtDQEBdKFtDSDNdKShbT0hdKVtDSF09QyhDPTJbQ0gzXSlDMT1DKEMyMylbQ0hdPVtDSF1DKD1PKVtDQEhdM1tDSDNd

>  <s_epik_cmdline>  (287) 
J2VwaWtfcHl0aG9uJywgJy1waHQnLCAnMi4wJywgJy1waCcsICc3LjAnLCAnLXRuJywgJzgnLCAnLW1hJywgJzIwMCcsICctaW1hZScsICc8aW5maWxlLm1hZT4nLCAnLW9tYWUnLCAnPG91dGZpbGUubWFlPic=

>  <r_epik_Ionization_Penalty>  (287) 
0.00990847

>  <r_epik_Ionization_Penalty_Charging>  (287) 
0

>  <r_epik_Ionization_Penalty_Neutral>  (287) 
0.00990847

>  <r_epik_State_Penalty>  (287) 
0.00724771

>  <r_epik_Charging_Adjusted_Penalty>  (287) 
0.00724771

>  <i_epik_Tot_Q>  (287) 
0

>  <i_epik_Tot_abs_Q>  (287) 
0

>  <s_lp_Force_Field>  (287) 
OPLS3e

>  <r_lp_Energy>  (287) 
26.8517

>  <b_lp_Chiralities_Consistent>  (287) 
1

>  <s_lp_Variant>  (287) 
88:0-1

>  <s_i_glide_gridfile>  (287) 
pfpi4k_grid

>  <i_i_glide_lignum>  (287) 
3

>  <i_i_glide_rotatable_bonds>  (287) 
2

>  <r_i_docking_score>  (287) 
-3.32585

>  <r_i_glide_ligand_efficiency>  (287) 
-0.158374

>  <r_i_glide_ligand_efficiency_sa>  (287) 
-0.436941

>  <r_i_glide_ligand_efficiency_ln>  (287) 
-0.822309

>  <r_i_glide_gscore>  (287) 
-3.32585

>  <r_i_glide_lipo>  (287) 
-0.00523888

>  <r_i_glide_hbond>  (287) 
-0.159836

>  <r_i_glide_metal>  (287) 
-0

>  <r_i_glide_rewards>  (287) 
-1.45689

>  <r_i_glide_evdw>  (287) 
-19.9318

>  <r_i_glide_ecoul>  (287) 
-4.55262

>  <r_i_glide_erotb>  (287) 
0

>  <r_i_glide_esite>  (287) 
-0.0243969

>  <r_i_glide_emodel>  (287) 
-30.8435

>  <r_i_glide_energy>  (287) 
-24.4844

>  <r_i_glide_einternal>  (287) 
0.0390743

>  <r_i_glide_intrahb_reward>  (287) 
-0

>  <i_i_glide_confnum>  (287) 
1

>  <i_i_glide_posenum>  (287) 
2

>  <r_i_glide_eff_state_penalty>  (287) 
0

>  <ligand_id>  (287) 
88

>  <original_smiles>  (287) 
CC1=C2C(=C3C(=O)C(C)(O)C(C)(O)C=C13)C=CC(=O)C2C

>  <smiles>  (287) 
[H]OC1(C([H])([H])[H])C(=O)C2=C3C([H])=C([H])C(=O)C([H])(C([H])([H])[H])C3=C(C([H])([H])[H])C2=C([H])C1(O[H])C([H])([H])[H]

$$$$
89:0:0
     RDKit          3D

 87 95  0  0  1  0  0  0  0  0999 V2000
    5.5677  -10.3772    3.8816 C   0  0  0  0  0  0  0  0  0  0  0  0
    5.1335   -8.9876    3.3799 C   0  0  2  0  0  0  0  0  0  0  0  0
    4.3133   -8.2754    4.4043 C   0  0  0  0  0  0  0  0  0  0  0  0
    3.5379   -7.1862    3.6370 C   0  0  2  0  0  0  0  0  0  0  0  0
    4.3656   -5.9994    3.5945 O   0  0  0  0  0  0  0  0  0  0  0  0
    4.2018   -5.0605    2.5689 C   0  0  0  0  0  0  0  0  0  0  0  0
    4.0067   -5.3759    1.3877 O   0  0  0  0  0  0  0  0  0  0  0  0
    4.1927   -3.5286    3.0064 C   0  0  1  0  0  0  0  0  0  0  0  0
    5.3442   -2.9688    2.0879 C   0  0  0  0  0  0  0  0  0  0  0  0
    2.8359   -2.7113    2.6984 C   0  0  2  0  0  0  0  0  0  0  0  0
    2.6846   -2.7222    1.2824 O   0  0  0  0  0  0  0  0  0  0  0  0
    2.9996   -1.1794    2.9258 C   0  0  0  0  0  0  0  0  0  0  0  0
    3.6747   -0.7785    4.2496 C   0  0  0  0  0  0  0  0  0  0  0  0
    4.8638   -1.6690    4.6869 C   0  0  1  0  0  0  0  0  0  0  0  0
    5.3377   -1.2224    6.0884 C   0  0  0  0  0  0  0  0  0  0  0  0
    4.5258   -3.2037    4.5316 C   0  0  2  0  0  0  0  0  0  0  0  0
    5.7388   -3.8540    4.8712 O   0  0  0  0  0  0  0  0  0  0  0  0
    3.4360   -3.5775    5.6182 C   0  0  2  0  0  0  0  0  0  0  0  0
    3.8669   -4.1057    6.9937 C   0  0  0  0  0  0  0  0  0  0  0  0
    3.4162   -5.4686    6.5156 C   0  0  1  0  0  0  0  0  0  0  0  0
    3.0589   -6.5106    7.5277 C   0  0  0  0  0  0  0  0  0  0  0  0
    2.7373   -7.6694    6.7263 N   0  0  0  0  0  0  0  0  0  0  0  0
    2.5759   -8.8592    7.5608 C   0  0  0  0  0  0  0  0  0  0  0  0
    1.6873   -7.4939    5.6994 C   0  0  1  0  0  0  0  0  0  0  0  0
    0.3959   -6.9524    6.4014 C   0  0  0  0  0  0  0  0  0  0  0  0
    0.1284   -5.4574    6.7112 C   0  0  0  0  0  0  0  0  0  0  0  0
   -1.1232   -5.0316    7.1570 C   0  0  0  0  0  0  0  0  0  0  0  0
   -1.5637   -3.7212    6.8922 C   0  0  0  0  0  0  0  0  0  0  0  0
   -0.8163   -2.8399    6.0900 C   0  0  0  0  0  0  0  0  0  0  0  0
   -1.3546   -1.6367    5.7446 O   0  0  0  0  0  0  0  0  0  0  0  0
    0.4613   -3.2154    5.5881 C   0  0  0  0  0  0  0  0  0  0  0  0
    0.9385   -4.4577    6.0970 C   0  0  0  0  0  0  0  0  0  0  0  0
    2.3520   -4.7317    5.6434 C   0  0  1  0  0  0  0  0  0  0  0  0
    1.9047   -5.3496    4.3436 C   0  0  0  0  0  0  0  0  0  0  0  0
    1.3918   -4.6643    3.3900 N   0  0  0  0  0  0  0  0  0  0  0  0
    1.4762   -3.2123    3.3827 C   0  0  1  0  0  0  0  0  0  0  0  0
    1.1159   -2.5130    4.5871 O   0  0  0  0  0  0  0  0  0  0  0  0
    2.0577   -6.8539    4.2617 C   0  0  1  0  0  0  0  0  0  0  0  0
    0.9887   -7.4242    3.2713 C   0  0  0  0  0  0  0  0  0  0  0  0
    3.4154   -7.7678    2.3527 O   0  0  0  0  0  0  0  0  0  0  0  0
    4.1491   -8.9912    2.2085 C   0  0  0  0  0  0  0  0  0  0  0  0
    4.9009   -8.9512    0.8825 C   0  0  0  0  0  0  0  0  0  0  0  0
    3.1076  -10.1320    2.2333 C   0  0  0  0  0  0  0  0  0  0  0  0
    4.7202  -10.9827    4.2142 H   0  0  0  0  0  0  0  0  0  0  0  0
    6.2410  -10.3142    4.7379 H   0  0  0  0  0  0  0  0  0  0  0  0
    6.0472  -10.9150    3.0712 H   0  0  0  0  0  0  0  0  0  0  0  0
    5.9950   -8.3444    3.1831 H   0  0  0  0  0  0  0  0  0  0  0  0
    3.6204   -9.0332    4.7362 H   0  0  0  0  0  0  0  0  0  0  0  0
    4.9011   -7.8819    5.2348 H   0  0  0  0  0  0  0  0  0  0  0  0
    5.4621   -1.8853    2.0785 H   0  0  0  0  0  0  0  0  0  0  0  0
    5.2050   -3.2202    1.0339 H   0  0  0  0  0  0  0  0  0  0  0  0
    6.3129   -3.3892    2.3606 H   0  0  0  0  0  0  0  0  0  0  0  0
    2.0279   -2.0899    1.0303 H   0  0  0  0  0  0  0  0  0  0  0  0
    3.6085   -0.7572    2.1222 H   0  0  0  0  0  0  0  0  0  0  0  0
    2.0428   -0.6667    2.8003 H   0  0  0  0  0  0  0  0  0  0  0  0
    4.0147    0.2505    4.1515 H   0  0  0  0  0  0  0  0  0  0  0  0
    2.9139   -0.7507    5.0261 H   0  0  0  0  0  0  0  0  0  0  0  0
    5.7187   -1.4140    4.0698 H   0  0  0  0  0  0  0  0  0  0  0  0
    4.5613   -1.3005    6.8470 H   0  0  0  0  0  0  0  0  0  0  0  0
    5.6460   -0.1772    6.0647 H   0  0  0  0  0  0  0  0  0  0  0  0
    6.2012   -1.7905    6.4292 H   0  0  0  0  0  0  0  0  0  0  0  0
    5.6058   -4.7857    4.8093 H   0  0  0  0  0  0  0  0  0  0  0  0
    2.9475   -2.6731    5.9466 H   0  0  0  0  0  0  0  0  0  0  0  0
    4.9349   -4.0269    7.2193 H   0  0  0  0  0  0  0  0  0  0  0  0
    3.2371   -3.7442    7.8151 H   0  0  0  0  0  0  0  0  0  0  0  0
    4.2684   -5.7990    5.9363 H   0  0  0  0  0  0  0  0  0  0  0  0
    3.9336   -6.7490    8.1344 H   0  0  0  0  0  0  0  0  0  0  0  0
    2.2616   -6.1887    8.1948 H   0  0  0  0  0  0  0  0  0  0  0  0
    2.4248   -9.7565    6.9577 H   0  0  0  0  0  0  0  0  0  0  0  0
    1.7515   -8.7877    8.2734 H   0  0  0  0  0  0  0  0  0  0  0  0
    3.4884   -9.0269    8.1330 H   0  0  0  0  0  0  0  0  0  0  0  0
    1.4255   -8.5196    5.4534 H   0  0  0  0  0  0  0  0  0  0  0  0
   -0.4393   -7.2770    5.7860 H   0  0  0  0  0  0  0  0  0  0  0  0
    0.2430   -7.4912    7.3283 H   0  0  0  0  0  0  0  0  0  0  0  0
   -1.7964   -5.7425    7.6107 H   0  0  0  0  0  0  0  0  0  0  0  0
   -2.5544   -3.4543    7.2328 H   0  0  0  0  0  0  0  0  0  0  0  0
   -0.7739   -1.1582    5.1759 H   0  0  0  0  0  0  0  0  0  0  0  0
    0.6559   -2.8782    2.7646 H   0  0  0  0  0  0  0  0  0  0  0  0
    1.0597   -8.5054    3.2142 H   0  0  0  0  0  0  0  0  0  0  0  0
    1.0998   -7.0473    2.2546 H   0  0  0  0  0  0  0  0  0  0  0  0
   -0.0414   -7.2041    3.5693 H   0  0  0  0  0  0  0  0  0  0  0  0
    5.4232   -9.8946    0.7251 H   0  0  0  0  0  0  0  0  0  0  0  0
    5.6402   -8.1438    0.8735 H   0  0  0  0  0  0  0  0  0  0  0  0
    4.2158   -8.7976    0.0481 H   0  0  0  0  0  0  0  0  0  0  0  0
    3.6093  -11.0784    2.0939 H   0  0  0  0  0  0  0  0  0  0  0  0
    2.3570  -10.0347    1.4456 H   0  0  0  0  0  0  0  0  0  0  0  0
    2.5854  -10.2312    3.1797 H   0  0  0  0  0  0  0  0  0  0  0  0
  1  2  1  0
  1 44  1  0
  1 45  1  0
  1 46  1  0
  2 41  1  0
  2  3  1  0
  2 47  1  6
  3  4  1  0
  3 48  1  0
  3 49  1  0
  4 38  1  0
  4  5  1  0
  4 40  1  6
  5  6  1  0
  6  7  2  0
  6  8  1  0
  8 16  1  0
  8  9  1  6
  8 10  1  0
  9 50  1  0
  9 51  1  0
  9 52  1  0
 10 36  1  0
 10 11  1  6
 10 12  1  0
 11 53  1  0
 12 13  1  0
 12 54  1  0
 12 55  1  0
 13 14  1  0
 13 56  1  0
 13 57  1  0
 14 15  1  0
 14 16  1  0
 14 58  1  6
 15 59  1  0
 15 60  1  0
 15 61  1  0
 16 17  1  1
 16 18  1  0
 17 62  1  0
 18 33  1  0
 18 19  1  0
 18 63  1  1
 19 20  1  0
 19 64  1  0
 19 65  1  0
 20 33  1  0
 20 21  1  0
 20 66  1  6
 21 22  1  0
 21 67  1  0
 21 68  1  0
 22 23  1  0
 22 24  1  0
 23 69  1  0
 23 70  1  0
 23 71  1  0
 24 38  1  0
 24 25  1  0
 24 72  1  6
 25 26  1  0
 25 73  1  0
 25 74  1  0
 26 32  2  0
 26 27  1  0
 27 28  2  0
 27 75  1  0
 28 29  1  0
 28 76  1  0
 29 30  1  0
 29 31  2  0
 30 77  1  0
 31 37  1  0
 31 32  1  0
 33 32  1  1
 33 34  1  0
 34 35  2  0
 34 38  1  0
 35 36  1  0
 36 37  1  0
 36 78  1  6
 38 39  1  6
 39 79  1  0
 39 80  1  0
 39 81  1  0
 40 41  1  0
 41 42  1  0
 41 43  1  0
 42 82  1  0
 42 83  1  0
 42 84  1  0
 43 85  1  0
 43 86  1  0
 43 87  1  0
M  END
>  <i_m_ct_stereo_status>  (288) 
1

>  <s_m_source_file>  (288) 
/var/tmp/pbs.5076255.sched01/tmpalt_vnqi/12934k3la1h.sdf

>  <i_m_source_file_index>  (288) 
4

>  <i_lp_mmshare_version>  (288) 
48012

>  <i_f3d_flags>  (288) 
0

>  <s_epik_input>  (288) 
TzFDKFtDSDNdKShbQ0gzXSlbQ0BIXShbQ0gzXSlbQ0gyXVtDQF0xMltDQEBdMyhbQ0gzXSlbQ0BIXTROKFtDSDNdKVtDSDJdW0NASF01W0NAXTY3W0NAQEhdKFtDSDJdNSlbQ0BAXTgoW09IXSlbQ0BdKEMoTzIpPU8pKFtDSDNdKVtDQF0oW09IXSkoW0NIMl1bQ0gyXVtDQEhdOFtDSDNdKVtDQEBIXShOPUMzNylPYzljNmMoW0NIMl00KVtjSF1bY0hdYzlbT0hd

>  <s_epik_cmdline>  (288) 
J2VwaWtfcHl0aG9uJywgJy1waHQnLCAnMi4wJywgJy1waCcsICc3LjAnLCAnLXRuJywgJzgnLCAnLW1hJywgJzIwMCcsICctaW1hZScsICc8aW5maWxlLm1hZT4nLCAnLW9tYWUnLCAnPG91dGZpbGUubWFlPic=

>  <r_lp_tautomer_probability>  (288) 
1

>  <r_epik_Ionization_Penalty>  (288) 
0.24648

>  <r_epik_Ionization_Penalty_Charging>  (288) 
0

>  <r_epik_Ionization_Penalty_Neutral>  (288) 
0.24648

>  <r_epik_State_Penalty>  (288) 
0.237153

>  <r_epik_Charging_Adjusted_Penalty>  (288) 
0.237153

>  <i_epik_Tot_Q>  (288) 
0

>  <i_epik_Tot_abs_Q>  (288) 
0

>  <s_epik_Chemistry_Notes>  (288) 
This compound has an ester and may undergo hydrolysis at high or low pH. This compound has an imine and may undergo hydrolysis. This compound contains an acetal/aminal-like group ( X-CH(R)-Y where X, Y are N, S, or O) that may be acid/base labile, releasing an aldehyde.

>  <s_lp_Force_Field>  (288) 
OPLS3e

>  <r_lp_Energy>  (288) 
183.56

>  <b_lp_Chiralities_Consistent>  (288) 
1

>  <s_lp_Variant>  (288) 
89:0-1

>  <s_i_glide_gridfile>  (288) 
pfpi4k_grid

>  <i_i_glide_lignum>  (288) 
4

>  <i_i_glide_rotatable_bonds>  (288) 
3

>  <r_i_docking_score>  (288) 
-2.41477

>  <r_i_glide_ligand_efficiency>  (288) 
-0.0561574

>  <r_i_glide_ligand_efficiency_sa>  (288) 
-0.196742

>  <r_i_glide_ligand_efficiency_ln>  (288) 
-0.507176

>  <r_i_glide_gscore>  (288) 
-2.41477

>  <r_i_glide_lipo>  (288) 
-0.170884

>  <r_i_glide_hbond>  (288) 
0

>  <r_i_glide_metal>  (288) 
-0

>  <r_i_glide_rewards>  (288) 
-0.554046

>  <r_i_glide_evdw>  (288) 
-22.1996

>  <r_i_glide_ecoul>  (288) 
-3.85787

>  <r_i_glide_erotb>  (288) 
0

>  <r_i_glide_esite>  (288) 
-0.00117704

>  <r_i_glide_emodel>  (288) 
-34.3461

>  <r_i_glide_energy>  (288) 
-26.0575

>  <r_i_glide_einternal>  (288) 
0.458271

>  <r_i_glide_intrahb_reward>  (288) 
-0.5

>  <i_i_glide_confnum>  (288) 
1

>  <i_i_glide_posenum>  (288) 
30

>  <r_i_glide_eff_state_penalty>  (288) 
0

>  <ligand_id>  (288) 
89

>  <original_smiles>  (288) 
CC1CC2(OC(=O)C3(C)C4(O)CCC(C)C3(O)C3CC5CN(C)C6Cc7ccc(O)c8c7C53C(=NC4O8)C62C)OC1(C)C

>  <smiles>  (288) 
[H]Oc1c([H])c([H])c2c3c1OC1([H])N=C4C35C3([H])C([H])([H])N(C([H])([H])[H])C([H])(C2([H])[H])C4(C([H])([H])[H])C2(OC(=O)C4(C([H])([H])[H])C1(O[H])C([H])([H])C([H])([H])C([H])(C([H])([H])[H])C4(O[H])C5([H])C3([H])[H])OC(C([H])([H])[H])(C([H])([H])[H])C([H])(C([H])([H])[H])C2([H])[H]

$$$$
89:0:1
     RDKit          3D

 87 95  0  0  1  0  0  0  0  0999 V2000
    5.4912  -10.3665    3.8920 C   0  0  0  0  0  0  0  0  0  0  0  0
    5.0864   -8.9706    3.3810 C   0  0  2  0  0  0  0  0  0  0  0  0
    4.2761   -8.2384    4.3956 C   0  0  0  0  0  0  0  0  0  0  0  0
    3.5240   -7.1389    3.6228 C   0  0  2  0  0  0  0  0  0  0  0  0
    4.3692   -5.9667    3.5860 O   0  0  0  0  0  0  0  0  0  0  0  0
    4.2300   -5.0301    2.5563 C   0  0  0  0  0  0  0  0  0  0  0  0
    4.0464   -5.3462    1.3728 O   0  0  0  0  0  0  0  0  0  0  0  0
    4.2466   -3.4963    2.9832 C   0  0  1  0  0  0  0  0  0  0  0  0
    5.4116   -2.9564    2.0681 C   0  0  0  0  0  0  0  0  0  0  0  0
    2.9001   -2.6670    2.6651 C   0  0  2  0  0  0  0  0  0  0  0  0
    2.6954   -2.7491    1.2563 O   0  0  0  0  0  0  0  0  0  0  0  0
    3.0946   -1.1338    2.8813 C   0  0  0  0  0  0  0  0  0  0  0  0
    3.7697   -0.7334    4.2110 C   0  0  0  0  0  0  0  0  0  0  0  0
    4.9385   -1.6432    4.6640 C   0  0  1  0  0  0  0  0  0  0  0  0
    5.4183   -1.2001    6.0678 C   0  0  0  0  0  0  0  0  0  0  0  0
    4.5758   -3.1742    4.5116 C   0  0  2  0  0  0  0  0  0  0  0  0
    5.7784   -3.8436    4.8545 O   0  0  0  0  0  0  0  0  0  0  0  0
    3.4770   -3.5245    5.5937 C   0  0  2  0  0  0  0  0  0  0  0  0
    3.8896   -4.0521    6.9721 C   0  0  0  0  0  0  0  0  0  0  0  0
    3.4156   -5.4064    6.4993 C   0  0  1  0  0  0  0  0  0  0  0  0
    3.0334   -6.4383    7.5125 C   0  0  0  0  0  0  0  0  0  0  0  0
    2.6947   -7.5935    6.7109 N   0  0  0  0  0  0  0  0  0  0  0  0
    2.5057   -8.7779    7.5481 C   0  0  0  0  0  0  0  0  0  0  0  0
    1.6536   -7.4012    5.6784 C   0  0  1  0  0  0  0  0  0  0  0  0
    0.3688   -6.8332    6.3694 C   0  0  0  0  0  0  0  0  0  0  0  0
    0.1323   -5.3342    6.6840 C   0  0  0  0  0  0  0  0  0  0  0  0
   -1.1099   -4.8868    7.1291 C   0  0  0  0  0  0  0  0  0  0  0  0
   -1.5112   -3.5642    6.8821 C   0  0  0  0  0  0  0  0  0  0  0  0
   -0.7551   -2.6983    6.0721 C   0  0  0  0  0  0  0  0  0  0  0  0
   -1.2688   -1.4855    5.7206 O   0  0  0  0  0  0  0  0  0  0  0  0
    0.5129   -3.0977    5.5606 C   0  0  0  0  0  0  0  0  0  0  0  0
    0.9634   -4.3494    6.0664 C   0  0  0  0  0  0  0  0  0  0  0  0
    2.3707   -4.6555    5.6187 C   0  0  1  0  0  0  0  0  0  0  0  0
    1.9185   -5.2712    4.3213 C   0  0  0  0  0  0  0  0  0  0  0  0
    1.4171   -4.5789    3.3695 N   0  0  0  0  0  0  0  0  0  0  0  0
    1.5395   -3.1290    3.3590 C   0  0  1  0  0  0  0  0  0  0  0  0
    1.1830   -2.4108    4.5540 O   0  0  0  0  0  0  0  0  0  0  0  0
    2.0446   -6.7765    4.2409 C   0  0  1  0  0  0  0  0  0  0  0  0
    0.9687   -7.3255    3.2465 C   0  0  0  0  0  0  0  0  0  0  0  0
    3.3993   -7.7239    2.3405 O   0  0  0  0  0  0  0  0  0  0  0  0
    4.1091   -8.9624    2.2024 C   0  0  0  0  0  0  0  0  0  0  0  0
    4.8714   -8.9351    0.8817 C   0  0  0  0  0  0  0  0  0  0  0  0
    3.0446  -10.0894    2.2227 C   0  0  0  0  0  0  0  0  0  0  0  0
    4.6295  -10.9544    4.2218 H   0  0  0  0  0  0  0  0  0  0  0  0
    6.1603  -10.3116    4.7526 H   0  0  0  0  0  0  0  0  0  0  0  0
    5.9633  -10.9147    3.0831 H   0  0  0  0  0  0  0  0  0  0  0  0
    5.9586   -8.3413    3.1873 H   0  0  0  0  0  0  0  0  0  0  0  0
    3.5687   -8.9858    4.7210 H   0  0  0  0  0  0  0  0  0  0  0  0
    4.8653   -7.8542    5.2287 H   0  0  0  0  0  0  0  0  0  0  0  0
    5.5555   -1.8760    2.0602 H   0  0  0  0  0  0  0  0  0  0  0  0
    5.2784   -3.2121    1.0155 H   0  0  0  0  0  0  0  0  0  0  0  0
    6.3710   -3.3948    2.3454 H   0  0  0  0  0  0  0  0  0  0  0  0
    3.3167   -2.2058    0.7959 H   0  0  0  0  0  0  0  0  0  0  0  0
    3.7110   -0.7257    2.0787 H   0  0  0  0  0  0  0  0  0  0  0  0
    2.1512   -0.6008    2.7494 H   0  0  0  0  0  0  0  0  0  0  0  0
    4.1347    0.2887    4.1163 H   0  0  0  0  0  0  0  0  0  0  0  0
    3.0113   -0.6863    4.9878 H   0  0  0  0  0  0  0  0  0  0  0  0
    5.7980   -1.4000    4.0458 H   0  0  0  0  0  0  0  0  0  0  0  0
    4.6382   -1.2603    6.8227 H   0  0  0  0  0  0  0  0  0  0  0  0
    5.7484   -0.1610    6.0423 H   0  0  0  0  0  0  0  0  0  0  0  0
    6.2700   -1.7833    6.4155 H   0  0  0  0  0  0  0  0  0  0  0  0
    5.6417   -4.7719    4.7573 H   0  0  0  0  0  0  0  0  0  0  0  0
    3.0055   -2.6104    5.9171 H   0  0  0  0  0  0  0  0  0  0  0  0
    4.9567   -3.9948    7.2001 H   0  0  0  0  0  0  0  0  0  0  0  0
    3.2615   -3.6773    7.7869 H   0  0  0  0  0  0  0  0  0  0  0  0
    4.2642   -5.7512    5.9243 H   0  0  0  0  0  0  0  0  0  0  0  0
    3.9016   -6.6934    8.1234 H   0  0  0  0  0  0  0  0  0  0  0  0
    2.2372   -6.0984    8.1748 H   0  0  0  0  0  0  0  0  0  0  0  0
    2.3424   -9.6739    6.9470 H   0  0  0  0  0  0  0  0  0  0  0  0
    1.6796   -8.6900    8.2565 H   0  0  0  0  0  0  0  0  0  0  0  0
    3.4118   -8.9610    8.1249 H   0  0  0  0  0  0  0  0  0  0  0  0
    1.3729   -8.4219    5.4343 H   0  0  0  0  0  0  0  0  0  0  0  0
   -0.4720   -7.1468    5.7519 H   0  0  0  0  0  0  0  0  0  0  0  0
    0.2065   -7.3685    7.2989 H   0  0  0  0  0  0  0  0  0  0  0  0
   -1.8153   -5.5808    7.5608 H   0  0  0  0  0  0  0  0  0  0  0  0
   -2.5161   -3.3049    7.1809 H   0  0  0  0  0  0  0  0  0  0  0  0
   -0.6687   -1.0057    5.1681 H   0  0  0  0  0  0  0  0  0  0  0  0
    0.7398   -2.7784    2.7188 H   0  0  0  0  0  0  0  0  0  0  0  0
    1.0210   -8.4076    3.1927 H   0  0  0  0  0  0  0  0  0  0  0  0
    1.0932   -6.9546    2.2285 H   0  0  0  0  0  0  0  0  0  0  0  0
   -0.0591   -7.0869    3.5370 H   0  0  0  0  0  0  0  0  0  0  0  0
    5.3755   -9.8888    0.7316 H   0  0  0  0  0  0  0  0  0  0  0  0
    5.6242   -8.1410    0.8765 H   0  0  0  0  0  0  0  0  0  0  0  0
    4.1957   -8.7718    0.0427 H   0  0  0  0  0  0  0  0  0  0  0  0
    3.5179  -11.0584    2.0940 H   0  0  0  0  0  0  0  0  0  0  0  0
    2.2969   -9.9701    1.4319 H   0  0  0  0  0  0  0  0  0  0  0  0
    2.5147  -10.1699    3.1682 H   0  0  0  0  0  0  0  0  0  0  0  0
  1  2  1  0
  1 44  1  0
  1 45  1  0
  1 46  1  0
  2 41  1  0
  2  3  1  0
  2 47  1  6
  3  4  1  0
  3 48  1  0
  3 49  1  0
  4 38  1  0
  4  5  1  0
  4 40  1  6
  5  6  1  0
  6  7  2  0
  6  8  1  0
  8 16  1  0
  8  9  1  6
  8 10  1  0
  9 50  1  0
  9 51  1  0
  9 52  1  0
 10 36  1  0
 10 11  1  6
 10 12  1  0
 11 53  1  0
 12 13  1  0
 12 54  1  0
 12 55  1  0
 13 14  1  0
 13 56  1  0
 13 57  1  0
 14 15  1  0
 14 16  1  0
 14 58  1  6
 15 59  1  0
 15 60  1  0
 15 61  1  0
 16 17  1  1
 16 18  1  0
 17 62  1  0
 18 33  1  0
 18 19  1  0
 18 63  1  1
 19 20  1  0
 19 64  1  0
 19 65  1  0
 20 33  1  0
 20 21  1  0
 20 66  1  6
 21 22  1  0
 21 67  1  0
 21 68  1  0
 22 23  1  0
 22 24  1  0
 23 69  1  0
 23 70  1  0
 23 71  1  0
 24 38  1  0
 24 25  1  0
 24 72  1  6
 25 26  1  0
 25 73  1  0
 25 74  1  0
 26 32  2  0
 26 27  1  0
 27 28  2  0
 27 75  1  0
 28 29  1  0
 28 76  1  0
 29 30  1  0
 29 31  2  0
 30 77  1  0
 31 37  1  0
 31 32  1  0
 33 32  1  1
 33 34  1  0
 34 35  2  0
 34 38  1  0
 35 36  1  0
 36 37  1  0
 36 78  1  6
 38 39  1  6
 39 79  1  0
 39 80  1  0
 39 81  1  0
 40 41  1  0
 41 42  1  0
 41 43  1  0
 42 82  1  0
 42 83  1  0
 42 84  1  0
 43 85  1  0
 43 86  1  0
 43 87  1  0
M  END
>  <i_m_ct_stereo_status>  (289) 
1

>  <s_m_source_file>  (289) 
/var/tmp/pbs.5076255.sched01/tmpalt_vnqi/12934k3la1h.sdf

>  <i_m_source_file_index>  (289) 
4

>  <i_lp_mmshare_version>  (289) 
48012

>  <i_f3d_flags>  (289) 
0

>  <s_epik_input>  (289) 
TzFDKFtDSDNdKShbQ0gzXSlbQ0BIXShbQ0gzXSlbQ0gyXVtDQF0xMltDQEBdMyhbQ0gzXSlbQ0BIXTROKFtDSDNdKVtDSDJdW0NASF01W0NAXTY3W0NAQEhdKFtDSDJdNSlbQ0BAXTgoW09IXSlbQ0BdKEMoTzIpPU8pKFtDSDNdKVtDQF0oW09IXSkoW0NIMl1bQ0gyXVtDQEhdOFtDSDNdKVtDQEBIXShOPUMzNylPYzljNmMoW0NIMl00KVtjSF1bY0hdYzlbT0hd

>  <s_epik_cmdline>  (289) 
J2VwaWtfcHl0aG9uJywgJy1waHQnLCAnMi4wJywgJy1waCcsICc3LjAnLCAnLXRuJywgJzgnLCAnLW1hJywgJzIwMCcsICctaW1hZScsICc8aW5maWxlLm1hZT4nLCAnLW9tYWUnLCAnPG91dGZpbGUubWFlPic=

>  <r_lp_tautomer_probability>  (289) 
1

>  <r_epik_Ionization_Penalty>  (289) 
0.24648

>  <r_epik_Ionization_Penalty_Charging>  (289) 
0

>  <r_epik_Ionization_Penalty_Neutral>  (289) 
0.24648

>  <r_epik_State_Penalty>  (289) 
0.237153

>  <r_epik_Charging_Adjusted_Penalty>  (289) 
0.237153

>  <i_epik_Tot_Q>  (289) 
0

>  <i_epik_Tot_abs_Q>  (289) 
0

>  <s_epik_Chemistry_Notes>  (289) 
This compound has an ester and may undergo hydrolysis at high or low pH. This compound has an imine and may undergo hydrolysis. This compound contains an acetal/aminal-like group ( X-CH(R)-Y where X, Y are N, S, or O) that may be acid/base labile, releasing an aldehyde.

>  <s_lp_Force_Field>  (289) 
OPLS3e

>  <r_lp_Energy>  (289) 
183.56

>  <b_lp_Chiralities_Consistent>  (289) 
1

>  <s_lp_Variant>  (289) 
89:0-1

>  <s_i_glide_gridfile>  (289) 
pfpi4k_grid

>  <i_i_glide_lignum>  (289) 
4

>  <i_i_glide_rotatable_bonds>  (289) 
3

>  <r_i_docking_score>  (289) 
-2.0969

>  <r_i_glide_ligand_efficiency>  (289) 
-0.048765

>  <r_i_glide_ligand_efficiency_sa>  (289) 
-0.170843

>  <r_i_glide_ligand_efficiency_ln>  (289) 
-0.440414

>  <r_i_glide_gscore>  (289) 
-2.0969

>  <r_i_glide_lipo>  (289) 
-0.165274

>  <r_i_glide_hbond>  (289) 
0

>  <r_i_glide_metal>  (289) 
-0

>  <r_i_glide_rewards>  (289) 
-0.54933

>  <r_i_glide_evdw>  (289) 
-22.227

>  <r_i_glide_ecoul>  (289) 
-1.7991

>  <r_i_glide_erotb>  (289) 
0

>  <r_i_glide_esite>  (289) 
-0.00108094

>  <r_i_glide_emodel>  (289) 
-31.8156

>  <r_i_glide_energy>  (289) 
-24.0261

>  <r_i_glide_einternal>  (289) 
0.163988

>  <r_i_glide_intrahb_reward>  (289) 
-0.5

>  <i_i_glide_confnum>  (289) 
1

>  <i_i_glide_posenum>  (289) 
29

>  <r_i_glide_eff_state_penalty>  (289) 
0

>  <ligand_id>  (289) 
89

>  <original_smiles>  (289) 
CC1CC2(OC(=O)C3(C)C4(O)CCC(C)C3(O)C3CC5CN(C)C6Cc7ccc(O)c8c7C53C(=NC4O8)C62C)OC1(C)C

>  <smiles>  (289) 
[H]Oc1c([H])c([H])c2c3c1OC1([H])N=C4C35C3([H])C([H])([H])N(C([H])([H])[H])C([H])(C2([H])[H])C4(C([H])([H])[H])C2(OC(=O)C4(C([H])([H])[H])C1(O[H])C([H])([H])C([H])([H])C([H])(C([H])([H])[H])C4(O[H])C5([H])C3([H])[H])OC(C([H])([H])[H])(C([H])([H])[H])C([H])(C([H])([H])[H])C2([H])[H]

$$$$
89:0:2
     RDKit          3D

 87 95  0  0  1  0  0  0  0  0999 V2000
    5.4164  -10.5780    3.8973 C   0  0  0  0  0  0  0  0  0  0  0  0
    5.0259   -9.1742    3.3993 C   0  0  2  0  0  0  0  0  0  0  0  0
    4.2206   -8.4432    4.4181 C   0  0  0  0  0  0  0  0  0  0  0  0
    3.4822   -7.3307    3.6489 C   0  0  2  0  0  0  0  0  0  0  0  0
    4.3480   -6.1754    3.6149 O   0  0  0  0  0  0  0  0  0  0  0  0
    4.2139   -5.2223    2.6026 C   0  0  0  0  0  0  0  0  0  0  0  0
    3.9740   -5.5043    1.4223 O   0  0  0  0  0  0  0  0  0  0  0  0
    4.2547   -3.6944    3.0494 C   0  0  1  0  0  0  0  0  0  0  0  0
    5.4248   -3.1638    2.1322 C   0  0  0  0  0  0  0  0  0  0  0  0
    2.9219   -2.8448    2.7317 C   0  0  2  0  0  0  0  0  0  0  0  0
    2.7749   -2.9014    1.3215 O   0  0  0  0  0  0  0  0  0  0  0  0
    3.1206   -1.3166    2.9551 C   0  0  0  0  0  0  0  0  0  0  0  0
    3.7889   -0.9302    4.2872 C   0  0  0  0  0  0  0  0  0  0  0  0
    4.9534   -1.8525    4.7301 C   0  0  1  0  0  0  0  0  0  0  0  0
    5.4385   -1.4266    6.1377 C   0  0  0  0  0  0  0  0  0  0  0  0
    4.5827   -3.3853    4.5748 C   0  0  2  0  0  0  0  0  0  0  0  0
    5.7682   -4.0809    4.9182 O   0  0  0  0  0  0  0  0  0  0  0  0
    3.4741   -3.7253    5.6485 C   0  0  2  0  0  0  0  0  0  0  0  0
    3.8809   -4.2706    7.0217 C   0  0  0  0  0  0  0  0  0  0  0  0
    3.3951   -5.6177    6.5350 C   0  0  1  0  0  0  0  0  0  0  0  0
    3.0013   -6.6538    7.5404 C   0  0  0  0  0  0  0  0  0  0  0  0
    2.6473   -7.8003    6.7340 N   0  0  0  0  0  0  0  0  0  0  0  0
    2.4468   -8.9886    7.5638 C   0  0  0  0  0  0  0  0  0  0  0  0
    1.6106   -7.5884    5.7022 C   0  0  1  0  0  0  0  0  0  0  0  0
    0.3359   -7.0110    6.3965 C   0  0  0  0  0  0  0  0  0  0  0  0
    0.1123   -5.5073    6.7163 C   0  0  0  0  0  0  0  0  0  0  0  0
   -1.1238   -5.0479    7.1567 C   0  0  0  0  0  0  0  0  0  0  0  0
   -1.5351   -3.7267    6.8945 C   0  0  0  0  0  0  0  0  0  0  0  0
   -0.7470   -2.8641    6.0943 C   0  0  0  0  0  0  0  0  0  0  0  0
   -1.2559   -1.6412    5.7598 O   0  0  0  0  0  0  0  0  0  0  0  0
    0.5059   -3.2729    5.6032 C   0  0  0  0  0  0  0  0  0  0  0  0
    0.9556   -4.5325    6.1026 C   0  0  0  0  0  0  0  0  0  0  0  0
    2.3581   -4.8471    5.6590 C   0  0  1  0  0  0  0  0  0  0  0  0
    1.9004   -5.4487    4.3551 C   0  0  0  0  0  0  0  0  0  0  0  0
    1.4116   -4.7487    3.4002 N   0  0  0  0  0  0  0  0  0  0  0  0
    1.5431   -3.2994    3.4031 C   0  0  1  0  0  0  0  0  0  0  0  0
    1.1964   -2.5897    4.5993 O   0  0  0  0  0  0  0  0  0  0  0  0
    2.0082   -6.9550    4.2689 C   0  0  1  0  0  0  0  0  0  0  0  0
    0.9269   -7.4893    3.2713 C   0  0  0  0  0  0  0  0  0  0  0  0
    3.3516   -7.9018    2.3639 O   0  0  0  0  0  0  0  0  0  0  0  0
    4.0482   -9.1456    2.2220 C   0  0  0  0  0  0  0  0  0  0  0  0
    4.8105   -9.1188    0.8991 C   0  0  0  0  0  0  0  0  0  0  0  0
    2.9708  -10.2562    2.2540 C   0  0  0  0  0  0  0  0  0  0  0  0
    4.5500  -11.1595    4.2246 H   0  0  0  0  0  0  0  0  0  0  0  0
    6.0858  -10.5384    4.7569 H   0  0  0  0  0  0  0  0  0  0  0  0
    5.8825  -11.1267    3.0855 H   0  0  0  0  0  0  0  0  0  0  0  0
    5.9066   -8.5543    3.2089 H   0  0  0  0  0  0  0  0  0  0  0  0
    3.5022   -9.1818    4.7464 H   0  0  0  0  0  0  0  0  0  0  0  0
    4.8122   -8.0679    5.2529 H   0  0  0  0  0  0  0  0  0  0  0  0
    5.5709   -2.0829    2.1239 H   0  0  0  0  0  0  0  0  0  0  0  0
    5.2789   -3.4022    1.0762 H   0  0  0  0  0  0  0  0  0  0  0  0
    6.3812   -3.6172    2.3913 H   0  0  0  0  0  0  0  0  0  0  0  0
    2.6549   -3.8089    1.0826 H   0  0  0  0  0  0  0  0  0  0  0  0
    3.7396   -0.9157    2.1489 H   0  0  0  0  0  0  0  0  0  0  0  0
    2.1799   -0.7819    2.8186 H   0  0  0  0  0  0  0  0  0  0  0  0
    4.1662    0.0860    4.1945 H   0  0  0  0  0  0  0  0  0  0  0  0
    3.0289   -0.8804    5.0613 H   0  0  0  0  0  0  0  0  0  0  0  0
    5.8078   -1.6073    4.1066 H   0  0  0  0  0  0  0  0  0  0  0  0
    4.6594   -1.4858    6.8947 H   0  0  0  0  0  0  0  0  0  0  0  0
    5.7799   -0.3913    6.1200 H   0  0  0  0  0  0  0  0  0  0  0  0
    6.2840   -2.0231    6.4790 H   0  0  0  0  0  0  0  0  0  0  0  0
    6.4233   -3.9001    4.2638 H   0  0  0  0  0  0  0  0  0  0  0  0
    3.0100   -2.8088    5.9781 H   0  0  0  0  0  0  0  0  0  0  0  0
    4.9496   -4.2271    7.2529 H   0  0  0  0  0  0  0  0  0  0  0  0
    3.2578   -3.8954    7.8423 H   0  0  0  0  0  0  0  0  0  0  0  0
    4.2430   -5.9652    5.9571 H   0  0  0  0  0  0  0  0  0  0  0  0
    3.8647   -6.9208    8.1508 H   0  0  0  0  0  0  0  0  0  0  0  0
    2.2098   -6.3114    8.2045 H   0  0  0  0  0  0  0  0  0  0  0  0
    2.2734   -9.8793    6.9567 H   0  0  0  0  0  0  0  0  0  0  0  0
    1.6215   -8.8955    8.2717 H   0  0  0  0  0  0  0  0  0  0  0  0
    3.3507   -9.1851    8.1395 H   0  0  0  0  0  0  0  0  0  0  0  0
    1.3189   -8.6054    5.4511 H   0  0  0  0  0  0  0  0  0  0  0  0
   -0.5088   -7.3065    5.7773 H   0  0  0  0  0  0  0  0  0  0  0  0
    0.1608   -7.5469    7.3228 H   0  0  0  0  0  0  0  0  0  0  0  0
   -1.8182   -5.7387    7.6097 H   0  0  0  0  0  0  0  0  0  0  0  0
   -2.5186   -3.4478    7.2256 H   0  0  0  0  0  0  0  0  0  0  0  0
   -0.6520   -1.1731    5.2021 H   0  0  0  0  0  0  0  0  0  0  0  0
    0.7436   -2.9336    2.7729 H   0  0  0  0  0  0  0  0  0  0  0  0
    0.9667   -8.5724    3.2101 H   0  0  0  0  0  0  0  0  0  0  0  0
    1.0555   -7.1137    2.2552 H   0  0  0  0  0  0  0  0  0  0  0  0
   -0.0968   -7.2411    3.5635 H   0  0  0  0  0  0  0  0  0  0  0  0
    5.3110  -10.0741    0.7451 H   0  0  0  0  0  0  0  0  0  0  0  0
    5.5722   -8.3326    0.8833 H   0  0  0  0  0  0  0  0  0  0  0  0
    4.1304   -8.9499    0.0646 H   0  0  0  0  0  0  0  0  0  0  0  0
    3.4343  -11.2300    2.1545 H   0  0  0  0  0  0  0  0  0  0  0  0
    2.2425  -10.1489    1.4490 H   0  0  0  0  0  0  0  0  0  0  0  0
    2.4230  -10.3125    3.1919 H   0  0  0  0  0  0  0  0  0  0  0  0
  1  2  1  0
  1 44  1  0
  1 45  1  0
  1 46  1  0
  2 41  1  0
  2  3  1  0
  2 47  1  6
  3  4  1  0
  3 48  1  0
  3 49  1  0
  4 38  1  0
  4  5  1  0
  4 40  1  6
  5  6  1  0
  6  7  2  0
  6  8  1  0
  8 16  1  0
  8  9  1  6
  8 10  1  0
  9 50  1  0
  9 51  1  0
  9 52  1  0
 10 36  1  0
 10 11  1  6
 10 12  1  0
 11 53  1  0
 12 13  1  0
 12 54  1  0
 12 55  1  0
 13 14  1  0
 13 56  1  0
 13 57  1  0
 14 15  1  0
 14 16  1  0
 14 58  1  6
 15 59  1  0
 15 60  1  0
 15 61  1  0
 16 17  1  1
 16 18  1  0
 17 62  1  0
 18 33  1  0
 18 19  1  0
 18 63  1  1
 19 20  1  0
 19 64  1  0
 19 65  1  0
 20 33  1  0
 20 21  1  0
 20 66  1  6
 21 22  1  0
 21 67  1  0
 21 68  1  0
 22 23  1  0
 22 24  1  0
 23 69  1  0
 23 70  1  0
 23 71  1  0
 24 38  1  0
 24 25  1  0
 24 72  1  6
 25 26  1  0
 25 73  1  0
 25 74  1  0
 26 32  2  0
 26 27  1  0
 27 28  2  0
 27 75  1  0
 28 29  1  0
 28 76  1  0
 29 30  1  0
 29 31  2  0
 30 77  1  0
 31 37  1  0
 31 32  1  0
 33 32  1  1
 33 34  1  0
 34 35  2  0
 34 38  1  0
 35 36  1  0
 36 37  1  0
 36 78  1  6
 38 39  1  6
 39 79  1  0
 39 80  1  0
 39 81  1  0
 40 41  1  0
 41 42  1  0
 41 43  1  0
 42 82  1  0
 42 83  1  0
 42 84  1  0
 43 85  1  0
 43 86  1  0
 43 87  1  0
M  END
>  <i_m_ct_stereo_status>  (290) 
1

>  <s_m_source_file>  (290) 
/var/tmp/pbs.5076255.sched01/tmpalt_vnqi/12934k3la1h.sdf

>  <i_m_source_file_index>  (290) 
4

>  <i_lp_mmshare_version>  (290) 
48012

>  <i_f3d_flags>  (290) 
0

>  <s_epik_input>  (290) 
TzFDKFtDSDNdKShbQ0gzXSlbQ0BIXShbQ0gzXSlbQ0gyXVtDQF0xMltDQEBdMyhbQ0gzXSlbQ0BIXTROKFtDSDNdKVtDSDJdW0NASF01W0NAXTY3W0NAQEhdKFtDSDJdNSlbQ0BAXTgoW09IXSlbQ0BdKEMoTzIpPU8pKFtDSDNdKVtDQF0oW09IXSkoW0NIMl1bQ0gyXVtDQEhdOFtDSDNdKVtDQEBIXShOPUMzNylPYzljNmMoW0NIMl00KVtjSF1bY0hdYzlbT0hd

>  <s_epik_cmdline>  (290) 
J2VwaWtfcHl0aG9uJywgJy1waHQnLCAnMi4wJywgJy1waCcsICc3LjAnLCAnLXRuJywgJzgnLCAnLW1hJywgJzIwMCcsICctaW1hZScsICc8aW5maWxlLm1hZT4nLCAnLW9tYWUnLCAnPG91dGZpbGUubWFlPic=

>  <r_lp_tautomer_probability>  (290) 
1

>  <r_epik_Ionization_Penalty>  (290) 
0.24648

>  <r_epik_Ionization_Penalty_Charging>  (290) 
0

>  <r_epik_Ionization_Penalty_Neutral>  (290) 
0.24648

>  <r_epik_State_Penalty>  (290) 
0.237153

>  <r_epik_Charging_Adjusted_Penalty>  (290) 
0.237153

>  <i_epik_Tot_Q>  (290) 
0

>  <i_epik_Tot_abs_Q>  (290) 
0

>  <s_epik_Chemistry_Notes>  (290) 
This compound has an ester and may undergo hydrolysis at high or low pH. This compound has an imine and may undergo hydrolysis. This compound contains an acetal/aminal-like group ( X-CH(R)-Y where X, Y are N, S, or O) that may be acid/base labile, releasing an aldehyde.

>  <s_lp_Force_Field>  (290) 
OPLS3e

>  <r_lp_Energy>  (290) 
183.56

>  <b_lp_Chiralities_Consistent>  (290) 
1

>  <s_lp_Variant>  (290) 
89:0-1

>  <s_i_glide_gridfile>  (290) 
pfpi4k_grid

>  <i_i_glide_lignum>  (290) 
4

>  <i_i_glide_rotatable_bonds>  (290) 
3

>  <r_i_docking_score>  (290) 
-2.06939

>  <r_i_glide_ligand_efficiency>  (290) 
-0.0481253

>  <r_i_glide_ligand_efficiency_sa>  (290) 
-0.168602

>  <r_i_glide_ligand_efficiency_ln>  (290) 
-0.434636

>  <r_i_glide_gscore>  (290) 
-2.06939

>  <r_i_glide_lipo>  (290) 
-0.173139

>  <r_i_glide_hbond>  (290) 
0

>  <r_i_glide_metal>  (290) 
-0

>  <r_i_glide_rewards>  (290) 
-0.546981

>  <r_i_glide_evdw>  (290) 
-22.3004

>  <r_i_glide_ecoul>  (290) 
-1.55363

>  <r_i_glide_erotb>  (290) 
0

>  <r_i_glide_esite>  (290) 
-0.00120513

>  <r_i_glide_emodel>  (290) 
-31.6128

>  <r_i_glide_energy>  (290) 
-23.854

>  <r_i_glide_einternal>  (290) 
0.222525

>  <r_i_glide_intrahb_reward>  (290) 
-0.5

>  <i_i_glide_confnum>  (290) 
1

>  <i_i_glide_posenum>  (290) 
11

>  <r_i_glide_eff_state_penalty>  (290) 
0

>  <ligand_id>  (290) 
89

>  <original_smiles>  (290) 
CC1CC2(OC(=O)C3(C)C4(O)CCC(C)C3(O)C3CC5CN(C)C6Cc7ccc(O)c8c7C53C(=NC4O8)C62C)OC1(C)C

>  <smiles>  (290) 
[H]Oc1c([H])c([H])c2c3c1OC1([H])N=C4C35C3([H])C([H])([H])N(C([H])([H])[H])C([H])(C2([H])[H])C4(C([H])([H])[H])C2(OC(=O)C4(C([H])([H])[H])C1(O[H])C([H])([H])C([H])([H])C([H])(C([H])([H])[H])C4(O[H])C5([H])C3([H])[H])OC(C([H])([H])[H])(C([H])([H])[H])C([H])(C([H])([H])[H])C2([H])[H]

$$$$
89:1:0
     RDKit          3D

 88 96  0  0  1  0  0  0  0  0999 V2000
    5.3944  -10.6430    3.8661 C   0  0  0  0  0  0  0  0  0  0  0  0
    4.9872   -9.2326    3.3909 C   0  0  2  0  0  0  0  0  0  0  0  0
    4.1914   -8.4957    4.4237 C   0  0  0  0  0  0  0  0  0  0  0  0
    3.4580   -7.4017    3.6619 C   0  0  2  0  0  0  0  0  0  0  0  0
    4.3246   -6.2466    3.6072 O   0  0  0  0  0  0  0  0  0  0  0  0
    4.1643   -5.3013    2.5893 C   0  0  0  0  0  0  0  0  0  0  0  0
    3.9126   -5.6071    1.4209 O   0  0  0  0  0  0  0  0  0  0  0  0
    4.2115   -3.7751    3.0410 C   0  0  1  0  0  0  0  0  0  0  0  0
    5.3559   -3.2516    2.0926 C   0  0  0  0  0  0  0  0  0  0  0  0
    2.8698   -2.9205    2.7594 C   0  0  2  0  0  0  0  0  0  0  0  0
    2.6634   -2.9316    1.3526 O   0  0  0  0  0  0  0  0  0  0  0  0
    3.0875   -1.3954    2.9975 C   0  0  0  0  0  0  0  0  0  0  0  0
    3.7990   -1.0257    4.3121 C   0  0  0  0  0  0  0  0  0  0  0  0
    4.9707   -1.9581    4.7176 C   0  0  1  0  0  0  0  0  0  0  0  0
    5.4973   -1.5378    6.1096 C   0  0  0  0  0  0  0  0  0  0  0  0
    4.5862   -3.4837    4.5678 C   0  0  2  0  0  0  0  0  0  0  0  0
    5.7909   -4.1750    4.8603 O   0  0  0  0  0  0  0  0  0  0  0  0
    3.5124   -3.8239    5.6750 C   0  0  2  0  0  0  0  0  0  0  0  0
    3.9686   -4.3804    7.0272 C   0  0  0  0  0  0  0  0  0  0  0  0
    3.4428   -5.7292    6.5589 C   0  0  1  0  0  0  0  0  0  0  0  0
    3.0610   -6.7278    7.6001 C   0  0  0  0  0  0  0  0  0  0  0  0
    2.4760   -7.9085    6.9637 N   0  0  2  0  0  0  0  0  0  0  0  0
    3.1526   -9.2094    7.2356 C   0  0  0  0  0  0  0  0  0  0  0  0
    1.5764   -7.7256    5.7661 C   0  0  1  0  0  0  0  0  0  0  0  0
    0.2794   -7.0983    6.3723 C   0  0  0  0  0  0  0  0  0  0  0  0
    0.1396   -5.6009    6.7871 C   0  0  0  0  0  0  0  0  0  0  0  0
   -1.0708   -5.1118    7.2855 C   0  0  0  0  0  0  0  0  0  0  0  0
   -1.4599   -3.7792    7.0673 C   0  0  0  0  0  0  0  0  0  0  0  0
   -0.6902   -2.9262    6.2540 C   0  0  0  0  0  0  0  0  0  0  0  0
   -1.1713   -1.6875    5.9439 O   0  0  0  0  0  0  0  0  0  0  0  0
    0.5424   -3.3634    5.7236 C   0  0  0  0  0  0  0  0  0  0  0  0
    0.9919   -4.6214    6.1927 C   0  0  0  0  0  0  0  0  0  0  0  0
    2.3905   -4.9450    5.7087 C   0  0  1  0  0  0  0  0  0  0  0  0
    1.9007   -5.5421    4.4084 C   0  0  0  0  0  0  0  0  0  0  0  0
    1.3908   -4.8384    3.4676 N   0  0  0  0  0  0  0  0  0  0  0  0
    1.5129   -3.3860    3.4816 C   0  0  1  0  0  0  0  0  0  0  0  0
    1.2009   -2.6832    4.6965 O   0  0  0  0  0  0  0  0  0  0  0  0
    2.0052   -7.0524    4.3345 C   0  0  1  0  0  0  0  0  0  0  0  0
    0.9222   -7.5676    3.3250 C   0  0  0  0  0  0  0  0  0  0  0  0
    3.2820   -7.9781    2.3873 O   0  0  0  0  0  0  0  0  0  0  0  0
    3.9941   -9.2108    2.2265 C   0  0  0  0  0  0  0  0  0  0  0  0
    4.7317   -9.1959    0.8903 C   0  0  0  0  0  0  0  0  0  0  0  0
    2.9369  -10.3410    2.2641 C   0  0  0  0  0  0  0  0  0  0  0  0
    4.5385  -11.2357    4.2051 H   0  0  0  0  0  0  0  0  0  0  0  0
    6.0919  -10.6137    4.7033 H   0  0  0  0  0  0  0  0  0  0  0  0
    5.8492  -11.1912    3.0433 H   0  0  0  0  0  0  0  0  0  0  0  0
    5.8760   -8.6328    3.1697 H   0  0  0  0  0  0  0  0  0  0  0  0
    3.4458   -9.2083    4.7523 H   0  0  0  0  0  0  0  0  0  0  0  0
    4.8026   -8.1042    5.2364 H   0  0  0  0  0  0  0  0  0  0  0  0
    5.5066   -2.1739    2.0871 H   0  0  0  0  0  0  0  0  0  0  0  0
    5.1757   -3.4856    1.0390 H   0  0  0  0  0  0  0  0  0  0  0  0
    6.3179   -3.7050    2.3359 H   0  0  0  0  0  0  0  0  0  0  0  0
    2.0740   -2.2280    1.1210 H   0  0  0  0  0  0  0  0  0  0  0  0
    3.6943   -0.9829    2.1852 H   0  0  0  0  0  0  0  0  0  0  0  0
    2.1445   -0.8522    2.9110 H   0  0  0  0  0  0  0  0  0  0  0  0
    4.1751   -0.0061    4.2190 H   0  0  0  0  0  0  0  0  0  0  0  0
    3.0576   -0.9789    5.1076 H   0  0  0  0  0  0  0  0  0  0  0  0
    5.8115   -1.7283    4.0750 H   0  0  0  0  0  0  0  0  0  0  0  0
    4.7401   -1.5979    6.8891 H   0  0  0  0  0  0  0  0  0  0  0  0
    5.8389   -0.5020    6.0834 H   0  0  0  0  0  0  0  0  0  0  0  0
    6.3520   -2.1366    6.4219 H   0  0  0  0  0  0  0  0  0  0  0  0
    5.6314   -5.1058    4.7829 H   0  0  0  0  0  0  0  0  0  0  0  0
    3.0591   -2.9018    6.0145 H   0  0  0  0  0  0  0  0  0  0  0  0
    5.0457   -4.3502    7.2243 H   0  0  0  0  0  0  0  0  0  0  0  0
    3.3934   -3.9813    7.8739 H   0  0  0  0  0  0  0  0  0  0  0  0
    4.2614   -6.1158    5.9562 H   0  0  0  0  0  0  0  0  0  0  0  0
    3.9412   -7.0089    8.1794 H   0  0  0  0  0  0  0  0  0  0  0  0
    2.3543   -6.2919    8.3048 H   0  0  0  0  0  0  0  0  0  0  0  0
    4.2220   -9.1850    7.0165 H   0  0  0  0  0  0  0  0  0  0  0  0
    2.6961  -10.0517    6.7048 H   0  0  0  0  0  0  0  0  0  0  0  0
    3.0782   -9.4411    8.2990 H   0  0  0  0  0  0  0  0  0  0  0  0
    1.2792   -8.7441    5.5146 H   0  0  0  0  0  0  0  0  0  0  0  0
   -0.5478   -7.3084    5.6995 H   0  0  0  0  0  0  0  0  0  0  0  0
    0.0172   -7.6702    7.2641 H   0  0  0  0  0  0  0  0  0  0  0  0
   -1.7801   -5.7981    7.7201 H   0  0  0  0  0  0  0  0  0  0  0  0
   -2.4225   -3.4632    7.4211 H   0  0  0  0  0  0  0  0  0  0  0  0
   -0.5843   -1.2232    5.3651 H   0  0  0  0  0  0  0  0  0  0  0  0
    0.6858   -3.0354    2.8789 H   0  0  0  0  0  0  0  0  0  0  0  0
    0.9440   -8.6521    3.2425 H   0  0  0  0  0  0  0  0  0  0  0  0
    1.0568   -7.1749    2.3131 H   0  0  0  0  0  0  0  0  0  0  0  0
   -0.1030   -7.3056    3.5995 H   0  0  0  0  0  0  0  0  0  0  0  0
    5.2245  -10.1541    0.7163 H   0  0  0  0  0  0  0  0  0  0  0  0
    5.4948   -8.4154    0.8615 H   0  0  0  0  0  0  0  0  0  0  0  0
    4.0323   -9.0192    0.0740 H   0  0  0  0  0  0  0  0  0  0  0  0
    3.3942  -11.3060    2.0990 H   0  0  0  0  0  0  0  0  0  0  0  0
    2.1680  -10.2032    1.5047 H   0  0  0  0  0  0  0  0  0  0  0  0
    2.4316  -10.4383    3.2219 H   0  0  0  0  0  0  0  0  0  0  0  0
    1.7306   -8.0632    7.6326 H   0  0  0  0  0  0  0  0  0  0  0  0
  1  2  1  0
  1 44  1  0
  1 45  1  0
  1 46  1  0
  2 41  1  0
  2  3  1  0
  2 47  1  6
  3  4  1  0
  3 48  1  0
  3 49  1  0
  4 38  1  0
  4  5  1  0
  4 40  1  6
  5  6  1  0
  6  7  2  0
  6  8  1  0
  8 16  1  0
  8  9  1  6
  8 10  1  0
  9 50  1  0
  9 51  1  0
  9 52  1  0
 10 36  1  0
 10 11  1  6
 10 12  1  0
 11 53  1  0
 12 13  1  0
 12 54  1  0
 12 55  1  0
 13 14  1  0
 13 56  1  0
 13 57  1  0
 14 15  1  0
 14 16  1  0
 14 58  1  6
 15 59  1  0
 15 60  1  0
 15 61  1  0
 16 17  1  1
 16 18  1  0
 17 62  1  0
 18 33  1  0
 18 19  1  0
 18 63  1  1
 19 20  1  0
 19 64  1  0
 19 65  1  0
 20 33  1  0
 20 21  1  0
 20 66  1  6
 21 22  1  0
 21 67  1  0
 21 68  1  0
 22 23  1  0
 22 24  1  0
 22 88  1  1
 23 69  1  0
 23 70  1  0
 23 71  1  0
 24 38  1  0
 24 25  1  0
 24 72  1  6
 25 26  1  0
 25 73  1  0
 25 74  1  0
 26 32  2  0
 26 27  1  0
 27 28  2  0
 27 75  1  0
 28 29  1  0
 28 76  1  0
 29 30  1  0
 29 31  2  0
 30 77  1  0
 31 37  1  0
 31 32  1  0
 33 32  1  1
 33 34  1  0
 34 35  2  0
 34 38  1  0
 35 36  1  0
 36 37  1  0
 36 78  1  6
 38 39  1  6
 39 79  1  0
 39 80  1  0
 39 81  1  0
 40 41  1  0
 41 42  1  0
 41 43  1  0
 42 82  1  0
 42 83  1  0
 42 84  1  0
 43 85  1  0
 43 86  1  0
 43 87  1  0
M  CHG  1  22   1
M  END
>  <i_m_ct_stereo_status>  (291) 
1

>  <s_m_source_file>  (291) 
/var/tmp/pbs.5076255.sched01/tmpalt_vnqi/12934k3la1h.sdf

>  <i_m_source_file_index>  (291) 
5

>  <i_lp_mmshare_version>  (291) 
48012

>  <i_f3d_flags>  (291) 
0

>  <s_epik_input>  (291) 
TzFDKFtDSDNdKShbQ0gzXSlbQ0BIXShbQ0gzXSlbQ0gyXVtDQF0xMltDQEBdMyhbQ0gzXSlbQ0BIXTROKFtDSDNdKVtDSDJdW0NASF01W0NAXTY3W0NAQEhdKFtDSDJdNSlbQ0BAXTgoW09IXSlbQ0BdKEMoTzIpPU8pKFtDSDNdKVtDQF0oW09IXSkoW0NIMl1bQ0gyXVtDQEhdOFtDSDNdKVtDQEBIXShOPUMzNylPYzljNmMoW0NIMl00KVtjSF1bY0hdYzlbT0hd

>  <s_epik_cmdline>  (291) 
J2VwaWtfcHl0aG9uJywgJy1waHQnLCAnMi4wJywgJy1waCcsICc3LjAnLCAnLXRuJywgJzgnLCAnLW1hJywgJzIwMCcsICctaW1hZScsICc8aW5maWxlLm1hZT4nLCAnLW9tYWUnLCAnPG91dGZpbGUubWFlPic=

>  <r_lp_tautomer_probability>  (291) 
1

>  <r_epik_Ionization_Penalty>  (291) 
0.642075

>  <r_epik_Ionization_Penalty_Charging>  (291) 
0.639557

>  <r_epik_Ionization_Penalty_Neutral>  (291) 
0.00251708

>  <r_epik_State_Penalty>  (291) 
0.657119

>  <r_epik_Charging_Adjusted_Penalty>  (291) 
1.29668

>  <i_epik_Tot_Q>  (291) 
1

>  <i_epik_Tot_abs_Q>  (291) 
1

>  <s_epik_Chemistry_Notes>  (291) 
This compound has an ester and may undergo hydrolysis at high or low pH. This compound has an imine and may undergo hydrolysis. This compound contains an acetal/aminal-like group ( X-CH(R)-Y where X, Y are N, S, or O) that may be acid/base labile, releasing an aldehyde.

>  <s_lp_Force_Field>  (291) 
OPLS3e

>  <r_lp_Energy>  (291) 
203.985

>  <b_lp_Chiralities_Consistent>  (291) 
1

>  <s_lp_Variant>  (291) 
89:0-2

>  <s_i_glide_gridfile>  (291) 
pfpi4k_grid

>  <i_i_glide_lignum>  (291) 
5

>  <i_i_glide_rotatable_bonds>  (291) 
3

>  <r_i_docking_score>  (291) 
-2.57635

>  <r_i_glide_ligand_efficiency>  (291) 
-0.0599152

>  <r_i_glide_ligand_efficiency_sa>  (291) 
-0.209907

>  <r_i_glide_ligand_efficiency_ln>  (291) 
-0.541114

>  <r_i_glide_gscore>  (291) 
-2.57635

>  <r_i_glide_lipo>  (291) 
-0.183957

>  <r_i_glide_hbond>  (291) 
0

>  <r_i_glide_metal>  (291) 
-0

>  <r_i_glide_rewards>  (291) 
-0.54354

>  <r_i_glide_evdw>  (291) 
-21.5221

>  <r_i_glide_ecoul>  (291) 
-5.09663

>  <r_i_glide_erotb>  (291) 
0

>  <r_i_glide_esite>  (291) 
-0.00825363

>  <r_i_glide_emodel>  (291) 
-36.707

>  <r_i_glide_energy>  (291) 
-26.6188

>  <r_i_glide_einternal>  (291) 
0.560935

>  <r_i_glide_intrahb_reward>  (291) 
-0.5

>  <i_i_glide_confnum>  (291) 
1

>  <i_i_glide_posenum>  (291) 
26

>  <r_i_glide_eff_state_penalty>  (291) 
0

>  <ligand_id>  (291) 
89

>  <original_smiles>  (291) 
CC1CC2(OC(=O)C3(C)C4(O)CCC(C)C3(O)C3CC5CN(C)C6Cc7ccc(O)c8c7C53C(=NC4O8)C62C)OC1(C)C

>  <smiles>  (291) 
[H]Oc1c([H])c([H])c2c3c1OC1([H])N=C4C35C3([H])C([H])([H])C5([H])C([H])([H])[N+]([H])(C([H])([H])[H])C([H])(C2([H])[H])C4(C([H])([H])[H])C2(OC(=O)C4(C([H])([H])[H])C1(O[H])C([H])([H])C([H])([H])C([H])(C([H])([H])[H])C34O[H])OC(C([H])([H])[H])(C([H])([H])[H])C([H])(C([H])([H])[H])C2([H])[H]

$$$$
89:1:1
     RDKit          3D

 88 96  0  0  1  0  0  0  0  0999 V2000
    0.3901  -10.0362    6.0811 C   0  0  0  0  0  0  0  0  0  0  0  0
    1.2856   -9.4755    4.9604 C   0  0  2  0  0  0  0  0  0  0  0  0
    1.8711   -8.1532    5.3245 C   0  0  0  0  0  0  0  0  0  0  0  0
    2.2751   -7.5092    4.0101 C   0  0  2  0  0  0  0  0  0  0  0  0
    3.6218   -7.9327    3.7087 O   0  0  0  0  0  0  0  0  0  0  0  0
    4.0705   -7.9326    2.3875 C   0  0  0  0  0  0  0  0  0  0  0  0
    3.3686   -8.2913    1.4326 O   0  0  0  0  0  0  0  0  0  0  0  0
    5.5226   -7.3308    2.1425 C   0  0  1  0  0  0  0  0  0  0  0  0
    6.2029   -8.5516    1.4074 C   0  0  0  0  0  0  0  0  0  0  0  0
    5.5855   -6.0169    1.2039 C   0  0  2  0  0  0  0  0  0  0  0  0
    5.0006   -6.3773   -0.0251 O   0  0  0  0  0  0  0  0  0  0  0  0
    7.0527   -5.6722    0.8044 C   0  0  0  0  0  0  0  0  0  0  0  0
    8.0634   -5.6482    1.9723 C   0  0  0  0  0  0  0  0  0  0  0  0
    7.8857   -6.7604    3.0392 C   0  0  1  0  0  0  0  0  0  0  0  0
    8.8663   -6.5089    4.2064 C   0  0  0  0  0  0  0  0  0  0  0  0
    6.3704   -6.9485    3.4408 C   0  0  2  0  0  0  0  0  0  0  0  0
    6.3872   -8.0831    4.2941 O   0  0  0  0  0  0  0  0  0  0  0  0
    5.9222   -5.6700    4.2626 C   0  0  2  0  0  0  0  0  0  0  0  0
    6.0316   -5.6655    5.7866 C   0  0  0  0  0  0  0  0  0  0  0  0
    4.5187   -5.8035    5.8108 C   0  0  1  0  0  0  0  0  0  0  0  0
    3.7963   -5.3426    7.0294 C   0  0  0  0  0  0  0  0  0  0  0  0
    2.3537   -5.4486    6.8177 N   0  0  2  0  0  0  0  0  0  0  0  0
    1.6129   -6.3079    7.7828 C   0  0  0  0  0  0  0  0  0  0  0  0
    1.7846   -5.1129    5.4622 C   0  0  1  0  0  0  0  0  0  0  0  0
    1.9238   -3.5565    5.3761 C   0  0  0  0  0  0  0  0  0  0  0  0
    3.2505   -2.8076    5.0616 C   0  0  0  0  0  0  0  0  0  0  0  0
    3.2740   -1.4064    4.9474 C   0  0  0  0  0  0  0  0  0  0  0  0
    4.2127   -0.7702    4.1084 C   0  0  0  0  0  0  0  0  0  0  0  0
    5.0297   -1.5228    3.2542 C   0  0  0  0  0  0  0  0  0  0  0  0
    5.8234   -0.8981    2.3423 O   0  0  0  0  0  0  0  0  0  0  0  0
    5.0342   -2.9404    3.3054 C   0  0  0  0  0  0  0  0  0  0  0  0
    4.2874   -3.5000    4.3736 C   0  0  0  0  0  0  0  0  0  0  0  0
    4.4903   -5.0082    4.4657 C   0  0  1  0  0  0  0  0  0  0  0  0
    3.4035   -5.3047    3.4684 C   0  0  0  0  0  0  0  0  0  0  0  0
    3.5166   -5.0357    2.2220 N   0  0  0  0  0  0  0  0  0  0  0  0
    4.8134   -4.6998    1.6596 C   0  0  1  0  0  0  0  0  0  0  0  0
    5.6252   -3.7281    2.3341 O   0  0  0  0  0  0  0  0  0  0  0  0
    2.1370   -5.8773    4.0571 C   0  0  1  0  0  0  0  0  0  0  0  0
    0.9436   -5.5116    3.1070 C   0  0  0  0  0  0  0  0  0  0  0  0
    1.3434   -8.0548    3.1048 O   0  0  0  0  0  0  0  0  0  0  0  0
    0.5510   -9.0978    3.6698 C   0  0  0  0  0  0  0  0  0  0  0  0
    0.5042  -10.2874    2.7158 C   0  0  0  0  0  0  0  0  0  0  0  0
   -0.8624   -8.5036    3.8775 C   0  0  0  0  0  0  0  0  0  0  0  0
   -0.4074   -9.3512    6.3797 H   0  0  0  0  0  0  0  0  0  0  0  0
    0.9596  -10.2546    6.9833 H   0  0  0  0  0  0  0  0  0  0  0  0
   -0.0842  -10.9511    5.7363 H   0  0  0  0  0  0  0  0  0  0  0  0
    2.1198  -10.1563    4.7597 H   0  0  0  0  0  0  0  0  0  0  0  0
    1.0274   -7.5900    5.7020 H   0  0  0  0  0  0  0  0  0  0  0  0
    2.6988   -8.2284    6.0276 H   0  0  0  0  0  0  0  0  0  0  0  0
    7.1925   -8.3667    0.9940 H   0  0  0  0  0  0  0  0  0  0  0  0
    5.6248   -8.9096    0.5520 H   0  0  0  0  0  0  0  0  0  0  0  0
    6.3082   -9.4139    2.0702 H   0  0  0  0  0  0  0  0  0  0  0  0
    4.9612   -5.6156   -0.5808 H   0  0  0  0  0  0  0  0  0  0  0  0
    7.4350   -6.4070    0.0935 H   0  0  0  0  0  0  0  0  0  0  0  0
    7.1038   -4.7348    0.2465 H   0  0  0  0  0  0  0  0  0  0  0  0
    9.0766   -5.7082    1.5662 H   0  0  0  0  0  0  0  0  0  0  0  0
    8.0159   -4.6671    2.4332 H   0  0  0  0  0  0  0  0  0  0  0  0
    8.2747   -7.6854    2.6219 H   0  0  0  0  0  0  0  0  0  0  0  0
    8.7079   -5.5511    4.7002 H   0  0  0  0  0  0  0  0  0  0  0  0
    9.8936   -6.5043    3.8390 H   0  0  0  0  0  0  0  0  0  0  0  0
    8.8140   -7.2929    4.9606 H   0  0  0  0  0  0  0  0  0  0  0  0
    5.5018   -8.2673    4.5685 H   0  0  0  0  0  0  0  0  0  0  0  0
    6.6086   -4.8731    4.0337 H   0  0  0  0  0  0  0  0  0  0  0  0
    6.5772   -6.5013    6.2339 H   0  0  0  0  0  0  0  0  0  0  0  0
    6.3650   -4.7013    6.1911 H   0  0  0  0  0  0  0  0  0  0  0  0
    4.3712   -6.8709    5.6730 H   0  0  0  0  0  0  0  0  0  0  0  0
    4.0978   -5.9437    7.8869 H   0  0  0  0  0  0  0  0  0  0  0  0
    4.0637   -4.3131    7.2640 H   0  0  0  0  0  0  0  0  0  0  0  0
    2.0292   -7.3114    7.8754 H   0  0  0  0  0  0  0  0  0  0  0  0
    0.5465   -6.3896    7.5558 H   0  0  0  0  0  0  0  0  0  0  0  0
    1.6810   -5.8784    8.7819 H   0  0  0  0  0  0  0  0  0  0  0  0
    0.7143   -5.2678    5.5914 H   0  0  0  0  0  0  0  0  0  0  0  0
    1.1936   -3.1839    4.6608 H   0  0  0  0  0  0  0  0  0  0  0  0
    1.5759   -3.1366    6.3200 H   0  0  0  0  0  0  0  0  0  0  0  0
    2.4939   -0.8205    5.4096 H   0  0  0  0  0  0  0  0  0  0  0  0
    4.2019    0.3076    4.0399 H   0  0  0  0  0  0  0  0  0  0  0  0
    5.9145    0.0245    2.5267 H   0  0  0  0  0  0  0  0  0  0  0  0
    4.5834   -4.1315    0.7619 H   0  0  0  0  0  0  0  0  0  0  0  0
    0.0056   -5.8930    3.5031 H   0  0  0  0  0  0  0  0  0  0  0  0
    1.0549   -5.9300    2.1024 H   0  0  0  0  0  0  0  0  0  0  0  0
    0.8085   -4.4405    2.9591 H   0  0  0  0  0  0  0  0  0  0  0  0
   -0.1538  -11.0635    3.1076 H   0  0  0  0  0  0  0  0  0  0  0  0
    1.4963  -10.7182    2.5603 H   0  0  0  0  0  0  0  0  0  0  0  0
    0.1161   -9.9777    1.7501 H   0  0  0  0  0  0  0  0  0  0  0  0
   -1.5304   -9.2831    4.2065 H   0  0  0  0  0  0  0  0  0  0  0  0
   -1.2945   -8.1110    2.9583 H   0  0  0  0  0  0  0  0  0  0  0  0
   -0.9030   -7.7196    4.6326 H   0  0  0  0  0  0  0  0  0  0  0  0
    2.1006   -4.5757    7.2577 H   0  0  0  0  0  0  0  0  0  0  0  0
  1  2  1  0
  1 44  1  0
  1 45  1  0
  1 46  1  0
  2 41  1  0
  2  3  1  0
  2 47  1  6
  3  4  1  0
  3 48  1  0
  3 49  1  0
  4 38  1  0
  4  5  1  0
  4 40  1  6
  5  6  1  0
  6  7  2  0
  6  8  1  0
  8 16  1  0
  8  9  1  6
  8 10  1  0
  9 50  1  0
  9 51  1  0
  9 52  1  0
 10 36  1  0
 10 11  1  6
 10 12  1  0
 11 53  1  0
 12 13  1  0
 12 54  1  0
 12 55  1  0
 13 14  1  0
 13 56  1  0
 13 57  1  0
 14 15  1  0
 14 16  1  0
 14 58  1  6
 15 59  1  0
 15 60  1  0
 15 61  1  0
 16 17  1  1
 16 18  1  0
 17 62  1  0
 18 33  1  0
 18 19  1  0
 18 63  1  6
 19 20  1  0
 19 64  1  0
 19 65  1  0
 20 33  1  0
 20 21  1  0
 20 66  1  6
 21 22  1  0
 21 67  1  0
 21 68  1  0
 22 23  1  0
 22 24  1  0
 22 88  1  1
 23 69  1  0
 23 70  1  0
 23 71  1  0
 24 38  1  0
 24 25  1  0
 24 72  1  1
 25 26  1  0
 25 73  1  0
 25 74  1  0
 26 32  2  0
 26 27  1  0
 27 28  2  0
 27 75  1  0
 28 29  1  0
 28 76  1  0
 29 30  1  0
 29 31  2  0
 30 77  1  0
 31 37  1  0
 31 32  1  0
 33 32  1  1
 33 34  1  0
 34 35  2  0
 34 38  1  0
 35 36  1  0
 36 37  1  0
 36 78  1  6
 38 39  1  6
 39 79  1  0
 39 80  1  0
 39 81  1  0
 40 41  1  0
 41 42  1  0
 41 43  1  0
 42 82  1  0
 42 83  1  0
 42 84  1  0
 43 85  1  0
 43 86  1  0
 43 87  1  0
M  CHG  1  22   1
M  END
>  <i_m_ct_stereo_status>  (292) 
1

>  <s_m_source_file>  (292) 
/var/tmp/pbs.5076255.sched01/tmpalt_vnqi/12934k3la1h.sdf

>  <i_m_source_file_index>  (292) 
5

>  <i_lp_mmshare_version>  (292) 
48012

>  <i_f3d_flags>  (292) 
0

>  <s_epik_input>  (292) 
TzFDKFtDSDNdKShbQ0gzXSlbQ0BIXShbQ0gzXSlbQ0gyXVtDQF0xMltDQEBdMyhbQ0gzXSlbQ0BIXTROKFtDSDNdKVtDSDJdW0NASF01W0NAXTY3W0NAQEhdKFtDSDJdNSlbQ0BAXTgoW09IXSlbQ0BdKEMoTzIpPU8pKFtDSDNdKVtDQF0oW09IXSkoW0NIMl1bQ0gyXVtDQEhdOFtDSDNdKVtDQEBIXShOPUMzNylPYzljNmMoW0NIMl00KVtjSF1bY0hdYzlbT0hd

>  <s_epik_cmdline>  (292) 
J2VwaWtfcHl0aG9uJywgJy1waHQnLCAnMi4wJywgJy1waCcsICc3LjAnLCAnLXRuJywgJzgnLCAnLW1hJywgJzIwMCcsICctaW1hZScsICc8aW5maWxlLm1hZT4nLCAnLW9tYWUnLCAnPG91dGZpbGUubWFlPic=

>  <r_lp_tautomer_probability>  (292) 
1

>  <r_epik_Ionization_Penalty>  (292) 
0.642075

>  <r_epik_Ionization_Penalty_Charging>  (292) 
0.639557

>  <r_epik_Ionization_Penalty_Neutral>  (292) 
0.00251708

>  <r_epik_State_Penalty>  (292) 
0.657119

>  <r_epik_Charging_Adjusted_Penalty>  (292) 
1.29668

>  <i_epik_Tot_Q>  (292) 
1

>  <i_epik_Tot_abs_Q>  (292) 
1

>  <s_epik_Chemistry_Notes>  (292) 
This compound has an ester and may undergo hydrolysis at high or low pH. This compound has an imine and may undergo hydrolysis. This compound contains an acetal/aminal-like group ( X-CH(R)-Y where X, Y are N, S, or O) that may be acid/base labile, releasing an aldehyde.

>  <s_lp_Force_Field>  (292) 
OPLS3e

>  <r_lp_Energy>  (292) 
203.985

>  <b_lp_Chiralities_Consistent>  (292) 
1

>  <s_lp_Variant>  (292) 
89:0-2

>  <s_i_glide_gridfile>  (292) 
pfpi4k_grid

>  <i_i_glide_lignum>  (292) 
5

>  <i_i_glide_rotatable_bonds>  (292) 
3

>  <r_i_docking_score>  (292) 
-2.49434

>  <r_i_glide_ligand_efficiency>  (292) 
-0.0580078

>  <r_i_glide_ligand_efficiency_sa>  (292) 
-0.203225

>  <r_i_glide_ligand_efficiency_ln>  (292) 
-0.523888

>  <r_i_glide_gscore>  (292) 
-2.49434

>  <r_i_glide_lipo>  (292) 
-0.648306

>  <r_i_glide_hbond>  (292) 
0

>  <r_i_glide_metal>  (292) 
-0

>  <r_i_glide_rewards>  (292) 
-0.536971

>  <r_i_glide_evdw>  (292) 
-22.4667

>  <r_i_glide_ecoul>  (292) 
-1.20795

>  <r_i_glide_erotb>  (292) 
0

>  <r_i_glide_esite>  (292) 
-0.00453093

>  <r_i_glide_emodel>  (292) 
-33.5039

>  <r_i_glide_energy>  (292) 
-23.6747

>  <r_i_glide_einternal>  (292) 
0.339161

>  <r_i_glide_intrahb_reward>  (292) 
-0.5

>  <i_i_glide_confnum>  (292) 
1

>  <i_i_glide_posenum>  (292) 
19

>  <r_i_glide_eff_state_penalty>  (292) 
0

>  <ligand_id>  (292) 
89

>  <original_smiles>  (292) 
CC1CC2(OC(=O)C3(C)C4(O)CCC(C)C3(O)C3CC5CN(C)C6Cc7ccc(O)c8c7C53C(=NC4O8)C62C)OC1(C)C

>  <smiles>  (292) 
[H]Oc1c([H])c([H])c2c3c1OC1([H])N=C4C35C3([H])C([H])([H])C5([H])C([H])([H])[N+]([H])(C([H])([H])[H])C([H])(C2([H])[H])C4(C([H])([H])[H])C2(OC(=O)C4(C([H])([H])[H])C1(O[H])C([H])([H])C([H])([H])C([H])(C([H])([H])[H])C34O[H])OC(C([H])([H])[H])(C([H])([H])[H])C([H])(C([H])([H])[H])C2([H])[H]

$$$$
89:1:2
     RDKit          3D

 88 96  0  0  1  0  0  0  0  0999 V2000
    0.3085   -9.6918    6.5707 C   0  0  0  0  0  0  0  0  0  0  0  0
    1.1468   -9.1828    5.3842 C   0  0  2  0  0  0  0  0  0  0  0  0
    1.7921   -7.8701    5.6764 C   0  0  0  0  0  0  0  0  0  0  0  0
    2.1366   -7.2731    4.3229 C   0  0  2  0  0  0  0  0  0  0  0  0
    3.4475   -7.7547    3.9543 O   0  0  0  0  0  0  0  0  0  0  0  0
    3.8254   -7.8003    2.6144 C   0  0  0  0  0  0  0  0  0  0  0  0
    3.0589   -8.1544    1.7074 O   0  0  0  0  0  0  0  0  0  0  0  0
    5.2861   -7.2603    2.2741 C   0  0  1  0  0  0  0  0  0  0  0  0
    5.8809   -8.5228    1.5360 C   0  0  0  0  0  0  0  0  0  0  0  0
    5.3441   -5.9811    1.2866 C   0  0  2  0  0  0  0  0  0  0  0  0
    4.7300   -6.3839    0.0786 O   0  0  0  0  0  0  0  0  0  0  0  0
    6.7984   -5.6802    0.8068 C   0  0  0  0  0  0  0  0  0  0  0  0
    7.8694   -5.6615    1.9119 C   0  0  0  0  0  0  0  0  0  0  0  0
    7.7138   -6.7414    3.0135 C   0  0  1  0  0  0  0  0  0  0  0  0
    8.7664   -6.4929    4.1164 C   0  0  0  0  0  0  0  0  0  0  0  0
    6.2181   -6.8724    3.5110 C   0  0  2  0  0  0  0  0  0  0  0  0
    6.2338   -7.9681    4.4133 O   0  0  0  0  0  0  0  0  0  0  0  0
    5.8616   -5.5522    4.3139 C   0  0  2  0  0  0  0  0  0  0  0  0
    6.0563   -5.5116    5.8297 C   0  0  0  0  0  0  0  0  0  0  0  0
    4.5432   -5.6005    5.9420 C   0  0  1  0  0  0  0  0  0  0  0  0
    3.9050   -5.0836    7.1870 C   0  0  0  0  0  0  0  0  0  0  0  0
    2.4501   -5.1435    7.0610 N   0  0  2  0  0  0  0  0  0  0  0  0
    1.7380   -5.9520    8.0909 C   0  0  0  0  0  0  0  0  0  0  0  0
    1.8147   -4.8260    5.7316 C   0  0  1  0  0  0  0  0  0  0  0  0
    1.9997   -3.2793    5.5935 C   0  0  0  0  0  0  0  0  0  0  0  0
    3.3320   -2.5855    5.1801 C   0  0  0  0  0  0  0  0  0  0  0  0
    3.3911   -1.1889    5.0268 C   0  0  0  0  0  0  0  0  0  0  0  0
    4.3003   -0.6094    4.1167 C   0  0  0  0  0  0  0  0  0  0  0  0
    5.0471   -1.4030    3.2408 C   0  0  0  0  0  0  0  0  0  0  0  0
    5.7912   -0.8150    2.2628 O   0  0  0  0  0  0  0  0  0  0  0  0
    5.0177   -2.8241    3.3346 C   0  0  0  0  0  0  0  0  0  0  0  0
    4.3102   -3.3288    4.4566 C   0  0  0  0  0  0  0  0  0  0  0  0
    4.4637   -4.8413    4.5790 C   0  0  1  0  0  0  0  0  0  0  0  0
    3.3128   -5.1248    3.6526 C   0  0  0  0  0  0  0  0  0  0  0  0
    3.3624   -4.8955    2.3943 N   0  0  0  0  0  0  0  0  0  0  0  0
    4.6334   -4.6208    1.7449 C   0  0  1  0  0  0  0  0  0  0  0  0
    5.5158   -3.6526    2.3440 O   0  0  0  0  0  0  0  0  0  0  0  0
    2.0616   -5.6400    4.3321 C   0  0  1  0  0  0  0  0  0  0  0  0
    0.8255   -5.2588    3.4430 C   0  0  0  0  0  0  0  0  0  0  0  0
    1.1303   -7.8096    3.4925 O   0  0  0  0  0  0  0  0  0  0  0  0
    0.3428   -8.8160    4.1297 C   0  0  0  0  0  0  0  0  0  0  0  0
    0.2079  -10.0135    3.1937 C   0  0  0  0  0  0  0  0  0  0  0  0
   -1.0446   -8.1873    4.4165 C   0  0  0  0  0  0  0  0  0  0  0  0
   -0.4521   -8.9770    6.8967 H   0  0  0  0  0  0  0  0  0  0  0  0
    0.9171   -9.9187    7.4460 H   0  0  0  0  0  0  0  0  0  0  0  0
   -0.1944  -10.6031    6.2644 H   0  0  0  0  0  0  0  0  0  0  0  0
    1.9466   -9.8929    5.1536 H   0  0  0  0  0  0  0  0  0  0  0  0
    0.9908   -7.2674    6.0857 H   0  0  0  0  0  0  0  0  0  0  0  0
    2.6584   -7.9513    6.3305 H   0  0  0  0  0  0  0  0  0  0  0  0
    6.8488   -8.3781    1.0604 H   0  0  0  0  0  0  0  0  0  0  0  0
    5.2440   -8.8754    0.7206 H   0  0  0  0  0  0  0  0  0  0  0  0
    5.9891   -9.3757    2.2086 H   0  0  0  0  0  0  0  0  0  0  0  0
    4.6658   -5.6358   -0.4952 H   0  0  0  0  0  0  0  0  0  0  0  0
    7.1228   -6.4390    0.0960 H   0  0  0  0  0  0  0  0  0  0  0  0
    6.8317   -4.7611    0.2173 H   0  0  0  0  0  0  0  0  0  0  0  0
    8.8499   -5.7657    1.4455 H   0  0  0  0  0  0  0  0  0  0  0  0
    7.8758   -4.6655    2.3409 H   0  0  0  0  0  0  0  0  0  0  0  0
    8.0505   -7.6875    2.5960 H   0  0  0  0  0  0  0  0  0  0  0  0
    8.6668   -5.5179    4.5926 H   0  0  0  0  0  0  0  0  0  0  0  0
    9.7722   -6.5319    3.6942 H   0  0  0  0  0  0  0  0  0  0  0  0
    8.7311   -7.2531    4.8962 H   0  0  0  0  0  0  0  0  0  0  0  0
    6.4954   -8.7449    3.9382 H   0  0  0  0  0  0  0  0  0  0  0  0
    6.5594   -4.7842    4.0305 H   0  0  0  0  0  0  0  0  0  0  0  0
    6.5978   -6.3540    6.2711 H   0  0  0  0  0  0  0  0  0  0  0  0
    6.4408   -4.5492    6.1924 H   0  0  0  0  0  0  0  0  0  0  0  0
    4.3576   -6.6667    5.8385 H   0  0  0  0  0  0  0  0  0  0  0  0
    4.2345   -5.6704    8.0419 H   0  0  0  0  0  0  0  0  0  0  0  0
    4.2169   -4.0589    7.3767 H   0  0  0  0  0  0  0  0  0  0  0  0
    2.1264   -6.9660    8.1891 H   0  0  0  0  0  0  0  0  0  0  0  0
    0.6578   -6.0039    7.9280 H   0  0  0  0  0  0  0  0  0  0  0  0
    1.8765   -5.4987    9.0736 H   0  0  0  0  0  0  0  0  0  0  0  0
    0.7489   -4.9408    5.9260 H   0  0  0  0  0  0  0  0  0  0  0  0
    1.2411   -2.9000    4.9115 H   0  0  0  0  0  0  0  0  0  0  0  0
    1.7209   -2.8214    6.5412 H   0  0  0  0  0  0  0  0  0  0  0  0
    2.6576   -0.5642    5.5145 H   0  0  0  0  0  0  0  0  0  0  0  0
    4.3218    0.4672    4.0089 H   0  0  0  0  0  0  0  0  0  0  0  0
    6.2417   -1.4428    1.7215 H   0  0  0  0  0  0  0  0  0  0  0  0
    4.3648   -4.0761    0.8441 H   0  0  0  0  0  0  0  0  0  0  0  0
   -0.1000   -5.5997    3.9024 H   0  0  0  0  0  0  0  0  0  0  0  0
    0.8661   -5.7062    2.4463 H   0  0  0  0  0  0  0  0  0  0  0  0
    0.7118   -4.1888    3.2752 H   0  0  0  0  0  0  0  0  0  0  0  0
   -0.4580  -10.7447    3.6474 H   0  0  0  0  0  0  0  0  0  0  0  0
    1.1692  -10.4985    3.0120 H   0  0  0  0  0  0  0  0  0  0  0  0
   -0.2106   -9.7155    2.2314 H   0  0  0  0  0  0  0  0  0  0  0  0
   -1.7222   -8.9270    4.8344 H   0  0  0  0  0  0  0  0  0  0  0  0
   -1.5135   -7.8035    3.5107 H   0  0  0  0  0  0  0  0  0  0  0  0
   -1.0010   -7.3680    5.1316 H   0  0  0  0  0  0  0  0  0  0  0  0
    2.2492   -4.2532    7.4902 H   0  0  0  0  0  0  0  0  0  0  0  0
  1  2  1  0
  1 44  1  0
  1 45  1  0
  1 46  1  0
  2 41  1  0
  2  3  1  0
  2 47  1  6
  3  4  1  0
  3 48  1  0
  3 49  1  0
  4 38  1  0
  4  5  1  0
  4 40  1  6
  5  6  1  0
  6  7  2  0
  6  8  1  0
  8 16  1  0
  8  9  1  6
  8 10  1  0
  9 50  1  0
  9 51  1  0
  9 52  1  0
 10 36  1  0
 10 11  1  6
 10 12  1  0
 11 53  1  0
 12 13  1  0
 12 54  1  0
 12 55  1  0
 13 14  1  0
 13 56  1  0
 13 57  1  0
 14 15  1  0
 14 16  1  0
 14 58  1  6
 15 59  1  0
 15 60  1  0
 15 61  1  0
 16 17  1  1
 16 18  1  0
 17 62  1  0
 18 33  1  0
 18 19  1  0
 18 63  1  6
 19 20  1  0
 19 64  1  0
 19 65  1  0
 20 33  1  0
 20 21  1  0
 20 66  1  6
 21 22  1  0
 21 67  1  0
 21 68  1  0
 22 23  1  0
 22 24  1  0
 22 88  1  1
 23 69  1  0
 23 70  1  0
 23 71  1  0
 24 38  1  0
 24 25  1  0
 24 72  1  1
 25 26  1  0
 25 73  1  0
 25 74  1  0
 26 32  2  0
 26 27  1  0
 27 28  2  0
 27 75  1  0
 28 29  1  0
 28 76  1  0
 29 30  1  0
 29 31  2  0
 30 77  1  0
 31 37  1  0
 31 32  1  0
 33 32  1  1
 33 34  1  0
 34 35  2  0
 34 38  1  0
 35 36  1  0
 36 37  1  0
 36 78  1  6
 38 39  1  6
 39 79  1  0
 39 80  1  0
 39 81  1  0
 40 41  1  0
 41 42  1  0
 41 43  1  0
 42 82  1  0
 42 83  1  0
 42 84  1  0
 43 85  1  0
 43 86  1  0
 43 87  1  0
M  CHG  1  22   1
M  END
>  <i_m_ct_stereo_status>  (293) 
1

>  <s_m_source_file>  (293) 
/var/tmp/pbs.5076255.sched01/tmpalt_vnqi/12934k3la1h.sdf

>  <i_m_source_file_index>  (293) 
5

>  <i_lp_mmshare_version>  (293) 
48012

>  <i_f3d_flags>  (293) 
0

>  <s_epik_input>  (293) 
TzFDKFtDSDNdKShbQ0gzXSlbQ0BIXShbQ0gzXSlbQ0gyXVtDQF0xMltDQEBdMyhbQ0gzXSlbQ0BIXTROKFtDSDNdKVtDSDJdW0NASF01W0NAXTY3W0NAQEhdKFtDSDJdNSlbQ0BAXTgoW09IXSlbQ0BdKEMoTzIpPU8pKFtDSDNdKVtDQF0oW09IXSkoW0NIMl1bQ0gyXVtDQEhdOFtDSDNdKVtDQEBIXShOPUMzNylPYzljNmMoW0NIMl00KVtjSF1bY0hdYzlbT0hd

>  <s_epik_cmdline>  (293) 
J2VwaWtfcHl0aG9uJywgJy1waHQnLCAnMi4wJywgJy1waCcsICc3LjAnLCAnLXRuJywgJzgnLCAnLW1hJywgJzIwMCcsICctaW1hZScsICc8aW5maWxlLm1hZT4nLCAnLW9tYWUnLCAnPG91dGZpbGUubWFlPic=

>  <r_lp_tautomer_probability>  (293) 
1

>  <r_epik_Ionization_Penalty>  (293) 
0.642075

>  <r_epik_Ionization_Penalty_Charging>  (293) 
0.639557

>  <r_epik_Ionization_Penalty_Neutral>  (293) 
0.00251708

>  <r_epik_State_Penalty>  (293) 
0.657119

>  <r_epik_Charging_Adjusted_Penalty>  (293) 
1.29668

>  <i_epik_Tot_Q>  (293) 
1

>  <i_epik_Tot_abs_Q>  (293) 
1

>  <s_epik_Chemistry_Notes>  (293) 
This compound has an ester and may undergo hydrolysis at high or low pH. This compound has an imine and may undergo hydrolysis. This compound contains an acetal/aminal-like group ( X-CH(R)-Y where X, Y are N, S, or O) that may be acid/base labile, releasing an aldehyde.

>  <s_lp_Force_Field>  (293) 
OPLS3e

>  <r_lp_Energy>  (293) 
203.985

>  <b_lp_Chiralities_Consistent>  (293) 
1

>  <s_lp_Variant>  (293) 
89:0-2

>  <s_i_glide_gridfile>  (293) 
pfpi4k_grid

>  <i_i_glide_lignum>  (293) 
5

>  <i_i_glide_rotatable_bonds>  (293) 
3

>  <r_i_docking_score>  (293) 
-2.02982

>  <r_i_glide_ligand_efficiency>  (293) 
-0.0472051

>  <r_i_glide_ligand_efficiency_sa>  (293) 
-0.165378

>  <r_i_glide_ligand_efficiency_ln>  (293) 
-0.426325

>  <r_i_glide_gscore>  (293) 
-2.02982

>  <r_i_glide_lipo>  (293) 
-0.469349

>  <r_i_glide_hbond>  (293) 
0

>  <r_i_glide_metal>  (293) 
-0

>  <r_i_glide_rewards>  (293) 
-0.0299117

>  <r_i_glide_evdw>  (293) 
-25.1357

>  <r_i_glide_ecoul>  (293) 
-1.81041

>  <r_i_glide_erotb>  (293) 
0

>  <r_i_glide_esite>  (293) 
-0.00221396

>  <r_i_glide_emodel>  (293) 
-30.9453

>  <r_i_glide_energy>  (293) 
-26.9461

>  <r_i_glide_einternal>  (293) 
0.0541391

>  <r_i_glide_intrahb_reward>  (293) 
-0

>  <i_i_glide_confnum>  (293) 
1

>  <i_i_glide_posenum>  (293) 
37

>  <r_i_glide_eff_state_penalty>  (293) 
0

>  <ligand_id>  (293) 
89

>  <original_smiles>  (293) 
CC1CC2(OC(=O)C3(C)C4(O)CCC(C)C3(O)C3CC5CN(C)C6Cc7ccc(O)c8c7C53C(=NC4O8)C62C)OC1(C)C

>  <smiles>  (293) 
[H]Oc1c([H])c([H])c2c3c1OC1([H])N=C4C35C3([H])C([H])([H])C5([H])C([H])([H])[N+]([H])(C([H])([H])[H])C([H])(C2([H])[H])C4(C([H])([H])[H])C2(OC(=O)C4(C([H])([H])[H])C1(O[H])C([H])([H])C([H])([H])C([H])(C([H])([H])[H])C34O[H])OC(C([H])([H])[H])(C([H])([H])[H])C([H])(C([H])([H])[H])C2([H])[H]

$$$$
90:0:0
     RDKit          3D

 32 35  0  0  1  0  0  0  0  0999 V2000
    2.4626   -6.2940    1.9300 C   0  0  0  0  0  0  0  0  0  0  0  0
    1.5902   -6.1830    0.8824 N   0  0  0  0  0  0  0  0  0  0  0  0
    2.2131   -5.2427    0.1816 C   0  0  0  0  0  0  0  0  0  0  0  0
    3.3007   -4.7462    0.7751 N   0  0  0  0  0  0  0  0  0  0  0  0
    4.2248   -3.6985    0.3386 C   0  0  2  0  0  0  0  0  0  0  0  0
    5.2308   -4.2598   -0.6982 C   0  0  0  0  0  0  0  0  0  0  0  0
    6.1824   -3.1413   -1.1764 C   0  0  1  0  0  0  0  0  0  0  0  0
    5.3508   -2.0210   -1.8362 C   0  0  0  0  0  0  0  0  0  0  0  0
    4.3750   -1.4368   -0.7989 C   0  0  2  0  0  0  0  0  0  0  0  0
    5.1584   -0.8632    0.4003 C   0  0  0  0  0  0  0  0  0  0  0  0
    5.9774   -1.9946    1.0547 C   0  0  2  0  0  0  0  0  0  0  0  0
    6.9698   -2.5898    0.0341 C   0  0  0  0  0  0  0  0  0  0  0  0
    5.0247   -3.1069    1.5367 C   0  0  0  0  0  0  0  0  0  0  0  0
    3.4234   -2.5424   -0.3171 C   0  0  0  0  0  0  0  0  0  0  0  0
    3.5068   -5.4663    1.9052 N   0  0  0  0  0  0  0  0  0  0  0  0
    2.3214   -6.9926    2.7396 H   0  0  0  0  0  0  0  0  0  0  0  0
    1.8556   -4.8873   -0.7740 H   0  0  0  0  0  0  0  0  0  0  0  0
    5.8051   -5.0791   -0.2657 H   0  0  0  0  0  0  0  0  0  0  0  0
    4.6990   -4.6776   -1.5535 H   0  0  0  0  0  0  0  0  0  0  0  0
    6.8851   -3.5375   -1.9099 H   0  0  0  0  0  0  0  0  0  0  0  0
    5.9931   -1.2348   -2.2224 H   0  0  0  0  0  0  0  0  0  0  0  0
    4.8009   -2.4202   -2.6886 H   0  0  0  0  0  0  0  0  0  0  0  0
    3.7860   -0.6522   -1.2700 H   0  0  0  0  0  0  0  0  0  0  0  0
    5.8168   -0.0578    0.0791 H   0  0  0  0  0  0  0  0  0  0  0  0
    4.4654   -0.4339    1.1244 H   0  0  0  0  0  0  0  0  0  0  0  0
    6.5282   -1.5957    1.9099 H   0  0  0  0  0  0  0  0  0  0  0  0
    7.5401   -3.3936    0.4996 H   0  0  0  0  0  0  0  0  0  0  0  0
    7.6936   -1.8411   -0.2816 H   0  0  0  0  0  0  0  0  0  0  0  0
    4.3420   -2.7063    2.2892 H   0  0  0  0  0  0  0  0  0  0  0  0
    5.6186   -3.8758    2.0342 H   0  0  0  0  0  0  0  0  0  0  0  0
    2.8505   -2.8901   -1.1772 H   0  0  0  0  0  0  0  0  0  0  0  0
    2.7000   -2.1291    0.3872 H   0  0  0  0  0  0  0  0  0  0  0  0
  1 15  2  0
  1  2  1  0
  1 16  1  0
  2  3  2  0
  3  4  1  0
  3 17  1  0
  5  4  1  1
  4 15  1  0
  5 13  1  0
  5 14  1  0
  5  6  1  0
  6  7  1  0
  6 18  1  0
  6 19  1  0
  7 12  1  0
  7  8  1  0
  7 20  1  6
  8  9  1  0
  8 21  1  0
  8 22  1  0
  9 10  1  0
  9 14  1  0
  9 23  1  6
 10 11  1  0
 10 24  1  0
 10 25  1  0
 11 12  1  0
 11 13  1  0
 11 26  1  1
 12 27  1  0
 12 28  1  0
 13 29  1  0
 13 30  1  0
 14 31  1  0
 14 32  1  0
M  END
>  <i_m_ct_stereo_status>  (294) 
1

>  <s_m_source_file>  (294) 
/var/tmp/pbs.5076255.sched01/tmpalt_vnqi/12934k3la1h.sdf

>  <i_m_source_file_index>  (294) 
6

>  <i_lp_mmshare_version>  (294) 
48012

>  <i_f3d_flags>  (294) 
0

>  <s_epik_input>  (294) 
bjFbY0hdbltjSF1uMUMyM1tDSDJdW0NASF00W0NIMl1bQ0BASF0oW0NIMl0zKVtDSDJdW0NASF0oW0NIMl00KVtDSDJdMg==

>  <s_epik_cmdline>  (294) 
J2VwaWtfcHl0aG9uJywgJy1waHQnLCAnMi4wJywgJy1waCcsICc3LjAnLCAnLXRuJywgJzgnLCAnLW1hJywgJzIwMCcsICctaW1hZScsICc8aW5maWxlLm1hZT4nLCAnLW9tYWUnLCAnPG91dGZpbGUubWFlPic=

>  <r_lp_tautomer_probability>  (294) 
1

>  <r_epik_Ionization_Penalty>  (294) 
0.000665803

>  <r_epik_Ionization_Penalty_Charging>  (294) 
0

>  <r_epik_Ionization_Penalty_Neutral>  (294) 
0.000665803

>  <r_epik_State_Penalty>  (294) 
0.000422278

>  <r_epik_Charging_Adjusted_Penalty>  (294) 
0.000422278

>  <i_epik_Tot_Q>  (294) 
0

>  <i_epik_Tot_abs_Q>  (294) 
0

>  <s_lp_Force_Field>  (294) 
OPLS3e

>  <r_lp_Energy>  (294) 
7.90782

>  <b_lp_Chiralities_Consistent>  (294) 
1

>  <s_lp_Variant>  (294) 
90:0-1

>  <s_i_glide_gridfile>  (294) 
pfpi4k_grid

>  <i_i_glide_lignum>  (294) 
6

>  <i_i_glide_rotatable_bonds>  (294) 
1

>  <r_i_docking_score>  (294) 
-3.70758

>  <r_i_glide_ligand_efficiency>  (294) 
-0.247172

>  <r_i_glide_ligand_efficiency_sa>  (294) 
-0.609578

>  <r_i_glide_ligand_efficiency_ln>  (294) 
-0.999872

>  <r_i_glide_gscore>  (294) 
-3.70758

>  <r_i_glide_lipo>  (294) 
-0.493592

>  <r_i_glide_hbond>  (294) 
-0.0657242

>  <r_i_glide_metal>  (294) 
-0

>  <r_i_glide_rewards>  (294) 
-2.02307

>  <r_i_glide_evdw>  (294) 
-19.4943

>  <r_i_glide_ecoul>  (294) 
-3.07444

>  <r_i_glide_erotb>  (294) 
0.397388

>  <r_i_glide_esite>  (294) 
-0.0867018

>  <r_i_glide_emodel>  (294) 
-27.5608

>  <r_i_glide_energy>  (294) 
-22.5687

>  <r_i_glide_einternal>  (294) 
0.234001

>  <r_i_glide_intrahb_reward>  (294) 
-0

>  <i_i_glide_confnum>  (294) 
5

>  <i_i_glide_posenum>  (294) 
34

>  <r_i_glide_eff_state_penalty>  (294) 
0

>  <ligand_id>  (294) 
90

>  <original_smiles>  (294) 
c1ncn(C23CC4CC(CC(C4)C2)C3)n1

>  <smiles>  (294) 
[H]c1nc([H])n(C23C([H])([H])C4([H])C([H])([H])C([H])(C([H])([H])C([H])(C4([H])[H])C2([H])[H])C3([H])[H])n1

$$$$
90:0:1
     RDKit          3D

 32 35  0  0  1  0  0  0  0  0999 V2000
    2.2818   -4.8421    2.4927 C   0  0  0  0  0  0  0  0  0  0  0  0
    1.7759   -5.8103    1.6689 N   0  0  0  0  0  0  0  0  0  0  0  0
    2.2625   -5.3854    0.5104 C   0  0  0  0  0  0  0  0  0  0  0  0
    2.9391   -4.2378    0.5874 N   0  0  0  0  0  0  0  0  0  0  0  0
    3.5952   -3.4581   -0.4591 C   0  0  2  0  0  0  0  0  0  0  0  0
    4.8717   -4.1897   -0.9456 C   0  0  0  0  0  0  0  0  0  0  0  0
    5.5352   -3.3784   -2.0767 C   0  0  1  0  0  0  0  0  0  0  0  0
    4.5532   -3.2384   -3.2634 C   0  0  0  0  0  0  0  0  0  0  0  0
    3.3034   -2.4856   -2.7988 C   0  0  2  0  0  0  0  0  0  0  0  0
    3.7047   -1.0950   -2.2800 C   0  0  0  0  0  0  0  0  0  0  0  0
    4.6683   -1.2426   -1.0851 C   0  0  2  0  0  0  0  0  0  0  0  0
    5.9284   -2.0017   -1.5266 C   0  0  0  0  0  0  0  0  0  0  0  0
    3.9899   -2.0347    0.0431 C   0  0  0  0  0  0  0  0  0  0  0  0
    2.6320   -3.2825   -1.6637 C   0  0  0  0  0  0  0  0  0  0  0  0
    2.9903   -3.8827    1.8958 N   0  0  0  0  0  0  0  0  0  0  0  0
    2.1152   -4.8323    3.5596 H   0  0  0  0  0  0  0  0  0  0  0  0
    2.1022   -5.8967   -0.4248 H   0  0  0  0  0  0  0  0  0  0  0  0
    5.5724   -4.3265   -0.1229 H   0  0  0  0  0  0  0  0  0  0  0  0
    4.6249   -5.1857   -1.3153 H   0  0  0  0  0  0  0  0  0  0  0  0
    6.4420   -3.8585   -2.4336 H   0  0  0  0  0  0  0  0  0  0  0  0
    5.0149   -2.6970   -4.0876 H   0  0  0  0  0  0  0  0  0  0  0  0
    4.2737   -4.2228   -3.6439 H   0  0  0  0  0  0  0  0  0  0  0  0
    2.6025   -2.3665   -3.6278 H   0  0  0  0  0  0  0  0  0  0  0  0
    4.1497   -0.4838   -3.0669 H   0  0  0  0  0  0  0  0  0  0  0  0
    2.7859   -0.6155   -1.9642 H   0  0  0  0  0  0  0  0  0  0  0  0
    4.9470   -0.2591   -0.7067 H   0  0  0  0  0  0  0  0  0  0  0  0
    6.6205   -2.1157   -0.6896 H   0  0  0  0  0  0  0  0  0  0  0  0
    6.4418   -1.4593   -2.3102 H   0  0  0  0  0  0  0  0  0  0  0  0
    3.1122   -1.4896    0.3952 H   0  0  0  0  0  0  0  0  0  0  0  0
    4.6812   -2.0980    0.8853 H   0  0  0  0  0  0  0  0  0  0  0  0
    2.2764   -4.2339   -2.0488 H   0  0  0  0  0  0  0  0  0  0  0  0
    1.7408   -2.7574   -1.3459 H   0  0  0  0  0  0  0  0  0  0  0  0
  1 15  2  0
  1  2  1  0
  1 16  1  0
  2  3  2  0
  3  4  1  0
  3 17  1  0
  5  4  1  1
  4 15  1  0
  5 13  1  0
  5 14  1  0
  5  6  1  0
  6  7  1  0
  6 18  1  0
  6 19  1  0
  7 12  1  0
  7  8  1  0
  7 20  1  6
  8  9  1  0
  8 21  1  0
  8 22  1  0
  9 10  1  0
  9 14  1  0
  9 23  1  6
 10 11  1  0
 10 24  1  0
 10 25  1  0
 11 12  1  0
 11 13  1  0
 11 26  1  1
 12 27  1  0
 12 28  1  0
 13 29  1  0
 13 30  1  0
 14 31  1  0
 14 32  1  0
M  END
>  <i_m_ct_stereo_status>  (295) 
1

>  <s_m_source_file>  (295) 
/var/tmp/pbs.5076255.sched01/tmpalt_vnqi/12934k3la1h.sdf

>  <i_m_source_file_index>  (295) 
6

>  <i_lp_mmshare_version>  (295) 
48012

>  <i_f3d_flags>  (295) 
0

>  <s_epik_input>  (295) 
bjFbY0hdbltjSF1uMUMyM1tDSDJdW0NASF00W0NIMl1bQ0BASF0oW0NIMl0zKVtDSDJdW0NASF0oW0NIMl00KVtDSDJdMg==

>  <s_epik_cmdline>  (295) 
J2VwaWtfcHl0aG9uJywgJy1waHQnLCAnMi4wJywgJy1waCcsICc3LjAnLCAnLXRuJywgJzgnLCAnLW1hJywgJzIwMCcsICctaW1hZScsICc8aW5maWxlLm1hZT4nLCAnLW9tYWUnLCAnPG91dGZpbGUubWFlPic=

>  <r_lp_tautomer_probability>  (295) 
1

>  <r_epik_Ionization_Penalty>  (295) 
0.000665803

>  <r_epik_Ionization_Penalty_Charging>  (295) 
0

>  <r_epik_Ionization_Penalty_Neutral>  (295) 
0.000665803

>  <r_epik_State_Penalty>  (295) 
0.000422278

>  <r_epik_Charging_Adjusted_Penalty>  (295) 
0.000422278

>  <i_epik_Tot_Q>  (295) 
0

>  <i_epik_Tot_abs_Q>  (295) 
0

>  <s_lp_Force_Field>  (295) 
OPLS3e

>  <r_lp_Energy>  (295) 
7.90782

>  <b_lp_Chiralities_Consistent>  (295) 
1

>  <s_lp_Variant>  (295) 
90:0-1

>  <s_i_glide_gridfile>  (295) 
pfpi4k_grid

>  <i_i_glide_lignum>  (295) 
6

>  <i_i_glide_rotatable_bonds>  (295) 
1

>  <r_i_docking_score>  (295) 
-3.4132

>  <r_i_glide_ligand_efficiency>  (295) 
-0.227547

>  <r_i_glide_ligand_efficiency_sa>  (295) 
-0.561178

>  <r_i_glide_ligand_efficiency_ln>  (295) 
-0.920483

>  <r_i_glide_gscore>  (295) 
-3.4132

>  <r_i_glide_lipo>  (295) 
-0.506211

>  <r_i_glide_hbond>  (295) 
-0.0166825

>  <r_i_glide_metal>  (295) 
-0

>  <r_i_glide_rewards>  (295) 
-2.02307

>  <r_i_glide_evdw>  (295) 
-18.4473

>  <r_i_glide_ecoul>  (295) 
-1.71387

>  <r_i_glide_erotb>  (295) 
0.397388

>  <r_i_glide_esite>  (295) 
-0.0851793

>  <r_i_glide_emodel>  (295) 
-24.7561

>  <r_i_glide_energy>  (295) 
-20.1612

>  <r_i_glide_einternal>  (295) 
0.195288

>  <r_i_glide_intrahb_reward>  (295) 
-0

>  <i_i_glide_confnum>  (295) 
3

>  <i_i_glide_posenum>  (295) 
33

>  <r_i_glide_eff_state_penalty>  (295) 
0

>  <ligand_id>  (295) 
90

>  <original_smiles>  (295) 
c1ncn(C23CC4CC(CC(C4)C2)C3)n1

>  <smiles>  (295) 
[H]c1nc([H])n(C23C([H])([H])C4([H])C([H])([H])C([H])(C([H])([H])C([H])(C4([H])[H])C2([H])[H])C3([H])[H])n1

$$$$
90:0:2
     RDKit          3D

 32 35  0  0  1  0  0  0  0  0999 V2000
    1.6640   -6.8983    1.3146 C   0  0  0  0  0  0  0  0  0  0  0  0
    2.8049   -7.4126    1.8600 N   0  0  0  0  0  0  0  0  0  0  0  0
    3.6696   -6.4761    1.4969 C   0  0  0  0  0  0  0  0  0  0  0  0
    3.1296   -5.4772    0.7917 N   0  0  0  0  0  0  0  0  0  0  0  0
    3.7456   -4.2616    0.2457 C   0  0  2  0  0  0  0  0  0  0  0  0
    5.0354   -4.6412   -0.5312 C   0  0  0  0  0  0  0  0  0  0  0  0
    5.7144   -3.3833   -1.1068 C   0  0  1  0  0  0  0  0  0  0  0  0
    4.7440   -2.6805   -2.0794 C   0  0  0  0  0  0  0  0  0  0  0  0
    3.4783   -2.2611   -1.3089 C   0  0  2  0  0  0  0  0  0  0  0  0
    3.8525   -1.3068   -0.1564 C   0  0  0  0  0  0  0  0  0  0  0  0
    4.8129   -2.0290    0.8136 C   0  0  2  0  0  0  0  0  0  0  0  0
    6.0931   -2.4415    0.0569 C   0  0  0  0  0  0  0  0  0  0  0  0
    4.1254   -3.2877    1.3908 C   0  0  0  0  0  0  0  0  0  0  0  0
    2.7914   -3.5115   -0.7267 C   0  0  0  0  0  0  0  0  0  0  0  0
    1.7994   -5.7315    0.6902 N   0  0  0  0  0  0  0  0  0  0  0  0
    0.7081   -7.3913    1.3887 H   0  0  0  0  0  0  0  0  0  0  0  0
    4.7180   -6.5033    1.7528 H   0  0  0  0  0  0  0  0  0  0  0  0
    5.7499   -5.1541    0.1131 H   0  0  0  0  0  0  0  0  0  0  0  0
    4.8027   -5.3348   -1.3382 H   0  0  0  0  0  0  0  0  0  0  0  0
    6.6160   -3.6713   -1.6477 H   0  0  0  0  0  0  0  0  0  0  0  0
    5.2138   -1.8106   -2.5366 H   0  0  0  0  0  0  0  0  0  0  0  0
    4.4754   -3.3619   -2.8871 H   0  0  0  0  0  0  0  0  0  0  0  0
    2.7862   -1.7578   -1.9870 H   0  0  0  0  0  0  0  0  0  0  0  0
    4.3110   -0.3993   -0.5498 H   0  0  0  0  0  0  0  0  0  0  0  0
    2.9532   -0.9954    0.3749 H   0  0  0  0  0  0  0  0  0  0  0  0
    5.0755   -1.3521    1.6279 H   0  0  0  0  0  0  0  0  0  0  0  0
    6.7769   -2.9475    0.7383 H   0  0  0  0  0  0  0  0  0  0  0  0
    6.6157   -1.5615   -0.3178 H   0  0  0  0  0  0  0  0  0  0  0  0
    3.2373   -2.9997    1.9539 H   0  0  0  0  0  0  0  0  0  0  0  0
    4.7956   -3.7716    2.1024 H   0  0  0  0  0  0  0  0  0  0  0  0
    2.4798   -4.1713   -1.5363 H   0  0  0  0  0  0  0  0  0  0  0  0
    1.8809   -3.1924   -0.2200 H   0  0  0  0  0  0  0  0  0  0  0  0
  1 15  2  0
  1  2  1  0
  1 16  1  0
  2  3  2  0
  3  4  1  0
  3 17  1  0
  5  4  1  1
  4 15  1  0
  5 13  1  0
  5 14  1  0
  5  6  1  0
  6  7  1  0
  6 18  1  0
  6 19  1  0
  7 12  1  0
  7  8  1  0
  7 20  1  6
  8  9  1  0
  8 21  1  0
  8 22  1  0
  9 10  1  0
  9 14  1  0
  9 23  1  6
 10 11  1  0
 10 24  1  0
 10 25  1  0
 11 12  1  0
 11 13  1  0
 11 26  1  1
 12 27  1  0
 12 28  1  0
 13 29  1  0
 13 30  1  0
 14 31  1  0
 14 32  1  0
M  END
>  <i_m_ct_stereo_status>  (296) 
1

>  <s_m_source_file>  (296) 
/var/tmp/pbs.5076255.sched01/tmpalt_vnqi/12934k3la1h.sdf

>  <i_m_source_file_index>  (296) 
6

>  <i_lp_mmshare_version>  (296) 
48012

>  <i_f3d_flags>  (296) 
0

>  <s_epik_input>  (296) 
bjFbY0hdbltjSF1uMUMyM1tDSDJdW0NASF00W0NIMl1bQ0BASF0oW0NIMl0zKVtDSDJdW0NASF0oW0NIMl00KVtDSDJdMg==

>  <s_epik_cmdline>  (296) 
J2VwaWtfcHl0aG9uJywgJy1waHQnLCAnMi4wJywgJy1waCcsICc3LjAnLCAnLXRuJywgJzgnLCAnLW1hJywgJzIwMCcsICctaW1hZScsICc8aW5maWxlLm1hZT4nLCAnLW9tYWUnLCAnPG91dGZpbGUubWFlPic=

>  <r_lp_tautomer_probability>  (296) 
1

>  <r_epik_Ionization_Penalty>  (296) 
0.000665803

>  <r_epik_Ionization_Penalty_Charging>  (296) 
0

>  <r_epik_Ionization_Penalty_Neutral>  (296) 
0.000665803

>  <r_epik_State_Penalty>  (296) 
0.000422278

>  <r_epik_Charging_Adjusted_Penalty>  (296) 
0.000422278

>  <i_epik_Tot_Q>  (296) 
0

>  <i_epik_Tot_abs_Q>  (296) 
0

>  <s_lp_Force_Field>  (296) 
OPLS3e

>  <r_lp_Energy>  (296) 
7.90782

>  <b_lp_Chiralities_Consistent>  (296) 
1

>  <s_lp_Variant>  (296) 
90:0-1

>  <s_i_glide_gridfile>  (296) 
pfpi4k_grid

>  <i_i_glide_lignum>  (296) 
6

>  <i_i_glide_rotatable_bonds>  (296) 
1

>  <r_i_docking_score>  (296) 
-3.22872

>  <r_i_glide_ligand_efficiency>  (296) 
-0.215248

>  <r_i_glide_ligand_efficiency_sa>  (296) 
-0.530847

>  <r_i_glide_ligand_efficiency_ln>  (296) 
-0.870732

>  <r_i_glide_gscore>  (296) 
-3.22872

>  <r_i_glide_lipo>  (296) 
-0.211289

>  <r_i_glide_hbond>  (296) 
-0.0881186

>  <r_i_glide_metal>  (296) 
-0

>  <r_i_glide_rewards>  (296) 
-2.09894

>  <r_i_glide_evdw>  (296) 
-19.3565

>  <r_i_glide_ecoul>  (296) 
-1.36446

>  <r_i_glide_erotb>  (296) 
0.397388

>  <r_i_glide_esite>  (296) 
-0.0552616

>  <r_i_glide_emodel>  (296) 
-25.1082

>  <r_i_glide_energy>  (296) 
-20.721

>  <r_i_glide_einternal>  (296) 
0.172215

>  <r_i_glide_intrahb_reward>  (296) 
-0

>  <i_i_glide_confnum>  (296) 
5

>  <i_i_glide_posenum>  (296) 
9

>  <r_i_glide_eff_state_penalty>  (296) 
0

>  <ligand_id>  (296) 
90

>  <original_smiles>  (296) 
c1ncn(C23CC4CC(CC(C4)C2)C3)n1

>  <smiles>  (296) 
[H]c1nc([H])n(C23C([H])([H])C4([H])C([H])([H])C([H])(C([H])([H])C([H])(C4([H])[H])C2([H])[H])C3([H])[H])n1

$$$$
91:0:0
     RDKit          3D

 74 80  0  0  1  0  0  0  0  0999 V2000
    4.6711   -3.8568   -0.3250 C   0  0  0  0  0  0  0  0  0  0  0  0
    5.0189   -4.6255    0.7264 C   0  0  0  0  0  0  0  0  0  0  0  0
    5.4078   -6.0807    0.5240 C   0  0  1  0  0  0  0  0  0  0  0  0
    6.8589   -6.3343    1.0485 C   0  0  0  0  0  0  0  0  0  0  0  0
    7.3047   -5.4451    2.2458 C   0  0  0  0  0  0  0  0  0  0  0  0
    6.0810   -4.9816    3.0204 C   0  0  0  0  0  0  0  0  0  0  0  0
    5.6745   -5.6939    4.1134 C   0  0  0  0  0  0  0  0  0  0  0  0
    4.6937   -6.8438    3.8435 C   0  0  1  0  0  0  0  0  0  0  0  0
    5.7121   -7.9969    3.5012 C   0  0  0  0  0  0  0  0  0  0  0  0
    5.5011   -8.6029    4.8702 C   0  0  0  0  0  0  0  0  0  0  0  0
    4.1677   -7.8608    4.9337 C   0  0  2  0  0  0  0  0  0  0  0  0
    2.9114   -8.8014    4.6261 C   0  0  2  0  0  0  0  0  0  0  0  0
    2.8219   -9.3152    3.1404 C   0  0  2  0  0  0  0  0  0  0  0  0
    2.2255   -8.2989    2.1099 C   0  0  1  0  0  0  0  0  0  0  0  0
    0.7471   -8.1032    2.5532 C   0  0  0  0  0  0  0  0  0  0  0  0
    0.5689   -7.6754    4.0341 C   0  0  0  0  0  0  0  0  0  0  0  0
    1.4732   -8.3577    5.1334 C   0  0  2  0  0  0  0  0  0  0  0  0
    1.5662   -7.3302    6.2933 C   0  0  0  0  0  0  0  0  0  0  0  0
    0.7134   -9.5914    5.7022 C   0  0  0  0  0  0  0  0  0  0  0  0
   -0.1763   -9.4484    6.5512 O   0  0  0  0  0  0  0  0  0  0  0  0
    1.0704  -11.0041    5.2150 C   0  0  0  0  0  0  0  0  0  0  0  0
    1.0742  -11.1744    3.6986 C   0  0  0  0  0  0  0  0  0  0  0  0
    2.3376  -10.7344    3.0013 N   0  0  2  0  0  0  0  0  0  0  0  0
    3.4138  -11.7416    3.1701 C   0  0  0  0  0  0  0  0  0  0  0  0
    3.0412   -6.9400    1.7572 C   0  0  2  0  0  0  0  0  0  0  0  0
    2.0646   -6.0166    0.9667 C   0  0  0  0  0  0  0  0  0  0  0  0
    4.2841   -7.1619    0.7934 C   0  0  0  0  0  0  0  0  0  0  0  0
    3.4783   -6.2578    3.0783 C   0  0  2  0  0  0  0  0  0  0  0  0
    3.0978   -4.7845    3.4180 C   0  0  0  0  0  0  0  0  0  0  0  0
    3.8730   -3.6589    2.7561 C   0  0  0  0  0  0  0  0  0  0  0  0
    5.2144   -4.0635    2.1420 C   0  0  2  0  0  0  0  0  0  0  0  0
    5.8813   -2.8169    2.0132 O   0  0  0  0  0  0  0  0  0  0  0  0
    4.4423   -2.8072   -0.2152 H   0  0  0  0  0  0  0  0  0  0  0  0
    4.5880   -4.2730   -1.3192 H   0  0  0  0  0  0  0  0  0  0  0  0
    5.5263   -6.1565   -0.5527 H   0  0  0  0  0  0  0  0  0  0  0  0
    7.0063   -7.3900    1.2704 H   0  0  0  0  0  0  0  0  0  0  0  0
    7.5694   -6.1389    0.2435 H   0  0  0  0  0  0  0  0  0  0  0  0
    8.0173   -5.9578    2.8871 H   0  0  0  0  0  0  0  0  0  0  0  0
    7.8331   -4.5667    1.8700 H   0  0  0  0  0  0  0  0  0  0  0  0
    6.4975   -6.0895    4.6856 H   0  0  0  0  0  0  0  0  0  0  0  0
    5.5467   -8.6806    2.6924 H   0  0  0  0  0  0  0  0  0  0  0  0
    6.7679   -7.7383    3.4494 H   0  0  0  0  0  0  0  0  0  0  0  0
    5.4313   -9.6919    4.8571 H   0  0  0  0  0  0  0  0  0  0  0  0
    6.2236   -8.2533    5.6195 H   0  0  0  0  0  0  0  0  0  0  0  0
    4.1278   -7.3870    5.9140 H   0  0  0  0  0  0  0  0  0  0  0  0
    3.1791   -9.6705    5.2177 H   0  0  0  0  0  0  0  0  0  0  0  0
    3.7994   -9.4584    2.7599 H   0  0  0  0  0  0  0  0  0  0  0  0
    2.1669   -8.8174    1.1492 H   0  0  0  0  0  0  0  0  0  0  0  0
    0.1917   -7.4243    1.9120 H   0  0  0  0  0  0  0  0  0  0  0  0
    0.1937   -9.0128    2.3470 H   0  0  0  0  0  0  0  0  0  0  0  0
    0.6535   -6.5798    4.0837 H   0  0  0  0  0  0  0  0  0  0  0  0
   -0.4765   -7.8483    4.2757 H   0  0  0  0  0  0  0  0  0  0  0  0
    2.0420   -6.4020    5.9765 H   0  0  0  0  0  0  0  0  0  0  0  0
    2.1246   -7.7294    7.1395 H   0  0  0  0  0  0  0  0  0  0  0  0
    0.5764   -7.0507    6.6612 H   0  0  0  0  0  0  0  0  0  0  0  0
    1.9950  -11.3474    5.6776 H   0  0  0  0  0  0  0  0  0  0  0  0
    0.2942  -11.6586    5.6058 H   0  0  0  0  0  0  0  0  0  0  0  0
    0.9562  -12.2315    3.5168 H   0  0  0  0  0  0  0  0  0  0  0  0
    0.1704  -10.7662    3.2846 H   0  0  0  0  0  0  0  0  0  0  0  0
    3.7954  -11.7562    4.1858 H   0  0  0  0  0  0  0  0  0  0  0  0
    4.2447  -11.5616    2.4922 H   0  0  0  0  0  0  0  0  0  0  0  0
    3.0551  -12.7298    2.9320 H   0  0  0  0  0  0  0  0  0  0  0  0
    2.5382   -5.1256    0.5718 H   0  0  0  0  0  0  0  0  0  0  0  0
    1.2390   -5.6507    1.5730 H   0  0  0  0  0  0  0  0  0  0  0  0
    1.6292   -6.5328    0.1100 H   0  0  0  0  0  0  0  0  0  0  0  0
    3.8354   -7.2783   -0.1885 H   0  0  0  0  0  0  0  0  0  0  0  0
    4.7289   -8.1438    0.9217 H   0  0  0  0  0  0  0  0  0  0  0  0
    2.6777   -6.5622    3.7009 H   0  0  0  0  0  0  0  0  0  0  0  0
    2.0385   -4.6010    3.2682 H   0  0  0  0  0  0  0  0  0  0  0  0
    3.2142   -4.6563    4.4971 H   0  0  0  0  0  0  0  0  0  0  0  0
    3.2459   -3.1869    2.0005 H   0  0  0  0  0  0  0  0  0  0  0  0
    4.0304   -2.8891    3.5126 H   0  0  0  0  0  0  0  0  0  0  0  0
    5.2763   -2.1779    1.6836 H   0  0  0  0  0  0  0  0  0  0  0  0
    2.1042  -10.8276    2.0168 H   0  0  0  0  0  0  0  0  0  0  0  0
  1  2  2  0
  1 33  1  0
  1 34  1  0
  2 31  1  0
  2  3  1  0
  3 27  1  0
  3  4  1  0
  3 35  1  6
  4  5  1  0
  4 36  1  0
  4 37  1  0
  5  6  1  0
  5 38  1  0
  5 39  1  0
  6 31  1  0
  6  7  2  0
  7  8  1  0
  7 40  1  0
  8 11  1  0
  8 28  1  0
  8  9  1  6
  9 10  1  0
  9 41  1  0
  9 42  1  0
 10 11  1  0
 10 43  1  0
 10 44  1  0
 11 12  1  0
 11 45  1  1
 12 17  1  0
 12 13  1  0
 12 46  1  1
 13 23  1  0
 13 14  1  0
 13 47  1  6
 14 15  1  0
 14 25  1  0
 14 48  1  6
 15 16  1  0
 15 49  1  0
 15 50  1  0
 16 17  1  0
 16 51  1  0
 16 52  1  0
 17 18  1  1
 17 19  1  0
 18 53  1  0
 18 54  1  0
 18 55  1  0
 19 20  2  0
 19 21  1  0
 21 22  1  0
 21 56  1  0
 21 57  1  0
 22 23  1  0
 22 58  1  0
 22 59  1  0
 23 24  1  0
 23 74  1  6
 24 60  1  0
 24 61  1  0
 24 62  1  0
 25 26  1  6
 25 27  1  0
 25 28  1  0
 26 63  1  0
 26 64  1  0
 26 65  1  0
 27 66  1  0
 27 67  1  0
 28 29  1  0
 28 68  1  1
 29 30  1  0
 29 69  1  0
 29 70  1  0
 30 31  1  0
 30 71  1  0
 30 72  1  0
 31 32  1  6
 32 73  1  0
M  CHG  1  23   1
M  END
>  <i_m_ct_stereo_status>  (297) 
1

>  <s_m_source_file>  (297) 
/var/tmp/pbs.5076255.sched01/tmpalt_vnqi/12934k3la1h.sdf

>  <i_m_source_file_index>  (297) 
7

>  <i_lp_mmshare_version>  (297) 
48012

>  <i_f3d_flags>  (297) 
0

>  <s_epik_input>  (297) 
W0NIMl09QzFbQ0BIXShbQ0gyXTIpW0NIMl1bQ0gyXUMoPVtDSF0zKVtDQF0xKFtPSF0pW0NIMl1bQ0gyXVtDQEhdNFtDQF0yKFtDSDNdKVtDQEBIXShbQ0BIXTVbQ0BIXTZbQ0BIXShbQ0BdMzQ3KVtDSDJdW0NIMl03KVtDSDJdW0NIMl1bQ0BAXTYoW0NIM10pQyg9TylbQ0gyXVtDSDJdTjVbQ0gzXQ==

>  <s_epik_cmdline>  (297) 
J2VwaWtfcHl0aG9uJywgJy1waHQnLCAnMi4wJywgJy1waCcsICc3LjAnLCAnLXRuJywgJzgnLCAnLW1hJywgJzIwMCcsICctaW1hZScsICc8aW5maWxlLm1hZT4nLCAnLW9tYWUnLCAnPG91dGZpbGUubWFlPic=

>  <r_lp_tautomer_probability>  (297) 
0.99995

>  <r_epik_Ionization_Penalty>  (297) 
0.00505409

>  <r_epik_Ionization_Penalty_Charging>  (297) 
0.00505402

>  <r_epik_Ionization_Penalty_Neutral>  (297) 
6.83657e-08

>  <r_epik_State_Penalty>  (297) 
0.00367684

>  <r_epik_Charging_Adjusted_Penalty>  (297) 
0.00873087

>  <i_epik_Tot_Q>  (297) 
1

>  <i_epik_Tot_abs_Q>  (297) 
1

>  <s_lp_Force_Field>  (297) 
OPLS3e

>  <r_lp_Energy>  (297) 
208.543

>  <b_lp_Chiralities_Consistent>  (297) 
1

>  <s_lp_Variant>  (297) 
91:0-1

>  <s_i_glide_gridfile>  (297) 
pfpi4k_grid

>  <i_i_glide_lignum>  (297) 
7

>  <i_i_glide_rotatable_bonds>  (297) 
1

>  <r_i_docking_score>  (297) 
-2.96073

>  <r_i_glide_ligand_efficiency>  (297) 
-0.0925229

>  <r_i_glide_ligand_efficiency_sa>  (297) 
-0.293742

>  <r_i_glide_ligand_efficiency_ln>  (297) 
-0.662989

>  <r_i_glide_gscore>  (297) 
-2.96073

>  <r_i_glide_lipo>  (297) 
-0.700824

>  <r_i_glide_hbond>  (297) 
0

>  <r_i_glide_metal>  (297) 
-0

>  <r_i_glide_rewards>  (297) 
-0.431937

>  <r_i_glide_evdw>  (297) 
-20.9408

>  <r_i_glide_ecoul>  (297) 
-4.77323

>  <r_i_glide_erotb>  (297) 
0

>  <r_i_glide_esite>  (297) 
-0.0649484

>  <r_i_glide_emodel>  (297) 
-32.0559

>  <r_i_glide_energy>  (297) 
-25.714

>  <r_i_glide_einternal>  (297) 
0.122212

>  <r_i_glide_intrahb_reward>  (297) 
-0

>  <i_i_glide_confnum>  (297) 
1

>  <i_i_glide_posenum>  (297) 
11

>  <r_i_glide_eff_state_penalty>  (297) 
0

>  <ligand_id>  (297) 
91

>  <original_smiles>  (297) 
C=C1C2CCC3=CC45CCC4C4C6C(CCC4(C)C(=O)CCN6C)C(C)(C2)C5CCC13O

>  <smiles>  (297) 
[H]OC12C3=C([H])C45C([H])([H])C([H])([H])C4([H])C4([H])C6(C([H])([H])[H])C(=O)C([H])([H])C([H])([H])[N+]([H])(C([H])([H])[H])C4([H])C([H])(C([H])([H])C6([H])[H])C(C([H])([H])[H])(C([H])([H])C([H])(C1=C([H])[H])C([H])([H])C3([H])[H])C5([H])C([H])([H])C2([H])[H]

$$$$
91:0:1
     RDKit          3D

 74 80  0  0  1  0  0  0  0  0999 V2000
    4.3980   -1.1181   -1.9882 C   0  0  0  0  0  0  0  0  0  0  0  0
    4.8890   -1.7994   -0.9469 C   0  0  0  0  0  0  0  0  0  0  0  0
    5.6132   -3.1231   -1.1755 C   0  0  1  0  0  0  0  0  0  0  0  0
    7.0555   -3.0491   -0.6103 C   0  0  0  0  0  0  0  0  0  0  0  0
    7.2268   -2.1183    0.6162 C   0  0  0  0  0  0  0  0  0  0  0  0
    5.8966   -1.9778    1.3551 C   0  0  0  0  0  0  0  0  0  0  0  0
    5.6337   -2.7885    2.4045 C   0  0  0  0  0  0  0  0  0  0  0  0
    4.9972   -4.1514    2.1076 C   0  0  1  0  0  0  0  0  0  0  0  0
    6.2685   -5.0171    1.7634 C   0  0  0  0  0  0  0  0  0  0  0  0
    6.1796   -5.7026    3.1084 C   0  0  0  0  0  0  0  0  0  0  0  0
    4.7129   -5.2923    3.1650 C   0  0  2  0  0  0  0  0  0  0  0  0
    3.7240   -6.4945    2.8082 C   0  0  2  0  0  0  0  0  0  0  0  0
    3.7990   -6.9574    1.3221 C   0  0  2  0  0  0  0  0  0  0  0  0
    3.0073   -6.0547    0.3107 C   0  0  1  0  0  0  0  0  0  0  0  0
    1.5031   -6.2446    0.6866 C   0  0  0  0  0  0  0  0  0  0  0  0
    1.1824   -5.9267    2.1691 C   0  0  0  0  0  0  0  0  0  0  0  0
    2.2038   -6.4079    3.2742 C   0  0  2  0  0  0  0  0  0  0  0  0
    2.0255   -5.4352    4.4638 C   0  0  0  0  0  0  0  0  0  0  0  0
    1.7316   -7.8116    3.7787 C   0  0  0  0  0  0  0  0  0  0  0  0
    0.7912   -7.9156    4.5667 O   0  0  0  0  0  0  0  0  0  0  0  0
    2.4279   -9.0848    3.2941 C   0  0  0  0  0  0  0  0  0  0  0  0
    2.5150   -9.2060    1.7734 C   0  0  0  0  0  0  0  0  0  0  0  0
    3.6377   -8.4583    1.1164 N   0  0  2  0  0  0  0  0  0  0  0  0
    4.9360   -9.1858    1.2894 C   0  0  0  0  0  0  0  0  0  0  0  0
    3.4930   -4.5419   -0.0182 C   0  0  2  0  0  0  0  0  0  0  0  0
    2.3688   -3.8411   -0.8334 C   0  0  0  0  0  0  0  0  0  0  0  0
    4.7648   -4.4475   -0.9588 C   0  0  0  0  0  0  0  0  0  0  0  0
    3.6977   -3.8431    1.3312 C   0  0  2  0  0  0  0  0  0  0  0  0
    2.9643   -2.5140    1.6986 C   0  0  0  0  0  0  0  0  0  0  0  0
    3.4622   -1.2157    1.0885 C   0  0  0  0  0  0  0  0  0  0  0  0
    4.8730   -1.2605    0.5007 C   0  0  2  0  0  0  0  0  0  0  0  0
    5.2594    0.0865    0.5194 O   0  0  0  0  0  0  0  0  0  0  0  0
    3.8985   -0.1772   -1.8701 H   0  0  0  0  0  0  0  0  0  0  0  0
    4.4328   -1.5217   -2.9899 H   0  0  0  0  0  0  0  0  0  0  0  0
    5.7967   -3.1514   -2.2474 H   0  0  0  0  0  0  0  0  0  0  0  0
    7.4340   -4.0482   -0.4019 H   0  0  0  0  0  0  0  0  0  0  0  0
    7.7243   -2.6782   -1.3898 H   0  0  0  0  0  0  0  0  0  0  0  0
    8.0127   -2.5185    1.2438 H   0  0  0  0  0  0  0  0  0  0  0  0
    7.5733   -1.1312    0.3072 H   0  0  0  0  0  0  0  0  0  0  0  0
    6.5622   -2.9745    2.8668 H   0  0  0  0  0  0  0  0  0  0  0  0
    6.2886   -5.6903    0.9285 H   0  0  0  0  0  0  0  0  0  0  0  0
    7.2319   -4.5175    1.7485 H   0  0  0  0  0  0  0  0  0  0  0  0
    6.3631   -6.7752    3.0680 H   0  0  0  0  0  0  0  0  0  0  0  0
    6.7819   -5.2347    3.8887 H   0  0  0  0  0  0  0  0  0  0  0  0
    4.5399   -4.8772    4.1534 H   0  0  0  0  0  0  0  0  0  0  0  0
    4.1763   -7.3021    3.3819 H   0  0  0  0  0  0  0  0  0  0  0  0
    4.7830   -6.8659    0.9459 H   0  0  0  0  0  0  0  0  0  0  0  0
    3.2337   -6.4992   -0.6360 H   0  0  0  0  0  0  0  0  0  0  0  0
    0.8358   -5.7002    0.0225 H   0  0  0  0  0  0  0  0  0  0  0  0
    1.1673   -7.2518    0.4728 H   0  0  0  0  0  0  0  0  0  0  0  0
    1.0230   -4.8470    2.2602 H   0  0  0  0  0  0  0  0  0  0  0  0
    0.1972   -6.3390    2.3834 H   0  0  0  0  0  0  0  0  0  0  0  0
    2.2770   -4.4125    4.1840 H   0  0  0  0  0  0  0  0  0  0  0  0
    2.6465   -5.7156    5.3133 H   0  0  0  0  0  0  0  0  0  0  0  0
    0.9923   -5.4046    4.8130 H   0  0  0  0  0  0  0  0  0  0  0  0
    3.4074   -9.2115    3.7704 H   0  0  0  0  0  0  0  0  0  0  0  0
    1.8306   -9.9238    3.6565 H   0  0  0  0  0  0  0  0  0  0  0  0
    2.6523  -10.2572    1.5384 H   0  0  0  0  0  0  0  0  0  0  0  0
    1.5485   -9.0054    1.3230 H   0  0  0  0  0  0  0  0  0  0  0  0
    5.2859   -9.1410    2.3075 H   0  0  0  0  0  0  0  0  0  0  0  0
    5.7019   -8.8075    0.6243 H   0  0  0  0  0  0  0  0  0  0  0  0
    4.8217  -10.2346    1.0277 H   0  0  0  0  0  0  0  0  0  0  0  0
    2.6285   -2.8511   -1.1902 H   0  0  0  0  0  0  0  0  0  0  0  0
    1.5366   -3.6875   -0.2033 H   0  0  0  0  0  0  0  0  0  0  0  0
    2.0108   -4.3961   -1.6951 H   0  0  0  0  0  0  0  0  0  0  0  0
    4.3715   -4.6401   -1.9567 H   0  0  0  0  0  0  0  0  0  0  0  0
    5.4137   -5.3113   -0.8551 H   0  0  0  0  0  0  0  0  0  0  0  0
    2.9788   -4.3408    1.9255 H   0  0  0  0  0  0  0  0  0  0  0  0
    1.8920   -2.5676    1.5231 H   0  0  0  0  0  0  0  0  0  0  0  0
    3.0260   -2.3885    2.7804 H   0  0  0  0  0  0  0  0  0  0  0  0
    2.7712   -0.8693    0.3220 H   0  0  0  0  0  0  0  0  0  0  0  0
    3.4155   -0.4596    1.8759 H   0  0  0  0  0  0  0  0  0  0  0  0
    4.8944    0.5395   -0.2325 H   0  0  0  0  0  0  0  0  0  0  0  0
    3.4589   -8.5689    0.1391 H   0  0  0  0  0  0  0  0  0  0  0  0
  1  2  2  0
  1 33  1  0
  1 34  1  0
  2 31  1  0
  2  3  1  0
  3 27  1  0
  3  4  1  0
  3 35  1  6
  4  5  1  0
  4 36  1  0
  4 37  1  0
  5  6  1  0
  5 38  1  0
  5 39  1  0
  6 31  1  0
  6  7  2  0
  7  8  1  0
  7 40  1  0
  8 11  1  0
  8 28  1  0
  8  9  1  6
  9 10  1  0
  9 41  1  0
  9 42  1  0
 10 11  1  0
 10 43  1  0
 10 44  1  0
 11 12  1  0
 11 45  1  1
 12 17  1  0
 12 13  1  0
 12 46  1  1
 13 23  1  0
 13 14  1  0
 13 47  1  6
 14 15  1  0
 14 25  1  0
 14 48  1  6
 15 16  1  0
 15 49  1  0
 15 50  1  0
 16 17  1  0
 16 51  1  0
 16 52  1  0
 17 18  1  1
 17 19  1  0
 18 53  1  0
 18 54  1  0
 18 55  1  0
 19 20  2  0
 19 21  1  0
 21 22  1  0
 21 56  1  0
 21 57  1  0
 22 23  1  0
 22 58  1  0
 22 59  1  0
 23 24  1  0
 23 74  1  6
 24 60  1  0
 24 61  1  0
 24 62  1  0
 25 26  1  6
 25 27  1  0
 25 28  1  0
 26 63  1  0
 26 64  1  0
 26 65  1  0
 27 66  1  0
 27 67  1  0
 28 29  1  0
 28 68  1  1
 29 30  1  0
 29 69  1  0
 29 70  1  0
 30 31  1  0
 30 71  1  0
 30 72  1  0
 31 32  1  6
 32 73  1  0
M  CHG  1  23   1
M  END
>  <i_m_ct_stereo_status>  (298) 
1

>  <s_m_source_file>  (298) 
/var/tmp/pbs.5076255.sched01/tmpalt_vnqi/12934k3la1h.sdf

>  <i_m_source_file_index>  (298) 
7

>  <i_lp_mmshare_version>  (298) 
48012

>  <i_f3d_flags>  (298) 
0

>  <s_epik_input>  (298) 
W0NIMl09QzFbQ0BIXShbQ0gyXTIpW0NIMl1bQ0gyXUMoPVtDSF0zKVtDQF0xKFtPSF0pW0NIMl1bQ0gyXVtDQEhdNFtDQF0yKFtDSDNdKVtDQEBIXShbQ0BIXTVbQ0BIXTZbQ0BIXShbQ0BdMzQ3KVtDSDJdW0NIMl03KVtDSDJdW0NIMl1bQ0BAXTYoW0NIM10pQyg9TylbQ0gyXVtDSDJdTjVbQ0gzXQ==

>  <s_epik_cmdline>  (298) 
J2VwaWtfcHl0aG9uJywgJy1waHQnLCAnMi4wJywgJy1waCcsICc3LjAnLCAnLXRuJywgJzgnLCAnLW1hJywgJzIwMCcsICctaW1hZScsICc8aW5maWxlLm1hZT4nLCAnLW9tYWUnLCAnPG91dGZpbGUubWFlPic=

>  <r_lp_tautomer_probability>  (298) 
0.99995

>  <r_epik_Ionization_Penalty>  (298) 
0.00505409

>  <r_epik_Ionization_Penalty_Charging>  (298) 
0.00505402

>  <r_epik_Ionization_Penalty_Neutral>  (298) 
6.83657e-08

>  <r_epik_State_Penalty>  (298) 
0.00367684

>  <r_epik_Charging_Adjusted_Penalty>  (298) 
0.00873087

>  <i_epik_Tot_Q>  (298) 
1

>  <i_epik_Tot_abs_Q>  (298) 
1

>  <s_lp_Force_Field>  (298) 
OPLS3e

>  <r_lp_Energy>  (298) 
208.543

>  <b_lp_Chiralities_Consistent>  (298) 
1

>  <s_lp_Variant>  (298) 
91:0-1

>  <s_i_glide_gridfile>  (298) 
pfpi4k_grid

>  <i_i_glide_lignum>  (298) 
7

>  <i_i_glide_rotatable_bonds>  (298) 
1

>  <r_i_docking_score>  (298) 
-2.41603

>  <r_i_glide_ligand_efficiency>  (298) 
-0.075501

>  <r_i_glide_ligand_efficiency_sa>  (298) 
-0.239701

>  <r_i_glide_ligand_efficiency_ln>  (298) 
-0.541015

>  <r_i_glide_gscore>  (298) 
-2.41603

>  <r_i_glide_lipo>  (298) 
-0.57928

>  <r_i_glide_hbond>  (298) 
-0.262502

>  <r_i_glide_metal>  (298) 
-0

>  <r_i_glide_rewards>  (298) 
-0.431937

>  <r_i_glide_evdw>  (298) 
-9.89225

>  <r_i_glide_ecoul>  (298) 
-4.11642

>  <r_i_glide_erotb>  (298) 
0

>  <r_i_glide_esite>  (298) 
-0.0302373

>  <r_i_glide_emodel>  (298) 
-18.8707

>  <r_i_glide_energy>  (298) 
-14.0087

>  <r_i_glide_einternal>  (298) 
0.225733

>  <r_i_glide_intrahb_reward>  (298) 
-0

>  <i_i_glide_confnum>  (298) 
2

>  <i_i_glide_posenum>  (298) 
24

>  <r_i_glide_eff_state_penalty>  (298) 
0

>  <ligand_id>  (298) 
91

>  <original_smiles>  (298) 
C=C1C2CCC3=CC45CCC4C4C6C(CCC4(C)C(=O)CCN6C)C(C)(C2)C5CCC13O

>  <smiles>  (298) 
[H]OC12C3=C([H])C45C([H])([H])C([H])([H])C4([H])C4([H])C6(C([H])([H])[H])C(=O)C([H])([H])C([H])([H])[N+]([H])(C([H])([H])[H])C4([H])C([H])(C([H])([H])C6([H])[H])C(C([H])([H])[H])(C([H])([H])C([H])(C1=C([H])[H])C([H])([H])C3([H])[H])C5([H])C([H])([H])C2([H])[H]

$$$$
91:0:2
     RDKit          3D

 74 80  0  0  1  0  0  0  0  0999 V2000
    4.6566   -1.2515   -2.2504 C   0  0  0  0  0  0  0  0  0  0  0  0
    5.3547   -1.9971   -1.3780 C   0  0  0  0  0  0  0  0  0  0  0  0
    5.9654   -3.3064   -1.7835 C   0  0  1  0  0  0  0  0  0  0  0  0
    7.5178   -3.2549   -1.5195 C   0  0  0  0  0  0  0  0  0  0  0  0
    8.0065   -2.4232   -0.3354 C   0  0  0  0  0  0  0  0  0  0  0  0
    6.8555   -2.3479    0.6381 C   0  0  0  0  0  0  0  0  0  0  0  0
    6.7912   -3.2221    1.6675 C   0  0  0  0  0  0  0  0  0  0  0  0
    6.0505   -4.4842    1.5062 C   0  0  1  0  0  0  0  0  0  0  0  0
    7.2151   -5.3621    0.8827 C   0  0  0  0  0  0  0  0  0  0  0  0
    7.4186   -6.0527    2.2176 C   0  0  0  0  0  0  0  0  0  0  0  0
    6.0030   -5.6142    2.5910 C   0  0  2  0  0  0  0  0  0  0  0  0
    4.9312   -6.7652    2.4796 C   0  0  2  0  0  0  0  0  0  0  0  0
    4.6332   -7.1774    1.0164 C   0  0  2  0  0  0  0  0  0  0  0  0
    3.6574   -6.2002    0.2710 C   0  0  1  0  0  0  0  0  0  0  0  0
    2.2735   -6.3911    0.9363 C   0  0  0  0  0  0  0  0  0  0  0  0
    2.3274   -6.0905    2.4391 C   0  0  0  0  0  0  0  0  0  0  0  0
    3.5557   -6.6482    3.2625 C   0  0  2  0  0  0  0  0  0  0  0  0
    3.6898   -5.6961    4.4695 C   0  0  0  0  0  0  0  0  0  0  0  0
    3.1739   -8.0426    3.8304 C   0  0  0  0  0  0  0  0  0  0  0  0
    2.4428   -8.1466    4.8105 O   0  0  0  0  0  0  0  0  0  0  0  0
    3.6981   -9.3143    3.1789 C   0  0  0  0  0  0  0  0  0  0  0  0
    3.3998   -9.3710    1.6866 C   0  0  0  0  0  0  0  0  0  0  0  0
    4.3714   -8.6597    0.8133 N   0  0  2  0  0  0  0  0  0  0  0  0
    5.6170   -9.4762    0.7813 C   0  0  0  0  0  0  0  0  0  0  0  0
    4.0691   -4.6852   -0.1688 C   0  0  2  0  0  0  0  0  0  0  0  0
    2.8077   -3.9583   -0.6857 C   0  0  0  0  0  0  0  0  0  0  0  0
    5.1018   -4.5613   -1.3668 C   0  0  0  0  0  0  0  0  0  0  0  0
    4.6422   -4.0548    1.0782 C   0  0  2  0  0  0  0  0  0  0  0  0
    4.0749   -2.7243    1.6372 C   0  0  0  0  0  0  0  0  0  0  0  0
    4.4602   -1.4458    0.9477 C   0  0  0  0  0  0  0  0  0  0  0  0
    5.6914   -1.5849    0.0712 C   0  0  2  0  0  0  0  0  0  0  0  0
    6.1550   -0.2744    0.0909 O   0  0  0  0  0  0  0  0  0  0  0  0
    4.2456   -0.2861   -1.9869 H   0  0  0  0  0  0  0  0  0  0  0  0
    4.4524   -1.6205   -3.2499 H   0  0  0  0  0  0  0  0  0  0  0  0
    5.9202   -3.3306   -2.8733 H   0  0  0  0  0  0  0  0  0  0  0  0
    8.0326   -4.2145   -1.3773 H   0  0  0  0  0  0  0  0  0  0  0  0
    7.9960   -2.8550   -2.3929 H   0  0  0  0  0  0  0  0  0  0  0  0
    8.9282   -2.8427    0.0693 H   0  0  0  0  0  0  0  0  0  0  0  0
    8.3647   -1.4607   -0.7069 H   0  0  0  0  0  0  0  0  0  0  0  0
    7.7553   -3.5436    1.9471 H   0  0  0  0  0  0  0  0  0  0  0  0
    7.0202   -6.0107    0.0676 H   0  0  0  0  0  0  0  0  0  0  0  0
    8.1743   -4.8926    0.6403 H   0  0  0  0  0  0  0  0  0  0  0  0
    7.5551   -7.1252    2.1059 H   0  0  0  0  0  0  0  0  0  0  0  0
    8.2171   -5.6108    2.8324 H   0  0  0  0  0  0  0  0  0  0  0  0
    6.0985   -5.2063    3.5820 H   0  0  0  0  0  0  0  0  0  0  0  0
    5.4821   -7.6034    2.8922 H   0  0  0  0  0  0  0  0  0  0  0  0
    5.4962   -7.0975    0.4069 H   0  0  0  0  0  0  0  0  0  0  0  0
    3.6204   -6.6458   -0.6968 H   0  0  0  0  0  0  0  0  0  0  0  0
    1.5095   -5.8018    0.4476 H   0  0  0  0  0  0  0  0  0  0  0  0
    1.8710   -7.3794    0.7348 H   0  0  0  0  0  0  0  0  0  0  0  0
    2.2280   -5.0077    2.5510 H   0  0  0  0  0  0  0  0  0  0  0  0
    1.4065   -6.4869    2.8528 H   0  0  0  0  0  0  0  0  0  0  0  0
    3.9029   -4.6723    4.1667 H   0  0  0  0  0  0  0  0  0  0  0  0
    4.4733   -6.0094    5.1544 H   0  0  0  0  0  0  0  0  0  0  0  0
    2.7703   -5.6460    5.0499 H   0  0  0  0  0  0  0  0  0  0  0  0
    4.7503   -9.4878    3.4034 H   0  0  0  0  0  0  0  0  0  0  0  0
    3.1745  -10.1466    3.6401 H   0  0  0  0  0  0  0  0  0  0  0  0
    3.4261  -10.4171    1.4292 H   0  0  0  0  0  0  0  0  0  0  0  0
    2.3706   -9.1590    1.4506 H   0  0  0  0  0  0  0  0  0  0  0  0
    6.2314   -9.4394    1.6637 H   0  0  0  0  0  0  0  0  0  0  0  0
    6.3324   -9.0767    0.1176 H   0  0  0  0  0  0  0  0  0  0  0  0
    5.4628  -10.5209    0.5068 H   0  0  0  0  0  0  0  0  0  0  0  0
    3.0296   -2.9810   -1.0846 H   0  0  0  0  0  0  0  0  0  0  0  0
    2.0772   -3.8132    0.0927 H   0  0  0  0  0  0  0  0  0  0  0  0
    2.3015   -4.4831   -1.4877 H   0  0  0  0  0  0  0  0  0  0  0  0
    4.6301   -4.7665   -2.3226 H   0  0  0  0  0  0  0  0  0  0  0  0
    5.7107   -5.4095   -1.2562 H   0  0  0  0  0  0  0  0  0  0  0  0
    4.0813   -4.5462    1.8196 H   0  0  0  0  0  0  0  0  0  0  0  0
    2.9965   -2.7476    1.6950 H   0  0  0  0  0  0  0  0  0  0  0  0
    4.3940   -2.6297    2.6731 H   0  0  0  0  0  0  0  0  0  0  0  0
    3.6331   -1.0478    0.3619 H   0  0  0  0  0  0  0  0  0  0  0  0
    4.6367   -0.6952    1.7252 H   0  0  0  0  0  0  0  0  0  0  0  0
    5.4865    0.2845   -0.2844 H   0  0  0  0  0  0  0  0  0  0  0  0
    3.9975   -8.7562   -0.1274 H   0  0  0  0  0  0  0  0  0  0  0  0
  1  2  2  0
  1 33  1  0
  1 34  1  0
  2 31  1  0
  2  3  1  0
  3 27  1  0
  3  4  1  0
  3 35  1  6
  4  5  1  0
  4 36  1  0
  4 37  1  0
  5  6  1  0
  5 38  1  0
  5 39  1  0
  6 31  1  0
  6  7  2  0
  7  8  1  0
  7 40  1  0
  8 11  1  0
  8 28  1  0
  8  9  1  6
  9 10  1  0
  9 41  1  0
  9 42  1  0
 10 11  1  0
 10 43  1  0
 10 44  1  0
 11 12  1  0
 11 45  1  1
 12 17  1  0
 12 13  1  0
 12 46  1  1
 13 23  1  0
 13 14  1  0
 13 47  1  6
 14 15  1  0
 14 25  1  0
 14 48  1  6
 15 16  1  0
 15 49  1  0
 15 50  1  0
 16 17  1  0
 16 51  1  0
 16 52  1  0
 17 18  1  1
 17 19  1  0
 18 53  1  0
 18 54  1  0
 18 55  1  0
 19 20  2  0
 19 21  1  0
 21 22  1  0
 21 56  1  0
 21 57  1  0
 22 23  1  0
 22 58  1  0
 22 59  1  0
 23 24  1  0
 23 74  1  6
 24 60  1  0
 24 61  1  0
 24 62  1  0
 25 26  1  6
 25 27  1  0
 25 28  1  0
 26 63  1  0
 26 64  1  0
 26 65  1  0
 27 66  1  0
 27 67  1  0
 28 29  1  0
 28 68  1  1
 29 30  1  0
 29 69  1  0
 29 70  1  0
 30 31  1  0
 30 71  1  0
 30 72  1  0
 31 32  1  6
 32 73  1  0
M  CHG  1  23   1
M  END
>  <i_m_ct_stereo_status>  (299) 
1

>  <s_m_source_file>  (299) 
/var/tmp/pbs.5076255.sched01/tmpalt_vnqi/12934k3la1h.sdf

>  <i_m_source_file_index>  (299) 
7

>  <i_lp_mmshare_version>  (299) 
48012

>  <i_f3d_flags>  (299) 
0

>  <s_epik_input>  (299) 
W0NIMl09QzFbQ0BIXShbQ0gyXTIpW0NIMl1bQ0gyXUMoPVtDSF0zKVtDQF0xKFtPSF0pW0NIMl1bQ0gyXVtDQEhdNFtDQF0yKFtDSDNdKVtDQEBIXShbQ0BIXTVbQ0BIXTZbQ0BIXShbQ0BdMzQ3KVtDSDJdW0NIMl03KVtDSDJdW0NIMl1bQ0BAXTYoW0NIM10pQyg9TylbQ0gyXVtDSDJdTjVbQ0gzXQ==

>  <s_epik_cmdline>  (299) 
J2VwaWtfcHl0aG9uJywgJy1waHQnLCAnMi4wJywgJy1waCcsICc3LjAnLCAnLXRuJywgJzgnLCAnLW1hJywgJzIwMCcsICctaW1hZScsICc8aW5maWxlLm1hZT4nLCAnLW9tYWUnLCAnPG91dGZpbGUubWFlPic=

>  <r_lp_tautomer_probability>  (299) 
0.99995

>  <r_epik_Ionization_Penalty>  (299) 
0.00505409

>  <r_epik_Ionization_Penalty_Charging>  (299) 
0.00505402

>  <r_epik_Ionization_Penalty_Neutral>  (299) 
6.83657e-08

>  <r_epik_State_Penalty>  (299) 
0.00367684

>  <r_epik_Charging_Adjusted_Penalty>  (299) 
0.00873087

>  <i_epik_Tot_Q>  (299) 
1

>  <i_epik_Tot_abs_Q>  (299) 
1

>  <s_lp_Force_Field>  (299) 
OPLS3e

>  <r_lp_Energy>  (299) 
208.543

>  <b_lp_Chiralities_Consistent>  (299) 
1

>  <s_lp_Variant>  (299) 
91:0-1

>  <s_i_glide_gridfile>  (299) 
pfpi4k_grid

>  <i_i_glide_lignum>  (299) 
7

>  <i_i_glide_rotatable_bonds>  (299) 
1

>  <r_i_docking_score>  (299) 
-2.01818

>  <r_i_glide_ligand_efficiency>  (299) 
-0.0630682

>  <r_i_glide_ligand_efficiency_sa>  (299) 
-0.200229

>  <r_i_glide_ligand_efficiency_ln>  (299) 
-0.451926

>  <r_i_glide_gscore>  (299) 
-2.01818

>  <r_i_glide_lipo>  (299) 
-0.659545

>  <r_i_glide_hbond>  (299) 
-0.21117

>  <r_i_glide_metal>  (299) 
-0

>  <r_i_glide_rewards>  (299) 
-0.431937

>  <r_i_glide_evdw>  (299) 
-2.55277

>  <r_i_glide_ecoul>  (299) 
-3.67841

>  <r_i_glide_erotb>  (299) 
0

>  <r_i_glide_esite>  (299) 
-0.0361327

>  <r_i_glide_emodel>  (299) 
-7.44623

>  <r_i_glide_energy>  (299) 
-6.23118

>  <r_i_glide_einternal>  (299) 
0.120665

>  <r_i_glide_intrahb_reward>  (299) 
-0

>  <i_i_glide_confnum>  (299) 
2

>  <i_i_glide_posenum>  (299) 
2

>  <r_i_glide_eff_state_penalty>  (299) 
0

>  <ligand_id>  (299) 
91

>  <original_smiles>  (299) 
C=C1C2CCC3=CC45CCC4C4C6C(CCC4(C)C(=O)CCN6C)C(C)(C2)C5CCC13O

>  <smiles>  (299) 
[H]OC12C3=C([H])C45C([H])([H])C([H])([H])C4([H])C4([H])C6(C([H])([H])[H])C(=O)C([H])([H])C([H])([H])[N+]([H])(C([H])([H])[H])C4([H])C([H])(C([H])([H])C6([H])[H])C(C([H])([H])[H])(C([H])([H])C([H])(C1=C([H])[H])C([H])([H])C3([H])[H])C5([H])C([H])([H])C2([H])[H]

$$$$
93:0:0
     RDKit          3D

 40 44  0  0  1  0  0  0  0  0999 V2000
    3.7105   -2.8721   -3.9711 C   0  0  0  0  0  0  0  0  0  0  0  0
    3.7697   -1.3413   -3.9639 C   0  0  0  0  0  0  0  0  0  0  0  0
    3.7713   -0.9142   -2.4918 C   0  0  0  0  0  0  0  0  0  0  0  0
    3.9725   -2.1798   -1.6422 C   0  0  1  0  0  0  0  0  0  0  0  0
    3.4340   -3.2931   -2.5332 C   0  0  0  0  0  0  0  0  0  0  0  0
    5.3461   -2.3466   -1.3665 O   0  0  0  0  0  0  0  0  0  0  0  0
    5.4954   -1.6628   -0.0461 O   0  0  0  0  0  0  0  0  0  0  0  0
    4.2510   -1.8728    0.5863 C   0  0  2  0  0  0  0  0  0  0  0  0
    3.2879   -2.1654   -0.4126 O   0  0  0  0  0  0  0  0  0  0  0  0
    3.8110   -0.6055    1.3551 C   0  0  1  0  0  0  0  0  0  0  0  0
    2.4406   -0.8557    2.0275 C   0  0  0  0  0  0  0  0  0  0  0  0
    2.5549   -2.0313    3.0258 C   0  0  2  0  0  0  0  0  0  0  0  0
    3.5798   -1.6801    4.1176 C   0  0  0  0  0  0  0  0  0  0  0  0
    4.9465   -1.4377    3.4495 C   0  0  2  0  0  0  0  0  0  0  0  0
    4.8392   -0.2645    2.4585 C   0  0  0  0  0  0  0  0  0  0  0  0
    5.4000   -2.7019    2.6879 C   0  0  0  0  0  0  0  0  0  0  0  0
    4.3634   -3.0525    1.5923 C   0  0  1  0  0  0  0  0  0  0  0  0
    3.0029   -3.3067    2.2773 C   0  0  0  0  0  0  0  0  0  0  0  0
    4.6610   -3.2841   -4.3134 H   0  0  0  0  0  0  0  0  0  0  0  0
    2.9349   -3.2352   -4.6528 H   0  0  0  0  0  0  0  0  0  0  0  0
    4.6490   -0.9958   -4.5063 H   0  0  0  0  0  0  0  0  0  0  0  0
    2.8990   -0.9199   -4.4733 H   0  0  0  0  0  0  0  0  0  0  0  0
    4.5272   -0.1600   -2.2800 H   0  0  0  0  0  0  0  0  0  0  0  0
    2.7878   -0.4910   -2.3042 H   0  0  0  0  0  0  0  0  0  0  0  0
    2.3513   -3.3596   -2.4217 H   0  0  0  0  0  0  0  0  0  0  0  0
    3.8747   -4.2491   -2.2842 H   0  0  0  0  0  0  0  0  0  0  0  0
    3.7380    0.2278    0.6581 H   0  0  0  0  0  0  0  0  0  0  0  0
    2.1105    0.0473    2.5418 H   0  0  0  0  0  0  0  0  0  0  0  0
    1.6845   -1.0859    1.2816 H   0  0  0  0  0  0  0  0  0  0  0  0
    1.5895   -2.2123    3.4946 H   0  0  0  0  0  0  0  0  0  0  0  0
    3.2623   -0.7902    4.6618 H   0  0  0  0  0  0  0  0  0  0  0  0
    3.6451   -2.4823    4.8522 H   0  0  0  0  0  0  0  0  0  0  0  0
    5.6743   -1.1896    4.2220 H   0  0  0  0  0  0  0  0  0  0  0  0
    5.8194   -0.0523    2.0290 H   0  0  0  0  0  0  0  0  0  0  0  0
    4.5150    0.6267    2.9940 H   0  0  0  0  0  0  0  0  0  0  0  0
    6.3762   -2.5223    2.2379 H   0  0  0  0  0  0  0  0  0  0  0  0
    5.5085   -3.5308    3.3884 H   0  0  0  0  0  0  0  0  0  0  0  0
    4.6839   -3.9551    1.0742 H   0  0  0  0  0  0  0  0  0  0  0  0
    3.0888   -4.1363    2.9799 H   0  0  0  0  0  0  0  0  0  0  0  0
    2.2476   -3.5843    1.5388 H   0  0  0  0  0  0  0  0  0  0  0  0
  1  5  1  0
  1  2  1  0
  1 19  1  0
  1 20  1  0
  2  3  1  0
  2 21  1  0
  2 22  1  0
  3  4  1  0
  3 23  1  0
  3 24  1  0
  4  9  1  1
  4  5  1  0
  4  6  1  0
  5 25  1  0
  5 26  1  0
  6  7  1  0
  8  7  1  6
  8 17  1  0
  8  9  1  0
  8 10  1  0
 10 15  1  0
 10 11  1  0
 10 27  1  6
 11 12  1  0
 11 28  1  0
 11 29  1  0
 12 18  1  0
 12 13  1  0
 12 30  1  1
 13 14  1  0
 13 31  1  0
 13 32  1  0
 14 15  1  0
 14 16  1  0
 14 33  1  1
 15 34  1  0
 15 35  1  0
 16 17  1  0
 16 36  1  0
 16 37  1  0
 17 18  1  0
 17 38  1  6
 18 39  1  0
 18 40  1  0
M  END
>  <i_m_ct_stereo_status>  (300) 
1

>  <s_m_source_file>  (300) 
/var/tmp/pbs.5076255.sched01/tmpalt_vnqi/12934k3la1h.sdf

>  <i_m_source_file_index>  (300) 
9

>  <i_lp_mmshare_version>  (300) 
48012

>  <i_f3d_flags>  (300) 
0

>  <s_epik_input>  (300) 
W0NIMl0xW0NIMl1bQ0gyXVtDSDJdQzEyT09bQ0BdMyhPMilbQ0BASF00W0NIMl1bQ0BIXTVbQ0gyXVtDQEBIXShbQ0gyXTQpW0NIMl1bQ0BASF0zW0NIMl01

>  <s_epik_cmdline>  (300) 
J2VwaWtfcHl0aG9uJywgJy1waHQnLCAnMi4wJywgJy1waCcsICc3LjAnLCAnLXRuJywgJzgnLCAnLW1hJywgJzIwMCcsICctaW1hZScsICc8aW5maWxlLm1hZT4nLCAnLW9tYWUnLCAnPG91dGZpbGUubWFlPic=

>  <r_lp_tautomer_probability>  (300) 
1

>  <r_epik_Ionization_Penalty>  (300) 
1.18402e-15

>  <r_epik_Ionization_Penalty_Charging>  (300) 
0

>  <r_epik_Ionization_Penalty_Neutral>  (300) 
1.18402e-15

>  <r_epik_State_Penalty>  (300) 
-0

>  <r_epik_Charging_Adjusted_Penalty>  (300) 
0

>  <i_epik_Tot_Q>  (300) 
0

>  <i_epik_Tot_abs_Q>  (300) 
0

>  <s_lp_Force_Field>  (300) 
OPLS3e

>  <r_lp_Energy>  (300) 
10.2198

>  <b_lp_Chiralities_Consistent>  (300) 
1

>  <s_lp_Variant>  (300) 
93:0-1

>  <s_i_glide_gridfile>  (300) 
pfpi4k_grid

>  <i_i_glide_lignum>  (300) 
9

>  <i_i_glide_rotatable_bonds>  (300) 
0

>  <r_i_docking_score>  (300) 
-3.23507

>  <r_i_glide_ligand_efficiency>  (300) 
-0.179726

>  <r_i_glide_ligand_efficiency_sa>  (300) 
-0.471016

>  <r_i_glide_ligand_efficiency_ln>  (300) 
-0.831558

>  <r_i_glide_gscore>  (300) 
-3.23507

>  <r_i_glide_lipo>  (300) 
-0.371069

>  <r_i_glide_hbond>  (300) 
0

>  <r_i_glide_metal>  (300) 
-0

>  <r_i_glide_rewards>  (300) 
-1.70227

>  <r_i_glide_evdw>  (300) 
-21.354

>  <r_i_glide_ecoul>  (300) 
-0.327571

>  <r_i_glide_erotb>  (300) 
0

>  <r_i_glide_esite>  (300) 
-0.0448966

>  <r_i_glide_emodel>  (300) 
-25.741

>  <r_i_glide_energy>  (300) 
-21.6815

>  <r_i_glide_einternal>  (300) 
0

>  <r_i_glide_intrahb_reward>  (300) 
-0

>  <i_i_glide_confnum>  (300) 
3

>  <i_i_glide_posenum>  (300) 
8

>  <r_i_glide_eff_state_penalty>  (300) 
0

>  <ligand_id>  (300) 
93

>  <original_smiles>  (300) 
C1CCC2(C1)OOC1(O2)C2CC3CC(C2)CC1C3

>  <smiles>  (300) 
[H]C1([H])C([H])([H])C([H])([H])C2(OOC3(O2)C2([H])C([H])([H])C4([H])C([H])([H])C([H])(C2([H])[H])C([H])([H])C3([H])C4([H])[H])C1([H])[H]

$$$$
93:0:1
     RDKit          3D

 40 44  0  0  1  0  0  0  0  0999 V2000
    6.1992   -7.7292    2.8010 C   0  0  0  0  0  0  0  0  0  0  0  0
    7.5393   -7.3196    2.1766 C   0  0  0  0  0  0  0  0  0  0  0  0
    7.2595   -6.1147    1.2637 C   0  0  0  0  0  0  0  0  0  0  0  0
    5.8079   -5.6784    1.5304 C   0  0  1  0  0  0  0  0  0  0  0  0
    5.1219   -6.9462    2.0471 C   0  0  0  0  0  0  0  0  0  0  0  0
    5.7975   -4.6472    2.4846 O   0  0  0  0  0  0  0  0  0  0  0  0
    5.8643   -3.4167    1.6432 O   0  0  0  0  0  0  0  0  0  0  0  0
    5.1507   -3.7713    0.4713 C   0  0  2  0  0  0  0  0  0  0  0  0
    5.1601   -5.1937    0.3666 O   0  0  0  0  0  0  0  0  0  0  0  0
    5.8284   -3.1735   -0.7838 C   0  0  1  0  0  0  0  0  0  0  0  0
    5.0425   -3.5940   -2.0503 C   0  0  0  0  0  0  0  0  0  0  0  0
    3.5985   -3.0539   -1.9628 C   0  0  2  0  0  0  0  0  0  0  0  0
    3.6368   -1.5128   -1.9016 C   0  0  0  0  0  0  0  0  0  0  0  0
    4.4031   -1.0917   -0.6249 C   0  0  2  0  0  0  0  0  0  0  0  0
    5.8395   -1.6303   -0.7120 C   0  0  0  0  0  0  0  0  0  0  0  0
    3.7271   -1.6600    0.6368 C   0  0  0  0  0  0  0  0  0  0  0  0
    3.7024   -3.2084    0.5585 C   0  0  1  0  0  0  0  0  0  0  0  0
    2.9011   -3.6087   -0.6997 C   0  0  0  0  0  0  0  0  0  0  0  0
    6.1910   -7.4677    3.8626 H   0  0  0  0  0  0  0  0  0  0  0  0
    6.0341   -8.8056    2.7359 H   0  0  0  0  0  0  0  0  0  0  0  0
    8.2542   -7.0743    2.9629 H   0  0  0  0  0  0  0  0  0  0  0  0
    7.9753   -8.1417    1.6072 H   0  0  0  0  0  0  0  0  0  0  0  0
    7.9728   -5.3085    1.4273 H   0  0  0  0  0  0  0  0  0  0  0  0
    7.3796   -6.4327    0.2279 H   0  0  0  0  0  0  0  0  0  0  0  0
    4.7952   -7.5477    1.1994 H   0  0  0  0  0  0  0  0  0  0  0  0
    4.2419   -6.7416    2.6552 H   0  0  0  0  0  0  0  0  0  0  0  0
    6.8513   -3.5393   -0.8462 H   0  0  0  0  0  0  0  0  0  0  0  0
    5.5405   -3.2124   -2.9441 H   0  0  0  0  0  0  0  0  0  0  0  0
    5.0165   -4.6811   -2.1431 H   0  0  0  0  0  0  0  0  0  0  0  0
    3.0382   -3.3601   -2.8466 H   0  0  0  0  0  0  0  0  0  0  0  0
    4.1219   -1.1076   -2.7896 H   0  0  0  0  0  0  0  0  0  0  0  0
    2.6255   -1.1093   -1.9108 H   0  0  0  0  0  0  0  0  0  0  0  0
    4.4278   -0.0047   -0.5623 H   0  0  0  0  0  0  0  0  0  0  0  0
    6.4259   -1.2770    0.1406 H   0  0  0  0  0  0  0  0  0  0  0  0
    6.2921   -1.2397   -1.6193 H   0  0  0  0  0  0  0  0  0  0  0  0
    4.2733   -1.3273    1.5219 H   0  0  0  0  0  0  0  0  0  0  0  0
    2.7138   -1.2604    0.7240 H   0  0  0  0  0  0  0  0  0  0  0  0
    3.2044   -3.6013    1.4436 H   0  0  0  0  0  0  0  0  0  0  0  0
    1.8807   -3.2222   -0.6435 H   0  0  0  0  0  0  0  0  0  0  0  0
    2.8312   -4.6946   -0.7481 H   0  0  0  0  0  0  0  0  0  0  0  0
  1  5  1  0
  1  2  1  0
  1 19  1  0
  1 20  1  0
  2  3  1  0
  2 21  1  0
  2 22  1  0
  3  4  1  0
  3 23  1  0
  3 24  1  0
  4  9  1  6
  4  5  1  0
  4  6  1  0
  5 25  1  0
  5 26  1  0
  6  7  1  0
  8  7  1  1
  8 17  1  0
  8  9  1  0
  8 10  1  0
 10 15  1  0
 10 11  1  0
 10 27  1  6
 11 12  1  0
 11 28  1  0
 11 29  1  0
 12 18  1  0
 12 13  1  0
 12 30  1  6
 13 14  1  0
 13 31  1  0
 13 32  1  0
 14 15  1  0
 14 16  1  0
 14 33  1  1
 15 34  1  0
 15 35  1  0
 16 17  1  0
 16 36  1  0
 16 37  1  0
 17 18  1  0
 17 38  1  1
 18 39  1  0
 18 40  1  0
M  END
>  <i_m_ct_stereo_status>  (301) 
1

>  <s_m_source_file>  (301) 
/var/tmp/pbs.5076255.sched01/tmpalt_vnqi/12934k3la1h.sdf

>  <i_m_source_file_index>  (301) 
9

>  <i_lp_mmshare_version>  (301) 
48012

>  <i_f3d_flags>  (301) 
0

>  <s_epik_input>  (301) 
W0NIMl0xW0NIMl1bQ0gyXVtDSDJdQzEyT09bQ0BdMyhPMilbQ0BASF00W0NIMl1bQ0BIXTVbQ0gyXVtDQEBIXShbQ0gyXTQpW0NIMl1bQ0BASF0zW0NIMl01

>  <s_epik_cmdline>  (301) 
J2VwaWtfcHl0aG9uJywgJy1waHQnLCAnMi4wJywgJy1waCcsICc3LjAnLCAnLXRuJywgJzgnLCAnLW1hJywgJzIwMCcsICctaW1hZScsICc8aW5maWxlLm1hZT4nLCAnLW9tYWUnLCAnPG91dGZpbGUubWFlPic=

>  <r_lp_tautomer_probability>  (301) 
1

>  <r_epik_Ionization_Penalty>  (301) 
1.18402e-15

>  <r_epik_Ionization_Penalty_Charging>  (301) 
0

>  <r_epik_Ionization_Penalty_Neutral>  (301) 
1.18402e-15

>  <r_epik_State_Penalty>  (301) 
-0

>  <r_epik_Charging_Adjusted_Penalty>  (301) 
0

>  <i_epik_Tot_Q>  (301) 
0

>  <i_epik_Tot_abs_Q>  (301) 
0

>  <s_lp_Force_Field>  (301) 
OPLS3e

>  <r_lp_Energy>  (301) 
10.2198

>  <b_lp_Chiralities_Consistent>  (301) 
1

>  <s_lp_Variant>  (301) 
93:0-1

>  <s_i_glide_gridfile>  (301) 
pfpi4k_grid

>  <i_i_glide_lignum>  (301) 
9

>  <i_i_glide_rotatable_bonds>  (301) 
0

>  <r_i_docking_score>  (301) 
-3.14655

>  <r_i_glide_ligand_efficiency>  (301) 
-0.174808

>  <r_i_glide_ligand_efficiency_sa>  (301) 
-0.458128

>  <r_i_glide_ligand_efficiency_ln>  (301) 
-0.808805

>  <r_i_glide_gscore>  (301) 
-3.14655

>  <r_i_glide_lipo>  (301) 
-0.231799

>  <r_i_glide_hbond>  (301) 
0

>  <r_i_glide_metal>  (301) 
-0

>  <r_i_glide_rewards>  (301) 
-1.85406

>  <r_i_glide_evdw>  (301) 
-21.1438

>  <r_i_glide_ecoul>  (301) 
-0.0233238

>  <r_i_glide_erotb>  (301) 
0

>  <r_i_glide_esite>  (301) 
0

>  <r_i_glide_emodel>  (301) 
-25.125

>  <r_i_glide_energy>  (301) 
-21.1671

>  <r_i_glide_einternal>  (301) 
0

>  <r_i_glide_intrahb_reward>  (301) 
-0

>  <i_i_glide_confnum>  (301) 
3

>  <i_i_glide_posenum>  (301) 
1

>  <r_i_glide_eff_state_penalty>  (301) 
0

>  <ligand_id>  (301) 
93

>  <original_smiles>  (301) 
C1CCC2(C1)OOC1(O2)C2CC3CC(C2)CC1C3

>  <smiles>  (301) 
[H]C1([H])C([H])([H])C([H])([H])C2(OOC3(O2)C2([H])C([H])([H])C4([H])C([H])([H])C([H])(C2([H])[H])C([H])([H])C3([H])C4([H])[H])C1([H])[H]

$$$$
93:0:2
     RDKit          3D

 40 44  0  0  1  0  0  0  0  0999 V2000
    5.5423   -5.5779    4.2489 C   0  0  0  0  0  0  0  0  0  0  0  0
    4.0434   -5.8919    4.1328 C   0  0  0  0  0  0  0  0  0  0  0  0
    3.7573   -6.0826    2.6363 C   0  0  0  0  0  0  0  0  0  0  0  0
    5.0213   -5.6155    1.8851 C   0  0  1  0  0  0  0  0  0  0  0  0
    6.1425   -5.9186    2.8815 C   0  0  0  0  0  0  0  0  0  0  0  0
    5.1685   -6.3103    0.6672 O   0  0  0  0  0  0  0  0  0  0  0  0
    4.4502   -5.4180   -0.2966 O   0  0  0  0  0  0  0  0  0  0  0  0
    4.7206   -4.1152    0.1963 C   0  0  2  0  0  0  0  0  0  0  0  0
    4.9906   -4.2199    1.5943 O   0  0  0  0  0  0  0  0  0  0  0  0
    3.5013   -3.1813   -0.0062 C   0  0  1  0  0  0  0  0  0  0  0  0
    3.8422   -1.7758    0.5403 C   0  0  0  0  0  0  0  0  0  0  0  0
    5.0454   -1.1953   -0.2423 C   0  0  2  0  0  0  0  0  0  0  0  0
    4.6789   -1.0771   -1.7390 C   0  0  0  0  0  0  0  0  0  0  0  0
    4.3559   -2.4864   -2.2770 C   0  0  2  0  0  0  0  0  0  0  0  0
    3.1510   -3.0594   -1.5030 C   0  0  0  0  0  0  0  0  0  0  0  0
    5.5742   -3.4161   -2.0968 C   0  0  0  0  0  0  0  0  0  0  0  0
    5.9308   -3.5248   -0.5920 C   0  0  1  0  0  0  0  0  0  0  0  0
    6.2749   -2.1180   -0.0631 C   0  0  0  0  0  0  0  0  0  0  0  0
    6.0208   -6.1201    5.0687 H   0  0  0  0  0  0  0  0  0  0  0  0
    5.6661   -4.5152    4.4571 H   0  0  0  0  0  0  0  0  0  0  0  0
    3.8004   -6.7998    4.6882 H   0  0  0  0  0  0  0  0  0  0  0  0
    3.4493   -5.0901    4.5742 H   0  0  0  0  0  0  0  0  0  0  0  0
    3.6150   -7.1500    2.4639 H   0  0  0  0  0  0  0  0  0  0  0  0
    2.8540   -5.5706    2.3163 H   0  0  0  0  0  0  0  0  0  0  0  0
    7.0595   -5.3675    2.6794 H   0  0  0  0  0  0  0  0  0  0  0  0
    6.3900   -6.9781    2.8587 H   0  0  0  0  0  0  0  0  0  0  0  0
    2.6544   -3.5982    0.5337 H   0  0  0  0  0  0  0  0  0  0  0  0
    2.9718   -1.1260    0.4331 H   0  0  0  0  0  0  0  0  0  0  0  0
    4.0829   -1.8242    1.6064 H   0  0  0  0  0  0  0  0  0  0  0  0
    5.2809   -0.2040    0.1424 H   0  0  0  0  0  0  0  0  0  0  0  0
    3.8135   -0.4264   -1.8733 H   0  0  0  0  0  0  0  0  0  0  0  0
    5.4974   -0.6293   -2.3014 H   0  0  0  0  0  0  0  0  0  0  0  0
    4.1025   -2.4106   -3.3347 H   0  0  0  0  0  0  0  0  0  0  0  0
    2.8729   -4.0319   -1.9122 H   0  0  0  0  0  0  0  0  0  0  0  0
    2.2839   -2.4140   -1.6328 H   0  0  0  0  0  0  0  0  0  0  0  0
    5.3354   -4.3960   -2.5155 H   0  0  0  0  0  0  0  0  0  0  0  0
    6.4218   -3.0366   -2.6676 H   0  0  0  0  0  0  0  0  0  0  0  0
    6.7968   -4.1745   -0.4709 H   0  0  0  0  0  0  0  0  0  0  0  0
    7.1294   -1.7225   -0.6131 H   0  0  0  0  0  0  0  0  0  0  0  0
    6.5595   -2.1618    0.9925 H   0  0  0  0  0  0  0  0  0  0  0  0
  1  5  1  0
  1  2  1  0
  1 19  1  0
  1 20  1  0
  2  3  1  0
  2 21  1  0
  2 22  1  0
  3  4  1  0
  3 23  1  0
  3 24  1  0
  4  9  1  6
  4  5  1  0
  4  6  1  0
  5 25  1  0
  5 26  1  0
  6  7  1  0
  8  7  1  6
  8 17  1  0
  8  9  1  0
  8 10  1  0
 10 15  1  0
 10 11  1  0
 10 27  1  1
 11 12  1  0
 11 28  1  0
 11 29  1  0
 12 18  1  0
 12 13  1  0
 12 30  1  1
 13 14  1  0
 13 31  1  0
 13 32  1  0
 14 15  1  0
 14 16  1  0
 14 33  1  6
 15 34  1  0
 15 35  1  0
 16 17  1  0
 16 36  1  0
 16 37  1  0
 17 18  1  0
 17 38  1  6
 18 39  1  0
 18 40  1  0
M  END
>  <i_m_ct_stereo_status>  (302) 
1

>  <s_m_source_file>  (302) 
/var/tmp/pbs.5076255.sched01/tmpalt_vnqi/12934k3la1h.sdf

>  <i_m_source_file_index>  (302) 
9

>  <i_lp_mmshare_version>  (302) 
48012

>  <i_f3d_flags>  (302) 
0

>  <s_epik_input>  (302) 
W0NIMl0xW0NIMl1bQ0gyXVtDSDJdQzEyT09bQ0BdMyhPMilbQ0BASF00W0NIMl1bQ0BIXTVbQ0gyXVtDQEBIXShbQ0gyXTQpW0NIMl1bQ0BASF0zW0NIMl01

>  <s_epik_cmdline>  (302) 
J2VwaWtfcHl0aG9uJywgJy1waHQnLCAnMi4wJywgJy1waCcsICc3LjAnLCAnLXRuJywgJzgnLCAnLW1hJywgJzIwMCcsICctaW1hZScsICc8aW5maWxlLm1hZT4nLCAnLW9tYWUnLCAnPG91dGZpbGUubWFlPic=

>  <r_lp_tautomer_probability>  (302) 
1

>  <r_epik_Ionization_Penalty>  (302) 
1.18402e-15

>  <r_epik_Ionization_Penalty_Charging>  (302) 
0

>  <r_epik_Ionization_Penalty_Neutral>  (302) 
1.18402e-15

>  <r_epik_State_Penalty>  (302) 
-0

>  <r_epik_Charging_Adjusted_Penalty>  (302) 
0

>  <i_epik_Tot_Q>  (302) 
0

>  <i_epik_Tot_abs_Q>  (302) 
0

>  <s_lp_Force_Field>  (302) 
OPLS3e

>  <r_lp_Energy>  (302) 
10.2198

>  <b_lp_Chiralities_Consistent>  (302) 
1

>  <s_lp_Variant>  (302) 
93:0-1

>  <s_i_glide_gridfile>  (302) 
pfpi4k_grid

>  <i_i_glide_lignum>  (302) 
9

>  <i_i_glide_rotatable_bonds>  (302) 
0

>  <r_i_docking_score>  (302) 
-3.1173

>  <r_i_glide_ligand_efficiency>  (302) 
-0.173183

>  <r_i_glide_ligand_efficiency_sa>  (302) 
-0.453869

>  <r_i_glide_ligand_efficiency_ln>  (302) 
-0.801286

>  <r_i_glide_gscore>  (302) 
-3.1173

>  <r_i_glide_lipo>  (302) 
-0.333

>  <r_i_glide_hbond>  (302) 
0

>  <r_i_glide_metal>  (302) 
-0

>  <r_i_glide_rewards>  (302) 
-1.78647

>  <r_i_glide_evdw>  (302) 
-19.9679

>  <r_i_glide_ecoul>  (302) 
0.00374044

>  <r_i_glide_erotb>  (302) 
0

>  <r_i_glide_esite>  (302) 
0

>  <r_i_glide_emodel>  (302) 
-23.9485

>  <r_i_glide_energy>  (302) 
-19.9642

>  <r_i_glide_einternal>  (302) 
0

>  <r_i_glide_intrahb_reward>  (302) 
-0

>  <i_i_glide_confnum>  (302) 
1

>  <i_i_glide_posenum>  (302) 
27

>  <r_i_glide_eff_state_penalty>  (302) 
0

>  <ligand_id>  (302) 
93

>  <original_smiles>  (302) 
C1CCC2(C1)OOC1(O2)C2CC3CC(C2)CC1C3

>  <smiles>  (302) 
[H]C1([H])C([H])([H])C([H])([H])C2(OOC3(O2)C2([H])C([H])([H])C4([H])C([H])([H])C([H])(C2([H])[H])C([H])([H])C3([H])C4([H])[H])C1([H])[H]

$$$$
94:0:0
     RDKit          3D

 46 49  0  0  1  0  0  0  0  0999 V2000
    3.8305   -1.3233   -3.8075 C   0  0  0  0  0  0  0  0  0  0  0  0
    3.7069   -1.6828   -2.3112 C   0  0  2  0  0  0  0  0  0  0  0  0
    4.9749   -1.3035   -1.5236 C   0  0  2  0  0  0  0  0  0  0  0  0
    6.0914   -2.3675   -1.6297 C   0  0  0  0  0  0  0  0  0  0  0  0
    5.6065   -3.7692   -1.2362 C   0  0  0  0  0  0  0  0  0  0  0  0
    4.1074   -3.7970   -0.8845 C   0  0  2  0  0  0  0  0  0  0  0  0
    3.3581   -3.1732   -2.1019 C   0  0  1  0  0  0  0  0  0  0  0  0
    1.8503   -3.4548   -2.1869 C   0  0  0  0  0  0  0  0  0  0  0  0
    3.8020   -3.2489    0.5512 C   0  0  1  0  0  0  0  0  0  0  0  0
    2.4047   -3.0127    0.6947 O   0  0  0  0  0  0  0  0  0  0  0  0
    2.1066   -1.8685    1.6445 O   0  0  0  0  0  0  0  0  0  0  0  0
    3.1268   -1.6872    2.6179 C   0  0  1  0  0  0  0  0  0  0  0  0
    2.6602   -0.4413    3.3725 C   0  0  0  0  0  0  0  0  0  0  0  0
    3.3318   -2.8771    3.5703 C   0  0  0  0  0  0  0  0  0  0  0  0
    4.3488   -3.8991    3.0438 C   0  0  0  0  0  0  0  0  0  0  0  0
    4.0937   -4.3835    1.6074 C   0  0  1  0  0  0  0  0  0  0  0  0
    3.0173   -5.5001    1.6342 C   0  0  0  0  0  0  0  0  0  0  0  0
    4.3807   -1.3672    2.0509 O   0  0  0  0  0  0  0  0  0  0  0  0
    4.6715   -1.9616    0.8265 C   0  0  2  0  0  0  0  0  0  0  0  0
    4.5614   -1.0048   -0.1905 O   0  0  0  0  0  0  0  0  0  0  0  0
    4.6350   -1.8824   -4.2867 H   0  0  0  0  0  0  0  0  0  0  0  0
    4.0431   -0.2609   -3.9358 H   0  0  0  0  0  0  0  0  0  0  0  0
    2.9104   -1.5387   -4.3536 H   0  0  0  0  0  0  0  0  0  0  0  0
    2.8883   -1.0722   -1.9164 H   0  0  0  0  0  0  0  0  0  0  0  0
    5.3546   -0.3661   -1.9303 H   0  0  0  0  0  0  0  0  0  0  0  0
    6.4394   -2.4149   -2.6617 H   0  0  0  0  0  0  0  0  0  0  0  0
    6.9597   -2.0859   -1.0348 H   0  0  0  0  0  0  0  0  0  0  0  0
    5.7584   -4.4144   -2.0975 H   0  0  0  0  0  0  0  0  0  0  0  0
    6.2228   -4.1856   -0.4407 H   0  0  0  0  0  0  0  0  0  0  0  0
    3.8237   -4.8456   -0.8931 H   0  0  0  0  0  0  0  0  0  0  0  0
    3.7575   -3.7071   -2.9653 H   0  0  0  0  0  0  0  0  0  0  0  0
    1.2925   -2.8557   -1.4993 H   0  0  0  0  0  0  0  0  0  0  0  0
    1.5936   -4.4850   -1.9331 H   0  0  0  0  0  0  0  0  0  0  0  0
    1.4645   -3.2387   -3.1832 H   0  0  0  0  0  0  0  0  0  0  0  0
    2.4982    0.3796    2.6725 H   0  0  0  0  0  0  0  0  0  0  0  0
    3.3968   -0.1088    4.1063 H   0  0  0  0  0  0  0  0  0  0  0  0
    1.7151   -0.6202    3.8945 H   0  0  0  0  0  0  0  0  0  0  0  0
    3.7383   -2.4960    4.5123 H   0  0  0  0  0  0  0  0  0  0  0  0
    2.3780   -3.3416    3.8239 H   0  0  0  0  0  0  0  0  0  0  0  0
    5.3491   -3.4607    3.0888 H   0  0  0  0  0  0  0  0  0  0  0  0
    4.3957   -4.7448    3.7282 H   0  0  0  0  0  0  0  0  0  0  0  0
    5.0159   -4.8824    1.3105 H   0  0  0  0  0  0  0  0  0  0  0  0
    2.0589   -5.1320    2.0098 H   0  0  0  0  0  0  0  0  0  0  0  0
    3.3239   -6.3160    2.2919 H   0  0  0  0  0  0  0  0  0  0  0  0
    2.8376   -5.9436    0.6540 H   0  0  0  0  0  0  0  0  0  0  0  0
    5.7205   -2.2288    0.9140 H   0  0  0  0  0  0  0  0  0  0  0  0
  1  2  1  0
  1 21  1  0
  1 22  1  0
  1 23  1  0
  2  7  1  0
  2  3  1  0
  2 24  1  1
  3 20  1  0
  3  4  1  0
  3 25  1  6
  4  5  1  0
  4 26  1  0
  4 27  1  0
  5  6  1  0
  5 28  1  0
  5 29  1  0
  6  7  1  0
  6  9  1  0
  6 30  1  1
  7  8  1  0
  7 31  1  6
  8 32  1  0
  8 33  1  0
  8 34  1  0
  9 16  1  0
  9 19  1  0
  9 10  1  6
 10 11  1  0
 11 12  1  0
 12 13  1  1
 12 14  1  0
 12 18  1  0
 13 35  1  0
 13 36  1  0
 13 37  1  0
 14 15  1  0
 14 38  1  0
 14 39  1  0
 15 16  1  0
 15 40  1  0
 15 41  1  0
 16 17  1  0
 16 42  1  6
 17 43  1  0
 17 44  1  0
 17 45  1  0
 18 19  1  0
 19 20  1  0
 19 46  1  1
M  END
>  <i_m_ct_stereo_status>  (303) 
1

>  <s_m_source_file>  (303) 
/var/tmp/pbs.5076255.sched01/tmpalt_vnqi/12934k3la1h.sdf

>  <i_m_source_file_index>  (303) 
10

>  <i_lp_mmshare_version>  (303) 
48012

>  <i_f3d_flags>  (303) 
0

>  <s_epik_input>  (303) 
W0NAXTEyM1tDQEBIXTRbQ0gyXVtDSDJdW0NAQEhdKFtDQEBIXShbQ0gzXSlbQ0BASF00W0NIM10pT1tDQEhdM09bQ0BdKE9PMSkoW0NIM10pW0NIMl1bQ0gyXVtDQEhdMltDSDNd

>  <s_epik_cmdline>  (303) 
J2VwaWtfcHl0aG9uJywgJy1waHQnLCAnMi4wJywgJy1waCcsICc3LjAnLCAnLXRuJywgJzgnLCAnLW1hJywgJzIwMCcsICctaW1hZScsICc8aW5maWxlLm1hZT4nLCAnLW9tYWUnLCAnPG91dGZpbGUubWFlPic=

>  <r_lp_tautomer_probability>  (303) 
1

>  <r_epik_Ionization_Penalty>  (303) 
5.94643e-14

>  <r_epik_Ionization_Penalty_Charging>  (303) 
0

>  <r_epik_Ionization_Penalty_Neutral>  (303) 
5.94643e-14

>  <r_epik_State_Penalty>  (303) 
-0

>  <r_epik_Charging_Adjusted_Penalty>  (303) 
0

>  <i_epik_Tot_Q>  (303) 
0

>  <i_epik_Tot_abs_Q>  (303) 
0

>  <s_epik_Chemistry_Notes>  (303) 
This compound contains an acetal/aminal-like group ( X-CH(R)-Y where X, Y are N, S, or O) that may be acid/base labile, releasing an aldehyde.

>  <s_lp_Force_Field>  (303) 
OPLS3e

>  <r_lp_Energy>  (303) 
46.2226

>  <b_lp_Chiralities_Consistent>  (303) 
1

>  <s_lp_Variant>  (303) 
94:0-1

>  <s_i_glide_gridfile>  (303) 
pfpi4k_grid

>  <i_i_glide_lignum>  (303) 
10

>  <i_i_glide_rotatable_bonds>  (303) 
0

>  <r_i_docking_score>  (303) 
-2.59231

>  <r_i_glide_ligand_efficiency>  (303) 
-0.129615

>  <r_i_glide_ligand_efficiency_sa>  (303) 
-0.35183

>  <r_i_glide_ligand_efficiency_ln>  (303) 
-0.648769

>  <r_i_glide_gscore>  (303) 
-2.59231

>  <r_i_glide_lipo>  (303) 
-0.338378

>  <r_i_glide_hbond>  (303) 
0

>  <r_i_glide_metal>  (303) 
-0

>  <r_i_glide_rewards>  (303) 
-1.50104

>  <r_i_glide_evdw>  (303) 
-19.8487

>  <r_i_glide_ecoul>  (303) 
1.61011

>  <r_i_glide_erotb>  (303) 
0

>  <r_i_glide_esite>  (303) 
-0.00196848

>  <r_i_glide_emodel>  (303) 
-20.5738

>  <r_i_glide_energy>  (303) 
-18.2386

>  <r_i_glide_einternal>  (303) 
0

>  <r_i_glide_intrahb_reward>  (303) 
-0

>  <i_i_glide_confnum>  (303) 
2

>  <i_i_glide_posenum>  (303) 
26

>  <r_i_glide_eff_state_penalty>  (303) 
0

>  <ligand_id>  (303) 
94

>  <original_smiles>  (303) 
CC1C2CCC(C1C)C13OOC(C)(CCC1C)OC3O2

>  <smiles>  (303) 
[H]C([H])([H])C12OOC3(C([H])(OC4([H])C([H])([H])C([H])([H])C3([H])C([H])(C([H])([H])[H])C4([H])C([H])([H])[H])O1)C([H])(C([H])([H])[H])C([H])([H])C2([H])[H]

$$$$
94:0:1
     RDKit          3D

 46 49  0  0  1  0  0  0  0  0999 V2000
    4.4632   -1.0289   -2.1615 C   0  0  0  0  0  0  0  0  0  0  0  0
    4.1785   -1.7384   -0.8212 C   0  0  2  0  0  0  0  0  0  0  0  0
    4.3505   -0.7984    0.3874 C   0  0  2  0  0  0  0  0  0  0  0  0
    5.8155   -0.6570    0.8231 C   0  0  0  0  0  0  0  0  0  0  0  0
    6.5019   -2.0088    1.0680 C   0  0  0  0  0  0  0  0  0  0  0  0
    5.5638   -3.2012    0.7807 C   0  0  2  0  0  0  0  0  0  0  0  0
    5.0539   -2.9986   -0.6627 C   0  0  1  0  0  0  0  0  0  0  0  0
    4.4337   -4.2317   -1.2916 C   0  0  0  0  0  0  0  0  0  0  0  0
    4.5114   -3.4515    1.9327 C   0  0  1  0  0  0  0  0  0  0  0  0
    3.4870   -4.3283    1.4710 O   0  0  0  0  0  0  0  0  0  0  0  0
    2.1567   -4.0364    2.1394 O   0  0  0  0  0  0  0  0  0  0  0  0
    2.3059   -3.4648    3.4337 C   0  0  1  0  0  0  0  0  0  0  0  0
    0.8739   -3.1846    3.8711 C   0  0  0  0  0  0  0  0  0  0  0  0
    3.0096   -4.3519    4.4665 C   0  0  0  0  0  0  0  0  0  0  0  0
    4.5327   -4.1433    4.4739 C   0  0  0  0  0  0  0  0  0  0  0  0
    5.1950   -4.2646    3.0912 C   0  0  1  0  0  0  0  0  0  0  0  0
    5.4162   -5.7533    2.7656 C   0  0  0  0  0  0  0  0  0  0  0  0
    2.9612   -2.2311    3.4141 O   0  0  0  0  0  0  0  0  0  0  0  0
    3.9470   -2.0724    2.4422 C   0  0  2  0  0  0  0  0  0  0  0  0
    3.4604   -1.2675    1.4089 O   0  0  0  0  0  0  0  0  0  0  0  0
    5.4895   -0.6694   -2.2110 H   0  0  0  0  0  0  0  0  0  0  0  0
    3.8157   -0.1661   -2.3089 H   0  0  0  0  0  0  0  0  0  0  0  0
    4.2905   -1.6855   -3.0142 H   0  0  0  0  0  0  0  0  0  0  0  0
    3.1243   -2.0301   -0.8344 H   0  0  0  0  0  0  0  0  0  0  0  0
    4.0014    0.1922    0.1041 H   0  0  0  0  0  0  0  0  0  0  0  0
    6.3743   -0.1269    0.0491 H   0  0  0  0  0  0  0  0  0  0  0  0
    5.8906   -0.0325    1.7173 H   0  0  0  0  0  0  0  0  0  0  0  0
    7.3887   -2.0929    0.4359 H   0  0  0  0  0  0  0  0  0  0  0  0
    6.8658   -2.0457    2.0874 H   0  0  0  0  0  0  0  0  0  0  0  0
    6.2013   -4.0841    0.7414 H   0  0  0  0  0  0  0  0  0  0  0  0
    5.9598   -2.8268   -1.2364 H   0  0  0  0  0  0  0  0  0  0  0  0
    3.4112   -4.3887   -0.9474 H   0  0  0  0  0  0  0  0  0  0  0  0
    5.0100   -5.1361   -1.0920 H   0  0  0  0  0  0  0  0  0  0  0  0
    4.3831   -4.1049   -2.3715 H   0  0  0  0  0  0  0  0  0  0  0  0
    0.3857   -2.5752    3.1131 H   0  0  0  0  0  0  0  0  0  0  0  0
    0.8230   -2.6418    4.8162 H   0  0  0  0  0  0  0  0  0  0  0  0
    0.3034   -4.1136    3.9766 H   0  0  0  0  0  0  0  0  0  0  0  0
    2.6590   -4.0655    5.4677 H   0  0  0  0  0  0  0  0  0  0  0  0
    2.7365   -5.4041    4.3457 H   0  0  0  0  0  0  0  0  0  0  0  0
    4.7548   -3.1545    4.8905 H   0  0  0  0  0  0  0  0  0  0  0  0
    4.9878   -4.8386    5.1783 H   0  0  0  0  0  0  0  0  0  0  0  0
    6.1854   -3.8458    3.2130 H   0  0  0  0  0  0  0  0  0  0  0  0
    4.4742   -6.2976    2.6891 H   0  0  0  0  0  0  0  0  0  0  0  0
    6.0014   -6.2255    3.5502 H   0  0  0  0  0  0  0  0  0  0  0  0
    5.9615   -5.9012    1.8364 H   0  0  0  0  0  0  0  0  0  0  0  0
    4.7221   -1.5129    2.9508 H   0  0  0  0  0  0  0  0  0  0  0  0
  1  2  1  0
  1 21  1  0
  1 22  1  0
  1 23  1  0
  2  7  1  0
  2  3  1  0
  2 24  1  6
  3 20  1  0
  3  4  1  0
  3 25  1  6
  4  5  1  0
  4 26  1  0
  4 27  1  0
  5  6  1  0
  5 28  1  0
  5 29  1  0
  6  7  1  0
  6  9  1  0
  6 30  1  6
  7  8  1  0
  7 31  1  6
  8 32  1  0
  8 33  1  0
  8 34  1  0
  9 16  1  0
  9 19  1  0
  9 10  1  6
 10 11  1  0
 11 12  1  0
 12 13  1  1
 12 14  1  0
 12 18  1  0
 13 35  1  0
 13 36  1  0
 13 37  1  0
 14 15  1  0
 14 38  1  0
 14 39  1  0
 15 16  1  0
 15 40  1  0
 15 41  1  0
 16 17  1  0
 16 42  1  1
 17 43  1  0
 17 44  1  0
 17 45  1  0
 18 19  1  0
 19 20  1  0
 19 46  1  1
M  END
>  <i_m_ct_stereo_status>  (304) 
1

>  <s_m_source_file>  (304) 
/var/tmp/pbs.5076255.sched01/tmpalt_vnqi/12934k3la1h.sdf

>  <i_m_source_file_index>  (304) 
10

>  <i_lp_mmshare_version>  (304) 
48012

>  <i_f3d_flags>  (304) 
0

>  <s_epik_input>  (304) 
W0NAXTEyM1tDQEBIXTRbQ0gyXVtDSDJdW0NAQEhdKFtDQEBIXShbQ0gzXSlbQ0BASF00W0NIM10pT1tDQEhdM09bQ0BdKE9PMSkoW0NIM10pW0NIMl1bQ0gyXVtDQEhdMltDSDNd

>  <s_epik_cmdline>  (304) 
J2VwaWtfcHl0aG9uJywgJy1waHQnLCAnMi4wJywgJy1waCcsICc3LjAnLCAnLXRuJywgJzgnLCAnLW1hJywgJzIwMCcsICctaW1hZScsICc8aW5maWxlLm1hZT4nLCAnLW9tYWUnLCAnPG91dGZpbGUubWFlPic=

>  <r_lp_tautomer_probability>  (304) 
1

>  <r_epik_Ionization_Penalty>  (304) 
5.94643e-14

>  <r_epik_Ionization_Penalty_Charging>  (304) 
0

>  <r_epik_Ionization_Penalty_Neutral>  (304) 
5.94643e-14

>  <r_epik_State_Penalty>  (304) 
-0

>  <r_epik_Charging_Adjusted_Penalty>  (304) 
0

>  <i_epik_Tot_Q>  (304) 
0

>  <i_epik_Tot_abs_Q>  (304) 
0

>  <s_epik_Chemistry_Notes>  (304) 
This compound contains an acetal/aminal-like group ( X-CH(R)-Y where X, Y are N, S, or O) that may be acid/base labile, releasing an aldehyde.

>  <s_lp_Force_Field>  (304) 
OPLS3e

>  <r_lp_Energy>  (304) 
46.2226

>  <b_lp_Chiralities_Consistent>  (304) 
1

>  <s_lp_Variant>  (304) 
94:0-1

>  <s_i_glide_gridfile>  (304) 
pfpi4k_grid

>  <i_i_glide_lignum>  (304) 
10

>  <i_i_glide_rotatable_bonds>  (304) 
0

>  <r_i_docking_score>  (304) 
-2.52966

>  <r_i_glide_ligand_efficiency>  (304) 
-0.126483

>  <r_i_glide_ligand_efficiency_sa>  (304) 
-0.343328

>  <r_i_glide_ligand_efficiency_ln>  (304) 
-0.633091

>  <r_i_glide_gscore>  (304) 
-2.52966

>  <r_i_glide_lipo>  (304) 
-0.410123

>  <r_i_glide_hbond>  (304) 
0

>  <r_i_glide_metal>  (304) 
-0

>  <r_i_glide_rewards>  (304) 
-1.48771

>  <r_i_glide_evdw>  (304) 
-15.6443

>  <r_i_glide_ecoul>  (304) 
1.00259

>  <r_i_glide_erotb>  (304) 
0

>  <r_i_glide_esite>  (304) 
0

>  <r_i_glide_emodel>  (304) 
-16.948

>  <r_i_glide_energy>  (304) 
-14.6417

>  <r_i_glide_einternal>  (304) 
0

>  <r_i_glide_intrahb_reward>  (304) 
-0

>  <i_i_glide_confnum>  (304) 
2

>  <i_i_glide_posenum>  (304) 
6

>  <r_i_glide_eff_state_penalty>  (304) 
0

>  <ligand_id>  (304) 
94

>  <original_smiles>  (304) 
CC1C2CCC(C1C)C13OOC(C)(CCC1C)OC3O2

>  <smiles>  (304) 
[H]C([H])([H])C12OOC3(C([H])(OC4([H])C([H])([H])C([H])([H])C3([H])C([H])(C([H])([H])[H])C4([H])C([H])([H])[H])O1)C([H])(C([H])([H])[H])C([H])([H])C2([H])[H]

$$$$
94:0:2
     RDKit          3D

 46 49  0  0  1  0  0  0  0  0999 V2000
    4.1288   -1.5401   -2.8498 C   0  0  0  0  0  0  0  0  0  0  0  0
    3.9409   -1.7952   -1.3395 C   0  0  2  0  0  0  0  0  0  0  0  0
    5.1224   -1.2359   -0.5253 C   0  0  2  0  0  0  0  0  0  0  0  0
    6.3368   -2.1944   -0.4916 C   0  0  0  0  0  0  0  0  0  0  0  0
    5.9626   -3.6081   -0.0047 C   0  0  0  0  0  0  0  0  0  0  0  0
    4.4476   -3.7490    0.2684 C   0  0  2  0  0  0  0  0  0  0  0  0
    3.7095   -3.2906   -1.0235 C   0  0  1  0  0  0  0  0  0  0  0  0
    2.2328   -3.7025   -1.1316 C   0  0  0  0  0  0  0  0  0  0  0  0
    4.0081   -3.1117    1.6431 C   0  0  1  0  0  0  0  0  0  0  0  0
    2.5886   -2.9915    1.6876 O   0  0  0  0  0  0  0  0  0  0  0  0
    2.1413   -1.7991    2.5188 O   0  0  0  0  0  0  0  0  0  0  0  0
    3.0831   -1.4578    3.5257 C   0  0  1  0  0  0  0  0  0  0  0  0
    2.4710   -0.2060    4.1627 C   0  0  0  0  0  0  0  0  0  0  0  0
    3.3378   -2.5423    4.5893 C   0  0  0  0  0  0  0  0  0  0  0  0
    4.4743   -3.5014    4.2028 C   0  0  0  0  0  0  0  0  0  0  0  0
    4.3443   -4.1229    2.8028 C   0  0  1  0  0  0  0  0  0  0  0  0
    3.3707   -5.3259    2.8741 C   0  0  0  0  0  0  0  0  0  0  0  0
    4.3338   -1.0716    3.0049 O   0  0  0  0  0  0  0  0  0  0  0  0
    4.7459   -1.7276    1.8491 C   0  0  2  0  0  0  0  0  0  0  0  0
    4.6069   -0.8717    0.7530 O   0  0  0  0  0  0  0  0  0  0  0  0
    5.0101   -2.0512   -3.2413 H   0  0  0  0  0  0  0  0  0  0  0  0
    4.2477   -0.4743   -3.0522 H   0  0  0  0  0  0  0  0  0  0  0  0
    3.2658   -1.8839   -3.4232 H   0  0  0  0  0  0  0  0  0  0  0  0
    3.0520   -1.2305   -1.0400 H   0  0  0  0  0  0  0  0  0  0  0  0
    5.4381   -0.3002   -0.9888 H   0  0  0  0  0  0  0  0  0  0  0  0
    6.7462   -2.2780   -1.4993 H   0  0  0  0  0  0  0  0  0  0  0  0
    7.1404   -1.7774    0.1172 H   0  0  0  0  0  0  0  0  0  0  0  0
    6.2353   -4.3173   -0.7834 H   0  0  0  0  0  0  0  0  0  0  0  0
    6.5610   -3.8851    0.8607 H   0  0  0  0  0  0  0  0  0  0  0  0
    4.2541   -4.8201    0.3254 H   0  0  0  0  0  0  0  0  0  0  0  0
    4.1922   -3.8567   -1.8233 H   0  0  0  0  0  0  0  0  0  0  0  0
    1.5825   -3.0611   -0.5395 H   0  0  0  0  0  0  0  0  0  0  0  0
    2.0726   -4.7268   -0.7998 H   0  0  0  0  0  0  0  0  0  0  0  0
    1.8887   -3.6319   -2.1661 H   0  0  0  0  0  0  0  0  0  0  0  0
    2.2753    0.5421    3.3907 H   0  0  0  0  0  0  0  0  0  0  0  0
    3.1377    0.2442    4.8992 H   0  0  0  0  0  0  0  0  0  0  0  0
    1.5202   -0.4313    4.6551 H   0  0  0  0  0  0  0  0  0  0  0  0
    3.6561   -2.0541    5.5152 H   0  0  0  0  0  0  0  0  0  0  0  0
    2.4200   -3.0778    4.8399 H   0  0  0  0  0  0  0  0  0  0  0  0
    5.4237   -2.9666    4.2625 H   0  0  0  0  0  0  0  0  0  0  0  0
    4.5597   -4.2833    4.9569 H   0  0  0  0  0  0  0  0  0  0  0  0
    5.3238   -4.5491    2.5933 H   0  0  0  0  0  0  0  0  0  0  0  0
    2.3647   -5.0173    3.1646 H   0  0  0  0  0  0  0  0  0  0  0  0
    3.7101   -6.0491    3.6159 H   0  0  0  0  0  0  0  0  0  0  0  0
    3.2879   -5.8616    1.9291 H   0  0  0  0  0  0  0  0  0  0  0  0
    5.8104   -1.8918    2.0075 H   0  0  0  0  0  0  0  0  0  0  0  0
  1  2  1  0
  1 21  1  0
  1 22  1  0
  1 23  1  0
  2  7  1  0
  2  3  1  0
  2 24  1  1
  3 20  1  0
  3  4  1  0
  3 25  1  6
  4  5  1  0
  4 26  1  0
  4 27  1  0
  5  6  1  0
  5 28  1  0
  5 29  1  0
  6  7  1  0
  6  9  1  0
  6 30  1  1
  7  8  1  0
  7 31  1  6
  8 32  1  0
  8 33  1  0
  8 34  1  0
  9 16  1  0
  9 19  1  0
  9 10  1  6
 10 11  1  0
 11 12  1  0
 12 13  1  1
 12 14  1  0
 12 18  1  0
 13 35  1  0
 13 36  1  0
 13 37  1  0
 14 15  1  0
 14 38  1  0
 14 39  1  0
 15 16  1  0
 15 40  1  0
 15 41  1  0
 16 17  1  0
 16 42  1  6
 17 43  1  0
 17 44  1  0
 17 45  1  0
 18 19  1  0
 19 20  1  0
 19 46  1  1
M  END
>  <i_m_ct_stereo_status>  (305) 
1

>  <s_m_source_file>  (305) 
/var/tmp/pbs.5076255.sched01/tmpalt_vnqi/12934k3la1h.sdf

>  <i_m_source_file_index>  (305) 
10

>  <i_lp_mmshare_version>  (305) 
48012

>  <i_f3d_flags>  (305) 
0

>  <s_epik_input>  (305) 
W0NAXTEyM1tDQEBIXTRbQ0gyXVtDSDJdW0NAQEhdKFtDQEBIXShbQ0gzXSlbQ0BASF00W0NIM10pT1tDQEhdM09bQ0BdKE9PMSkoW0NIM10pW0NIMl1bQ0gyXVtDQEhdMltDSDNd

>  <s_epik_cmdline>  (305) 
J2VwaWtfcHl0aG9uJywgJy1waHQnLCAnMi4wJywgJy1waCcsICc3LjAnLCAnLXRuJywgJzgnLCAnLW1hJywgJzIwMCcsICctaW1hZScsICc8aW5maWxlLm1hZT4nLCAnLW9tYWUnLCAnPG91dGZpbGUubWFlPic=

>  <r_lp_tautomer_probability>  (305) 
1

>  <r_epik_Ionization_Penalty>  (305) 
5.94643e-14

>  <r_epik_Ionization_Penalty_Charging>  (305) 
0

>  <r_epik_Ionization_Penalty_Neutral>  (305) 
5.94643e-14

>  <r_epik_State_Penalty>  (305) 
-0

>  <r_epik_Charging_Adjusted_Penalty>  (305) 
0

>  <i_epik_Tot_Q>  (305) 
0

>  <i_epik_Tot_abs_Q>  (305) 
0

>  <s_epik_Chemistry_Notes>  (305) 
This compound contains an acetal/aminal-like group ( X-CH(R)-Y where X, Y are N, S, or O) that may be acid/base labile, releasing an aldehyde.

>  <s_lp_Force_Field>  (305) 
OPLS3e

>  <r_lp_Energy>  (305) 
46.2226

>  <b_lp_Chiralities_Consistent>  (305) 
1

>  <s_lp_Variant>  (305) 
94:0-1

>  <s_i_glide_gridfile>  (305) 
pfpi4k_grid

>  <i_i_glide_lignum>  (305) 
10

>  <i_i_glide_rotatable_bonds>  (305) 
0

>  <r_i_docking_score>  (305) 
-2.4684

>  <r_i_glide_ligand_efficiency>  (305) 
-0.12342

>  <r_i_glide_ligand_efficiency_sa>  (305) 
-0.335013

>  <r_i_glide_ligand_efficiency_ln>  (305) 
-0.617759

>  <r_i_glide_gscore>  (305) 
-2.4684

>  <r_i_glide_lipo>  (305) 
-0.150753

>  <r_i_glide_hbond>  (305) 
0

>  <r_i_glide_metal>  (305) 
-0

>  <r_i_glide_rewards>  (305) 
-1.54823

>  <r_i_glide_evdw>  (305) 
-20.4629

>  <r_i_glide_ecoul>  (305) 
1.69156

>  <r_i_glide_erotb>  (305) 
0

>  <r_i_glide_esite>  (305) 
0

>  <r_i_glide_emodel>  (305) 
-20.8452

>  <r_i_glide_energy>  (305) 
-18.7714

>  <r_i_glide_einternal>  (305) 
0

>  <r_i_glide_intrahb_reward>  (305) 
-0

>  <i_i_glide_confnum>  (305) 
1

>  <i_i_glide_posenum>  (305) 
15

>  <r_i_glide_eff_state_penalty>  (305) 
0

>  <ligand_id>  (305) 
94

>  <original_smiles>  (305) 
CC1C2CCC(C1C)C13OOC(C)(CCC1C)OC3O2

>  <smiles>  (305) 
[H]C([H])([H])C12OOC3(C([H])(OC4([H])C([H])([H])C([H])([H])C3([H])C([H])(C([H])([H])[H])C4([H])C([H])([H])[H])O1)C([H])(C([H])([H])[H])C([H])([H])C2([H])[H]

$$$$
95:0:0
     RDKit          3D

 44 47  0  0  1  0  0  0  0  0999 V2000
    2.1897   -5.1102    3.9739 C   0  0  0  0  0  0  0  0  0  0  0  0
    3.1355   -4.5673    2.9234 C   0  0  0  0  0  0  0  0  0  0  0  0
    3.2044   -3.4872    2.2719 N   0  0  0  0  0  0  0  0  0  0  0  0
    4.4363   -4.0525    1.6209 C   0  0  2  0  0  0  0  0  0  0  0  0
    5.7926   -3.4025    2.0121 C   0  0  0  0  0  0  0  0  0  0  0  0
    5.9289   -1.8701    1.8431 C   0  0  0  0  0  0  0  0  0  0  0  0
    6.2542   -1.1714    0.4821 C   0  0  0  0  0  0  0  0  0  0  0  0
    5.5817   -1.5263   -0.8833 C   0  0  1  0  0  0  0  0  0  0  0  0
    6.2546   -2.6704   -1.7035 C   0  0  1  0  0  0  0  0  0  0  0  0
    7.3966   -3.1811   -1.0648 O   0  0  0  0  0  0  0  0  0  0  0  0
    5.1869   -3.6519   -1.9421 N   0  0  0  0  0  0  0  0  0  0  0  0
    4.5557   -3.5295   -3.2574 C   0  0  0  0  0  0  0  0  0  0  0  0
    4.0203   -2.1029   -3.4650 C   0  0  0  0  0  0  0  0  0  0  0  0
    3.3646   -1.5946   -2.1712 C   0  0  0  0  0  0  0  0  0  0  0  0
    4.1104   -1.9649   -0.8379 C   0  0  2  0  0  0  0  0  0  0  0  0
    3.2353   -1.3475    0.2748 C   0  0  0  0  0  0  0  0  0  0  0  0
    4.3580   -3.4777   -0.8585 C   0  0  0  0  0  0  0  0  0  0  0  0
    4.3871   -4.3915    0.1402 C   0  0  0  0  0  0  0  0  0  0  0  0
    4.8198   -5.8277   -0.1358 C   0  0  0  0  0  0  0  0  0  0  0  0
    4.2331   -5.2439    2.4255 O   0  0  0  0  0  0  0  0  0  0  0  0
    1.3082   -4.4845    4.0162 H   0  0  0  0  0  0  0  0  0  0  0  0
    2.6570   -5.1055    4.9563 H   0  0  0  0  0  0  0  0  0  0  0  0
    1.8795   -6.1272    3.7381 H   0  0  0  0  0  0  0  0  0  0  0  0
    5.9706   -3.6196    3.0659 H   0  0  0  0  0  0  0  0  0  0  0  0
    6.6194   -3.8954    1.5002 H   0  0  0  0  0  0  0  0  0  0  0  0
    5.1666   -1.3573    2.4235 H   0  0  0  0  0  0  0  0  0  0  0  0
    6.7732   -1.5660    2.4369 H   0  0  0  0  0  0  0  0  0  0  0  0
    6.0390   -0.1178    0.6582 H   0  0  0  0  0  0  0  0  0  0  0  0
    7.3356   -1.1695    0.3501 H   0  0  0  0  0  0  0  0  0  0  0  0
    5.6329   -0.6174   -1.4850 H   0  0  0  0  0  0  0  0  0  0  0  0
    6.6065   -2.2942   -2.6615 H   0  0  0  0  0  0  0  0  0  0  0  0
    8.0684   -3.3447   -1.7162 H   0  0  0  0  0  0  0  0  0  0  0  0
    5.2346   -3.8068   -4.0515 H   0  0  0  0  0  0  0  0  0  0  0  0
    3.7236   -4.2220   -3.3224 H   0  0  0  0  0  0  0  0  0  0  0  0
    4.8243   -1.4236   -3.7613 H   0  0  0  0  0  0  0  0  0  0  0  0
    3.2965   -2.0850   -4.2898 H   0  0  0  0  0  0  0  0  0  0  0  0
    3.2059   -0.5235   -2.2825 H   0  0  0  0  0  0  0  0  0  0  0  0
    2.3651   -2.0291   -2.1453 H   0  0  0  0  0  0  0  0  0  0  0  0
    3.0058   -0.3097    0.0670 H   0  0  0  0  0  0  0  0  0  0  0  0
    3.6089   -1.3103    1.2730 H   0  0  0  0  0  0  0  0  0  0  0  0
    2.2960   -1.8848    0.3489 H   0  0  0  0  0  0  0  0  0  0  0  0
    5.7473   -6.0678    0.3847 H   0  0  0  0  0  0  0  0  0  0  0  0
    4.9848   -5.9954   -1.1948 H   0  0  0  0  0  0  0  0  0  0  0  0
    4.0449   -6.5291    0.1716 H   0  0  0  0  0  0  0  0  0  0  0  0
  1  2  1  0
  1 21  1  0
  1 22  1  0
  1 23  1  0
  2 20  1  0
  2  3  2  0
  3  4  1  0
  4 18  1  0
  4  5  1  0
  4 20  1  1
  5  6  1  0
  5 24  1  0
  5 25  1  0
  6  7  1  0
  6 26  1  0
  6 27  1  0
  7  8  1  0
  7 28  1  0
  7 29  1  0
  8 15  1  0
  8  9  1  0
  8 30  1  6
  9 10  1  0
  9 11  1  0
  9 31  1  6
 10 32  1  0
 11 17  1  0
 11 12  1  0
 12 13  1  0
 12 33  1  0
 12 34  1  0
 13 14  1  0
 13 35  1  0
 13 36  1  0
 14 15  1  0
 14 37  1  0
 14 38  1  0
 15 16  1  1
 15 17  1  0
 16 39  1  0
 16 40  1  0
 16 41  1  0
 17 18  2  3
 18 19  1  0
 19 42  1  0
 19 43  1  0
 19 44  1  0
M  END
>  <i_m_ct_stereo_status>  (306) 
1

>  <s_m_source_file>  (306) 
/var/tmp/pbs.5076255.sched01/tmpalt_vnqi/12934k3la1h.sdf

>  <i_m_source_file_index>  (306) 
11

>  <i_lp_mmshare_version>  (306) 
48012

>  <i_f3d_flags>  (306) 
0

>  <s_epik_input>  (306) 
W0NIM11DKE8xKT1OW0NAQF0xMltDSDJdW0NIMl1bQ0gyXVtDQEBIXTNbQ0BdNChbQ0gzXSlDKD1DLzJbQ0gzXSlcTihbQ0BASF0zW09IXSlbQ0gyXVtDSDJdW0NIMl00

>  <s_epik_cmdline>  (306) 
J2VwaWtfcHl0aG9uJywgJy1waHQnLCAnMi4wJywgJy1waCcsICc3LjAnLCAnLXRuJywgJzgnLCAnLW1hJywgJzIwMCcsICctaW1hZScsICc8aW5maWxlLm1hZT4nLCAnLW9tYWUnLCAnPG91dGZpbGUubWFlPic=

>  <r_lp_tautomer_probability>  (306) 
1

>  <r_epik_Ionization_Penalty>  (306) 
0.000158344

>  <r_epik_Ionization_Penalty_Charging>  (306) 
1.30422e-11

>  <r_epik_Ionization_Penalty_Neutral>  (306) 
0.000158344

>  <r_epik_State_Penalty>  (306) 
-0

>  <r_epik_Charging_Adjusted_Penalty>  (306) 
1.30422e-11

>  <i_epik_Tot_Q>  (306) 
0

>  <i_epik_Tot_abs_Q>  (306) 
0

>  <s_epik_Chemistry_Notes>  (306) 
This compound has an imine and may undergo hydrolysis. This compound contains an acetal/aminal-like group ( X-CH(R)-Y where X, Y are N, S, or O) that may be acid/base labile, releasing an aldehyde.

>  <s_lp_Force_Field>  (306) 
OPLS3e

>  <r_lp_Energy>  (306) 
73.2684

>  <b_lp_Chiralities_Consistent>  (306) 
1

>  <s_lp_Variant>  (306) 
95:0-1

>  <s_i_glide_gridfile>  (306) 
pfpi4k_grid

>  <i_i_glide_lignum>  (306) 
11

>  <i_i_glide_rotatable_bonds>  (306) 
1

>  <r_i_docking_score>  (306) 
-3.27261

>  <r_i_glide_ligand_efficiency>  (306) 
-0.16363

>  <r_i_glide_ligand_efficiency_sa>  (306) 
-0.444161

>  <r_i_glide_ligand_efficiency_ln>  (306) 
-0.819025

>  <r_i_glide_gscore>  (306) 
-3.27261

>  <r_i_glide_lipo>  (306) 
-0.567561

>  <r_i_glide_hbond>  (306) 
0

>  <r_i_glide_metal>  (306) 
-0

>  <r_i_glide_rewards>  (306) 
-1.63038

>  <r_i_glide_evdw>  (306) 
-21.1142

>  <r_i_glide_ecoul>  (306) 
-0.0100027

>  <r_i_glide_erotb>  (306) 
0

>  <r_i_glide_esite>  (306) 
-0.0174541

>  <r_i_glide_emodel>  (306) 
-25.2782

>  <r_i_glide_energy>  (306) 
-21.1242

>  <r_i_glide_einternal>  (306) 
0.281762

>  <r_i_glide_intrahb_reward>  (306) 
-0

>  <i_i_glide_confnum>  (306) 
1

>  <i_i_glide_posenum>  (306) 
28

>  <r_i_glide_eff_state_penalty>  (306) 
0

>  <ligand_id>  (306) 
95

>  <original_smiles>  (306) 
CC1=NC2(CCCC3C(O)N4CCCC3(C)C4=C2C)O1

>  <smiles>  (306) 
[H]OC1([H])N2C3=C(C([H])([H])[H])C4(N=C(C([H])([H])[H])O4)C([H])([H])C([H])([H])C([H])([H])C1([H])C3(C([H])([H])[H])C([H])([H])C([H])([H])C2([H])[H]

$$$$
95:0:1
     RDKit          3D

 44 47  0  0  1  0  0  0  0  0999 V2000
   -3.6873    3.6062    2.4870 C   0  0  0  0  0  0  0  0  0  0  0  0
   -2.4352    3.1318    3.1956 C   0  0  0  0  0  0  0  0  0  0  0  0
   -1.4163    2.4894    2.8422 N   0  0  0  0  0  0  0  0  0  0  0  0
   -0.9231    2.6355    4.2573 C   0  0  2  0  0  0  0  0  0  0  0  0
    0.2792    3.5978    4.4851 C   0  0  0  0  0  0  0  0  0  0  0  0
    1.5771    3.4019    3.6581 C   0  0  0  0  0  0  0  0  0  0  0  0
    2.6533    2.3055    3.9724 C   0  0  0  0  0  0  0  0  0  0  0  0
    2.3415    0.8207    4.3618 C   0  0  1  0  0  0  0  0  0  0  0  0
    2.1004    0.5498    5.8907 C   0  0  1  0  0  0  0  0  0  0  0  0
    2.1891    1.6987    6.7088 O   0  0  0  0  0  0  0  0  0  0  0  0
    0.8039   -0.1229    5.9566 N   0  0  0  0  0  0  0  0  0  0  0  0
    0.8676   -1.5762    6.0528 C   0  0  0  0  0  0  0  0  0  0  0  0
    1.6749   -2.1450    4.8816 C   0  0  0  0  0  0  0  0  0  0  0  0
    1.3052   -1.4162    3.5763 C   0  0  0  0  0  0  0  0  0  0  0  0
    1.1130    0.1436    3.7079 C   0  0  2  0  0  0  0  0  0  0  0  0
    0.7548    0.5522    2.2609 C   0  0  0  0  0  0  0  0  0  0  0  0
    0.1439    0.3982    4.8625 C   0  0  0  0  0  0  0  0  0  0  0  0
   -0.7956    1.3545    5.0767 C   0  0  0  0  0  0  0  0  0  0  0  0
   -1.5182    1.4569    6.4182 C   0  0  0  0  0  0  0  0  0  0  0  0
   -2.1493    3.3321    4.5361 O   0  0  0  0  0  0  0  0  0  0  0  0
   -3.7826    3.1259    1.5133 H   0  0  0  0  0  0  0  0  0  0  0  0
   -3.6880    4.6860    2.3478 H   0  0  0  0  0  0  0  0  0  0  0  0
   -4.5644    3.3425    3.0661 H   0  0  0  0  0  0  0  0  0  0  0  0
   -0.0518    4.6190    4.2806 H   0  0  0  0  0  0  0  0  0  0  0  0
    0.5458    3.6134    5.5410 H   0  0  0  0  0  0  0  0  0  0  0  0
    1.3449    3.4408    2.5943 H   0  0  0  0  0  0  0  0  0  0  0  0
    2.1243    4.3379    3.7749 H   0  0  0  0  0  0  0  0  0  0  0  0
    3.2551    2.2517    3.0654 H   0  0  0  0  0  0  0  0  0  0  0  0
    3.3635    2.7136    4.6904 H   0  0  0  0  0  0  0  0  0  0  0  0
    3.2280    0.2573    4.0706 H   0  0  0  0  0  0  0  0  0  0  0  0
    2.8799   -0.1142    6.2615 H   0  0  0  0  0  0  0  0  0  0  0  0
    2.4523    2.4286    6.1708 H   0  0  0  0  0  0  0  0  0  0  0  0
    1.2979   -1.8802    7.0083 H   0  0  0  0  0  0  0  0  0  0  0  0
   -0.1513   -1.9674    6.0280 H   0  0  0  0  0  0  0  0  0  0  0  0
    2.7433   -2.0431    5.0692 H   0  0  0  0  0  0  0  0  0  0  0  0
    1.4897   -3.2142    4.7914 H   0  0  0  0  0  0  0  0  0  0  0  0
    2.0483   -1.6668    2.8186 H   0  0  0  0  0  0  0  0  0  0  0  0
    0.3677   -1.8514    3.2233 H   0  0  0  0  0  0  0  0  0  0  0  0
    1.4847    0.1600    1.5561 H   0  0  0  0  0  0  0  0  0  0  0  0
    0.7286    1.6043    2.0558 H   0  0  0  0  0  0  0  0  0  0  0  0
   -0.2109    0.1460    1.9654 H   0  0  0  0  0  0  0  0  0  0  0  0
   -1.3049    2.4130    6.8990 H   0  0  0  0  0  0  0  0  0  0  0  0
   -1.2400    0.6717    7.1203 H   0  0  0  0  0  0  0  0  0  0  0  0
   -2.5898    1.3868    6.2608 H   0  0  0  0  0  0  0  0  0  0  0  0
  1  2  1  0
  1 21  1  0
  1 22  1  0
  1 23  1  0
  2 20  1  0
  2  3  2  0
  3  4  1  0
  4 18  1  0
  4  5  1  0
  4 20  1  1
  5  6  1  0
  5 24  1  0
  5 25  1  0
  6  7  1  0
  6 26  1  0
  6 27  1  0
  7  8  1  0
  7 28  1  0
  7 29  1  0
  8 15  1  0
  8  9  1  0
  8 30  1  6
  9 10  1  0
  9 11  1  0
  9 31  1  1
 10 32  1  0
 11 17  1  0
 11 12  1  0
 12 13  1  0
 12 33  1  0
 12 34  1  0
 13 14  1  0
 13 35  1  0
 13 36  1  0
 14 15  1  0
 14 37  1  0
 14 38  1  0
 15 16  1  6
 15 17  1  0
 16 39  1  0
 16 40  1  0
 16 41  1  0
 17 18  2  3
 18 19  1  0
 19 42  1  0
 19 43  1  0
 19 44  1  0
M  END
>  <i_m_ct_stereo_status>  (307) 
1

>  <s_m_source_file>  (307) 
/var/tmp/pbs.5076255.sched01/tmpalt_vnqi/12934k3la1h.sdf

>  <i_m_source_file_index>  (307) 
11

>  <i_lp_mmshare_version>  (307) 
48012

>  <i_f3d_flags>  (307) 
0

>  <s_epik_input>  (307) 
W0NIM11DKE8xKT1OW0NAQF0xMltDSDJdW0NIMl1bQ0gyXVtDQEBIXTNbQ0BdNChbQ0gzXSlDKD1DLzJbQ0gzXSlcTihbQ0BASF0zW09IXSlbQ0gyXVtDSDJdW0NIMl00

>  <s_epik_cmdline>  (307) 
J2VwaWtfcHl0aG9uJywgJy1waHQnLCAnMi4wJywgJy1waCcsICc3LjAnLCAnLXRuJywgJzgnLCAnLW1hJywgJzIwMCcsICctaW1hZScsICc8aW5maWxlLm1hZT4nLCAnLW9tYWUnLCAnPG91dGZpbGUubWFlPic=

>  <r_lp_tautomer_probability>  (307) 
1

>  <r_epik_Ionization_Penalty>  (307) 
0.000158344

>  <r_epik_Ionization_Penalty_Charging>  (307) 
1.30422e-11

>  <r_epik_Ionization_Penalty_Neutral>  (307) 
0.000158344

>  <r_epik_State_Penalty>  (307) 
-0

>  <r_epik_Charging_Adjusted_Penalty>  (307) 
1.30422e-11

>  <i_epik_Tot_Q>  (307) 
0

>  <i_epik_Tot_abs_Q>  (307) 
0

>  <s_epik_Chemistry_Notes>  (307) 
This compound has an imine and may undergo hydrolysis. This compound contains an acetal/aminal-like group ( X-CH(R)-Y where X, Y are N, S, or O) that may be acid/base labile, releasing an aldehyde.

>  <s_lp_Force_Field>  (307) 
OPLS3e

>  <r_lp_Energy>  (307) 
73.2684

>  <b_lp_Chiralities_Consistent>  (307) 
1

>  <s_lp_Variant>  (307) 
95:0-1

>  <s_i_glide_gridfile>  (307) 
pfpi4k_grid

>  <i_i_glide_lignum>  (307) 
11

>  <i_i_glide_rotatable_bonds>  (307) 
1

>  <r_i_docking_score>  (307) 
-2.98179

>  <r_i_glide_ligand_efficiency>  (307) 
-0.14909

>  <r_i_glide_ligand_efficiency_sa>  (307) 
-0.404691

>  <r_i_glide_ligand_efficiency_ln>  (307) 
-0.746244

>  <r_i_glide_gscore>  (307) 
-2.98179

>  <r_i_glide_lipo>  (307) 
-0.202014

>  <r_i_glide_hbond>  (307) 
0

>  <r_i_glide_metal>  (307) 
-0

>  <r_i_glide_rewards>  (307) 
-1.52472

>  <r_i_glide_evdw>  (307) 
-21.1243

>  <r_i_glide_ecoul>  (307) 
-0.78012

>  <r_i_glide_erotb>  (307) 
0

>  <r_i_glide_esite>  (307) 
-0.081822

>  <r_i_glide_emodel>  (307) 
-25.7812

>  <r_i_glide_energy>  (307) 
-21.9044

>  <r_i_glide_einternal>  (307) 
0.0639434

>  <r_i_glide_intrahb_reward>  (307) 
-0

>  <i_i_glide_confnum>  (307) 
2

>  <i_i_glide_posenum>  (307) 
27

>  <r_i_glide_eff_state_penalty>  (307) 
0

>  <ligand_id>  (307) 
95

>  <original_smiles>  (307) 
CC1=NC2(CCCC3C(O)N4CCCC3(C)C4=C2C)O1

>  <smiles>  (307) 
[H]OC1([H])N2C3=C(C([H])([H])[H])C4(N=C(C([H])([H])[H])O4)C([H])([H])C([H])([H])C([H])([H])C1([H])C3(C([H])([H])[H])C([H])([H])C([H])([H])C2([H])[H]

$$$$
95:0:2
     RDKit          3D

 44 47  0  0  1  0  0  0  0  0999 V2000
   -3.6474    3.4238    2.5096 C   0  0  0  0  0  0  0  0  0  0  0  0
   -2.3960    2.8605    3.1519 C   0  0  0  0  0  0  0  0  0  0  0  0
   -1.2978    2.4403    2.7130 N   0  0  0  0  0  0  0  0  0  0  0  0
   -0.9186    2.1556    4.1425 C   0  0  2  0  0  0  0  0  0  0  0  0
    0.1560    3.0808    4.7805 C   0  0  0  0  0  0  0  0  0  0  0  0
    1.5201    3.2605    4.0660 C   0  0  0  0  0  0  0  0  0  0  0  0
    2.6809    2.2060    4.1342 C   0  0  0  0  0  0  0  0  0  0  0  0
    2.4969    0.6557    4.0144 C   0  0  1  0  0  0  0  0  0  0  0  0
    2.1747   -0.1077    5.3509 C   0  0  1  0  0  0  0  0  0  0  0  0
    2.0738    0.7224    6.4898 O   0  0  0  0  0  0  0  0  0  0  0  0
    0.9544   -0.8626    5.0694 N   0  0  0  0  0  0  0  0  0  0  0  0
    1.1604   -2.2613    4.7148 C   0  0  0  0  0  0  0  0  0  0  0  0
    2.1090   -2.3625    3.5165 C   0  0  0  0  0  0  0  0  0  0  0  0
    1.7664   -1.2830    2.4729 C   0  0  0  0  0  0  0  0  0  0  0  0
    1.3988    0.1313    3.0611 C   0  0  2  0  0  0  0  0  0  0  0  0
    1.1028    0.9460    1.7842 C   0  0  0  0  0  0  0  0  0  0  0  0
    0.3265   -0.0718    4.1296 C   0  0  0  0  0  0  0  0  0  0  0  0
   -0.7231    0.6914    4.5292 C   0  0  0  0  0  0  0  0  0  0  0  0
   -1.5484    0.3027    5.7541 C   0  0  0  0  0  0  0  0  0  0  0  0
   -2.2225    2.6321    4.5075 O   0  0  0  0  0  0  0  0  0  0  0  0
   -3.6330    3.2566    1.4352 H   0  0  0  0  0  0  0  0  0  0  0  0
   -3.7330    4.4931    2.6818 H   0  0  0  0  0  0  0  0  0  0  0  0
   -4.5453    2.9442    2.8823 H   0  0  0  0  0  0  0  0  0  0  0  0
   -0.2642    4.0842    4.8744 H   0  0  0  0  0  0  0  0  0  0  0  0
    0.3442    2.7779    5.8090 H   0  0  0  0  0  0  0  0  0  0  0  0
    1.3570    3.6195    3.0490 H   0  0  0  0  0  0  0  0  0  0  0  0
    1.9577    4.1480    4.5244 H   0  0  0  0  0  0  0  0  0  0  0  0
    3.3511    2.4892    3.3215 H   0  0  0  0  0  0  0  0  0  0  0  0
    3.2885    2.4160    5.0139 H   0  0  0  0  0  0  0  0  0  0  0  0
    3.4540    0.2820    3.6527 H   0  0  0  0  0  0  0  0  0  0  0  0
    2.9896   -0.7941    5.5728 H   0  0  0  0  0  0  0  0  0  0  0  0
    2.4628    1.5578    6.2856 H   0  0  0  0  0  0  0  0  0  0  0  0
    1.5488   -2.8202    5.5680 H   0  0  0  0  0  0  0  0  0  0  0  0
    0.1923   -2.7023    4.4632 H   0  0  0  0  0  0  0  0  0  0  0  0
    3.1442   -2.2486    3.8365 H   0  0  0  0  0  0  0  0  0  0  0  0
    2.0406   -3.3554    3.0772 H   0  0  0  0  0  0  0  0  0  0  0  0
    2.5848   -1.2205    1.7551 H   0  0  0  0  0  0  0  0  0  0  0  0
    0.9117   -1.6475    1.8996 H   0  0  0  0  0  0  0  0  0  0  0  0
    1.9216    0.8507    1.0756 H   0  0  0  0  0  0  0  0  0  0  0  0
    0.9825    2.0040    1.9083 H   0  0  0  0  0  0  0  0  0  0  0  0
    0.2098    0.5790    1.2795 H   0  0  0  0  0  0  0  0  0  0  0  0
   -1.4692    1.0691    6.5276 H   0  0  0  0  0  0  0  0  0  0  0  0
   -1.2389   -0.6432    6.1975 H   0  0  0  0  0  0  0  0  0  0  0  0
   -2.5850    0.1961    5.4683 H   0  0  0  0  0  0  0  0  0  0  0  0
  1  2  1  0
  1 21  1  0
  1 22  1  0
  1 23  1  0
  2 20  1  0
  2  3  2  0
  3  4  1  0
  4 18  1  0
  4  5  1  0
  4 20  1  1
  5  6  1  0
  5 24  1  0
  5 25  1  0
  6  7  1  0
  6 26  1  0
  6 27  1  0
  7  8  1  0
  7 28  1  0
  7 29  1  0
  8 15  1  0
  8  9  1  0
  8 30  1  6
  9 10  1  0
  9 11  1  0
  9 31  1  1
 10 32  1  0
 11 17  1  0
 11 12  1  0
 12 13  1  0
 12 33  1  0
 12 34  1  0
 13 14  1  0
 13 35  1  0
 13 36  1  0
 14 15  1  0
 14 37  1  0
 14 38  1  0
 15 16  1  6
 15 17  1  0
 16 39  1  0
 16 40  1  0
 16 41  1  0
 17 18  2  3
 18 19  1  0
 19 42  1  0
 19 43  1  0
 19 44  1  0
M  END
>  <i_m_ct_stereo_status>  (308) 
1

>  <s_m_source_file>  (308) 
/var/tmp/pbs.5076255.sched01/tmpalt_vnqi/12934k3la1h.sdf

>  <i_m_source_file_index>  (308) 
11

>  <i_lp_mmshare_version>  (308) 
48012

>  <i_f3d_flags>  (308) 
0

>  <s_epik_input>  (308) 
W0NIM11DKE8xKT1OW0NAQF0xMltDSDJdW0NIMl1bQ0gyXVtDQEBIXTNbQ0BdNChbQ0gzXSlDKD1DLzJbQ0gzXSlcTihbQ0BASF0zW09IXSlbQ0gyXVtDSDJdW0NIMl00

>  <s_epik_cmdline>  (308) 
J2VwaWtfcHl0aG9uJywgJy1waHQnLCAnMi4wJywgJy1waCcsICc3LjAnLCAnLXRuJywgJzgnLCAnLW1hJywgJzIwMCcsICctaW1hZScsICc8aW5maWxlLm1hZT4nLCAnLW9tYWUnLCAnPG91dGZpbGUubWFlPic=

>  <r_lp_tautomer_probability>  (308) 
1

>  <r_epik_Ionization_Penalty>  (308) 
0.000158344

>  <r_epik_Ionization_Penalty_Charging>  (308) 
1.30422e-11

>  <r_epik_Ionization_Penalty_Neutral>  (308) 
0.000158344

>  <r_epik_State_Penalty>  (308) 
-0

>  <r_epik_Charging_Adjusted_Penalty>  (308) 
1.30422e-11

>  <i_epik_Tot_Q>  (308) 
0

>  <i_epik_Tot_abs_Q>  (308) 
0

>  <s_epik_Chemistry_Notes>  (308) 
This compound has an imine and may undergo hydrolysis. This compound contains an acetal/aminal-like group ( X-CH(R)-Y where X, Y are N, S, or O) that may be acid/base labile, releasing an aldehyde.

>  <s_lp_Force_Field>  (308) 
OPLS3e

>  <r_lp_Energy>  (308) 
73.2684

>  <b_lp_Chiralities_Consistent>  (308) 
1

>  <s_lp_Variant>  (308) 
95:0-1

>  <s_i_glide_gridfile>  (308) 
pfpi4k_grid

>  <i_i_glide_lignum>  (308) 
11

>  <i_i_glide_rotatable_bonds>  (308) 
1

>  <r_i_docking_score>  (308) 
-2.84207

>  <r_i_glide_ligand_efficiency>  (308) 
-0.142104

>  <r_i_glide_ligand_efficiency_sa>  (308) 
-0.385728

>  <r_i_glide_ligand_efficiency_ln>  (308) 
-0.711277

>  <r_i_glide_gscore>  (308) 
-2.84207

>  <r_i_glide_lipo>  (308) 
-0.118596

>  <r_i_glide_hbond>  (308) 
0

>  <r_i_glide_metal>  (308) 
-0

>  <r_i_glide_rewards>  (308) 
-1.52472

>  <r_i_glide_evdw>  (308) 
-20.9422

>  <r_i_glide_ecoul>  (308) 
-0.548961

>  <r_i_glide_erotb>  (308) 
0

>  <r_i_glide_esite>  (308) 
-0.069298

>  <r_i_glide_emodel>  (308) 
-25.184

>  <r_i_glide_energy>  (308) 
-21.4912

>  <r_i_glide_einternal>  (308) 
0.0369939

>  <r_i_glide_intrahb_reward>  (308) 
-0

>  <i_i_glide_confnum>  (308) 
1

>  <i_i_glide_posenum>  (308) 
34

>  <r_i_glide_eff_state_penalty>  (308) 
0

>  <ligand_id>  (308) 
95

>  <original_smiles>  (308) 
CC1=NC2(CCCC3C(O)N4CCCC3(C)C4=C2C)O1

>  <smiles>  (308) 
[H]OC1([H])N2C3=C(C([H])([H])[H])C4(N=C(C([H])([H])[H])O4)C([H])([H])C([H])([H])C([H])([H])C1([H])C3(C([H])([H])[H])C([H])([H])C([H])([H])C2([H])[H]

$$$$
95:1:0
     RDKit          3D

 44 47  0  0  1  0  0  0  0  0999 V2000
    3.4750   -0.2594   -4.3592 C   0  0  0  0  0  0  0  0  0  0  0  0
    3.7949   -1.2047   -3.2177 C   0  0  0  0  0  0  0  0  0  0  0  0
    3.7428   -2.4530   -3.0476 N   0  0  0  0  0  0  0  0  0  0  0  0
    4.2855   -2.1849   -1.6572 C   0  0  2  0  0  0  0  0  0  0  0  0
    5.7156   -2.7696   -1.4461 C   0  0  0  0  0  0  0  0  0  0  0  0
    5.8942   -3.8404   -0.3113 C   0  0  0  0  0  0  0  0  0  0  0  0
    6.2016   -3.4704    1.1870 C   0  0  0  0  0  0  0  0  0  0  0  0
    5.3236   -2.4836    2.0509 C   0  0  1  0  0  0  0  0  0  0  0  0
    5.4670   -1.0266    1.5620 C   0  0  1  0  0  0  0  0  0  0  0  0
    6.6155   -0.7389    0.8099 O   0  0  0  0  0  0  0  0  0  0  0  0
    4.2239   -0.7860    0.8670 N   0  0  0  0  0  0  0  0  0  0  0  0
    3.3580    0.1485    1.5749 C   0  0  0  0  0  0  0  0  0  0  0  0
    3.0957   -0.3564    3.0136 C   0  0  0  0  0  0  0  0  0  0  0  0
    2.9535   -1.9018    3.0856 C   0  0  0  0  0  0  0  0  0  0  0  0
    3.7702   -2.7057    2.0139 C   0  0  2  0  0  0  0  0  0  0  0  0
    3.4148   -4.1998    2.1825 C   0  0  0  0  0  0  0  0  0  0  0  0
    3.5802   -1.9966    0.6867 C   0  0  0  0  0  0  0  0  0  0  0  0
    3.3426   -2.5617   -0.5152 C   0  0  0  0  0  0  0  0  0  0  0  0
    2.4824   -3.7903   -0.7550 C   0  0  0  0  0  0  0  0  0  0  0  0
    4.2879   -0.7962   -1.9928 O   0  0  0  0  0  0  0  0  0  0  0  0
    3.0880   -0.8132   -5.2108 H   0  0  0  0  0  0  0  0  0  0  0  0
    4.3567    0.2882   -4.6879 H   0  0  0  0  0  0  0  0  0  0  0  0
    2.7234    0.4708   -4.0635 H   0  0  0  0  0  0  0  0  0  0  0  0
    6.0328   -3.2341   -2.3813 H   0  0  0  0  0  0  0  0  0  0  0  0
    6.4429   -1.9752   -1.3030 H   0  0  0  0  0  0  0  0  0  0  0  0
    5.1085   -4.5908   -0.3657 H   0  0  0  0  0  0  0  0  0  0  0  0
    6.7706   -4.4065   -0.6073 H   0  0  0  0  0  0  0  0  0  0  0  0
    6.2295   -4.4178    1.7268 H   0  0  0  0  0  0  0  0  0  0  0  0
    7.2407   -3.1402    1.2375 H   0  0  0  0  0  0  0  0  0  0  0  0
    5.6885   -2.5541    3.0766 H   0  0  0  0  0  0  0  0  0  0  0  0
    5.5596   -0.3805    2.4345 H   0  0  0  0  0  0  0  0  0  0  0  0
    7.1192   -0.0705    1.2678 H   0  0  0  0  0  0  0  0  0  0  0  0
    3.7998    1.1461    1.5819 H   0  0  0  0  0  0  0  0  0  0  0  0
    2.4179    0.2266    1.0250 H   0  0  0  0  0  0  0  0  0  0  0  0
    3.9063   -0.0456    3.6733 H   0  0  0  0  0  0  0  0  0  0  0  0
    2.2070    0.1302    3.4137 H   0  0  0  0  0  0  0  0  0  0  0  0
    3.1727   -2.2451    4.0983 H   0  0  0  0  0  0  0  0  0  0  0  0
    1.8970   -2.1226    2.9233 H   0  0  0  0  0  0  0  0  0  0  0  0
    3.8262   -4.5763    3.1180 H   0  0  0  0  0  0  0  0  0  0  0  0
    3.8054   -4.8408    1.3986 H   0  0  0  0  0  0  0  0  0  0  0  0
    2.3402   -4.3587    2.2460 H   0  0  0  0  0  0  0  0  0  0  0  0
    1.7492   -3.5699   -1.5341 H   0  0  0  0  0  0  0  0  0  0  0  0
    1.9090   -4.0884    0.1170 H   0  0  0  0  0  0  0  0  0  0  0  0
    3.0751   -4.6406   -1.0907 H   0  0  0  0  0  0  0  0  0  0  0  0
  1  2  1  0
  1 21  1  0
  1 22  1  0
  1 23  1  0
  2 20  1  0
  2  3  2  0
  3  4  1  0
  4 18  1  0
  4  5  1  0
  4 20  1  6
  5  6  1  0
  5 24  1  0
  5 25  1  0
  6  7  1  0
  6 26  1  0
  6 27  1  0
  7  8  1  0
  7 28  1  0
  7 29  1  0
  8 15  1  0
  8  9  1  0
  8 30  1  1
  9 10  1  0
  9 11  1  0
  9 31  1  1
 10 32  1  0
 11 17  1  0
 11 12  1  0
 12 13  1  0
 12 33  1  0
 12 34  1  0
 13 14  1  0
 13 35  1  0
 13 36  1  0
 14 15  1  0
 14 37  1  0
 14 38  1  0
 15 16  1  6
 15 17  1  0
 16 39  1  0
 16 40  1  0
 16 41  1  0
 17 18  2  3
 18 19  1  0
 19 42  1  0
 19 43  1  0
 19 44  1  0
M  END
>  <i_m_ct_stereo_status>  (309) 
1

>  <s_m_source_file>  (309) 
/var/tmp/pbs.5076255.sched01/tmpalt_vnqi/12934k3la1h.sdf

>  <i_m_source_file_index>  (309) 
12

>  <i_lp_mmshare_version>  (309) 
48012

>  <i_f3d_flags>  (309) 
0

>  <s_epik_input>  (309) 
W0NIM11DKE8xKT1OW0NAQF0xMltDSDJdW0NIMl1bQ0gyXVtDQEBIXTNbQ0BdNChbQ0gzXSlDKD1DLzJbQ0gzXSlcTihbQ0BASF0zW09IXSlbQ0gyXVtDSDJdW0NIMl00

>  <s_epik_cmdline>  (309) 
J2VwaWtfcHl0aG9uJywgJy1waHQnLCAnMi4wJywgJy1waCcsICc3LjAnLCAnLXRuJywgJzgnLCAnLW1hJywgJzIwMCcsICctaW1hZScsICc8aW5maWxlLm1hZT4nLCAnLW9tYWUnLCAnPG91dGZpbGUubWFlPic=

>  <r_lp_tautomer_probability>  (309) 
1

>  <r_epik_Ionization_Penalty>  (309) 
0.000158344

>  <r_epik_Ionization_Penalty_Charging>  (309) 
1.30422e-11

>  <r_epik_Ionization_Penalty_Neutral>  (309) 
0.000158344

>  <r_epik_State_Penalty>  (309) 
-0

>  <r_epik_Charging_Adjusted_Penalty>  (309) 
1.30422e-11

>  <i_epik_Tot_Q>  (309) 
0

>  <i_epik_Tot_abs_Q>  (309) 
0

>  <s_epik_Chemistry_Notes>  (309) 
This compound has an imine and may undergo hydrolysis. This compound contains an acetal/aminal-like group ( X-CH(R)-Y where X, Y are N, S, or O) that may be acid/base labile, releasing an aldehyde.

>  <s_lp_Force_Field>  (309) 
OPLS3e

>  <r_lp_Energy>  (309) 
80.1897

>  <b_lp_Chiralities_Consistent>  (309) 
1

>  <s_lp_Variant>  (309) 
95:0-2

>  <s_i_glide_gridfile>  (309) 
pfpi4k_grid

>  <i_i_glide_lignum>  (309) 
12

>  <i_i_glide_rotatable_bonds>  (309) 
1

>  <r_i_docking_score>  (309) 
-4.64047

>  <r_i_glide_ligand_efficiency>  (309) 
-0.232023

>  <r_i_glide_ligand_efficiency_sa>  (309) 
-0.629808

>  <r_i_glide_ligand_efficiency_ln>  (309) 
-1.16136

>  <r_i_glide_gscore>  (309) 
-4.64047

>  <r_i_glide_lipo>  (309) 
-0.532524

>  <r_i_glide_hbond>  (309) 
-0.32

>  <r_i_glide_metal>  (309) 
-0

>  <r_i_glide_rewards>  (309) 
-1.89707

>  <r_i_glide_evdw>  (309) 
-25.7166

>  <r_i_glide_ecoul>  (309) 
-3.85977

>  <r_i_glide_erotb>  (309) 
0

>  <r_i_glide_esite>  (309) 
-0.026078

>  <r_i_glide_emodel>  (309) 
-37.7904

>  <r_i_glide_energy>  (309) 
-29.5764

>  <r_i_glide_einternal>  (309) 
0.126374

>  <r_i_glide_intrahb_reward>  (309) 
-0

>  <i_i_glide_confnum>  (309) 
1

>  <i_i_glide_posenum>  (309) 
36

>  <r_i_glide_eff_state_penalty>  (309) 
0

>  <ligand_id>  (309) 
95

>  <original_smiles>  (309) 
CC1=NC2(CCCC3C(O)N4CCCC3(C)C4=C2C)O1

>  <smiles>  (309) 
[H]OC1([H])N2C3=C(C([H])([H])[H])C4(N=C(C([H])([H])[H])O4)C([H])([H])C([H])([H])C([H])([H])C1([H])C3(C([H])([H])[H])C([H])([H])C([H])([H])C2([H])[H]

$$$$
95:1:1
     RDKit          3D

 44 47  0  0  1  0  0  0  0  0999 V2000
   -0.1825   -7.1283    1.9879 C   0  0  0  0  0  0  0  0  0  0  0  0
    1.0461   -6.2523    2.1528 C   0  0  0  0  0  0  0  0  0  0  0  0
    1.5972   -5.6573    3.1186 N   0  0  0  0  0  0  0  0  0  0  0  0
    2.6151   -5.1712    2.1080 C   0  0  2  0  0  0  0  0  0  0  0  0
    4.0359   -5.7815    2.3536 C   0  0  0  0  0  0  0  0  0  0  0  0
    5.2108   -4.7845    2.6582 C   0  0  0  0  0  0  0  0  0  0  0  0
    6.0678   -4.1081    1.5239 C   0  0  0  0  0  0  0  0  0  0  0  0
    5.4609   -3.2807    0.3266 C   0  0  1  0  0  0  0  0  0  0  0  0
    4.7024   -4.1865   -0.6609 C   0  0  1  0  0  0  0  0  0  0  0  0
    5.0154   -5.5484   -0.6404 O   0  0  0  0  0  0  0  0  0  0  0  0
    3.3176   -3.9110   -0.3788 N   0  0  0  0  0  0  0  0  0  0  0  0
    2.6778   -3.2110   -1.4800 C   0  0  0  0  0  0  0  0  0  0  0  0
    3.4408   -1.8915   -1.7712 C   0  0  0  0  0  0  0  0  0  0  0  0
    4.0095   -1.2268   -0.4824 C   0  0  0  0  0  0  0  0  0  0  0  0
    4.3808   -2.2031    0.6836 C   0  0  2  0  0  0  0  0  0  0  0  0
    4.8170   -1.3452    1.8931 C   0  0  0  0  0  0  0  0  0  0  0  0
    3.2403   -3.1939    0.8001 C   0  0  0  0  0  0  0  0  0  0  0  0
    2.6626   -3.6538    1.9288 C   0  0  0  0  0  0  0  0  0  0  0  0
    2.3947   -2.8408    3.1831 C   0  0  0  0  0  0  0  0  0  0  0  0
    1.8493   -5.8483    1.1051 O   0  0  0  0  0  0  0  0  0  0  0  0
   -0.6938   -7.2554    2.9392 H   0  0  0  0  0  0  0  0  0  0  0  0
    0.0823   -8.1142    1.6078 H   0  0  0  0  0  0  0  0  0  0  0  0
   -0.8786   -6.6845    1.2802 H   0  0  0  0  0  0  0  0  0  0  0  0
    3.9674   -6.4583    3.2075 H   0  0  0  0  0  0  0  0  0  0  0  0
    4.3300   -6.4435    1.5440 H   0  0  0  0  0  0  0  0  0  0  0  0
    4.9000   -4.0398    3.3882 H   0  0  0  0  0  0  0  0  0  0  0  0
    5.9375   -5.3631    3.2277 H   0  0  0  0  0  0  0  0  0  0  0  0
    6.7544   -3.4346    2.0364 H   0  0  0  0  0  0  0  0  0  0  0  0
    6.7342   -4.8700    1.1135 H   0  0  0  0  0  0  0  0  0  0  0  0
    6.2994   -2.8105   -0.1902 H   0  0  0  0  0  0  0  0  0  0  0  0
    4.9669   -3.8900   -1.6755 H   0  0  0  0  0  0  0  0  0  0  0  0
    4.4385   -5.9537   -1.2753 H   0  0  0  0  0  0  0  0  0  0  0  0
    2.6182   -3.8427   -2.3689 H   0  0  0  0  0  0  0  0  0  0  0  0
    1.6489   -3.0331   -1.1776 H   0  0  0  0  0  0  0  0  0  0  0  0
    4.2638   -2.0821   -2.4621 H   0  0  0  0  0  0  0  0  0  0  0  0
    2.7781   -1.2024   -2.2951 H   0  0  0  0  0  0  0  0  0  0  0  0
    4.8358   -0.5614   -0.7393 H   0  0  0  0  0  0  0  0  0  0  0  0
    3.2158   -0.5853   -0.1006 H   0  0  0  0  0  0  0  0  0  0  0  0
    5.7668   -0.8589    1.6784 H   0  0  0  0  0  0  0  0  0  0  0  0
    4.9581   -1.9105    2.8067 H   0  0  0  0  0  0  0  0  0  0  0  0
    4.1117   -0.5416    2.0955 H   0  0  0  0  0  0  0  0  0  0  0  0
    1.3464   -2.9538    3.4690 H   0  0  0  0  0  0  0  0  0  0  0  0
    2.5479   -1.7750    3.0292 H   0  0  0  0  0  0  0  0  0  0  0  0
    3.0062   -3.1678    4.0278 H   0  0  0  0  0  0  0  0  0  0  0  0
  1  2  1  0
  1 21  1  0
  1 22  1  0
  1 23  1  0
  2 20  1  0
  2  3  2  0
  3  4  1  0
  4 18  1  0
  4  5  1  0
  4 20  1  6
  5  6  1  0
  5 24  1  0
  5 25  1  0
  6  7  1  0
  6 26  1  0
  6 27  1  0
  7  8  1  0
  7 28  1  0
  7 29  1  0
  8 15  1  0
  8  9  1  0
  8 30  1  6
  9 10  1  0
  9 11  1  0
  9 31  1  6
 10 32  1  0
 11 17  1  0
 11 12  1  0
 12 13  1  0
 12 33  1  0
 12 34  1  0
 13 14  1  0
 13 35  1  0
 13 36  1  0
 14 15  1  0
 14 37  1  0
 14 38  1  0
 15 16  1  1
 15 17  1  0
 16 39  1  0
 16 40  1  0
 16 41  1  0
 17 18  2  3
 18 19  1  0
 19 42  1  0
 19 43  1  0
 19 44  1  0
M  END
>  <i_m_ct_stereo_status>  (310) 
1

>  <s_m_source_file>  (310) 
/var/tmp/pbs.5076255.sched01/tmpalt_vnqi/12934k3la1h.sdf

>  <i_m_source_file_index>  (310) 
12

>  <i_lp_mmshare_version>  (310) 
48012

>  <i_f3d_flags>  (310) 
0

>  <s_epik_input>  (310) 
W0NIM11DKE8xKT1OW0NAQF0xMltDSDJdW0NIMl1bQ0gyXVtDQEBIXTNbQ0BdNChbQ0gzXSlDKD1DLzJbQ0gzXSlcTihbQ0BASF0zW09IXSlbQ0gyXVtDSDJdW0NIMl00

>  <s_epik_cmdline>  (310) 
J2VwaWtfcHl0aG9uJywgJy1waHQnLCAnMi4wJywgJy1waCcsICc3LjAnLCAnLXRuJywgJzgnLCAnLW1hJywgJzIwMCcsICctaW1hZScsICc8aW5maWxlLm1hZT4nLCAnLW9tYWUnLCAnPG91dGZpbGUubWFlPic=

>  <r_lp_tautomer_probability>  (310) 
1

>  <r_epik_Ionization_Penalty>  (310) 
0.000158344

>  <r_epik_Ionization_Penalty_Charging>  (310) 
1.30422e-11

>  <r_epik_Ionization_Penalty_Neutral>  (310) 
0.000158344

>  <r_epik_State_Penalty>  (310) 
-0

>  <r_epik_Charging_Adjusted_Penalty>  (310) 
1.30422e-11

>  <i_epik_Tot_Q>  (310) 
0

>  <i_epik_Tot_abs_Q>  (310) 
0

>  <s_epik_Chemistry_Notes>  (310) 
This compound has an imine and may undergo hydrolysis. This compound contains an acetal/aminal-like group ( X-CH(R)-Y where X, Y are N, S, or O) that may be acid/base labile, releasing an aldehyde.

>  <s_lp_Force_Field>  (310) 
OPLS3e

>  <r_lp_Energy>  (310) 
80.1897

>  <b_lp_Chiralities_Consistent>  (310) 
1

>  <s_lp_Variant>  (310) 
95:0-2

>  <s_i_glide_gridfile>  (310) 
pfpi4k_grid

>  <i_i_glide_lignum>  (310) 
12

>  <i_i_glide_rotatable_bonds>  (310) 
1

>  <r_i_docking_score>  (310) 
-3.78375

>  <r_i_glide_ligand_efficiency>  (310) 
-0.189187

>  <r_i_glide_ligand_efficiency_sa>  (310) 
-0.513534

>  <r_i_glide_ligand_efficiency_ln>  (310) 
-0.946947

>  <r_i_glide_gscore>  (310) 
-3.78375

>  <r_i_glide_lipo>  (310) 
-0.261079

>  <r_i_glide_hbond>  (310) 
-0.364723

>  <r_i_glide_metal>  (310) 
-0

>  <r_i_glide_rewards>  (310) 
-1.52923

>  <r_i_glide_evdw>  (310) 
-20.3269

>  <r_i_glide_ecoul>  (310) 
-3.50088

>  <r_i_glide_erotb>  (310) 
0

>  <r_i_glide_esite>  (310) 
-0.0872369

>  <r_i_glide_emodel>  (310) 
-29.7868

>  <r_i_glide_energy>  (310) 
-23.8277

>  <r_i_glide_einternal>  (310) 
0.734926

>  <r_i_glide_intrahb_reward>  (310) 
-0

>  <i_i_glide_confnum>  (310) 
2

>  <i_i_glide_posenum>  (310) 
4

>  <r_i_glide_eff_state_penalty>  (310) 
0

>  <ligand_id>  (310) 
95

>  <original_smiles>  (310) 
CC1=NC2(CCCC3C(O)N4CCCC3(C)C4=C2C)O1

>  <smiles>  (310) 
[H]OC1([H])N2C3=C(C([H])([H])[H])C4(N=C(C([H])([H])[H])O4)C([H])([H])C([H])([H])C([H])([H])C1([H])C3(C([H])([H])[H])C([H])([H])C([H])([H])C2([H])[H]

$$$$
95:1:2
     RDKit          3D

 44 47  0  0  1  0  0  0  0  0999 V2000
    0.6513    0.0331    3.0980 C   0  0  0  0  0  0  0  0  0  0  0  0
    1.9056   -0.7924    2.8781 C   0  0  0  0  0  0  0  0  0  0  0  0
    3.0119   -0.9135    3.4716 N   0  0  0  0  0  0  0  0  0  0  0  0
    3.3531   -1.9440    2.4149 C   0  0  2  0  0  0  0  0  0  0  0  0
    3.4998   -3.3840    3.0030 C   0  0  0  0  0  0  0  0  0  0  0  0
    4.8919   -4.0968    2.8453 C   0  0  0  0  0  0  0  0  0  0  0  0
    5.2819   -4.9475    1.5786 C   0  0  0  0  0  0  0  0  0  0  0  0
    5.1961   -4.4110    0.0991 C   0  0  1  0  0  0  0  0  0  0  0  0
    3.7316   -4.2328   -0.3331 C   0  0  1  0  0  0  0  0  0  0  0  0
    2.7651   -4.9950    0.3642 O   0  0  0  0  0  0  0  0  0  0  0  0
    3.5479   -2.7957   -0.3219 N   0  0  0  0  0  0  0  0  0  0  0  0
    3.4169   -2.2275   -1.6617 C   0  0  0  0  0  0  0  0  0  0  0  0
    4.6515   -2.6000   -2.5255 C   0  0  0  0  0  0  0  0  0  0  0  0
    5.9701   -2.6265   -1.7054 C   0  0  0  0  0  0  0  0  0  0  0  0
    5.8174   -2.9995   -0.1898 C   0  0  2  0  0  0  0  0  0  0  0  0
    7.2095   -2.8625    0.4652 C   0  0  0  0  0  0  0  0  0  0  0  0
    4.6224   -2.2292    0.3386 C   0  0  0  0  0  0  0  0  0  0  0  0
    4.5234   -1.5671    1.5114 C   0  0  0  0  0  0  0  0  0  0  0  0
    5.6391   -0.7924    2.1895 C   0  0  0  0  0  0  0  0  0  0  0  0
    2.0650   -1.6960    1.8461 O   0  0  0  0  0  0  0  0  0  0  0  0
    0.7691    0.6862    3.9611 H   0  0  0  0  0  0  0  0  0  0  0  0
   -0.2158   -0.6029    3.2691 H   0  0  0  0  0  0  0  0  0  0  0  0
    0.4410    0.6545    2.2275 H   0  0  0  0  0  0  0  0  0  0  0  0
    3.2915   -3.3295    4.0727 H   0  0  0  0  0  0  0  0  0  0  0  0
    2.7151   -4.0398    2.6366 H   0  0  0  0  0  0  0  0  0  0  0  0
    5.6974   -3.4124    3.0976 H   0  0  0  0  0  0  0  0  0  0  0  0
    4.9373   -4.8127    3.6656 H   0  0  0  0  0  0  0  0  0  0  0  0
    6.3122   -5.2668    1.7352 H   0  0  0  0  0  0  0  0  0  0  0  0
    4.7288   -5.8869    1.6319 H   0  0  0  0  0  0  0  0  0  0  0  0
    5.6656   -5.1600   -0.5401 H   0  0  0  0  0  0  0  0  0  0  0  0
    3.6550   -4.5894   -1.3500 H   0  0  0  0  0  0  0  0  0  0  0  0
    2.6545   -5.8112   -0.0997 H   0  0  0  0  0  0  0  0  0  0  0  0
    2.4873   -2.5566   -2.1311 H   0  0  0  0  0  0  0  0  0  0  0  0
    3.3418   -1.1417   -1.5627 H   0  0  0  0  0  0  0  0  0  0  0  0
    4.5024   -3.5789   -2.9823 H   0  0  0  0  0  0  0  0  0  0  0  0
    4.7344   -1.9038   -3.3606 H   0  0  0  0  0  0  0  0  0  0  0  0
    6.7099   -3.2551   -2.2065 H   0  0  0  0  0  0  0  0  0  0  0  0
    6.3679   -1.6136   -1.7460 H   0  0  0  0  0  0  0  0  0  0  0  0
    7.8733   -3.6426    0.0965 H   0  0  0  0  0  0  0  0  0  0  0  0
    7.1892   -2.9657    1.5435 H   0  0  0  0  0  0  0  0  0  0  0  0
    7.6947   -1.9198    0.2203 H   0  0  0  0  0  0  0  0  0  0  0  0
    5.2713    0.2018    2.4420 H   0  0  0  0  0  0  0  0  0  0  0  0
    6.5030   -0.6525    1.5456 H   0  0  0  0  0  0  0  0  0  0  0  0
    5.9657   -1.2595    3.1193 H   0  0  0  0  0  0  0  0  0  0  0  0
  1  2  1  0
  1 21  1  0
  1 22  1  0
  1 23  1  0
  2 20  1  0
  2  3  2  0
  3  4  1  0
  4 18  1  0
  4  5  1  0
  4 20  1  6
  5  6  1  0
  5 24  1  0
  5 25  1  0
  6  7  1  0
  6 26  1  0
  6 27  1  0
  7  8  1  0
  7 28  1  0
  7 29  1  0
  8 15  1  0
  8  9  1  0
  8 30  1  6
  9 10  1  0
  9 11  1  0
  9 31  1  6
 10 32  1  0
 11 17  1  0
 11 12  1  0
 12 13  1  0
 12 33  1  0
 12 34  1  0
 13 14  1  0
 13 35  1  0
 13 36  1  0
 14 15  1  0
 14 37  1  0
 14 38  1  0
 15 16  1  1
 15 17  1  0
 16 39  1  0
 16 40  1  0
 16 41  1  0
 17 18  2  3
 18 19  1  0
 19 42  1  0
 19 43  1  0
 19 44  1  0
M  END
>  <i_m_ct_stereo_status>  (311) 
1

>  <s_m_source_file>  (311) 
/var/tmp/pbs.5076255.sched01/tmpalt_vnqi/12934k3la1h.sdf

>  <i_m_source_file_index>  (311) 
12

>  <i_lp_mmshare_version>  (311) 
48012

>  <i_f3d_flags>  (311) 
0

>  <s_epik_input>  (311) 
W0NIM11DKE8xKT1OW0NAQF0xMltDSDJdW0NIMl1bQ0gyXVtDQEBIXTNbQ0BdNChbQ0gzXSlDKD1DLzJbQ0gzXSlcTihbQ0BASF0zW09IXSlbQ0gyXVtDSDJdW0NIMl00

>  <s_epik_cmdline>  (311) 
J2VwaWtfcHl0aG9uJywgJy1waHQnLCAnMi4wJywgJy1waCcsICc3LjAnLCAnLXRuJywgJzgnLCAnLW1hJywgJzIwMCcsICctaW1hZScsICc8aW5maWxlLm1hZT4nLCAnLW9tYWUnLCAnPG91dGZpbGUubWFlPic=

>  <r_lp_tautomer_probability>  (311) 
1

>  <r_epik_Ionization_Penalty>  (311) 
0.000158344

>  <r_epik_Ionization_Penalty_Charging>  (311) 
1.30422e-11

>  <r_epik_Ionization_Penalty_Neutral>  (311) 
0.000158344

>  <r_epik_State_Penalty>  (311) 
-0

>  <r_epik_Charging_Adjusted_Penalty>  (311) 
1.30422e-11

>  <i_epik_Tot_Q>  (311) 
0

>  <i_epik_Tot_abs_Q>  (311) 
0

>  <s_epik_Chemistry_Notes>  (311) 
This compound has an imine and may undergo hydrolysis. This compound contains an acetal/aminal-like group ( X-CH(R)-Y where X, Y are N, S, or O) that may be acid/base labile, releasing an aldehyde.

>  <s_lp_Force_Field>  (311) 
OPLS3e

>  <r_lp_Energy>  (311) 
80.1897

>  <b_lp_Chiralities_Consistent>  (311) 
1

>  <s_lp_Variant>  (311) 
95:0-2

>  <s_i_glide_gridfile>  (311) 
pfpi4k_grid

>  <i_i_glide_lignum>  (311) 
12

>  <i_i_glide_rotatable_bonds>  (311) 
1

>  <r_i_docking_score>  (311) 
-3.26231

>  <r_i_glide_ligand_efficiency>  (311) 
-0.163116

>  <r_i_glide_ligand_efficiency_sa>  (311) 
-0.442764

>  <r_i_glide_ligand_efficiency_ln>  (311) 
-0.816449

>  <r_i_glide_gscore>  (311) 
-3.26231

>  <r_i_glide_lipo>  (311) 
-0.516197

>  <r_i_glide_hbond>  (311) 
0

>  <r_i_glide_metal>  (311) 
-0

>  <r_i_glide_rewards>  (311) 
-1.52472

>  <r_i_glide_evdw>  (311) 
-22.9144

>  <r_i_glide_ecoul>  (311) 
-0.0969892

>  <r_i_glide_erotb>  (311) 
0

>  <r_i_glide_esite>  (311) 
-0.0611227

>  <r_i_glide_emodel>  (311) 
-28.7515

>  <r_i_glide_energy>  (311) 
-23.0114

>  <r_i_glide_einternal>  (311) 
1.69945e-07

>  <r_i_glide_intrahb_reward>  (311) 
-0

>  <i_i_glide_confnum>  (311) 
2

>  <i_i_glide_posenum>  (311) 
29

>  <r_i_glide_eff_state_penalty>  (311) 
0

>  <ligand_id>  (311) 
95

>  <original_smiles>  (311) 
CC1=NC2(CCCC3C(O)N4CCCC3(C)C4=C2C)O1

>  <smiles>  (311) 
[H]OC1([H])N2C3=C(C([H])([H])[H])C4(N=C(C([H])([H])[H])O4)C([H])([H])C([H])([H])C([H])([H])C1([H])C3(C([H])([H])[H])C([H])([H])C([H])([H])C2([H])[H]

$$$$
96:0:0
     RDKit          3D

 69 75  0  0  1  0  0  0  0  0999 V2000
    0.5588   -6.4678    6.7127 C   0  0  0  0  0  0  0  0  0  0  0  0
    0.8479   -7.5057    5.6394 C   0  0  0  0  0  0  0  0  0  0  0  0
    1.5241   -7.3283    4.5068 C   0  0  0  0  0  0  0  0  0  0  0  0
    1.5051   -8.5383    3.5771 C   0  0  2  0  0  0  0  0  0  0  0  0
    0.6681   -9.5460    4.4064 C   0  0  2  0  0  0  0  0  0  0  0  0
   -0.5889   -9.5310    3.7343 O   0  0  0  0  0  0  0  0  0  0  0  0
    0.3869   -8.9098    5.8178 C   0  0  1  0  0  0  0  0  0  0  0  0
    1.1185   -9.4490    6.9108 O   0  0  0  0  0  0  0  0  0  0  0  0
    1.3943  -10.9206    4.4079 C   0  0  1  0  0  0  0  0  0  0  0  0
    0.7761  -11.8593    3.5290 O   0  0  0  0  0  0  0  0  0  0  0  0
    2.8720  -10.6493    3.9666 C   0  0  2  0  0  0  0  0  0  0  0  0
    3.3184  -11.7648    3.1900 O   0  0  0  0  0  0  0  0  0  0  0  0
    3.8948  -10.5493    5.1072 C   0  0  0  0  0  0  0  0  0  0  0  0
    3.7019  -11.0260    6.2266 O   0  0  0  0  0  0  0  0  0  0  0  0
    5.2373   -9.8626    4.7872 C   0  0  1  0  0  0  0  0  0  0  0  0
    5.3605   -9.5956    3.2576 C   0  0  0  0  0  0  0  0  0  0  0  0
    4.2562   -8.5260    3.0404 C   0  0  1  0  0  0  0  0  0  0  0  0
    4.7401   -7.5838    4.1814 C   0  0  2  0  0  0  0  0  0  0  0  0
    5.6011   -6.4856    3.4946 C   0  0  1  0  0  0  0  0  0  0  0  0
    6.9629   -6.8637    3.2026 O   0  0  0  0  0  0  0  0  0  0  0  0
    7.3557   -6.3962    1.9160 C   0  0  0  0  0  0  0  0  0  0  0  0
    6.1148   -5.8393    1.2975 C   0  0  0  0  0  0  0  0  0  0  0  0
    6.0756   -4.8947    0.3244 C   0  0  0  0  0  0  0  0  0  0  0  0
    4.7961   -4.1993   -0.0834 C   0  0  1  0  0  0  0  0  0  0  0  0
    4.6268   -4.2484   -1.4934 O   0  0  0  0  0  0  0  0  0  0  0  0
    3.5456   -4.7440    0.6397 C   0  0  0  0  0  0  0  0  0  0  0  0
    3.8617   -5.1665    2.0883 C   0  0  0  0  0  0  0  0  0  0  0  0
    4.9451   -6.2607    2.1217 C   0  0  2  0  0  0  0  0  0  0  0  0
    4.3395   -7.6450    1.7545 C   0  0  1  0  0  0  0  0  0  0  0  0
    5.0779   -8.3490    0.7856 O   0  0  0  0  0  0  0  0  0  0  0  0
    5.3548   -8.4222    5.3431 C   0  0  0  0  0  0  0  0  0  0  0  0
    4.5923   -8.1474    6.6602 C   0  0  0  0  0  0  0  0  0  0  0  0
    6.8428   -8.1526    5.6775 C   0  0  0  0  0  0  0  0  0  0  0  0
    2.8521   -9.2831    3.1587 C   0  0  2  0  0  0  0  0  0  0  0  0
    2.5568   -9.7410    1.8343 O   0  0  0  0  0  0  0  0  0  0  0  0
    1.0006   -6.7405    7.6676 H   0  0  0  0  0  0  0  0  0  0  0  0
   -0.5106   -6.4148    6.8531 H   0  0  0  0  0  0  0  0  0  0  0  0
    0.9027   -5.4767    6.4287 H   0  0  0  0  0  0  0  0  0  0  0  0
    1.9137   -6.3661    4.2181 H   0  0  0  0  0  0  0  0  0  0  0  0
    0.9953   -8.1850    2.6784 H   0  0  0  0  0  0  0  0  0  0  0  0
   -1.1577  -10.1397    4.2014 H   0  0  0  0  0  0  0  0  0  0  0  0
   -0.6676   -8.9264    6.0626 H   0  0  0  0  0  0  0  0  0  0  0  0
    1.0409  -10.3966    6.9545 H   0  0  0  0  0  0  0  0  0  0  0  0
    1.3569  -11.4128    5.3739 H   0  0  0  0  0  0  0  0  0  0  0  0
    1.1899  -12.7020    3.6524 H   0  0  0  0  0  0  0  0  0  0  0  0
    2.7071  -11.9050    2.4888 H   0  0  0  0  0  0  0  0  0  0  0  0
    6.0419  -10.4989    5.1483 H   0  0  0  0  0  0  0  0  0  0  0  0
    6.3622   -9.2354    3.0148 H   0  0  0  0  0  0  0  0  0  0  0  0
    5.2432  -10.4860    2.6391 H   0  0  0  0  0  0  0  0  0  0  0  0
    3.9244   -7.0041    4.5721 H   0  0  0  0  0  0  0  0  0  0  0  0
    5.6268   -5.5567    4.0839 H   0  0  0  0  0  0  0  0  0  0  0  0
    8.1395   -5.6423    2.0076 H   0  0  0  0  0  0  0  0  0  0  0  0
    7.7311   -7.2389    1.3290 H   0  0  0  0  0  0  0  0  0  0  0  0
    6.9871   -4.5516   -0.1298 H   0  0  0  0  0  0  0  0  0  0  0  0
    4.9369   -3.1502    0.1955 H   0  0  0  0  0  0  0  0  0  0  0  0
    4.0946   -4.9990   -1.7380 H   0  0  0  0  0  0  0  0  0  0  0  0
    2.7648   -3.9807    0.6117 H   0  0  0  0  0  0  0  0  0  0  0  0
    3.1579   -5.5956    0.0782 H   0  0  0  0  0  0  0  0  0  0  0  0
    4.2061   -4.2862    2.6330 H   0  0  0  0  0  0  0  0  0  0  0  0
    2.9499   -5.4976    2.5712 H   0  0  0  0  0  0  0  0  0  0  0  0
    3.3443   -7.4973    1.3440 H   0  0  0  0  0  0  0  0  0  0  0  0
    4.6214   -9.1444    0.5796 H   0  0  0  0  0  0  0  0  0  0  0  0
    4.7768   -7.1296    7.0188 H   0  0  0  0  0  0  0  0  0  0  0  0
    4.9040   -8.8363    7.4474 H   0  0  0  0  0  0  0  0  0  0  0  0
    3.5172   -8.2476    6.5526 H   0  0  0  0  0  0  0  0  0  0  0  0
    7.0257   -7.0907    5.8781 H   0  0  0  0  0  0  0  0  0  0  0  0
    7.5155   -8.4831    4.8781 H   0  0  0  0  0  0  0  0  0  0  0  0
    7.1387   -8.7131    6.5748 H   0  0  0  0  0  0  0  0  0  0  0  0
    3.2158  -10.3809    1.6289 H   0  0  0  0  0  0  0  0  0  0  0  0
  1  2  1  0
  1 36  1  0
  1 37  1  0
  1 38  1  0
  2  7  1  0
  2  3  2  0
  3  4  1  0
  3 39  1  0
  4 34  1  0
  4  5  1  0
  4 40  1  6
  5  6  1  6
  5  7  1  0
  5  9  1  0
  6 41  1  0
  7  8  1  0
  7 42  1  1
  8 43  1  0
  9 10  1  0
  9 11  1  0
  9 44  1  1
 10 45  1  0
 11 34  1  0
 11 12  1  6
 11 13  1  0
 12 46  1  0
 13 14  2  0
 13 15  1  0
 15 31  1  0
 15 16  1  0
 15 47  1  1
 17 16  1  6
 16 48  1  0
 16 49  1  0
 17 29  1  0
 17 18  1  0
 17 34  1  0
 18 19  1  0
 18 31  1  0
 18 50  1  1
 19 28  1  0
 19 20  1  0
 19 51  1  1
 20 21  1  0
 21 22  1  0
 21 52  1  0
 21 53  1  0
 22 28  1  0
 22 23  2  0
 23 24  1  0
 23 54  1  0
 24 25  1  0
 24 26  1  0
 24 55  1  1
 25 56  1  0
 26 27  1  0
 26 57  1  0
 26 58  1  0
 28 27  1  1
 27 59  1  0
 27 60  1  0
 28 29  1  0
 29 30  1  0
 29 61  1  6
 30 62  1  0
 31 32  1  0
 31 33  1  0
 32 63  1  0
 32 64  1  0
 32 65  1  0
 33 66  1  0
 33 67  1  0
 33 68  1  0
 34 35  1  6
 35 69  1  0
M  END
>  <i_m_ct_stereo_status>  (312) 
1

>  <s_m_source_file>  (312) 
/var/tmp/pbs.5076255.sched01/tmpalt_vnqi/12934k3la1h.sdf

>  <i_m_source_file_index>  (312) 
13

>  <i_lp_mmshare_version>  (312) 
48012

>  <i_f3d_flags>  (312) 
0

>  <s_epik_input>  (312) 
W0NIM11DKD1bQ0hdMSlbQ0BIXShbT0hdKVtDQF0oW09IXSkoW0NASF0yW09IXSlbQ0BASF0xW0NAXTMoW09IXSlbQ0BAXTIoW09IXSlDKD1PKVtDQEBIXShbQ0gyXTQpQyhbQ0gzXSkoW0NIM10pW0NASF0oW0NAXTM0NSlbQ0BASF02W0NAXTcoW0NASF01W09IXSlDKFtDSDJdTzYpPVtDSF1bQ0BASF0oW09IXSlbQ0gyXVtDSDJdNw==

>  <s_epik_cmdline>  (312) 
J2VwaWtfcHl0aG9uJywgJy1waHQnLCAnMi4wJywgJy1waCcsICc3LjAnLCAnLXRuJywgJzgnLCAnLW1hJywgJzIwMCcsICctaW1hZScsICc8aW5maWxlLm1hZT4nLCAnLW9tYWUnLCAnPG91dGZpbGUubWFlPic=

>  <r_lp_tautomer_probability>  (312) 
1

>  <r_epik_Ionization_Penalty>  (312) 
7.09983e-07

>  <r_epik_Ionization_Penalty_Charging>  (312) 
0

>  <r_epik_Ionization_Penalty_Neutral>  (312) 
7.09983e-07

>  <r_epik_State_Penalty>  (312) 
-0

>  <r_epik_Charging_Adjusted_Penalty>  (312) 
0

>  <i_epik_Tot_Q>  (312) 
0

>  <i_epik_Tot_abs_Q>  (312) 
0

>  <s_lp_Force_Field>  (312) 
OPLS3e

>  <r_lp_Energy>  (312) 
79.9926

>  <b_lp_Chiralities_Consistent>  (312) 
1

>  <s_lp_Variant>  (312) 
96:0-1

>  <s_i_glide_gridfile>  (312) 
pfpi4k_grid

>  <i_i_glide_lignum>  (312) 
13

>  <i_i_glide_rotatable_bonds>  (312) 
7

>  <r_i_docking_score>  (312) 
-3.98956

>  <r_i_glide_ligand_efficiency>  (312) 
-0.113987

>  <r_i_glide_ligand_efficiency_sa>  (312) 
-0.37286

>  <r_i_glide_ligand_efficiency_ln>  (312) 
-0.875796

>  <r_i_glide_gscore>  (312) 
-3.98956

>  <r_i_glide_lipo>  (312) 
-0.308893

>  <r_i_glide_hbond>  (312) 
-0.32

>  <r_i_glide_metal>  (312) 
-0

>  <r_i_glide_rewards>  (312) 
-0.0644812

>  <r_i_glide_evdw>  (312) 
-28.1831

>  <r_i_glide_ecoul>  (312) 
-12.453

>  <r_i_glide_erotb>  (312) 
0

>  <r_i_glide_esite>  (312) 
-0.0190844

>  <r_i_glide_emodel>  (312) 
-50.9616

>  <r_i_glide_energy>  (312) 
-40.636

>  <r_i_glide_einternal>  (312) 
1.965

>  <r_i_glide_intrahb_reward>  (312) 
-0

>  <i_i_glide_confnum>  (312) 
2

>  <i_i_glide_posenum>  (312) 
12

>  <r_i_glide_eff_state_penalty>  (312) 
0

>  <ligand_id>  (312) 
96

>  <original_smiles>  (312) 
CC1=CC2C(O)(C1O)C(O)C1(O)C(=O)C3CC4(C(C5OCC6=CC(O)CCC65C4O)C3(C)C)C21O

>  <smiles>  (312) 
[H]OC1([H])C([H])=C2C([H])([H])OC3([H])C4([H])C(C([H])([H])[H])(C([H])([H])[H])C5([H])C(=O)C6(O[H])C([H])(O[H])C7(O[H])C([H])(O[H])C(C([H])([H])[H])=C([H])C7([H])C6(O[H])C4(C5([H])[H])C([H])(O[H])C23C([H])([H])C1([H])[H]

$$$$
96:0:1
     RDKit          3D

 69 75  0  0  1  0  0  0  0  0999 V2000
    0.2707   -3.9145    6.0704 C   0  0  0  0  0  0  0  0  0  0  0  0
    0.4111   -5.1172    5.1702 C   0  0  0  0  0  0  0  0  0  0  0  0
    1.0956   -5.2047    4.0314 C   0  0  0  0  0  0  0  0  0  0  0  0
    0.8482   -6.4992    3.2693 C   0  0  2  0  0  0  0  0  0  0  0  0
   -0.1824   -7.2151    4.2021 C   0  0  2  0  0  0  0  0  0  0  0  0
   -1.4200   -7.0991    3.5084 O   0  0  0  0  0  0  0  0  0  0  0  0
   -0.3263   -6.3704    5.4964 C   0  0  1  0  0  0  0  0  0  0  0  0
    0.2015   -6.9264    6.6786 O   0  0  0  0  0  0  0  0  0  0  0  0
    0.2639   -8.6796    4.4117 C   0  0  1  0  0  0  0  0  0  0  0  0
   -0.5928   -9.5207    3.6561 O   0  0  0  0  0  0  0  0  0  0  0  0
    1.7607   -8.7421    3.9571 C   0  0  2  0  0  0  0  0  0  0  0  0
    1.9455   -9.9962    3.3212 O   0  0  0  0  0  0  0  0  0  0  0  0
    2.7707   -8.7037    5.1215 C   0  0  0  0  0  0  0  0  0  0  0  0
    2.4401   -8.9241    6.2833 O   0  0  0  0  0  0  0  0  0  0  0  0
    4.2358   -8.3448    4.7673 C   0  0  1  0  0  0  0  0  0  0  0  0
    4.4258   -8.3062    3.2349 C   0  0  0  0  0  0  0  0  0  0  0  0
    3.5618   -7.0784    2.8422 C   0  0  1  0  0  0  0  0  0  0  0  0
    4.1975   -6.0962    3.8657 C   0  0  2  0  0  0  0  0  0  0  0  0
    5.2635   -5.2747    3.0869 C   0  0  1  0  0  0  0  0  0  0  0  0
    6.5212   -5.9358    2.8914 O   0  0  0  0  0  0  0  0  0  0  0  0
    7.0177   -5.7184    1.5762 C   0  0  0  0  0  0  0  0  0  0  0  0
    5.9180   -5.0260    0.8515 C   0  0  0  0  0  0  0  0  0  0  0  0
    6.0695   -4.2206   -0.2283 C   0  0  0  0  0  0  0  0  0  0  0  0
    4.9419   -3.3797   -0.7911 C   0  0  1  0  0  0  0  0  0  0  0  0
    4.7870   -3.6187   -2.1727 O   0  0  0  0  0  0  0  0  0  0  0  0
    3.6043   -3.5790   -0.0586 C   0  0  0  0  0  0  0  0  0  0  0  0
    3.8096   -3.8576    1.4516 C   0  0  0  0  0  0  0  0  0  0  0  0
    4.6797   -5.1136    1.6752 C   0  0  2  0  0  0  0  0  0  0  0  0
    3.8476   -6.4187    1.4521 C   0  0  1  0  0  0  0  0  0  0  0  0
    4.5181   -7.3491    0.6125 O   0  0  0  0  0  0  0  0  0  0  0  0
    4.6196   -6.8846    5.1495 C   0  0  0  0  0  0  0  0  0  0  0  0
    3.9029   -6.2964    6.3902 C   0  0  0  0  0  0  0  0  0  0  0  0
    6.1223   -6.8498    5.5066 C   0  0  0  0  0  0  0  0  0  0  0  0
    2.0284   -7.5161    2.9948 C   0  0  2  0  0  0  0  0  0  0  0  0
    1.7066   -8.0782    1.7316 O   0  0  0  0  0  0  0  0  0  0  0  0
    0.6352   -4.1299    7.0771 H   0  0  0  0  0  0  0  0  0  0  0  0
   -0.7907   -3.6744    6.1501 H   0  0  0  0  0  0  0  0  0  0  0  0
    0.7863   -3.0438    5.6709 H   0  0  0  0  0  0  0  0  0  0  0  0
    1.6526   -4.3858    3.6248 H   0  0  0  0  0  0  0  0  0  0  0  0
    0.4106   -6.2069    2.3284 H   0  0  0  0  0  0  0  0  0  0  0  0
   -1.9182   -7.8551    3.7582 H   0  0  0  0  0  0  0  0  0  0  0  0
   -1.3677   -6.1086    5.6664 H   0  0  0  0  0  0  0  0  0  0  0  0
    1.0719   -7.2804    6.5069 H   0  0  0  0  0  0  0  0  0  0  0  0
    0.1313   -9.0333    5.4385 H   0  0  0  0  0  0  0  0  0  0  0  0
   -1.1207  -10.0735    4.2438 H   0  0  0  0  0  0  0  0  0  0  0  0
    1.7328  -10.6680    3.9495 H   0  0  0  0  0  0  0  0  0  0  0  0
    4.9039   -9.0572    5.2496 H   0  0  0  0  0  0  0  0  0  0  0  0
    5.4878   -8.1692    2.9869 H   0  0  0  0  0  0  0  0  0  0  0  0
    4.1486   -9.2263    2.7342 H   0  0  0  0  0  0  0  0  0  0  0  0
    3.5004   -5.3274    4.1504 H   0  0  0  0  0  0  0  0  0  0  0  0
    5.4489   -4.3125    3.5448 H   0  0  0  0  0  0  0  0  0  0  0  0
    7.9218   -5.1131    1.5948 H   0  0  0  0  0  0  0  0  0  0  0  0
    7.2311   -6.6863    1.1091 H   0  0  0  0  0  0  0  0  0  0  0  0
    7.0409   -4.1104   -0.6763 H   0  0  0  0  0  0  0  0  0  0  0  0
    5.2668   -2.3487   -0.6496 H   0  0  0  0  0  0  0  0  0  0  0  0
    4.3120   -4.4321   -2.2817 H   0  0  0  0  0  0  0  0  0  0  0  0
    2.9791   -2.6984   -0.1996 H   0  0  0  0  0  0  0  0  0  0  0  0
    3.0616   -4.4082   -0.5063 H   0  0  0  0  0  0  0  0  0  0  0  0
    4.3038   -2.9947    1.8977 H   0  0  0  0  0  0  0  0  0  0  0  0
    2.8415   -3.9489    1.9409 H   0  0  0  0  0  0  0  0  0  0  0  0
    2.9262   -6.1494    0.9583 H   0  0  0  0  0  0  0  0  0  0  0  0
    3.9250   -8.0636    0.4592 H   0  0  0  0  0  0  0  0  0  0  0  0
    4.2787   -5.2981    6.6208 H   0  0  0  0  0  0  0  0  0  0  0  0
    4.0686   -6.9231    7.2665 H   0  0  0  0  0  0  0  0  0  0  0  0
    2.8324   -6.2017    6.2475 H   0  0  0  0  0  0  0  0  0  0  0  0
    6.5004   -5.8265    5.5757 H   0  0  0  0  0  0  0  0  0  0  0  0
    6.7357   -7.3964    4.7845 H   0  0  0  0  0  0  0  0  0  0  0  0
    6.2959   -7.3315    6.4736 H   0  0  0  0  0  0  0  0  0  0  0  0
    1.9307   -8.9937    1.8320 H   0  0  0  0  0  0  0  0  0  0  0  0
  1  2  1  0
  1 36  1  0
  1 37  1  0
  1 38  1  0
  2  7  1  0
  2  3  2  0
  3  4  1  0
  3 39  1  0
  4 34  1  0
  4  5  1  0
  4 40  1  6
  5  6  1  6
  5  7  1  0
  5  9  1  0
  6 41  1  0
  7  8  1  0
  7 42  1  1
  8 43  1  0
  9 10  1  0
  9 11  1  0
  9 44  1  1
 10 45  1  0
 11 34  1  0
 11 12  1  6
 11 13  1  0
 12 46  1  0
 13 14  2  0
 13 15  1  0
 15 31  1  0
 15 16  1  0
 15 47  1  1
 17 16  1  6
 16 48  1  0
 16 49  1  0
 17 29  1  0
 17 18  1  0
 17 34  1  0
 18 19  1  0
 18 31  1  0
 18 50  1  1
 19 28  1  0
 19 20  1  0
 19 51  1  1
 20 21  1  0
 21 22  1  0
 21 52  1  0
 21 53  1  0
 22 28  1  0
 22 23  2  0
 23 24  1  0
 23 54  1  0
 24 25  1  0
 24 26  1  0
 24 55  1  6
 25 56  1  0
 26 27  1  0
 26 57  1  0
 26 58  1  0
 28 27  1  1
 27 59  1  0
 27 60  1  0
 28 29  1  0
 29 30  1  0
 29 61  1  6
 30 62  1  0
 31 32  1  0
 31 33  1  0
 32 63  1  0
 32 64  1  0
 32 65  1  0
 33 66  1  0
 33 67  1  0
 33 68  1  0
 34 35  1  6
 35 69  1  0
M  END
>  <i_m_ct_stereo_status>  (313) 
1

>  <s_m_source_file>  (313) 
/var/tmp/pbs.5076255.sched01/tmpalt_vnqi/12934k3la1h.sdf

>  <i_m_source_file_index>  (313) 
13

>  <i_lp_mmshare_version>  (313) 
48012

>  <i_f3d_flags>  (313) 
0

>  <s_epik_input>  (313) 
W0NIM11DKD1bQ0hdMSlbQ0BIXShbT0hdKVtDQF0oW09IXSkoW0NASF0yW09IXSlbQ0BASF0xW0NAXTMoW09IXSlbQ0BAXTIoW09IXSlDKD1PKVtDQEBIXShbQ0gyXTQpQyhbQ0gzXSkoW0NIM10pW0NASF0oW0NAXTM0NSlbQ0BASF02W0NAXTcoW0NASF01W09IXSlDKFtDSDJdTzYpPVtDSF1bQ0BASF0oW09IXSlbQ0gyXVtDSDJdNw==

>  <s_epik_cmdline>  (313) 
J2VwaWtfcHl0aG9uJywgJy1waHQnLCAnMi4wJywgJy1waCcsICc3LjAnLCAnLXRuJywgJzgnLCAnLW1hJywgJzIwMCcsICctaW1hZScsICc8aW5maWxlLm1hZT4nLCAnLW9tYWUnLCAnPG91dGZpbGUubWFlPic=

>  <r_lp_tautomer_probability>  (313) 
1

>  <r_epik_Ionization_Penalty>  (313) 
7.09983e-07

>  <r_epik_Ionization_Penalty_Charging>  (313) 
0

>  <r_epik_Ionization_Penalty_Neutral>  (313) 
7.09983e-07

>  <r_epik_State_Penalty>  (313) 
-0

>  <r_epik_Charging_Adjusted_Penalty>  (313) 
0

>  <i_epik_Tot_Q>  (313) 
0

>  <i_epik_Tot_abs_Q>  (313) 
0

>  <s_lp_Force_Field>  (313) 
OPLS3e

>  <r_lp_Energy>  (313) 
79.9926

>  <b_lp_Chiralities_Consistent>  (313) 
1

>  <s_lp_Variant>  (313) 
96:0-1

>  <s_i_glide_gridfile>  (313) 
pfpi4k_grid

>  <i_i_glide_lignum>  (313) 
13

>  <i_i_glide_rotatable_bonds>  (313) 
7

>  <r_i_docking_score>  (313) 
-3.81173

>  <r_i_glide_ligand_efficiency>  (313) 
-0.108907

>  <r_i_glide_ligand_efficiency_sa>  (313) 
-0.356241

>  <r_i_glide_ligand_efficiency_ln>  (313) 
-0.83676

>  <r_i_glide_gscore>  (313) 
-3.81173

>  <r_i_glide_lipo>  (313) 
-0.380925

>  <r_i_glide_hbond>  (313) 
-0.203439

>  <r_i_glide_metal>  (313) 
-0

>  <r_i_glide_rewards>  (313) 
-0.564481

>  <r_i_glide_evdw>  (313) 
-29.3439

>  <r_i_glide_ecoul>  (313) 
-7.92303

>  <r_i_glide_erotb>  (313) 
0

>  <r_i_glide_esite>  (313) 
-0.00723574

>  <r_i_glide_emodel>  (313) 
-50.4002

>  <r_i_glide_energy>  (313) 
-37.267

>  <r_i_glide_einternal>  (313) 
4.03951

>  <r_i_glide_intrahb_reward>  (313) 
-0.5

>  <i_i_glide_confnum>  (313) 
1

>  <i_i_glide_posenum>  (313) 
26

>  <r_i_glide_eff_state_penalty>  (313) 
0

>  <ligand_id>  (313) 
96

>  <original_smiles>  (313) 
CC1=CC2C(O)(C1O)C(O)C1(O)C(=O)C3CC4(C(C5OCC6=CC(O)CCC65C4O)C3(C)C)C21O

>  <smiles>  (313) 
[H]OC1([H])C([H])=C2C([H])([H])OC3([H])C4([H])C(C([H])([H])[H])(C([H])([H])[H])C5([H])C(=O)C6(O[H])C([H])(O[H])C7(O[H])C([H])(O[H])C(C([H])([H])[H])=C([H])C7([H])C6(O[H])C4(C5([H])[H])C([H])(O[H])C23C([H])([H])C1([H])[H]

$$$$
96:0:2
     RDKit          3D

 69 75  0  0  1  0  0  0  0  0999 V2000
   -0.4484   -5.7333    5.8745 C   0  0  0  0  0  0  0  0  0  0  0  0
    0.0779   -6.7784    4.8917 C   0  0  0  0  0  0  0  0  0  0  0  0
    0.7518   -6.5567    3.7638 C   0  0  0  0  0  0  0  0  0  0  0  0
    0.9886   -7.8251    2.9402 C   0  0  2  0  0  0  0  0  0  0  0  0
    0.2952   -8.9055    3.8206 C   0  0  2  0  0  0  0  0  0  0  0  0
   -0.9188   -9.2106    3.1377 O   0  0  0  0  0  0  0  0  0  0  0  0
   -0.1542   -8.2242    5.1565 C   0  0  1  0  0  0  0  0  0  0  0  0
    0.5949   -8.5863    6.3100 O   0  0  0  0  0  0  0  0  0  0  0  0
    1.2557  -10.1154    3.9706 C   0  0  1  0  0  0  0  0  0  0  0  0
    0.8189  -11.1758    3.1297 O   0  0  0  0  0  0  0  0  0  0  0  0
    2.6851   -9.6314    3.5528 C   0  0  2  0  0  0  0  0  0  0  0  0
    3.3223  -10.7483    2.9303 O   0  0  0  0  0  0  0  0  0  0  0  0
    3.6161   -9.2592    4.7048 C   0  0  0  0  0  0  0  0  0  0  0  0
    3.4463   -9.6792    5.8574 O   0  0  0  0  0  0  0  0  0  0  0  0
    4.8329   -8.3828    4.3566 C   0  0  1  0  0  0  0  0  0  0  0  0
    4.9722   -8.2170    2.8126 C   0  0  0  0  0  0  0  0  0  0  0  0
    3.7249   -7.3728    2.4751 C   0  0  1  0  0  0  0  0  0  0  0  0
    3.9750   -6.2694    3.5503 C   0  0  2  0  0  0  0  0  0  0  0  0
    4.6590   -5.0870    2.8038 C   0  0  1  0  0  0  0  0  0  0  0  0
    6.0711   -5.2438    2.5843 O   0  0  0  0  0  0  0  0  0  0  0  0
    6.4456   -4.8082    1.2833 C   0  0  0  0  0  0  0  0  0  0  0  0
    5.1629   -4.5199    0.5802 C   0  0  0  0  0  0  0  0  0  0  0  0
    5.0150   -3.6742   -0.4770 C   0  0  0  0  0  0  0  0  0  0  0  0
    3.6544   -3.2481   -0.9855 C   0  0  1  0  0  0  0  0  0  0  0  0
    3.5598   -3.4338   -2.3870 O   0  0  0  0  0  0  0  0  0  0  0  0
    2.4964   -3.9526   -0.2628 C   0  0  0  0  0  0  0  0  0  0  0  0
    2.7925   -4.1993    1.2320 C   0  0  0  0  0  0  0  0  0  0  0  0
    4.0462   -5.0780    1.3981 C   0  0  2  0  0  0  0  0  0  0  0  0
    3.7176   -6.5817    1.1210 C   0  0  1  0  0  0  0  0  0  0  0  0
    4.6028   -7.1543    0.1782 O   0  0  0  0  0  0  0  0  0  0  0  0
    4.6720   -6.9011    4.7953 C   0  0  0  0  0  0  0  0  0  0  0  0
    3.8142   -6.6700    6.0663 C   0  0  0  0  0  0  0  0  0  0  0  0
    6.0727   -6.3469    5.1505 C   0  0  0  0  0  0  0  0  0  0  0  0
    2.4737   -8.3512    2.6372 C   0  0  2  0  0  0  0  0  0  0  0  0
    2.2961   -8.9825    1.3797 O   0  0  0  0  0  0  0  0  0  0  0  0
    0.0004   -5.8507    6.8602 H   0  0  0  0  0  0  0  0  0  0  0  0
   -1.5191   -5.8689    5.9798 H   0  0  0  0  0  0  0  0  0  0  0  0
   -0.2752   -4.7191    5.5191 H   0  0  0  0  0  0  0  0  0  0  0  0
    0.9665   -5.5695    3.4041 H   0  0  0  0  0  0  0  0  0  0  0  0
    0.4644   -7.6359    2.0100 H   0  0  0  0  0  0  0  0  0  0  0  0
   -1.3382   -9.9055    3.6186 H   0  0  0  0  0  0  0  0  0  0  0  0
   -1.2005   -8.4186    5.3465 H   0  0  0  0  0  0  0  0  0  0  0  0
    0.5832   -9.5196    6.4253 H   0  0  0  0  0  0  0  0  0  0  0  0
    1.2502  -10.5470    4.9642 H   0  0  0  0  0  0  0  0  0  0  0  0
    1.3187  -11.9401    3.3654 H   0  0  0  0  0  0  0  0  0  0  0  0
    2.9082  -10.9221    2.1064 H   0  0  0  0  0  0  0  0  0  0  0  0
    5.7211   -8.8347    4.7850 H   0  0  0  0  0  0  0  0  0  0  0  0
    5.9009   -7.7004    2.5654 H   0  0  0  0  0  0  0  0  0  0  0  0
    5.0280   -9.1534    2.2594 H   0  0  0  0  0  0  0  0  0  0  0  0
    3.0452   -5.8314    3.8691 H   0  0  0  0  0  0  0  0  0  0  0  0
    4.4953   -4.1401    3.3231 H   0  0  0  0  0  0  0  0  0  0  0  0
    7.0868   -3.9295    1.3389 H   0  0  0  0  0  0  0  0  0  0  0  0
    6.9792   -5.6162    0.7772 H   0  0  0  0  0  0  0  0  0  0  0  0
    5.8688   -3.2293   -0.9518 H   0  0  0  0  0  0  0  0  0  0  0  0
    3.5706   -2.1762   -0.7953 H   0  0  0  0  0  0  0  0  0  0  0  0
    3.3802   -4.3639   -2.5370 H   0  0  0  0  0  0  0  0  0  0  0  0
    1.6125   -3.3318   -0.4036 H   0  0  0  0  0  0  0  0  0  0  0  0
    2.2656   -4.9127   -0.7235 H   0  0  0  0  0  0  0  0  0  0  0  0
    2.9451   -3.2371    1.7270 H   0  0  0  0  0  0  0  0  0  0  0  0
    1.9340   -4.6612    1.7165 H   0  0  0  0  0  0  0  0  0  0  0  0
    2.7386   -6.6456    0.6700 H   0  0  0  0  0  0  0  0  0  0  0  0
    4.4658   -6.7284   -0.6477 H   0  0  0  0  0  0  0  0  0  0  0  0
    3.8058   -5.6129    6.3454 H   0  0  0  0  0  0  0  0  0  0  0  0
    4.2085   -7.2278    6.9174 H   0  0  0  0  0  0  0  0  0  0  0  0
    2.7822   -6.9652    5.9357 H   0  0  0  0  0  0  0  0  0  0  0  0
    6.0639   -5.2627    5.2697 H   0  0  0  0  0  0  0  0  0  0  0  0
    6.8307   -6.6096    4.4064 H   0  0  0  0  0  0  0  0  0  0  0  0
    6.4297   -6.7736    6.0988 H   0  0  0  0  0  0  0  0  0  0  0  0
    1.5030   -9.4797    1.4013 H   0  0  0  0  0  0  0  0  0  0  0  0
  1  2  1  0
  1 36  1  0
  1 37  1  0
  1 38  1  0
  2  7  1  0
  2  3  2  0
  3  4  1  0
  3 39  1  0
  4 34  1  0
  4  5  1  0
  4 40  1  6
  5  6  1  6
  5  7  1  0
  5  9  1  0
  6 41  1  0
  7  8  1  0
  7 42  1  1
  8 43  1  0
  9 10  1  0
  9 11  1  0
  9 44  1  1
 10 45  1  0
 11 34  1  0
 11 12  1  6
 11 13  1  0
 12 46  1  0
 13 14  2  0
 13 15  1  0
 15 31  1  0
 15 16  1  0
 15 47  1  1
 17 16  1  6
 16 48  1  0
 16 49  1  0
 17 29  1  0
 17 18  1  0
 17 34  1  0
 18 19  1  0
 18 31  1  0
 18 50  1  1
 19 28  1  0
 19 20  1  0
 19 51  1  1
 20 21  1  0
 21 22  1  0
 21 52  1  0
 21 53  1  0
 22 28  1  0
 22 23  2  0
 23 24  1  0
 23 54  1  0
 24 25  1  0
 24 26  1  0
 24 55  1  6
 25 56  1  0
 26 27  1  0
 26 57  1  0
 26 58  1  0
 28 27  1  1
 27 59  1  0
 27 60  1  0
 28 29  1  0
 29 30  1  0
 29 61  1  6
 30 62  1  0
 31 32  1  0
 31 33  1  0
 32 63  1  0
 32 64  1  0
 32 65  1  0
 33 66  1  0
 33 67  1  0
 33 68  1  0
 34 35  1  6
 35 69  1  0
M  END
>  <i_m_ct_stereo_status>  (314) 
1

>  <s_m_source_file>  (314) 
/var/tmp/pbs.5076255.sched01/tmpalt_vnqi/12934k3la1h.sdf

>  <i_m_source_file_index>  (314) 
13

>  <i_lp_mmshare_version>  (314) 
48012

>  <i_f3d_flags>  (314) 
0

>  <s_epik_input>  (314) 
W0NIM11DKD1bQ0hdMSlbQ0BIXShbT0hdKVtDQF0oW09IXSkoW0NASF0yW09IXSlbQ0BASF0xW0NAXTMoW09IXSlbQ0BAXTIoW09IXSlDKD1PKVtDQEBIXShbQ0gyXTQpQyhbQ0gzXSkoW0NIM10pW0NASF0oW0NAXTM0NSlbQ0BASF02W0NAXTcoW0NASF01W09IXSlDKFtDSDJdTzYpPVtDSF1bQ0BASF0oW09IXSlbQ0gyXVtDSDJdNw==

>  <s_epik_cmdline>  (314) 
J2VwaWtfcHl0aG9uJywgJy1waHQnLCAnMi4wJywgJy1waCcsICc3LjAnLCAnLXRuJywgJzgnLCAnLW1hJywgJzIwMCcsICctaW1hZScsICc8aW5maWxlLm1hZT4nLCAnLW9tYWUnLCAnPG91dGZpbGUubWFlPic=

>  <r_lp_tautomer_probability>  (314) 
1

>  <r_epik_Ionization_Penalty>  (314) 
7.09983e-07

>  <r_epik_Ionization_Penalty_Charging>  (314) 
0

>  <r_epik_Ionization_Penalty_Neutral>  (314) 
7.09983e-07

>  <r_epik_State_Penalty>  (314) 
-0

>  <r_epik_Charging_Adjusted_Penalty>  (314) 
0

>  <i_epik_Tot_Q>  (314) 
0

>  <i_epik_Tot_abs_Q>  (314) 
0

>  <s_lp_Force_Field>  (314) 
OPLS3e

>  <r_lp_Energy>  (314) 
79.9926

>  <b_lp_Chiralities_Consistent>  (314) 
1

>  <s_lp_Variant>  (314) 
96:0-1

>  <s_i_glide_gridfile>  (314) 
pfpi4k_grid

>  <i_i_glide_lignum>  (314) 
13

>  <i_i_glide_rotatable_bonds>  (314) 
7

>  <r_i_docking_score>  (314) 
-3.73707

>  <r_i_glide_ligand_efficiency>  (314) 
-0.106773

>  <r_i_glide_ligand_efficiency_sa>  (314) 
-0.349263

>  <r_i_glide_ligand_efficiency_ln>  (314) 
-0.82037

>  <r_i_glide_gscore>  (314) 
-3.73707

>  <r_i_glide_lipo>  (314) 
-0.323573

>  <r_i_glide_hbond>  (314) 
-0.302324

>  <r_i_glide_metal>  (314) 
-0

>  <r_i_glide_rewards>  (314) 
-0.0644812

>  <r_i_glide_evdw>  (314) 
-31.5725

>  <r_i_glide_ecoul>  (314) 
-9.76031

>  <r_i_glide_erotb>  (314) 
0

>  <r_i_glide_esite>  (314) 
-0.00401941

>  <r_i_glide_emodel>  (314) 
-51.4083

>  <r_i_glide_energy>  (314) 
-41.3328

>  <r_i_glide_einternal>  (314) 
1.25917

>  <r_i_glide_intrahb_reward>  (314) 
-0

>  <i_i_glide_confnum>  (314) 
2

>  <i_i_glide_posenum>  (314) 
1

>  <r_i_glide_eff_state_penalty>  (314) 
0

>  <ligand_id>  (314) 
96

>  <original_smiles>  (314) 
CC1=CC2C(O)(C1O)C(O)C1(O)C(=O)C3CC4(C(C5OCC6=CC(O)CCC65C4O)C3(C)C)C21O

>  <smiles>  (314) 
[H]OC1([H])C([H])=C2C([H])([H])OC3([H])C4([H])C(C([H])([H])[H])(C([H])([H])[H])C5([H])C(=O)C6(O[H])C([H])(O[H])C7(O[H])C([H])(O[H])C(C([H])([H])[H])=C([H])C7([H])C6(O[H])C4(C5([H])[H])C([H])(O[H])C23C([H])([H])C1([H])[H]

$$$$
98:0:0
     RDKit          3D

 31 34  0  0  1  0  0  0  0  0999 V2000
   -0.0159   -7.6204    2.6432 C   0  0  0  0  0  0  0  0  0  0  0  0
    0.0627   -7.2908    1.2694 C   0  0  0  0  0  0  0  0  0  0  0  0
    0.9221   -6.3826    0.7738 N   0  0  0  0  0  0  0  0  0  0  0  0
    1.8151   -5.7829    1.5948 C   0  0  0  0  0  0  0  0  0  0  0  0
    2.7859   -4.8451    1.0932 C   0  0  0  0  0  0  0  0  0  0  0  0
    2.8506   -4.5532   -0.3176 N   0  0  0  0  0  0  0  0  0  0  0  0
    3.2163   -3.3645   -0.9776 C   0  0  0  0  0  0  0  0  0  0  0  0
    4.2313   -2.4746   -0.4921 C   0  0  0  0  0  0  0  0  0  0  0  0
    4.5757   -1.2909   -1.1498 C   0  0  0  0  0  0  0  0  0  0  0  0
    3.9687   -1.0136   -2.3733 C   0  0  0  0  0  0  0  0  0  0  0  0
    3.0274   -1.8825   -2.9197 C   0  0  0  0  0  0  0  0  0  0  0  0
    2.5951   -3.0569   -2.2416 C   0  0  0  0  0  0  0  0  0  0  0  0
    2.6599   -1.4004   -4.1388 O   0  0  0  0  0  0  0  0  0  0  0  0
    3.4659   -0.2635   -4.3646 C   0  0  0  0  0  0  0  0  0  0  0  0
    4.2069    0.0114   -3.2030 O   0  0  0  0  0  0  0  0  0  0  0  0
    3.6528   -4.2613    2.0746 C   0  0  0  0  0  0  0  0  0  0  0  0
    3.5186   -4.5779    3.4288 C   0  0  0  0  0  0  0  0  0  0  0  0
    2.6285   -5.4554    3.8976 N   0  0  0  0  0  0  0  0  0  0  0  0
    1.8083   -6.0529    3.0078 C   0  0  0  0  0  0  0  0  0  0  0  0
    0.8811   -6.9749    3.5153 C   0  0  0  0  0  0  0  0  0  0  0  0
   -0.6960   -8.3379    3.0206 H   0  0  0  0  0  0  0  0  0  0  0  0
   -0.5949   -7.7873    0.5725 H   0  0  0  0  0  0  0  0  0  0  0  0
    4.8789   -2.6177    0.3591 H   0  0  0  0  0  0  0  0  0  0  0  0
    5.3430   -0.6550   -0.7351 H   0  0  0  0  0  0  0  0  0  0  0  0
    1.8547   -3.6978   -2.7023 H   0  0  0  0  0  0  0  0  0  0  0  0
    4.2020   -0.5389   -5.1109 H   0  0  0  0  0  0  0  0  0  0  0  0
    2.9091    0.6251   -4.6474 H   0  0  0  0  0  0  0  0  0  0  0  0
    4.4832   -3.5977    1.9132 H   0  0  0  0  0  0  0  0  0  0  0  0
    4.2086   -4.1095    4.1055 H   0  0  0  0  0  0  0  0  0  0  0  0
    0.8908   -7.1775    4.5735 H   0  0  0  0  0  0  0  0  0  0  0  0
    2.5118   -5.2968   -0.9249 H   0  0  0  0  0  0  0  0  0  0  0  0
  1 20  2  0
  1  2  1  0
  1 21  1  0
  2  3  2  0
  2 22  1  0
  3  4  1  0
  4 19  2  0
  4  5  1  0
  5  6  1  0
  5 16  2  0
  6  7  1  0
  6 31  1  0
  7 12  1  0
  7  8  2  0
  8  9  1  0
  8 23  1  0
  9 10  2  0
  9 24  1  0
 10 15  1  0
 10 11  1  0
 11 12  2  0
 11 13  1  0
 12 25  1  0
 13 14  1  0
 14 15  1  0
 14 26  1  0
 14 27  1  0
 16 17  1  0
 16 28  1  0
 17 18  2  0
 17 29  1  0
 18 19  1  0
 19 20  1  0
 20 30  1  0
M  END
>  <i_m_ct_stereo_status>  (315) 
1

>  <s_m_source_file>  (315) 
/var/tmp/pbs.5076255.sched01/tmpalt_vnqi/12934k3la1h.sdf

>  <i_m_source_file_index>  (315) 
16

>  <i_lp_mmshare_version>  (315) 
48012

>  <i_f3d_flags>  (315) 
0

>  <s_epik_input>  (315) 
bjFbY0hdW2NIXVtjSF1jKGMxMilbbkhdW2NIXVtjSF1jXDI9Ti9jKFtjSF1bY0hdMylbY0hdYyhjMzQpT1tDSDJdTzQ=

>  <s_epik_cmdline>  (315) 
J2VwaWtfcHl0aG9uJywgJy1waHQnLCAnMi4wJywgJy1waCcsICc3LjAnLCAnLXRuJywgJzgnLCAnLW1hJywgJzIwMCcsICctaW1hZScsICc8aW5maWxlLm1hZT4nLCAnLW9tYWUnLCAnPG91dGZpbGUubWFlPic=

>  <r_epik_Ionization_Penalty>  (315) 
0.00311764

>  <r_epik_Ionization_Penalty_Charging>  (315) 
0

>  <r_epik_Ionization_Penalty_Neutral>  (315) 
0.00311764

>  <r_epik_State_Penalty>  (315) 
0.143005

>  <r_epik_Charging_Adjusted_Penalty>  (315) 
0.143005

>  <i_epik_Tot_Q>  (315) 
0

>  <i_epik_Tot_abs_Q>  (315) 
0

>  <s_epik_Chemistry_Notes>  (315) 
This compound contains an acetal/aminal-like group ( X-CH(R)-Y where X, Y are N, S, or O) that may be acid/base labile, releasing an aldehyde.

>  <s_lp_Force_Field>  (315) 
OPLS3e

>  <r_lp_Energy>  (315) 
45.6178

>  <b_lp_Chiralities_Consistent>  (315) 
1

>  <s_lp_Variant>  (315) 
98:0-1

>  <s_i_glide_gridfile>  (315) 
pfpi4k_grid

>  <i_i_glide_lignum>  (315) 
16

>  <i_i_glide_rotatable_bonds>  (315) 
2

>  <r_i_docking_score>  (315) 
-4.04842

>  <r_i_glide_ligand_efficiency>  (315) 
-0.202421

>  <r_i_glide_ligand_efficiency_sa>  (315) 
-0.549456

>  <r_i_glide_ligand_efficiency_ln>  (315) 
-1.01319

>  <r_i_glide_gscore>  (315) 
-4.04842

>  <r_i_glide_lipo>  (315) 
-0.103505

>  <r_i_glide_hbond>  (315) 
-0.417041

>  <r_i_glide_metal>  (315) 
-0

>  <r_i_glide_rewards>  (315) 
-2.00677

>  <r_i_glide_evdw>  (315) 
-25.3492

>  <r_i_glide_ecoul>  (315) 
-4.72294

>  <r_i_glide_erotb>  (315) 
0.505712

>  <r_i_glide_esite>  (315) 
-0.0509213

>  <r_i_glide_emodel>  (315) 
-33.9284

>  <r_i_glide_energy>  (315) 
-30.0721

>  <r_i_glide_einternal>  (315) 
4.25583

>  <r_i_glide_intrahb_reward>  (315) 
-0

>  <i_i_glide_confnum>  (315) 
6

>  <i_i_glide_posenum>  (315) 
33

>  <r_i_glide_eff_state_penalty>  (315) 
0

>  <ligand_id>  (315) 
98

>  <original_smiles>  (315) 
c1cnc2c(=Nc3ccc4c(c3)OCO4)cc[nH]c2c1

>  <smiles>  (315) 
[H]c1nc2c(N([H])c3c([H])c([H])c4c(c3[H])OC([H])([H])O4)c([H])c([H])nc2c([H])c1[H]

$$$$
98:0:1
     RDKit          3D

 31 34  0  0  1  0  0  0  0  0999 V2000
    4.7137   -3.4307   -3.4287 C   0  0  0  0  0  0  0  0  0  0  0  0
    3.4661   -2.9943   -2.9507 C   0  0  0  0  0  0  0  0  0  0  0  0
    3.3338   -2.3170   -1.7870 N   0  0  0  0  0  0  0  0  0  0  0  0
    4.4210   -2.0243   -1.0364 C   0  0  0  0  0  0  0  0  0  0  0  0
    4.3079   -1.2708    0.1748 C   0  0  0  0  0  0  0  0  0  0  0  0
    3.0317   -0.8537    0.6310 N   0  0  0  0  0  0  0  0  0  0  0  0
    2.6685   -0.1200    1.7793 C   0  0  0  0  0  0  0  0  0  0  0  0
    3.4244   -0.1929    2.9836 C   0  0  0  0  0  0  0  0  0  0  0  0
    3.1326    0.6235    4.0924 C   0  0  0  0  0  0  0  0  0  0  0  0
    2.0045    1.4443    4.0145 C   0  0  0  0  0  0  0  0  0  0  0  0
    1.2061    1.4758    2.8912 C   0  0  0  0  0  0  0  0  0  0  0  0
    1.5150    0.7117    1.7482 C   0  0  0  0  0  0  0  0  0  0  0  0
    0.1586    2.3112    3.1080 O   0  0  0  0  0  0  0  0  0  0  0  0
    0.4132    2.9318    4.3422 C   0  0  0  0  0  0  0  0  0  0  0  0
    1.4963    2.2818    4.9517 O   0  0  0  0  0  0  0  0  0  0  0  0
    5.5095   -0.9519    0.8565 C   0  0  0  0  0  0  0  0  0  0  0  0
    6.7308   -1.4698    0.4063 C   0  0  0  0  0  0  0  0  0  0  0  0
    6.8458   -2.1919   -0.7196 N   0  0  0  0  0  0  0  0  0  0  0  0
    5.7300   -2.4405   -1.4370 C   0  0  0  0  0  0  0  0  0  0  0  0
    5.8548   -3.1431   -2.6586 C   0  0  0  0  0  0  0  0  0  0  0  0
    4.8095   -3.9938   -4.3457 H   0  0  0  0  0  0  0  0  0  0  0  0
    2.5649   -3.2010   -3.5135 H   0  0  0  0  0  0  0  0  0  0  0  0
    4.2386   -0.8953    3.1137 H   0  0  0  0  0  0  0  0  0  0  0  0
    3.7463    0.6171    4.9770 H   0  0  0  0  0  0  0  0  0  0  0  0
    0.8691    0.7592    0.8841 H   0  0  0  0  0  0  0  0  0  0  0  0
    0.7289    3.9625    4.1643 H   0  0  0  0  0  0  0  0  0  0  0  0
   -0.4620    2.9096    5.0007 H   0  0  0  0  0  0  0  0  0  0  0  0
    5.5642   -0.3107    1.7202 H   0  0  0  0  0  0  0  0  0  0  0  0
    7.6402   -1.2636    0.9518 H   0  0  0  0  0  0  0  0  0  0  0  0
    6.8376   -3.4572   -2.9750 H   0  0  0  0  0  0  0  0  0  0  0  0
    2.2796   -1.0262   -0.0450 H   0  0  0  0  0  0  0  0  0  0  0  0
  1 20  2  0
  1  2  1  0
  1 21  1  0
  2  3  2  0
  2 22  1  0
  3  4  1  0
  4 19  2  0
  4  5  1  0
  5  6  1  0
  5 16  2  0
  6  7  1  0
  6 31  1  0
  7 12  1  0
  7  8  2  0
  8  9  1  0
  8 23  1  0
  9 10  2  0
  9 24  1  0
 10 15  1  0
 10 11  1  0
 11 12  2  0
 11 13  1  0
 12 25  1  0
 13 14  1  0
 14 15  1  0
 14 26  1  0
 14 27  1  0
 16 17  1  0
 16 28  1  0
 17 18  2  0
 17 29  1  0
 18 19  1  0
 19 20  1  0
 20 30  1  0
M  END
>  <i_m_ct_stereo_status>  (316) 
1

>  <s_m_source_file>  (316) 
/var/tmp/pbs.5076255.sched01/tmpalt_vnqi/12934k3la1h.sdf

>  <i_m_source_file_index>  (316) 
16

>  <i_lp_mmshare_version>  (316) 
48012

>  <i_f3d_flags>  (316) 
0

>  <s_epik_input>  (316) 
bjFbY0hdW2NIXVtjSF1jKGMxMilbbkhdW2NIXVtjSF1jXDI9Ti9jKFtjSF1bY0hdMylbY0hdYyhjMzQpT1tDSDJdTzQ=

>  <s_epik_cmdline>  (316) 
J2VwaWtfcHl0aG9uJywgJy1waHQnLCAnMi4wJywgJy1waCcsICc3LjAnLCAnLXRuJywgJzgnLCAnLW1hJywgJzIwMCcsICctaW1hZScsICc8aW5maWxlLm1hZT4nLCAnLW9tYWUnLCAnPG91dGZpbGUubWFlPic=

>  <r_epik_Ionization_Penalty>  (316) 
0.00311764

>  <r_epik_Ionization_Penalty_Charging>  (316) 
0

>  <r_epik_Ionization_Penalty_Neutral>  (316) 
0.00311764

>  <r_epik_State_Penalty>  (316) 
0.143005

>  <r_epik_Charging_Adjusted_Penalty>  (316) 
0.143005

>  <i_epik_Tot_Q>  (316) 
0

>  <i_epik_Tot_abs_Q>  (316) 
0

>  <s_epik_Chemistry_Notes>  (316) 
This compound contains an acetal/aminal-like group ( X-CH(R)-Y where X, Y are N, S, or O) that may be acid/base labile, releasing an aldehyde.

>  <s_lp_Force_Field>  (316) 
OPLS3e

>  <r_lp_Energy>  (316) 
45.6178

>  <b_lp_Chiralities_Consistent>  (316) 
1

>  <s_lp_Variant>  (316) 
98:0-1

>  <s_i_glide_gridfile>  (316) 
pfpi4k_grid

>  <i_i_glide_lignum>  (316) 
16

>  <i_i_glide_rotatable_bonds>  (316) 
2

>  <r_i_docking_score>  (316) 
-3.86046

>  <r_i_glide_ligand_efficiency>  (316) 
-0.193023

>  <r_i_glide_ligand_efficiency_sa>  (316) 
-0.523945

>  <r_i_glide_ligand_efficiency_ln>  (316) 
-0.966145

>  <r_i_glide_gscore>  (316) 
-3.86046

>  <r_i_glide_lipo>  (316) 
-0.572826

>  <r_i_glide_hbond>  (316) 
-0.306985

>  <r_i_glide_metal>  (316) 
-0

>  <r_i_glide_rewards>  (316) 
-1.60045

>  <r_i_glide_evdw>  (316) 
-24.9373

>  <r_i_glide_ecoul>  (316) 
-3.57837

>  <r_i_glide_erotb>  (316) 
0.505712

>  <r_i_glide_esite>  (316) 
-0.102281

>  <r_i_glide_emodel>  (316) 
-34.7782

>  <r_i_glide_energy>  (316) 
-28.5157

>  <r_i_glide_einternal>  (316) 
1.12095

>  <r_i_glide_intrahb_reward>  (316) 
-0

>  <i_i_glide_confnum>  (316) 
5

>  <i_i_glide_posenum>  (316) 
19

>  <r_i_glide_eff_state_penalty>  (316) 
0

>  <ligand_id>  (316) 
98

>  <original_smiles>  (316) 
c1cnc2c(=Nc3ccc4c(c3)OCO4)cc[nH]c2c1

>  <smiles>  (316) 
[H]c1nc2c(N([H])c3c([H])c([H])c4c(c3[H])OC([H])([H])O4)c([H])c([H])nc2c([H])c1[H]

$$$$
98:0:2
     RDKit          3D

 31 34  0  0  1  0  0  0  0  0999 V2000
    3.4025   -1.1625   -3.2792 C   0  0  0  0  0  0  0  0  0  0  0  0
    3.0223   -2.5097   -3.1855 C   0  0  0  0  0  0  0  0  0  0  0  0
    3.5430   -3.3545   -2.2615 N   0  0  0  0  0  0  0  0  0  0  0  0
    4.4579   -2.8943   -1.3694 C   0  0  0  0  0  0  0  0  0  0  0  0
    4.9953   -3.7478   -0.3548 C   0  0  0  0  0  0  0  0  0  0  0  0
    4.6035   -5.0926   -0.2929 N   0  0  0  0  0  0  0  0  0  0  0  0
    5.1213   -6.1510    0.4896 C   0  0  0  0  0  0  0  0  0  0  0  0
    6.4990   -6.2081    0.8773 C   0  0  0  0  0  0  0  0  0  0  0  0
    6.9944   -7.2495    1.6863 C   0  0  0  0  0  0  0  0  0  0  0  0
    6.0980   -8.2437    2.0881 C   0  0  0  0  0  0  0  0  0  0  0  0
    4.7757   -8.2255    1.6984 C   0  0  0  0  0  0  0  0  0  0  0  0
    4.2586   -7.2012    0.8888 C   0  0  0  0  0  0  0  0  0  0  0  0
    4.1411   -9.3113    2.2267 O   0  0  0  0  0  0  0  0  0  0  0  0
    5.0838   -9.9313    3.0634 C   0  0  0  0  0  0  0  0  0  0  0  0
    6.3360   -9.3226    2.8764 O   0  0  0  0  0  0  0  0  0  0  0  0
    5.9032   -3.1874    0.5770 C   0  0  0  0  0  0  0  0  0  0  0  0
    6.3022   -1.8592    0.4261 C   0  0  0  0  0  0  0  0  0  0  0  0
    5.8191   -1.0546   -0.5408 N   0  0  0  0  0  0  0  0  0  0  0  0
    4.8996   -1.5473   -1.4001 C   0  0  0  0  0  0  0  0  0  0  0  0
    4.3479   -0.6754   -2.3671 C   0  0  0  0  0  0  0  0  0  0  0  0
    2.9598   -0.4944   -4.0109 H   0  0  0  0  0  0  0  0  0  0  0  0
    2.2748   -2.9197   -3.8557 H   0  0  0  0  0  0  0  0  0  0  0  0
    7.2063   -5.5047    0.4874 H   0  0  0  0  0  0  0  0  0  0  0  0
    8.0263   -7.2747    1.9885 H   0  0  0  0  0  0  0  0  0  0  0  0
    3.2083   -7.2057    0.6105 H   0  0  0  0  0  0  0  0  0  0  0  0
    4.7888   -9.7702    4.1053 H   0  0  0  0  0  0  0  0  0  0  0  0
    5.1473  -11.0077    2.8659 H   0  0  0  0  0  0  0  0  0  0  0  0
    6.3051   -3.7480    1.4055 H   0  0  0  0  0  0  0  0  0  0  0  0
    7.0253   -1.4229    1.1027 H   0  0  0  0  0  0  0  0  0  0  0  0
    4.6295    0.3671   -2.3807 H   0  0  0  0  0  0  0  0  0  0  0  0
    3.8395   -5.3230   -0.9277 H   0  0  0  0  0  0  0  0  0  0  0  0
  1 20  2  0
  1  2  1  0
  1 21  1  0
  2  3  2  0
  2 22  1  0
  3  4  1  0
  4 19  2  0
  4  5  1  0
  5  6  1  0
  5 16  2  0
  6  7  1  0
  6 31  1  0
  7 12  1  0
  7  8  2  0
  8  9  1  0
  8 23  1  0
  9 10  2  0
  9 24  1  0
 10 15  1  0
 10 11  1  0
 11 12  2  0
 11 13  1  0
 12 25  1  0
 13 14  1  0
 14 15  1  0
 14 26  1  0
 14 27  1  0
 16 17  1  0
 16 28  1  0
 17 18  2  0
 17 29  1  0
 18 19  1  0
 19 20  1  0
 20 30  1  0
M  END
>  <i_m_ct_stereo_status>  (317) 
1

>  <s_m_source_file>  (317) 
/var/tmp/pbs.5076255.sched01/tmpalt_vnqi/12934k3la1h.sdf

>  <i_m_source_file_index>  (317) 
16

>  <i_lp_mmshare_version>  (317) 
48012

>  <i_f3d_flags>  (317) 
0

>  <s_epik_input>  (317) 
bjFbY0hdW2NIXVtjSF1jKGMxMilbbkhdW2NIXVtjSF1jXDI9Ti9jKFtjSF1bY0hdMylbY0hdYyhjMzQpT1tDSDJdTzQ=

>  <s_epik_cmdline>  (317) 
J2VwaWtfcHl0aG9uJywgJy1waHQnLCAnMi4wJywgJy1waCcsICc3LjAnLCAnLXRuJywgJzgnLCAnLW1hJywgJzIwMCcsICctaW1hZScsICc8aW5maWxlLm1hZT4nLCAnLW9tYWUnLCAnPG91dGZpbGUubWFlPic=

>  <r_epik_Ionization_Penalty>  (317) 
0.00311764

>  <r_epik_Ionization_Penalty_Charging>  (317) 
0

>  <r_epik_Ionization_Penalty_Neutral>  (317) 
0.00311764

>  <r_epik_State_Penalty>  (317) 
0.143005

>  <r_epik_Charging_Adjusted_Penalty>  (317) 
0.143005

>  <i_epik_Tot_Q>  (317) 
0

>  <i_epik_Tot_abs_Q>  (317) 
0

>  <s_epik_Chemistry_Notes>  (317) 
This compound contains an acetal/aminal-like group ( X-CH(R)-Y where X, Y are N, S, or O) that may be acid/base labile, releasing an aldehyde.

>  <s_lp_Force_Field>  (317) 
OPLS3e

>  <r_lp_Energy>  (317) 
45.6178

>  <b_lp_Chiralities_Consistent>  (317) 
1

>  <s_lp_Variant>  (317) 
98:0-1

>  <s_i_glide_gridfile>  (317) 
pfpi4k_grid

>  <i_i_glide_lignum>  (317) 
16

>  <i_i_glide_rotatable_bonds>  (317) 
2

>  <r_i_docking_score>  (317) 
-3.84457

>  <r_i_glide_ligand_efficiency>  (317) 
-0.192229

>  <r_i_glide_ligand_efficiency_sa>  (317) 
-0.521789

>  <r_i_glide_ligand_efficiency_ln>  (317) 
-0.962169

>  <r_i_glide_gscore>  (317) 
-3.84457

>  <r_i_glide_lipo>  (317) 
-0.848108

>  <r_i_glide_hbond>  (317) 
-0.337593

>  <r_i_glide_metal>  (317) 
-0

>  <r_i_glide_rewards>  (317) 
-1.60045

>  <r_i_glide_evdw>  (317) 
-24.8996

>  <r_i_glide_ecoul>  (317) 
-1.84788

>  <r_i_glide_erotb>  (317) 
0.505712

>  <r_i_glide_esite>  (317) 
-0.0419662

>  <r_i_glide_emodel>  (317) 
-33.3007

>  <r_i_glide_energy>  (317) 
-26.7475

>  <r_i_glide_einternal>  (317) 
0.964433

>  <r_i_glide_intrahb_reward>  (317) 
-0

>  <i_i_glide_confnum>  (317) 
5

>  <i_i_glide_posenum>  (317) 
16

>  <r_i_glide_eff_state_penalty>  (317) 
0

>  <ligand_id>  (317) 
98

>  <original_smiles>  (317) 
c1cnc2c(=Nc3ccc4c(c3)OCO4)cc[nH]c2c1

>  <smiles>  (317) 
[H]c1nc2c(N([H])c3c([H])c([H])c4c(c3[H])OC([H])([H])O4)c([H])c([H])nc2c([H])c1[H]

$$$$
98:1:0
     RDKit          3D

 32 35  0  0  1  0  0  0  0  0999 V2000
    1.7245   -8.3680    2.4374 C   0  0  0  0  0  0  0  0  0  0  0  0
    1.0056   -7.4977    1.5890 C   0  0  0  0  0  0  0  0  0  0  0  0
    1.5673   -6.4276    0.9674 N   0  0  0  0  0  0  0  0  0  0  0  0
    2.8960   -6.2325    1.1723 C   0  0  0  0  0  0  0  0  0  0  0  0
    3.5501   -5.1017    0.4633 C   0  0  0  0  0  0  0  0  0  0  0  0
    2.8196   -4.3660   -0.3106 N   0  0  0  0  0  0  0  0  0  0  0  0
    3.1773   -3.1605   -1.0390 C   0  0  0  0  0  0  0  0  0  0  0  0
    3.9965   -2.1724   -0.4226 C   0  0  0  0  0  0  0  0  0  0  0  0
    4.4426   -1.0531   -1.1424 C   0  0  0  0  0  0  0  0  0  0  0  0
    3.9821   -0.9087   -2.4628 C   0  0  0  0  0  0  0  0  0  0  0  0
    3.1510   -1.8323   -3.0590 C   0  0  0  0  0  0  0  0  0  0  0  0
    2.7231   -2.9879   -2.3788 C   0  0  0  0  0  0  0  0  0  0  0  0
    2.8312   -1.3964   -4.3077 O   0  0  0  0  0  0  0  0  0  0  0  0
    3.3728   -0.1030   -4.4170 C   0  0  0  0  0  0  0  0  0  0  0  0
    4.2083    0.1216   -3.3089 O   0  0  0  0  0  0  0  0  0  0  0  0
    4.9501   -4.9277    0.6665 C   0  0  0  0  0  0  0  0  0  0  0  0
    5.6375   -5.7179    1.5084 C   0  0  0  0  0  0  0  0  0  0  0  0
    5.0471   -6.7570    2.1889 N   0  0  0  0  0  0  0  0  0  0  0  0
    3.6937   -7.0475    2.0175 C   0  0  0  0  0  0  0  0  0  0  0  0
    3.0942   -8.1373    2.6619 C   0  0  0  0  0  0  0  0  0  0  0  0
    5.6088   -7.3431    2.7905 H   0  0  0  0  0  0  0  0  0  0  0  0
    1.2439   -9.2038    2.9090 H   0  0  0  0  0  0  0  0  0  0  0  0
   -0.0401   -7.6915    1.3949 H   0  0  0  0  0  0  0  0  0  0  0  0
    4.2923   -2.2296    0.6163 H   0  0  0  0  0  0  0  0  0  0  0  0
    5.0541   -0.2868   -0.6922 H   0  0  0  0  0  0  0  0  0  0  0  0
    2.0613   -3.6982   -2.8539 H   0  0  0  0  0  0  0  0  0  0  0  0
    3.9289    0.0253   -5.3464 H   0  0  0  0  0  0  0  0  0  0  0  0
    2.5581    0.6232   -4.3913 H   0  0  0  0  0  0  0  0  0  0  0  0
    5.4645   -4.1595    0.1241 H   0  0  0  0  0  0  0  0  0  0  0  0
    6.6980   -5.5906    1.6891 H   0  0  0  0  0  0  0  0  0  0  0  0
    3.6721   -8.7779    3.3074 H   0  0  0  0  0  0  0  0  0  0  0  0
    1.9112   -4.7843   -0.4942 H   0  0  0  0  0  0  0  0  0  0  0  0
  1 20  2  0
  1  2  1  0
  1 22  1  0
  2  3  2  0
  2 23  1  0
  3  4  1  0
  4 19  2  0
  4  5  1  0
  5  6  2  3
  5 16  1  0
  6  7  1  0
  6 32  1  0
  7 12  1  0
  7  8  2  0
  8  9  1  0
  8 24  1  0
  9 10  2  0
  9 25  1  0
 10 15  1  0
 10 11  1  0
 11 12  2  0
 11 13  1  0
 12 26  1  0
 13 14  1  0
 14 15  1  0
 14 27  1  0
 14 28  1  0
 16 17  2  0
 16 29  1  0
 17 18  1  0
 17 30  1  0
 18 21  1  0
 18 19  1  0
 19 20  1  0
 20 31  1  0
M  CHG  1   6   1
M  END
>  <i_m_ct_stereo_status>  (318) 
1

>  <s_m_source_file>  (318) 
/var/tmp/pbs.5076255.sched01/tmpalt_vnqi/12934k3la1h.sdf

>  <i_m_source_file_index>  (318) 
17

>  <i_lp_mmshare_version>  (318) 
48012

>  <i_f3d_flags>  (318) 
0

>  <s_epik_input>  (318) 
bjFbY0hdW2NIXVtjSF1jKGMxMilbbkhdW2NIXVtjSF1jXDI9Ti9jKFtjSF1bY0hdMylbY0hdYyhjMzQpT1tDSDJdTzQ=

>  <s_epik_cmdline>  (318) 
J2VwaWtfcHl0aG9uJywgJy1waHQnLCAnMi4wJywgJy1waCcsICc3LjAnLCAnLXRuJywgJzgnLCAnLW1hJywgJzIwMCcsICctaW1hZScsICc8aW5maWxlLm1hZT4nLCAnLW9tYWUnLCAnPG91dGZpbGUubWFlPic=

>  <r_epik_Ionization_Penalty>  (318) 
0.0334331

>  <r_epik_Ionization_Penalty_Charging>  (318) 
0.000112108

>  <r_epik_Ionization_Penalty_Neutral>  (318) 
0.033321

>  <r_epik_State_Penalty>  (318) 
0.912251

>  <r_epik_Charging_Adjusted_Penalty>  (318) 
0.912363

>  <i_epik_Tot_Q>  (318) 
1

>  <i_epik_Tot_abs_Q>  (318) 
1

>  <s_epik_Chemistry_Notes>  (318) 
This compound has an imine and may undergo hydrolysis. This compound contains an acetal/aminal-like group ( X-CH(R)-Y where X, Y are N, S, or O) that may be acid/base labile, releasing an aldehyde.

>  <s_lp_Force_Field>  (318) 
OPLS3e

>  <r_lp_Energy>  (318) 
55.3575

>  <b_lp_Chiralities_Consistent>  (318) 
1

>  <s_lp_Variant>  (318) 
98:0-2

>  <s_i_glide_gridfile>  (318) 
pfpi4k_grid

>  <i_i_glide_lignum>  (318) 
17

>  <i_i_glide_rotatable_bonds>  (318) 
1

>  <r_i_docking_score>  (318) 
-4.07947

>  <r_i_glide_ligand_efficiency>  (318) 
-0.203973

>  <r_i_glide_ligand_efficiency_sa>  (318) 
-0.553669

>  <r_i_glide_ligand_efficiency_ln>  (318) 
-1.02096

>  <r_i_glide_gscore>  (318) 
-4.07947

>  <r_i_glide_lipo>  (318) 
-0.192123

>  <r_i_glide_hbond>  (318) 
0

>  <r_i_glide_metal>  (318) 
-0

>  <r_i_glide_rewards>  (318) 
-1.90414

>  <r_i_glide_evdw>  (318) 
-26.8723

>  <r_i_glide_ecoul>  (318) 
-3.94397

>  <r_i_glide_erotb>  (318) 
0

>  <r_i_glide_esite>  (318) 
-0.0480009

>  <r_i_glide_emodel>  (318) 
-37.1199

>  <r_i_glide_energy>  (318) 
-30.8162

>  <r_i_glide_einternal>  (318) 
1.83691

>  <r_i_glide_intrahb_reward>  (318) 
-0

>  <i_i_glide_confnum>  (318) 
1

>  <i_i_glide_posenum>  (318) 
13

>  <r_i_glide_eff_state_penalty>  (318) 
0

>  <ligand_id>  (318) 
98

>  <original_smiles>  (318) 
c1cnc2c(=Nc3ccc4c(c3)OCO4)cc[nH]c2c1

>  <smiles>  (318) 
[H]c1nc2c(=[N+]([H])c3c([H])c([H])c4c(c3[H])OC([H])([H])O4)c([H])c([H])n([H])c2c([H])c1[H]

$$$$
98:1:1
     RDKit          3D

 32 35  0  0  1  0  0  0  0  0999 V2000
    1.4739   -9.7074    3.8109 C   0  0  0  0  0  0  0  0  0  0  0  0
    2.8192   -9.2894    3.8736 C   0  0  0  0  0  0  0  0  0  0  0  0
    3.3371   -8.2815    3.1243 N   0  0  0  0  0  0  0  0  0  0  0  0
    2.4907   -7.6571    2.2721 C   0  0  0  0  0  0  0  0  0  0  0  0
    3.0263   -6.5130    1.4711 C   0  0  0  0  0  0  0  0  0  0  0  0
    4.2915   -6.2293    1.5524 N   0  0  0  0  0  0  0  0  0  0  0  0
    5.0916   -5.2298    0.8220 C   0  0  0  0  0  0  0  0  0  0  0  0
    4.6437   -4.7466   -0.4494 C   0  0  0  0  0  0  0  0  0  0  0  0
    5.2883   -3.6832   -1.1086 C   0  0  0  0  0  0  0  0  0  0  0  0
    6.4831   -3.2090   -0.5525 C   0  0  0  0  0  0  0  0  0  0  0  0
    6.9849   -3.7408    0.6256 C   0  0  0  0  0  0  0  0  0  0  0  0
    6.3087   -4.7352    1.3754 C   0  0  0  0  0  0  0  0  0  0  0  0
    8.1947   -3.1643    0.8707 O   0  0  0  0  0  0  0  0  0  0  0  0
    8.4676   -2.3503   -0.2402 C   0  0  0  0  0  0  0  0  0  0  0  0
    7.3354   -2.2931   -1.0607 O   0  0  0  0  0  0  0  0  0  0  0  0
    2.0595   -5.8303    0.6501 C   0  0  0  0  0  0  0  0  0  0  0  0
    0.8001   -6.2728    0.5151 C   0  0  0  0  0  0  0  0  0  0  0  0
    0.2872   -7.3208    1.2547 N   0  0  0  0  0  0  0  0  0  0  0  0
    1.1153   -8.0171    2.1435 C   0  0  0  0  0  0  0  0  0  0  0  0
    0.5987   -9.0617    2.9239 C   0  0  0  0  0  0  0  0  0  0  0  0
   -0.6724   -7.6166    1.1233 H   0  0  0  0  0  0  0  0  0  0  0  0
    1.1027  -10.5016    4.4239 H   0  0  0  0  0  0  0  0  0  0  0  0
    3.4937   -9.7825    4.5585 H   0  0  0  0  0  0  0  0  0  0  0  0
    3.8049   -5.1468   -0.9785 H   0  0  0  0  0  0  0  0  0  0  0  0
    4.8857   -3.3019   -2.0343 H   0  0  0  0  0  0  0  0  0  0  0  0
    6.7358   -5.1080    2.3000 H   0  0  0  0  0  0  0  0  0  0  0  0
    8.7719   -1.3456    0.0472 H   0  0  0  0  0  0  0  0  0  0  0  0
    9.2469   -2.8391   -0.8152 H   0  0  0  0  0  0  0  0  0  0  0  0
    2.3204   -4.9283    0.1231 H   0  0  0  0  0  0  0  0  0  0  0  0
    0.0976   -5.8301   -0.1730 H   0  0  0  0  0  0  0  0  0  0  0  0
   -0.4435   -9.3437    2.8361 H   0  0  0  0  0  0  0  0  0  0  0  0
    4.7784   -6.7748    2.2624 H   0  0  0  0  0  0  0  0  0  0  0  0
  1 20  2  0
  1  2  1  0
  1 22  1  0
  2  3  2  0
  2 23  1  0
  3  4  1  0
  4 19  2  0
  4  5  1  0
  5  6  2  3
  5 16  1  0
  6  7  1  0
  6 32  1  0
  7 12  1  0
  7  8  2  0
  8  9  1  0
  8 24  1  0
  9 10  2  0
  9 25  1  0
 10 15  1  0
 10 11  1  0
 11 12  2  0
 11 13  1  0
 12 26  1  0
 13 14  1  0
 14 15  1  0
 14 27  1  0
 14 28  1  0
 16 17  2  0
 16 29  1  0
 17 18  1  0
 17 30  1  0
 18 21  1  0
 18 19  1  0
 19 20  1  0
 20 31  1  0
M  CHG  1   6   1
M  END
>  <i_m_ct_stereo_status>  (319) 
1

>  <s_m_source_file>  (319) 
/var/tmp/pbs.5076255.sched01/tmpalt_vnqi/12934k3la1h.sdf

>  <i_m_source_file_index>  (319) 
17

>  <i_lp_mmshare_version>  (319) 
48012

>  <i_f3d_flags>  (319) 
0

>  <s_epik_input>  (319) 
bjFbY0hdW2NIXVtjSF1jKGMxMilbbkhdW2NIXVtjSF1jXDI9Ti9jKFtjSF1bY0hdMylbY0hdYyhjMzQpT1tDSDJdTzQ=

>  <s_epik_cmdline>  (319) 
J2VwaWtfcHl0aG9uJywgJy1waHQnLCAnMi4wJywgJy1waCcsICc3LjAnLCAnLXRuJywgJzgnLCAnLW1hJywgJzIwMCcsICctaW1hZScsICc8aW5maWxlLm1hZT4nLCAnLW9tYWUnLCAnPG91dGZpbGUubWFlPic=

>  <r_epik_Ionization_Penalty>  (319) 
0.0334331

>  <r_epik_Ionization_Penalty_Charging>  (319) 
0.000112108

>  <r_epik_Ionization_Penalty_Neutral>  (319) 
0.033321

>  <r_epik_State_Penalty>  (319) 
0.912251

>  <r_epik_Charging_Adjusted_Penalty>  (319) 
0.912363

>  <i_epik_Tot_Q>  (319) 
1

>  <i_epik_Tot_abs_Q>  (319) 
1

>  <s_epik_Chemistry_Notes>  (319) 
This compound has an imine and may undergo hydrolysis. This compound contains an acetal/aminal-like group ( X-CH(R)-Y where X, Y are N, S, or O) that may be acid/base labile, releasing an aldehyde.

>  <s_lp_Force_Field>  (319) 
OPLS3e

>  <r_lp_Energy>  (319) 
55.3575

>  <b_lp_Chiralities_Consistent>  (319) 
1

>  <s_lp_Variant>  (319) 
98:0-2

>  <s_i_glide_gridfile>  (319) 
pfpi4k_grid

>  <i_i_glide_lignum>  (319) 
17

>  <i_i_glide_rotatable_bonds>  (319) 
1

>  <r_i_docking_score>  (319) 
-3.92769

>  <r_i_glide_ligand_efficiency>  (319) 
-0.196385

>  <r_i_glide_ligand_efficiency_sa>  (319) 
-0.53307

>  <r_i_glide_ligand_efficiency_ln>  (319) 
-0.982971

>  <r_i_glide_gscore>  (319) 
-3.92769

>  <r_i_glide_lipo>  (319) 
-0.449806

>  <r_i_glide_hbond>  (319) 
-0.16

>  <r_i_glide_metal>  (319) 
-0

>  <r_i_glide_rewards>  (319) 
-1.59358

>  <r_i_glide_evdw>  (319) 
-19.1784

>  <r_i_glide_ecoul>  (319) 
-4.1691

>  <r_i_glide_erotb>  (319) 
0

>  <r_i_glide_esite>  (319) 
-0.14002

>  <r_i_glide_emodel>  (319) 
-26.6445

>  <r_i_glide_energy>  (319) 
-23.3475

>  <r_i_glide_einternal>  (319) 
4.55786

>  <r_i_glide_intrahb_reward>  (319) 
-0

>  <i_i_glide_confnum>  (319) 
2

>  <i_i_glide_posenum>  (319) 
4

>  <r_i_glide_eff_state_penalty>  (319) 
0

>  <ligand_id>  (319) 
98

>  <original_smiles>  (319) 
c1cnc2c(=Nc3ccc4c(c3)OCO4)cc[nH]c2c1

>  <smiles>  (319) 
[H]c1nc2c(=[N+]([H])c3c([H])c([H])c4c(c3[H])OC([H])([H])O4)c([H])c([H])n([H])c2c([H])c1[H]

$$$$
98:1:2
     RDKit          3D

 32 35  0  0  1  0  0  0  0  0999 V2000
    2.3659  -11.8419    4.5054 C   0  0  0  0  0  0  0  0  0  0  0  0
    3.5139  -11.2667    3.9310 C   0  0  0  0  0  0  0  0  0  0  0  0
    3.4977  -10.0557    3.3013 N   0  0  0  0  0  0  0  0  0  0  0  0
    2.2933   -9.4350    3.2070 C   0  0  0  0  0  0  0  0  0  0  0  0
    2.2820   -8.1033    2.5287 C   0  0  0  0  0  0  0  0  0  0  0  0
    3.3702   -7.6890    1.9969 N   0  0  0  0  0  0  0  0  0  0  0  0
    3.7118   -6.4906    1.1901 C   0  0  0  0  0  0  0  0  0  0  0  0
    5.0669   -6.0721    1.0774 C   0  0  0  0  0  0  0  0  0  0  0  0
    5.4190   -4.9002    0.3342 C   0  0  0  0  0  0  0  0  0  0  0  0
    4.3707   -4.1522   -0.2282 C   0  0  0  0  0  0  0  0  0  0  0  0
    3.0630   -4.5540   -0.1188 C   0  0  0  0  0  0  0  0  0  0  0  0
    2.6861   -5.7469    0.5175 C   0  0  0  0  0  0  0  0  0  0  0  0
    2.2417   -3.6663   -0.7443 O   0  0  0  0  0  0  0  0  0  0  0  0
    3.0731   -2.6390   -1.1848 C   0  0  0  0  0  0  0  0  0  0  0  0
    4.4265   -3.0033   -0.9655 O   0  0  0  0  0  0  0  0  0  0  0  0
    1.0130   -7.4133    2.5436 C   0  0  0  0  0  0  0  0  0  0  0  0
   -0.0983   -7.9950    3.0124 C   0  0  0  0  0  0  0  0  0  0  0  0
   -0.1129   -9.2656    3.5855 N   0  0  0  0  0  0  0  0  0  0  0  0
    1.0841   -9.9494    3.7272 C   0  0  0  0  0  0  0  0  0  0  0  0
    1.1360  -11.1867    4.4054 C   0  0  0  0  0  0  0  0  0  0  0  0
   -0.9380   -9.6427    4.0309 H   0  0  0  0  0  0  0  0  0  0  0  0
    2.4094  -12.7954    5.0422 H   0  0  0  0  0  0  0  0  0  0  0  0
    4.4641  -11.7825    4.0281 H   0  0  0  0  0  0  0  0  0  0  0  0
    5.8569   -6.6353    1.5389 H   0  0  0  0  0  0  0  0  0  0  0  0
    6.4469   -4.5923    0.1980 H   0  0  0  0  0  0  0  0  0  0  0  0
    1.6520   -6.0256    0.4473 H   0  0  0  0  0  0  0  0  0  0  0  0
    2.8373   -2.3897   -2.2327 H   0  0  0  0  0  0  0  0  0  0  0  0
    2.8538   -1.7718   -0.5582 H   0  0  0  0  0  0  0  0  0  0  0  0
    0.9816   -6.3887    2.2108 H   0  0  0  0  0  0  0  0  0  0  0  0
   -1.0596   -7.5051    3.0276 H   0  0  0  0  0  0  0  0  0  0  0  0
    0.2272  -11.5996    4.8595 H   0  0  0  0  0  0  0  0  0  0  0  0
    4.1464   -8.3029    2.2213 H   0  0  0  0  0  0  0  0  0  0  0  0
  1 20  2  0
  1  2  1  0
  1 22  1  0
  2  3  2  0
  2 23  1  0
  3  4  1  0
  4 19  2  0
  4  5  1  0
  5  6  2  3
  5 16  1  0
  6  7  1  0
  6 32  1  0
  7 12  1  0
  7  8  2  0
  8  9  1  0
  8 24  1  0
  9 10  2  0
  9 25  1  0
 10 15  1  0
 10 11  1  0
 11 12  2  0
 11 13  1  0
 12 26  1  0
 13 14  1  0
 14 15  1  0
 14 27  1  0
 14 28  1  0
 16 17  2  0
 16 29  1  0
 17 18  1  0
 17 30  1  0
 18 21  1  0
 18 19  1  0
 19 20  1  0
 20 31  1  0
M  CHG  1   6   1
M  END
>  <i_m_ct_stereo_status>  (320) 
1

>  <s_m_source_file>  (320) 
/var/tmp/pbs.5076255.sched01/tmpalt_vnqi/12934k3la1h.sdf

>  <i_m_source_file_index>  (320) 
17

>  <i_lp_mmshare_version>  (320) 
48012

>  <i_f3d_flags>  (320) 
0

>  <s_epik_input>  (320) 
bjFbY0hdW2NIXVtjSF1jKGMxMilbbkhdW2NIXVtjSF1jXDI9Ti9jKFtjSF1bY0hdMylbY0hdYyhjMzQpT1tDSDJdTzQ=

>  <s_epik_cmdline>  (320) 
J2VwaWtfcHl0aG9uJywgJy1waHQnLCAnMi4wJywgJy1waCcsICc3LjAnLCAnLXRuJywgJzgnLCAnLW1hJywgJzIwMCcsICctaW1hZScsICc8aW5maWxlLm1hZT4nLCAnLW9tYWUnLCAnPG91dGZpbGUubWFlPic=

>  <r_epik_Ionization_Penalty>  (320) 
0.0334331

>  <r_epik_Ionization_Penalty_Charging>  (320) 
0.000112108

>  <r_epik_Ionization_Penalty_Neutral>  (320) 
0.033321

>  <r_epik_State_Penalty>  (320) 
0.912251

>  <r_epik_Charging_Adjusted_Penalty>  (320) 
0.912363

>  <i_epik_Tot_Q>  (320) 
1

>  <i_epik_Tot_abs_Q>  (320) 
1

>  <s_epik_Chemistry_Notes>  (320) 
This compound has an imine and may undergo hydrolysis. This compound contains an acetal/aminal-like group ( X-CH(R)-Y where X, Y are N, S, or O) that may be acid/base labile, releasing an aldehyde.

>  <s_lp_Force_Field>  (320) 
OPLS3e

>  <r_lp_Energy>  (320) 
55.3575

>  <b_lp_Chiralities_Consistent>  (320) 
1

>  <s_lp_Variant>  (320) 
98:0-2

>  <s_i_glide_gridfile>  (320) 
pfpi4k_grid

>  <i_i_glide_lignum>  (320) 
17

>  <i_i_glide_rotatable_bonds>  (320) 
1

>  <r_i_docking_score>  (320) 
-3.64707

>  <r_i_glide_ligand_efficiency>  (320) 
-0.182353

>  <r_i_glide_ligand_efficiency_sa>  (320) 
-0.494983

>  <r_i_glide_ligand_efficiency_ln>  (320) 
-0.91274

>  <r_i_glide_gscore>  (320) 
-3.64707

>  <r_i_glide_lipo>  (320) 
-0.349579

>  <r_i_glide_hbond>  (320) 
-0.101056

>  <r_i_glide_metal>  (320) 
-0

>  <r_i_glide_rewards>  (320) 
-1.59358

>  <r_i_glide_evdw>  (320) 
-22.0136

>  <r_i_glide_ecoul>  (320) 
-2.71381

>  <r_i_glide_erotb>  (320) 
0

>  <r_i_glide_esite>  (320) 
-0.0950984

>  <r_i_glide_emodel>  (320) 
-30.6791

>  <r_i_glide_energy>  (320) 
-24.7274

>  <r_i_glide_einternal>  (320) 
0.322714

>  <r_i_glide_intrahb_reward>  (320) 
-0

>  <i_i_glide_confnum>  (320) 
2

>  <i_i_glide_posenum>  (320) 
28

>  <r_i_glide_eff_state_penalty>  (320) 
0

>  <ligand_id>  (320) 
98

>  <original_smiles>  (320) 
c1cnc2c(=Nc3ccc4c(c3)OCO4)cc[nH]c2c1

>  <smiles>  (320) 
[H]c1nc2c(=[N+]([H])c3c([H])c([H])c4c(c3[H])OC([H])([H])O4)c([H])c([H])n([H])c2c([H])c1[H]

$$$$
98:2:0
     RDKit          3D

 32 35  0  0  1  0  0  0  0  0999 V2000
   -8.6946   -6.5751   -8.9225 C   0  0  0  0  0  0  0  0  0  0  0  0
   -7.8039   -7.6664   -8.8275 C   0  0  0  0  0  0  0  0  0  0  0  0
   -6.8978   -7.7589   -7.8576 N   0  0  0  0  0  0  0  0  0  0  0  0
   -6.9632   -6.9740   -6.7627 C   0  0  0  0  0  0  0  0  0  0  0  0
   -6.0971   -7.2568   -5.5519 C   0  0  0  0  0  0  0  0  0  0  0  0
   -5.4258   -8.3539   -5.3387 N   0  0  0  0  0  0  0  0  0  0  0  0
   -5.3463   -9.6569   -5.9661 C   0  0  0  0  0  0  0  0  0  0  0  0
   -4.1723  -10.4442   -5.8409 C   0  0  0  0  0  0  0  0  0  0  0  0
   -4.0712  -11.6641   -6.5706 C   0  0  0  0  0  0  0  0  0  0  0  0
   -5.1277  -12.0171   -7.4321 C   0  0  0  0  0  0  0  0  0  0  0  0
   -6.2611  -11.2552   -7.5057 C   0  0  0  0  0  0  0  0  0  0  0  0
   -6.4450  -10.1579   -6.6876 C   0  0  0  0  0  0  0  0  0  0  0  0
   -7.1412  -11.7749   -8.3831 O   0  0  0  0  0  0  0  0  0  0  0  0
   -6.6136  -13.0272   -8.7059 C   0  0  0  0  0  0  0  0  0  0  0  0
   -5.2956  -13.1105   -8.2241 O   0  0  0  0  0  0  0  0  0  0  0  0
   -6.0535   -6.2179   -4.5797 C   0  0  0  0  0  0  0  0  0  0  0  0
   -6.7937   -5.1019   -4.6939 C   0  0  0  0  0  0  0  0  0  0  0  0
   -7.6942   -4.9012   -5.7415 N   0  0  0  0  0  0  0  0  0  0  0  0
   -7.7881   -5.8310   -6.7816 C   0  0  0  0  0  0  0  0  0  0  0  0
   -8.6446   -5.6128   -7.8920 C   0  0  0  0  0  0  0  0  0  0  0  0
   -8.2026   -4.0280   -5.8016 H   0  0  0  0  0  0  0  0  0  0  0  0
   -9.3456   -6.4664   -9.7752 H   0  0  0  0  0  0  0  0  0  0  0  0
   -7.8594   -8.4661   -9.5346 H   0  0  0  0  0  0  0  0  0  0  0  0
   -3.3496  -10.1456   -5.1896 H   0  0  0  0  0  0  0  0  0  0  0  0
   -3.1984  -12.3029   -6.4715 H   0  0  0  0  0  0  0  0  0  0  0  0
   -7.4109   -9.7006   -6.6988 H   0  0  0  0  0  0  0  0  0  0  0  0
   -7.2378  -13.7479   -8.1727 H   0  0  0  0  0  0  0  0  0  0  0  0
   -6.6648  -13.2016   -9.7816 H   0  0  0  0  0  0  0  0  0  0  0  0
   -5.3880   -6.3429   -3.7318 H   0  0  0  0  0  0  0  0  0  0  0  0
   -6.7440   -4.2835   -3.9783 H   0  0  0  0  0  0  0  0  0  0  0  0
   -9.2398   -4.6905   -7.9744 H   0  0  0  0  0  0  0  0  0  0  0  0
   -4.8414   -8.3178   -4.5013 H   0  0  0  0  0  0  0  0  0  0  0  0
  1 20  2  0
  1  2  1  0
  1 22  1  0
  2  3  2  0
  2 23  1  0
  3  4  1  0
  4 19  2  0
  4  5  1  0
  5  6  2  3
  5 16  1  0
  6  7  1  0
  6 32  1  0
  7 12  1  0
  7  8  2  0
  8  9  1  0
  8 24  1  0
  9 10  2  0
  9 25  1  0
 10 15  1  0
 10 11  1  0
 11 12  2  0
 11 13  1  0
 12 26  1  0
 13 14  1  0
 14 15  1  0
 14 27  1  0
 14 28  1  0
 16 17  2  0
 16 29  1  0
 17 18  1  0
 17 30  1  0
 18 21  1  0
 18 19  1  0
 19 20  1  0
 20 31  1  0
M  CHG  1   6   1
M  END
>  <i_m_ct_stereo_status>  (321) 
1

>  <s_m_source_file>  (321) 
/var/tmp/pbs.5076255.sched01/tmpalt_vnqi/12934k3la1h.sdf

>  <i_m_source_file_index>  (321) 
18

>  <i_lp_mmshare_version>  (321) 
48012

>  <i_f3d_flags>  (321) 
0

>  <s_epik_input>  (321) 
bjFbY0hdW2NIXVtjSF1jKGMxMilbbkhdW2NIXVtjSF1jXDI9Ti9jKFtjSF1bY0hdMylbY0hdYyhjMzQpT1tDSDJdTzQ=

>  <s_epik_cmdline>  (321) 
J2VwaWtfcHl0aG9uJywgJy1waHQnLCAnMi4wJywgJy1waCcsICc3LjAnLCAnLXRuJywgJzgnLCAnLW1hJywgJzIwMCcsICctaW1hZScsICc8aW5maWxlLm1hZT4nLCAnLW9tYWUnLCAnPG91dGZpbGUubWFlPic=

>  <r_epik_Ionization_Penalty>  (321) 
0.0334331

>  <r_epik_Ionization_Penalty_Charging>  (321) 
0.000112108

>  <r_epik_Ionization_Penalty_Neutral>  (321) 
0.033321

>  <r_epik_State_Penalty>  (321) 
0.912251

>  <r_epik_Charging_Adjusted_Penalty>  (321) 
0.912363

>  <i_epik_Tot_Q>  (321) 
1

>  <i_epik_Tot_abs_Q>  (321) 
1

>  <s_epik_Chemistry_Notes>  (321) 
This compound has an imine and may undergo hydrolysis. This compound contains an acetal/aminal-like group ( X-CH(R)-Y where X, Y are N, S, or O) that may be acid/base labile, releasing an aldehyde.

>  <s_lp_Force_Field>  (321) 
OPLS3e

>  <r_lp_Energy>  (321) 
58.9885

>  <b_lp_Chiralities_Consistent>  (321) 
1

>  <s_lp_Variant>  (321) 
98:0-3

>  <s_i_glide_gridfile>  (321) 
pfpi4k_grid

>  <i_i_glide_lignum>  (321) 
18

>  <i_i_glide_rotatable_bonds>  (321) 
1

>  <r_i_docking_score>  (321) 
-5.84896

>  <r_i_glide_ligand_efficiency>  (321) 
-0.292448

>  <r_i_glide_ligand_efficiency_sa>  (321) 
-0.793827

>  <r_i_glide_ligand_efficiency_ln>  (321) 
-1.4638

>  <r_i_glide_gscore>  (321) 
-5.84896

>  <r_i_glide_lipo>  (321) 
-2.39185

>  <r_i_glide_hbond>  (321) 
0

>  <r_i_glide_metal>  (321) 
-0

>  <r_i_glide_rewards>  (321) 
-1.76567

>  <r_i_glide_evdw>  (321) 
-29.5837

>  <r_i_glide_ecoul>  (321) 
-1.41505

>  <r_i_glide_erotb>  (321) 
0

>  <r_i_glide_esite>  (321) 
0

>  <r_i_glide_emodel>  (321) 
-42.3813

>  <r_i_glide_energy>  (321) 
-30.9987

>  <r_i_glide_einternal>  (321) 
1.14905

>  <r_i_glide_intrahb_reward>  (321) 
-0

>  <i_i_glide_confnum>  (321) 
2

>  <i_i_glide_posenum>  (321) 
12

>  <r_i_glide_eff_state_penalty>  (321) 
0

>  <ligand_id>  (321) 
98

>  <original_smiles>  (321) 
c1cnc2c(=Nc3ccc4c(c3)OCO4)cc[nH]c2c1

>  <smiles>  (321) 
[H]c1nc2c(=[N+]([H])c3c([H])c([H])c4c(c3[H])OC([H])([H])O4)c([H])c([H])n([H])c2c([H])c1[H]

$$$$
98:2:1
     RDKit          3D

 32 35  0  0  1  0  0  0  0  0999 V2000
   -9.1051   -6.6190   -8.2423 C   0  0  0  0  0  0  0  0  0  0  0  0
   -8.3009   -7.7731   -8.2363 C   0  0  0  0  0  0  0  0  0  0  0  0
   -7.1846   -7.8809   -7.4981 N   0  0  0  0  0  0  0  0  0  0  0  0
   -6.9311   -6.9824   -6.5261 C   0  0  0  0  0  0  0  0  0  0  0  0
   -5.8305   -7.2215   -5.5306 C   0  0  0  0  0  0  0  0  0  0  0  0
   -5.2070   -8.3703   -5.3411 N   0  0  0  0  0  0  0  0  0  0  0  0
   -5.3710   -9.7225   -5.8231 C   0  0  0  0  0  0  0  0  0  0  0  0
   -4.2409  -10.5853   -5.9285 C   0  0  0  0  0  0  0  0  0  0  0  0
   -4.4077  -11.8699   -6.5078 C   0  0  0  0  0  0  0  0  0  0  0  0
   -5.6747  -12.2337   -6.9976 C   0  0  0  0  0  0  0  0  0  0  0  0
   -6.7527  -11.3936   -6.8501 C   0  0  0  0  0  0  0  0  0  0  0  0
   -6.6569  -10.1927   -6.1646 C   0  0  0  0  0  0  0  0  0  0  0  0
   -7.8657  -11.9356   -7.3867 O   0  0  0  0  0  0  0  0  0  0  0  0
   -7.5079  -13.2437   -7.7011 C   0  0  0  0  0  0  0  0  0  0  0  0
   -6.1115  -13.3830   -7.5736 O   0  0  0  0  0  0  0  0  0  0  0  0
   -5.4658   -6.1172   -4.7265 C   0  0  0  0  0  0  0  0  0  0  0  0
   -6.1363   -4.9397   -4.7833 C   0  0  0  0  0  0  0  0  0  0  0  0
   -7.2484   -4.7567   -5.5981 N   0  0  0  0  0  0  0  0  0  0  0  0
   -7.6595   -5.7618   -6.4803 C   0  0  0  0  0  0  0  0  0  0  0  0
   -8.7426   -5.5741   -7.3765 C   0  0  0  0  0  0  0  0  0  0  0  0
   -7.6877   -3.8504   -5.6436 H   0  0  0  0  0  0  0  0  0  0  0  0
   -9.9447   -6.5373   -8.9157 H   0  0  0  0  0  0  0  0  0  0  0  0
   -8.5863   -8.6378   -8.8070 H   0  0  0  0  0  0  0  0  0  0  0  0
   -3.2621  -10.2856   -5.5542 H   0  0  0  0  0  0  0  0  0  0  0  0
   -3.5725  -12.5731   -6.5649 H   0  0  0  0  0  0  0  0  0  0  0  0
   -7.5626   -9.6696   -5.9604 H   0  0  0  0  0  0  0  0  0  0  0  0
   -7.9991  -13.8563   -6.9458 H   0  0  0  0  0  0  0  0  0  0  0  0
   -7.8555  -13.5122   -8.7007 H   0  0  0  0  0  0  0  0  0  0  0  0
   -4.6275   -6.2278   -4.0504 H   0  0  0  0  0  0  0  0  0  0  0  0
   -5.8483   -4.0658   -4.2005 H   0  0  0  0  0  0  0  0  0  0  0  0
   -9.2685   -4.6098   -7.4177 H   0  0  0  0  0  0  0  0  0  0  0  0
   -4.4403   -8.3031   -4.6815 H   0  0  0  0  0  0  0  0  0  0  0  0
  1 20  2  0
  1  2  1  0
  1 22  1  0
  2  3  2  0
  2 23  1  0
  3  4  1  0
  4 19  2  0
  4  5  1  0
  5  6  2  3
  5 16  1  0
  6  7  1  0
  6 32  1  0
  7 12  1  0
  7  8  2  0
  8  9  1  0
  8 24  1  0
  9 10  2  0
  9 25  1  0
 10 15  1  0
 10 11  1  0
 11 12  2  0
 11 13  1  0
 12 26  1  0
 13 14  1  0
 14 15  1  0
 14 27  1  0
 14 28  1  0
 16 17  2  0
 16 29  1  0
 17 18  1  0
 17 30  1  0
 18 21  1  0
 18 19  1  0
 19 20  1  0
 20 31  1  0
M  CHG  1   6   1
M  END
>  <i_m_ct_stereo_status>  (322) 
1

>  <s_m_source_file>  (322) 
/var/tmp/pbs.5076255.sched01/tmpalt_vnqi/12934k3la1h.sdf

>  <i_m_source_file_index>  (322) 
18

>  <i_lp_mmshare_version>  (322) 
48012

>  <i_f3d_flags>  (322) 
0

>  <s_epik_input>  (322) 
bjFbY0hdW2NIXVtjSF1jKGMxMilbbkhdW2NIXVtjSF1jXDI9Ti9jKFtjSF1bY0hdMylbY0hdYyhjMzQpT1tDSDJdTzQ=

>  <s_epik_cmdline>  (322) 
J2VwaWtfcHl0aG9uJywgJy1waHQnLCAnMi4wJywgJy1waCcsICc3LjAnLCAnLXRuJywgJzgnLCAnLW1hJywgJzIwMCcsICctaW1hZScsICc8aW5maWxlLm1hZT4nLCAnLW9tYWUnLCAnPG91dGZpbGUubWFlPic=

>  <r_epik_Ionization_Penalty>  (322) 
0.0334331

>  <r_epik_Ionization_Penalty_Charging>  (322) 
0.000112108

>  <r_epik_Ionization_Penalty_Neutral>  (322) 
0.033321

>  <r_epik_State_Penalty>  (322) 
0.912251

>  <r_epik_Charging_Adjusted_Penalty>  (322) 
0.912363

>  <i_epik_Tot_Q>  (322) 
1

>  <i_epik_Tot_abs_Q>  (322) 
1

>  <s_epik_Chemistry_Notes>  (322) 
This compound has an imine and may undergo hydrolysis. This compound contains an acetal/aminal-like group ( X-CH(R)-Y where X, Y are N, S, or O) that may be acid/base labile, releasing an aldehyde.

>  <s_lp_Force_Field>  (322) 
OPLS3e

>  <r_lp_Energy>  (322) 
58.9885

>  <b_lp_Chiralities_Consistent>  (322) 
1

>  <s_lp_Variant>  (322) 
98:0-3

>  <s_i_glide_gridfile>  (322) 
pfpi4k_grid

>  <i_i_glide_lignum>  (322) 
18

>  <i_i_glide_rotatable_bonds>  (322) 
1

>  <r_i_docking_score>  (322) 
-5.75708

>  <r_i_glide_ligand_efficiency>  (322) 
-0.287854

>  <r_i_glide_ligand_efficiency_sa>  (322) 
-0.781356

>  <r_i_glide_ligand_efficiency_ln>  (322) 
-1.44081

>  <r_i_glide_gscore>  (322) 
-5.75708

>  <r_i_glide_lipo>  (322) 
-2.19808

>  <r_i_glide_hbond>  (322) 
0

>  <r_i_glide_metal>  (322) 
-0

>  <r_i_glide_rewards>  (322) 
-1.98634

>  <r_i_glide_evdw>  (322) 
-30.3978

>  <r_i_glide_ecoul>  (322) 
-0.351762

>  <r_i_glide_erotb>  (322) 
0

>  <r_i_glide_esite>  (322) 
0

>  <r_i_glide_emodel>  (322) 
-41.6111

>  <r_i_glide_energy>  (322) 
-30.7496

>  <r_i_glide_einternal>  (322) 
0.943189

>  <r_i_glide_intrahb_reward>  (322) 
-0

>  <i_i_glide_confnum>  (322) 
1

>  <i_i_glide_posenum>  (322) 
3

>  <r_i_glide_eff_state_penalty>  (322) 
0

>  <ligand_id>  (322) 
98

>  <original_smiles>  (322) 
c1cnc2c(=Nc3ccc4c(c3)OCO4)cc[nH]c2c1

>  <smiles>  (322) 
[H]c1nc2c(=[N+]([H])c3c([H])c([H])c4c(c3[H])OC([H])([H])O4)c([H])c([H])n([H])c2c([H])c1[H]

$$$$
98:2:2
     RDKit          3D

 32 35  0  0  1  0  0  0  0  0999 V2000
    5.0291    0.8855    5.2611 C   0  0  0  0  0  0  0  0  0  0  0  0
    5.2368   -0.1168    4.2946 C   0  0  0  0  0  0  0  0  0  0  0  0
    4.3812   -0.3720    3.2916 N   0  0  0  0  0  0  0  0  0  0  0  0
    3.2842    0.4035    3.1496 C   0  0  0  0  0  0  0  0  0  0  0  0
    2.3808    0.1975    1.9442 C   0  0  0  0  0  0  0  0  0  0  0  0
    2.6325   -0.5610    0.9298 N   0  0  0  0  0  0  0  0  0  0  0  0
    3.7882   -1.3357    0.4934 C   0  0  0  0  0  0  0  0  0  0  0  0
    3.5979   -2.6191   -0.0884 C   0  0  0  0  0  0  0  0  0  0  0  0
    4.7102   -3.4395   -0.4079 C   0  0  0  0  0  0  0  0  0  0  0  0
    5.9888   -2.9369   -0.1221 C   0  0  0  0  0  0  0  0  0  0  0  0
    6.1658   -1.6792    0.4149 C   0  0  0  0  0  0  0  0  0  0  0  0
    5.0973   -0.8229    0.6693 C   0  0  0  0  0  0  0  0  0  0  0  0
    7.4785   -1.4455    0.6166 O   0  0  0  0  0  0  0  0  0  0  0  0
    8.1589   -2.5280    0.0471 C   0  0  0  0  0  0  0  0  0  0  0  0
    7.2144   -3.5108   -0.2976 O   0  0  0  0  0  0  0  0  0  0  0  0
    1.1651    0.9554    1.9687 C   0  0  0  0  0  0  0  0  0  0  0  0
    0.9010    1.8531    2.9314 C   0  0  0  0  0  0  0  0  0  0  0  0
    1.7732    2.1292    3.9707 N   0  0  0  0  0  0  0  0  0  0  0  0
    2.9727    1.4032    4.1118 C   0  0  0  0  0  0  0  0  0  0  0  0
    3.8564    1.6538    5.1914 C   0  0  0  0  0  0  0  0  0  0  0  0
    1.5218    2.8005    4.6825 H   0  0  0  0  0  0  0  0  0  0  0  0
    5.7606    1.0614    6.0456 H   0  0  0  0  0  0  0  0  0  0  0  0
    6.1611   -0.6705    4.2938 H   0  0  0  0  0  0  0  0  0  0  0  0
    2.6008   -2.9819   -0.2893 H   0  0  0  0  0  0  0  0  0  0  0  0
    4.5840   -4.4079   -0.8735 H   0  0  0  0  0  0  0  0  0  0  0  0
    5.2951    0.1781    1.0225 H   0  0  0  0  0  0  0  0  0  0  0  0
    8.6284   -2.1238   -0.8545 H   0  0  0  0  0  0  0  0  0  0  0  0
    8.9323   -2.9078    0.7233 H   0  0  0  0  0  0  0  0  0  0  0  0
    0.4648    0.7871    1.1600 H   0  0  0  0  0  0  0  0  0  0  0  0
   -0.0278    2.4197    2.9619 H   0  0  0  0  0  0  0  0  0  0  0  0
    3.6274    2.3843    5.9427 H   0  0  0  0  0  0  0  0  0  0  0  0
    1.8440   -0.6560    0.2639 H   0  0  0  0  0  0  0  0  0  0  0  0
  1 20  2  0
  1  2  1  0
  1 22  1  0
  2  3  2  0
  2 23  1  0
  3  4  1  0
  4 19  2  0
  4  5  1  0
  5  6  2  3
  5 16  1  0
  6  7  1  0
  6 32  1  0
  7 12  1  0
  7  8  2  0
  8  9  1  0
  8 24  1  0
  9 10  2  0
  9 25  1  0
 10 15  1  0
 10 11  1  0
 11 12  2  0
 11 13  1  0
 12 26  1  0
 13 14  1  0
 14 15  1  0
 14 27  1  0
 14 28  1  0
 16 17  2  0
 16 29  1  0
 17 18  1  0
 17 30  1  0
 18 21  1  0
 18 19  1  0
 19 20  1  0
 20 31  1  0
M  CHG  1   6   1
M  END
>  <i_m_ct_stereo_status>  (323) 
1

>  <s_m_source_file>  (323) 
/var/tmp/pbs.5076255.sched01/tmpalt_vnqi/12934k3la1h.sdf

>  <i_m_source_file_index>  (323) 
18

>  <i_lp_mmshare_version>  (323) 
48012

>  <i_f3d_flags>  (323) 
0

>  <s_epik_input>  (323) 
bjFbY0hdW2NIXVtjSF1jKGMxMilbbkhdW2NIXVtjSF1jXDI9Ti9jKFtjSF1bY0hdMylbY0hdYyhjMzQpT1tDSDJdTzQ=

>  <s_epik_cmdline>  (323) 
J2VwaWtfcHl0aG9uJywgJy1waHQnLCAnMi4wJywgJy1waCcsICc3LjAnLCAnLXRuJywgJzgnLCAnLW1hJywgJzIwMCcsICctaW1hZScsICc8aW5maWxlLm1hZT4nLCAnLW9tYWUnLCAnPG91dGZpbGUubWFlPic=

>  <r_epik_Ionization_Penalty>  (323) 
0.0334331

>  <r_epik_Ionization_Penalty_Charging>  (323) 
0.000112108

>  <r_epik_Ionization_Penalty_Neutral>  (323) 
0.033321

>  <r_epik_State_Penalty>  (323) 
0.912251

>  <r_epik_Charging_Adjusted_Penalty>  (323) 
0.912363

>  <i_epik_Tot_Q>  (323) 
1

>  <i_epik_Tot_abs_Q>  (323) 
1

>  <s_epik_Chemistry_Notes>  (323) 
This compound has an imine and may undergo hydrolysis. This compound contains an acetal/aminal-like group ( X-CH(R)-Y where X, Y are N, S, or O) that may be acid/base labile, releasing an aldehyde.

>  <s_lp_Force_Field>  (323) 
OPLS3e

>  <r_lp_Energy>  (323) 
58.9885

>  <b_lp_Chiralities_Consistent>  (323) 
1

>  <s_lp_Variant>  (323) 
98:0-3

>  <s_i_glide_gridfile>  (323) 
pfpi4k_grid

>  <i_i_glide_lignum>  (323) 
18

>  <i_i_glide_rotatable_bonds>  (323) 
1

>  <r_i_docking_score>  (323) 
-4.98164

>  <r_i_glide_ligand_efficiency>  (323) 
-0.249082

>  <r_i_glide_ligand_efficiency_sa>  (323) 
-0.676113

>  <r_i_glide_ligand_efficiency_ln>  (323) 
-1.24674

>  <r_i_glide_gscore>  (323) 
-4.98164

>  <r_i_glide_lipo>  (323) 
-0.432773

>  <r_i_glide_hbond>  (323) 
-0.2

>  <r_i_glide_metal>  (323) 
-0

>  <r_i_glide_rewards>  (323) 
-1.73605

>  <r_i_glide_evdw>  (323) 
-22.3426

>  <r_i_glide_ecoul>  (323) 
-9.4395

>  <r_i_glide_erotb>  (323) 
0

>  <r_i_glide_esite>  (323) 
-0.0797597

>  <r_i_glide_emodel>  (323) 
-42.8445

>  <r_i_glide_energy>  (323) 
-31.7821

>  <r_i_glide_einternal>  (323) 
0.974624

>  <r_i_glide_intrahb_reward>  (323) 
-0

>  <i_i_glide_confnum>  (323) 
1

>  <i_i_glide_posenum>  (323) 
22

>  <r_i_glide_eff_state_penalty>  (323) 
0

>  <ligand_id>  (323) 
98

>  <original_smiles>  (323) 
c1cnc2c(=Nc3ccc4c(c3)OCO4)cc[nH]c2c1

>  <smiles>  (323) 
[H]c1nc2c(=[N+]([H])c3c([H])c([H])c4c(c3[H])OC([H])([H])O4)c([H])c([H])n([H])c2c([H])c1[H]

$$$$
99:0:0
     RDKit          3D

 78 81  0  0  1  0  0  0  0  0999 V2000
   -1.8227   -8.4277    2.7051 C   0  0  0  0  0  0  0  0  0  0  0  0
   -0.5927   -8.9308    3.4838 C   0  0  0  0  0  0  0  0  0  0  0  0
    0.2689   -7.7411    3.9216 C   0  0  0  0  0  0  0  0  0  0  0  0
    0.2260   -9.9506    2.6202 C   0  0  0  0  0  0  0  0  0  0  0  0
    1.4396  -10.6478    3.3222 C   0  0  0  0  0  0  0  0  0  0  0  0
    2.7859  -10.1981    2.6886 C   0  0  0  0  0  0  0  0  0  0  0  0
    4.0627  -10.2751    3.6062 C   0  0  1  0  0  0  0  0  0  0  0  0
    3.8026  -10.0154    5.1240 C   0  0  0  0  0  0  0  0  0  0  0  0
    4.4288  -11.6189    3.5670 O   0  0  0  0  0  0  0  0  0  0  0  0
    5.2321   -9.4061    2.9885 C   0  0  2  0  0  0  0  0  0  0  0  0
    6.4490   -9.1511    3.9372 C   0  0  1  0  0  0  0  0  0  0  0  0
    7.5285  -10.0116    3.6143 O   0  0  0  0  0  0  0  0  0  0  0  0
    6.8493   -7.6721    3.8001 C   0  0  0  0  0  0  0  0  0  0  0  0
    6.1294   -7.2058    2.5326 C   0  0  2  0  0  0  0  0  0  0  0  0
    5.9399   -5.6902    2.2542 C   0  0  2  0  0  0  0  0  0  0  0  0
    5.2741   -4.8573    3.3910 C   0  0  0  0  0  0  0  0  0  0  0  0
    5.0563   -3.4163    3.0174 C   0  0  0  0  0  0  0  0  0  0  0  0
    4.2803   -3.2713    1.6855 C   0  0  1  0  0  0  0  0  0  0  0  0
    4.0369   -1.7863    1.3262 C   0  0  0  0  0  0  0  0  0  0  0  0
    5.3146   -1.0658    0.8380 C   0  0  1  0  0  0  0  0  0  0  0  0
    6.1889   -0.8588    1.9216 O   0  0  0  0  0  0  0  0  0  0  0  0
    6.0179   -1.8334   -0.2970 C   0  0  0  0  0  0  0  0  0  0  0  0
    6.2469   -3.3142    0.0670 C   0  0  0  0  0  0  0  0  0  0  0  0
    4.9309   -4.0353    0.4837 C   0  0  2  0  0  0  0  0  0  0  0  0
    3.9758   -4.0158   -0.7425 C   0  0  0  0  0  0  0  0  0  0  0  0
    5.2257   -5.5226    0.8700 C   0  0  2  0  0  0  0  0  0  0  0  0
    3.9588   -6.4194    0.7351 C   0  0  0  0  0  0  0  0  0  0  0  0
    4.2358   -7.8799    1.0796 C   0  0  0  0  0  0  0  0  0  0  0  0
    4.7947   -7.9814    2.5285 C   0  0  1  0  0  0  0  0  0  0  0  0
    3.7952   -7.4152    3.5639 C   0  0  0  0  0  0  0  0  0  0  0  0
   -1.5586   -7.9163    1.7777 H   0  0  0  0  0  0  0  0  0  0  0  0
   -2.3802   -7.7230    3.3318 H   0  0  0  0  0  0  0  0  0  0  0  0
   -2.4931   -9.2503    2.4635 H   0  0  0  0  0  0  0  0  0  0  0  0
   -0.9142   -9.4356    4.3378 H   0  0  0  0  0  0  0  0  0  0  0  0
    0.6743   -7.1613    3.0865 H   0  0  0  0  0  0  0  0  0  0  0  0
    1.0845   -8.0862    4.5480 H   0  0  0  0  0  0  0  0  0  0  0  0
   -0.3100   -7.0654    4.5572 H   0  0  0  0  0  0  0  0  0  0  0  0
   -0.4443  -10.7236    2.1741 H   0  0  0  0  0  0  0  0  0  0  0  0
    0.5917   -9.3438    1.7946 H   0  0  0  0  0  0  0  0  0  0  0  0
    1.3595  -10.3216    4.3146 H   0  0  0  0  0  0  0  0  0  0  0  0
    1.3366  -11.7089    3.2838 H   0  0  0  0  0  0  0  0  0  0  0  0
    2.9482  -10.6907    1.7172 H   0  0  0  0  0  0  0  0  0  0  0  0
    2.5922   -9.1766    2.3916 H   0  0  0  0  0  0  0  0  0  0  0  0
    3.5756   -8.9668    5.3666 H   0  0  0  0  0  0  0  0  0  0  0  0
    4.6642  -10.2810    5.7257 H   0  0  0  0  0  0  0  0  0  0  0  0
    2.9938  -10.6248    5.5226 H   0  0  0  0  0  0  0  0  0  0  0  0
    3.6771  -12.1591    3.7427 H   0  0  0  0  0  0  0  0  0  0  0  0
    5.6076   -9.9266    2.0928 H   0  0  0  0  0  0  0  0  0  0  0  0
    6.2077   -9.3344    4.9835 H   0  0  0  0  0  0  0  0  0  0  0  0
    7.2336  -10.9023    3.7092 H   0  0  0  0  0  0  0  0  0  0  0  0
    6.4624   -7.1439    4.6656 H   0  0  0  0  0  0  0  0  0  0  0  0
    7.9235   -7.4947    3.8021 H   0  0  0  0  0  0  0  0  0  0  0  0
    6.7560   -7.5875    1.7245 H   0  0  0  0  0  0  0  0  0  0  0  0
    6.9475   -5.2782    2.1518 H   0  0  0  0  0  0  0  0  0  0  0  0
    4.2613   -5.1086    3.6621 H   0  0  0  0  0  0  0  0  0  0  0  0
    5.8405   -4.9290    4.3200 H   0  0  0  0  0  0  0  0  0  0  0  0
    4.4845   -2.9305    3.8027 H   0  0  0  0  0  0  0  0  0  0  0  0
    6.0276   -2.9526    2.9846 H   0  0  0  0  0  0  0  0  0  0  0  0
    3.2868   -3.7170    1.8372 H   0  0  0  0  0  0  0  0  0  0  0  0
    3.2774   -1.7213    0.5436 H   0  0  0  0  0  0  0  0  0  0  0  0
    3.5950   -1.2666    2.1803 H   0  0  0  0  0  0  0  0  0  0  0  0
    5.0438   -0.0736    0.4910 H   0  0  0  0  0  0  0  0  0  0  0  0
    6.8942   -0.2680    1.6651 H   0  0  0  0  0  0  0  0  0  0  0  0
    5.4102   -1.7685   -1.1961 H   0  0  0  0  0  0  0  0  0  0  0  0
    6.9712   -1.3817   -0.5480 H   0  0  0  0  0  0  0  0  0  0  0  0
    6.6968   -3.8421   -0.7767 H   0  0  0  0  0  0  0  0  0  0  0  0
    6.9856   -3.3758    0.8678 H   0  0  0  0  0  0  0  0  0  0  0  0
    4.3718   -4.6520   -1.5329 H   0  0  0  0  0  0  0  0  0  0  0  0
    3.8032   -3.0391   -1.1738 H   0  0  0  0  0  0  0  0  0  0  0  0
    2.9873   -4.3822   -0.4817 H   0  0  0  0  0  0  0  0  0  0  0  0
    5.9109   -5.9160    0.1206 H   0  0  0  0  0  0  0  0  0  0  0  0
    3.1616   -5.9938    1.3259 H   0  0  0  0  0  0  0  0  0  0  0  0
    3.5632   -6.4140   -0.2774 H   0  0  0  0  0  0  0  0  0  0  0  0
    3.2961   -8.4021    0.9041 H   0  0  0  0  0  0  0  0  0  0  0  0
    4.9323   -8.2852    0.3337 H   0  0  0  0  0  0  0  0  0  0  0  0
    3.2416   -6.5577    3.2353 H   0  0  0  0  0  0  0  0  0  0  0  0
    4.2676   -7.1827    4.5114 H   0  0  0  0  0  0  0  0  0  0  0  0
    2.9899   -8.0710    3.8167 H   0  0  0  0  0  0  0  0  0  0  0  0
  1  2  1  0
  1 31  1  0
  1 32  1  0
  1 33  1  0
  2  3  1  0
  2  4  1  0
  2 34  1  0
  3 35  1  0
  3 36  1  0
  3 37  1  0
  4  5  1  0
  4 38  1  0
  4 39  1  0
  5  6  1  0
  5 40  1  0
  5 41  1  0
  6  7  1  0
  6 42  1  0
  6 43  1  0
  7  8  1  0
  7  9  1  1
  7 10  1  0
  8 44  1  0
  8 45  1  0
  8 46  1  0
  9 47  1  0
 10 29  1  0
 10 11  1  0
 10 48  1  6
 11 12  1  0
 11 13  1  0
 11 49  1  1
 12 50  1  0
 13 14  1  0
 13 51  1  0
 13 52  1  0
 14 29  1  0
 14 15  1  0
 14 53  1  6
 15 26  1  0
 15 16  1  0
 15 54  1  6
 16 17  1  0
 16 55  1  0
 16 56  1  0
 17 18  1  0
 17 57  1  0
 17 58  1  0
 18 24  1  0
 18 19  1  0
 18 59  1  1
 19 20  1  0
 19 60  1  0
 19 61  1  0
 20 21  1  0
 20 22  1  0
 20 62  1  6
 21 63  1  0
 22 23  1  0
 22 64  1  0
 22 65  1  0
 23 24  1  0
 23 66  1  0
 23 67  1  0
 24 25  1  6
 24 26  1  0
 25 68  1  0
 25 69  1  0
 25 70  1  0
 26 27  1  0
 26 71  1  6
 27 28  1  0
 27 72  1  0
 27 73  1  0
 28 29  1  0
 28 74  1  0
 28 75  1  0
 29 30  1  1
 30 76  1  0
 30 77  1  0
 30 78  1  0
M  END
>  <i_m_ct_stereo_status>  (324) 
1

>  <s_m_source_file>  (324) 
/var/tmp/pbs.5076255.sched01/tmpalt_vnqi/12934k3la1h.sdf

>  <i_m_source_file_index>  (324) 
19

>  <i_lp_mmshare_version>  (324) 
48012

>  <i_f3d_flags>  (324) 
0

>  <s_epik_input>  (324) 
W0NIM11bQ0hdKFtDSDNdKVtDSDJdW0NIMl1bQ0gyXVtDQEBdKFtDSDNdKShbT0hdKVtDQEhdKFtDQEBIXShbT0hdKVtDSDJdMSlbQ0BdKFtDSDNdKShbQ0gyXVtDSDJdW0NASF0yMylbQ0BIXTFbQ0BASF0yW0NIMl1bQ0gyXVtDQEhdKFtDQF0zNFtDSDNdKVtDSDJdW0NAQEhdKFtPSF0pW0NIMl1bQ0gyXTQ=

>  <s_epik_cmdline>  (324) 
J2VwaWtfcHl0aG9uJywgJy1waHQnLCAnMi4wJywgJy1waCcsICc3LjAnLCAnLXRuJywgJzgnLCAnLW1hJywgJzIwMCcsICctaW1hZScsICc8aW5maWxlLm1hZT4nLCAnLW9tYWUnLCAnPG91dGZpbGUubWFlPic=

>  <r_lp_tautomer_probability>  (324) 
1

>  <r_epik_Ionization_Penalty>  (324) 
9.36737e-06

>  <r_epik_Ionization_Penalty_Charging>  (324) 
0

>  <r_epik_Ionization_Penalty_Neutral>  (324) 
9.36737e-06

>  <r_epik_State_Penalty>  (324) 
-0

>  <r_epik_Charging_Adjusted_Penalty>  (324) 
0

>  <i_epik_Tot_Q>  (324) 
0

>  <i_epik_Tot_abs_Q>  (324) 
0

>  <s_lp_Force_Field>  (324) 
OPLS3e

>  <r_lp_Energy>  (324) 
62.2354

>  <b_lp_Chiralities_Consistent>  (324) 
1

>  <s_lp_Variant>  (324) 
99:0-1

>  <s_i_glide_gridfile>  (324) 
pfpi4k_grid

>  <i_i_glide_lignum>  (324) 
19

>  <i_i_glide_rotatable_bonds>  (324) 
8

>  <r_i_docking_score>  (324) 
-2.53586

>  <r_i_glide_ligand_efficiency>  (324) 
-0.0845288

>  <r_i_glide_ligand_efficiency_sa>  (324) 
-0.262651

>  <r_i_glide_ligand_efficiency_ln>  (324) 
-0.576176

>  <r_i_glide_gscore>  (324) 
-2.53586

>  <r_i_glide_lipo>  (324) 
-0.839078

>  <r_i_glide_hbond>  (324) 
-0.32

>  <r_i_glide_metal>  (324) 
-0

>  <r_i_glide_rewards>  (324) 
-0.540898

>  <r_i_glide_evdw>  (324) 
-23.1957

>  <r_i_glide_ecoul>  (324) 
-3.76644

>  <r_i_glide_erotb>  (324) 
0.44743

>  <r_i_glide_esite>  (324) 
0

>  <r_i_glide_emodel>  (324) 
-17.8932

>  <r_i_glide_energy>  (324) 
-26.9621

>  <r_i_glide_einternal>  (324) 
20.3277

>  <r_i_glide_intrahb_reward>  (324) 
-0

>  <i_i_glide_confnum>  (324) 
4

>  <i_i_glide_posenum>  (324) 
11

>  <r_i_glide_eff_state_penalty>  (324) 
0

>  <ligand_id>  (324) 
99

>  <original_smiles>  (324) 
CC(C)CCCC(C)(O)C1C(O)CC2C3CCC4CC(O)CCC4(C)C3CCC21C

>  <smiles>  (324) 
[H]OC1([H])C([H])([H])C([H])([H])C2(C([H])([H])[H])C([H])(C([H])([H])C([H])([H])C3([H])C2([H])C([H])([H])C([H])([H])C2(C([H])([H])[H])C3([H])C([H])([H])C([H])(O[H])C2([H])C(O[H])(C([H])([H])[H])C([H])([H])C([H])([H])C([H])([H])C([H])(C([H])([H])[H])C([H])([H])[H])C1([H])[H]

$$$$
99:0:1
     RDKit          3D

 78 81  0  0  1  0  0  0  0  0999 V2000
   -1.3495   -7.4521    4.0705 C   0  0  0  0  0  0  0  0  0  0  0  0
   -0.1137   -8.0225    3.3752 C   0  0  0  0  0  0  0  0  0  0  0  0
   -0.1727   -7.6597    1.8807 C   0  0  0  0  0  0  0  0  0  0  0  0
    0.0485   -9.5540    3.5889 C   0  0  0  0  0  0  0  0  0  0  0  0
    1.3967  -10.2139    3.1573 C   0  0  0  0  0  0  0  0  0  0  0  0
    2.5551   -9.8879    4.1316 C   0  0  0  0  0  0  0  0  0  0  0  0
    4.0028  -10.3419    3.7438 C   0  0  1  0  0  0  0  0  0  0  0  0
    4.9916  -10.1818    4.9450 C   0  0  0  0  0  0  0  0  0  0  0  0
    3.9423  -11.7285    3.5592 O   0  0  0  0  0  0  0  0  0  0  0  0
    4.5262   -9.7034    2.4252 C   0  0  2  0  0  0  0  0  0  0  0  0
    6.0493   -9.8792    2.1183 C   0  0  1  0  0  0  0  0  0  0  0  0
    6.2852  -10.8972    1.1488 O   0  0  0  0  0  0  0  0  0  0  0  0
    6.5773   -8.5204    1.5773 C   0  0  0  0  0  0  0  0  0  0  0  0
    5.3098   -7.7455    1.2323 C   0  0  2  0  0  0  0  0  0  0  0  0
    5.3482   -6.2053    1.0144 C   0  0  2  0  0  0  0  0  0  0  0  0
    5.9622   -5.3710    2.1671 C   0  0  0  0  0  0  0  0  0  0  0  0
    5.8855   -3.8901    1.9437 C   0  0  0  0  0  0  0  0  0  0  0  0
    4.4584   -3.4124    1.6304 C   0  0  1  0  0  0  0  0  0  0  0  0
    4.4092   -1.8857    1.4285 C   0  0  0  0  0  0  0  0  0  0  0  0
    5.0138   -1.4297    0.0777 C   0  0  1  0  0  0  0  0  0  0  0  0
    6.4244   -1.5531    0.0604 O   0  0  0  0  0  0  0  0  0  0  0  0
    4.4144   -2.1989   -1.1149 C   0  0  0  0  0  0  0  0  0  0  0  0
    4.4716   -3.7256   -0.8941 C   0  0  0  0  0  0  0  0  0  0  0  0
    3.8028   -4.1601    0.4297 C   0  0  2  0  0  0  0  0  0  0  0  0
    2.3078   -3.7739    0.3310 C   0  0  0  0  0  0  0  0  0  0  0  0
    3.9134   -5.7060    0.6295 C   0  0  2  0  0  0  0  0  0  0  0  0
    2.8370   -6.2404    1.5872 C   0  0  0  0  0  0  0  0  0  0  0  0
    2.9306   -7.7497    1.8512 C   0  0  0  0  0  0  0  0  0  0  0  0
    4.3196   -8.1654    2.3336 C   0  0  1  0  0  0  0  0  0  0  0  0
    4.5682   -7.5108    3.6904 C   0  0  0  0  0  0  0  0  0  0  0  0
   -2.2600   -7.9131    3.6886 H   0  0  0  0  0  0  0  0  0  0  0  0
   -1.4302   -6.3759    3.9104 H   0  0  0  0  0  0  0  0  0  0  0  0
   -1.3201   -7.6043    5.1506 H   0  0  0  0  0  0  0  0  0  0  0  0
    0.7142   -7.5089    3.8453 H   0  0  0  0  0  0  0  0  0  0  0  0
   -1.0760   -8.0357    1.4233 H   0  0  0  0  0  0  0  0  0  0  0  0
    0.6802   -8.0356    1.3297 H   0  0  0  0  0  0  0  0  0  0  0  0
   -0.2047   -6.5836    1.7524 H   0  0  0  0  0  0  0  0  0  0  0  0
   -0.0999   -9.7819    4.6522 H   0  0  0  0  0  0  0  0  0  0  0  0
   -0.7822  -10.0530    3.0762 H   0  0  0  0  0  0  0  0  0  0  0  0
    1.2543  -11.2810    3.1032 H   0  0  0  0  0  0  0  0  0  0  0  0
    1.6109   -9.9008    2.1450 H   0  0  0  0  0  0  0  0  0  0  0  0
    2.4533   -8.8188    4.2507 H   0  0  0  0  0  0  0  0  0  0  0  0
    2.2871  -10.2726    5.1131 H   0  0  0  0  0  0  0  0  0  0  0  0
    5.3094   -9.1772    5.1735 H   0  0  0  0  0  0  0  0  0  0  0  0
    5.9154  -10.7151    4.7779 H   0  0  0  0  0  0  0  0  0  0  0  0
    4.5696  -10.5710    5.8609 H   0  0  0  0  0  0  0  0  0  0  0  0
    3.5051  -11.9394    2.7501 H   0  0  0  0  0  0  0  0  0  0  0  0
    3.9801  -10.1548    1.5990 H   0  0  0  0  0  0  0  0  0  0  0  0
    6.6057  -10.1274    3.0186 H   0  0  0  0  0  0  0  0  0  0  0  0
    5.4657  -11.3513    0.9256 H   0  0  0  0  0  0  0  0  0  0  0  0
    7.0970   -8.0181    2.3911 H   0  0  0  0  0  0  0  0  0  0  0  0
    7.2963   -8.6199    0.7641 H   0  0  0  0  0  0  0  0  0  0  0  0
    4.9911   -8.1637    0.2744 H   0  0  0  0  0  0  0  0  0  0  0  0
    6.0032   -6.0199    0.1505 H   0  0  0  0  0  0  0  0  0  0  0  0
    5.4721   -5.4158    3.1313 H   0  0  0  0  0  0  0  0  0  0  0  0
    6.9766   -5.6941    2.3948 H   0  0  0  0  0  0  0  0  0  0  0  0
    6.2240   -3.3773    2.8447 H   0  0  0  0  0  0  0  0  0  0  0  0
    6.5908   -3.6646    1.1519 H   0  0  0  0  0  0  0  0  0  0  0  0
    3.8455   -3.6251    2.5170 H   0  0  0  0  0  0  0  0  0  0  0  0
    3.3654   -1.5539    1.4687 H   0  0  0  0  0  0  0  0  0  0  0  0
    4.8844   -1.3790    2.2715 H   0  0  0  0  0  0  0  0  0  0  0  0
    4.8130   -0.3678   -0.0475 H   0  0  0  0  0  0  0  0  0  0  0  0
    6.7615   -1.2565    0.8905 H   0  0  0  0  0  0  0  0  0  0  0  0
    3.3774   -1.8944   -1.2487 H   0  0  0  0  0  0  0  0  0  0  0  0
    4.9241   -1.9452   -2.0397 H   0  0  0  0  0  0  0  0  0  0  0  0
    3.9913   -4.2439   -1.7263 H   0  0  0  0  0  0  0  0  0  0  0  0
    5.5097   -4.0575   -0.9091 H   0  0  0  0  0  0  0  0  0  0  0  0
    1.7935   -4.3884   -0.4043 H   0  0  0  0  0  0  0  0  0  0  0  0
    2.1048   -2.7419    0.0838 H   0  0  0  0  0  0  0  0  0  0  0  0
    1.8462   -3.9289    1.3061 H   0  0  0  0  0  0  0  0  0  0  0  0
    3.6770   -6.1629   -0.3194 H   0  0  0  0  0  0  0  0  0  0  0  0
    2.8706   -5.6870    2.5206 H   0  0  0  0  0  0  0  0  0  0  0  0
    1.8473   -6.0486    1.1840 H   0  0  0  0  0  0  0  0  0  0  0  0
    2.1915   -7.9882    2.5807 H   0  0  0  0  0  0  0  0  0  0  0  0
    2.6627   -8.3042    0.9505 H   0  0  0  0  0  0  0  0  0  0  0  0
    4.1677   -6.5406    3.7834 H   0  0  0  0  0  0  0  0  0  0  0  0
    5.6075   -7.5130    3.9598 H   0  0  0  0  0  0  0  0  0  0  0  0
    4.0630   -7.9213    4.5193 H   0  0  0  0  0  0  0  0  0  0  0  0
  1  2  1  0
  1 31  1  0
  1 32  1  0
  1 33  1  0
  2  3  1  0
  2  4  1  0
  2 34  1  0
  3 35  1  0
  3 36  1  0
  3 37  1  0
  4  5  1  0
  4 38  1  0
  4 39  1  0
  5  6  1  0
  5 40  1  0
  5 41  1  0
  6  7  1  0
  6 42  1  0
  6 43  1  0
  7  8  1  0
  7  9  1  6
  7 10  1  0
  8 44  1  0
  8 45  1  0
  8 46  1  0
  9 47  1  0
 10 29  1  0
 10 11  1  0
 10 48  1  6
 11 12  1  0
 11 13  1  0
 11 49  1  1
 12 50  1  0
 13 14  1  0
 13 51  1  0
 13 52  1  0
 14 29  1  0
 14 15  1  0
 14 53  1  6
 15 26  1  0
 15 16  1  0
 15 54  1  6
 16 17  1  0
 16 55  1  0
 16 56  1  0
 17 18  1  0
 17 57  1  0
 17 58  1  0
 18 24  1  0
 18 19  1  0
 18 59  1  1
 19 20  1  0
 19 60  1  0
 19 61  1  0
 20 21  1  0
 20 22  1  0
 20 62  1  6
 21 63  1  0
 22 23  1  0
 22 64  1  0
 22 65  1  0
 23 24  1  0
 23 66  1  0
 23 67  1  0
 24 25  1  6
 24 26  1  0
 25 68  1  0
 25 69  1  0
 25 70  1  0
 26 27  1  0
 26 71  1  6
 27 28  1  0
 27 72  1  0
 27 73  1  0
 28 29  1  0
 28 74  1  0
 28 75  1  0
 29 30  1  1
 30 76  1  0
 30 77  1  0
 30 78  1  0
M  END
>  <i_m_ct_stereo_status>  (325) 
1

>  <s_m_source_file>  (325) 
/var/tmp/pbs.5076255.sched01/tmpalt_vnqi/12934k3la1h.sdf

>  <i_m_source_file_index>  (325) 
19

>  <i_lp_mmshare_version>  (325) 
48012

>  <i_f3d_flags>  (325) 
0

>  <s_epik_input>  (325) 
W0NIM11bQ0hdKFtDSDNdKVtDSDJdW0NIMl1bQ0gyXVtDQEBdKFtDSDNdKShbT0hdKVtDQEhdKFtDQEBIXShbT0hdKVtDSDJdMSlbQ0BdKFtDSDNdKShbQ0gyXVtDSDJdW0NASF0yMylbQ0BIXTFbQ0BASF0yW0NIMl1bQ0gyXVtDQEhdKFtDQF0zNFtDSDNdKVtDSDJdW0NAQEhdKFtPSF0pW0NIMl1bQ0gyXTQ=

>  <s_epik_cmdline>  (325) 
J2VwaWtfcHl0aG9uJywgJy1waHQnLCAnMi4wJywgJy1waCcsICc3LjAnLCAnLXRuJywgJzgnLCAnLW1hJywgJzIwMCcsICctaW1hZScsICc8aW5maWxlLm1hZT4nLCAnLW9tYWUnLCAnPG91dGZpbGUubWFlPic=

>  <r_lp_tautomer_probability>  (325) 
1

>  <r_epik_Ionization_Penalty>  (325) 
9.36737e-06

>  <r_epik_Ionization_Penalty_Charging>  (325) 
0

>  <r_epik_Ionization_Penalty_Neutral>  (325) 
9.36737e-06

>  <r_epik_State_Penalty>  (325) 
-0

>  <r_epik_Charging_Adjusted_Penalty>  (325) 
0

>  <i_epik_Tot_Q>  (325) 
0

>  <i_epik_Tot_abs_Q>  (325) 
0

>  <s_lp_Force_Field>  (325) 
OPLS3e

>  <r_lp_Energy>  (325) 
62.2354

>  <b_lp_Chiralities_Consistent>  (325) 
1

>  <s_lp_Variant>  (325) 
99:0-1

>  <s_i_glide_gridfile>  (325) 
pfpi4k_grid

>  <i_i_glide_lignum>  (325) 
19

>  <i_i_glide_rotatable_bonds>  (325) 
8

>  <r_i_docking_score>  (325) 
-2.37221

>  <r_i_glide_ligand_efficiency>  (325) 
-0.0790737

>  <r_i_glide_ligand_efficiency_sa>  (325) 
-0.2457

>  <r_i_glide_ligand_efficiency_ln>  (325) 
-0.538992

>  <r_i_glide_gscore>  (325) 
-2.37221

>  <r_i_glide_lipo>  (325) 
-0.576717

>  <r_i_glide_hbond>  (325) 
-0.0132665

>  <r_i_glide_metal>  (325) 
-0

>  <r_i_glide_rewards>  (325) 
-0.540898

>  <r_i_glide_evdw>  (325) 
-24.901

>  <r_i_glide_ecoul>  (325) 
-8.76245

>  <r_i_glide_erotb>  (325) 
0.44743

>  <r_i_glide_esite>  (325) 
0

>  <r_i_glide_emodel>  (325) 
-24.7074

>  <r_i_glide_energy>  (325) 
-33.6635

>  <r_i_glide_einternal>  (325) 
17.892

>  <r_i_glide_intrahb_reward>  (325) 
-0

>  <i_i_glide_confnum>  (325) 
4

>  <i_i_glide_posenum>  (325) 
40

>  <r_i_glide_eff_state_penalty>  (325) 
0

>  <ligand_id>  (325) 
99

>  <original_smiles>  (325) 
CC(C)CCCC(C)(O)C1C(O)CC2C3CCC4CC(O)CCC4(C)C3CCC21C

>  <smiles>  (325) 
[H]OC1([H])C([H])([H])C([H])([H])C2(C([H])([H])[H])C([H])(C([H])([H])C([H])([H])C3([H])C2([H])C([H])([H])C([H])([H])C2(C([H])([H])[H])C3([H])C([H])([H])C([H])(O[H])C2([H])C(O[H])(C([H])([H])[H])C([H])([H])C([H])([H])C([H])([H])C([H])(C([H])([H])[H])C([H])([H])[H])C1([H])[H]

$$$$
99:0:2
     RDKit          3D

 78 81  0  0  1  0  0  0  0  0999 V2000
   -1.4328    1.6581    4.0093 C   0  0  0  0  0  0  0  0  0  0  0  0
   -0.6208    1.2572    5.2530 C   0  0  0  0  0  0  0  0  0  0  0  0
    0.8326    1.7507    5.1338 C   0  0  0  0  0  0  0  0  0  0  0  0
   -0.6920   -0.2555    5.5064 C   0  0  0  0  0  0  0  0  0  0  0  0
   -0.0756   -0.6709    6.8650 C   0  0  0  0  0  0  0  0  0  0  0  0
   -0.1622   -2.1736    7.0768 C   0  0  0  0  0  0  0  0  0  0  0  0
    0.5764   -2.7761    8.3386 C   0  0  1  0  0  0  0  0  0  0  0  0
    2.0181   -2.2264    8.6132 C   0  0  0  0  0  0  0  0  0  0  0  0
   -0.1950   -2.2799    9.4015 O   0  0  0  0  0  0  0  0  0  0  0  0
    0.4276   -4.3394    8.3465 C   0  0  2  0  0  0  0  0  0  0  0  0
    1.2685   -5.1158    9.4187 C   0  0  1  0  0  0  0  0  0  0  0  0
    0.4561   -5.4900   10.5184 O   0  0  0  0  0  0  0  0  0  0  0  0
    1.8536   -6.3596    8.7223 C   0  0  0  0  0  0  0  0  0  0  0  0
    1.0559   -6.4751    7.4166 C   0  0  2  0  0  0  0  0  0  0  0  0
    1.5866   -7.3460    6.2480 C   0  0  2  0  0  0  0  0  0  0  0  0
    3.0253   -7.0563    5.7613 C   0  0  0  0  0  0  0  0  0  0  0  0
    3.4212   -7.8796    4.5766 C   0  0  0  0  0  0  0  0  0  0  0  0
    2.3960   -7.7910    3.4118 C   0  0  1  0  0  0  0  0  0  0  0  0
    2.8480   -8.6271    2.1967 C   0  0  0  0  0  0  0  0  0  0  0  0
    2.7074  -10.1468    2.4257 C   0  0  1  0  0  0  0  0  0  0  0  0
    3.6899  -10.6368    3.3278 O   0  0  0  0  0  0  0  0  0  0  0  0
    1.2959  -10.5458    2.9097 C   0  0  0  0  0  0  0  0  0  0  0  0
    0.8437   -9.6866    4.1111 C   0  0  0  0  0  0  0  0  0  0  0  0
    0.9333   -8.1659    3.8323 C   0  0  2  0  0  0  0  0  0  0  0  0
   -0.0641   -7.8251    2.6704 C   0  0  0  0  0  0  0  0  0  0  0  0
    0.5075   -7.3524    5.1024 C   0  0  2  0  0  0  0  0  0  0  0  0
    0.0176   -5.9194    4.7539 C   0  0  0  0  0  0  0  0  0  0  0  0
   -0.4065   -5.0965    5.9702 C   0  0  0  0  0  0  0  0  0  0  0  0
    0.7673   -5.0086    6.9812 C   0  0  1  0  0  0  0  0  0  0  0  0
    2.0208   -4.3072    6.3766 C   0  0  0  0  0  0  0  0  0  0  0  0
   -1.0654    1.1586    3.1115 H   0  0  0  0  0  0  0  0  0  0  0  0
   -1.3610    2.7348    3.8462 H   0  0  0  0  0  0  0  0  0  0  0  0
   -2.4875    1.4083    4.1279 H   0  0  0  0  0  0  0  0  0  0  0  0
   -1.0759    1.7392    6.1164 H   0  0  0  0  0  0  0  0  0  0  0  0
    1.3406    1.2821    4.2893 H   0  0  0  0  0  0  0  0  0  0  0  0
    1.4170    1.5417    6.0307 H   0  0  0  0  0  0  0  0  0  0  0  0
    0.8604    2.8300    4.9900 H   0  0  0  0  0  0  0  0  0  0  0  0
   -1.7262   -0.5923    5.4754 H   0  0  0  0  0  0  0  0  0  0  0  0
   -0.2011   -0.7757    4.6807 H   0  0  0  0  0  0  0  0  0  0  0  0
    0.9738   -0.4139    6.8303 H   0  0  0  0  0  0  0  0  0  0  0  0
   -0.5260   -0.1087    7.6955 H   0  0  0  0  0  0  0  0  0  0  0  0
   -1.2037   -2.4778    7.0220 H   0  0  0  0  0  0  0  0  0  0  0  0
    0.2549   -2.5412    6.1289 H   0  0  0  0  0  0  0  0  0  0  0  0
    2.7956   -2.6353    7.9535 H   0  0  0  0  0  0  0  0  0  0  0  0
    2.3326   -2.4783    9.6235 H   0  0  0  0  0  0  0  0  0  0  0  0
    2.0778   -1.1413    8.5481 H   0  0  0  0  0  0  0  0  0  0  0  0
    0.2668   -2.4684   10.2361 H   0  0  0  0  0  0  0  0  0  0  0  0
   -0.6297   -4.5697    8.5443 H   0  0  0  0  0  0  0  0  0  0  0  0
    2.1046   -4.5263    9.7992 H   0  0  0  0  0  0  0  0  0  0  0  0
    0.2634   -4.7310   11.0342 H   0  0  0  0  0  0  0  0  0  0  0  0
    2.8904   -6.1486    8.4911 H   0  0  0  0  0  0  0  0  0  0  0  0
    1.8731   -7.2657    9.3383 H   0  0  0  0  0  0  0  0  0  0  0  0
    0.1169   -6.9428    7.7489 H   0  0  0  0  0  0  0  0  0  0  0  0
    1.6126   -8.3858    6.6429 H   0  0  0  0  0  0  0  0  0  0  0  0
    3.2058   -6.0610    5.3276 H   0  0  0  0  0  0  0  0  0  0  0  0
    3.7462   -7.1631    6.5550 H   0  0  0  0  0  0  0  0  0  0  0  0
    4.3846   -7.5305    4.2019 H   0  0  0  0  0  0  0  0  0  0  0  0
    3.5762   -8.9041    4.9456 H   0  0  0  0  0  0  0  0  0  0  0  0
    2.3768   -6.7482    3.0845 H   0  0  0  0  0  0  0  0  0  0  0  0
    2.2533   -8.3463    1.3203 H   0  0  0  0  0  0  0  0  0  0  0  0
    3.8722   -8.3638    1.9255 H   0  0  0  0  0  0  0  0  0  0  0  0
    2.9135  -10.6532    1.4894 H   0  0  0  0  0  0  0  0  0  0  0  0
    3.5617  -11.5441    3.4389 H   0  0  0  0  0  0  0  0  0  0  0  0
    0.5884  -10.4131    2.0881 H   0  0  0  0  0  0  0  0  0  0  0  0
    1.2431  -11.6023    3.1655 H   0  0  0  0  0  0  0  0  0  0  0  0
   -0.1763   -9.9493    4.4032 H   0  0  0  0  0  0  0  0  0  0  0  0
    1.4551   -9.9441    4.9771 H   0  0  0  0  0  0  0  0  0  0  0  0
   -1.0953   -7.9597    3.0038 H   0  0  0  0  0  0  0  0  0  0  0  0
    0.0552   -8.4314    1.7761 H   0  0  0  0  0  0  0  0  0  0  0  0
    0.0434   -6.7950    2.3316 H   0  0  0  0  0  0  0  0  0  0  0  0
   -0.3836   -7.8376    5.5100 H   0  0  0  0  0  0  0  0  0  0  0  0
    0.7849   -5.4150    4.1616 H   0  0  0  0  0  0  0  0  0  0  0  0
   -0.8555   -5.9211    4.0985 H   0  0  0  0  0  0  0  0  0  0  0  0
   -0.6940   -4.1241    5.5875 H   0  0  0  0  0  0  0  0  0  0  0  0
   -1.3049   -5.5727    6.3963 H   0  0  0  0  0  0  0  0  0  0  0  0
    2.1735   -4.5664    5.3267 H   0  0  0  0  0  0  0  0  0  0  0  0
    2.9095   -4.5654    6.8835 H   0  0  0  0  0  0  0  0  0  0  0  0
    2.0005   -3.2141    6.3158 H   0  0  0  0  0  0  0  0  0  0  0  0
  1  2  1  0
  1 31  1  0
  1 32  1  0
  1 33  1  0
  2  3  1  0
  2  4  1  0
  2 34  1  0
  3 35  1  0
  3 36  1  0
  3 37  1  0
  4  5  1  0
  4 38  1  0
  4 39  1  0
  5  6  1  0
  5 40  1  0
  5 41  1  0
  6  7  1  0
  6 42  1  0
  6 43  1  0
  7  8  1  0
  7  9  1  1
  7 10  1  0
  8 44  1  0
  8 45  1  0
  8 46  1  0
  9 47  1  0
 10 29  1  0
 10 11  1  0
 10 48  1  1
 11 12  1  0
 11 13  1  0
 11 49  1  1
 12 50  1  0
 13 14  1  0
 13 51  1  0
 13 52  1  0
 14 29  1  0
 14 15  1  0
 14 53  1  1
 15 26  1  0
 15 16  1  0
 15 54  1  1
 16 17  1  0
 16 55  1  0
 16 56  1  0
 17 18  1  0
 17 57  1  0
 17 58  1  0
 18 24  1  0
 18 19  1  0
 18 59  1  6
 19 20  1  0
 19 60  1  0
 19 61  1  0
 20 21  1  0
 20 22  1  0
 20 62  1  6
 21 63  1  0
 22 23  1  0
 22 64  1  0
 22 65  1  0
 23 24  1  0
 23 66  1  0
 23 67  1  0
 24 25  1  6
 24 26  1  0
 25 68  1  0
 25 69  1  0
 25 70  1  0
 26 27  1  0
 26 71  1  1
 27 28  1  0
 27 72  1  0
 27 73  1  0
 28 29  1  0
 28 74  1  0
 28 75  1  0
 29 30  1  6
 30 76  1  0
 30 77  1  0
 30 78  1  0
M  END
>  <i_m_ct_stereo_status>  (326) 
1

>  <s_m_source_file>  (326) 
/var/tmp/pbs.5076255.sched01/tmpalt_vnqi/12934k3la1h.sdf

>  <i_m_source_file_index>  (326) 
19

>  <i_lp_mmshare_version>  (326) 
48012

>  <i_f3d_flags>  (326) 
0

>  <s_epik_input>  (326) 
W0NIM11bQ0hdKFtDSDNdKVtDSDJdW0NIMl1bQ0gyXVtDQEBdKFtDSDNdKShbT0hdKVtDQEhdKFtDQEBIXShbT0hdKVtDSDJdMSlbQ0BdKFtDSDNdKShbQ0gyXVtDSDJdW0NASF0yMylbQ0BIXTFbQ0BASF0yW0NIMl1bQ0gyXVtDQEhdKFtDQF0zNFtDSDNdKVtDSDJdW0NAQEhdKFtPSF0pW0NIMl1bQ0gyXTQ=

>  <s_epik_cmdline>  (326) 
J2VwaWtfcHl0aG9uJywgJy1waHQnLCAnMi4wJywgJy1waCcsICc3LjAnLCAnLXRuJywgJzgnLCAnLW1hJywgJzIwMCcsICctaW1hZScsICc8aW5maWxlLm1hZT4nLCAnLW9tYWUnLCAnPG91dGZpbGUubWFlPic=

>  <r_lp_tautomer_probability>  (326) 
1

>  <r_epik_Ionization_Penalty>  (326) 
9.36737e-06

>  <r_epik_Ionization_Penalty_Charging>  (326) 
0

>  <r_epik_Ionization_Penalty_Neutral>  (326) 
9.36737e-06

>  <r_epik_State_Penalty>  (326) 
-0

>  <r_epik_Charging_Adjusted_Penalty>  (326) 
0

>  <i_epik_Tot_Q>  (326) 
0

>  <i_epik_Tot_abs_Q>  (326) 
0

>  <s_lp_Force_Field>  (326) 
OPLS3e

>  <r_lp_Energy>  (326) 
62.2354

>  <b_lp_Chiralities_Consistent>  (326) 
1

>  <s_lp_Variant>  (326) 
99:0-1

>  <s_i_glide_gridfile>  (326) 
pfpi4k_grid

>  <i_i_glide_lignum>  (326) 
19

>  <i_i_glide_rotatable_bonds>  (326) 
8

>  <r_i_docking_score>  (326) 
-1.92831

>  <r_i_glide_ligand_efficiency>  (326) 
-0.064277

>  <r_i_glide_ligand_efficiency_sa>  (326) 
-0.199724

>  <r_i_glide_ligand_efficiency_ln>  (326) 
-0.438133

>  <r_i_glide_gscore>  (326) 
-1.92831

>  <r_i_glide_lipo>  (326) 
-0.162573

>  <r_i_glide_hbond>  (326) 
0

>  <r_i_glide_metal>  (326) 
-0

>  <r_i_glide_rewards>  (326) 
-0.540898

>  <r_i_glide_evdw>  (326) 
-16.7023

>  <r_i_glide_ecoul>  (326) 
-5.58102

>  <r_i_glide_erotb>  (326) 
0.44743

>  <r_i_glide_esite>  (326) 
0

>  <r_i_glide_emodel>  (326) 
-15.1029

>  <r_i_glide_energy>  (326) 
-22.2833

>  <r_i_glide_einternal>  (326) 
15.4973

>  <r_i_glide_intrahb_reward>  (326) 
-0

>  <i_i_glide_confnum>  (326) 
4

>  <i_i_glide_posenum>  (326) 
1

>  <r_i_glide_eff_state_penalty>  (326) 
0

>  <ligand_id>  (326) 
99

>  <original_smiles>  (326) 
CC(C)CCCC(C)(O)C1C(O)CC2C3CCC4CC(O)CCC4(C)C3CCC21C

>  <smiles>  (326) 
[H]OC1([H])C([H])([H])C([H])([H])C2(C([H])([H])[H])C([H])(C([H])([H])C([H])([H])C3([H])C2([H])C([H])([H])C([H])([H])C2(C([H])([H])[H])C3([H])C([H])([H])C([H])(O[H])C2([H])C(O[H])(C([H])([H])[H])C([H])([H])C([H])([H])C([H])([H])C([H])(C([H])([H])[H])C([H])([H])[H])C1([H])[H]

$$$$
100:0:0
     RDKit          3D

 43 48  0  0  1  0  0  0  0  0999 V2000
    3.8385   -0.9725   -2.7662 C   0  0  0  0  0  0  0  0  0  0  0  0
    4.9662   -1.5998   -1.9355 C   0  0  2  0  0  0  0  0  0  0  0  0
    5.2563   -2.9082   -2.4619 O   0  0  0  0  0  0  0  0  0  0  0  0
    5.1997   -3.9668   -1.4944 C   0  0  2  0  0  0  0  0  0  0  0  0
    3.7789   -3.9314   -0.9000 C   0  0  1  0  0  0  0  0  0  0  0  0
    3.3676   -5.0216    0.1012 C   0  0  1  0  0  0  0  0  0  0  0  0
    4.3384   -5.9988    0.4361 O   0  0  0  0  0  0  0  0  0  0  0  0
    4.2655   -6.0867    1.8248 C   0  0  0  0  0  0  0  0  0  0  0  0
    3.2006   -7.1303    2.2408 C   0  0  0  0  0  0  0  0  0  0  0  0
    5.6531   -6.4767    2.3817 C   0  0  0  0  0  0  0  0  0  0  0  0
    3.8980   -4.8570    2.3427 O   0  0  0  0  0  0  0  0  0  0  0  0
    3.0587   -4.2707    1.3988 C   0  0  1  0  0  0  0  0  0  0  0  0
    3.3720   -2.9254    1.2192 O   0  0  0  0  0  0  0  0  0  0  0  0
    3.5343   -2.6141   -0.1649 C   0  0  1  0  0  0  0  0  0  0  0  0
    4.7407   -1.6773   -0.4005 C   0  0  1  0  0  0  0  0  0  0  0  0
    5.9512   -2.3670    0.2999 C   0  0  2  0  0  0  0  0  0  0  0  0
    7.3505   -1.8089    0.1296 C   0  0  1  0  0  0  0  0  0  0  0  0
    8.4387   -2.8436    0.4573 C   0  0  0  0  0  0  0  0  0  0  0  0
    7.6952   -3.4531   -0.7199 C   0  0  2  0  0  0  0  0  0  0  0  0
    7.6301   -2.1462   -1.2285 O   0  0  0  0  0  0  0  0  0  0  0  0
    6.2318   -3.7057   -0.3701 C   0  0  2  0  0  0  0  0  0  0  0  0
    3.6146    0.0074   -2.3656 H   0  0  0  0  0  0  0  0  0  0  0  0
    2.9244   -1.5669   -2.7715 H   0  0  0  0  0  0  0  0  0  0  0  0
    4.1449   -0.8178   -3.8031 H   0  0  0  0  0  0  0  0  0  0  0  0
    5.8118   -0.9466   -2.1318 H   0  0  0  0  0  0  0  0  0  0  0  0
    5.3811   -4.9155   -1.9965 H   0  0  0  0  0  0  0  0  0  0  0  0
    3.0821   -3.9650   -1.7369 H   0  0  0  0  0  0  0  0  0  0  0  0
    2.4604   -5.5268   -0.2353 H   0  0  0  0  0  0  0  0  0  0  0  0
    2.2147   -6.8709    1.8473 H   0  0  0  0  0  0  0  0  0  0  0  0
    3.1369   -7.1509    3.3299 H   0  0  0  0  0  0  0  0  0  0  0  0
    3.4781   -8.1231    1.8818 H   0  0  0  0  0  0  0  0  0  0  0  0
    6.3976   -5.7177    2.1563 H   0  0  0  0  0  0  0  0  0  0  0  0
    5.9710   -7.4268    1.9495 H   0  0  0  0  0  0  0  0  0  0  0  0
    5.5912   -6.5872    3.4643 H   0  0  0  0  0  0  0  0  0  0  0  0
    2.0193   -4.3877    1.7051 H   0  0  0  0  0  0  0  0  0  0  0  0
    2.6179   -2.1805   -0.5337 H   0  0  0  0  0  0  0  0  0  0  0  0
    4.5493   -0.6859    0.0188 H   0  0  0  0  0  0  0  0  0  0  0  0
    5.7353   -2.4921    1.3656 H   0  0  0  0  0  0  0  0  0  0  0  0
    7.5576   -0.7643    0.4179 H   0  0  0  0  0  0  0  0  0  0  0  0
    9.4503   -2.5389    0.2529 H   0  0  0  0  0  0  0  0  0  0  0  0
    8.3012   -3.4411    1.3586 H   0  0  0  0  0  0  0  0  0  0  0  0
    8.3022   -4.1195   -1.3254 H   0  0  0  0  0  0  0  0  0  0  0  0
    6.1688   -4.5044    0.3662 H   0  0  0  0  0  0  0  0  0  0  0  0
  1  2  1  0
  1 22  1  0
  1 23  1  0
  1 24  1  0
  2 15  1  0
  2  3  1  0
  2 25  1  1
  3  4  1  0
  4 21  1  0
  4  5  1  0
  4 26  1  6
  5 14  1  0
  5  6  1  0
  5 27  1  6
  6 12  1  0
  6  7  1  0
  6 28  1  6
  7  8  1  0
  8  9  1  0
  8 10  1  0
  8 11  1  0
  9 29  1  0
  9 30  1  0
  9 31  1  0
 10 32  1  0
 10 33  1  0
 10 34  1  0
 11 12  1  0
 12 13  1  0
 12 35  1  1
 13 14  1  0
 14 15  1  0
 14 36  1  6
 15 16  1  0
 15 37  1  1
 16 21  1  0
 16 17  1  0
 16 38  1  1
 17 20  1  0
 17 18  1  0
 17 39  1  6
 18 19  1  0
 18 40  1  0
 18 41  1  0
 19 20  1  0
 19 21  1  0
 19 42  1  6
 21 43  1  1
M  END
>  <i_m_ct_stereo_status>  (327) 
1

>  <s_m_source_file>  (327) 
/var/tmp/pbs.5076255.sched01/tmpalt_vnqi/12934k3la1h.sdf

>  <i_m_source_file_index>  (327) 
20

>  <i_lp_mmshare_version>  (327) 
48012

>  <i_f3d_flags>  (327) 
0

>  <s_epik_input>  (327) 
TzFbQ0BIXShbQ0BIXTIzKVtDSDJdW0NAQEhdMVtDQEhdM1tDQEBIXShbQ0BASF0oTzQpW0NIM10pW0NAQEhdNU9bQ0BASF0oW0NASF02W0NAQEhdNVtDQEhdMjQpT0MoTzYpKFtDSDNdKVtDSDNd

>  <s_epik_cmdline>  (327) 
J2VwaWtfcHl0aG9uJywgJy1waHQnLCAnMi4wJywgJy1waCcsICc3LjAnLCAnLXRuJywgJzgnLCAnLW1hJywgJzIwMCcsICctaW1hZScsICc8aW5maWxlLm1hZT4nLCAnLW9tYWUnLCAnPG91dGZpbGUubWFlPic=

>  <r_lp_tautomer_probability>  (327) 
1

>  <r_epik_Ionization_Penalty>  (327) 
1.1272e-11

>  <r_epik_Ionization_Penalty_Charging>  (327) 
0

>  <r_epik_Ionization_Penalty_Neutral>  (327) 
1.1272e-11

>  <r_epik_State_Penalty>  (327) 
-0

>  <r_epik_Charging_Adjusted_Penalty>  (327) 
0

>  <i_epik_Tot_Q>  (327) 
0

>  <i_epik_Tot_abs_Q>  (327) 
0

>  <s_epik_Chemistry_Notes>  (327) 
This compound contains an acetal/aminal-like group ( X-CH(R)-Y where X, Y are N, S, or O) that may be acid/base labile, releasing an aldehyde.

>  <s_lp_Force_Field>  (327) 
OPLS3e

>  <r_lp_Energy>  (327) 
34.7172

>  <b_lp_Chiralities_Consistent>  (327) 
1

>  <s_lp_Variant>  (327) 
100:0-1

>  <s_i_glide_gridfile>  (327) 
pfpi4k_grid

>  <i_i_glide_lignum>  (327) 
20

>  <i_i_glide_rotatable_bonds>  (327) 
0

>  <r_i_docking_score>  (327) 
-3.69512

>  <r_i_glide_ligand_efficiency>  (327) 
-0.175958

>  <r_i_glide_ligand_efficiency_sa>  (327) 
-0.485455

>  <r_i_glide_ligand_efficiency_ln>  (327) 
-0.913611

>  <r_i_glide_gscore>  (327) 
-3.69512

>  <r_i_glide_lipo>  (327) 
-0.446737

>  <r_i_glide_hbond>  (327) 
-0.16

>  <r_i_glide_metal>  (327) 
-0

>  <r_i_glide_rewards>  (327) 
-1.44595

>  <r_i_glide_evdw>  (327) 
-19.4355

>  <r_i_glide_ecoul>  (327) 
-4.46024

>  <r_i_glide_erotb>  (327) 
0

>  <r_i_glide_esite>  (327) 
-0.00161844

>  <r_i_glide_emodel>  (327) 
-29.8851

>  <r_i_glide_energy>  (327) 
-23.8957

>  <r_i_glide_einternal>  (327) 
0

>  <r_i_glide_intrahb_reward>  (327) 
-0

>  <i_i_glide_confnum>  (327) 
1

>  <i_i_glide_posenum>  (327) 
6

>  <r_i_glide_eff_state_penalty>  (327) 
0

>  <ligand_id>  (327) 
100

>  <original_smiles>  (327) 
CC1OC2C3C4OC(C)(C)OC4OC3C1C1C3CC(O3)C21

>  <smiles>  (327) 
[H]C([H])([H])C1([H])OC2([H])C3([H])C4([H])OC(C([H])([H])[H])(C([H])([H])[H])OC4([H])OC3([H])C1([H])C1([H])C3([H])OC([H])(C3([H])[H])C21[H]

$$$$
100:0:1
     RDKit          3D

 43 48  0  0  1  0  0  0  0  0999 V2000
    3.9391   -1.4033   -3.1022 C   0  0  0  0  0  0  0  0  0  0  0  0
    4.5319   -1.3788   -1.6838 C   0  0  2  0  0  0  0  0  0  0  0  0
    5.8204   -2.0350   -1.6719 O   0  0  0  0  0  0  0  0  0  0  0  0
    5.9587   -3.1065   -0.7130 C   0  0  2  0  0  0  0  0  0  0  0  0
    4.8532   -4.1404   -1.0726 C   0  0  1  0  0  0  0  0  0  0  0  0
    4.7697   -5.4445   -0.2713 C   0  0  1  0  0  0  0  0  0  0  0  0
    5.7174   -5.6458    0.7607 O   0  0  0  0  0  0  0  0  0  0  0  0
    4.9697   -6.1203    1.8360 C   0  0  0  0  0  0  0  0  0  0  0  0
    4.8398   -7.6566    1.7604 C   0  0  0  0  0  0  0  0  0  0  0  0
    5.6434   -5.6869    3.1486 C   0  0  0  0  0  0  0  0  0  0  0  0
    3.7023   -5.5616    1.7652 O   0  0  0  0  0  0  0  0  0  0  0  0
    3.4028   -5.4118    0.4201 C   0  0  1  0  0  0  0  0  0  0  0  0
    2.8083   -4.1792    0.1588 O   0  0  0  0  0  0  0  0  0  0  0  0
    3.4661   -3.5027   -0.9087 C   0  0  1  0  0  0  0  0  0  0  0  0
    3.6267   -1.9997   -0.5869 C   0  0  1  0  0  0  0  0  0  0  0  0
    4.3223   -1.9059    0.7969 C   0  0  2  0  0  0  0  0  0  0  0  0
    4.7992   -0.5563    1.3246 C   0  0  1  0  0  0  0  0  0  0  0  0
    5.8129   -0.7677    2.4573 C   0  0  0  0  0  0  0  0  0  0  0  0
    6.5078   -1.3979    1.2424 C   0  0  2  0  0  0  0  0  0  0  0  0
    5.9574   -0.2964    0.4989 O   0  0  0  0  0  0  0  0  0  0  0  0
    5.6911   -2.5652    0.7187 C   0  0  2  0  0  0  0  0  0  0  0  0
    2.9380   -0.9698   -3.1106 H   0  0  0  0  0  0  0  0  0  0  0  0
    3.8752   -2.4118   -3.5090 H   0  0  0  0  0  0  0  0  0  0  0  0
    4.5543   -0.8134   -3.7835 H   0  0  0  0  0  0  0  0  0  0  0  0
    4.6740   -0.3197   -1.4659 H   0  0  0  0  0  0  0  0  0  0  0  0
    6.9551   -3.5430   -0.7923 H   0  0  0  0  0  0  0  0  0  0  0  0
    4.9940   -4.4065   -2.1193 H   0  0  0  0  0  0  0  0  0  0  0  0
    4.7843   -6.3019   -0.9421 H   0  0  0  0  0  0  0  0  0  0  0  0
    4.3700   -7.9764    0.8281 H   0  0  0  0  0  0  0  0  0  0  0  0
    4.2192   -8.0017    2.5882 H   0  0  0  0  0  0  0  0  0  0  0  0
    5.8224   -8.1225    1.8387 H   0  0  0  0  0  0  0  0  0  0  0  0
    5.6734   -4.6032    3.2412 H   0  0  0  0  0  0  0  0  0  0  0  0
    6.6635   -6.0727    3.1845 H   0  0  0  0  0  0  0  0  0  0  0  0
    5.0877   -6.0893    3.9950 H   0  0  0  0  0  0  0  0  0  0  0  0
    2.7608   -6.2291    0.0859 H   0  0  0  0  0  0  0  0  0  0  0  0
    2.8800   -3.6553   -1.8140 H   0  0  0  0  0  0  0  0  0  0  0  0
    2.6600   -1.5090   -0.5347 H   0  0  0  0  0  0  0  0  0  0  0  0
    3.6991   -2.3892    1.5529 H   0  0  0  0  0  0  0  0  0  0  0  0
    4.0965    0.2722    1.4254 H   0  0  0  0  0  0  0  0  0  0  0  0
    6.2634    0.1401    2.8530 H   0  0  0  0  0  0  0  0  0  0  0  0
    5.5031   -1.4772    3.2230 H   0  0  0  0  0  0  0  0  0  0  0  0
    7.5964   -1.4543    1.2554 H   0  0  0  0  0  0  0  0  0  0  0  0
    5.7542   -3.3777    1.4334 H   0  0  0  0  0  0  0  0  0  0  0  0
  1  2  1  0
  1 22  1  0
  1 23  1  0
  1 24  1  0
  2 15  1  0
  2  3  1  0
  2 25  1  1
  3  4  1  0
  4 21  1  0
  4  5  1  0
  4 26  1  1
  5 14  1  0
  5  6  1  0
  5 27  1  6
  6 12  1  0
  6  7  1  0
  6 28  1  6
  7  8  1  0
  8  9  1  0
  8 10  1  0
  8 11  1  0
  9 29  1  0
  9 30  1  0
  9 31  1  0
 10 32  1  0
 10 33  1  0
 10 34  1  0
 11 12  1  0
 12 13  1  0
 12 35  1  6
 13 14  1  0
 14 15  1  0
 14 36  1  6
 15 16  1  0
 15 37  1  1
 16 21  1  0
 16 17  1  0
 16 38  1  1
 17 20  1  0
 17 18  1  0
 17 39  1  1
 18 19  1  0
 18 40  1  0
 18 41  1  0
 19 20  1  0
 19 21  1  0
 19 42  1  1
 21 43  1  1
M  END
>  <i_m_ct_stereo_status>  (328) 
1

>  <s_m_source_file>  (328) 
/var/tmp/pbs.5076255.sched01/tmpalt_vnqi/12934k3la1h.sdf

>  <i_m_source_file_index>  (328) 
20

>  <i_lp_mmshare_version>  (328) 
48012

>  <i_f3d_flags>  (328) 
0

>  <s_epik_input>  (328) 
TzFbQ0BIXShbQ0BIXTIzKVtDSDJdW0NAQEhdMVtDQEhdM1tDQEBIXShbQ0BASF0oTzQpW0NIM10pW0NAQEhdNU9bQ0BASF0oW0NASF02W0NAQEhdNVtDQEhdMjQpT0MoTzYpKFtDSDNdKVtDSDNd

>  <s_epik_cmdline>  (328) 
J2VwaWtfcHl0aG9uJywgJy1waHQnLCAnMi4wJywgJy1waCcsICc3LjAnLCAnLXRuJywgJzgnLCAnLW1hJywgJzIwMCcsICctaW1hZScsICc8aW5maWxlLm1hZT4nLCAnLW9tYWUnLCAnPG91dGZpbGUubWFlPic=

>  <r_lp_tautomer_probability>  (328) 
1

>  <r_epik_Ionization_Penalty>  (328) 
1.1272e-11

>  <r_epik_Ionization_Penalty_Charging>  (328) 
0

>  <r_epik_Ionization_Penalty_Neutral>  (328) 
1.1272e-11

>  <r_epik_State_Penalty>  (328) 
-0

>  <r_epik_Charging_Adjusted_Penalty>  (328) 
0

>  <i_epik_Tot_Q>  (328) 
0

>  <i_epik_Tot_abs_Q>  (328) 
0

>  <s_epik_Chemistry_Notes>  (328) 
This compound contains an acetal/aminal-like group ( X-CH(R)-Y where X, Y are N, S, or O) that may be acid/base labile, releasing an aldehyde.

>  <s_lp_Force_Field>  (328) 
OPLS3e

>  <r_lp_Energy>  (328) 
34.7172

>  <b_lp_Chiralities_Consistent>  (328) 
1

>  <s_lp_Variant>  (328) 
100:0-1

>  <s_i_glide_gridfile>  (328) 
pfpi4k_grid

>  <i_i_glide_lignum>  (328) 
20

>  <i_i_glide_rotatable_bonds>  (328) 
0

>  <r_i_docking_score>  (328) 
-3.50958

>  <r_i_glide_ligand_efficiency>  (328) 
-0.167123

>  <r_i_glide_ligand_efficiency_sa>  (328) 
-0.461079

>  <r_i_glide_ligand_efficiency_ln>  (328) 
-0.867736

>  <r_i_glide_gscore>  (328) 
-3.50958

>  <r_i_glide_lipo>  (328) 
-0.543941

>  <r_i_glide_hbond>  (328) 
-0.0113269

>  <r_i_glide_metal>  (328) 
-0

>  <r_i_glide_rewards>  (328) 
-1.45485

>  <r_i_glide_evdw>  (328) 
-23.6552

>  <r_i_glide_ecoul>  (328) 
-2.01584

>  <r_i_glide_erotb>  (328) 
0

>  <r_i_glide_esite>  (328) 
-0.0143235

>  <r_i_glide_emodel>  (328) 
-31.4877

>  <r_i_glide_energy>  (328) 
-25.6711

>  <r_i_glide_einternal>  (328) 
0

>  <r_i_glide_intrahb_reward>  (328) 
-0

>  <i_i_glide_confnum>  (328) 
1

>  <i_i_glide_posenum>  (328) 
1

>  <r_i_glide_eff_state_penalty>  (328) 
0

>  <ligand_id>  (328) 
100

>  <original_smiles>  (328) 
CC1OC2C3C4OC(C)(C)OC4OC3C1C1C3CC(O3)C21

>  <smiles>  (328) 
[H]C([H])([H])C1([H])OC2([H])C3([H])C4([H])OC(C([H])([H])[H])(C([H])([H])[H])OC4([H])OC3([H])C1([H])C1([H])C3([H])OC([H])(C3([H])[H])C21[H]

$$$$
100:0:2
     RDKit          3D

 43 48  0  0  1  0  0  0  0  0999 V2000
    3.1554   -3.0523   -3.0598 C   0  0  0  0  0  0  0  0  0  0  0  0
    4.2296   -2.8037   -1.9868 C   0  0  2  0  0  0  0  0  0  0  0  0
    4.9202   -4.0318   -1.6681 O   0  0  0  0  0  0  0  0  0  0  0  0
    4.9262   -4.4052   -0.2756 C   0  0  2  0  0  0  0  0  0  0  0  0
    3.4352   -4.5252    0.1468 C   0  0  1  0  0  0  0  0  0  0  0  0
    3.0938   -4.9758    1.5722 C   0  0  1  0  0  0  0  0  0  0  0  0
    4.1705   -5.2579    2.4456 O   0  0  0  0  0  0  0  0  0  0  0  0
    3.8326   -4.6242    3.6399 C   0  0  0  0  0  0  0  0  0  0  0  0
    2.9705   -5.5570    4.5163 C   0  0  0  0  0  0  0  0  0  0  0  0
    5.1130   -4.2028    4.3729 C   0  0  0  0  0  0  0  0  0  0  0  0
    3.0918   -3.4941    3.3383 O   0  0  0  0  0  0  0  0  0  0  0  0
    2.3588   -3.7882    2.2034 C   0  0  1  0  0  0  0  0  0  0  0  0
    2.3774   -2.7326    1.2961 O   0  0  0  0  0  0  0  0  0  0  0  0
    2.7408   -3.1654   -0.0115 C   0  0  1  0  0  0  0  0  0  0  0  0
    3.7070   -2.1572   -0.6768 C   0  0  1  0  0  0  0  0  0  0  0  0
    4.8800   -1.9546    0.3185 C   0  0  2  0  0  0  0  0  0  0  0  0
    6.1110   -1.1671   -0.1031 C   0  0  1  0  0  0  0  0  0  0  0  0
    7.2798   -1.4567    0.8380 C   0  0  0  0  0  0  0  0  0  0  0  0
    7.0047   -2.8201    0.1981 C   0  0  2  0  0  0  0  0  0  0  0  0
    6.7899   -2.0618   -1.0116 O   0  0  0  0  0  0  0  0  0  0  0  0
    5.5932   -3.2754    0.5510 C   0  0  2  0  0  0  0  0  0  0  0  0
    2.5778   -2.1514   -3.2616 H   0  0  0  0  0  0  0  0  0  0  0  0
    2.4565   -3.8405   -2.7725 H   0  0  0  0  0  0  0  0  0  0  0  0
    3.6177   -3.3686   -3.9966 H   0  0  0  0  0  0  0  0  0  0  0  0
    4.9376   -2.1222   -2.4595 H   0  0  0  0  0  0  0  0  0  0  0  0
    5.4515   -5.3511   -0.1504 H   0  0  0  0  0  0  0  0  0  0  0  0
    2.9620   -5.2287   -0.5337 H   0  0  0  0  0  0  0  0  0  0  0  0
    2.4155   -5.8302    1.5515 H   0  0  0  0  0  0  0  0  0  0  0  0
    2.0600   -5.8658    4.0008 H   0  0  0  0  0  0  0  0  0  0  0  0
    2.6846   -5.0250    5.4252 H   0  0  0  0  0  0  0  0  0  0  0  0
    3.5423   -6.4450    4.7896 H   0  0  0  0  0  0  0  0  0  0  0  0
    5.6853   -3.4834    3.7904 H   0  0  0  0  0  0  0  0  0  0  0  0
    5.7340   -5.0795    4.5625 H   0  0  0  0  0  0  0  0  0  0  0  0
    4.8556   -3.7435    5.3277 H   0  0  0  0  0  0  0  0  0  0  0  0
    1.3383   -4.0446    2.4906 H   0  0  0  0  0  0  0  0  0  0  0  0
    1.8307   -3.2885   -0.5992 H   0  0  0  0  0  0  0  0  0  0  0  0
    3.2033   -1.2103   -0.8778 H   0  0  0  0  0  0  0  0  0  0  0  0
    4.4948   -1.5449    1.2556 H   0  0  0  0  0  0  0  0  0  0  0  0
    5.9953   -0.1391   -0.4352 H   0  0  0  0  0  0  0  0  0  0  0  0
    8.2358   -1.0098    0.5701 H   0  0  0  0  0  0  0  0  0  0  0  0
    7.0226   -1.3763    1.8949 H   0  0  0  0  0  0  0  0  0  0  0  0
    7.8232   -3.5413    0.1732 H   0  0  0  0  0  0  0  0  0  0  0  0
    5.5663   -3.5302    1.6060 H   0  0  0  0  0  0  0  0  0  0  0  0
  1  2  1  0
  1 22  1  0
  1 23  1  0
  1 24  1  0
  2 15  1  0
  2  3  1  0
  2 25  1  6
  3  4  1  0
  4 21  1  0
  4  5  1  0
  4 26  1  6
  5 14  1  0
  5  6  1  0
  5 27  1  6
  6 12  1  0
  6  7  1  0
  6 28  1  6
  7  8  1  0
  8  9  1  0
  8 10  1  0
  8 11  1  0
  9 29  1  0
  9 30  1  0
  9 31  1  0
 10 32  1  0
 10 33  1  0
 10 34  1  0
 11 12  1  0
 12 13  1  0
 12 35  1  1
 13 14  1  0
 14 15  1  0
 14 36  1  6
 15 16  1  0
 15 37  1  6
 16 21  1  0
 16 17  1  0
 16 38  1  1
 17 20  1  0
 17 18  1  0
 17 39  1  6
 18 19  1  0
 18 40  1  0
 18 41  1  0
 19 20  1  0
 19 21  1  0
 19 42  1  6
 21 43  1  1
M  END
>  <i_m_ct_stereo_status>  (329) 
1

>  <s_m_source_file>  (329) 
/var/tmp/pbs.5076255.sched01/tmpalt_vnqi/12934k3la1h.sdf

>  <i_m_source_file_index>  (329) 
20

>  <i_lp_mmshare_version>  (329) 
48012

>  <i_f3d_flags>  (329) 
0

>  <s_epik_input>  (329) 
TzFbQ0BIXShbQ0BIXTIzKVtDSDJdW0NAQEhdMVtDQEhdM1tDQEBIXShbQ0BASF0oTzQpW0NIM10pW0NAQEhdNU9bQ0BASF0oW0NASF02W0NAQEhdNVtDQEhdMjQpT0MoTzYpKFtDSDNdKVtDSDNd

>  <s_epik_cmdline>  (329) 
J2VwaWtfcHl0aG9uJywgJy1waHQnLCAnMi4wJywgJy1waCcsICc3LjAnLCAnLXRuJywgJzgnLCAnLW1hJywgJzIwMCcsICctaW1hZScsICc8aW5maWxlLm1hZT4nLCAnLW9tYWUnLCAnPG91dGZpbGUubWFlPic=

>  <r_lp_tautomer_probability>  (329) 
1

>  <r_epik_Ionization_Penalty>  (329) 
1.1272e-11

>  <r_epik_Ionization_Penalty_Charging>  (329) 
0

>  <r_epik_Ionization_Penalty_Neutral>  (329) 
1.1272e-11

>  <r_epik_State_Penalty>  (329) 
-0

>  <r_epik_Charging_Adjusted_Penalty>  (329) 
0

>  <i_epik_Tot_Q>  (329) 
0

>  <i_epik_Tot_abs_Q>  (329) 
0

>  <s_epik_Chemistry_Notes>  (329) 
This compound contains an acetal/aminal-like group ( X-CH(R)-Y where X, Y are N, S, or O) that may be acid/base labile, releasing an aldehyde.

>  <s_lp_Force_Field>  (329) 
OPLS3e

>  <r_lp_Energy>  (329) 
34.7172

>  <b_lp_Chiralities_Consistent>  (329) 
1

>  <s_lp_Variant>  (329) 
100:0-1

>  <s_i_glide_gridfile>  (329) 
pfpi4k_grid

>  <i_i_glide_lignum>  (329) 
20

>  <i_i_glide_rotatable_bonds>  (329) 
0

>  <r_i_docking_score>  (329) 
-3.09485

>  <r_i_glide_ligand_efficiency>  (329) 
-0.147374

>  <r_i_glide_ligand_efficiency_sa>  (329) 
-0.406593

>  <r_i_glide_ligand_efficiency_ln>  (329) 
-0.765195

>  <r_i_glide_gscore>  (329) 
-3.09485

>  <r_i_glide_lipo>  (329) 
-0.241931

>  <r_i_glide_hbond>  (329) 
-0.16

>  <r_i_glide_metal>  (329) 
-0

>  <r_i_glide_rewards>  (329) 
-1.40221

>  <r_i_glide_evdw>  (329) 
-18.8375

>  <r_i_glide_ecoul>  (329) 
-2.27137

>  <r_i_glide_erotb>  (329) 
0

>  <r_i_glide_esite>  (329) 
-0.00813106

>  <r_i_glide_emodel>  (329) 
-26.1576

>  <r_i_glide_energy>  (329) 
-21.1089

>  <r_i_glide_einternal>  (329) 
0

>  <r_i_glide_intrahb_reward>  (329) 
-0

>  <i_i_glide_confnum>  (329) 
1

>  <i_i_glide_posenum>  (329) 
18

>  <r_i_glide_eff_state_penalty>  (329) 
0

>  <ligand_id>  (329) 
100

>  <original_smiles>  (329) 
CC1OC2C3C4OC(C)(C)OC4OC3C1C1C3CC(O3)C21

>  <smiles>  (329) 
[H]C([H])([H])C1([H])OC2([H])C3([H])C4([H])OC(C([H])([H])[H])(C([H])([H])[H])OC4([H])OC3([H])C1([H])C1([H])C3([H])OC([H])(C3([H])[H])C21[H]

$$$$
102:0:0
     RDKit          3D

 91 98  0  0  1  0  0  0  0  0999 V2000
    7.2404   -2.4531    0.4367 C   0  0  0  0  0  0  0  0  0  0  0  0
    5.7439   -2.1767    0.6119 C   0  0  0  0  0  0  0  0  0  0  0  0
    5.4445   -0.6731    0.5195 C   0  0  0  0  0  0  0  0  0  0  0  0
    5.0717   -2.7783   -0.4441 O   0  0  0  0  0  0  0  0  0  0  0  0
    4.0267   -3.6771   -0.1227 C   0  0  2  0  0  0  0  0  0  0  0  0
    2.7332   -2.9857    0.4712 C   0  0  0  0  0  0  0  0  0  0  0  0
    2.6963   -2.7954    2.0408 C   0  0  1  0  0  0  0  0  0  0  0  0
    1.4296   -2.4719    2.6134 O   0  0  0  0  0  0  0  0  0  0  0  0
    1.4342   -1.7641    3.8754 C   0  0  0  0  0  0  0  0  0  0  0  0
    1.7014   -0.2676    3.6144 C   0  0  0  0  0  0  0  0  0  0  0  0
    0.0251   -1.9352    4.4796 C   0  0  0  0  0  0  0  0  0  0  0  0
    2.5164   -2.3143    4.8375 C   0  0  0  0  0  0  0  0  0  0  0  0
    2.3504   -2.3396    6.0543 O   0  0  0  0  0  0  0  0  0  0  0  0
    3.8192   -2.8475    4.2198 C   0  0  0  0  0  0  0  0  0  0  0  0
    3.5408   -3.7584    2.9816 C   0  0  2  0  0  0  0  0  0  0  0  0
    4.8202   -3.8995    2.1545 C   0  0  2  0  0  0  0  0  0  0  0  0
    5.3566   -2.5871    1.8905 O   0  0  0  0  0  0  0  0  0  0  0  0
    4.5079   -4.7316    0.8780 C   0  0  1  0  0  0  0  0  0  0  0  0
    3.3133   -5.5072    0.8039 O   0  0  0  0  0  0  0  0  0  0  0  0
    5.6353   -5.7839    0.6676 C   0  0  0  0  0  0  0  0  0  0  0  0
    5.2878   -7.0784    1.4452 C   0  0  2  0  0  0  0  0  0  0  0  0
    4.5403   -8.0294    0.5014 C   0  0  0  0  0  0  0  0  0  0  0  0
    5.1066   -6.7012    2.9638 C   0  0  1  0  0  0  0  0  0  0  0  0
    3.7811   -6.6001    3.7679 C   0  0  1  0  0  0  0  0  0  0  0  0
    4.1106   -6.4933    5.2940 C   0  0  0  0  0  0  0  0  0  0  0  0
    2.8756   -6.6670    6.2679 C   0  0  1  0  0  0  0  0  0  0  0  0
    3.1417   -5.9393    7.4510 O   0  0  0  0  0  0  0  0  0  0  0  0
    1.3740   -6.4657    5.7711 C   0  0  1  0  0  0  0  0  0  0  0  0
    0.8583   -5.2245    6.2292 O   0  0  0  0  0  0  0  0  0  0  0  0
    0.9917   -6.6435    4.2360 C   0  0  1  0  0  0  0  0  0  0  0  0
   -0.4262   -6.6374    4.1539 O   0  0  0  0  0  0  0  0  0  0  0  0
    1.4413   -5.4413    3.3726 C   0  0  0  0  0  0  0  0  0  0  0  0
    2.9432   -5.2006    3.5152 C   0  0  2  0  0  0  0  0  0  0  0  0
    1.4787   -7.9897    3.5919 C   0  0  0  0  0  0  0  0  0  0  0  0
    0.8669   -9.2067    4.3476 C   0  0  0  0  0  0  0  0  0  0  0  0
    1.0170   -8.1258    2.1126 C   0  0  0  0  0  0  0  0  0  0  0  0
    3.0320   -8.0211    3.6996 C   0  0  1  0  0  0  0  0  0  0  0  0
    3.7859   -9.2641    3.1247 C   0  0  0  0  0  0  0  0  0  0  0  0
    5.3342   -9.1775    3.1578 C   0  0  0  0  0  0  0  0  0  0  0  0
    5.9146   -7.8728    2.6226 C   0  0  1  0  0  0  0  0  0  0  0  0
    7.4303   -7.8617    2.7446 C   0  0  0  0  0  0  0  0  0  0  0  0
    7.4454   -3.5197    0.4286 H   0  0  0  0  0  0  0  0  0  0  0  0
    7.7830   -1.9894    1.2563 H   0  0  0  0  0  0  0  0  0  0  0  0
    7.5951   -2.0253   -0.4981 H   0  0  0  0  0  0  0  0  0  0  0  0
    4.3741   -0.4882    0.6006 H   0  0  0  0  0  0  0  0  0  0  0  0
    5.7866   -0.2822   -0.4386 H   0  0  0  0  0  0  0  0  0  0  0  0
    5.9555   -0.1459    1.3251 H   0  0  0  0  0  0  0  0  0  0  0  0
    3.7636   -4.1294   -1.0823 H   0  0  0  0  0  0  0  0  0  0  0  0
    2.6156   -2.0170   -0.0169 H   0  0  0  0  0  0  0  0  0  0  0  0
    1.8582   -3.5674    0.1795 H   0  0  0  0  0  0  0  0  0  0  0  0
    3.1883   -1.8275    2.0907 H   0  0  0  0  0  0  0  0  0  0  0  0
    1.5315    0.3247    4.5140 H   0  0  0  0  0  0  0  0  0  0  0  0
    1.0487    0.1261    2.8340 H   0  0  0  0  0  0  0  0  0  0  0  0
    2.7299   -0.0775    3.3096 H   0  0  0  0  0  0  0  0  0  0  0  0
   -0.1073   -1.3391    5.3816 H   0  0  0  0  0  0  0  0  0  0  0  0
   -0.1806   -2.9709    4.7466 H   0  0  0  0  0  0  0  0  0  0  0  0
   -0.7389   -1.6245    3.7693 H   0  0  0  0  0  0  0  0  0  0  0  0
    4.4116   -1.9736    3.9427 H   0  0  0  0  0  0  0  0  0  0  0  0
    4.4004   -3.3752    4.9755 H   0  0  0  0  0  0  0  0  0  0  0  0
    5.6358   -4.2681    2.7529 H   0  0  0  0  0  0  0  0  0  0  0  0
    3.2472   -5.8538   -0.0792 H   0  0  0  0  0  0  0  0  0  0  0  0
    5.7670   -5.9828   -0.3925 H   0  0  0  0  0  0  0  0  0  0  0  0
    6.5947   -5.4207    1.0218 H   0  0  0  0  0  0  0  0  0  0  0  0
    4.9395   -9.0436    0.5565 H   0  0  0  0  0  0  0  0  0  0  0  0
    4.6169   -7.7322   -0.5450 H   0  0  0  0  0  0  0  0  0  0  0  0
    3.4795   -8.0331    0.7346 H   0  0  0  0  0  0  0  0  0  0  0  0
    5.8249   -6.0575    3.4436 H   0  0  0  0  0  0  0  0  0  0  0  0
    4.8541   -7.2524    5.5480 H   0  0  0  0  0  0  0  0  0  0  0  0
    4.6257   -5.5517    5.4909 H   0  0  0  0  0  0  0  0  0  0  0  0
    2.9191   -7.6999    6.6235 H   0  0  0  0  0  0  0  0  0  0  0  0
    3.9491   -6.2665    7.8206 H   0  0  0  0  0  0  0  0  0  0  0  0
    0.7934   -7.1981    6.3357 H   0  0  0  0  0  0  0  0  0  0  0  0
    1.4139   -4.5304    5.9093 H   0  0  0  0  0  0  0  0  0  0  0  0
   -0.7375   -7.3879    4.6378 H   0  0  0  0  0  0  0  0  0  0  0  0
    1.1521   -5.5317    2.3310 H   0  0  0  0  0  0  0  0  0  0  0  0
    0.8976   -4.5655    3.7105 H   0  0  0  0  0  0  0  0  0  0  0  0
    2.8282   -4.8602    4.5260 H   0  0  0  0  0  0  0  0  0  0  0  0
    1.1773  -10.1487    3.8930 H   0  0  0  0  0  0  0  0  0  0  0  0
   -0.2241   -9.2028    4.3273 H   0  0  0  0  0  0  0  0  0  0  0  0
    1.1718   -9.2446    5.3941 H   0  0  0  0  0  0  0  0  0  0  0  0
    1.2372   -9.1138    1.7114 H   0  0  0  0  0  0  0  0  0  0  0  0
    1.4906   -7.4093    1.4451 H   0  0  0  0  0  0  0  0  0  0  0  0
   -0.0616   -7.9961    2.0131 H   0  0  0  0  0  0  0  0  0  0  0  0
    3.1339   -8.4399    4.6897 H   0  0  0  0  0  0  0  0  0  0  0  0
    3.5272  -10.1401    3.7250 H   0  0  0  0  0  0  0  0  0  0  0  0
    3.4174   -9.5559    2.1496 H   0  0  0  0  0  0  0  0  0  0  0  0
    5.6686   -9.2916    4.1912 H   0  0  0  0  0  0  0  0  0  0  0  0
    5.7699  -10.0166    2.6164 H   0  0  0  0  0  0  0  0  0  0  0  0
    7.7406   -8.0496    3.7728 H   0  0  0  0  0  0  0  0  0  0  0  0
    7.8366   -6.8984    2.4373 H   0  0  0  0  0  0  0  0  0  0  0  0
    7.8601   -8.6302    2.1034 H   0  0  0  0  0  0  0  0  0  0  0  0
  1  2  1  0
  1 42  1  0
  1 43  1  0
  1 44  1  0
  2 17  1  0
  2  3  1  0
  2  4  1  0
  3 45  1  0
  3 46  1  0
  3 47  1  0
  4  5  1  0
  5 18  1  0
  5  6  1  0
  5 48  1  6
  6  7  1  0
  6 49  1  0
  6 50  1  0
  7 15  1  0
  7  8  1  0
  7 51  1  6
  8  9  1  0
  9 10  1  0
  9 11  1  0
  9 12  1  0
 10 52  1  0
 10 53  1  0
 10 54  1  0
 11 55  1  0
 11 56  1  0
 11 57  1  0
 12 13  2  0
 12 14  1  0
 15 14  1  1
 14 58  1  0
 14 59  1  0
 15 33  1  0
 15 16  1  0
 16 17  1  0
 16 18  1  0
 16 60  1  1
 18 19  1  1
 18 20  1  0
 19 61  1  0
 20 21  1  0
 20 62  1  0
 20 63  1  0
 21 40  1  0
 21 22  1  6
 21 23  1  0
 22 64  1  0
 22 65  1  0
 22 66  1  0
 23 40  1  0
 23 24  1  0
 23 67  1  6
 24 33  1  0
 24 37  1  0
 24 25  1  1
 25 26  1  0
 25 68  1  0
 25 69  1  0
 26 27  1  0
 26 28  1  0
 26 70  1  1
 27 71  1  0
 28 29  1  0
 28 30  1  0
 28 72  1  1
 29 73  1  0
 30 31  1  1
 30 32  1  0
 30 34  1  0
 31 74  1  0
 32 33  1  0
 32 75  1  0
 32 76  1  0
 33 77  1  1
 34 35  1  0
 34 36  1  0
 34 37  1  0
 35 78  1  0
 35 79  1  0
 35 80  1  0
 36 81  1  0
 36 82  1  0
 36 83  1  0
 37 38  1  0
 37 84  1  1
 38 39  1  0
 38 85  1  0
 38 86  1  0
 39 40  1  0
 39 87  1  0
 39 88  1  0
 40 41  1  6
 41 89  1  0
 41 90  1  0
 41 91  1  0
M  END
>  <i_m_ct_stereo_status>  (330) 
1

>  <s_m_source_file>  (330) 
/var/tmp/pbs.5076255.sched01/tmpalt_vnqi/12934k3la1h.sdf

>  <i_m_source_file_index>  (330) 
22

>  <i_lp_mmshare_version>  (330) 
48012

>  <i_f3d_flags>  (330) 
0

>  <s_epik_input>  (330) 
Tz1DKFtDSDJdMSlDKFtDSDNdKShbQ0gzXSlPW0NAQEhdKFtDQF0xMjMpW0NIMl1bQ0BASF00W0NAXShbT0hdKShbQ0BIXTJPQyhPNCkoW0NIM10pW0NIM10pW0NIMl1bQ0BdNShbQ0gzXSlbQ0BIXTZbQ0BdNzhbQ0BASF0zW0NIMl1bQ0BdKFtPSF0pKFtDQEhdKFtPSF0pW0NAQEhdKFtDSDJdNylbT0hdKUMoW0NIM10pKFtDSDNdKVtDQEhdOFtDSDJdW0NIMl1bQ0BAXTU2W0NIM10=

>  <s_epik_cmdline>  (330) 
J2VwaWtfcHl0aG9uJywgJy1waHQnLCAnMi4wJywgJy1waCcsICc3LjAnLCAnLXRuJywgJzgnLCAnLW1hJywgJzIwMCcsICctaW1hZScsICc8aW5maWxlLm1hZT4nLCAnLW9tYWUnLCAnPG91dGZpbGUubWFlPic=

>  <r_lp_tautomer_probability>  (330) 
1

>  <r_epik_Ionization_Penalty>  (330) 
1.15274e-06

>  <r_epik_Ionization_Penalty_Charging>  (330) 
0

>  <r_epik_Ionization_Penalty_Neutral>  (330) 
1.15274e-06

>  <r_epik_State_Penalty>  (330) 
-0

>  <r_epik_Charging_Adjusted_Penalty>  (330) 
0

>  <i_epik_Tot_Q>  (330) 
0

>  <i_epik_Tot_abs_Q>  (330) 
0

>  <s_lp_Force_Field>  (330) 
OPLS3e

>  <r_lp_Energy>  (330) 
229.602

>  <b_lp_Chiralities_Consistent>  (330) 
1

>  <s_lp_Variant>  (330) 
102:0-1

>  <s_i_glide_gridfile>  (330) 
pfpi4k_grid

>  <i_i_glide_lignum>  (330) 
22

>  <i_i_glide_rotatable_bonds>  (330) 
4

>  <r_i_docking_score>  (330) 
-3.08475

>  <r_i_glide_ligand_efficiency>  (330) 
-0.0752379

>  <r_i_glide_ligand_efficiency_sa>  (330) 
-0.259437

>  <r_i_glide_ligand_efficiency_ln>  (330) 
-0.654441

>  <r_i_glide_gscore>  (330) 
-3.08475

>  <r_i_glide_lipo>  (330) 
-0.579068

>  <r_i_glide_hbond>  (330) 
0

>  <r_i_glide_metal>  (330) 
-0

>  <r_i_glide_rewards>  (330) 
-0.590815

>  <r_i_glide_evdw>  (330) 
-32.5398

>  <r_i_glide_ecoul>  (330) 
-1.91918

>  <r_i_glide_erotb>  (330) 
0

>  <r_i_glide_esite>  (330) 
0

>  <r_i_glide_emodel>  (330) 
-46.23

>  <r_i_glide_energy>  (330) 
-34.459

>  <r_i_glide_einternal>  (330) 
0.415677

>  <r_i_glide_intrahb_reward>  (330) 
-0.5

>  <i_i_glide_confnum>  (330) 
2

>  <i_i_glide_posenum>  (330) 
9

>  <r_i_glide_eff_state_penalty>  (330) 
0

>  <ligand_id>  (330) 
102

>  <original_smiles>  (330) 
CC1(C)OC2CC3OC(C)(C)C(=O)CC34C(O1)C2(O)CC1(C)C2C35CC(O)C(O)C(O)(CC43)C(C)(C)C5CCC21C

>  <smiles>  (330) 
[H]OC1([H])C([H])([H])C23C4([H])C([H])([H])C(O[H])(C1([H])O[H])C(C([H])([H])[H])(C([H])([H])[H])C2([H])C([H])([H])C([H])([H])C1(C([H])([H])[H])C3([H])C1(C([H])([H])[H])C([H])([H])C1(O[H])C2([H])OC(C([H])([H])[H])(C([H])([H])[H])OC1([H])C41C([H])([H])C(=O)C(C([H])([H])[H])(C([H])([H])[H])OC1([H])C2([H])[H]

$$$$
102:0:1
     RDKit          3D

 91 98  0  0  1  0  0  0  0  0999 V2000
    7.2746   -2.7923    0.3527 C   0  0  0  0  0  0  0  0  0  0  0  0
    5.7956   -2.4344    0.5247 C   0  0  0  0  0  0  0  0  0  0  0  0
    5.5664   -0.9247    0.3676 C   0  0  0  0  0  0  0  0  0  0  0  0
    5.0852   -3.0448   -0.4985 O   0  0  0  0  0  0  0  0  0  0  0  0
    4.0013   -3.8769   -0.1341 C   0  0  2  0  0  0  0  0  0  0  0  0
    2.7364   -3.1068    0.4326 C   0  0  0  0  0  0  0  0  0  0  0  0
    2.7295   -2.8429    1.9916 C   0  0  1  0  0  0  0  0  0  0  0  0
    1.4853   -2.4393    2.5590 O   0  0  0  0  0  0  0  0  0  0  0  0
    1.5311   -1.6778    3.7886 C   0  0  0  0  0  0  0  0  0  0  0  0
    1.8648   -0.2083    3.4576 C   0  0  0  0  0  0  0  0  0  0  0  0
    0.1205   -1.7587    4.4054 C   0  0  0  0  0  0  0  0  0  0  0  0
    2.5944   -2.2384    4.7658 C   0  0  0  0  0  0  0  0  0  0  0  0
    2.4299   -2.2224    5.9858 O   0  0  0  0  0  0  0  0  0  0  0  0
    3.8666   -2.8529    4.1656 C   0  0  0  0  0  0  0  0  0  0  0  0
    3.5377   -3.8028    2.9704 C   0  0  2  0  0  0  0  0  0  0  0  0
    4.8042   -4.0394    2.1470 C   0  0  2  0  0  0  0  0  0  0  0  0
    5.3994   -2.7682    1.8220 O   0  0  0  0  0  0  0  0  0  0  0  0
    4.4448   -4.9079    0.9098 C   0  0  1  0  0  0  0  0  0  0  0  0
    3.2179   -5.6319    0.8758 O   0  0  0  0  0  0  0  0  0  0  0  0
    5.5190   -6.0186    0.7409 C   0  0  0  0  0  0  0  0  0  0  0  0
    5.1209   -7.2640    1.5796 C   0  0  2  0  0  0  0  0  0  0  0  0
    4.3307   -8.2242    0.6837 C   0  0  0  0  0  0  0  0  0  0  0  0
    4.9673   -6.8146    3.0804 C   0  0  1  0  0  0  0  0  0  0  0  0
    3.6534   -6.6153    3.8842 C   0  0  1  0  0  0  0  0  0  0  0  0
    3.9990   -6.4561    5.4029 C   0  0  0  0  0  0  0  0  0  0  0  0
    2.7686   -6.5298    6.3925 C   0  0  1  0  0  0  0  0  0  0  0  0
    3.0876   -5.7708    7.5454 O   0  0  0  0  0  0  0  0  0  0  0  0
    1.2760   -6.2775    5.8967 C   0  0  1  0  0  0  0  0  0  0  0  0
    0.8356   -4.9920    6.3135 O   0  0  0  0  0  0  0  0  0  0  0  0
    0.8709   -6.5067    4.3721 C   0  0  1  0  0  0  0  0  0  0  0  0
   -0.5457   -6.4399    4.3002 O   0  0  0  0  0  0  0  0  0  0  0  0
    1.3671   -5.3689    3.4502 C   0  0  0  0  0  0  0  0  0  0  0  0
    2.8789   -5.1911    3.5715 C   0  0  2  0  0  0  0  0  0  0  0  0
    1.2873   -7.9034    3.7852 C   0  0  0  0  0  0  0  0  0  0  0  0
    0.6246   -9.0567    4.5960 C   0  0  0  0  0  0  0  0  0  0  0  0
    0.8085   -8.0856    2.3153 C   0  0  0  0  0  0  0  0  0  0  0  0
    2.8386   -8.0028    3.8854 C   0  0  1  0  0  0  0  0  0  0  0  0
    3.5306   -9.3036    3.3628 C   0  0  0  0  0  0  0  0  0  0  0  0
    5.0825   -9.2874    3.3861 C   0  0  0  0  0  0  0  0  0  0  0  0
    5.7195   -8.0357    2.7889 C   0  0  1  0  0  0  0  0  0  0  0  0
    7.2359   -8.0891    2.9053 C   0  0  0  0  0  0  0  0  0  0  0  0
    7.4280   -3.8672    0.3852 H   0  0  0  0  0  0  0  0  0  0  0  0
    7.8363   -2.3298    1.1581 H   0  0  0  0  0  0  0  0  0  0  0  0
    7.6467   -2.4159   -0.5984 H   0  0  0  0  0  0  0  0  0  0  0  0
    4.5060   -0.6893    0.4510 H   0  0  0  0  0  0  0  0  0  0  0  0
    5.9072   -0.5968   -0.6143 H   0  0  0  0  0  0  0  0  0  0  0  0
    6.1117   -0.3790    1.1404 H   0  0  0  0  0  0  0  0  0  0  0  0
    3.7200   -4.3568   -1.0732 H   0  0  0  0  0  0  0  0  0  0  0  0
    2.6237   -2.1606   -0.1014 H   0  0  0  0  0  0  0  0  0  0  0  0
    1.8372   -3.6673    0.1789 H   0  0  0  0  0  0  0  0  0  0  0  0
    3.2692   -1.8987    1.9961 H   0  0  0  0  0  0  0  0  0  0  0  0
    1.7279    0.4319    4.3291 H   0  0  0  0  0  0  0  0  0  0  0  0
    1.2259    0.1793    2.6626 H   0  0  0  0  0  0  0  0  0  0  0  0
    2.8986   -0.0792    3.1388 H   0  0  0  0  0  0  0  0  0  0  0  0
    0.0171   -1.1159    5.2787 H   0  0  0  0  0  0  0  0  0  0  0  0
   -0.1329   -2.7709    4.7189 H   0  0  0  0  0  0  0  0  0  0  0  0
   -0.6302   -1.4480    3.6810 H   0  0  0  0  0  0  0  0  0  0  0  0
    4.4955   -2.0181    3.8483 H   0  0  0  0  0  0  0  0  0  0  0  0
    4.4297   -3.3719    4.9416 H   0  0  0  0  0  0  0  0  0  0  0  0
    5.6049   -4.4203    2.7589 H   0  0  0  0  0  0  0  0  0  0  0  0
    3.1296   -6.0123    0.0093 H   0  0  0  0  0  0  0  0  0  0  0  0
    5.6345   -6.2532   -0.3168 H   0  0  0  0  0  0  0  0  0  0  0  0
    6.4970   -5.6887    1.0793 H   0  0  0  0  0  0  0  0  0  0  0  0
    4.6717   -9.2545    0.7933 H   0  0  0  0  0  0  0  0  0  0  0  0
    4.4547   -7.9889   -0.3708 H   0  0  0  0  0  0  0  0  0  0  0  0
    3.2647   -8.1640    0.8924 H   0  0  0  0  0  0  0  0  0  0  0  0
    5.7173   -6.1846    3.5279 H   0  0  0  0  0  0  0  0  0  0  0  0
    4.7037   -7.2393    5.6911 H   0  0  0  0  0  0  0  0  0  0  0  0
    4.5616   -5.5342    5.5537 H   0  0  0  0  0  0  0  0  0  0  0  0
    2.7631   -7.5450    6.7927 H   0  0  0  0  0  0  0  0  0  0  0  0
    3.1277   -4.8614    7.2996 H   0  0  0  0  0  0  0  0  0  0  0  0
    0.6626   -6.9568    6.4922 H   0  0  0  0  0  0  0  0  0  0  0  0
    1.3486   -4.3326    5.8759 H   0  0  0  0  0  0  0  0  0  0  0  0
   -0.8863   -7.1595    4.8072 H   0  0  0  0  0  0  0  0  0  0  0  0
    1.0661   -5.4937    2.4150 H   0  0  0  0  0  0  0  0  0  0  0  0
    0.8661   -4.4555    3.7502 H   0  0  0  0  0  0  0  0  0  0  0  0
    2.7878   -4.8018    4.5670 H   0  0  0  0  0  0  0  0  0  0  0  0
    0.8879  -10.0324    4.1835 H   0  0  0  0  0  0  0  0  0  0  0  0
   -0.4650   -9.0049    4.5797 H   0  0  0  0  0  0  0  0  0  0  0  0
    0.9345   -9.0631    5.6415 H   0  0  0  0  0  0  0  0  0  0  0  0
    0.9815   -9.0999    1.9581 H   0  0  0  0  0  0  0  0  0  0  0  0
    1.3109   -7.4235    1.6131 H   0  0  0  0  0  0  0  0  0  0  0  0
   -0.2631   -7.9110    2.2142 H   0  0  0  0  0  0  0  0  0  0  0  0
    2.9271   -8.3802    4.8937 H   0  0  0  0  0  0  0  0  0  0  0  0
    3.2361  -10.1391    4.0034 H   0  0  0  0  0  0  0  0  0  0  0  0
    3.1436   -9.6201    2.4033 H   0  0  0  0  0  0  0  0  0  0  0  0
    5.4177   -9.3706    4.4228 H   0  0  0  0  0  0  0  0  0  0  0  0
    5.4751  -10.1699    2.8812 H   0  0  0  0  0  0  0  0  0  0  0  0
    7.5426   -8.2430    3.9400 H   0  0  0  0  0  0  0  0  0  0  0  0
    7.6823   -7.1602    2.5527 H   0  0  0  0  0  0  0  0  0  0  0  0
    7.6302   -8.9041    2.3004 H   0  0  0  0  0  0  0  0  0  0  0  0
  1  2  1  0
  1 42  1  0
  1 43  1  0
  1 44  1  0
  2 17  1  0
  2  3  1  0
  2  4  1  0
  3 45  1  0
  3 46  1  0
  3 47  1  0
  4  5  1  0
  5 18  1  0
  5  6  1  0
  5 48  1  6
  6  7  1  0
  6 49  1  0
  6 50  1  0
  7 15  1  0
  7  8  1  0
  7 51  1  6
  8  9  1  0
  9 10  1  0
  9 11  1  0
  9 12  1  0
 10 52  1  0
 10 53  1  0
 10 54  1  0
 11 55  1  0
 11 56  1  0
 11 57  1  0
 12 13  2  0
 12 14  1  0
 15 14  1  1
 14 58  1  0
 14 59  1  0
 15 33  1  0
 15 16  1  0
 16 17  1  0
 16 18  1  0
 16 60  1  1
 18 19  1  1
 18 20  1  0
 19 61  1  0
 20 21  1  0
 20 62  1  0
 20 63  1  0
 21 40  1  0
 21 22  1  6
 21 23  1  0
 22 64  1  0
 22 65  1  0
 22 66  1  0
 23 40  1  0
 23 24  1  0
 23 67  1  6
 24 33  1  0
 24 37  1  0
 24 25  1  1
 25 26  1  0
 25 68  1  0
 25 69  1  0
 26 27  1  0
 26 28  1  0
 26 70  1  1
 27 71  1  0
 28 29  1  0
 28 30  1  0
 28 72  1  1
 29 73  1  0
 30 31  1  1
 30 32  1  0
 30 34  1  0
 31 74  1  0
 32 33  1  0
 32 75  1  0
 32 76  1  0
 33 77  1  1
 34 35  1  0
 34 36  1  0
 34 37  1  0
 35 78  1  0
 35 79  1  0
 35 80  1  0
 36 81  1  0
 36 82  1  0
 36 83  1  0
 37 38  1  0
 37 84  1  1
 38 39  1  0
 38 85  1  0
 38 86  1  0
 39 40  1  0
 39 87  1  0
 39 88  1  0
 40 41  1  6
 41 89  1  0
 41 90  1  0
 41 91  1  0
M  END
>  <i_m_ct_stereo_status>  (331) 
1

>  <s_m_source_file>  (331) 
/var/tmp/pbs.5076255.sched01/tmpalt_vnqi/12934k3la1h.sdf

>  <i_m_source_file_index>  (331) 
22

>  <i_lp_mmshare_version>  (331) 
48012

>  <i_f3d_flags>  (331) 
0

>  <s_epik_input>  (331) 
Tz1DKFtDSDJdMSlDKFtDSDNdKShbQ0gzXSlPW0NAQEhdKFtDQF0xMjMpW0NIMl1bQ0BASF00W0NAXShbT0hdKShbQ0BIXTJPQyhPNCkoW0NIM10pW0NIM10pW0NIMl1bQ0BdNShbQ0gzXSlbQ0BIXTZbQ0BdNzhbQ0BASF0zW0NIMl1bQ0BdKFtPSF0pKFtDQEhdKFtPSF0pW0NAQEhdKFtDSDJdNylbT0hdKUMoW0NIM10pKFtDSDNdKVtDQEhdOFtDSDJdW0NIMl1bQ0BAXTU2W0NIM10=

>  <s_epik_cmdline>  (331) 
J2VwaWtfcHl0aG9uJywgJy1waHQnLCAnMi4wJywgJy1waCcsICc3LjAnLCAnLXRuJywgJzgnLCAnLW1hJywgJzIwMCcsICctaW1hZScsICc8aW5maWxlLm1hZT4nLCAnLW9tYWUnLCAnPG91dGZpbGUubWFlPic=

>  <r_lp_tautomer_probability>  (331) 
1

>  <r_epik_Ionization_Penalty>  (331) 
1.15274e-06

>  <r_epik_Ionization_Penalty_Charging>  (331) 
0

>  <r_epik_Ionization_Penalty_Neutral>  (331) 
1.15274e-06

>  <r_epik_State_Penalty>  (331) 
-0

>  <r_epik_Charging_Adjusted_Penalty>  (331) 
0

>  <i_epik_Tot_Q>  (331) 
0

>  <i_epik_Tot_abs_Q>  (331) 
0

>  <s_lp_Force_Field>  (331) 
OPLS3e

>  <r_lp_Energy>  (331) 
229.602

>  <b_lp_Chiralities_Consistent>  (331) 
1

>  <s_lp_Variant>  (331) 
102:0-1

>  <s_i_glide_gridfile>  (331) 
pfpi4k_grid

>  <i_i_glide_lignum>  (331) 
22

>  <i_i_glide_rotatable_bonds>  (331) 
4

>  <r_i_docking_score>  (331) 
-2.9863

>  <r_i_glide_ligand_efficiency>  (331) 
-0.0728365

>  <r_i_glide_ligand_efficiency_sa>  (331) 
-0.251156

>  <r_i_glide_ligand_efficiency_ln>  (331) 
-0.633553

>  <r_i_glide_gscore>  (331) 
-2.9863

>  <r_i_glide_lipo>  (331) 
-0.548726

>  <r_i_glide_hbond>  (331) 
0

>  <r_i_glide_metal>  (331) 
-0

>  <r_i_glide_rewards>  (331) 
-0.576305

>  <r_i_glide_evdw>  (331) 
-32.4538

>  <r_i_glide_ecoul>  (331) 
-1.59051

>  <r_i_glide_erotb>  (331) 
0

>  <r_i_glide_esite>  (331) 
0

>  <r_i_glide_emodel>  (331) 
-45.7934

>  <r_i_glide_energy>  (331) 
-34.0443

>  <r_i_glide_einternal>  (331) 
0.0892629

>  <r_i_glide_intrahb_reward>  (331) 
-0.5

>  <i_i_glide_confnum>  (331) 
2

>  <i_i_glide_posenum>  (331) 
19

>  <r_i_glide_eff_state_penalty>  (331) 
0

>  <ligand_id>  (331) 
102

>  <original_smiles>  (331) 
CC1(C)OC2CC3OC(C)(C)C(=O)CC34C(O1)C2(O)CC1(C)C2C35CC(O)C(O)C(O)(CC43)C(C)(C)C5CCC21C

>  <smiles>  (331) 
[H]OC1([H])C([H])([H])C23C4([H])C([H])([H])C(O[H])(C1([H])O[H])C(C([H])([H])[H])(C([H])([H])[H])C2([H])C([H])([H])C([H])([H])C1(C([H])([H])[H])C3([H])C1(C([H])([H])[H])C([H])([H])C1(O[H])C2([H])OC(C([H])([H])[H])(C([H])([H])[H])OC1([H])C41C([H])([H])C(=O)C(C([H])([H])[H])(C([H])([H])[H])OC1([H])C2([H])[H]

$$$$
102:0:2
     RDKit          3D

 91 98  0  0  1  0  0  0  0  0999 V2000
    7.2398   -2.4523    0.4330 C   0  0  0  0  0  0  0  0  0  0  0  0
    5.7445   -2.1796    0.6094 C   0  0  0  0  0  0  0  0  0  0  0  0
    5.4406   -0.6779    0.5196 C   0  0  0  0  0  0  0  0  0  0  0  0
    5.0726   -2.7828   -0.4459 O   0  0  0  0  0  0  0  0  0  0  0  0
    4.0315   -3.6844   -0.1222 C   0  0  2  0  0  0  0  0  0  0  0  0
    2.7359   -2.9962    0.4733 C   0  0  0  0  0  0  0  0  0  0  0  0
    2.7022   -2.8077    2.0434 C   0  0  1  0  0  0  0  0  0  0  0  0
    1.4363   -2.4859    2.6185 O   0  0  0  0  0  0  0  0  0  0  0  0
    1.4405   -1.7804    3.8819 C   0  0  0  0  0  0  0  0  0  0  0  0
    1.7005   -0.2833    3.6205 C   0  0  0  0  0  0  0  0  0  0  0  0
    0.0326   -1.9527    4.4847 C   0  0  0  0  0  0  0  0  0  0  0  0
    2.5287   -2.3233    4.8429 C   0  0  0  0  0  0  0  0  0  0  0  0
    2.3834   -2.3101    6.0655 O   0  0  0  0  0  0  0  0  0  0  0  0
    3.8267   -2.8611    4.2231 C   0  0  0  0  0  0  0  0  0  0  0  0
    3.5482   -3.7693    2.9834 C   0  0  2  0  0  0  0  0  0  0  0  0
    4.8275   -3.9059    2.1545 C   0  0  2  0  0  0  0  0  0  0  0  0
    5.3613   -2.5943    1.8899 O   0  0  0  0  0  0  0  0  0  0  0  0
    4.5152   -4.7394    0.8792 C   0  0  1  0  0  0  0  0  0  0  0  0
    3.3222   -5.5169    0.8028 O   0  0  0  0  0  0  0  0  0  0  0  0
    5.6419   -5.7890    0.6648 C   0  0  0  0  0  0  0  0  0  0  0  0
    5.2976   -7.0841    1.4405 C   0  0  2  0  0  0  0  0  0  0  0  0
    4.5514   -8.0340    0.4992 C   0  0  0  0  0  0  0  0  0  0  0  0
    5.1182   -6.7082    2.9602 C   0  0  1  0  0  0  0  0  0  0  0  0
    3.7946   -6.6118    3.7643 C   0  0  1  0  0  0  0  0  0  0  0  0
    4.1320   -6.5022    5.2891 C   0  0  0  0  0  0  0  0  0  0  0  0
    2.9081   -6.6861    6.2705 C   0  0  1  0  0  0  0  0  0  0  0  0
    3.1794   -5.9550    7.4506 O   0  0  0  0  0  0  0  0  0  0  0  0
    1.4098   -6.4903    5.7773 C   0  0  1  0  0  0  0  0  0  0  0  0
    0.9046   -5.2451    6.2257 O   0  0  0  0  0  0  0  0  0  0  0  0
    1.0090   -6.6588    4.2461 C   0  0  1  0  0  0  0  0  0  0  0  0
   -0.4125   -6.6398    4.2055 O   0  0  0  0  0  0  0  0  0  0  0  0
    1.4514   -5.4558    3.3778 C   0  0  0  0  0  0  0  0  0  0  0  0
    2.9520   -5.2127    3.5137 C   0  0  2  0  0  0  0  0  0  0  0  0
    1.4932   -8.0033    3.5959 C   0  0  0  0  0  0  0  0  0  0  0  0
    0.8844   -9.2221    4.3477 C   0  0  0  0  0  0  0  0  0  0  0  0
    1.0292   -8.1373    2.1174 C   0  0  0  0  0  0  0  0  0  0  0  0
    3.0479   -8.0345    3.6993 C   0  0  1  0  0  0  0  0  0  0  0  0
    3.8038   -9.2737    3.1215 C   0  0  0  0  0  0  0  0  0  0  0  0
    5.3511   -9.1818    3.1528 C   0  0  0  0  0  0  0  0  0  0  0  0
    5.9300   -7.8777    2.6188 C   0  0  1  0  0  0  0  0  0  0  0  0
    7.4434   -7.8620    2.7383 C   0  0  0  0  0  0  0  0  0  0  0  0
    7.4490   -3.5179    0.4254 H   0  0  0  0  0  0  0  0  0  0  0  0
    7.7815   -1.9833    1.2500 H   0  0  0  0  0  0  0  0  0  0  0  0
    7.5900   -2.0228   -0.5039 H   0  0  0  0  0  0  0  0  0  0  0  0
    4.3698   -0.4953    0.6022 H   0  0  0  0  0  0  0  0  0  0  0  0
    5.7819   -0.2871   -0.4398 H   0  0  0  0  0  0  0  0  0  0  0  0
    5.9539   -0.1511    1.3238 H   0  0  0  0  0  0  0  0  0  0  0  0
    3.7676   -4.1379   -1.0820 H   0  0  0  0  0  0  0  0  0  0  0  0
    2.6104   -2.0277   -0.0139 H   0  0  0  0  0  0  0  0  0  0  0  0
    1.8637   -3.5820    0.1843 H   0  0  0  0  0  0  0  0  0  0  0  0
    3.1929   -1.8397    2.0975 H   0  0  0  0  0  0  0  0  0  0  0  0
    1.5292    0.3072    4.5212 H   0  0  0  0  0  0  0  0  0  0  0  0
    1.0461    0.1082    2.8409 H   0  0  0  0  0  0  0  0  0  0  0  0
    2.7295   -0.0897    3.3155 H   0  0  0  0  0  0  0  0  0  0  0  0
   -0.1017   -1.3556    5.3864 H   0  0  0  0  0  0  0  0  0  0  0  0
   -0.1720   -2.9885    4.7524 H   0  0  0  0  0  0  0  0  0  0  0  0
   -0.7311   -1.6426    3.7748 H   0  0  0  0  0  0  0  0  0  0  0  0
    4.4185   -1.9876    3.9416 H   0  0  0  0  0  0  0  0  0  0  0  0
    4.4121   -3.3895    4.9755 H   0  0  0  0  0  0  0  0  0  0  0  0
    5.6444   -4.2738    2.7509 H   0  0  0  0  0  0  0  0  0  0  0  0
    3.2576   -5.8603   -0.0801 H   0  0  0  0  0  0  0  0  0  0  0  0
    5.7684   -5.9882   -0.3963 H   0  0  0  0  0  0  0  0  0  0  0  0
    6.6034   -5.4242    1.0155 H   0  0  0  0  0  0  0  0  0  0  0  0
    4.9582   -9.0441    0.5482 H   0  0  0  0  0  0  0  0  0  0  0  0
    4.6107   -7.7322   -0.5455 H   0  0  0  0  0  0  0  0  0  0  0  0
    3.4927   -8.0419    0.7381 H   0  0  0  0  0  0  0  0  0  0  0  0
    5.8348   -6.0637    3.4408 H   0  0  0  0  0  0  0  0  0  0  0  0
    4.8712   -7.2634    5.5448 H   0  0  0  0  0  0  0  0  0  0  0  0
    4.6428   -5.5581    5.4841 H   0  0  0  0  0  0  0  0  0  0  0  0
    2.9506   -7.7170    6.6253 H   0  0  0  0  0  0  0  0  0  0  0  0
    3.1185   -5.0359    7.2348 H   0  0  0  0  0  0  0  0  0  0  0  0
    0.8264   -7.2166    6.3468 H   0  0  0  0  0  0  0  0  0  0  0  0
   -0.0263   -5.2482    6.0565 H   0  0  0  0  0  0  0  0  0  0  0  0
   -0.7165   -7.4414    4.6049 H   0  0  0  0  0  0  0  0  0  0  0  0
    1.1611   -5.5488    2.3374 H   0  0  0  0  0  0  0  0  0  0  0  0
    0.9118   -4.5780    3.7135 H   0  0  0  0  0  0  0  0  0  0  0  0
    2.8348   -4.8716    4.5269 H   0  0  0  0  0  0  0  0  0  0  0  0
    1.1991  -10.1612    3.8885 H   0  0  0  0  0  0  0  0  0  0  0  0
   -0.2067   -9.2193    4.3264 H   0  0  0  0  0  0  0  0  0  0  0  0
    1.1932   -9.2616    5.3943 H   0  0  0  0  0  0  0  0  0  0  0  0
    1.2524   -9.1265    1.7162 H   0  0  0  0  0  0  0  0  0  0  0  0
    1.5043   -7.4227    1.4491 H   0  0  0  0  0  0  0  0  0  0  0  0
   -0.0494   -8.0085    2.0204 H   0  0  0  0  0  0  0  0  0  0  0  0
    3.1540   -8.4530    4.6898 H   0  0  0  0  0  0  0  0  0  0  0  0
    3.5500  -10.1512    3.7214 H   0  0  0  0  0  0  0  0  0  0  0  0
    3.4361   -9.5624    2.1459 H   0  0  0  0  0  0  0  0  0  0  0  0
    5.6886   -9.2941    4.1862 H   0  0  0  0  0  0  0  0  0  0  0  0
    5.7917  -10.0195    2.6134 H   0  0  0  0  0  0  0  0  0  0  0  0
    7.7539   -8.0530    3.7657 H   0  0  0  0  0  0  0  0  0  0  0  0
    7.8437   -6.8968    2.4335 H   0  0  0  0  0  0  0  0  0  0  0  0
    7.8732   -8.6278    2.0945 H   0  0  0  0  0  0  0  0  0  0  0  0
  1  2  1  0
  1 42  1  0
  1 43  1  0
  1 44  1  0
  2 17  1  0
  2  3  1  0
  2  4  1  0
  3 45  1  0
  3 46  1  0
  3 47  1  0
  4  5  1  0
  5 18  1  0
  5  6  1  0
  5 48  1  6
  6  7  1  0
  6 49  1  0
  6 50  1  0
  7 15  1  0
  7  8  1  0
  7 51  1  6
  8  9  1  0
  9 10  1  0
  9 11  1  0
  9 12  1  0
 10 52  1  0
 10 53  1  0
 10 54  1  0
 11 55  1  0
 11 56  1  0
 11 57  1  0
 12 13  2  0
 12 14  1  0
 15 14  1  1
 14 58  1  0
 14 59  1  0
 15 33  1  0
 15 16  1  0
 16 17  1  0
 16 18  1  0
 16 60  1  1
 18 19  1  1
 18 20  1  0
 19 61  1  0
 20 21  1  0
 20 62  1  0
 20 63  1  0
 21 40  1  0
 21 22  1  6
 21 23  1  0
 22 64  1  0
 22 65  1  0
 22 66  1  0
 23 40  1  0
 23 24  1  0
 23 67  1  6
 24 33  1  0
 24 37  1  0
 24 25  1  1
 25 26  1  0
 25 68  1  0
 25 69  1  0
 26 27  1  0
 26 28  1  0
 26 70  1  1
 27 71  1  0
 28 29  1  0
 28 30  1  0
 28 72  1  1
 29 73  1  0
 30 31  1  1
 30 32  1  0
 30 34  1  0
 31 74  1  0
 32 33  1  0
 32 75  1  0
 32 76  1  0
 33 77  1  1
 34 35  1  0
 34 36  1  0
 34 37  1  0
 35 78  1  0
 35 79  1  0
 35 80  1  0
 36 81  1  0
 36 82  1  0
 36 83  1  0
 37 38  1  0
 37 84  1  1
 38 39  1  0
 38 85  1  0
 38 86  1  0
 39 40  1  0
 39 87  1  0
 39 88  1  0
 40 41  1  6
 41 89  1  0
 41 90  1  0
 41 91  1  0
M  END
>  <i_m_ct_stereo_status>  (332) 
1

>  <s_m_source_file>  (332) 
/var/tmp/pbs.5076255.sched01/tmpalt_vnqi/12934k3la1h.sdf

>  <i_m_source_file_index>  (332) 
22

>  <i_lp_mmshare_version>  (332) 
48012

>  <i_f3d_flags>  (332) 
0

>  <s_epik_input>  (332) 
Tz1DKFtDSDJdMSlDKFtDSDNdKShbQ0gzXSlPW0NAQEhdKFtDQF0xMjMpW0NIMl1bQ0BASF00W0NAXShbT0hdKShbQ0BIXTJPQyhPNCkoW0NIM10pW0NIM10pW0NIMl1bQ0BdNShbQ0gzXSlbQ0BIXTZbQ0BdNzhbQ0BASF0zW0NIMl1bQ0BdKFtPSF0pKFtDQEhdKFtPSF0pW0NAQEhdKFtDSDJdNylbT0hdKUMoW0NIM10pKFtDSDNdKVtDQEhdOFtDSDJdW0NIMl1bQ0BAXTU2W0NIM10=

>  <s_epik_cmdline>  (332) 
J2VwaWtfcHl0aG9uJywgJy1waHQnLCAnMi4wJywgJy1waCcsICc3LjAnLCAnLXRuJywgJzgnLCAnLW1hJywgJzIwMCcsICctaW1hZScsICc8aW5maWxlLm1hZT4nLCAnLW9tYWUnLCAnPG91dGZpbGUubWFlPic=

>  <r_lp_tautomer_probability>  (332) 
1

>  <r_epik_Ionization_Penalty>  (332) 
1.15274e-06

>  <r_epik_Ionization_Penalty_Charging>  (332) 
0

>  <r_epik_Ionization_Penalty_Neutral>  (332) 
1.15274e-06

>  <r_epik_State_Penalty>  (332) 
-0

>  <r_epik_Charging_Adjusted_Penalty>  (332) 
0

>  <i_epik_Tot_Q>  (332) 
0

>  <i_epik_Tot_abs_Q>  (332) 
0

>  <s_lp_Force_Field>  (332) 
OPLS3e

>  <r_lp_Energy>  (332) 
229.602

>  <b_lp_Chiralities_Consistent>  (332) 
1

>  <s_lp_Variant>  (332) 
102:0-1

>  <s_i_glide_gridfile>  (332) 
pfpi4k_grid

>  <i_i_glide_lignum>  (332) 
22

>  <i_i_glide_rotatable_bonds>  (332) 
4

>  <r_i_docking_score>  (332) 
-2.5005

>  <r_i_glide_ligand_efficiency>  (332) 
-0.0609879

>  <r_i_glide_ligand_efficiency_sa>  (332) 
-0.2103

>  <r_i_glide_ligand_efficiency_ln>  (332) 
-0.53049

>  <r_i_glide_gscore>  (332) 
-2.5005

>  <r_i_glide_lipo>  (332) 
-0.581873

>  <r_i_glide_hbond>  (332) 
0

>  <r_i_glide_metal>  (332) 
-0

>  <r_i_glide_rewards>  (332) 
-0.0904708

>  <r_i_glide_evdw>  (332) 
-32.5305

>  <r_i_glide_ecoul>  (332) 
-1.34424

>  <r_i_glide_erotb>  (332) 
0

>  <r_i_glide_esite>  (332) 
0

>  <r_i_glide_emodel>  (332) 
-39.2278

>  <r_i_glide_energy>  (332) 
-33.8747

>  <r_i_glide_einternal>  (332) 
0.410546

>  <r_i_glide_intrahb_reward>  (332) 
-0

>  <i_i_glide_confnum>  (332) 
1

>  <i_i_glide_posenum>  (332) 
12

>  <r_i_glide_eff_state_penalty>  (332) 
0

>  <ligand_id>  (332) 
102

>  <original_smiles>  (332) 
CC1(C)OC2CC3OC(C)(C)C(=O)CC34C(O1)C2(O)CC1(C)C2C35CC(O)C(O)C(O)(CC43)C(C)(C)C5CCC21C

>  <smiles>  (332) 
[H]OC1([H])C([H])([H])C23C4([H])C([H])([H])C(O[H])(C1([H])O[H])C(C([H])([H])[H])(C([H])([H])[H])C2([H])C([H])([H])C([H])([H])C1(C([H])([H])[H])C3([H])C1(C([H])([H])[H])C([H])([H])C1(O[H])C2([H])OC(C([H])([H])[H])(C([H])([H])[H])OC1([H])C41C([H])([H])C(=O)C(C([H])([H])[H])(C([H])([H])[H])OC1([H])C2([H])[H]

$$$$
104:0:0
     RDKit          3D

 28 30  0  0  1  0  0  0  0  0999 V2000
    2.3089   -3.4515   -4.2263 N   0  0  0  0  0  0  0  0  0  0  0  0
    2.9617   -2.4995   -3.6144 C   0  0  0  0  0  0  0  0  0  0  0  0
    3.4098   -1.4464   -4.3326 N   0  0  0  0  0  0  0  0  0  0  0  0
    4.0911   -0.4848   -3.7401 C   0  0  0  0  0  0  0  0  0  0  0  0
    4.4880   -0.4093   -2.4582 N   0  0  0  0  0  0  0  0  0  0  0  0
    3.9798   -1.4521   -1.7279 C   0  0  0  0  0  0  0  0  0  0  0  0
    3.2150   -2.5227   -2.2321 C   0  0  0  0  0  0  0  0  0  0  0  0
    2.8617   -3.4189   -1.2407 N   0  0  0  0  0  0  0  0  0  0  0  0
    3.3728   -2.8688   -0.1805 C   0  0  0  0  0  0  0  0  0  0  0  0
    4.0890   -1.6876   -0.3677 N   0  0  0  0  0  0  0  0  0  0  0  0
    4.7772   -0.8749    0.6481 C   0  0  2  0  0  0  0  0  0  0  0  0
    6.0575   -1.5944    1.1332 C   0  0  0  0  0  0  0  0  0  0  0  0
    5.7451   -2.8517    1.9705 C   0  0  0  0  0  0  0  0  0  0  0  0
    4.6367   -2.5849    2.9814 C   0  0  0  0  0  0  0  0  0  0  0  0
    3.8005   -1.5257    2.9382 C   0  0  0  0  0  0  0  0  0  0  0  0
    3.8738   -0.5408    1.8461 C   0  0  0  0  0  0  0  0  0  0  0  0
    3.1922    0.4805    1.8312 O   0  0  0  0  0  0  0  0  0  0  0  0
    2.0133   -3.2770   -5.1739 H   0  0  0  0  0  0  0  0  0  0  0  0
    1.8838   -4.1820   -3.6531 H   0  0  0  0  0  0  0  0  0  0  0  0
    4.3725    0.3300   -4.3890 H   0  0  0  0  0  0  0  0  0  0  0  0
    3.2044   -3.3638    0.7624 H   0  0  0  0  0  0  0  0  0  0  0  0
    5.0934    0.0745    0.2018 H   0  0  0  0  0  0  0  0  0  0  0  0
    6.6958   -1.8666    0.2906 H   0  0  0  0  0  0  0  0  0  0  0  0
    6.6508   -0.9137    1.7421 H   0  0  0  0  0  0  0  0  0  0  0  0
    5.4888   -3.6987    1.3316 H   0  0  0  0  0  0  0  0  0  0  0  0
    6.6110   -3.2015    2.4839 H   0  0  0  0  0  0  0  0  0  0  0  0
    4.5045   -3.3367    3.7469 H   0  0  0  0  0  0  0  0  0  0  0  0
    3.0006   -1.4298    3.6532 H   0  0  0  0  0  0  0  0  0  0  0  0
  1  2  1  0
  1 19  1  0
  1 18  1  0
  2  3  2  0
  2  7  1  0
  3  4  1  0
  4 20  1  0
  4  5  2  0
  5  6  1  0
  6 10  1  0
  6  7  2  0
  7  8  1  0
  8  9  2  0
  9 21  1  0
  9 10  1  0
 10 11  1  0
 11 16  1  0
 11 12  1  0
 11 22  1  6
 12 13  1  0
 12 23  1  0
 12 24  1  0
 13 14  1  0
 13 25  1  0
 13 26  1  0
 14 15  2  0
 14 27  1  0
 15 16  1  0
 15 28  1  0
 16 17  2  0
M  END
>  <i_m_ct_stereo_status>  (333) 
1

>  <s_m_source_file>  (333) 
/var/tmp/pbs.5076255.sched01/tmpalt_vnqi/12934k3la1h.sdf

>  <i_m_source_file_index>  (333) 
24

>  <i_lp_mmshare_version>  (333) 
48012

>  <i_f3d_flags>  (333) 
0

>  <s_epik_input>  (333) 
bjFbY0hdW25IXVxjKD1OXFtIXSljKGMxMiluW2NIXW4yW0NAQEhdM1tDSDJdW0NIMl1bQ0hdPVtDSF1DMz1P

>  <s_epik_cmdline>  (333) 
J2VwaWtfcHl0aG9uJywgJy1waHQnLCAnMi4wJywgJy1waCcsICc3LjAnLCAnLXRuJywgJzgnLCAnLW1hJywgJzIwMCcsICctaW1hZScsICc8aW5maWxlLm1hZT4nLCAnLW9tYWUnLCAnPG91dGZpbGUubWFlPic=

>  <r_lp_tautomer_probability>  (333) 
1

>  <r_epik_Ionization_Penalty>  (333) 
0.000715978

>  <r_epik_Ionization_Penalty_Charging>  (333) 
0

>  <r_epik_Ionization_Penalty_Neutral>  (333) 
0.000715978

>  <r_epik_State_Penalty>  (333) 
-0

>  <r_epik_Charging_Adjusted_Penalty>  (333) 
0

>  <i_epik_Tot_Q>  (333) 
0

>  <i_epik_Tot_abs_Q>  (333) 
0

>  <s_lp_Force_Field>  (333) 
OPLS3e

>  <r_lp_Energy>  (333) 
17.463

>  <b_lp_Chiralities_Consistent>  (333) 
1

>  <s_lp_Variant>  (333) 
104:0-1

>  <s_i_glide_gridfile>  (333) 
pfpi4k_grid

>  <i_i_glide_lignum>  (333) 
24

>  <i_i_glide_rotatable_bonds>  (333) 
1

>  <r_i_docking_score>  (333) 
-4.914

>  <r_i_glide_ligand_efficiency>  (333) 
-0.289059

>  <r_i_glide_ligand_efficiency_sa>  (333) 
-0.743252

>  <r_i_glide_ligand_efficiency_ln>  (333) 
-1.28195

>  <r_i_glide_gscore>  (333) 
-4.914

>  <r_i_glide_lipo>  (333) 
-0.596548

>  <r_i_glide_hbond>  (333) 
-0.631802

>  <r_i_glide_metal>  (333) 
-0

>  <r_i_glide_rewards>  (333) 
-2.2458

>  <r_i_glide_evdw>  (333) 
-22.2153

>  <r_i_glide_ecoul>  (333) 
-3.60898

>  <r_i_glide_erotb>  (333) 
0.324616

>  <r_i_glide_esite>  (333) 
-0.112352

>  <r_i_glide_emodel>  (333) 
-33.0281

>  <r_i_glide_energy>  (333) 
-25.8242

>  <r_i_glide_einternal>  (333) 
0.0293692

>  <r_i_glide_intrahb_reward>  (333) 
-0

>  <i_i_glide_confnum>  (333) 
4

>  <i_i_glide_posenum>  (333) 
6

>  <r_i_glide_eff_state_penalty>  (333) 
0

>  <ligand_id>  (333) 
104

>  <original_smiles>  (333) 
N=c1[nH]cnc2c1ncn2C1CCC=CC1=O

>  <smiles>  (333) 
[H]C1=C([H])C([H])([H])C([H])([H])C([H])(n2c([H])nc3c(N([H])[H])nc([H])nc32)C1=O

$$$$
104:0:1
     RDKit          3D

 28 30  0  0  1  0  0  0  0  0999 V2000
    2.2565   -2.6613   -3.5447 N   0  0  0  0  0  0  0  0  0  0  0  0
    3.3702   -2.9410   -2.8629 C   0  0  0  0  0  0  0  0  0  0  0  0
    4.5764   -2.7579   -3.4480 N   0  0  0  0  0  0  0  0  0  0  0  0
    5.6737   -3.0547   -2.7370 C   0  0  0  0  0  0  0  0  0  0  0  0
    5.7926   -3.4949   -1.4825 N   0  0  0  0  0  0  0  0  0  0  0  0
    4.5690   -3.6907   -0.9187 C   0  0  0  0  0  0  0  0  0  0  0  0
    3.3187   -3.4381   -1.5440 C   0  0  0  0  0  0  0  0  0  0  0  0
    2.2763   -3.7629   -0.6970 N   0  0  0  0  0  0  0  0  0  0  0  0
    2.8784   -4.1538    0.3858 C   0  0  0  0  0  0  0  0  0  0  0  0
    4.2616   -4.1622    0.3434 N   0  0  0  0  0  0  0  0  0  0  0  0
    5.1800   -4.5920    1.4009 C   0  0  2  0  0  0  0  0  0  0  0  0
    5.2427   -6.1376    1.4816 C   0  0  0  0  0  0  0  0  0  0  0  0
    3.9416   -6.7599    2.0212 C   0  0  0  0  0  0  0  0  0  0  0  0
    3.4137   -5.9893    3.2233 C   0  0  0  0  0  0  0  0  0  0  0  0
    3.8151   -4.7531    3.5780 C   0  0  0  0  0  0  0  0  0  0  0  0
    4.7989   -4.0090    2.7719 C   0  0  0  0  0  0  0  0  0  0  0  0
    5.2506   -2.9208    3.1170 O   0  0  0  0  0  0  0  0  0  0  0  0
    2.2949   -2.3014   -4.4906 H   0  0  0  0  0  0  0  0  0  0  0  0
    1.3736   -2.8168   -3.0779 H   0  0  0  0  0  0  0  0  0  0  0  0
    6.6078   -2.9090   -3.2600 H   0  0  0  0  0  0  0  0  0  0  0  0
    2.3020   -4.4538    1.2501 H   0  0  0  0  0  0  0  0  0  0  0  0
    6.1859   -4.2353    1.1556 H   0  0  0  0  0  0  0  0  0  0  0  0
    5.4802   -6.5624    0.5050 H   0  0  0  0  0  0  0  0  0  0  0  0
    6.0620   -6.4317    2.1370 H   0  0  0  0  0  0  0  0  0  0  0  0
    3.1769   -6.7733    1.2438 H   0  0  0  0  0  0  0  0  0  0  0  0
    4.0989   -7.8024    2.2958 H   0  0  0  0  0  0  0  0  0  0  0  0
    2.6286   -6.4712    3.7880 H   0  0  0  0  0  0  0  0  0  0  0  0
    3.3699   -4.2474    4.4198 H   0  0  0  0  0  0  0  0  0  0  0  0
  1  2  1  0
  1 19  1  0
  1 18  1  0
  2  3  2  0
  2  7  1  0
  3  4  1  0
  4 20  1  0
  4  5  2  0
  5  6  1  0
  6 10  1  0
  6  7  2  0
  7  8  1  0
  8  9  2  0
  9 21  1  0
  9 10  1  0
 10 11  1  0
 11 16  1  0
 11 12  1  0
 11 22  1  6
 12 13  1  0
 12 23  1  0
 12 24  1  0
 13 14  1  0
 13 25  1  0
 13 26  1  0
 14 15  2  0
 14 27  1  0
 15 16  1  0
 15 28  1  0
 16 17  2  0
M  END
>  <i_m_ct_stereo_status>  (334) 
1

>  <s_m_source_file>  (334) 
/var/tmp/pbs.5076255.sched01/tmpalt_vnqi/12934k3la1h.sdf

>  <i_m_source_file_index>  (334) 
24

>  <i_lp_mmshare_version>  (334) 
48012

>  <i_f3d_flags>  (334) 
0

>  <s_epik_input>  (334) 
bjFbY0hdW25IXVxjKD1OXFtIXSljKGMxMiluW2NIXW4yW0NAQEhdM1tDSDJdW0NIMl1bQ0hdPVtDSF1DMz1P

>  <s_epik_cmdline>  (334) 
J2VwaWtfcHl0aG9uJywgJy1waHQnLCAnMi4wJywgJy1waCcsICc3LjAnLCAnLXRuJywgJzgnLCAnLW1hJywgJzIwMCcsICctaW1hZScsICc8aW5maWxlLm1hZT4nLCAnLW9tYWUnLCAnPG91dGZpbGUubWFlPic=

>  <r_lp_tautomer_probability>  (334) 
1

>  <r_epik_Ionization_Penalty>  (334) 
0.000715978

>  <r_epik_Ionization_Penalty_Charging>  (334) 
0

>  <r_epik_Ionization_Penalty_Neutral>  (334) 
0.000715978

>  <r_epik_State_Penalty>  (334) 
-0

>  <r_epik_Charging_Adjusted_Penalty>  (334) 
0

>  <i_epik_Tot_Q>  (334) 
0

>  <i_epik_Tot_abs_Q>  (334) 
0

>  <s_lp_Force_Field>  (334) 
OPLS3e

>  <r_lp_Energy>  (334) 
17.463

>  <b_lp_Chiralities_Consistent>  (334) 
1

>  <s_lp_Variant>  (334) 
104:0-1

>  <s_i_glide_gridfile>  (334) 
pfpi4k_grid

>  <i_i_glide_lignum>  (334) 
24

>  <i_i_glide_rotatable_bonds>  (334) 
1

>  <r_i_docking_score>  (334) 
-3.84272

>  <r_i_glide_ligand_efficiency>  (334) 
-0.226042

>  <r_i_glide_ligand_efficiency_sa>  (334) 
-0.581219

>  <r_i_glide_ligand_efficiency_ln>  (334) 
-1.00248

>  <r_i_glide_gscore>  (334) 
-3.84272

>  <r_i_glide_lipo>  (334) 
-0.207127

>  <r_i_glide_hbond>  (334) 
-0.193736

>  <r_i_glide_metal>  (334) 
-0

>  <r_i_glide_rewards>  (334) 
-2.17691

>  <r_i_glide_evdw>  (334) 
-21.2795

>  <r_i_glide_ecoul>  (334) 
-3.35215

>  <r_i_glide_erotb>  (334) 
0.324616

>  <r_i_glide_esite>  (334) 
-0.0227652

>  <r_i_glide_emodel>  (334) 
-31.0545

>  <r_i_glide_energy>  (334) 
-24.6317

>  <r_i_glide_einternal>  (334) 
0.0950637

>  <r_i_glide_intrahb_reward>  (334) 
-0

>  <i_i_glide_confnum>  (334) 
4

>  <i_i_glide_posenum>  (334) 
4

>  <r_i_glide_eff_state_penalty>  (334) 
0

>  <ligand_id>  (334) 
104

>  <original_smiles>  (334) 
N=c1[nH]cnc2c1ncn2C1CCC=CC1=O

>  <smiles>  (334) 
[H]C1=C([H])C([H])([H])C([H])([H])C([H])(n2c([H])nc3c(N([H])[H])nc([H])nc32)C1=O

$$$$
104:0:2
     RDKit          3D

 28 30  0  0  1  0  0  0  0  0999 V2000
    2.5622   -1.9683    2.0718 N   0  0  0  0  0  0  0  0  0  0  0  0
    1.5777   -1.6569    2.9327 C   0  0  0  0  0  0  0  0  0  0  0  0
    1.2034   -2.5579    3.8601 N   0  0  0  0  0  0  0  0  0  0  0  0
    0.2081   -2.2289    4.6893 C   0  0  0  0  0  0  0  0  0  0  0  0
   -0.5089   -1.0954    4.7353 N   0  0  0  0  0  0  0  0  0  0  0  0
   -0.1116   -0.1922    3.7991 C   0  0  0  0  0  0  0  0  0  0  0  0
    0.9214   -0.4178    2.8774 C   0  0  0  0  0  0  0  0  0  0  0  0
    1.0801    0.6776    2.0558 N   0  0  0  0  0  0  0  0  0  0  0  0
    0.1485    1.5078    2.4378 C   0  0  0  0  0  0  0  0  0  0  0  0
   -0.5746    1.0856    3.5400 N   0  0  0  0  0  0  0  0  0  0  0  0
   -1.6203    1.8048    4.2714 C   0  0  2  0  0  0  0  0  0  0  0  0
   -1.7882    3.2695    3.7691 C   0  0  0  0  0  0  0  0  0  0  0  0
   -0.5750    4.1557    4.1471 C   0  0  0  0  0  0  0  0  0  0  0  0
   -0.1710    3.9325    5.5991 C   0  0  0  0  0  0  0  0  0  0  0  0
   -0.5575    2.8909    6.3605 C   0  0  0  0  0  0  0  0  0  0  0  0
   -1.4121    1.8248    5.8065 C   0  0  0  0  0  0  0  0  0  0  0  0
   -1.9441    0.9776    6.5248 O   0  0  0  0  0  0  0  0  0  0  0  0
    3.0120   -2.8798    2.1215 H   0  0  0  0  0  0  0  0  0  0  0  0
    2.7941   -1.2831    1.3470 H   0  0  0  0  0  0  0  0  0  0  0  0
   -0.0340   -2.9895    5.4295 H   0  0  0  0  0  0  0  0  0  0  0  0
    0.0041    2.4667    1.9562 H   0  0  0  0  0  0  0  0  0  0  0  0
   -2.5575    1.2804    4.0997 H   0  0  0  0  0  0  0  0  0  0  0  0
   -1.9523    3.2793    2.6897 H   0  0  0  0  0  0  0  0  0  0  0  0
   -2.6915    3.6956    4.1898 H   0  0  0  0  0  0  0  0  0  0  0  0
    0.2955    3.9330    3.5332 H   0  0  0  0  0  0  0  0  0  0  0  0
   -0.8103    5.2089    3.9791 H   0  0  0  0  0  0  0  0  0  0  0  0
    0.5257    4.6555    6.0056 H   0  0  0  0  0  0  0  0  0  0  0  0
   -0.2027    2.7839    7.3748 H   0  0  0  0  0  0  0  0  0  0  0  0
  1  2  1  0
  1 19  1  0
  1 18  1  0
  2  3  2  0
  2  7  1  0
  3  4  1  0
  4 20  1  0
  4  5  2  0
  5  6  1  0
  6 10  1  0
  6  7  2  0
  7  8  1  0
  8  9  2  0
  9 21  1  0
  9 10  1  0
 10 11  1  0
 11 16  1  0
 11 12  1  0
 11 22  1  1
 12 13  1  0
 12 23  1  0
 12 24  1  0
 13 14  1  0
 13 25  1  0
 13 26  1  0
 14 15  2  0
 14 27  1  0
 15 16  1  0
 15 28  1  0
 16 17  2  0
M  END
>  <i_m_ct_stereo_status>  (335) 
1

>  <s_m_source_file>  (335) 
/var/tmp/pbs.5076255.sched01/tmpalt_vnqi/12934k3la1h.sdf

>  <i_m_source_file_index>  (335) 
24

>  <i_lp_mmshare_version>  (335) 
48012

>  <i_f3d_flags>  (335) 
0

>  <s_epik_input>  (335) 
bjFbY0hdW25IXVxjKD1OXFtIXSljKGMxMiluW2NIXW4yW0NAQEhdM1tDSDJdW0NIMl1bQ0hdPVtDSF1DMz1P

>  <s_epik_cmdline>  (335) 
J2VwaWtfcHl0aG9uJywgJy1waHQnLCAnMi4wJywgJy1waCcsICc3LjAnLCAnLXRuJywgJzgnLCAnLW1hJywgJzIwMCcsICctaW1hZScsICc8aW5maWxlLm1hZT4nLCAnLW9tYWUnLCAnPG91dGZpbGUubWFlPic=

>  <r_lp_tautomer_probability>  (335) 
1

>  <r_epik_Ionization_Penalty>  (335) 
0.000715978

>  <r_epik_Ionization_Penalty_Charging>  (335) 
0

>  <r_epik_Ionization_Penalty_Neutral>  (335) 
0.000715978

>  <r_epik_State_Penalty>  (335) 
-0

>  <r_epik_Charging_Adjusted_Penalty>  (335) 
0

>  <i_epik_Tot_Q>  (335) 
0

>  <i_epik_Tot_abs_Q>  (335) 
0

>  <s_lp_Force_Field>  (335) 
OPLS3e

>  <r_lp_Energy>  (335) 
17.463

>  <b_lp_Chiralities_Consistent>  (335) 
1

>  <s_lp_Variant>  (335) 
104:0-1

>  <s_i_glide_gridfile>  (335) 
pfpi4k_grid

>  <i_i_glide_lignum>  (335) 
24

>  <i_i_glide_rotatable_bonds>  (335) 
1

>  <r_i_docking_score>  (335) 
-3.38005

>  <r_i_glide_ligand_efficiency>  (335) 
-0.198827

>  <r_i_glide_ligand_efficiency_sa>  (335) 
-0.511239

>  <r_i_glide_ligand_efficiency_ln>  (335) 
-0.88178

>  <r_i_glide_gscore>  (335) 
-3.38005

>  <r_i_glide_lipo>  (335) 
0

>  <r_i_glide_hbond>  (335) 
-0.112301

>  <r_i_glide_metal>  (335) 
-0

>  <r_i_glide_rewards>  (335) 
-1.89554

>  <r_i_glide_evdw>  (335) 
-20.6402

>  <r_i_glide_ecoul>  (335) 
-3.46955

>  <r_i_glide_erotb>  (335) 
0.324616

>  <r_i_glide_esite>  (335) 
-0.14439

>  <r_i_glide_emodel>  (335) 
-28.2892

>  <r_i_glide_energy>  (335) 
-24.1097

>  <r_i_glide_einternal>  (335) 
3.0934

>  <r_i_glide_intrahb_reward>  (335) 
-0

>  <i_i_glide_confnum>  (335) 
5

>  <i_i_glide_posenum>  (335) 
29

>  <r_i_glide_eff_state_penalty>  (335) 
0

>  <ligand_id>  (335) 
104

>  <original_smiles>  (335) 
N=c1[nH]cnc2c1ncn2C1CCC=CC1=O

>  <smiles>  (335) 
[H]C1=C([H])C([H])([H])C([H])([H])C([H])(n2c([H])nc3c(N([H])[H])nc([H])nc32)C1=O

$$$$
105:0:0
     RDKit          3D

 65 68  0  0  1  0  0  0  0  0999 V2000
    3.3744   -4.4112    0.0686 C   0  0  0  0  0  0  0  0  0  0  0  0
    4.7179   -4.9784    0.5134 C   0  0  0  0  0  0  0  0  0  0  0  0
    5.7644   -4.5176    0.0738 O   0  0  0  0  0  0  0  0  0  0  0  0
    4.6867   -6.0057    1.4090 O   0  0  0  0  0  0  0  0  0  0  0  0
    3.4951   -6.5080    2.0257 C   0  0  2  0  0  0  0  0  0  0  0  0
    3.5723   -5.9321    3.5522 C   0  0  0  0  0  0  0  0  0  0  0  0
    2.2697   -5.8723    4.4589 C   0  0  2  0  0  0  0  0  0  0  0  0
    1.0333   -5.2505    3.8217 C   0  0  1  0  0  0  0  0  0  0  0  0
    1.2662   -3.8839    3.6795 O   0  0  0  0  0  0  0  0  0  0  0  0
    0.6224   -3.0633    4.5447 C   0  0  0  0  0  0  0  0  0  0  0  0
    0.9725   -1.6006    4.3072 C   0  0  0  0  0  0  0  0  0  0  0  0
   -0.1685   -3.3939    5.4310 O   0  0  0  0  0  0  0  0  0  0  0  0
    0.8564   -5.8671    2.5744 O   0  0  0  0  0  0  0  0  0  0  0  0
    0.2824   -7.1506    2.5754 C   0  0  1  0  0  0  0  0  0  0  0  0
   -0.1659   -7.4232    1.2691 O   0  0  0  0  0  0  0  0  0  0  0  0
    1.1138   -8.4457    3.1042 C   0  0  1  0  0  0  0  0  0  0  0  0
    2.2826   -8.8403    2.1510 C   0  0  0  0  0  0  0  0  0  0  0  0
    3.2922   -8.0309    1.6781 C   0  0  0  0  0  0  0  0  0  0  0  0
    4.4400   -8.6444    0.8779 C   0  0  0  0  0  0  0  0  0  0  0  0
    2.5813  -10.0597    3.0268 C   0  0  1  0  0  0  0  0  0  0  0  0
    3.9232  -10.5131    3.1038 O   0  0  0  0  0  0  0  0  0  0  0  0
    4.2861  -11.4911    3.9619 C   0  0  0  0  0  0  0  0  0  0  0  0
    3.1829  -11.9949    4.9002 C   0  0  0  0  0  0  0  0  0  0  0  0
    5.4253  -11.9500    4.0212 O   0  0  0  0  0  0  0  0  0  0  0  0
    2.3692   -8.9024    4.0363 C   0  0  2  0  0  0  0  0  0  0  0  0
    2.1160   -9.1172    5.4081 O   0  0  0  0  0  0  0  0  0  0  0  0
    1.2995   -8.0696    5.8949 C   0  0  2  0  0  0  0  0  0  0  0  0
   -0.0985   -8.4375    5.2690 C   0  0  0  0  0  0  0  0  0  0  0  0
    0.0276   -9.2205    3.9010 C   0  0  1  0  0  0  0  0  0  0  0  0
   -1.2330   -9.4256    3.2762 O   0  0  0  0  0  0  0  0  0  0  0  0
    1.9612   -6.5909    5.8312 C   0  0  1  0  0  0  0  0  0  0  0  0
    3.1785   -6.6687    6.5682 O   0  0  0  0  0  0  0  0  0  0  0  0
    3.5665   -5.6683    7.3801 C   0  0  0  0  0  0  0  0  0  0  0  0
    4.8921   -5.9567    8.0780 C   0  0  0  0  0  0  0  0  0  0  0  0
    2.9549   -4.6177    7.5713 O   0  0  0  0  0  0  0  0  0  0  0  0
    2.8233   -4.0083    0.9218 H   0  0  0  0  0  0  0  0  0  0  0  0
    2.7885   -5.2066   -0.3971 H   0  0  0  0  0  0  0  0  0  0  0  0
    3.4825   -3.6185   -0.6695 H   0  0  0  0  0  0  0  0  0  0  0  0
    2.6566   -6.0799    1.5131 H   0  0  0  0  0  0  0  0  0  0  0  0
    4.3840   -6.4392    4.0863 H   0  0  0  0  0  0  0  0  0  0  0  0
    3.9167   -4.8977    3.4825 H   0  0  0  0  0  0  0  0  0  0  0  0
    2.1302   -6.7434    4.0366 H   0  0  0  0  0  0  0  0  0  0  0  0
    0.1314   -5.4599    4.4074 H   0  0  0  0  0  0  0  0  0  0  0  0
    2.0542   -1.4653    4.3314 H   0  0  0  0  0  0  0  0  0  0  0  0
    0.5278   -0.9806    5.0832 H   0  0  0  0  0  0  0  0  0  0  0  0
    0.5992   -1.2721    3.3370 H   0  0  0  0  0  0  0  0  0  0  0  0
   -0.6446   -7.0150    3.1285 H   0  0  0  0  0  0  0  0  0  0  0  0
    0.1444   -8.2911    1.0305 H   0  0  0  0  0  0  0  0  0  0  0  0
    4.5081   -8.1501   -0.0926 H   0  0  0  0  0  0  0  0  0  0  0  0
    4.2749   -9.7056    0.6871 H   0  0  0  0  0  0  0  0  0  0  0  0
    5.3954   -8.5241    1.3923 H   0  0  0  0  0  0  0  0  0  0  0  0
    1.8506  -10.8598    2.9570 H   0  0  0  0  0  0  0  0  0  0  0  0
    2.8407  -11.1966    5.5469 H   0  0  0  0  0  0  0  0  0  0  0  0
    3.5258  -12.7774    5.5717 H   0  0  0  0  0  0  0  0  0  0  0  0
    2.3174  -12.3795    4.3459 H   0  0  0  0  0  0  0  0  0  0  0  0
    3.3200   -8.3566    4.0988 H   0  0  0  0  0  0  0  0  0  0  0  0
    1.1907   -8.2676    6.9618 H   0  0  0  0  0  0  0  0  0  0  0  0
   -0.6391   -9.0866    5.9534 H   0  0  0  0  0  0  0  0  0  0  0  0
   -0.7174   -7.5470    5.1859 H   0  0  0  0  0  0  0  0  0  0  0  0
    0.3230  -10.2440    4.1481 H   0  0  0  0  0  0  0  0  0  0  0  0
   -1.7304  -10.0098    3.8667 H   0  0  0  0  0  0  0  0  0  0  0  0
    1.2737   -5.9377    6.3730 H   0  0  0  0  0  0  0  0  0  0  0  0
    4.8222   -6.8666    8.6752 H   0  0  0  0  0  0  0  0  0  0  0  0
    5.1666   -5.1351    8.7415 H   0  0  0  0  0  0  0  0  0  0  0  0
    5.6906   -6.0853    7.3466 H   0  0  0  0  0  0  0  0  0  0  0  0
  1  2  1  0
  1 36  1  0
  1 37  1  0
  1 38  1  0
  2  3  2  0
  2  4  1  0
  4  5  1  0
  5 18  1  0
  5  6  1  0
  5 39  1  6
  6  7  1  0
  6 40  1  0
  6 41  1  0
  7 31  1  0
  7  8  1  0
  7 42  1  1
  8  9  1  0
  8 13  1  0
  8 43  1  1
  9 10  1  0
 10 11  1  0
 10 12  2  0
 11 44  1  0
 11 45  1  0
 11 46  1  0
 13 14  1  0
 14 15  1  0
 14 16  1  0
 14 47  1  1
 15 48  1  0
 16 25  1  0
 16 29  1  0
 16 17  1  6
 17 18  2  3
 17 20  1  0
 18 19  1  0
 19 49  1  0
 19 50  1  0
 19 51  1  0
 20 21  1  0
 20 25  1  0
 20 52  1  1
 21 22  1  0
 22 23  1  0
 22 24  2  0
 23 53  1  0
 23 54  1  0
 23 55  1  0
 25 26  1  0
 25 56  1  1
 26 27  1  0
 27 28  1  0
 27 31  1  0
 27 57  1  1
 28 29  1  0
 28 58  1  0
 28 59  1  0
 29 30  1  0
 29 60  1  1
 30 61  1  0
 31 32  1  0
 31 62  1  1
 32 33  1  0
 33 34  1  0
 33 35  2  0
 34 63  1  0
 34 64  1  0
 34 65  1  0
M  END
>  <i_m_ct_stereo_status>  (336) 
1

>  <s_m_source_file>  (336) 
/var/tmp/pbs.5076255.sched01/tmpalt_vnqi/12934k3la1h.sdf

>  <i_m_source_file_index>  (336) 
25

>  <i_lp_mmshare_version>  (336) 
48012

>  <i_f3d_flags>  (336) 
0

>  <s_epik_input>  (336) 
W0NIM11DKD1PKU9bQ0BASF0oL0MoPUMxXFtDQF0yMzQpW0NIM10pW0NIMl1bQ0BIXShbQ0BASF0oT0MoPU8pW0NIM10pT1tDQEhdMltPSF0pW0NASF0oT0MoPU8pW0NIM10pW0NAQEhdKFtDSDJdW0NASF00W09IXSlPW0NASF0zW0NAQEhdMU9DKD1PKVtDSDNd

>  <s_epik_cmdline>  (336) 
J2VwaWtfcHl0aG9uJywgJy1waHQnLCAnMi4wJywgJy1waCcsICc3LjAnLCAnLXRuJywgJzgnLCAnLW1hJywgJzIwMCcsICctaW1hZScsICc8aW5maWxlLm1hZT4nLCAnLW9tYWUnLCAnPG91dGZpbGUubWFlPic=

>  <r_lp_tautomer_probability>  (336) 
1

>  <r_epik_Ionization_Penalty>  (336) 
2.1139e-05

>  <r_epik_Ionization_Penalty_Charging>  (336) 
0

>  <r_epik_Ionization_Penalty_Neutral>  (336) 
2.1139e-05

>  <r_epik_State_Penalty>  (336) 
-0

>  <r_epik_Charging_Adjusted_Penalty>  (336) 
0

>  <i_epik_Tot_Q>  (336) 
0

>  <i_epik_Tot_abs_Q>  (336) 
0

>  <s_epik_Chemistry_Notes>  (336) 
This compound has an ester and may undergo hydrolysis at high or low pH. This compound contains an acetal/aminal-like group ( X-CH(R)-Y where X, Y are N, S, or O) that may be acid/base labile, releasing an aldehyde.

>  <s_lp_Force_Field>  (336) 
OPLS3e

>  <r_lp_Energy>  (336) 
191.187

>  <b_lp_Chiralities_Consistent>  (336) 
1

>  <s_lp_Variant>  (336) 
105:0-1

>  <s_i_glide_gridfile>  (336) 
pfpi4k_grid

>  <i_i_glide_lignum>  (336) 
25

>  <i_i_glide_rotatable_bonds>  (336) 
10

>  <r_i_docking_score>  (336) 
-2.99093

>  <r_i_glide_ligand_efficiency>  (336) 
-0.0854553

>  <r_i_glide_ligand_efficiency_sa>  (336) 
-0.27953

>  <r_i_glide_ligand_efficiency_ln>  (336) 
-0.656577

>  <r_i_glide_gscore>  (336) 
-2.99093

>  <r_i_glide_lipo>  (336) 
-0.0217572

>  <r_i_glide_hbond>  (336) 
-0.0143393

>  <r_i_glide_metal>  (336) 
-0

>  <r_i_glide_rewards>  (336) 
-0.12335

>  <r_i_glide_evdw>  (336) 
-31.505

>  <r_i_glide_ecoul>  (336) 
-9.88191

>  <r_i_glide_erotb>  (336) 
0.328498

>  <r_i_glide_esite>  (336) 
-0.102449

>  <r_i_glide_emodel>  (336) 
-39.9462

>  <r_i_glide_energy>  (336) 
-41.3869

>  <r_i_glide_einternal>  (336) 
16.6516

>  <r_i_glide_intrahb_reward>  (336) 
-0

>  <i_i_glide_confnum>  (336) 
5

>  <i_i_glide_posenum>  (336) 
33

>  <r_i_glide_eff_state_penalty>  (336) 
0

>  <ligand_id>  (336) 
105

>  <original_smiles>  (336) 
CC(=O)OC1CC2C(OC(C)=O)OC(O)C34C(=C1C)C(OC(C)=O)C3OC(CC4O)C2OC(C)=O

>  <smiles>  (336) 
[H]OC1([H])OC([H])(OC(=O)C([H])([H])[H])C2([H])C([H])([H])C([H])(OC(=O)C([H])([H])[H])C(C([H])([H])[H])=C3C([H])(OC(=O)C([H])([H])[H])C4([H])OC([H])(C([H])([H])C([H])(O[H])C314)C2([H])OC(=O)C([H])([H])[H]

$$$$
105:0:1
     RDKit          3D

 65 68  0  0  1  0  0  0  0  0999 V2000
    0.2362   -0.5175    5.2761 C   0  0  0  0  0  0  0  0  0  0  0  0
    1.4260   -1.4491    5.0951 C   0  0  0  0  0  0  0  0  0  0  0  0
    2.5699   -1.0887    5.3721 O   0  0  0  0  0  0  0  0  0  0  0  0
    1.0744   -2.6521    4.5937 O   0  0  0  0  0  0  0  0  0  0  0  0
    2.0678   -3.6379    4.2730 C   0  0  2  0  0  0  0  0  0  0  0  0
    2.4389   -3.3005    2.7229 C   0  0  0  0  0  0  0  0  0  0  0  0
    3.7285   -3.9075    2.0335 C   0  0  2  0  0  0  0  0  0  0  0  0
    5.0129   -3.7470    2.8415 C   0  0  1  0  0  0  0  0  0  0  0  0
    5.3147   -2.3927    2.8770 O   0  0  0  0  0  0  0  0  0  0  0  0
    5.7298   -1.8514    1.7046 C   0  0  0  0  0  0  0  0  0  0  0  0
    5.4940   -0.3524    1.6687 C   0  0  0  0  0  0  0  0  0  0  0  0
    6.2388   -2.4490    0.7517 O   0  0  0  0  0  0  0  0  0  0  0  0
    4.7316   -4.2381    4.1221 O   0  0  0  0  0  0  0  0  0  0  0  0
    4.7248   -5.6322    4.2710 C   0  0  1  0  0  0  0  0  0  0  0  0
    4.8244   -5.9504    5.6341 O   0  0  0  0  0  0  0  0  0  0  0  0
    3.5125   -6.5327    3.6553 C   0  0  1  0  0  0  0  0  0  0  0  0
    2.1910   -6.2814    4.4315 C   0  0  0  0  0  0  0  0  0  0  0  0
    1.5714   -5.0733    4.7080 C   0  0  0  0  0  0  0  0  0  0  0  0
    0.1757   -5.0813    5.3275 C   0  0  0  0  0  0  0  0  0  0  0  0
    1.5160   -7.3874    3.6239 C   0  0  1  0  0  0  0  0  0  0  0  0
    0.1226   -7.2806    3.3404 O   0  0  0  0  0  0  0  0  0  0  0  0
   -0.5885   -8.3461    2.8795 C   0  0  0  0  0  0  0  0  0  0  0  0
    0.1619   -9.6828    2.8508 C   0  0  0  0  0  0  0  0  0  0  0  0
   -1.7568   -8.2637    2.5260 O   0  0  0  0  0  0  0  0  0  0  0  0
    2.2952   -6.5578    2.5692 C   0  0  2  0  0  0  0  0  0  0  0  0
    2.6110   -7.0436    1.2851 O   0  0  0  0  0  0  0  0  0  0  0  0
    3.8491   -6.4692    0.8812 C   0  0  2  0  0  0  0  0  0  0  0  0
    4.8745   -7.2915    1.7553 C   0  0  0  0  0  0  0  0  0  0  0  0
    4.2651   -7.7773    3.1276 C   0  0  1  0  0  0  0  0  0  0  0  0
    5.2337   -8.3560    3.9821 O   0  0  0  0  0  0  0  0  0  0  0  0
    3.8643   -4.8526    0.7689 C   0  0  1  0  0  0  0  0  0  0  0  0
    2.8497   -4.4923   -0.1676 O   0  0  0  0  0  0  0  0  0  0  0  0
    3.0100   -3.4605   -1.0233 C   0  0  0  0  0  0  0  0  0  0  0  0
    1.8754   -3.3653   -2.0336 C   0  0  0  0  0  0  0  0  0  0  0  0
    3.9549   -2.6746   -1.0477 O   0  0  0  0  0  0  0  0  0  0  0  0
   -0.5051   -0.9580    5.9411 H   0  0  0  0  0  0  0  0  0  0  0  0
   -0.2308   -0.3091    4.3136 H   0  0  0  0  0  0  0  0  0  0  0  0
    0.5587    0.4309    5.7019 H   0  0  0  0  0  0  0  0  0  0  0  0
    2.9010   -3.4321    4.9402 H   0  0  0  0  0  0  0  0  0  0  0  0
    1.5670   -3.5097    2.1073 H   0  0  0  0  0  0  0  0  0  0  0  0
    2.5653   -2.2214    2.6271 H   0  0  0  0  0  0  0  0  0  0  0  0
    3.4195   -4.6915    2.5144 H   0  0  0  0  0  0  0  0  0  0  0  0
    5.8623   -4.3051    2.4255 H   0  0  0  0  0  0  0  0  0  0  0  0
    4.4698   -0.1194    1.9609 H   0  0  0  0  0  0  0  0  0  0  0  0
    5.6747    0.0400    0.6696 H   0  0  0  0  0  0  0  0  0  0  0  0
    6.1750    0.1272    2.3711 H   0  0  0  0  0  0  0  0  0  0  0  0
    5.7031   -5.9300    3.8722 H   0  0  0  0  0  0  0  0  0  0  0  0
    5.1746   -6.8339    5.6903 H   0  0  0  0  0  0  0  0  0  0  0  0
    0.1782   -4.5001    6.2529 H   0  0  0  0  0  0  0  0  0  0  0  0
   -0.1465   -6.0899    5.5832 H   0  0  0  0  0  0  0  0  0  0  0  0
   -0.5790   -4.6545    4.6542 H   0  0  0  0  0  0  0  0  0  0  0  0
    1.8777   -8.3822    3.8821 H   0  0  0  0  0  0  0  0  0  0  0  0
    1.0440   -9.6045    2.2125 H   0  0  0  0  0  0  0  0  0  0  0  0
   -0.4458  -10.4961    2.4515 H   0  0  0  0  0  0  0  0  0  0  0  0
    0.4752   -9.9661    3.8569 H   0  0  0  0  0  0  0  0  0  0  0  0
    1.6837   -5.6827    2.3124 H   0  0  0  0  0  0  0  0  0  0  0  0
    4.0183   -6.8100   -0.1401 H   0  0  0  0  0  0  0  0  0  0  0  0
    5.1916   -8.1759    1.2031 H   0  0  0  0  0  0  0  0  0  0  0  0
    5.7821   -6.7051    1.8900 H   0  0  0  0  0  0  0  0  0  0  0  0
    3.6132   -8.6179    2.8812 H   0  0  0  0  0  0  0  0  0  0  0  0
    5.5260   -9.1746    3.5906 H   0  0  0  0  0  0  0  0  0  0  0  0
    4.8273   -4.6186    0.3133 H   0  0  0  0  0  0  0  0  0  0  0  0
    1.8134   -4.2587   -2.6591 H   0  0  0  0  0  0  0  0  0  0  0  0
    2.0368   -2.5128   -2.6892 H   0  0  0  0  0  0  0  0  0  0  0  0
    0.9253   -3.2281   -1.5235 H   0  0  0  0  0  0  0  0  0  0  0  0
  1  2  1  0
  1 36  1  0
  1 37  1  0
  1 38  1  0
  2  3  2  0
  2  4  1  0
  4  5  1  0
  5 18  1  0
  5  6  1  0
  5 39  1  1
  6  7  1  0
  6 40  1  0
  6 41  1  0
  7 31  1  0
  7  8  1  0
  7 42  1  6
  8  9  1  0
  8 13  1  0
  8 43  1  6
  9 10  1  0
 10 11  1  0
 10 12  2  0
 11 44  1  0
 11 45  1  0
 11 46  1  0
 13 14  1  0
 14 15  1  0
 14 16  1  0
 14 47  1  6
 15 48  1  0
 16 25  1  0
 16 29  1  0
 16 17  1  1
 17 18  2  3
 17 20  1  0
 18 19  1  0
 19 49  1  0
 19 50  1  0
 19 51  1  0
 20 21  1  0
 20 25  1  0
 20 52  1  1
 21 22  1  0
 22 23  1  0
 22 24  2  0
 23 53  1  0
 23 54  1  0
 23 55  1  0
 25 26  1  0
 25 56  1  6
 26 27  1  0
 27 28  1  0
 27 31  1  0
 27 57  1  6
 28 29  1  0
 28 58  1  0
 28 59  1  0
 29 30  1  0
 29 60  1  6
 30 61  1  0
 31 32  1  0
 31 62  1  6
 32 33  1  0
 33 34  1  0
 33 35  2  0
 34 63  1  0
 34 64  1  0
 34 65  1  0
M  END
>  <i_m_ct_stereo_status>  (337) 
1

>  <s_m_source_file>  (337) 
/var/tmp/pbs.5076255.sched01/tmpalt_vnqi/12934k3la1h.sdf

>  <i_m_source_file_index>  (337) 
25

>  <i_lp_mmshare_version>  (337) 
48012

>  <i_f3d_flags>  (337) 
0

>  <s_epik_input>  (337) 
W0NIM11DKD1PKU9bQ0BASF0oL0MoPUMxXFtDQF0yMzQpW0NIM10pW0NIMl1bQ0BIXShbQ0BASF0oT0MoPU8pW0NIM10pT1tDQEhdMltPSF0pW0NASF0oT0MoPU8pW0NIM10pW0NAQEhdKFtDSDJdW0NASF00W09IXSlPW0NASF0zW0NAQEhdMU9DKD1PKVtDSDNd

>  <s_epik_cmdline>  (337) 
J2VwaWtfcHl0aG9uJywgJy1waHQnLCAnMi4wJywgJy1waCcsICc3LjAnLCAnLXRuJywgJzgnLCAnLW1hJywgJzIwMCcsICctaW1hZScsICc8aW5maWxlLm1hZT4nLCAnLW9tYWUnLCAnPG91dGZpbGUubWFlPic=

>  <r_lp_tautomer_probability>  (337) 
1

>  <r_epik_Ionization_Penalty>  (337) 
2.1139e-05

>  <r_epik_Ionization_Penalty_Charging>  (337) 
0

>  <r_epik_Ionization_Penalty_Neutral>  (337) 
2.1139e-05

>  <r_epik_State_Penalty>  (337) 
-0

>  <r_epik_Charging_Adjusted_Penalty>  (337) 
0

>  <i_epik_Tot_Q>  (337) 
0

>  <i_epik_Tot_abs_Q>  (337) 
0

>  <s_epik_Chemistry_Notes>  (337) 
This compound has an ester and may undergo hydrolysis at high or low pH. This compound contains an acetal/aminal-like group ( X-CH(R)-Y where X, Y are N, S, or O) that may be acid/base labile, releasing an aldehyde.

>  <s_lp_Force_Field>  (337) 
OPLS3e

>  <r_lp_Energy>  (337) 
191.187

>  <b_lp_Chiralities_Consistent>  (337) 
1

>  <s_lp_Variant>  (337) 
105:0-1

>  <s_i_glide_gridfile>  (337) 
pfpi4k_grid

>  <i_i_glide_lignum>  (337) 
25

>  <i_i_glide_rotatable_bonds>  (337) 
10

>  <r_i_docking_score>  (337) 
-2.84352

>  <r_i_glide_ligand_efficiency>  (337) 
-0.0812435

>  <r_i_glide_ligand_efficiency_sa>  (337) 
-0.265753

>  <r_i_glide_ligand_efficiency_ln>  (337) 
-0.624216

>  <r_i_glide_gscore>  (337) 
-2.84352

>  <r_i_glide_lipo>  (337) 
-0.374034

>  <r_i_glide_hbond>  (337) 
0

>  <r_i_glide_metal>  (337) 
-0

>  <r_i_glide_rewards>  (337) 
-0.795463

>  <r_i_glide_evdw>  (337) 
-30.0088

>  <r_i_glide_ecoul>  (337) 
-3.01953

>  <r_i_glide_erotb>  (337) 
0.328498

>  <r_i_glide_esite>  (337) 
-0.0491553

>  <r_i_glide_emodel>  (337) 
-38.5819

>  <r_i_glide_energy>  (337) 
-33.0283

>  <r_i_glide_einternal>  (337) 
13.8583

>  <r_i_glide_intrahb_reward>  (337) 
-0.5

>  <i_i_glide_confnum>  (337) 
1

>  <i_i_glide_posenum>  (337) 
20

>  <r_i_glide_eff_state_penalty>  (337) 
0

>  <ligand_id>  (337) 
105

>  <original_smiles>  (337) 
CC(=O)OC1CC2C(OC(C)=O)OC(O)C34C(=C1C)C(OC(C)=O)C3OC(CC4O)C2OC(C)=O

>  <smiles>  (337) 
[H]OC1([H])OC([H])(OC(=O)C([H])([H])[H])C2([H])C([H])([H])C([H])(OC(=O)C([H])([H])[H])C(C([H])([H])[H])=C3C([H])(OC(=O)C([H])([H])[H])C4([H])OC([H])(C([H])([H])C([H])(O[H])C314)C2([H])OC(=O)C([H])([H])[H]

$$$$
105:0:2
     RDKit          3D

 65 68  0  0  1  0  0  0  0  0999 V2000
    8.9721   -6.2600    2.8848 C   0  0  0  0  0  0  0  0  0  0  0  0
    7.5446   -6.0966    2.3788 C   0  0  0  0  0  0  0  0  0  0  0  0
    7.3011   -5.4410    1.3669 O   0  0  0  0  0  0  0  0  0  0  0  0
    6.6409   -6.7324    3.1639 O   0  0  0  0  0  0  0  0  0  0  0  0
    5.2284   -6.5965    2.9481 C   0  0  2  0  0  0  0  0  0  0  0  0
    4.7004   -6.2299    4.4494 C   0  0  0  0  0  0  0  0  0  0  0  0
    3.2547   -5.6188    4.7100 C   0  0  2  0  0  0  0  0  0  0  0  0
    2.8902   -4.4575    3.8056 C   0  0  1  0  0  0  0  0  0  0  0  0
    3.6639   -3.3754    4.2069 O   0  0  0  0  0  0  0  0  0  0  0  0
    3.4178   -2.2199    3.5712 C   0  0  0  0  0  0  0  0  0  0  0  0
    4.3338   -1.1071    4.0492 C   0  0  0  0  0  0  0  0  0  0  0  0
    2.5546   -2.0309    2.7078 O   0  0  0  0  0  0  0  0  0  0  0  0
    3.1815   -4.8802    2.4986 O   0  0  0  0  0  0  0  0  0  0  0  0
    2.2270   -5.7008    1.8901 C   0  0  1  0  0  0  0  0  0  0  0  0
    2.4378   -5.6779    0.4955 O   0  0  0  0  0  0  0  0  0  0  0  0
    2.0880   -7.2576    2.3146 C   0  0  1  0  0  0  0  0  0  0  0  0
    3.3163   -8.0911    1.8662 C   0  0  0  0  0  0  0  0  0  0  0  0
    4.6632   -7.8108    2.1000 C   0  0  0  0  0  0  0  0  0  0  0  0
    5.7092   -8.8656    1.7608 C   0  0  0  0  0  0  0  0  0  0  0  0
    2.6531   -9.3659    2.4037 C   0  0  1  0  0  0  0  0  0  0  0  0
    3.4671  -10.3744    2.9740 O   0  0  0  0  0  0  0  0  0  0  0  0
    2.9645  -11.4215    3.6745 C   0  0  0  0  0  0  0  0  0  0  0  0
    1.4216  -11.4929    3.7948 C   0  0  0  0  0  0  0  0  0  0  0  0
    3.6923  -12.2593    4.1926 O   0  0  0  0  0  0  0  0  0  0  0  0
    2.4070   -8.3148    3.5067 C   0  0  2  0  0  0  0  0  0  0  0  0
    1.4267   -8.4658    4.5058 O   0  0  0  0  0  0  0  0  0  0  0  0
    0.9354   -7.1980    4.8663 C   0  0  2  0  0  0  0  0  0  0  0  0
    0.0420   -6.8148    3.6221 C   0  0  0  0  0  0  0  0  0  0  0  0
    0.5481   -7.4703    2.2814 C   0  0  1  0  0  0  0  0  0  0  0  0
   -0.1704   -7.0057    1.1496 O   0  0  0  0  0  0  0  0  0  0  0  0
    2.0249   -6.1857    5.5387 C   0  0  1  0  0  0  0  0  0  0  0  0
    2.5780   -6.8471    6.6758 O   0  0  0  0  0  0  0  0  0  0  0  0
    1.9269   -6.8696    7.8575 C   0  0  0  0  0  0  0  0  0  0  0  0
    2.6609   -7.6678    8.9324 C   0  0  0  0  0  0  0  0  0  0  0  0
    0.8493   -6.3207    8.0970 O   0  0  0  0  0  0  0  0  0  0  0  0
    9.2425   -7.3146    2.9365 H   0  0  0  0  0  0  0  0  0  0  0  0
    9.0873   -5.8229    3.8758 H   0  0  0  0  0  0  0  0  0  0  0  0
    9.6805   -5.7729    2.2158 H   0  0  0  0  0  0  0  0  0  0  0  0
    5.1334   -5.7298    2.3026 H   0  0  0  0  0  0  0  0  0  0  0  0
    4.8505   -7.1045    5.0858 H   0  0  0  0  0  0  0  0  0  0  0  0
    5.3937   -5.4935    4.8600 H   0  0  0  0  0  0  0  0  0  0  0  0
    3.0304   -6.3112    4.0574 H   0  0  0  0  0  0  0  0  0  0  0  0
    1.8335   -4.1780    3.8773 H   0  0  0  0  0  0  0  0  0  0  0  0
    4.2768   -1.0230    5.1339 H   0  0  0  0  0  0  0  0  0  0  0  0
    4.0521   -0.1516    3.6118 H   0  0  0  0  0  0  0  0  0  0  0  0
    5.3656   -1.3274    3.7775 H   0  0  0  0  0  0  0  0  0  0  0  0
    1.3004   -5.1480    2.0280 H   0  0  0  0  0  0  0  0  0  0  0  0
    2.6180   -4.7860    0.2393 H   0  0  0  0  0  0  0  0  0  0  0  0
    6.4640   -8.4266    1.1069 H   0  0  0  0  0  0  0  0  0  0  0  0
    5.2813   -9.7166    1.2306 H   0  0  0  0  0  0  0  0  0  0  0  0
    6.2153   -9.2436    2.6555 H   0  0  0  0  0  0  0  0  0  0  0  0
    1.8123   -9.7431    1.8208 H   0  0  0  0  0  0  0  0  0  0  0  0
    1.0238  -10.6420    4.3131 H   0  0  0  0  0  0  0  0  0  0  0  0
    1.0988  -12.3528    4.3884 H   0  0  0  0  0  0  0  0  0  0  0  0
    0.9319  -11.5618    2.8177 H   0  0  0  0  0  0  0  0  0  0  0  0
    3.3258   -8.2851    4.1032 H   0  0  0  0  0  0  0  0  0  0  0  0
    0.2002   -7.3785    5.6490 H   0  0  0  0  0  0  0  0  0  0  0  0
   -0.9739   -7.1784    3.7801 H   0  0  0  0  0  0  0  0  0  0  0  0
   -0.0558   -5.7310    3.5521 H   0  0  0  0  0  0  0  0  0  0  0  0
    0.2692   -8.5232    2.3396 H   0  0  0  0  0  0  0  0  0  0  0  0
   -0.1620   -7.7046    0.5042 H   0  0  0  0  0  0  0  0  0  0  0  0
    1.4928   -5.2971    5.9026 H   0  0  0  0  0  0  0  0  0  0  0  0
    2.7745   -8.7109    8.6332 H   0  0  0  0  0  0  0  0  0  0  0  0
    2.1069   -7.6474    9.8724 H   0  0  0  0  0  0  0  0  0  0  0  0
    3.6510   -7.2489    9.1155 H   0  0  0  0  0  0  0  0  0  0  0  0
  1  2  1  0
  1 36  1  0
  1 37  1  0
  1 38  1  0
  2  3  2  0
  2  4  1  0
  4  5  1  0
  5 18  1  0
  5  6  1  0
  5 39  1  6
  6  7  1  0
  6 40  1  0
  6 41  1  0
  7 31  1  0
  7  8  1  0
  7 42  1  1
  8  9  1  0
  8 13  1  0
  8 43  1  6
  9 10  1  0
 10 11  1  0
 10 12  2  0
 11 44  1  0
 11 45  1  0
 11 46  1  0
 13 14  1  0
 14 15  1  0
 14 16  1  0
 14 47  1  6
 15 48  1  0
 16 25  1  0
 16 29  1  0
 16 17  1  6
 17 18  2  3
 17 20  1  0
 18 19  1  0
 19 49  1  0
 19 50  1  0
 19 51  1  0
 20 21  1  0
 20 25  1  0
 20 52  1  6
 21 22  1  0
 22 23  1  0
 22 24  2  0
 23 53  1  0
 23 54  1  0
 23 55  1  0
 25 26  1  0
 25 56  1  1
 26 27  1  0
 27 28  1  0
 27 31  1  0
 27 57  1  1
 28 29  1  0
 28 58  1  0
 28 59  1  0
 29 30  1  0
 29 60  1  1
 30 61  1  0
 31 32  1  0
 31 62  1  1
 32 33  1  0
 33 34  1  0
 33 35  2  0
 34 63  1  0
 34 64  1  0
 34 65  1  0
M  END
>  <i_m_ct_stereo_status>  (338) 
1

>  <s_m_source_file>  (338) 
/var/tmp/pbs.5076255.sched01/tmpalt_vnqi/12934k3la1h.sdf

>  <i_m_source_file_index>  (338) 
25

>  <i_lp_mmshare_version>  (338) 
48012

>  <i_f3d_flags>  (338) 
0

>  <s_epik_input>  (338) 
W0NIM11DKD1PKU9bQ0BASF0oL0MoPUMxXFtDQF0yMzQpW0NIM10pW0NIMl1bQ0BIXShbQ0BASF0oT0MoPU8pW0NIM10pT1tDQEhdMltPSF0pW0NASF0oT0MoPU8pW0NIM10pW0NAQEhdKFtDSDJdW0NASF00W09IXSlPW0NASF0zW0NAQEhdMU9DKD1PKVtDSDNd

>  <s_epik_cmdline>  (338) 
J2VwaWtfcHl0aG9uJywgJy1waHQnLCAnMi4wJywgJy1waCcsICc3LjAnLCAnLXRuJywgJzgnLCAnLW1hJywgJzIwMCcsICctaW1hZScsICc8aW5maWxlLm1hZT4nLCAnLW9tYWUnLCAnPG91dGZpbGUubWFlPic=

>  <r_lp_tautomer_probability>  (338) 
1

>  <r_epik_Ionization_Penalty>  (338) 
2.1139e-05

>  <r_epik_Ionization_Penalty_Charging>  (338) 
0

>  <r_epik_Ionization_Penalty_Neutral>  (338) 
2.1139e-05

>  <r_epik_State_Penalty>  (338) 
-0

>  <r_epik_Charging_Adjusted_Penalty>  (338) 
0

>  <i_epik_Tot_Q>  (338) 
0

>  <i_epik_Tot_abs_Q>  (338) 
0

>  <s_epik_Chemistry_Notes>  (338) 
This compound has an ester and may undergo hydrolysis at high or low pH. This compound contains an acetal/aminal-like group ( X-CH(R)-Y where X, Y are N, S, or O) that may be acid/base labile, releasing an aldehyde.

>  <s_lp_Force_Field>  (338) 
OPLS3e

>  <r_lp_Energy>  (338) 
191.187

>  <b_lp_Chiralities_Consistent>  (338) 
1

>  <s_lp_Variant>  (338) 
105:0-1

>  <s_i_glide_gridfile>  (338) 
pfpi4k_grid

>  <i_i_glide_lignum>  (338) 
25

>  <i_i_glide_rotatable_bonds>  (338) 
10

>  <r_i_docking_score>  (338) 
-2.14918

>  <r_i_glide_ligand_efficiency>  (338) 
-0.061405

>  <r_i_glide_ligand_efficiency_sa>  (338) 
-0.20086

>  <r_i_glide_ligand_efficiency_ln>  (338) 
-0.471792

>  <r_i_glide_gscore>  (338) 
-2.14918

>  <r_i_glide_lipo>  (338) 
-0.177643

>  <r_i_glide_hbond>  (338) 
0

>  <r_i_glide_metal>  (338) 
-0

>  <r_i_glide_rewards>  (338) 
-0.0104205

>  <r_i_glide_evdw>  (338) 
-31.7246

>  <r_i_glide_ecoul>  (338) 
-4.38741

>  <r_i_glide_erotb>  (338) 
0.328498

>  <r_i_glide_esite>  (338) 
-0.0452722

>  <r_i_glide_emodel>  (338) 
-37.5646

>  <r_i_glide_energy>  (338) 
-36.112

>  <r_i_glide_einternal>  (338) 
7.77832

>  <r_i_glide_intrahb_reward>  (338) 
-0

>  <i_i_glide_confnum>  (338) 
5

>  <i_i_glide_posenum>  (338) 
30

>  <r_i_glide_eff_state_penalty>  (338) 
0

>  <ligand_id>  (338) 
105

>  <original_smiles>  (338) 
CC(=O)OC1CC2C(OC(C)=O)OC(O)C34C(=C1C)C(OC(C)=O)C3OC(CC4O)C2OC(C)=O

>  <smiles>  (338) 
[H]OC1([H])OC([H])(OC(=O)C([H])([H])[H])C2([H])C([H])([H])C([H])(OC(=O)C([H])([H])[H])C(C([H])([H])[H])=C3C([H])(OC(=O)C([H])([H])[H])C4([H])OC([H])(C([H])([H])C([H])(O[H])C314)C2([H])OC(=O)C([H])([H])[H]

$$$$
105:2:0
     RDKit          3D

 65 68  0  0  1  0  0  0  0  0999 V2000
    3.5362    1.6392    8.8216 C   0  0  0  0  0  0  0  0  0  0  0  0
    2.5180    0.5002    8.7809 C   0  0  0  0  0  0  0  0  0  0  0  0
    2.0662    0.0235    9.8173 O   0  0  0  0  0  0  0  0  0  0  0  0
    2.1396    0.0597    7.5505 O   0  0  0  0  0  0  0  0  0  0  0  0
    2.6360    0.5721    6.3133 C   0  0  2  0  0  0  0  0  0  0  0  0
    1.6743    1.8529    5.9150 C   0  0  0  0  0  0  0  0  0  0  0  0
    0.2107    1.9647    5.2446 C   0  0  2  0  0  0  0  0  0  0  0  0
   -0.6938    0.9476    5.9001 C   0  0  1  0  0  0  0  0  0  0  0  0
   -1.9241    1.5225    6.2278 O   0  0  0  0  0  0  0  0  0  0  0  0
   -1.9935    2.1234    7.4440 C   0  0  0  0  0  0  0  0  0  0  0  0
   -3.2599    2.9393    7.5967 C   0  0  0  0  0  0  0  0  0  0  0  0
   -1.1609    2.0459    8.3466 O   0  0  0  0  0  0  0  0  0  0  0  0
   -0.7907   -0.0018    4.9230 O   0  0  0  0  0  0  0  0  0  0  0  0
    0.3584   -0.7500    4.8186 C   0  0  1  0  0  0  0  0  0  0  0  0
   -0.1051   -2.0515    4.5697 O   0  0  0  0  0  0  0  0  0  0  0  0
    1.5685   -0.2877    3.7274 C   0  0  1  0  0  0  0  0  0  0  0  0
    2.6040   -1.0410    4.2724 C   0  0  0  0  0  0  0  0  0  0  0  0
    3.1812   -0.6552    5.4461 C   0  0  0  0  0  0  0  0  0  0  0  0
    4.3185   -1.4071    6.1062 C   0  0  0  0  0  0  0  0  0  0  0  0
    2.5402   -2.0585    3.1612 C   0  0  1  0  0  0  0  0  0  0  0  0
    1.9448   -3.3155    3.4603 O   0  0  0  0  0  0  0  0  0  0  0  0
    2.6207   -4.2834    4.1115 C   0  0  0  0  0  0  0  0  0  0  0  0
    1.8212   -5.5732    4.2207 C   0  0  0  0  0  0  0  0  0  0  0  0
    3.7604   -4.2075    4.5638 O   0  0  0  0  0  0  0  0  0  0  0  0
    1.5361   -1.0318    2.3934 C   0  0  1  0  0  0  0  0  0  0  0  0
    0.2342   -0.2565    2.3953 O   0  0  0  0  0  0  0  0  0  0  0  0
    0.1792    1.2784    2.3997 C   0  0  2  0  0  0  0  0  0  0  0  0
    1.5624    1.7781    2.1203 C   0  0  0  0  0  0  0  0  0  0  0  0
    2.2979    1.0861    3.2445 C   0  0  1  0  0  0  0  0  0  0  0  0
    3.4034    1.7919    3.7809 O   0  0  0  0  0  0  0  0  0  0  0  0
   -0.2388    2.1599    3.6925 C   0  0  1  0  0  0  0  0  0  0  0  0
   -1.6535    2.3254    3.5358 O   0  0  0  0  0  0  0  0  0  0  0  0
   -2.2060    3.5061    3.2013 C   0  0  0  0  0  0  0  0  0  0  0  0
   -3.6123    3.3380    2.6485 C   0  0  0  0  0  0  0  0  0  0  0  0
   -1.6972    4.6210    3.3099 O   0  0  0  0  0  0  0  0  0  0  0  0
    4.4543    1.3568    8.3033 H   0  0  0  0  0  0  0  0  0  0  0  0
    3.7970    1.9050    9.8458 H   0  0  0  0  0  0  0  0  0  0  0  0
    3.1238    2.5307    8.3517 H   0  0  0  0  0  0  0  0  0  0  0  0
    3.5980    1.0449    6.4632 H   0  0  0  0  0  0  0  0  0  0  0  0
    1.4601    2.2717    6.8965 H   0  0  0  0  0  0  0  0  0  0  0  0
    2.2773    2.6773    5.5534 H   0  0  0  0  0  0  0  0  0  0  0  0
   -0.0838    2.9387    5.6449 H   0  0  0  0  0  0  0  0  0  0  0  0
   -0.2568    0.5036    6.8060 H   0  0  0  0  0  0  0  0  0  0  0  0
   -3.3779    3.5895    6.7254 H   0  0  0  0  0  0  0  0  0  0  0  0
   -3.2085    3.5658    8.4916 H   0  0  0  0  0  0  0  0  0  0  0  0
   -4.1343    2.3059    7.6681 H   0  0  0  0  0  0  0  0  0  0  0  0
    0.7431   -0.9076    5.8223 H   0  0  0  0  0  0  0  0  0  0  0  0
    0.6588   -2.5934    4.4321 H   0  0  0  0  0  0  0  0  0  0  0  0
    5.1510   -0.7344    6.2867 H   0  0  0  0  0  0  0  0  0  0  0  0
    4.7038   -2.2224    5.5031 H   0  0  0  0  0  0  0  0  0  0  0  0
    4.0087   -1.8023    7.0723 H   0  0  0  0  0  0  0  0  0  0  0  0
    3.4646   -2.1769    2.5929 H   0  0  0  0  0  0  0  0  0  0  0  0
    1.6089   -5.9648    3.2241 H   0  0  0  0  0  0  0  0  0  0  0  0
    0.8858   -5.4118    4.7586 H   0  0  0  0  0  0  0  0  0  0  0  0
    2.4105   -6.3135    4.7597 H   0  0  0  0  0  0  0  0  0  0  0  0
    2.0955   -0.6967    1.5159 H   0  0  0  0  0  0  0  0  0  0  0  0
   -0.4556    1.5588    1.5646 H   0  0  0  0  0  0  0  0  0  0  0  0
    1.8919    1.4380    1.1376 H   0  0  0  0  0  0  0  0  0  0  0  0
    1.6565    2.8692    2.1269 H   0  0  0  0  0  0  0  0  0  0  0  0
    3.1005    0.6963    2.6116 H   0  0  0  0  0  0  0  0  0  0  0  0
    3.9383    2.1495    3.0732 H   0  0  0  0  0  0  0  0  0  0  0  0
    0.1700    3.1503    3.4894 H   0  0  0  0  0  0  0  0  0  0  0  0
   -4.1774    2.7128    3.3318 H   0  0  0  0  0  0  0  0  0  0  0  0
   -3.5675    2.8401    1.6768 H   0  0  0  0  0  0  0  0  0  0  0  0
   -4.1093    4.2960    2.5162 H   0  0  0  0  0  0  0  0  0  0  0  0
  1  2  1  0
  1 36  1  0
  1 37  1  0
  1 38  1  0
  2  3  2  0
  2  4  1  0
  4  5  1  0
  5 18  1  0
  5  6  1  0
  5 39  1  1
  6  7  1  0
  6 40  1  0
  6 41  1  0
  7 31  1  0
  7  8  1  0
  7 42  1  1
  8  9  1  0
  8 13  1  0
  8 43  1  1
  9 10  1  0
 10 11  1  0
 10 12  2  0
 11 44  1  0
 11 45  1  0
 11 46  1  0
 13 14  1  0
 14 15  1  0
 14 16  1  0
 14 47  1  1
 15 48  1  0
 16 25  1  0
 16 29  1  0
 16 17  1  1
 17 18  2  3
 17 20  1  0
 18 19  1  0
 19 49  1  0
 19 50  1  0
 19 51  1  0
 20 21  1  0
 20 25  1  0
 20 52  1  6
 21 22  1  0
 22 23  1  0
 22 24  2  0
 23 53  1  0
 23 54  1  0
 23 55  1  0
 25 26  1  0
 25 56  1  6
 26 27  1  0
 27 28  1  0
 27 31  1  0
 27 57  1  6
 28 29  1  0
 28 58  1  0
 28 59  1  0
 29 30  1  0
 29 60  1  6
 30 61  1  0
 31 32  1  0
 31 62  1  6
 32 33  1  0
 33 34  1  0
 33 35  2  0
 34 63  1  0
 34 64  1  0
 34 65  1  0
M  END
>  <i_m_ct_stereo_status>  (339) 
1

>  <s_m_source_file>  (339) 
/var/tmp/pbs.5076255.sched01/tmpalt_vnqi/12934k3la1h.sdf

>  <i_m_source_file_index>  (339) 
27

>  <i_lp_mmshare_version>  (339) 
48012

>  <i_f3d_flags>  (339) 
0

>  <s_epik_input>  (339) 
W0NIM11DKD1PKU9bQ0BASF0oL0MoPUMxXFtDQF0yMzQpW0NIM10pW0NIMl1bQ0BIXShbQ0BASF0oT0MoPU8pW0NIM10pT1tDQEhdMltPSF0pW0NASF0oT0MoPU8pW0NIM10pW0NAQEhdKFtDSDJdW0NASF00W09IXSlPW0NASF0zW0NAQEhdMU9DKD1PKVtDSDNd

>  <s_epik_cmdline>  (339) 
J2VwaWtfcHl0aG9uJywgJy1waHQnLCAnMi4wJywgJy1waCcsICc3LjAnLCAnLXRuJywgJzgnLCAnLW1hJywgJzIwMCcsICctaW1hZScsICc8aW5maWxlLm1hZT4nLCAnLW9tYWUnLCAnPG91dGZpbGUubWFlPic=

>  <r_lp_tautomer_probability>  (339) 
1

>  <r_epik_Ionization_Penalty>  (339) 
2.1139e-05

>  <r_epik_Ionization_Penalty_Charging>  (339) 
0

>  <r_epik_Ionization_Penalty_Neutral>  (339) 
2.1139e-05

>  <r_epik_State_Penalty>  (339) 
-0

>  <r_epik_Charging_Adjusted_Penalty>  (339) 
0

>  <i_epik_Tot_Q>  (339) 
0

>  <i_epik_Tot_abs_Q>  (339) 
0

>  <s_epik_Chemistry_Notes>  (339) 
This compound has an ester and may undergo hydrolysis at high or low pH. This compound contains an acetal/aminal-like group ( X-CH(R)-Y where X, Y are N, S, or O) that may be acid/base labile, releasing an aldehyde.

>  <s_lp_Force_Field>  (339) 
OPLS3e

>  <r_lp_Energy>  (339) 
271.091

>  <b_lp_Chiralities_Consistent>  (339) 
1

>  <s_lp_Variant>  (339) 
105:0-3

>  <s_i_glide_gridfile>  (339) 
pfpi4k_grid

>  <i_i_glide_lignum>  (339) 
27

>  <i_i_glide_rotatable_bonds>  (339) 
10

>  <r_i_docking_score>  (339) 
-2.95581

>  <r_i_glide_ligand_efficiency>  (339) 
-0.0844516

>  <r_i_glide_ligand_efficiency_sa>  (339) 
-0.276247

>  <r_i_glide_ligand_efficiency_ln>  (339) 
-0.648865

>  <r_i_glide_gscore>  (339) 
-2.95581

>  <r_i_glide_lipo>  (339) 
-0.176654

>  <r_i_glide_hbond>  (339) 
-0.480054

>  <r_i_glide_metal>  (339) 
-0

>  <r_i_glide_rewards>  (339) 
-0.510438

>  <r_i_glide_evdw>  (339) 
-29.1842

>  <r_i_glide_ecoul>  (339) 
-3.60032

>  <r_i_glide_erotb>  (339) 
0.328498

>  <r_i_glide_esite>  (339) 
-0.117901

>  <r_i_glide_emodel>  (339) 
-37.9202

>  <r_i_glide_energy>  (339) 
-32.7845

>  <r_i_glide_einternal>  (339) 
13.274

>  <r_i_glide_intrahb_reward>  (339) 
-0.5

>  <i_i_glide_confnum>  (339) 
2

>  <i_i_glide_posenum>  (339) 
24

>  <r_i_glide_eff_state_penalty>  (339) 
0

>  <ligand_id>  (339) 
105

>  <original_smiles>  (339) 
CC(=O)OC1CC2C(OC(C)=O)OC(O)C34C(=C1C)C(OC(C)=O)C3OC(CC4O)C2OC(C)=O

>  <smiles>  (339) 
[H]OC1([H])OC([H])(OC(=O)C([H])([H])[H])C2([H])C([H])([H])C([H])(OC(=O)C([H])([H])[H])C(C([H])([H])[H])=C3C([H])(OC(=O)C([H])([H])[H])C4([H])OC([H])(C([H])([H])C([H])(O[H])C314)C2([H])OC(=O)C([H])([H])[H]

$$$$
105:2:1
     RDKit          3D

 65 68  0  0  1  0  0  0  0  0999 V2000
    3.5090    1.6241    8.9125 C   0  0  0  0  0  0  0  0  0  0  0  0
    2.4932    0.4874    8.8276 C   0  0  0  0  0  0  0  0  0  0  0  0
    2.0155    0.0002    9.8578 O   0  0  0  0  0  0  0  0  0  0  0  0
    2.1300    0.0511    7.5983 O   0  0  0  0  0  0  0  0  0  0  0  0
    2.6439    0.5631    6.3576 C   0  0  2  0  0  0  0  0  0  0  0  0
    1.6754    1.8370    5.9638 C   0  0  0  0  0  0  0  0  0  0  0  0
    0.2251    1.9543    5.2593 C   0  0  2  0  0  0  0  0  0  0  0  0
   -0.6851    0.9324    5.8999 C   0  0  1  0  0  0  0  0  0  0  0  0
   -1.9302    1.4970    6.2059 O   0  0  0  0  0  0  0  0  0  0  0  0
   -2.0061    2.1165    7.4114 C   0  0  0  0  0  0  0  0  0  0  0  0
   -3.2736    2.9456    7.5354 C   0  0  0  0  0  0  0  0  0  0  0  0
   -1.1850    2.0539    8.3268 O   0  0  0  0  0  0  0  0  0  0  0  0
   -0.7685   -0.0139    4.9084 O   0  0  0  0  0  0  0  0  0  0  0  0
    0.3987   -0.7437    4.8330 C   0  0  1  0  0  0  0  0  0  0  0  0
   -0.0716   -2.0444    4.5015 O   0  0  0  0  0  0  0  0  0  0  0  0
    1.6062   -0.2866    3.7529 C   0  0  1  0  0  0  0  0  0  0  0  0
    2.6290   -1.0319    4.3133 C   0  0  0  0  0  0  0  0  0  0  0  0
    3.2006   -0.6616    5.4956 C   0  0  0  0  0  0  0  0  0  0  0  0
    4.3265   -1.4049    6.1712 C   0  0  0  0  0  0  0  0  0  0  0  0
    2.6177   -2.0507    3.1928 C   0  0  1  0  0  0  0  0  0  0  0  0
    2.0341   -3.3253    3.4504 O   0  0  0  0  0  0  0  0  0  0  0  0
    2.7147   -4.2904    4.0970 C   0  0  0  0  0  0  0  0  0  0  0  0
    1.9097   -5.5769    4.2092 C   0  0  0  0  0  0  0  0  0  0  0  0
    3.8557   -4.2168    4.5309 O   0  0  0  0  0  0  0  0  0  0  0  0
    1.6076   -1.0226    2.4214 C   0  0  1  0  0  0  0  0  0  0  0  0
    0.3013   -0.2579    2.4040 O   0  0  0  0  0  0  0  0  0  0  0  0
    0.2374    1.2741    2.4146 C   0  0  2  0  0  0  0  0  0  0  0  0
    1.6233    1.7843    2.1536 C   0  0  0  0  0  0  0  0  0  0  0  0
    2.3444    1.0954    3.2841 C   0  0  1  0  0  0  0  0  0  0  0  0
    3.4107    1.8283    3.8569 O   0  0  0  0  0  0  0  0  0  0  0  0
   -0.2097    2.1557    3.6996 C   0  0  1  0  0  0  0  0  0  0  0  0
   -1.6206    2.3108    3.5274 O   0  0  0  0  0  0  0  0  0  0  0  0
   -2.1779    3.4929    3.2123 C   0  0  0  0  0  0  0  0  0  0  0  0
   -3.5871    3.3307    2.6659 C   0  0  0  0  0  0  0  0  0  0  0  0
   -1.6668    4.6070    3.3239 O   0  0  0  0  0  0  0  0  0  0  0  0
    4.4482    1.3455    8.4268 H   0  0  0  0  0  0  0  0  0  0  0  0
    3.7255    1.8873    9.9440 H   0  0  0  0  0  0  0  0  0  0  0  0
    3.1125    2.5179    8.4299 H   0  0  0  0  0  0  0  0  0  0  0  0
    3.6003    1.0500    6.4982 H   0  0  0  0  0  0  0  0  0  0  0  0
    1.4368    2.2533    6.9436 H   0  0  0  0  0  0  0  0  0  0  0  0
    2.2691    2.6827    5.6267 H   0  0  0  0  0  0  0  0  0  0  0  0
   -0.0801    2.9282    5.6579 H   0  0  0  0  0  0  0  0  0  0  0  0
   -0.2718    0.4809    6.8063 H   0  0  0  0  0  0  0  0  0  0  0  0
   -3.3789    3.5711    6.6543 H   0  0  0  0  0  0  0  0  0  0  0  0
   -3.2311    3.5792    8.4140 H   0  0  0  0  0  0  0  0  0  0  0  0
   -4.1559    2.3066    7.6072 H   0  0  0  0  0  0  0  0  0  0  0  0
    0.7496   -0.9315    5.8331 H   0  0  0  0  0  0  0  0  0  0  0  0
   -0.2452   -2.0068    3.5908 H   0  0  0  0  0  0  0  0  0  0  0  0
    5.1578   -0.7228    6.3674 H   0  0  0  0  0  0  0  0  0  0  0  0
    4.7231   -2.2227    5.5733 H   0  0  0  0  0  0  0  0  0  0  0  0
    4.0034   -1.8044    7.1400 H   0  0  0  0  0  0  0  0  0  0  0  0
    3.5523   -2.1467    2.6417 H   0  0  0  0  0  0  0  0  0  0  0  0
    1.6710   -5.9494    3.2144 H   0  0  0  0  0  0  0  0  0  0  0  0
    0.9876   -5.4250    4.7701 H   0  0  0  0  0  0  0  0  0  0  0  0
    2.5058   -6.3294    4.7187 H   0  0  0  0  0  0  0  0  0  0  0  0
    2.1805   -0.6838    1.5514 H   0  0  0  0  0  0  0  0  0  0  0  0
   -0.3848    1.5636    1.5656 H   0  0  0  0  0  0  0  0  0  0  0  0
    1.9732    1.4559    1.1825 H   0  0  0  0  0  0  0  0  0  0  0  0
    1.7155    2.8711    2.1747 H   0  0  0  0  0  0  0  0  0  0  0  0
    3.1663    0.7058    2.6763 H   0  0  0  0  0  0  0  0  0  0  0  0
    3.9575    2.1675    3.1599 H   0  0  0  0  0  0  0  0  0  0  0  0
    0.2050    3.1468    3.5120 H   0  0  0  0  0  0  0  0  0  0  0  0
   -4.1680    2.7159    3.3470 H   0  0  0  0  0  0  0  0  0  0  0  0
   -3.5521    2.8419    1.6922 H   0  0  0  0  0  0  0  0  0  0  0  0
   -4.0793    4.2988    2.5394 H   0  0  0  0  0  0  0  0  0  0  0  0
  1  2  1  0
  1 36  1  0
  1 37  1  0
  1 38  1  0
  2  3  2  0
  2  4  1  0
  4  5  1  0
  5 18  1  0
  5  6  1  0
  5 39  1  1
  6  7  1  0
  6 40  1  0
  6 41  1  0
  7 31  1  0
  7  8  1  0
  7 42  1  1
  8  9  1  0
  8 13  1  0
  8 43  1  1
  9 10  1  0
 10 11  1  0
 10 12  2  0
 11 44  1  0
 11 45  1  0
 11 46  1  0
 13 14  1  0
 14 15  1  0
 14 16  1  0
 14 47  1  1
 15 48  1  0
 16 25  1  0
 16 29  1  0
 16 17  1  1
 17 18  2  3
 17 20  1  0
 18 19  1  0
 19 49  1  0
 19 50  1  0
 19 51  1  0
 20 21  1  0
 20 25  1  0
 20 52  1  6
 21 22  1  0
 22 23  1  0
 22 24  2  0
 23 53  1  0
 23 54  1  0
 23 55  1  0
 25 26  1  0
 25 56  1  6
 26 27  1  0
 27 28  1  0
 27 31  1  0
 27 57  1  6
 28 29  1  0
 28 58  1  0
 28 59  1  0
 29 30  1  0
 29 60  1  6
 30 61  1  0
 31 32  1  0
 31 62  1  6
 32 33  1  0
 33 34  1  0
 33 35  2  0
 34 63  1  0
 34 64  1  0
 34 65  1  0
M  END
>  <i_m_ct_stereo_status>  (340) 
1

>  <s_m_source_file>  (340) 
/var/tmp/pbs.5076255.sched01/tmpalt_vnqi/12934k3la1h.sdf

>  <i_m_source_file_index>  (340) 
27

>  <i_lp_mmshare_version>  (340) 
48012

>  <i_f3d_flags>  (340) 
0

>  <s_epik_input>  (340) 
W0NIM11DKD1PKU9bQ0BASF0oL0MoPUMxXFtDQF0yMzQpW0NIM10pW0NIMl1bQ0BIXShbQ0BASF0oT0MoPU8pW0NIM10pT1tDQEhdMltPSF0pW0NASF0oT0MoPU8pW0NIM10pW0NAQEhdKFtDSDJdW0NASF00W09IXSlPW0NASF0zW0NAQEhdMU9DKD1PKVtDSDNd

>  <s_epik_cmdline>  (340) 
J2VwaWtfcHl0aG9uJywgJy1waHQnLCAnMi4wJywgJy1waCcsICc3LjAnLCAnLXRuJywgJzgnLCAnLW1hJywgJzIwMCcsICctaW1hZScsICc8aW5maWxlLm1hZT4nLCAnLW9tYWUnLCAnPG91dGZpbGUubWFlPic=

>  <r_lp_tautomer_probability>  (340) 
1

>  <r_epik_Ionization_Penalty>  (340) 
2.1139e-05

>  <r_epik_Ionization_Penalty_Charging>  (340) 
0

>  <r_epik_Ionization_Penalty_Neutral>  (340) 
2.1139e-05

>  <r_epik_State_Penalty>  (340) 
-0

>  <r_epik_Charging_Adjusted_Penalty>  (340) 
0

>  <i_epik_Tot_Q>  (340) 
0

>  <i_epik_Tot_abs_Q>  (340) 
0

>  <s_epik_Chemistry_Notes>  (340) 
This compound has an ester and may undergo hydrolysis at high or low pH. This compound contains an acetal/aminal-like group ( X-CH(R)-Y where X, Y are N, S, or O) that may be acid/base labile, releasing an aldehyde.

>  <s_lp_Force_Field>  (340) 
OPLS3e

>  <r_lp_Energy>  (340) 
271.091

>  <b_lp_Chiralities_Consistent>  (340) 
1

>  <s_lp_Variant>  (340) 
105:0-3

>  <s_i_glide_gridfile>  (340) 
pfpi4k_grid

>  <i_i_glide_lignum>  (340) 
27

>  <i_i_glide_rotatable_bonds>  (340) 
10

>  <r_i_docking_score>  (340) 
-2.82145

>  <r_i_glide_ligand_efficiency>  (340) 
-0.0806129

>  <r_i_glide_ligand_efficiency_sa>  (340) 
-0.26369

>  <r_i_glide_ligand_efficiency_ln>  (340) 
-0.619371

>  <r_i_glide_gscore>  (340) 
-2.82145

>  <r_i_glide_lipo>  (340) 
-0.16947

>  <r_i_glide_hbond>  (340) 
-0.480156

>  <r_i_glide_metal>  (340) 
-0

>  <r_i_glide_rewards>  (340) 
-0.0104257

>  <r_i_glide_evdw>  (340) 
-29.2687

>  <r_i_glide_ecoul>  (340) 
-6.06281

>  <r_i_glide_erotb>  (340) 
0.328498

>  <r_i_glide_esite>  (340) 
-0.117042

>  <r_i_glide_emodel>  (340) 
-36.0578

>  <r_i_glide_energy>  (340) 
-35.3315

>  <r_i_glide_einternal>  (340) 
11.1178

>  <r_i_glide_intrahb_reward>  (340) 
-0

>  <i_i_glide_confnum>  (340) 
2

>  <i_i_glide_posenum>  (340) 
30

>  <r_i_glide_eff_state_penalty>  (340) 
0

>  <ligand_id>  (340) 
105

>  <original_smiles>  (340) 
CC(=O)OC1CC2C(OC(C)=O)OC(O)C34C(=C1C)C(OC(C)=O)C3OC(CC4O)C2OC(C)=O

>  <smiles>  (340) 
[H]OC1([H])OC([H])(OC(=O)C([H])([H])[H])C2([H])C([H])([H])C([H])(OC(=O)C([H])([H])[H])C(C([H])([H])[H])=C3C([H])(OC(=O)C([H])([H])[H])C4([H])OC([H])(C([H])([H])C([H])(O[H])C314)C2([H])OC(=O)C([H])([H])[H]

$$$$
105:2:2
     RDKit          3D

 65 68  0  0  1  0  0  0  0  0999 V2000
    4.7942    2.8477    7.9031 C   0  0  0  0  0  0  0  0  0  0  0  0
    3.6839    1.9787    8.4925 C   0  0  0  0  0  0  0  0  0  0  0  0
    3.4689    1.9708    9.6949 O   0  0  0  0  0  0  0  0  0  0  0  0
    2.9542    1.2399    7.6119 O   0  0  0  0  0  0  0  0  0  0  0  0
    3.1702    1.1993    6.2021 C   0  0  2  0  0  0  0  0  0  0  0  0
    2.2188    2.3846    5.5528 C   0  0  0  0  0  0  0  0  0  0  0  0
    0.6481    2.4652    5.1802 C   0  0  2  0  0  0  0  0  0  0  0  0
   -0.1444    1.8886    6.3177 C   0  0  1  0  0  0  0  0  0  0  0  0
   -1.2113    2.7289    6.6329 O   0  0  0  0  0  0  0  0  0  0  0  0
   -1.8972    2.3710    7.7372 C   0  0  0  0  0  0  0  0  0  0  0  0
   -2.9834    3.3742    8.0877 C   0  0  0  0  0  0  0  0  0  0  0  0
   -1.7035    1.3732    8.4183 O   0  0  0  0  0  0  0  0  0  0  0  0
   -0.5186    0.6750    5.8050 O   0  0  0  0  0  0  0  0  0  0  0  0
    0.5239   -0.2178    5.7855 C   0  0  1  0  0  0  0  0  0  0  0  0
   -0.0604   -1.4466    6.1487 O   0  0  0  0  0  0  0  0  0  0  0  0
    1.4716   -0.3592    4.3893 C   0  0  1  0  0  0  0  0  0  0  0  0
    2.5578   -1.0077    4.9700 C   0  0  0  0  0  0  0  0  0  0  0  0
    3.4113   -0.3229    5.7762 C   0  0  0  0  0  0  0  0  0  0  0  0
    4.6212   -0.9522    6.4435 C   0  0  0  0  0  0  0  0  0  0  0  0
    2.1768   -2.3354    4.3634 C   0  0  1  0  0  0  0  0  0  0  0  0
    1.5914   -3.2979    5.2288 O   0  0  0  0  0  0  0  0  0  0  0  0
    2.3427   -4.0905    6.0171 C   0  0  0  0  0  0  0  0  0  0  0  0
    1.5125   -5.1166    6.7708 C   0  0  0  0  0  0  0  0  0  0  0  0
    3.5683   -4.0549    6.1365 O   0  0  0  0  0  0  0  0  0  0  0  0
    1.0852   -1.5157    3.4729 C   0  0  1  0  0  0  0  0  0  0  0  0
   -0.1235   -0.6017    3.4306 O   0  0  0  0  0  0  0  0  0  0  0  0
   -0.0732    0.8239    2.8616 C   0  0  2  0  0  0  0  0  0  0  0  0
    1.2296    0.9843    2.1441 C   0  0  0  0  0  0  0  0  0  0  0  0
    2.1545    0.6319    3.2878 C   0  0  1  0  0  0  0  0  0  0  0  0
    3.3979    1.3133    3.3286 O   0  0  0  0  0  0  0  0  0  0  0  0
   -0.1250    2.1582    3.7801 C   0  0  1  0  0  0  0  0  0  0  0  0
   -1.5298    2.4440    3.8060 O   0  0  0  0  0  0  0  0  0  0  0  0
   -2.0251    3.6030    3.3522 C   0  0  0  0  0  0  0  0  0  0  0  0
   -3.4548    3.4453    2.8628 C   0  0  0  0  0  0  0  0  0  0  0  0
   -1.4462    4.6890    3.3089 O   0  0  0  0  0  0  0  0  0  0  0  0
    5.5132    2.2377    7.3538 H   0  0  0  0  0  0  0  0  0  0  0  0
    5.3347    3.3811    8.6848 H   0  0  0  0  0  0  0  0  0  0  0  0
    4.3671    3.5915    7.2329 H   0  0  0  0  0  0  0  0  0  0  0  0
    4.1638    1.5523    5.9519 H   0  0  0  0  0  0  0  0  0  0  0  0
    2.2867    3.1519    6.3235 H   0  0  0  0  0  0  0  0  0  0  0  0
    2.7629    2.9337    4.7968 H   0  0  0  0  0  0  0  0  0  0  0  0
    0.5017    3.5444    5.2664 H   0  0  0  0  0  0  0  0  0  0  0  0
    0.4577    1.7801    7.2326 H   0  0  0  0  0  0  0  0  0  0  0  0
   -2.5685    4.3807    8.1090 H   0  0  0  0  0  0  0  0  0  0  0  0
   -3.4069    3.1551    9.0702 H   0  0  0  0  0  0  0  0  0  0  0  0
   -3.7818    3.3284    7.3459 H   0  0  0  0  0  0  0  0  0  0  0  0
    1.1148   -0.0479    6.6818 H   0  0  0  0  0  0  0  0  0  0  0  0
    0.6175   -2.1051    6.0838 H   0  0  0  0  0  0  0  0  0  0  0  0
    5.5184   -0.3979    6.1841 H   0  0  0  0  0  0  0  0  0  0  0  0
    4.7906   -1.9808    6.1416 H   0  0  0  0  0  0  0  0  0  0  0  0
    4.5239   -0.9207    7.5281 H   0  0  0  0  0  0  0  0  0  0  0  0
    2.9343   -2.7816    3.7167 H   0  0  0  0  0  0  0  0  0  0  0  0
    1.0028   -5.7730    6.0637 H   0  0  0  0  0  0  0  0  0  0  0  0
    0.7743   -4.6315    7.4103 H   0  0  0  0  0  0  0  0  0  0  0  0
    2.1660   -5.7257    7.3917 H   0  0  0  0  0  0  0  0  0  0  0  0
    1.4499   -1.5939    2.4450 H   0  0  0  0  0  0  0  0  0  0  0  0
   -0.8711    0.8792    2.1268 H   0  0  0  0  0  0  0  0  0  0  0  0
    1.2884    0.2921    1.3013 H   0  0  0  0  0  0  0  0  0  0  0  0
    1.3904    1.9871    1.7301 H   0  0  0  0  0  0  0  0  0  0  0  0
    2.7638   -0.0616    2.7025 H   0  0  0  0  0  0  0  0  0  0  0  0
    3.5704    1.7445    2.4950 H   0  0  0  0  0  0  0  0  0  0  0  0
    0.2829    2.9468    3.1404 H   0  0  0  0  0  0  0  0  0  0  0  0
   -4.0646    2.9527    3.6189 H   0  0  0  0  0  0  0  0  0  0  0  0
   -3.4602    2.8366    1.9588 H   0  0  0  0  0  0  0  0  0  0  0  0
   -3.8954    4.4134    2.6166 H   0  0  0  0  0  0  0  0  0  0  0  0
  1  2  1  0
  1 36  1  0
  1 37  1  0
  1 38  1  0
  2  3  2  0
  2  4  1  0
  4  5  1  0
  5 18  1  0
  5  6  1  0
  5 39  1  1
  6  7  1  0
  6 40  1  0
  6 41  1  0
  7 31  1  0
  7  8  1  0
  7 42  1  1
  8  9  1  0
  8 13  1  0
  8 43  1  1
  9 10  1  0
 10 11  1  0
 10 12  2  0
 11 44  1  0
 11 45  1  0
 11 46  1  0
 13 14  1  0
 14 15  1  0
 14 16  1  0
 14 47  1  1
 15 48  1  0
 16 25  1  0
 16 29  1  0
 16 17  1  1
 17 18  2  3
 17 20  1  0
 18 19  1  0
 19 49  1  0
 19 50  1  0
 19 51  1  0
 20 21  1  0
 20 25  1  0
 20 52  1  6
 21 22  1  0
 22 23  1  0
 22 24  2  0
 23 53  1  0
 23 54  1  0
 23 55  1  0
 25 26  1  0
 25 56  1  6
 26 27  1  0
 27 28  1  0
 27 31  1  0
 27 57  1  6
 28 29  1  0
 28 58  1  0
 28 59  1  0
 29 30  1  0
 29 60  1  6
 30 61  1  0
 31 32  1  0
 31 62  1  6
 32 33  1  0
 33 34  1  0
 33 35  2  0
 34 63  1  0
 34 64  1  0
 34 65  1  0
M  END
>  <i_m_ct_stereo_status>  (341) 
1

>  <s_m_source_file>  (341) 
/var/tmp/pbs.5076255.sched01/tmpalt_vnqi/12934k3la1h.sdf

>  <i_m_source_file_index>  (341) 
27

>  <i_lp_mmshare_version>  (341) 
48012

>  <i_f3d_flags>  (341) 
0

>  <s_epik_input>  (341) 
W0NIM11DKD1PKU9bQ0BASF0oL0MoPUMxXFtDQF0yMzQpW0NIM10pW0NIMl1bQ0BIXShbQ0BASF0oT0MoPU8pW0NIM10pT1tDQEhdMltPSF0pW0NASF0oT0MoPU8pW0NIM10pW0NAQEhdKFtDSDJdW0NASF00W09IXSlPW0NASF0zW0NAQEhdMU9DKD1PKVtDSDNd

>  <s_epik_cmdline>  (341) 
J2VwaWtfcHl0aG9uJywgJy1waHQnLCAnMi4wJywgJy1waCcsICc3LjAnLCAnLXRuJywgJzgnLCAnLW1hJywgJzIwMCcsICctaW1hZScsICc8aW5maWxlLm1hZT4nLCAnLW9tYWUnLCAnPG91dGZpbGUubWFlPic=

>  <r_lp_tautomer_probability>  (341) 
1

>  <r_epik_Ionization_Penalty>  (341) 
2.1139e-05

>  <r_epik_Ionization_Penalty_Charging>  (341) 
0

>  <r_epik_Ionization_Penalty_Neutral>  (341) 
2.1139e-05

>  <r_epik_State_Penalty>  (341) 
-0

>  <r_epik_Charging_Adjusted_Penalty>  (341) 
0

>  <i_epik_Tot_Q>  (341) 
0

>  <i_epik_Tot_abs_Q>  (341) 
0

>  <s_epik_Chemistry_Notes>  (341) 
This compound has an ester and may undergo hydrolysis at high or low pH. This compound contains an acetal/aminal-like group ( X-CH(R)-Y where X, Y are N, S, or O) that may be acid/base labile, releasing an aldehyde.

>  <s_lp_Force_Field>  (341) 
OPLS3e

>  <r_lp_Energy>  (341) 
271.091

>  <b_lp_Chiralities_Consistent>  (341) 
1

>  <s_lp_Variant>  (341) 
105:0-3

>  <s_i_glide_gridfile>  (341) 
pfpi4k_grid

>  <i_i_glide_lignum>  (341) 
27

>  <i_i_glide_rotatable_bonds>  (341) 
10

>  <r_i_docking_score>  (341) 
-2.81094

>  <r_i_glide_ligand_efficiency>  (341) 
-0.0803126

>  <r_i_glide_ligand_efficiency_sa>  (341) 
-0.262708

>  <r_i_glide_ligand_efficiency_ln>  (341) 
-0.617064

>  <r_i_glide_gscore>  (341) 
-2.81094

>  <r_i_glide_lipo>  (341) 
-0.115031

>  <r_i_glide_hbond>  (341) 
-0.300989

>  <r_i_glide_metal>  (341) 
-0

>  <r_i_glide_rewards>  (341) 
-0.510383

>  <r_i_glide_evdw>  (341) 
-25.423

>  <r_i_glide_ecoul>  (341) 
-5.64925

>  <r_i_glide_erotb>  (341) 
0.328498

>  <r_i_glide_esite>  (341) 
-0.0944988

>  <r_i_glide_emodel>  (341) 
-36.7968

>  <r_i_glide_energy>  (341) 
-31.0722

>  <r_i_glide_einternal>  (341) 
11.3306

>  <r_i_glide_intrahb_reward>  (341) 
-0.5

>  <i_i_glide_confnum>  (341) 
2

>  <i_i_glide_posenum>  (341) 
26

>  <r_i_glide_eff_state_penalty>  (341) 
0

>  <ligand_id>  (341) 
105

>  <original_smiles>  (341) 
CC(=O)OC1CC2C(OC(C)=O)OC(O)C34C(=C1C)C(OC(C)=O)C3OC(CC4O)C2OC(C)=O

>  <smiles>  (341) 
[H]OC1([H])OC([H])(OC(=O)C([H])([H])[H])C2([H])C([H])([H])C([H])(OC(=O)C([H])([H])[H])C(C([H])([H])[H])=C3C([H])(OC(=O)C([H])([H])[H])C4([H])OC([H])(C([H])([H])C([H])(O[H])C314)C2([H])OC(=O)C([H])([H])[H]

$$$$
105:3:0
     RDKit          3D

 65 68  0  0  1  0  0  0  0  0999 V2000
    0.8854   -3.4351   -1.8676 C   0  0  0  0  0  0  0  0  0  0  0  0
    2.3711   -3.4148   -1.5588 C   0  0  0  0  0  0  0  0  0  0  0  0
    3.1893   -3.0362   -2.3770 O   0  0  0  0  0  0  0  0  0  0  0  0
    2.5820   -3.8976   -0.3500 O   0  0  0  0  0  0  0  0  0  0  0  0
    3.7188   -3.5188    0.3431 C   0  0  2  0  0  0  0  0  0  0  0  0
    4.5196   -4.8303    0.8035 C   0  0  0  0  0  0  0  0  0  0  0  0
    5.6978   -4.5811    1.7834 C   0  0  2  0  0  0  0  0  0  0  0  0
    6.5838   -3.4126    1.4489 C   0  0  1  0  0  0  0  0  0  0  0  0
    6.9280   -3.5560    0.1207 O   0  0  0  0  0  0  0  0  0  0  0  0
    7.5551   -2.5391   -0.4642 C   0  0  0  0  0  0  0  0  0  0  0  0
    8.5026   -1.6839    0.4166 C   0  0  0  0  0  0  0  0  0  0  0  0
    7.4152   -2.2823   -1.6726 O   0  0  0  0  0  0  0  0  0  0  0  0
    5.8715   -2.2300    1.6974 O   0  0  0  0  0  0  0  0  0  0  0  0
    5.5360   -1.9464    3.0286 C   0  0  1  0  0  0  0  0  0  0  0  0
    5.6698   -0.5505    3.2371 O   0  0  0  0  0  0  0  0  0  0  0  0
    4.2318   -2.4973    3.7056 C   0  0  1  0  0  0  0  0  0  0  0  0
    3.0230   -2.4031    2.6526 C   0  0  0  0  0  0  0  0  0  0  0  0
    3.3023   -2.3351    1.2961 C   0  0  0  0  0  0  0  0  0  0  0  0
    3.6125   -0.9755    0.6790 C   0  0  0  0  0  0  0  0  0  0  0  0
    2.2086   -3.5374    3.2058 C   0  0  1  0  0  0  0  0  0  0  0  0
    1.8128   -4.5881    2.3475 O   0  0  0  0  0  0  0  0  0  0  0  0
    1.1385   -5.6605    2.8192 C   0  0  0  0  0  0  0  0  0  0  0  0
    1.2648   -5.9647    4.3144 C   0  0  0  0  0  0  0  0  0  0  0  0
    0.4271   -6.3438    2.0822 O   0  0  0  0  0  0  0  0  0  0  0  0
    3.4397   -3.8755    3.9327 C   0  0  1  0  0  0  0  0  0  0  0  0
    3.9972   -5.1622    3.8624 O   0  0  0  0  0  0  0  0  0  0  0  0
    5.3151   -5.1888    4.3528 C   0  0  2  0  0  0  0  0  0  0  0  0
    5.5964   -3.9777    5.3720 C   0  0  0  0  0  0  0  0  0  0  0  0
    4.6728   -2.6531    5.2441 C   0  0  1  0  0  0  0  0  0  0  0  0
    5.3736   -1.5700    5.8294 O   0  0  0  0  0  0  0  0  0  0  0  0
    6.1558   -5.4171    3.0295 C   0  0  1  0  0  0  0  0  0  0  0  0
    6.1137   -6.8011    2.6782 O   0  0  0  0  0  0  0  0  0  0  0  0
    6.9678   -7.3829    1.7832 C   0  0  0  0  0  0  0  0  0  0  0  0
    8.0196   -6.4567    1.1722 C   0  0  0  0  0  0  0  0  0  0  0  0
    6.8945   -8.5637    1.4442 O   0  0  0  0  0  0  0  0  0  0  0  0
    0.2769   -2.9022   -1.2324 H   0  0  0  0  0  0  0  0  0  0  0  0
    0.5015   -4.4655   -1.7998 H   0  0  0  0  0  0  0  0  0  0  0  0
    0.7594   -3.0668   -2.9366 H   0  0  0  0  0  0  0  0  0  0  0  0
    4.4239   -3.0630   -0.3702 H   0  0  0  0  0  0  0  0  0  0  0  0
    3.8315   -5.5471    1.2422 H   0  0  0  0  0  0  0  0  0  0  0  0
    4.9051   -5.3367   -0.0823 H   0  0  0  0  0  0  0  0  0  0  0  0
    4.9745   -4.0786    2.2670 H   0  0  0  0  0  0  0  0  0  0  0  0
    7.5078   -3.4726    2.0152 H   0  0  0  0  0  0  0  0  0  0  0  0
    9.3290   -2.2873    0.7948 H   0  0  0  0  0  0  0  0  0  0  0  0
    7.9857   -1.2260    1.2502 H   0  0  0  0  0  0  0  0  0  0  0  0
    8.9612   -0.8439   -0.0984 H   0  0  0  0  0  0  0  0  0  0  0  0
    6.2145   -2.4663    3.6093 H   0  0  0  0  0  0  0  0  0  0  0  0
    4.9281   -0.1153    2.8375 H   0  0  0  0  0  0  0  0  0  0  0  0
    2.8496   -0.7662   -0.0664 H   0  0  0  0  0  0  0  0  0  0  0  0
    4.5764   -0.9458    0.1569 H   0  0  0  0  0  0  0  0  0  0  0  0
    3.5999   -0.1738    1.4193 H   0  0  0  0  0  0  0  0  0  0  0  0
    1.4041   -3.1826    3.8421 H   0  0  0  0  0  0  0  0  0  0  0  0
    2.2862   -6.2754    4.5433 H   0  0  0  0  0  0  0  0  0  0  0  0
    0.6303   -6.7830    4.6406 H   0  0  0  0  0  0  0  0  0  0  0  0
    1.0305   -5.0870    4.9175 H   0  0  0  0  0  0  0  0  0  0  0  0
    2.9354   -4.0190    4.8886 H   0  0  0  0  0  0  0  0  0  0  0  0
    5.4160   -6.0988    4.9454 H   0  0  0  0  0  0  0  0  0  0  0  0
    5.5245   -4.3550    6.3932 H   0  0  0  0  0  0  0  0  0  0  0  0
    6.6543   -3.7206    5.2932 H   0  0  0  0  0  0  0  0  0  0  0  0
    3.8661   -2.6847    5.9767 H   0  0  0  0  0  0  0  0  0  0  0  0
    4.8017   -0.8152    5.8309 H   0  0  0  0  0  0  0  0  0  0  0  0
    7.1902   -5.2024    3.2891 H   0  0  0  0  0  0  0  0  0  0  0  0
    7.5034   -5.7003    0.5929 H   0  0  0  0  0  0  0  0  0  0  0  0
    8.6721   -6.9691    0.4707 H   0  0  0  0  0  0  0  0  0  0  0  0
    8.6283   -5.9803    1.9437 H   0  0  0  0  0  0  0  0  0  0  0  0
  1  2  1  0
  1 36  1  0
  1 37  1  0
  1 38  1  0
  2  3  2  0
  2  4  1  0
  4  5  1  0
  5 18  1  0
  5  6  1  0
  5 39  1  6
  6  7  1  0
  6 40  1  0
  6 41  1  0
  7 31  1  0
  7  8  1  0
  7 42  1  1
  8  9  1  0
  8 13  1  0
  8 43  1  1
  9 10  1  0
 10 11  1  0
 10 12  2  0
 11 44  1  0
 11 45  1  0
 11 46  1  0
 13 14  1  0
 14 15  1  0
 14 16  1  0
 14 47  1  1
 15 48  1  0
 16 25  1  0
 16 29  1  0
 16 17  1  1
 17 18  2  3
 17 20  1  0
 18 19  1  0
 19 49  1  0
 19 50  1  0
 19 51  1  0
 20 21  1  0
 20 25  1  0
 20 52  1  1
 21 22  1  0
 22 23  1  0
 22 24  2  0
 23 53  1  0
 23 54  1  0
 23 55  1  0
 25 26  1  0
 25 56  1  1
 26 27  1  0
 27 28  1  0
 27 31  1  0
 27 57  1  1
 28 29  1  0
 28 58  1  0
 28 59  1  0
 29 30  1  0
 29 60  1  1
 30 61  1  0
 31 32  1  0
 31 62  1  1
 32 33  1  0
 33 34  1  0
 33 35  2  0
 34 63  1  0
 34 64  1  0
 34 65  1  0
M  END
>  <i_m_ct_stereo_status>  (342) 
1

>  <s_m_source_file>  (342) 
/var/tmp/pbs.5076255.sched01/tmpalt_vnqi/12934k3la1h.sdf

>  <i_m_source_file_index>  (342) 
28

>  <i_lp_mmshare_version>  (342) 
48012

>  <i_f3d_flags>  (342) 
0

>  <s_epik_input>  (342) 
W0NIM11DKD1PKU9bQ0BASF0oL0MoPUMxXFtDQF0yMzQpW0NIM10pW0NIMl1bQ0BIXShbQ0BASF0oT0MoPU8pW0NIM10pT1tDQEhdMltPSF0pW0NASF0oT0MoPU8pW0NIM10pW0NAQEhdKFtDSDJdW0NASF00W09IXSlPW0NASF0zW0NAQEhdMU9DKD1PKVtDSDNd

>  <s_epik_cmdline>  (342) 
J2VwaWtfcHl0aG9uJywgJy1waHQnLCAnMi4wJywgJy1waCcsICc3LjAnLCAnLXRuJywgJzgnLCAnLW1hJywgJzIwMCcsICctaW1hZScsICc8aW5maWxlLm1hZT4nLCAnLW9tYWUnLCAnPG91dGZpbGUubWFlPic=

>  <r_lp_tautomer_probability>  (342) 
1

>  <r_epik_Ionization_Penalty>  (342) 
2.1139e-05

>  <r_epik_Ionization_Penalty_Charging>  (342) 
0

>  <r_epik_Ionization_Penalty_Neutral>  (342) 
2.1139e-05

>  <r_epik_State_Penalty>  (342) 
-0

>  <r_epik_Charging_Adjusted_Penalty>  (342) 
0

>  <i_epik_Tot_Q>  (342) 
0

>  <i_epik_Tot_abs_Q>  (342) 
0

>  <s_epik_Chemistry_Notes>  (342) 
This compound has an ester and may undergo hydrolysis at high or low pH. This compound contains an acetal/aminal-like group ( X-CH(R)-Y where X, Y are N, S, or O) that may be acid/base labile, releasing an aldehyde.

>  <s_lp_Force_Field>  (342) 
OPLS3e

>  <r_lp_Energy>  (342) 
211.708

>  <b_lp_Chiralities_Consistent>  (342) 
1

>  <s_lp_Variant>  (342) 
105:0-4

>  <s_i_glide_gridfile>  (342) 
pfpi4k_grid

>  <i_i_glide_lignum>  (342) 
28

>  <i_i_glide_rotatable_bonds>  (342) 
10

>  <r_i_docking_score>  (342) 
-1.09854

>  <r_i_glide_ligand_efficiency>  (342) 
-0.0313869

>  <r_i_glide_ligand_efficiency_sa>  (342) 
-0.102669

>  <r_i_glide_ligand_efficiency_ln>  (342) 
-0.241154

>  <r_i_glide_gscore>  (342) 
-1.09854

>  <r_i_glide_lipo>  (342) 
-0.132852

>  <r_i_glide_hbond>  (342) 
-0.300338

>  <r_i_glide_metal>  (342) 
-0

>  <r_i_glide_rewards>  (342) 
-0.432217

>  <r_i_glide_evdw>  (342) 
-6.94274

>  <r_i_glide_ecoul>  (342) 
-4.257

>  <r_i_glide_erotb>  (342) 
0.328498

>  <r_i_glide_esite>  (342) 
-0.0647316

>  <r_i_glide_emodel>  (342) 
4.29788

>  <r_i_glide_energy>  (342) 
-11.1997

>  <r_i_glide_einternal>  (342) 
25.1254

>  <r_i_glide_intrahb_reward>  (342) 
-0

>  <i_i_glide_confnum>  (342) 
4

>  <i_i_glide_posenum>  (342) 
27

>  <r_i_glide_eff_state_penalty>  (342) 
0

>  <ligand_id>  (342) 
105

>  <original_smiles>  (342) 
CC(=O)OC1CC2C(OC(C)=O)OC(O)C34C(=C1C)C(OC(C)=O)C3OC(CC4O)C2OC(C)=O

>  <smiles>  (342) 
[H]OC1([H])OC([H])(OC(=O)C([H])([H])[H])C2([H])C([H])([H])C([H])(OC(=O)C([H])([H])[H])C(C([H])([H])[H])=C3C([H])(OC(=O)C([H])([H])[H])C4([H])OC([H])(C([H])([H])C([H])(O[H])C314)C2([H])OC(=O)C([H])([H])[H]

$$$$
106:0:0
     RDKit          3D

 72 77  0  0  1  0  0  0  0  0999 V2000
    5.3261   -0.8095    1.0046 C   0  0  0  0  0  0  0  0  0  0  0  0
    4.7983   -1.1218    2.1962 C   0  0  0  0  0  0  0  0  0  0  0  0
    5.0965   -2.3628    3.0009 C   0  0  0  0  0  0  0  0  0  0  0  0
    4.3450   -2.2012    4.3626 C   0  0  1  0  0  0  0  0  0  0  0  0
    4.2994   -0.6518    4.4417 C   0  0  0  0  0  0  0  0  0  0  0  0
    3.9109   -0.2394    3.0271 C   0  0  2  0  0  0  0  0  0  0  0  0
    2.4370   -0.5881    2.8141 C   0  0  0  0  0  0  0  0  0  0  0  0
    2.1238   -2.0733    3.0963 C   0  0  0  0  0  0  0  0  0  0  0  0
    2.8500   -2.7155    4.3319 C   0  0  1  0  0  0  0  0  0  0  0  0
    2.4887   -4.2667    4.6105 C   0  0  1  0  0  0  0  0  0  0  0  0
    0.9443   -4.3817    4.4225 C   0  0  0  0  0  0  0  0  0  0  0  0
    0.3165   -5.7684    4.5962 C   0  0  0  0  0  0  0  0  0  0  0  0
    1.0785   -6.9714    3.9810 C   0  0  1  0  0  0  0  0  0  0  0  0
    0.0350   -8.0260    3.4068 C   0  0  0  0  0  0  0  0  0  0  0  0
    0.6325   -9.4474    3.2080 C   0  0  0  0  0  0  0  0  0  0  0  0
   -1.1512   -8.2456    4.3845 C   0  0  0  0  0  0  0  0  0  0  0  0
   -0.5497   -7.4942    2.0735 C   0  0  0  0  0  0  0  0  0  0  0  0
    0.5097   -7.0297    1.0655 C   0  0  0  0  0  0  0  0  0  0  0  0
    1.5366   -6.0400    1.6551 C   0  0  0  0  0  0  0  0  0  0  0  0
    2.2122   -6.4998    2.9850 C   0  0  2  0  0  0  0  0  0  0  0  0
    3.0990   -7.7082    2.5472 C   0  0  0  0  0  0  0  0  0  0  0  0
    3.1576   -5.3318    3.6077 C   0  0  2  0  0  0  0  0  0  0  0  0
    4.5224   -5.9281    4.1210 C   0  0  0  0  0  0  0  0  0  0  0  0
    5.6450   -5.0435    4.6809 C   0  0  0  0  0  0  0  0  0  0  0  0
    5.2816   -4.1628    5.8749 C   0  0  1  0  0  0  0  0  0  0  0  0
    5.1617   -2.6597    5.5923 C   0  0  0  0  0  0  0  0  0  0  0  0
    4.1256   -4.7291    6.6708 C   0  0  0  0  0  0  0  0  0  0  0  0
    4.3043   -5.3269    7.8622 C   0  0  0  0  0  0  0  0  0  0  0  0
    2.7543   -4.5620    6.1345 C   0  0  0  0  0  0  0  0  0  0  0  0
    1.8022   -4.5897    6.9217 O   0  0  0  0  0  0  0  0  0  0  0  0
    5.0873    0.1275    0.5193 H   0  0  0  0  0  0  0  0  0  0  0  0
    6.0011   -1.4882    0.5056 H   0  0  0  0  0  0  0  0  0  0  0  0
    4.8429   -3.2488    2.4316 H   0  0  0  0  0  0  0  0  0  0  0  0
    6.1745   -2.3655    3.1357 H   0  0  0  0  0  0  0  0  0  0  0  0
    3.6146   -0.2654    5.1995 H   0  0  0  0  0  0  0  0  0  0  0  0
    5.2870   -0.2404    4.6660 H   0  0  0  0  0  0  0  0  0  0  0  0
    4.1011    0.8172    2.8345 H   0  0  0  0  0  0  0  0  0  0  0  0
    1.8329    0.0416    3.4666 H   0  0  0  0  0  0  0  0  0  0  0  0
    2.1395   -0.3452    1.7933 H   0  0  0  0  0  0  0  0  0  0  0  0
    1.0465   -2.0750    3.2371 H   0  0  0  0  0  0  0  0  0  0  0  0
    2.3273   -2.6679    2.2057 H   0  0  0  0  0  0  0  0  0  0  0  0
    2.3951   -2.1997    5.1815 H   0  0  0  0  0  0  0  0  0  0  0  0
    0.4257   -3.6838    5.0831 H   0  0  0  0  0  0  0  0  0  0  0  0
    0.6438   -4.0554    3.4384 H   0  0  0  0  0  0  0  0  0  0  0  0
    0.1015   -5.9694    5.6457 H   0  0  0  0  0  0  0  0  0  0  0  0
   -0.6585   -5.6612    4.1375 H   0  0  0  0  0  0  0  0  0  0  0  0
    1.5866   -7.4442    4.8235 H   0  0  0  0  0  0  0  0  0  0  0  0
   -0.0699  -10.2420    3.4657 H   0  0  0  0  0  0  0  0  0  0  0  0
    1.5151   -9.6083    3.8290 H   0  0  0  0  0  0  0  0  0  0  0  0
    0.8959   -9.6484    2.1695 H   0  0  0  0  0  0  0  0  0  0  0  0
   -1.8005   -9.0548    4.0463 H   0  0  0  0  0  0  0  0  0  0  0  0
   -1.8125   -7.3866    4.4772 H   0  0  0  0  0  0  0  0  0  0  0  0
   -0.7959   -8.5098    5.3809 H   0  0  0  0  0  0  0  0  0  0  0  0
   -1.1693   -8.2638    1.6130 H   0  0  0  0  0  0  0  0  0  0  0  0
   -1.2271   -6.6651    2.2594 H   0  0  0  0  0  0  0  0  0  0  0  0
    1.0122   -7.8906    0.6389 H   0  0  0  0  0  0  0  0  0  0  0  0
    0.0076   -6.5738    0.2132 H   0  0  0  0  0  0  0  0  0  0  0  0
    2.3034   -5.8498    0.9041 H   0  0  0  0  0  0  0  0  0  0  0  0
    1.0398   -5.0914    1.7761 H   0  0  0  0  0  0  0  0  0  0  0  0
    3.9114   -7.3952    1.8916 H   0  0  0  0  0  0  0  0  0  0  0  0
    2.5892   -8.4462    1.9453 H   0  0  0  0  0  0  0  0  0  0  0  0
    3.5093   -8.2511    3.4003 H   0  0  0  0  0  0  0  0  0  0  0  0
    3.4296   -4.7503    2.7324 H   0  0  0  0  0  0  0  0  0  0  0  0
    4.3199   -6.7218    4.8420 H   0  0  0  0  0  0  0  0  0  0  0  0
    5.0445   -6.4003    3.2933 H   0  0  0  0  0  0  0  0  0  0  0  0
    6.4160   -5.7334    5.0260 H   0  0  0  0  0  0  0  0  0  0  0  0
    6.1486   -4.4919    3.8951 H   0  0  0  0  0  0  0  0  0  0  0  0
    6.1427   -4.2260    6.5443 H   0  0  0  0  0  0  0  0  0  0  0  0
    6.1785   -2.2766    5.4994 H   0  0  0  0  0  0  0  0  0  0  0  0
    4.7791   -2.1689    6.4912 H   0  0  0  0  0  0  0  0  0  0  0  0
    5.2903   -5.4446    8.2879 H   0  0  0  0  0  0  0  0  0  0  0  0
    3.4804   -5.7158    8.4425 H   0  0  0  0  0  0  0  0  0  0  0  0
  1  2  2  0
  1 31  1  0
  1 32  1  0
  2  6  1  0
  2  3  1  0
  4  3  1  6
  3 33  1  0
  3 34  1  0
  4  9  1  0
  4 26  1  0
  4  5  1  0
  5  6  1  0
  5 35  1  0
  5 36  1  0
  6  7  1  0
  6 37  1  1
  7  8  1  0
  7 38  1  0
  7 39  1  0
  8  9  1  0
  8 40  1  0
  8 41  1  0
  9 10  1  0
  9 42  1  1
 10 22  1  0
 10 29  1  0
 10 11  1  1
 11 12  1  0
 11 43  1  0
 11 44  1  0
 12 13  1  0
 12 45  1  0
 12 46  1  0
 13 20  1  0
 13 14  1  0
 13 47  1  1
 14 15  1  0
 14 16  1  0
 14 17  1  0
 15 48  1  0
 15 49  1  0
 15 50  1  0
 16 51  1  0
 16 52  1  0
 16 53  1  0
 17 18  1  0
 17 54  1  0
 17 55  1  0
 18 19  1  0
 18 56  1  0
 18 57  1  0
 19 20  1  0
 19 58  1  0
 19 59  1  0
 20 21  1  6
 20 22  1  0
 21 60  1  0
 21 61  1  0
 21 62  1  0
 22 23  1  0
 22 63  1  6
 23 24  1  0
 23 64  1  0
 23 65  1  0
 24 25  1  0
 24 66  1  0
 24 67  1  0
 25 26  1  0
 25 27  1  0
 25 68  1  1
 26 69  1  0
 26 70  1  0
 27 28  2  0
 27 29  1  0
 28 71  1  0
 28 72  1  0
 29 30  2  0
M  END
>  <i_m_ct_stereo_status>  (343) 
1

>  <s_m_source_file>  (343) 
/var/tmp/pbs.5076255.sched01/tmpalt_vnqi/12934k3la1h.sdf

>  <i_m_source_file_index>  (343) 
29

>  <i_lp_mmshare_version>  (343) 
48012

>  <i_f3d_flags>  (343) 
0

>  <s_epik_input>  (343) 
W0NIMl09QyhbQ0gyXTEpW0NASF0oW0NIMl0yKVtDSDJdW0NIMl1bQ0BIXShbQ0BAXTEyMylbQ0BdNDVbQ0BASF0oW0NIMl1bQ0gyXVtDQEBIXShbQ0gyXTMpQyg9W0NIMl0pQzU9TylbQ0BAXTYoW0NIM10pW0NAQEhdKFtDSDJdW0NIMl00KUMoW0NIM10pKFtDSDNdKVtDSDJdW0NIMl1bQ0gyXTY=

>  <s_epik_cmdline>  (343) 
J2VwaWtfcHl0aG9uJywgJy1waHQnLCAnMi4wJywgJy1waCcsICc3LjAnLCAnLXRuJywgJzgnLCAnLW1hJywgJzIwMCcsICctaW1hZScsICc8aW5maWxlLm1hZT4nLCAnLW9tYWUnLCAnPG91dGZpbGUubWFlPic=

>  <r_lp_tautomer_probability>  (343) 
1

>  <r_epik_Ionization_Penalty>  (343) 
0

>  <r_epik_Ionization_Penalty_Charging>  (343) 
0

>  <r_epik_Ionization_Penalty_Neutral>  (343) 
0

>  <r_epik_State_Penalty>  (343) 
-0

>  <r_epik_Charging_Adjusted_Penalty>  (343) 
0

>  <i_epik_Tot_Q>  (343) 
0

>  <i_epik_Tot_abs_Q>  (343) 
0

>  <s_lp_Force_Field>  (343) 
OPLS3e

>  <r_lp_Energy>  (343) 
118.119

>  <b_lp_Chiralities_Consistent>  (343) 
1

>  <s_lp_Variant>  (343) 
106:0-1

>  <s_i_glide_gridfile>  (343) 
pfpi4k_grid

>  <i_i_glide_lignum>  (343) 
29

>  <i_i_glide_rotatable_bonds>  (343) 
0

>  <r_i_docking_score>  (343) 
-2.31576

>  <r_i_glide_ligand_efficiency>  (343) 
-0.0771921

>  <r_i_glide_ligand_efficiency_sa>  (343) 
-0.239854

>  <r_i_glide_ligand_efficiency_ln>  (343) 
-0.526166

>  <r_i_glide_gscore>  (343) 
-2.31576

>  <r_i_glide_lipo>  (343) 
-0.346681

>  <r_i_glide_hbond>  (343) 
0

>  <r_i_glide_metal>  (343) 
-0

>  <r_i_glide_rewards>  (343) 
-0.636524

>  <r_i_glide_evdw>  (343) 
-25.5466

>  <r_i_glide_ecoul>  (343) 
-0.36817

>  <r_i_glide_erotb>  (343) 
0

>  <r_i_glide_esite>  (343) 
0

>  <r_i_glide_emodel>  (343) 
-29.7974

>  <r_i_glide_energy>  (343) 
-25.9148

>  <r_i_glide_einternal>  (343) 
0

>  <r_i_glide_intrahb_reward>  (343) 
-0

>  <i_i_glide_confnum>  (343) 
1

>  <i_i_glide_posenum>  (343) 
9

>  <r_i_glide_eff_state_penalty>  (343) 
0

>  <ligand_id>  (343) 
106

>  <original_smiles>  (343) 
C=C1CC23CC1CCC2C12CCC4C(C)(C)CCCC4(C)C1CCC(C3)C(=C)C2=O

>  <smiles>  (343) 
[H]C([H])=C1C([H])([H])C23C([H])([H])C1([H])C([H])([H])C([H])([H])C2([H])C12C(=O)C(=C([H])[H])C([H])(C([H])([H])C([H])([H])C1([H])C1(C([H])([H])[H])C([H])([H])C([H])([H])C([H])([H])C(C([H])([H])[H])(C([H])([H])[H])C1([H])C([H])([H])C2([H])[H])C3([H])[H]

$$$$
106:0:1
     RDKit          3D

 72 77  0  0  1  0  0  0  0  0999 V2000
    0.0750    5.6373    3.6864 C   0  0  0  0  0  0  0  0  0  0  0  0
   -0.3310    4.4948    4.2581 C   0  0  0  0  0  0  0  0  0  0  0  0
    0.4819    3.6360    5.1958 C   0  0  0  0  0  0  0  0  0  0  0  0
   -0.4648    2.4863    5.6737 C   0  0  1  0  0  0  0  0  0  0  0  0
   -1.8299    3.2080    5.5300 C   0  0  0  0  0  0  0  0  0  0  0  0
   -1.7124    3.9031    4.1807 C   0  0  2  0  0  0  0  0  0  0  0  0
   -1.8055    2.8450    3.0868 C   0  0  0  0  0  0  0  0  0  0  0  0
   -0.7618    1.7229    3.2454 C   0  0  0  0  0  0  0  0  0  0  0  0
   -0.4948    1.2299    4.7118 C   0  0  1  0  0  0  0  0  0  0  0  0
    0.5912    0.0416    4.8480 C   0  0  1  0  0  0  0  0  0  0  0  0
    0.2738   -0.9551    3.6952 C   0  0  0  0  0  0  0  0  0  0  0  0
    1.1703   -2.1874    3.5518 C   0  0  0  0  0  0  0  0  0  0  0  0
    2.6944   -1.9692    3.7366 C   0  0  1  0  0  0  0  0  0  0  0  0
    3.4943   -2.9136    2.7370 C   0  0  0  0  0  0  0  0  0  0  0  0
    4.9776   -3.1353    3.1462 C   0  0  0  0  0  0  0  0  0  0  0  0
    2.8926   -4.3490    2.6994 C   0  0  0  0  0  0  0  0  0  0  0  0
    3.4131   -2.3230    1.3018 C   0  0  0  0  0  0  0  0  0  0  0  0
    3.7905   -0.8367    1.2103 C   0  0  0  0  0  0  0  0  0  0  0  0
    3.0172    0.0510    2.2099 C   0  0  0  0  0  0  0  0  0  0  0  0
    3.0722   -0.4334    3.6986 C   0  0  2  0  0  0  0  0  0  0  0  0
    4.5675   -0.2278    4.1012 C   0  0  0  0  0  0  0  0  0  0  0  0
    2.1283    0.4747    4.6647 C   0  0  2  0  0  0  0  0  0  0  0  0
    2.8608    0.8173    6.0171 C   0  0  0  0  0  0  0  0  0  0  0  0
    2.2359    1.7339    7.0805 C   0  0  0  0  0  0  0  0  0  0  0  0
    0.8737    1.3087    7.6271 C   0  0  1  0  0  0  0  0  0  0  0  0
   -0.3232    2.1558    7.1751 C   0  0  0  0  0  0  0  0  0  0  0  0
    0.6518   -0.1842    7.5081 C   0  0  0  0  0  0  0  0  0  0  0  0
    0.7229   -1.0041    8.5728 C   0  0  0  0  0  0  0  0  0  0  0  0
    0.2848   -0.7354    6.1835 C   0  0  0  0  0  0  0  0  0  0  0  0
   -0.3579   -1.7914    6.1423 O   0  0  0  0  0  0  0  0  0  0  0  0
   -0.5806    6.2094    3.0432 H   0  0  0  0  0  0  0  0  0  0  0  0
    1.0768    6.0123    3.8381 H   0  0  0  0  0  0  0  0  0  0  0  0
    1.3878    3.3096    4.6982 H   0  0  0  0  0  0  0  0  0  0  0  0
    0.7776    4.2823    6.0206 H   0  0  0  0  0  0  0  0  0  0  0  0
   -2.6947    2.5438    5.5914 H   0  0  0  0  0  0  0  0  0  0  0  0
   -1.9544    3.9668    6.3060 H   0  0  0  0  0  0  0  0  0  0  0  0
   -2.4739    4.6642    4.0332 H   0  0  0  0  0  0  0  0  0  0  0  0
   -2.8089    2.4197    3.0951 H   0  0  0  0  0  0  0  0  0  0  0  0
   -1.6809    3.3141    2.1115 H   0  0  0  0  0  0  0  0  0  0  0  0
   -1.1682    0.9233    2.6320 H   0  0  0  0  0  0  0  0  0  0  0  0
    0.1772    2.0300    2.7839 H   0  0  0  0  0  0  0  0  0  0  0  0
   -1.4352    0.7389    4.9766 H   0  0  0  0  0  0  0  0  0  0  0  0
   -0.7605   -1.2927    3.7684 H   0  0  0  0  0  0  0  0  0  0  0  0
    0.3132   -0.4675    2.7321 H   0  0  0  0  0  0  0  0  0  0  0  0
    0.8308   -2.9913    4.2048 H   0  0  0  0  0  0  0  0  0  0  0  0
    0.9544   -2.5405    2.5476 H   0  0  0  0  0  0  0  0  0  0  0  0
    2.9077   -2.3155    4.7500 H   0  0  0  0  0  0  0  0  0  0  0  0
    5.3231   -4.1526    2.9570 H   0  0  0  0  0  0  0  0  0  0  0  0
    5.1381   -2.9506    4.2096 H   0  0  0  0  0  0  0  0  0  0  0  0
    5.6638   -2.5093    2.5771 H   0  0  0  0  0  0  0  0  0  0  0  0
    3.5160   -5.0290    2.1152 H   0  0  0  0  0  0  0  0  0  0  0  0
    1.9136   -4.3976    2.2256 H   0  0  0  0  0  0  0  0  0  0  0  0
    2.8008   -4.7672    3.7038 H   0  0  0  0  0  0  0  0  0  0  0  0
    4.0471   -2.8990    0.6287 H   0  0  0  0  0  0  0  0  0  0  0  0
    2.4069   -2.4334    0.8997 H   0  0  0  0  0  0  0  0  0  0  0  0
    4.8643   -0.7150    1.3208 H   0  0  0  0  0  0  0  0  0  0  0  0
    3.5809   -0.4889    0.1988 H   0  0  0  0  0  0  0  0  0  0  0  0
    3.4120    1.0643    2.1480 H   0  0  0  0  0  0  0  0  0  0  0  0
    2.0065    0.1394    1.8328 H   0  0  0  0  0  0  0  0  0  0  0  0
    4.8371    0.8277    4.1229 H   0  0  0  0  0  0  0  0  0  0  0  0
    5.2828   -0.6319    3.4008 H   0  0  0  0  0  0  0  0  0  0  0  0
    4.8058   -0.6819    5.0646 H   0  0  0  0  0  0  0  0  0  0  0  0
    2.0852    1.4208    4.1342 H   0  0  0  0  0  0  0  0  0  0  0  0
    3.1696   -0.1095    6.5036 H   0  0  0  0  0  0  0  0  0  0  0  0
    3.7756    1.3634    5.8044 H   0  0  0  0  0  0  0  0  0  0  0  0
    2.9278    1.7140    7.9233 H   0  0  0  0  0  0  0  0  0  0  0  0
    2.2550    2.7762    6.7801 H   0  0  0  0  0  0  0  0  0  0  0  0
    0.9282    1.5015    8.7011 H   0  0  0  0  0  0  0  0  0  0  0  0
   -0.2751    3.0965    7.7280 H   0  0  0  0  0  0  0  0  0  0  0  0
   -1.2392    1.6809    7.5347 H   0  0  0  0  0  0  0  0  0  0  0  0
    0.9635   -0.6238    9.5557 H   0  0  0  0  0  0  0  0  0  0  0  0
    0.5561   -2.0686    8.4964 H   0  0  0  0  0  0  0  0  0  0  0  0
  1  2  2  0
  1 31  1  0
  1 32  1  0
  2  6  1  0
  2  3  1  0
  4  3  1  6
  3 33  1  0
  3 34  1  0
  4  9  1  0
  4 26  1  0
  4  5  1  0
  5  6  1  0
  5 35  1  0
  5 36  1  0
  6  7  1  0
  6 37  1  6
  7  8  1  0
  7 38  1  0
  7 39  1  0
  8  9  1  0
  8 40  1  0
  8 41  1  0
  9 10  1  0
  9 42  1  1
 10 22  1  0
 10 29  1  0
 10 11  1  6
 11 12  1  0
 11 43  1  0
 11 44  1  0
 12 13  1  0
 12 45  1  0
 12 46  1  0
 13 20  1  0
 13 14  1  0
 13 47  1  1
 14 15  1  0
 14 16  1  0
 14 17  1  0
 15 48  1  0
 15 49  1  0
 15 50  1  0
 16 51  1  0
 16 52  1  0
 16 53  1  0
 17 18  1  0
 17 54  1  0
 17 55  1  0
 18 19  1  0
 18 56  1  0
 18 57  1  0
 19 20  1  0
 19 58  1  0
 19 59  1  0
 20 21  1  1
 20 22  1  0
 21 60  1  0
 21 61  1  0
 21 62  1  0
 22 23  1  0
 22 63  1  6
 23 24  1  0
 23 64  1  0
 23 65  1  0
 24 25  1  0
 24 66  1  0
 24 67  1  0
 25 26  1  0
 25 27  1  0
 25 68  1  1
 26 69  1  0
 26 70  1  0
 27 28  2  0
 27 29  1  0
 28 71  1  0
 28 72  1  0
 29 30  2  0
M  END
>  <i_m_ct_stereo_status>  (344) 
1

>  <s_m_source_file>  (344) 
/var/tmp/pbs.5076255.sched01/tmpalt_vnqi/12934k3la1h.sdf

>  <i_m_source_file_index>  (344) 
29

>  <i_lp_mmshare_version>  (344) 
48012

>  <i_f3d_flags>  (344) 
0

>  <s_epik_input>  (344) 
W0NIMl09QyhbQ0gyXTEpW0NASF0oW0NIMl0yKVtDSDJdW0NIMl1bQ0BIXShbQ0BAXTEyMylbQ0BdNDVbQ0BASF0oW0NIMl1bQ0gyXVtDQEBIXShbQ0gyXTMpQyg9W0NIMl0pQzU9TylbQ0BAXTYoW0NIM10pW0NAQEhdKFtDSDJdW0NIMl00KUMoW0NIM10pKFtDSDNdKVtDSDJdW0NIMl1bQ0gyXTY=

>  <s_epik_cmdline>  (344) 
J2VwaWtfcHl0aG9uJywgJy1waHQnLCAnMi4wJywgJy1waCcsICc3LjAnLCAnLXRuJywgJzgnLCAnLW1hJywgJzIwMCcsICctaW1hZScsICc8aW5maWxlLm1hZT4nLCAnLW9tYWUnLCAnPG91dGZpbGUubWFlPic=

>  <r_lp_tautomer_probability>  (344) 
1

>  <r_epik_Ionization_Penalty>  (344) 
0

>  <r_epik_Ionization_Penalty_Charging>  (344) 
0

>  <r_epik_Ionization_Penalty_Neutral>  (344) 
0

>  <r_epik_State_Penalty>  (344) 
-0

>  <r_epik_Charging_Adjusted_Penalty>  (344) 
0

>  <i_epik_Tot_Q>  (344) 
0

>  <i_epik_Tot_abs_Q>  (344) 
0

>  <s_lp_Force_Field>  (344) 
OPLS3e

>  <r_lp_Energy>  (344) 
118.119

>  <b_lp_Chiralities_Consistent>  (344) 
1

>  <s_lp_Variant>  (344) 
106:0-1

>  <s_i_glide_gridfile>  (344) 
pfpi4k_grid

>  <i_i_glide_lignum>  (344) 
29

>  <i_i_glide_rotatable_bonds>  (344) 
0

>  <r_i_docking_score>  (344) 
-2.25909

>  <r_i_glide_ligand_efficiency>  (344) 
-0.0753031

>  <r_i_glide_ligand_efficiency_sa>  (344) 
-0.233984

>  <r_i_glide_ligand_efficiency_ln>  (344) 
-0.51329

>  <r_i_glide_gscore>  (344) 
-2.25909

>  <r_i_glide_lipo>  (344) 
-0.151487

>  <r_i_glide_hbond>  (344) 
0

>  <r_i_glide_metal>  (344) 
-0

>  <r_i_glide_rewards>  (344) 
-0.636524

>  <r_i_glide_evdw>  (344) 
-26.3934

>  <r_i_glide_ecoul>  (344) 
-0.882852

>  <r_i_glide_erotb>  (344) 
0

>  <r_i_glide_esite>  (344) 
-0.0189859

>  <r_i_glide_emodel>  (344) 
-31.0703

>  <r_i_glide_energy>  (344) 
-27.2762

>  <r_i_glide_einternal>  (344) 
0

>  <r_i_glide_intrahb_reward>  (344) 
-0

>  <i_i_glide_confnum>  (344) 
1

>  <i_i_glide_posenum>  (344) 
14

>  <r_i_glide_eff_state_penalty>  (344) 
0

>  <ligand_id>  (344) 
106

>  <original_smiles>  (344) 
C=C1CC23CC1CCC2C12CCC4C(C)(C)CCCC4(C)C1CCC(C3)C(=C)C2=O

>  <smiles>  (344) 
[H]C([H])=C1C([H])([H])C23C([H])([H])C1([H])C([H])([H])C([H])([H])C2([H])C12C(=O)C(=C([H])[H])C([H])(C([H])([H])C([H])([H])C1([H])C1(C([H])([H])[H])C([H])([H])C([H])([H])C([H])([H])C(C([H])([H])[H])(C([H])([H])[H])C1([H])C([H])([H])C2([H])[H])C3([H])[H]

$$$$
106:0:2
     RDKit          3D

 72 77  0  0  1  0  0  0  0  0999 V2000
    7.5248   -5.2153    7.1172 C   0  0  0  0  0  0  0  0  0  0  0  0
    6.2766   -5.2296    7.6025 C   0  0  0  0  0  0  0  0  0  0  0  0
    5.4422   -6.4591    7.8727 C   0  0  0  0  0  0  0  0  0  0  0  0
    4.1204   -5.9571    8.5397 C   0  0  1  0  0  0  0  0  0  0  0  0
    4.6490   -4.6511    9.1915 C   0  0  0  0  0  0  0  0  0  0  0  0
    5.5096   -4.0346    8.0964 C   0  0  2  0  0  0  0  0  0  0  0  0
    4.5794   -3.4901    7.0108 C   0  0  0  0  0  0  0  0  0  0  0  0
    3.6065   -4.5553    6.4596 C   0  0  0  0  0  0  0  0  0  0  0  0
    2.9904   -5.5462    7.5107 C   0  0  1  0  0  0  0  0  0  0  0  0
    1.9609   -6.6356    6.9030 C   0  0  1  0  0  0  0  0  0  0  0  0
    1.0645   -5.8546    5.8900 C   0  0  0  0  0  0  0  0  0  0  0  0
    0.0063   -6.6471    5.1177 C   0  0  0  0  0  0  0  0  0  0  0  0
    0.4223   -8.0495    4.5956 C   0  0  1  0  0  0  0  0  0  0  0  0
   -0.2696   -8.3217    3.1912 C   0  0  0  0  0  0  0  0  0  0  0  0
   -0.3088   -9.8263    2.8071 C   0  0  0  0  0  0  0  0  0  0  0  0
   -1.7639   -7.8906    3.1990 C   0  0  0  0  0  0  0  0  0  0  0  0
    0.4604   -7.5022    2.0920 C   0  0  0  0  0  0  0  0  0  0  0  0
    1.9866   -7.6782    2.0895 C   0  0  0  0  0  0  0  0  0  0  0  0
    2.6301   -7.4400    3.4748 C   0  0  0  0  0  0  0  0  0  0  0  0
    1.9899   -8.2546    4.6491 C   0  0  2  0  0  0  0  0  0  0  0  0
    2.3659   -9.7364    4.3203 C   0  0  0  0  0  0  0  0  0  0  0  0
    2.6324   -7.8484    6.0882 C   0  0  2  0  0  0  0  0  0  0  0  0
    2.9244   -9.1278    6.9632 C   0  0  0  0  0  0  0  0  0  0  0  0
    3.6126   -9.0469    8.3348 C   0  0  0  0  0  0  0  0  0  0  0  0
    2.9336   -8.1663    9.3821 C   0  0  1  0  0  0  0  0  0  0  0  0
    3.6433   -6.8458    9.7092 C   0  0  0  0  0  0  0  0  0  0  0  0
    1.4476   -8.0212    9.1296 C   0  0  0  0  0  0  0  0  0  0  0  0
    0.5328   -8.6675    9.8752 C   0  0  0  0  0  0  0  0  0  0  0  0
    1.0000   -7.0953    8.0643 C   0  0  0  0  0  0  0  0  0  0  0  0
   -0.1380   -6.6170    8.1370 O   0  0  0  0  0  0  0  0  0  0  0  0
    8.0650   -4.2858    7.0026 H   0  0  0  0  0  0  0  0  0  0  0  0
    8.0225   -6.1313    6.8335 H   0  0  0  0  0  0  0  0  0  0  0  0
    5.3096   -7.0250    6.9582 H   0  0  0  0  0  0  0  0  0  0  0  0
    6.0244   -7.0753    8.5563 H   0  0  0  0  0  0  0  0  0  0  0  0
    3.8626   -3.9802    9.5440 H   0  0  0  0  0  0  0  0  0  0  0  0
    5.2860   -4.8716   10.0515 H   0  0  0  0  0  0  0  0  0  0  0  0
    6.1784   -3.2598    8.4751 H   0  0  0  0  0  0  0  0  0  0  0  0
    4.0099   -2.6574    7.4239 H   0  0  0  0  0  0  0  0  0  0  0  0
    5.1662   -3.0795    6.1891 H   0  0  0  0  0  0  0  0  0  0  0  0
    2.8291   -3.9599    5.9894 H   0  0  0  0  0  0  0  0  0  0  0  0
    4.0923   -5.1236    5.6664 H   0  0  0  0  0  0  0  0  0  0  0  0
    2.3399   -4.9000    8.1060 H   0  0  0  0  0  0  0  0  0  0  0  0
    0.5723   -5.0140    6.3832 H   0  0  0  0  0  0  0  0  0  0  0  0
    1.6625   -5.3831    5.1247 H   0  0  0  0  0  0  0  0  0  0  0  0
   -0.9120   -6.7326    5.6943 H   0  0  0  0  0  0  0  0  0  0  0  0
   -0.2589   -5.9849    4.2986 H   0  0  0  0  0  0  0  0  0  0  0  0
   -0.0033   -8.7620    5.3061 H   0  0  0  0  0  0  0  0  0  0  0  0
   -1.2327  -10.1084    2.3001 H   0  0  0  0  0  0  0  0  0  0  0  0
   -0.2266  -10.4765    3.6800 H   0  0  0  0  0  0  0  0  0  0  0  0
    0.4696  -10.0971    2.0944 H   0  0  0  0  0  0  0  0  0  0  0  0
   -2.2738   -8.1928    2.2822 H   0  0  0  0  0  0  0  0  0  0  0  0
   -1.9054   -6.8138    3.2571 H   0  0  0  0  0  0  0  0  0  0  0  0
   -2.2955   -8.3450    4.0365 H   0  0  0  0  0  0  0  0  0  0  0  0
    0.0647   -7.7663    1.1115 H   0  0  0  0  0  0  0  0  0  0  0  0
    0.2494   -6.4412    2.2091 H   0  0  0  0  0  0  0  0  0  0  0  0
    2.2475   -8.6570    1.6951 H   0  0  0  0  0  0  0  0  0  0  0  0
    2.4191   -6.9774    1.3754 H   0  0  0  0  0  0  0  0  0  0  0  0
    3.6902   -7.6816    3.4082 H   0  0  0  0  0  0  0  0  0  0  0  0
    2.6144   -6.3729    3.6523 H   0  0  0  0  0  0  0  0  0  0  0  0
    3.4393   -9.9086    4.3924 H   0  0  0  0  0  0  0  0  0  0  0  0
    2.1593  -10.0427    3.3058 H   0  0  0  0  0  0  0  0  0  0  0  0
    1.8453  -10.4533    4.9584 H   0  0  0  0  0  0  0  0  0  0  0  0
    3.6170   -7.4827    5.8151 H   0  0  0  0  0  0  0  0  0  0  0  0
    2.0063   -9.7078    7.0769 H   0  0  0  0  0  0  0  0  0  0  0  0
    3.6192   -9.7774    6.4382 H   0  0  0  0  0  0  0  0  0  0  0  0
    3.5944  -10.0653    8.7255 H   0  0  0  0  0  0  0  0  0  0  0  0
    4.6748   -8.8428    8.2480 H   0  0  0  0  0  0  0  0  0  0  0  0
    3.0073   -8.7300   10.3147 H   0  0  0  0  0  0  0  0  0  0  0  0
    4.5100   -7.0919   10.3263 H   0  0  0  0  0  0  0  0  0  0  0  0
    2.9989   -6.2638   10.3727 H   0  0  0  0  0  0  0  0  0  0  0  0
    0.8316   -9.3332   10.6716 H   0  0  0  0  0  0  0  0  0  0  0  0
   -0.5281   -8.5644    9.7068 H   0  0  0  0  0  0  0  0  0  0  0  0
  1  2  2  0
  1 31  1  0
  1 32  1  0
  2  6  1  0
  2  3  1  0
  4  3  1  6
  3 33  1  0
  3 34  1  0
  4  9  1  0
  4 26  1  0
  4  5  1  0
  5  6  1  0
  5 35  1  0
  5 36  1  0
  6  7  1  0
  6 37  1  1
  7  8  1  0
  7 38  1  0
  7 39  1  0
  8  9  1  0
  8 40  1  0
  8 41  1  0
  9 10  1  0
  9 42  1  1
 10 22  1  0
 10 29  1  0
 10 11  1  6
 11 12  1  0
 11 43  1  0
 11 44  1  0
 12 13  1  0
 12 45  1  0
 12 46  1  0
 13 20  1  0
 13 14  1  0
 13 47  1  1
 14 15  1  0
 14 16  1  0
 14 17  1  0
 15 48  1  0
 15 49  1  0
 15 50  1  0
 16 51  1  0
 16 52  1  0
 16 53  1  0
 17 18  1  0
 17 54  1  0
 17 55  1  0
 18 19  1  0
 18 56  1  0
 18 57  1  0
 19 20  1  0
 19 58  1  0
 19 59  1  0
 20 21  1  6
 20 22  1  0
 21 60  1  0
 21 61  1  0
 21 62  1  0
 22 23  1  0
 22 63  1  6
 23 24  1  0
 23 64  1  0
 23 65  1  0
 24 25  1  0
 24 66  1  0
 24 67  1  0
 25 26  1  0
 25 27  1  0
 25 68  1  1
 26 69  1  0
 26 70  1  0
 27 28  2  0
 27 29  1  0
 28 71  1  0
 28 72  1  0
 29 30  2  0
M  END
>  <i_m_ct_stereo_status>  (345) 
1

>  <s_m_source_file>  (345) 
/var/tmp/pbs.5076255.sched01/tmpalt_vnqi/12934k3la1h.sdf

>  <i_m_source_file_index>  (345) 
29

>  <i_lp_mmshare_version>  (345) 
48012

>  <i_f3d_flags>  (345) 
0

>  <s_epik_input>  (345) 
W0NIMl09QyhbQ0gyXTEpW0NASF0oW0NIMl0yKVtDSDJdW0NIMl1bQ0BIXShbQ0BAXTEyMylbQ0BdNDVbQ0BASF0oW0NIMl1bQ0gyXVtDQEBIXShbQ0gyXTMpQyg9W0NIMl0pQzU9TylbQ0BAXTYoW0NIM10pW0NAQEhdKFtDSDJdW0NIMl00KUMoW0NIM10pKFtDSDNdKVtDSDJdW0NIMl1bQ0gyXTY=

>  <s_epik_cmdline>  (345) 
J2VwaWtfcHl0aG9uJywgJy1waHQnLCAnMi4wJywgJy1waCcsICc3LjAnLCAnLXRuJywgJzgnLCAnLW1hJywgJzIwMCcsICctaW1hZScsICc8aW5maWxlLm1hZT4nLCAnLW9tYWUnLCAnPG91dGZpbGUubWFlPic=

>  <r_lp_tautomer_probability>  (345) 
1

>  <r_epik_Ionization_Penalty>  (345) 
0

>  <r_epik_Ionization_Penalty_Charging>  (345) 
0

>  <r_epik_Ionization_Penalty_Neutral>  (345) 
0

>  <r_epik_State_Penalty>  (345) 
-0

>  <r_epik_Charging_Adjusted_Penalty>  (345) 
0

>  <i_epik_Tot_Q>  (345) 
0

>  <i_epik_Tot_abs_Q>  (345) 
0

>  <s_lp_Force_Field>  (345) 
OPLS3e

>  <r_lp_Energy>  (345) 
118.119

>  <b_lp_Chiralities_Consistent>  (345) 
1

>  <s_lp_Variant>  (345) 
106:0-1

>  <s_i_glide_gridfile>  (345) 
pfpi4k_grid

>  <i_i_glide_lignum>  (345) 
29

>  <i_i_glide_rotatable_bonds>  (345) 
0

>  <r_i_docking_score>  (345) 
-1.97556

>  <r_i_glide_ligand_efficiency>  (345) 
-0.0658521

>  <r_i_glide_ligand_efficiency_sa>  (345) 
-0.204618

>  <r_i_glide_ligand_efficiency_ln>  (345) 
-0.44887

>  <r_i_glide_gscore>  (345) 
-1.97556

>  <r_i_glide_lipo>  (345) 
-0.00646774

>  <r_i_glide_hbond>  (345) 
-0.0233815

>  <r_i_glide_metal>  (345) 
-0

>  <r_i_glide_rewards>  (345) 
-0.636524

>  <r_i_glide_evdw>  (345) 
-23.2325

>  <r_i_glide_ecoul>  (345) 
-0.92744

>  <r_i_glide_erotb>  (345) 
0

>  <r_i_glide_esite>  (345) 
-0.00845069

>  <r_i_glide_emodel>  (345) 
-27.4651

>  <r_i_glide_energy>  (345) 
-24.1599

>  <r_i_glide_einternal>  (345) 
0

>  <r_i_glide_intrahb_reward>  (345) 
-0

>  <i_i_glide_confnum>  (345) 
1

>  <i_i_glide_posenum>  (345) 
10

>  <r_i_glide_eff_state_penalty>  (345) 
0

>  <ligand_id>  (345) 
106

>  <original_smiles>  (345) 
C=C1CC23CC1CCC2C12CCC4C(C)(C)CCCC4(C)C1CCC(C3)C(=C)C2=O

>  <smiles>  (345) 
[H]C([H])=C1C([H])([H])C23C([H])([H])C1([H])C([H])([H])C([H])([H])C2([H])C12C(=O)C(=C([H])[H])C([H])(C([H])([H])C([H])([H])C1([H])C1(C([H])([H])[H])C([H])([H])C([H])([H])C([H])([H])C(C([H])([H])[H])(C([H])([H])[H])C1([H])C([H])([H])C2([H])[H])C3([H])[H]

$$$$
107:0:0
     RDKit          3D

 30 35  0  0  1  0  0  0  0  0999 V2000
    2.2225   -2.6541   -2.3049 O   0  0  0  0  0  0  0  0  0  0  0  0
    3.2587   -2.8816   -1.3742 C   0  0  2  0  0  0  0  0  0  0  0  0
    2.8666   -3.7181   -0.2053 C   0  0  0  0  0  0  0  0  0  0  0  0
    4.2489   -3.6075    0.3980 C   0  0  1  0  0  0  0  0  0  0  0  0
    5.2304   -3.9977   -0.7358 C   0  0  2  0  0  0  0  0  0  0  0  0
    6.3929   -2.9985   -0.9745 C   0  0  2  0  0  0  0  0  0  0  0  0
    6.6562   -2.0879    0.2797 C   0  0  2  0  0  0  0  0  0  0  0  0
    5.9138   -2.6090    1.4756 C   0  0  0  0  0  0  0  0  0  0  0  0
    4.5258   -2.0813    0.7581 C   0  0  2  0  0  0  0  0  0  0  0  0
    5.6880   -0.9802    0.7185 C   0  0  0  0  0  0  0  0  0  0  0  0
    3.8611   -1.6219   -0.6932 C   0  0  1  0  0  0  0  0  0  0  0  0
    4.7856   -1.1822   -1.8996 C   0  0  0  0  0  0  0  0  0  0  0  0
    5.5684   -2.4385   -2.1552 C   0  0  2  0  0  0  0  0  0  0  0  0
    4.5193   -3.5101   -1.9622 C   0  0  2  0  0  0  0  0  0  0  0  0
    1.5992   -2.0577   -1.8857 H   0  0  0  0  0  0  0  0  0  0  0  0
    2.0888   -3.2716    0.4149 H   0  0  0  0  0  0  0  0  0  0  0  0
    2.5972   -4.7355   -0.4882 H   0  0  0  0  0  0  0  0  0  0  0  0
    4.2558   -4.2932    1.2514 H   0  0  0  0  0  0  0  0  0  0  0  0
    5.4993   -5.0506   -0.7979 H   0  0  0  0  0  0  0  0  0  0  0  0
    7.2839   -3.5199   -1.3189 H   0  0  0  0  0  0  0  0  0  0  0  0
    7.7061   -1.8654    0.4668 H   0  0  0  0  0  0  0  0  0  0  0  0
    6.1646   -3.6676    1.6032 H   0  0  0  0  0  0  0  0  0  0  0  0
    6.1611   -2.2308    2.4831 H   0  0  0  0  0  0  0  0  0  0  0  0
    5.9061   -0.4293    1.6526 H   0  0  0  0  0  0  0  0  0  0  0  0
    5.5935   -0.1088    0.0890 H   0  0  0  0  0  0  0  0  0  0  0  0
    3.0869   -0.8752   -0.5103 H   0  0  0  0  0  0  0  0  0  0  0  0
    4.1554   -0.9610   -2.7619 H   0  0  0  0  0  0  0  0  0  0  0  0
    5.4081   -0.2941   -1.8344 H   0  0  0  0  0  0  0  0  0  0  0  0
    6.0732   -2.5300   -3.1163 H   0  0  0  0  0  0  0  0  0  0  0  0
    4.4186   -4.2482   -2.7553 H   0  0  0  0  0  0  0  0  0  0  0  0
  2  1  1  6
  1 15  1  0
  2 11  1  0
  2 14  1  0
  2  3  1  0
  3  4  1  0
  3 16  1  0
  3 17  1  0
  4  9  1  0
  4  5  1  0
  4 18  1  1
  5 14  1  0
  5  6  1  0
  5 19  1  6
  6 13  1  0
  6  7  1  0
  6 20  1  6
  7 10  1  0
  7  8  1  0
  7 21  1  1
  9  8  1  1
  8 22  1  0
  8 23  1  0
  9 10  1  0
  9 11  1  0
 10 24  1  0
 10 25  1  0
 11 12  1  0
 11 26  1  1
 12 13  1  0
 12 27  1  0
 12 28  1  0
 13 14  1  0
 13 29  1  6
 14 30  1  6
M  END
>  <i_m_ct_stereo_status>  (346) 
1

>  <s_m_source_file>  (346) 
/var/tmp/pbs.5076255.sched01/tmpalt_vnqi/12934k3la1h.sdf

>  <i_m_source_file_index>  (346) 
30

>  <i_lp_mmshare_version>  (346) 
48012

>  <i_f3d_flags>  (346) 
2

>  <s_epik_input>  (346) 
W0NIMl0xW0NASF0yW0NAXShbT0hdKShbQ0gyXTMpW0NASF00W0NAQEhdMVtDQEhdKFtDQEhdNFtDQEhdM0MyNTYpW0NAQEhdKFtDSDJdNSlbQ0gyXTY=

>  <s_epik_cmdline>  (346) 
J2VwaWtfcHl0aG9uJywgJy1waHQnLCAnMi4wJywgJy1waCcsICc3LjAnLCAnLXRuJywgJzgnLCAnLW1hJywgJzIwMCcsICctaW1hZScsICc8aW5maWxlLm1hZT4nLCAnLW9tYWUnLCAnPG91dGZpbGUubWFlPic=

>  <r_lp_tautomer_probability>  (346) 
1

>  <r_epik_Ionization_Penalty>  (346) 
5.71191e-06

>  <r_epik_Ionization_Penalty_Charging>  (346) 
0

>  <r_epik_Ionization_Penalty_Neutral>  (346) 
5.71191e-06

>  <r_epik_State_Penalty>  (346) 
-0

>  <r_epik_Charging_Adjusted_Penalty>  (346) 
0

>  <i_epik_Tot_Q>  (346) 
0

>  <i_epik_Tot_abs_Q>  (346) 
0

>  <s_lp_Force_Field>  (346) 
OPLS3e

>  <r_lp_Energy>  (346) 
214.512

>  <b_lp_Chiralities_Consistent>  (346) 
0

>  <s_lp_Variant>  (346) 
107:0-1

>  <s_i_glide_gridfile>  (346) 
pfpi4k_grid

>  <i_i_glide_lignum>  (346) 
30

>  <i_i_glide_rotatable_bonds>  (346) 
1

>  <r_i_docking_score>  (346) 
-4.0583

>  <r_i_glide_ligand_efficiency>  (346) 
-0.289878

>  <r_i_glide_ligand_efficiency_sa>  (346) 
-0.698648

>  <r_i_glide_ligand_efficiency_ln>  (346) 
-1.11521

>  <r_i_glide_gscore>  (346) 
-4.0583

>  <r_i_glide_lipo>  (346) 
-0.359007

>  <r_i_glide_hbond>  (346) 
-0.16

>  <r_i_glide_metal>  (346) 
-0

>  <r_i_glide_rewards>  (346) 
-2.12546

>  <r_i_glide_evdw>  (346) 
-18.8399

>  <r_i_glide_ecoul>  (346) 
-3.14556

>  <r_i_glide_erotb>  (346) 
0

>  <r_i_glide_esite>  (346) 
0

>  <r_i_glide_emodel>  (346) 
-28.0317

>  <r_i_glide_energy>  (346) 
-21.9854

>  <r_i_glide_einternal>  (346) 
0.164295

>  <r_i_glide_intrahb_reward>  (346) 
-0

>  <i_i_glide_confnum>  (346) 
2

>  <i_i_glide_posenum>  (346) 
32

>  <r_i_glide_eff_state_penalty>  (346) 
0

>  <ligand_id>  (346) 
107

>  <original_smiles>  (346) 
OC12CC3C4C5C6CC3(C6)C1CC5C42

>  <smiles>  (346) 
[H]OC12C([H])([H])C3([H])C4([H])C5([H])C6([H])C([H])([H])C3(C6([H])[H])C1([H])C([H])([H])C5([H])C42[H]

$$$$
107:0:1
     RDKit          3D

 30 35  0  0  1  0  0  0  0  0999 V2000
    4.7619   -2.1727    1.6738 O   0  0  0  0  0  0  0  0  0  0  0  0
    4.7984   -2.0415    0.2663 C   0  0  2  0  0  0  0  0  0  0  0  0
    5.1416   -0.6765   -0.2116 C   0  0  0  0  0  0  0  0  0  0  0  0
    5.0137   -1.1046   -1.6619 C   0  0  1  0  0  0  0  0  0  0  0  0
    5.8862   -2.3787   -1.7966 C   0  0  2  0  0  0  0  0  0  0  0  0
    5.1774   -3.5840   -2.4662 C   0  0  2  0  0  0  0  0  0  0  0  0
    3.9466   -3.1455   -3.3358 C   0  0  2  0  0  0  0  0  0  0  0  0
    3.9314   -1.6568   -3.5265 C   0  0  0  0  0  0  0  0  0  0  0  0
    3.5060   -1.5308   -1.9397 C   0  0  2  0  0  0  0  0  0  0  0  0
    2.6411   -2.6374   -2.7137 C   0  0  0  0  0  0  0  0  0  0  0  0
    3.4761   -2.3389   -0.4885 C   0  0  1  0  0  0  0  0  0  0  0  0
    3.5932   -3.9152   -0.4412 C   0  0  0  0  0  0  0  0  0  0  0  0
    4.9475   -4.1437   -1.0425 C   0  0  2  0  0  0  0  0  0  0  0  0
    5.7514   -3.0063   -0.4382 C   0  0  2  0  0  0  0  0  0  0  0  0
    4.1097   -1.5785    2.0122 H   0  0  0  0  0  0  0  0  0  0  0  0
    4.4264    0.0955    0.0805 H   0  0  0  0  0  0  0  0  0  0  0  0
    6.1527   -0.3746    0.0648 H   0  0  0  0  0  0  0  0  0  0  0  0
    5.3663   -0.2557   -2.2542 H   0  0  0  0  0  0  0  0  0  0  0  0
    6.9229   -2.2383   -2.0997 H   0  0  0  0  0  0  0  0  0  0  0  0
    5.8876   -4.1826   -3.0305 H   0  0  0  0  0  0  0  0  0  0  0  0
    3.8059   -3.7274   -4.2463 H   0  0  0  0  0  0  0  0  0  0  0  0
    4.9078   -1.3511   -3.9130 H   0  0  0  0  0  0  0  0  0  0  0  0
    3.2662   -1.2082   -4.2847 H   0  0  0  0  0  0  0  0  0  0  0  0
    1.8401   -2.2820   -3.3867 H   0  0  0  0  0  0  0  0  0  0  0  0
    2.0306   -3.3377   -2.1662 H   0  0  0  0  0  0  0  0  0  0  0  0
    2.6147   -2.0059    0.0928 H   0  0  0  0  0  0  0  0  0  0  0  0
    3.6011   -4.2417    0.6007 H   0  0  0  0  0  0  0  0  0  0  0  0
    2.8233   -4.5472   -0.8727 H   0  0  0  0  0  0  0  0  0  0  0  0
    5.3799   -5.1319   -0.8876 H   0  0  0  0  0  0  0  0  0  0  0  0
    6.6930   -3.2652    0.0459 H   0  0  0  0  0  0  0  0  0  0  0  0
  2  1  1  1
  1 15  1  0
  2 11  1  0
  2 14  1  0
  2  3  1  0
  3  4  1  0
  3 16  1  0
  3 17  1  0
  4  9  1  0
  4  5  1  0
  4 18  1  6
  5 14  1  0
  5  6  1  0
  5 19  1  6
  6 13  1  0
  6  7  1  0
  6 20  1  6
  7 10  1  0
  7  8  1  0
  7 21  1  6
  9  8  1  1
  8 22  1  0
  8 23  1  0
  9 10  1  0
  9 11  1  0
 10 24  1  0
 10 25  1  0
 11 12  1  0
 11 26  1  1
 12 13  1  0
 12 27  1  0
 12 28  1  0
 13 14  1  0
 13 29  1  6
 14 30  1  1
M  END
>  <i_m_ct_stereo_status>  (347) 
1

>  <s_m_source_file>  (347) 
/var/tmp/pbs.5076255.sched01/tmpalt_vnqi/12934k3la1h.sdf

>  <i_m_source_file_index>  (347) 
30

>  <i_lp_mmshare_version>  (347) 
48012

>  <i_f3d_flags>  (347) 
2

>  <s_epik_input>  (347) 
W0NIMl0xW0NASF0yW0NAXShbT0hdKShbQ0gyXTMpW0NASF00W0NAQEhdMVtDQEhdKFtDQEhdNFtDQEhdM0MyNTYpW0NAQEhdKFtDSDJdNSlbQ0gyXTY=

>  <s_epik_cmdline>  (347) 
J2VwaWtfcHl0aG9uJywgJy1waHQnLCAnMi4wJywgJy1waCcsICc3LjAnLCAnLXRuJywgJzgnLCAnLW1hJywgJzIwMCcsICctaW1hZScsICc8aW5maWxlLm1hZT4nLCAnLW9tYWUnLCAnPG91dGZpbGUubWFlPic=

>  <r_lp_tautomer_probability>  (347) 
1

>  <r_epik_Ionization_Penalty>  (347) 
5.71191e-06

>  <r_epik_Ionization_Penalty_Charging>  (347) 
0

>  <r_epik_Ionization_Penalty_Neutral>  (347) 
5.71191e-06

>  <r_epik_State_Penalty>  (347) 
-0

>  <r_epik_Charging_Adjusted_Penalty>  (347) 
0

>  <i_epik_Tot_Q>  (347) 
0

>  <i_epik_Tot_abs_Q>  (347) 
0

>  <s_lp_Force_Field>  (347) 
OPLS3e

>  <r_lp_Energy>  (347) 
214.512

>  <b_lp_Chiralities_Consistent>  (347) 
0

>  <s_lp_Variant>  (347) 
107:0-1

>  <s_i_glide_gridfile>  (347) 
pfpi4k_grid

>  <i_i_glide_lignum>  (347) 
30

>  <i_i_glide_rotatable_bonds>  (347) 
1

>  <r_i_docking_score>  (347) 
-3.74319

>  <r_i_glide_ligand_efficiency>  (347) 
-0.267371

>  <r_i_glide_ligand_efficiency_sa>  (347) 
-0.644401

>  <r_i_glide_ligand_efficiency_ln>  (347) 
-1.02862

>  <r_i_glide_gscore>  (347) 
-3.74319

>  <r_i_glide_lipo>  (347) 
-0.486559

>  <r_i_glide_hbond>  (347) 
0

>  <r_i_glide_metal>  (347) 
-0

>  <r_i_glide_rewards>  (347) 
-2.12546

>  <r_i_glide_evdw>  (347) 
-21.9146

>  <r_i_glide_ecoul>  (347) 
-0.236272

>  <r_i_glide_erotb>  (347) 
0

>  <r_i_glide_esite>  (347) 
0

>  <r_i_glide_emodel>  (347) 
-27.8556

>  <r_i_glide_energy>  (347) 
-22.1508

>  <r_i_glide_einternal>  (347) 
0.0038484

>  <r_i_glide_intrahb_reward>  (347) 
-0

>  <i_i_glide_confnum>  (347) 
1

>  <i_i_glide_posenum>  (347) 
2

>  <r_i_glide_eff_state_penalty>  (347) 
0

>  <ligand_id>  (347) 
107

>  <original_smiles>  (347) 
OC12CC3C4C5C6CC3(C6)C1CC5C42

>  <smiles>  (347) 
[H]OC12C([H])([H])C3([H])C4([H])C5([H])C6([H])C([H])([H])C3(C6([H])[H])C1([H])C([H])([H])C5([H])C42[H]

$$$$
107:0:2
     RDKit          3D

 30 35  0  0  1  0  0  0  0  0999 V2000
    4.7640   -2.1779    1.6644 O   0  0  0  0  0  0  0  0  0  0  0  0
    4.7996   -2.0540    0.2570 C   0  0  2  0  0  0  0  0  0  0  0  0
    5.1626   -0.6962   -0.2226 C   0  0  0  0  0  0  0  0  0  0  0  0
    5.0180   -1.1214   -1.6720 C   0  0  1  0  0  0  0  0  0  0  0  0
    5.8700   -2.4105   -1.8101 C   0  0  2  0  0  0  0  0  0  0  0  0
    5.1398   -3.6055   -2.4747 C   0  0  2  0  0  0  0  0  0  0  0  0
    3.9138   -3.1465   -3.3406 C   0  0  2  0  0  0  0  0  0  0  0  0
    3.9234   -1.6578   -3.5327 C   0  0  0  0  0  0  0  0  0  0  0  0
    3.5049   -1.5237   -1.9445 C   0  0  2  0  0  0  0  0  0  0  0  0
    2.6204   -2.6177   -2.7152 C   0  0  0  0  0  0  0  0  0  0  0  0
    3.4686   -2.3281   -0.4912 C   0  0  1  0  0  0  0  0  0  0  0  0
    3.5558   -3.9063   -0.4442 C   0  0  0  0  0  0  0  0  0  0  0  0
    4.9045   -4.1595   -1.0487 C   0  0  2  0  0  0  0  0  0  0  0  0
    5.7322   -3.0354   -0.4511 C   0  0  2  0  0  0  0  0  0  0  0  0
    4.4979   -3.0586    1.8780 H   0  0  0  0  0  0  0  0  0  0  0  0
    4.4633    0.0852    0.0802 H   0  0  0  0  0  0  0  0  0  0  0  0
    6.1810   -0.4131    0.0488 H   0  0  0  0  0  0  0  0  0  0  0  0
    5.3827   -0.2774   -2.2642 H   0  0  0  0  0  0  0  0  0  0  0  0
    6.9073   -2.2815   -2.1188 H   0  0  0  0  0  0  0  0  0  0  0  0
    5.8333   -4.2200   -3.0417 H   0  0  0  0  0  0  0  0  0  0  0  0
    3.7578   -3.7261   -4.2491 H   0  0  0  0  0  0  0  0  0  0  0  0
    4.9034   -1.3678   -3.9214 H   0  0  0  0  0  0  0  0  0  0  0  0
    3.2620   -1.1979   -4.2883 H   0  0  0  0  0  0  0  0  0  0  0  0
    1.8220   -2.2564   -3.3875 H   0  0  0  0  0  0  0  0  0  0  0  0
    1.9981   -3.3027   -2.1614 H   0  0  0  0  0  0  0  0  0  0  0  0
    2.6175   -1.9763    0.0950 H   0  0  0  0  0  0  0  0  0  0  0  0
    3.5583   -4.2360    0.5951 H   0  0  0  0  0  0  0  0  0  0  0  0
    2.7742   -4.5244   -0.8739 H   0  0  0  0  0  0  0  0  0  0  0  0
    5.3180   -5.1568   -0.8970 H   0  0  0  0  0  0  0  0  0  0  0  0
    6.6713   -3.3108    0.0285 H   0  0  0  0  0  0  0  0  0  0  0  0
  2  1  1  1
  1 15  1  0
  2 11  1  0
  2 14  1  0
  2  3  1  0
  3  4  1  0
  3 16  1  0
  3 17  1  0
  4  9  1  0
  4  5  1  0
  4 18  1  6
  5 14  1  0
  5  6  1  0
  5 19  1  6
  6 13  1  0
  6  7  1  0
  6 20  1  6
  7 10  1  0
  7  8  1  0
  7 21  1  6
  9  8  1  1
  8 22  1  0
  8 23  1  0
  9 10  1  0
  9 11  1  0
 10 24  1  0
 10 25  1  0
 11 12  1  0
 11 26  1  1
 12 13  1  0
 12 27  1  0
 12 28  1  0
 13 14  1  0
 13 29  1  6
 14 30  1  1
M  END
>  <i_m_ct_stereo_status>  (348) 
1

>  <s_m_source_file>  (348) 
/var/tmp/pbs.5076255.sched01/tmpalt_vnqi/12934k3la1h.sdf

>  <i_m_source_file_index>  (348) 
30

>  <i_lp_mmshare_version>  (348) 
48012

>  <i_f3d_flags>  (348) 
2

>  <s_epik_input>  (348) 
W0NIMl0xW0NASF0yW0NAXShbT0hdKShbQ0gyXTMpW0NASF00W0NAQEhdMVtDQEhdKFtDQEhdNFtDQEhdM0MyNTYpW0NAQEhdKFtDSDJdNSlbQ0gyXTY=

>  <s_epik_cmdline>  (348) 
J2VwaWtfcHl0aG9uJywgJy1waHQnLCAnMi4wJywgJy1waCcsICc3LjAnLCAnLXRuJywgJzgnLCAnLW1hJywgJzIwMCcsICctaW1hZScsICc8aW5maWxlLm1hZT4nLCAnLW9tYWUnLCAnPG91dGZpbGUubWFlPic=

>  <r_lp_tautomer_probability>  (348) 
1

>  <r_epik_Ionization_Penalty>  (348) 
5.71191e-06

>  <r_epik_Ionization_Penalty_Charging>  (348) 
0

>  <r_epik_Ionization_Penalty_Neutral>  (348) 
5.71191e-06

>  <r_epik_State_Penalty>  (348) 
-0

>  <r_epik_Charging_Adjusted_Penalty>  (348) 
0

>  <i_epik_Tot_Q>  (348) 
0

>  <i_epik_Tot_abs_Q>  (348) 
0

>  <s_lp_Force_Field>  (348) 
OPLS3e

>  <r_lp_Energy>  (348) 
214.512

>  <b_lp_Chiralities_Consistent>  (348) 
0

>  <s_lp_Variant>  (348) 
107:0-1

>  <s_i_glide_gridfile>  (348) 
pfpi4k_grid

>  <i_i_glide_lignum>  (348) 
30

>  <i_i_glide_rotatable_bonds>  (348) 
1

>  <r_i_docking_score>  (348) 
-3.69675

>  <r_i_glide_ligand_efficiency>  (348) 
-0.264053

>  <r_i_glide_ligand_efficiency_sa>  (348) 
-0.636406

>  <r_i_glide_ligand_efficiency_ln>  (348) 
-1.01585

>  <r_i_glide_gscore>  (348) 
-3.69675

>  <r_i_glide_lipo>  (348) 
-0.479717

>  <r_i_glide_hbond>  (348) 
0

>  <r_i_glide_metal>  (348) 
-0

>  <r_i_glide_rewards>  (348) 
-2.12546

>  <r_i_glide_evdw>  (348) 
-21.9461

>  <r_i_glide_ecoul>  (348) 
0.0382454

>  <r_i_glide_erotb>  (348) 
0

>  <r_i_glide_esite>  (348) 
0

>  <r_i_glide_emodel>  (348) 
-27.5429

>  <r_i_glide_energy>  (348) 
-21.9078

>  <r_i_glide_einternal>  (348) 
0.00488188

>  <r_i_glide_intrahb_reward>  (348) 
-0

>  <i_i_glide_confnum>  (348) 
1

>  <i_i_glide_posenum>  (348) 
4

>  <r_i_glide_eff_state_penalty>  (348) 
0

>  <ligand_id>  (348) 
107

>  <original_smiles>  (348) 
OC12CC3C4C5C6CC3(C6)C1CC5C42

>  <smiles>  (348) 
[H]OC12C([H])([H])C3([H])C4([H])C5([H])C6([H])C([H])([H])C3(C6([H])[H])C1([H])C([H])([H])C5([H])C42[H]

$$$$
109:0:0
     RDKit          3D

 69 75  0  0  1  0  0  0  0  0999 V2000
   -1.0625    2.3919    8.9580 C   0  0  0  0  0  0  0  0  0  0  0  0
   -0.6299    2.2212    7.5077 C   0  0  0  0  0  0  0  0  0  0  0  0
    0.8638    2.5619    7.3967 C   0  0  0  0  0  0  0  0  0  0  0  0
   -1.2883    1.1311    6.6790 C   0  0  2  0  0  0  0  0  0  0  0  0
   -0.5586    0.2851    5.6493 C   0  0  0  0  0  0  0  0  0  0  0  0
    0.2379    1.0788    4.5739 C   0  0  1  0  0  0  0  0  0  0  0  0
    0.8201    0.2517    3.4971 N   0  0  1  0  0  0  0  0  0  0  0  0
    1.9500    0.9508    2.8358 C   0  0  0  0  0  0  0  0  0  0  0  0
    2.4029    0.2077    1.5773 C   0  0  0  0  0  0  0  0  0  0  0  0
    2.8250   -1.2297    1.9223 C   0  0  2  0  0  0  0  0  0  0  0  0
    1.6923   -1.9241    2.7010 C   0  0  0  0  0  0  0  0  0  0  0  0
    1.2511   -1.1076    3.9194 C   0  0  0  0  0  0  0  0  0  0  0  0
    3.9516   -1.1422    2.7765 O   0  0  0  0  0  0  0  0  0  0  0  0
    4.8618   -2.2012    2.2917 O   0  0  0  0  0  0  0  0  0  0  0  0
    4.5888   -2.2440    0.8997 C   0  0  2  0  0  0  0  0  0  0  0  0
    3.1909   -1.9853    0.7373 O   0  0  0  0  0  0  0  0  0  0  0  0
    5.0472   -3.6455    0.3560 C   0  0  2  0  0  0  0  0  0  0  0  0
    6.5496   -3.8624    0.6509 C   0  0  0  0  0  0  0  0  0  0  0  0
    7.3985   -2.7768   -0.0444 C   0  0  1  0  0  0  0  0  0  0  0  0
    7.1746   -2.8687   -1.5657 C   0  0  0  0  0  0  0  0  0  0  0  0
    5.6794   -2.6440   -1.8790 C   0  0  1  0  0  0  0  0  0  0  0  0
    4.8317   -3.7273   -1.1773 C   0  0  0  0  0  0  0  0  0  0  0  0
    5.2345   -1.2561   -1.3672 C   0  0  0  0  0  0  0  0  0  0  0  0
    5.4560   -1.1713    0.1650 C   0  0  2  0  0  0  0  0  0  0  0  0
    6.9370   -1.4117    0.4914 C   0  0  0  0  0  0  0  0  0  0  0  0
   -0.6579    2.2325    4.0299 C   0  0  0  0  0  0  0  0  0  0  0  0
   -1.1210    3.2318    5.1114 C   0  0  0  0  0  0  0  0  0  0  0  0
   -1.6227    2.5752    6.3961 C   0  0  2  0  0  0  0  0  0  0  0  0
   -3.0150    3.1005    6.7924 C   0  0  0  0  0  0  0  0  0  0  0  0
   -0.4164    1.8094    9.6188 H   0  0  0  0  0  0  0  0  0  0  0  0
   -2.0772    2.0476    9.1435 H   0  0  0  0  0  0  0  0  0  0  0  0
   -1.0062    3.4531    9.2207 H   0  0  0  0  0  0  0  0  0  0  0  0
    1.2443    2.5709    6.4210 H   0  0  0  0  0  0  0  0  0  0  0  0
    1.4635    1.8548    7.9930 H   0  0  0  0  0  0  0  0  0  0  0  0
    1.0424    3.6004    7.6858 H   0  0  0  0  0  0  0  0  0  0  0  0
   -2.0518    0.5529    7.1938 H   0  0  0  0  0  0  0  0  0  0  0  0
    0.1006   -0.3702    6.2197 H   0  0  0  0  0  0  0  0  0  0  0  0
   -1.3080   -0.3346    5.1530 H   0  0  0  0  0  0  0  0  0  0  0  0
    1.1598    1.4313    4.9827 H   0  0  0  0  0  0  0  0  0  0  0  0
    1.7039    1.9789    2.5726 H   0  0  0  0  0  0  0  0  0  0  0  0
    2.7975    1.0457    3.5311 H   0  0  0  0  0  0  0  0  0  0  0  0
    1.5675    0.2266    0.8704 H   0  0  0  0  0  0  0  0  0  0  0  0
    3.2190    0.7638    1.1173 H   0  0  0  0  0  0  0  0  0  0  0  0
    0.8045   -2.0112    2.0749 H   0  0  0  0  0  0  0  0  0  0  0  0
    1.9596   -2.9342    3.0242 H   0  0  0  0  0  0  0  0  0  0  0  0
    2.0493   -1.0451    4.6703 H   0  0  0  0  0  0  0  0  0  0  0  0
    0.4483   -1.6625    4.3981 H   0  0  0  0  0  0  0  0  0  0  0  0
    4.4661   -4.4336    0.8394 H   0  0  0  0  0  0  0  0  0  0  0  0
    6.7443   -3.8443    1.7246 H   0  0  0  0  0  0  0  0  0  0  0  0
    6.8772   -4.8514    0.3136 H   0  0  0  0  0  0  0  0  0  0  0  0
    8.4487   -2.9228    0.1756 H   0  0  0  0  0  0  0  0  0  0  0  0
    7.8022   -2.1580   -2.1016 H   0  0  0  0  0  0  0  0  0  0  0  0
    7.4976   -3.8398   -1.9368 H   0  0  0  0  0  0  0  0  0  0  0  0
    5.5250   -2.7043   -2.9571 H   0  0  0  0  0  0  0  0  0  0  0  0
    5.1210   -4.7189   -1.5460 H   0  0  0  0  0  0  0  0  0  0  0  0
    3.7809   -3.6055   -1.4240 H   0  0  0  0  0  0  0  0  0  0  0  0
    5.8061   -0.4739   -1.8689 H   0  0  0  0  0  0  0  0  0  0  0  0
    4.1928   -1.0745   -1.6164 H   0  0  0  0  0  0  0  0  0  0  0  0
    5.1673   -0.1707    0.5101 H   0  0  0  0  0  0  0  0  0  0  0  0
    7.0989   -1.3477    1.5624 H   0  0  0  0  0  0  0  0  0  0  0  0
    7.5601   -0.6090    0.0718 H   0  0  0  0  0  0  0  0  0  0  0  0
   -0.1404    2.8094    3.2610 H   0  0  0  0  0  0  0  0  0  0  0  0
   -1.5350    1.8062    3.5400 H   0  0  0  0  0  0  0  0  0  0  0  0
   -0.3109    3.9109    5.3718 H   0  0  0  0  0  0  0  0  0  0  0  0
   -1.8900    3.8795    4.6859 H   0  0  0  0  0  0  0  0  0  0  0  0
   -3.7258    3.0159    5.9874 H   0  0  0  0  0  0  0  0  0  0  0  0
   -2.9174    4.1434    7.1154 H   0  0  0  0  0  0  0  0  0  0  0  0
   -3.4327    2.5478    7.6277 H   0  0  0  0  0  0  0  0  0  0  0  0
    0.0647    0.1367    2.8101 H   0  0  0  0  0  0  0  0  0  0  0  0
  1  2  1  0
  1 30  1  0
  1 31  1  0
  1 32  1  0
  2 28  1  0
  2  3  1  0
  2  4  1  0
  3 33  1  0
  3 34  1  0
  3 35  1  0
  4 28  1  0
  4  5  1  0
  4 36  1  1
  5  6  1  0
  5 37  1  0
  5 38  1  0
  6  7  1  0
  6 26  1  0
  6 39  1  1
  7 12  1  0
  7  8  1  0
  7 69  1  6
  8  9  1  0
  8 40  1  0
  8 41  1  0
  9 10  1  0
  9 42  1  0
  9 43  1  0
 10 16  1  6
 10 11  1  0
 10 13  1  0
 11 12  1  0
 11 44  1  0
 11 45  1  0
 12 46  1  0
 12 47  1  0
 13 14  1  0
 15 14  1  1
 15 24  1  0
 15 16  1  0
 15 17  1  0
 17 22  1  0
 17 18  1  0
 17 48  1  1
 18 19  1  0
 18 49  1  0
 18 50  1  0
 19 25  1  0
 19 20  1  0
 19 51  1  6
 20 21  1  0
 20 52  1  0
 20 53  1  0
 21 22  1  0
 21 23  1  0
 21 54  1  6
 22 55  1  0
 22 56  1  0
 23 24  1  0
 23 57  1  0
 23 58  1  0
 24 25  1  0
 24 59  1  1
 25 60  1  0
 25 61  1  0
 26 27  1  0
 26 62  1  0
 26 63  1  0
 27 28  1  0
 27 64  1  0
 27 65  1  0
 28 29  1  1
 29 66  1  0
 29 67  1  0
 29 68  1  0
M  CHG  1   7   1
M  END
>  <i_m_ct_stereo_status>  (349) 
1

>  <s_m_source_file>  (349) 
/var/tmp/pbs.5076255.sched01/tmpalt_vnqi/12934k3la1h.sdf

>  <i_m_source_file_index>  (349) 
32

>  <i_lp_mmshare_version>  (349) 
48012

>  <i_f3d_flags>  (349) 
0

>  <s_epik_input>  (349) 
W0NIM11DMShbQ0gzXSlbQ0BASF0oW0NAQF0xMltDSDNdKVtDSDJdW0NASF0oW0NIMl1bQ0gyXTIpTihbQ0gyXVtDSDJdMylbQ0gyXVtDSDJdQzM0T09bQ0BdNShPNClbQ0BIXTZbQ0gyXVtDQEBIXTdbQ0gyXVtDQEhdKFtDSDJdNilbQ0gyXVtDQEhdNVtDSDJdNw==

>  <s_epik_cmdline>  (349) 
J2VwaWtfcHl0aG9uJywgJy1waHQnLCAnMi4wJywgJy1waCcsICc3LjAnLCAnLXRuJywgJzgnLCAnLW1hJywgJzIwMCcsICctaW1hZScsICc8aW5maWxlLm1hZT4nLCAnLW9tYWUnLCAnPG91dGZpbGUubWFlPic=

>  <r_epik_Ionization_Penalty>  (349) 
0.020051

>  <r_epik_Ionization_Penalty_Charging>  (349) 
0.020051

>  <r_epik_Ionization_Penalty_Neutral>  (349) 
0

>  <r_epik_State_Penalty>  (349) 
0.0160495

>  <r_epik_Charging_Adjusted_Penalty>  (349) 
0.0361005

>  <i_epik_Tot_Q>  (349) 
1

>  <i_epik_Tot_abs_Q>  (349) 
1

>  <s_lp_Force_Field>  (349) 
OPLS3e

>  <r_lp_Energy>  (349) 
50.0415

>  <b_lp_Chiralities_Consistent>  (349) 
1

>  <s_lp_Variant>  (349) 
109:0-1

>  <s_i_glide_gridfile>  (349) 
pfpi4k_grid

>  <i_i_glide_lignum>  (349) 
32

>  <i_i_glide_rotatable_bonds>  (349) 
1

>  <r_i_docking_score>  (349) 
-3.00313

>  <r_i_glide_ligand_efficiency>  (349) 
-0.103556

>  <r_i_glide_ligand_efficiency_sa>  (349) 
-0.318158

>  <r_i_glide_ligand_efficiency_ln>  (349) 
-0.687641

>  <r_i_glide_gscore>  (349) 
-3.00313

>  <r_i_glide_lipo>  (349) 
-0.464943

>  <r_i_glide_hbond>  (349) 
0

>  <r_i_glide_metal>  (349) 
-0

>  <r_i_glide_rewards>  (349) 
-0.67482

>  <r_i_glide_evdw>  (349) 
-31.124

>  <r_i_glide_ecoul>  (349) 
-2.55806

>  <r_i_glide_erotb>  (349) 
0.121085

>  <r_i_glide_esite>  (349) 
-0.0445433

>  <r_i_glide_emodel>  (349) 
-37.3786

>  <r_i_glide_energy>  (349) 
-33.6821

>  <r_i_glide_einternal>  (349) 
0.328427

>  <r_i_glide_intrahb_reward>  (349) 
-0

>  <i_i_glide_confnum>  (349) 
5

>  <i_i_glide_posenum>  (349) 
34

>  <r_i_glide_eff_state_penalty>  (349) 
0

>  <ligand_id>  (349) 
109

>  <original_smiles>  (349) 
CC1(C)C2CC(N3CCC4(CC3)OOC3(O4)C4CC5CC(C4)CC3C5)CCC21C

>  <smiles>  (349) 
[H]C([H])([H])C1(C([H])([H])[H])C2([H])C([H])([H])C([H])([N+]3([H])C([H])([H])C([H])([H])C4(OOC5(O4)C4([H])C([H])([H])C6([H])C([H])([H])C([H])(C4([H])[H])C([H])([H])C5([H])C6([H])[H])C([H])([H])C3([H])[H])C([H])([H])C([H])([H])C21C([H])([H])[H]

$$$$
109:0:1
     RDKit          3D

 69 75  0  0  1  0  0  0  0  0999 V2000
    0.1977    5.5188    6.7963 C   0  0  0  0  0  0  0  0  0  0  0  0
   -0.0177    4.4809    5.7193 C   0  0  0  0  0  0  0  0  0  0  0  0
    0.2534    5.1035    4.3322 C   0  0  0  0  0  0  0  0  0  0  0  0
    0.3419    3.0393    6.0369 C   0  0  2  0  0  0  0  0  0  0  0  0
    0.9767    2.0757    5.0577 C   0  0  0  0  0  0  0  0  0  0  0  0
    0.2269    1.9183    3.6876 C   0  0  1  0  0  0  0  0  0  0  0  0
    0.8282    0.8736    2.8453 N   0  0  1  0  0  0  0  0  0  0  0  0
    2.2142    1.2357    2.4330 C   0  0  0  0  0  0  0  0  0  0  0  0
    2.7585    0.2640    1.3738 C   0  0  0  0  0  0  0  0  0  0  0  0
    2.7169   -1.1809    1.9040 C   0  0  2  0  0  0  0  0  0  0  0  0
    1.3009   -1.5074    2.3801 C   0  0  0  0  0  0  0  0  0  0  0  0
    0.7702   -0.5015    3.4010 C   0  0  0  0  0  0  0  0  0  0  0  0
    3.6222   -1.2225    3.0020 O   0  0  0  0  0  0  0  0  0  0  0  0
    4.8659   -1.7002    2.3685 O   0  0  0  0  0  0  0  0  0  0  0  0
    4.3810   -2.6563    1.4353 C   0  0  2  0  0  0  0  0  0  0  0  0
    3.1436   -2.1285    0.8952 O   0  0  0  0  0  0  0  0  0  0  0  0
    4.1070   -3.9894    2.1977 C   0  0  2  0  0  0  0  0  0  0  0  0
    5.4167   -4.5012    2.8474 C   0  0  0  0  0  0  0  0  0  0  0  0
    6.4689   -4.7785    1.7603 C   0  0  1  0  0  0  0  0  0  0  0  0
    5.9262   -5.8635    0.8141 C   0  0  0  0  0  0  0  0  0  0  0  0
    4.6365   -5.3526    0.1406 C   0  0  1  0  0  0  0  0  0  0  0  0
    3.5720   -5.0703    1.2243 C   0  0  0  0  0  0  0  0  0  0  0  0
    4.9216   -4.0492   -0.6437 C   0  0  0  0  0  0  0  0  0  0  0  0
    5.4405   -2.9534    0.3256 C   0  0  2  0  0  0  0  0  0  0  0  0
    6.7375   -3.4750    0.9849 C   0  0  0  0  0  0  0  0  0  0  0  0
   -1.3109    1.7564    3.9367 C   0  0  0  0  0  0  0  0  0  0  0  0
   -1.9339    2.9465    4.7047 C   0  0  0  0  0  0  0  0  0  0  0  0
   -1.1266    3.4190    5.9187 C   0  0  2  0  0  0  0  0  0  0  0  0
   -1.9798    3.4676    7.1921 C   0  0  0  0  0  0  0  0  0  0  0  0
    1.1924    5.9743    6.6942 H   0  0  0  0  0  0  0  0  0  0  0  0
    0.1549    5.1095    7.8055 H   0  0  0  0  0  0  0  0  0  0  0  0
   -0.5775    6.2917    6.7015 H   0  0  0  0  0  0  0  0  0  0  0  0
    0.0587    4.4795    3.5263 H   0  0  0  0  0  0  0  0  0  0  0  0
    1.3116    5.4382    4.2857 H   0  0  0  0  0  0  0  0  0  0  0  0
   -0.4254    5.9472    4.1766 H   0  0  0  0  0  0  0  0  0  0  0  0
    0.7149    2.8469    7.0454 H   0  0  0  0  0  0  0  0  0  0  0  0
    1.9997    2.4114    4.9063 H   0  0  0  0  0  0  0  0  0  0  0  0
    1.0209    1.1299    5.5813 H   0  0  0  0  0  0  0  0  0  0  0  0
    0.3537    2.7117    2.9934 H   0  0  0  0  0  0  0  0  0  0  0  0
    2.2575    2.2568    2.0542 H   0  0  0  0  0  0  0  0  0  0  0  0
    2.8749    1.2119    3.2957 H   0  0  0  0  0  0  0  0  0  0  0  0
    2.1504    0.3777    0.4709 H   0  0  0  0  0  0  0  0  0  0  0  0
    3.7792    0.5656    1.1199 H   0  0  0  0  0  0  0  0  0  0  0  0
    0.6353   -1.4570    1.5209 H   0  0  0  0  0  0  0  0  0  0  0  0
    1.2019   -2.5169    2.8079 H   0  0  0  0  0  0  0  0  0  0  0  0
    1.3639   -0.5755    4.3063 H   0  0  0  0  0  0  0  0  0  0  0  0
   -0.2581   -0.7411    3.6648 H   0  0  0  0  0  0  0  0  0  0  0  0
    3.3597   -3.8163    2.9860 H   0  0  0  0  0  0  0  0  0  0  0  0
    5.7811   -3.7685    3.5624 H   0  0  0  0  0  0  0  0  0  0  0  0
    5.2227   -5.4083    3.4215 H   0  0  0  0  0  0  0  0  0  0  0  0
    7.3804   -5.1332    2.2173 H   0  0  0  0  0  0  0  0  0  0  0  0
    6.6889   -6.1192    0.0830 H   0  0  0  0  0  0  0  0  0  0  0  0
    5.7308   -6.7892    1.3620 H   0  0  0  0  0  0  0  0  0  0  0  0
    4.2610   -6.1176   -0.5412 H   0  0  0  0  0  0  0  0  0  0  0  0
    3.3487   -5.9837    1.7763 H   0  0  0  0  0  0  0  0  0  0  0  0
    2.6438   -4.7417    0.7643 H   0  0  0  0  0  0  0  0  0  0  0  0
    5.6604   -4.2488   -1.4287 H   0  0  0  0  0  0  0  0  0  0  0  0
    4.0207   -3.7157   -1.1515 H   0  0  0  0  0  0  0  0  0  0  0  0
    5.6580   -2.0410   -0.2452 H   0  0  0  0  0  0  0  0  0  0  0  0
    7.1154   -2.7259    1.6758 H   0  0  0  0  0  0  0  0  0  0  0  0
    7.5254   -3.6327    0.2410 H   0  0  0  0  0  0  0  0  0  0  0  0
   -1.8185    1.6523    2.9737 H   0  0  0  0  0  0  0  0  0  0  0  0
   -1.5208    0.8705    4.5162 H   0  0  0  0  0  0  0  0  0  0  0  0
   -2.0850    3.7974    4.0468 H   0  0  0  0  0  0  0  0  0  0  0  0
   -2.9417    2.6669    5.0198 H   0  0  0  0  0  0  0  0  0  0  0  0
   -2.4896    2.5217    7.3914 H   0  0  0  0  0  0  0  0  0  0  0  0
   -2.7180    4.2667    7.1161 H   0  0  0  0  0  0  0  0  0  0  0  0
   -1.3765    3.6750    8.0789 H   0  0  0  0  0  0  0  0  0  0  0  0
    0.2734    0.8954    2.0021 H   0  0  0  0  0  0  0  0  0  0  0  0
  1  2  1  0
  1 30  1  0
  1 31  1  0
  1 32  1  0
  2 28  1  0
  2  3  1  0
  2  4  1  0
  3 33  1  0
  3 34  1  0
  3 35  1  0
  4 28  1  0
  4  5  1  0
  4 36  1  1
  5  6  1  0
  5 37  1  0
  5 38  1  0
  6  7  1  0
  6 26  1  0
  6 39  1  6
  7 12  1  0
  7  8  1  0
  7 69  1  6
  8  9  1  0
  8 40  1  0
  8 41  1  0
  9 10  1  0
  9 42  1  0
  9 43  1  0
 10 16  1  6
 10 11  1  0
 10 13  1  0
 11 12  1  0
 11 44  1  0
 11 45  1  0
 12 46  1  0
 12 47  1  0
 13 14  1  0
 15 14  1  1
 15 24  1  0
 15 16  1  0
 15 17  1  0
 17 22  1  0
 17 18  1  0
 17 48  1  1
 18 19  1  0
 18 49  1  0
 18 50  1  0
 19 25  1  0
 19 20  1  0
 19 51  1  1
 20 21  1  0
 20 52  1  0
 20 53  1  0
 21 22  1  0
 21 23  1  0
 21 54  1  6
 22 55  1  0
 22 56  1  0
 23 24  1  0
 23 57  1  0
 23 58  1  0
 24 25  1  0
 24 59  1  6
 25 60  1  0
 25 61  1  0
 26 27  1  0
 26 62  1  0
 26 63  1  0
 27 28  1  0
 27 64  1  0
 27 65  1  0
 28 29  1  1
 29 66  1  0
 29 67  1  0
 29 68  1  0
M  CHG  1   7   1
M  END
>  <i_m_ct_stereo_status>  (350) 
1

>  <s_m_source_file>  (350) 
/var/tmp/pbs.5076255.sched01/tmpalt_vnqi/12934k3la1h.sdf

>  <i_m_source_file_index>  (350) 
32

>  <i_lp_mmshare_version>  (350) 
48012

>  <i_f3d_flags>  (350) 
0

>  <s_epik_input>  (350) 
W0NIM11DMShbQ0gzXSlbQ0BASF0oW0NAQF0xMltDSDNdKVtDSDJdW0NASF0oW0NIMl1bQ0gyXTIpTihbQ0gyXVtDSDJdMylbQ0gyXVtDSDJdQzM0T09bQ0BdNShPNClbQ0BIXTZbQ0gyXVtDQEBIXTdbQ0gyXVtDQEhdKFtDSDJdNilbQ0gyXVtDQEhdNVtDSDJdNw==

>  <s_epik_cmdline>  (350) 
J2VwaWtfcHl0aG9uJywgJy1waHQnLCAnMi4wJywgJy1waCcsICc3LjAnLCAnLXRuJywgJzgnLCAnLW1hJywgJzIwMCcsICctaW1hZScsICc8aW5maWxlLm1hZT4nLCAnLW9tYWUnLCAnPG91dGZpbGUubWFlPic=

>  <r_epik_Ionization_Penalty>  (350) 
0.020051

>  <r_epik_Ionization_Penalty_Charging>  (350) 
0.020051

>  <r_epik_Ionization_Penalty_Neutral>  (350) 
0

>  <r_epik_State_Penalty>  (350) 
0.0160495

>  <r_epik_Charging_Adjusted_Penalty>  (350) 
0.0361005

>  <i_epik_Tot_Q>  (350) 
1

>  <i_epik_Tot_abs_Q>  (350) 
1

>  <s_lp_Force_Field>  (350) 
OPLS3e

>  <r_lp_Energy>  (350) 
50.0415

>  <b_lp_Chiralities_Consistent>  (350) 
1

>  <s_lp_Variant>  (350) 
109:0-1

>  <s_i_glide_gridfile>  (350) 
pfpi4k_grid

>  <i_i_glide_lignum>  (350) 
32

>  <i_i_glide_rotatable_bonds>  (350) 
1

>  <r_i_docking_score>  (350) 
-2.9118

>  <r_i_glide_ligand_efficiency>  (350) 
-0.100407

>  <r_i_glide_ligand_efficiency_sa>  (350) 
-0.308482

>  <r_i_glide_ligand_efficiency_ln>  (350) 
-0.666729

>  <r_i_glide_gscore>  (350) 
-2.9118

>  <r_i_glide_lipo>  (350) 
-0.448935

>  <r_i_glide_hbond>  (350) 
0

>  <r_i_glide_metal>  (350) 
-0

>  <r_i_glide_rewards>  (350) 
-0.681336

>  <r_i_glide_evdw>  (350) 
-26.2609

>  <r_i_glide_ecoul>  (350) 
-3.48107

>  <r_i_glide_erotb>  (350) 
0.121085

>  <r_i_glide_esite>  (350) 
-0.0674134

>  <r_i_glide_emodel>  (350) 
-33.9769

>  <r_i_glide_energy>  (350) 
-29.7419

>  <r_i_glide_einternal>  (350) 
0.109765

>  <r_i_glide_intrahb_reward>  (350) 
-0

>  <i_i_glide_confnum>  (350) 
2

>  <i_i_glide_posenum>  (350) 
39

>  <r_i_glide_eff_state_penalty>  (350) 
0

>  <ligand_id>  (350) 
109

>  <original_smiles>  (350) 
CC1(C)C2CC(N3CCC4(CC3)OOC3(O4)C4CC5CC(C4)CC3C5)CCC21C

>  <smiles>  (350) 
[H]C([H])([H])C1(C([H])([H])[H])C2([H])C([H])([H])C([H])([N+]3([H])C([H])([H])C([H])([H])C4(OOC5(O4)C4([H])C([H])([H])C6([H])C([H])([H])C([H])(C4([H])[H])C([H])([H])C5([H])C6([H])[H])C([H])([H])C3([H])[H])C([H])([H])C([H])([H])C21C([H])([H])[H]

$$$$
109:0:2
     RDKit          3D

 69 75  0  0  1  0  0  0  0  0999 V2000
    0.0223    4.7612    8.9839 C   0  0  0  0  0  0  0  0  0  0  0  0
   -0.1013    4.0533    7.6456 C   0  0  0  0  0  0  0  0  0  0  0  0
    0.8679    4.7105    6.6429 C   0  0  0  0  0  0  0  0  0  0  0  0
   -0.4019    2.5619    7.6407 C   0  0  2  0  0  0  0  0  0  0  0  0
    0.1946    1.5723    6.6495 C   0  0  0  0  0  0  0  0  0  0  0  0
    0.0395    1.9543    5.1439 C   0  0  1  0  0  0  0  0  0  0  0  0
    0.4821    0.9116    4.1937 N   0  0  1  0  0  0  0  0  0  0  0  0
    0.7980    1.5046    2.8641 C   0  0  0  0  0  0  0  0  0  0  0  0
    1.0455    0.4083    1.8213 C   0  0  0  0  0  0  0  0  0  0  0  0
    2.2056   -0.5099    2.2633 C   0  0  2  0  0  0  0  0  0  0  0  0
    1.9275   -1.0357    3.6781 C   0  0  0  0  0  0  0  0  0  0  0  0
    1.6465    0.1028    4.6627 C   0  0  0  0  0  0  0  0  0  0  0  0
    3.3680    0.3106    2.2569 O   0  0  0  0  0  0  0  0  0  0  0  0
    3.9322    0.0626    0.9156 O   0  0  0  0  0  0  0  0  0  0  0  0
    3.6957   -1.3258    0.7417 C   0  0  2  0  0  0  0  0  0  0  0  0
    2.4112   -1.6156    1.3505 O   0  0  0  0  0  0  0  0  0  0  0  0
    4.8190   -2.1043    1.4883 C   0  0  2  0  0  0  0  0  0  0  0  0
    6.2014   -1.7304    0.9048 C   0  0  0  0  0  0  0  0  0  0  0  0
    6.2668   -2.1203   -0.5810 C   0  0  1  0  0  0  0  0  0  0  0  0
    6.0585   -3.6409   -0.7184 C   0  0  0  0  0  0  0  0  0  0  0  0
    4.6730   -4.0167   -0.1558 C   0  0  1  0  0  0  0  0  0  0  0  0
    4.6004   -3.6319    1.3384 C   0  0  0  0  0  0  0  0  0  0  0  0
    3.5704   -3.2592   -0.9306 C   0  0  0  0  0  0  0  0  0  0  0  0
    3.7731   -1.7304   -0.7686 C   0  0  2  0  0  0  0  0  0  0  0  0
    5.1594   -1.3586   -1.3360 C   0  0  0  0  0  0  0  0  0  0  0  0
   -1.4408    2.3904    4.8921 C   0  0  0  0  0  0  0  0  0  0  0  0
   -1.8814    3.6041    5.7370 C   0  0  0  0  0  0  0  0  0  0  0  0
   -1.4863    3.5330    7.2139 C   0  0  2  0  0  0  0  0  0  0  0  0
   -2.6840    3.7673    8.1371 C   0  0  0  0  0  0  0  0  0  0  0  0
    1.0672    4.7752    9.3113 H   0  0  0  0  0  0  0  0  0  0  0  0
   -0.5381    4.2697    9.7793 H   0  0  0  0  0  0  0  0  0  0  0  0
   -0.3511    5.7871    8.8792 H   0  0  0  0  0  0  0  0  0  0  0  0
    0.7928    4.3644    5.6662 H   0  0  0  0  0  0  0  0  0  0  0  0
    1.9081    4.5778    6.9913 H   0  0  0  0  0  0  0  0  0  0  0  0
    0.6170    5.7674    6.5185 H   0  0  0  0  0  0  0  0  0  0  0  0
   -0.5218    2.1050    8.6264 H   0  0  0  0  0  0  0  0  0  0  0  0
    1.2464    1.4912    6.9209 H   0  0  0  0  0  0  0  0  0  0  0  0
   -0.2793    0.6106    6.8342 H   0  0  0  0  0  0  0  0  0  0  0  0
    0.7449    2.7067    4.8828 H   0  0  0  0  0  0  0  0  0  0  0  0
    0.0079    2.1641    2.5106 H   0  0  0  0  0  0  0  0  0  0  0  0
    1.6815    2.1509    2.9335 H   0  0  0  0  0  0  0  0  0  0  0  0
    0.1120   -0.1486    1.7044 H   0  0  0  0  0  0  0  0  0  0  0  0
    1.2516    0.8810    0.8619 H   0  0  0  0  0  0  0  0  0  0  0  0
    1.0354   -1.6682    3.6849 H   0  0  0  0  0  0  0  0  0  0  0  0
    2.7511   -1.6474    4.0637 H   0  0  0  0  0  0  0  0  0  0  0  0
    2.5253    0.7399    4.8058 H   0  0  0  0  0  0  0  0  0  0  0  0
    1.4551   -0.3609    5.6245 H   0  0  0  0  0  0  0  0  0  0  0  0
    4.7925   -1.8444    2.5552 H   0  0  0  0  0  0  0  0  0  0  0  0
    6.3943   -0.6620    1.0229 H   0  0  0  0  0  0  0  0  0  0  0  0
    6.9899   -2.2403    1.4565 H   0  0  0  0  0  0  0  0  0  0  0  0
    7.2387   -1.8654   -0.9789 H   0  0  0  0  0  0  0  0  0  0  0  0
    6.1483   -3.9402   -1.7607 H   0  0  0  0  0  0  0  0  0  0  0  0
    6.8430   -4.1776   -0.1770 H   0  0  0  0  0  0  0  0  0  0  0  0
    4.5239   -5.0935   -0.2597 H   0  0  0  0  0  0  0  0  0  0  0  0
    5.3626   -4.1700    1.9035 H   0  0  0  0  0  0  0  0  0  0  0  0
    3.6388   -3.9223    1.7550 H   0  0  0  0  0  0  0  0  0  0  0  0
    3.6028   -3.5440   -1.9885 H   0  0  0  0  0  0  0  0  0  0  0  0
    2.5905   -3.5546   -0.5697 H   0  0  0  0  0  0  0  0  0  0  0  0
    3.0024   -1.2056   -1.3399 H   0  0  0  0  0  0  0  0  0  0  0  0
    5.3249   -0.2853   -1.2427 H   0  0  0  0  0  0  0  0  0  0  0  0
    5.2162   -1.5728   -2.4076 H   0  0  0  0  0  0  0  0  0  0  0  0
   -1.6019    2.6557    3.8468 H   0  0  0  0  0  0  0  0  0  0  0  0
   -2.1114    1.5566    5.0952 H   0  0  0  0  0  0  0  0  0  0  0  0
   -1.4736    4.5224    5.3215 H   0  0  0  0  0  0  0  0  0  0  0  0
   -2.9625    3.7235    5.6453 H   0  0  0  0  0  0  0  0  0  0  0  0
   -3.5182    3.0985    7.9093 H   0  0  0  0  0  0  0  0  0  0  0  0
   -3.0033    4.8120    8.0760 H   0  0  0  0  0  0  0  0  0  0  0  0
   -2.4342    3.5741    9.1815 H   0  0  0  0  0  0  0  0  0  0  0  0
   -0.3062    0.2753    4.0879 H   0  0  0  0  0  0  0  0  0  0  0  0
  1  2  1  0
  1 30  1  0
  1 31  1  0
  1 32  1  0
  2 28  1  0
  2  3  1  0
  2  4  1  0
  3 33  1  0
  3 34  1  0
  3 35  1  0
  4 28  1  0
  4  5  1  0
  4 36  1  1
  5  6  1  0
  5 37  1  0
  5 38  1  0
  6  7  1  0
  6 26  1  0
  6 39  1  1
  7 12  1  0
  7  8  1  0
  7 69  1  6
  8  9  1  0
  8 40  1  0
  8 41  1  0
  9 10  1  0
  9 42  1  0
  9 43  1  0
 10 16  1  6
 10 11  1  0
 10 13  1  0
 11 12  1  0
 11 44  1  0
 11 45  1  0
 12 46  1  0
 12 47  1  0
 13 14  1  0
 15 14  1  6
 15 24  1  0
 15 16  1  0
 15 17  1  0
 17 22  1  0
 17 18  1  0
 17 48  1  1
 18 19  1  0
 18 49  1  0
 18 50  1  0
 19 25  1  0
 19 20  1  0
 19 51  1  6
 20 21  1  0
 20 52  1  0
 20 53  1  0
 21 22  1  0
 21 23  1  0
 21 54  1  1
 22 55  1  0
 22 56  1  0
 23 24  1  0
 23 57  1  0
 23 58  1  0
 24 25  1  0
 24 59  1  6
 25 60  1  0
 25 61  1  0
 26 27  1  0
 26 62  1  0
 26 63  1  0
 27 28  1  0
 27 64  1  0
 27 65  1  0
 28 29  1  1
 29 66  1  0
 29 67  1  0
 29 68  1  0
M  CHG  1   7   1
M  END
>  <i_m_ct_stereo_status>  (351) 
1

>  <s_m_source_file>  (351) 
/var/tmp/pbs.5076255.sched01/tmpalt_vnqi/12934k3la1h.sdf

>  <i_m_source_file_index>  (351) 
32

>  <i_lp_mmshare_version>  (351) 
48012

>  <i_f3d_flags>  (351) 
0

>  <s_epik_input>  (351) 
W0NIM11DMShbQ0gzXSlbQ0BASF0oW0NAQF0xMltDSDNdKVtDSDJdW0NASF0oW0NIMl1bQ0gyXTIpTihbQ0gyXVtDSDJdMylbQ0gyXVtDSDJdQzM0T09bQ0BdNShPNClbQ0BIXTZbQ0gyXVtDQEBIXTdbQ0gyXVtDQEhdKFtDSDJdNilbQ0gyXVtDQEhdNVtDSDJdNw==

>  <s_epik_cmdline>  (351) 
J2VwaWtfcHl0aG9uJywgJy1waHQnLCAnMi4wJywgJy1waCcsICc3LjAnLCAnLXRuJywgJzgnLCAnLW1hJywgJzIwMCcsICctaW1hZScsICc8aW5maWxlLm1hZT4nLCAnLW9tYWUnLCAnPG91dGZpbGUubWFlPic=

>  <r_epik_Ionization_Penalty>  (351) 
0.020051

>  <r_epik_Ionization_Penalty_Charging>  (351) 
0.020051

>  <r_epik_Ionization_Penalty_Neutral>  (351) 
0

>  <r_epik_State_Penalty>  (351) 
0.0160495

>  <r_epik_Charging_Adjusted_Penalty>  (351) 
0.0361005

>  <i_epik_Tot_Q>  (351) 
1

>  <i_epik_Tot_abs_Q>  (351) 
1

>  <s_lp_Force_Field>  (351) 
OPLS3e

>  <r_lp_Energy>  (351) 
50.0415

>  <b_lp_Chiralities_Consistent>  (351) 
1

>  <s_lp_Variant>  (351) 
109:0-1

>  <s_i_glide_gridfile>  (351) 
pfpi4k_grid

>  <i_i_glide_lignum>  (351) 
32

>  <i_i_glide_rotatable_bonds>  (351) 
1

>  <r_i_docking_score>  (351) 
-2.76752

>  <r_i_glide_ligand_efficiency>  (351) 
-0.0954318

>  <r_i_glide_ligand_efficiency_sa>  (351) 
-0.293197

>  <r_i_glide_ligand_efficiency_ln>  (351) 
-0.633692

>  <r_i_glide_gscore>  (351) 
-2.76752

>  <r_i_glide_lipo>  (351) 
-0.445509

>  <r_i_glide_hbond>  (351) 
0

>  <r_i_glide_metal>  (351) 
-0

>  <r_i_glide_rewards>  (351) 
-0.664159

>  <r_i_glide_evdw>  (351) 
-29.5654

>  <r_i_glide_ecoul>  (351) 
-1.44128

>  <r_i_glide_erotb>  (351) 
0.121085

>  <r_i_glide_esite>  (351) 
-0.0844775

>  <r_i_glide_emodel>  (351) 
-34.2488

>  <r_i_glide_energy>  (351) 
-31.0067

>  <r_i_glide_einternal>  (351) 
0.337544

>  <r_i_glide_intrahb_reward>  (351) 
-0

>  <i_i_glide_confnum>  (351) 
2

>  <i_i_glide_posenum>  (351) 
36

>  <r_i_glide_eff_state_penalty>  (351) 
0

>  <ligand_id>  (351) 
109

>  <original_smiles>  (351) 
CC1(C)C2CC(N3CCC4(CC3)OOC3(O4)C4CC5CC(C4)CC3C5)CCC21C

>  <smiles>  (351) 
[H]C([H])([H])C1(C([H])([H])[H])C2([H])C([H])([H])C([H])([N+]3([H])C([H])([H])C([H])([H])C4(OOC5(O4)C4([H])C([H])([H])C6([H])C([H])([H])C([H])(C4([H])[H])C([H])([H])C5([H])C6([H])[H])C([H])([H])C3([H])[H])C([H])([H])C([H])([H])C21C([H])([H])[H]

$$$$
109:1:0
     RDKit          3D

 68 74  0  0  1  0  0  0  0  0999 V2000
    2.5079   -2.9745   -3.6982 C   0  0  0  0  0  0  0  0  0  0  0  0
    3.1392   -2.9664   -2.3154 C   0  0  0  0  0  0  0  0  0  0  0  0
    2.1331   -3.6065   -1.3388 C   0  0  0  0  0  0  0  0  0  0  0  0
    4.6512   -3.1373   -2.1958 C   0  0  2  0  0  0  0  0  0  0  0  0
    5.3468   -3.9268   -1.1014 C   0  0  0  0  0  0  0  0  0  0  0  0
    4.9980   -3.5392    0.3521 C   0  0  1  0  0  0  0  0  0  0  0  0
    5.7692   -4.2327    1.3956 N   0  0  0  0  0  0  0  0  0  0  0  0
    5.1056   -4.1082    2.7172 C   0  0  0  0  0  0  0  0  0  0  0  0
    3.7390   -4.8593    2.8636 C   0  0  0  0  0  0  0  0  0  0  0  0
    3.9133   -6.3536    2.5365 C   0  0  1  0  0  0  0  0  0  0  0  0
    4.5876   -6.4806    1.1532 C   0  0  0  0  0  0  0  0  0  0  0  0
    5.9174   -5.6746    1.1089 C   0  0  0  0  0  0  0  0  0  0  0  0
    4.7934   -6.8509    3.5121 O   0  0  0  0  0  0  0  0  0  0  0  0
    3.8770   -7.3886    4.5371 O   0  0  0  0  0  0  0  0  0  0  0  0
    2.8669   -7.9718    3.7530 C   0  0  2  0  0  0  0  0  0  0  0  0
    2.6775   -7.0946    2.6386 O   0  0  0  0  0  0  0  0  0  0  0  0
    1.5774   -8.1830    4.6061 C   0  0  2  0  0  0  0  0  0  0  0  0
    1.9141   -9.0736    5.8247 C   0  0  0  0  0  0  0  0  0  0  0  0
    2.4305  -10.4478    5.3514 C   0  0  1  0  0  0  0  0  0  0  0  0
    1.3310  -11.1512    4.5360 C   0  0  0  0  0  0  0  0  0  0  0  0
    0.9900  -10.2770    3.3079 C   0  0  1  0  0  0  0  0  0  0  0  0
    0.4771   -8.8974    3.7773 C   0  0  0  0  0  0  0  0  0  0  0  0
    2.2528  -10.0767    2.4511 C   0  0  0  0  0  0  0  0  0  0  0  0
    3.3547   -9.3651    3.2719 C   0  0  2  0  0  0  0  0  0  0  0  0
    3.6934  -10.2390    4.4978 C   0  0  0  0  0  0  0  0  0  0  0  0
    4.9671   -1.9952    0.4973 C   0  0  0  0  0  0  0  0  0  0  0  0
    4.0010   -1.2811   -0.4676 C   0  0  0  0  0  0  0  0  0  0  0  0
    4.0256   -1.7788   -1.9109 C   0  0  2  0  0  0  0  0  0  0  0  0
    4.2177   -0.6389   -2.9011 C   0  0  0  0  0  0  0  0  0  0  0  0
    2.1996   -3.9819   -3.9727 H   0  0  0  0  0  0  0  0  0  0  0  0
    3.1908   -2.6423   -4.4748 H   0  0  0  0  0  0  0  0  0  0  0  0
    1.6477   -2.3033   -3.6968 H   0  0  0  0  0  0  0  0  0  0  0  0
    2.4186   -3.5647   -0.2962 H   0  0  0  0  0  0  0  0  0  0  0  0
    1.9175   -4.6542   -1.5694 H   0  0  0  0  0  0  0  0  0  0  0  0
    1.1707   -3.0698   -1.3260 H   0  0  0  0  0  0  0  0  0  0  0  0
    5.1723   -3.2435   -3.1412 H   0  0  0  0  0  0  0  0  0  0  0  0
    5.0882   -4.9626   -1.3231 H   0  0  0  0  0  0  0  0  0  0  0  0
    6.4242   -3.8117   -1.2316 H   0  0  0  0  0  0  0  0  0  0  0  0
    4.0382   -3.9446    0.5678 H   0  0  0  0  0  0  0  0  0  0  0  0
    5.8150   -4.4867    3.4499 H   0  0  0  0  0  0  0  0  0  0  0  0
    4.9794   -3.0639    3.0007 H   0  0  0  0  0  0  0  0  0  0  0  0
    3.3650   -4.7249    3.8830 H   0  0  0  0  0  0  0  0  0  0  0  0
    2.9422   -4.4221    2.2563 H   0  0  0  0  0  0  0  0  0  0  0  0
    4.7922   -7.5260    0.9124 H   0  0  0  0  0  0  0  0  0  0  0  0
    3.9022   -6.1474    0.3726 H   0  0  0  0  0  0  0  0  0  0  0  0
    6.4282   -5.8256    0.1529 H   0  0  0  0  0  0  0  0  0  0  0  0
    6.6171   -6.0747    1.8367 H   0  0  0  0  0  0  0  0  0  0  0  0
    1.1975   -7.2212    4.9556 H   0  0  0  0  0  0  0  0  0  0  0  0
    2.6669   -8.6016    6.4627 H   0  0  0  0  0  0  0  0  0  0  0  0
    1.0406   -9.2175    6.4634 H   0  0  0  0  0  0  0  0  0  0  0  0
    2.6790  -11.0589    6.2165 H   0  0  0  0  0  0  0  0  0  0  0  0
    1.6501  -12.1483    4.2306 H   0  0  0  0  0  0  0  0  0  0  0  0
    0.4445  -11.2995    5.1523 H   0  0  0  0  0  0  0  0  0  0  0  0
    0.2198  -10.7776    2.7207 H   0  0  0  0  0  0  0  0  0  0  0  0
   -0.4275   -9.0297    4.3813 H   0  0  0  0  0  0  0  0  0  0  0  0
    0.1938   -8.2940    2.9170 H   0  0  0  0  0  0  0  0  0  0  0  0
    2.6258  -11.0439    2.0986 H   0  0  0  0  0  0  0  0  0  0  0  0
    2.0111   -9.5059    1.5571 H   0  0  0  0  0  0  0  0  0  0  0  0
    4.2485   -9.2623    2.6472 H   0  0  0  0  0  0  0  0  0  0  0  0
    4.4697   -9.7609    5.1019 H   0  0  0  0  0  0  0  0  0  0  0  0
    4.1092  -11.2007    4.1901 H   0  0  0  0  0  0  0  0  0  0  0  0
    4.6591   -1.6706    1.4886 H   0  0  0  0  0  0  0  0  0  0  0  0
    5.9774   -1.6260    0.3380 H   0  0  0  0  0  0  0  0  0  0  0  0
    2.9769   -1.3450   -0.1038 H   0  0  0  0  0  0  0  0  0  0  0  0
    4.2214   -0.2120   -0.4333 H   0  0  0  0  0  0  0  0  0  0  0  0
    5.0842   -0.0324   -2.6371 H   0  0  0  0  0  0  0  0  0  0  0  0
    3.3228   -0.0108   -2.9381 H   0  0  0  0  0  0  0  0  0  0  0  0
    4.4248   -0.9993   -3.9075 H   0  0  0  0  0  0  0  0  0  0  0  0
  1  2  1  0
  1 30  1  0
  1 31  1  0
  1 32  1  0
  2 28  1  0
  2  3  1  0
  2  4  1  0
  3 33  1  0
  3 34  1  0
  3 35  1  0
  4 28  1  0
  4  5  1  0
  4 36  1  6
  5  6  1  0
  5 37  1  0
  5 38  1  0
  6  7  1  0
  6 26  1  0
  6 39  1  1
  7 12  1  0
  7  8  1  0
  8  9  1  0
  8 40  1  0
  8 41  1  0
  9 10  1  0
  9 42  1  0
  9 43  1  0
 10 16  1  6
 10 11  1  0
 10 13  1  0
 11 12  1  0
 11 44  1  0
 11 45  1  0
 12 46  1  0
 12 47  1  0
 13 14  1  0
 15 14  1  1
 15 24  1  0
 15 16  1  0
 15 17  1  0
 17 22  1  0
 17 18  1  0
 17 48  1  1
 18 19  1  0
 18 49  1  0
 18 50  1  0
 19 25  1  0
 19 20  1  0
 19 51  1  1
 20 21  1  0
 20 52  1  0
 20 53  1  0
 21 22  1  0
 21 23  1  0
 21 54  1  6
 22 55  1  0
 22 56  1  0
 23 24  1  0
 23 57  1  0
 23 58  1  0
 24 25  1  0
 24 59  1  6
 25 60  1  0
 25 61  1  0
 26 27  1  0
 26 62  1  0
 26 63  1  0
 27 28  1  0
 27 64  1  0
 27 65  1  0
 28 29  1  6
 29 66  1  0
 29 67  1  0
 29 68  1  0
M  END
>  <i_m_ct_stereo_status>  (352) 
1

>  <s_m_source_file>  (352) 
/var/tmp/pbs.5076255.sched01/tmpalt_vnqi/12934k3la1h.sdf

>  <i_m_source_file_index>  (352) 
33

>  <i_lp_mmshare_version>  (352) 
48012

>  <i_f3d_flags>  (352) 
0

>  <s_epik_input>  (352) 
W0NIM11DMShbQ0gzXSlbQ0BASF0oW0NAQF0xMltDSDNdKVtDSDJdW0NASF0oW0NIMl1bQ0gyXTIpTihbQ0gyXVtDSDJdMylbQ0gyXVtDSDJdQzM0T09bQ0BdNShPNClbQ0BIXTZbQ0gyXVtDQEBIXTdbQ0gyXVtDQEhdKFtDSDJdNilbQ0gyXVtDQEhdNVtDSDJdNw==

>  <s_epik_cmdline>  (352) 
J2VwaWtfcHl0aG9uJywgJy1waHQnLCAnMi4wJywgJy1waCcsICc3LjAnLCAnLXRuJywgJzgnLCAnLW1hJywgJzIwMCcsICctaW1hZScsICc8aW5maWxlLm1hZT4nLCAnLW9tYWUnLCAnPG91dGZpbGUubWFlPic=

>  <r_epik_Ionization_Penalty>  (352) 
2.01618

>  <r_epik_Ionization_Penalty_Charging>  (352) 
0

>  <r_epik_Ionization_Penalty_Neutral>  (352) 
2.01618

>  <r_epik_State_Penalty>  (352) 
2.14608

>  <r_epik_Charging_Adjusted_Penalty>  (352) 
2.14608

>  <i_epik_Tot_Q>  (352) 
0

>  <i_epik_Tot_abs_Q>  (352) 
0

>  <s_lp_Force_Field>  (352) 
OPLS3e

>  <r_lp_Energy>  (352) 
51.5741

>  <b_lp_Chiralities_Consistent>  (352) 
1

>  <s_lp_Variant>  (352) 
109:0-2

>  <s_i_glide_gridfile>  (352) 
pfpi4k_grid

>  <i_i_glide_lignum>  (352) 
33

>  <i_i_glide_rotatable_bonds>  (352) 
1

>  <r_i_docking_score>  (352) 
-3.11394

>  <r_i_glide_ligand_efficiency>  (352) 
-0.107377

>  <r_i_glide_ligand_efficiency_sa>  (352) 
-0.329897

>  <r_i_glide_ligand_efficiency_ln>  (352) 
-0.713014

>  <r_i_glide_gscore>  (352) 
-3.11394

>  <r_i_glide_lipo>  (352) 
-0.838707

>  <r_i_glide_hbond>  (352) 
0

>  <r_i_glide_metal>  (352) 
-0

>  <r_i_glide_rewards>  (352) 
-0.671031

>  <r_i_glide_evdw>  (352) 
-32.4314

>  <r_i_glide_ecoul>  (352) 
-0.686737

>  <r_i_glide_erotb>  (352) 
0.121633

>  <r_i_glide_esite>  (352) 
-0.00125553

>  <r_i_glide_emodel>  (352) 
-37.4335

>  <r_i_glide_energy>  (352) 
-33.1181

>  <r_i_glide_einternal>  (352) 
0.0530232

>  <r_i_glide_intrahb_reward>  (352) 
-0

>  <i_i_glide_confnum>  (352) 
1

>  <i_i_glide_posenum>  (352) 
12

>  <r_i_glide_eff_state_penalty>  (352) 
0

>  <ligand_id>  (352) 
109

>  <original_smiles>  (352) 
CC1(C)C2CC(N3CCC4(CC3)OOC3(O4)C4CC5CC(C4)CC3C5)CCC21C

>  <smiles>  (352) 
[H]C([H])([H])C1(C([H])([H])[H])C2([H])C([H])([H])C([H])(N3C([H])([H])C([H])([H])C4(OOC5(O4)C4([H])C([H])([H])C6([H])C([H])([H])C([H])(C4([H])[H])C([H])([H])C5([H])C6([H])[H])C([H])([H])C3([H])[H])C([H])([H])C([H])([H])C21C([H])([H])[H]

$$$$
109:1:1
     RDKit          3D

 68 74  0  0  1  0  0  0  0  0999 V2000
    2.5253   -3.0304   -3.7234 C   0  0  0  0  0  0  0  0  0  0  0  0
    3.1181   -2.9983   -2.3256 C   0  0  0  0  0  0  0  0  0  0  0  0
    2.0813   -3.6067   -1.3607 C   0  0  0  0  0  0  0  0  0  0  0  0
    4.6280   -3.1756   -2.1597 C   0  0  2  0  0  0  0  0  0  0  0  0
    5.2821   -3.9467   -1.0221 C   0  0  0  0  0  0  0  0  0  0  0  0
    4.8905   -3.5165    0.4091 C   0  0  1  0  0  0  0  0  0  0  0  0
    5.6410   -4.1861    1.4829 N   0  0  0  0  0  0  0  0  0  0  0  0
    5.0540   -3.8987    2.8131 C   0  0  0  0  0  0  0  0  0  0  0  0
    3.6253   -4.4879    3.0465 C   0  0  0  0  0  0  0  0  0  0  0  0
    3.6442   -6.0169    2.8589 C   0  0  1  0  0  0  0  0  0  0  0  0
    4.2563   -6.3342    1.4742 C   0  0  0  0  0  0  0  0  0  0  0  0
    5.6475   -5.6564    1.3132 C   0  0  0  0  0  0  0  0  0  0  0  0
    4.5106   -6.5040    3.8580 O   0  0  0  0  0  0  0  0  0  0  0  0
    3.5853   -6.8570    4.9515 O   0  0  0  0  0  0  0  0  0  0  0  0
    2.4972   -7.4114    4.2545 C   0  0  2  0  0  0  0  0  0  0  0  0
    2.3479   -6.6209    3.0633 O   0  0  0  0  0  0  0  0  0  0  0  0
    1.2293   -7.4171    5.1615 C   0  0  2  0  0  0  0  0  0  0  0  0
    1.5266   -8.2196    6.4519 C   0  0  0  0  0  0  0  0  0  0  0  0
    1.8966   -9.6737    6.0963 C   0  0  1  0  0  0  0  0  0  0  0  0
    0.7090  -10.3325    5.3781 C   0  0  0  0  0  0  0  0  0  0  0  0
    0.4047   -9.5517    4.0797 C   0  0  1  0  0  0  0  0  0  0  0  0
    0.0383   -8.0937    4.4334 C   0  0  0  0  0  0  0  0  0  0  0  0
    1.6443   -9.5631    3.1662 C   0  0  0  0  0  0  0  0  0  0  0  0
    2.8363   -8.8845    3.8917 C   0  0  2  0  0  0  0  0  0  0  0  0
    3.1390   -9.6679    5.1892 C   0  0  0  0  0  0  0  0  0  0  0  0
    4.8698   -1.9680    0.5041 C   0  0  0  0  0  0  0  0  0  0  0  0
    3.9338   -1.2787   -0.4978 C   0  0  0  0  0  0  0  0  0  0  0  0
    3.9980   -1.8033   -1.9217 C   0  0  2  0  0  0  0  0  0  0  0  0
    4.2190   -0.6843   -2.9269 C   0  0  0  0  0  0  0  0  0  0  0  0
    2.2160   -4.0436   -3.9853 H   0  0  0  0  0  0  0  0  0  0  0  0
    3.2293   -2.7160   -4.4882 H   0  0  0  0  0  0  0  0  0  0  0  0
    1.6649   -2.3594   -3.7590 H   0  0  0  0  0  0  0  0  0  0  0  0
    2.3524   -3.5516   -0.3132 H   0  0  0  0  0  0  0  0  0  0  0  0
    1.8716   -4.6497   -1.5841 H   0  0  0  0  0  0  0  0  0  0  0  0
    1.1345   -3.0518   -1.3855 H   0  0  0  0  0  0  0  0  0  0  0  0
    5.1736   -3.2993   -3.0864 H   0  0  0  0  0  0  0  0  0  0  0  0
    5.0333   -4.9900   -1.2221 H   0  0  0  0  0  0  0  0  0  0  0  0
    6.3656   -3.8379   -1.1236 H   0  0  0  0  0  0  0  0  0  0  0  0
    3.9246   -3.9055    0.6289 H   0  0  0  0  0  0  0  0  0  0  0  0
    5.7505   -4.2932    3.5501 H   0  0  0  0  0  0  0  0  0  0  0  0
    5.0530   -2.8305    3.0298 H   0  0  0  0  0  0  0  0  0  0  0  0
    3.2941   -4.2254    4.0550 H   0  0  0  0  0  0  0  0  0  0  0  0
    2.8687   -4.0276    2.4052 H   0  0  0  0  0  0  0  0  0  0  0  0
    4.3567   -7.4120    1.3340 H   0  0  0  0  0  0  0  0  0  0  0  0
    3.5781   -6.0207    0.6797 H   0  0  0  0  0  0  0  0  0  0  0  0
    6.0999   -5.9380    0.3574 H   0  0  0  0  0  0  0  0  0  0  0  0
    6.3342   -6.0591    2.0526 H   0  0  0  0  0  0  0  0  0  0  0  0
    0.9534   -6.3951    5.4285 H   0  0  0  0  0  0  0  0  0  0  0  0
    2.3432   -7.7637    7.0185 H   0  0  0  0  0  0  0  0  0  0  0  0
    0.6667   -8.2174    7.1235 H   0  0  0  0  0  0  0  0  0  0  0  0
    2.1166  -10.2358    7.0053 H   0  0  0  0  0  0  0  0  0  0  0  0
    0.9194  -11.3804    5.1626 H   0  0  0  0  0  0  0  0  0  0  0  0
   -0.1632  -10.3410    6.0304 H   0  0  0  0  0  0  0  0  0  0  0  0
   -0.4345  -10.0302    3.5739 H   0  0  0  0  0  0  0  0  0  0  0  0
   -0.8512   -8.0850    5.0712 H   0  0  0  0  0  0  0  0  0  0  0  0
   -0.2205   -7.5459    3.5288 H   0  0  0  0  0  0  0  0  0  0  0  0
    1.9049  -10.5928    2.8987 H   0  0  0  0  0  0  0  0  0  0  0  0
    1.4246   -9.0514    2.2304 H   0  0  0  0  0  0  0  0  0  0  0  0
    3.7141   -8.9218    3.2396 H   0  0  0  0  0  0  0  0  0  0  0  0
    3.9787   -9.2123    5.7214 H   0  0  0  0  0  0  0  0  0  0  0  0
    3.4520  -10.6895    4.9644 H   0  0  0  0  0  0  0  0  0  0  0  0
    4.5139   -1.5963    1.4618 H   0  0  0  0  0  0  0  0  0  0  0  0
    5.8873   -1.6060    0.3691 H   0  0  0  0  0  0  0  0  0  0  0  0
    2.9020   -1.3324   -0.1523 H   0  0  0  0  0  0  0  0  0  0  0  0
    4.1656   -0.2128   -0.4749 H   0  0  0  0  0  0  0  0  0  0  0  0
    5.0775   -0.0749   -2.6379 H   0  0  0  0  0  0  0  0  0  0  0  0
    3.3267   -0.0540   -3.0016 H   0  0  0  0  0  0  0  0  0  0  0  0
    4.4542   -1.0631   -3.9199 H   0  0  0  0  0  0  0  0  0  0  0  0
  1  2  1  0
  1 30  1  0
  1 31  1  0
  1 32  1  0
  2 28  1  0
  2  3  1  0
  2  4  1  0
  3 33  1  0
  3 34  1  0
  3 35  1  0
  4 28  1  0
  4  5  1  0
  4 36  1  6
  5  6  1  0
  5 37  1  0
  5 38  1  0
  6  7  1  0
  6 26  1  0
  6 39  1  1
  7 12  1  0
  7  8  1  0
  8  9  1  0
  8 40  1  0
  8 41  1  0
  9 10  1  0
  9 42  1  0
  9 43  1  0
 10 16  1  6
 10 11  1  0
 10 13  1  0
 11 12  1  0
 11 44  1  0
 11 45  1  0
 12 46  1  0
 12 47  1  0
 13 14  1  0
 15 14  1  1
 15 24  1  0
 15 16  1  0
 15 17  1  0
 17 22  1  0
 17 18  1  0
 17 48  1  1
 18 19  1  0
 18 49  1  0
 18 50  1  0
 19 25  1  0
 19 20  1  0
 19 51  1  1
 20 21  1  0
 20 52  1  0
 20 53  1  0
 21 22  1  0
 21 23  1  0
 21 54  1  6
 22 55  1  0
 22 56  1  0
 23 24  1  0
 23 57  1  0
 23 58  1  0
 24 25  1  0
 24 59  1  6
 25 60  1  0
 25 61  1  0
 26 27  1  0
 26 62  1  0
 26 63  1  0
 27 28  1  0
 27 64  1  0
 27 65  1  0
 28 29  1  6
 29 66  1  0
 29 67  1  0
 29 68  1  0
M  END
>  <i_m_ct_stereo_status>  (353) 
1

>  <s_m_source_file>  (353) 
/var/tmp/pbs.5076255.sched01/tmpalt_vnqi/12934k3la1h.sdf

>  <i_m_source_file_index>  (353) 
33

>  <i_lp_mmshare_version>  (353) 
48012

>  <i_f3d_flags>  (353) 
0

>  <s_epik_input>  (353) 
W0NIM11DMShbQ0gzXSlbQ0BASF0oW0NAQF0xMltDSDNdKVtDSDJdW0NASF0oW0NIMl1bQ0gyXTIpTihbQ0gyXVtDSDJdMylbQ0gyXVtDSDJdQzM0T09bQ0BdNShPNClbQ0BIXTZbQ0gyXVtDQEBIXTdbQ0gyXVtDQEhdKFtDSDJdNilbQ0gyXVtDQEhdNVtDSDJdNw==

>  <s_epik_cmdline>  (353) 
J2VwaWtfcHl0aG9uJywgJy1waHQnLCAnMi4wJywgJy1waCcsICc3LjAnLCAnLXRuJywgJzgnLCAnLW1hJywgJzIwMCcsICctaW1hZScsICc8aW5maWxlLm1hZT4nLCAnLW9tYWUnLCAnPG91dGZpbGUubWFlPic=

>  <r_epik_Ionization_Penalty>  (353) 
2.01618

>  <r_epik_Ionization_Penalty_Charging>  (353) 
0

>  <r_epik_Ionization_Penalty_Neutral>  (353) 
2.01618

>  <r_epik_State_Penalty>  (353) 
2.14608

>  <r_epik_Charging_Adjusted_Penalty>  (353) 
2.14608

>  <i_epik_Tot_Q>  (353) 
0

>  <i_epik_Tot_abs_Q>  (353) 
0

>  <s_lp_Force_Field>  (353) 
OPLS3e

>  <r_lp_Energy>  (353) 
51.5741

>  <b_lp_Chiralities_Consistent>  (353) 
1

>  <s_lp_Variant>  (353) 
109:0-2

>  <s_i_glide_gridfile>  (353) 
pfpi4k_grid

>  <i_i_glide_lignum>  (353) 
33

>  <i_i_glide_rotatable_bonds>  (353) 
1

>  <r_i_docking_score>  (353) 
-2.74489

>  <r_i_glide_ligand_efficiency>  (353) 
-0.0946515

>  <r_i_glide_ligand_efficiency_sa>  (353) 
-0.290799

>  <r_i_glide_ligand_efficiency_ln>  (353) 
-0.628511

>  <r_i_glide_gscore>  (353) 
-2.74489

>  <r_i_glide_lipo>  (353) 
-0.627725

>  <r_i_glide_hbond>  (353) 
0

>  <r_i_glide_metal>  (353) 
-0

>  <r_i_glide_rewards>  (353) 
-0.671031

>  <r_i_glide_evdw>  (353) 
-29.9886

>  <r_i_glide_ecoul>  (353) 
-0.452763

>  <r_i_glide_erotb>  (353) 
0.121633

>  <r_i_glide_esite>  (353) 
-0.000423934

>  <r_i_glide_emodel>  (353) 
-34.2163

>  <r_i_glide_energy>  (353) 
-30.4414

>  <r_i_glide_einternal>  (353) 
0.313263

>  <r_i_glide_intrahb_reward>  (353) 
-0

>  <i_i_glide_confnum>  (353) 
1

>  <i_i_glide_posenum>  (353) 
38

>  <r_i_glide_eff_state_penalty>  (353) 
0

>  <ligand_id>  (353) 
109

>  <original_smiles>  (353) 
CC1(C)C2CC(N3CCC4(CC3)OOC3(O4)C4CC5CC(C4)CC3C5)CCC21C

>  <smiles>  (353) 
[H]C([H])([H])C1(C([H])([H])[H])C2([H])C([H])([H])C([H])(N3C([H])([H])C([H])([H])C4(OOC5(O4)C4([H])C([H])([H])C6([H])C([H])([H])C([H])(C4([H])[H])C([H])([H])C5([H])C6([H])[H])C([H])([H])C3([H])[H])C([H])([H])C([H])([H])C21C([H])([H])[H]

$$$$
109:1:2
     RDKit          3D

 68 74  0  0  1  0  0  0  0  0999 V2000
   -2.2274    4.0746    8.5727 C   0  0  0  0  0  0  0  0  0  0  0  0
   -1.5186    3.0916    7.6497 C   0  0  0  0  0  0  0  0  0  0  0  0
   -2.4778    2.8102    6.4881 C   0  0  0  0  0  0  0  0  0  0  0  0
   -0.0027    3.1743    7.4913 C   0  0  2  0  0  0  0  0  0  0  0  0
    0.7697    2.9396    6.1866 C   0  0  0  0  0  0  0  0  0  0  0  0
    0.4970    1.5888    5.4652 C   0  0  1  0  0  0  0  0  0  0  0  0
    1.3768    1.3709    4.3229 N   0  0  0  0  0  0  0  0  0  0  0  0
    2.6697    0.8579    4.7473 C   0  0  0  0  0  0  0  0  0  0  0  0
    3.6030    0.8716    3.5612 C   0  0  0  0  0  0  0  0  0  0  0  0
    3.0717    0.0492    2.3722 C   0  0  1  0  0  0  0  0  0  0  0  0
    1.6245    0.4635    2.0701 C   0  0  0  0  0  0  0  0  0  0  0  0
    0.7611    0.4739    3.3296 C   0  0  0  0  0  0  0  0  0  0  0  0
    3.8766    0.3916    1.2792 O   0  0  0  0  0  0  0  0  0  0  0  0
    4.9327   -0.6465    1.3190 O   0  0  0  0  0  0  0  0  0  0  0  0
    4.1836   -1.7941    1.6703 C   0  0  2  0  0  0  0  0  0  0  0  0
    3.2076   -1.3743    2.6041 O   0  0  0  0  0  0  0  0  0  0  0  0
    5.1204   -2.9228    2.2280 C   0  0  2  0  0  0  0  0  0  0  0  0
    6.1845   -3.2664    1.1638 C   0  0  0  0  0  0  0  0  0  0  0  0
    5.5162   -3.7788   -0.1274 C   0  0  1  0  0  0  0  0  0  0  0  0
    4.7235   -5.0600    0.1869 C   0  0  0  0  0  0  0  0  0  0  0  0
    3.6448   -4.7350    1.2428 C   0  0  1  0  0  0  0  0  0  0  0  0
    4.3127   -4.2146    2.5359 C   0  0  0  0  0  0  0  0  0  0  0  0
    2.7004   -3.6468    0.6999 C   0  0  0  0  0  0  0  0  0  0  0  0
    3.5012   -2.3563    0.3906 C   0  0  2  0  0  0  0  0  0  0  0  0
    4.5754   -2.6841   -0.6609 C   0  0  0  0  0  0  0  0  0  0  0  0
    0.4421    0.4238    6.5102 C   0  0  0  0  0  0  0  0  0  0  0  0
   -0.5707    0.6124    7.6464 C   0  0  0  0  0  0  0  0  0  0  0  0
   -0.6054    2.0106    8.2726 C   0  0  2  0  0  0  0  0  0  0  0  0
   -0.4606    1.9291    9.8011 C   0  0  0  0  0  0  0  0  0  0  0  0
   -2.5368    4.9626    8.0185 H   0  0  0  0  0  0  0  0  0  0  0  0
   -1.5918    4.4402    9.3749 H   0  0  0  0  0  0  0  0  0  0  0  0
   -3.0974    3.5743    9.0119 H   0  0  0  0  0  0  0  0  0  0  0  0
   -2.1097    2.0369    5.8065 H   0  0  0  0  0  0  0  0  0  0  0  0
   -2.6403    3.7274    5.8981 H   0  0  0  0  0  0  0  0  0  0  0  0
   -3.4128    2.3711    6.8581 H   0  0  0  0  0  0  0  0  0  0  0  0
    0.4920    3.9351    8.0975 H   0  0  0  0  0  0  0  0  0  0  0  0
    0.5645    3.7772    5.5226 H   0  0  0  0  0  0  0  0  0  0  0  0
    1.8205    3.0324    6.4624 H   0  0  0  0  0  0  0  0  0  0  0  0
   -0.4338    1.6564    4.8974 H   0  0  0  0  0  0  0  0  0  0  0  0
    3.0696    1.5026    5.5332 H   0  0  0  0  0  0  0  0  0  0  0  0
    2.5675   -0.1494    5.1317 H   0  0  0  0  0  0  0  0  0  0  0  0
    3.6743    1.9260    3.2779 H   0  0  0  0  0  0  0  0  0  0  0  0
    4.5984    0.5570    3.8947 H   0  0  0  0  0  0  0  0  0  0  0  0
    1.6170    1.4842    1.6789 H   0  0  0  0  0  0  0  0  0  0  0  0
    1.1767   -0.1568    1.2884 H   0  0  0  0  0  0  0  0  0  0  0  0
    0.6509   -0.5257    3.7278 H   0  0  0  0  0  0  0  0  0  0  0  0
   -0.2524    0.8042    3.0672 H   0  0  0  0  0  0  0  0  0  0  0  0
    5.6092   -2.5840    3.1455 H   0  0  0  0  0  0  0  0  0  0  0  0
    6.8040   -2.3955    0.9355 H   0  0  0  0  0  0  0  0  0  0  0  0
    6.8784   -4.0245    1.5369 H   0  0  0  0  0  0  0  0  0  0  0  0
    6.2679   -3.9998   -0.8743 H   0  0  0  0  0  0  0  0  0  0  0  0
    4.2674   -5.4667   -0.7161 H   0  0  0  0  0  0  0  0  0  0  0  0
    5.3941   -5.8339    0.5600 H   0  0  0  0  0  0  0  0  0  0  0  0
    3.0765   -5.6414    1.4550 H   0  0  0  0  0  0  0  0  0  0  0  0
    4.9809   -4.9878    2.9370 H   0  0  0  0  0  0  0  0  0  0  0  0
    3.5612   -4.0302    3.3000 H   0  0  0  0  0  0  0  0  0  0  0  0
    2.2089   -4.0008   -0.2120 H   0  0  0  0  0  0  0  0  0  0  0  0
    1.9173   -3.4393    1.4236 H   0  0  0  0  0  0  0  0  0  0  0  0
    2.8106   -1.6039   -0.0140 H   0  0  0  0  0  0  0  0  0  0  0  0
    5.1514   -1.7863   -0.8999 H   0  0  0  0  0  0  0  0  0  0  0  0
    4.1128   -3.0010   -1.5971 H   0  0  0  0  0  0  0  0  0  0  0  0
    0.2306   -0.5244    6.0115 H   0  0  0  0  0  0  0  0  0  0  0  0
    1.3969    0.3225    7.0221 H   0  0  0  0  0  0  0  0  0  0  0  0
   -1.5705    0.3900    7.2813 H   0  0  0  0  0  0  0  0  0  0  0  0
   -0.3640   -0.1355    8.4192 H   0  0  0  0  0  0  0  0  0  0  0  0
    0.4204    1.3553   10.1096 H   0  0  0  0  0  0  0  0  0  0  0  0
   -1.3712    1.5033   10.2407 H   0  0  0  0  0  0  0  0  0  0  0  0
   -0.3180    2.9128   10.2501 H   0  0  0  0  0  0  0  0  0  0  0  0
  1  2  1  0
  1 30  1  0
  1 31  1  0
  1 32  1  0
  2 28  1  0
  2  3  1  0
  2  4  1  0
  3 33  1  0
  3 34  1  0
  3 35  1  0
  4 28  1  0
  4  5  1  0
  4 36  1  1
  5  6  1  0
  5 37  1  0
  5 38  1  0
  6  7  1  0
  6 26  1  0
  6 39  1  6
  7 12  1  0
  7  8  1  0
  8  9  1  0
  8 40  1  0
  8 41  1  0
  9 10  1  0
  9 42  1  0
  9 43  1  0
 10 16  1  1
 10 11  1  0
 10 13  1  0
 11 12  1  0
 11 44  1  0
 11 45  1  0
 12 46  1  0
 12 47  1  0
 13 14  1  0
 15 14  1  6
 15 24  1  0
 15 16  1  0
 15 17  1  0
 17 22  1  0
 17 18  1  0
 17 48  1  1
 18 19  1  0
 18 49  1  0
 18 50  1  0
 19 25  1  0
 19 20  1  0
 19 51  1  6
 20 21  1  0
 20 52  1  0
 20 53  1  0
 21 22  1  0
 21 23  1  0
 21 54  1  1
 22 55  1  0
 22 56  1  0
 23 24  1  0
 23 57  1  0
 23 58  1  0
 24 25  1  0
 24 59  1  6
 25 60  1  0
 25 61  1  0
 26 27  1  0
 26 62  1  0
 26 63  1  0
 27 28  1  0
 27 64  1  0
 27 65  1  0
 28 29  1  1
 29 66  1  0
 29 67  1  0
 29 68  1  0
M  END
>  <i_m_ct_stereo_status>  (354) 
1

>  <s_m_source_file>  (354) 
/var/tmp/pbs.5076255.sched01/tmpalt_vnqi/12934k3la1h.sdf

>  <i_m_source_file_index>  (354) 
33

>  <i_lp_mmshare_version>  (354) 
48012

>  <i_f3d_flags>  (354) 
0

>  <s_epik_input>  (354) 
W0NIM11DMShbQ0gzXSlbQ0BASF0oW0NAQF0xMltDSDNdKVtDSDJdW0NASF0oW0NIMl1bQ0gyXTIpTihbQ0gyXVtDSDJdMylbQ0gyXVtDSDJdQzM0T09bQ0BdNShPNClbQ0BIXTZbQ0gyXVtDQEBIXTdbQ0gyXVtDQEhdKFtDSDJdNilbQ0gyXVtDQEhdNVtDSDJdNw==

>  <s_epik_cmdline>  (354) 
J2VwaWtfcHl0aG9uJywgJy1waHQnLCAnMi4wJywgJy1waCcsICc3LjAnLCAnLXRuJywgJzgnLCAnLW1hJywgJzIwMCcsICctaW1hZScsICc8aW5maWxlLm1hZT4nLCAnLW9tYWUnLCAnPG91dGZpbGUubWFlPic=

>  <r_epik_Ionization_Penalty>  (354) 
2.01618

>  <r_epik_Ionization_Penalty_Charging>  (354) 
0

>  <r_epik_Ionization_Penalty_Neutral>  (354) 
2.01618

>  <r_epik_State_Penalty>  (354) 
2.14608

>  <r_epik_Charging_Adjusted_Penalty>  (354) 
2.14608

>  <i_epik_Tot_Q>  (354) 
0

>  <i_epik_Tot_abs_Q>  (354) 
0

>  <s_lp_Force_Field>  (354) 
OPLS3e

>  <r_lp_Energy>  (354) 
51.5741

>  <b_lp_Chiralities_Consistent>  (354) 
1

>  <s_lp_Variant>  (354) 
109:0-2

>  <s_i_glide_gridfile>  (354) 
pfpi4k_grid

>  <i_i_glide_lignum>  (354) 
33

>  <i_i_glide_rotatable_bonds>  (354) 
1

>  <r_i_docking_score>  (354) 
-2.31892

>  <r_i_glide_ligand_efficiency>  (354) 
-0.0799626

>  <r_i_glide_ligand_efficiency_sa>  (354) 
-0.245671

>  <r_i_glide_ligand_efficiency_ln>  (354) 
-0.530973

>  <r_i_glide_gscore>  (354) 
-2.31892

>  <r_i_glide_lipo>  (354) 
-0.419547

>  <r_i_glide_hbond>  (354) 
0

>  <r_i_glide_metal>  (354) 
-0

>  <r_i_glide_rewards>  (354) 
-0.702077

>  <r_i_glide_evdw>  (354) 
-25.8949

>  <r_i_glide_ecoul>  (354) 
-0.155595

>  <r_i_glide_erotb>  (354) 
0.121633

>  <r_i_glide_esite>  (354) 
-0.000840385

>  <r_i_glide_emodel>  (354) 
-29.4893

>  <r_i_glide_energy>  (354) 
-26.0505

>  <r_i_glide_einternal>  (354) 
0.631851

>  <r_i_glide_intrahb_reward>  (354) 
-0

>  <i_i_glide_confnum>  (354) 
4

>  <i_i_glide_posenum>  (354) 
3

>  <r_i_glide_eff_state_penalty>  (354) 
0

>  <ligand_id>  (354) 
109

>  <original_smiles>  (354) 
CC1(C)C2CC(N3CCC4(CC3)OOC3(O4)C4CC5CC(C4)CC3C5)CCC21C

>  <smiles>  (354) 
[H]C([H])([H])C1(C([H])([H])[H])C2([H])C([H])([H])C([H])(N3C([H])([H])C([H])([H])C4(OOC5(O4)C4([H])C([H])([H])C6([H])C([H])([H])C([H])(C4([H])[H])C([H])([H])C5([H])C6([H])[H])C([H])([H])C3([H])[H])C([H])([H])C([H])([H])C21C([H])([H])[H]

$$$$
110:0:0
     RDKit          3D

 69 73  0  0  1  0  0  0  0  0999 V2000
    6.9393   -8.8107    3.7773 C   0  0  0  0  0  0  0  0  0  0  0  0
    5.7885   -7.8334    4.0463 C   0  0  0  0  0  0  0  0  0  0  0  0
    5.4105   -7.8240    5.5329 C   0  0  0  0  0  0  0  0  0  0  0  0
    4.5977   -8.0852    3.1211 C   0  0  0  0  0  0  0  0  0  0  0  0
    4.3905   -9.0688    2.2457 C   0  0  0  0  0  0  0  0  0  0  0  0
    3.1027   -8.7963    1.4758 C   0  0  1  0  0  0  0  0  0  0  0  0
    1.8071   -8.6155    2.3574 C   0  0  2  0  0  0  0  0  0  0  0  0
    1.5778   -7.4477    1.4014 C   0  0  0  0  0  0  0  0  0  0  0  0
    0.6617   -6.9253    0.7306 O   0  0  0  0  0  0  0  0  0  0  0  0
    3.0629   -7.2533    1.6145 C   0  0  2  0  0  0  0  0  0  0  0  0
    3.7724   -6.3028    0.6763 C   0  0  0  0  0  0  0  0  0  0  0  0
    3.1103   -5.0419    0.6633 O   0  0  0  0  0  0  0  0  0  0  0  0
    3.5641   -4.2228   -0.3712 C   0  0  2  0  0  0  0  0  0  0  0  0
    4.5579   -3.3679    0.0903 O   0  0  0  0  0  0  0  0  0  0  0  0
    5.1356   -2.4947   -0.8869 C   0  0  1  0  0  0  0  0  0  0  0  0
    5.9376   -3.2848   -1.9524 C   0  0  0  0  0  0  0  0  0  0  0  0
    4.0395   -1.5715   -1.4560 C   0  0  1  0  0  0  0  0  0  0  0  0
    4.5744   -0.6465   -2.3780 O   0  0  0  0  0  0  0  0  0  0  0  0
    2.8690   -2.3879   -2.0260 C   0  0  1  0  0  0  0  0  0  0  0  0
    3.2213   -3.0438   -3.2383 O   0  0  0  0  0  0  0  0  0  0  0  0
    2.3910   -3.3789   -0.9217 C   0  0  1  0  0  0  0  0  0  0  0  0
    1.3821   -4.1539   -1.4507 O   0  0  0  0  0  0  0  0  0  0  0  0
    3.3925   -7.1433    3.1069 C   0  0  1  0  0  0  0  0  0  0  0  0
    2.2238   -7.9693    3.6995 C   0  0  1  0  0  0  0  0  0  0  0  0
    1.1549   -7.2919    4.6367 C   0  0  1  0  0  0  0  0  0  0  0  0
    1.9037   -6.5921    5.7962 C   0  0  0  0  0  0  0  0  0  0  0  0
    0.2143   -6.2961    3.9270 C   0  0  0  0  0  0  0  0  0  0  0  0
   -0.9510   -7.1393    3.3453 C   0  0  0  0  0  0  0  0  0  0  0  0
   -1.1083   -8.3047    4.3293 C   0  0  0  0  0  0  0  0  0  0  0  0
    0.1429   -8.3264    5.2270 C   0  0  1  0  0  0  0  0  0  0  0  0
    0.6792   -9.7559    5.5017 C   0  0  0  0  0  0  0  0  0  0  0  0
    7.3173   -8.6938    2.7612 H   0  0  0  0  0  0  0  0  0  0  0  0
    6.6250   -9.8458    3.9148 H   0  0  0  0  0  0  0  0  0  0  0  0
    7.7653   -8.6210    4.4622 H   0  0  0  0  0  0  0  0  0  0  0  0
    6.1344   -6.8335    3.7956 H   0  0  0  0  0  0  0  0  0  0  0  0
    4.7040   -7.0239    5.7458 H   0  0  0  0  0  0  0  0  0  0  0  0
    6.2864   -7.6222    6.1517 H   0  0  0  0  0  0  0  0  0  0  0  0
    4.9833   -8.7764    5.8557 H   0  0  0  0  0  0  0  0  0  0  0  0
    5.0584   -9.9100    2.0324 H   0  0  0  0  0  0  0  0  0  0  0  0
    2.9980   -9.2438    0.4761 H   0  0  0  0  0  0  0  0  0  0  0  0
    1.0755   -9.4208    2.3297 H   0  0  0  0  0  0  0  0  0  0  0  0
    4.8136   -6.1517    0.9813 H   0  0  0  0  0  0  0  0  0  0  0  0
    3.8151   -6.7727   -0.3092 H   0  0  0  0  0  0  0  0  0  0  0  0
    3.9996   -4.8403   -1.1533 H   0  0  0  0  0  0  0  0  0  0  0  0
    5.8246   -1.8620   -0.3295 H   0  0  0  0  0  0  0  0  0  0  0  0
    6.3604   -2.6107   -2.7002 H   0  0  0  0  0  0  0  0  0  0  0  0
    5.3207   -4.0247   -2.4785 H   0  0  0  0  0  0  0  0  0  0  0  0
    6.7927   -3.7599   -1.4743 H   0  0  0  0  0  0  0  0  0  0  0  0
    3.6431   -0.9737   -0.6365 H   0  0  0  0  0  0  0  0  0  0  0  0
    3.8631   -0.1209   -2.7263 H   0  0  0  0  0  0  0  0  0  0  0  0
    2.0611   -1.7156   -2.3145 H   0  0  0  0  0  0  0  0  0  0  0  0
    2.9941   -3.9658   -3.1727 H   0  0  0  0  0  0  0  0  0  0  0  0
    1.9499   -2.8353   -0.0800 H   0  0  0  0  0  0  0  0  0  0  0  0
    1.7966   -4.8168   -2.0422 H   0  0  0  0  0  0  0  0  0  0  0  0
    3.5487   -6.1339    3.4790 H   0  0  0  0  0  0  0  0  0  0  0  0
    2.6875   -8.7333    4.3229 H   0  0  0  0  0  0  0  0  0  0  0  0
    1.2348   -6.2438    6.5824 H   0  0  0  0  0  0  0  0  0  0  0  0
    2.4656   -5.7172    5.4614 H   0  0  0  0  0  0  0  0  0  0  0  0
    2.6040   -7.2735    6.2799 H   0  0  0  0  0  0  0  0  0  0  0  0
   -0.1461   -5.5630    4.6590 H   0  0  0  0  0  0  0  0  0  0  0  0
    0.7371   -5.6893    3.1904 H   0  0  0  0  0  0  0  0  0  0  0  0
   -1.8872   -6.5696    3.2967 H   0  0  0  0  0  0  0  0  0  0  0  0
   -0.7341   -7.5601    2.3734 H   0  0  0  0  0  0  0  0  0  0  0  0
   -2.0270   -8.2417    4.9307 H   0  0  0  0  0  0  0  0  0  0  0  0
   -1.1678   -9.2226    3.7643 H   0  0  0  0  0  0  0  0  0  0  0  0
   -0.1760   -7.9396    6.1928 H   0  0  0  0  0  0  0  0  0  0  0  0
    1.0496  -10.2364    4.5926 H   0  0  0  0  0  0  0  0  0  0  0  0
   -0.0956  -10.4066    5.9162 H   0  0  0  0  0  0  0  0  0  0  0  0
    1.5059   -9.7368    6.2165 H   0  0  0  0  0  0  0  0  0  0  0  0
  1  2  1  0
  1 32  1  0
  1 33  1  0
  1 34  1  0
  2  3  1  0
  2  4  1  0
  2 35  1  0
  3 36  1  0
  3 37  1  0
  3 38  1  0
  4 23  1  0
  4  5  2  0
  5  6  1  0
  5 39  1  0
  6 10  1  0
  6  7  1  0
  6 40  1  6
  7 24  1  0
  7  8  1  0
  7 41  1  1
  8  9  2  0
  8 10  1  0
 10 11  1  6
 10 23  1  0
 11 12  1  0
 11 42  1  0
 11 43  1  0
 12 13  1  0
 13 21  1  0
 13 14  1  0
 13 44  1  6
 14 15  1  0
 15 16  1  0
 15 17  1  0
 15 45  1  1
 16 46  1  0
 16 47  1  0
 16 48  1  0
 17 18  1  0
 17 19  1  0
 17 49  1  1
 18 50  1  0
 19 20  1  0
 19 21  1  0
 19 51  1  6
 20 52  1  0
 21 22  1  0
 21 53  1  1
 22 54  1  0
 23 24  1  0
 23 55  1  1
 24 25  1  0
 24 56  1  1
 25 30  1  0
 25 26  1  1
 25 27  1  0
 26 57  1  0
 26 58  1  0
 26 59  1  0
 27 28  1  0
 27 60  1  0
 27 61  1  0
 28 29  1  0
 28 62  1  0
 28 63  1  0
 29 30  1  0
 29 64  1  0
 29 65  1  0
 30 31  1  0
 30 66  1  1
 31 67  1  0
 31 68  1  0
 31 69  1  0
M  END
>  <i_m_ct_stereo_status>  (355) 
1

>  <s_m_source_file>  (355) 
/var/tmp/pbs.5076255.sched01/tmpalt_vnqi/12934k3la1h.sdf

>  <i_m_source_file_index>  (355) 
34

>  <i_lp_mmshare_version>  (355) 
48012

>  <i_f3d_flags>  (355) 
0

>  <s_epik_input>  (355) 
W0NIM11bQ0BASF0xW0NIMl1bQ0gyXVtDSDJdW0NAXTEoW0NIM10pW0NASF0oW0NASF0yQyg9W0NIXTMpW0NIXShbQ0gzXSlbQ0gzXSlbQ0BASF0oQzQ9TylbQ0BIXTNbQ0BdMjRbQ0gyXU9bQ0BASF01T1tDQEBIXShbQ0gzXSlbQ0BASF0oW09IXSlbQ0BASF0oW09IXSlbQ0BIXTVbT0hd

>  <s_epik_cmdline>  (355) 
J2VwaWtfcHl0aG9uJywgJy1waHQnLCAnMi4wJywgJy1waCcsICc3LjAnLCAnLXRuJywgJzgnLCAnLW1hJywgJzIwMCcsICctaW1hZScsICc8aW5maWxlLm1hZT4nLCAnLW9tYWUnLCAnPG91dGZpbGUubWFlPic=

>  <r_lp_tautomer_probability>  (355) 
1

>  <r_epik_Ionization_Penalty>  (355) 
1.78253e-06

>  <r_epik_Ionization_Penalty_Charging>  (355) 
0

>  <r_epik_Ionization_Penalty_Neutral>  (355) 
1.78253e-06

>  <r_epik_State_Penalty>  (355) 
-0

>  <r_epik_Charging_Adjusted_Penalty>  (355) 
0

>  <i_epik_Tot_Q>  (355) 
0

>  <i_epik_Tot_abs_Q>  (355) 
0

>  <s_epik_Chemistry_Notes>  (355) 
This compound contains an acetal/aminal-like group ( X-CH(R)-Y where X, Y are N, S, or O) that may be acid/base labile, releasing an aldehyde.

>  <s_lp_Force_Field>  (355) 
OPLS3e

>  <r_lp_Energy>  (355) 
49.2588

>  <b_lp_Chiralities_Consistent>  (355) 
1

>  <s_lp_Variant>  (355) 
110:0-1

>  <s_i_glide_gridfile>  (355) 
pfpi4k_grid

>  <i_i_glide_lignum>  (355) 
34

>  <i_i_glide_rotatable_bonds>  (355) 
8

>  <r_i_docking_score>  (355) 
-3.58162

>  <r_i_glide_ligand_efficiency>  (355) 
-0.115536

>  <r_i_glide_ligand_efficiency_sa>  (355) 
-0.362943

>  <r_i_glide_ligand_efficiency_ln>  (355) 
-0.807766

>  <r_i_glide_gscore>  (355) 
-3.58162

>  <r_i_glide_lipo>  (355) 
-0.329841

>  <r_i_glide_hbond>  (355) 
-0.0167329

>  <r_i_glide_metal>  (355) 
-0

>  <r_i_glide_rewards>  (355) 
-0.446143

>  <r_i_glide_evdw>  (355) 
-26.2945

>  <r_i_glide_ecoul>  (355) 
-12.2181

>  <r_i_glide_erotb>  (355) 
0.421861

>  <r_i_glide_esite>  (355) 
-0.0633339

>  <r_i_glide_emodel>  (355) 
-42.516

>  <r_i_glide_energy>  (355) 
-38.5125

>  <r_i_glide_einternal>  (355) 
8.12309

>  <r_i_glide_intrahb_reward>  (355) 
-0

>  <i_i_glide_confnum>  (355) 
2

>  <i_i_glide_posenum>  (355) 
6

>  <r_i_glide_eff_state_penalty>  (355) 
0

>  <ligand_id>  (355) 
110

>  <original_smiles>  (355) 
CC(C)C1=CC2C3C(=O)C2(COC2OC(C)C(O)C(O)C2O)C1C3C1(C)CCCC1C

>  <smiles>  (355) 
[H]OC1([H])C([H])(OC([H])([H])C23C(=O)C4([H])C2([H])C([H])=C(C([H])(C([H])([H])[H])C([H])([H])[H])C3([H])C4([H])C2(C([H])([H])[H])C([H])([H])C([H])([H])C([H])([H])C2([H])C([H])([H])[H])OC([H])(C([H])([H])[H])C([H])(O[H])C1([H])O[H]

$$$$
110:0:1
     RDKit          3D

 69 73  0  0  1  0  0  0  0  0999 V2000
    2.3184   -4.1008    6.0720 C   0  0  0  0  0  0  0  0  0  0  0  0
    3.5475   -3.6808    5.2424 C   0  0  0  0  0  0  0  0  0  0  0  0
    3.2036   -2.4801    4.3410 C   0  0  0  0  0  0  0  0  0  0  0  0
    4.1472   -4.8255    4.4300 C   0  0  0  0  0  0  0  0  0  0  0  0
    5.3593   -5.3994    4.5393 C   0  0  0  0  0  0  0  0  0  0  0  0
    5.4993   -6.4838    3.4785 C   0  0  1  0  0  0  0  0  0  0  0  0
    4.3828   -7.6028    3.4975 C   0  0  2  0  0  0  0  0  0  0  0  0
    4.4139   -7.3560    1.9748 C   0  0  0  0  0  0  0  0  0  0  0  0
    4.4081   -8.0001    0.9260 O   0  0  0  0  0  0  0  0  0  0  0  0
    4.5118   -5.9068    2.4389 C   0  0  2  0  0  0  0  0  0  0  0  0
    4.9346   -4.8597    1.4121 C   0  0  0  0  0  0  0  0  0  0  0  0
    3.7682   -4.3133    0.8053 O   0  0  0  0  0  0  0  0  0  0  0  0
    3.9801   -3.7746   -0.4551 C   0  0  2  0  0  0  0  0  0  0  0  0
    4.9047   -2.7285   -0.3832 O   0  0  0  0  0  0  0  0  0  0  0  0
    5.2165   -2.1070   -1.6267 C   0  0  1  0  0  0  0  0  0  0  0  0
    5.9375   -3.1208   -2.5490 C   0  0  0  0  0  0  0  0  0  0  0  0
    3.9323   -1.4696   -2.2104 C   0  0  1  0  0  0  0  0  0  0  0  0
    4.1889   -0.8027   -3.4403 O   0  0  0  0  0  0  0  0  0  0  0  0
    2.8072   -2.5169   -2.3393 C   0  0  1  0  0  0  0  0  0  0  0  0
    3.1041   -3.4486   -3.3833 O   0  0  0  0  0  0  0  0  0  0  0  0
    2.6248   -3.2278   -0.9793 C   0  0  1  0  0  0  0  0  0  0  0  0
    1.6766   -4.2581   -1.1506 O   0  0  0  0  0  0  0  0  0  0  0  0
    3.3511   -5.5625    3.3737 C   0  0  1  0  0  0  0  0  0  0  0  0
    3.0622   -6.9667    3.9804 C   0  0  1  0  0  0  0  0  0  0  0  0
    1.7148   -7.7165    3.6759 C   0  0  1  0  0  0  0  0  0  0  0  0
    0.6113   -6.6708    3.3643 C   0  0  0  0  0  0  0  0  0  0  0  0
    1.7714   -8.7485    2.5308 C   0  0  0  0  0  0  0  0  0  0  0  0
    0.6546   -9.7349    2.7817 C   0  0  0  0  0  0  0  0  0  0  0  0
    0.4702   -9.7602    4.2961 C   0  0  0  0  0  0  0  0  0  0  0  0
    1.2925   -8.6065    4.8890 C   0  0  1  0  0  0  0  0  0  0  0  0
    2.4761   -9.1854    5.7104 C   0  0  0  0  0  0  0  0  0  0  0  0
    2.5712   -4.8542    6.8196 H   0  0  0  0  0  0  0  0  0  0  0  0
    1.5179   -4.4981    5.4521 H   0  0  0  0  0  0  0  0  0  0  0  0
    1.8999   -3.2462    6.6080 H   0  0  0  0  0  0  0  0  0  0  0  0
    4.3155   -3.3548    5.9460 H   0  0  0  0  0  0  0  0  0  0  0  0
    4.0883   -2.1234    3.8099 H   0  0  0  0  0  0  0  0  0  0  0  0
    2.8133   -1.6497    4.9358 H   0  0  0  0  0  0  0  0  0  0  0  0
    2.4448   -2.7317    3.5951 H   0  0  0  0  0  0  0  0  0  0  0  0
    6.1302   -5.1664    5.2671 H   0  0  0  0  0  0  0  0  0  0  0  0
    6.5092   -6.7410    3.1290 H   0  0  0  0  0  0  0  0  0  0  0  0
    4.6694   -8.5991    3.8468 H   0  0  0  0  0  0  0  0  0  0  0  0
    5.4853   -4.0511    1.9119 H   0  0  0  0  0  0  0  0  0  0  0  0
    5.6126   -5.3082    0.6768 H   0  0  0  0  0  0  0  0  0  0  0  0
    4.3736   -4.5586   -1.0879 H   0  0  0  0  0  0  0  0  0  0  0  0
    5.9042   -1.2884   -1.4123 H   0  0  0  0  0  0  0  0  0  0  0  0
    6.1527   -2.6771   -3.5125 H   0  0  0  0  0  0  0  0  0  0  0  0
    5.3299   -4.0022   -2.7435 H   0  0  0  0  0  0  0  0  0  0  0  0
    6.8966   -3.4191   -2.1372 H   0  0  0  0  0  0  0  0  0  0  0  0
    3.5988   -0.6818   -1.5388 H   0  0  0  0  0  0  0  0  0  0  0  0
    3.4070   -0.3615   -3.7151 H   0  0  0  0  0  0  0  0  0  0  0  0
    1.8756   -2.0189   -2.5978 H   0  0  0  0  0  0  0  0  0  0  0  0
    2.9144   -4.3339   -3.1182 H   0  0  0  0  0  0  0  0  0  0  0  0
    2.2584   -2.5288   -0.2287 H   0  0  0  0  0  0  0  0  0  0  0  0
    2.0857   -4.9406   -1.6807 H   0  0  0  0  0  0  0  0  0  0  0  0
    2.5535   -4.9902    2.9089 H   0  0  0  0  0  0  0  0  0  0  0  0
    3.0585   -6.8644    5.0598 H   0  0  0  0  0  0  0  0  0  0  0  0
   -0.3802   -7.0995    3.3450 H   0  0  0  0  0  0  0  0  0  0  0  0
    0.7790   -6.2091    2.3870 H   0  0  0  0  0  0  0  0  0  0  0  0
    0.5981   -5.8649    4.0990 H   0  0  0  0  0  0  0  0  0  0  0  0
    1.6949   -8.2968    1.5424 H   0  0  0  0  0  0  0  0  0  0  0  0
    2.7126   -9.3097    2.5663 H   0  0  0  0  0  0  0  0  0  0  0  0
   -0.2658   -9.4247    2.2777 H   0  0  0  0  0  0  0  0  0  0  0  0
    0.9228  -10.7162    2.4037 H   0  0  0  0  0  0  0  0  0  0  0  0
   -0.5834   -9.6400    4.5415 H   0  0  0  0  0  0  0  0  0  0  0  0
    0.7776  -10.7209    4.7146 H   0  0  0  0  0  0  0  0  0  0  0  0
    0.6792   -8.0227    5.5829 H   0  0  0  0  0  0  0  0  0  0  0  0
    3.1883   -9.6820    5.0567 H   0  0  0  0  0  0  0  0  0  0  0  0
    2.1446   -9.9332    6.4154 H   0  0  0  0  0  0  0  0  0  0  0  0
    3.0253   -8.4121    6.2566 H   0  0  0  0  0  0  0  0  0  0  0  0
  1  2  1  0
  1 32  1  0
  1 33  1  0
  1 34  1  0
  2  3  1  0
  2  4  1  0
  2 35  1  0
  3 36  1  0
  3 37  1  0
  3 38  1  0
  4 23  1  0
  4  5  2  0
  5  6  1  0
  5 39  1  0
  6 10  1  0
  6  7  1  0
  6 40  1  6
  7 24  1  0
  7  8  1  0
  7 41  1  6
  8  9  2  0
  8 10  1  0
 10 11  1  6
 10 23  1  0
 11 12  1  0
 11 42  1  0
 11 43  1  0
 12 13  1  0
 13 21  1  0
 13 14  1  0
 13 44  1  6
 14 15  1  0
 15 16  1  0
 15 17  1  0
 15 45  1  1
 16 46  1  0
 16 47  1  0
 16 48  1  0
 17 18  1  0
 17 19  1  0
 17 49  1  1
 18 50  1  0
 19 20  1  0
 19 21  1  0
 19 51  1  6
 20 52  1  0
 21 22  1  0
 21 53  1  1
 22 54  1  0
 23 24  1  0
 23 55  1  6
 24 25  1  0
 24 56  1  1
 25 30  1  0
 25 26  1  6
 25 27  1  0
 26 57  1  0
 26 58  1  0
 26 59  1  0
 27 28  1  0
 27 60  1  0
 27 61  1  0
 28 29  1  0
 28 62  1  0
 28 63  1  0
 29 30  1  0
 29 64  1  0
 29 65  1  0
 30 31  1  0
 30 66  1  1
 31 67  1  0
 31 68  1  0
 31 69  1  0
M  END
>  <i_m_ct_stereo_status>  (356) 
1

>  <s_m_source_file>  (356) 
/var/tmp/pbs.5076255.sched01/tmpalt_vnqi/12934k3la1h.sdf

>  <i_m_source_file_index>  (356) 
34

>  <i_lp_mmshare_version>  (356) 
48012

>  <i_f3d_flags>  (356) 
0

>  <s_epik_input>  (356) 
W0NIM11bQ0BASF0xW0NIMl1bQ0gyXVtDSDJdW0NAXTEoW0NIM10pW0NASF0oW0NASF0yQyg9W0NIXTMpW0NIXShbQ0gzXSlbQ0gzXSlbQ0BASF0oQzQ9TylbQ0BIXTNbQ0BdMjRbQ0gyXU9bQ0BASF01T1tDQEBIXShbQ0gzXSlbQ0BASF0oW09IXSlbQ0BASF0oW09IXSlbQ0BIXTVbT0hd

>  <s_epik_cmdline>  (356) 
J2VwaWtfcHl0aG9uJywgJy1waHQnLCAnMi4wJywgJy1waCcsICc3LjAnLCAnLXRuJywgJzgnLCAnLW1hJywgJzIwMCcsICctaW1hZScsICc8aW5maWxlLm1hZT4nLCAnLW9tYWUnLCAnPG91dGZpbGUubWFlPic=

>  <r_lp_tautomer_probability>  (356) 
1

>  <r_epik_Ionization_Penalty>  (356) 
1.78253e-06

>  <r_epik_Ionization_Penalty_Charging>  (356) 
0

>  <r_epik_Ionization_Penalty_Neutral>  (356) 
1.78253e-06

>  <r_epik_State_Penalty>  (356) 
-0

>  <r_epik_Charging_Adjusted_Penalty>  (356) 
0

>  <i_epik_Tot_Q>  (356) 
0

>  <i_epik_Tot_abs_Q>  (356) 
0

>  <s_epik_Chemistry_Notes>  (356) 
This compound contains an acetal/aminal-like group ( X-CH(R)-Y where X, Y are N, S, or O) that may be acid/base labile, releasing an aldehyde.

>  <s_lp_Force_Field>  (356) 
OPLS3e

>  <r_lp_Energy>  (356) 
49.2588

>  <b_lp_Chiralities_Consistent>  (356) 
1

>  <s_lp_Variant>  (356) 
110:0-1

>  <s_i_glide_gridfile>  (356) 
pfpi4k_grid

>  <i_i_glide_lignum>  (356) 
34

>  <i_i_glide_rotatable_bonds>  (356) 
8

>  <r_i_docking_score>  (356) 
-3.49437

>  <r_i_glide_ligand_efficiency>  (356) 
-0.112722

>  <r_i_glide_ligand_efficiency_sa>  (356) 
-0.354101

>  <r_i_glide_ligand_efficiency_ln>  (356) 
-0.788087

>  <r_i_glide_gscore>  (356) 
-3.49437

>  <r_i_glide_lipo>  (356) 
-0.302207

>  <r_i_glide_hbond>  (356) 
0

>  <r_i_glide_metal>  (356) 
-0

>  <r_i_glide_rewards>  (356) 
-0.495263

>  <r_i_glide_evdw>  (356) 
-24.3042

>  <r_i_glide_ecoul>  (356) 
-12.6683

>  <r_i_glide_erotb>  (356) 
0.421861

>  <r_i_glide_esite>  (356) 
-0.00329745

>  <r_i_glide_emodel>  (356) 
-39.4051

>  <r_i_glide_energy>  (356) 
-36.9726

>  <r_i_glide_einternal>  (356) 
11.5992

>  <r_i_glide_intrahb_reward>  (356) 
-0

>  <i_i_glide_confnum>  (356) 
3

>  <i_i_glide_posenum>  (356) 
29

>  <r_i_glide_eff_state_penalty>  (356) 
0

>  <ligand_id>  (356) 
110

>  <original_smiles>  (356) 
CC(C)C1=CC2C3C(=O)C2(COC2OC(C)C(O)C(O)C2O)C1C3C1(C)CCCC1C

>  <smiles>  (356) 
[H]OC1([H])C([H])(OC([H])([H])C23C(=O)C4([H])C2([H])C([H])=C(C([H])(C([H])([H])[H])C([H])([H])[H])C3([H])C4([H])C2(C([H])([H])[H])C([H])([H])C([H])([H])C([H])([H])C2([H])C([H])([H])[H])OC([H])(C([H])([H])[H])C([H])(O[H])C1([H])O[H]

$$$$
110:0:2
     RDKit          3D

 69 73  0  0  1  0  0  0  0  0999 V2000
    0.9570   -3.6729    5.2671 C   0  0  0  0  0  0  0  0  0  0  0  0
    2.3331   -3.4316    4.6339 C   0  0  0  0  0  0  0  0  0  0  0  0
    2.2222   -2.4697    3.4387 C   0  0  0  0  0  0  0  0  0  0  0  0
    3.0195   -4.7403    4.2392 C   0  0  0  0  0  0  0  0  0  0  0  0
    4.1813   -5.2481    4.6688 C   0  0  0  0  0  0  0  0  0  0  0  0
    4.5167   -6.5235    3.8757 C   0  0  1  0  0  0  0  0  0  0  0  0
    3.4002   -7.6564    3.9262 C   0  0  2  0  0  0  0  0  0  0  0  0
    3.7185   -7.6930    2.4228 C   0  0  0  0  0  0  0  0  0  0  0  0
    3.9699   -8.5139    1.5264 O   0  0  0  0  0  0  0  0  0  0  0  0
    3.7134   -6.2037    2.5972 C   0  0  2  0  0  0  0  0  0  0  0  0
    4.3040   -5.3724    1.4555 C   0  0  0  0  0  0  0  0  0  0  0  0
    3.2226   -4.7870    0.7378 O   0  0  0  0  0  0  0  0  0  0  0  0
    3.6128   -4.1449   -0.4357 C   0  0  2  0  0  0  0  0  0  0  0  0
    4.5466   -3.1400   -0.1516 O   0  0  0  0  0  0  0  0  0  0  0  0
    5.0193   -2.4103   -1.2886 C   0  0  1  0  0  0  0  0  0  0  0  0
    5.7793   -3.3363   -2.2758 C   0  0  0  0  0  0  0  0  0  0  0  0
    3.8232   -1.6587   -1.9157 C   0  0  1  0  0  0  0  0  0  0  0  0
    4.2284   -0.8630   -3.0194 O   0  0  0  0  0  0  0  0  0  0  0  0
    2.6797   -2.6341   -2.2702 C   0  0  1  0  0  0  0  0  0  0  0  0
    2.9781   -3.4919   -3.3888 O   0  0  0  0  0  0  0  0  0  0  0  0
    2.3388   -3.4669   -1.0111 C   0  0  1  0  0  0  0  0  0  0  0  0
    1.3892   -4.4358   -1.3681 O   0  0  0  0  0  0  0  0  0  0  0  0
    2.4069   -5.7106    3.2387 C   0  0  1  0  0  0  0  0  0  0  0  0
    2.0325   -6.9693    4.0579 C   0  0  1  0  0  0  0  0  0  0  0  0
    0.6958   -7.7462    3.7412 C   0  0  1  0  0  0  0  0  0  0  0  0
   -0.4815   -6.7701    3.9231 C   0  0  0  0  0  0  0  0  0  0  0  0
    0.6671   -8.3504    2.3366 C   0  0  0  0  0  0  0  0  0  0  0  0
    1.3586   -9.7538    2.4646 C   0  0  0  0  0  0  0  0  0  0  0  0
    1.0111  -10.2104    3.9007 C   0  0  0  0  0  0  0  0  0  0  0  0
    0.4869   -8.9852    4.6620 C   0  0  1  0  0  0  0  0  0  0  0  0
    1.0440   -8.8562    6.0980 C   0  0  0  0  0  0  0  0  0  0  0  0
    1.0368   -4.2516    6.1882 H   0  0  0  0  0  0  0  0  0  0  0  0
    0.2904   -4.1890    4.5825 H   0  0  0  0  0  0  0  0  0  0  0  0
    0.4700   -2.7273    5.5091 H   0  0  0  0  0  0  0  0  0  0  0  0
    2.9712   -2.9642    5.3814 H   0  0  0  0  0  0  0  0  0  0  0  0
    3.2028   -2.2187    3.0326 H   0  0  0  0  0  0  0  0  0  0  0  0
    1.7545   -1.5340    3.7491 H   0  0  0  0  0  0  0  0  0  0  0  0
    1.6164   -2.8735    2.6271 H   0  0  0  0  0  0  0  0  0  0  0  0
    4.8656   -4.8144    5.3920 H   0  0  0  0  0  0  0  0  0  0  0  0
    5.5640   -6.8115    3.7620 H   0  0  0  0  0  0  0  0  0  0  0  0
    3.6360   -8.5520    4.4916 H   0  0  0  0  0  0  0  0  0  0  0  0
    4.9394   -4.5858    1.8588 H   0  0  0  0  0  0  0  0  0  0  0  0
    4.9162   -6.0090    0.8221 H   0  0  0  0  0  0  0  0  0  0  0  0
    4.0449   -4.8863   -1.1141 H   0  0  0  0  0  0  0  0  0  0  0  0
    5.7236   -1.6648   -0.9062 H   0  0  0  0  0  0  0  0  0  0  0  0
    6.0949   -2.7697   -3.1556 H   0  0  0  0  0  0  0  0  0  0  0  0
    5.1611   -4.1635   -2.6366 H   0  0  0  0  0  0  0  0  0  0  0  0
    6.6738   -3.7601   -1.8050 H   0  0  0  0  0  0  0  0  0  0  0  0
    3.4488   -0.9494   -1.1722 H   0  0  0  0  0  0  0  0  0  0  0  0
    3.4815   -0.4009   -3.3466 H   0  0  0  0  0  0  0  0  0  0  0  0
    1.8100   -2.0515   -2.5640 H   0  0  0  0  0  0  0  0  0  0  0  0
    3.0583   -4.3721   -3.1086 H   0  0  0  0  0  0  0  0  0  0  0  0
    1.9245   -2.8423   -0.2283 H   0  0  0  0  0  0  0  0  0  0  0  0
    1.8191   -5.0478   -1.9587 H   0  0  0  0  0  0  0  0  0  0  0  0
    1.6425   -5.3203    2.5723 H   0  0  0  0  0  0  0  0  0  0  0  0
    1.9185   -6.6379    5.0938 H   0  0  0  0  0  0  0  0  0  0  0  0
   -1.4545   -7.2743    3.8877 H   0  0  0  0  0  0  0  0  0  0  0  0
   -0.4825   -6.0196    3.1329 H   0  0  0  0  0  0  0  0  0  0  0  0
   -0.4378   -6.2525    4.8831 H   0  0  0  0  0  0  0  0  0  0  0  0
   -0.3653   -8.4405    1.9891 H   0  0  0  0  0  0  0  0  0  0  0  0
    1.1550   -7.7272    1.5884 H   0  0  0  0  0  0  0  0  0  0  0  0
    0.9101  -10.4269    1.7132 H   0  0  0  0  0  0  0  0  0  0  0  0
    2.3852   -9.7535    2.3759 H   0  0  0  0  0  0  0  0  0  0  0  0
    0.3000  -11.0480    3.9304 H   0  0  0  0  0  0  0  0  0  0  0  0
    1.9344  -10.5495    4.3457 H   0  0  0  0  0  0  0  0  0  0  0  0
   -0.5885   -9.1589    4.7560 H   0  0  0  0  0  0  0  0  0  0  0  0
    2.1203   -8.6630    6.1088 H   0  0  0  0  0  0  0  0  0  0  0  0
    0.9032   -9.7799    6.6664 H   0  0  0  0  0  0  0  0  0  0  0  0
    0.5608   -8.0312    6.6302 H   0  0  0  0  0  0  0  0  0  0  0  0
  1  2  1  0
  1 32  1  0
  1 33  1  0
  1 34  1  0
  2  3  1  0
  2  4  1  0
  2 35  1  0
  3 36  1  0
  3 37  1  0
  3 38  1  0
  4 23  1  0
  4  5  2  0
  5  6  1  0
  5 39  1  0
  6 10  1  0
  6  7  1  0
  6 40  1  6
  7 24  1  0
  7  8  1  0
  7 41  1  1
  8  9  2  0
  8 10  1  0
 10 11  1  6
 10 23  1  0
 11 12  1  0
 11 42  1  0
 11 43  1  0
 12 13  1  0
 13 21  1  0
 13 14  1  0
 13 44  1  6
 14 15  1  0
 15 16  1  0
 15 17  1  0
 15 45  1  1
 16 46  1  0
 16 47  1  0
 16 48  1  0
 17 18  1  0
 17 19  1  0
 17 49  1  1
 18 50  1  0
 19 20  1  0
 19 21  1  0
 19 51  1  6
 20 52  1  0
 21 22  1  0
 21 53  1  1
 22 54  1  0
 23 24  1  0
 23 55  1  6
 24 25  1  0
 24 56  1  1
 25 30  1  0
 25 26  1  6
 25 27  1  0
 26 57  1  0
 26 58  1  0
 26 59  1  0
 27 28  1  0
 27 60  1  0
 27 61  1  0
 28 29  1  0
 28 62  1  0
 28 63  1  0
 29 30  1  0
 29 64  1  0
 29 65  1  0
 30 31  1  0
 30 66  1  1
 31 67  1  0
 31 68  1  0
 31 69  1  0
M  END
>  <i_m_ct_stereo_status>  (357) 
1

>  <s_m_source_file>  (357) 
/var/tmp/pbs.5076255.sched01/tmpalt_vnqi/12934k3la1h.sdf

>  <i_m_source_file_index>  (357) 
34

>  <i_lp_mmshare_version>  (357) 
48012

>  <i_f3d_flags>  (357) 
0

>  <s_epik_input>  (357) 
W0NIM11bQ0BASF0xW0NIMl1bQ0gyXVtDSDJdW0NAXTEoW0NIM10pW0NASF0oW0NASF0yQyg9W0NIXTMpW0NIXShbQ0gzXSlbQ0gzXSlbQ0BASF0oQzQ9TylbQ0BIXTNbQ0BdMjRbQ0gyXU9bQ0BASF01T1tDQEBIXShbQ0gzXSlbQ0BASF0oW09IXSlbQ0BASF0oW09IXSlbQ0BIXTVbT0hd

>  <s_epik_cmdline>  (357) 
J2VwaWtfcHl0aG9uJywgJy1waHQnLCAnMi4wJywgJy1waCcsICc3LjAnLCAnLXRuJywgJzgnLCAnLW1hJywgJzIwMCcsICctaW1hZScsICc8aW5maWxlLm1hZT4nLCAnLW9tYWUnLCAnPG91dGZpbGUubWFlPic=

>  <r_lp_tautomer_probability>  (357) 
1

>  <r_epik_Ionization_Penalty>  (357) 
1.78253e-06

>  <r_epik_Ionization_Penalty_Charging>  (357) 
0

>  <r_epik_Ionization_Penalty_Neutral>  (357) 
1.78253e-06

>  <r_epik_State_Penalty>  (357) 
-0

>  <r_epik_Charging_Adjusted_Penalty>  (357) 
0

>  <i_epik_Tot_Q>  (357) 
0

>  <i_epik_Tot_abs_Q>  (357) 
0

>  <s_epik_Chemistry_Notes>  (357) 
This compound contains an acetal/aminal-like group ( X-CH(R)-Y where X, Y are N, S, or O) that may be acid/base labile, releasing an aldehyde.

>  <s_lp_Force_Field>  (357) 
OPLS3e

>  <r_lp_Energy>  (357) 
49.2588

>  <b_lp_Chiralities_Consistent>  (357) 
1

>  <s_lp_Variant>  (357) 
110:0-1

>  <s_i_glide_gridfile>  (357) 
pfpi4k_grid

>  <i_i_glide_lignum>  (357) 
34

>  <i_i_glide_rotatable_bonds>  (357) 
8

>  <r_i_docking_score>  (357) 
-3.38978

>  <r_i_glide_ligand_efficiency>  (357) 
-0.109348

>  <r_i_glide_ligand_efficiency_sa>  (357) 
-0.343503

>  <r_i_glide_ligand_efficiency_ln>  (357) 
-0.7645

>  <r_i_glide_gscore>  (357) 
-3.38978

>  <r_i_glide_lipo>  (357) 
-0.387236

>  <r_i_glide_hbond>  (357) 
0

>  <r_i_glide_metal>  (357) 
-0

>  <r_i_glide_rewards>  (357) 
-0.446143

>  <r_i_glide_evdw>  (357) 
-22.0287

>  <r_i_glide_ecoul>  (357) 
-12.3424

>  <r_i_glide_erotb>  (357) 
0.421861

>  <r_i_glide_esite>  (357) 
-0.0254646

>  <r_i_glide_emodel>  (357) 
-37.996

>  <r_i_glide_energy>  (357) 
-34.3712

>  <r_i_glide_einternal>  (357) 
7.26939

>  <r_i_glide_intrahb_reward>  (357) 
-0

>  <i_i_glide_confnum>  (357) 
5

>  <i_i_glide_posenum>  (357) 
39

>  <r_i_glide_eff_state_penalty>  (357) 
0

>  <ligand_id>  (357) 
110

>  <original_smiles>  (357) 
CC(C)C1=CC2C3C(=O)C2(COC2OC(C)C(O)C(O)C2O)C1C3C1(C)CCCC1C

>  <smiles>  (357) 
[H]OC1([H])C([H])(OC([H])([H])C23C(=O)C4([H])C2([H])C([H])=C(C([H])(C([H])([H])[H])C([H])([H])[H])C3([H])C4([H])C2(C([H])([H])[H])C([H])([H])C([H])([H])C([H])([H])C2([H])C([H])([H])[H])OC([H])(C([H])([H])[H])C([H])(O[H])C1([H])O[H]

$$$$
112:0:0
     RDKit          3D

 63 68  0  0  1  0  0  0  0  0999 V2000
    3.6256   -3.5929   -3.9249 C   0  0  0  0  0  0  0  0  0  0  0  0
    3.6444   -2.4108   -2.9415 C   0  0  1  0  0  0  0  0  0  0  0  0
    2.8587   -1.2327   -3.5448 C   0  0  0  0  0  0  0  0  0  0  0  0
    3.7898   -0.3015   -4.7282 Cl  0  0  0  0  0  0  0  0  0  0  0  0
    3.0451   -2.7924   -1.5683 C   0  0  0  0  0  0  0  0  0  0  0  0
    3.9852   -3.7250   -0.7815 C   0  0  1  0  0  0  0  0  0  0  0  0
    5.3663   -3.0654   -0.6887 C   0  0  2  0  0  0  0  0  0  0  0  0
    5.7690   -3.0320   -2.0415 O   0  0  0  0  0  0  0  0  0  0  0  0
    4.9692   -1.9555   -2.7085 O   0  0  0  0  0  0  0  0  0  0  0  0
    6.3553   -3.8479    0.2021 C   0  0  1  0  0  0  0  0  0  0  0  0
    7.4530   -2.9994    0.4719 O   0  0  0  0  0  0  0  0  0  0  0  0
    5.7636   -4.4322    1.5387 C   0  0  1  0  0  0  0  0  0  0  0  0
    6.8831   -5.3452    2.1184 C   0  0  0  0  0  0  0  0  0  0  0  0
    5.3924   -3.2743    2.5412 C   0  0  1  0  0  0  0  0  0  0  0  0
    4.1766   -2.3960    2.1359 C   0  0  0  0  0  0  0  0  0  0  0  0
    2.9984   -3.1770    1.5318 C   0  0  0  0  0  0  0  0  0  0  0  0
    3.4470   -4.2764    0.5578 C   0  0  2  0  0  0  0  0  0  0  0  0
    4.4611   -5.2713    1.2323 C   0  0  1  0  0  0  0  0  0  0  0  0
    4.7724   -6.4161    0.2125 C   0  0  0  0  0  0  0  0  0  0  0  0
    3.8755   -6.0996    2.4529 C   0  0  2  0  0  0  0  0  0  0  0  0
    2.4686   -6.7199    2.3766 C   0  0  0  0  0  0  0  0  0  0  0  0
    2.1471   -6.2525    3.7763 C   0  0  1  0  0  0  0  0  0  0  0  0
    0.8079   -5.5799    3.9879 C   0  0  0  0  0  0  0  0  0  0  0  0
    3.0211   -6.5854    4.9394 C   0  0  1  0  0  0  0  0  0  0  0  0
    3.5595   -7.8671    4.8387 O   0  0  0  0  0  0  0  0  0  0  0  0
    3.5448   -5.6087    3.8836 C   0  0  1  0  0  0  0  0  0  0  0  0
    3.9430   -4.2627    4.4590 C   0  0  0  0  0  0  0  0  0  0  0  0
    5.2929   -3.6889    4.0164 C   0  0  0  0  0  0  0  0  0  0  0  0
    2.6124   -3.9885   -4.0079 H   0  0  0  0  0  0  0  0  0  0  0  0
    4.2772   -4.4134   -3.6282 H   0  0  0  0  0  0  0  0  0  0  0  0
    3.9251   -3.2911   -4.9202 H   0  0  0  0  0  0  0  0  0  0  0  0
    1.9979   -1.6149   -4.0855 H   0  0  0  0  0  0  0  0  0  0  0  0
    2.5513   -0.5201   -2.7834 H   0  0  0  0  0  0  0  0  0  0  0  0
    2.9090   -1.8734   -0.9982 H   0  0  0  0  0  0  0  0  0  0  0  0
    2.0644   -3.2537   -1.7043 H   0  0  0  0  0  0  0  0  0  0  0  0
    4.1136   -4.5823   -1.4304 H   0  0  0  0  0  0  0  0  0  0  0  0
    5.3199   -2.0274   -0.3844 H   0  0  0  0  0  0  0  0  0  0  0  0
    6.7699   -4.6517   -0.3911 H   0  0  0  0  0  0  0  0  0  0  0  0
    8.1021   -3.5035    0.9256 H   0  0  0  0  0  0  0  0  0  0  0  0
    6.5513   -5.9329    2.9692 H   0  0  0  0  0  0  0  0  0  0  0  0
    7.7427   -4.7668    2.4449 H   0  0  0  0  0  0  0  0  0  0  0  0
    7.2618   -6.0529    1.3822 H   0  0  0  0  0  0  0  0  0  0  0  0
    6.2227   -2.5759    2.5458 H   0  0  0  0  0  0  0  0  0  0  0  0
    3.8147   -1.8456    3.0043 H   0  0  0  0  0  0  0  0  0  0  0  0
    4.4893   -1.6065    1.4591 H   0  0  0  0  0  0  0  0  0  0  0  0
    2.4241   -3.6485    2.3187 H   0  0  0  0  0  0  0  0  0  0  0  0
    2.2922   -2.4937    1.0598 H   0  0  0  0  0  0  0  0  0  0  0  0
    2.5590   -4.8289    0.2674 H   0  0  0  0  0  0  0  0  0  0  0  0
    3.8503   -6.9002   -0.1020 H   0  0  0  0  0  0  0  0  0  0  0  0
    5.4026   -7.1924    0.6466 H   0  0  0  0  0  0  0  0  0  0  0  0
    5.2806   -6.1154   -0.6947 H   0  0  0  0  0  0  0  0  0  0  0  0
    4.5521   -6.9366    2.6057 H   0  0  0  0  0  0  0  0  0  0  0  0
    1.8156   -6.3089    1.6097 H   0  0  0  0  0  0  0  0  0  0  0  0
    2.5155   -7.8028    2.2626 H   0  0  0  0  0  0  0  0  0  0  0  0
    0.8112   -5.0261    4.9254 H   0  0  0  0  0  0  0  0  0  0  0  0
    0.0322   -6.3481    4.0434 H   0  0  0  0  0  0  0  0  0  0  0  0
    0.5839   -4.8986    3.1654 H   0  0  0  0  0  0  0  0  0  0  0  0
    2.7341   -6.2803    5.9370 H   0  0  0  0  0  0  0  0  0  0  0  0
    3.6533   -8.0575    3.9207 H   0  0  0  0  0  0  0  0  0  0  0  0
    3.1315   -3.5426    4.3479 H   0  0  0  0  0  0  0  0  0  0  0  0
    4.0463   -4.4076    5.5352 H   0  0  0  0  0  0  0  0  0  0  0  0
    6.1087   -4.3308    4.3434 H   0  0  0  0  0  0  0  0  0  0  0  0
    5.4465   -2.7849    4.5999 H   0  0  0  0  0  0  0  0  0  0  0  0
  2  1  1  6
  1 29  1  0
  1 30  1  0
  1 31  1  0
  2  9  1  0
  2  3  1  0
  2  5  1  0
  3  4  1  0
  3 32  1  0
  3 33  1  0
  5  6  1  0
  5 34  1  0
  5 35  1  0
  6 17  1  0
  6  7  1  0
  6 36  1  6
  7  8  1  0
  7 10  1  0
  7 37  1  1
  8  9  1  0
 10 11  1  0
 10 12  1  0
 10 38  1  6
 11 39  1  0
 12 18  1  0
 12 13  1  1
 12 14  1  0
 13 40  1  0
 13 41  1  0
 13 42  1  0
 14 28  1  0
 14 15  1  0
 14 43  1  1
 15 16  1  0
 15 44  1  0
 15 45  1  0
 16 17  1  0
 16 46  1  0
 16 47  1  0
 17 18  1  0
 17 48  1  6
 18 19  1  6
 18 20  1  0
 19 49  1  0
 19 50  1  0
 19 51  1  0
 20 26  1  0
 20 21  1  0
 20 52  1  1
 21 22  1  0
 21 53  1  0
 21 54  1  0
 22 26  1  0
 22 23  1  1
 22 24  1  0
 23 55  1  0
 23 56  1  0
 23 57  1  0
 24 25  1  0
 24 26  1  0
 24 58  1  1
 25 59  1  0
 26 27  1  1
 27 28  1  0
 27 60  1  0
 27 61  1  0
 28 62  1  0
 28 63  1  0
M  END
>  <i_m_ct_stereo_status>  (358) 
1

>  <s_m_source_file>  (358) 
/var/tmp/pbs.5076255.sched01/tmpalt_vnqi/12934k3la1h.sdf

>  <i_m_source_file_index>  (358) 
36

>  <i_lp_mmshare_version>  (358) 
48012

>  <i_f3d_flags>  (358) 
0

>  <s_epik_input>  (358) 
Q2xbQ0gyXVtDQF0oW0NIM10pKFtDSDJdMSlPT1tDQEhdKFtDQEhdMltPSF0pW0NASF0xW0NAQEhdM1tDSDJdW0NIMl1bQ0BASF0oW0NIMl1bQ0gyXTQpW0NAQF0yKFtDSDNdKVtDQEBdMyhbQ0gzXSlbQ0BASF0oW0NAQF00NTYpW0NIMl1bQ0BAXTUoW0NIM10pW0NASF02W09IXQ==

>  <s_epik_cmdline>  (358) 
J2VwaWtfcHl0aG9uJywgJy1waHQnLCAnMi4wJywgJy1waCcsICc3LjAnLCAnLXRuJywgJzgnLCAnLW1hJywgJzIwMCcsICctaW1hZScsICc8aW5maWxlLm1hZT4nLCAnLW9tYWUnLCAnPG91dGZpbGUubWFlPic=

>  <r_lp_tautomer_probability>  (358) 
1

>  <r_epik_Ionization_Penalty>  (358) 
2.69312e-06

>  <r_epik_Ionization_Penalty_Charging>  (358) 
0

>  <r_epik_Ionization_Penalty_Neutral>  (358) 
2.69312e-06

>  <r_epik_State_Penalty>  (358) 
-0

>  <r_epik_Charging_Adjusted_Penalty>  (358) 
0

>  <i_epik_Tot_Q>  (358) 
0

>  <i_epik_Tot_abs_Q>  (358) 
0

>  <s_lp_Force_Field>  (358) 
OPLS3e

>  <r_lp_Energy>  (358) 
70.7143

>  <b_lp_Chiralities_Consistent>  (358) 
1

>  <s_lp_Variant>  (358) 
112:0-1

>  <s_i_glide_gridfile>  (358) 
pfpi4k_grid

>  <i_i_glide_lignum>  (358) 
36

>  <i_i_glide_rotatable_bonds>  (358) 
3

>  <r_i_docking_score>  (358) 
-3.17172

>  <r_i_glide_ligand_efficiency>  (358) 
-0.113276

>  <r_i_glide_ligand_efficiency_sa>  (358) 
-0.343971

>  <r_i_glide_ligand_efficiency_ln>  (358) 
-0.732125

>  <r_i_glide_gscore>  (358) 
-3.17172

>  <r_i_glide_lipo>  (358) 
-0.987749

>  <r_i_glide_hbond>  (358) 
0

>  <r_i_glide_metal>  (358) 
-0

>  <r_i_glide_rewards>  (358) 
-0.606993

>  <r_i_glide_evdw>  (358) 
-23.7407

>  <r_i_glide_ecoul>  (358) 
-2.59959

>  <r_i_glide_erotb>  (358) 
0

>  <r_i_glide_esite>  (358) 
0

>  <r_i_glide_emodel>  (358) 
-29.4053

>  <r_i_glide_energy>  (358) 
-26.3403

>  <r_i_glide_einternal>  (358) 
2.7371

>  <r_i_glide_intrahb_reward>  (358) 
-0

>  <i_i_glide_confnum>  (358) 
1

>  <i_i_glide_posenum>  (358) 
35

>  <r_i_glide_eff_state_penalty>  (358) 
0

>  <ligand_id>  (358) 
112

>  <original_smiles>  (358) 
CC1(CCl)CC2C(OO1)C(O)C1(C)C3CCC2C1(C)C1CC2(C)C(O)C12CC3

>  <smiles>  (358) 
[H]OC1([H])C2([H])OOC(C([H])([H])[H])(C([H])([H])Cl)C([H])([H])C2([H])C2([H])C([H])([H])C([H])([H])C3([H])C([H])([H])C([H])([H])C45C([H])(O[H])C4(C([H])([H])[H])C([H])([H])C5([H])C2(C([H])([H])[H])C13C([H])([H])[H]

$$$$
112:0:1
     RDKit          3D

 63 68  0  0  1  0  0  0  0  0999 V2000
    3.1184   -3.3693   -4.1234 C   0  0  0  0  0  0  0  0  0  0  0  0
    3.5189   -1.9841   -3.6334 C   0  0  1  0  0  0  0  0  0  0  0  0
    3.0567   -0.9011   -4.6299 C   0  0  0  0  0  0  0  0  0  0  0  0
    3.7984    0.6701   -4.3203 Cl  0  0  0  0  0  0  0  0  0  0  0  0
    2.9970   -1.7884   -2.2289 C   0  0  0  0  0  0  0  0  0  0  0  0
    3.7739   -2.6687   -1.2315 C   0  0  1  0  0  0  0  0  0  0  0  0
    5.2686   -2.4181   -1.3787 C   0  0  2  0  0  0  0  0  0  0  0  0
    5.4707   -2.9355   -2.6651 O   0  0  0  0  0  0  0  0  0  0  0  0
    4.9250   -1.8830   -3.5837 O   0  0  0  0  0  0  0  0  0  0  0  0
    6.1355   -3.1426   -0.3559 C   0  0  1  0  0  0  0  0  0  0  0  0
    7.4091   -2.5235   -0.4074 O   0  0  0  0  0  0  0  0  0  0  0  0
    5.5611   -3.1458    1.1047 C   0  0  1  0  0  0  0  0  0  0  0  0
    6.4740   -4.1161    1.8735 C   0  0  0  0  0  0  0  0  0  0  0  0
    5.5623   -1.6991    1.7320 C   0  0  1  0  0  0  0  0  0  0  0  0
    4.5681   -0.6812    1.1184 C   0  0  0  0  0  0  0  0  0  0  0  0
    3.1934   -1.2814    0.8220 C   0  0  0  0  0  0  0  0  0  0  0  0
    3.2776   -2.6780    0.2155 C   0  0  2  0  0  0  0  0  0  0  0  0
    4.0908   -3.6722    1.1205 C   0  0  1  0  0  0  0  0  0  0  0  0
    4.0253   -5.0934    0.4741 C   0  0  0  0  0  0  0  0  0  0  0  0
    3.4879   -3.9748    2.5713 C   0  0  2  0  0  0  0  0  0  0  0  0
    2.0050   -4.2286    2.7204 C   0  0  0  0  0  0  0  0  0  0  0  0
    1.9013   -3.3415    3.9385 C   0  0  1  0  0  0  0  0  0  0  0  0
    0.7760   -2.3404    3.8984 C   0  0  0  0  0  0  0  0  0  0  0  0
    2.7583   -3.4899    5.1418 C   0  0  1  0  0  0  0  0  0  0  0  0
    2.9500   -4.8353    5.3895 O   0  0  0  0  0  0  0  0  0  0  0  0
    3.3985   -3.0545    3.8142 C   0  0  1  0  0  0  0  0  0  0  0  0
    4.0757   -1.7132    3.8775 C   0  0  0  0  0  0  0  0  0  0  0  0
    5.4601   -1.6509    3.2509 C   0  0  0  0  0  0  0  0  0  0  0  0
    2.0358   -3.4894   -4.1652 H   0  0  0  0  0  0  0  0  0  0  0  0
    3.5962   -4.2198   -3.6359 H   0  0  0  0  0  0  0  0  0  0  0  0
    3.4925   -3.4292   -5.1049 H   0  0  0  0  0  0  0  0  0  0  0  0
    3.4599   -1.1188   -5.6087 H   0  0  0  0  0  0  0  0  0  0  0  0
    1.9623   -0.8247   -4.7050 H   0  0  0  0  0  0  0  0  0  0  0  0
    3.0842   -0.7322   -1.9753 H   0  0  0  0  0  0  0  0  0  0  0  0
    1.9550   -2.1056   -2.3098 H   0  0  0  0  0  0  0  0  0  0  0  0
    3.6183   -3.6778   -1.5895 H   0  0  0  0  0  0  0  0  0  0  0  0
    5.5213   -1.3589   -1.4409 H   0  0  0  0  0  0  0  0  0  0  0  0
    6.2730   -4.1603   -0.7149 H   0  0  0  0  0  0  0  0  0  0  0  0
    7.9414   -2.9752   -1.0426 H   0  0  0  0  0  0  0  0  0  0  0  0
    6.1179   -4.3249    2.8796 H   0  0  0  0  0  0  0  0  0  0  0  0
    7.4726   -3.7020    1.9294 H   0  0  0  0  0  0  0  0  0  0  0  0
    6.5858   -5.0809    1.3811 H   0  0  0  0  0  0  0  0  0  0  0  0
    6.5510   -1.2797    1.5722 H   0  0  0  0  0  0  0  0  0  0  0  0
    4.4044    0.1369    1.8188 H   0  0  0  0  0  0  0  0  0  0  0  0
    4.9882   -0.1997    0.2345 H   0  0  0  0  0  0  0  0  0  0  0  0
    2.6034   -1.3702    1.7231 H   0  0  0  0  0  0  0  0  0  0  0  0
    2.6262   -0.6011    0.1921 H   0  0  0  0  0  0  0  0  0  0  0  0
    2.2636   -3.0236    0.0743 H   0  0  0  0  0  0  0  0  0  0  0  0
    2.9902   -5.3967    0.3366 H   0  0  0  0  0  0  0  0  0  0  0  0
    4.5008   -5.8443    1.1050 H   0  0  0  0  0  0  0  0  0  0  0  0
    4.4942   -5.2154   -0.4975 H   0  0  0  0  0  0  0  0  0  0  0  0
    3.9445   -4.8884    2.9327 H   0  0  0  0  0  0  0  0  0  0  0  0
    1.5407   -3.8613    1.8255 H   0  0  0  0  0  0  0  0  0  0  0  0
    1.7796   -5.2815    2.8746 H   0  0  0  0  0  0  0  0  0  0  0  0
    0.9810   -1.5517    4.6199 H   0  0  0  0  0  0  0  0  0  0  0  0
   -0.1591   -2.8311    4.1873 H   0  0  0  0  0  0  0  0  0  0  0  0
    0.6669   -1.9077    2.8998 H   0  0  0  0  0  0  0  0  0  0  0  0
    2.6198   -2.8496    6.0207 H   0  0  0  0  0  0  0  0  0  0  0  0
    3.1442   -5.2058    4.5427 H   0  0  0  0  0  0  0  0  0  0  0  0
    3.4016   -0.8961    3.5844 H   0  0  0  0  0  0  0  0  0  0  0  0
    4.2711   -1.5621    4.9407 H   0  0  0  0  0  0  0  0  0  0  0  0
    6.0997   -2.4093    3.7088 H   0  0  0  0  0  0  0  0  0  0  0  0
    5.8994   -0.7133    3.5682 H   0  0  0  0  0  0  0  0  0  0  0  0
  2  1  1  6
  1 29  1  0
  1 30  1  0
  1 31  1  0
  2  9  1  0
  2  3  1  0
  2  5  1  0
  3  4  1  0
  3 32  1  0
  3 33  1  0
  5  6  1  0
  5 34  1  0
  5 35  1  0
  6 17  1  0
  6  7  1  0
  6 36  1  6
  7  8  1  0
  7 10  1  0
  7 37  1  6
  8  9  1  0
 10 11  1  0
 10 12  1  0
 10 38  1  6
 11 39  1  0
 12 18  1  0
 12 13  1  1
 12 14  1  0
 13 40  1  0
 13 41  1  0
 13 42  1  0
 14 28  1  0
 14 15  1  0
 14 43  1  1
 15 16  1  0
 15 44  1  0
 15 45  1  0
 16 17  1  0
 16 46  1  0
 16 47  1  0
 17 18  1  0
 17 48  1  6
 18 19  1  6
 18 20  1  0
 19 49  1  0
 19 50  1  0
 19 51  1  0
 20 26  1  0
 20 21  1  0
 20 52  1  1
 21 22  1  0
 21 53  1  0
 21 54  1  0
 22 26  1  0
 22 23  1  1
 22 24  1  0
 23 55  1  0
 23 56  1  0
 23 57  1  0
 24 25  1  0
 24 26  1  0
 24 58  1  1
 25 59  1  0
 26 27  1  1
 27 28  1  0
 27 60  1  0
 27 61  1  0
 28 62  1  0
 28 63  1  0
M  END
>  <i_m_ct_stereo_status>  (359) 
1

>  <s_m_source_file>  (359) 
/var/tmp/pbs.5076255.sched01/tmpalt_vnqi/12934k3la1h.sdf

>  <i_m_source_file_index>  (359) 
36

>  <i_lp_mmshare_version>  (359) 
48012

>  <i_f3d_flags>  (359) 
0

>  <s_epik_input>  (359) 
Q2xbQ0gyXVtDQF0oW0NIM10pKFtDSDJdMSlPT1tDQEhdKFtDQEhdMltPSF0pW0NASF0xW0NAQEhdM1tDSDJdW0NIMl1bQ0BASF0oW0NIMl1bQ0gyXTQpW0NAQF0yKFtDSDNdKVtDQEBdMyhbQ0gzXSlbQ0BASF0oW0NAQF00NTYpW0NIMl1bQ0BAXTUoW0NIM10pW0NASF02W09IXQ==

>  <s_epik_cmdline>  (359) 
J2VwaWtfcHl0aG9uJywgJy1waHQnLCAnMi4wJywgJy1waCcsICc3LjAnLCAnLXRuJywgJzgnLCAnLW1hJywgJzIwMCcsICctaW1hZScsICc8aW5maWxlLm1hZT4nLCAnLW9tYWUnLCAnPG91dGZpbGUubWFlPic=

>  <r_lp_tautomer_probability>  (359) 
1

>  <r_epik_Ionization_Penalty>  (359) 
2.69312e-06

>  <r_epik_Ionization_Penalty_Charging>  (359) 
0

>  <r_epik_Ionization_Penalty_Neutral>  (359) 
2.69312e-06

>  <r_epik_State_Penalty>  (359) 
-0

>  <r_epik_Charging_Adjusted_Penalty>  (359) 
0

>  <i_epik_Tot_Q>  (359) 
0

>  <i_epik_Tot_abs_Q>  (359) 
0

>  <s_lp_Force_Field>  (359) 
OPLS3e

>  <r_lp_Energy>  (359) 
70.7143

>  <b_lp_Chiralities_Consistent>  (359) 
1

>  <s_lp_Variant>  (359) 
112:0-1

>  <s_i_glide_gridfile>  (359) 
pfpi4k_grid

>  <i_i_glide_lignum>  (359) 
36

>  <i_i_glide_rotatable_bonds>  (359) 
3

>  <r_i_docking_score>  (359) 
-2.85393

>  <r_i_glide_ligand_efficiency>  (359) 
-0.101926

>  <r_i_glide_ligand_efficiency_sa>  (359) 
-0.309507

>  <r_i_glide_ligand_efficiency_ln>  (359) 
-0.65877

>  <r_i_glide_gscore>  (359) 
-2.85393

>  <r_i_glide_lipo>  (359) 
-0.846227

>  <r_i_glide_hbond>  (359) 
0

>  <r_i_glide_metal>  (359) 
-0

>  <r_i_glide_rewards>  (359) 
-0.606993

>  <r_i_glide_evdw>  (359) 
-20.1904

>  <r_i_glide_ecoul>  (359) 
-2.60791

>  <r_i_glide_erotb>  (359) 
0

>  <r_i_glide_esite>  (359) 
0

>  <r_i_glide_emodel>  (359) 
-25.574

>  <r_i_glide_energy>  (359) 
-22.7983

>  <r_i_glide_einternal>  (359) 
1.93512

>  <r_i_glide_intrahb_reward>  (359) 
-0

>  <i_i_glide_confnum>  (359) 
2

>  <i_i_glide_posenum>  (359) 
17

>  <r_i_glide_eff_state_penalty>  (359) 
0

>  <ligand_id>  (359) 
112

>  <original_smiles>  (359) 
CC1(CCl)CC2C(OO1)C(O)C1(C)C3CCC2C1(C)C1CC2(C)C(O)C12CC3

>  <smiles>  (359) 
[H]OC1([H])C2([H])OOC(C([H])([H])[H])(C([H])([H])Cl)C([H])([H])C2([H])C2([H])C([H])([H])C([H])([H])C3([H])C([H])([H])C([H])([H])C45C([H])(O[H])C4(C([H])([H])[H])C([H])([H])C5([H])C2(C([H])([H])[H])C13C([H])([H])[H]

$$$$
112:0:2
     RDKit          3D

 63 68  0  0  1  0  0  0  0  0999 V2000
    3.1506   -2.9556   -3.7564 C   0  0  0  0  0  0  0  0  0  0  0  0
    3.9957   -1.8127   -3.1926 C   0  0  1  0  0  0  0  0  0  0  0  0
    4.1227   -0.6443   -4.1929 C   0  0  0  0  0  0  0  0  0  0  0  0
    2.6143    0.1003   -4.7359 Cl  0  0  0  0  0  0  0  0  0  0  0  0
    3.5176   -1.2902   -1.8265 C   0  0  0  0  0  0  0  0  0  0  0  0
    3.7317   -2.3212   -0.6972 C   0  0  1  0  0  0  0  0  0  0  0  0
    5.2128   -2.6931   -0.6615 C   0  0  2  0  0  0  0  0  0  0  0  0
    5.3633   -3.3481   -1.8974 O   0  0  0  0  0  0  0  0  0  0  0  0
    5.3363   -2.2807   -2.9856 O   0  0  0  0  0  0  0  0  0  0  0  0
    5.6036   -3.5975    0.5150 C   0  0  1  0  0  0  0  0  0  0  0  0
    7.0181   -3.5810    0.6300 O   0  0  0  0  0  0  0  0  0  0  0  0
    4.9345   -3.2412    1.9055 C   0  0  1  0  0  0  0  0  0  0  0  0
    5.3012   -4.4156    2.8552 C   0  0  0  0  0  0  0  0  0  0  0  0
    5.4826   -1.8672    2.4568 C   0  0  1  0  0  0  0  0  0  0  0  0
    5.0344   -0.5969    1.6819 C   0  0  0  0  0  0  0  0  0  0  0  0
    3.5697   -0.6210    1.2273 C   0  0  0  0  0  0  0  0  0  0  0  0
    3.1441   -1.9941    0.6971 C   0  0  2  0  0  0  0  0  0  0  0  0
    3.3833   -3.1343    1.7456 C   0  0  1  0  0  0  0  0  0  0  0  0
    2.8397   -4.4792    1.1550 C   0  0  0  0  0  0  0  0  0  0  0  0
    2.5483   -2.9870    3.0949 C   0  0  2  0  0  0  0  0  0  0  0  0
    1.0680   -2.5742    3.0615 C   0  0  0  0  0  0  0  0  0  0  0  0
    1.2693   -1.6111    4.1986 C   0  0  1  0  0  0  0  0  0  0  0  0
    0.6486   -0.2451    4.0546 C   0  0  0  0  0  0  0  0  0  0  0  0
    1.8496   -2.0590    5.5046 C   0  0  1  0  0  0  0  0  0  0  0  0
    1.4366   -3.3504    5.8564 O   0  0  0  0  0  0  0  0  0  0  0  0
    2.7560   -1.9862    4.2544 C   0  0  1  0  0  0  0  0  0  0  0  0
    3.9504   -1.0914    4.4234 C   0  0  0  0  0  0  0  0  0  0  0  0
    5.3019   -1.6420    3.9655 C   0  0  0  0  0  0  0  0  0  0  0  0
    2.0999   -2.6709   -3.8341 H   0  0  0  0  0  0  0  0  0  0  0  0
    3.1767   -3.8538   -3.1452 H   0  0  0  0  0  0  0  0  0  0  0  0
    3.4803   -3.2489   -4.7516 H   0  0  0  0  0  0  0  0  0  0  0  0
    4.6361    0.1731   -3.7017 H   0  0  0  0  0  0  0  0  0  0  0  0
    4.6349   -0.9764   -5.1009 H   0  0  0  0  0  0  0  0  0  0  0  0
    4.0566   -0.3776   -1.5912 H   0  0  0  0  0  0  0  0  0  0  0  0
    2.4698   -1.0598   -1.9402 H   0  0  0  0  0  0  0  0  0  0  0  0
    3.1986   -3.2025   -1.0343 H   0  0  0  0  0  0  0  0  0  0  0  0
    5.8569   -1.8214   -0.7024 H   0  0  0  0  0  0  0  0  0  0  0  0
    5.3602   -4.6198    0.2216 H   0  0  0  0  0  0  0  0  0  0  0  0
    7.2525   -4.2447    1.2524 H   0  0  0  0  0  0  0  0  0  0  0  0
    4.7782   -4.3638    3.8077 H   0  0  0  0  0  0  0  0  0  0  0  0
    6.3669   -4.4427    3.0672 H   0  0  0  0  0  0  0  0  0  0  0  0
    5.0628   -5.3840    2.4148 H   0  0  0  0  0  0  0  0  0  0  0  0
    6.5660   -1.8824    2.3509 H   0  0  0  0  0  0  0  0  0  0  0  0
    5.1798    0.2763    2.3138 H   0  0  0  0  0  0  0  0  0  0  0  0
    5.6889   -0.4109    0.8338 H   0  0  0  0  0  0  0  0  0  0  0  0
    2.9157   -0.3642    2.0517 H   0  0  0  0  0  0  0  0  0  0  0  0
    3.3805    0.1608    0.4910 H   0  0  0  0  0  0  0  0  0  0  0  0
    2.0844   -1.9446    0.5173 H   0  0  0  0  0  0  0  0  0  0  0  0
    1.8118   -4.3456    0.8719 H   0  0  0  0  0  0  0  0  0  0  0  0
    2.8728   -5.2957    1.8813 H   0  0  0  0  0  0  0  0  0  0  0  0
    3.3165   -4.8609    0.2518 H   0  0  0  0  0  0  0  0  0  0  0  0
    2.5657   -3.9731    3.5570 H   0  0  0  0  0  0  0  0  0  0  0  0
    0.7401   -2.0753    2.1488 H   0  0  0  0  0  0  0  0  0  0  0  0
    0.4108   -3.4247    3.2808 H   0  0  0  0  0  0  0  0  0  0  0  0
    1.0998    0.4435    4.7672 H   0  0  0  0  0  0  0  0  0  0  0  0
   -0.4270   -0.3050    4.2622 H   0  0  0  0  0  0  0  0  0  0  0  0
    0.7829    0.1368    3.0382 H   0  0  0  0  0  0  0  0  0  0  0  0
    1.9266   -1.3485    6.3206 H   0  0  0  0  0  0  0  0  0  0  0  0
    1.5338   -3.8617    5.0742 H   0  0  0  0  0  0  0  0  0  0  0  0
    3.7437   -0.1039    4.0120 H   0  0  0  0  0  0  0  0  0  0  0  0
    4.0670   -0.9366    5.4967 H   0  0  0  0  0  0  0  0  0  0  0  0
    5.6019   -2.4994    4.5651 H   0  0  0  0  0  0  0  0  0  0  0  0
    6.0038   -0.8643    4.2501 H   0  0  0  0  0  0  0  0  0  0  0  0
  2  1  1  6
  1 29  1  0
  1 30  1  0
  1 31  1  0
  2  9  1  0
  2  3  1  0
  2  5  1  0
  3  4  1  0
  3 32  1  0
  3 33  1  0
  5  6  1  0
  5 34  1  0
  5 35  1  0
  6 17  1  0
  6  7  1  0
  6 36  1  6
  7  8  1  0
  7 10  1  0
  7 37  1  6
  8  9  1  0
 10 11  1  0
 10 12  1  0
 10 38  1  6
 11 39  1  0
 12 18  1  0
 12 13  1  1
 12 14  1  0
 13 40  1  0
 13 41  1  0
 13 42  1  0
 14 28  1  0
 14 15  1  0
 14 43  1  1
 15 16  1  0
 15 44  1  0
 15 45  1  0
 16 17  1  0
 16 46  1  0
 16 47  1  0
 17 18  1  0
 17 48  1  6
 18 19  1  6
 18 20  1  0
 19 49  1  0
 19 50  1  0
 19 51  1  0
 20 26  1  0
 20 21  1  0
 20 52  1  1
 21 22  1  0
 21 53  1  0
 21 54  1  0
 22 26  1  0
 22 23  1  1
 22 24  1  0
 23 55  1  0
 23 56  1  0
 23 57  1  0
 24 25  1  0
 24 26  1  0
 24 58  1  1
 25 59  1  0
 26 27  1  1
 27 28  1  0
 27 60  1  0
 27 61  1  0
 28 62  1  0
 28 63  1  0
M  END
>  <i_m_ct_stereo_status>  (360) 
1

>  <s_m_source_file>  (360) 
/var/tmp/pbs.5076255.sched01/tmpalt_vnqi/12934k3la1h.sdf

>  <i_m_source_file_index>  (360) 
36

>  <i_lp_mmshare_version>  (360) 
48012

>  <i_f3d_flags>  (360) 
0

>  <s_epik_input>  (360) 
Q2xbQ0gyXVtDQF0oW0NIM10pKFtDSDJdMSlPT1tDQEhdKFtDQEhdMltPSF0pW0NASF0xW0NAQEhdM1tDSDJdW0NIMl1bQ0BASF0oW0NIMl1bQ0gyXTQpW0NAQF0yKFtDSDNdKVtDQEBdMyhbQ0gzXSlbQ0BASF0oW0NAQF00NTYpW0NIMl1bQ0BAXTUoW0NIM10pW0NASF02W09IXQ==

>  <s_epik_cmdline>  (360) 
J2VwaWtfcHl0aG9uJywgJy1waHQnLCAnMi4wJywgJy1waCcsICc3LjAnLCAnLXRuJywgJzgnLCAnLW1hJywgJzIwMCcsICctaW1hZScsICc8aW5maWxlLm1hZT4nLCAnLW9tYWUnLCAnPG91dGZpbGUubWFlPic=

>  <r_lp_tautomer_probability>  (360) 
1

>  <r_epik_Ionization_Penalty>  (360) 
2.69312e-06

>  <r_epik_Ionization_Penalty_Charging>  (360) 
0

>  <r_epik_Ionization_Penalty_Neutral>  (360) 
2.69312e-06

>  <r_epik_State_Penalty>  (360) 
-0

>  <r_epik_Charging_Adjusted_Penalty>  (360) 
0

>  <i_epik_Tot_Q>  (360) 
0

>  <i_epik_Tot_abs_Q>  (360) 
0

>  <s_lp_Force_Field>  (360) 
OPLS3e

>  <r_lp_Energy>  (360) 
70.7143

>  <b_lp_Chiralities_Consistent>  (360) 
1

>  <s_lp_Variant>  (360) 
112:0-1

>  <s_i_glide_gridfile>  (360) 
pfpi4k_grid

>  <i_i_glide_lignum>  (360) 
36

>  <i_i_glide_rotatable_bonds>  (360) 
3

>  <r_i_docking_score>  (360) 
-2.59126

>  <r_i_glide_ligand_efficiency>  (360) 
-0.092545

>  <r_i_glide_ligand_efficiency_sa>  (360) 
-0.281021

>  <r_i_glide_ligand_efficiency_ln>  (360) 
-0.598139

>  <r_i_glide_gscore>  (360) 
-2.59126

>  <r_i_glide_lipo>  (360) 
-0.917393

>  <r_i_glide_hbond>  (360) 
0

>  <r_i_glide_metal>  (360) 
-0

>  <r_i_glide_rewards>  (360) 
-0.606993

>  <r_i_glide_evdw>  (360) 
-20.9343

>  <r_i_glide_ecoul>  (360) 
-0.13439

>  <r_i_glide_erotb>  (360) 
0

>  <r_i_glide_esite>  (360) 
0

>  <r_i_glide_emodel>  (360) 
-24.1425

>  <r_i_glide_energy>  (360) 
-21.0687

>  <r_i_glide_einternal>  (360) 
0.666071

>  <r_i_glide_intrahb_reward>  (360) 
-0

>  <i_i_glide_confnum>  (360) 
2

>  <i_i_glide_posenum>  (360) 
11

>  <r_i_glide_eff_state_penalty>  (360) 
0

>  <ligand_id>  (360) 
112

>  <original_smiles>  (360) 
CC1(CCl)CC2C(OO1)C(O)C1(C)C3CCC2C1(C)C1CC2(C)C(O)C12CC3

>  <smiles>  (360) 
[H]OC1([H])C2([H])OOC(C([H])([H])[H])(C([H])([H])Cl)C([H])([H])C2([H])C2([H])C([H])([H])C([H])([H])C3([H])C([H])([H])C([H])([H])C45C([H])(O[H])C4(C([H])([H])[H])C([H])([H])C5([H])C2(C([H])([H])[H])C13C([H])([H])[H]

$$$$
113:0:0
     RDKit          3D

 33 38  0  0  1  0  0  0  0  0999 V2000
    3.9899    0.6153   -5.0697 C   0  0  0  0  0  0  0  0  0  0  0  0
    3.9575   -0.7727   -4.7515 O   0  0  0  0  0  0  0  0  0  0  0  0
    2.7172   -1.1643   -4.1580 C   0  0  2  0  0  0  0  0  0  0  0  0
    2.6867   -1.0153   -2.6159 C   0  0  2  0  0  0  0  0  0  0  0  0
    3.9419   -0.8409   -1.7939 C   0  0  1  0  0  0  0  0  0  0  0  0
    3.5140   -1.0953   -0.3242 C   0  0  0  0  0  0  0  0  0  0  0  0
    3.9587   -2.1516    0.3579 C   0  0  0  0  0  0  0  0  0  0  0  0
    4.9349   -3.1477   -0.2908 C   0  0  2  0  0  0  0  0  0  0  0  0
    5.9061   -2.2352   -1.0212 C   0  0  0  0  0  0  0  0  0  0  0  0
    7.0679   -1.9271   -0.6888 O   0  0  0  0  0  0  0  0  0  0  0  0
    5.1592   -1.7385   -2.2416 C   0  0  1  0  0  0  0  0  0  0  0  0
    4.8460   -3.1391   -2.7792 C   0  0  1  0  0  0  0  0  0  0  0  0
    4.3474   -3.8707   -1.5293 C   0  0  2  0  0  0  0  0  0  0  0  0
    2.9120   -3.6725   -2.1224 C   0  0  1  0  0  0  0  0  0  0  0  0
    2.1049   -2.4406   -2.5384 C   0  0  2  0  0  0  0  0  0  0  0  0
    2.4896   -2.6726   -3.9924 C   0  0  2  0  0  0  0  0  0  0  0  0
    3.5754   -3.6097   -3.5085 C   0  0  1  0  0  0  0  0  0  0  0  0
    4.9196    0.9800   -5.4683 H   0  0  0  0  0  0  0  0  0  0  0  0
    3.7776    1.1749   -4.1627 H   0  0  0  0  0  0  0  0  0  0  0  0
    3.2162    0.8145   -5.8085 H   0  0  0  0  0  0  0  0  0  0  0  0
    1.8641   -0.7235   -4.6790 H   0  0  0  0  0  0  0  0  0  0  0  0
    1.9910   -0.2447   -2.3188 H   0  0  0  0  0  0  0  0  0  0  0  0
    4.2637    0.1923   -1.9019 H   0  0  0  0  0  0  0  0  0  0  0  0
    2.8272   -0.3757    0.1200 H   0  0  0  0  0  0  0  0  0  0  0  0
    3.6352   -2.3580    1.3811 H   0  0  0  0  0  0  0  0  0  0  0  0
    5.4542   -3.7798    0.4203 H   0  0  0  0  0  0  0  0  0  0  0  0
    5.8196   -1.1412   -2.8271 H   0  0  0  0  0  0  0  0  0  0  0  0
    5.7152   -3.6103   -3.2394 H   0  0  0  0  0  0  0  0  0  0  0  0
    4.6738   -4.9192   -1.5906 H   0  0  0  0  0  0  0  0  0  0  0  0
    2.2349   -4.4493   -1.8624 H   0  0  0  0  0  0  0  0  0  0  0  0
    1.0385   -2.5757   -2.3729 H   0  0  0  0  0  0  0  0  0  0  0  0
    1.6697   -3.1225   -4.5467 H   0  0  0  0  0  0  0  0  0  0  0  0
    3.6787   -4.5523   -4.0474 H   0  0  0  0  0  0  0  0  0  0  0  0
  1  2  1  0
  1 18  1  0
  1 19  1  0
  1 20  1  0
  2  3  1  0
  3 16  1  0
  3  4  1  0
  3 21  1  6
  4 15  1  0
  4  5  1  0
  4 22  1  6
  5 11  1  0
  5  6  1  0
  5 23  1  1
  6  7  2  0
  6 24  1  0
  7  8  1  0
  7 25  1  0
  8 13  1  0
  8  9  1  0
  8 26  1  1
  9 10  2  0
  9 11  1  0
 11 12  1  0
 11 27  1  6
 12 17  1  0
 12 13  1  0
 12 28  1  6
 13 14  1  0
 13 29  1  6
 14 17  1  0
 14 15  1  0
 14 30  1  6
 15 16  1  0
 15 31  1  6
 16 17  1  0
 16 32  1  6
 17 33  1  6
M  END
>  <i_m_ct_stereo_status>  (361) 
1

>  <s_m_source_file>  (361) 
/var/tmp/pbs.5076255.sched01/tmpalt_vnqi/12934k3la1h.sdf

>  <i_m_source_file_index>  (361) 
37

>  <i_lp_mmshare_version>  (361) 
48012

>  <i_f3d_flags>  (361) 
0

>  <s_epik_input>  (361) 
W0NIM11PW0NASF0xW0NAQEhdKFtDQEBIXTIzKVtDQEhdNFtDQEBIXTNbQ0BIXShbQ0BASF0oQzU9TylbQ0hdPVtDSF02KVtDQEBIXTJbQ0BIXTVbQ0BIXTZbQ0BASF0xNA==

>  <s_epik_cmdline>  (361) 
J2VwaWtfcHl0aG9uJywgJy1waHQnLCAnMi4wJywgJy1waCcsICc3LjAnLCAnLXRuJywgJzgnLCAnLW1hJywgJzIwMCcsICctaW1hZScsICc8aW5maWxlLm1hZT4nLCAnLW9tYWUnLCAnPG91dGZpbGUubWFlPic=

>  <r_lp_tautomer_probability>  (361) 
1

>  <r_epik_Ionization_Penalty>  (361) 
3.27367e-11

>  <r_epik_Ionization_Penalty_Charging>  (361) 
0

>  <r_epik_Ionization_Penalty_Neutral>  (361) 
3.27367e-11

>  <r_epik_State_Penalty>  (361) 
-0

>  <r_epik_Charging_Adjusted_Penalty>  (361) 
0

>  <i_epik_Tot_Q>  (361) 
0

>  <i_epik_Tot_abs_Q>  (361) 
0

>  <s_lp_Force_Field>  (361) 
OPLS3e

>  <r_lp_Energy>  (361) 
86.5746

>  <b_lp_Chiralities_Consistent>  (361) 
1

>  <s_lp_Variant>  (361) 
113:0-1

>  <s_i_glide_gridfile>  (361) 
pfpi4k_grid

>  <i_i_glide_lignum>  (361) 
37

>  <i_i_glide_rotatable_bonds>  (361) 
1

>  <r_i_docking_score>  (361) 
-3.60401

>  <r_i_glide_ligand_efficiency>  (361) 
-0.212

>  <r_i_glide_ligand_efficiency_sa>  (361) 
-0.545113

>  <r_i_glide_ligand_efficiency_ln>  (361) 
-0.940206

>  <r_i_glide_gscore>  (361) 
-3.60401

>  <r_i_glide_lipo>  (361) 
-0.565153

>  <r_i_glide_hbond>  (361) 
-0.380794

>  <r_i_glide_metal>  (361) 
-0

>  <r_i_glide_rewards>  (361) 
-1.85259

>  <r_i_glide_evdw>  (361) 
-0.943834

>  <r_i_glide_ecoul>  (361) 
-4.82143

>  <r_i_glide_erotb>  (361) 
0

>  <r_i_glide_esite>  (361) 
-0.035062

>  <r_i_glide_emodel>  (361) 
-6.75052

>  <r_i_glide_energy>  (361) 
-5.76527

>  <r_i_glide_einternal>  (361) 
0.628208

>  <r_i_glide_intrahb_reward>  (361) 
-0

>  <i_i_glide_confnum>  (361) 
1

>  <i_i_glide_posenum>  (361) 
26

>  <r_i_glide_eff_state_penalty>  (361) 
0

>  <ligand_id>  (361) 
113

>  <original_smiles>  (361) 
COC1C2C3C=CC4C(=O)C3C3C4C4C2C1C34

>  <smiles>  (361) 
[H]C1=C([H])C2([H])C3([H])C(=O)C1([H])C1([H])C3([H])C3([H])C4([H])C([H])(OC([H])([H])[H])C2([H])C4([H])C13[H]

$$$$
114:0:0
     RDKit          3D

 60 65  0  0  1  0  0  0  0  0999 V2000
   -0.0102   -8.8016    2.9569 C   0  0  0  0  0  0  0  0  0  0  0  0
    1.4035   -9.3886    3.1756 C   0  0  0  0  0  0  0  0  0  0  0  0
    1.2417  -10.8879    3.5273 C   0  0  0  0  0  0  0  0  0  0  0  0
    2.2114   -9.2412    1.8612 C   0  0  0  0  0  0  0  0  0  0  0  0
    3.7245   -9.1082    2.1025 C   0  0  1  0  0  0  0  0  0  0  0  0
    4.3930   -9.4553    0.8979 O   0  0  0  0  0  0  0  0  0  0  0  0
    4.1273   -7.7587    2.8675 C   0  0  1  0  0  0  0  0  0  0  0  0
    5.6362   -7.5947    2.7246 C   0  0  1  0  0  0  0  0  0  0  0  0
    6.3733   -8.7754    2.9534 O   0  0  0  0  0  0  0  0  0  0  0  0
    5.7277   -7.0853    1.4008 O   0  0  0  0  0  0  0  0  0  0  0  0
    4.4669   -6.4707    1.0031 C   0  0  0  0  0  0  0  0  0  0  0  0
    3.8941   -6.2717    2.3902 C   0  0  1  0  0  0  0  0  0  0  0  0
    2.5427   -6.5080    3.0063 C   0  0  0  0  0  0  0  0  0  0  0  0
    1.6588   -5.5511    3.3649 C   0  0  0  0  0  0  0  0  0  0  0  0
    1.9444   -4.0621    3.1640 C   0  0  0  0  0  0  0  0  0  0  0  0
    3.3467   -3.7387    2.5480 C   0  0  1  0  0  0  0  0  0  0  0  0
    3.2139   -3.6340    0.9954 C   0  0  0  0  0  0  0  0  0  0  0  0
    3.9284   -2.3841    3.0898 C   0  0  1  0  0  0  0  0  0  0  0  0
    3.1231   -1.1173    2.7942 C   0  0  0  0  0  0  0  0  0  0  0  0
    3.5034    0.2178    3.1513 C   0  0  0  0  0  0  0  0  0  0  0  0
    2.5363    1.0542    2.6756 C   0  0  0  0  0  0  0  0  0  0  0  0
    1.5593    0.3516    2.0574 O   0  0  0  0  0  0  0  0  0  0  0  0
    1.9257   -0.9520    2.1458 C   0  0  0  0  0  0  0  0  0  0  0  0
    4.2930   -2.4086    4.4681 O   0  0  0  0  0  0  0  0  0  0  0  0
    4.9987   -3.4145    4.9991 C   0  0  0  0  0  0  0  0  0  0  0  0
    5.8019   -3.2673    5.9151 O   0  0  0  0  0  0  0  0  0  0  0  0
    4.6437   -4.8093    4.4861 C   0  0  0  0  0  0  0  0  0  0  0  0
    4.3621   -4.8709    2.9526 C   0  0  1  0  0  0  0  0  0  0  0  0
    3.1026   -7.5413    4.0001 C   0  0  1  0  0  0  0  0  0  0  0  0
    2.1253   -8.6789    4.3608 C   0  0  0  0  0  0  0  0  0  0  0  0
   -0.5396   -9.3202    2.1546 H   0  0  0  0  0  0  0  0  0  0  0  0
    0.0316   -7.7483    2.6813 H   0  0  0  0  0  0  0  0  0  0  0  0
   -0.6214   -8.8835    3.8578 H   0  0  0  0  0  0  0  0  0  0  0  0
    2.2111  -11.3803    3.6397 H   0  0  0  0  0  0  0  0  0  0  0  0
    0.6890  -11.4396    2.7624 H   0  0  0  0  0  0  0  0  0  0  0  0
    0.7050  -11.0195    4.4690 H   0  0  0  0  0  0  0  0  0  0  0  0
    2.0210  -10.1005    1.2224 H   0  0  0  0  0  0  0  0  0  0  0  0
    1.8687   -8.3862    1.2785 H   0  0  0  0  0  0  0  0  0  0  0  0
    4.0004   -9.9376    2.7565 H   0  0  0  0  0  0  0  0  0  0  0  0
    4.2144  -10.3796    0.7044 H   0  0  0  0  0  0  0  0  0  0  0  0
    6.0579   -6.8377    3.3916 H   0  0  0  0  0  0  0  0  0  0  0  0
    5.9955   -9.4463    2.3966 H   0  0  0  0  0  0  0  0  0  0  0  0
    4.7001   -5.5749    0.4371 H   0  0  0  0  0  0  0  0  0  0  0  0
    3.8352   -7.0923    0.3776 H   0  0  0  0  0  0  0  0  0  0  0  0
    0.9012   -5.7764    4.1015 H   0  0  0  0  0  0  0  0  0  0  0  0
    1.1263   -3.6271    2.5929 H   0  0  0  0  0  0  0  0  0  0  0  0
    1.8840   -3.6118    4.1653 H   0  0  0  0  0  0  0  0  0  0  0  0
    4.2032   -3.4893    0.5486 H   0  0  0  0  0  0  0  0  0  0  0  0
    2.5954   -2.8230    0.6349 H   0  0  0  0  0  0  0  0  0  0  0  0
    2.7694   -4.5436    0.5807 H   0  0  0  0  0  0  0  0  0  0  0  0
    4.8805   -2.2347    2.5784 H   0  0  0  0  0  0  0  0  0  0  0  0
    4.3878    0.5314    3.6952 H   0  0  0  0  0  0  0  0  0  0  0  0
    2.3736    2.1268    2.6859 H   0  0  0  0  0  0  0  0  0  0  0  0
    1.2055   -1.6133    1.6756 H   0  0  0  0  0  0  0  0  0  0  0  0
    5.4438   -5.4784    4.7912 H   0  0  0  0  0  0  0  0  0  0  0  0
    3.7609   -5.0807    5.0606 H   0  0  0  0  0  0  0  0  0  0  0  0
    5.3185   -4.6194    2.4975 H   0  0  0  0  0  0  0  0  0  0  0  0
    3.6043   -7.1494    4.8804 H   0  0  0  0  0  0  0  0  0  0  0  0
    1.3916   -8.3503    5.0981 H   0  0  0  0  0  0  0  0  0  0  0  0
    2.7099   -9.4363    4.8879 H   0  0  0  0  0  0  0  0  0  0  0  0
  1  2  1  0
  1 31  1  0
  1 32  1  0
  1 33  1  0
  2 30  1  0
  2  3  1  0
  2  4  1  0
  3 34  1  0
  3 35  1  0
  3 36  1  0
  4  5  1  0
  4 37  1  0
  4 38  1  0
  5  6  1  0
  5  7  1  0
  5 39  1  1
  6 40  1  0
  7 12  1  6
  7 29  1  0
  7  8  1  0
  8  9  1  0
  8 10  1  0
  8 41  1  1
  9 42  1  0
 10 11  1  0
 12 11  1  6
 11 43  1  0
 11 44  1  0
 12 28  1  0
 12 13  1  0
 13 14  2  0
 13 29  1  0
 14 15  1  0
 14 45  1  0
 15 16  1  0
 15 46  1  0
 15 47  1  0
 16 28  1  0
 16 17  1  6
 16 18  1  0
 17 48  1  0
 17 49  1  0
 17 50  1  0
 18 19  1  0
 18 24  1  0
 18 51  1  6
 19 23  2  0
 19 20  1  0
 20 21  2  0
 20 52  1  0
 21 22  1  0
 21 53  1  0
 22 23  1  0
 23 54  1  0
 24 25  1  0
 25 26  2  0
 25 27  1  0
 27 28  1  0
 27 55  1  0
 27 56  1  0
 28 57  1  6
 29 30  1  0
 29 58  1  1
 30 59  1  0
 30 60  1  0
M  END
>  <i_m_ct_stereo_status>  (362) 
1

>  <s_m_source_file>  (362) 
/var/tmp/pbs.5076255.sched01/tmpalt_vnqi/12934k3la1h.sdf

>  <i_m_source_file_index>  (362) 
38

>  <i_lp_mmshare_version>  (362) 
48012

>  <i_f3d_flags>  (362) 
0

>  <s_epik_input>  (362) 
W09IXVtDQEBIXTFbQ0gyXUMoW0NIM10pKFtDSDNdKVtDSDJdW0NAQEhdMkMoW0NAQF0zKFtDQF0xMjQpW0NIMl1PW0NAQEhdNFtPSF0pPVtDSF1bQ0gyXVtDQF01KFtDSDNdKVtDQEhdM1tDSDJdQyg9TylPW0NAQEhdNWM2W2NIXVtjSF1vW2NIXTY=

>  <s_epik_cmdline>  (362) 
J2VwaWtfcHl0aG9uJywgJy1waHQnLCAnMi4wJywgJy1waCcsICc3LjAnLCAnLXRuJywgJzgnLCAnLW1hJywgJzIwMCcsICctaW1hZScsICc8aW5maWxlLm1hZT4nLCAnLW9tYWUnLCAnPG91dGZpbGUubWFlPic=

>  <r_lp_tautomer_probability>  (362) 
1

>  <r_epik_Ionization_Penalty>  (362) 
1.91734e-07

>  <r_epik_Ionization_Penalty_Charging>  (362) 
0

>  <r_epik_Ionization_Penalty_Neutral>  (362) 
1.91734e-07

>  <r_epik_State_Penalty>  (362) 
-0

>  <r_epik_Charging_Adjusted_Penalty>  (362) 
0

>  <i_epik_Tot_Q>  (362) 
0

>  <i_epik_Tot_abs_Q>  (362) 
0

>  <s_epik_Chemistry_Notes>  (362) 
This compound has an ester and may undergo hydrolysis at high or low pH. This compound contains an acetal/aminal-like group ( X-CH(R)-Y where X, Y are N, S, or O) that may be acid/base labile, releasing an aldehyde.

>  <s_lp_Force_Field>  (362) 
OPLS3e

>  <r_lp_Energy>  (362) 
144.072

>  <b_lp_Chiralities_Consistent>  (362) 
1

>  <s_lp_Variant>  (362) 
114:0-1

>  <s_i_glide_gridfile>  (362) 
pfpi4k_grid

>  <i_i_glide_lignum>  (362) 
38

>  <i_i_glide_rotatable_bonds>  (362) 
3

>  <r_i_docking_score>  (362) 
-3.13881

>  <r_i_glide_ligand_efficiency>  (362) 
-0.104627

>  <r_i_glide_ligand_efficiency_sa>  (362) 
-0.325101

>  <r_i_glide_ligand_efficiency_ln>  (362) 
-0.713173

>  <r_i_glide_gscore>  (362) 
-3.13881

>  <r_i_glide_lipo>  (362) 
-0.350873

>  <r_i_glide_hbond>  (362) 
0

>  <r_i_glide_metal>  (362) 
-0

>  <r_i_glide_rewards>  (362) 
-0.623254

>  <r_i_glide_evdw>  (362) 
-27.29

>  <r_i_glide_ecoul>  (362) 
-6.10049

>  <r_i_glide_erotb>  (362) 
0.114887

>  <r_i_glide_esite>  (362) 
0

>  <r_i_glide_emodel>  (362) 
-39.3402

>  <r_i_glide_energy>  (362) 
-33.3905

>  <r_i_glide_einternal>  (362) 
1.50939

>  <r_i_glide_intrahb_reward>  (362) 
-0

>  <i_i_glide_confnum>  (362) 
2

>  <i_i_glide_posenum>  (362) 
25

>  <r_i_glide_eff_state_penalty>  (362) 
0

>  <ligand_id>  (362) 
114

>  <original_smiles>  (362) 
CC1(C)CC(O)C23C(O)OCC24C(=CCC2(C)C(c5ccoc5)OC(=O)CC24)C3C1

>  <smiles>  (362) 
[H]OC1([H])OC([H])([H])C23C(=C([H])C([H])([H])C4(C([H])([H])[H])C([H])(c5c([H])oc([H])c5[H])OC(=O)C([H])([H])C24[H])C2([H])C([H])([H])C(C([H])([H])[H])(C([H])([H])[H])C([H])([H])C([H])(O[H])C123

$$$$
114:0:1
     RDKit          3D

 60 65  0  0  1  0  0  0  0  0999 V2000
    2.7843   -5.8702    1.3955 C   0  0  0  0  0  0  0  0  0  0  0  0
    4.2576   -5.5205    1.0967 C   0  0  0  0  0  0  0  0  0  0  0  0
    4.9855   -6.8335    0.7331 C   0  0  0  0  0  0  0  0  0  0  0  0
    4.3044   -4.5436   -0.1045 C   0  0  0  0  0  0  0  0  0  0  0  0
    5.5152   -3.5971   -0.0620 C   0  0  1  0  0  0  0  0  0  0  0  0
    5.6664   -3.0796   -1.3784 O   0  0  0  0  0  0  0  0  0  0  0  0
    5.4997   -2.5859    1.1726 C   0  0  1  0  0  0  0  0  0  0  0  0
    6.5388   -1.5084    0.8993 C   0  0  1  0  0  0  0  0  0  0  0  0
    7.7842   -1.9722    0.4279 O   0  0  0  0  0  0  0  0  0  0  0  0
    5.8448   -0.6818   -0.0241 O   0  0  0  0  0  0  0  0  0  0  0  0
    4.4057   -0.8694    0.1225 C   0  0  0  0  0  0  0  0  0  0  0  0
    4.4135   -1.4868    1.5005 C   0  0  1  0  0  0  0  0  0  0  0  0
    3.7015   -2.6545    2.1259 C   0  0  0  0  0  0  0  0  0  0  0  0
    2.6924   -2.5725    3.0205 C   0  0  0  0  0  0  0  0  0  0  0  0
    2.1200   -1.2414    3.5106 C   0  0  0  0  0  0  0  0  0  0  0  0
    2.8412    0.0203    2.9302 C   0  0  1  0  0  0  0  0  0  0  0  0
    2.0380    0.4776    1.6902 C   0  0  0  0  0  0  0  0  0  0  0  0
    2.8898    1.2262    3.9285 C   0  0  1  0  0  0  0  0  0  0  0  0
    1.5495    1.7956    4.3526 C   0  0  0  0  0  0  0  0  0  0  0  0
    0.8308    1.5245    5.5571 C   0  0  0  0  0  0  0  0  0  0  0  0
   -0.3109    2.2787    5.5137 C   0  0  0  0  0  0  0  0  0  0  0  0
   -0.3635    3.0098    4.3719 O   0  0  0  0  0  0  0  0  0  0  0  0
    0.7710    2.7046    3.6826 C   0  0  0  0  0  0  0  0  0  0  0  0
    3.7118    1.0061    5.0679 O   0  0  0  0  0  0  0  0  0  0  0  0
    4.9580    0.5291    4.9352 C   0  0  0  0  0  0  0  0  0  0  0  0
    5.8832    0.8558    5.6646 O   0  0  0  0  0  0  0  0  0  0  0  0
    5.1266   -0.5665    3.8908 C   0  0  0  0  0  0  0  0  0  0  0  0
    4.3326   -0.3386    2.5786 C   0  0  1  0  0  0  0  0  0  0  0  0
    5.0341   -3.3739    2.4190 C   0  0  1  0  0  0  0  0  0  0  0  0
    4.9553   -4.9117    2.3498 C   0  0  0  0  0  0  0  0  0  0  0  0
    2.3013   -6.3363    0.5338 H   0  0  0  0  0  0  0  0  0  0  0  0
    2.2059   -4.9818    1.6460 H   0  0  0  0  0  0  0  0  0  0  0  0
    2.7007   -6.5643    2.2330 H   0  0  0  0  0  0  0  0  0  0  0  0
    6.0290   -6.6432    0.4788 H   0  0  0  0  0  0  0  0  0  0  0  0
    4.5246   -7.3410   -0.1186 H   0  0  0  0  0  0  0  0  0  0  0  0
    4.9888   -7.5353    1.5686 H   0  0  0  0  0  0  0  0  0  0  0  0
    4.3114   -5.1050   -1.0355 H   0  0  0  0  0  0  0  0  0  0  0  0
    3.3956   -3.9400   -0.1589 H   0  0  0  0  0  0  0  0  0  0  0  0
    6.3995   -4.2295    0.0509 H   0  0  0  0  0  0  0  0  0  0  0  0
    5.6914   -3.8068   -1.9805 H   0  0  0  0  0  0  0  0  0  0  0  0
    6.7659   -0.9052    1.7764 H   0  0  0  0  0  0  0  0  0  0  0  0
    8.4114   -1.2855    0.5884 H   0  0  0  0  0  0  0  0  0  0  0  0
    3.9325    0.1035    0.0537 H   0  0  0  0  0  0  0  0  0  0  0  0
    3.9518   -1.5155   -0.6215 H   0  0  0  0  0  0  0  0  0  0  0  0
    2.4977   -3.4128    3.6698 H   0  0  0  0  0  0  0  0  0  0  0  0
    1.0418   -1.2090    3.3382 H   0  0  0  0  0  0  0  0  0  0  0  0
    2.2519   -1.2371    4.5985 H   0  0  0  0  0  0  0  0  0  0  0  0
    2.5115    1.3434    1.2273 H   0  0  0  0  0  0  0  0  0  0  0  0
    1.0147    0.7624    1.9288 H   0  0  0  0  0  0  0  0  0  0  0  0
    1.9410   -0.3149    0.9521 H   0  0  0  0  0  0  0  0  0  0  0  0
    3.3716    2.0535    3.4007 H   0  0  0  0  0  0  0  0  0  0  0  0
    1.1265    0.8747    6.3651 H   0  0  0  0  0  0  0  0  0  0  0  0
   -1.1422    2.4159    6.1879 H   0  0  0  0  0  0  0  0  0  0  0  0
    0.8723    3.2277    2.7376 H   0  0  0  0  0  0  0  0  0  0  0  0
    6.1949   -0.6581    3.7093 H   0  0  0  0  0  0  0  0  0  0  0  0
    4.7979   -1.4721    4.4003 H   0  0  0  0  0  0  0  0  0  0  0  0
    4.7684    0.5398    2.1437 H   0  0  0  0  0  0  0  0  0  0  0  0
    5.5892   -3.0402    3.2901 H   0  0  0  0  0  0  0  0  0  0  0  0
    4.5123   -5.3226    3.2549 H   0  0  0  0  0  0  0  0  0  0  0  0
    5.9849   -5.2791    2.3656 H   0  0  0  0  0  0  0  0  0  0  0  0
  1  2  1  0
  1 31  1  0
  1 32  1  0
  1 33  1  0
  2 30  1  0
  2  3  1  0
  2  4  1  0
  3 34  1  0
  3 35  1  0
  3 36  1  0
  4  5  1  0
  4 37  1  0
  4 38  1  0
  5  6  1  0
  5  7  1  0
  5 39  1  1
  6 40  1  0
  7 12  1  6
  7 29  1  0
  7  8  1  0
  8  9  1  0
  8 10  1  0
  8 41  1  1
  9 42  1  0
 10 11  1  0
 12 11  1  6
 11 43  1  0
 11 44  1  0
 12 28  1  0
 12 13  1  0
 13 14  2  0
 13 29  1  0
 14 15  1  0
 14 45  1  0
 15 16  1  0
 15 46  1  0
 15 47  1  0
 16 28  1  0
 16 17  1  6
 16 18  1  0
 17 48  1  0
 17 49  1  0
 17 50  1  0
 18 19  1  0
 18 24  1  0
 18 51  1  6
 19 23  2  0
 19 20  1  0
 20 21  2  0
 20 52  1  0
 21 22  1  0
 21 53  1  0
 22 23  1  0
 23 54  1  0
 24 25  1  0
 25 26  2  0
 25 27  1  0
 27 28  1  0
 27 55  1  0
 27 56  1  0
 28 57  1  6
 29 30  1  0
 29 58  1  1
 30 59  1  0
 30 60  1  0
M  END
>  <i_m_ct_stereo_status>  (363) 
1

>  <s_m_source_file>  (363) 
/var/tmp/pbs.5076255.sched01/tmpalt_vnqi/12934k3la1h.sdf

>  <i_m_source_file_index>  (363) 
38

>  <i_lp_mmshare_version>  (363) 
48012

>  <i_f3d_flags>  (363) 
0

>  <s_epik_input>  (363) 
W09IXVtDQEBIXTFbQ0gyXUMoW0NIM10pKFtDSDNdKVtDSDJdW0NAQEhdMkMoW0NAQF0zKFtDQF0xMjQpW0NIMl1PW0NAQEhdNFtPSF0pPVtDSF1bQ0gyXVtDQF01KFtDSDNdKVtDQEhdM1tDSDJdQyg9TylPW0NAQEhdNWM2W2NIXVtjSF1vW2NIXTY=

>  <s_epik_cmdline>  (363) 
J2VwaWtfcHl0aG9uJywgJy1waHQnLCAnMi4wJywgJy1waCcsICc3LjAnLCAnLXRuJywgJzgnLCAnLW1hJywgJzIwMCcsICctaW1hZScsICc8aW5maWxlLm1hZT4nLCAnLW9tYWUnLCAnPG91dGZpbGUubWFlPic=

>  <r_lp_tautomer_probability>  (363) 
1

>  <r_epik_Ionization_Penalty>  (363) 
1.91734e-07

>  <r_epik_Ionization_Penalty_Charging>  (363) 
0

>  <r_epik_Ionization_Penalty_Neutral>  (363) 
1.91734e-07

>  <r_epik_State_Penalty>  (363) 
-0

>  <r_epik_Charging_Adjusted_Penalty>  (363) 
0

>  <i_epik_Tot_Q>  (363) 
0

>  <i_epik_Tot_abs_Q>  (363) 
0

>  <s_epik_Chemistry_Notes>  (363) 
This compound has an ester and may undergo hydrolysis at high or low pH. This compound contains an acetal/aminal-like group ( X-CH(R)-Y where X, Y are N, S, or O) that may be acid/base labile, releasing an aldehyde.

>  <s_lp_Force_Field>  (363) 
OPLS3e

>  <r_lp_Energy>  (363) 
144.072

>  <b_lp_Chiralities_Consistent>  (363) 
1

>  <s_lp_Variant>  (363) 
114:0-1

>  <s_i_glide_gridfile>  (363) 
pfpi4k_grid

>  <i_i_glide_lignum>  (363) 
38

>  <i_i_glide_rotatable_bonds>  (363) 
3

>  <r_i_docking_score>  (363) 
-3.07424

>  <r_i_glide_ligand_efficiency>  (363) 
-0.102475

>  <r_i_glide_ligand_efficiency_sa>  (363) 
-0.318413

>  <r_i_glide_ligand_efficiency_ln>  (363) 
-0.698501

>  <r_i_glide_gscore>  (363) 
-3.07424

>  <r_i_glide_lipo>  (363) 
-0.518149

>  <r_i_glide_hbond>  (363) 
0

>  <r_i_glide_metal>  (363) 
-0

>  <r_i_glide_rewards>  (363) 
-0.744346

>  <r_i_glide_evdw>  (363) 
-29.4229

>  <r_i_glide_ecoul>  (363) 
-3.03659

>  <r_i_glide_erotb>  (363) 
0.114887

>  <r_i_glide_esite>  (363) 
0

>  <r_i_glide_emodel>  (363) 
-38.5006

>  <r_i_glide_energy>  (363) 
-32.4595

>  <r_i_glide_einternal>  (363) 
0.990166

>  <r_i_glide_intrahb_reward>  (363) 
-0

>  <i_i_glide_confnum>  (363) 
1

>  <i_i_glide_posenum>  (363) 
3

>  <r_i_glide_eff_state_penalty>  (363) 
0

>  <ligand_id>  (363) 
114

>  <original_smiles>  (363) 
CC1(C)CC(O)C23C(O)OCC24C(=CCC2(C)C(c5ccoc5)OC(=O)CC24)C3C1

>  <smiles>  (363) 
[H]OC1([H])OC([H])([H])C23C(=C([H])C([H])([H])C4(C([H])([H])[H])C([H])(c5c([H])oc([H])c5[H])OC(=O)C([H])([H])C24[H])C2([H])C([H])([H])C(C([H])([H])[H])(C([H])([H])[H])C([H])([H])C([H])(O[H])C123

$$$$
114:0:2
     RDKit          3D

 60 65  0  0  1  0  0  0  0  0999 V2000
    0.0227   -8.8356    3.0064 C   0  0  0  0  0  0  0  0  0  0  0  0
    1.4526   -9.3839    3.2149 C   0  0  0  0  0  0  0  0  0  0  0  0
    1.3161  -10.8800    3.6001 C   0  0  0  0  0  0  0  0  0  0  0  0
    2.2378   -9.2503    1.8861 C   0  0  0  0  0  0  0  0  0  0  0  0
    3.7443   -9.0871    2.1100 C   0  0  1  0  0  0  0  0  0  0  0  0
    4.3990   -9.4410    0.8972 O   0  0  0  0  0  0  0  0  0  0  0  0
    4.1258   -7.7095    2.8334 C   0  0  1  0  0  0  0  0  0  0  0  0
    5.6344   -7.5415    2.6683 C   0  0  1  0  0  0  0  0  0  0  0  0
    6.3956   -8.7067    2.9045 O   0  0  0  0  0  0  0  0  0  0  0  0
    5.7077   -7.0380    1.3281 O   0  0  0  0  0  0  0  0  0  0  0  0
    4.4345   -6.4504    0.9374 C   0  0  0  0  0  0  0  0  0  0  0  0
    3.8688   -6.2362    2.3290 C   0  0  1  0  0  0  0  0  0  0  0  0
    2.5285   -6.4945    2.9531 C   0  0  0  0  0  0  0  0  0  0  0  0
    1.6458   -5.5513    3.3112 C   0  0  0  0  0  0  0  0  0  0  0  0
    1.8986   -4.0542    3.0900 C   0  0  0  0  0  0  0  0  0  0  0  0
    3.2869   -3.7118    2.4599 C   0  0  1  0  0  0  0  0  0  0  0  0
    3.0887   -3.6007    0.9282 C   0  0  0  0  0  0  0  0  0  0  0  0
    3.8778   -2.3549    2.9494 C   0  0  1  0  0  0  0  0  0  0  0  0
    3.0787   -1.1166    2.6030 C   0  0  0  0  0  0  0  0  0  0  0  0
    1.8242   -0.6928    3.1460 C   0  0  0  0  0  0  0  0  0  0  0  0
    1.5225    0.4953    2.5458 C   0  0  0  0  0  0  0  0  0  0  0  0
    2.5005    0.8613    1.6783 O   0  0  0  0  0  0  0  0  0  0  0  0
    3.4248   -0.1336    1.7205 C   0  0  0  0  0  0  0  0  0  0  0  0
    4.2237   -2.3388    4.3247 O   0  0  0  0  0  0  0  0  0  0  0  0
    4.9634   -3.3184    4.8596 C   0  0  0  0  0  0  0  0  0  0  0  0
    5.7643   -3.1623    5.7738 O   0  0  0  0  0  0  0  0  0  0  0  0
    4.6247   -4.7154    4.3779 C   0  0  0  0  0  0  0  0  0  0  0  0
    4.3268   -4.8153    2.8578 C   0  0  1  0  0  0  0  0  0  0  0  0
    3.1112   -7.4843    3.9784 C   0  0  1  0  0  0  0  0  0  0  0  0
    2.1747   -8.6414    4.3768 C   0  0  0  0  0  0  0  0  0  0  0  0
   -0.5090   -9.3817    2.2208 H   0  0  0  0  0  0  0  0  0  0  0  0
    0.0389   -7.7889    2.7070 H   0  0  0  0  0  0  0  0  0  0  0  0
   -0.5764   -8.9098    3.9179 H   0  0  0  0  0  0  0  0  0  0  0  0
    2.2928  -11.3552    3.7106 H   0  0  0  0  0  0  0  0  0  0  0  0
    0.7629  -11.4606    2.8553 H   0  0  0  0  0  0  0  0  0  0  0  0
    0.7932  -11.0026    4.5534 H   0  0  0  0  0  0  0  0  0  0  0  0
    2.0581  -10.1342    1.2864 H   0  0  0  0  0  0  0  0  0  0  0  0
    1.8585   -8.4206    1.2814 H   0  0  0  0  0  0  0  0  0  0  0  0
    4.0442   -9.9071    2.7729 H   0  0  0  0  0  0  0  0  0  0  0  0
    4.2199  -10.3748    0.7096 H   0  0  0  0  0  0  0  0  0  0  0  0
    6.0575   -6.7674    3.3059 H   0  0  0  0  0  0  0  0  0  0  0  0
    6.0233   -9.3938    2.3627 H   0  0  0  0  0  0  0  0  0  0  0  0
    4.6256   -5.5592    0.3477 H   0  0  0  0  0  0  0  0  0  0  0  0
    3.8118   -7.1057    0.3366 H   0  0  0  0  0  0  0  0  0  0  0  0
    0.8982   -5.7588    4.0644 H   0  0  0  0  0  0  0  0  0  0  0  0
    1.0813   -3.6130    2.5150 H   0  0  0  0  0  0  0  0  0  0  0  0
    1.8431   -3.5816    4.0789 H   0  0  0  0  0  0  0  0  0  0  0  0
    4.0378   -3.4185    0.4243 H   0  0  0  0  0  0  0  0  0  0  0  0
    2.4274   -2.7765    0.6551 H   0  0  0  0  0  0  0  0  0  0  0  0
    2.6358   -4.4965    0.5045 H   0  0  0  0  0  0  0  0  0  0  0  0
    4.8243   -2.2134    2.4272 H   0  0  0  0  0  0  0  0  0  0  0  0
    1.2240   -1.1868    3.8963 H   0  0  0  0  0  0  0  0  0  0  0  0
    0.7010    1.1938    2.6222 H   0  0  0  0  0  0  0  0  0  0  0  0
    4.2827    0.0370    1.0798 H   0  0  0  0  0  0  0  0  0  0  0  0
    5.4398   -5.3760    4.6803 H   0  0  0  0  0  0  0  0  0  0  0  0
    3.7550   -5.0021    4.9670 H   0  0  0  0  0  0  0  0  0  0  0  0
    5.2653   -4.5621    2.3693 H   0  0  0  0  0  0  0  0  0  0  0  0
    3.6396   -7.0676    4.8249 H   0  0  0  0  0  0  0  0  0  0  0  0
    1.4455   -8.3034    5.1039 H   0  0  0  0  0  0  0  0  0  0  0  0
    2.7718   -9.3832    4.9186 H   0  0  0  0  0  0  0  0  0  0  0  0
  1  2  1  0
  1 31  1  0
  1 32  1  0
  1 33  1  0
  2 30  1  0
  2  3  1  0
  2  4  1  0
  3 34  1  0
  3 35  1  0
  3 36  1  0
  4  5  1  0
  4 37  1  0
  4 38  1  0
  5  6  1  0
  5  7  1  0
  5 39  1  1
  6 40  1  0
  7 12  1  6
  7 29  1  0
  7  8  1  0
  8  9  1  0
  8 10  1  0
  8 41  1  1
  9 42  1  0
 10 11  1  0
 12 11  1  6
 11 43  1  0
 11 44  1  0
 12 28  1  0
 12 13  1  0
 13 14  2  0
 13 29  1  0
 14 15  1  0
 14 45  1  0
 15 16  1  0
 15 46  1  0
 15 47  1  0
 16 28  1  0
 16 17  1  6
 16 18  1  0
 17 48  1  0
 17 49  1  0
 17 50  1  0
 18 19  1  0
 18 24  1  0
 18 51  1  6
 19 23  2  0
 19 20  1  0
 20 21  2  0
 20 52  1  0
 21 22  1  0
 21 53  1  0
 22 23  1  0
 23 54  1  0
 24 25  1  0
 25 26  2  0
 25 27  1  0
 27 28  1  0
 27 55  1  0
 27 56  1  0
 28 57  1  6
 29 30  1  0
 29 58  1  1
 30 59  1  0
 30 60  1  0
M  END
>  <i_m_ct_stereo_status>  (364) 
1

>  <s_m_source_file>  (364) 
/var/tmp/pbs.5076255.sched01/tmpalt_vnqi/12934k3la1h.sdf

>  <i_m_source_file_index>  (364) 
38

>  <i_lp_mmshare_version>  (364) 
48012

>  <i_f3d_flags>  (364) 
0

>  <s_epik_input>  (364) 
W09IXVtDQEBIXTFbQ0gyXUMoW0NIM10pKFtDSDNdKVtDSDJdW0NAQEhdMkMoW0NAQF0zKFtDQF0xMjQpW0NIMl1PW0NAQEhdNFtPSF0pPVtDSF1bQ0gyXVtDQF01KFtDSDNdKVtDQEhdM1tDSDJdQyg9TylPW0NAQEhdNWM2W2NIXVtjSF1vW2NIXTY=

>  <s_epik_cmdline>  (364) 
J2VwaWtfcHl0aG9uJywgJy1waHQnLCAnMi4wJywgJy1waCcsICc3LjAnLCAnLXRuJywgJzgnLCAnLW1hJywgJzIwMCcsICctaW1hZScsICc8aW5maWxlLm1hZT4nLCAnLW9tYWUnLCAnPG91dGZpbGUubWFlPic=

>  <r_lp_tautomer_probability>  (364) 
1

>  <r_epik_Ionization_Penalty>  (364) 
1.91734e-07

>  <r_epik_Ionization_Penalty_Charging>  (364) 
0

>  <r_epik_Ionization_Penalty_Neutral>  (364) 
1.91734e-07

>  <r_epik_State_Penalty>  (364) 
-0

>  <r_epik_Charging_Adjusted_Penalty>  (364) 
0

>  <i_epik_Tot_Q>  (364) 
0

>  <i_epik_Tot_abs_Q>  (364) 
0

>  <s_epik_Chemistry_Notes>  (364) 
This compound has an ester and may undergo hydrolysis at high or low pH. This compound contains an acetal/aminal-like group ( X-CH(R)-Y where X, Y are N, S, or O) that may be acid/base labile, releasing an aldehyde.

>  <s_lp_Force_Field>  (364) 
OPLS3e

>  <r_lp_Energy>  (364) 
144.072

>  <b_lp_Chiralities_Consistent>  (364) 
1

>  <s_lp_Variant>  (364) 
114:0-1

>  <s_i_glide_gridfile>  (364) 
pfpi4k_grid

>  <i_i_glide_lignum>  (364) 
38

>  <i_i_glide_rotatable_bonds>  (364) 
3

>  <r_i_docking_score>  (364) 
-3.04444

>  <r_i_glide_ligand_efficiency>  (364) 
-0.101481

>  <r_i_glide_ligand_efficiency_sa>  (364) 
-0.315326

>  <r_i_glide_ligand_efficiency_ln>  (364) 
-0.69173

>  <r_i_glide_gscore>  (364) 
-3.04444

>  <r_i_glide_lipo>  (364) 
-0.324036

>  <r_i_glide_hbond>  (364) 
0

>  <r_i_glide_metal>  (364) 
-0

>  <r_i_glide_rewards>  (364) 
-0.629097

>  <r_i_glide_evdw>  (364) 
-27.8882

>  <r_i_glide_ecoul>  (364) 
-5.41188

>  <r_i_glide_erotb>  (364) 
0.114887

>  <r_i_glide_esite>  (364) 
0

>  <r_i_glide_emodel>  (364) 
-39.7277

>  <r_i_glide_energy>  (364) 
-33.3001

>  <r_i_glide_einternal>  (364) 
0.507419

>  <r_i_glide_intrahb_reward>  (364) 
-0

>  <i_i_glide_confnum>  (364) 
3

>  <i_i_glide_posenum>  (364) 
29

>  <r_i_glide_eff_state_penalty>  (364) 
0

>  <ligand_id>  (364) 
114

>  <original_smiles>  (364) 
CC1(C)CC(O)C23C(O)OCC24C(=CCC2(C)C(c5ccoc5)OC(=O)CC24)C3C1

>  <smiles>  (364) 
[H]OC1([H])OC([H])([H])C23C(=C([H])C([H])([H])C4(C([H])([H])[H])C([H])(c5c([H])oc([H])c5[H])OC(=O)C([H])([H])C24[H])C2([H])C([H])([H])C(C([H])([H])[H])(C([H])([H])[H])C([H])([H])C([H])(O[H])C123

$$$$
115:0:0
     RDKit          3D

 60 65  0  0  1  0  0  0  0  0999 V2000
    1.5978   -3.5469    3.6383 C   0  0  0  0  0  0  0  0  0  0  0  0
    2.7134   -4.4036    3.4093 O   0  0  0  0  0  0  0  0  0  0  0  0
    3.0420   -4.8285    2.1032 C   0  0  1  0  0  0  0  0  0  0  0  0
    1.7399   -5.6222    1.4767 C   0  0  0  0  0  0  0  0  0  0  0  0
    1.6384   -5.7269    0.2507 O   0  0  0  0  0  0  0  0  0  0  0  0
    0.8551   -6.0264    2.2963 O   0  0  0  0  0  0  0  0  0  0  0  0
    3.2979   -3.6089    1.2478 O   0  0  0  0  0  0  0  0  0  0  0  0
    4.3248   -2.4179    0.9551 C   0  0  1  0  0  0  0  0  0  0  0  0
    4.4997   -2.0447    2.3712 C   0  0  0  0  0  0  0  0  0  0  0  0
    5.2809   -3.3631    2.6862 C   0  0  0  0  0  0  0  0  0  0  0  0
    5.7094   -4.3093    1.3229 C   0  0  2  0  0  0  0  0  0  0  0  0
    5.6312   -5.7449    1.5557 C   0  0  1  0  0  0  0  0  0  0  0  0
    7.1093   -5.9631    1.9138 C   0  0  0  0  0  0  0  0  0  0  0  0
    7.8176   -4.8832    0.9886 C   0  0  0  0  0  0  0  0  0  0  0  0
    6.9642   -3.6069    1.2416 C   0  0  1  0  0  0  0  0  0  0  0  0
    6.0440   -2.4914    0.4677 C   0  0  2  0  0  0  0  0  0  0  0  0
    6.8515   -1.1751    0.6372 C   0  0  0  0  0  0  0  0  0  0  0  0
    6.1153   -2.9529   -0.9125 C   0  0  2  0  0  0  0  0  0  0  0  0
    5.4566   -1.9374   -1.8853 C   0  0  0  0  0  0  0  0  0  0  0  0
    4.3128   -1.0781   -1.2741 C   0  0  0  0  0  0  0  0  0  0  0  0
    3.4923   -1.8948   -0.2685 C   0  0  1  0  0  0  0  0  0  0  0  0
    3.0115   -3.1497   -1.1075 C   0  0  1  0  0  0  0  0  0  0  0  0
    2.3938   -2.9138   -2.5070 C   0  0  0  0  0  0  0  0  0  0  0  0
    4.0529   -4.3537   -1.0941 C   0  0  0  0  0  0  0  0  0  0  0  0
    5.4161   -4.1922   -0.3712 C   0  0  2  0  0  0  0  0  0  0  0  0
    4.2697   -5.9556    2.3017 C   0  0  1  0  0  0  0  0  0  0  0  0
    4.4507   -6.4852    3.7548 C   0  0  0  0  0  0  0  0  0  0  0  0
    0.6524   -4.0738    3.7441 H   0  0  0  0  0  0  0  0  0  0  0  0
    1.4853   -2.8004    2.8532 H   0  0  0  0  0  0  0  0  0  0  0  0
    1.7444   -3.0339    4.5857 H   0  0  0  0  0  0  0  0  0  0  0  0
    5.1056   -1.1578    2.5385 H   0  0  0  0  0  0  0  0  0  0  0  0
    3.5791   -1.9592    2.9325 H   0  0  0  0  0  0  0  0  0  0  0  0
    6.0558   -3.0832    3.3878 H   0  0  0  0  0  0  0  0  0  0  0  0
    4.8374   -3.8832    3.4973 H   0  0  0  0  0  0  0  0  0  0  0  0
    5.5241   -6.3207    0.6472 H   0  0  0  0  0  0  0  0  0  0  0  0
    7.3036   -5.7361    2.9635 H   0  0  0  0  0  0  0  0  0  0  0  0
    7.4671   -6.9811    1.7221 H   0  0  0  0  0  0  0  0  0  0  0  0
    8.8390   -4.7231    1.3072 H   0  0  0  0  0  0  0  0  0  0  0  0
    7.8749   -5.2234   -0.0544 H   0  0  0  0  0  0  0  0  0  0  0  0
    7.4212   -3.1868    2.0767 H   0  0  0  0  0  0  0  0  0  0  0  0
    7.7856   -1.2040    0.0862 H   0  0  0  0  0  0  0  0  0  0  0  0
    7.1361   -1.0214    1.6835 H   0  0  0  0  0  0  0  0  0  0  0  0
    6.3165   -0.2741    0.3573 H   0  0  0  0  0  0  0  0  0  0  0  0
    7.1235   -3.1989   -1.2379 H   0  0  0  0  0  0  0  0  0  0  0  0
    6.2160   -1.2347   -2.2105 H   0  0  0  0  0  0  0  0  0  0  0  0
    5.1491   -2.4530   -2.7929 H   0  0  0  0  0  0  0  0  0  0  0  0
    4.6683   -0.1767   -0.7911 H   0  0  0  0  0  0  0  0  0  0  0  0
    3.6812   -0.7012   -2.0760 H   0  0  0  0  0  0  0  0  0  0  0  0
    2.6587   -1.3289    0.1003 H   0  0  0  0  0  0  0  0  0  0  0  0
    2.1026   -3.4647   -0.5898 H   0  0  0  0  0  0  0  0  0  0  0  0
    3.0884   -2.6181   -3.2856 H   0  0  0  0  0  0  0  0  0  0  0  0
    1.6433   -2.1359   -2.4660 H   0  0  0  0  0  0  0  0  0  0  0  0
    1.8740   -3.8013   -2.8532 H   0  0  0  0  0  0  0  0  0  0  0  0
    3.6422   -5.2544   -0.6573 H   0  0  0  0  0  0  0  0  0  0  0  0
    4.3492   -4.5155   -2.1295 H   0  0  0  0  0  0  0  0  0  0  0  0
    5.9163   -5.0215   -0.8344 H   0  0  0  0  0  0  0  0  0  0  0  0
    3.8543   -6.8407    1.8022 H   0  0  0  0  0  0  0  0  0  0  0  0
    4.9112   -5.7635    4.4267 H   0  0  0  0  0  0  0  0  0  0  0  0
    5.0882   -7.3654    3.7717 H   0  0  0  0  0  0  0  0  0  0  0  0
    3.4931   -6.7801    4.1836 H   0  0  0  0  0  0  0  0  0  0  0  0
  1  2  1  0
  1 28  1  0
  1 29  1  0
  1 30  1  0
  3  2  1  1
  3 26  1  0
  3  4  1  0
  3  7  1  0
  4  5  2  0
  4  6  1  0
  8  7  1  1
  8 16  1  0
  8 21  1  0
  8  9  1  0
  9 10  1  0
  9 31  1  0
  9 32  1  0
 11 10  1  1
 10 33  1  0
 10 34  1  0
 11 15  1  0
 11 25  1  0
 11 12  1  0
 12 13  1  0
 12 26  1  0
 12 35  1  6
 13 14  1  0
 13 36  1  0
 13 37  1  0
 14 15  1  0
 14 38  1  0
 14 39  1  0
 15 16  1  0
 15 40  1  1
 16 17  1  6
 16 18  1  0
 17 41  1  0
 17 42  1  0
 17 43  1  0
 18 25  1  0
 18 19  1  0
 18 44  1  6
 19 20  1  0
 19 45  1  0
 19 46  1  0
 20 21  1  0
 20 47  1  0
 20 48  1  0
 21 22  1  0
 21 49  1  1
 22 23  1  0
 22 24  1  0
 22 50  1  1
 23 51  1  0
 23 52  1  0
 23 53  1  0
 24 25  1  0
 24 54  1  0
 24 55  1  0
 25 56  1  6
 26 27  1  0
 26 57  1  6
 27 58  1  0
 27 59  1  0
 27 60  1  0
M  CHG  1   6  -1
M  END
>  <i_m_ct_stereo_status>  (365) 
1

>  <s_m_source_file>  (365) 
/var/tmp/pbs.5076255.sched01/tmpalt_vnqi/12934k3la1h.sdf

>  <i_m_source_file_index>  (365) 
39

>  <i_lp_mmshare_version>  (365) 
48012

>  <i_f3d_flags>  (365) 
0

>  <s_epik_input>  (365) 
W0NIM11PW0NAXShPMSkoQyg9TylbT0hdKVtDQEhdKFtDSDNdKVtDQEhdKFtDSDJdW0NIMl0yKVtDQEBdKFtDSDJdW0NIMl0zKShbQ0BASF0yW0NAQF00KFtDQEBdMTM1KVtDSDNdKVtDQEBIXTZbQ0BIXTRbQ0gyXVtDSDJdW0NASF01W0NAQEhdKFtDSDNdKVtDSDJdNg==

>  <s_epik_cmdline>  (365) 
J2VwaWtfcHl0aG9uJywgJy1waHQnLCAnMi4wJywgJy1waCcsICc3LjAnLCAnLXRuJywgJzgnLCAnLW1hJywgJzIwMCcsICctaW1hZScsICc8aW5maWxlLm1hZT4nLCAnLW9tYWUnLCAnPG91dGZpbGUubWFlPic=

>  <r_lp_tautomer_probability>  (365) 
1

>  <r_epik_Ionization_Penalty>  (365) 
5.73264e-05

>  <r_epik_Ionization_Penalty_Charging>  (365) 
5.73263e-05

>  <r_epik_Ionization_Penalty_Neutral>  (365) 
9.41655e-11

>  <r_epik_State_Penalty>  (365) 
-0

>  <r_epik_Charging_Adjusted_Penalty>  (365) 
5.73263e-05

>  <i_epik_Tot_Q>  (365) 
-1

>  <i_epik_Tot_abs_Q>  (365) 
1

>  <s_lp_Force_Field>  (365) 
OPLS3e

>  <r_lp_Energy>  (365) 
400.904

>  <b_lp_Chiralities_Consistent>  (365) 
1

>  <s_lp_Variant>  (365) 
115:0-1

>  <s_i_glide_gridfile>  (365) 
pfpi4k_grid

>  <i_i_glide_lignum>  (365) 
39

>  <i_i_glide_rotatable_bonds>  (365) 
2

>  <r_i_docking_score>  (365) 
-2.55473

>  <r_i_glide_ligand_efficiency>  (365) 
-0.0946196

>  <r_i_glide_ligand_efficiency_sa>  (365) 
-0.283859

>  <r_i_glide_ligand_efficiency_ln>  (365) 
-0.594699

>  <r_i_glide_gscore>  (365) 
-2.55473

>  <r_i_glide_lipo>  (365) 
-0.644772

>  <r_i_glide_hbond>  (365) 
-0.202159

>  <r_i_glide_metal>  (365) 
-0

>  <r_i_glide_rewards>  (365) 
-0.862461

>  <r_i_glide_evdw>  (365) 
-11.1454

>  <r_i_glide_ecoul>  (365) 
-1.45607

>  <r_i_glide_erotb>  (365) 
0

>  <r_i_glide_esite>  (365) 
-0.0696541

>  <r_i_glide_emodel>  (365) 
-13.3799

>  <r_i_glide_energy>  (365) 
-12.6015

>  <r_i_glide_einternal>  (365) 
0.257371

>  <r_i_glide_intrahb_reward>  (365) 
-0

>  <i_i_glide_confnum>  (365) 
2

>  <i_i_glide_posenum>  (365) 
4

>  <r_i_glide_eff_state_penalty>  (365) 
0

>  <ligand_id>  (365) 
115

>  <original_smiles>  (365) 
COC1(C(=O)O)OC23CCC45C(CCC4C2(C)C2CCC3C(C)CC25)C1C

>  <smiles>  (365) 
[H]C([H])([H])OC1(C(=O)[O-])OC23C([H])([H])C([H])([H])C45C([H])(C([H])([H])C([H])([H])C4([H])C2(C([H])([H])[H])C2([H])C([H])([H])C([H])([H])C3([H])C([H])(C([H])([H])[H])C([H])([H])C25[H])C1([H])C([H])([H])[H]

$$$$
117:0:0
     RDKit          3D

 54 58  0  0  1  0  0  0  0  0999 V2000
    2.8422   -4.2353    4.4991 C   0  0  0  0  0  0  0  0  0  0  0  0
    3.0184   -3.8419    3.0359 C   0  0  0  0  0  0  0  0  0  0  0  0
    2.3441   -2.7069    2.7038 C   0  0  0  0  0  0  0  0  0  0  0  0
    2.1697   -1.8250    1.4885 C   0  0  0  0  0  0  0  0  0  0  0  0
    3.2759   -1.2780    0.5756 C   0  0  1  0  0  0  0  0  0  0  0  0
    4.2595   -0.2669    1.2067 C   0  0  1  0  0  0  0  0  0  0  0  0
    3.9531    0.0152    2.5618 O   0  0  0  0  0  0  0  0  0  0  0  0
    5.7186   -0.6836    1.0610 C   0  0  0  0  0  0  0  0  0  0  0  0
    5.9060   -2.2042    1.0151 C   0  0  1  0  0  0  0  0  0  0  0  0
    5.6332   -2.7760    2.4040 C   0  0  0  0  0  0  0  0  0  0  0  0
    5.4406   -4.2941    2.5935 C   0  0  2  0  0  0  0  0  0  0  0  0
    6.5603   -5.0880    1.9011 C   0  0  0  0  0  0  0  0  0  0  0  0
    6.4175   -5.0850    0.3829 C   0  0  0  0  0  0  0  0  0  0  0  0
    5.1365   -4.4014   -0.1205 C   0  0  2  0  0  0  0  0  0  0  0  0
    5.2017   -2.8562   -0.1792 C   0  0  1  0  0  0  0  0  0  0  0  0
    3.8362   -2.1945   -0.5707 C   0  0  2  0  0  0  0  0  0  0  0  0
    4.0881   -1.2970   -1.8195 C   0  0  0  0  0  0  0  0  0  0  0  0
    2.8201   -3.2716   -1.0429 C   0  0  0  0  0  0  0  0  0  0  0  0
    2.6120   -4.4579   -0.0820 C   0  0  0  0  0  0  0  0  0  0  0  0
    3.8887   -4.8878    0.6428 C   0  0  2  0  0  0  0  0  0  0  0  0
    4.0032   -4.7579    2.2236 C   0  0  2  0  0  0  0  0  0  0  0  0
    3.8207   -6.2194    2.7433 C   0  0  0  0  0  0  0  0  0  0  0  0
    3.8045   -4.3727    4.9802 H   0  0  0  0  0  0  0  0  0  0  0  0
    2.2531   -5.1468    4.5941 H   0  0  0  0  0  0  0  0  0  0  0  0
    2.3321   -3.4698    5.0778 H   0  0  0  0  0  0  0  0  0  0  0  0
    1.7090   -2.3117    3.4814 H   0  0  0  0  0  0  0  0  0  0  0  0
    1.4216   -2.2932    0.8808 H   0  0  0  0  0  0  0  0  0  0  0  0
    1.6248   -0.9630    1.8613 H   0  0  0  0  0  0  0  0  0  0  0  0
    2.6394   -0.5978    0.0134 H   0  0  0  0  0  0  0  0  0  0  0  0
    4.1540    0.6945    0.6963 H   0  0  0  0  0  0  0  0  0  0  0  0
    3.0979    0.4077    2.5977 H   0  0  0  0  0  0  0  0  0  0  0  0
    6.1220   -0.2662    0.1458 H   0  0  0  0  0  0  0  0  0  0  0  0
    6.3077   -0.2605    1.8786 H   0  0  0  0  0  0  0  0  0  0  0  0
    6.9658   -2.3678    0.8413 H   0  0  0  0  0  0  0  0  0  0  0  0
    6.5539   -2.4772    2.8844 H   0  0  0  0  0  0  0  0  0  0  0  0
    4.8999   -2.2176    2.9672 H   0  0  0  0  0  0  0  0  0  0  0  0
    5.5844   -4.4764    3.6504 H   0  0  0  0  0  0  0  0  0  0  0  0
    7.5402   -4.6852    2.1575 H   0  0  0  0  0  0  0  0  0  0  0  0
    6.5739   -6.1178    2.2587 H   0  0  0  0  0  0  0  0  0  0  0  0
    7.2918   -4.6321   -0.0765 H   0  0  0  0  0  0  0  0  0  0  0  0
    6.4024   -6.1254    0.0789 H   0  0  0  0  0  0  0  0  0  0  0  0
    5.0260   -4.7398   -1.1532 H   0  0  0  0  0  0  0  0  0  0  0  0
    5.8805   -2.6707   -1.0060 H   0  0  0  0  0  0  0  0  0  0  0  0
    4.5214   -1.8711   -2.6412 H   0  0  0  0  0  0  0  0  0  0  0  0
    4.7596   -0.4654   -1.6187 H   0  0  0  0  0  0  0  0  0  0  0  0
    3.1550   -0.8721   -2.1929 H   0  0  0  0  0  0  0  0  0  0  0  0
    1.8606   -2.8277   -1.2983 H   0  0  0  0  0  0  0  0  0  0  0  0
    3.1811   -3.6728   -1.9885 H   0  0  0  0  0  0  0  0  0  0  0  0
    1.8302   -4.3109    0.6438 H   0  0  0  0  0  0  0  0  0  0  0  0
    2.2521   -5.2901   -0.7129 H   0  0  0  0  0  0  0  0  0  0  0  0
    3.9161   -5.9432    0.4241 H   0  0  0  0  0  0  0  0  0  0  0  0
    4.4465   -6.9375    2.2125 H   0  0  0  0  0  0  0  0  0  0  0  0
    2.7886   -6.5516    2.6312 H   0  0  0  0  0  0  0  0  0  0  0  0
    4.0989   -6.3340    3.7868 H   0  0  0  0  0  0  0  0  0  0  0  0
  1  2  1  0
  1 23  1  0
  1 24  1  0
  1 25  1  0
  2 21  1  0
  2  3  2  3
  3  4  1  0
  3 26  1  0
  4  5  1  0
  4 27  1  0
  4 28  1  0
  5 16  1  0
  5  6  1  0
  5 29  1  6
  6  7  1  0
  6  8  1  0
  6 30  1  6
  7 31  1  0
  8  9  1  0
  8 32  1  0
  8 33  1  0
  9 15  1  0
  9 10  1  0
  9 34  1  6
 10 11  1  0
 10 35  1  0
 10 36  1  0
 11 21  1  0
 11 12  1  0
 11 37  1  1
 12 13  1  0
 12 38  1  0
 12 39  1  0
 13 14  1  0
 13 40  1  0
 13 41  1  0
 14 20  1  0
 14 15  1  0
 14 42  1  6
 15 16  1  0
 15 43  1  6
 16 17  1  6
 16 18  1  0
 17 44  1  0
 17 45  1  0
 17 46  1  0
 18 19  1  0
 18 47  1  0
 18 48  1  0
 19 20  1  0
 19 49  1  0
 19 50  1  0
 20 21  1  0
 20 51  1  1
 21 22  1  1
 22 52  1  0
 22 53  1  0
 22 54  1  0
M  END
>  <i_m_ct_stereo_status>  (366) 
1

>  <s_m_source_file>  (366) 
/var/tmp/pbs.5076255.sched01/tmpalt_vnqi/12934k3la1h.sdf

>  <i_m_source_file_index>  (366) 
41

>  <i_lp_mmshare_version>  (366) 
48012

>  <i_f3d_flags>  (366) 
0

>  <s_epik_input>  (366) 
W0NIM11bQ0BdMTJbQ0BIXTNbQ0gyXVxbQ0hdPUMoXFtDSDNdKVtDQF00KFtDSDNdKVtDQEBIXTVbQ0gyXVtDQEhdKFtDSDJdW0NAQEhdM1tPSF0pW0NIXTFbQ0BASF0oW0NIMl1bQ0gyXTUpW0NAQEhdNFtDSDJdW0NIMl0y

>  <s_epik_cmdline>  (366) 
J2VwaWtfcHl0aG9uJywgJy1waHQnLCAnMi4wJywgJy1waCcsICc3LjAnLCAnLXRuJywgJzgnLCAnLW1hJywgJzIwMCcsICctaW1hZScsICc8aW5maWxlLm1hZT4nLCAnLW9tYWUnLCAnPG91dGZpbGUubWFlPic=

>  <r_lp_tautomer_probability>  (366) 
1

>  <r_epik_Ionization_Penalty>  (366) 
2.43355e-06

>  <r_epik_Ionization_Penalty_Charging>  (366) 
0

>  <r_epik_Ionization_Penalty_Neutral>  (366) 
2.43355e-06

>  <r_epik_State_Penalty>  (366) 
-0

>  <r_epik_Charging_Adjusted_Penalty>  (366) 
0

>  <i_epik_Tot_Q>  (366) 
0

>  <i_epik_Tot_abs_Q>  (366) 
0

>  <s_lp_Force_Field>  (366) 
OPLS3e

>  <r_lp_Energy>  (366) 
101.135

>  <b_lp_Chiralities_Consistent>  (366) 
1

>  <s_lp_Variant>  (366) 
117:0-1

>  <s_i_glide_gridfile>  (366) 
pfpi4k_grid

>  <i_i_glide_lignum>  (366) 
41

>  <i_i_glide_rotatable_bonds>  (366) 
1

>  <r_i_docking_score>  (366) 
-2.91998

>  <r_i_glide_ligand_efficiency>  (366) 
-0.132726

>  <r_i_glide_ligand_efficiency_sa>  (366) 
-0.371904

>  <r_i_glide_ligand_efficiency_ln>  (366) 
-0.713749

>  <r_i_glide_gscore>  (366) 
-2.91998

>  <r_i_glide_lipo>  (366) 
-0.668087

>  <r_i_glide_hbond>  (366) 
0

>  <r_i_glide_metal>  (366) 
-0

>  <r_i_glide_rewards>  (366) 
-1.36038

>  <r_i_glide_evdw>  (366) 
-15.0193

>  <r_i_glide_ecoul>  (366) 
-0.936999

>  <r_i_glide_erotb>  (366) 
0

>  <r_i_glide_esite>  (366) 
0

>  <r_i_glide_emodel>  (366) 
-17.7242

>  <r_i_glide_energy>  (366) 
-15.9563

>  <r_i_glide_einternal>  (366) 
0.333351

>  <r_i_glide_intrahb_reward>  (366) 
-0

>  <i_i_glide_confnum>  (366) 
1

>  <i_i_glide_posenum>  (366) 
5

>  <r_i_glide_eff_state_penalty>  (366) 
0

>  <ligand_id>  (366) 
117

>  <original_smiles>  (366) 
CC1=CCC2C(O)CC3CC4CCC5C3C2(C)CCC5C14C

>  <smiles>  (366) 
[H]OC1([H])C([H])([H])C2([H])C([H])([H])C3([H])C([H])([H])C([H])([H])C4([H])C5([H])C([H])([H])C([H])([H])C(C([H])([H])[H])(C1([H])C([H])([H])C([H])=C(C([H])([H])[H])C35C([H])([H])[H])C24[H]

$$$$
117:0:1
     RDKit          3D

 54 58  0  0  1  0  0  0  0  0999 V2000
    4.1827   -3.1311    4.7963 C   0  0  0  0  0  0  0  0  0  0  0  0
    3.8670   -3.2545    3.3038 C   0  0  0  0  0  0  0  0  0  0  0  0
    3.3114   -2.1347    2.7675 C   0  0  0  0  0  0  0  0  0  0  0  0
    2.8156   -1.6489    1.4105 C   0  0  0  0  0  0  0  0  0  0  0  0
    3.6518   -1.7554    0.0986 C   0  0  1  0  0  0  0  0  0  0  0  0
    4.9980   -0.9851    0.0315 C   0  0  1  0  0  0  0  0  0  0  0  0
    5.2799   -0.2536    1.1981 O   0  0  0  0  0  0  0  0  0  0  0  0
    6.2173   -1.8431   -0.3537 C   0  0  0  0  0  0  0  0  0  0  0  0
    6.1044   -3.2871    0.1387 C   0  0  1  0  0  0  0  0  0  0  0  0
    6.2974   -3.3385    1.6643 C   0  0  0  0  0  0  0  0  0  0  0  0
    5.8137   -4.5833    2.4392 C   0  0  2  0  0  0  0  0  0  0  0  0
    6.4270   -5.8492    1.8287 C   0  0  0  0  0  0  0  0  0  0  0  0
    5.7252   -6.2404    0.5333 C   0  0  0  0  0  0  0  0  0  0  0  0
    4.5274   -5.3551    0.1815 C   0  0  2  0  0  0  0  0  0  0  0  0
    4.8722   -4.0004   -0.4613 C   0  0  1  0  0  0  0  0  0  0  0  0
    3.6237   -3.0890   -0.7065 C   0  0  2  0  0  0  0  0  0  0  0  0
    3.5534   -2.7254   -2.2181 C   0  0  0  0  0  0  0  0  0  0  0  0
    2.3223   -3.8760   -0.4282 C   0  0  0  0  0  0  0  0  0  0  0  0
    2.2445   -4.6315    0.9267 C   0  0  0  0  0  0  0  0  0  0  0  0
    3.5916   -5.1851    1.3777 C   0  0  2  0  0  0  0  0  0  0  0  0
    4.2814   -4.6380    2.6851 C   0  0  2  0  0  0  0  0  0  0  0  0
    4.0329   -5.7485    3.7544 C   0  0  0  0  0  0  0  0  0  0  0  0
    5.2084   -3.4183    5.0153 H   0  0  0  0  0  0  0  0  0  0  0  0
    3.5135   -3.7441    5.3998 H   0  0  0  0  0  0  0  0  0  0  0  0
    4.0834   -2.1126    5.1691 H   0  0  0  0  0  0  0  0  0  0  0  0
    3.1221   -1.3457    3.4810 H   0  0  0  0  0  0  0  0  0  0  0  0
    1.7837   -1.9525    1.2703 H   0  0  0  0  0  0  0  0  0  0  0  0
    2.6855   -0.5771    1.5662 H   0  0  0  0  0  0  0  0  0  0  0  0
    3.0233   -1.1033   -0.5116 H   0  0  0  0  0  0  0  0  0  0  0  0
    4.9092   -0.2486   -0.7634 H   0  0  0  0  0  0  0  0  0  0  0  0
    4.5515    0.3451    1.3545 H   0  0  0  0  0  0  0  0  0  0  0  0
    6.3029   -1.8712   -1.4390 H   0  0  0  0  0  0  0  0  0  0  0  0
    7.1429   -1.3795   -0.0005 H   0  0  0  0  0  0  0  0  0  0  0  0
    6.9689   -3.8098   -0.2709 H   0  0  0  0  0  0  0  0  0  0  0  0
    7.3783   -3.2710    1.7570 H   0  0  0  0  0  0  0  0  0  0  0  0
    5.9422   -2.4360    2.1456 H   0  0  0  0  0  0  0  0  0  0  0  0
    6.2519   -4.5172    3.4266 H   0  0  0  0  0  0  0  0  0  0  0  0
    7.4919   -5.7026    1.6382 H   0  0  0  0  0  0  0  0  0  0  0  0
    6.3775   -6.6771    2.5348 H   0  0  0  0  0  0  0  0  0  0  0  0
    6.4380   -6.1967   -0.2815 H   0  0  0  0  0  0  0  0  0  0  0  0
    5.4007   -7.2729    0.6116 H   0  0  0  0  0  0  0  0  0  0  0  0
    3.9908   -5.9248   -0.5768 H   0  0  0  0  0  0  0  0  0  0  0  0
    5.2195   -4.2827   -1.4547 H   0  0  0  0  0  0  0  0  0  0  0  0
    3.5290   -3.6182   -2.8412 H   0  0  0  0  0  0  0  0  0  0  0  0
    4.3977   -2.1259   -2.5466 H   0  0  0  0  0  0  0  0  0  0  0  0
    2.6495   -2.1580   -2.4530 H   0  0  0  0  0  0  0  0  0  0  0  0
    1.4779   -3.2076   -0.5848 H   0  0  0  0  0  0  0  0  0  0  0  0
    2.1972   -4.6365   -1.1916 H   0  0  0  0  0  0  0  0  0  0  0  0
    1.8179   -4.0330    1.7245 H   0  0  0  0  0  0  0  0  0  0  0  0
    1.5424   -5.4588    0.7981 H   0  0  0  0  0  0  0  0  0  0  0  0
    3.3207   -6.2177    1.5834 H   0  0  0  0  0  0  0  0  0  0  0  0
    4.2717   -6.7474    3.3918 H   0  0  0  0  0  0  0  0  0  0  0  0
    2.9942   -5.7639    4.0728 H   0  0  0  0  0  0  0  0  0  0  0  0
    4.6522   -5.6343    4.6410 H   0  0  0  0  0  0  0  0  0  0  0  0
  1  2  1  0
  1 23  1  0
  1 24  1  0
  1 25  1  0
  2 21  1  0
  2  3  2  3
  3  4  1  0
  3 26  1  0
  4  5  1  0
  4 27  1  0
  4 28  1  0
  5 16  1  0
  5  6  1  0
  5 29  1  6
  6  7  1  0
  6  8  1  0
  6 30  1  6
  7 31  1  0
  8  9  1  0
  8 32  1  0
  8 33  1  0
  9 15  1  0
  9 10  1  0
  9 34  1  6
 10 11  1  0
 10 35  1  0
 10 36  1  0
 11 21  1  0
 11 12  1  0
 11 37  1  1
 12 13  1  0
 12 38  1  0
 12 39  1  0
 13 14  1  0
 13 40  1  0
 13 41  1  0
 14 20  1  0
 14 15  1  0
 14 42  1  6
 15 16  1  0
 15 43  1  6
 16 17  1  6
 16 18  1  0
 17 44  1  0
 17 45  1  0
 17 46  1  0
 18 19  1  0
 18 47  1  0
 18 48  1  0
 19 20  1  0
 19 49  1  0
 19 50  1  0
 20 21  1  0
 20 51  1  1
 21 22  1  1
 22 52  1  0
 22 53  1  0
 22 54  1  0
M  END
>  <i_m_ct_stereo_status>  (367) 
1

>  <s_m_source_file>  (367) 
/var/tmp/pbs.5076255.sched01/tmpalt_vnqi/12934k3la1h.sdf

>  <i_m_source_file_index>  (367) 
41

>  <i_lp_mmshare_version>  (367) 
48012

>  <i_f3d_flags>  (367) 
0

>  <s_epik_input>  (367) 
W0NIM11bQ0BdMTJbQ0BIXTNbQ0gyXVxbQ0hdPUMoXFtDSDNdKVtDQF00KFtDSDNdKVtDQEBIXTVbQ0gyXVtDQEhdKFtDSDJdW0NAQEhdM1tPSF0pW0NIXTFbQ0BASF0oW0NIMl1bQ0gyXTUpW0NAQEhdNFtDSDJdW0NIMl0y

>  <s_epik_cmdline>  (367) 
J2VwaWtfcHl0aG9uJywgJy1waHQnLCAnMi4wJywgJy1waCcsICc3LjAnLCAnLXRuJywgJzgnLCAnLW1hJywgJzIwMCcsICctaW1hZScsICc8aW5maWxlLm1hZT4nLCAnLW9tYWUnLCAnPG91dGZpbGUubWFlPic=

>  <r_lp_tautomer_probability>  (367) 
1

>  <r_epik_Ionization_Penalty>  (367) 
2.43355e-06

>  <r_epik_Ionization_Penalty_Charging>  (367) 
0

>  <r_epik_Ionization_Penalty_Neutral>  (367) 
2.43355e-06

>  <r_epik_State_Penalty>  (367) 
-0

>  <r_epik_Charging_Adjusted_Penalty>  (367) 
0

>  <i_epik_Tot_Q>  (367) 
0

>  <i_epik_Tot_abs_Q>  (367) 
0

>  <s_lp_Force_Field>  (367) 
OPLS3e

>  <r_lp_Energy>  (367) 
101.135

>  <b_lp_Chiralities_Consistent>  (367) 
1

>  <s_lp_Variant>  (367) 
117:0-1

>  <s_i_glide_gridfile>  (367) 
pfpi4k_grid

>  <i_i_glide_lignum>  (367) 
41

>  <i_i_glide_rotatable_bonds>  (367) 
1

>  <r_i_docking_score>  (367) 
-2.74667

>  <r_i_glide_ligand_efficiency>  (367) 
-0.124849

>  <r_i_glide_ligand_efficiency_sa>  (367) 
-0.349831

>  <r_i_glide_ligand_efficiency_ln>  (367) 
-0.671387

>  <r_i_glide_gscore>  (367) 
-2.74667

>  <r_i_glide_lipo>  (367) 
-0.388637

>  <r_i_glide_hbond>  (367) 
-0.11559

>  <r_i_glide_metal>  (367) 
-0

>  <r_i_glide_rewards>  (367) 
-1.36038

>  <r_i_glide_evdw>  (367) 
-16.3167

>  <r_i_glide_ecoul>  (367) 
-0.441558

>  <r_i_glide_erotb>  (367) 
0

>  <r_i_glide_esite>  (367) 
0

>  <r_i_glide_emodel>  (367) 
-18.6609

>  <r_i_glide_energy>  (367) 
-16.7583

>  <r_i_glide_einternal>  (367) 
0.339002

>  <r_i_glide_intrahb_reward>  (367) 
-0

>  <i_i_glide_confnum>  (367) 
1

>  <i_i_glide_posenum>  (367) 
1

>  <r_i_glide_eff_state_penalty>  (367) 
0

>  <ligand_id>  (367) 
117

>  <original_smiles>  (367) 
CC1=CCC2C(O)CC3CC4CCC5C3C2(C)CCC5C14C

>  <smiles>  (367) 
[H]OC1([H])C([H])([H])C2([H])C([H])([H])C3([H])C([H])([H])C([H])([H])C4([H])C5([H])C([H])([H])C([H])([H])C(C([H])([H])[H])(C1([H])C([H])([H])C([H])=C(C([H])([H])[H])C35C([H])([H])[H])C24[H]

$$$$
117:1:0
     RDKit          3D

 54 58  0  0  1  0  0  0  0  0999 V2000
   -2.5827    3.1159    6.3609 C   0  0  0  0  0  0  0  0  0  0  0  0
   -1.0578    2.9471    6.3394 C   0  0  0  0  0  0  0  0  0  0  0  0
   -0.3552    3.5785    5.3928 C   0  0  0  0  0  0  0  0  0  0  0  0
   -0.6059    3.3646    3.9282 C   0  0  0  0  0  0  0  0  0  0  0  0
    0.5711    2.5428    3.2927 C   0  0  1  0  0  0  0  0  0  0  0  0
    1.9446    3.2765    3.2273 C   0  0  1  0  0  0  0  0  0  0  0  0
    1.8085    4.6401    2.8786 O   0  0  0  0  0  0  0  0  0  0  0  0
    2.9085    3.0890    4.4321 C   0  0  0  0  0  0  0  0  0  0  0  0
    2.5152    2.0672    5.5406 C   0  0  1  0  0  0  0  0  0  0  0  0
    2.1798    2.7392    6.9211 C   0  0  0  0  0  0  0  0  0  0  0  0
    1.0570    2.1440    7.8193 C   0  0  2  0  0  0  0  0  0  0  0  0
    1.6637    0.8694    8.4574 C   0  0  0  0  0  0  0  0  0  0  0  0
    1.8454   -0.2469    7.4199 C   0  0  0  0  0  0  0  0  0  0  0  0
    0.9993   -0.0192    6.1529 C   0  0  2  0  0  0  0  0  0  0  0  0
    1.6736    0.8448    5.0470 C   0  0  1  0  0  0  0  0  0  0  0  0
    0.7820    1.0416    3.7496 C   0  0  2  0  0  0  0  0  0  0  0  0
    1.5343    0.3302    2.5805 C   0  0  0  0  0  0  0  0  0  0  0  0
   -0.5631    0.2595    3.8696 C   0  0  0  0  0  0  0  0  0  0  0  0
   -1.3014    0.2788    5.2287 C   0  0  0  0  0  0  0  0  0  0  0  0
   -0.4123    0.4847    6.4973 C   0  0  2  0  0  0  0  0  0  0  0  0
   -0.4204    1.8749    7.2653 C   0  0  2  0  0  0  0  0  0  0  0  0
   -1.3240    1.7473    8.5304 C   0  0  0  0  0  0  0  0  0  0  0  0
   -3.1410    2.1916    6.4811 H   0  0  0  0  0  0  0  0  0  0  0  0
   -2.9437    3.6004    5.4553 H   0  0  0  0  0  0  0  0  0  0  0  0
   -2.8552    3.7614    7.1952 H   0  0  0  0  0  0  0  0  0  0  0  0
    0.6847    3.6971    5.4518 H   0  0  0  0  0  0  0  0  0  0  0  0
   -1.5608    2.8640    3.7597 H   0  0  0  0  0  0  0  0  0  0  0  0
   -0.6890    4.3385    3.4476 H   0  0  0  0  0  0  0  0  0  0  0  0
    0.2465    2.4879    2.2520 H   0  0  0  0  0  0  0  0  0  0  0  0
    2.4694    2.8800    2.3601 H   0  0  0  0  0  0  0  0  0  0  0  0
    1.2190    4.6808    2.1243 H   0  0  0  0  0  0  0  0  0  0  0  0
    3.8717    2.7861    4.0198 H   0  0  0  0  0  0  0  0  0  0  0  0
    3.1147    4.0579    4.8840 H   0  0  0  0  0  0  0  0  0  0  0  0
    3.4759    1.6059    5.7753 H   0  0  0  0  0  0  0  0  0  0  0  0
    3.1073    2.7171    7.4971 H   0  0  0  0  0  0  0  0  0  0  0  0
    2.0534    3.8179    6.8489 H   0  0  0  0  0  0  0  0  0  0  0  0
    0.9538    2.8668    8.6294 H   0  0  0  0  0  0  0  0  0  0  0  0
    2.6260    1.0851    8.9255 H   0  0  0  0  0  0  0  0  0  0  0  0
    1.0563    0.5013    9.2809 H   0  0  0  0  0  0  0  0  0  0  0  0
    2.8968   -0.3541    7.1511 H   0  0  0  0  0  0  0  0  0  0  0  0
    1.5619   -1.1935    7.8835 H   0  0  0  0  0  0  0  0  0  0  0  0
    0.8818   -1.0168    5.7238 H   0  0  0  0  0  0  0  0  0  0  0  0
    2.4660    0.1644    4.7289 H   0  0  0  0  0  0  0  0  0  0  0  0
    1.6405   -0.7420    2.7596 H   0  0  0  0  0  0  0  0  0  0  0  0
    2.5494    0.7044    2.4463 H   0  0  0  0  0  0  0  0  0  0  0  0
    1.0147    0.4384    1.6252 H   0  0  0  0  0  0  0  0  0  0  0  0
   -1.2442    0.5641    3.0713 H   0  0  0  0  0  0  0  0  0  0  0  0
   -0.3608   -0.7953    3.6689 H   0  0  0  0  0  0  0  0  0  0  0  0
   -2.1516    0.9404    5.1461 H   0  0  0  0  0  0  0  0  0  0  0  0
   -1.7738   -0.7003    5.3174 H   0  0  0  0  0  0  0  0  0  0  0  0
   -0.7949   -0.2434    7.2107 H   0  0  0  0  0  0  0  0  0  0  0  0
   -0.9485    1.0478    9.2697 H   0  0  0  0  0  0  0  0  0  0  0  0
   -2.3254    1.3893    8.3066 H   0  0  0  0  0  0  0  0  0  0  0  0
   -1.4275    2.7034    9.0420 H   0  0  0  0  0  0  0  0  0  0  0  0
  1  2  1  0
  1 23  1  0
  1 24  1  0
  1 25  1  0
  2 21  1  0
  2  3  2  3
  3  4  1  0
  3 26  1  0
  4  5  1  0
  4 27  1  0
  4 28  1  0
  5 16  1  0
  5  6  1  0
  5 29  1  6
  6  7  1  0
  6  8  1  0
  6 30  1  6
  7 31  1  0
  8  9  1  0
  8 32  1  0
  8 33  1  0
  9 15  1  0
  9 10  1  0
  9 34  1  1
 10 11  1  0
 10 35  1  0
 10 36  1  0
 11 21  1  0
 11 12  1  0
 11 37  1  1
 12 13  1  0
 12 38  1  0
 12 39  1  0
 13 14  1  0
 13 40  1  0
 13 41  1  0
 14 20  1  0
 14 15  1  0
 14 42  1  6
 15 16  1  0
 15 43  1  6
 16 17  1  6
 16 18  1  0
 17 44  1  0
 17 45  1  0
 17 46  1  0
 18 19  1  0
 18 47  1  0
 18 48  1  0
 19 20  1  0
 19 49  1  0
 19 50  1  0
 20 21  1  0
 20 51  1  1
 21 22  1  1
 22 52  1  0
 22 53  1  0
 22 54  1  0
M  END
>  <i_m_ct_stereo_status>  (368) 
1

>  <s_m_source_file>  (368) 
/var/tmp/pbs.5076255.sched01/tmpalt_vnqi/12934k3la1h.sdf

>  <i_m_source_file_index>  (368) 
42

>  <i_lp_mmshare_version>  (368) 
48012

>  <i_f3d_flags>  (368) 
0

>  <s_epik_input>  (368) 
W0NIM11bQ0BdMTJbQ0BIXTNbQ0gyXVxbQ0hdPUMoXFtDSDNdKVtDQF00KFtDSDNdKVtDQEBIXTVbQ0gyXVtDQEhdKFtDSDJdW0NAQEhdM1tPSF0pW0NIXTFbQ0BASF0oW0NIMl1bQ0gyXTUpW0NAQEhdNFtDSDJdW0NIMl0y

>  <s_epik_cmdline>  (368) 
J2VwaWtfcHl0aG9uJywgJy1waHQnLCAnMi4wJywgJy1waCcsICc3LjAnLCAnLXRuJywgJzgnLCAnLW1hJywgJzIwMCcsICctaW1hZScsICc8aW5maWxlLm1hZT4nLCAnLW9tYWUnLCAnPG91dGZpbGUubWFlPic=

>  <r_lp_tautomer_probability>  (368) 
1

>  <r_epik_Ionization_Penalty>  (368) 
2.43355e-06

>  <r_epik_Ionization_Penalty_Charging>  (368) 
0

>  <r_epik_Ionization_Penalty_Neutral>  (368) 
2.43355e-06

>  <r_epik_State_Penalty>  (368) 
-0

>  <r_epik_Charging_Adjusted_Penalty>  (368) 
0

>  <i_epik_Tot_Q>  (368) 
0

>  <i_epik_Tot_abs_Q>  (368) 
0

>  <s_lp_Force_Field>  (368) 
OPLS3e

>  <r_lp_Energy>  (368) 
131.428

>  <b_lp_Chiralities_Consistent>  (368) 
1

>  <s_lp_Variant>  (368) 
117:0-2

>  <s_i_glide_gridfile>  (368) 
pfpi4k_grid

>  <i_i_glide_lignum>  (368) 
42

>  <i_i_glide_rotatable_bonds>  (368) 
1

>  <r_i_docking_score>  (368) 
-3.21572

>  <r_i_glide_ligand_efficiency>  (368) 
-0.146169

>  <r_i_glide_ligand_efficiency_sa>  (368) 
-0.409572

>  <r_i_glide_ligand_efficiency_ln>  (368) 
-0.78604

>  <r_i_glide_gscore>  (368) 
-3.21572

>  <r_i_glide_lipo>  (368) 
-0.144259

>  <r_i_glide_hbond>  (368) 
-0.16

>  <r_i_glide_metal>  (368) 
-0

>  <r_i_glide_rewards>  (368) 
-1.36038

>  <r_i_glide_evdw>  (368) 
-20.0252

>  <r_i_glide_ecoul>  (368) 
-3.66552

>  <r_i_glide_erotb>  (368) 
0

>  <r_i_glide_esite>  (368) 
0

>  <r_i_glide_emodel>  (368) 
-28.6694

>  <r_i_glide_energy>  (368) 
-23.6907

>  <r_i_glide_einternal>  (368) 
0.37869

>  <r_i_glide_intrahb_reward>  (368) 
-0

>  <i_i_glide_confnum>  (368) 
2

>  <i_i_glide_posenum>  (368) 
11

>  <r_i_glide_eff_state_penalty>  (368) 
0

>  <ligand_id>  (368) 
117

>  <original_smiles>  (368) 
CC1=CCC2C(O)CC3CC4CCC5C3C2(C)CCC5C14C

>  <smiles>  (368) 
[H]OC1([H])C([H])([H])C2([H])C([H])([H])C3([H])C([H])([H])C([H])([H])C4([H])C5([H])C([H])([H])C([H])([H])C(C([H])([H])[H])(C1([H])C([H])([H])C([H])=C(C([H])([H])[H])C35C([H])([H])[H])C24[H]

$$$$
117:1:1
     RDKit          3D

 54 58  0  0  1  0  0  0  0  0999 V2000
    0.0106    4.8093    3.6868 C   0  0  0  0  0  0  0  0  0  0  0  0
    0.3475    3.5632    4.5148 C   0  0  0  0  0  0  0  0  0  0  0  0
    1.6089    3.1142    4.5205 C   0  0  0  0  0  0  0  0  0  0  0  0
    2.3258    2.7242    3.2630 C   0  0  0  0  0  0  0  0  0  0  0  0
    2.4943    1.1632    3.2018 C   0  0  1  0  0  0  0  0  0  0  0  0
    3.4476    0.5350    4.2596 C   0  0  1  0  0  0  0  0  0  0  0  0
    4.5775    1.3432    4.4892 O   0  0  0  0  0  0  0  0  0  0  0  0
    2.8249    0.0803    5.6079 C   0  0  0  0  0  0  0  0  0  0  0  0
    1.2759    0.1208    5.7538 C   0  0  1  0  0  0  0  0  0  0  0  0
    0.7707    1.2005    6.7771 C   0  0  0  0  0  0  0  0  0  0  0  0
   -0.5536    1.9700    6.5015 C   0  0  2  0  0  0  0  0  0  0  0  0
   -1.6907    0.9693    6.8107 C   0  0  0  0  0  0  0  0  0  0  0  0
   -1.7595   -0.1501    5.7590 C   0  0  0  0  0  0  0  0  0  0  0  0
   -1.0339    0.2208    4.4578 C   0  0  2  0  0  0  0  0  0  0  0  0
    0.4837   -0.1170    4.4280 C   0  0  1  0  0  0  0  0  0  0  0  0
    1.2031    0.2626    3.0663 C   0  0  2  0  0  0  0  0  0  0  0  0
    1.6678   -1.0790    2.4222 C   0  0  0  0  0  0  0  0  0  0  0  0
    0.1904    0.8567    2.0453 C   0  0  0  0  0  0  0  0  0  0  0  0
   -0.8996    1.8206    2.5608 C   0  0  0  0  0  0  0  0  0  0  0  0
   -1.3145    1.6759    4.0540 C   0  0  2  0  0  0  0  0  0  0  0  0
   -0.8194    2.7351    5.1266 C   0  0  2  0  0  0  0  0  0  0  0  0
   -1.9853    3.7217    5.4188 C   0  0  0  0  0  0  0  0  0  0  0  0
   -0.8764    4.7218    3.0620 H   0  0  0  0  0  0  0  0  0  0  0  0
    0.8346    5.0846    3.0282 H   0  0  0  0  0  0  0  0  0  0  0  0
   -0.1466    5.6528    4.3576 H   0  0  0  0  0  0  0  0  0  0  0  0
    1.9549    2.4247    5.2269 H   0  0  0  0  0  0  0  0  0  0  0  0
    1.8020    3.0919    2.3788 H   0  0  0  0  0  0  0  0  0  0  0  0
    3.2962    3.2181    3.2586 H   0  0  0  0  0  0  0  0  0  0  0  0
    3.0285    1.0530    2.2572 H   0  0  0  0  0  0  0  0  0  0  0  0
    3.8803   -0.3550    3.8061 H   0  0  0  0  0  0  0  0  0  0  0  0
    4.7974    1.7737    3.6707 H   0  0  0  0  0  0  0  0  0  0  0  0
    3.1619   -0.9443    5.7862 H   0  0  0  0  0  0  0  0  0  0  0  0
    3.2781    0.6453    6.4218 H   0  0  0  0  0  0  0  0  0  0  0  0
    1.0745   -0.7923    6.3128 H   0  0  0  0  0  0  0  0  0  0  0  0
    0.6534    0.6769    7.7267 H   0  0  0  0  0  0  0  0  0  0  0  0
    1.5428    1.9085    7.0733 H   0  0  0  0  0  0  0  0  0  0  0  0
   -0.5931    2.7284    7.2851 H   0  0  0  0  0  0  0  0  0  0  0  0
   -1.5407    0.5460    7.8038 H   0  0  0  0  0  0  0  0  0  0  0  0
   -2.6584    1.4620    6.8761 H   0  0  0  0  0  0  0  0  0  0  0  0
   -1.3547   -1.0822    6.1524 H   0  0  0  0  0  0  0  0  0  0  0  0
   -2.8056   -0.3483    5.5309 H   0  0  0  0  0  0  0  0  0  0  0  0
   -1.4997   -0.4059    3.6956 H   0  0  0  0  0  0  0  0  0  0  0  0
    0.4375   -1.2081    4.4113 H   0  0  0  0  0  0  0  0  0  0  0  0
    0.8225   -1.7281    2.1936 H   0  0  0  0  0  0  0  0  0  0  0  0
    2.3124   -1.6614    3.0789 H   0  0  0  0  0  0  0  0  0  0  0  0
    2.2020   -0.9207    1.4839 H   0  0  0  0  0  0  0  0  0  0  0  0
    0.7137    1.3036    1.1982 H   0  0  0  0  0  0  0  0  0  0  0  0
   -0.3618    0.0326    1.5995 H   0  0  0  0  0  0  0  0  0  0  0  0
   -0.6419    2.8235    2.2617 H   0  0  0  0  0  0  0  0  0  0  0  0
   -1.7879    1.6179    1.9604 H   0  0  0  0  0  0  0  0  0  0  0  0
   -2.4021    1.7600    4.0344 H   0  0  0  0  0  0  0  0  0  0  0  0
   -2.8513    3.2603    5.8818 H   0  0  0  0  0  0  0  0  0  0  0  0
   -2.3856    4.1788    4.5185 H   0  0  0  0  0  0  0  0  0  0  0  0
   -1.6567    4.5151    6.0895 H   0  0  0  0  0  0  0  0  0  0  0  0
  1  2  1  0
  1 23  1  0
  1 24  1  0
  1 25  1  0
  2 21  1  0
  2  3  2  3
  3  4  1  0
  3 26  1  0
  4  5  1  0
  4 27  1  0
  4 28  1  0
  5 16  1  0
  5  6  1  0
  5 29  1  6
  6  7  1  0
  6  8  1  0
  6 30  1  6
  7 31  1  0
  8  9  1  0
  8 32  1  0
  8 33  1  0
  9 15  1  0
  9 10  1  0
  9 34  1  1
 10 11  1  0
 10 35  1  0
 10 36  1  0
 11 21  1  0
 11 12  1  0
 11 37  1  1
 12 13  1  0
 12 38  1  0
 12 39  1  0
 13 14  1  0
 13 40  1  0
 13 41  1  0
 14 20  1  0
 14 15  1  0
 14 42  1  6
 15 16  1  0
 15 43  1  6
 16 17  1  6
 16 18  1  0
 17 44  1  0
 17 45  1  0
 17 46  1  0
 18 19  1  0
 18 47  1  0
 18 48  1  0
 19 20  1  0
 19 49  1  0
 19 50  1  0
 20 21  1  0
 20 51  1  6
 21 22  1  1
 22 52  1  0
 22 53  1  0
 22 54  1  0
M  END
>  <i_m_ct_stereo_status>  (369) 
1

>  <s_m_source_file>  (369) 
/var/tmp/pbs.5076255.sched01/tmpalt_vnqi/12934k3la1h.sdf

>  <i_m_source_file_index>  (369) 
42

>  <i_lp_mmshare_version>  (369) 
48012

>  <i_f3d_flags>  (369) 
0

>  <s_epik_input>  (369) 
W0NIM11bQ0BdMTJbQ0BIXTNbQ0gyXVxbQ0hdPUMoXFtDSDNdKVtDQF00KFtDSDNdKVtDQEBIXTVbQ0gyXVtDQEhdKFtDSDJdW0NAQEhdM1tPSF0pW0NIXTFbQ0BASF0oW0NIMl1bQ0gyXTUpW0NAQEhdNFtDSDJdW0NIMl0y

>  <s_epik_cmdline>  (369) 
J2VwaWtfcHl0aG9uJywgJy1waHQnLCAnMi4wJywgJy1waCcsICc3LjAnLCAnLXRuJywgJzgnLCAnLW1hJywgJzIwMCcsICctaW1hZScsICc8aW5maWxlLm1hZT4nLCAnLW9tYWUnLCAnPG91dGZpbGUubWFlPic=

>  <r_lp_tautomer_probability>  (369) 
1

>  <r_epik_Ionization_Penalty>  (369) 
2.43355e-06

>  <r_epik_Ionization_Penalty_Charging>  (369) 
0

>  <r_epik_Ionization_Penalty_Neutral>  (369) 
2.43355e-06

>  <r_epik_State_Penalty>  (369) 
-0

>  <r_epik_Charging_Adjusted_Penalty>  (369) 
0

>  <i_epik_Tot_Q>  (369) 
0

>  <i_epik_Tot_abs_Q>  (369) 
0

>  <s_lp_Force_Field>  (369) 
OPLS3e

>  <r_lp_Energy>  (369) 
131.428

>  <b_lp_Chiralities_Consistent>  (369) 
1

>  <s_lp_Variant>  (369) 
117:0-2

>  <s_i_glide_gridfile>  (369) 
pfpi4k_grid

>  <i_i_glide_lignum>  (369) 
42

>  <i_i_glide_rotatable_bonds>  (369) 
1

>  <r_i_docking_score>  (369) 
-3.04078

>  <r_i_glide_ligand_efficiency>  (369) 
-0.138217

>  <r_i_glide_ligand_efficiency_sa>  (369) 
-0.38729

>  <r_i_glide_ligand_efficiency_ln>  (369) 
-0.743278

>  <r_i_glide_gscore>  (369) 
-3.04078

>  <r_i_glide_lipo>  (369) 
-0.000474885

>  <r_i_glide_hbond>  (369) 
-0.32

>  <r_i_glide_metal>  (369) 
-0

>  <r_i_glide_rewards>  (369) 
-1.36038

>  <r_i_glide_evdw>  (369) 
-21.4147

>  <r_i_glide_ecoul>  (369) 
-1.92797

>  <r_i_glide_erotb>  (369) 
0

>  <r_i_glide_esite>  (369) 
0

>  <r_i_glide_emodel>  (369) 
-27.7644

>  <r_i_glide_energy>  (369) 
-23.3426

>  <r_i_glide_einternal>  (369) 
0.754261

>  <r_i_glide_intrahb_reward>  (369) 
-0

>  <i_i_glide_confnum>  (369) 
1

>  <i_i_glide_posenum>  (369) 
31

>  <r_i_glide_eff_state_penalty>  (369) 
0

>  <ligand_id>  (369) 
117

>  <original_smiles>  (369) 
CC1=CCC2C(O)CC3CC4CCC5C3C2(C)CCC5C14C

>  <smiles>  (369) 
[H]OC1([H])C([H])([H])C2([H])C([H])([H])C3([H])C([H])([H])C([H])([H])C4([H])C5([H])C([H])([H])C([H])([H])C(C([H])([H])[H])(C1([H])C([H])([H])C([H])=C(C([H])([H])[H])C35C([H])([H])[H])C24[H]

$$$$
117:1:2
     RDKit          3D

 54 58  0  0  1  0  0  0  0  0999 V2000
   -2.1818    2.6367    3.4054 C   0  0  0  0  0  0  0  0  0  0  0  0
   -0.7920    2.4996    4.0350 C   0  0  0  0  0  0  0  0  0  0  0  0
    0.2423    2.1773    3.2493 C   0  0  0  0  0  0  0  0  0  0  0  0
    0.2647    0.9260    2.4213 C   0  0  0  0  0  0  0  0  0  0  0  0
    1.2920   -0.0996    3.0253 C   0  0  1  0  0  0  0  0  0  0  0  0
    2.7890    0.3157    2.9299 C   0  0  1  0  0  0  0  0  0  0  0  0
    3.0719    0.9447    1.6995 O   0  0  0  0  0  0  0  0  0  0  0  0
    3.3880    1.1146    4.1238 C   0  0  0  0  0  0  0  0  0  0  0  0
    2.5129    1.3060    5.3974 C   0  0  1  0  0  0  0  0  0  0  0  0
    2.0740    2.7957    5.6359 C   0  0  0  0  0  0  0  0  0  0  0  0
    0.6672    3.1019    6.2288 C   0  0  2  0  0  0  0  0  0  0  0  0
    0.7663    2.7648    7.7375 C   0  0  0  0  0  0  0  0  0  0  0  0
    0.8684    1.2511    7.9704 C   0  0  0  0  0  0  0  0  0  0  0  0
    0.4043    0.4341    6.7508 C   0  0  2  0  0  0  0  0  0  0  0  0
    1.5048    0.1456    5.6861 C   0  0  1  0  0  0  0  0  0  0  0  0
    0.9990   -0.7169    4.4538 C   0  0  2  0  0  0  0  0  0  0  0  0
    1.7726   -2.0706    4.5104 C   0  0  0  0  0  0  0  0  0  0  0  0
   -0.4934   -1.1263    4.6359 C   0  0  0  0  0  0  0  0  0  0  0  0
   -1.4794   -0.0710    5.1914 C   0  0  0  0  0  0  0  0  0  0  0  0
   -0.8679    1.0254    6.1209 C   0  0  2  0  0  0  0  0  0  0  0  0
   -0.6723    2.5079    5.5862 C   0  0  2  0  0  0  0  0  0  0  0  0
   -1.8297    3.3922    6.1385 C   0  0  0  0  0  0  0  0  0  0  0  0
   -2.9835    2.1409    3.9451 H   0  0  0  0  0  0  0  0  0  0  0  0
   -2.1966    2.2567    2.3847 H   0  0  0  0  0  0  0  0  0  0  0  0
   -2.4435    3.6915    3.3486 H   0  0  0  0  0  0  0  0  0  0  0  0
    1.2375    2.2962    3.5479 H   0  0  0  0  0  0  0  0  0  0  0  0
   -0.7294    0.4871    2.3489 H   0  0  0  0  0  0  0  0  0  0  0  0
    0.5435    1.1961    1.4022 H   0  0  0  0  0  0  0  0  0  0  0  0
    1.1989   -0.9232    2.3162 H   0  0  0  0  0  0  0  0  0  0  0  0
    3.3735   -0.6024    2.8702 H   0  0  0  0  0  0  0  0  0  0  0  0
    3.8412    1.4929    1.8011 H   0  0  0  0  0  0  0  0  0  0  0  0
    4.3095    0.6086    4.4178 H   0  0  0  0  0  0  0  0  0  0  0  0
    3.7326    2.0874    3.7768 H   0  0  0  0  0  0  0  0  0  0  0  0
    3.2431    1.1856    6.1994 H   0  0  0  0  0  0  0  0  0  0  0  0
    2.8144    3.2186    6.3168 H   0  0  0  0  0  0  0  0  0  0  0  0
    2.2511    3.4406    4.7757 H   0  0  0  0  0  0  0  0  0  0  0  0
    0.5836    4.1881    6.1661 H   0  0  0  0  0  0  0  0  0  0  0  0
    1.6265    3.2577    8.1936 H   0  0  0  0  0  0  0  0  0  0  0  0
   -0.0803    3.1573    8.2955 H   0  0  0  0  0  0  0  0  0  0  0  0
    1.8880    0.9724    8.2397 H   0  0  0  0  0  0  0  0  0  0  0  0
    0.2528    0.9969    8.8350 H   0  0  0  0  0  0  0  0  0  0  0  0
    0.1292   -0.5378    7.1643 H   0  0  0  0  0  0  0  0  0  0  0  0
    2.1428   -0.5387    6.2493 H   0  0  0  0  0  0  0  0  0  0  0  0
    1.5526   -2.6242    5.4253 H   0  0  0  0  0  0  0  0  0  0  0  0
    2.8542   -1.9338    4.5052 H   0  0  0  0  0  0  0  0  0  0  0  0
    1.5172   -2.7233    3.6735 H   0  0  0  0  0  0  0  0  0  0  0  0
   -0.8730   -1.5321    3.6989 H   0  0  0  0  0  0  0  0  0  0  0  0
   -0.5384   -1.9615    5.3385 H   0  0  0  0  0  0  0  0  0  0  0  0
   -2.0888    0.3017    4.3810 H   0  0  0  0  0  0  0  0  0  0  0  0
   -2.2060   -0.6278    5.7826 H   0  0  0  0  0  0  0  0  0  0  0  0
   -1.5803    1.1078    6.9433 H   0  0  0  0  0  0  0  0  0  0  0  0
   -1.8212    3.5031    7.2180 H   0  0  0  0  0  0  0  0  0  0  0  0
   -2.8181    2.9962    5.9189 H   0  0  0  0  0  0  0  0  0  0  0  0
   -1.7763    4.3966    5.7229 H   0  0  0  0  0  0  0  0  0  0  0  0
  1  2  1  0
  1 23  1  0
  1 24  1  0
  1 25  1  0
  2 21  1  0
  2  3  2  3
  3  4  1  0
  3 26  1  0
  4  5  1  0
  4 27  1  0
  4 28  1  0
  5 16  1  0
  5  6  1  0
  5 29  1  6
  6  7  1  0
  6  8  1  0
  6 30  1  6
  7 31  1  0
  8  9  1  0
  8 32  1  0
  8 33  1  0
  9 15  1  0
  9 10  1  0
  9 34  1  1
 10 11  1  0
 10 35  1  0
 10 36  1  0
 11 21  1  0
 11 12  1  0
 11 37  1  1
 12 13  1  0
 12 38  1  0
 12 39  1  0
 13 14  1  0
 13 40  1  0
 13 41  1  0
 14 20  1  0
 14 15  1  0
 14 42  1  1
 15 16  1  0
 15 43  1  1
 16 17  1  6
 16 18  1  0
 17 44  1  0
 17 45  1  0
 17 46  1  0
 18 19  1  0
 18 47  1  0
 18 48  1  0
 19 20  1  0
 19 49  1  0
 19 50  1  0
 20 21  1  0
 20 51  1  1
 21 22  1  1
 22 52  1  0
 22 53  1  0
 22 54  1  0
M  END
>  <i_m_ct_stereo_status>  (370) 
1

>  <s_m_source_file>  (370) 
/var/tmp/pbs.5076255.sched01/tmpalt_vnqi/12934k3la1h.sdf

>  <i_m_source_file_index>  (370) 
42

>  <i_lp_mmshare_version>  (370) 
48012

>  <i_f3d_flags>  (370) 
0

>  <s_epik_input>  (370) 
W0NIM11bQ0BdMTJbQ0BIXTNbQ0gyXVxbQ0hdPUMoXFtDSDNdKVtDQF00KFtDSDNdKVtDQEBIXTVbQ0gyXVtDQEhdKFtDSDJdW0NAQEhdM1tPSF0pW0NIXTFbQ0BASF0oW0NIMl1bQ0gyXTUpW0NAQEhdNFtDSDJdW0NIMl0y

>  <s_epik_cmdline>  (370) 
J2VwaWtfcHl0aG9uJywgJy1waHQnLCAnMi4wJywgJy1waCcsICc3LjAnLCAnLXRuJywgJzgnLCAnLW1hJywgJzIwMCcsICctaW1hZScsICc8aW5maWxlLm1hZT4nLCAnLW9tYWUnLCAnPG91dGZpbGUubWFlPic=

>  <r_lp_tautomer_probability>  (370) 
1

>  <r_epik_Ionization_Penalty>  (370) 
2.43355e-06

>  <r_epik_Ionization_Penalty_Charging>  (370) 
0

>  <r_epik_Ionization_Penalty_Neutral>  (370) 
2.43355e-06

>  <r_epik_State_Penalty>  (370) 
-0

>  <r_epik_Charging_Adjusted_Penalty>  (370) 
0

>  <i_epik_Tot_Q>  (370) 
0

>  <i_epik_Tot_abs_Q>  (370) 
0

>  <s_lp_Force_Field>  (370) 
OPLS3e

>  <r_lp_Energy>  (370) 
131.428

>  <b_lp_Chiralities_Consistent>  (370) 
1

>  <s_lp_Variant>  (370) 
117:0-2

>  <s_i_glide_gridfile>  (370) 
pfpi4k_grid

>  <i_i_glide_lignum>  (370) 
42

>  <i_i_glide_rotatable_bonds>  (370) 
1

>  <r_i_docking_score>  (370) 
-2.99272

>  <r_i_glide_ligand_efficiency>  (370) 
-0.136033

>  <r_i_glide_ligand_efficiency_sa>  (370) 
-0.381169

>  <r_i_glide_ligand_efficiency_ln>  (370) 
-0.73153

>  <r_i_glide_gscore>  (370) 
-2.99272

>  <r_i_glide_lipo>  (370) 
-0.0449372

>  <r_i_glide_hbond>  (370) 
-0.32

>  <r_i_glide_metal>  (370) 
-0

>  <r_i_glide_rewards>  (370) 
-1.36038

>  <r_i_glide_evdw>  (370) 
-20.8443

>  <r_i_glide_ecoul>  (370) 
-1.50128

>  <r_i_glide_erotb>  (370) 
0

>  <r_i_glide_esite>  (370) 
0

>  <r_i_glide_emodel>  (370) 
-26.5157

>  <r_i_glide_energy>  (370) 
-22.3456

>  <r_i_glide_einternal>  (370) 
0.946463

>  <r_i_glide_intrahb_reward>  (370) 
-0

>  <i_i_glide_confnum>  (370) 
2

>  <i_i_glide_posenum>  (370) 
7

>  <r_i_glide_eff_state_penalty>  (370) 
0

>  <ligand_id>  (370) 
117

>  <original_smiles>  (370) 
CC1=CCC2C(O)CC3CC4CCC5C3C2(C)CCC5C14C

>  <smiles>  (370) 
[H]OC1([H])C([H])([H])C2([H])C([H])([H])C3([H])C([H])([H])C([H])([H])C4([H])C5([H])C([H])([H])C([H])([H])C(C([H])([H])[H])(C1([H])C([H])([H])C([H])=C(C([H])([H])[H])C35C([H])([H])[H])C24[H]

$$$$
