0:0:0
     RDKit          3D

 64 69  0  0  1  0  0  0  0  0999 V2000
    7.8268   -1.3893    8.2010 C   0  0  0  0  0  0  0  0  0  0  0  0
    7.4515   -2.3854    7.2600 O   0  0  0  0  0  0  0  0  0  0  0  0
    6.0898   -2.7970    7.3676 C   0  0  2  0  0  0  0  0  0  0  0  0
    5.6930   -3.5477    8.6656 C   0  0  0  0  0  0  0  0  0  0  0  0
    4.4768   -4.3447    8.2450 C   0  0  0  0  0  0  0  0  0  0  0  0
    3.7111   -4.6174    9.2024 O   0  0  0  0  0  0  0  0  0  0  0  0
    4.5069   -4.4420    6.8723 C   0  0  0  0  0  0  0  0  0  0  0  0
    3.5221   -4.7910    5.8593 C   0  0  0  0  0  0  0  0  0  0  0  0
    2.5039   -5.4469    6.0372 O   0  0  0  0  0  0  0  0  0  0  0  0
    3.9462   -4.2595    4.4671 C   0  0  1  0  0  0  0  0  0  0  0  0
    4.4905   -5.5040    3.6854 C   0  0  0  0  0  0  0  0  0  0  0  0
    4.9127   -5.3968    2.1805 C   0  0  2  0  0  0  0  0  0  0  0  0
    5.0671   -6.8603    1.6731 C   0  0  0  0  0  0  0  0  0  0  0  0
    6.3346   -4.7924    1.9458 C   0  0  0  0  0  0  0  0  0  0  0  0
    6.4684   -3.2910    1.6365 C   0  0  0  0  0  0  0  0  0  0  0  0
    5.3025   -2.7387    0.8467 C   0  0  0  0  0  0  0  0  0  0  0  0
    5.5268   -1.9934   -0.1098 O   0  0  0  0  0  0  0  0  0  0  0  0
    3.8734   -3.1299    1.2918 C   0  0  1  0  0  0  0  0  0  0  0  0
    2.9144   -2.6370    0.1671 C   0  0  0  0  0  0  0  0  0  0  0  0
    3.8187   -4.6901    1.3203 C   0  0  2  0  0  0  0  0  0  0  0  0
    2.4071   -5.1932    1.6762 C   0  0  0  0  0  0  0  0  0  0  0  0
    1.7960   -4.4582    2.8816 C   0  0  1  0  0  0  0  0  0  0  0  0
    1.0596   -5.4042    3.6318 O   0  0  0  0  0  0  0  0  0  0  0  0
    2.7622   -3.5169    3.6890 C   0  0  1  0  0  0  0  0  0  0  0  0
    1.7859   -2.7088    4.6181 C   0  0  0  0  0  0  0  0  0  0  0  0
    3.3913   -2.4926    2.6735 C   0  0  1  0  0  0  0  0  0  0  0  0
    4.2729   -1.4032    3.3753 C   0  0  0  0  0  0  0  0  0  0  0  0
    4.8850   -1.8157    4.7301 C   0  0  0  0  0  0  0  0  0  0  0  0
    5.1551   -3.3260    4.8485 C   0  0  1  0  0  0  0  0  0  0  0  0
    5.6759   -3.7813    6.2412 C   0  0  1  0  0  0  0  0  0  0  0  0
    6.6847   -4.7575    6.0780 O   0  0  0  0  0  0  0  0  0  0  0  0
    8.8672   -1.1059    8.0398 H   0  0  0  0  0  0  0  0  0  0  0  0
    7.7402   -1.7499    9.2263 H   0  0  0  0  0  0  0  0  0  0  0  0
    7.2191   -0.4894    8.0982 H   0  0  0  0  0  0  0  0  0  0  0  0
    5.4622   -1.9055    7.3204 H   0  0  0  0  0  0  0  0  0  0  0  0
    6.4927   -4.2197    8.9813 H   0  0  0  0  0  0  0  0  0  0  0  0
    5.4650   -2.8602    9.4812 H   0  0  0  0  0  0  0  0  0  0  0  0
    5.3235   -5.9319    4.2404 H   0  0  0  0  0  0  0  0  0  0  0  0
    3.7384   -6.2899    3.7667 H   0  0  0  0  0  0  0  0  0  0  0  0
    5.2979   -6.8833    0.6069 H   0  0  0  0  0  0  0  0  0  0  0  0
    4.1759   -7.4723    1.8115 H   0  0  0  0  0  0  0  0  0  0  0  0
    5.8844   -7.3745    2.1833 H   0  0  0  0  0  0  0  0  0  0  0  0
    6.9763   -5.0532    2.7870 H   0  0  0  0  0  0  0  0  0  0  0  0
    6.8042   -5.2925    1.0959 H   0  0  0  0  0  0  0  0  0  0  0  0
    6.5954   -2.6520    2.4998 H   0  0  0  0  0  0  0  0  0  0  0  0
    7.3778   -3.1412    1.0581 H   0  0  0  0  0  0  0  0  0  0  0  0
    1.8702   -2.8644    0.3684 H   0  0  0  0  0  0  0  0  0  0  0  0
    3.1534   -3.0791   -0.8008 H   0  0  0  0  0  0  0  0  0  0  0  0
    2.9652   -1.5546    0.0443 H   0  0  0  0  0  0  0  0  0  0  0  0
    4.0003   -5.0174    0.2945 H   0  0  0  0  0  0  0  0  0  0  0  0
    1.7573   -5.0662    0.8123 H   0  0  0  0  0  0  0  0  0  0  0  0
    2.4039   -6.2701    1.8359 H   0  0  0  0  0  0  0  0  0  0  0  0
    1.0229   -3.8056    2.4782 H   0  0  0  0  0  0  0  0  0  0  0  0
    1.6705   -5.9441    4.1269 H   0  0  0  0  0  0  0  0  0  0  0  0
    1.0582   -2.1406    4.0340 H   0  0  0  0  0  0  0  0  0  0  0  0
    2.2612   -1.9850    5.2688 H   0  0  0  0  0  0  0  0  0  0  0  0
    1.1920   -3.3523    5.2667 H   0  0  0  0  0  0  0  0  0  0  0  0
    2.5423   -1.8818    2.3629 H   0  0  0  0  0  0  0  0  0  0  0  0
    5.0553   -1.0092    2.7313 H   0  0  0  0  0  0  0  0  0  0  0  0
    3.6505   -0.5238    3.5704 H   0  0  0  0  0  0  0  0  0  0  0  0
    5.8143   -1.2604    4.8881 H   0  0  0  0  0  0  0  0  0  0  0  0
    4.2324   -1.4911    5.5361 H   0  0  0  0  0  0  0  0  0  0  0  0
    5.9569   -3.5257    4.1627 H   0  0  0  0  0  0  0  0  0  0  0  0
    7.4430   -4.3315    5.6980 H   0  0  0  0  0  0  0  0  0  0  0  0
  1  2  1  0
  1 32  1  0
  1 33  1  0
  1 34  1  0
  2  3  1  0
  3 30  1  0
  3  4  1  0
  3 35  1  6
  4  5  1  0
  4 36  1  0
  4 37  1  0
  5  6  1  0
  5  7  2  0
  7 30  1  0
  7  8  1  0
  8  9  2  0
 10  8  1  1
 10 24  1  0
 10 29  1  0
 10 11  1  0
 11 12  1  0
 11 38  1  0
 11 39  1  0
 12 20  1  0
 12 13  1  6
 12 14  1  0
 13 40  1  0
 13 41  1  0
 13 42  1  0
 14 15  1  0
 14 43  1  0
 14 44  1  0
 15 16  1  0
 15 45  1  0
 15 46  1  0
 16 17  2  0
 16 18  1  0
 18 26  1  0
 18 19  1  6
 18 20  1  0
 19 47  1  0
 19 48  1  0
 19 49  1  0
 20 21  1  0
 20 50  1  6
 21 22  1  0
 21 51  1  0
 21 52  1  0
 22 23  1  0
 22 24  1  0
 22 53  1  6
 23 54  1  0
 24 25  1  1
 24 26  1  0
 25 55  1  0
 25 56  1  0
 25 57  1  0
 26 27  1  0
 26 58  1  6
 27 28  1  0
 27 59  1  0
 27 60  1  0
 28 29  1  0
 28 61  1  0
 28 62  1  0
 29 30  1  0
 29 63  1  6
 30 31  1  6
 31 64  1  0
M  CHG  1   6  -1
M  END
>  <i_m_ct_stereo_status>  (1) 
1

>  <s_m_source_file>  (1) 
/var/tmp/pbs.5076255.sched01/tmppe38rura/0ules8z9c.sdf

>  <i_m_source_file_index>  (1) 
1

>  <i_lp_mmshare_version>  (1) 
48012

>  <i_f3d_flags>  (1) 
0

>  <s_epik_input>  (1) 
W0NIM11PW0NAQEhdMVtDSDJdQyg9TylbQ0BIXShDMj1PKVtDQEBdMShbT0hdKVtDQEBIXTNbQ0gyXVtDSDJdW0NASF0oW0NAQF00KFtDQF0yMzUpW0NIM10pW0NAXTYoW0NIM10pW0NASF0oW0NIMl1bQ0BIXTRbT0hdKVtDQEBdKFtDSDJdNSkoW0NIM10pW0NIMl1bQ0gyXUM2PU8=

>  <s_epik_cmdline>  (1) 
J2VwaWtfcHl0aG9uJywgJy1waHQnLCAnMi4wJywgJy1waCcsICc3LjAnLCAnLXRuJywgJzgnLCAnLW1hJywgJzIwMCcsICctaW1hZScsICc8aW5maWxlLm1hZT4nLCAnLW9tYWUnLCAnPG91dGZpbGUubWFlPic=

>  <r_lp_tautomer_probability>  (1) 
0.99995

>  <r_epik_Ionization_Penalty>  (1) 
0.024559

>  <r_epik_Ionization_Penalty_Charging>  (1) 
0.00555321

>  <r_epik_Ionization_Penalty_Neutral>  (1) 
0.0190058

>  <r_epik_State_Penalty>  (1) 
0.359597

>  <r_epik_Charging_Adjusted_Penalty>  (1) 
0.36515

>  <i_epik_Tot_Q>  (1) 
-1

>  <i_epik_Tot_abs_Q>  (1) 
1

>  <s_lp_Force_Field>  (1) 
OPLS3e

>  <r_lp_Energy>  (1) 
69.8698

>  <b_lp_Chiralities_Consistent>  (1) 
1

>  <s_lp_Variant>  (1) 
0:0-1

>  <s_i_glide_gridfile>  (1) 
pfpi4k_grid

>  <i_i_glide_lignum>  (1) 
1

>  <i_i_glide_rotatable_bonds>  (1) 
3

>  <r_i_docking_score>  (1) 
-2.12413

>  <r_i_glide_ligand_efficiency>  (1) 
-0.0685202

>  <r_i_glide_ligand_efficiency_sa>  (1) 
-0.215248

>  <r_i_glide_ligand_efficiency_ln>  (1) 
-0.479056

>  <r_i_glide_gscore>  (1) 
-2.12413

>  <r_i_glide_lipo>  (1) 
-0.34481

>  <r_i_glide_hbond>  (1) 
0

>  <r_i_glide_metal>  (1) 
-0

>  <r_i_glide_rewards>  (1) 
-1.03888

>  <r_i_glide_evdw>  (1) 
-14.0238

>  <r_i_glide_ecoul>  (1) 
-0.261621

>  <r_i_glide_erotb>  (1) 
0

>  <r_i_glide_esite>  (1) 
0

>  <r_i_glide_emodel>  (1) 
-21.1864

>  <r_i_glide_energy>  (1) 
-14.2854

>  <r_i_glide_einternal>  (1) 
0.124538

>  <r_i_glide_intrahb_reward>  (1) 
-0.5

>  <i_i_glide_confnum>  (1) 
1

>  <i_i_glide_posenum>  (1) 
17

>  <r_i_glide_eff_state_penalty>  (1) 
0

>  <ligand_id>  (1) 
0

>  <original_smiles>  (1) 
COC1CC(=O)C2C(=O)C34CC5(C)CCC(=O)C6(C)C5CC(O)C3(C)C6CCC4C12O

>  <smiles>  (1) 
[H]OC1([H])C([H])([H])C2([H])C3(C([H])([H])[H])C(=O)C([H])([H])C([H])([H])C2(C([H])([H])[H])C([H])([H])C24C(=O)C5=C([O-])C([H])([H])C([H])(OC([H])([H])[H])C5(O[H])C2([H])C([H])([H])C([H])([H])C3([H])C14C([H])([H])[H]

$$$$
1:0:0
     RDKit          3D

 65 71  0  0  1  0  0  0  0  0999 V2000
   -1.6897    2.2466    6.1390 C   0  0  0  0  0  0  0  0  0  0  0  0
   -0.7081    1.7625    5.0831 C   0  0  0  0  0  0  0  0  0  0  0  0
   -0.1023    0.5688    4.9486 C   0  0  0  0  0  0  0  0  0  0  0  0
    0.7069    0.4649    3.6974 C   0  0  2  0  0  0  0  0  0  0  0  0
    0.1030    1.5763    2.8168 C   0  0  0  0  0  0  0  0  0  0  0  0
   -0.3954    2.6192    3.8617 C   0  0  1  0  0  0  0  0  0  0  0  0
   -1.4999    3.5162    3.3376 C   0  0  0  0  0  0  0  0  0  0  0  0
   -2.8332    3.1524    2.9905 C   0  0  0  0  0  0  0  0  0  0  0  0
   -3.4451    4.2642    2.4790 C   0  0  0  0  0  0  0  0  0  0  0  0
   -2.5843    5.3188    2.4786 O   0  0  0  0  0  0  0  0  0  0  0  0
   -1.4210    4.8529    3.0075 C   0  0  0  0  0  0  0  0  0  0  0  0
    0.6487   -0.9009    3.3047 O   0  0  0  0  0  0  0  0  0  0  0  0
    0.3984   -1.5968    4.4591 C   0  0  0  0  0  0  0  0  0  0  0  0
    1.0330   -2.6910    4.8908 C   0  0  0  0  0  0  0  0  0  0  0  0
    1.8883   -3.6064    4.0964 C   0  0  0  0  0  0  0  0  0  0  0  0
    2.0097   -3.5304    2.8749 O   0  0  0  0  0  0  0  0  0  0  0  0
    2.4551   -4.5782    4.8390 O   0  0  0  0  0  0  0  0  0  0  0  0
    2.9484   -5.7770    4.2409 C   0  0  0  0  0  0  0  0  0  0  0  0
    1.8711   -6.8916    4.1313 C   0  0  2  0  0  0  0  0  0  0  0  0
    0.7176   -6.4700    3.1817 C   0  0  0  0  0  0  0  0  0  0  0  0
   -0.3376   -7.5771    3.0607 C   0  0  1  0  0  0  0  0  0  0  0  0
    0.3206   -8.8414    2.4856 C   0  0  0  0  0  0  0  0  0  0  0  0
    1.4516   -9.3018    3.4263 C   0  0  2  0  0  0  0  0  0  0  0  0
    0.8738   -9.6148    4.8203 C   0  0  0  0  0  0  0  0  0  0  0  0
    0.2145   -8.3450    5.3944 C   0  0  2  0  0  0  0  0  0  0  0  0
   -0.9214   -7.8751    4.4577 C   0  0  0  0  0  0  0  0  0  0  0  0
    1.2701   -7.2289    5.5236 C   0  0  0  0  0  0  0  0  0  0  0  0
    2.5095   -8.1823    3.5425 C   0  0  0  0  0  0  0  0  0  0  0  0
    0.8659   -2.6827    6.3508 C   0  0  0  0  0  0  0  0  0  0  0  0
    1.1291   -3.5688    7.1595 O   0  0  0  0  0  0  0  0  0  0  0  0
    0.3049   -1.3186    6.7995 C   0  0  0  0  0  0  0  0  0  0  0  0
   -0.3638   -0.8150    5.4932 C   0  0  1  0  0  0  0  0  0  0  0  0
   -1.8377   -1.2202    5.4128 C   0  0  0  0  0  0  0  0  0  0  0  0
   -1.2860    3.1491    6.5944 H   0  0  0  0  0  0  0  0  0  0  0  0
   -1.8397    1.5151    6.9285 H   0  0  0  0  0  0  0  0  0  0  0  0
   -2.6600    2.5171    5.7205 H   0  0  0  0  0  0  0  0  0  0  0  0
    1.7434    0.7239    3.9465 H   0  0  0  0  0  0  0  0  0  0  0  0
    0.7999    2.0025    2.0959 H   0  0  0  0  0  0  0  0  0  0  0  0
   -0.7497    1.1991    2.2458 H   0  0  0  0  0  0  0  0  0  0  0  0
    0.4262    3.2753    4.1469 H   0  0  0  0  0  0  0  0  0  0  0  0
   -3.2786    2.1671    3.0725 H   0  0  0  0  0  0  0  0  0  0  0  0
   -4.4307    4.4613    2.0964 H   0  0  0  0  0  0  0  0  0  0  0  0
   -0.6138    5.5753    3.0063 H   0  0  0  0  0  0  0  0  0  0  0  0
    3.3884   -5.5770    3.2648 H   0  0  0  0  0  0  0  0  0  0  0  0
    3.7631   -6.1388    4.8660 H   0  0  0  0  0  0  0  0  0  0  0  0
    0.1984   -5.5956    3.5657 H   0  0  0  0  0  0  0  0  0  0  0  0
    1.1252   -6.2124    2.2021 H   0  0  0  0  0  0  0  0  0  0  0  0
   -1.1302   -7.2373    2.3931 H   0  0  0  0  0  0  0  0  0  0  0  0
   -0.4261   -9.6282    2.3626 H   0  0  0  0  0  0  0  0  0  0  0  0
    0.7287   -8.6269    1.4977 H   0  0  0  0  0  0  0  0  0  0  0  0
    1.9117  -10.2003    3.0148 H   0  0  0  0  0  0  0  0  0  0  0  0
    0.1429  -10.4201    4.7506 H   0  0  0  0  0  0  0  0  0  0  0  0
    1.6576   -9.9717    5.4899 H   0  0  0  0  0  0  0  0  0  0  0  0
   -0.1910   -8.5702    6.3807 H   0  0  0  0  0  0  0  0  0  0  0  0
   -1.4054   -6.9856    4.8662 H   0  0  0  0  0  0  0  0  0  0  0  0
   -1.6920   -8.6436    4.3842 H   0  0  0  0  0  0  0  0  0  0  0  0
    2.0516   -7.5346    6.2215 H   0  0  0  0  0  0  0  0  0  0  0  0
    0.7994   -6.3460    5.9568 H   0  0  0  0  0  0  0  0  0  0  0  0
    2.9241   -7.9761    2.5543 H   0  0  0  0  0  0  0  0  0  0  0  0
    3.3424   -8.5228    4.1605 H   0  0  0  0  0  0  0  0  0  0  0  0
   -0.3988   -1.4914    7.6126 H   0  0  0  0  0  0  0  0  0  0  0  0
    1.1217   -0.6947    7.1684 H   0  0  0  0  0  0  0  0  0  0  0  0
   -2.2352   -1.0309    4.4183 H   0  0  0  0  0  0  0  0  0  0  0  0
   -2.4615   -0.6891    6.1235 H   0  0  0  0  0  0  0  0  0  0  0  0
   -1.9445   -2.2870    5.5998 H   0  0  0  0  0  0  0  0  0  0  0  0
  1  2  1  0
  1 34  1  0
  1 35  1  0
  1 36  1  0
  2  6  1  0
  2  3  2  0
  3 32  1  0
  3  4  1  0
  4  5  1  0
  4 12  1  0
  4 37  1  1
  5  6  1  0
  5 38  1  0
  5 39  1  0
  6  7  1  0
  6 40  1  1
  7 11  2  0
  7  8  1  0
  8  9  2  0
  8 41  1  0
  9 10  1  0
  9 42  1  0
 10 11  1  0
 11 43  1  0
 12 13  1  0
 13 32  1  0
 13 14  2  0
 14 15  1  0
 14 29  1  0
 15 16  2  0
 15 17  1  0
 17 18  1  0
 19 18  1  1
 18 44  1  0
 18 45  1  0
 19 27  1  0
 19 28  1  0
 19 20  1  0
 20 21  1  0
 20 46  1  0
 20 47  1  0
 21 26  1  0
 21 22  1  0
 21 48  1  6
 22 23  1  0
 22 49  1  0
 22 50  1  0
 23 24  1  0
 23 28  1  0
 23 51  1  6
 24 25  1  0
 24 52  1  0
 24 53  1  0
 25 26  1  0
 25 27  1  0
 25 54  1  1
 26 55  1  0
 26 56  1  0
 27 57  1  0
 27 58  1  0
 28 59  1  0
 28 60  1  0
 29 30  2  0
 29 31  1  0
 31 32  1  0
 31 61  1  0
 31 62  1  0
 32 33  1  1
 33 63  1  0
 33 64  1  0
 33 65  1  0
M  END
>  <i_m_ct_stereo_status>  (2) 
1

>  <s_m_source_file>  (2) 
/var/tmp/pbs.5076255.sched01/tmppe38rura/0ules8z9c.sdf

>  <i_m_source_file_index>  (2) 
3

>  <i_lp_mmshare_version>  (2) 
48012

>  <i_f3d_flags>  (2) 
0

>  <s_epik_input>  (2) 
W2NIXTFvW2NIXVtjSF1jMVtDQEBIXShDPTJbQ0gzXSlbQ0gyXVtDQEBIXShDMltDQEBdMzRbQ0gzXSlPQzM9QyhDKD1PKVtDSDJdNClDKD1PKU9bQ0gyXUM1NltDSDJdW0NASF03W0NIMl1bQ0BASF0oW0NIMl02KVtDSDJdW0NASF0oW0NIMl03KVtDSDJdNQ==

>  <s_epik_cmdline>  (2) 
J2VwaWtfcHl0aG9uJywgJy1waHQnLCAnMi4wJywgJy1waCcsICc3LjAnLCAnLXRuJywgJzgnLCAnLW1hJywgJzIwMCcsICctaW1hZScsICc8aW5maWxlLm1hZT4nLCAnLW9tYWUnLCAnPG91dGZpbGUubWFlPic=

>  <r_lp_tautomer_probability>  (2) 
1

>  <r_epik_Ionization_Penalty>  (2) 
0

>  <r_epik_Ionization_Penalty_Charging>  (2) 
0

>  <r_epik_Ionization_Penalty_Neutral>  (2) 
0

>  <r_epik_State_Penalty>  (2) 
-0

>  <r_epik_Charging_Adjusted_Penalty>  (2) 
0

>  <i_epik_Tot_Q>  (2) 
0

>  <i_epik_Tot_abs_Q>  (2) 
0

>  <s_epik_Chemistry_Notes>  (2) 
This compound has an ester and may undergo hydrolysis at high or low pH.

>  <s_lp_Force_Field>  (2) 
OPLS3e

>  <r_lp_Energy>  (2) 
6.16693

>  <b_lp_Chiralities_Consistent>  (2) 
1

>  <s_lp_Variant>  (2) 
1:0-1

>  <s_i_glide_gridfile>  (2) 
pfpi4k_grid

>  <i_i_glide_lignum>  (2) 
3

>  <i_i_glide_rotatable_bonds>  (2) 
5

>  <r_i_docking_score>  (2) 
-1.70497

>  <r_i_glide_ligand_efficiency>  (2) 
-0.0516656

>  <r_i_glide_ligand_efficiency_sa>  (2) 
-0.165719

>  <r_i_glide_ligand_efficiency_ln>  (2) 
-0.379175

>  <r_i_glide_gscore>  (2) 
-1.70497

>  <r_i_glide_lipo>  (2) 
-0.00721699

>  <r_i_glide_hbond>  (2) 
-0.16

>  <r_i_glide_metal>  (2) 
-0

>  <r_i_glide_rewards>  (2) 
-0.358925

>  <r_i_glide_evdw>  (2) 
-28.5279

>  <r_i_glide_ecoul>  (2) 
-0.972929

>  <r_i_glide_erotb>  (2) 
0.398289

>  <r_i_glide_esite>  (2) 
-0.00477679

>  <r_i_glide_emodel>  (2) 
-30.9865

>  <r_i_glide_energy>  (2) 
-29.5008

>  <r_i_glide_einternal>  (2) 
2.31074

>  <r_i_glide_intrahb_reward>  (2) 
-0

>  <i_i_glide_confnum>  (2) 
2

>  <i_i_glide_posenum>  (2) 
1

>  <r_i_glide_eff_state_penalty>  (2) 
0

>  <ligand_id>  (2) 
1

>  <original_smiles>  (2) 
CC1=C2C(CC1c1ccoc1)OC1=C(C(=O)OCC34CC5CC(CC(C5)C3)C4)C(=O)CC12C

>  <smiles>  (2) 
[H]c1oc([H])c(C2([H])C(C([H])([H])[H])=C3C([H])(OC4=C(C(=O)OC([H])([H])C56C([H])([H])C7([H])C([H])([H])C([H])(C([H])([H])C([H])(C7([H])[H])C5([H])[H])C6([H])[H])C(=O)C([H])([H])C43C([H])([H])[H])C2([H])[H])c1[H]

$$$$
2:0:0
     RDKit          3D

 56 63  0  0  1  0  0  0  0  0999 V2000
   -0.6304   -6.7120    2.0722 O   0  0  0  0  0  0  0  0  0  0  0  0
    0.0815   -6.8344    3.2958 C   0  0  0  0  0  0  0  0  0  0  0  0
    1.4297   -7.5587    3.1064 C   0  0  2  0  0  0  0  0  0  0  0  0
    2.1131   -6.9435    1.9930 O   0  0  0  0  0  0  0  0  0  0  0  0
    3.4287   -7.4138    1.7685 C   0  0  2  0  0  0  0  0  0  0  0  0
    4.2367   -7.1994    2.9154 O   0  0  0  0  0  0  0  0  0  0  0  0
    4.8928   -5.9491    2.7618 C   0  0  0  0  0  0  0  0  0  0  0  0
    4.5844   -5.5611    1.3034 C   0  0  2  0  0  0  0  0  0  0  0  0
    4.0281   -6.7210    0.6994 O   0  0  0  0  0  0  0  0  0  0  0  0
    5.6657   -5.0049    0.5266 C   0  0  2  0  0  0  0  0  0  0  0  0
    6.3673   -3.6724    1.5386 C   0  0  0  0  0  0  0  0  0  0  0  0
    5.7173   -2.2319    0.9185 C   0  0  2  0  0  0  0  0  0  0  0  0
    4.1465   -1.9609    1.0491 C   0  0  2  0  0  0  0  0  0  0  0  0
    3.5922   -3.2111    1.6465 C   0  0  0  0  0  0  0  0  0  0  0  0
    4.1249   -4.2816    0.6810 C   0  0  1  0  0  0  0  0  0  0  0  0
    5.4013   -3.7442   -0.5013 C   0  0  2  0  0  0  0  0  0  0  0  0
    5.7443   -2.3181   -0.6302 C   0  0  1  0  0  0  0  0  0  0  0  0
    4.5627   -2.0445   -1.4030 C   0  0  2  0  0  0  0  0  0  0  0  0
    3.4989   -1.7363   -0.3893 C   0  0  1  0  0  0  0  0  0  0  0  0
    2.6861   -2.7756   -1.2285 C   0  0  0  0  0  0  0  0  0  0  0  0
    3.9902   -3.4644   -1.7642 C   0  0  2  0  0  0  0  0  0  0  0  0
    4.8833   -4.7080   -1.1130 C   0  0  2  0  0  0  0  0  0  0  0  0
    3.3713   -8.9364    1.4432 C   0  0  1  0  0  0  0  0  0  0  0  0
    4.6688   -9.4553    1.1403 O   0  0  0  0  0  0  0  0  0  0  0  0
    2.6368   -9.7334    2.5506 C   0  0  1  0  0  0  0  0  0  0  0  0
    3.4076   -9.8393    3.7478 O   0  0  0  0  0  0  0  0  0  0  0  0
    1.2736   -9.0751    2.8309 C   0  0  1  0  0  0  0  0  0  0  0  0
    0.6093   -9.7268    3.9169 O   0  0  0  0  0  0  0  0  0  0  0  0
   -0.7557   -7.6053    1.7086 H   0  0  0  0  0  0  0  0  0  0  0  0
    0.2328   -5.8384    3.7090 H   0  0  0  0  0  0  0  0  0  0  0  0
   -0.5452   -7.3659    4.0115 H   0  0  0  0  0  0  0  0  0  0  0  0
    2.0140   -7.4154    4.0146 H   0  0  0  0  0  0  0  0  0  0  0  0
    4.6122   -5.2324    3.5279 H   0  0  0  0  0  0  0  0  0  0  0  0
    5.9576   -6.1770    2.8813 H   0  0  0  0  0  0  0  0  0  0  0  0
    6.4254   -5.7886    0.4349 H   0  0  0  0  0  0  0  0  0  0  0  0
    6.1864   -3.7476    2.6121 H   0  0  0  0  0  0  0  0  0  0  0  0
    7.4515   -3.6403    1.3959 H   0  0  0  0  0  0  0  0  0  0  0  0
    6.2642   -1.3522    1.2628 H   0  0  0  0  0  0  0  0  0  0  0  0
    3.9378   -1.1065    1.6958 H   0  0  0  0  0  0  0  0  0  0  0  0
    3.9202   -3.3359    2.6785 H   0  0  0  0  0  0  0  0  0  0  0  0
    2.5012   -3.1940    1.6564 H   0  0  0  0  0  0  0  0  0  0  0  0
    3.1696   -4.6562    0.2836 H   0  0  0  0  0  0  0  0  0  0  0  0
    6.4486   -3.9633   -0.9463 H   0  0  0  0  0  0  0  0  0  0  0  0
    6.6989   -2.0819   -1.1102 H   0  0  0  0  0  0  0  0  0  0  0  0
    4.6381   -1.3379   -2.2314 H   0  0  0  0  0  0  0  0  0  0  0  0
    3.1080   -0.7302   -0.5373 H   0  0  0  0  0  0  0  0  0  0  0  0
    1.9499   -3.3724   -0.6966 H   0  0  0  0  0  0  0  0  0  0  0  0
    2.1908   -2.2756   -2.0644 H   0  0  0  0  0  0  0  0  0  0  0  0
    3.8951   -3.5740   -2.8450 H   0  0  0  0  0  0  0  0  0  0  0  0
    5.4210   -5.2018   -1.9173 H   0  0  0  0  0  0  0  0  0  0  0  0
    2.7801   -9.0583    0.5390 H   0  0  0  0  0  0  0  0  0  0  0  0
    4.5829  -10.4119    0.9633 H   0  0  0  0  0  0  0  0  0  0  0  0
    2.4521  -10.7409    2.1834 H   0  0  0  0  0  0  0  0  0  0  0  0
    2.9210  -10.4021    4.3704 H   0  0  0  0  0  0  0  0  0  0  0  0
    0.6445   -9.1824    1.9491 H   0  0  0  0  0  0  0  0  0  0  0  0
    0.3768  -10.6382    3.6804 H   0  0  0  0  0  0  0  0  0  0  0  0
  1  2  1  0
  1 29  1  0
  2  3  1  0
  2 30  1  0
  2 31  1  0
  3 27  1  0
  3  4  1  0
  3 32  1  1
  5  4  1  1
  5  9  1  0
  5  6  1  0
  5 23  1  0
  6  7  1  0
  7  8  1  0
  7 33  1  0
  7 34  1  0
  8 15  1  0
  8  9  1  6
  8 10  1  0
 10 22  1  0
 10 11  1  0
 10 35  1  6
 11 12  1  0
 11 36  1  0
 11 37  1  0
 12 17  1  0
 12 13  1  0
 12 38  1  6
 13 19  1  0
 13 14  1  0
 13 39  1  1
 14 15  1  0
 14 40  1  0
 14 41  1  0
 15 16  1  0
 15 42  1  6
 16 22  1  0
 16 17  1  0
 16 43  1  1
 17 18  1  0
 17 44  1  6
 18 21  1  0
 18 19  1  0
 18 45  1  6
 19 20  1  0
 19 46  1  1
 20 21  1  0
 20 47  1  0
 20 48  1  0
 21 22  1  0
 21 49  1  6
 22 50  1  6
 23 24  1  0
 23 25  1  0
 23 51  1  6
 24 52  1  0
 25 26  1  0
 25 27  1  0
 25 53  1  6
 26 54  1  0
 27 28  1  0
 27 55  1  6
 28 56  1  0
M  END
>  <i_m_ct_stereo_status>  (3) 
1

>  <s_m_source_file>  (3) 
/var/tmp/pbs.5076255.sched01/tmppe38rura/0ules8z9c.sdf

>  <i_m_source_file_index>  (3) 
4

>  <i_lp_mmshare_version>  (3) 
48012

>  <i_f3d_flags>  (3) 
0

>  <s_epik_input>  (3) 
W09IXVtDQEhdMVtDQEBIXShbT0hdKVtDQEBIXShbT0hdKVtDQEhdKFtDSDJdW09IXSlPW0NAQF0xMk9bQ0gyXVtDQF0zKE8yKVtDQEhdNFtDQEBIXTVbQ0BASF02W0NAQEhdM1tDSDJdW0NASF03W0NAQEhdKFtDSDJdNClbQ0BASF02W0NAQEhdOFtDQEhdN1tDSDJdW0NASF01OA==

>  <s_epik_cmdline>  (3) 
J2VwaWtfcHl0aG9uJywgJy1waHQnLCAnMi4wJywgJy1waCcsICc3LjAnLCAnLXRuJywgJzgnLCAnLW1hJywgJzIwMCcsICctaW1hZScsICc8aW5maWxlLm1hZT4nLCAnLW9tYWUnLCAnPG91dGZpbGUubWFlPic=

>  <r_lp_tautomer_probability>  (3) 
1

>  <r_epik_Ionization_Penalty>  (3) 
6.85015e-07

>  <r_epik_Ionization_Penalty_Charging>  (3) 
0

>  <r_epik_Ionization_Penalty_Neutral>  (3) 
6.85015e-07

>  <r_epik_State_Penalty>  (3) 
-0

>  <r_epik_Charging_Adjusted_Penalty>  (3) 
0

>  <i_epik_Tot_Q>  (3) 
0

>  <i_epik_Tot_abs_Q>  (3) 
0

>  <s_lp_Force_Field>  (3) 
OPLS3e

>  <r_lp_Energy>  (3) 
476.632

>  <b_lp_Chiralities_Consistent>  (3) 
1

>  <s_lp_Variant>  (3) 
2:0-1

>  <s_i_glide_gridfile>  (3) 
pfpi4k_grid

>  <i_i_glide_lignum>  (3) 
4

>  <i_i_glide_rotatable_bonds>  (3) 
5

>  <r_i_docking_score>  (3) 
-3.34207

>  <r_i_glide_ligand_efficiency>  (3) 
-0.11936

>  <r_i_glide_ligand_efficiency_sa>  (3) 
-0.362447

>  <r_i_glide_ligand_efficiency_ln>  (3) 
-0.771449

>  <r_i_glide_gscore>  (3) 
-3.34207

>  <r_i_glide_lipo>  (3) 
-0.379909

>  <r_i_glide_hbond>  (3) 
0

>  <r_i_glide_metal>  (3) 
-0

>  <r_i_glide_rewards>  (3) 
-0.790477

>  <r_i_glide_evdw>  (3) 
-19.8961

>  <r_i_glide_ecoul>  (3) 
-8.69106

>  <r_i_glide_erotb>  (3) 
0.126775

>  <r_i_glide_esite>  (3) 
0

>  <r_i_glide_emodel>  (3) 
-32.8796

>  <r_i_glide_energy>  (3) 
-28.5871

>  <r_i_glide_einternal>  (3) 
2.1115

>  <r_i_glide_intrahb_reward>  (3) 
-0

>  <i_i_glide_confnum>  (3) 
1

>  <i_i_glide_posenum>  (3) 
37

>  <r_i_glide_eff_state_penalty>  (3) 
0

>  <ligand_id>  (3) 
2

>  <original_smiles>  (3) 
OCC1OC2(OCC3(O2)C2CC4C5CC3C3C4C4C5CC4C32)C(O)C(O)C1O

>  <smiles>  (3) 
[H]OC([H])([H])C1([H])OC2(OC([H])([H])C3(O2)C2([H])C([H])([H])C4([H])C5([H])C([H])([H])C3([H])C3([H])C4([H])C4([H])C5([H])C([H])([H])C4([H])C32[H])C([H])(O[H])C([H])(O[H])C1([H])O[H]

$$$$
2:0:1
     RDKit          3D

 56 63  0  0  1  0  0  0  0  0999 V2000
    2.1752   -0.1345    1.2964 O   0  0  0  0  0  0  0  0  0  0  0  0
    3.5663   -0.3524    1.0984 C   0  0  0  0  0  0  0  0  0  0  0  0
    3.9346   -1.8437    0.9858 C   0  0  2  0  0  0  0  0  0  0  0  0
    3.1854   -2.6357    1.9546 O   0  0  0  0  0  0  0  0  0  0  0  0
    3.3860   -4.0333    1.8776 C   0  0  2  0  0  0  0  0  0  0  0  0
    3.0090   -4.5155    0.5842 O   0  0  0  0  0  0  0  0  0  0  0  0
    2.6797   -5.8916    0.6855 C   0  0  0  0  0  0  0  0  0  0  0  0
    2.2070   -5.9625    2.1593 C   0  0  2  0  0  0  0  0  0  0  0  0
    2.5894   -4.7346    2.7921 O   0  0  0  0  0  0  0  0  0  0  0  0
    2.6505   -7.0696    2.9945 C   0  0  2  0  0  0  0  0  0  0  0  0
    2.4515   -8.5526    1.9886 C   0  0  0  0  0  0  0  0  0  0  0  0
    1.0338   -9.2794    2.5343 C   0  0  2  0  0  0  0  0  0  0  0  0
   -0.3594   -8.5286    2.3093 C   0  0  2  0  0  0  0  0  0  0  0  0
    0.0104   -7.2025    1.7250 C   0  0  0  0  0  0  0  0  0  0  0  0
    1.0292   -6.6671    2.7633 C   0  0  1  0  0  0  0  0  0  0  0  0
    1.6395   -7.8765    3.9870 C   0  0  2  0  0  0  0  0  0  0  0  0
    1.0220   -9.2101    4.0810 C   0  0  1  0  0  0  0  0  0  0  0  0
   -0.1332   -8.6976    4.7765 C   0  0  2  0  0  0  0  0  0  0  0  0
   -1.0974   -8.2896    3.7088 C   0  0  1  0  0  0  0  0  0  0  0  0
   -1.1690   -6.9639    4.5199 C   0  0  0  0  0  0  0  0  0  0  0  0
    0.2344   -7.2164    5.1583 C   0  0  2  0  0  0  0  0  0  0  0  0
    1.7632   -6.7868    4.5881 C   0  0  2  0  0  0  0  0  0  0  0  0
    4.8863   -4.2670    2.2154 C   0  0  1  0  0  0  0  0  0  0  0  0
    5.1996   -5.6558    2.2006 O   0  0  0  0  0  0  0  0  0  0  0  0
    5.8007   -3.5340    1.2340 C   0  0  1  0  0  0  0  0  0  0  0  0
    5.6833   -4.0723   -0.0885 O   0  0  0  0  0  0  0  0  0  0  0  0
    5.4477   -2.0469    1.2420 C   0  0  1  0  0  0  0  0  0  0  0  0
    6.2673   -1.3138    0.3213 O   0  0  0  0  0  0  0  0  0  0  0  0
    1.6762   -0.4782    0.5287 H   0  0  0  0  0  0  0  0  0  0  0  0
    3.8988    0.1613    0.1946 H   0  0  0  0  0  0  0  0  0  0  0  0
    4.0934    0.1294    1.9203 H   0  0  0  0  0  0  0  0  0  0  0  0
    3.6630   -2.1796   -0.0154 H   0  0  0  0  0  0  0  0  0  0  0  0
    1.9564   -6.2288   -0.0778 H   0  0  0  0  0  0  0  0  0  0  0  0
    3.6300   -6.4346    0.5724 H   0  0  0  0  0  0  0  0  0  0  0  0
    3.7170   -6.9777    3.2196 H   0  0  0  0  0  0  0  0  0  0  0  0
    2.4298   -8.4004    0.9072 H   0  0  0  0  0  0  0  0  0  0  0  0
    3.2845   -9.2212    2.2036 H   0  0  0  0  0  0  0  0  0  0  0  0
    0.9513  -10.3098    2.1823 H   0  0  0  0  0  0  0  0  0  0  0  0
   -1.0155   -9.0877    1.6353 H   0  0  0  0  0  0  0  0  0  0  0  0
    0.4040   -7.3318    0.7183 H   0  0  0  0  0  0  0  0  0  0  0  0
   -0.8683   -6.5635    1.6471 H   0  0  0  0  0  0  0  0  0  0  0  0
    0.4948   -5.7691    3.1170 H   0  0  0  0  0  0  0  0  0  0  0  0
    2.5591   -8.3468    4.5120 H   0  0  0  0  0  0  0  0  0  0  0  0
    1.5948   -9.9835    4.6033 H   0  0  0  0  0  0  0  0  0  0  0  0
   -0.5555   -9.2961    5.5784 H   0  0  0  0  0  0  0  0  0  0  0  0
   -2.0157   -8.8663    3.7933 H   0  0  0  0  0  0  0  0  0  0  0  0
   -1.3034   -6.0693    3.9482 H   0  0  0  0  0  0  0  0  0  0  0  0
   -1.9350   -7.0276    5.2890 H   0  0  0  0  0  0  0  0  0  0  0  0
    0.1695   -7.0783    6.2340 H   0  0  0  0  0  0  0  0  0  0  0  0
    2.4739   -6.7031    5.4288 H   0  0  0  0  0  0  0  0  0  0  0  0
    5.0671   -3.8746    3.2247 H   0  0  0  0  0  0  0  0  0  0  0  0
    5.0533   -5.9833    1.3182 H   0  0  0  0  0  0  0  0  0  0  0  0
    6.8329   -3.6449    1.5664 H   0  0  0  0  0  0  0  0  0  0  0  0
    4.7626   -3.9912   -0.3836 H   0  0  0  0  0  0  0  0  0  0  0  0
    5.6707   -1.6713    2.2389 H   0  0  0  0  0  0  0  0  0  0  0  0
    6.1001   -0.3648    0.4185 H   0  0  0  0  0  0  0  0  0  0  0  0
  1  2  1  0
  1 29  1  0
  2  3  1  0
  2 30  1  0
  2 31  1  0
  3 27  1  0
  3  4  1  0
  3 32  1  6
  5  4  1  6
  5  9  1  0
  5  6  1  0
  5 23  1  0
  6  7  1  0
  7  8  1  0
  7 33  1  0
  7 34  1  0
  8 15  1  0
  8  9  1  1
  8 10  1  0
 10 22  1  0
 10 11  1  0
 10 35  1  1
 11 12  1  0
 11 36  1  0
 11 37  1  0
 12 17  1  0
 12 13  1  0
 12 38  1  1
 13 19  1  0
 13 14  1  0
 13 39  1  6
 14 15  1  0
 14 40  1  0
 14 41  1  0
 15 16  1  0
 15 42  1  1
 16 22  1  0
 16 17  1  0
 16 43  1  6
 17 18  1  0
 17 44  1  1
 18 21  1  0
 18 19  1  0
 18 45  1  1
 19 20  1  0
 19 46  1  6
 20 21  1  0
 20 47  1  0
 20 48  1  0
 21 22  1  0
 21 49  1  1
 22 50  1  1
 23 24  1  0
 23 25  1  0
 23 51  1  1
 24 52  1  0
 25 26  1  0
 25 27  1  0
 25 53  1  1
 26 54  1  0
 27 28  1  0
 27 55  1  1
 28 56  1  0
M  END
>  <i_m_ct_stereo_status>  (4) 
1

>  <s_m_source_file>  (4) 
/var/tmp/pbs.5076255.sched01/tmppe38rura/0ules8z9c.sdf

>  <i_m_source_file_index>  (4) 
4

>  <i_lp_mmshare_version>  (4) 
48012

>  <i_f3d_flags>  (4) 
0

>  <s_epik_input>  (4) 
W09IXVtDQEhdMVtDQEBIXShbT0hdKVtDQEBIXShbT0hdKVtDQEhdKFtDSDJdW09IXSlPW0NAQF0xMk9bQ0gyXVtDQF0zKE8yKVtDQEhdNFtDQEBIXTVbQ0BASF02W0NAQEhdM1tDSDJdW0NASF03W0NAQEhdKFtDSDJdNClbQ0BASF02W0NAQEhdOFtDQEhdN1tDSDJdW0NASF01OA==

>  <s_epik_cmdline>  (4) 
J2VwaWtfcHl0aG9uJywgJy1waHQnLCAnMi4wJywgJy1waCcsICc3LjAnLCAnLXRuJywgJzgnLCAnLW1hJywgJzIwMCcsICctaW1hZScsICc8aW5maWxlLm1hZT4nLCAnLW9tYWUnLCAnPG91dGZpbGUubWFlPic=

>  <r_lp_tautomer_probability>  (4) 
1

>  <r_epik_Ionization_Penalty>  (4) 
6.85015e-07

>  <r_epik_Ionization_Penalty_Charging>  (4) 
0

>  <r_epik_Ionization_Penalty_Neutral>  (4) 
6.85015e-07

>  <r_epik_State_Penalty>  (4) 
-0

>  <r_epik_Charging_Adjusted_Penalty>  (4) 
0

>  <i_epik_Tot_Q>  (4) 
0

>  <i_epik_Tot_abs_Q>  (4) 
0

>  <s_lp_Force_Field>  (4) 
OPLS3e

>  <r_lp_Energy>  (4) 
476.632

>  <b_lp_Chiralities_Consistent>  (4) 
1

>  <s_lp_Variant>  (4) 
2:0-1

>  <s_i_glide_gridfile>  (4) 
pfpi4k_grid

>  <i_i_glide_lignum>  (4) 
4

>  <i_i_glide_rotatable_bonds>  (4) 
5

>  <r_i_docking_score>  (4) 
-3.02703

>  <r_i_glide_ligand_efficiency>  (4) 
-0.108108

>  <r_i_glide_ligand_efficiency_sa>  (4) 
-0.328281

>  <r_i_glide_ligand_efficiency_ln>  (4) 
-0.698728

>  <r_i_glide_gscore>  (4) 
-3.02703

>  <r_i_glide_lipo>  (4) 
-0.222755

>  <r_i_glide_hbond>  (4) 
0

>  <r_i_glide_metal>  (4) 
-0

>  <r_i_glide_rewards>  (4) 
-1.23662

>  <r_i_glide_evdw>  (4) 
-20.9773

>  <r_i_glide_ecoul>  (4) 
-4.30379

>  <r_i_glide_erotb>  (4) 
0.126775

>  <r_i_glide_esite>  (4) 
0

>  <r_i_glide_emodel>  (4) 
-32.8503

>  <r_i_glide_energy>  (4) 
-25.2811

>  <r_i_glide_einternal>  (4) 
3.18196

>  <r_i_glide_intrahb_reward>  (4) 
-0.5

>  <i_i_glide_confnum>  (4) 
3

>  <i_i_glide_posenum>  (4) 
4

>  <r_i_glide_eff_state_penalty>  (4) 
0

>  <ligand_id>  (4) 
2

>  <original_smiles>  (4) 
OCC1OC2(OCC3(O2)C2CC4C5CC3C3C4C4C5CC4C32)C(O)C(O)C1O

>  <smiles>  (4) 
[H]OC([H])([H])C1([H])OC2(OC([H])([H])C3(O2)C2([H])C([H])([H])C4([H])C5([H])C([H])([H])C3([H])C3([H])C4([H])C4([H])C5([H])C([H])([H])C4([H])C32[H])C([H])(O[H])C([H])(O[H])C1([H])O[H]

$$$$
2:0:2
     RDKit          3D

 56 63  0  0  1  0  0  0  0  0999 V2000
   -0.1830   -6.8102    0.9330 O   0  0  0  0  0  0  0  0  0  0  0  0
    0.3617   -6.6191    2.2288 C   0  0  0  0  0  0  0  0  0  0  0  0
    1.8411   -7.0332    2.2968 C   0  0  2  0  0  0  0  0  0  0  0  0
    2.5081   -6.4391    1.1696 O   0  0  0  0  0  0  0  0  0  0  0  0
    3.9103   -6.6257    1.1399 C   0  0  2  0  0  0  0  0  0  0  0  0
    4.5041   -6.0646    2.3092 O   0  0  0  0  0  0  0  0  0  0  0  0
    4.8818   -4.7313    1.9933 C   0  0  0  0  0  0  0  0  0  0  0  0
    4.6956   -4.6453    0.4609 C   0  0  2  0  0  0  0  0  0  0  0  0
    4.4732   -5.9800    0.0284 O   0  0  0  0  0  0  0  0  0  0  0  0
    5.7166   -3.9772   -0.3032 C   0  0  2  0  0  0  0  0  0  0  0  0
    5.9878   -2.3877    0.5288 C   0  0  0  0  0  0  0  0  0  0  0  0
    5.1196   -1.2417   -0.3653 C   0  0  2  0  0  0  0  0  0  0  0  0
    3.5256   -1.3162   -0.4235 C   0  0  2  0  0  0  0  0  0  0  0  0
    3.1878   -2.5613    0.3232 C   0  0  0  0  0  0  0  0  0  0  0  0
    4.0449   -3.6110   -0.4031 C   0  0  1  0  0  0  0  0  0  0  0  0
    5.3094   -2.9710   -1.5454 C   0  0  2  0  0  0  0  0  0  0  0  0
    5.3339   -1.5393   -1.8749 C   0  0  1  0  0  0  0  0  0  0  0  0
    4.2329   -1.6637   -2.7858 C   0  0  2  0  0  0  0  0  0  0  0  0
    3.0240   -1.4557   -1.9440 C   0  0  1  0  0  0  0  0  0  0  0  0
    2.5505   -2.7645   -2.6542 C   0  0  0  0  0  0  0  0  0  0  0  0
    4.0256   -3.2161   -2.9596 C   0  0  2  0  0  0  0  0  0  0  0  0
    5.0881   -4.0972   -2.0342 C   0  0  2  0  0  0  0  0  0  0  0  0
    4.2154   -8.1498    1.0645 C   0  0  1  0  0  0  0  0  0  0  0  0
    5.6163   -8.4087    1.0127 O   0  0  0  0  0  0  0  0  0  0  0  0
    3.5292   -8.9332    2.2071 C   0  0  1  0  0  0  0  0  0  0  0  0
    4.1551   -8.6997    3.4776 O   0  0  0  0  0  0  0  0  0  0  0  0
    2.0370   -8.5701    2.2548 C   0  0  1  0  0  0  0  0  0  0  0  0
    1.3917   -9.2085    3.3595 O   0  0  0  0  0  0  0  0  0  0  0  0
   -0.1815   -7.7663    0.7345 H   0  0  0  0  0  0  0  0  0  0  0  0
    0.2650   -5.5705    2.4903 H   0  0  0  0  0  0  0  0  0  0  0  0
   -0.2382   -7.1696    2.9536 H   0  0  0  0  0  0  0  0  0  0  0  0
    2.2651   -6.6370    3.2172 H   0  0  0  0  0  0  0  0  0  0  0  0
    4.3563   -3.9946    2.5856 H   0  0  0  0  0  0  0  0  0  0  0  0
    5.9429   -4.6590    2.2435 H   0  0  0  0  0  0  0  0  0  0  0  0
    6.6248   -4.5749   -0.1961 H   0  0  0  0  0  0  0  0  0  0  0  0
    5.7027   -2.3431    1.5837 H   0  0  0  0  0  0  0  0  0  0  0  0
    7.0518   -2.1232    0.4820 H   0  0  0  0  0  0  0  0  0  0  0  0
    5.4238   -0.2210   -0.1239 H   0  0  0  0  0  0  0  0  0  0  0  0
    3.0578   -0.4594    0.0773 H   0  0  0  0  0  0  0  0  0  0  0  0
    3.4063   -2.4585    1.3891 H   0  0  0  0  0  0  0  0  0  0  0  0
    2.1282   -2.7936    0.2443 H   0  0  0  0  0  0  0  0  0  0  0  0
    3.2406   -4.2419   -0.8151 H   0  0  0  0  0  0  0  0  0  0  0  0
    6.4355   -2.9868   -1.8341 H   0  0  0  0  0  0  0  0  0  0  0  0
    6.2447   -1.1485   -2.3170 H   0  0  0  0  0  0  0  0  0  0  0  0
    4.2667   -1.0804   -3.7015 H   0  0  0  0  0  0  0  0  0  0  0  0
    2.4899   -0.5842   -2.3219 H   0  0  0  0  0  0  0  0  0  0  0  0
    1.8955   -3.4243   -2.0884 H   0  0  0  0  0  0  0  0  0  0  0  0
    2.0535   -2.5031   -3.5915 H   0  0  0  0  0  0  0  0  0  0  0  0
    4.0990   -3.4798   -4.0204 H   0  0  0  0  0  0  0  0  0  0  0  0
    5.8217   -4.5465   -2.7097 H   0  0  0  0  0  0  0  0  0  0  0  0
    3.8150   -8.5169    0.1283 H   0  0  0  0  0  0  0  0  0  0  0  0
    5.7429   -9.3666    1.0147 H   0  0  0  0  0  0  0  0  0  0  0  0
    3.6058   -9.9986    1.9896 H   0  0  0  0  0  0  0  0  0  0  0  0
    3.6960   -9.2343    4.1372 H   0  0  0  0  0  0  0  0  0  0  0  0
    1.5681   -8.9411    1.3445 H   0  0  0  0  0  0  0  0  0  0  0  0
    1.4084  -10.1722    3.2497 H   0  0  0  0  0  0  0  0  0  0  0  0
  1  2  1  0
  1 29  1  0
  2  3  1  0
  2 30  1  0
  2 31  1  0
  3 27  1  0
  3  4  1  0
  3 32  1  1
  5  4  1  1
  5  9  1  0
  5  6  1  0
  5 23  1  0
  6  7  1  0
  7  8  1  0
  7 33  1  0
  7 34  1  0
  8 15  1  0
  8  9  1  6
  8 10  1  0
 10 22  1  0
 10 11  1  0
 10 35  1  6
 11 12  1  0
 11 36  1  0
 11 37  1  0
 12 17  1  0
 12 13  1  0
 12 38  1  6
 13 19  1  0
 13 14  1  0
 13 39  1  1
 14 15  1  0
 14 40  1  0
 14 41  1  0
 15 16  1  0
 15 42  1  6
 16 22  1  0
 16 17  1  0
 16 43  1  1
 17 18  1  0
 17 44  1  6
 18 21  1  0
 18 19  1  0
 18 45  1  6
 19 20  1  0
 19 46  1  6
 20 21  1  0
 20 47  1  0
 20 48  1  0
 21 22  1  0
 21 49  1  6
 22 50  1  6
 23 24  1  0
 23 25  1  0
 23 51  1  6
 24 52  1  0
 25 26  1  0
 25 27  1  0
 25 53  1  6
 26 54  1  0
 27 28  1  0
 27 55  1  6
 28 56  1  0
M  END
>  <i_m_ct_stereo_status>  (5) 
1

>  <s_m_source_file>  (5) 
/var/tmp/pbs.5076255.sched01/tmppe38rura/0ules8z9c.sdf

>  <i_m_source_file_index>  (5) 
4

>  <i_lp_mmshare_version>  (5) 
48012

>  <i_f3d_flags>  (5) 
0

>  <s_epik_input>  (5) 
W09IXVtDQEhdMVtDQEBIXShbT0hdKVtDQEBIXShbT0hdKVtDQEhdKFtDSDJdW09IXSlPW0NAQF0xMk9bQ0gyXVtDQF0zKE8yKVtDQEhdNFtDQEBIXTVbQ0BASF02W0NAQEhdM1tDSDJdW0NASF03W0NAQEhdKFtDSDJdNClbQ0BASF02W0NAQEhdOFtDQEhdN1tDSDJdW0NASF01OA==

>  <s_epik_cmdline>  (5) 
J2VwaWtfcHl0aG9uJywgJy1waHQnLCAnMi4wJywgJy1waCcsICc3LjAnLCAnLXRuJywgJzgnLCAnLW1hJywgJzIwMCcsICctaW1hZScsICc8aW5maWxlLm1hZT4nLCAnLW9tYWUnLCAnPG91dGZpbGUubWFlPic=

>  <r_lp_tautomer_probability>  (5) 
1

>  <r_epik_Ionization_Penalty>  (5) 
6.85015e-07

>  <r_epik_Ionization_Penalty_Charging>  (5) 
0

>  <r_epik_Ionization_Penalty_Neutral>  (5) 
6.85015e-07

>  <r_epik_State_Penalty>  (5) 
-0

>  <r_epik_Charging_Adjusted_Penalty>  (5) 
0

>  <i_epik_Tot_Q>  (5) 
0

>  <i_epik_Tot_abs_Q>  (5) 
0

>  <s_lp_Force_Field>  (5) 
OPLS3e

>  <r_lp_Energy>  (5) 
476.632

>  <b_lp_Chiralities_Consistent>  (5) 
1

>  <s_lp_Variant>  (5) 
2:0-1

>  <s_i_glide_gridfile>  (5) 
pfpi4k_grid

>  <i_i_glide_lignum>  (5) 
4

>  <i_i_glide_rotatable_bonds>  (5) 
5

>  <r_i_docking_score>  (5) 
-2.87947

>  <r_i_glide_ligand_efficiency>  (5) 
-0.102838

>  <r_i_glide_ligand_efficiency_sa>  (5) 
-0.312277

>  <r_i_glide_ligand_efficiency_ln>  (5) 
-0.664665

>  <r_i_glide_gscore>  (5) 
-2.87947

>  <r_i_glide_lipo>  (5) 
-0.242535

>  <r_i_glide_hbond>  (5) 
0

>  <r_i_glide_metal>  (5) 
-0

>  <r_i_glide_rewards>  (5) 
-0.844561

>  <r_i_glide_evdw>  (5) 
-24.6015

>  <r_i_glide_ecoul>  (5) 
-4.5938

>  <r_i_glide_erotb>  (5) 
0.126775

>  <r_i_glide_esite>  (5) 
0

>  <r_i_glide_emodel>  (5) 
-32.4243

>  <r_i_glide_energy>  (5) 
-29.1953

>  <r_i_glide_einternal>  (5) 
2.11098

>  <r_i_glide_intrahb_reward>  (5) 
-0

>  <i_i_glide_confnum>  (5) 
1

>  <i_i_glide_posenum>  (5) 
15

>  <r_i_glide_eff_state_penalty>  (5) 
0

>  <ligand_id>  (5) 
2

>  <original_smiles>  (5) 
OCC1OC2(OCC3(O2)C2CC4C5CC3C3C4C4C5CC4C32)C(O)C(O)C1O

>  <smiles>  (5) 
[H]OC([H])([H])C1([H])OC2(OC([H])([H])C3(O2)C2([H])C([H])([H])C4([H])C5([H])C([H])([H])C3([H])C3([H])C4([H])C4([H])C5([H])C([H])([H])C4([H])C32[H])C([H])(O[H])C([H])(O[H])C1([H])O[H]

$$$$
3:0:0
     RDKit          3D

 83 89  0  0  1  0  0  0  0  0999 V2000
    3.7649   -3.7016    6.2173 C   0  0  0  0  0  0  0  0  0  0  0  0
    4.4278   -4.2290    5.0640 O   0  0  0  0  0  0  0  0  0  0  0  0
    3.7461   -4.0502    3.8354 C   0  0  2  0  0  0  0  0  0  0  0  0
    2.8087   -5.1927    3.5791 C   0  0  0  0  0  0  0  0  0  0  0  0
    3.4576   -6.4561    2.9475 C   0  0  2  0  0  0  0  0  0  0  0  0
    3.3021   -7.7288    3.9104 C   0  0  2  0  0  0  0  0  0  0  0  0
    3.5732   -9.1793    3.4088 C   0  0  0  0  0  0  0  0  0  0  0  0
    1.7759   -7.9201    4.3183 C   0  0  0  0  0  0  0  0  0  0  0  0
    0.9218   -8.3927    3.2481 O   0  0  0  0  0  0  0  0  0  0  0  0
    0.1707   -7.5082    2.4434 C   0  0  1  0  0  0  0  0  0  0  0  0
   -0.2360   -6.3441    3.0953 O   0  0  0  0  0  0  0  0  0  0  0  0
    0.8378   -7.1963    1.0600 C   0  0  0  0  0  0  0  0  0  0  0  0
    1.3950   -5.8730    1.0096 O   0  0  0  0  0  0  0  0  0  0  0  0
    2.7687   -5.7586    0.5731 C   0  0  1  0  0  0  0  0  0  0  0  0
    3.1310   -4.2488    0.2680 C   0  0  2  0  0  0  0  0  0  0  0  0
    2.2192   -3.6421   -0.8255 C   0  0  0  0  0  0  0  0  0  0  0  0
    2.8847   -2.7575   -1.9003 C   0  0  0  0  0  0  0  0  0  0  0  0
    4.1277   -3.4185   -2.5047 C   0  0  1  0  0  0  0  0  0  0  0  0
    4.8877   -2.4361   -3.1546 O   0  0  0  0  0  0  0  0  0  0  0  0
    4.9424   -4.1536   -1.4644 C   0  0  0  0  0  0  0  0  0  0  0  0
    4.4774   -4.4864   -0.2442 C   0  0  0  0  0  0  0  0  0  0  0  0
    5.0797   -5.3670    0.8135 C   0  0  2  0  0  0  0  0  0  0  0  0
    3.9724   -6.3403    1.4084 C   0  0  1  0  0  0  0  0  0  0  0  0
    4.7900   -7.5911    1.0998 C   0  0  0  0  0  0  0  0  0  0  0  0
    6.1234   -7.4874    1.9406 C   0  0  1  0  0  0  0  0  0  0  0  0
    7.1528   -8.0887    1.1830 O   0  0  0  0  0  0  0  0  0  0  0  0
    6.5156   -6.0540    2.6357 C   0  0  2  0  0  0  0  0  0  0  0  0
    8.0630   -5.9158    2.3538 C   0  0  0  0  0  0  0  0  0  0  0  0
    6.4989   -6.2742    4.2185 C   0  0  1  0  0  0  0  0  0  0  0  0
    6.7207   -5.1234    4.9953 O   0  0  0  0  0  0  0  0  0  0  0  0
    5.7374   -7.3984    5.0151 C   0  0  0  0  0  0  0  0  0  0  0  0
    4.1958   -7.5583    5.1766 C   0  0  1  0  0  0  0  0  0  0  0  0
    3.7007   -6.6410    6.1113 O   0  0  0  0  0  0  0  0  0  0  0  0
    5.7577   -4.7117    1.9672 C   0  0  1  0  0  0  0  0  0  0  0  0
    6.7661   -3.7366    1.2851 C   0  0  0  0  0  0  0  0  0  0  0  0
    4.5769   -3.7341    2.5761 C   0  0  2  0  0  0  0  0  0  0  0  0
    5.1894   -2.5529    3.0706 O   0  0  0  0  0  0  0  0  0  0  0  0
    3.4595   -3.2722    1.4800 C   0  0  1  0  0  0  0  0  0  0  0  0
    3.8520   -2.0109    0.9470 O   0  0  0  0  0  0  0  0  0  0  0  0
    4.3843   -3.9116    7.0892 H   0  0  0  0  0  0  0  0  0  0  0  0
    2.7956   -4.1902    6.3743 H   0  0  0  0  0  0  0  0  0  0  0  0
    3.5987   -2.6267    6.1636 H   0  0  0  0  0  0  0  0  0  0  0  0
    3.1099   -3.1799    4.0143 H   0  0  0  0  0  0  0  0  0  0  0  0
    2.3021   -5.3836    4.5136 H   0  0  0  0  0  0  0  0  0  0  0  0
    1.9883   -4.8360    2.9690 H   0  0  0  0  0  0  0  0  0  0  0  0
    2.5841   -6.8690    2.5502 H   0  0  0  0  0  0  0  0  0  0  0  0
    3.3054   -9.8974    4.1793 H   0  0  0  0  0  0  0  0  0  0  0  0
    4.6032   -9.4209    3.2027 H   0  0  0  0  0  0  0  0  0  0  0  0
    2.9670   -9.4519    2.5463 H   0  0  0  0  0  0  0  0  0  0  0  0
    1.7310   -8.7035    5.0808 H   0  0  0  0  0  0  0  0  0  0  0  0
    1.3246   -7.0926    4.8546 H   0  0  0  0  0  0  0  0  0  0  0  0
   -0.7426   -8.0780    2.2441 H   0  0  0  0  0  0  0  0  0  0  0  0
   -0.6252   -6.6172    3.9267 H   0  0  0  0  0  0  0  0  0  0  0  0
    1.5653   -7.9851    0.8727 H   0  0  0  0  0  0  0  0  0  0  0  0
    0.0611   -7.2536    0.2965 H   0  0  0  0  0  0  0  0  0  0  0  0
    2.8083   -6.2572   -0.3599 H   0  0  0  0  0  0  0  0  0  0  0  0
    1.6977   -4.4430   -1.3409 H   0  0  0  0  0  0  0  0  0  0  0  0
    1.4555   -3.0574   -0.3396 H   0  0  0  0  0  0  0  0  0  0  0  0
    2.1621   -2.5297   -2.6855 H   0  0  0  0  0  0  0  0  0  0  0  0
    3.1433   -1.7949   -1.4635 H   0  0  0  0  0  0  0  0  0  0  0  0
    3.8302   -4.1632   -3.2403 H   0  0  0  0  0  0  0  0  0  0  0  0
    4.9090   -1.6775   -2.5956 H   0  0  0  0  0  0  0  0  0  0  0  0
    5.9270   -4.4420   -1.7826 H   0  0  0  0  0  0  0  0  0  0  0  0
    5.8621   -5.8198    0.1935 H   0  0  0  0  0  0  0  0  0  0  0  0
    4.2580   -8.5192    1.2057 H   0  0  0  0  0  0  0  0  0  0  0  0
    4.9949   -7.6386    0.0314 H   0  0  0  0  0  0  0  0  0  0  0  0
    6.1114   -8.2295    2.7059 H   0  0  0  0  0  0  0  0  0  0  0  0
    7.9797   -8.0389    1.6450 H   0  0  0  0  0  0  0  0  0  0  0  0
    8.5209   -5.0549    2.8476 H   0  0  0  0  0  0  0  0  0  0  0  0
    8.3039   -5.8672    1.2912 H   0  0  0  0  0  0  0  0  0  0  0  0
    8.6358   -6.7773    2.7034 H   0  0  0  0  0  0  0  0  0  0  0  0
    7.4710   -6.7172    4.4130 H   0  0  0  0  0  0  0  0  0  0  0  0
    5.9270   -4.5905    4.9554 H   0  0  0  0  0  0  0  0  0  0  0  0
    6.1219   -8.3714    4.7148 H   0  0  0  0  0  0  0  0  0  0  0  0
    6.1167   -7.3258    6.0276 H   0  0  0  0  0  0  0  0  0  0  0  0
    4.0904   -8.4894    5.7368 H   0  0  0  0  0  0  0  0  0  0  0  0
    3.8751   -5.7708    5.7746 H   0  0  0  0  0  0  0  0  0  0  0  0
    7.4176   -3.3374    2.0415 H   0  0  0  0  0  0  0  0  0  0  0  0
    6.2855   -2.8953    0.7877 H   0  0  0  0  0  0  0  0  0  0  0  0
    7.3773   -4.1727    0.5055 H   0  0  0  0  0  0  0  0  0  0  0  0
    5.4833   -2.0875    2.2996 H   0  0  0  0  0  0  0  0  0  0  0  0
    2.5038   -3.0408    1.9552 H   0  0  0  0  0  0  0  0  0  0  0  0
    3.1369   -1.6906    0.4202 H   0  0  0  0  0  0  0  0  0  0  0  0
  1  2  1  0
  1 40  1  0
  1 41  1  0
  1 42  1  0
  2  3  1  0
  3 36  1  0
  3  4  1  0
  3 43  1  1
  4  5  1  0
  4 44  1  0
  4 45  1  0
  5 23  1  0
  5  6  1  0
  5 46  1  1
  6 32  1  0
  6  7  1  6
  6  8  1  0
  7 47  1  0
  7 48  1  0
  7 49  1  0
  8  9  1  0
  8 50  1  0
  8 51  1  0
  9 10  1  0
 10 11  1  0
 10 12  1  0
 10 52  1  6
 11 53  1  0
 12 13  1  0
 12 54  1  0
 12 55  1  0
 13 14  1  0
 14 23  1  0
 14 15  1  0
 14 56  1  6
 15 21  1  0
 15 38  1  0
 15 16  1  6
 16 17  1  0
 16 57  1  0
 16 58  1  0
 17 18  1  0
 17 59  1  0
 17 60  1  0
 18 19  1  0
 18 20  1  0
 18 61  1  6
 19 62  1  0
 20 21  2  0
 20 63  1  0
 21 22  1  0
 22 34  1  0
 22 23  1  0
 22 64  1  6
 23 24  1  6
 24 25  1  0
 24 65  1  0
 24 66  1  0
 25 26  1  0
 25 27  1  0
 25 67  1  1
 26 68  1  0
 27 28  1  6
 27 29  1  0
 27 34  1  0
 28 69  1  0
 28 70  1  0
 28 71  1  0
 29 30  1  0
 29 31  1  0
 29 72  1  6
 30 73  1  0
 31 32  1  0
 31 74  1  0
 31 75  1  0
 32 33  1  0
 32 76  1  1
 33 77  1  0
 34 35  1  6
 34 36  1  0
 35 78  1  0
 35 79  1  0
 35 80  1  0
 36 37  1  1
 36 38  1  0
 37 81  1  0
 38 39  1  0
 38 82  1  1
 39 83  1  0
M  END
>  <i_m_ct_stereo_status>  (6) 
1

>  <s_m_source_file>  (6) 
/var/tmp/pbs.5076255.sched01/tmppe38rura/0ules8z9c.sdf

>  <i_m_source_file_index>  (6) 
5

>  <i_lp_mmshare_version>  (6) 
48012

>  <i_f3d_flags>  (6) 
0

>  <s_epik_input>  (6) 
W0NIMl0xW0NIMl1bQ0BASF0oW09IXSlbQ0hdPUMyW0NASF0zW0NAQF0oW0NIM10pKFtDQEBdKFtPSF0pKFtDQEhdNFtPSF0pW0NAQEhdKFtDSDJdNSlPW0NIM10pW0NAXShbQ0gzXSkoW0NAQEhdKFtDSDJdNilbT0hdKVtDQEBIXShbT0hdKVtDSDJdW0NAQEhdKFtPSF0pW0NAXShbQ0gzXSkoW0NIXTVbQ0BAXTM2W0NAQEhdN1tDQF0xMjQpW0NIMl1PW0NAQEhdKFtPSF0pW0NIMl1PNw==

>  <s_epik_cmdline>  (6) 
J2VwaWtfcHl0aG9uJywgJy1waHQnLCAnMi4wJywgJy1waCcsICc3LjAnLCAnLXRuJywgJzgnLCAnLW1hJywgJzIwMCcsICctaW1hZScsICc8aW5maWxlLm1hZT4nLCAnLW9tYWUnLCAnPG91dGZpbGUubWFlPic=

>  <r_lp_tautomer_probability>  (6) 
1

>  <r_epik_Ionization_Penalty>  (6) 
1.24639e-06

>  <r_epik_Ionization_Penalty_Charging>  (6) 
0

>  <r_epik_Ionization_Penalty_Neutral>  (6) 
1.24639e-06

>  <r_epik_State_Penalty>  (6) 
-0

>  <r_epik_Charging_Adjusted_Penalty>  (6) 
0

>  <i_epik_Tot_Q>  (6) 
0

>  <i_epik_Tot_abs_Q>  (6) 
0

>  <s_epik_Chemistry_Notes>  (6) 
This compound contains an acetal/aminal-like group ( X-CH(R)-Y where X, Y are N, S, or O) that may be acid/base labile, releasing an aldehyde.

>  <s_lp_Force_Field>  (6) 
OPLS3e

>  <r_lp_Energy>  (6) 
277.822

>  <b_lp_Chiralities_Consistent>  (6) 
1

>  <s_lp_Variant>  (6) 
3:0-1

>  <s_i_glide_gridfile>  (6) 
pfpi4k_grid

>  <i_i_glide_lignum>  (6) 
5

>  <i_i_glide_rotatable_bonds>  (6) 
8

>  <r_i_docking_score>  (6) 
-3.293

>  <r_i_glide_ligand_efficiency>  (6) 
-0.0844358

>  <r_i_glide_ligand_efficiency_sa>  (6) 
-0.28634

>  <r_i_glide_ligand_efficiency_ln>  (6) 
-0.706112

>  <r_i_glide_gscore>  (6) 
-3.293

>  <r_i_glide_lipo>  (6) 
-0.421632

>  <r_i_glide_hbond>  (6) 
-0.153782

>  <r_i_glide_metal>  (6) 
-0

>  <r_i_glide_rewards>  (6) 
-0.5

>  <r_i_glide_evdw>  (6) 
-18.1434

>  <r_i_glide_ecoul>  (6) 
-8.36441

>  <r_i_glide_erotb>  (6) 
0

>  <r_i_glide_esite>  (6) 
-0.0557542

>  <r_i_glide_emodel>  (6) 
-34.4193

>  <r_i_glide_energy>  (6) 
-26.5078

>  <r_i_glide_einternal>  (6) 
1.74192

>  <r_i_glide_intrahb_reward>  (6) 
-0.5

>  <i_i_glide_confnum>  (6) 
2

>  <i_i_glide_posenum>  (6) 
1

>  <r_i_glide_eff_state_penalty>  (6) 
0

>  <ligand_id>  (6) 
3

>  <original_smiles>  (6) 
COC1CC2C3(C)COC(O)COC4C56CCC(O)C=C5C5C24CC(O)C(C)(C(O)CC3O)C5(C)C1(O)C6O

>  <smiles>  (6) 
[H]OC1([H])OC([H])([H])C2(C([H])([H])[H])C([H])(O[H])C([H])([H])C([H])(O[H])C3(C([H])([H])[H])C([H])(O[H])C([H])([H])C45C([H])(OC1([H])[H])C16C(=C([H])C([H])(O[H])C([H])([H])C1([H])[H])C4([H])C3(C([H])([H])[H])C(O[H])(C([H])(OC([H])([H])[H])C([H])([H])C25[H])C6([H])O[H]

$$$$
3:0:1
     RDKit          3D

 83 89  0  0  1  0  0  0  0  0999 V2000
    4.0373   -3.8742    6.3352 C   0  0  0  0  0  0  0  0  0  0  0  0
    4.6830   -4.3335    5.1471 O   0  0  0  0  0  0  0  0  0  0  0  0
    3.9355   -4.1710    3.9566 C   0  0  2  0  0  0  0  0  0  0  0  0
    2.9605   -5.2939    3.7293 C   0  0  0  0  0  0  0  0  0  0  0  0
    3.5288   -6.5663    3.0497 C   0  0  2  0  0  0  0  0  0  0  0  0
    3.3693   -7.8403    4.0167 C   0  0  2  0  0  0  0  0  0  0  0  0
    3.5852   -9.2898    3.4841 C   0  0  0  0  0  0  0  0  0  0  0  0
    1.8498   -7.9917    4.4719 C   0  0  0  0  0  0  0  0  0  0  0  0
    0.9394   -8.4129    3.4258 O   0  0  0  0  0  0  0  0  0  0  0  0
    0.1962   -7.5094    2.6363 C   0  0  1  0  0  0  0  0  0  0  0  0
   -0.1881   -6.3425    3.3053 O   0  0  0  0  0  0  0  0  0  0  0  0
    0.8302   -7.2089    1.2299 C   0  0  0  0  0  0  0  0  0  0  0  0
    1.4300   -5.8950    1.1771 O   0  0  0  0  0  0  0  0  0  0  0  0
    2.7851   -5.8142    0.6623 C   0  0  1  0  0  0  0  0  0  0  0  0
    3.1695   -4.2967    0.4113 C   0  0  2  0  0  0  0  0  0  0  0  0
    2.2199   -3.6616   -0.6564 C   0  0  0  0  0  0  0  0  0  0  0  0
    2.8844   -2.7834   -1.7344 C   0  0  0  0  0  0  0  0  0  0  0  0
    4.0898   -3.4661   -2.3868 C   0  0  1  0  0  0  0  0  0  0  0  0
    4.8697   -2.5012   -3.0536 O   0  0  0  0  0  0  0  0  0  0  0  0
    4.9114   -4.2505   -1.3882 C   0  0  0  0  0  0  0  0  0  0  0  0
    4.4904   -4.5740   -0.1468 C   0  0  0  0  0  0  0  0  0  0  0  0
    5.1075   -5.4865    0.8777 C   0  0  2  0  0  0  0  0  0  0  0  0
    3.9924   -6.4411    1.4878 C   0  0  1  0  0  0  0  0  0  0  0  0
    4.7708   -7.7114    1.1393 C   0  0  0  0  0  0  0  0  0  0  0  0
    6.1329   -7.6577    1.9405 C   0  0  1  0  0  0  0  0  0  0  0  0
    7.1135   -8.2867    1.1413 O   0  0  0  0  0  0  0  0  0  0  0  0
    6.5887   -6.2463    2.6391 C   0  0  2  0  0  0  0  0  0  0  0  0
    8.1300   -6.1462    2.3075 C   0  0  0  0  0  0  0  0  0  0  0  0
    6.6191   -6.4909    4.2217 C   0  0  1  0  0  0  0  0  0  0  0  0
    6.9222   -5.3678    5.0051 O   0  0  0  0  0  0  0  0  0  0  0  0
    5.8554   -7.5974    5.0322 C   0  0  0  0  0  0  0  0  0  0  0  0
    4.3208   -7.7104    5.2495 C   0  0  1  0  0  0  0  0  0  0  0  0
    3.8813   -6.8290    6.2591 O   0  0  0  0  0  0  0  0  0  0  0  0
    5.8505   -4.8632    2.0091 C   0  0  1  0  0  0  0  0  0  0  0  0
    6.8779   -3.9129    1.2980 C   0  0  0  0  0  0  0  0  0  0  0  0
    4.7189   -3.8567    2.6729 C   0  0  2  0  0  0  0  0  0  0  0  0
    5.3826   -2.6904    3.1415 O   0  0  0  0  0  0  0  0  0  0  0  0
    3.5639   -3.3511    1.6332 C   0  0  1  0  0  0  0  0  0  0  0  0
    3.9595   -2.0877    1.1024 O   0  0  0  0  0  0  0  0  0  0  0  0
    4.6773   -4.1122    7.1853 H   0  0  0  0  0  0  0  0  0  0  0  0
    3.0762   -4.3738    6.4892 H   0  0  0  0  0  0  0  0  0  0  0  0
    3.8649   -2.7959    6.3280 H   0  0  0  0  0  0  0  0  0  0  0  0
    3.3154   -3.2936    4.1574 H   0  0  0  0  0  0  0  0  0  0  0  0
    2.4991   -5.4857    4.6857 H   0  0  0  0  0  0  0  0  0  0  0  0
    2.1262   -4.9098    3.1566 H   0  0  0  0  0  0  0  0  0  0  0  0
    2.6386   -6.9512    2.6700 H   0  0  0  0  0  0  0  0  0  0  0  0
    3.3264  -10.0166    4.2510 H   0  0  0  0  0  0  0  0  0  0  0  0
    4.5993   -9.5587    3.2400 H   0  0  0  0  0  0  0  0  0  0  0  0
    2.9435   -9.5389    2.6407 H   0  0  0  0  0  0  0  0  0  0  0  0
    1.8083   -8.7876    5.2212 H   0  0  0  0  0  0  0  0  0  0  0  0
    1.4371   -7.1536    5.0274 H   0  0  0  0  0  0  0  0  0  0  0  0
   -0.7271   -8.0638    2.4579 H   0  0  0  0  0  0  0  0  0  0  0  0
    0.6131   -5.8977    3.5568 H   0  0  0  0  0  0  0  0  0  0  0  0
    1.5189   -8.0190    0.9585 H   0  0  0  0  0  0  0  0  0  0  0  0
    0.0208   -7.2268    0.4919 H   0  0  0  0  0  0  0  0  0  0  0  0
    2.7623   -6.2659   -0.3129 H   0  0  0  0  0  0  0  0  0  0  0  0
    1.6939   -4.4654   -1.1807 H   0  0  0  0  0  0  0  0  0  0  0  0
    1.4585   -3.0434   -0.1801 H   0  0  0  0  0  0  0  0  0  0  0  0
    2.1467   -2.5255   -2.4955 H   0  0  0  0  0  0  0  0  0  0  0  0
    3.1797   -1.8369   -1.2831 H   0  0  0  0  0  0  0  0  0  0  0  0
    3.7610   -4.1905   -3.1273 H   0  0  0  0  0  0  0  0  0  0  0  0
    4.9515   -1.7508   -2.4888 H   0  0  0  0  0  0  0  0  0  0  0  0
    5.8475   -4.6114   -1.7521 H   0  0  0  0  0  0  0  0  0  0  0  0
    5.8549   -5.9454    0.2245 H   0  0  0  0  0  0  0  0  0  0  0  0
    4.2157   -8.6237    1.2627 H   0  0  0  0  0  0  0  0  0  0  0  0
    4.9419   -7.7564    0.0644 H   0  0  0  0  0  0  0  0  0  0  0  0
    6.1228   -8.4033    2.7013 H   0  0  0  0  0  0  0  0  0  0  0  0
    7.9643   -8.1986    1.5475 H   0  0  0  0  0  0  0  0  0  0  0  0
    8.6170   -5.3035    2.8055 H   0  0  0  0  0  0  0  0  0  0  0  0
    8.3348   -6.0860    1.2379 H   0  0  0  0  0  0  0  0  0  0  0  0
    8.6904   -7.0270    2.6279 H   0  0  0  0  0  0  0  0  0  0  0  0
    7.5837   -6.9748    4.3737 H   0  0  0  0  0  0  0  0  0  0  0  0
    6.1188   -4.8501    5.0667 H   0  0  0  0  0  0  0  0  0  0  0  0
    6.1998   -8.5808    4.7133 H   0  0  0  0  0  0  0  0  0  0  0  0
    6.2727   -7.5451    6.0349 H   0  0  0  0  0  0  0  0  0  0  0  0
    4.2211   -8.6588    5.7810 H   0  0  0  0  0  0  0  0  0  0  0  0
    3.0674   -7.1511    6.6098 H   0  0  0  0  0  0  0  0  0  0  0  0
    7.5934   -3.5409    2.0100 H   0  0  0  0  0  0  0  0  0  0  0  0
    6.4082   -3.0370    0.8509 H   0  0  0  0  0  0  0  0  0  0  0  0
    7.4250   -4.3651    0.4727 H   0  0  0  0  0  0  0  0  0  0  0  0
    5.6072   -2.2131    2.3545 H   0  0  0  0  0  0  0  0  0  0  0  0
    2.6254   -3.1170    2.1432 H   0  0  0  0  0  0  0  0  0  0  0  0
    3.2142   -1.7244    0.6521 H   0  0  0  0  0  0  0  0  0  0  0  0
  1  2  1  0
  1 40  1  0
  1 41  1  0
  1 42  1  0
  2  3  1  0
  3 36  1  0
  3  4  1  0
  3 43  1  1
  4  5  1  0
  4 44  1  0
  4 45  1  0
  5 23  1  0
  5  6  1  0
  5 46  1  1
  6 32  1  0
  6  7  1  6
  6  8  1  0
  7 47  1  0
  7 48  1  0
  7 49  1  0
  8  9  1  0
  8 50  1  0
  8 51  1  0
  9 10  1  0
 10 11  1  0
 10 12  1  0
 10 52  1  6
 11 53  1  0
 12 13  1  0
 12 54  1  0
 12 55  1  0
 13 14  1  0
 14 23  1  0
 14 15  1  0
 14 56  1  6
 15 21  1  0
 15 38  1  0
 15 16  1  6
 16 17  1  0
 16 57  1  0
 16 58  1  0
 17 18  1  0
 17 59  1  0
 17 60  1  0
 18 19  1  0
 18 20  1  0
 18 61  1  6
 19 62  1  0
 20 21  2  0
 20 63  1  0
 21 22  1  0
 22 34  1  0
 22 23  1  0
 22 64  1  6
 23 24  1  6
 24 25  1  0
 24 65  1  0
 24 66  1  0
 25 26  1  0
 25 27  1  0
 25 67  1  1
 26 68  1  0
 27 28  1  6
 27 29  1  0
 27 34  1  0
 28 69  1  0
 28 70  1  0
 28 71  1  0
 29 30  1  0
 29 31  1  0
 29 72  1  6
 30 73  1  0
 31 32  1  0
 31 74  1  0
 31 75  1  0
 32 33  1  0
 32 76  1  1
 33 77  1  0
 34 35  1  6
 34 36  1  0
 35 78  1  0
 35 79  1  0
 35 80  1  0
 36 37  1  1
 36 38  1  0
 37 81  1  0
 38 39  1  0
 38 82  1  1
 39 83  1  0
M  END
>  <i_m_ct_stereo_status>  (7) 
1

>  <s_m_source_file>  (7) 
/var/tmp/pbs.5076255.sched01/tmppe38rura/0ules8z9c.sdf

>  <i_m_source_file_index>  (7) 
5

>  <i_lp_mmshare_version>  (7) 
48012

>  <i_f3d_flags>  (7) 
0

>  <s_epik_input>  (7) 
W0NIMl0xW0NIMl1bQ0BASF0oW09IXSlbQ0hdPUMyW0NASF0zW0NAQF0oW0NIM10pKFtDQEBdKFtPSF0pKFtDQEhdNFtPSF0pW0NAQEhdKFtDSDJdNSlPW0NIM10pW0NAXShbQ0gzXSkoW0NAQEhdKFtDSDJdNilbT0hdKVtDQEBIXShbT0hdKVtDSDJdW0NAQEhdKFtPSF0pW0NAXShbQ0gzXSkoW0NIXTVbQ0BAXTM2W0NAQEhdN1tDQF0xMjQpW0NIMl1PW0NAQEhdKFtPSF0pW0NIMl1PNw==

>  <s_epik_cmdline>  (7) 
J2VwaWtfcHl0aG9uJywgJy1waHQnLCAnMi4wJywgJy1waCcsICc3LjAnLCAnLXRuJywgJzgnLCAnLW1hJywgJzIwMCcsICctaW1hZScsICc8aW5maWxlLm1hZT4nLCAnLW9tYWUnLCAnPG91dGZpbGUubWFlPic=

>  <r_lp_tautomer_probability>  (7) 
1

>  <r_epik_Ionization_Penalty>  (7) 
1.24639e-06

>  <r_epik_Ionization_Penalty_Charging>  (7) 
0

>  <r_epik_Ionization_Penalty_Neutral>  (7) 
1.24639e-06

>  <r_epik_State_Penalty>  (7) 
-0

>  <r_epik_Charging_Adjusted_Penalty>  (7) 
0

>  <i_epik_Tot_Q>  (7) 
0

>  <i_epik_Tot_abs_Q>  (7) 
0

>  <s_epik_Chemistry_Notes>  (7) 
This compound contains an acetal/aminal-like group ( X-CH(R)-Y where X, Y are N, S, or O) that may be acid/base labile, releasing an aldehyde.

>  <s_lp_Force_Field>  (7) 
OPLS3e

>  <r_lp_Energy>  (7) 
277.822

>  <b_lp_Chiralities_Consistent>  (7) 
1

>  <s_lp_Variant>  (7) 
3:0-1

>  <s_i_glide_gridfile>  (7) 
pfpi4k_grid

>  <i_i_glide_lignum>  (7) 
5

>  <i_i_glide_rotatable_bonds>  (7) 
8

>  <r_i_docking_score>  (7) 
-3.26724

>  <r_i_glide_ligand_efficiency>  (7) 
-0.0837754

>  <r_i_glide_ligand_efficiency_sa>  (7) 
-0.2841

>  <r_i_glide_ligand_efficiency_ln>  (7) 
-0.700589

>  <r_i_glide_gscore>  (7) 
-3.26724

>  <r_i_glide_lipo>  (7) 
-0.429568

>  <r_i_glide_hbond>  (7) 
-0.148269

>  <r_i_glide_metal>  (7) 
-0

>  <r_i_glide_rewards>  (7) 
-0.5

>  <r_i_glide_evdw>  (7) 
-18.5744

>  <r_i_glide_ecoul>  (7) 
-8.06179

>  <r_i_glide_erotb>  (7) 
0

>  <r_i_glide_esite>  (7) 
-0.0514145

>  <r_i_glide_emodel>  (7) 
-34.4

>  <r_i_glide_energy>  (7) 
-26.6362

>  <r_i_glide_einternal>  (7) 
1.76277

>  <r_i_glide_intrahb_reward>  (7) 
-0.5

>  <i_i_glide_confnum>  (7) 
2

>  <i_i_glide_posenum>  (7) 
32

>  <r_i_glide_eff_state_penalty>  (7) 
0

>  <ligand_id>  (7) 
3

>  <original_smiles>  (7) 
COC1CC2C3(C)COC(O)COC4C56CCC(O)C=C5C5C24CC(O)C(C)(C(O)CC3O)C5(C)C1(O)C6O

>  <smiles>  (7) 
[H]OC1([H])OC([H])([H])C2(C([H])([H])[H])C([H])(O[H])C([H])([H])C([H])(O[H])C3(C([H])([H])[H])C([H])(O[H])C([H])([H])C45C([H])(OC1([H])[H])C16C(=C([H])C([H])(O[H])C([H])([H])C1([H])[H])C4([H])C3(C([H])([H])[H])C(O[H])(C([H])(OC([H])([H])[H])C([H])([H])C25[H])C6([H])O[H]

$$$$
4:1:0
     RDKit          3D

 42 45  0  0  1  0  0  0  0  0999 V2000
    1.5953   -3.8959    2.7026 O   0  0  0  0  0  0  0  0  0  0  0  0
    2.3968   -4.7399    2.3051 C   0  0  0  0  0  0  0  0  0  0  0  0
    3.8289   -4.4518    2.0161 C   0  0  0  0  0  0  0  0  0  0  0  0
    4.4291   -3.2582    2.1790 C   0  0  0  0  0  0  0  0  0  0  0  0
    3.8993   -2.0815    2.6814 N   0  0  0  0  0  0  0  0  0  0  0  0
    3.4934   -1.9039    4.0765 C   0  0  0  0  0  0  0  0  0  0  0  0
    3.1851   -0.4349    4.2362 C   0  0  2  0  0  0  0  0  0  0  0  0
    1.9686   -0.2141    5.1660 C   0  0  0  0  0  0  0  0  0  0  0  0
    0.8463    0.1261    4.2964 N   0  0  0  0  0  0  0  0  0  0  0  0
    1.2197    0.2415    2.9568 C   0  0  0  0  0  0  0  0  0  0  0  0
    0.3183    0.5987    2.0114 C   0  0  0  0  0  0  0  0  0  0  0  0
   -1.0267    0.9167    2.4500 C   0  0  0  0  0  0  0  0  0  0  0  0
   -1.3722    0.8511    3.7505 C   0  0  0  0  0  0  0  0  0  0  0  0
   -0.4128    0.4178    4.7708 C   0  0  0  0  0  0  0  0  0  0  0  0
   -0.7056    0.3421    5.9601 O   0  0  0  0  0  0  0  0  0  0  0  0
    2.7256    0.0016    2.8381 C   0  0  2  0  0  0  0  0  0  0  0  0
    3.1645   -1.1249    1.8560 C   0  0  1  0  0  0  0  0  0  0  0  0
    4.0487   -0.5523    0.7020 C   0  0  0  0  0  0  0  0  0  0  0  0
    3.7417   -1.1616   -0.5423 O   0  0  0  0  0  0  0  0  0  0  0  0
    1.9228   -6.1034    2.1055 C   0  0  0  0  0  0  0  0  0  0  0  0
    2.5455   -7.2412    1.6633 C   0  0  0  0  0  0  0  0  0  0  0  0
    1.5289   -8.2383    1.6111 C   0  0  0  0  0  0  0  0  0  0  0  0
    0.3716   -7.6407    2.0567 C   0  0  0  0  0  0  0  0  0  0  0  0
    0.6046   -6.3486    2.3580 O   0  0  0  0  0  0  0  0  0  0  0  0
    4.4516   -5.2539    1.6552 H   0  0  0  0  0  0  0  0  0  0  0  0
    5.4644   -3.1697    1.9048 H   0  0  0  0  0  0  0  0  0  0  0  0
    2.5108   -2.4102    4.2549 H   0  0  0  0  0  0  0  0  0  0  0  0
    4.2448   -2.2711    4.7818 H   0  0  0  0  0  0  0  0  0  0  0  0
    4.0720    0.0810    4.5859 H   0  0  0  0  0  0  0  0  0  0  0  0
    1.6728   -1.0746    5.7787 H   0  0  0  0  0  0  0  0  0  0  0  0
    2.1635    0.6253    5.8388 H   0  0  0  0  0  0  0  0  0  0  0  0
    0.6146    0.7515    0.9846 H   0  0  0  0  0  0  0  0  0  0  0  0
   -1.7548    1.2385    1.7192 H   0  0  0  0  0  0  0  0  0  0  0  0
   -2.3810    1.1066    4.0540 H   0  0  0  0  0  0  0  0  0  0  0  0
    3.1915    0.9684    2.6350 H   0  0  0  0  0  0  0  0  0  0  0  0
    2.3004   -1.6411    1.4451 H   0  0  0  0  0  0  0  0  0  0  0  0
    3.8958    0.5243    0.5628 H   0  0  0  0  0  0  0  0  0  0  0  0
    5.1150   -0.6566    0.8981 H   0  0  0  0  0  0  0  0  0  0  0  0
    2.8108   -1.0573   -0.6979 H   0  0  0  0  0  0  0  0  0  0  0  0
    3.5882   -7.3156    1.3753 H   0  0  0  0  0  0  0  0  0  0  0  0
    1.5871   -9.2733    1.2772 H   0  0  0  0  0  0  0  0  0  0  0  0
   -0.6608   -7.9435    2.2039 H   0  0  0  0  0  0  0  0  0  0  0  0
  1  2  2  0
  2  3  1  0
  2 20  1  0
  3  4  2  3
  3 25  1  0
  4  5  1  0
  4 26  1  0
  5 17  1  0
  5  6  1  0
  6  7  1  0
  6 27  1  0
  6 28  1  0
  7 16  1  0
  7  8  1  0
  7 29  1  1
  8  9  1  0
  8 30  1  0
  8 31  1  0
  9 14  1  0
  9 10  1  0
 10 11  2  0
 10 16  1  0
 11 12  1  0
 11 32  1  0
 12 13  2  0
 12 33  1  0
 13 14  1  0
 13 34  1  0
 14 15  2  0
 16 17  1  0
 16 35  1  6
 17 18  1  0
 17 36  1  6
 18 19  1  0
 18 37  1  0
 18 38  1  0
 19 39  1  0
 20 24  1  0
 20 21  2  0
 21 22  1  0
 21 40  1  0
 22 23  2  0
 22 41  1  0
 23 24  1  0
 23 42  1  0
M  END
>  <i_m_ct_stereo_status>  (8) 
1

>  <s_m_source_file>  (8) 
/var/tmp/pbs.5076255.sched01/tmppe38rura/0ules8z9c.sdf

>  <i_m_source_file_index>  (8) 
7

>  <i_lp_mmshare_version>  (8) 
48012

>  <i_f3d_flags>  (8) 
0

>  <s_epik_input>  (8) 
bzFbY0hdW2NIXVtjSF1jMUMoPU8pL1tDSF09W0NIXS9OKFtDSDJdMilbQ0BIXShbQ0gyXVtPSF0pW0NASF0oW0NASF0yMyljNG4oW0NIMl0zKWMoPU8pW2NIXVtjSF1bY0hdNA==

>  <s_epik_cmdline>  (8) 
J2VwaWtfcHl0aG9uJywgJy1waHQnLCAnMi4wJywgJy1waCcsICc3LjAnLCAnLXRuJywgJzgnLCAnLW1hJywgJzIwMCcsICctaW1hZScsICc8aW5maWxlLm1hZT4nLCAnLW9tYWUnLCAnPG91dGZpbGUubWFlPic=

>  <r_lp_tautomer_probability>  (8) 
1

>  <r_epik_Ionization_Penalty>  (8) 
0.00423016

>  <r_epik_Ionization_Penalty_Charging>  (8) 
0.00414083

>  <r_epik_Ionization_Penalty_Neutral>  (8) 
8.93301e-05

>  <r_epik_State_Penalty>  (8) 
0.00297078

>  <r_epik_Charging_Adjusted_Penalty>  (8) 
0.00711161

>  <i_epik_Tot_Q>  (8) 
0

>  <i_epik_Tot_abs_Q>  (8) 
0

>  <s_epik_Chemistry_Notes>  (8) 
This compound has an imine and may undergo hydrolysis.

>  <s_lp_Force_Field>  (8) 
OPLS3e

>  <r_lp_Energy>  (8) 
31.0724

>  <b_lp_Chiralities_Consistent>  (8) 
1

>  <s_lp_Variant>  (8) 
4:0-2

>  <s_i_glide_gridfile>  (8) 
pfpi4k_grid

>  <i_i_glide_lignum>  (8) 
7

>  <i_i_glide_rotatable_bonds>  (8) 
5

>  <r_i_docking_score>  (8) 
-2.45173

>  <r_i_glide_ligand_efficiency>  (8) 
-0.102155

>  <r_i_glide_ligand_efficiency_sa>  (8) 
-0.294667

>  <r_i_glide_ligand_efficiency_ln>  (8) 
-0.586811

>  <r_i_glide_gscore>  (8) 
-2.45173

>  <r_i_glide_lipo>  (8) 
-0.094752

>  <r_i_glide_hbond>  (8) 
-0.160305

>  <r_i_glide_metal>  (8) 
-0

>  <r_i_glide_rewards>  (8) 
-1.184

>  <r_i_glide_evdw>  (8) 
-19.0403

>  <r_i_glide_ecoul>  (8) 
-3.81856

>  <r_i_glide_erotb>  (8) 
0.528257

>  <r_i_glide_esite>  (8) 
-0.0161285

>  <r_i_glide_emodel>  (8) 
-22.2191

>  <r_i_glide_energy>  (8) 
-22.8588

>  <r_i_glide_einternal>  (8) 
9.04371

>  <r_i_glide_intrahb_reward>  (8) 
-0

>  <i_i_glide_confnum>  (8) 
3

>  <i_i_glide_posenum>  (8) 
1

>  <r_i_glide_eff_state_penalty>  (8) 
0

>  <ligand_id>  (8) 
4

>  <original_smiles>  (8) 
O=C(C=CN1CC2Cn3c(cccc3=O)C2C1CO)c1ccco1

>  <smiles>  (8) 
[H]OC([H])([H])C1([H])N(C([H])=C([H])C(=O)c2oc([H])c([H])c2[H])C([H])([H])C2([H])C([H])([H])n3c(c([H])c([H])c([H])c3=O)C12[H]

$$$$
4:1:1
     RDKit          3D

 42 45  0  0  1  0  0  0  0  0999 V2000
    0.0235   -1.1959    6.1122 O   0  0  0  0  0  0  0  0  0  0  0  0
    0.6826   -2.1432    6.5361 C   0  0  0  0  0  0  0  0  0  0  0  0
    2.1557   -2.1270    6.6932 C   0  0  0  0  0  0  0  0  0  0  0  0
    2.9891   -1.2319    6.1307 C   0  0  0  0  0  0  0  0  0  0  0  0
    2.7029   -0.1724    5.2819 N   0  0  0  0  0  0  0  0  0  0  0  0
    2.2303    1.0732    5.8425 C   0  0  0  0  0  0  0  0  0  0  0  0
    2.1910    2.0372    4.6694 C   0  0  2  0  0  0  0  0  0  0  0  0
    1.1148    3.1254    4.7891 C   0  0  0  0  0  0  0  0  0  0  0  0
    0.0360    2.6957    3.9139 N   0  0  0  0  0  0  0  0  0  0  0  0
    0.3653    1.5522    3.1793 C   0  0  0  0  0  0  0  0  0  0  0  0
   -0.5001    1.0288    2.2982 C   0  0  0  0  0  0  0  0  0  0  0  0
   -1.7797    1.6933    2.1220 C   0  0  0  0  0  0  0  0  0  0  0  0
   -2.0719    2.8186    2.8042 C   0  0  0  0  0  0  0  0  0  0  0  0
   -1.1289    3.3932    3.7674 C   0  0  0  0  0  0  0  0  0  0  0  0
   -1.3735    4.4376    4.3855 O   0  0  0  0  0  0  0  0  0  0  0  0
    1.8026    1.1544    3.4856 C   0  0  2  0  0  0  0  0  0  0  0  0
    2.0767   -0.3008    3.9624 C   0  0  1  0  0  0  0  0  0  0  0  0
    2.9748   -1.1060    2.9927 C   0  0  0  0  0  0  0  0  0  0  0  0
    2.1908   -1.6066    1.9251 O   0  0  0  0  0  0  0  0  0  0  0  0
   -0.0232   -3.3360    6.9784 C   0  0  0  0  0  0  0  0  0  0  0  0
    0.4091   -4.4894    7.5819 C   0  0  0  0  0  0  0  0  0  0  0  0
   -0.7585   -5.2761    7.7995 C   0  0  0  0  0  0  0  0  0  0  0  0
   -1.8046   -4.5604    7.3018 C   0  0  0  0  0  0  0  0  0  0  0  0
   -1.3774   -3.3801    6.7923 O   0  0  0  0  0  0  0  0  0  0  0  0
    2.6085   -2.8980    7.3021 H   0  0  0  0  0  0  0  0  0  0  0  0
    4.0483   -1.3106    6.3252 H   0  0  0  0  0  0  0  0  0  0  0  0
    1.2359    0.9189    6.2569 H   0  0  0  0  0  0  0  0  0  0  0  0
    2.8779    1.4313    6.6457 H   0  0  0  0  0  0  0  0  0  0  0  0
    3.1893    2.4704    4.5399 H   0  0  0  0  0  0  0  0  0  0  0  0
    0.7448    3.2810    5.8110 H   0  0  0  0  0  0  0  0  0  0  0  0
    1.5084    4.0789    4.4239 H   0  0  0  0  0  0  0  0  0  0  0  0
   -0.2333    0.1820    1.6884 H   0  0  0  0  0  0  0  0  0  0  0  0
   -2.4771    1.3269    1.3865 H   0  0  0  0  0  0  0  0  0  0  0  0
   -3.0141    3.3114    2.6202 H   0  0  0  0  0  0  0  0  0  0  0  0
    2.4141    1.4263    2.6245 H   0  0  0  0  0  0  0  0  0  0  0  0
    1.1346   -0.8372    4.0475 H   0  0  0  0  0  0  0  0  0  0  0  0
    3.8253   -0.5222    2.6288 H   0  0  0  0  0  0  0  0  0  0  0  0
    3.3857   -1.9803    3.5007 H   0  0  0  0  0  0  0  0  0  0  0  0
    1.9079   -0.8873    1.3756 H   0  0  0  0  0  0  0  0  0  0  0  0
    1.4343   -4.7140    7.8496 H   0  0  0  0  0  0  0  0  0  0  0  0
   -0.8242   -6.2495    8.2658 H   0  0  0  0  0  0  0  0  0  0  0  0
   -2.8739   -4.7141    7.2246 H   0  0  0  0  0  0  0  0  0  0  0  0
  1  2  2  0
  2  3  1  0
  2 20  1  0
  3  4  2  3
  3 25  1  0
  4  5  1  0
  4 26  1  0
  5 17  1  0
  5  6  1  0
  6  7  1  0
  6 27  1  0
  6 28  1  0
  7 16  1  0
  7  8  1  0
  7 29  1  6
  8  9  1  0
  8 30  1  0
  8 31  1  0
  9 14  1  0
  9 10  1  0
 10 11  2  0
 10 16  1  0
 11 12  1  0
 11 32  1  0
 12 13  2  0
 12 33  1  0
 13 14  1  0
 13 34  1  0
 14 15  2  0
 16 17  1  0
 16 35  1  6
 17 18  1  0
 17 36  1  1
 18 19  1  0
 18 37  1  0
 18 38  1  0
 19 39  1  0
 20 24  1  0
 20 21  2  0
 21 22  1  0
 21 40  1  0
 22 23  2  0
 22 41  1  0
 23 24  1  0
 23 42  1  0
M  END
>  <i_m_ct_stereo_status>  (9) 
1

>  <s_m_source_file>  (9) 
/var/tmp/pbs.5076255.sched01/tmppe38rura/0ules8z9c.sdf

>  <i_m_source_file_index>  (9) 
7

>  <i_lp_mmshare_version>  (9) 
48012

>  <i_f3d_flags>  (9) 
0

>  <s_epik_input>  (9) 
bzFbY0hdW2NIXVtjSF1jMUMoPU8pL1tDSF09W0NIXS9OKFtDSDJdMilbQ0BIXShbQ0gyXVtPSF0pW0NASF0oW0NASF0yMyljNG4oW0NIMl0zKWMoPU8pW2NIXVtjSF1bY0hdNA==

>  <s_epik_cmdline>  (9) 
J2VwaWtfcHl0aG9uJywgJy1waHQnLCAnMi4wJywgJy1waCcsICc3LjAnLCAnLXRuJywgJzgnLCAnLW1hJywgJzIwMCcsICctaW1hZScsICc8aW5maWxlLm1hZT4nLCAnLW9tYWUnLCAnPG91dGZpbGUubWFlPic=

>  <r_lp_tautomer_probability>  (9) 
1

>  <r_epik_Ionization_Penalty>  (9) 
0.00423016

>  <r_epik_Ionization_Penalty_Charging>  (9) 
0.00414083

>  <r_epik_Ionization_Penalty_Neutral>  (9) 
8.93301e-05

>  <r_epik_State_Penalty>  (9) 
0.00297078

>  <r_epik_Charging_Adjusted_Penalty>  (9) 
0.00711161

>  <i_epik_Tot_Q>  (9) 
0

>  <i_epik_Tot_abs_Q>  (9) 
0

>  <s_epik_Chemistry_Notes>  (9) 
This compound has an imine and may undergo hydrolysis.

>  <s_lp_Force_Field>  (9) 
OPLS3e

>  <r_lp_Energy>  (9) 
31.0724

>  <b_lp_Chiralities_Consistent>  (9) 
1

>  <s_lp_Variant>  (9) 
4:0-2

>  <s_i_glide_gridfile>  (9) 
pfpi4k_grid

>  <i_i_glide_lignum>  (9) 
7

>  <i_i_glide_rotatable_bonds>  (9) 
5

>  <r_i_docking_score>  (9) 
-2.41087

>  <r_i_glide_ligand_efficiency>  (9) 
-0.100453

>  <r_i_glide_ligand_efficiency_sa>  (9) 
-0.289756

>  <r_i_glide_ligand_efficiency_ln>  (9) 
-0.577031

>  <r_i_glide_gscore>  (9) 
-2.41087

>  <r_i_glide_lipo>  (9) 
-0.229924

>  <r_i_glide_hbond>  (9) 
-0.0570955

>  <r_i_glide_metal>  (9) 
-0

>  <r_i_glide_rewards>  (9) 
-1.184

>  <r_i_glide_evdw>  (9) 
-18.4212

>  <r_i_glide_ecoul>  (9) 
-3.26396

>  <r_i_glide_erotb>  (9) 
0.528257

>  <r_i_glide_esite>  (9) 
-0.0574519

>  <r_i_glide_emodel>  (9) 
-23.5594

>  <r_i_glide_energy>  (9) 
-21.6851

>  <r_i_glide_einternal>  (9) 
4.59265

>  <r_i_glide_intrahb_reward>  (9) 
-0

>  <i_i_glide_confnum>  (9) 
3

>  <i_i_glide_posenum>  (9) 
2

>  <r_i_glide_eff_state_penalty>  (9) 
0

>  <ligand_id>  (9) 
4

>  <original_smiles>  (9) 
O=C(C=CN1CC2Cn3c(cccc3=O)C2C1CO)c1ccco1

>  <smiles>  (9) 
[H]OC([H])([H])C1([H])N(C([H])=C([H])C(=O)c2oc([H])c([H])c2[H])C([H])([H])C2([H])C([H])([H])n3c(c([H])c([H])c([H])c3=O)C12[H]

$$$$
4:1:2
     RDKit          3D

 42 45  0  0  1  0  0  0  0  0999 V2000
    2.9876   -0.8332    2.4458 O   0  0  0  0  0  0  0  0  0  0  0  0
    4.1437   -0.6886    2.0012 C   0  0  0  0  0  0  0  0  0  0  0  0
    5.2385   -0.1123    2.7943 C   0  0  0  0  0  0  0  0  0  0  0  0
    5.1400    0.4004    4.0334 C   0  0  0  0  0  0  0  0  0  0  0  0
    4.0280    0.4558    4.8605 N   0  0  0  0  0  0  0  0  0  0  0  0
    3.4608   -0.7522    5.4435 C   0  0  0  0  0  0  0  0  0  0  0  0
    2.3894   -0.2421    6.4001 C   0  0  2  0  0  0  0  0  0  0  0  0
    1.1989   -1.2034    6.5160 C   0  0  0  0  0  0  0  0  0  0  0  0
    0.1446   -0.6105    5.7128 N   0  0  0  0  0  0  0  0  0  0  0  0
    0.4706    0.6467    5.2248 C   0  0  0  0  0  0  0  0  0  0  0  0
   -0.4097    1.3698    4.5000 C   0  0  0  0  0  0  0  0  0  0  0  0
   -1.7317    0.8098    4.2856 C   0  0  0  0  0  0  0  0  0  0  0  0
   -2.0586   -0.4000    4.7984 C   0  0  0  0  0  0  0  0  0  0  0  0
   -1.0956   -1.1862    5.5614 C   0  0  0  0  0  0  0  0  0  0  0  0
   -1.3855   -2.2683    6.0738 O   0  0  0  0  0  0  0  0  0  0  0  0
    1.8625    1.0272    5.7164 C   0  0  2  0  0  0  0  0  0  0  0  0
    2.9328    1.4111    4.6578 C   0  0  1  0  0  0  0  0  0  0  0  0
    3.4117    2.8757    4.8080 C   0  0  0  0  0  0  0  0  0  0  0  0
    2.3490    3.7885    4.6120 O   0  0  0  0  0  0  0  0  0  0  0  0
    4.4435   -1.1186    0.6536 C   0  0  0  0  0  0  0  0  0  0  0  0
    5.5809   -1.0194   -0.1398 C   0  0  0  0  0  0  0  0  0  0  0  0
    5.2358   -1.5591   -1.3983 C   0  0  0  0  0  0  0  0  0  0  0  0
    3.9230   -1.9779   -1.2937 C   0  0  0  0  0  0  0  0  0  0  0  0
    3.4548   -1.7345   -0.0551 O   0  0  0  0  0  0  0  0  0  0  0  0
    6.2258   -0.0987    2.3501 H   0  0  0  0  0  0  0  0  0  0  0  0
    6.0176    0.8261    4.5087 H   0  0  0  0  0  0  0  0  0  0  0  0
    2.9881   -1.3611    4.6884 H   0  0  0  0  0  0  0  0  0  0  0  0
    4.2396   -1.3361    5.9762 H   0  0  0  0  0  0  0  0  0  0  0  0
    2.8435   -0.0269    7.3807 H   0  0  0  0  0  0  0  0  0  0  0  0
    1.4001   -2.2235    6.1631 H   0  0  0  0  0  0  0  0  0  0  0  0
    0.8755   -1.2678    7.5557 H   0  0  0  0  0  0  0  0  0  0  0  0
   -0.1788    2.3644    4.1489 H   0  0  0  0  0  0  0  0  0  0  0  0
   -2.4661    1.3769    3.7406 H   0  0  0  0  0  0  0  0  0  0  0  0
   -3.0562   -0.7888    4.6272 H   0  0  0  0  0  0  0  0  0  0  0  0
    1.7451    1.8013    6.4820 H   0  0  0  0  0  0  0  0  0  0  0  0
    2.5377    1.2740    3.6500 H   0  0  0  0  0  0  0  0  0  0  0  0
    3.8414    3.0478    5.7932 H   0  0  0  0  0  0  0  0  0  0  0  0
    4.1915    3.1057    4.0860 H   0  0  0  0  0  0  0  0  0  0  0  0
    2.0704    3.7274    3.7065 H   0  0  0  0  0  0  0  0  0  0  0  0
    6.5129   -0.5638    0.1947 H   0  0  0  0  0  0  0  0  0  0  0  0
    5.8226   -1.6467   -2.2992 H   0  0  0  0  0  0  0  0  0  0  0  0
    3.1952   -2.4351   -1.9441 H   0  0  0  0  0  0  0  0  0  0  0  0
  1  2  2  0
  2  3  1  0
  2 20  1  0
  3  4  2  3
  3 25  1  0
  4  5  1  0
  4 26  1  0
  5 17  1  0
  5  6  1  0
  6  7  1  0
  6 27  1  0
  6 28  1  0
  7 16  1  0
  7  8  1  0
  7 29  1  1
  8  9  1  0
  8 30  1  0
  8 31  1  0
  9 14  1  0
  9 10  1  0
 10 11  2  0
 10 16  1  0
 11 12  1  0
 11 32  1  0
 12 13  2  0
 12 33  1  0
 13 14  1  0
 13 34  1  0
 14 15  2  0
 16 17  1  0
 16 35  1  1
 17 18  1  0
 17 36  1  6
 18 19  1  0
 18 37  1  0
 18 38  1  0
 19 39  1  0
 20 24  1  0
 20 21  2  0
 21 22  1  0
 21 40  1  0
 22 23  2  0
 22 41  1  0
 23 24  1  0
 23 42  1  0
M  END
>  <i_m_ct_stereo_status>  (10) 
1

>  <s_m_source_file>  (10) 
/var/tmp/pbs.5076255.sched01/tmppe38rura/0ules8z9c.sdf

>  <i_m_source_file_index>  (10) 
7

>  <i_lp_mmshare_version>  (10) 
48012

>  <i_f3d_flags>  (10) 
0

>  <s_epik_input>  (10) 
bzFbY0hdW2NIXVtjSF1jMUMoPU8pL1tDSF09W0NIXS9OKFtDSDJdMilbQ0BIXShbQ0gyXVtPSF0pW0NASF0oW0NASF0yMyljNG4oW0NIMl0zKWMoPU8pW2NIXVtjSF1bY0hdNA==

>  <s_epik_cmdline>  (10) 
J2VwaWtfcHl0aG9uJywgJy1waHQnLCAnMi4wJywgJy1waCcsICc3LjAnLCAnLXRuJywgJzgnLCAnLW1hJywgJzIwMCcsICctaW1hZScsICc8aW5maWxlLm1hZT4nLCAnLW9tYWUnLCAnPG91dGZpbGUubWFlPic=

>  <r_lp_tautomer_probability>  (10) 
1

>  <r_epik_Ionization_Penalty>  (10) 
0.00423016

>  <r_epik_Ionization_Penalty_Charging>  (10) 
0.00414083

>  <r_epik_Ionization_Penalty_Neutral>  (10) 
8.93301e-05

>  <r_epik_State_Penalty>  (10) 
0.00297078

>  <r_epik_Charging_Adjusted_Penalty>  (10) 
0.00711161

>  <i_epik_Tot_Q>  (10) 
0

>  <i_epik_Tot_abs_Q>  (10) 
0

>  <s_epik_Chemistry_Notes>  (10) 
This compound has an imine and may undergo hydrolysis.

>  <s_lp_Force_Field>  (10) 
OPLS3e

>  <r_lp_Energy>  (10) 
31.0724

>  <b_lp_Chiralities_Consistent>  (10) 
1

>  <s_lp_Variant>  (10) 
4:0-2

>  <s_i_glide_gridfile>  (10) 
pfpi4k_grid

>  <i_i_glide_lignum>  (10) 
7

>  <i_i_glide_rotatable_bonds>  (10) 
5

>  <r_i_docking_score>  (10) 
-2.10866

>  <r_i_glide_ligand_efficiency>  (10) 
-0.0878608

>  <r_i_glide_ligand_efficiency_sa>  (10) 
-0.253434

>  <r_i_glide_ligand_efficiency_ln>  (10) 
-0.504699

>  <r_i_glide_gscore>  (10) 
-2.10866

>  <r_i_glide_lipo>  (10) 
-0.201515

>  <r_i_glide_hbond>  (10) 
0

>  <r_i_glide_metal>  (10) 
-0

>  <r_i_glide_rewards>  (10) 
-1.26028

>  <r_i_glide_evdw>  (10) 
-19.8801

>  <r_i_glide_ecoul>  (10) 
-1.10134

>  <r_i_glide_erotb>  (10) 
0.528257

>  <r_i_glide_esite>  (10) 
-0.0159159

>  <r_i_glide_emodel>  (10) 
-22.2622

>  <r_i_glide_energy>  (10) 
-20.9815

>  <r_i_glide_einternal>  (10) 
4.37234

>  <r_i_glide_intrahb_reward>  (10) 
-0

>  <i_i_glide_confnum>  (10) 
3

>  <i_i_glide_posenum>  (10) 
27

>  <r_i_glide_eff_state_penalty>  (10) 
0

>  <ligand_id>  (10) 
4

>  <original_smiles>  (10) 
O=C(C=CN1CC2Cn3c(cccc3=O)C2C1CO)c1ccco1

>  <smiles>  (10) 
[H]OC([H])([H])C1([H])N(C([H])=C([H])C(=O)c2oc([H])c([H])c2[H])C([H])([H])C2([H])C([H])([H])n3c(c([H])c([H])c([H])c3=O)C12[H]

$$$$
5:1:0
     RDKit          3D

 83 90  0  0  1  0  0  0  0  0999 V2000
   -0.9704   -8.8273    2.8347 C   0  0  0  0  0  0  0  0  0  0  0  0
   -0.2955   -8.1172    3.8539 O   0  0  0  0  0  0  0  0  0  0  0  0
    0.1675   -6.8856    3.6252 C   0  0  0  0  0  0  0  0  0  0  0  0
    0.0770   -6.3027    2.5435 O   0  0  0  0  0  0  0  0  0  0  0  0
    0.9003   -6.2630    4.8468 C   0  0  2  0  0  0  0  0  0  0  0  0
    2.3705   -6.6749    4.7902 C   0  0  0  0  0  0  0  0  0  0  0  0
    2.9281   -7.9960    5.3571 C   0  0  1  0  0  0  0  0  0  0  0  0
    4.4438   -8.1309    4.9949 C   0  0  1  0  0  0  0  0  0  0  0  0
    4.8212   -7.9474    3.5361 C   0  0  0  0  0  0  0  0  0  0  0  0
    4.8607   -8.9248    2.5869 C   0  0  0  0  0  0  0  0  0  0  0  0
    5.2171   -8.4421    1.2824 C   0  0  0  0  0  0  0  0  0  0  0  0
    5.4286   -7.0956    1.2549 C   0  0  0  0  0  0  0  0  0  0  0  0
    5.1765   -6.3858    2.8168 S   0  0  0  0  0  0  0  0  0  0  0  0
    5.3644   -7.4220    6.0264 C   0  0  1  0  0  0  0  0  0  0  0  0
    6.8344   -7.1329    5.6117 C   0  0  0  0  0  0  0  0  0  0  0  0
    4.6666   -6.3444    6.9521 C   0  0  1  0  0  0  0  0  0  0  0  0
    4.8082   -4.8078    6.6317 C   0  0  1  0  0  0  0  0  0  0  0  0
    5.1433   -4.0203    7.7688 O   0  0  0  0  0  0  0  0  0  0  0  0
    6.5305   -3.9290    8.0833 C   0  0  0  0  0  0  0  0  0  0  0  0
    5.5846   -4.4974    5.4501 O   0  0  0  0  0  0  0  0  0  0  0  0
    4.3959   -3.7419    5.5778 C   0  0  1  0  0  0  0  0  0  0  0  0
    3.2908   -3.7799    4.5195 C   0  0  0  0  0  0  0  0  0  0  0  0
    1.8717   -3.6540    5.1486 C   0  0  2  0  0  0  0  0  0  0  0  0
    1.8376   -3.2677    6.6378 C   0  0  0  0  0  0  0  0  0  0  0  0
    0.6511   -3.9864    7.2228 C   0  0  1  0  0  0  0  0  0  0  0  0
   -0.2690   -4.2635    6.0306 C   0  0  2  0  0  0  0  0  0  0  0  0
   -1.1797   -5.3832    6.5119 C   0  0  0  0  0  0  0  0  0  0  0  0
   -0.1261   -6.2919    7.1212 C   0  0  1  0  0  0  0  0  0  0  0  0
    0.4053   -6.9461    5.9912 O   0  0  0  0  0  0  0  0  0  0  0  0
    0.8530   -5.3881    7.9028 C   0  0  2  0  0  0  0  0  0  0  0  0
    0.0939   -5.1157    9.0797 O   0  0  0  0  0  0  0  0  0  0  0  0
    2.2850   -5.9312    8.4616 C   0  0  1  0  0  0  0  0  0  0  0  0
    2.0885   -6.3231    9.8368 O   0  0  0  0  0  0  0  0  0  0  0  0
    1.4206   -7.5457   10.1545 C   0  0  0  0  0  0  0  0  0  0  0  0
    3.3775   -6.9212    7.7416 C   0  0  2  0  0  0  0  0  0  0  0  0
    4.0057   -7.6618    8.8167 O   0  0  0  0  0  0  0  0  0  0  0  0
    4.7892   -7.0281    9.8400 C   0  0  0  0  0  0  0  0  0  0  0  0
    2.8087   -8.1447    6.9226 C   0  0  1  0  0  0  0  0  0  0  0  0
    1.5715   -8.6163    7.4468 O   0  0  0  0  0  0  0  0  0  0  0  0
    0.9433   -9.7096    6.7842 C   0  0  0  0  0  0  0  0  0  0  0  0
    0.7011   -4.6765    4.9015 C   0  0  2  0  0  0  0  0  0  0  0  0
   -1.2751   -9.8083    3.2026 H   0  0  0  0  0  0  0  0  0  0  0  0
   -0.3186   -8.9674    1.9727 H   0  0  0  0  0  0  0  0  0  0  0  0
   -1.8622   -8.2853    2.5197 H   0  0  0  0  0  0  0  0  0  0  0  0
    2.6459   -6.5962    3.7447 H   0  0  0  0  0  0  0  0  0  0  0  0
    2.9001   -5.9454    5.3495 H   0  0  0  0  0  0  0  0  0  0  0  0
    2.4353   -8.8145    4.8393 H   0  0  0  0  0  0  0  0  0  0  0  0
    4.6517   -9.1893    5.1602 H   0  0  0  0  0  0  0  0  0  0  0  0
    4.6517   -9.9741    2.7415 H   0  0  0  0  0  0  0  0  0  0  0  0
    5.2800   -9.0988    0.4310 H   0  0  0  0  0  0  0  0  0  0  0  0
    5.6981   -6.4606    0.4147 H   0  0  0  0  0  0  0  0  0  0  0  0
    5.5474   -8.2182    6.7484 H   0  0  0  0  0  0  0  0  0  0  0  0
    6.9551   -6.3823    4.8352 H   0  0  0  0  0  0  0  0  0  0  0  0
    7.3074   -8.0435    5.2386 H   0  0  0  0  0  0  0  0  0  0  0  0
    7.4270   -6.7892    6.4587 H   0  0  0  0  0  0  0  0  0  0  0  0
    5.4566   -6.3547    7.6864 H   0  0  0  0  0  0  0  0  0  0  0  0
    6.6250   -3.4700    9.0664 H   0  0  0  0  0  0  0  0  0  0  0  0
    7.0619   -3.3094    7.3628 H   0  0  0  0  0  0  0  0  0  0  0  0
    7.0074   -4.9029    8.1256 H   0  0  0  0  0  0  0  0  0  0  0  0
    4.6035   -2.7133    5.8729 H   0  0  0  0  0  0  0  0  0  0  0  0
    3.4604   -2.9095    3.8872 H   0  0  0  0  0  0  0  0  0  0  0  0
    3.4099   -4.5902    3.8203 H   0  0  0  0  0  0  0  0  0  0  0  0
    1.4812   -2.7598    4.6570 H   0  0  0  0  0  0  0  0  0  0  0  0
    2.7038   -3.4708    7.2534 H   0  0  0  0  0  0  0  0  0  0  0  0
    1.6857   -2.1900    6.7087 H   0  0  0  0  0  0  0  0  0  0  0  0
    0.1434   -3.2702    7.8790 H   0  0  0  0  0  0  0  0  0  0  0  0
   -0.8269   -3.3690    5.7458 H   0  0  0  0  0  0  0  0  0  0  0  0
   -1.8827   -5.0367    7.2700 H   0  0  0  0  0  0  0  0  0  0  0  0
   -1.7483   -5.8592    5.7114 H   0  0  0  0  0  0  0  0  0  0  0  0
   -0.5769   -7.0376    7.7832 H   0  0  0  0  0  0  0  0  0  0  0  0
    0.6606   -4.6636    9.6845 H   0  0  0  0  0  0  0  0  0  0  0  0
    2.8577   -5.0331    8.6535 H   0  0  0  0  0  0  0  0  0  0  0  0
    1.2485   -7.5763   11.2302 H   0  0  0  0  0  0  0  0  0  0  0  0
    2.0126   -8.4275    9.9161 H   0  0  0  0  0  0  0  0  0  0  0  0
    0.4490   -7.6423    9.6740 H   0  0  0  0  0  0  0  0  0  0  0  0
    4.5764   -7.4898   10.8026 H   0  0  0  0  0  0  0  0  0  0  0  0
    4.6028   -5.9581    9.9267 H   0  0  0  0  0  0  0  0  0  0  0  0
    5.8553   -7.1663    9.6545 H   0  0  0  0  0  0  0  0  0  0  0  0
    3.4466   -9.0071    7.1328 H   0  0  0  0  0  0  0  0  0  0  0  0
    0.1331  -10.1082    7.4010 H   0  0  0  0  0  0  0  0  0  0  0  0
    1.6435  -10.4974    6.5071 H   0  0  0  0  0  0  0  0  0  0  0  0
    0.4736   -9.3901    5.8612 H   0  0  0  0  0  0  0  0  0  0  0  0
    0.2317   -4.3476    3.9802 H   0  0  0  0  0  0  0  0  0  0  0  0
  1  2  1  0
  1 42  1  0
  1 43  1  0
  1 44  1  0
  2  3  1  0
  3  4  2  0
  5  3  1  6
  5 29  1  0
  5 41  1  0
  5  6  1  0
  6  7  1  0
  6 45  1  0
  6 46  1  0
  7 38  1  0
  7  8  1  0
  7 47  1  6
  8  9  1  0
  8 14  1  0
  8 48  1  1
  9 13  1  0
  9 10  2  0
 10 11  1  0
 10 49  1  0
 11 12  2  0
 11 50  1  0
 12 13  1  0
 12 51  1  0
 14 15  1  0
 14 16  1  0
 14 52  1  1
 15 53  1  0
 15 54  1  0
 15 55  1  0
 16 35  1  0
 16 17  1  0
 16 56  1  1
 17 21  1  0
 17 18  1  1
 17 20  1  0
 18 19  1  0
 19 57  1  0
 19 58  1  0
 19 59  1  0
 20 21  1  0
 21 22  1  0
 21 60  1  1
 22 23  1  0
 22 61  1  0
 22 62  1  0
 23 41  1  0
 23 24  1  0
 23 63  1  6
 24 25  1  0
 24 64  1  0
 24 65  1  0
 25 30  1  0
 25 26  1  0
 25 66  1  1
 26 27  1  0
 26 41  1  0
 26 67  1  6
 27 28  1  0
 27 68  1  0
 27 69  1  0
 28 29  1  0
 28 30  1  0
 28 70  1  1
 30 31  1  1
 30 32  1  0
 31 71  1  0
 32 33  1  0
 32 35  1  0
 32 72  1  1
 33 34  1  0
 34 73  1  0
 34 74  1  0
 34 75  1  0
 35 36  1  1
 35 38  1  0
 36 37  1  0
 37 76  1  0
 37 77  1  0
 37 78  1  0
 38 39  1  0
 38 79  1  1
 39 40  1  0
 40 80  1  0
 40 81  1  0
 40 82  1  0
 41 83  1  6
M  END
>  <i_m_ct_stereo_status>  (11) 
1

>  <s_m_source_file>  (11) 
/var/tmp/pbs.5076255.sched01/tmppe38rura/0ules8z9c.sdf

>  <i_m_source_file_index>  (11) 
9

>  <i_lp_mmshare_version>  (11) 
48012

>  <i_f3d_flags>  (11) 
0

>  <s_epik_input>  (11) 
W0NIM11PQyg9TylbQ0BdMTJbQ0BASF0zW0NIXTRbQ0gyXVtDQEhdNVtDQEBdKE81KShPW0NIM10pW0NIXTZbQ0BAXShPW0NIM10pKFtDQEhdKE9bQ0gzXSlbQ0BAXTcoW09IXSlbQ0BASF0oW0NIMl00KVtDQEBIXTNbQ0gyXVtDQEhdN08yKVtDQEBIXShPW0NIM10pW0NAQEhdKFtDSDJdMSlbQ0BIXShbQ0BIXTZbQ0gzXSljOFtjSF1bY0hdW2NIXXM4

>  <s_epik_cmdline>  (11) 
J2VwaWtfcHl0aG9uJywgJy1waHQnLCAnMi4wJywgJy1waCcsICc3LjAnLCAnLXRuJywgJzgnLCAnLW1hJywgJzIwMCcsICctaW1hZScsICc8aW5maWxlLm1hZT4nLCAnLW9tYWUnLCAnPG91dGZpbGUubWFlPic=

>  <r_lp_tautomer_probability>  (11) 
1

>  <r_epik_Ionization_Penalty>  (11) 
1.64973e-07

>  <r_epik_Ionization_Penalty_Charging>  (11) 
0

>  <r_epik_Ionization_Penalty_Neutral>  (11) 
1.64973e-07

>  <r_epik_State_Penalty>  (11) 
-0

>  <r_epik_Charging_Adjusted_Penalty>  (11) 
0

>  <i_epik_Tot_Q>  (11) 
0

>  <i_epik_Tot_abs_Q>  (11) 
0

>  <s_epik_Chemistry_Notes>  (11) 
This compound has an ester and may undergo hydrolysis at high or low pH.

>  <s_lp_Force_Field>  (11) 
OPLS3e

>  <r_lp_Energy>  (11) 
179.536

>  <b_lp_Chiralities_Consistent>  (11) 
1

>  <s_lp_Variant>  (11) 
5:0-2

>  <s_i_glide_gridfile>  (11) 
pfpi4k_grid

>  <i_i_glide_lignum>  (11) 
9

>  <i_i_glide_rotatable_bonds>  (11) 
8

>  <r_i_docking_score>  (11) 
-1.98537

>  <r_i_glide_ligand_efficiency>  (11) 
-0.0484236

>  <r_i_glide_ligand_efficiency_sa>  (11) 
-0.166975

>  <r_i_glide_ligand_efficiency_ln>  (11) 
-0.421202

>  <r_i_glide_gscore>  (11) 
-1.98537

>  <r_i_glide_lipo>  (11) 
-0.215831

>  <r_i_glide_hbond>  (11) 
-0.149547

>  <r_i_glide_metal>  (11) 
-0

>  <r_i_glide_rewards>  (11) 
0

>  <r_i_glide_evdw>  (11) 
-20.0351

>  <r_i_glide_ecoul>  (11) 
-3.8974

>  <r_i_glide_erotb>  (11) 
0.0111374

>  <r_i_glide_esite>  (11) 
-0.044763

>  <r_i_glide_emodel>  (11) 
-25.4995

>  <r_i_glide_energy>  (11) 
-23.9325

>  <r_i_glide_einternal>  (11) 
2.46988

>  <r_i_glide_intrahb_reward>  (11) 
-0

>  <i_i_glide_confnum>  (11) 
2

>  <i_i_glide_posenum>  (11) 
6

>  <r_i_glide_eff_state_penalty>  (11) 
0

>  <ligand_id>  (11) 
5

>  <original_smiles>  (11) 
COC(=O)C12CC3C(c4cccs4)C(C)C4C5(OC)OC5CC5CC6C(CC(O1)C6(O)C(OC)C4(OC)C3OC)C52

>  <smiles>  (11) 
[H]OC12C3([H])OC4(C(=O)OC([H])([H])[H])C([H])([H])C5([H])C([H])(OC([H])([H])[H])C(OC([H])([H])[H])(C1([H])OC([H])([H])[H])C([H])(C1(OC([H])([H])[H])OC1([H])C([H])([H])C1([H])C([H])([H])C2([H])C([H])(C3([H])[H])C41[H])C([H])(C([H])([H])[H])C5([H])c1sc([H])c([H])c1[H]

$$$$
5:1:1
     RDKit          3D

 83 90  0  0  1  0  0  0  0  0999 V2000
   -1.7857   -8.0634    3.8900 C   0  0  0  0  0  0  0  0  0  0  0  0
   -0.5089   -8.2075    4.4775 O   0  0  0  0  0  0  0  0  0  0  0  0
    0.3970   -7.2252    4.3303 C   0  0  0  0  0  0  0  0  0  0  0  0
    0.1588   -6.1488    3.7849 O   0  0  0  0  0  0  0  0  0  0  0  0
    1.7883   -7.5634    4.9493 C   0  0  2  0  0  0  0  0  0  0  0  0
    2.8993   -7.0121    4.0539 C   0  0  0  0  0  0  0  0  0  0  0  0
    3.4235   -7.7402    2.8012 C   0  0  1  0  0  0  0  0  0  0  0  0
    4.4188   -6.8152    2.0347 C   0  0  1  0  0  0  0  0  0  0  0  0
    3.9190   -5.4230    1.6795 C   0  0  0  0  0  0  0  0  0  0  0  0
    3.2427   -5.0665    0.5381 C   0  0  0  0  0  0  0  0  0  0  0  0
    2.8819   -3.6845    0.4767 C   0  0  0  0  0  0  0  0  0  0  0  0
    3.2769   -2.9871    1.5962 C   0  0  0  0  0  0  0  0  0  0  0  0
    4.0699   -4.0356    2.7377 S   0  0  0  0  0  0  0  0  0  0  0  0
    5.8718   -6.9182    2.6065 C   0  0  1  0  0  0  0  0  0  0  0  0
    6.8736   -5.7982    2.2070 C   0  0  0  0  0  0  0  0  0  0  0  0
    6.0116   -7.5025    4.0732 C   0  0  1  0  0  0  0  0  0  0  0  0
    6.1981   -6.5486    5.3020 C   0  0  1  0  0  0  0  0  0  0  0  0
    7.2389   -6.9780    6.1706 O   0  0  0  0  0  0  0  0  0  0  0  0
    8.5451   -6.5071    5.8326 C   0  0  0  0  0  0  0  0  0  0  0  0
    6.1775   -5.1318    4.9682 O   0  0  0  0  0  0  0  0  0  0  0  0
    5.4382   -5.4765    6.1261 C   0  0  1  0  0  0  0  0  0  0  0  0
    3.9436   -5.1632    6.2153 C   0  0  0  0  0  0  0  0  0  0  0  0
    3.1538   -6.2566    7.0082 C   0  0  2  0  0  0  0  0  0  0  0  0
    4.0284   -7.2826    7.7494 C   0  0  0  0  0  0  0  0  0  0  0  0
    3.2779   -8.5838    7.6940 C   0  0  1  0  0  0  0  0  0  0  0  0
    1.8139   -8.1770    7.4783 C   0  0  2  0  0  0  0  0  0  0  0  0
    1.1732   -9.4511    6.9595 C   0  0  0  0  0  0  0  0  0  0  0  0
    2.2066   -9.8249    5.9017 C   0  0  1  0  0  0  0  0  0  0  0  0
    1.9216   -8.9678    4.8191 O   0  0  0  0  0  0  0  0  0  0  0  0
    3.5998   -9.6229    6.5559 C   0  0  2  0  0  0  0  0  0  0  0  0
    3.7309  -10.7760    7.3960 O   0  0  0  0  0  0  0  0  0  0  0  0
    4.9844   -9.6226    5.6891 C   0  0  1  0  0  0  0  0  0  0  0  0
    5.5519  -10.9478    5.7462 O   0  0  0  0  0  0  0  0  0  0  0  0
    4.9629  -12.0194    5.0159 C   0  0  0  0  0  0  0  0  0  0  0  0
    5.3016   -8.9587    4.2113 C   0  0  2  0  0  0  0  0  0  0  0  0
    6.2972   -9.8318    3.6000 O   0  0  0  0  0  0  0  0  0  0  0  0
    7.6145  -10.0071    4.1540 C   0  0  0  0  0  0  0  0  0  0  0  0
    4.1722   -9.0904    3.1150 C   0  0  1  0  0  0  0  0  0  0  0  0
    3.3712  -10.2544    3.3006 O   0  0  0  0  0  0  0  0  0  0  0  0
    2.2729  -10.4681    2.4199 C   0  0  0  0  0  0  0  0  0  0  0  0
    1.8842   -7.0252    6.4454 C   0  0  2  0  0  0  0  0  0  0  0  0
   -2.3904   -8.9463    4.0946 H   0  0  0  0  0  0  0  0  0  0  0  0
   -1.6887   -7.9463    2.8091 H   0  0  0  0  0  0  0  0  0  0  0  0
   -2.2812   -7.1799    4.2924 H   0  0  0  0  0  0  0  0  0  0  0  0
    2.5974   -6.0094    3.7647 H   0  0  0  0  0  0  0  0  0  0  0  0
    3.7555   -6.9421    4.6762 H   0  0  0  0  0  0  0  0  0  0  0  0
    2.5873   -7.8920    2.1380 H   0  0  0  0  0  0  0  0  0  0  0  0
    4.4908   -7.2989    1.0556 H   0  0  0  0  0  0  0  0  0  0  0  0
    2.9936   -5.7502   -0.2515 H   0  0  0  0  0  0  0  0  0  0  0  0
    2.3394   -3.2591   -0.3478 H   0  0  0  0  0  0  0  0  0  0  0  0
    3.1239   -1.9377    1.8116 H   0  0  0  0  0  0  0  0  0  0  0  0
    6.2781   -7.7377    1.9934 H   0  0  0  0  0  0  0  0  0  0  0  0
    6.6415   -4.8277    2.6309 H   0  0  0  0  0  0  0  0  0  0  0  0
    6.8884   -5.6686    1.1183 H   0  0  0  0  0  0  0  0  0  0  0  0
    7.8784   -6.0573    2.5099 H   0  0  0  0  0  0  0  0  0  0  0  0
    7.0585   -7.7321    3.9502 H   0  0  0  0  0  0  0  0  0  0  0  0
    9.2478   -7.0357    6.4616 H   0  0  0  0  0  0  0  0  0  0  0  0
    8.6723   -5.4356    5.9998 H   0  0  0  0  0  0  0  0  0  0  0  0
    8.7833   -6.7265    4.7984 H   0  0  0  0  0  0  0  0  0  0  0  0
    5.9333   -5.1981    7.0517 H   0  0  0  0  0  0  0  0  0  0  0  0
    3.8628   -4.2266    6.7695 H   0  0  0  0  0  0  0  0  0  0  0  0
    3.5144   -4.8906    5.2659 H   0  0  0  0  0  0  0  0  0  0  0  0
    2.7078   -5.6816    7.8267 H   0  0  0  0  0  0  0  0  0  0  0  0
    5.0479   -7.4550    7.4199 H   0  0  0  0  0  0  0  0  0  0  0  0
    4.1303   -6.9601    8.7861 H   0  0  0  0  0  0  0  0  0  0  0  0
    3.3709   -9.0306    8.6892 H   0  0  0  0  0  0  0  0  0  0  0  0
    1.3664   -7.8376    8.4130 H   0  0  0  0  0  0  0  0  0  0  0  0
    1.1221  -10.2070    7.7461 H   0  0  0  0  0  0  0  0  0  0  0  0
    0.1648   -9.3358    6.5629 H   0  0  0  0  0  0  0  0  0  0  0  0
    2.0742  -10.8521    5.5682 H   0  0  0  0  0  0  0  0  0  0  0  0
    2.9056  -11.2531    7.4051 H   0  0  0  0  0  0  0  0  0  0  0  0
    5.7015   -9.1314    6.3317 H   0  0  0  0  0  0  0  0  0  0  0  0
    5.4364  -12.9445    5.3388 H   0  0  0  0  0  0  0  0  0  0  0  0
    5.1410  -11.9343    3.9458 H   0  0  0  0  0  0  0  0  0  0  0  0
    3.8927  -12.1337    5.1867 H   0  0  0  0  0  0  0  0  0  0  0  0
    7.8995  -11.0494    4.0695 H   0  0  0  0  0  0  0  0  0  0  0  0
    7.6740   -9.7162    5.2028 H   0  0  0  0  0  0  0  0  0  0  0  0
    8.3534   -9.4246    3.6073 H   0  0  0  0  0  0  0  0  0  0  0  0
    4.6526   -9.3315    2.1665 H   0  0  0  0  0  0  0  0  0  0  0  0
    1.9255  -11.4967    2.5518 H   0  0  0  0  0  0  0  0  0  0  0  0
    2.5551  -10.2956    1.3826 H   0  0  0  0  0  0  0  0  0  0  0  0
    1.4129   -9.8225    2.6390 H   0  0  0  0  0  0  0  0  0  0  0  0
    1.0259   -6.3745    6.6188 H   0  0  0  0  0  0  0  0  0  0  0  0
  1  2  1  0
  1 42  1  0
  1 43  1  0
  1 44  1  0
  2  3  1  0
  3  4  2  0
  5  3  1  6
  5 29  1  0
  5 41  1  0
  5  6  1  0
  6  7  1  0
  6 45  1  0
  6 46  1  0
  7 38  1  0
  7  8  1  0
  7 47  1  6
  8  9  1  0
  8 14  1  0
  8 48  1  6
  9 13  1  0
  9 10  2  0
 10 11  1  0
 10 49  1  0
 11 12  2  0
 11 50  1  0
 12 13  1  0
 12 51  1  0
 14 15  1  0
 14 16  1  0
 14 52  1  6
 15 53  1  0
 15 54  1  0
 15 55  1  0
 16 35  1  0
 16 17  1  0
 16 56  1  6
 17 21  1  0
 17 18  1  1
 17 20  1  0
 18 19  1  0
 19 57  1  0
 19 58  1  0
 19 59  1  0
 20 21  1  0
 21 22  1  0
 21 60  1  1
 22 23  1  0
 22 61  1  0
 22 62  1  0
 23 41  1  0
 23 24  1  0
 23 63  1  1
 24 25  1  0
 24 64  1  0
 24 65  1  0
 25 30  1  0
 25 26  1  0
 25 66  1  1
 26 27  1  0
 26 41  1  0
 26 67  1  1
 27 28  1  0
 27 68  1  0
 27 69  1  0
 28 29  1  0
 28 30  1  0
 28 70  1  6
 30 31  1  1
 30 32  1  0
 31 71  1  0
 32 33  1  0
 32 35  1  0
 32 72  1  1
 33 34  1  0
 34 73  1  0
 34 74  1  0
 34 75  1  0
 35 36  1  6
 35 38  1  0
 36 37  1  0
 37 76  1  0
 37 77  1  0
 37 78  1  0
 38 39  1  0
 38 79  1  6
 39 40  1  0
 40 80  1  0
 40 81  1  0
 40 82  1  0
 41 83  1  1
M  END
>  <i_m_ct_stereo_status>  (12) 
1

>  <s_m_source_file>  (12) 
/var/tmp/pbs.5076255.sched01/tmppe38rura/0ules8z9c.sdf

>  <i_m_source_file_index>  (12) 
9

>  <i_lp_mmshare_version>  (12) 
48012

>  <i_f3d_flags>  (12) 
0

>  <s_epik_input>  (12) 
W0NIM11PQyg9TylbQ0BdMTJbQ0BASF0zW0NIXTRbQ0gyXVtDQEhdNVtDQEBdKE81KShPW0NIM10pW0NIXTZbQ0BAXShPW0NIM10pKFtDQEhdKE9bQ0gzXSlbQ0BAXTcoW09IXSlbQ0BASF0oW0NIMl00KVtDQEBIXTNbQ0gyXVtDQEhdN08yKVtDQEBIXShPW0NIM10pW0NAQEhdKFtDSDJdMSlbQ0BIXShbQ0BIXTZbQ0gzXSljOFtjSF1bY0hdW2NIXXM4

>  <s_epik_cmdline>  (12) 
J2VwaWtfcHl0aG9uJywgJy1waHQnLCAnMi4wJywgJy1waCcsICc3LjAnLCAnLXRuJywgJzgnLCAnLW1hJywgJzIwMCcsICctaW1hZScsICc8aW5maWxlLm1hZT4nLCAnLW9tYWUnLCAnPG91dGZpbGUubWFlPic=

>  <r_lp_tautomer_probability>  (12) 
1

>  <r_epik_Ionization_Penalty>  (12) 
1.64973e-07

>  <r_epik_Ionization_Penalty_Charging>  (12) 
0

>  <r_epik_Ionization_Penalty_Neutral>  (12) 
1.64973e-07

>  <r_epik_State_Penalty>  (12) 
-0

>  <r_epik_Charging_Adjusted_Penalty>  (12) 
0

>  <i_epik_Tot_Q>  (12) 
0

>  <i_epik_Tot_abs_Q>  (12) 
0

>  <s_epik_Chemistry_Notes>  (12) 
This compound has an ester and may undergo hydrolysis at high or low pH.

>  <s_lp_Force_Field>  (12) 
OPLS3e

>  <r_lp_Energy>  (12) 
179.536

>  <b_lp_Chiralities_Consistent>  (12) 
1

>  <s_lp_Variant>  (12) 
5:0-2

>  <s_i_glide_gridfile>  (12) 
pfpi4k_grid

>  <i_i_glide_lignum>  (12) 
9

>  <i_i_glide_rotatable_bonds>  (12) 
8

>  <r_i_docking_score>  (12) 
-1.86548

>  <r_i_glide_ligand_efficiency>  (12) 
-0.0454996

>  <r_i_glide_ligand_efficiency_sa>  (12) 
-0.156892

>  <r_i_glide_ligand_efficiency_ln>  (12) 
-0.395768

>  <r_i_glide_gscore>  (12) 
-1.86548

>  <r_i_glide_lipo>  (12) 
-0.151348

>  <r_i_glide_hbond>  (12) 
-0.0230764

>  <r_i_glide_metal>  (12) 
-0

>  <r_i_glide_rewards>  (12) 
0

>  <r_i_glide_evdw>  (12) 
-22.3051

>  <r_i_glide_ecoul>  (12) 
-3.76414

>  <r_i_glide_erotb>  (12) 
0.0111374

>  <r_i_glide_esite>  (12) 
-0.0223177

>  <r_i_glide_emodel>  (12) 
-26.6409

>  <r_i_glide_energy>  (12) 
-26.0693

>  <r_i_glide_einternal>  (12) 
3.87003

>  <r_i_glide_intrahb_reward>  (12) 
-0

>  <i_i_glide_confnum>  (12) 
2

>  <i_i_glide_posenum>  (12) 
12

>  <r_i_glide_eff_state_penalty>  (12) 
0

>  <ligand_id>  (12) 
5

>  <original_smiles>  (12) 
COC(=O)C12CC3C(c4cccs4)C(C)C4C5(OC)OC5CC5CC6C(CC(O1)C6(O)C(OC)C4(OC)C3OC)C52

>  <smiles>  (12) 
[H]OC12C3([H])OC4(C(=O)OC([H])([H])[H])C([H])([H])C5([H])C([H])(OC([H])([H])[H])C(OC([H])([H])[H])(C1([H])OC([H])([H])[H])C([H])(C1(OC([H])([H])[H])OC1([H])C([H])([H])C1([H])C([H])([H])C2([H])C([H])(C3([H])[H])C41[H])C([H])(C([H])([H])[H])C5([H])c1sc([H])c([H])c1[H]

$$$$
5:1:2
     RDKit          3D

 83 90  0  0  1  0  0  0  0  0999 V2000
    2.4589   -3.9845   -0.2922 C   0  0  0  0  0  0  0  0  0  0  0  0
    2.3809   -5.0493    0.6486 O   0  0  0  0  0  0  0  0  0  0  0  0
    3.5172   -5.6333    1.0882 C   0  0  0  0  0  0  0  0  0  0  0  0
    4.6507   -5.3121    0.7206 O   0  0  0  0  0  0  0  0  0  0  0  0
    3.2822   -6.7620    2.1301 C   0  0  2  0  0  0  0  0  0  0  0  0
    2.8532   -6.1549    3.4622 C   0  0  0  0  0  0  0  0  0  0  0  0
    3.8529   -5.5706    4.4906 C   0  0  1  0  0  0  0  0  0  0  0  0
    3.0720   -4.8104    5.6250 C   0  0  1  0  0  0  0  0  0  0  0  0
    2.1349   -3.6603    5.1974 C   0  0  0  0  0  0  0  0  0  0  0  0
    1.9412   -3.0953    3.9475 C   0  0  0  0  0  0  0  0  0  0  0  0
    0.9281   -2.1101    3.8811 C   0  0  0  0  0  0  0  0  0  0  0  0
    0.4101   -1.7924    5.1219 C   0  0  0  0  0  0  0  0  0  0  0  0
    1.2604   -2.6757    6.3673 S   0  0  0  0  0  0  0  0  0  0  0  0
    2.5893   -5.8531    6.7281 C   0  0  1  0  0  0  0  0  0  0  0  0
    1.5142   -5.4257    7.7567 C   0  0  0  0  0  0  0  0  0  0  0  0
    2.5496   -7.3748    6.3152 C   0  0  1  0  0  0  0  0  0  0  0  0
    1.1579   -8.0362    5.9281 C   0  0  1  0  0  0  0  0  0  0  0  0
    0.9839   -9.2892    6.5671 O   0  0  0  0  0  0  0  0  0  0  0  0
    0.4297   -9.2418    7.8696 C   0  0  0  0  0  0  0  0  0  0  0  0
    0.0583   -7.1150    5.9307 O   0  0  0  0  0  0  0  0  0  0  0  0
    0.0860   -7.9823    4.8479 C   0  0  1  0  0  0  0  0  0  0  0  0
    0.1254   -7.4440    3.4143 C   0  0  0  0  0  0  0  0  0  0  0  0
    0.9946   -8.3344    2.4638 C   0  0  2  0  0  0  0  0  0  0  0  0
    1.4223   -9.7000    3.0365 C   0  0  0  0  0  0  0  0  0  0  0  0
    2.7932   -9.9835    2.4728 C   0  0  1  0  0  0  0  0  0  0  0  0
    2.8724   -9.1454    1.1979 C   0  0  2  0  0  0  0  0  0  0  0  0
    4.3638   -9.0209    0.9061 C   0  0  0  0  0  0  0  0  0  0  0  0
    4.8581   -8.6744    2.3049 C   0  0  1  0  0  0  0  0  0  0  0  0
    4.5795   -7.2977    2.4117 O   0  0  0  0  0  0  0  0  0  0  0  0
    4.0817   -9.5989    3.2901 C   0  0  2  0  0  0  0  0  0  0  0  0
    4.7681  -10.8459    3.1452 O   0  0  0  0  0  0  0  0  0  0  0  0
    4.0717   -9.3247    4.9056 C   0  0  1  0  0  0  0  0  0  0  0  0
    5.1016  -10.1475    5.4969 O   0  0  0  0  0  0  0  0  0  0  0  0
    6.4789   -9.8099    5.3362 C   0  0  0  0  0  0  0  0  0  0  0  0
    3.9566   -7.9131    5.7359 C   0  0  2  0  0  0  0  0  0  0  0  0
    4.7355   -8.1163    6.9525 O   0  0  0  0  0  0  0  0  0  0  0  0
    4.3633   -9.0845    7.9439 C   0  0  0  0  0  0  0  0  0  0  0  0
    4.7638   -6.6681    5.1765 C   0  0  1  0  0  0  0  0  0  0  0  0
    5.9451   -7.0687    4.4949 O   0  0  0  0  0  0  0  0  0  0  0  0
    6.8874   -6.0569    4.1720 C   0  0  0  0  0  0  0  0  0  0  0  0
    2.2016   -7.8143    1.5914 C   0  0  2  0  0  0  0  0  0  0  0  0
    1.4608   -3.6851   -0.6117 H   0  0  0  0  0  0  0  0  0  0  0  0
    3.0100   -4.2723   -1.1872 H   0  0  0  0  0  0  0  0  0  0  0  0
    2.9465   -3.1155    0.1515 H   0  0  0  0  0  0  0  0  0  0  0  0
    2.0923   -5.4334    3.2149 H   0  0  0  0  0  0  0  0  0  0  0  0
    2.3972   -6.9682    3.9798 H   0  0  0  0  0  0  0  0  0  0  0  0
    4.4784   -4.8327    3.9936 H   0  0  0  0  0  0  0  0  0  0  0  0
    3.8543   -4.2568    6.1388 H   0  0  0  0  0  0  0  0  0  0  0  0
    2.4851   -3.3819    3.0593 H   0  0  0  0  0  0  0  0  0  0  0  0
    0.6263   -1.6513    2.9485 H   0  0  0  0  0  0  0  0  0  0  0  0
   -0.3601   -1.0706    5.3584 H   0  0  0  0  0  0  0  0  0  0  0  0
    3.4559   -5.8485    7.4020 H   0  0  0  0  0  0  0  0  0  0  0  0
    0.5513   -5.2304    7.2916 H   0  0  0  0  0  0  0  0  0  0  0  0
    1.8286   -4.5268    8.2812 H   0  0  0  0  0  0  0  0  0  0  0  0
    1.3600   -6.1740    8.5364 H   0  0  0  0  0  0  0  0  0  0  0  0
    2.5421   -7.7283    7.3336 H   0  0  0  0  0  0  0  0  0  0  0  0
    0.5025  -10.2401    8.2991 H   0  0  0  0  0  0  0  0  0  0  0  0
   -0.6245   -8.9596    7.8544 H   0  0  0  0  0  0  0  0  0  0  0  0
    0.9596   -8.5623    8.5348 H   0  0  0  0  0  0  0  0  0  0  0  0
   -0.6571   -8.7819    4.9086 H   0  0  0  0  0  0  0  0  0  0  0  0
   -0.9005   -7.4726    3.0487 H   0  0  0  0  0  0  0  0  0  0  0  0
    0.3157   -6.3745    3.3995 H   0  0  0  0  0  0  0  0  0  0  0  0
    0.2706   -8.6157    1.6908 H   0  0  0  0  0  0  0  0  0  0  0  0
    1.4487   -9.8240    4.1098 H   0  0  0  0  0  0  0  0  0  0  0  0
    0.7131  -10.4542    2.6884 H   0  0  0  0  0  0  0  0  0  0  0  0
    2.7837  -11.0380    2.1780 H   0  0  0  0  0  0  0  0  0  0  0  0
    2.3335   -9.6402    0.3924 H   0  0  0  0  0  0  0  0  0  0  0  0
    4.7974   -9.9623    0.5776 H   0  0  0  0  0  0  0  0  0  0  0  0
    4.6069   -8.2652    0.1549 H   0  0  0  0  0  0  0  0  0  0  0  0
    5.9343   -8.7977    2.3928 H   0  0  0  0  0  0  0  0  0  0  0  0
    4.5861  -11.1987    2.2718 H   0  0  0  0  0  0  0  0  0  0  0  0
    3.2158   -9.8950    5.2610 H   0  0  0  0  0  0  0  0  0  0  0  0
    7.0765  -10.6448    5.6966 H   0  0  0  0  0  0  0  0  0  0  0  0
    6.7703   -8.9441    5.9270 H   0  0  0  0  0  0  0  0  0  0  0  0
    6.7621   -9.6375    4.3004 H   0  0  0  0  0  0  0  0  0  0  0  0
    5.2616   -9.5714    8.3187 H   0  0  0  0  0  0  0  0  0  0  0  0
    3.6879   -9.8550    7.5729 H   0  0  0  0  0  0  0  0  0  0  0  0
    3.8852   -8.5989    8.7953 H   0  0  0  0  0  0  0  0  0  0  0  0
    5.1902   -6.1543    6.0400 H   0  0  0  0  0  0  0  0  0  0  0  0
    7.8129   -6.5192    3.8214 H   0  0  0  0  0  0  0  0  0  0  0  0
    7.1335   -5.4392    5.0374 H   0  0  0  0  0  0  0  0  0  0  0  0
    6.5258   -5.4202    3.3636 H   0  0  0  0  0  0  0  0  0  0  0  0
    1.7260   -7.4001    0.7087 H   0  0  0  0  0  0  0  0  0  0  0  0
  1  2  1  0
  1 42  1  0
  1 43  1  0
  1 44  1  0
  2  3  1  0
  3  4  2  0
  5  3  1  6
  5 29  1  0
  5 41  1  0
  5  6  1  0
  6  7  1  0
  6 45  1  0
  6 46  1  0
  7 38  1  0
  7  8  1  0
  7 47  1  6
  8  9  1  0
  8 14  1  0
  8 48  1  1
  9 13  1  0
  9 10  2  0
 10 11  1  0
 10 49  1  0
 11 12  2  0
 11 50  1  0
 12 13  1  0
 12 51  1  0
 14 15  1  0
 14 16  1  0
 14 52  1  1
 15 53  1  0
 15 54  1  0
 15 55  1  0
 16 35  1  0
 16 17  1  0
 16 56  1  1
 17 21  1  0
 17 18  1  1
 17 20  1  0
 18 19  1  0
 19 57  1  0
 19 58  1  0
 19 59  1  0
 20 21  1  0
 21 22  1  0
 21 60  1  6
 22 23  1  0
 22 61  1  0
 22 62  1  0
 23 41  1  0
 23 24  1  0
 23 63  1  6
 24 25  1  0
 24 64  1  0
 24 65  1  0
 25 30  1  0
 25 26  1  0
 25 66  1  6
 26 27  1  0
 26 41  1  0
 26 67  1  6
 27 28  1  0
 27 68  1  0
 27 69  1  0
 28 29  1  0
 28 30  1  0
 28 70  1  6
 30 31  1  1
 30 32  1  0
 31 71  1  0
 32 33  1  0
 32 35  1  0
 32 72  1  1
 33 34  1  0
 34 73  1  0
 34 74  1  0
 34 75  1  0
 35 36  1  1
 35 38  1  0
 36 37  1  0
 37 76  1  0
 37 77  1  0
 37 78  1  0
 38 39  1  0
 38 79  1  1
 39 40  1  0
 40 80  1  0
 40 81  1  0
 40 82  1  0
 41 83  1  6
M  END
>  <i_m_ct_stereo_status>  (13) 
1

>  <s_m_source_file>  (13) 
/var/tmp/pbs.5076255.sched01/tmppe38rura/0ules8z9c.sdf

>  <i_m_source_file_index>  (13) 
9

>  <i_lp_mmshare_version>  (13) 
48012

>  <i_f3d_flags>  (13) 
0

>  <s_epik_input>  (13) 
W0NIM11PQyg9TylbQ0BdMTJbQ0BASF0zW0NIXTRbQ0gyXVtDQEhdNVtDQEBdKE81KShPW0NIM10pW0NIXTZbQ0BAXShPW0NIM10pKFtDQEhdKE9bQ0gzXSlbQ0BAXTcoW09IXSlbQ0BASF0oW0NIMl00KVtDQEBIXTNbQ0gyXVtDQEhdN08yKVtDQEBIXShPW0NIM10pW0NAQEhdKFtDSDJdMSlbQ0BIXShbQ0BIXTZbQ0gzXSljOFtjSF1bY0hdW2NIXXM4

>  <s_epik_cmdline>  (13) 
J2VwaWtfcHl0aG9uJywgJy1waHQnLCAnMi4wJywgJy1waCcsICc3LjAnLCAnLXRuJywgJzgnLCAnLW1hJywgJzIwMCcsICctaW1hZScsICc8aW5maWxlLm1hZT4nLCAnLW9tYWUnLCAnPG91dGZpbGUubWFlPic=

>  <r_lp_tautomer_probability>  (13) 
1

>  <r_epik_Ionization_Penalty>  (13) 
1.64973e-07

>  <r_epik_Ionization_Penalty_Charging>  (13) 
0

>  <r_epik_Ionization_Penalty_Neutral>  (13) 
1.64973e-07

>  <r_epik_State_Penalty>  (13) 
-0

>  <r_epik_Charging_Adjusted_Penalty>  (13) 
0

>  <i_epik_Tot_Q>  (13) 
0

>  <i_epik_Tot_abs_Q>  (13) 
0

>  <s_epik_Chemistry_Notes>  (13) 
This compound has an ester and may undergo hydrolysis at high or low pH.

>  <s_lp_Force_Field>  (13) 
OPLS3e

>  <r_lp_Energy>  (13) 
179.536

>  <b_lp_Chiralities_Consistent>  (13) 
1

>  <s_lp_Variant>  (13) 
5:0-2

>  <s_i_glide_gridfile>  (13) 
pfpi4k_grid

>  <i_i_glide_lignum>  (13) 
9

>  <i_i_glide_rotatable_bonds>  (13) 
8

>  <r_i_docking_score>  (13) 
-1.75759

>  <r_i_glide_ligand_efficiency>  (13) 
-0.042868

>  <r_i_glide_ligand_efficiency_sa>  (13) 
-0.147818

>  <r_i_glide_ligand_efficiency_ln>  (13) 
-0.372878

>  <r_i_glide_gscore>  (13) 
-1.75759

>  <r_i_glide_lipo>  (13) 
-0.0950401

>  <r_i_glide_hbond>  (13) 
0

>  <r_i_glide_metal>  (13) 
-0

>  <r_i_glide_rewards>  (13) 
-0.016227

>  <r_i_glide_evdw>  (13) 
-24.9153

>  <r_i_glide_ecoul>  (13) 
-2.63622

>  <r_i_glide_erotb>  (13) 
0.0111374

>  <r_i_glide_esite>  (13) 
-0.0162561

>  <r_i_glide_emodel>  (13) 
-25.431

>  <r_i_glide_energy>  (13) 
-27.5516

>  <r_i_glide_einternal>  (13) 
9.70962

>  <r_i_glide_intrahb_reward>  (13) 
-0

>  <i_i_glide_confnum>  (13) 
1

>  <i_i_glide_posenum>  (13) 
31

>  <r_i_glide_eff_state_penalty>  (13) 
0

>  <ligand_id>  (13) 
5

>  <original_smiles>  (13) 
COC(=O)C12CC3C(c4cccs4)C(C)C4C5(OC)OC5CC5CC6C(CC(O1)C6(O)C(OC)C4(OC)C3OC)C52

>  <smiles>  (13) 
[H]OC12C3([H])OC4(C(=O)OC([H])([H])[H])C([H])([H])C5([H])C([H])(OC([H])([H])[H])C(OC([H])([H])[H])(C1([H])OC([H])([H])[H])C([H])(C1(OC([H])([H])[H])OC1([H])C([H])([H])C1([H])C([H])([H])C2([H])C([H])(C3([H])[H])C41[H])C([H])(C([H])([H])[H])C5([H])c1sc([H])c([H])c1[H]

$$$$
6:0:0
     RDKit          3D

 93 98  0  0  1  0  0  0  0  0999 V2000
    5.2171   -0.2604    4.9628 C   0  0  0  0  0  0  0  0  0  0  0  0
    5.6265   -1.1813    5.9645 O   0  0  0  0  0  0  0  0  0  0  0  0
    4.6653   -1.3896    6.9957 C   0  0  2  0  0  0  0  0  0  0  0  0
    4.4614   -0.1735    7.9000 C   0  0  0  0  0  0  0  0  0  0  0  0
    3.9455   -0.7238    9.1048 O   0  0  0  0  0  0  0  0  0  0  0  0
    4.5424   -1.9935    9.3552 C   0  0  1  0  0  0  0  0  0  0  0  0
    3.4828   -3.0360    9.8411 C   0  0  0  0  0  0  0  0  0  0  0  0
    3.0707   -3.7964    8.5687 C   0  0  2  0  0  0  0  0  0  0  0  0
    1.9228   -3.0279    7.8571 C   0  0  0  0  0  0  0  0  0  0  0  0
    2.8116   -5.3176    8.5726 C   0  0  1  0  0  0  0  0  0  0  0  0
    1.4258   -5.8357    8.9266 C   0  0  0  0  0  0  0  0  0  0  0  0
    1.5720   -7.3449    9.0974 C   0  0  1  0  0  0  0  0  0  0  0  0
    0.3933   -7.8298    9.7200 O   0  0  0  0  0  0  0  0  0  0  0  0
    2.1749   -8.1734    7.8625 C   0  0  1  0  0  0  0  0  0  0  0  0
    2.8752   -9.3921    8.5739 C   0  0  0  0  0  0  0  0  0  0  0  0
    1.9683  -10.1798    9.2808 O   0  0  0  0  0  0  0  0  0  0  0  0
    1.0838   -8.7612    6.8539 C   0  0  1  0  0  0  0  0  0  0  0  0
   -0.2180   -9.0662    7.3635 O   0  0  0  0  0  0  0  0  0  0  0  0
    0.8822   -7.9849    5.5416 C   0  0  2  0  0  0  0  0  0  0  0  0
    0.3116   -8.7527    4.3201 C   0  0  1  0  0  0  0  0  0  0  0  0
   -1.1026   -8.4331    3.7595 C   0  0  0  0  0  0  0  0  0  0  0  0
   -1.4054   -9.1837    2.4598 C   0  0  0  0  0  0  0  0  0  0  0  0
   -1.3648   -6.9517    3.5035 C   0  0  0  0  0  0  0  0  0  0  0  0
    1.6353   -8.5122    3.5156 C   0  0  0  0  0  0  0  0  0  0  0  0
    2.3401   -9.8344    3.1546 C   0  0  0  0  0  0  0  0  0  0  0  0
    1.5758   -7.7851    2.1286 C   0  0  0  0  0  0  0  0  0  0  0  0
    2.1678   -7.6447    4.7383 C   0  0  1  0  0  0  0  0  0  0  0  0
    2.2802   -6.2513    4.2980 O   0  0  0  0  0  0  0  0  0  0  0  0
    1.1859   -5.3066    4.1673 C   0  0  0  0  0  0  0  0  0  0  0  0
    3.5194   -7.8952    5.5314 C   0  0  0  0  0  0  0  0  0  0  0  0
    4.0218   -9.3667    5.6017 C   0  0  0  0  0  0  0  0  0  0  0  0
    4.7262   -7.2392    4.7879 C   0  0  0  0  0  0  0  0  0  0  0  0
    3.3230   -7.3560    7.0323 C   0  0  1  0  0  0  0  0  0  0  0  0
    3.1564   -5.7790    7.1366 C   0  0  2  0  0  0  0  0  0  0  0  0
    4.3046   -4.7928    6.6801 C   0  0  1  0  0  0  0  0  0  0  0  0
    3.9529   -4.0542    5.5224 O   0  0  0  0  0  0  0  0  0  0  0  0
    4.4294   -3.8506    7.8802 C   0  0  1  0  0  0  0  0  0  0  0  0
    5.1183   -2.4750    7.9902 C   0  0  1  0  0  0  0  0  0  0  0  0
    6.6629   -2.5877    8.0528 C   0  0  0  0  0  0  0  0  0  0  0  0
    6.0049   -0.1688    4.2167 H   0  0  0  0  0  0  0  0  0  0  0  0
    5.0392    0.7329    5.3743 H   0  0  0  0  0  0  0  0  0  0  0  0
    4.3123   -0.5935    4.4533 H   0  0  0  0  0  0  0  0  0  0  0  0
    3.7201   -1.6543    6.5307 H   0  0  0  0  0  0  0  0  0  0  0  0
    5.4059    0.3344    8.1008 H   0  0  0  0  0  0  0  0  0  0  0  0
    3.7734    0.5583    7.4728 H   0  0  0  0  0  0  0  0  0  0  0  0
    5.3225   -1.8652   10.1074 H   0  0  0  0  0  0  0  0  0  0  0  0
    3.9361   -3.7154   10.5650 H   0  0  0  0  0  0  0  0  0  0  0  0
    2.6305   -2.5721   10.3402 H   0  0  0  0  0  0  0  0  0  0  0  0
    1.7991   -3.3133    6.8155 H   0  0  0  0  0  0  0  0  0  0  0  0
    2.0553   -1.9497    7.8863 H   0  0  0  0  0  0  0  0  0  0  0  0
    0.9731   -3.2092    8.3558 H   0  0  0  0  0  0  0  0  0  0  0  0
    3.5216   -5.7632    9.2742 H   0  0  0  0  0  0  0  0  0  0  0  0
    1.0979   -5.3796    9.8618 H   0  0  0  0  0  0  0  0  0  0  0  0
    0.6805   -5.5849    8.1713 H   0  0  0  0  0  0  0  0  0  0  0  0
    2.2777   -7.4468    9.9198 H   0  0  0  0  0  0  0  0  0  0  0  0
    0.5646   -8.7312    9.9626 H   0  0  0  0  0  0  0  0  0  0  0  0
    3.4139  -10.0684    7.9264 H   0  0  0  0  0  0  0  0  0  0  0  0
    3.6272   -9.0511    9.2853 H   0  0  0  0  0  0  0  0  0  0  0  0
    1.7304  -10.9507    8.6984 H   0  0  0  0  0  0  0  0  0  0  0  0
    1.4154   -9.7603    6.5693 H   0  0  0  0  0  0  0  0  0  0  0  0
   -0.6154   -9.6508    6.7525 H   0  0  0  0  0  0  0  0  0  0  0  0
    0.2984   -7.1004    5.7716 H   0  0  0  0  0  0  0  0  0  0  0  0
    0.2792   -9.8029    4.6097 H   0  0  0  0  0  0  0  0  0  0  0  0
   -1.8542   -8.7544    4.4917 H   0  0  0  0  0  0  0  0  0  0  0  0
   -0.6657   -8.9843    1.7096 H   0  0  0  0  0  0  0  0  0  0  0  0
   -2.3655   -8.9034    2.0375 H   0  0  0  0  0  0  0  0  0  0  0  0
   -1.3870  -10.2416    2.6081 H   0  0  0  0  0  0  0  0  0  0  0  0
   -0.8007   -6.6516    2.6516 H   0  0  0  0  0  0  0  0  0  0  0  0
   -1.1596   -6.3630    4.4200 H   0  0  0  0  0  0  0  0  0  0  0  0
   -2.3689   -6.7251    3.1883 H   0  0  0  0  0  0  0  0  0  0  0  0
    3.3590   -9.6583    2.8167 H   0  0  0  0  0  0  0  0  0  0  0  0
    1.8279  -10.3533    2.3464 H   0  0  0  0  0  0  0  0  0  0  0  0
    2.3541  -10.5538    3.9698 H   0  0  0  0  0  0  0  0  0  0  0  0
    2.5646   -7.3925    1.8557 H   0  0  0  0  0  0  0  0  0  0  0  0
    0.9291   -6.9459    2.0790 H   0  0  0  0  0  0  0  0  0  0  0  0
    1.2696   -8.4629    1.3169 H   0  0  0  0  0  0  0  0  0  0  0  0
    1.5221   -4.3826    3.6553 H   0  0  0  0  0  0  0  0  0  0  0  0
    0.6749   -5.0242    5.1198 H   0  0  0  0  0  0  0  0  0  0  0  0
    0.5023   -5.6188    3.4813 H   0  0  0  0  0  0  0  0  0  0  0  0
    4.8016   -9.4679    6.3493 H   0  0  0  0  0  0  0  0  0  0  0  0
    4.4909   -9.7199    4.6904 H   0  0  0  0  0  0  0  0  0  0  0  0
    3.2704  -10.1024    5.8304 H   0  0  0  0  0  0  0  0  0  0  0  0
    5.6293   -7.2710    5.3952 H   0  0  0  0  0  0  0  0  0  0  0  0
    4.5849   -6.2061    4.4879 H   0  0  0  0  0  0  0  0  0  0  0  0
    4.9610   -7.7494    3.8535 H   0  0  0  0  0  0  0  0  0  0  0  0
    4.2719   -7.5402    7.5407 H   0  0  0  0  0  0  0  0  0  0  0  0
    2.2765   -5.5316    6.5573 H   0  0  0  0  0  0  0  0  0  0  0  0
    5.2586   -5.2931    6.5183 H   0  0  0  0  0  0  0  0  0  0  0  0
    4.6635   -3.4736    5.2934 H   0  0  0  0  0  0  0  0  0  0  0  0
    5.0728   -4.4486    8.5339 H   0  0  0  0  0  0  0  0  0  0  0  0
    6.9950   -3.2151    8.8814 H   0  0  0  0  0  0  0  0  0  0  0  0
    7.1305   -1.6111    8.1866 H   0  0  0  0  0  0  0  0  0  0  0  0
    7.0621   -3.0211    7.1360 H   0  0  0  0  0  0  0  0  0  0  0  0
  1  2  1  0
  1 40  1  0
  1 41  1  0
  1 42  1  0
  2  3  1  0
  3 38  1  0
  3  4  1  0
  3 43  1  6
  4  5  1  0
  4 44  1  0
  4 45  1  0
  5  6  1  0
  6 38  1  0
  6  7  1  0
  6 46  1  1
  7  8  1  0
  7 47  1  0
  7 48  1  0
  8 37  1  0
  8  9  1  6
  8 10  1  0
  9 49  1  0
  9 50  1  0
  9 51  1  0
 10 34  1  0
 10 11  1  0
 10 52  1  1
 11 12  1  0
 11 53  1  0
 11 54  1  0
 12 13  1  0
 12 14  1  0
 12 55  1  1
 13 56  1  0
 14 33  1  0
 14 15  1  1
 14 17  1  0
 15 16  1  0
 15 57  1  0
 15 58  1  0
 16 59  1  0
 17 18  1  0
 17 19  1  0
 17 60  1  6
 18 61  1  0
 19 27  1  0
 19 20  1  0
 19 62  1  1
 20 21  1  0
 20 24  1  0
 20 63  1  1
 21 22  1  0
 21 23  1  0
 21 64  1  0
 22 65  1  0
 22 66  1  0
 22 67  1  0
 23 68  1  0
 23 69  1  0
 23 70  1  0
 24 25  1  0
 24 26  1  0
 24 27  1  0
 25 71  1  0
 25 72  1  0
 25 73  1  0
 26 74  1  0
 26 75  1  0
 26 76  1  0
 27 28  1  6
 27 30  1  0
 28 29  1  0
 29 77  1  0
 29 78  1  0
 29 79  1  0
 30 31  1  0
 30 32  1  0
 30 33  1  0
 31 80  1  0
 31 81  1  0
 31 82  1  0
 32 83  1  0
 32 84  1  0
 32 85  1  0
 33 34  1  0
 33 86  1  1
 34 35  1  0
 34 87  1  6
 35 36  1  0
 35 37  1  0
 35 88  1  6
 36 89  1  0
 37 38  1  0
 37 90  1  1
 38 39  1  1
 39 91  1  0
 39 92  1  0
 39 93  1  0
M  END
>  <i_m_ct_stereo_status>  (14) 
1

>  <s_m_source_file>  (14) 
/var/tmp/pbs.5076255.sched01/tmppe38rura/0ules8z9c.sdf

>  <i_m_source_file_index>  (14) 
10

>  <i_lp_mmshare_version>  (14) 
48012

>  <i_f3d_flags>  (14) 
0

>  <s_epik_input>  (14) 
W0NIM11PW0NAQEhdMVtDSDJdT1tDQEBIXShbQ0gyXTIpW0NAQF0xKFtDSDNdKVtDQEBIXTNbQ0BIXShbT0hdKVtDQEhdKFtDQEhdNFtDQEBdMjNbQ0gzXSlbQ0BIXTVbQ0BdKFtDQEBIXShbQ0gyXTQpW09IXSkoW0NIMl1bT0hdKVtDQEBIXShbT0hdKVtDQEhdNltDQEBdKE9bQ0gzXSkoQzUoW0NIM10pW0NIM10pQyhbQ0gzXSkoW0NIM10pW0NAQEhdNltDSF0oW0NIM10pW0NIM10=

>  <s_epik_cmdline>  (14) 
J2VwaWtfcHl0aG9uJywgJy1waHQnLCAnMi4wJywgJy1waCcsICc3LjAnLCAnLXRuJywgJzgnLCAnLW1hJywgJzIwMCcsICctaW1hZScsICc8aW5maWxlLm1hZT4nLCAnLW9tYWUnLCAnPG91dGZpbGUubWFlPic=

>  <r_lp_tautomer_probability>  (14) 
1

>  <r_epik_Ionization_Penalty>  (14) 
1.176e-06

>  <r_epik_Ionization_Penalty_Charging>  (14) 
0

>  <r_epik_Ionization_Penalty_Neutral>  (14) 
1.176e-06

>  <r_epik_State_Penalty>  (14) 
-0

>  <r_epik_Charging_Adjusted_Penalty>  (14) 
0

>  <i_epik_Tot_Q>  (14) 
0

>  <i_epik_Tot_abs_Q>  (14) 
0

>  <s_lp_Force_Field>  (14) 
OPLS3e

>  <r_lp_Energy>  (14) 
127.47

>  <b_lp_Chiralities_Consistent>  (14) 
1

>  <s_lp_Variant>  (14) 
6:0-1

>  <s_i_glide_gridfile>  (14) 
pfpi4k_grid

>  <i_i_glide_lignum>  (14) 
10

>  <i_i_glide_rotatable_bonds>  (14) 
8

>  <r_i_docking_score>  (14) 
-2.93635

>  <r_i_glide_ligand_efficiency>  (14) 
-0.0752911

>  <r_i_glide_ligand_efficiency_sa>  (14) 
-0.255328

>  <r_i_glide_ligand_efficiency_ln>  (14) 
-0.629637

>  <r_i_glide_gscore>  (14) 
-2.93635

>  <r_i_glide_lipo>  (14) 
-0.28992

>  <r_i_glide_hbond>  (14) 
0

>  <r_i_glide_metal>  (14) 
-0

>  <r_i_glide_rewards>  (14) 
-0.5

>  <r_i_glide_evdw>  (14) 
-17.5874

>  <r_i_glide_ecoul>  (14) 
-8.90277

>  <r_i_glide_erotb>  (14) 
0.0683554

>  <r_i_glide_esite>  (14) 
0

>  <r_i_glide_emodel>  (14) 
-31.4311

>  <r_i_glide_energy>  (14) 
-26.4902

>  <r_i_glide_einternal>  (14) 
4.86193

>  <r_i_glide_intrahb_reward>  (14) 
-0.5

>  <i_i_glide_confnum>  (14) 
1

>  <i_i_glide_posenum>  (14) 
40

>  <r_i_glide_eff_state_penalty>  (14) 
0

>  <ligand_id>  (14) 
6

>  <original_smiles>  (14) 
COC1COC2CC3(C)C4CC(O)C5(CO)C(O)C6C(C(C)C)C(C)(C)C6(OC)C(C)(C)C5C4C(O)C3C12C

>  <smiles>  (14) 
[H]OC([H])([H])C12C([H])(O[H])C([H])([H])C3([H])C([H])(C([H])(O[H])C4([H])C5(C([H])([H])[H])C([H])(OC([H])([H])[H])C([H])([H])OC5([H])C([H])([H])C34C([H])([H])[H])C1([H])C(C([H])([H])[H])(C([H])([H])[H])C1(OC([H])([H])[H])C([H])(C2([H])O[H])C([H])(C([H])(C([H])([H])[H])C([H])([H])[H])C1(C([H])([H])[H])C([H])([H])[H]

$$$$
6:0:1
     RDKit          3D

 93 98  0  0  1  0  0  0  0  0999 V2000
    2.2982   -0.3632    2.2957 C   0  0  0  0  0  0  0  0  0  0  0  0
    2.4686   -1.5158    1.4866 O   0  0  0  0  0  0  0  0  0  0  0  0
    3.7387   -2.1405    1.6067 C   0  0  2  0  0  0  0  0  0  0  0  0
    4.8983   -1.2780    1.1071 C   0  0  0  0  0  0  0  0  0  0  0  0
    5.9236   -2.2091    0.8012 O   0  0  0  0  0  0  0  0  0  0  0  0
    5.3363   -3.3877    0.2596 C   0  0  1  0  0  0  0  0  0  0  0  0
    6.0211   -4.6643    0.8419 C   0  0  0  0  0  0  0  0  0  0  0  0
    5.1220   -5.0951    2.0148 C   0  0  2  0  0  0  0  0  0  0  0  0
    5.5368   -4.3409    3.3025 C   0  0  0  0  0  0  0  0  0  0  0  0
    4.8102   -6.5752    2.3105 C   0  0  1  0  0  0  0  0  0  0  0  0
    5.7678   -7.3717    3.1817 C   0  0  0  0  0  0  0  0  0  0  0  0
    5.3289   -8.8214    3.0498 C   0  0  1  0  0  0  0  0  0  0  0  0
    6.3484   -9.6350    3.5938 O   0  0  0  0  0  0  0  0  0  0  0  0
    3.8215   -9.1794    3.4421 C   0  0  1  0  0  0  0  0  0  0  0  0
    3.5505  -10.4403    2.5396 C   0  0  0  0  0  0  0  0  0  0  0  0
    4.3482  -11.5591    2.8781 O   0  0  0  0  0  0  0  0  0  0  0  0
    3.5696   -9.6048    4.9601 C   0  0  1  0  0  0  0  0  0  0  0  0
    4.6415  -10.2285    5.6387 O   0  0  0  0  0  0  0  0  0  0  0  0
    2.9746   -8.5386    5.8865 C   0  0  2  0  0  0  0  0  0  0  0  0
    2.2133   -9.0060    7.1447 C   0  0  1  0  0  0  0  0  0  0  0  0
    2.7538   -8.7445    8.5620 C   0  0  0  0  0  0  0  0  0  0  0  0
    4.1826   -9.2745    8.7514 C   0  0  0  0  0  0  0  0  0  0  0  0
    1.8442   -9.3372    9.6498 C   0  0  0  0  0  0  0  0  0  0  0  0
    0.8912   -8.3817    6.6139 C   0  0  0  0  0  0  0  0  0  0  0  0
   -0.2034   -9.4305    6.3922 C   0  0  0  0  0  0  0  0  0  0  0  0
    0.1698   -7.3381    7.5006 C   0  0  0  0  0  0  0  0  0  0  0  0
    1.7125   -7.8113    5.3892 C   0  0  1  0  0  0  0  0  0  0  0  0
    1.7651   -6.3654    5.5356 O   0  0  0  0  0  0  0  0  0  0  0  0
    2.6620   -5.6676    6.4094 C   0  0  0  0  0  0  0  0  0  0  0  0
    1.3912   -8.0615    3.8488 C   0  0  0  0  0  0  0  0  0  0  0  0
    0.6694   -9.4013    3.4998 C   0  0  0  0  0  0  0  0  0  0  0  0
    0.3072   -7.0708    3.3399 C   0  0  0  0  0  0  0  0  0  0  0  0
    2.7629   -8.0114    3.0174 C   0  0  1  0  0  0  0  0  0  0  0  0
    3.4165   -6.5690    2.9768 C   0  0  2  0  0  0  0  0  0  0  0  0
    2.6853   -5.3513    2.2966 C   0  0  1  0  0  0  0  0  0  0  0  0
    2.2657   -4.3875    3.2407 O   0  0  0  0  0  0  0  0  0  0  0  0
    3.7736   -4.7583    1.3976 C   0  0  1  0  0  0  0  0  0  0  0  0
    3.8462   -3.3855    0.7056 C   0  0  1  0  0  0  0  0  0  0  0  0
    2.9090   -3.2893   -0.5239 C   0  0  0  0  0  0  0  0  0  0  0  0
    1.2914    0.0321    2.1580 H   0  0  0  0  0  0  0  0  0  0  0  0
    2.9982    0.4273    2.0245 H   0  0  0  0  0  0  0  0  0  0  0  0
    2.4259   -0.5991    3.3525 H   0  0  0  0  0  0  0  0  0  0  0  0
    3.8987   -2.3957    2.6520 H   0  0  0  0  0  0  0  0  0  0  0  0
    4.6148   -0.7344    0.2045 H   0  0  0  0  0  0  0  0  0  0  0  0
    5.2365   -0.5600    1.8540 H   0  0  0  0  0  0  0  0  0  0  0  0
    5.4423   -3.3604   -0.8259 H   0  0  0  0  0  0  0  0  0  0  0  0
    6.0379   -5.4464    0.0808 H   0  0  0  0  0  0  0  0  0  0  0  0
    7.0563   -4.4799    1.1367 H   0  0  0  0  0  0  0  0  0  0  0  0
    4.7696   -4.3406    4.0739 H   0  0  0  0  0  0  0  0  0  0  0  0
    5.8164   -3.3071    3.1066 H   0  0  0  0  0  0  0  0  0  0  0  0
    6.4197   -4.8064    3.7369 H   0  0  0  0  0  0  0  0  0  0  0  0
    4.7354   -7.0851    1.3477 H   0  0  0  0  0  0  0  0  0  0  0  0
    6.7902   -7.2498    2.8233 H   0  0  0  0  0  0  0  0  0  0  0  0
    5.7483   -7.0568    4.2261 H   0  0  0  0  0  0  0  0  0  0  0  0
    5.4499   -9.0337    1.9893 H   0  0  0  0  0  0  0  0  0  0  0  0
    6.0756  -10.5345    3.4767 H   0  0  0  0  0  0  0  0  0  0  0  0
    2.5303  -10.7933    2.5434 H   0  0  0  0  0  0  0  0  0  0  0  0
    3.7461  -10.2060    1.4951 H   0  0  0  0  0  0  0  0  0  0  0  0
    4.2314  -12.1809    2.1525 H   0  0  0  0  0  0  0  0  0  0  0  0
    2.8732  -10.4396    4.9410 H   0  0  0  0  0  0  0  0  0  0  0  0
    4.7472  -11.0971    5.2784 H   0  0  0  0  0  0  0  0  0  0  0  0
    3.7650   -7.8467    6.1639 H   0  0  0  0  0  0  0  0  0  0  0  0
    2.1119  -10.0918    7.0381 H   0  0  0  0  0  0  0  0  0  0  0  0
    2.8081   -7.6750    8.7488 H   0  0  0  0  0  0  0  0  0  0  0  0
    4.2285  -10.3530    8.6019 H   0  0  0  0  0  0  0  0  0  0  0  0
    4.5460   -9.0684    9.7550 H   0  0  0  0  0  0  0  0  0  0  0  0
    4.8820   -8.8153    8.0563 H   0  0  0  0  0  0  0  0  0  0  0  0
    1.7982  -10.4257    9.5753 H   0  0  0  0  0  0  0  0  0  0  0  0
    0.8234   -8.9667    9.5848 H   0  0  0  0  0  0  0  0  0  0  0  0
    2.2103   -9.0858   10.6437 H   0  0  0  0  0  0  0  0  0  0  0  0
   -1.0226   -9.0366    5.7899 H   0  0  0  0  0  0  0  0  0  0  0  0
   -0.6397   -9.7747    7.3302 H   0  0  0  0  0  0  0  0  0  0  0  0
    0.1712  -10.3385    5.9220 H   0  0  0  0  0  0  0  0  0  0  0  0
   -0.4576   -6.6706    6.9069 H   0  0  0  0  0  0  0  0  0  0  0  0
    0.8334   -6.7103    8.0831 H   0  0  0  0  0  0  0  0  0  0  0  0
   -0.4920   -7.7983    8.2350 H   0  0  0  0  0  0  0  0  0  0  0  0
    2.3451   -4.6295    6.4199 H   0  0  0  0  0  0  0  0  0  0  0  0
    3.6934   -5.6683    6.0640 H   0  0  0  0  0  0  0  0  0  0  0  0
    2.6595   -5.9980    7.4420 H   0  0  0  0  0  0  0  0  0  0  0  0
    0.6808   -9.5809    2.4223 H   0  0  0  0  0  0  0  0  0  0  0  0
   -0.3869   -9.4069    3.7543 H   0  0  0  0  0  0  0  0  0  0  0  0
    1.0753  -10.2798    3.9782 H   0  0  0  0  0  0  0  0  0  0  0  0
    0.1761   -7.1554    2.2578 H   0  0  0  0  0  0  0  0  0  0  0  0
    0.4989   -6.0308    3.5771 H   0  0  0  0  0  0  0  0  0  0  0  0
   -0.6604   -7.2747    3.7993 H   0  0  0  0  0  0  0  0  0  0  0  0
    2.5150   -8.2032    1.9755 H   0  0  0  0  0  0  0  0  0  0  0  0
    3.6077   -6.3012    4.0057 H   0  0  0  0  0  0  0  0  0  0  0  0
    1.8420   -5.6555    1.6840 H   0  0  0  0  0  0  0  0  0  0  0  0
    3.0126   -4.1427    3.7633 H   0  0  0  0  0  0  0  0  0  0  0  0
    3.6807   -5.4126    0.5244 H   0  0  0  0  0  0  0  0  0  0  0  0
    3.1180   -4.0687   -1.2576 H   0  0  0  0  0  0  0  0  0  0  0  0
    3.0197   -2.3309   -1.0337 H   0  0  0  0  0  0  0  0  0  0  0  0
    1.8612   -3.3802   -0.2387 H   0  0  0  0  0  0  0  0  0  0  0  0
  1  2  1  0
  1 40  1  0
  1 41  1  0
  1 42  1  0
  2  3  1  0
  3 38  1  0
  3  4  1  0
  3 43  1  1
  4  5  1  0
  4 44  1  0
  4 45  1  0
  5  6  1  0
  6 38  1  0
  6  7  1  0
  6 46  1  6
  7  8  1  0
  7 47  1  0
  7 48  1  0
  8 37  1  0
  8  9  1  1
  8 10  1  0
  9 49  1  0
  9 50  1  0
  9 51  1  0
 10 34  1  0
 10 11  1  0
 10 52  1  6
 11 12  1  0
 11 53  1  0
 11 54  1  0
 12 13  1  0
 12 14  1  0
 12 55  1  6
 13 56  1  0
 14 33  1  0
 14 15  1  6
 14 17  1  0
 15 16  1  0
 15 57  1  0
 15 58  1  0
 16 59  1  0
 17 18  1  0
 17 19  1  0
 17 60  1  6
 18 61  1  0
 19 27  1  0
 19 20  1  0
 19 62  1  1
 20 21  1  0
 20 24  1  0
 20 63  1  6
 21 22  1  0
 21 23  1  0
 21 64  1  0
 22 65  1  0
 22 66  1  0
 22 67  1  0
 23 68  1  0
 23 69  1  0
 23 70  1  0
 24 25  1  0
 24 26  1  0
 24 27  1  0
 25 71  1  0
 25 72  1  0
 25 73  1  0
 26 74  1  0
 26 75  1  0
 26 76  1  0
 27 28  1  6
 27 30  1  0
 28 29  1  0
 29 77  1  0
 29 78  1  0
 29 79  1  0
 30 31  1  0
 30 32  1  0
 30 33  1  0
 31 80  1  0
 31 81  1  0
 31 82  1  0
 32 83  1  0
 32 84  1  0
 32 85  1  0
 33 34  1  0
 33 86  1  6
 34 35  1  0
 34 87  1  1
 35 36  1  0
 35 37  1  0
 35 88  1  6
 36 89  1  0
 37 38  1  0
 37 90  1  6
 38 39  1  6
 39 91  1  0
 39 92  1  0
 39 93  1  0
M  END
>  <i_m_ct_stereo_status>  (15) 
1

>  <s_m_source_file>  (15) 
/var/tmp/pbs.5076255.sched01/tmppe38rura/0ules8z9c.sdf

>  <i_m_source_file_index>  (15) 
10

>  <i_lp_mmshare_version>  (15) 
48012

>  <i_f3d_flags>  (15) 
0

>  <s_epik_input>  (15) 
W0NIM11PW0NAQEhdMVtDSDJdT1tDQEBIXShbQ0gyXTIpW0NAQF0xKFtDSDNdKVtDQEBIXTNbQ0BIXShbT0hdKVtDQEhdKFtDQEhdNFtDQEBdMjNbQ0gzXSlbQ0BIXTVbQ0BdKFtDQEBIXShbQ0gyXTQpW09IXSkoW0NIMl1bT0hdKVtDQEBIXShbT0hdKVtDQEhdNltDQEBdKE9bQ0gzXSkoQzUoW0NIM10pW0NIM10pQyhbQ0gzXSkoW0NIM10pW0NAQEhdNltDSF0oW0NIM10pW0NIM10=

>  <s_epik_cmdline>  (15) 
J2VwaWtfcHl0aG9uJywgJy1waHQnLCAnMi4wJywgJy1waCcsICc3LjAnLCAnLXRuJywgJzgnLCAnLW1hJywgJzIwMCcsICctaW1hZScsICc8aW5maWxlLm1hZT4nLCAnLW9tYWUnLCAnPG91dGZpbGUubWFlPic=

>  <r_lp_tautomer_probability>  (15) 
1

>  <r_epik_Ionization_Penalty>  (15) 
1.176e-06

>  <r_epik_Ionization_Penalty_Charging>  (15) 
0

>  <r_epik_Ionization_Penalty_Neutral>  (15) 
1.176e-06

>  <r_epik_State_Penalty>  (15) 
-0

>  <r_epik_Charging_Adjusted_Penalty>  (15) 
0

>  <i_epik_Tot_Q>  (15) 
0

>  <i_epik_Tot_abs_Q>  (15) 
0

>  <s_lp_Force_Field>  (15) 
OPLS3e

>  <r_lp_Energy>  (15) 
127.47

>  <b_lp_Chiralities_Consistent>  (15) 
1

>  <s_lp_Variant>  (15) 
6:0-1

>  <s_i_glide_gridfile>  (15) 
pfpi4k_grid

>  <i_i_glide_lignum>  (15) 
10

>  <i_i_glide_rotatable_bonds>  (15) 
8

>  <r_i_docking_score>  (15) 
-2.65607

>  <r_i_glide_ligand_efficiency>  (15) 
-0.0681044

>  <r_i_glide_ligand_efficiency_sa>  (15) 
-0.230956

>  <r_i_glide_ligand_efficiency_ln>  (15) 
-0.569537

>  <r_i_glide_gscore>  (15) 
-2.65607

>  <r_i_glide_lipo>  (15) 
-0.261309

>  <r_i_glide_hbond>  (15) 
0

>  <r_i_glide_metal>  (15) 
-0

>  <r_i_glide_rewards>  (15) 
-1

>  <r_i_glide_evdw>  (15) 
-21.9422

>  <r_i_glide_ecoul>  (15) 
-2.44003

>  <r_i_glide_erotb>  (15) 
0.0683554

>  <r_i_glide_esite>  (15) 
0

>  <r_i_glide_emodel>  (15) 
-38.7255

>  <r_i_glide_energy>  (15) 
-24.3823

>  <r_i_glide_einternal>  (15) 
1.65474

>  <r_i_glide_intrahb_reward>  (15) 
-1

>  <i_i_glide_confnum>  (15) 
2

>  <i_i_glide_posenum>  (15) 
1

>  <r_i_glide_eff_state_penalty>  (15) 
0

>  <ligand_id>  (15) 
6

>  <original_smiles>  (15) 
COC1COC2CC3(C)C4CC(O)C5(CO)C(O)C6C(C(C)C)C(C)(C)C6(OC)C(C)(C)C5C4C(O)C3C12C

>  <smiles>  (15) 
[H]OC([H])([H])C12C([H])(O[H])C([H])([H])C3([H])C([H])(C([H])(O[H])C4([H])C5(C([H])([H])[H])C([H])(OC([H])([H])[H])C([H])([H])OC5([H])C([H])([H])C34C([H])([H])[H])C1([H])C(C([H])([H])[H])(C([H])([H])[H])C1(OC([H])([H])[H])C([H])(C2([H])O[H])C([H])(C([H])(C([H])([H])[H])C([H])([H])[H])C1(C([H])([H])[H])C([H])([H])[H]

$$$$
6:0:2
     RDKit          3D

 93 98  0  0  1  0  0  0  0  0999 V2000
    1.6699   -1.0960    2.0452 C   0  0  0  0  0  0  0  0  0  0  0  0
    2.2550   -2.1411    1.2840 O   0  0  0  0  0  0  0  0  0  0  0  0
    3.5991   -2.4521    1.6406 C   0  0  2  0  0  0  0  0  0  0  0  0
    4.5957   -1.3356    1.3448 C   0  0  0  0  0  0  0  0  0  0  0  0
    5.8461   -1.9986    1.2634 O   0  0  0  0  0  0  0  0  0  0  0  0
    5.6547   -3.2647    0.6408 C   0  0  1  0  0  0  0  0  0  0  0  0
    6.4851   -4.3675    1.3619 C   0  0  0  0  0  0  0  0  0  0  0  0
    5.5071   -5.0126    2.3630 C   0  0  2  0  0  0  0  0  0  0  0  0
    5.4625   -4.2277    3.6961 C   0  0  0  0  0  0  0  0  0  0  0  0
    5.4923   -6.5311    2.6209 C   0  0  1  0  0  0  0  0  0  0  0  0
    6.4290   -7.1128    3.6624 C   0  0  0  0  0  0  0  0  0  0  0  0
    6.3674   -8.6159    3.4687 C   0  0  1  0  0  0  0  0  0  0  0  0
    7.4261   -9.1757    4.2103 O   0  0  0  0  0  0  0  0  0  0  0  0
    4.9317   -9.3177    3.5903 C   0  0  1  0  0  0  0  0  0  0  0  0
    5.1254  -10.5805    2.6645 C   0  0  0  0  0  0  0  0  0  0  0  0
    6.1338  -11.4746    3.0945 O   0  0  0  0  0  0  0  0  0  0  0  0
    4.5110   -9.8381    5.0380 C   0  0  1  0  0  0  0  0  0  0  0  0
    5.5436  -10.1738    5.9306 O   0  0  0  0  0  0  0  0  0  0  0  0
    3.5129   -8.9436    5.8163 C   0  0  2  0  0  0  0  0  0  0  0  0
    2.6486   -9.6013    6.9140 C   0  0  1  0  0  0  0  0  0  0  0  0
    2.8483   -9.2364    8.4187 C   0  0  0  0  0  0  0  0  0  0  0  0
    4.3110   -9.3767    8.8601 C   0  0  0  0  0  0  0  0  0  0  0  0
    1.9705  -10.0859    9.3462 C   0  0  0  0  0  0  0  0  0  0  0  0
    1.3387   -9.2834    6.1325 C   0  0  0  0  0  0  0  0  0  0  0  0
    0.5681  -10.5229    5.6796 C   0  0  0  0  0  0  0  0  0  0  0  0
    0.2265   -8.4851    6.8382 C   0  0  0  0  0  0  0  0  0  0  0  0
    2.2295   -8.5113    5.0742 C   0  0  1  0  0  0  0  0  0  0  0  0
    1.9227   -7.0988    5.2181 O   0  0  0  0  0  0  0  0  0  0  0  0
    2.4784   -6.2326    6.2162 C   0  0  0  0  0  0  0  0  0  0  0  0
    2.2830   -8.7880    3.5098 C   0  0  0  0  0  0  0  0  0  0  0  0
    1.9661  -10.2363    3.0592 C   0  0  0  0  0  0  0  0  0  0  0  0
    1.1214   -8.0615    2.7935 C   0  0  0  0  0  0  0  0  0  0  0  0
    3.7387   -8.4091    2.9555 C   0  0  1  0  0  0  0  0  0  0  0  0
    4.0335   -6.8624    3.0112 C   0  0  2  0  0  0  0  0  0  0  0  0
    3.1872   -5.8299    2.1752 C   0  0  1  0  0  0  0  0  0  0  0  0
    2.3827   -5.0076    2.9866 O   0  0  0  0  0  0  0  0  0  0  0  0
    4.2650   -4.9813    1.4905 C   0  0  1  0  0  0  0  0  0  0  0  0
    4.1466   -3.6099    0.7986 C   0  0  1  0  0  0  0  0  0  0  0  0
    3.4628   -3.7002   -0.5866 C   0  0  0  0  0  0  0  0  0  0  0  0
    0.6479   -0.9269    1.7035 H   0  0  0  0  0  0  0  0  0  0  0  0
    2.2105   -0.1590    1.9210 H   0  0  0  0  0  0  0  0  0  0  0  0
    1.6370   -1.3512    3.1036 H   0  0  0  0  0  0  0  0  0  0  0  0
    3.6265   -2.6822    2.7003 H   0  0  0  0  0  0  0  0  0  0  0  0
    4.3775   -0.8618    0.3884 H   0  0  0  0  0  0  0  0  0  0  0  0
    4.6223   -0.5716    2.1235 H   0  0  0  0  0  0  0  0  0  0  0  0
    5.9540   -3.1826   -0.4060 H   0  0  0  0  0  0  0  0  0  0  0  0
    6.8043   -5.1083    0.6298 H   0  0  0  0  0  0  0  0  0  0  0  0
    7.3928   -3.9590    1.8095 H   0  0  0  0  0  0  0  0  0  0  0  0
    4.5557   -4.3974    4.2769 H   0  0  0  0  0  0  0  0  0  0  0  0
    5.5708   -3.1559    3.5367 H   0  0  0  0  0  0  0  0  0  0  0  0
    6.2819   -4.5327    4.3438 H   0  0  0  0  0  0  0  0  0  0  0  0
    5.7077   -7.0203    1.6698 H   0  0  0  0  0  0  0  0  0  0  0  0
    7.4469   -6.7490    3.5031 H   0  0  0  0  0  0  0  0  0  0  0  0
    6.1366   -6.8523    4.6799 H   0  0  0  0  0  0  0  0  0  0  0  0
    6.7128   -8.7721    2.4449 H   0  0  0  0  0  0  0  0  0  0  0  0
    7.3584  -10.1230    4.0979 H   0  0  0  0  0  0  0  0  0  0  0  0
    4.2388  -11.1861    2.5566 H   0  0  0  0  0  0  0  0  0  0  0  0
    5.3785  -10.2831    1.6442 H   0  0  0  0  0  0  0  0  0  0  0  0
    6.0120  -12.2826    2.6004 H   0  0  0  0  0  0  0  0  0  0  0  0
    4.0613  -10.8086    4.8939 H   0  0  0  0  0  0  0  0  0  0  0  0
    5.1599  -10.6531    6.6587 H   0  0  0  0  0  0  0  0  0  0  0  0
    4.0438   -8.0913    6.2130 H   0  0  0  0  0  0  0  0  0  0  0  0
    2.8113  -10.6696    6.8046 H   0  0  0  0  0  0  0  0  0  0  0  0
    2.5769   -8.2082    8.6051 H   0  0  0  0  0  0  0  0  0  0  0  0
    4.6792  -10.4004    8.7407 H   0  0  0  0  0  0  0  0  0  0  0  0
    4.4249   -9.1187    9.9135 H   0  0  0  0  0  0  0  0  0  0  0  0
    4.9729   -8.7177    8.2970 H   0  0  0  0  0  0  0  0  0  0  0  0
    2.2696  -11.1367    9.3293 H   0  0  0  0  0  0  0  0  0  0  0  0
    0.9222  -10.0522    9.0556 H   0  0  0  0  0  0  0  0  0  0  0  0
    2.0363   -9.7444   10.3802 H   0  0  0  0  0  0  0  0  0  0  0  0
   -0.1616  -10.2543    4.9115 H   0  0  0  0  0  0  0  0  0  0  0  0
   -0.0238  -10.9684    6.4779 H   0  0  0  0  0  0  0  0  0  0  0  0
    1.2141  -11.3281    5.3325 H   0  0  0  0  0  0  0  0  0  0  0  0
   -0.4093   -8.0098    6.0920 H   0  0  0  0  0  0  0  0  0  0  0  0
    0.6018   -7.7251    7.5229 H   0  0  0  0  0  0  0  0  0  0  0  0
   -0.4327   -9.1306    7.4240 H   0  0  0  0  0  0  0  0  0  0  0  0
    1.9317   -5.3057    6.1312 H   0  0  0  0  0  0  0  0  0  0  0  0
    3.5233   -5.9843    6.0346 H   0  0  0  0  0  0  0  0  0  0  0  0
    2.3521   -6.5814    7.2413 H   0  0  0  0  0  0  0  0  0  0  0  0
    2.2335  -10.3824    2.0075 H   0  0  0  0  0  0  0  0  0  0  0  0
    0.8982  -10.4814    3.0928 H   0  0  0  0  0  0  0  0  0  0  0  0
    2.4494  -11.0193    3.6342 H   0  0  0  0  0  0  0  0  0  0  0  0
    1.2084   -8.1580    1.7078 H   0  0  0  0  0  0  0  0  0  0  0  0
    1.0164   -7.0130    3.0365 H   0  0  0  0  0  0  0  0  0  0  0  0
    0.1559   -8.4960    3.0716 H   0  0  0  0  0  0  0  0  0  0  0  0
    3.7455   -8.6297    1.8866 H   0  0  0  0  0  0  0  0  0  0  0  0
    3.9586   -6.5748    4.0529 H   0  0  0  0  0  0  0  0  0  0  0  0
    2.5725   -6.3088    1.4142 H   0  0  0  0  0  0  0  0  0  0  0  0
    2.9632   -4.5917    3.6217 H   0  0  0  0  0  0  0  0  0  0  0  0
    4.4924   -5.6135    0.6318 H   0  0  0  0  0  0  0  0  0  0  0  0
    3.9925   -4.3855   -1.2468 H   0  0  0  0  0  0  0  0  0  0  0  0
    3.4467   -2.7281   -1.0819 H   0  0  0  0  0  0  0  0  0  0  0  0
    2.4306   -4.0437   -0.5072 H   0  0  0  0  0  0  0  0  0  0  0  0
  1  2  1  0
  1 40  1  0
  1 41  1  0
  1 42  1  0
  2  3  1  0
  3 38  1  0
  3  4  1  0
  3 43  1  1
  4  5  1  0
  4 44  1  0
  4 45  1  0
  5  6  1  0
  6 38  1  0
  6  7  1  0
  6 46  1  6
  7  8  1  0
  7 47  1  0
  7 48  1  0
  8 37  1  0
  8  9  1  1
  8 10  1  0
  9 49  1  0
  9 50  1  0
  9 51  1  0
 10 34  1  0
 10 11  1  0
 10 52  1  6
 11 12  1  0
 11 53  1  0
 11 54  1  0
 12 13  1  0
 12 14  1  0
 12 55  1  6
 13 56  1  0
 14 33  1  0
 14 15  1  6
 14 17  1  0
 15 16  1  0
 15 57  1  0
 15 58  1  0
 16 59  1  0
 17 18  1  0
 17 19  1  0
 17 60  1  6
 18 61  1  0
 19 27  1  0
 19 20  1  0
 19 62  1  1
 20 21  1  0
 20 24  1  0
 20 63  1  1
 21 22  1  0
 21 23  1  0
 21 64  1  0
 22 65  1  0
 22 66  1  0
 22 67  1  0
 23 68  1  0
 23 69  1  0
 23 70  1  0
 24 25  1  0
 24 26  1  0
 24 27  1  0
 25 71  1  0
 25 72  1  0
 25 73  1  0
 26 74  1  0
 26 75  1  0
 26 76  1  0
 27 28  1  6
 27 30  1  0
 28 29  1  0
 29 77  1  0
 29 78  1  0
 29 79  1  0
 30 31  1  0
 30 32  1  0
 30 33  1  0
 31 80  1  0
 31 81  1  0
 31 82  1  0
 32 83  1  0
 32 84  1  0
 32 85  1  0
 33 34  1  0
 33 86  1  6
 34 35  1  0
 34 87  1  1
 35 36  1  0
 35 37  1  0
 35 88  1  6
 36 89  1  0
 37 38  1  0
 37 90  1  6
 38 39  1  6
 39 91  1  0
 39 92  1  0
 39 93  1  0
M  END
>  <i_m_ct_stereo_status>  (16) 
1

>  <s_m_source_file>  (16) 
/var/tmp/pbs.5076255.sched01/tmppe38rura/0ules8z9c.sdf

>  <i_m_source_file_index>  (16) 
10

>  <i_lp_mmshare_version>  (16) 
48012

>  <i_f3d_flags>  (16) 
0

>  <s_epik_input>  (16) 
W0NIM11PW0NAQEhdMVtDSDJdT1tDQEBIXShbQ0gyXTIpW0NAQF0xKFtDSDNdKVtDQEBIXTNbQ0BIXShbT0hdKVtDQEhdKFtDQEhdNFtDQEBdMjNbQ0gzXSlbQ0BIXTVbQ0BdKFtDQEBIXShbQ0gyXTQpW09IXSkoW0NIMl1bT0hdKVtDQEBIXShbT0hdKVtDQEhdNltDQEBdKE9bQ0gzXSkoQzUoW0NIM10pW0NIM10pQyhbQ0gzXSkoW0NIM10pW0NAQEhdNltDSF0oW0NIM10pW0NIM10=

>  <s_epik_cmdline>  (16) 
J2VwaWtfcHl0aG9uJywgJy1waHQnLCAnMi4wJywgJy1waCcsICc3LjAnLCAnLXRuJywgJzgnLCAnLW1hJywgJzIwMCcsICctaW1hZScsICc8aW5maWxlLm1hZT4nLCAnLW9tYWUnLCAnPG91dGZpbGUubWFlPic=

>  <r_lp_tautomer_probability>  (16) 
1

>  <r_epik_Ionization_Penalty>  (16) 
1.176e-06

>  <r_epik_Ionization_Penalty_Charging>  (16) 
0

>  <r_epik_Ionization_Penalty_Neutral>  (16) 
1.176e-06

>  <r_epik_State_Penalty>  (16) 
-0

>  <r_epik_Charging_Adjusted_Penalty>  (16) 
0

>  <i_epik_Tot_Q>  (16) 
0

>  <i_epik_Tot_abs_Q>  (16) 
0

>  <s_lp_Force_Field>  (16) 
OPLS3e

>  <r_lp_Energy>  (16) 
127.47

>  <b_lp_Chiralities_Consistent>  (16) 
1

>  <s_lp_Variant>  (16) 
6:0-1

>  <s_i_glide_gridfile>  (16) 
pfpi4k_grid

>  <i_i_glide_lignum>  (16) 
10

>  <i_i_glide_rotatable_bonds>  (16) 
8

>  <r_i_docking_score>  (16) 
-1.98713

>  <r_i_glide_ligand_efficiency>  (16) 
-0.0509521

>  <r_i_glide_ligand_efficiency_sa>  (16) 
-0.172789

>  <r_i_glide_ligand_efficiency_ln>  (16) 
-0.426098

>  <r_i_glide_gscore>  (16) 
-1.98713

>  <r_i_glide_lipo>  (16) 
-0.333282

>  <r_i_glide_hbond>  (16) 
0

>  <r_i_glide_metal>  (16) 
-0

>  <r_i_glide_rewards>  (16) 
-0.5

>  <r_i_glide_evdw>  (16) 
-21.5448

>  <r_i_glide_ecoul>  (16) 
-0.966438

>  <r_i_glide_erotb>  (16) 
0.0683554

>  <r_i_glide_esite>  (16) 
0

>  <r_i_glide_emodel>  (16) 
-30.6

>  <r_i_glide_energy>  (16) 
-22.5113

>  <r_i_glide_einternal>  (16) 
1.17845

>  <r_i_glide_intrahb_reward>  (16) 
-0.5

>  <i_i_glide_confnum>  (16) 
2

>  <i_i_glide_posenum>  (16) 
12

>  <r_i_glide_eff_state_penalty>  (16) 
0

>  <ligand_id>  (16) 
6

>  <original_smiles>  (16) 
COC1COC2CC3(C)C4CC(O)C5(CO)C(O)C6C(C(C)C)C(C)(C)C6(OC)C(C)(C)C5C4C(O)C3C12C

>  <smiles>  (16) 
[H]OC([H])([H])C12C([H])(O[H])C([H])([H])C3([H])C([H])(C([H])(O[H])C4([H])C5(C([H])([H])[H])C([H])(OC([H])([H])[H])C([H])([H])OC5([H])C([H])([H])C34C([H])([H])[H])C1([H])C(C([H])([H])[H])(C([H])([H])[H])C1(OC([H])([H])[H])C([H])(C2([H])O[H])C([H])(C([H])(C([H])([H])[H])C([H])([H])[H])C1(C([H])([H])[H])C([H])([H])[H]

$$$$
7:0:0
     RDKit          3D

 58 63  0  0  1  0  0  0  0  0999 V2000
    5.4160   -1.3565    2.9142 C   0  0  0  0  0  0  0  0  0  0  0  0
    4.9267   -2.4162    2.2386 C   0  0  0  0  0  0  0  0  0  0  0  0
    3.4519   -2.7838    2.3628 C   0  0  1  0  0  0  0  0  0  0  0  0
    2.7780   -3.1553    0.9772 C   0  0  0  0  0  0  0  0  0  0  0  0
    3.7288   -3.9953    0.0716 C   0  0  1  0  0  0  0  0  0  0  0  0
    4.9397   -2.9904   -0.1520 C   0  0  2  0  0  0  0  0  0  0  0  0
    4.5250   -1.4982   -0.4703 C   0  0  0  0  0  0  0  0  0  0  0  0
    5.6184   -0.6550   -0.7258 O   0  0  0  0  0  0  0  0  0  0  0  0
    5.9361   -3.3280   -1.2875 C   0  0  0  0  0  0  0  0  0  0  0  0
    7.3382   -2.9422   -0.7196 C   0  0  0  0  0  0  0  0  0  0  0  0
    7.1446   -2.7335    0.8142 C   0  0  0  0  0  0  0  0  0  0  0  0
    5.7041   -3.2260    1.1868 C   0  0  1  0  0  0  0  0  0  0  0  0
    5.5407   -4.7754    1.3651 C   0  0  1  0  0  0  0  0  0  0  0  0
    6.5733   -5.2873    0.5161 O   0  0  0  0  0  0  0  0  0  0  0  0
    5.4859   -5.8535    2.3676 C   0  0  1  0  0  0  0  0  0  0  0  0
    4.9008   -5.8018    3.7853 C   0  0  0  0  0  0  0  0  0  0  0  0
    4.2547   -4.5109    4.3797 C   0  0  1  0  0  0  0  0  0  0  0  0
    5.3122   -3.6333    5.0763 C   0  0  0  0  0  0  0  0  0  0  0  0
    3.1550   -3.6891    3.6108 C   0  0  2  0  0  0  0  0  0  0  0  0
    1.8239   -4.4290    3.5117 C   0  0  0  0  0  0  0  0  0  0  0  0
    1.9001   -5.8116    2.8537 C   0  0  1  0  0  0  0  0  0  0  0  0
    0.4871   -6.4296    2.8152 C   0  0  0  0  0  0  0  0  0  0  0  0
    2.6883   -5.9999    1.5019 C   0  0  1  0  0  0  0  0  0  0  0  0
    1.7631   -5.9134    0.4301 O   0  0  0  0  0  0  0  0  0  0  0  0
    4.0509   -5.1982    1.0422 C   0  0  1  0  0  0  0  0  0  0  0  0
    4.7064   -6.4869    1.2723 O   0  0  0  0  0  0  0  0  0  0  0  0
    6.4440   -1.0314    2.8385 H   0  0  0  0  0  0  0  0  0  0  0  0
    4.7750   -0.8138    3.6005 H   0  0  0  0  0  0  0  0  0  0  0  0
    2.9527   -1.8408    2.6044 H   0  0  0  0  0  0  0  0  0  0  0  0
    1.8330   -3.6449    1.1254 H   0  0  0  0  0  0  0  0  0  0  0  0
    2.4042   -2.2773    0.4596 H   0  0  0  0  0  0  0  0  0  0  0  0
    3.2614   -4.2891   -0.8685 H   0  0  0  0  0  0  0  0  0  0  0  0
    3.8907   -1.4869   -1.3582 H   0  0  0  0  0  0  0  0  0  0  0  0
    3.9831   -0.9655    0.3111 H   0  0  0  0  0  0  0  0  0  0  0  0
    5.3136    0.2466   -0.7148 H   0  0  0  0  0  0  0  0  0  0  0  0
    5.8495   -4.3718   -1.5659 H   0  0  0  0  0  0  0  0  0  0  0  0
    5.7261   -2.7963   -2.2170 H   0  0  0  0  0  0  0  0  0  0  0  0
    8.0918   -3.6964   -0.9321 H   0  0  0  0  0  0  0  0  0  0  0  0
    7.7123   -2.0289   -1.1746 H   0  0  0  0  0  0  0  0  0  0  0  0
    7.9196   -3.2596    1.3662 H   0  0  0  0  0  0  0  0  0  0  0  0
    7.2626   -1.6701    1.0146 H   0  0  0  0  0  0  0  0  0  0  0  0
    6.4613   -6.2185    0.5469 H   0  0  0  0  0  0  0  0  0  0  0  0
    6.4378   -6.3898    2.4475 H   0  0  0  0  0  0  0  0  0  0  0  0
    4.3091   -6.6894    3.9766 H   0  0  0  0  0  0  0  0  0  0  0  0
    5.7381   -6.0096    4.4476 H   0  0  0  0  0  0  0  0  0  0  0  0
    3.6987   -4.8990    5.2353 H   0  0  0  0  0  0  0  0  0  0  0  0
    6.1041   -3.3910    4.3932 H   0  0  0  0  0  0  0  0  0  0  0  0
    5.7677   -4.1626    5.9162 H   0  0  0  0  0  0  0  0  0  0  0  0
    4.8902   -2.7033    5.4762 H   0  0  0  0  0  0  0  0  0  0  0  0
    2.9172   -2.9251    4.3504 H   0  0  0  0  0  0  0  0  0  0  0  0
    1.4616   -4.5800    4.5308 H   0  0  0  0  0  0  0  0  0  0  0  0
    1.0547   -3.7986    3.0604 H   0  0  0  0  0  0  0  0  0  0  0  0
    2.3729   -6.4522    3.5880 H   0  0  0  0  0  0  0  0  0  0  0  0
   -0.1732   -5.8732    2.1522 H   0  0  0  0  0  0  0  0  0  0  0  0
    0.0376   -6.4283    3.8109 H   0  0  0  0  0  0  0  0  0  0  0  0
    0.5132   -7.4666    2.4736 H   0  0  0  0  0  0  0  0  0  0  0  0
    2.7833   -7.0926    1.4934 H   0  0  0  0  0  0  0  0  0  0  0  0
    2.2392   -6.1207   -0.3610 H   0  0  0  0  0  0  0  0  0  0  0  0
  1  2  2  0
  1 27  1  0
  1 28  1  0
  2 12  1  0
  2  3  1  0
  3 19  1  0
  3  4  1  0
  3 29  1  1
  4  5  1  0
  4 30  1  0
  4 31  1  0
  5 25  1  0
  5  6  1  0
  5 32  1  6
  6 12  1  0
  6  7  1  6
  6  9  1  0
  7  8  1  0
  7 33  1  0
  7 34  1  0
  8 35  1  0
  9 10  1  0
  9 36  1  0
  9 37  1  0
 10 11  1  0
 10 38  1  0
 10 39  1  0
 12 11  1  6
 11 40  1  0
 11 41  1  0
 12 13  1  0
 13 25  1  0
 13 14  1  6
 13 15  1  0
 14 42  1  0
 15 26  1  0
 15 16  1  0
 15 43  1  1
 16 17  1  0
 16 44  1  0
 16 45  1  0
 17 18  1  0
 17 19  1  0
 17 46  1  1
 18 47  1  0
 18 48  1  0
 18 49  1  0
 19 20  1  0
 19 50  1  1
 20 21  1  0
 20 51  1  0
 20 52  1  0
 21 22  1  0
 21 23  1  0
 21 53  1  1
 22 54  1  0
 22 55  1  0
 22 56  1  0
 23 24  1  0
 23 25  1  0
 23 57  1  1
 24 58  1  0
 25 26  1  6
M  END
>  <i_m_ct_stereo_status>  (17) 
1

>  <s_m_source_file>  (17) 
/var/tmp/pbs.5076255.sched01/tmppe38rura/0ules8z9c.sdf

>  <i_m_source_file_index>  (17) 
11

>  <i_lp_mmshare_version>  (17) 
48012

>  <i_f3d_flags>  (17) 
0

>  <s_epik_input>  (17) 
W09IXVtDQEBIXTFbQ0BIXShbQ0gzXSlbQ0gyXVtDSF0oW0NASF0oW0NIMl0yKUMzPVtDSDJdKVtDQEhdKFtDSDNdKVtDSDJdW0NAQEhdKE80KVtDQEBdNShbT0hdKVtDQF0xNFtDQEBIXTJbQ0BdKFtDQEBdMzU2KShbQ0gyXVtPSF0pW0NIMl1bQ0gyXVtDSDJdNg==

>  <s_epik_cmdline>  (17) 
J2VwaWtfcHl0aG9uJywgJy1waHQnLCAnMi4wJywgJy1waCcsICc3LjAnLCAnLXRuJywgJzgnLCAnLW1hJywgJzIwMCcsICctaW1hZScsICc8aW5maWxlLm1hZT4nLCAnLW9tYWUnLCAnPG91dGZpbGUubWFlPic=

>  <r_lp_tautomer_probability>  (17) 
1

>  <r_epik_Ionization_Penalty>  (17) 
5.28919e-07

>  <r_epik_Ionization_Penalty_Charging>  (17) 
0

>  <r_epik_Ionization_Penalty_Neutral>  (17) 
5.28919e-07

>  <r_epik_State_Penalty>  (17) 
-0

>  <r_epik_Charging_Adjusted_Penalty>  (17) 
0

>  <i_epik_Tot_Q>  (17) 
0

>  <i_epik_Tot_abs_Q>  (17) 
0

>  <s_lp_Force_Field>  (17) 
OPLS3e

>  <r_lp_Energy>  (17) 
241.712

>  <b_lp_Chiralities_Consistent>  (17) 
1

>  <s_lp_Variant>  (17) 
7:0-1

>  <s_i_glide_gridfile>  (17) 
pfpi4k_grid

>  <i_i_glide_lignum>  (17) 
11

>  <i_i_glide_rotatable_bonds>  (17) 
4

>  <r_i_docking_score>  (17) 
-3.57168

>  <r_i_glide_ligand_efficiency>  (17) 
-0.137372

>  <r_i_glide_ligand_efficiency_sa>  (17) 
-0.406965

>  <r_i_glide_ligand_efficiency_ln>  (17) 
-0.838798

>  <r_i_glide_gscore>  (17) 
-3.57168

>  <r_i_glide_lipo>  (17) 
-0.565505

>  <r_i_glide_hbond>  (17) 
-0.330069

>  <r_i_glide_metal>  (17) 
-0

>  <r_i_glide_rewards>  (17) 
-0.951224

>  <r_i_glide_evdw>  (17) 
-15.6404

>  <r_i_glide_ecoul>  (17) 
-7.26972

>  <r_i_glide_erotb>  (17) 
0.147591

>  <r_i_glide_esite>  (17) 
0

>  <r_i_glide_emodel>  (17) 
-25.5552

>  <r_i_glide_energy>  (17) 
-22.9101

>  <r_i_glide_einternal>  (17) 
4.82329

>  <r_i_glide_intrahb_reward>  (17) 
-0

>  <i_i_glide_confnum>  (17) 
4

>  <i_i_glide_posenum>  (17) 
24

>  <r_i_glide_eff_state_penalty>  (17) 
0

>  <ligand_id>  (17) 
7

>  <original_smiles>  (17) 
C=C1C2CC3C4(CO)CCCC14C1(O)C4CC(C)C2CC(C)C(O)C31O4

>  <smiles>  (17) 
[H]OC([H])([H])C12C([H])([H])C([H])([H])C([H])([H])C13C(=C([H])[H])C1([H])C([H])([H])C2([H])C24OC([H])(C([H])([H])C([H])(C([H])([H])[H])C1([H])C([H])([H])C([H])(C([H])([H])[H])C2([H])O[H])C43O[H]

$$$$
7:0:1
     RDKit          3D

 58 63  0  0  1  0  0  0  0  0999 V2000
    5.3293   -1.1320    2.7542 C   0  0  0  0  0  0  0  0  0  0  0  0
    4.8500   -2.2337    2.1394 C   0  0  0  0  0  0  0  0  0  0  0  0
    3.3895   -2.6415    2.3206 C   0  0  1  0  0  0  0  0  0  0  0  0
    2.7086   -3.1098    0.9766 C   0  0  0  0  0  0  0  0  0  0  0  0
    3.6432   -3.9690    0.0817 C   0  0  1  0  0  0  0  0  0  0  0  0
    4.8037   -2.9409   -0.2335 C   0  0  2  0  0  0  0  0  0  0  0  0
    4.3502   -1.4753   -0.6231 C   0  0  0  0  0  0  0  0  0  0  0  0
    3.4145   -1.4620   -1.6918 O   0  0  0  0  0  0  0  0  0  0  0  0
    5.7937   -3.2855   -1.3758 C   0  0  0  0  0  0  0  0  0  0  0  0
    7.1606   -2.7749   -0.8597 C   0  0  0  0  0  0  0  0  0  0  0  0
    7.0052   -2.5108    0.6626 C   0  0  0  0  0  0  0  0  0  0  0  0
    5.6124   -3.0636    1.1014 C   0  0  1  0  0  0  0  0  0  0  0  0
    5.5205   -4.6162    1.3576 C   0  0  1  0  0  0  0  0  0  0  0  0
    6.5495   -5.1246    0.5067 O   0  0  0  0  0  0  0  0  0  0  0  0
    5.5308   -5.6446    2.4150 C   0  0  1  0  0  0  0  0  0  0  0  0
    4.9784   -5.5347    3.8442 C   0  0  0  0  0  0  0  0  0  0  0  0
    4.3240   -4.2258    4.3779 C   0  0  1  0  0  0  0  0  0  0  0  0
    5.3772   -3.2916    5.0133 C   0  0  0  0  0  0  0  0  0  0  0  0
    3.1584   -3.4930    3.6119 C   0  0  2  0  0  0  0  0  0  0  0  0
    1.8491   -4.2852    3.5880 C   0  0  0  0  0  0  0  0  0  0  0  0
    1.9466   -5.6953    2.9934 C   0  0  1  0  0  0  0  0  0  0  0  0
    0.5525   -6.3634    3.0332 C   0  0  0  0  0  0  0  0  0  0  0  0
    2.7143   -5.9329    1.6364 C   0  0  1  0  0  0  0  0  0  0  0  0
    1.7678   -5.9558    0.5765 O   0  0  0  0  0  0  0  0  0  0  0  0
    4.0318   -5.1069    1.0969 C   0  0  1  0  0  0  0  0  0  0  0  0
    4.7414   -6.3642    1.3722 O   0  0  0  0  0  0  0  0  0  0  0  0
    6.3428   -0.7741    2.6334 H   0  0  0  0  0  0  0  0  0  0  0  0
    4.6814   -0.5748    3.4168 H   0  0  0  0  0  0  0  0  0  0  0  0
    2.8624   -1.7075    2.5261 H   0  0  0  0  0  0  0  0  0  0  0  0
    1.8142   -3.6394    1.1768 H   0  0  0  0  0  0  0  0  0  0  0  0
    2.2929   -2.2592    0.4514 H   0  0  0  0  0  0  0  0  0  0  0  0
    3.1531   -4.3246   -0.8236 H   0  0  0  0  0  0  0  0  0  0  0  0
    3.9357   -0.8856    0.1919 H   0  0  0  0  0  0  0  0  0  0  0  0
    5.2096   -0.8885   -0.9452 H   0  0  0  0  0  0  0  0  0  0  0  0
    2.5276   -1.4009   -1.3404 H   0  0  0  0  0  0  0  0  0  0  0  0
    5.7972   -4.3515   -1.5960 H   0  0  0  0  0  0  0  0  0  0  0  0
    5.5341   -2.8237   -2.3290 H   0  0  0  0  0  0  0  0  0  0  0  0
    7.9499   -3.4998   -1.0588 H   0  0  0  0  0  0  0  0  0  0  0  0
    7.4438   -1.8609   -1.3721 H   0  0  0  0  0  0  0  0  0  0  0  0
    7.8157   -2.9473    1.2445 H   0  0  0  0  0  0  0  0  0  0  0  0
    7.0584   -1.4330    0.7890 H   0  0  0  0  0  0  0  0  0  0  0  0
    6.4360   -6.0633    0.5368 H   0  0  0  0  0  0  0  0  0  0  0  0
    6.4965   -6.1496    2.4933 H   0  0  0  0  0  0  0  0  0  0  0  0
    4.4128   -6.4256    4.1001 H   0  0  0  0  0  0  0  0  0  0  0  0
    5.8389   -5.6840    4.4920 H   0  0  0  0  0  0  0  0  0  0  0  0
    3.8091   -4.5796    5.2715 H   0  0  0  0  0  0  0  0  0  0  0  0
    6.1902   -3.0735    4.3279 H   0  0  0  0  0  0  0  0  0  0  0  0
    5.8339   -3.7604    5.8886 H   0  0  0  0  0  0  0  0  0  0  0  0
    4.9462   -2.3431    5.3440 H   0  0  0  0  0  0  0  0  0  0  0  0
    2.9108   -2.7057    4.3253 H   0  0  0  0  0  0  0  0  0  0  0  0
    1.5142   -4.3958    4.6205 H   0  0  0  0  0  0  0  0  0  0  0  0
    1.0467   -3.7074    3.1265 H   0  0  0  0  0  0  0  0  0  0  0  0
    2.4583   -6.2807    3.7455 H   0  0  0  0  0  0  0  0  0  0  0  0
   -0.1511   -5.8661    2.3681 H   0  0  0  0  0  0  0  0  0  0  0  0
    0.1344   -6.3309    4.0427 H   0  0  0  0  0  0  0  0  0  0  0  0
    0.6049   -7.4148    2.7419 H   0  0  0  0  0  0  0  0  0  0  0  0
    2.8504   -7.0211    1.6941 H   0  0  0  0  0  0  0  0  0  0  0  0
    2.2365   -6.2275   -0.2021 H   0  0  0  0  0  0  0  0  0  0  0  0
  1  2  2  0
  1 27  1  0
  1 28  1  0
  2 12  1  0
  2  3  1  0
  3 19  1  0
  3  4  1  0
  3 29  1  1
  4  5  1  0
  4 30  1  0
  4 31  1  0
  5 25  1  0
  5  6  1  0
  5 32  1  6
  6 12  1  0
  6  7  1  6
  6  9  1  0
  7  8  1  0
  7 33  1  0
  7 34  1  0
  8 35  1  0
  9 10  1  0
  9 36  1  0
  9 37  1  0
 10 11  1  0
 10 38  1  0
 10 39  1  0
 12 11  1  6
 11 40  1  0
 11 41  1  0
 12 13  1  0
 13 25  1  0
 13 14  1  6
 13 15  1  0
 14 42  1  0
 15 26  1  0
 15 16  1  0
 15 43  1  1
 16 17  1  0
 16 44  1  0
 16 45  1  0
 17 18  1  0
 17 19  1  0
 17 46  1  1
 18 47  1  0
 18 48  1  0
 18 49  1  0
 19 20  1  0
 19 50  1  1
 20 21  1  0
 20 51  1  0
 20 52  1  0
 21 22  1  0
 21 23  1  0
 21 53  1  1
 22 54  1  0
 22 55  1  0
 22 56  1  0
 23 24  1  0
 23 25  1  0
 23 57  1  1
 24 58  1  0
 25 26  1  6
M  END
>  <i_m_ct_stereo_status>  (18) 
1

>  <s_m_source_file>  (18) 
/var/tmp/pbs.5076255.sched01/tmppe38rura/0ules8z9c.sdf

>  <i_m_source_file_index>  (18) 
11

>  <i_lp_mmshare_version>  (18) 
48012

>  <i_f3d_flags>  (18) 
0

>  <s_epik_input>  (18) 
W09IXVtDQEBIXTFbQ0BIXShbQ0gzXSlbQ0gyXVtDSF0oW0NASF0oW0NIMl0yKUMzPVtDSDJdKVtDQEhdKFtDSDNdKVtDSDJdW0NAQEhdKE80KVtDQEBdNShbT0hdKVtDQF0xNFtDQEBIXTJbQ0BdKFtDQEBdMzU2KShbQ0gyXVtPSF0pW0NIMl1bQ0gyXVtDSDJdNg==

>  <s_epik_cmdline>  (18) 
J2VwaWtfcHl0aG9uJywgJy1waHQnLCAnMi4wJywgJy1waCcsICc3LjAnLCAnLXRuJywgJzgnLCAnLW1hJywgJzIwMCcsICctaW1hZScsICc8aW5maWxlLm1hZT4nLCAnLW9tYWUnLCAnPG91dGZpbGUubWFlPic=

>  <r_lp_tautomer_probability>  (18) 
1

>  <r_epik_Ionization_Penalty>  (18) 
5.28919e-07

>  <r_epik_Ionization_Penalty_Charging>  (18) 
0

>  <r_epik_Ionization_Penalty_Neutral>  (18) 
5.28919e-07

>  <r_epik_State_Penalty>  (18) 
-0

>  <r_epik_Charging_Adjusted_Penalty>  (18) 
0

>  <i_epik_Tot_Q>  (18) 
0

>  <i_epik_Tot_abs_Q>  (18) 
0

>  <s_lp_Force_Field>  (18) 
OPLS3e

>  <r_lp_Energy>  (18) 
241.712

>  <b_lp_Chiralities_Consistent>  (18) 
1

>  <s_lp_Variant>  (18) 
7:0-1

>  <s_i_glide_gridfile>  (18) 
pfpi4k_grid

>  <i_i_glide_lignum>  (18) 
11

>  <i_i_glide_rotatable_bonds>  (18) 
4

>  <r_i_docking_score>  (18) 
-3.15026

>  <r_i_glide_ligand_efficiency>  (18) 
-0.121164

>  <r_i_glide_ligand_efficiency_sa>  (18) 
-0.358948

>  <r_i_glide_ligand_efficiency_ln>  (18) 
-0.739829

>  <r_i_glide_gscore>  (18) 
-3.15026

>  <r_i_glide_lipo>  (18) 
-0.546034

>  <r_i_glide_hbond>  (18) 
-0.16

>  <r_i_glide_metal>  (18) 
-0

>  <r_i_glide_rewards>  (18) 
-0.951224

>  <r_i_glide_evdw>  (18) 
-18.1184

>  <r_i_glide_ecoul>  (18) 
-4.89786

>  <r_i_glide_erotb>  (18) 
0.147591

>  <r_i_glide_esite>  (18) 
0

>  <r_i_glide_emodel>  (18) 
-26.6514

>  <r_i_glide_energy>  (18) 
-23.0162

>  <r_i_glide_einternal>  (18) 
1.40029

>  <r_i_glide_intrahb_reward>  (18) 
-0

>  <i_i_glide_confnum>  (18) 
3

>  <i_i_glide_posenum>  (18) 
34

>  <r_i_glide_eff_state_penalty>  (18) 
0

>  <ligand_id>  (18) 
7

>  <original_smiles>  (18) 
C=C1C2CC3C4(CO)CCCC14C1(O)C4CC(C)C2CC(C)C(O)C31O4

>  <smiles>  (18) 
[H]OC([H])([H])C12C([H])([H])C([H])([H])C([H])([H])C13C(=C([H])[H])C1([H])C([H])([H])C2([H])C24OC([H])(C([H])([H])C([H])(C([H])([H])[H])C1([H])C([H])([H])C([H])(C([H])([H])[H])C2([H])O[H])C43O[H]

$$$$
7:0:2
     RDKit          3D

 58 63  0  0  1  0  0  0  0  0999 V2000
    5.0620   -0.3213    1.6662 C   0  0  0  0  0  0  0  0  0  0  0  0
    4.7208   -1.5887    1.3684 C   0  0  0  0  0  0  0  0  0  0  0  0
    3.3098   -2.0929    1.6619 C   0  0  1  0  0  0  0  0  0  0  0  0
    2.7006   -2.9727    0.4965 C   0  0  0  0  0  0  0  0  0  0  0  0
    3.7568   -3.9171   -0.1461 C   0  0  1  0  0  0  0  0  0  0  0  0
    4.8050   -2.8766   -0.7259 C   0  0  2  0  0  0  0  0  0  0  0  0
    4.2298   -1.6109   -1.4826 C   0  0  0  0  0  0  0  0  0  0  0  0
    3.3999   -1.9778   -2.5712 O   0  0  0  0  0  0  0  0  0  0  0  0
    5.8401   -3.3941   -1.7459 C   0  0  0  0  0  0  0  0  0  0  0  0
    7.1455   -2.6346   -1.3974 C   0  0  0  0  0  0  0  0  0  0  0  0
    6.9351   -1.9979    0.0063 C   0  0  0  0  0  0  0  0  0  0  0  0
    5.5994   -2.5671    0.5820 C   0  0  1  0  0  0  0  0  0  0  0  0
    5.6767   -4.0007    1.2348 C   0  0  1  0  0  0  0  0  0  0  0  0
    6.7701   -4.5991    0.5350 O   0  0  0  0  0  0  0  0  0  0  0  0
    5.7788   -4.7075    2.5254 C   0  0  1  0  0  0  0  0  0  0  0  0
    5.1835   -4.2860    3.8778 C   0  0  0  0  0  0  0  0  0  0  0  0
    4.3781   -2.9634    4.0596 C   0  0  1  0  0  0  0  0  0  0  0  0
    5.3100   -1.7828    4.3939 C   0  0  0  0  0  0  0  0  0  0  0  0
    3.1550   -2.5887    3.1417 C   0  0  2  0  0  0  0  0  0  0  0  0
    1.9451   -3.4980    3.3426 C   0  0  0  0  0  0  0  0  0  0  0  0
    2.2161   -4.9939    3.1401 C   0  0  1  0  0  0  0  0  0  0  0  0
    0.9052   -5.7735    3.3605 C   0  0  0  0  0  0  0  0  0  0  0  0
    3.0222   -5.4930    1.8845 C   0  0  1  0  0  0  0  0  0  0  0  0
    2.1056   -5.9076    0.8797 O   0  0  0  0  0  0  0  0  0  0  0  0
    4.2543   -4.7009    1.1302 C   0  0  1  0  0  0  0  0  0  0  0  0
    5.0905   -5.7578    1.7164 O   0  0  0  0  0  0  0  0  0  0  0  0
    6.0353    0.0902    1.4493 H   0  0  0  0  0  0  0  0  0  0  0  0
    4.3504    0.3193    2.1707 H   0  0  0  0  0  0  0  0  0  0  0  0
    2.6827   -1.1988    1.6200 H   0  0  0  0  0  0  0  0  0  0  0  0
    1.8202   -3.5118    0.8090 H   0  0  0  0  0  0  0  0  0  0  0  0
    2.2312   -2.3428   -0.2472 H   0  0  0  0  0  0  0  0  0  0  0  0
    3.3336   -4.5551   -0.9195 H   0  0  0  0  0  0  0  0  0  0  0  0
    3.6729   -0.9102   -0.8589 H   0  0  0  0  0  0  0  0  0  0  0  0
    5.0416   -1.0086   -1.8900 H   0  0  0  0  0  0  0  0  0  0  0  0
    2.5235   -2.1208   -2.2424 H   0  0  0  0  0  0  0  0  0  0  0  0
    5.8878   -4.4713   -1.6517 H   0  0  0  0  0  0  0  0  0  0  0  0
    5.5741   -3.2373   -2.7883 H   0  0  0  0  0  0  0  0  0  0  0  0
    8.0085   -3.3022   -1.4125 H   0  0  0  0  0  0  0  0  0  0  0  0
    7.3433   -1.8644   -2.1449 H   0  0  0  0  0  0  0  0  0  0  0  0
    7.7849   -2.1580    0.6731 H   0  0  0  0  0  0  0  0  0  0  0  0
    6.8597   -0.9266   -0.1501 H   0  0  0  0  0  0  0  0  0  0  0  0
    6.7356   -5.5128    0.7922 H   0  0  0  0  0  0  0  0  0  0  0  0
    6.7937   -5.0604    2.7300 H   0  0  0  0  0  0  0  0  0  0  0  0
    4.7149   -5.1370    4.3622 H   0  0  0  0  0  0  0  0  0  0  0  0
    6.0382   -4.1748    4.5466 H   0  0  0  0  0  0  0  0  0  0  0  0
    3.8945   -3.1216    5.0227 H   0  0  0  0  0  0  0  0  0  0  0  0
    6.0783   -1.6554    3.6320 H   0  0  0  0  0  0  0  0  0  0  0  0
    5.8186   -1.9546    5.3442 H   0  0  0  0  0  0  0  0  0  0  0  0
    4.7701   -0.8390    4.4890 H   0  0  0  0  0  0  0  0  0  0  0  0
    2.8153   -1.6702    3.6231 H   0  0  0  0  0  0  0  0  0  0  0  0
    1.6071   -3.3683    4.3713 H   0  0  0  0  0  0  0  0  0  0  0  0
    1.0963   -3.1479    2.7548 H   0  0  0  0  0  0  0  0  0  0  0  0
    2.7699   -5.3021    4.0148 H   0  0  0  0  0  0  0  0  0  0  0  0
    0.1876   -5.5372    2.5791 H   0  0  0  0  0  0  0  0  0  0  0  0
    0.4530   -5.5226    4.3227 H   0  0  0  0  0  0  0  0  0  0  0  0
    1.0685   -6.8543    3.3481 H   0  0  0  0  0  0  0  0  0  0  0  0
    3.2748   -6.5050    2.2248 H   0  0  0  0  0  0  0  0  0  0  0  0
    2.6090   -6.3544    0.2146 H   0  0  0  0  0  0  0  0  0  0  0  0
  1  2  2  0
  1 27  1  0
  1 28  1  0
  2 12  1  0
  2  3  1  0
  3 19  1  0
  3  4  1  0
  3 29  1  1
  4  5  1  0
  4 30  1  0
  4 31  1  0
  5 25  1  0
  5  6  1  0
  5 32  1  6
  6 12  1  0
  6  7  1  6
  6  9  1  0
  7  8  1  0
  7 33  1  0
  7 34  1  0
  8 35  1  0
  9 10  1  0
  9 36  1  0
  9 37  1  0
 10 11  1  0
 10 38  1  0
 10 39  1  0
 12 11  1  6
 11 40  1  0
 11 41  1  0
 12 13  1  0
 13 25  1  0
 13 14  1  6
 13 15  1  0
 14 42  1  0
 15 26  1  0
 15 16  1  0
 15 43  1  1
 16 17  1  0
 16 44  1  0
 16 45  1  0
 17 18  1  0
 17 19  1  0
 17 46  1  1
 18 47  1  0
 18 48  1  0
 18 49  1  0
 19 20  1  0
 19 50  1  1
 20 21  1  0
 20 51  1  0
 20 52  1  0
 21 22  1  0
 21 23  1  0
 21 53  1  1
 22 54  1  0
 22 55  1  0
 22 56  1  0
 23 24  1  0
 23 25  1  0
 23 57  1  1
 24 58  1  0
 25 26  1  6
M  END
>  <i_m_ct_stereo_status>  (19) 
1

>  <s_m_source_file>  (19) 
/var/tmp/pbs.5076255.sched01/tmppe38rura/0ules8z9c.sdf

>  <i_m_source_file_index>  (19) 
11

>  <i_lp_mmshare_version>  (19) 
48012

>  <i_f3d_flags>  (19) 
0

>  <s_epik_input>  (19) 
W09IXVtDQEBIXTFbQ0BIXShbQ0gzXSlbQ0gyXVtDSF0oW0NASF0oW0NIMl0yKUMzPVtDSDJdKVtDQEhdKFtDSDNdKVtDSDJdW0NAQEhdKE80KVtDQEBdNShbT0hdKVtDQF0xNFtDQEBIXTJbQ0BdKFtDQEBdMzU2KShbQ0gyXVtPSF0pW0NIMl1bQ0gyXVtDSDJdNg==

>  <s_epik_cmdline>  (19) 
J2VwaWtfcHl0aG9uJywgJy1waHQnLCAnMi4wJywgJy1waCcsICc3LjAnLCAnLXRuJywgJzgnLCAnLW1hJywgJzIwMCcsICctaW1hZScsICc8aW5maWxlLm1hZT4nLCAnLW9tYWUnLCAnPG91dGZpbGUubWFlPic=

>  <r_lp_tautomer_probability>  (19) 
1

>  <r_epik_Ionization_Penalty>  (19) 
5.28919e-07

>  <r_epik_Ionization_Penalty_Charging>  (19) 
0

>  <r_epik_Ionization_Penalty_Neutral>  (19) 
5.28919e-07

>  <r_epik_State_Penalty>  (19) 
-0

>  <r_epik_Charging_Adjusted_Penalty>  (19) 
0

>  <i_epik_Tot_Q>  (19) 
0

>  <i_epik_Tot_abs_Q>  (19) 
0

>  <s_lp_Force_Field>  (19) 
OPLS3e

>  <r_lp_Energy>  (19) 
241.712

>  <b_lp_Chiralities_Consistent>  (19) 
1

>  <s_lp_Variant>  (19) 
7:0-1

>  <s_i_glide_gridfile>  (19) 
pfpi4k_grid

>  <i_i_glide_lignum>  (19) 
11

>  <i_i_glide_rotatable_bonds>  (19) 
4

>  <r_i_docking_score>  (19) 
-2.76607

>  <r_i_glide_ligand_efficiency>  (19) 
-0.106387

>  <r_i_glide_ligand_efficiency_sa>  (19) 
-0.315172

>  <r_i_glide_ligand_efficiency_ln>  (19) 
-0.649603

>  <r_i_glide_gscore>  (19) 
-2.76607

>  <r_i_glide_lipo>  (19) 
-0.600459

>  <r_i_glide_hbond>  (19) 
0

>  <r_i_glide_metal>  (19) 
-0

>  <r_i_glide_rewards>  (19) 
-0.951224

>  <r_i_glide_evdw>  (19) 
-17.7211

>  <r_i_glide_ecoul>  (19) 
-3.17281

>  <r_i_glide_erotb>  (19) 
0.147591

>  <r_i_glide_esite>  (19) 
0

>  <r_i_glide_emodel>  (19) 
-24.3449

>  <r_i_glide_energy>  (19) 
-20.8939

>  <r_i_glide_einternal>  (19) 
0.810392

>  <r_i_glide_intrahb_reward>  (19) 
-0

>  <i_i_glide_confnum>  (19) 
3

>  <i_i_glide_posenum>  (19) 
1

>  <r_i_glide_eff_state_penalty>  (19) 
0

>  <ligand_id>  (19) 
7

>  <original_smiles>  (19) 
C=C1C2CC3C4(CO)CCCC14C1(O)C4CC(C)C2CC(C)C(O)C31O4

>  <smiles>  (19) 
[H]OC([H])([H])C12C([H])([H])C([H])([H])C([H])([H])C13C(=C([H])[H])C1([H])C([H])([H])C2([H])C24OC([H])(C([H])([H])C([H])(C([H])([H])[H])C1([H])C([H])([H])C([H])(C([H])([H])[H])C2([H])O[H])C43O[H]

$$$$
8:0:0
     RDKit          3D

 52 55  0  0  1  0  0  0  0  0999 V2000
    3.3668   -1.4024    3.6091 C   0  0  0  0  0  0  0  0  0  0  0  0
    3.8639   -2.6689    2.8952 C   0  0  2  0  0  0  0  0  0  0  0  0
    4.9199   -3.3961    3.7594 C   0  0  0  0  0  0  0  0  0  0  0  0
    5.4095   -4.6718    3.0465 C   0  0  0  0  0  0  0  0  0  0  0  0
    4.7119   -4.8174    1.6682 C   0  0  1  0  0  0  0  0  0  0  0  0
    3.1697   -4.9290    1.8853 C   0  0  2  0  0  0  0  0  0  0  0  0
    2.7878   -6.1809    2.7090 C   0  0  0  0  0  0  0  0  0  0  0  0
    2.4900   -5.0942    0.5086 C   0  0  0  0  0  0  0  0  0  0  0  0
    2.8093   -3.9712   -0.4855 C   0  0  0  0  0  0  0  0  0  0  0  0
    4.3324   -3.7841   -0.6399 C   0  0  1  0  0  0  0  0  0  0  0  0
    4.7614   -2.8010   -1.7912 C   0  0  1  0  0  0  0  0  0  0  0  0
    4.1925   -3.2925   -3.1430 C   0  0  0  0  0  0  0  0  0  0  0  0
    4.2872   -1.3411   -1.5709 C   0  0  0  0  0  0  0  0  0  0  0  0
    4.5900   -0.5134   -2.6708 O   0  0  0  0  0  0  0  0  0  0  0  0
    6.3019   -2.8686   -1.9011 C   0  0  0  0  0  0  0  0  0  0  0  0
    7.0169   -2.5479   -0.5866 C   0  0  0  0  0  0  0  0  0  0  0  0
    6.5723   -3.5086    0.5199 C   0  0  0  0  0  0  0  0  0  0  0  0
    5.0329   -3.5762    0.7555 C   0  0  2  0  0  0  0  0  0  0  0  0
    4.5130   -2.3137    1.5306 C   0  0  0  0  0  0  0  0  0  0  0  0
    2.6861   -3.6490    2.6337 C   0  0  0  0  0  0  0  0  0  0  0  0
    2.9119   -1.6435    4.5708 H   0  0  0  0  0  0  0  0  0  0  0  0
    2.6248   -0.8804    3.0051 H   0  0  0  0  0  0  0  0  0  0  0  0
    4.1901   -0.7146    3.7954 H   0  0  0  0  0  0  0  0  0  0  0  0
    5.7640   -2.7344    3.9577 H   0  0  0  0  0  0  0  0  0  0  0  0
    4.4934   -3.6563    4.7309 H   0  0  0  0  0  0  0  0  0  0  0  0
    6.4899   -4.6587    2.9338 H   0  0  0  0  0  0  0  0  0  0  0  0
    5.2169   -5.5409    3.6715 H   0  0  0  0  0  0  0  0  0  0  0  0
    5.0752   -5.7258    1.1842 H   0  0  0  0  0  0  0  0  0  0  0  0
    1.7062   -6.3172    2.7303 H   0  0  0  0  0  0  0  0  0  0  0  0
    3.1059   -6.1081    3.7484 H   0  0  0  0  0  0  0  0  0  0  0  0
    3.2243   -7.0887    2.2903 H   0  0  0  0  0  0  0  0  0  0  0  0
    2.8283   -6.0339    0.0728 H   0  0  0  0  0  0  0  0  0  0  0  0
    1.4155   -5.1947    0.6249 H   0  0  0  0  0  0  0  0  0  0  0  0
    2.3669   -4.2511   -1.4399 H   0  0  0  0  0  0  0  0  0  0  0  0
    2.3197   -3.0466   -0.1843 H   0  0  0  0  0  0  0  0  0  0  0  0
    4.6887   -4.7572   -0.9844 H   0  0  0  0  0  0  0  0  0  0  0  0
    4.6387   -2.7602   -3.9827 H   0  0  0  0  0  0  0  0  0  0  0  0
    3.1154   -3.1398   -3.2107 H   0  0  0  0  0  0  0  0  0  0  0  0
    4.4006   -4.3491   -3.2936 H   0  0  0  0  0  0  0  0  0  0  0  0
    3.2122   -1.2995   -1.4002 H   0  0  0  0  0  0  0  0  0  0  0  0
    4.7687   -0.8830   -0.7117 H   0  0  0  0  0  0  0  0  0  0  0  0
    4.1837    0.3257   -2.5135 H   0  0  0  0  0  0  0  0  0  0  0  0
    6.5970   -3.8601   -2.2137 H   0  0  0  0  0  0  0  0  0  0  0  0
    6.6740   -2.2571   -2.7101 H   0  0  0  0  0  0  0  0  0  0  0  0
    8.0912   -2.6492   -0.7406 H   0  0  0  0  0  0  0  0  0  0  0  0
    6.8516   -1.5157   -0.2813 H   0  0  0  0  0  0  0  0  0  0  0  0
    6.9346   -4.5063    0.2724 H   0  0  0  0  0  0  0  0  0  0  0  0
    7.0906   -3.2098    1.4278 H   0  0  0  0  0  0  0  0  0  0  0  0
    3.7548   -1.7867    0.9581 H   0  0  0  0  0  0  0  0  0  0  0  0
    5.3196   -1.5929    1.6737 H   0  0  0  0  0  0  0  0  0  0  0  0
    2.2158   -3.9222    3.5813 H   0  0  0  0  0  0  0  0  0  0  0  0
    1.9025   -3.1437    2.0701 H   0  0  0  0  0  0  0  0  0  0  0  0
  2  1  1  1
  1 21  1  0
  1 22  1  0
  1 23  1  0
  2 19  1  0
  2 20  1  0
  2  3  1  0
  3  4  1  0
  3 24  1  0
  3 25  1  0
  4  5  1  0
  4 26  1  0
  4 27  1  0
  5 18  1  0
  5  6  1  0
  5 28  1  6
  6  7  1  1
  6  8  1  0
  6 20  1  0
  7 29  1  0
  7 30  1  0
  7 31  1  0
  8  9  1  0
  8 32  1  0
  8 33  1  0
  9 10  1  0
  9 34  1  0
  9 35  1  0
 10 18  1  0
 10 11  1  0
 10 36  1  6
 11 12  1  6
 11 13  1  0
 11 15  1  0
 12 37  1  0
 12 38  1  0
 12 39  1  0
 13 14  1  0
 13 40  1  0
 13 41  1  0
 14 42  1  0
 15 16  1  0
 15 43  1  0
 15 44  1  0
 16 17  1  0
 16 45  1  0
 16 46  1  0
 18 17  1  6
 17 47  1  0
 17 48  1  0
 18 19  1  0
 19 49  1  0
 19 50  1  0
 20 51  1  0
 20 52  1  0
M  END
>  <i_m_ct_stereo_status>  (20) 
1

>  <s_m_source_file>  (20) 
/var/tmp/pbs.5076255.sched01/tmppe38rura/0ules8z9c.sdf

>  <i_m_source_file_index>  (20) 
12

>  <i_lp_mmshare_version>  (20) 
48012

>  <i_f3d_flags>  (20) 
0

>  <s_epik_input>  (20) 
W0NIMl0xW0NIMl1bQ0BAXShbQ0gzXSkoW0NIMl0yKVtDSDJdW0NAQF0oW0NASF0xW0NAXTIzNCkoW0NIM10pW0NIMl1bQ0gyXVtDQEhdM1tDQEBdKFtDSDNdKShbQ0gyXVtPSF0pW0NIMl1bQ0gyXVtDSDJdNA==

>  <s_epik_cmdline>  (20) 
J2VwaWtfcHl0aG9uJywgJy1waHQnLCAnMi4wJywgJy1waCcsICc3LjAnLCAnLXRuJywgJzgnLCAnLW1hJywgJzIwMCcsICctaW1hZScsICc8aW5maWxlLm1hZT4nLCAnLW9tYWUnLCAnPG91dGZpbGUubWFlPic=

>  <r_lp_tautomer_probability>  (20) 
1

>  <r_epik_Ionization_Penalty>  (20) 
1.45038e-06

>  <r_epik_Ionization_Penalty_Charging>  (20) 
0

>  <r_epik_Ionization_Penalty_Neutral>  (20) 
1.45038e-06

>  <r_epik_State_Penalty>  (20) 
-0

>  <r_epik_Charging_Adjusted_Penalty>  (20) 
0

>  <i_epik_Tot_Q>  (20) 
0

>  <i_epik_Tot_abs_Q>  (20) 
0

>  <s_lp_Force_Field>  (20) 
OPLS3e

>  <r_lp_Energy>  (20) 
61.6608

>  <b_lp_Chiralities_Consistent>  (20) 
1

>  <s_lp_Variant>  (20) 
8:0-1

>  <s_i_glide_gridfile>  (20) 
pfpi4k_grid

>  <i_i_glide_lignum>  (20) 
12

>  <i_i_glide_rotatable_bonds>  (20) 
2

>  <r_i_docking_score>  (20) 
-2.6954

>  <r_i_glide_ligand_efficiency>  (20) 
-0.13477

>  <r_i_glide_ligand_efficiency_sa>  (20) 
-0.365823

>  <r_i_glide_ligand_efficiency_ln>  (20) 
-0.674571

>  <r_i_glide_gscore>  (20) 
-2.6954

>  <r_i_glide_lipo>  (20) 
-0.31731

>  <r_i_glide_hbond>  (20) 
0

>  <r_i_glide_metal>  (20) 
-0

>  <r_i_glide_rewards>  (20) 
-1.52416

>  <r_i_glide_evdw>  (20) 
-16.8132

>  <r_i_glide_ecoul>  (20) 
-1.6579

>  <r_i_glide_erotb>  (20) 
0.235409

>  <r_i_glide_esite>  (20) 
0

>  <r_i_glide_emodel>  (20) 
-21.2335

>  <r_i_glide_energy>  (20) 
-18.4711

>  <r_i_glide_einternal>  (20) 
0.487608

>  <r_i_glide_intrahb_reward>  (20) 
-0

>  <i_i_glide_confnum>  (20) 
5

>  <i_i_glide_posenum>  (20) 
36

>  <r_i_glide_eff_state_penalty>  (20) 
0

>  <ligand_id>  (20) 
8

>  <original_smiles>  (20) 
CC12CCC3C(C)(CCC4C(C)(CO)CCCC43C1)C2

>  <smiles>  (20) 
[H]OC([H])([H])C1(C([H])([H])[H])C([H])([H])C([H])([H])C([H])([H])C23C([H])([H])C4(C([H])([H])[H])C([H])([H])C([H])([H])C2([H])C(C([H])([H])[H])(C([H])([H])C([H])([H])C13[H])C4([H])[H]

$$$$
9:0:0
     RDKit          3D

 51 55  0  0  1  0  0  0  0  0999 V2000
    7.4822   -2.8847   -1.6467 C   0  0  0  0  0  0  0  0  0  0  0  0
    7.1847   -2.1990   -0.4378 O   0  0  0  0  0  0  0  0  0  0  0  0
    5.8074   -1.9704   -0.1243 C   0  0  2  0  0  0  0  0  0  0  0  0
    5.0015   -1.3641   -1.2656 C   0  0  0  0  0  0  0  0  0  0  0  0
    3.7314   -1.7753   -1.2042 C   0  0  0  0  0  0  0  0  0  0  0  0
    3.5391   -2.6912   -0.0035 C   0  0  2  0  0  0  0  0  0  0  0  0
    2.5992   -3.8286   -0.2534 C   0  0  0  0  0  0  0  0  0  0  0  0
    2.7691   -4.9455    0.4672 C   0  0  0  0  0  0  0  0  0  0  0  0
    3.7951   -5.0044    1.6091 C   0  0  2  0  0  0  0  0  0  0  0  0
    3.9258   -6.5201    1.9834 C   0  0  0  0  0  0  0  0  0  0  0  0
    3.1859   -4.1576    2.8135 C   0  0  2  0  0  0  0  0  0  0  0  0
    3.8029   -4.5265    4.2087 C   0  0  0  0  0  0  0  0  0  0  0  0
    2.7403   -4.4709    5.1443 O   0  0  0  0  0  0  0  0  0  0  0  0
    1.5434   -4.4774    4.5797 C   0  0  0  0  0  0  0  0  0  0  0  0
    0.4548   -4.4294    5.1482 O   0  0  0  0  0  0  0  0  0  0  0  0
    1.7061   -4.5347    3.0732 C   0  0  0  0  0  0  0  0  0  0  0  0
    3.2186   -2.6033    2.6313 C   0  0  0  0  0  0  0  0  0  0  0  0
    3.1991   -1.9030    3.6533 O   0  0  0  0  0  0  0  0  0  0  0  0
    3.2153   -1.8593    1.2724 C   0  0  1  0  0  0  0  0  0  0  0  0
    4.1721   -0.6170    1.3562 C   0  0  0  0  0  0  0  0  0  0  0  0
    5.6661   -0.9804    1.0732 C   0  0  0  0  0  0  0  0  0  0  0  0
    5.2064   -4.4371    1.0967 C   0  0  0  0  0  0  0  0  0  0  0  0
    6.1879   -4.0643    2.2228 C   0  0  0  0  0  0  0  0  0  0  0  0
    5.9713   -5.5378    0.3189 C   0  0  0  0  0  0  0  0  0  0  0  0
    4.9532   -3.2615    0.0814 C   0  0  2  0  0  0  0  0  0  0  0  0
    8.5390   -3.1449   -1.6715 H   0  0  0  0  0  0  0  0  0  0  0  0
    7.2731   -2.2554   -2.5081 H   0  0  0  0  0  0  0  0  0  0  0  0
    6.9117   -3.7934   -1.7996 H   0  0  0  0  0  0  0  0  0  0  0  0
    5.4178   -0.6850   -1.9977 H   0  0  0  0  0  0  0  0  0  0  0  0
    2.9346   -1.4926   -1.8730 H   0  0  0  0  0  0  0  0  0  0  0  0
    1.8659   -3.7296   -1.0396 H   0  0  0  0  0  0  0  0  0  0  0  0
    2.1542   -5.8153    0.2879 H   0  0  0  0  0  0  0  0  0  0  0  0
    4.7915   -6.7228    2.6188 H   0  0  0  0  0  0  0  0  0  0  0  0
    4.0348   -7.1577    1.1023 H   0  0  0  0  0  0  0  0  0  0  0  0
    3.0478   -6.9020    2.5103 H   0  0  0  0  0  0  0  0  0  0  0  0
    4.2164   -5.5342    4.2491 H   0  0  0  0  0  0  0  0  0  0  0  0
    4.6018   -3.8500    4.5184 H   0  0  0  0  0  0  0  0  0  0  0  0
    1.0145   -3.8645    2.5690 H   0  0  0  0  0  0  0  0  0  0  0  0
    1.4757   -5.5548    2.7612 H   0  0  0  0  0  0  0  0  0  0  0  0
    2.2034   -1.4632    1.1676 H   0  0  0  0  0  0  0  0  0  0  0  0
    3.8392    0.1484    0.6488 H   0  0  0  0  0  0  0  0  0  0  0  0
    4.1138   -0.1034    2.3164 H   0  0  0  0  0  0  0  0  0  0  0  0
    6.1340   -1.3625    1.9829 H   0  0  0  0  0  0  0  0  0  0  0  0
    6.2148   -0.0601    0.8516 H   0  0  0  0  0  0  0  0  0  0  0  0
    7.1538   -3.7714    1.7988 H   0  0  0  0  0  0  0  0  0  0  0  0
    6.3693   -4.9106    2.8852 H   0  0  0  0  0  0  0  0  0  0  0  0
    5.8438   -3.2445    2.8411 H   0  0  0  0  0  0  0  0  0  0  0  0
    6.8863   -5.1386   -0.1133 H   0  0  0  0  0  0  0  0  0  0  0  0
    5.3657   -5.9644   -0.4831 H   0  0  0  0  0  0  0  0  0  0  0  0
    6.3031   -6.3594    0.9536 H   0  0  0  0  0  0  0  0  0  0  0  0
    4.9977   -3.7908   -0.8688 H   0  0  0  0  0  0  0  0  0  0  0  0
  1  2  1  0
  1 26  1  0
  1 27  1  0
  1 28  1  0
  3  2  1  6
  3 21  1  0
  3 25  1  0
  3  4  1  0
  4  5  2  0
  4 29  1  0
  6  5  1  6
  5 30  1  0
  6 19  1  0
  6 25  1  0
  6  7  1  0
  7  8  2  0
  7 31  1  0
  8  9  1  0
  8 32  1  0
  9 10  1  1
  9 11  1  0
  9 22  1  0
 10 33  1  0
 10 34  1  0
 10 35  1  0
 11 16  1  1
 11 12  1  0
 11 17  1  0
 12 13  1  0
 12 36  1  0
 12 37  1  0
 13 14  1  0
 14 15  2  0
 14 16  1  0
 16 38  1  0
 16 39  1  0
 17 18  2  0
 17 19  1  0
 19 20  1  0
 19 40  1  6
 20 21  1  0
 20 41  1  0
 20 42  1  0
 21 43  1  0
 21 44  1  0
 22 23  1  0
 22 24  1  0
 22 25  1  0
 23 45  1  0
 23 46  1  0
 23 47  1  0
 24 48  1  0
 24 49  1  0
 24 50  1  0
 25 51  1  6
M  END
>  <i_m_ct_stereo_status>  (21) 
1

>  <s_m_source_file>  (21) 
/var/tmp/pbs.5076255.sched01/tmppe38rura/0ules8z9c.sdf

>  <i_m_source_file_index>  (21) 
13

>  <i_lp_mmshare_version>  (21) 
48012

>  <i_f3d_flags>  (21) 
0

>  <s_epik_input>  (21) 
W0NIM11PW0NAXShbQ0hdPVtDSF0xKShbQ0gyXVtDSDJdMilbQ0BIXTNDKFtDSDNdKShbQ0gzXSlbQ0BdKFtDSDNdKShbQ0hdPVtDSF00KVtDQF01KEMoPU8pW0NAQEhdMltDQEBdMTM0KVtDSDJdT0MoPU8pW0NIMl01

>  <s_epik_cmdline>  (21) 
J2VwaWtfcHl0aG9uJywgJy1waHQnLCAnMi4wJywgJy1waCcsICc3LjAnLCAnLXRuJywgJzgnLCAnLW1hJywgJzIwMCcsICctaW1hZScsICc8aW5maWxlLm1hZT4nLCAnLW9tYWUnLCAnPG91dGZpbGUubWFlPic=

>  <r_lp_tautomer_probability>  (21) 
1

>  <r_epik_Ionization_Penalty>  (21) 
6.79288e-12

>  <r_epik_Ionization_Penalty_Charging>  (21) 
0

>  <r_epik_Ionization_Penalty_Neutral>  (21) 
6.79288e-12

>  <r_epik_State_Penalty>  (21) 
-0

>  <r_epik_Charging_Adjusted_Penalty>  (21) 
0

>  <i_epik_Tot_Q>  (21) 
0

>  <i_epik_Tot_abs_Q>  (21) 
0

>  <s_epik_Chemistry_Notes>  (21) 
This compound has an ester and may undergo hydrolysis at high or low pH.

>  <s_lp_Force_Field>  (21) 
OPLS3e

>  <r_lp_Energy>  (21) 
66.2866

>  <b_lp_Chiralities_Consistent>  (21) 
1

>  <s_lp_Variant>  (21) 
9:0-1

>  <s_i_glide_gridfile>  (21) 
pfpi4k_grid

>  <i_i_glide_lignum>  (21) 
13

>  <i_i_glide_rotatable_bonds>  (21) 
1

>  <r_i_docking_score>  (21) 
-3.04008

>  <r_i_glide_ligand_efficiency>  (21) 
-0.121603

>  <r_i_glide_ligand_efficiency_sa>  (21) 
-0.35557

>  <r_i_glide_ligand_efficiency_ln>  (21) 
-0.720591

>  <r_i_glide_gscore>  (21) 
-3.04008

>  <r_i_glide_lipo>  (21) 
-0.451363

>  <r_i_glide_hbond>  (21) 
-0.134679

>  <r_i_glide_metal>  (21) 
-0

>  <r_i_glide_rewards>  (21) 
-1.07641

>  <r_i_glide_evdw>  (21) 
-20.622

>  <r_i_glide_ecoul>  (21) 
-2.31019

>  <r_i_glide_erotb>  (21) 
0

>  <r_i_glide_esite>  (21) 
0

>  <r_i_glide_emodel>  (21) 
-25.6457

>  <r_i_glide_energy>  (21) 
-22.9321

>  <r_i_glide_einternal>  (21) 
2.37853

>  <r_i_glide_intrahb_reward>  (21) 
-0

>  <i_i_glide_confnum>  (21) 
2

>  <i_i_glide_posenum>  (21) 
1

>  <r_i_glide_eff_state_penalty>  (21) 
0

>  <ligand_id>  (21) 
9

>  <original_smiles>  (21) 
COC12C=CC34C=CC(C)(C5(COC(=O)C5)C(=O)C3CC1)C(C)(C)C24

>  <smiles>  (21) 
[H]C1=C([H])C23C([H])=C([H])C4(C([H])([H])[H])C5(C(=O)C2([H])C([H])([H])C([H])([H])C1(OC([H])([H])[H])C3([H])C4(C([H])([H])[H])C([H])([H])[H])C([H])([H])OC(=O)C5([H])[H]

$$$$
9:0:1
     RDKit          3D

 51 55  0  0  1  0  0  0  0  0999 V2000
    4.3314   -6.6971    4.5428 C   0  0  0  0  0  0  0  0  0  0  0  0
    5.0324   -5.8023    3.7006 O   0  0  0  0  0  0  0  0  0  0  0  0
    4.2808   -4.7267    3.1542 C   0  0  2  0  0  0  0  0  0  0  0  0
    3.8365   -3.6817    4.1694 C   0  0  0  0  0  0  0  0  0  0  0  0
    3.8914   -2.4523    3.6458 C   0  0  0  0  0  0  0  0  0  0  0  0
    4.3945   -2.5269    2.2170 C   0  0  2  0  0  0  0  0  0  0  0  0
    5.2894   -1.3931    1.8261 C   0  0  0  0  0  0  0  0  0  0  0  0
    6.1958   -1.6347    0.8577 C   0  0  0  0  0  0  0  0  0  0  0  0
    6.2043   -2.9636    0.0847 C   0  0  2  0  0  0  0  0  0  0  0  0
    7.5607   -2.9588   -0.6979 C   0  0  0  0  0  0  0  0  0  0  0  0
    4.9510   -2.9021   -0.9262 C   0  0  2  0  0  0  0  0  0  0  0  0
    5.1034   -3.8714   -2.1559 C   0  0  0  0  0  0  0  0  0  0  0  0
    4.5730   -3.2050   -3.2820 O   0  0  0  0  0  0  0  0  0  0  0  0
    4.4056   -1.9056   -3.0882 C   0  0  0  0  0  0  0  0  0  0  0  0
    3.9966   -1.0911   -3.9122 O   0  0  0  0  0  0  0  0  0  0  0  0
    4.8656   -1.5496   -1.6820 C   0  0  0  0  0  0  0  0  0  0  0  0
    3.5576   -3.1046   -0.2537 C   0  0  0  0  0  0  0  0  0  0  0  0
    2.6282   -3.5101   -0.9431 O   0  0  0  0  0  0  0  0  0  0  0  0
    3.2225   -2.7749    1.2283 C   0  0  1  0  0  0  0  0  0  0  0  0
    2.2829   -3.8935    1.8097 C   0  0  0  0  0  0  0  0  0  0  0  0
    3.0217   -5.1322    2.3403 C   0  0  0  0  0  0  0  0  0  0  0  0
    6.1158   -4.2130    1.0979 C   0  0  0  0  0  0  0  0  0  0  0  0
    5.6950   -5.5622    0.4940 C   0  0  0  0  0  0  0  0  0  0  0  0
    7.5239   -4.5607    1.6403 C   0  0  0  0  0  0  0  0  0  0  0  0
    5.2260   -3.8077    2.3338 C   0  0  2  0  0  0  0  0  0  0  0  0
    5.0209   -7.4801    4.8693 H   0  0  0  0  0  0  0  0  0  0  0  0
    3.5045   -7.1977    4.0367 H   0  0  0  0  0  0  0  0  0  0  0  0
    3.9509   -6.1944    5.4320 H   0  0  0  0  0  0  0  0  0  0  0  0
    3.4944   -3.9336    5.1651 H   0  0  0  0  0  0  0  0  0  0  0  0
    3.6192   -1.5327    4.1343 H   0  0  0  0  0  0  0  0  0  0  0  0
    5.2080   -0.4519    2.3596 H   0  0  0  0  0  0  0  0  0  0  0  0
    6.9022   -0.8645    0.5813 H   0  0  0  0  0  0  0  0  0  0  0  0
    7.8122   -3.9367   -1.0955 H   0  0  0  0  0  0  0  0  0  0  0  0
    8.4099   -2.6673   -0.0703 H   0  0  0  0  0  0  0  0  0  0  0  0
    7.5673   -2.2741   -1.5462 H   0  0  0  0  0  0  0  0  0  0  0  0
    6.1382   -4.1027   -2.3982 H   0  0  0  0  0  0  0  0  0  0  0  0
    4.6091   -4.8345   -2.0206 H   0  0  0  0  0  0  0  0  0  0  0  0
    4.2092   -0.8194   -1.2036 H   0  0  0  0  0  0  0  0  0  0  0  0
    5.8370   -1.0892   -1.7874 H   0  0  0  0  0  0  0  0  0  0  0  0
    2.6339   -1.8503    1.1698 H   0  0  0  0  0  0  0  0  0  0  0  0
    1.6226   -3.4580    2.5671 H   0  0  0  0  0  0  0  0  0  0  0  0
    1.6599   -4.3398    1.0571 H   0  0  0  0  0  0  0  0  0  0  0  0
    3.2510   -5.8005    1.5146 H   0  0  0  0  0  0  0  0  0  0  0  0
    2.3061   -5.6949    2.9505 H   0  0  0  0  0  0  0  0  0  0  0  0
    5.7299   -6.3615    1.2461 H   0  0  0  0  0  0  0  0  0  0  0  0
    6.4155   -5.8306   -0.2846 H   0  0  0  0  0  0  0  0  0  0  0  0
    4.7091   -5.5592    0.0552 H   0  0  0  0  0  0  0  0  0  0  0  0
    7.4918   -5.2611    2.4931 H   0  0  0  0  0  0  0  0  0  0  0  0
    8.0189   -3.6589    1.9445 H   0  0  0  0  0  0  0  0  0  0  0  0
    8.1850   -5.0007    0.8969 H   0  0  0  0  0  0  0  0  0  0  0  0
    5.9819   -3.5377    3.0732 H   0  0  0  0  0  0  0  0  0  0  0  0
  1  2  1  0
  1 26  1  0
  1 27  1  0
  1 28  1  0
  3  2  1  1
  3 21  1  0
  3 25  1  0
  3  4  1  0
  4  5  2  0
  4 29  1  0
  6  5  1  1
  5 30  1  0
  6 19  1  0
  6 25  1  0
  6  7  1  0
  7  8  2  0
  7 31  1  0
  8  9  1  0
  8 32  1  0
  9 10  1  6
  9 11  1  0
  9 22  1  0
 10 33  1  0
 10 34  1  0
 10 35  1  0
 11 16  1  6
 11 12  1  0
 11 17  1  0
 12 13  1  0
 12 36  1  0
 12 37  1  0
 13 14  1  0
 14 15  2  0
 14 16  1  0
 16 38  1  0
 16 39  1  0
 17 18  2  0
 17 19  1  0
 19 20  1  0
 19 40  1  6
 20 21  1  0
 20 41  1  0
 20 42  1  0
 21 43  1  0
 21 44  1  0
 22 23  1  0
 22 24  1  0
 22 25  1  0
 23 45  1  0
 23 46  1  0
 23 47  1  0
 24 48  1  0
 24 49  1  0
 24 50  1  0
 25 51  1  1
M  END
>  <i_m_ct_stereo_status>  (22) 
1

>  <s_m_source_file>  (22) 
/var/tmp/pbs.5076255.sched01/tmppe38rura/0ules8z9c.sdf

>  <i_m_source_file_index>  (22) 
13

>  <i_lp_mmshare_version>  (22) 
48012

>  <i_f3d_flags>  (22) 
0

>  <s_epik_input>  (22) 
W0NIM11PW0NAXShbQ0hdPVtDSF0xKShbQ0gyXVtDSDJdMilbQ0BIXTNDKFtDSDNdKShbQ0gzXSlbQ0BdKFtDSDNdKShbQ0hdPVtDSF00KVtDQF01KEMoPU8pW0NAQEhdMltDQEBdMTM0KVtDSDJdT0MoPU8pW0NIMl01

>  <s_epik_cmdline>  (22) 
J2VwaWtfcHl0aG9uJywgJy1waHQnLCAnMi4wJywgJy1waCcsICc3LjAnLCAnLXRuJywgJzgnLCAnLW1hJywgJzIwMCcsICctaW1hZScsICc8aW5maWxlLm1hZT4nLCAnLW9tYWUnLCAnPG91dGZpbGUubWFlPic=

>  <r_lp_tautomer_probability>  (22) 
1

>  <r_epik_Ionization_Penalty>  (22) 
6.79288e-12

>  <r_epik_Ionization_Penalty_Charging>  (22) 
0

>  <r_epik_Ionization_Penalty_Neutral>  (22) 
6.79288e-12

>  <r_epik_State_Penalty>  (22) 
-0

>  <r_epik_Charging_Adjusted_Penalty>  (22) 
0

>  <i_epik_Tot_Q>  (22) 
0

>  <i_epik_Tot_abs_Q>  (22) 
0

>  <s_epik_Chemistry_Notes>  (22) 
This compound has an ester and may undergo hydrolysis at high or low pH.

>  <s_lp_Force_Field>  (22) 
OPLS3e

>  <r_lp_Energy>  (22) 
66.2866

>  <b_lp_Chiralities_Consistent>  (22) 
1

>  <s_lp_Variant>  (22) 
9:0-1

>  <s_i_glide_gridfile>  (22) 
pfpi4k_grid

>  <i_i_glide_lignum>  (22) 
13

>  <i_i_glide_rotatable_bonds>  (22) 
1

>  <r_i_docking_score>  (22) 
-2.86556

>  <r_i_glide_ligand_efficiency>  (22) 
-0.114622

>  <r_i_glide_ligand_efficiency_sa>  (22) 
-0.335158

>  <r_i_glide_ligand_efficiency_ln>  (22) 
-0.679224

>  <r_i_glide_gscore>  (22) 
-2.86556

>  <r_i_glide_lipo>  (22) 
-0.666474

>  <r_i_glide_hbond>  (22) 
0

>  <r_i_glide_metal>  (22) 
-0

>  <r_i_glide_rewards>  (22) 
-1.17385

>  <r_i_glide_evdw>  (22) 
-20.2747

>  <r_i_glide_ecoul>  (22) 
-0.0572262

>  <r_i_glide_erotb>  (22) 
0

>  <r_i_glide_esite>  (22) 
-0.0029159

>  <r_i_glide_emodel>  (22) 
-23.674

>  <r_i_glide_energy>  (22) 
-20.3319

>  <r_i_glide_einternal>  (22) 
0.00117285

>  <r_i_glide_intrahb_reward>  (22) 
-0

>  <i_i_glide_confnum>  (22) 
4

>  <i_i_glide_posenum>  (22) 
2

>  <r_i_glide_eff_state_penalty>  (22) 
0

>  <ligand_id>  (22) 
9

>  <original_smiles>  (22) 
COC12C=CC34C=CC(C)(C5(COC(=O)C5)C(=O)C3CC1)C(C)(C)C24

>  <smiles>  (22) 
[H]C1=C([H])C23C([H])=C([H])C4(C([H])([H])[H])C5(C(=O)C2([H])C([H])([H])C([H])([H])C1(OC([H])([H])[H])C3([H])C4(C([H])([H])[H])C([H])([H])[H])C([H])([H])OC(=O)C5([H])[H]

$$$$
9:0:2
     RDKit          3D

 51 55  0  0  1  0  0  0  0  0999 V2000
    7.2232   -1.7172    0.5702 C   0  0  0  0  0  0  0  0  0  0  0  0
    6.3660   -1.3239    1.6353 O   0  0  0  0  0  0  0  0  0  0  0  0
    4.9797   -1.6095    1.4850 C   0  0  2  0  0  0  0  0  0  0  0  0
    4.4122   -1.3081    0.1102 C   0  0  0  0  0  0  0  0  0  0  0  0
    3.4163   -2.1699   -0.1798 C   0  0  0  0  0  0  0  0  0  0  0  0
    3.1893   -3.1012    0.9890 C   0  0  2  0  0  0  0  0  0  0  0  0
    2.8111   -4.4998    0.5868 C   0  0  0  0  0  0  0  0  0  0  0  0
    3.1304   -5.4885    1.4289 C   0  0  0  0  0  0  0  0  0  0  0  0
    3.7212   -5.1952    2.8186 C   0  0  2  0  0  0  0  0  0  0  0  0
    4.2333   -6.5599    3.3710 C   0  0  0  0  0  0  0  0  0  0  0  0
    2.5030   -4.6353    3.7158 C   0  0  2  0  0  0  0  0  0  0  0  0
    2.7449   -4.7934    5.2601 C   0  0  0  0  0  0  0  0  0  0  0  0
    1.4959   -5.1381    5.8353 O   0  0  0  0  0  0  0  0  0  0  0  0
    0.6141   -5.5632    4.9452 C   0  0  0  0  0  0  0  0  0  0  0  0
   -0.5435   -5.9118    5.1624 O   0  0  0  0  0  0  0  0  0  0  0  0
    1.2471   -5.5277    3.5631 C   0  0  0  0  0  0  0  0  0  0  0  0
    2.0614   -3.1729    3.4082 C   0  0  0  0  0  0  0  0  0  0  0  0
    1.4596   -2.5549    4.2775 O   0  0  0  0  0  0  0  0  0  0  0  0
    2.2365   -2.4552    2.0392 C   0  0  1  0  0  0  0  0  0  0  0  0
    2.6191   -0.9544    2.2747 C   0  0  0  0  0  0  0  0  0  0  0  0
    4.1412   -0.7565    2.4900 C   0  0  0  0  0  0  0  0  0  0  0  0
    4.9211   -4.1463    2.7067 C   0  0  0  0  0  0  0  0  0  0  0  0
    5.2956   -3.4597    4.0357 C   0  0  0  0  0  0  0  0  0  0  0  0
    6.2312   -4.8808    2.2784 C   0  0  0  0  0  0  0  0  0  0  0  0
    4.6085   -3.1252    1.5529 C   0  0  2  0  0  0  0  0  0  0  0  0
    8.2610   -1.5968    0.8773 H   0  0  0  0  0  0  0  0  0  0  0  0
    7.0505   -1.0787   -0.2933 H   0  0  0  0  0  0  0  0  0  0  0  0
    7.0974   -2.7511    0.2526 H   0  0  0  0  0  0  0  0  0  0  0  0
    4.7601   -0.5052   -0.5217 H   0  0  0  0  0  0  0  0  0  0  0  0
    2.8349   -2.1731   -1.0814 H   0  0  0  0  0  0  0  0  0  0  0  0
    2.3656   -4.6596   -0.3881 H   0  0  0  0  0  0  0  0  0  0  0  0
    2.9381   -6.5229    1.1717 H   0  0  0  0  0  0  0  0  0  0  0  0
    4.8748   -6.4499    4.2499 H   0  0  0  0  0  0  0  0  0  0  0  0
    4.8319   -7.1054    2.6278 H   0  0  0  0  0  0  0  0  0  0  0  0
    3.4306   -7.2413    3.6478 H   0  0  0  0  0  0  0  0  0  0  0  0
    3.4455   -5.5803    5.5222 H   0  0  0  0  0  0  0  0  0  0  0  0
    3.1202   -3.8778    5.7353 H   0  0  0  0  0  0  0  0  0  0  0  0
    0.5518   -5.1552    2.8063 H   0  0  0  0  0  0  0  0  0  0  0  0
    1.4866   -6.5516    3.2967 H   0  0  0  0  0  0  0  0  0  0  0  0
    1.2328   -2.4056    1.6377 H   0  0  0  0  0  0  0  0  0  0  0  0
    2.2631   -0.3600    1.4273 H   0  0  0  0  0  0  0  0  0  0  0  0
    2.0863   -0.5192    3.1218 H   0  0  0  0  0  0  0  0  0  0  0  0
    4.4072   -0.9630    3.5220 H   0  0  0  0  0  0  0  0  0  0  0  0
    4.3778    0.3064    2.3527 H   0  0  0  0  0  0  0  0  0  0  0  0
    6.1422   -2.7923    3.9020 H   0  0  0  0  0  0  0  0  0  0  0  0
    5.5629   -4.1932    4.8015 H   0  0  0  0  0  0  0  0  0  0  0  0
    4.5133   -2.8371    4.4459 H   0  0  0  0  0  0  0  0  0  0  0  0
    7.0295   -4.1769    2.0504 H   0  0  0  0  0  0  0  0  0  0  0  0
    6.0822   -5.5010    1.3983 H   0  0  0  0  0  0  0  0  0  0  0  0
    6.6255   -5.5209    3.0700 H   0  0  0  0  0  0  0  0  0  0  0  0
    5.1387   -3.5798    0.7152 H   0  0  0  0  0  0  0  0  0  0  0  0
  1  2  1  0
  1 26  1  0
  1 27  1  0
  1 28  1  0
  3  2  1  6
  3 21  1  0
  3 25  1  0
  3  4  1  0
  4  5  2  0
  4 29  1  0
  6  5  1  6
  5 30  1  0
  6 19  1  0
  6 25  1  0
  6  7  1  0
  7  8  2  0
  7 31  1  0
  8  9  1  0
  8 32  1  0
  9 10  1  1
  9 11  1  0
  9 22  1  0
 10 33  1  0
 10 34  1  0
 10 35  1  0
 11 16  1  6
 11 12  1  0
 11 17  1  0
 12 13  1  0
 12 36  1  0
 12 37  1  0
 13 14  1  0
 14 15  2  0
 14 16  1  0
 16 38  1  0
 16 39  1  0
 17 18  2  0
 17 19  1  0
 19 20  1  0
 19 40  1  6
 20 21  1  0
 20 41  1  0
 20 42  1  0
 21 43  1  0
 21 44  1  0
 22 23  1  0
 22 24  1  0
 22 25  1  0
 23 45  1  0
 23 46  1  0
 23 47  1  0
 24 48  1  0
 24 49  1  0
 24 50  1  0
 25 51  1  6
M  END
>  <i_m_ct_stereo_status>  (23) 
1

>  <s_m_source_file>  (23) 
/var/tmp/pbs.5076255.sched01/tmppe38rura/0ules8z9c.sdf

>  <i_m_source_file_index>  (23) 
13

>  <i_lp_mmshare_version>  (23) 
48012

>  <i_f3d_flags>  (23) 
0

>  <s_epik_input>  (23) 
W0NIM11PW0NAXShbQ0hdPVtDSF0xKShbQ0gyXVtDSDJdMilbQ0BIXTNDKFtDSDNdKShbQ0gzXSlbQ0BdKFtDSDNdKShbQ0hdPVtDSF00KVtDQF01KEMoPU8pW0NAQEhdMltDQEBdMTM0KVtDSDJdT0MoPU8pW0NIMl01

>  <s_epik_cmdline>  (23) 
J2VwaWtfcHl0aG9uJywgJy1waHQnLCAnMi4wJywgJy1waCcsICc3LjAnLCAnLXRuJywgJzgnLCAnLW1hJywgJzIwMCcsICctaW1hZScsICc8aW5maWxlLm1hZT4nLCAnLW9tYWUnLCAnPG91dGZpbGUubWFlPic=

>  <r_lp_tautomer_probability>  (23) 
1

>  <r_epik_Ionization_Penalty>  (23) 
6.79288e-12

>  <r_epik_Ionization_Penalty_Charging>  (23) 
0

>  <r_epik_Ionization_Penalty_Neutral>  (23) 
6.79288e-12

>  <r_epik_State_Penalty>  (23) 
-0

>  <r_epik_Charging_Adjusted_Penalty>  (23) 
0

>  <i_epik_Tot_Q>  (23) 
0

>  <i_epik_Tot_abs_Q>  (23) 
0

>  <s_epik_Chemistry_Notes>  (23) 
This compound has an ester and may undergo hydrolysis at high or low pH.

>  <s_lp_Force_Field>  (23) 
OPLS3e

>  <r_lp_Energy>  (23) 
66.2866

>  <b_lp_Chiralities_Consistent>  (23) 
1

>  <s_lp_Variant>  (23) 
9:0-1

>  <s_i_glide_gridfile>  (23) 
pfpi4k_grid

>  <i_i_glide_lignum>  (23) 
13

>  <i_i_glide_rotatable_bonds>  (23) 
1

>  <r_i_docking_score>  (23) 
-2.25549

>  <r_i_glide_ligand_efficiency>  (23) 
-0.0902195

>  <r_i_glide_ligand_efficiency_sa>  (23) 
-0.263803

>  <r_i_glide_ligand_efficiency_ln>  (23) 
-0.534618

>  <r_i_glide_gscore>  (23) 
-2.25549

>  <r_i_glide_lipo>  (23) 
-0.220371

>  <r_i_glide_hbond>  (23) 
0

>  <r_i_glide_metal>  (23) 
-0

>  <r_i_glide_rewards>  (23) 
-1.0829

>  <r_i_glide_evdw>  (23) 
-15.5217

>  <r_i_glide_ecoul>  (23) 
-1.11547

>  <r_i_glide_erotb>  (23) 
0

>  <r_i_glide_esite>  (23) 
-0.00880967

>  <r_i_glide_emodel>  (23) 
-18.4015

>  <r_i_glide_energy>  (23) 
-16.6372

>  <r_i_glide_einternal>  (23) 
2.2497

>  <r_i_glide_intrahb_reward>  (23) 
-0

>  <i_i_glide_confnum>  (23) 
4

>  <i_i_glide_posenum>  (23) 
16

>  <r_i_glide_eff_state_penalty>  (23) 
0

>  <ligand_id>  (23) 
9

>  <original_smiles>  (23) 
COC12C=CC34C=CC(C)(C5(COC(=O)C5)C(=O)C3CC1)C(C)(C)C24

>  <smiles>  (23) 
[H]C1=C([H])C23C([H])=C([H])C4(C([H])([H])[H])C5(C(=O)C2([H])C([H])([H])C([H])([H])C1(OC([H])([H])[H])C3([H])C4(C([H])([H])[H])C([H])([H])[H])C([H])([H])OC(=O)C5([H])[H]

$$$$
11:0:0
     RDKit          3D

 64 69  0  0  1  0  0  0  0  0999 V2000
    2.2737   -1.7016    2.4901 C   0  0  0  0  0  0  0  0  0  0  0  0
    3.3773   -2.0681    3.4227 C   0  0  0  0  0  0  0  0  0  0  0  0
    3.1896   -2.2844    4.7169 N   0  0  0  0  0  0  0  0  0  0  0  0
    4.4636   -2.5313    5.1929 N   0  0  0  0  0  0  0  0  0  0  0  0
    5.3482   -2.4434    4.2430 N   0  0  0  0  0  0  0  0  0  0  0  0
    4.6819   -2.1943    3.1096 N   0  0  0  0  0  0  0  0  0  0  0  0
    5.4420   -2.0645    1.8420 C   0  0  2  0  0  0  0  0  0  0  0  0
    5.0763   -0.7354    1.1948 C   0  0  1  0  0  0  0  0  0  0  0  0
    6.2055   -0.1222    0.6966 O   0  0  0  0  0  0  0  0  0  0  0  0
    4.2247   -0.8741   -0.0325 C   0  0  0  0  0  0  0  0  0  0  0  0
    4.8414   -1.7083   -1.1806 C   0  0  2  0  0  0  0  0  0  0  0  0
    4.9205   -0.7030   -2.3424 C   0  0  0  0  0  0  0  0  0  0  0  0
    3.6489   -2.7986   -1.6402 C   0  0  1  0  0  0  0  0  0  0  0  0
    4.1833   -3.5162   -2.8326 C   0  0  0  0  0  0  0  0  0  0  0  0
    5.3724   -4.1751   -2.1855 C   0  0  0  0  0  0  0  0  0  0  0  0
    5.8746   -3.5439   -0.7861 C   0  0  1  0  0  0  0  0  0  0  0  0
    6.4189   -2.2893   -1.0540 C   0  0  2  0  0  0  0  0  0  0  0  0
    7.5875   -2.6250    0.0719 C   0  0  0  0  0  0  0  0  0  0  0  0
    7.4471   -3.9845    1.0644 C   0  0  0  0  0  0  0  0  0  0  0  0
    5.9190   -4.5053    1.3967 C   0  0  2  0  0  0  0  0  0  0  0  0
    5.8272   -5.1401    2.7963 C   0  0  0  0  0  0  0  0  0  0  0  0
    5.8244   -6.6757    2.5525 C   0  0  0  0  0  0  0  0  0  0  0  0
    7.2614   -7.2630    2.5726 C   0  0  0  0  0  0  0  0  0  0  0  0
    4.9766   -7.3916    3.6060 C   0  0  0  0  0  0  0  0  0  0  0  0
    5.1953   -6.8455    1.1511 C   0  0  0  0  0  0  0  0  0  0  0  0
    4.7468   -5.4375    0.7861 C   0  0  2  0  0  0  0  0  0  0  0  0
    3.8040   -5.1726   -0.3619 O   0  0  0  0  0  0  0  0  0  0  0  0
    3.0079   -3.9718   -0.7259 C   0  0  0  0  0  0  0  0  0  0  0  0
    1.8297   -3.9347   -0.4909 O   0  0  0  0  0  0  0  0  0  0  0  0
    5.2805   -3.3277    0.8743 C   0  0  1  0  0  0  0  0  0  0  0  0
    1.3137   -1.7007    3.0157 H   0  0  0  0  0  0  0  0  0  0  0  0
    2.2368   -2.4509    1.6991 H   0  0  0  0  0  0  0  0  0  0  0  0
    2.4338   -0.6949    2.0864 H   0  0  0  0  0  0  0  0  0  0  0  0
    6.4544   -1.9483    2.2027 H   0  0  0  0  0  0  0  0  0  0  0  0
    4.6014   -0.0575    1.9076 H   0  0  0  0  0  0  0  0  0  0  0  0
    6.7369    0.1997    1.4251 H   0  0  0  0  0  0  0  0  0  0  0  0
    3.2566   -1.3203    0.1565 H   0  0  0  0  0  0  0  0  0  0  0  0
    4.0014    0.1427   -0.3289 H   0  0  0  0  0  0  0  0  0  0  0  0
    5.3461   -1.2029   -3.1997 H   0  0  0  0  0  0  0  0  0  0  0  0
    5.5713    0.1149   -2.0907 H   0  0  0  0  0  0  0  0  0  0  0  0
    3.9355   -0.3271   -2.6413 H   0  0  0  0  0  0  0  0  0  0  0  0
    2.7809   -2.2202   -1.9492 H   0  0  0  0  0  0  0  0  0  0  0  0
    3.4574   -4.2591   -3.2285 H   0  0  0  0  0  0  0  0  0  0  0  0
    4.4599   -2.8765   -3.6591 H   0  0  0  0  0  0  0  0  0  0  0  0
    5.1612   -5.2347   -2.0987 H   0  0  0  0  0  0  0  0  0  0  0  0
    6.1787   -4.1234   -2.9151 H   0  0  0  0  0  0  0  0  0  0  0  0
    6.6151   -4.3254   -0.9361 H   0  0  0  0  0  0  0  0  0  0  0  0
    6.8983   -2.2611   -2.0386 H   0  0  0  0  0  0  0  0  0  0  0  0
    8.4942   -2.7895   -0.5143 H   0  0  0  0  0  0  0  0  0  0  0  0
    7.8713   -1.7406    0.6342 H   0  0  0  0  0  0  0  0  0  0  0  0
    8.0300   -4.7970    0.6308 H   0  0  0  0  0  0  0  0  0  0  0  0
    7.9695   -3.7993    2.0006 H   0  0  0  0  0  0  0  0  0  0  0  0
    6.6161   -4.8513    3.4743 H   0  0  0  0  0  0  0  0  0  0  0  0
    4.8839   -4.8729    3.2735 H   0  0  0  0  0  0  0  0  0  0  0  0
    7.2657   -8.3399    2.3892 H   0  0  0  0  0  0  0  0  0  0  0  0
    7.7344   -7.1063    3.5403 H   0  0  0  0  0  0  0  0  0  0  0  0
    7.9202   -6.8187    1.8236 H   0  0  0  0  0  0  0  0  0  0  0  0
    4.9570   -8.4686    3.4280 H   0  0  0  0  0  0  0  0  0  0  0  0
    3.9496   -7.0290    3.5745 H   0  0  0  0  0  0  0  0  0  0  0  0
    5.3799   -7.2131    4.6014 H   0  0  0  0  0  0  0  0  0  0  0  0
    5.9981   -7.1648    0.4840 H   0  0  0  0  0  0  0  0  0  0  0  0
    4.3787   -7.5769    1.1025 H   0  0  0  0  0  0  0  0  0  0  0  0
    3.9563   -5.3246    1.5326 H   0  0  0  0  0  0  0  0  0  0  0  0
    4.2341   -3.3214    1.1115 H   0  0  0  0  0  0  0  0  0  0  0  0
  1  2  1  0
  1 31  1  0
  1 32  1  0
  1 33  1  0
  2  6  1  0
  2  3  2  0
  3  4  1  0
  4  5  2  0
  5  6  1  0
  6  7  1  0
  7 30  1  0
  7  8  1  0
  7 34  1  1
  8  9  1  0
  8 10  1  0
  8 35  1  1
  9 36  1  0
 10 11  1  0
 10 37  1  0
 10 38  1  0
 11 17  1  0
 11 12  1  6
 11 13  1  0
 12 39  1  0
 12 40  1  0
 12 41  1  0
 13 28  1  0
 13 14  1  0
 13 42  1  6
 14 15  1  0
 14 43  1  0
 14 44  1  0
 15 16  1  0
 15 45  1  0
 15 46  1  0
 16 30  1  0
 16 17  1  0
 16 47  1  1
 17 18  1  0
 17 48  1  6
 18 19  1  0
 18 49  1  0
 18 50  1  0
 19 20  1  0
 19 51  1  0
 19 52  1  0
 20 26  1  0
 20 21  1  1
 20 30  1  0
 21 22  1  0
 21 53  1  0
 21 54  1  0
 22 23  1  0
 22 24  1  0
 22 25  1  0
 23 55  1  0
 23 56  1  0
 23 57  1  0
 24 58  1  0
 24 59  1  0
 24 60  1  0
 25 26  1  0
 25 61  1  0
 25 62  1  0
 26 27  1  0
 26 63  1  1
 27 28  1  0
 28 29  2  0
 30 64  1  6
M  END
>  <i_m_ct_stereo_status>  (24) 
1

>  <s_m_source_file>  (24) 
/var/tmp/pbs.5076255.sched01/tmppe38rura/0ules8z9c.sdf

>  <i_m_source_file_index>  (24) 
15

>  <i_lp_mmshare_version>  (24) 
48012

>  <i_f3d_flags>  (24) 
0

>  <s_epik_input>  (24) 
W0NIM11jMW5ubm4xW0NASF0oW0NAQEhdKFtPSF0pW0NIMl0yKVtDQEhdM1tDQEBIXShbQ0gyXVtDSDJdNClbQ0BIXShbQ0gyXVtDSDJdNSlbQ0BAXTIoW0NIM10pW0NAQEhdNEMoPU8pT1tDQEhdKFtDQF0zNTYpW0NIMl1DKFtDSDJdNikoW0NIM10pW0NIM10=

>  <s_epik_cmdline>  (24) 
J2VwaWtfcHl0aG9uJywgJy1waHQnLCAnMi4wJywgJy1waCcsICc3LjAnLCAnLXRuJywgJzgnLCAnLW1hJywgJzIwMCcsICctaW1hZScsICc8aW5maWxlLm1hZT4nLCAnLW9tYWUnLCAnPG91dGZpbGUubWFlPic=

>  <r_lp_tautomer_probability>  (24) 
1

>  <r_epik_Ionization_Penalty>  (24) 
1.71653e-07

>  <r_epik_Ionization_Penalty_Charging>  (24) 
0

>  <r_epik_Ionization_Penalty_Neutral>  (24) 
1.71653e-07

>  <r_epik_State_Penalty>  (24) 
-0

>  <r_epik_Charging_Adjusted_Penalty>  (24) 
0

>  <i_epik_Tot_Q>  (24) 
0

>  <i_epik_Tot_abs_Q>  (24) 
0

>  <s_epik_Chemistry_Notes>  (24) 
This compound has an ester and may undergo hydrolysis at high or low pH.

>  <s_lp_Force_Field>  (24) 
OPLS3e

>  <r_lp_Energy>  (24) 
371.364

>  <b_lp_Chiralities_Consistent>  (24) 
1

>  <s_lp_Variant>  (24) 
11:0-1

>  <s_i_glide_gridfile>  (24) 
pfpi4k_grid

>  <i_i_glide_lignum>  (24) 
15

>  <i_i_glide_rotatable_bonds>  (24) 
2

>  <r_i_docking_score>  (24) 
-2.46116

>  <r_i_glide_ligand_efficiency>  (24) 
-0.0820385

>  <r_i_glide_ligand_efficiency_sa>  (24) 
-0.254913

>  <r_i_glide_ligand_efficiency_ln>  (24) 
-0.559202

>  <r_i_glide_gscore>  (24) 
-2.46116

>  <r_i_glide_lipo>  (24) 
-0.807541

>  <r_i_glide_hbond>  (24) 
-0.412559

>  <r_i_glide_metal>  (24) 
-0

>  <r_i_glide_rewards>  (24) 
-0.63655

>  <r_i_glide_evdw>  (24) 
-1.43699

>  <r_i_glide_ecoul>  (24) 
-4.15623

>  <r_i_glide_erotb>  (24) 
0.114863

>  <r_i_glide_esite>  (24) 
-0.024085

>  <r_i_glide_emodel>  (24) 
-3.30895

>  <r_i_glide_energy>  (24) 
-5.59322

>  <r_i_glide_einternal>  (24) 
1.59752

>  <r_i_glide_intrahb_reward>  (24) 
-0

>  <i_i_glide_confnum>  (24) 
2

>  <i_i_glide_posenum>  (24) 
7

>  <r_i_glide_eff_state_penalty>  (24) 
0

>  <ligand_id>  (24) 
11

>  <original_smiles>  (24) 
Cc1nnnn1C1C(O)CC2(C)C3CCC4C2CCC2(CC(C)(C)CC2OC3=O)C41

>  <smiles>  (24) 
[H]OC1([H])C([H])([H])C2(C([H])([H])[H])C3([H])C(=O)OC4([H])C([H])([H])C(C([H])([H])[H])(C([H])([H])[H])C([H])([H])C45C([H])([H])C([H])([H])C2([H])C([H])(C([H])([H])C3([H])[H])C5([H])C1([H])n1nnnc1C([H])([H])[H]

$$$$
11:0:1
     RDKit          3D

 64 69  0  0  1  0  0  0  0  0999 V2000
    0.9502   -0.9679    2.2512 C   0  0  0  0  0  0  0  0  0  0  0  0
    1.4071   -1.8562    3.3722 C   0  0  0  0  0  0  0  0  0  0  0  0
    0.5879   -2.2455    4.3429 N   0  0  0  0  0  0  0  0  0  0  0  0
    1.3961   -2.9992    5.1668 N   0  0  0  0  0  0  0  0  0  0  0  0
    2.5972   -3.0312    4.7252 N   0  0  0  0  0  0  0  0  0  0  0  0
    2.6428   -2.3637    3.5476 N   0  0  0  0  0  0  0  0  0  0  0  0
    3.9096   -2.3300    2.7649 C   0  0  2  0  0  0  0  0  0  0  0  0
    4.0999   -0.9031    2.2025 C   0  0  1  0  0  0  0  0  0  0  0  0
    5.3308   -0.3036    2.5157 O   0  0  0  0  0  0  0  0  0  0  0  0
    3.8164   -0.8760    0.6961 C   0  0  0  0  0  0  0  0  0  0  0  0
    4.7376   -1.7750   -0.1767 C   0  0  2  0  0  0  0  0  0  0  0  0
    5.4747   -0.7232   -1.0519 C   0  0  0  0  0  0  0  0  0  0  0  0
    3.7596   -2.6434   -1.2120 C   0  0  1  0  0  0  0  0  0  0  0  0
    4.6702   -3.4241   -2.1044 C   0  0  0  0  0  0  0  0  0  0  0  0
    5.4152   -4.2684   -1.0936 C   0  0  0  0  0  0  0  0  0  0  0  0
    5.2767   -3.7768    0.4306 C   0  0  1  0  0  0  0  0  0  0  0  0
    5.9945   -2.5887    0.5647 C   0  0  2  0  0  0  0  0  0  0  0  0
    6.4790   -3.1512    2.0254 C   0  0  0  0  0  0  0  0  0  0  0  0
    5.7735   -4.5004    2.7251 C   0  0  0  0  0  0  0  0  0  0  0  0
    4.2269   -4.8153    2.2713 C   0  0  2  0  0  0  0  0  0  0  0  0
    3.4756   -5.5414    3.4022 C   0  0  0  0  0  0  0  0  0  0  0  0
    3.4257   -7.0416    2.9833 C   0  0  0  0  0  0  0  0  0  0  0  0
    4.6019   -7.8280    3.6020 C   0  0  0  0  0  0  0  0  0  0  0  0
    2.1000   -7.6586    3.4759 C   0  0  0  0  0  0  0  0  0  0  0  0
    3.5088   -7.0381    1.4262 C   0  0  0  0  0  0  0  0  0  0  0  0
    3.3992   -5.5499    1.0946 C   0  0  2  0  0  0  0  0  0  0  0  0
    3.0536   -5.0689   -0.2985 O   0  0  0  0  0  0  0  0  0  0  0  0
    2.6132   -3.7572   -0.8263 C   0  0  0  0  0  0  0  0  0  0  0  0
    1.4776   -3.5771   -1.1785 O   0  0  0  0  0  0  0  0  0  0  0  0
    4.0212   -3.5201    1.6599 C   0  0  1  0  0  0  0  0  0  0  0  0
   -0.0789   -0.6525    2.4136 H   0  0  0  0  0  0  0  0  0  0  0  0
    0.9962   -1.5117    1.3163 H   0  0  0  0  0  0  0  0  0  0  0  0
    1.5177   -0.0499    2.1835 H   0  0  0  0  0  0  0  0  0  0  0  0
    4.6379   -2.4247    3.5531 H   0  0  0  0  0  0  0  0  0  0  0  0
    3.4438   -0.2179    2.7128 H   0  0  0  0  0  0  0  0  0  0  0  0
    5.3553   -0.1770    3.4499 H   0  0  0  0  0  0  0  0  0  0  0  0
    2.8218   -1.1987    0.4969 H   0  0  0  0  0  0  0  0  0  0  0  0
    3.8067    0.1705    0.3728 H   0  0  0  0  0  0  0  0  0  0  0  0
    6.2139   -1.1793   -1.6963 H   0  0  0  0  0  0  0  0  0  0  0  0
    5.9967   -0.0088   -0.4126 H   0  0  0  0  0  0  0  0  0  0  0  0
    4.7864   -0.1898   -1.7055 H   0  0  0  0  0  0  0  0  0  0  0  0
    3.2101   -1.9216   -1.8454 H   0  0  0  0  0  0  0  0  0  0  0  0
    4.1488   -4.0537   -2.8321 H   0  0  0  0  0  0  0  0  0  0  0  0
    5.3375   -2.8061   -2.7023 H   0  0  0  0  0  0  0  0  0  0  0  0
    5.1771   -5.3243   -1.2301 H   0  0  0  0  0  0  0  0  0  0  0  0
    6.4691   -4.2223   -1.3841 H   0  0  0  0  0  0  0  0  0  0  0  0
    5.9033   -4.6706    0.5492 H   0  0  0  0  0  0  0  0  0  0  0  0
    6.8903   -2.5435   -0.0566 H   0  0  0  0  0  0  0  0  0  0  0  0
    7.5128   -3.4559    1.8494 H   0  0  0  0  0  0  0  0  0  0  0  0
    6.5756   -2.3299    2.7193 H   0  0  0  0  0  0  0  0  0  0  0  0
    6.4068   -5.3836    2.5599 H   0  0  0  0  0  0  0  0  0  0  0  0
    5.8149   -4.3621    3.8074 H   0  0  0  0  0  0  0  0  0  0  0  0
    3.9181   -5.3987    4.3909 H   0  0  0  0  0  0  0  0  0  0  0  0
    2.4534   -5.1734    3.4571 H   0  0  0  0  0  0  0  0  0  0  0  0
    4.5648   -8.8804    3.3197 H   0  0  0  0  0  0  0  0  0  0  0  0
    4.5766   -7.7814    4.6904 H   0  0  0  0  0  0  0  0  0  0  0  0
    5.5654   -7.4358    3.2814 H   0  0  0  0  0  0  0  0  0  0  0  0
    2.0198   -8.7108    3.2037 H   0  0  0  0  0  0  0  0  0  0  0  0
    1.2376   -7.1442    3.0513 H   0  0  0  0  0  0  0  0  0  0  0  0
    2.0143   -7.5919    4.5611 H   0  0  0  0  0  0  0  0  0  0  0  0
    4.4575   -7.4412    1.0607 H   0  0  0  0  0  0  0  0  0  0  0  0
    2.7046   -7.6177    0.9681 H   0  0  0  0  0  0  0  0  0  0  0  0
    2.3628   -5.3972    1.3940 H   0  0  0  0  0  0  0  0  0  0  0  0
    2.9823   -3.3815    1.4204 H   0  0  0  0  0  0  0  0  0  0  0  0
  1  2  1  0
  1 31  1  0
  1 32  1  0
  1 33  1  0
  2  6  1  0
  2  3  2  0
  3  4  1  0
  4  5  2  0
  5  6  1  0
  6  7  1  0
  7 30  1  0
  7  8  1  0
  7 34  1  1
  8  9  1  0
  8 10  1  0
  8 35  1  1
  9 36  1  0
 10 11  1  0
 10 37  1  0
 10 38  1  0
 11 17  1  0
 11 12  1  6
 11 13  1  0
 12 39  1  0
 12 40  1  0
 12 41  1  0
 13 28  1  0
 13 14  1  0
 13 42  1  6
 14 15  1  0
 14 43  1  0
 14 44  1  0
 15 16  1  0
 15 45  1  0
 15 46  1  0
 16 30  1  0
 16 17  1  0
 16 47  1  1
 17 18  1  0
 17 48  1  6
 18 19  1  0
 18 49  1  0
 18 50  1  0
 19 20  1  0
 19 51  1  0
 19 52  1  0
 20 26  1  0
 20 21  1  1
 20 30  1  0
 21 22  1  0
 21 53  1  0
 21 54  1  0
 22 23  1  0
 22 24  1  0
 22 25  1  0
 23 55  1  0
 23 56  1  0
 23 57  1  0
 24 58  1  0
 24 59  1  0
 24 60  1  0
 25 26  1  0
 25 61  1  0
 25 62  1  0
 26 27  1  0
 26 63  1  1
 27 28  1  0
 28 29  2  0
 30 64  1  6
M  END
>  <i_m_ct_stereo_status>  (25) 
1

>  <s_m_source_file>  (25) 
/var/tmp/pbs.5076255.sched01/tmppe38rura/0ules8z9c.sdf

>  <i_m_source_file_index>  (25) 
15

>  <i_lp_mmshare_version>  (25) 
48012

>  <i_f3d_flags>  (25) 
0

>  <s_epik_input>  (25) 
W0NIM11jMW5ubm4xW0NASF0oW0NAQEhdKFtPSF0pW0NIMl0yKVtDQEhdM1tDQEBIXShbQ0gyXVtDSDJdNClbQ0BIXShbQ0gyXVtDSDJdNSlbQ0BAXTIoW0NIM10pW0NAQEhdNEMoPU8pT1tDQEhdKFtDQF0zNTYpW0NIMl1DKFtDSDJdNikoW0NIM10pW0NIM10=

>  <s_epik_cmdline>  (25) 
J2VwaWtfcHl0aG9uJywgJy1waHQnLCAnMi4wJywgJy1waCcsICc3LjAnLCAnLXRuJywgJzgnLCAnLW1hJywgJzIwMCcsICctaW1hZScsICc8aW5maWxlLm1hZT4nLCAnLW9tYWUnLCAnPG91dGZpbGUubWFlPic=

>  <r_lp_tautomer_probability>  (25) 
1

>  <r_epik_Ionization_Penalty>  (25) 
1.71653e-07

>  <r_epik_Ionization_Penalty_Charging>  (25) 
0

>  <r_epik_Ionization_Penalty_Neutral>  (25) 
1.71653e-07

>  <r_epik_State_Penalty>  (25) 
-0

>  <r_epik_Charging_Adjusted_Penalty>  (25) 
0

>  <i_epik_Tot_Q>  (25) 
0

>  <i_epik_Tot_abs_Q>  (25) 
0

>  <s_epik_Chemistry_Notes>  (25) 
This compound has an ester and may undergo hydrolysis at high or low pH.

>  <s_lp_Force_Field>  (25) 
OPLS3e

>  <r_lp_Energy>  (25) 
371.364

>  <b_lp_Chiralities_Consistent>  (25) 
1

>  <s_lp_Variant>  (25) 
11:0-1

>  <s_i_glide_gridfile>  (25) 
pfpi4k_grid

>  <i_i_glide_lignum>  (25) 
15

>  <i_i_glide_rotatable_bonds>  (25) 
2

>  <r_i_docking_score>  (25) 
-1.65927

>  <r_i_glide_ligand_efficiency>  (25) 
-0.0553091

>  <r_i_glide_ligand_efficiency_sa>  (25) 
-0.171858

>  <r_i_glide_ligand_efficiency_ln>  (25) 
-0.377005

>  <r_i_glide_gscore>  (25) 
-1.65927

>  <r_i_glide_lipo>  (25) 
-0.291325

>  <r_i_glide_hbond>  (25) 
-0.156763

>  <r_i_glide_metal>  (25) 
-0

>  <r_i_glide_rewards>  (25) 
-0.603755

>  <r_i_glide_evdw>  (25) 
-10.2788

>  <r_i_glide_ecoul>  (25) 
-1.1975

>  <r_i_glide_erotb>  (25) 
0.114863

>  <r_i_glide_esite>  (25) 
-0.0287297

>  <r_i_glide_emodel>  (25) 
-7.39622

>  <r_i_glide_energy>  (25) 
-11.4763

>  <r_i_glide_einternal>  (25) 
4.78065

>  <r_i_glide_intrahb_reward>  (25) 
-0

>  <i_i_glide_confnum>  (25) 
1

>  <i_i_glide_posenum>  (25) 
34

>  <r_i_glide_eff_state_penalty>  (25) 
0

>  <ligand_id>  (25) 
11

>  <original_smiles>  (25) 
Cc1nnnn1C1C(O)CC2(C)C3CCC4C2CCC2(CC(C)(C)CC2OC3=O)C41

>  <smiles>  (25) 
[H]OC1([H])C([H])([H])C2(C([H])([H])[H])C3([H])C(=O)OC4([H])C([H])([H])C(C([H])([H])[H])(C([H])([H])[H])C([H])([H])C45C([H])([H])C([H])([H])C2([H])C([H])(C([H])([H])C3([H])[H])C5([H])C1([H])n1nnnc1C([H])([H])[H]

$$$$
11:0:2
     RDKit          3D

 64 69  0  0  1  0  0  0  0  0999 V2000
    3.3237   -3.0355    5.7608 C   0  0  0  0  0  0  0  0  0  0  0  0
    2.2374   -2.6688    4.7761 C   0  0  0  0  0  0  0  0  0  0  0  0
    0.9544   -2.6001    5.0364 N   0  0  0  0  0  0  0  0  0  0  0  0
    0.3804   -2.1358    3.8611 N   0  0  0  0  0  0  0  0  0  0  0  0
    1.2629   -1.9960    2.9219 N   0  0  0  0  0  0  0  0  0  0  0  0
    2.4729   -2.3132    3.4644 N   0  0  0  0  0  0  0  0  0  0  0  0
    3.6881   -2.2203    2.6828 C   0  0  2  0  0  0  0  0  0  0  0  0
    3.7900   -0.8145    2.0218 C   0  0  1  0  0  0  0  0  0  0  0  0
    4.9819   -0.1458    2.3656 O   0  0  0  0  0  0  0  0  0  0  0  0
    3.6234   -0.8759    0.5185 C   0  0  0  0  0  0  0  0  0  0  0  0
    4.6335   -1.7583   -0.2658 C   0  0  2  0  0  0  0  0  0  0  0  0
    5.3864   -0.7522   -1.1603 C   0  0  0  0  0  0  0  0  0  0  0  0
    3.7307   -2.7164   -1.3163 C   0  0  1  0  0  0  0  0  0  0  0  0
    4.7225   -3.5135   -2.1151 C   0  0  0  0  0  0  0  0  0  0  0  0
    5.4389   -4.2755   -1.0197 C   0  0  0  0  0  0  0  0  0  0  0  0
    5.2038   -3.7172    0.4656 C   0  0  1  0  0  0  0  0  0  0  0  0
    5.8670   -2.4970    0.5597 C   0  0  2  0  0  0  0  0  0  0  0  0
    6.3040   -2.9589    2.0733 C   0  0  0  0  0  0  0  0  0  0  0  0
    5.5980   -4.3092    2.8115 C   0  0  0  0  0  0  0  0  0  0  0  0
    4.0891   -4.7093    2.2999 C   0  0  2  0  0  0  0  0  0  0  0  0
    3.3096   -5.4196    3.4379 C   0  0  0  0  0  0  0  0  0  0  0  0
    3.3110   -6.9206    3.0483 C   0  0  0  0  0  0  0  0  0  0  0  0
    4.4840   -7.6216    3.7793 C   0  0  0  0  0  0  0  0  0  0  0  0
    1.9921   -7.5451    3.5335 C   0  0  0  0  0  0  0  0  0  0  0  0
    3.4817   -6.9859    1.5062 C   0  0  0  0  0  0  0  0  0  0  0  0
    3.3508   -5.5122    1.1049 C   0  0  2  0  0  0  0  0  0  0  0  0
    3.0721   -5.1148   -0.2985 O   0  0  0  0  0  0  0  0  0  0  0  0
    2.6144   -3.8432   -0.9117 C   0  0  0  0  0  0  0  0  0  0  0  0
    1.4560   -3.7008   -1.2396 O   0  0  0  0  0  0  0  0  0  0  0  0
    3.8773   -3.4611    1.6305 C   0  0  1  0  0  0  0  0  0  0  0  0
    2.8084   -3.3427    6.6888 H   0  0  0  0  0  0  0  0  0  0  0  0
    3.9498   -2.1525    5.9440 H   0  0  0  0  0  0  0  0  0  0  0  0
    3.9438   -3.8463    5.4040 H   0  0  0  0  0  0  0  0  0  0  0  0
    4.4291   -2.2083    3.4704 H   0  0  0  0  0  0  0  0  0  0  0  0
    3.0089   -0.1550    2.3987 H   0  0  0  0  0  0  0  0  0  0  0  0
    5.7029   -0.6245    1.9887 H   0  0  0  0  0  0  0  0  0  0  0  0
    2.6249   -1.2646    0.3353 H   0  0  0  0  0  0  0  0  0  0  0  0
    3.5980    0.1429    0.1255 H   0  0  0  0  0  0  0  0  0  0  0  0
    6.1961   -1.2047   -1.7314 H   0  0  0  0  0  0  0  0  0  0  0  0
    5.8532   -0.0064   -0.5222 H   0  0  0  0  0  0  0  0  0  0  0  0
    4.7254   -0.2588   -1.8789 H   0  0  0  0  0  0  0  0  0  0  0  0
    3.1950   -2.0516   -1.9963 H   0  0  0  0  0  0  0  0  0  0  0  0
    4.2417   -4.2001   -2.8121 H   0  0  0  0  0  0  0  0  0  0  0  0
    5.3948   -2.8981   -2.7124 H   0  0  0  0  0  0  0  0  0  0  0  0
    5.2381   -5.3476   -1.1063 H   0  0  0  0  0  0  0  0  0  0  0  0
    6.4969   -4.2162   -1.2547 H   0  0  0  0  0  0  0  0  0  0  0  0
    5.8708   -4.5752    0.6482 H   0  0  0  0  0  0  0  0  0  0  0  0
    6.7917   -2.4517   -0.0246 H   0  0  0  0  0  0  0  0  0  0  0  0
    7.3346   -3.2467    1.9395 H   0  0  0  0  0  0  0  0  0  0  0  0
    6.3275   -2.1137    2.7416 H   0  0  0  0  0  0  0  0  0  0  0  0
    6.2751   -5.1525    2.7082 H   0  0  0  0  0  0  0  0  0  0  0  0
    5.5980   -4.1196    3.8793 H   0  0  0  0  0  0  0  0  0  0  0  0
    3.7600   -5.3861    4.3953 H   0  0  0  0  0  0  0  0  0  0  0  0
    2.2733   -5.0456    3.4315 H   0  0  0  0  0  0  0  0  0  0  0  0
    4.5146   -8.6990    3.5743 H   0  0  0  0  0  0  0  0  0  0  0  0
    4.4073   -7.5190    4.8590 H   0  0  0  0  0  0  0  0  0  0  0  0
    5.4500   -7.2108    3.5027 H   0  0  0  0  0  0  0  0  0  0  0  0
    1.9509   -8.6240    3.3329 H   0  0  0  0  0  0  0  0  0  0  0  0
    1.1255   -7.0761    3.0591 H   0  0  0  0  0  0  0  0  0  0  0  0
    1.8750   -7.4169    4.6138 H   0  0  0  0  0  0  0  0  0  0  0  0
    4.4675   -7.3863    1.2304 H   0  0  0  0  0  0  0  0  0  0  0  0
    2.7200   -7.6240    1.0423 H   0  0  0  0  0  0  0  0  0  0  0  0
    2.2979   -5.3687    1.3637 H   0  0  0  0  0  0  0  0  0  0  0  0
    2.8508   -3.3458    1.3259 H   0  0  0  0  0  0  0  0  0  0  0  0
  1  2  1  0
  1 31  1  0
  1 32  1  0
  1 33  1  0
  2  6  1  0
  2  3  2  0
  3  4  1  0
  4  5  2  0
  5  6  1  0
  6  7  1  0
  7 30  1  0
  7  8  1  0
  7 34  1  1
  8  9  1  0
  8 10  1  0
  8 35  1  1
  9 36  1  0
 10 11  1  0
 10 37  1  0
 10 38  1  0
 11 17  1  0
 11 12  1  6
 11 13  1  0
 12 39  1  0
 12 40  1  0
 12 41  1  0
 13 28  1  0
 13 14  1  0
 13 42  1  6
 14 15  1  0
 14 43  1  0
 14 44  1  0
 15 16  1  0
 15 45  1  0
 15 46  1  0
 16 30  1  0
 16 17  1  0
 16 47  1  1
 17 18  1  0
 17 48  1  6
 18 19  1  0
 18 49  1  0
 18 50  1  0
 19 20  1  0
 19 51  1  0
 19 52  1  0
 20 26  1  0
 20 21  1  1
 20 30  1  0
 21 22  1  0
 21 53  1  0
 21 54  1  0
 22 23  1  0
 22 24  1  0
 22 25  1  0
 23 55  1  0
 23 56  1  0
 23 57  1  0
 24 58  1  0
 24 59  1  0
 24 60  1  0
 25 26  1  0
 25 61  1  0
 25 62  1  0
 26 27  1  0
 26 63  1  1
 27 28  1  0
 28 29  2  0
 30 64  1  6
M  END
>  <i_m_ct_stereo_status>  (26) 
1

>  <s_m_source_file>  (26) 
/var/tmp/pbs.5076255.sched01/tmppe38rura/0ules8z9c.sdf

>  <i_m_source_file_index>  (26) 
15

>  <i_lp_mmshare_version>  (26) 
48012

>  <i_f3d_flags>  (26) 
0

>  <s_epik_input>  (26) 
W0NIM11jMW5ubm4xW0NASF0oW0NAQEhdKFtPSF0pW0NIMl0yKVtDQEhdM1tDQEBIXShbQ0gyXVtDSDJdNClbQ0BIXShbQ0gyXVtDSDJdNSlbQ0BAXTIoW0NIM10pW0NAQEhdNEMoPU8pT1tDQEhdKFtDQF0zNTYpW0NIMl1DKFtDSDJdNikoW0NIM10pW0NIM10=

>  <s_epik_cmdline>  (26) 
J2VwaWtfcHl0aG9uJywgJy1waHQnLCAnMi4wJywgJy1waCcsICc3LjAnLCAnLXRuJywgJzgnLCAnLW1hJywgJzIwMCcsICctaW1hZScsICc8aW5maWxlLm1hZT4nLCAnLW9tYWUnLCAnPG91dGZpbGUubWFlPic=

>  <r_lp_tautomer_probability>  (26) 
1

>  <r_epik_Ionization_Penalty>  (26) 
1.71653e-07

>  <r_epik_Ionization_Penalty_Charging>  (26) 
0

>  <r_epik_Ionization_Penalty_Neutral>  (26) 
1.71653e-07

>  <r_epik_State_Penalty>  (26) 
-0

>  <r_epik_Charging_Adjusted_Penalty>  (26) 
0

>  <i_epik_Tot_Q>  (26) 
0

>  <i_epik_Tot_abs_Q>  (26) 
0

>  <s_epik_Chemistry_Notes>  (26) 
This compound has an ester and may undergo hydrolysis at high or low pH.

>  <s_lp_Force_Field>  (26) 
OPLS3e

>  <r_lp_Energy>  (26) 
371.364

>  <b_lp_Chiralities_Consistent>  (26) 
1

>  <s_lp_Variant>  (26) 
11:0-1

>  <s_i_glide_gridfile>  (26) 
pfpi4k_grid

>  <i_i_glide_lignum>  (26) 
15

>  <i_i_glide_rotatable_bonds>  (26) 
2

>  <r_i_docking_score>  (26) 
-1.16817

>  <r_i_glide_ligand_efficiency>  (26) 
-0.038939

>  <r_i_glide_ligand_efficiency_sa>  (26) 
-0.120992

>  <r_i_glide_ligand_efficiency_ln>  (26) 
-0.265421

>  <r_i_glide_gscore>  (26) 
-1.16817

>  <r_i_glide_lipo>  (26) 
-0.246754

>  <r_i_glide_hbond>  (26) 
-0.143202

>  <r_i_glide_metal>  (26) 
-0

>  <r_i_glide_rewards>  (26) 
-0.582675

>  <r_i_glide_evdw>  (26) 
-9.51665

>  <r_i_glide_ecoul>  (26) 
1.32279

>  <r_i_glide_erotb>  (26) 
0.114863

>  <r_i_glide_esite>  (26) 
-0.0329861

>  <r_i_glide_emodel>  (26) 
-4.74692

>  <r_i_glide_energy>  (26) 
-8.19387

>  <r_i_glide_einternal>  (26) 
0.568851

>  <r_i_glide_intrahb_reward>  (26) 
-0

>  <i_i_glide_confnum>  (26) 
4

>  <i_i_glide_posenum>  (26) 
32

>  <r_i_glide_eff_state_penalty>  (26) 
0

>  <ligand_id>  (26) 
11

>  <original_smiles>  (26) 
Cc1nnnn1C1C(O)CC2(C)C3CCC4C2CCC2(CC(C)(C)CC2OC3=O)C41

>  <smiles>  (26) 
[H]OC1([H])C([H])([H])C2(C([H])([H])[H])C3([H])C(=O)OC4([H])C([H])([H])C(C([H])([H])[H])(C([H])([H])[H])C([H])([H])C45C([H])([H])C([H])([H])C2([H])C([H])(C([H])([H])C3([H])[H])C5([H])C1([H])n1nnnc1C([H])([H])[H]

$$$$
12:0:0
     RDKit          3D

 61 66  0  0  1  0  0  0  0  0999 V2000
    0.3150   -8.3272    2.3860 C   0  0  0  0  0  0  0  0  0  0  0  0
    1.0464   -7.3255    1.6811 O   0  0  0  0  0  0  0  0  0  0  0  0
    1.5898   -6.3266    2.4991 C   0  0  2  0  0  0  0  0  0  0  0  0
    1.4719   -5.0607    1.9127 O   0  0  0  0  0  0  0  0  0  0  0  0
    2.3555   -4.6811    0.8768 C   0  0  2  0  0  0  0  0  0  0  0  0
    2.8273   -5.7823    0.1378 O   0  0  0  0  0  0  0  0  0  0  0  0
    3.9227   -6.5359    0.6749 C   0  0  0  0  0  0  0  0  0  0  0  0
    4.2030   -6.1713    2.1482 C   0  0  2  0  0  0  0  0  0  0  0  0
    3.0309   -6.7475    2.9821 C   0  0  1  0  0  0  0  0  0  0  0  0
    3.1966   -6.5561    4.3738 O   0  0  0  0  0  0  0  0  0  0  0  0
    4.3638   -4.6395    2.3892 C   0  0  2  0  0  0  0  0  0  0  0  0
    3.4931   -3.8889    1.4669 C   0  0  0  0  0  0  0  0  0  0  0  0
    3.9096   -2.6036    1.3077 C   0  0  0  0  0  0  0  0  0  0  0  0
    3.3426   -1.6201    0.4249 C   0  0  0  0  0  0  0  0  0  0  0  0
    3.4129   -1.5909   -0.9344 C   0  0  0  0  0  0  0  0  0  0  0  0
    3.9165   -2.6446   -1.8903 C   0  0  1  0  0  0  0  0  0  0  0  0
    3.1163   -2.6290   -3.2031 C   0  0  0  0  0  0  0  0  0  0  0  0
    3.5336   -3.7221   -3.9802 O   0  0  0  0  0  0  0  0  0  0  0  0
    5.4243   -2.4452   -2.1082 C   0  0  0  0  0  0  0  0  0  0  0  0
    6.1548   -2.5454   -0.7778 C   0  0  2  0  0  0  0  0  0  0  0  0
    6.2518   -3.9711   -0.2828 C   0  0  0  0  0  0  0  0  0  0  0  0
    6.6429   -4.3270    1.1658 C   0  0  1  0  0  0  0  0  0  0  0  0
    8.1593   -4.1574    1.3724 C   0  0  0  0  0  0  0  0  0  0  0  0
    5.6925   -3.8377    2.2970 C   0  0  1  0  0  0  0  0  0  0  0  0
    5.1793   -2.3682    2.1268 C   0  0  2  0  0  0  0  0  0  0  0  0
    4.7664   -1.7863    3.4939 C   0  0  0  0  0  0  0  0  0  0  0  0
    6.1785   -1.3318    1.5128 C   0  0  0  0  0  0  0  0  0  0  0  0
    6.2859   -1.2772    0.0154 C   0  0  1  0  0  0  0  0  0  0  0  0
    7.4081   -1.8692   -0.6508 O   0  0  0  0  0  0  0  0  0  0  0  0
   -0.0270   -9.0992    1.6967 H   0  0  0  0  0  0  0  0  0  0  0  0
   -0.5702   -7.9163    2.8771 H   0  0  0  0  0  0  0  0  0  0  0  0
    0.9328   -8.8104    3.1445 H   0  0  0  0  0  0  0  0  0  0  0  0
    0.9321   -6.2382    3.3672 H   0  0  0  0  0  0  0  0  0  0  0  0
    1.8127   -4.0303    0.1921 H   0  0  0  0  0  0  0  0  0  0  0  0
    3.6967   -7.5989    0.5757 H   0  0  0  0  0  0  0  0  0  0  0  0
    4.8069   -6.4004    0.0609 H   0  0  0  0  0  0  0  0  0  0  0  0
    5.1167   -6.6699    2.4732 H   0  0  0  0  0  0  0  0  0  0  0  0
    3.0817   -7.8295    2.8687 H   0  0  0  0  0  0  0  0  0  0  0  0
    3.9685   -7.0309    4.6497 H   0  0  0  0  0  0  0  0  0  0  0  0
    3.9538   -4.4441    3.3812 H   0  0  0  0  0  0  0  0  0  0  0  0
    2.8373   -0.7773    0.8784 H   0  0  0  0  0  0  0  0  0  0  0  0
    2.9612   -0.7429   -1.4245 H   0  0  0  0  0  0  0  0  0  0  0  0
    3.6951   -3.5947   -1.4232 H   0  0  0  0  0  0  0  0  0  0  0  0
    2.0462   -2.7312   -3.0244 H   0  0  0  0  0  0  0  0  0  0  0  0
    3.2508   -1.7066   -3.7673 H   0  0  0  0  0  0  0  0  0  0  0  0
    3.3211   -4.5192   -3.5001 H   0  0  0  0  0  0  0  0  0  0  0  0
    5.8374   -3.1584   -2.8290 H   0  0  0  0  0  0  0  0  0  0  0  0
    5.5647   -1.4432   -2.5237 H   0  0  0  0  0  0  0  0  0  0  0  0
    5.3735   -4.5222   -0.6096 H   0  0  0  0  0  0  0  0  0  0  0  0
    7.1382   -4.2620   -0.8062 H   0  0  0  0  0  0  0  0  0  0  0  0
    6.5761   -5.4051    1.1923 H   0  0  0  0  0  0  0  0  0  0  0  0
    8.4920   -3.1365    1.2289 H   0  0  0  0  0  0  0  0  0  0  0  0
    8.7420   -4.7632    0.6835 H   0  0  0  0  0  0  0  0  0  0  0  0
    8.5003   -4.5182    2.3592 H   0  0  0  0  0  0  0  0  0  0  0  0
    6.2008   -3.9798    3.2657 H   0  0  0  0  0  0  0  0  0  0  0  0
    5.6305   -1.7569    4.1573 H   0  0  0  0  0  0  0  0  0  0  0  0
    3.9825   -2.3704    3.9787 H   0  0  0  0  0  0  0  0  0  0  0  0
    4.3810   -0.7698    3.3848 H   0  0  0  0  0  0  0  0  0  0  0  0
    5.8833   -0.3250    1.8012 H   0  0  0  0  0  0  0  0  0  0  0  0
    7.1690   -1.4513    1.9073 H   0  0  0  0  0  0  0  0  0  0  0  0
    5.9311   -0.3405   -0.4454 H   0  0  0  0  0  0  0  0  0  0  0  0
  1  2  1  0
  1 30  1  0
  1 31  1  0
  1 32  1  0
  2  3  1  0
  3  9  1  0
  3  4  1  0
  3 33  1  1
  4  5  1  0
  5 12  1  0
  5  6  1  0
  5 34  1  6
  6  7  1  0
  7  8  1  0
  7 35  1  0
  7 36  1  0
  8  9  1  0
  8 11  1  0
  8 37  1  1
  9 10  1  0
  9 38  1  1
 10 39  1  0
 11 24  1  0
 11 12  1  0
 11 40  1  1
 12 13  2  0
 13 25  1  0
 13 14  1  0
 14 15  2  3
 14 41  1  0
 15 16  1  0
 15 42  1  0
 16 17  1  0
 16 19  1  0
 16 43  1  1
 17 18  1  0
 17 44  1  0
 17 45  1  0
 18 46  1  0
 19 20  1  0
 19 47  1  0
 19 48  1  0
 20 28  1  0
 20 29  1  6
 20 21  1  0
 21 22  1  0
 21 49  1  0
 21 50  1  0
 22 23  1  0
 22 24  1  0
 22 51  1  6
 23 52  1  0
 23 53  1  0
 23 54  1  0
 24 25  1  0
 24 55  1  1
 25 26  1  1
 25 27  1  0
 26 56  1  0
 26 57  1  0
 26 58  1  0
 27 28  1  0
 27 59  1  0
 27 60  1  0
 28 29  1  0
 28 61  1  6
M  END
>  <i_m_ct_stereo_status>  (27) 
1

>  <s_m_source_file>  (27) 
/var/tmp/pbs.5076255.sched01/tmppe38rura/0ules8z9c.sdf

>  <i_m_source_file_index>  (27) 
16

>  <i_lp_mmshare_version>  (27) 
48012

>  <i_f3d_flags>  (27) 
0

>  <s_epik_input>  (27) 
W0NIMl0xW0NAQEhdKFtDSDNdKVtDQEBIXTJbQ0BASF0zW0NASF0oW0NIMl1PNClbQ0BASF0oW09IXSlbQ0BIXShPW0NIM10pT1tDQEhdNEMzPUMoW0NAXTIoW0NIM10pW0NIMl1bQ0BIXShbQ0BAXTE1NilPNikvW0NIXT1bQ0hdXFtDQEhdKFtDSDJdNSlbQ0gyXVtPSF0=

>  <s_epik_cmdline>  (27) 
J2VwaWtfcHl0aG9uJywgJy1waHQnLCAnMi4wJywgJy1waCcsICc3LjAnLCAnLXRuJywgJzgnLCAnLW1hJywgJzIwMCcsICctaW1hZScsICc8aW5maWxlLm1hZT4nLCAnLW9tYWUnLCAnPG91dGZpbGUubWFlPic=

>  <r_lp_tautomer_probability>  (27) 
1

>  <r_epik_Ionization_Penalty>  (27) 
2.73022e-06

>  <r_epik_Ionization_Penalty_Charging>  (27) 
0

>  <r_epik_Ionization_Penalty_Neutral>  (27) 
2.73022e-06

>  <r_epik_State_Penalty>  (27) 
-0

>  <r_epik_Charging_Adjusted_Penalty>  (27) 
0

>  <i_epik_Tot_Q>  (27) 
0

>  <i_epik_Tot_abs_Q>  (27) 
0

>  <s_epik_Chemistry_Notes>  (27) 
This compound contains an acetal/aminal-like group ( X-CH(R)-Y where X, Y are N, S, or O) that may be acid/base labile, releasing an aldehyde.

>  <s_lp_Force_Field>  (27) 
OPLS3e

>  <r_lp_Energy>  (27) 
62.8439

>  <b_lp_Chiralities_Consistent>  (27) 
1

>  <s_lp_Variant>  (27) 
12:0-1

>  <s_i_glide_gridfile>  (27) 
pfpi4k_grid

>  <i_i_glide_lignum>  (27) 
16

>  <i_i_glide_rotatable_bonds>  (27) 
4

>  <r_i_docking_score>  (27) 
-4.01574

>  <r_i_glide_ligand_efficiency>  (27) 
-0.138474

>  <r_i_glide_ligand_efficiency_sa>  (27) 
-0.425435

>  <r_i_glide_ligand_efficiency_ln>  (27) 
-0.919502

>  <r_i_glide_gscore>  (27) 
-4.01574

>  <r_i_glide_lipo>  (27) 
-0.810907

>  <r_i_glide_hbond>  (27) 
-0.534401

>  <r_i_glide_metal>  (27) 
-0

>  <r_i_glide_rewards>  (27) 
-0.65116

>  <r_i_glide_evdw>  (27) 
-15.5522

>  <r_i_glide_ecoul>  (27) 
-8.62406

>  <r_i_glide_erotb>  (27) 
0.120059

>  <r_i_glide_esite>  (27) 
-0.0681085

>  <r_i_glide_emodel>  (27) 
-28.8528

>  <r_i_glide_energy>  (27) 
-24.1763

>  <r_i_glide_einternal>  (27) 
3.33671

>  <r_i_glide_intrahb_reward>  (27) 
-0

>  <i_i_glide_confnum>  (27) 
1

>  <i_i_glide_posenum>  (27) 
13

>  <r_i_glide_eff_state_penalty>  (27) 
0

>  <ligand_id>  (27) 
12

>  <original_smiles>  (27) 
COC1OC2OCC(C1O)C1C2=C2C=CC(CO)CC34CC(C)C1C2(C)CC3O4

>  <smiles>  (27) 
[H]OC([H])([H])C1([H])C([H])=C([H])C2=C3C4([H])OC([H])([H])C([H])(C([H])(O[H])C([H])(OC([H])([H])[H])O4)C3([H])C3([H])C([H])(C([H])([H])[H])C([H])([H])C4(OC4([H])C([H])([H])C23C([H])([H])[H])C1([H])[H]

$$$$
12:0:1
     RDKit          3D

 61 66  0  0  1  0  0  0  0  0999 V2000
   -0.3203   -7.3788    1.7643 C   0  0  0  0  0  0  0  0  0  0  0  0
    1.0946   -7.4056    1.9019 O   0  0  0  0  0  0  0  0  0  0  0  0
    1.6054   -6.3711    2.6839 C   0  0  2  0  0  0  0  0  0  0  0  0
    1.4488   -5.1048    2.0663 O   0  0  0  0  0  0  0  0  0  0  0  0
    2.3296   -4.7577    1.0153 C   0  0  2  0  0  0  0  0  0  0  0  0
    2.7975   -5.8601    0.2896 O   0  0  0  0  0  0  0  0  0  0  0  0
    3.9143   -6.5879    0.8198 C   0  0  0  0  0  0  0  0  0  0  0  0
    4.2169   -6.1890    2.2772 C   0  0  2  0  0  0  0  0  0  0  0  0
    3.0631   -6.7526    3.1438 C   0  0  1  0  0  0  0  0  0  0  0  0
    3.2606   -6.5490    4.5306 O   0  0  0  0  0  0  0  0  0  0  0  0
    4.3501   -4.6554    2.4923 C   0  0  2  0  0  0  0  0  0  0  0  0
    3.4531   -3.9315    1.5731 C   0  0  0  0  0  0  0  0  0  0  0  0
    3.8410   -2.6581    1.3906 C   0  0  0  0  0  0  0  0  0  0  0  0
    3.2254   -1.6962    0.4926 C   0  0  0  0  0  0  0  0  0  0  0  0
    3.2597   -1.7103   -0.8533 C   0  0  0  0  0  0  0  0  0  0  0  0
    3.7767   -2.7516   -1.8184 C   0  0  1  0  0  0  0  0  0  0  0  0
    2.9415   -2.7448   -3.1097 C   0  0  0  0  0  0  0  0  0  0  0  0
    3.3452   -3.8270   -3.9196 O   0  0  0  0  0  0  0  0  0  0  0  0
    5.2852   -2.5163   -2.0662 C   0  0  0  0  0  0  0  0  0  0  0  0
    6.0597   -2.5903   -0.7605 C   0  0  2  0  0  0  0  0  0  0  0  0
    6.1646   -4.0160   -0.2222 C   0  0  0  0  0  0  0  0  0  0  0  0
    6.6060   -4.3194    1.2213 C   0  0  1  0  0  0  0  0  0  0  0  0
    8.1347   -4.1240    1.4025 C   0  0  0  0  0  0  0  0  0  0  0  0
    5.6734   -3.8303    2.3779 C   0  0  1  0  0  0  0  0  0  0  0  0
    5.1180   -2.3679    2.1736 C   0  0  2  0  0  0  0  0  0  0  0  0
    4.7378   -1.7733    3.5439 C   0  0  0  0  0  0  0  0  0  0  0  0
    6.0997   -1.3355    1.5211 C   0  0  0  0  0  0  0  0  0  0  0  0
    6.1761   -1.3029    0.0203 C   0  0  1  0  0  0  0  0  0  0  0  0
    7.3015   -1.8860   -0.6688 O   0  0  0  0  0  0  0  0  0  0  0  0
   -0.6705   -8.2476    1.2112 H   0  0  0  0  0  0  0  0  0  0  0  0
   -0.6305   -6.4851    1.2248 H   0  0  0  0  0  0  0  0  0  0  0  0
   -0.8274   -7.3978    2.7300 H   0  0  0  0  0  0  0  0  0  0  0  0
    0.9702   -6.3374    3.5777 H   0  0  0  0  0  0  0  0  0  0  0  0
    1.8498   -4.0950    0.2947 H   0  0  0  0  0  0  0  0  0  0  0  0
    3.7039   -7.6550    0.7438 H   0  0  0  0  0  0  0  0  0  0  0  0
    4.7769   -6.4433    0.1812 H   0  0  0  0  0  0  0  0  0  0  0  0
    5.1445   -6.6702    2.5978 H   0  0  0  0  0  0  0  0  0  0  0  0
    3.1192   -7.8368    3.0456 H   0  0  0  0  0  0  0  0  0  0  0  0
    2.6779   -7.1274    4.9986 H   0  0  0  0  0  0  0  0  0  0  0  0
    3.9693   -4.4517    3.4899 H   0  0  0  0  0  0  0  0  0  0  0  0
    2.7296   -0.8489    0.9484 H   0  0  0  0  0  0  0  0  0  0  0  0
    2.8040   -0.8676   -1.3641 H   0  0  0  0  0  0  0  0  0  0  0  0
    3.5917   -3.7067   -1.3434 H   0  0  0  0  0  0  0  0  0  0  0  0
    1.8803   -2.8609   -2.8945 H   0  0  0  0  0  0  0  0  0  0  0  0
    3.0392   -1.8110   -3.6617 H   0  0  0  0  0  0  0  0  0  0  0  0
    3.0990   -4.6269   -3.4489 H   0  0  0  0  0  0  0  0  0  0  0  0
    5.6921   -3.2332   -2.7833 H   0  0  0  0  0  0  0  0  0  0  0  0
    5.4161   -1.5214   -2.5049 H   0  0  0  0  0  0  0  0  0  0  0  0
    5.2564   -4.5561   -0.4943 H   0  0  0  0  0  0  0  0  0  0  0  0
    7.0265   -4.4325   -0.7262 H   0  0  0  0  0  0  0  0  0  0  0  0
    6.5537   -5.4045    1.2649 H   0  0  0  0  0  0  0  0  0  0  0  0
    8.4400   -3.0835    1.2795 H   0  0  0  0  0  0  0  0  0  0  0  0
    8.7029   -4.7026    0.6719 H   0  0  0  0  0  0  0  0  0  0  0  0
    8.4972   -4.5108    2.3580 H   0  0  0  0  0  0  0  0  0  0  0  0
    6.1820   -3.9527    3.3325 H   0  0  0  0  0  0  0  0  0  0  0  0
    5.6232   -1.7186    4.1809 H   0  0  0  0  0  0  0  0  0  0  0  0
    3.9819   -2.3700    4.0585 H   0  0  0  0  0  0  0  0  0  0  0  0
    4.3327   -0.7661    3.4281 H   0  0  0  0  0  0  0  0  0  0  0  0
    5.8035   -0.3247    1.8068 H   0  0  0  0  0  0  0  0  0  0  0  0
    7.0884   -1.4599    1.9248 H   0  0  0  0  0  0  0  0  0  0  0  0
    5.7890   -0.3873   -0.4452 H   0  0  0  0  0  0  0  0  0  0  0  0
  1  2  1  0
  1 30  1  0
  1 31  1  0
  1 32  1  0
  2  3  1  0
  3  9  1  0
  3  4  1  0
  3 33  1  1
  4  5  1  0
  5 12  1  0
  5  6  1  0
  5 34  1  6
  6  7  1  0
  7  8  1  0
  7 35  1  0
  7 36  1  0
  8  9  1  0
  8 11  1  0
  8 37  1  1
  9 10  1  0
  9 38  1  1
 10 39  1  0
 11 24  1  0
 11 12  1  0
 11 40  1  1
 12 13  2  0
 13 25  1  0
 13 14  1  0
 14 15  2  3
 14 41  1  0
 15 16  1  0
 15 42  1  0
 16 17  1  0
 16 19  1  0
 16 43  1  1
 17 18  1  0
 17 44  1  0
 17 45  1  0
 18 46  1  0
 19 20  1  0
 19 47  1  0
 19 48  1  0
 20 28  1  0
 20 29  1  6
 20 21  1  0
 21 22  1  0
 21 49  1  0
 21 50  1  0
 22 23  1  0
 22 24  1  0
 22 51  1  6
 23 52  1  0
 23 53  1  0
 23 54  1  0
 24 25  1  0
 24 55  1  1
 25 26  1  1
 25 27  1  0
 26 56  1  0
 26 57  1  0
 26 58  1  0
 27 28  1  0
 27 59  1  0
 27 60  1  0
 28 29  1  0
 28 61  1  6
M  END
>  <i_m_ct_stereo_status>  (28) 
1

>  <s_m_source_file>  (28) 
/var/tmp/pbs.5076255.sched01/tmppe38rura/0ules8z9c.sdf

>  <i_m_source_file_index>  (28) 
16

>  <i_lp_mmshare_version>  (28) 
48012

>  <i_f3d_flags>  (28) 
0

>  <s_epik_input>  (28) 
W0NIMl0xW0NAQEhdKFtDSDNdKVtDQEBIXTJbQ0BASF0zW0NASF0oW0NIMl1PNClbQ0BASF0oW09IXSlbQ0BIXShPW0NIM10pT1tDQEhdNEMzPUMoW0NAXTIoW0NIM10pW0NIMl1bQ0BIXShbQ0BAXTE1NilPNikvW0NIXT1bQ0hdXFtDQEhdKFtDSDJdNSlbQ0gyXVtPSF0=

>  <s_epik_cmdline>  (28) 
J2VwaWtfcHl0aG9uJywgJy1waHQnLCAnMi4wJywgJy1waCcsICc3LjAnLCAnLXRuJywgJzgnLCAnLW1hJywgJzIwMCcsICctaW1hZScsICc8aW5maWxlLm1hZT4nLCAnLW9tYWUnLCAnPG91dGZpbGUubWFlPic=

>  <r_lp_tautomer_probability>  (28) 
1

>  <r_epik_Ionization_Penalty>  (28) 
2.73022e-06

>  <r_epik_Ionization_Penalty_Charging>  (28) 
0

>  <r_epik_Ionization_Penalty_Neutral>  (28) 
2.73022e-06

>  <r_epik_State_Penalty>  (28) 
-0

>  <r_epik_Charging_Adjusted_Penalty>  (28) 
0

>  <i_epik_Tot_Q>  (28) 
0

>  <i_epik_Tot_abs_Q>  (28) 
0

>  <s_epik_Chemistry_Notes>  (28) 
This compound contains an acetal/aminal-like group ( X-CH(R)-Y where X, Y are N, S, or O) that may be acid/base labile, releasing an aldehyde.

>  <s_lp_Force_Field>  (28) 
OPLS3e

>  <r_lp_Energy>  (28) 
62.8439

>  <b_lp_Chiralities_Consistent>  (28) 
1

>  <s_lp_Variant>  (28) 
12:0-1

>  <s_i_glide_gridfile>  (28) 
pfpi4k_grid

>  <i_i_glide_lignum>  (28) 
16

>  <i_i_glide_rotatable_bonds>  (28) 
4

>  <r_i_docking_score>  (28) 
-3.82765

>  <r_i_glide_ligand_efficiency>  (28) 
-0.131988

>  <r_i_glide_ligand_efficiency_sa>  (28) 
-0.405509

>  <r_i_glide_ligand_efficiency_ln>  (28) 
-0.876435

>  <r_i_glide_gscore>  (28) 
-3.82765

>  <r_i_glide_lipo>  (28) 
-0.797556

>  <r_i_glide_hbond>  (28) 
-0.529621

>  <r_i_glide_metal>  (28) 
-0

>  <r_i_glide_rewards>  (28) 
-0.65116

>  <r_i_glide_evdw>  (28) 
-12.9193

>  <r_i_glide_ecoul>  (28) 
-8.40757

>  <r_i_glide_erotb>  (28) 
0.120059

>  <r_i_glide_esite>  (28) 
-0.0622708

>  <r_i_glide_emodel>  (28) 
-27.4898

>  <r_i_glide_energy>  (28) 
-21.3269

>  <r_i_glide_einternal>  (28) 
0.526556

>  <r_i_glide_intrahb_reward>  (28) 
-0

>  <i_i_glide_confnum>  (28) 
4

>  <i_i_glide_posenum>  (28) 
16

>  <r_i_glide_eff_state_penalty>  (28) 
0

>  <ligand_id>  (28) 
12

>  <original_smiles>  (28) 
COC1OC2OCC(C1O)C1C2=C2C=CC(CO)CC34CC(C)C1C2(C)CC3O4

>  <smiles>  (28) 
[H]OC([H])([H])C1([H])C([H])=C([H])C2=C3C4([H])OC([H])([H])C([H])(C([H])(O[H])C([H])(OC([H])([H])[H])O4)C3([H])C3([H])C([H])(C([H])([H])[H])C([H])([H])C4(OC4([H])C([H])([H])C23C([H])([H])[H])C1([H])[H]

$$$$
12:0:2
     RDKit          3D

 61 66  0  0  1  0  0  0  0  0999 V2000
    3.3295   -2.2399   -2.3813 C   0  0  0  0  0  0  0  0  0  0  0  0
    4.0986   -2.0870   -1.1952 O   0  0  0  0  0  0  0  0  0  0  0  0
    5.1021   -3.0434   -1.0443 C   0  0  2  0  0  0  0  0  0  0  0  0
    4.6121   -4.3623   -0.9589 O   0  0  0  0  0  0  0  0  0  0  0  0
    3.9766   -4.7801    0.2246 C   0  0  2  0  0  0  0  0  0  0  0  0
    3.3933   -3.7353    0.9736 O   0  0  0  0  0  0  0  0  0  0  0  0
    4.2639   -2.9418    1.8001 C   0  0  0  0  0  0  0  0  0  0  0  0
    5.7512   -3.2178    1.5083 C   0  0  2  0  0  0  0  0  0  0  0  0
    6.0585   -2.5982    0.1182 C   0  0  1  0  0  0  0  0  0  0  0  0
    7.4226   -2.6816   -0.2494 O   0  0  0  0  0  0  0  0  0  0  0  0
    6.1087   -4.7304    1.5587 C   0  0  2  0  0  0  0  0  0  0  0  0
    4.9736   -5.5503    1.0656 C   0  0  0  0  0  0  0  0  0  0  0  0
    5.0455   -6.8283    1.4803 C   0  0  0  0  0  0  0  0  0  0  0  0
    4.0817   -7.8850    1.1960 C   0  0  0  0  0  0  0  0  0  0  0  0
    2.8255   -7.9786    1.6852 C   0  0  0  0  0  0  0  0  0  0  0  0
    2.1008   -6.9966    2.6089 C   0  0  1  0  0  0  0  0  0  0  0  0
    0.5716   -7.0490    2.3996 C   0  0  0  0  0  0  0  0  0  0  0  0
    0.2149   -6.6572    1.0856 O   0  0  0  0  0  0  0  0  0  0  0  0
    2.4706   -7.1945    4.1100 C   0  0  0  0  0  0  0  0  0  0  0  0
    3.9520   -6.9634    4.3921 C   0  0  2  0  0  0  0  0  0  0  0  0
    4.3466   -5.4876    4.3453 C   0  0  0  0  0  0  0  0  0  0  0  0
    5.8434   -5.0878    4.1540 C   0  0  1  0  0  0  0  0  0  0  0  0
    6.6937   -5.2958    5.4251 C   0  0  0  0  0  0  0  0  0  0  0  0
    6.5546   -5.5244    2.8223 C   0  0  1  0  0  0  0  0  0  0  0  0
    6.2927   -7.0030    2.3615 C   0  0  2  0  0  0  0  0  0  0  0  0
    7.4618   -7.4972    1.4680 C   0  0  0  0  0  0  0  0  0  0  0  0
    6.1914   -8.0183    3.5356 C   0  0  0  0  0  0  0  0  0  0  0  0
    4.8359   -8.1590    4.1725 C   0  0  1  0  0  0  0  0  0  0  0  0
    4.5768   -7.6438    5.4859 O   0  0  0  0  0  0  0  0  0  0  0  0
    2.6155   -1.4199   -2.4629 H   0  0  0  0  0  0  0  0  0  0  0  0
    2.7664   -3.1727   -2.3607 H   0  0  0  0  0  0  0  0  0  0  0  0
    3.9468   -2.2278   -3.2820 H   0  0  0  0  0  0  0  0  0  0  0  0
    5.6666   -3.0238   -1.9801 H   0  0  0  0  0  0  0  0  0  0  0  0
    3.1797   -5.4577   -0.0762 H   0  0  0  0  0  0  0  0  0  0  0  0
    4.0314   -1.8865    1.6467 H   0  0  0  0  0  0  0  0  0  0  0  0
    4.0491   -3.1059    2.8500 H   0  0  0  0  0  0  0  0  0  0  0  0
    6.3687   -2.6861    2.2314 H   0  0  0  0  0  0  0  0  0  0  0  0
    5.9102   -1.5215    0.2162 H   0  0  0  0  0  0  0  0  0  0  0  0
    7.6461   -3.5909   -0.3854 H   0  0  0  0  0  0  0  0  0  0  0  0
    6.8994   -4.8718    0.8245 H   0  0  0  0  0  0  0  0  0  0  0  0
    4.4201   -8.6973    0.5688 H   0  0  0  0  0  0  0  0  0  0  0  0
    2.2599   -8.8613    1.4206 H   0  0  0  0  0  0  0  0  0  0  0  0
    2.4035   -6.0002    2.3019 H   0  0  0  0  0  0  0  0  0  0  0  0
    0.1709   -8.0448    2.6008 H   0  0  0  0  0  0  0  0  0  0  0  0
    0.0849   -6.3657    3.0949 H   0  0  0  0  0  0  0  0  0  0  0  0
    0.4007   -7.3901    0.5129 H   0  0  0  0  0  0  0  0  0  0  0  0
    1.8845   -6.5268    4.7407 H   0  0  0  0  0  0  0  0  0  0  0  0
    2.2026   -8.2072    4.4185 H   0  0  0  0  0  0  0  0  0  0  0  0
    3.7552   -5.0235    3.5704 H   0  0  0  0  0  0  0  0  0  0  0  0
    3.9798   -5.0365    5.2668 H   0  0  0  0  0  0  0  0  0  0  0  0
    5.8117   -4.0013    4.0979 H   0  0  0  0  0  0  0  0  0  0  0  0
    6.7343   -6.3291    5.7594 H   0  0  0  0  0  0  0  0  0  0  0  0
    6.2866   -4.7160    6.2551 H   0  0  0  0  0  0  0  0  0  0  0  0
    7.7212   -4.9601    5.2795 H   0  0  0  0  0  0  0  0  0  0  0  0
    7.6253   -5.3729    2.9514 H   0  0  0  0  0  0  0  0  0  0  0  0
    8.4051   -7.4888    2.0174 H   0  0  0  0  0  0  0  0  0  0  0  0
    7.6021   -6.8908    0.5745 H   0  0  0  0  0  0  0  0  0  0  0  0
    7.2893   -8.5176    1.1225 H   0  0  0  0  0  0  0  0  0  0  0  0
    6.4314   -9.0138    3.1597 H   0  0  0  0  0  0  0  0  0  0  0  0
    6.9561   -7.8358    4.2877 H   0  0  0  0  0  0  0  0  0  0  0  0
    4.3561   -9.1172    3.9896 H   0  0  0  0  0  0  0  0  0  0  0  0
  1  2  1  0
  1 30  1  0
  1 31  1  0
  1 32  1  0
  2  3  1  0
  3  9  1  0
  3  4  1  0
  3 33  1  6
  4  5  1  0
  5 12  1  0
  5  6  1  0
  5 34  1  6
  6  7  1  0
  7  8  1  0
  7 35  1  0
  7 36  1  0
  8  9  1  0
  8 11  1  0
  8 37  1  1
  9 10  1  0
  9 38  1  1
 10 39  1  0
 11 24  1  0
 11 12  1  0
 11 40  1  6
 12 13  2  0
 13 25  1  0
 13 14  1  0
 14 15  2  3
 14 41  1  0
 15 16  1  0
 15 42  1  0
 16 17  1  0
 16 19  1  0
 16 43  1  6
 17 18  1  0
 17 44  1  0
 17 45  1  0
 18 46  1  0
 19 20  1  0
 19 47  1  0
 19 48  1  0
 20 28  1  0
 20 29  1  1
 20 21  1  0
 21 22  1  0
 21 49  1  0
 21 50  1  0
 22 23  1  0
 22 24  1  0
 22 51  1  6
 23 52  1  0
 23 53  1  0
 23 54  1  0
 24 25  1  0
 24 55  1  1
 25 26  1  6
 25 27  1  0
 26 56  1  0
 26 57  1  0
 26 58  1  0
 27 28  1  0
 27 59  1  0
 27 60  1  0
 28 29  1  0
 28 61  1  1
M  END
>  <i_m_ct_stereo_status>  (29) 
1

>  <s_m_source_file>  (29) 
/var/tmp/pbs.5076255.sched01/tmppe38rura/0ules8z9c.sdf

>  <i_m_source_file_index>  (29) 
16

>  <i_lp_mmshare_version>  (29) 
48012

>  <i_f3d_flags>  (29) 
0

>  <s_epik_input>  (29) 
W0NIMl0xW0NAQEhdKFtDSDNdKVtDQEBIXTJbQ0BASF0zW0NASF0oW0NIMl1PNClbQ0BASF0oW09IXSlbQ0BIXShPW0NIM10pT1tDQEhdNEMzPUMoW0NAXTIoW0NIM10pW0NIMl1bQ0BIXShbQ0BAXTE1NilPNikvW0NIXT1bQ0hdXFtDQEhdKFtDSDJdNSlbQ0gyXVtPSF0=

>  <s_epik_cmdline>  (29) 
J2VwaWtfcHl0aG9uJywgJy1waHQnLCAnMi4wJywgJy1waCcsICc3LjAnLCAnLXRuJywgJzgnLCAnLW1hJywgJzIwMCcsICctaW1hZScsICc8aW5maWxlLm1hZT4nLCAnLW9tYWUnLCAnPG91dGZpbGUubWFlPic=

>  <r_lp_tautomer_probability>  (29) 
1

>  <r_epik_Ionization_Penalty>  (29) 
2.73022e-06

>  <r_epik_Ionization_Penalty_Charging>  (29) 
0

>  <r_epik_Ionization_Penalty_Neutral>  (29) 
2.73022e-06

>  <r_epik_State_Penalty>  (29) 
-0

>  <r_epik_Charging_Adjusted_Penalty>  (29) 
0

>  <i_epik_Tot_Q>  (29) 
0

>  <i_epik_Tot_abs_Q>  (29) 
0

>  <s_epik_Chemistry_Notes>  (29) 
This compound contains an acetal/aminal-like group ( X-CH(R)-Y where X, Y are N, S, or O) that may be acid/base labile, releasing an aldehyde.

>  <s_lp_Force_Field>  (29) 
OPLS3e

>  <r_lp_Energy>  (29) 
62.8439

>  <b_lp_Chiralities_Consistent>  (29) 
1

>  <s_lp_Variant>  (29) 
12:0-1

>  <s_i_glide_gridfile>  (29) 
pfpi4k_grid

>  <i_i_glide_lignum>  (29) 
16

>  <i_i_glide_rotatable_bonds>  (29) 
4

>  <r_i_docking_score>  (29) 
-2.78069

>  <r_i_glide_ligand_efficiency>  (29) 
-0.0958857

>  <r_i_glide_ligand_efficiency_sa>  (29) 
-0.294591

>  <r_i_glide_ligand_efficiency_ln>  (29) 
-0.636707

>  <r_i_glide_gscore>  (29) 
-2.78069

>  <r_i_glide_lipo>  (29) 
-0.406223

>  <r_i_glide_hbond>  (29) 
-0.151203

>  <r_i_glide_metal>  (29) 
-0

>  <r_i_glide_rewards>  (29) 
-0.692588

>  <r_i_glide_evdw>  (29) 
-23.2082

>  <r_i_glide_ecoul>  (29) 
-3.25719

>  <r_i_glide_erotb>  (29) 
0.120059

>  <r_i_glide_esite>  (29) 
-0.00174061

>  <r_i_glide_emodel>  (29) 
-31.0215

>  <r_i_glide_energy>  (29) 
-26.4654

>  <r_i_glide_einternal>  (29) 
0.792012

>  <r_i_glide_intrahb_reward>  (29) 
-0

>  <i_i_glide_confnum>  (29) 
3

>  <i_i_glide_posenum>  (29) 
12

>  <r_i_glide_eff_state_penalty>  (29) 
0

>  <ligand_id>  (29) 
12

>  <original_smiles>  (29) 
COC1OC2OCC(C1O)C1C2=C2C=CC(CO)CC34CC(C)C1C2(C)CC3O4

>  <smiles>  (29) 
[H]OC([H])([H])C1([H])C([H])=C([H])C2=C3C4([H])OC([H])([H])C([H])(C([H])(O[H])C([H])(OC([H])([H])[H])O4)C3([H])C3([H])C([H])(C([H])([H])[H])C([H])([H])C4(OC4([H])C([H])([H])C23C([H])([H])[H])C1([H])[H]

$$$$
13:0:0
     RDKit          3D

 32 37  0  0  1  0  0  0  0  0999 V2000
    2.6926   -6.0640    0.7279 C   0  0  0  0  0  0  0  0  0  0  0  0
    1.2865   -6.1941    0.8367 O   0  0  0  0  0  0  0  0  0  0  0  0
    0.6611   -6.6764    1.9476 C   0  0  0  0  0  0  0  0  0  0  0  0
   -0.5652   -6.6639    2.0812 O   0  0  0  0  0  0  0  0  0  0  0  0
    1.5827   -7.1232    3.1252 C   0  0  2  0  0  0  0  0  0  0  0  0
    2.8580   -8.1456    2.8460 C   0  0  1  0  0  0  0  0  0  0  0  0
    3.2977   -8.2466    4.3781 C   0  0  2  0  0  0  0  0  0  0  0  0
    2.7659   -8.5787    5.9902 C   0  0  0  0  0  0  0  0  0  0  0  0
    1.4307   -9.5720    6.0875 C   0  0  1  0  0  0  0  0  0  0  0  0
    0.3357   -9.0431    5.1696 C   0  0  2  0  0  0  0  0  0  0  0  0
    0.8322  -10.5383    4.8982 C   0  0  1  0  0  0  0  0  0  0  0  0
    1.4287  -10.7859    3.3415 C   0  0  1  0  0  0  0  0  0  0  0  0
    2.4239   -9.6870    2.3341 C   0  0  2  0  0  0  0  0  0  0  0  0
    1.2676   -9.5317    2.8591 C   0  0  2  0  0  0  0  0  0  0  0  0
    1.9206   -8.5964    3.9004 C   0  0  2  0  0  0  0  0  0  0  0  0
    0.8501   -7.7080    4.4480 C   0  0  2  0  0  0  0  0  0  0  0  0
    3.0384   -5.6312   -0.2014 H   0  0  0  0  0  0  0  0  0  0  0  0
    3.1097   -7.0617    0.6821 H   0  0  0  0  0  0  0  0  0  0  0  0
    3.0940   -5.5196    1.5731 H   0  0  0  0  0  0  0  0  0  0  0  0
    2.0127   -6.1766    3.4599 H   0  0  0  0  0  0  0  0  0  0  0  0
    3.7724   -7.7901    2.3838 H   0  0  0  0  0  0  0  0  0  0  0  0
    4.2445   -8.7980    4.2031 H   0  0  0  0  0  0  0  0  0  0  0  0
    3.6014   -9.0293    6.5156 H   0  0  0  0  0  0  0  0  0  0  0  0
    2.5887   -7.6415    6.5064 H   0  0  0  0  0  0  0  0  0  0  0  0
    1.1541   -9.8216    7.1009 H   0  0  0  0  0  0  0  0  0  0  0  0
   -0.6564   -8.9651    5.6064 H   0  0  0  0  0  0  0  0  0  0  0  0
    0.2126  -11.3454    5.2742 H   0  0  0  0  0  0  0  0  0  0  0  0
    0.9575  -11.5815    2.7743 H   0  0  0  0  0  0  0  0  0  0  0  0
    2.4221   -9.8473    1.2705 H   0  0  0  0  0  0  0  0  0  0  0  0
    0.3891   -9.2687    2.2699 H   0  0  0  0  0  0  0  0  0  0  0  0
    2.5842   -9.4733    4.3065 H   0  0  0  0  0  0  0  0  0  0  0  0
    1.0609   -6.9823    5.2394 H   0  0  0  0  0  0  0  0  0  0  0  0
  1  2  1  0
  1 17  1  0
  1 18  1  0
  1 19  1  0
  2  3  1  0
  3  4  2  0
  3  5  1  0
  5 16  1  0
  5  6  1  0
  5 20  1  1
  6 13  1  0
  6  7  1  0
  6 21  1  6
  7 15  1  0
  7  8  1  0
  7 22  1  6
  8  9  1  0
  8 23  1  0
  8 24  1  0
  9 11  1  0
  9 10  1  0
  9 25  1  1
 10 16  1  0
 10 11  1  0
 10 26  1  1
 11 12  1  0
 11 27  1  1
 12 14  1  0
 12 13  1  0
 12 28  1  6
 13 14  1  0
 13 29  1  6
 14 15  1  0
 14 30  1  6
 15 16  1  0
 15 31  1  1
 16 32  1  1
M  END
>  <i_m_ct_stereo_status>  (30) 
1

>  <s_m_source_file>  (30) 
/var/tmp/pbs.5076255.sched01/tmppe38rura/0ules8z9c.sdf

>  <i_m_source_file_index>  (30) 
18

>  <i_lp_mmshare_version>  (30) 
48012

>  <i_f3d_flags>  (30) 
0

>  <s_epik_input>  (30) 
W0NIM11PQyg9TylbQ0BIXTFbQ0hdMltDQEBIXTNbQ0BIXShbQ0gyXTQpW0NAQEhdM1tDSF0oW0NASF01NilbQ0BIXTZbQ0BIXTJbQ0BIXTRbQ0BIXTE1

>  <s_epik_cmdline>  (30) 
J2VwaWtfcHl0aG9uJywgJy1waHQnLCAnMi4wJywgJy1waCcsICc3LjAnLCAnLXRuJywgJzgnLCAnLW1hJywgJzIwMCcsICctaW1hZScsICc8aW5maWxlLm1hZT4nLCAnLW9tYWUnLCAnPG91dGZpbGUubWFlPic=

>  <r_lp_tautomer_probability>  (30) 
1

>  <r_epik_Ionization_Penalty>  (30) 
0

>  <r_epik_Ionization_Penalty_Charging>  (30) 
0

>  <r_epik_Ionization_Penalty_Neutral>  (30) 
0

>  <r_epik_State_Penalty>  (30) 
-0

>  <r_epik_Charging_Adjusted_Penalty>  (30) 
0

>  <i_epik_Tot_Q>  (30) 
0

>  <i_epik_Tot_abs_Q>  (30) 
0

>  <s_epik_Chemistry_Notes>  (30) 
This compound has an ester and may undergo hydrolysis at high or low pH.

>  <s_lp_Force_Field>  (30) 
OPLS3e

>  <r_lp_Energy>  (30) 
509.411

>  <b_lp_Chiralities_Consistent>  (30) 
1

>  <s_lp_Variant>  (30) 
13:0-1

>  <s_i_glide_gridfile>  (30) 
pfpi4k_grid

>  <i_i_glide_lignum>  (30) 
18

>  <i_i_glide_rotatable_bonds>  (30) 
2

>  <r_i_docking_score>  (30) 
-4.06875

>  <r_i_glide_ligand_efficiency>  (30) 
-0.254297

>  <r_i_glide_ligand_efficiency_sa>  (30) 
-0.640788

>  <r_i_glide_ligand_efficiency_ln>  (30) 
-1.0785

>  <r_i_glide_gscore>  (30) 
-4.06875

>  <r_i_glide_lipo>  (30) 
-0.217517

>  <r_i_glide_hbond>  (30) 
-0.308148

>  <r_i_glide_metal>  (30) 
-0

>  <r_i_glide_rewards>  (30) 
-1.93448

>  <r_i_glide_evdw>  (30) 
-17.1756

>  <r_i_glide_ecoul>  (30) 
-4.45122

>  <r_i_glide_erotb>  (30) 
0

>  <r_i_glide_esite>  (30) 
-0.0821408

>  <r_i_glide_emodel>  (30) 
-24.4262

>  <r_i_glide_energy>  (30) 
-21.6268

>  <r_i_glide_einternal>  (30) 
5.23893

>  <r_i_glide_intrahb_reward>  (30) 
-0

>  <i_i_glide_confnum>  (30) 
1

>  <i_i_glide_posenum>  (30) 
1

>  <r_i_glide_eff_state_penalty>  (30) 
0

>  <ligand_id>  (30) 
13

>  <original_smiles>  (30) 
COC(=O)C1C2C3CC4C5C4C4C2C4C3C15

>  <smiles>  (30) 
[H]C([H])([H])OC(=O)C1([H])C2([H])C3([H])C4([H])C([H])([H])C5([H])C1([H])C1([H])C([H])(C52[H])C1([H])C43[H]

$$$$
13:0:1
     RDKit          3D

 32 37  0  0  1  0  0  0  0  0999 V2000
    3.9889   -7.3154    1.3816 C   0  0  0  0  0  0  0  0  0  0  0  0
    2.8369   -6.5095    1.1393 O   0  0  0  0  0  0  0  0  0  0  0  0
    1.5454   -6.9280    1.3656 C   0  0  0  0  0  0  0  0  0  0  0  0
    0.5523   -6.2997    1.0220 O   0  0  0  0  0  0  0  0  0  0  0  0
    1.3738   -8.2953    2.0793 C   0  0  2  0  0  0  0  0  0  0  0  0
   -0.1327   -8.7718    2.5520 C   0  0  1  0  0  0  0  0  0  0  0  0
    0.3685  -10.1685    3.2322 C   0  0  2  0  0  0  0  0  0  0  0  0
    1.5093  -10.8518    4.3969 C   0  0  0  0  0  0  0  0  0  0  0  0
    2.0263   -9.7719    5.5789 C   0  0  1  0  0  0  0  0  0  0  0  0
    2.4678   -8.4507    4.9419 C   0  0  2  0  0  0  0  0  0  0  0  0
    1.2870   -8.3466    6.0028 C   0  0  1  0  0  0  0  0  0  0  0  0
   -0.1516   -7.6786    5.3902 C   0  0  1  0  0  0  0  0  0  0  0  0
   -0.8899   -7.8691    3.7687 C   0  0  2  0  0  0  0  0  0  0  0  0
    0.2698   -7.4724    4.1143 C   0  0  2  0  0  0  0  0  0  0  0  0
    0.8293   -8.8268    3.6409 C   0  0  2  0  0  0  0  0  0  0  0  0
    2.3263   -8.6128    3.3409 C   0  0  2  0  0  0  0  0  0  0  0  0
    4.8987   -6.8319    1.0091 H   0  0  0  0  0  0  0  0  0  0  0  0
    3.8899   -8.2801    0.8805 H   0  0  0  0  0  0  0  0  0  0  0  0
    4.1182   -7.4950    2.4505 H   0  0  0  0  0  0  0  0  0  0  0  0
    1.6702   -9.0218    1.2925 H   0  0  0  0  0  0  0  0  0  0  0  0
   -0.8255   -8.9248    1.7157 H   0  0  0  0  0  0  0  0  0  0  0  0
   -0.6255  -10.6364    3.4506 H   0  0  0  0  0  0  0  0  0  0  0  0
    1.0466  -11.7074    4.8859 H   0  0  0  0  0  0  0  0  0  0  0  0
    2.3734  -11.2460    3.8776 H   0  0  0  0  0  0  0  0  0  0  0  0
    2.7185  -10.1924    6.3002 H   0  0  0  0  0  0  0  0  0  0  0  0
    3.4404   -8.0463    5.2440 H   0  0  0  0  0  0  0  0  0  0  0  0
    1.5734   -7.9948    6.9866 H   0  0  0  0  0  0  0  0  0  0  0  0
   -0.4966   -6.7962    5.9239 H   0  0  0  0  0  0  0  0  0  0  0  0
   -1.5835   -7.0954    3.4348 H   0  0  0  0  0  0  0  0  0  0  0  0
    0.6692   -6.5129    3.8316 H   0  0  0  0  0  0  0  0  0  0  0  0
    0.2362   -9.3953    4.4465 H   0  0  0  0  0  0  0  0  0  0  0  0
    2.9390   -9.4363    3.0429 H   0  0  0  0  0  0  0  0  0  0  0  0
  1  2  1  0
  1 17  1  0
  1 18  1  0
  1 19  1  0
  2  3  1  0
  3  4  2  0
  3  5  1  0
  5 16  1  0
  5  6  1  0
  5 20  1  6
  6 13  1  0
  6  7  1  0
  6 21  1  6
  7 15  1  0
  7  8  1  0
  7 22  1  1
  8  9  1  0
  8 23  1  0
  8 24  1  0
  9 11  1  0
  9 10  1  0
  9 25  1  1
 10 16  1  0
 10 11  1  0
 10 26  1  6
 11 12  1  0
 11 27  1  1
 12 14  1  0
 12 13  1  0
 12 28  1  1
 13 14  1  0
 13 29  1  1
 14 15  1  0
 14 30  1  1
 15 16  1  0
 15 31  1  1
 16 32  1  6
M  END
>  <i_m_ct_stereo_status>  (31) 
1

>  <s_m_source_file>  (31) 
/var/tmp/pbs.5076255.sched01/tmppe38rura/0ules8z9c.sdf

>  <i_m_source_file_index>  (31) 
18

>  <i_lp_mmshare_version>  (31) 
48012

>  <i_f3d_flags>  (31) 
0

>  <s_epik_input>  (31) 
W0NIM11PQyg9TylbQ0BIXTFbQ0hdMltDQEBIXTNbQ0BIXShbQ0gyXTQpW0NAQEhdM1tDSF0oW0NASF01NilbQ0BIXTZbQ0BIXTJbQ0BIXTRbQ0BIXTE1

>  <s_epik_cmdline>  (31) 
J2VwaWtfcHl0aG9uJywgJy1waHQnLCAnMi4wJywgJy1waCcsICc3LjAnLCAnLXRuJywgJzgnLCAnLW1hJywgJzIwMCcsICctaW1hZScsICc8aW5maWxlLm1hZT4nLCAnLW9tYWUnLCAnPG91dGZpbGUubWFlPic=

>  <r_lp_tautomer_probability>  (31) 
1

>  <r_epik_Ionization_Penalty>  (31) 
0

>  <r_epik_Ionization_Penalty_Charging>  (31) 
0

>  <r_epik_Ionization_Penalty_Neutral>  (31) 
0

>  <r_epik_State_Penalty>  (31) 
-0

>  <r_epik_Charging_Adjusted_Penalty>  (31) 
0

>  <i_epik_Tot_Q>  (31) 
0

>  <i_epik_Tot_abs_Q>  (31) 
0

>  <s_epik_Chemistry_Notes>  (31) 
This compound has an ester and may undergo hydrolysis at high or low pH.

>  <s_lp_Force_Field>  (31) 
OPLS3e

>  <r_lp_Energy>  (31) 
509.411

>  <b_lp_Chiralities_Consistent>  (31) 
1

>  <s_lp_Variant>  (31) 
13:0-1

>  <s_i_glide_gridfile>  (31) 
pfpi4k_grid

>  <i_i_glide_lignum>  (31) 
18

>  <i_i_glide_rotatable_bonds>  (31) 
2

>  <r_i_docking_score>  (31) 
-3.64011

>  <r_i_glide_ligand_efficiency>  (31) 
-0.227507

>  <r_i_glide_ligand_efficiency_sa>  (31) 
-0.573282

>  <r_i_glide_ligand_efficiency_ln>  (31) 
-0.964885

>  <r_i_glide_gscore>  (31) 
-3.64011

>  <r_i_glide_lipo>  (31) 
-0.0837999

>  <r_i_glide_hbond>  (31) 
-0.16

>  <r_i_glide_metal>  (31) 
-0

>  <r_i_glide_rewards>  (31) 
-1.93448

>  <r_i_glide_evdw>  (31) 
-18.5007

>  <r_i_glide_ecoul>  (31) 
-3.27246

>  <r_i_glide_erotb>  (31) 
0

>  <r_i_glide_esite>  (31) 
-0.0459271

>  <r_i_glide_emodel>  (31) 
-24.1936

>  <r_i_glide_energy>  (31) 
-21.7731

>  <r_i_glide_einternal>  (31) 
5.34488

>  <r_i_glide_intrahb_reward>  (31) 
-0

>  <i_i_glide_confnum>  (31) 
1

>  <i_i_glide_posenum>  (31) 
30

>  <r_i_glide_eff_state_penalty>  (31) 
0

>  <ligand_id>  (31) 
13

>  <original_smiles>  (31) 
COC(=O)C1C2C3CC4C5C4C4C2C4C3C15

>  <smiles>  (31) 
[H]C([H])([H])OC(=O)C1([H])C2([H])C3([H])C4([H])C([H])([H])C5([H])C1([H])C1([H])C([H])(C52[H])C1([H])C43[H]

$$$$
13:0:2
     RDKit          3D

 32 37  0  0  1  0  0  0  0  0999 V2000
    4.8925   -7.3558    1.5519 C   0  0  0  0  0  0  0  0  0  0  0  0
    3.5784   -6.8431    1.3525 O   0  0  0  0  0  0  0  0  0  0  0  0
    3.3307   -5.6827    0.6610 C   0  0  0  0  0  0  0  0  0  0  0  0
    2.1702   -5.2642    0.4892 O   0  0  0  0  0  0  0  0  0  0  0  0
    4.5451   -4.9642    0.0129 C   0  0  2  0  0  0  0  0  0  0  0  0
    5.8131   -4.4642    0.9630 C   0  0  1  0  0  0  0  0  0  0  0  0
    6.6360   -3.7899   -0.2528 C   0  0  2  0  0  0  0  0  0  0  0  0
    6.5294   -2.6542   -1.5786 C   0  0  0  0  0  0  0  0  0  0  0  0
    5.3864   -1.4536   -1.4005 C   0  0  1  0  0  0  0  0  0  0  0  0
    4.0337   -2.0900   -1.0240 C   0  0  2  0  0  0  0  0  0  0  0  0
    4.6213   -1.0310    0.0039 C   0  0  1  0  0  0  0  0  0  0  0  0
    4.8872   -1.6334    1.5674 C   0  0  1  0  0  0  0  0  0  0  0  0
    5.4662   -3.2427    2.0643 C   0  0  2  0  0  0  0  0  0  0  0  0
    4.4670   -2.9049    1.3467 C   0  0  2  0  0  0  0  0  0  0  0  0
    5.2149   -3.3972    0.0980 C   0  0  2  0  0  0  0  0  0  0  0  0
    4.2111   -3.6939   -0.9648 C   0  0  2  0  0  0  0  0  0  0  0  0
    4.8654   -8.3484    2.0030 H   0  0  0  0  0  0  0  0  0  0  0  0
    5.4529   -6.6681    2.1815 H   0  0  0  0  0  0  0  0  0  0  0  0
    5.3934   -7.4437    0.5896 H   0  0  0  0  0  0  0  0  0  0  0  0
    4.9315   -5.6941   -0.6939 H   0  0  0  0  0  0  0  0  0  0  0  0
    6.4983   -5.2209    1.3912 H   0  0  0  0  0  0  0  0  0  0  0  0
    7.5509   -3.5405    0.3036 H   0  0  0  0  0  0  0  0  0  0  0  0
    7.5207   -2.1964   -1.6793 H   0  0  0  0  0  0  0  0  0  0  0  0
    6.3469   -3.1882   -2.5150 H   0  0  0  0  0  0  0  0  0  0  0  0
    5.3477   -0.7125   -2.2089 H   0  0  0  0  0  0  0  0  0  0  0  0
    3.1610   -1.7435   -1.5969 H   0  0  0  0  0  0  0  0  0  0  0  0
    4.1960   -0.0139   -0.0287 H   0  0  0  0  0  0  0  0  0  0  0  0
    4.3699   -1.0959    2.3688 H   0  0  0  0  0  0  0  0  0  0  0  0
    5.1969   -3.5772    3.0614 H   0  0  0  0  0  0  0  0  0  0  0  0
    3.4331   -3.1865    1.5906 H   0  0  0  0  0  0  0  0  0  0  0  0
    6.0240   -2.6126    0.2588 H   0  0  0  0  0  0  0  0  0  0  0  0
    4.4974   -4.0047   -1.9568 H   0  0  0  0  0  0  0  0  0  0  0  0
  1  2  1  0
  1 17  1  0
  1 18  1  0
  1 19  1  0
  2  3  1  0
  3  4  2  0
  3  5  1  0
  5 16  1  0
  5  6  1  0
  5 20  1  6
  6 13  1  0
  6  7  1  0
  6 21  1  1
  7 15  1  0
  7  8  1  0
  7 22  1  1
  8  9  1  0
  8 23  1  0
  8 24  1  0
  9 11  1  0
  9 10  1  0
  9 25  1  6
 10 16  1  0
 10 11  1  0
 10 26  1  6
 11 12  1  0
 11 27  1  1
 12 14  1  0
 12 13  1  0
 12 28  1  1
 13 14  1  0
 13 29  1  1
 14 15  1  0
 14 30  1  1
 15 16  1  0
 15 31  1  6
 16 32  1  6
M  END
>  <i_m_ct_stereo_status>  (32) 
1

>  <s_m_source_file>  (32) 
/var/tmp/pbs.5076255.sched01/tmppe38rura/0ules8z9c.sdf

>  <i_m_source_file_index>  (32) 
18

>  <i_lp_mmshare_version>  (32) 
48012

>  <i_f3d_flags>  (32) 
0

>  <s_epik_input>  (32) 
W0NIM11PQyg9TylbQ0BIXTFbQ0hdMltDQEBIXTNbQ0BIXShbQ0gyXTQpW0NAQEhdM1tDSF0oW0NASF01NilbQ0BIXTZbQ0BIXTJbQ0BIXTRbQ0BIXTE1

>  <s_epik_cmdline>  (32) 
J2VwaWtfcHl0aG9uJywgJy1waHQnLCAnMi4wJywgJy1waCcsICc3LjAnLCAnLXRuJywgJzgnLCAnLW1hJywgJzIwMCcsICctaW1hZScsICc8aW5maWxlLm1hZT4nLCAnLW9tYWUnLCAnPG91dGZpbGUubWFlPic=

>  <r_lp_tautomer_probability>  (32) 
1

>  <r_epik_Ionization_Penalty>  (32) 
0

>  <r_epik_Ionization_Penalty_Charging>  (32) 
0

>  <r_epik_Ionization_Penalty_Neutral>  (32) 
0

>  <r_epik_State_Penalty>  (32) 
-0

>  <r_epik_Charging_Adjusted_Penalty>  (32) 
0

>  <i_epik_Tot_Q>  (32) 
0

>  <i_epik_Tot_abs_Q>  (32) 
0

>  <s_epik_Chemistry_Notes>  (32) 
This compound has an ester and may undergo hydrolysis at high or low pH.

>  <s_lp_Force_Field>  (32) 
OPLS3e

>  <r_lp_Energy>  (32) 
509.411

>  <b_lp_Chiralities_Consistent>  (32) 
1

>  <s_lp_Variant>  (32) 
13:0-1

>  <s_i_glide_gridfile>  (32) 
pfpi4k_grid

>  <i_i_glide_lignum>  (32) 
18

>  <i_i_glide_rotatable_bonds>  (32) 
2

>  <r_i_docking_score>  (32) 
-3.4566

>  <r_i_glide_ligand_efficiency>  (32) 
-0.216038

>  <r_i_glide_ligand_efficiency_sa>  (32) 
-0.54438

>  <r_i_glide_ligand_efficiency_ln>  (32) 
-0.916241

>  <r_i_glide_gscore>  (32) 
-3.4566

>  <r_i_glide_lipo>  (32) 
-0.40056

>  <r_i_glide_hbond>  (32) 
-0.0225814

>  <r_i_glide_metal>  (32) 
-0

>  <r_i_glide_rewards>  (32) 
-1.93448

>  <r_i_glide_evdw>  (32) 
-19.6103

>  <r_i_glide_ecoul>  (32) 
-0.735747

>  <r_i_glide_erotb>  (32) 
0

>  <r_i_glide_esite>  (32) 
-0.00809956

>  <r_i_glide_emodel>  (32) 
-22.6604

>  <r_i_glide_energy>  (32) 
-20.346

>  <r_i_glide_einternal>  (32) 
5.17437

>  <r_i_glide_intrahb_reward>  (32) 
-0

>  <i_i_glide_confnum>  (32) 
1

>  <i_i_glide_posenum>  (32) 
2

>  <r_i_glide_eff_state_penalty>  (32) 
0

>  <ligand_id>  (32) 
13

>  <original_smiles>  (32) 
COC(=O)C1C2C3CC4C5C4C4C2C4C3C15

>  <smiles>  (32) 
[H]C([H])([H])OC(=O)C1([H])C2([H])C3([H])C4([H])C([H])([H])C5([H])C1([H])C1([H])C([H])(C52[H])C1([H])C43[H]

$$$$
14:0:0
     RDKit          3D

 99109  0  0  1  0  0  0  0  0999 V2000
    2.0075   -3.2762   -2.2447 C   0  0  0  0  0  0  0  0  0  0  0  0
    3.4513   -2.7695   -2.0061 C   0  0  2  0  0  0  0  0  0  0  0  0
    4.3292   -3.4987   -3.0273 C   0  0  1  0  0  0  0  0  0  0  0  0
    3.9463   -3.0360   -4.2914 O   0  0  0  0  0  0  0  0  0  0  0  0
    5.7880   -3.2148   -2.8420 C   0  0  0  0  0  0  0  0  0  0  0  0
    6.1976   -3.5522   -1.4294 C   0  0  0  0  0  0  0  0  0  0  0  0
    5.4886   -2.7421   -0.3476 C   0  0  1  0  0  0  0  0  0  0  0  0
    5.8621   -1.2578   -0.5866 C   0  0  0  0  0  0  0  0  0  0  0  0
    3.9608   -2.9790   -0.5318 C   0  0  1  0  0  0  0  0  0  0  0  0
    3.1634   -2.1522    0.4800 C   0  0  0  0  0  0  0  0  0  0  0  0
    2.4500   -2.8704    1.6091 C   0  0  2  0  0  0  0  0  0  0  0  0
    1.4241   -2.0328    2.1666 O   0  0  0  0  0  0  0  0  0  0  0  0
    1.8404   -0.9238    2.9626 C   0  0  1  0  0  0  0  0  0  0  0  0
    0.6602   -0.3709    3.7616 C   0  0  2  0  0  0  0  0  0  0  0  0
    0.8285    1.1761    3.9452 C   0  0  0  0  0  0  0  0  0  0  0  0
   -0.2729    1.8920    4.7910 C   0  0  2  0  0  0  0  0  0  0  0  0
   -1.6706    1.7433    4.0800 C   0  0  0  0  0  0  0  0  0  0  0  0
   -1.7854    2.5584    2.7923 C   0  0  0  0  0  0  0  0  0  0  0  0
   -1.4633    4.0067    3.0936 C   0  0  0  0  0  0  0  0  0  0  0  0
   -2.2170    4.9385    2.7598 O   0  0  0  0  0  0  0  0  0  0  0  0
   -0.1485    4.2738    3.8097 C   0  0  0  0  0  0  0  0  0  0  0  0
   -0.0331    3.3970    5.0696 C   0  0  1  0  0  0  0  0  0  0  0  0
   -1.0145    3.8636    6.1909 C   0  0  0  0  0  0  0  0  0  0  0  0
   -1.0732    2.9380    7.4537 C   0  0  0  0  0  0  0  0  0  0  0  0
   -1.3759    1.4394    7.1803 C   0  0  0  0  0  0  0  0  0  0  0  0
   -0.9647    0.0856    6.4046 C   0  0  2  0  0  0  0  0  0  0  0  0
    0.1775   -0.9227    6.4361 C   0  0  2  0  0  0  0  0  0  0  0  0
    1.2480   -0.2047    7.0093 O   0  0  0  0  0  0  0  0  0  0  0  0
    1.1032    1.0753    6.8187 C   0  0  0  0  0  0  0  0  0  0  0  0
    1.8974    1.9546    7.1503 O   0  0  0  0  0  0  0  0  0  0  0  0
   -0.2637    1.2717    6.1794 C   0  0  1  0  0  0  0  0  0  0  0  0
    0.6424   -1.3518    4.9978 C   0  0  2  0  0  0  0  0  0  0  0  0
    1.9471   -1.9300    5.0819 O   0  0  0  0  0  0  0  0  0  0  0  0
    2.7896   -1.3934    4.0654 C   0  0  1  0  0  0  0  0  0  0  0  0
    3.9206   -2.3237    3.5697 C   0  0  2  0  0  0  0  0  0  0  0  0
    4.9667   -1.4282    2.8674 C   0  0  0  0  0  0  0  0  0  0  0  0
    6.1177   -2.1067    2.1222 C   0  0  0  0  0  0  0  0  0  0  0  0
    6.0303   -3.2071    1.0548 C   0  0  2  0  0  0  0  0  0  0  0  0
    7.5009   -3.7392    0.9610 C   0  0  0  0  0  0  0  0  0  0  0  0
    5.5165   -4.4322    1.5812 O   0  0  0  0  0  0  0  0  0  0  0  0
    4.2447   -4.6098    2.1909 C   0  0  1  0  0  0  0  0  0  0  0  0
    4.3776   -5.5893    3.3768 C   0  0  0  0  0  0  0  0  0  0  0  0
    4.1584   -7.0595    2.9670 C   0  0  0  0  0  0  0  0  0  0  0  0
    5.6826   -5.4460    4.1724 C   0  0  0  0  0  0  0  0  0  0  0  0
    3.3623   -5.1429    4.2523 O   0  0  0  0  0  0  0  0  0  0  0  0
    2.4805   -4.2470    3.4459 O   0  0  0  0  0  0  0  0  0  0  0  0
    3.3486   -3.4437    2.6765 C   0  0  2  0  0  0  0  0  0  0  0  0
    1.8733   -4.3110   -1.9493 H   0  0  0  0  0  0  0  0  0  0  0  0
    1.6688   -3.1559   -3.2803 H   0  0  0  0  0  0  0  0  0  0  0  0
    1.2869   -2.7516   -1.6502 H   0  0  0  0  0  0  0  0  0  0  0  0
    3.4532   -1.6999   -2.2621 H   0  0  0  0  0  0  0  0  0  0  0  0
    4.2295   -4.5850   -2.9648 H   0  0  0  0  0  0  0  0  0  0  0  0
    3.0894   -3.3870   -4.4127 H   0  0  0  0  0  0  0  0  0  0  0  0
    6.3600   -3.8306   -3.5475 H   0  0  0  0  0  0  0  0  0  0  0  0
    5.9866   -2.1966   -3.0611 H   0  0  0  0  0  0  0  0  0  0  0  0
    5.9392   -4.5891   -1.2064 H   0  0  0  0  0  0  0  0  0  0  0  0
    7.2817   -3.4308   -1.4336 H   0  0  0  0  0  0  0  0  0  0  0  0
    5.5564   -0.5647    0.1946 H   0  0  0  0  0  0  0  0  0  0  0  0
    5.4551   -0.8606   -1.5089 H   0  0  0  0  0  0  0  0  0  0  0  0
    6.9466   -1.2132   -0.6247 H   0  0  0  0  0  0  0  0  0  0  0  0
    3.7531   -4.0332   -0.3596 H   0  0  0  0  0  0  0  0  0  0  0  0
    3.5870   -1.1816    0.6915 H   0  0  0  0  0  0  0  0  0  0  0  0
    2.2809   -1.8889   -0.0343 H   0  0  0  0  0  0  0  0  0  0  0  0
    1.9058   -3.6949    1.1561 H   0  0  0  0  0  0  0  0  0  0  0  0
    2.2865   -0.1591    2.3215 H   0  0  0  0  0  0  0  0  0  0  0  0
   -0.2441   -0.5294    3.1742 H   0  0  0  0  0  0  0  0  0  0  0  0
    1.8217    1.4001    4.3362 H   0  0  0  0  0  0  0  0  0  0  0  0
    0.8439    1.6267    2.9582 H   0  0  0  0  0  0  0  0  0  0  0  0
   -1.9169    0.7097    3.8430 H   0  0  0  0  0  0  0  0  0  0  0  0
   -2.4792    2.0910    4.7227 H   0  0  0  0  0  0  0  0  0  0  0  0
   -1.0890    2.1684    2.0474 H   0  0  0  0  0  0  0  0  0  0  0  0
   -2.7748    2.4729    2.3412 H   0  0  0  0  0  0  0  0  0  0  0  0
    0.6753    4.0518    3.1304 H   0  0  0  0  0  0  0  0  0  0  0  0
   -0.0675    5.3298    4.0492 H   0  0  0  0  0  0  0  0  0  0  0  0
    0.9852    3.5395    5.4322 H   0  0  0  0  0  0  0  0  0  0  0  0
   -0.6963    4.8528    6.5051 H   0  0  0  0  0  0  0  0  0  0  0  0
   -2.0278    3.9965    5.7968 H   0  0  0  0  0  0  0  0  0  0  0  0
   -0.1624    3.0500    8.0340 H   0  0  0  0  0  0  0  0  0  0  0  0
   -1.8482    3.3172    8.1206 H   0  0  0  0  0  0  0  0  0  0  0  0
   -2.4356    1.4307    6.9556 H   0  0  0  0  0  0  0  0  0  0  0  0
   -1.7852   -0.2300    5.7779 H   0  0  0  0  0  0  0  0  0  0  0  0
   -0.0886   -1.8041    7.0315 H   0  0  0  0  0  0  0  0  0  0  0  0
    0.0100   -2.1828    4.6846 H   0  0  0  0  0  0  0  0  0  0  0  0
    3.2497   -0.5175    4.5147 H   0  0  0  0  0  0  0  0  0  0  0  0
    4.3779   -2.7768    4.4465 H   0  0  0  0  0  0  0  0  0  0  0  0
    4.5529   -0.5867    2.3020 H   0  0  0  0  0  0  0  0  0  0  0  0
    5.4541   -0.8957    3.6743 H   0  0  0  0  0  0  0  0  0  0  0  0
    6.8784   -1.3649    1.8799 H   0  0  0  0  0  0  0  0  0  0  0  0
    6.5393   -2.6836    2.8927 H   0  0  0  0  0  0  0  0  0  0  0  0
    8.2007   -2.9860    0.5912 H   0  0  0  0  0  0  0  0  0  0  0  0
    7.6076   -4.6467    0.3699 H   0  0  0  0  0  0  0  0  0  0  0  0
    7.8699   -4.0525    1.9331 H   0  0  0  0  0  0  0  0  0  0  0  0
    3.6435   -5.1445    1.4544 H   0  0  0  0  0  0  0  0  0  0  0  0
    4.9357   -7.3927    2.2792 H   0  0  0  0  0  0  0  0  0  0  0  0
    3.1969   -7.2151    2.4794 H   0  0  0  0  0  0  0  0  0  0  0  0
    4.1929   -7.7153    3.8343 H   0  0  0  0  0  0  0  0  0  0  0  0
    6.5491   -5.7492    3.5857 H   0  0  0  0  0  0  0  0  0  0  0  0
    5.6440   -6.0608    5.0710 H   0  0  0  0  0  0  0  0  0  0  0  0
    5.8402   -4.4207    4.4955 H   0  0  0  0  0  0  0  0  0  0  0  0
  1  2  1  0
  1 48  1  0
  1 49  1  0
  1 50  1  0
  2  9  1  0
  2  3  1  0
  2 51  1  6
  3  4  1  0
  3  5  1  0
  3 52  1  6
  4 53  1  0
  5  6  1  0
  5 54  1  0
  5 55  1  0
  6  7  1  0
  6 56  1  0
  6 57  1  0
  7 38  1  0
  7  8  1  6
  7  9  1  0
  8 58  1  0
  8 59  1  0
  8 60  1  0
  9 10  1  0
  9 61  1  1
 10 11  1  0
 10 62  1  0
 10 63  1  0
 11 47  1  0
 11 12  1  0
 11 64  1  6
 12 13  1  0
 13 34  1  0
 13 14  1  0
 13 65  1  6
 14 32  1  0
 14 15  1  0
 14 66  1  6
 16 15  1  6
 15 67  1  0
 15 68  1  0
 16 22  1  0
 16 31  1  0
 16 17  1  0
 17 18  1  0
 17 69  1  0
 17 70  1  0
 18 19  1  0
 18 71  1  0
 18 72  1  0
 19 20  2  0
 19 21  1  0
 21 22  1  0
 21 73  1  0
 21 74  1  0
 22 23  1  0
 22 75  1  1
 23 24  1  0
 23 76  1  0
 23 77  1  0
 24 25  1  0
 24 78  1  0
 24 79  1  0
 25 31  1  0
 25 26  1  0
 25 80  1  0
 26 31  1  0
 26 27  1  0
 26 81  1  6
 27 28  1  0
 27 32  1  0
 27 82  1  1
 28 29  1  0
 29 30  2  0
 31 29  1  1
 32 33  1  0
 32 83  1  6
 33 34  1  0
 34 35  1  0
 34 84  1  1
 35 47  1  0
 35 36  1  0
 35 85  1  1
 36 37  1  0
 36 86  1  0
 36 87  1  0
 37 38  1  0
 37 88  1  0
 37 89  1  0
 38 39  1  6
 38 40  1  0
 39 90  1  0
 39 91  1  0
 39 92  1  0
 40 41  1  0
 41 47  1  0
 41 42  1  0
 41 93  1  6
 42 43  1  0
 42 44  1  0
 42 45  1  0
 43 94  1  0
 43 95  1  0
 43 96  1  0
 44 97  1  0
 44 98  1  0
 44 99  1  0
 45 46  1  0
 47 46  1  1
M  END
>  <i_m_ct_stereo_status>  (33) 
1

>  <s_m_source_file>  (33) 
/var/tmp/pbs.5076255.sched01/tmppe38rura/0ules8z9c.sdf

>  <i_m_source_file_index>  (33) 
19

>  <i_lp_mmshare_version>  (33) 
48012

>  <i_f3d_flags>  (33) 
0

>  <s_epik_input>  (33) 
TzFPQyhbQ0gzXSkoW0NIM10pW0NAQEhdMk9bQ0BdKFtDSDNdKShbQ0gyXVtDSDJdMylbQ0BAXShbQ0gzXSkoW0NIMl1bQ0gyXVtDQEhdKFtPSF0pW0NASF00W0NIM10pW0NASF00W0NIMl1bQ0BIXShPNSlbQ0BAXTEyW0NAQEhdM1tDQEhdKE82KVtDQEBIXTVbQ0BIXShbQ0gyXTcpW0NAQEhdNltDQEBIXShPQzg9TylbQ0BIXTlbQ0BIXShbQ0BAXTg5W0NAQF0xMjcpW0NIMl1bQ0gyXVtDQEBIXTJbQ0gyXUMoPU8pW0NIMl1bQ0gyXTE=

>  <s_epik_cmdline>  (33) 
J2VwaWtfcHl0aG9uJywgJy1waHQnLCAnMi4wJywgJy1waCcsICc3LjAnLCAnLXRuJywgJzgnLCAnLW1hJywgJzIwMCcsICctaW1hZScsICc8aW5maWxlLm1hZT4nLCAnLW9tYWUnLCAnPG91dGZpbGUubWFlPic=

>  <r_lp_tautomer_probability>  (33) 
1

>  <r_epik_Ionization_Penalty>  (33) 
1.48722e-06

>  <r_epik_Ionization_Penalty_Charging>  (33) 
0

>  <r_epik_Ionization_Penalty_Neutral>  (33) 
1.48722e-06

>  <r_epik_State_Penalty>  (33) 
-0

>  <r_epik_Charging_Adjusted_Penalty>  (33) 
0

>  <i_epik_Tot_Q>  (33) 
0

>  <i_epik_Tot_abs_Q>  (33) 
0

>  <s_epik_Chemistry_Notes>  (33) 
This compound has an ester and may undergo hydrolysis at high or low pH.

>  <s_lp_Force_Field>  (33) 
OPLS3e

>  <r_lp_Energy>  (33) 
204.458

>  <b_lp_Chiralities_Consistent>  (33) 
1

>  <s_lp_Variant>  (33) 
14:0-1

>  <s_i_glide_gridfile>  (33) 
pfpi4k_grid

>  <i_i_glide_lignum>  (33) 
19

>  <i_i_glide_rotatable_bonds>  (33) 
1

>  <r_i_docking_score>  (33) 
-3.39345

>  <r_i_glide_ligand_efficiency>  (33) 
-0.0722011

>  <r_i_glide_ligand_efficiency_sa>  (33) 
-0.260561

>  <r_i_glide_ligand_efficiency_ln>  (33) 
-0.69966

>  <r_i_glide_gscore>  (33) 
-3.39345

>  <r_i_glide_lipo>  (33) 
-0.893948

>  <r_i_glide_hbond>  (33) 
-0.40339

>  <r_i_glide_metal>  (33) 
-0

>  <r_i_glide_rewards>  (33) 
0

>  <r_i_glide_evdw>  (33) 
-19.6884

>  <r_i_glide_ecoul>  (33) 
-6.74397

>  <r_i_glide_erotb>  (33) 
0

>  <r_i_glide_esite>  (33) 
-0.100099

>  <r_i_glide_emodel>  (33) 
-31.9715

>  <r_i_glide_energy>  (33) 
-26.4324

>  <r_i_glide_einternal>  (33) 
0.324565

>  <r_i_glide_intrahb_reward>  (33) 
-0

>  <i_i_glide_confnum>  (33) 
2

>  <i_i_glide_posenum>  (33) 
9

>  <r_i_glide_eff_state_penalty>  (33) 
0

>  <ligand_id>  (33) 
14

>  <original_smiles>  (33) 
CC1C(O)CCC2(C)C1CC1OC3C4CC56CCC(=O)CC5CCC5C7C(OC(=O)C576)C4OC3C3CCC2(C)OC2C(C)(C)OOC132

>  <smiles>  (33) 
[H]OC1([H])C([H])([H])C([H])([H])C2(C([H])([H])[H])C([H])(C([H])([H])C3([H])OC4([H])C([H])(OC5([H])C6([H])OC(=O)C78C([H])(C([H])([H])C([H])([H])C9([H])C([H])([H])C(=O)C([H])([H])C([H])([H])C97C([H])([H])C45[H])C68[H])C4([H])C([H])([H])C([H])([H])C2(C([H])([H])[H])OC2([H])C(C([H])([H])[H])(C([H])([H])[H])OOC324)C1([H])C([H])([H])[H]

$$$$
14:0:1
     RDKit          3D

 99109  0  0  1  0  0  0  0  0999 V2000
    3.5903    4.6709    4.5209 C   0  0  0  0  0  0  0  0  0  0  0  0
    2.0625    4.5146    4.3355 C   0  0  2  0  0  0  0  0  0  0  0  0
    1.4275    5.8255    4.8478 C   0  0  1  0  0  0  0  0  0  0  0  0
    1.7715    6.9464    4.0511 O   0  0  0  0  0  0  0  0  0  0  0  0
   -0.0827    5.7325    4.9188 C   0  0  0  0  0  0  0  0  0  0  0  0
   -0.5088    4.5216    5.7497 C   0  0  0  0  0  0  0  0  0  0  0  0
   -0.0646    3.1253    5.2139 C   0  0  1  0  0  0  0  0  0  0  0  0
   -0.7342    2.9654    3.8235 C   0  0  0  0  0  0  0  0  0  0  0  0
    1.5155    3.2248    5.0666 C   0  0  1  0  0  0  0  0  0  0  0  0
    2.1639    1.9645    4.4432 C   0  0  0  0  0  0  0  0  0  0  0  0
    2.8825    1.0230    5.4254 C   0  0  2  0  0  0  0  0  0  0  0  0
    3.6817    0.0813    4.6963 O   0  0  0  0  0  0  0  0  0  0  0  0
    2.9898   -0.9633    4.0118 C   0  0  1  0  0  0  0  0  0  0  0  0
    3.9733   -2.0460    3.5664 C   0  0  2  0  0  0  0  0  0  0  0  0
    3.4954   -2.6767    2.2073 C   0  0  0  0  0  0  0  0  0  0  0  0
    4.3823   -3.8250    1.6428 C   0  0  2  0  0  0  0  0  0  0  0  0
    5.8138   -3.2656    1.2982 C   0  0  0  0  0  0  0  0  0  0  0  0
    5.8339   -2.2771    0.1145 C   0  0  0  0  0  0  0  0  0  0  0  0
    5.1684   -2.8838   -1.1124 C   0  0  0  0  0  0  0  0  0  0  0  0
    5.6607   -2.7719   -2.2312 O   0  0  0  0  0  0  0  0  0  0  0  0
    3.8351   -3.5890   -0.8791 C   0  0  0  0  0  0  0  0  0  0  0  0
    3.8471   -4.5216    0.3573 C   0  0  1  0  0  0  0  0  0  0  0  0
    4.6461   -5.8442    0.1249 C   0  0  0  0  0  0  0  0  0  0  0  0
    4.7976   -6.7534    1.3984 C   0  0  0  0  0  0  0  0  0  0  0  0
    5.3947   -6.0796    2.6596 C   0  0  0  0  0  0  0  0  0  0  0  0
    5.2891   -4.8755    3.7323 C   0  0  2  0  0  0  0  0  0  0  0  0
    4.3640   -4.4612    4.8653 C   0  0  2  0  0  0  0  0  0  0  0  0
    3.1402   -5.0896    4.5718 O   0  0  0  0  0  0  0  0  0  0  0  0
    3.0565   -5.3321    3.2787 C   0  0  0  0  0  0  0  0  0  0  0  0
    2.0734   -5.7575    2.6898 O   0  0  0  0  0  0  0  0  0  0  0  0
    4.4038   -4.9462    2.6690 C   0  0  1  0  0  0  0  0  0  0  0  0
    4.0948   -2.9059    4.8766 C   0  0  2  0  0  0  0  0  0  0  0  0
    2.9229   -2.6459    5.6515 O   0  0  0  0  0  0  0  0  0  0  0  0
    2.0690   -1.7430    4.9570 C   0  0  1  0  0  0  0  0  0  0  0  0
    1.1713   -0.8508    5.8528 C   0  0  2  0  0  0  0  0  0  0  0  0
   -0.0436   -0.3860    5.0212 C   0  0  0  0  0  0  0  0  0  0  0  0
   -1.0317    0.5850    5.6702 C   0  0  0  0  0  0  0  0  0  0  0  0
   -0.6107    1.9828    6.2287 C   0  0  2  0  0  0  0  0  0  0  0  0
   -1.9404    2.4259    6.9145 C   0  0  0  0  0  0  0  0  0  0  0  0
    0.1275    1.8420    7.4349 O   0  0  0  0  0  0  0  0  0  0  0  0
    1.3910    1.1920    7.5714 C   0  0  1  0  0  0  0  0  0  0  0  0
    1.3773    0.3959    8.8898 C   0  0  0  0  0  0  0  0  0  0  0  0
    1.9012    1.2020   10.0924 C   0  0  0  0  0  0  0  0  0  0  0  0
    0.0332   -0.2389    9.2433 C   0  0  0  0  0  0  0  0  0  0  0  0
    2.2204   -0.6941    8.5811 O   0  0  0  0  0  0  0  0  0  0  0  0
    2.9590   -0.3136    7.3390 O   0  0  0  0  0  0  0  0  0  0  0  0
    2.0155    0.2894    6.4746 C   0  0  2  0  0  0  0  0  0  0  0  0
    3.8539    4.7546    5.5764 H   0  0  0  0  0  0  0  0  0  0  0  0
    3.9561    5.5705    4.0230 H   0  0  0  0  0  0  0  0  0  0  0  0
    4.1638    3.8463    4.1103 H   0  0  0  0  0  0  0  0  0  0  0  0
    1.8595    4.4293    3.2627 H   0  0  0  0  0  0  0  0  0  0  0  0
    1.8057    6.0223    5.8527 H   0  0  0  0  0  0  0  0  0  0  0  0
    1.1244    7.0802    3.3587 H   0  0  0  0  0  0  0  0  0  0  0  0
   -0.4621    6.6414    5.3882 H   0  0  0  0  0  0  0  0  0  0  0  0
   -0.5088    5.6914    3.9164 H   0  0  0  0  0  0  0  0  0  0  0  0
   -0.1312    4.6622    6.7630 H   0  0  0  0  0  0  0  0  0  0  0  0
   -1.5945    4.5655    5.7929 H   0  0  0  0  0  0  0  0  0  0  0  0
   -0.6062    1.9753    3.3919 H   0  0  0  0  0  0  0  0  0  0  0  0
   -0.3257    3.6565    3.0874 H   0  0  0  0  0  0  0  0  0  0  0  0
   -1.8084    3.1541    3.8746 H   0  0  0  0  0  0  0  0  0  0  0  0
    1.9119    3.3361    6.0736 H   0  0  0  0  0  0  0  0  0  0  0  0
    1.4734    1.4549    3.7937 H   0  0  0  0  0  0  0  0  0  0  0  0
    2.9180    2.2467    3.7202 H   0  0  0  0  0  0  0  0  0  0  0  0
    3.6105    1.6204    5.9785 H   0  0  0  0  0  0  0  0  0  0  0  0
    2.4387   -0.5511    3.1659 H   0  0  0  0  0  0  0  0  0  0  0  0
    4.9329   -1.5614    3.3695 H   0  0  0  0  0  0  0  0  0  0  0  0
    2.4507   -2.9892    2.2928 H   0  0  0  0  0  0  0  0  0  0  0  0
    3.4430   -1.8716    1.4634 H   0  0  0  0  0  0  0  0  0  0  0  0
    6.2720   -2.7609    2.1469 H   0  0  0  0  0  0  0  0  0  0  0  0
    6.4953   -4.0738    1.0555 H   0  0  0  0  0  0  0  0  0  0  0  0
    5.3031   -1.3655    0.3757 H   0  0  0  0  0  0  0  0  0  0  0  0
    6.8577   -1.9905   -0.1293 H   0  0  0  0  0  0  0  0  0  0  0  0
    3.0732   -2.8211   -0.7580 H   0  0  0  0  0  0  0  0  0  0  0  0
    3.5652   -4.1598   -1.7698 H   0  0  0  0  0  0  0  0  0  0  0  0
    2.8012   -4.7941    0.5100 H   0  0  0  0  0  0  0  0  0  0  0  0
    4.1515   -6.4191   -0.6501 H   0  0  0  0  0  0  0  0  0  0  0  0
    5.6349   -5.6307   -0.2763 H   0  0  0  0  0  0  0  0  0  0  0  0
    3.8413   -7.2339    1.6360 H   0  0  0  0  0  0  0  0  0  0  0  0
    5.4419   -7.5980    1.1459 H   0  0  0  0  0  0  0  0  0  0  0  0
    6.4550   -5.9904    2.4163 H   0  0  0  0  0  0  0  0  0  0  0  0
    6.2095   -4.3048    3.7009 H   0  0  0  0  0  0  0  0  0  0  0  0
    4.7712   -4.7902    5.8309 H   0  0  0  0  0  0  0  0  0  0  0  0
    4.9020   -2.4465    5.4482 H   0  0  0  0  0  0  0  0  0  0  0  0
    1.4179   -2.3808    4.3588 H   0  0  0  0  0  0  0  0  0  0  0  0
    0.7834   -1.4905    6.6418 H   0  0  0  0  0  0  0  0  0  0  0  0
    0.2190   -0.0616    4.0219 H   0  0  0  0  0  0  0  0  0  0  0  0
   -0.6298   -1.2791    4.8093 H   0  0  0  0  0  0  0  0  0  0  0  0
   -1.8489    0.7316    4.9636 H   0  0  0  0  0  0  0  0  0  0  0  0
   -1.4822    0.0218    6.4826 H   0  0  0  0  0  0  0  0  0  0  0  0
   -2.7274    2.6521    6.1930 H   0  0  0  0  0  0  0  0  0  0  0  0
   -1.8047    3.2850    7.5730 H   0  0  0  0  0  0  0  0  0  0  0  0
   -2.3249    1.6530    7.5768 H   0  0  0  0  0  0  0  0  0  0  0  0
    2.1129    1.9881    7.7287 H   0  0  0  0  0  0  0  0  0  0  0  0
    1.2423    2.0492   10.3099 H   0  0  0  0  0  0  0  0  0  0  0  0
    2.9017    1.5969    9.9249 H   0  0  0  0  0  0  0  0  0  0  0  0
    1.9324    0.5915   10.9974 H   0  0  0  0  0  0  0  0  0  0  0  0
   -0.7195    0.5183    9.4806 H   0  0  0  0  0  0  0  0  0  0  0  0
    0.1275   -0.8987   10.1087 H   0  0  0  0  0  0  0  0  0  0  0  0
   -0.3252   -0.8346    8.4104 H   0  0  0  0  0  0  0  0  0  0  0  0
  1  2  1  0
  1 48  1  0
  1 49  1  0
  1 50  1  0
  2  9  1  0
  2  3  1  0
  2 51  1  6
  3  4  1  0
  3  5  1  0
  3 52  1  1
  4 53  1  0
  5  6  1  0
  5 54  1  0
  5 55  1  0
  6  7  1  0
  6 56  1  0
  6 57  1  0
  7 38  1  0
  7  8  1  6
  7  9  1  0
  8 58  1  0
  8 59  1  0
  8 60  1  0
  9 10  1  0
  9 61  1  1
 10 11  1  0
 10 62  1  0
 10 63  1  0
 11 47  1  0
 11 12  1  0
 11 64  1  1
 12 13  1  0
 13 34  1  0
 13 14  1  0
 13 65  1  6
 14 32  1  0
 14 15  1  0
 14 66  1  6
 16 15  1  1
 15 67  1  0
 15 68  1  0
 16 22  1  0
 16 31  1  0
 16 17  1  0
 17 18  1  0
 17 69  1  0
 17 70  1  0
 18 19  1  0
 18 71  1  0
 18 72  1  0
 19 20  2  0
 19 21  1  0
 21 22  1  0
 21 73  1  0
 21 74  1  0
 22 23  1  0
 22 75  1  1
 23 24  1  0
 23 76  1  0
 23 77  1  0
 24 25  1  0
 24 78  1  0
 24 79  1  0
 25 31  1  0
 25 26  1  0
 25 80  1  0
 26 31  1  0
 26 27  1  0
 26 81  1  6
 27 28  1  0
 27 32  1  0
 27 82  1  1
 28 29  1  0
 29 30  2  0
 31 29  1  1
 32 33  1  0
 32 83  1  1
 33 34  1  0
 34 35  1  0
 34 84  1  6
 35 47  1  0
 35 36  1  0
 35 85  1  1
 36 37  1  0
 36 86  1  0
 36 87  1  0
 37 38  1  0
 37 88  1  0
 37 89  1  0
 38 39  1  1
 38 40  1  0
 39 90  1  0
 39 91  1  0
 39 92  1  0
 40 41  1  0
 41 47  1  0
 41 42  1  0
 41 93  1  1
 42 43  1  0
 42 44  1  0
 42 45  1  0
 43 94  1  0
 43 95  1  0
 43 96  1  0
 44 97  1  0
 44 98  1  0
 44 99  1  0
 45 46  1  0
 47 46  1  1
M  END
>  <i_m_ct_stereo_status>  (34) 
1

>  <s_m_source_file>  (34) 
/var/tmp/pbs.5076255.sched01/tmppe38rura/0ules8z9c.sdf

>  <i_m_source_file_index>  (34) 
19

>  <i_lp_mmshare_version>  (34) 
48012

>  <i_f3d_flags>  (34) 
0

>  <s_epik_input>  (34) 
TzFPQyhbQ0gzXSkoW0NIM10pW0NAQEhdMk9bQ0BdKFtDSDNdKShbQ0gyXVtDSDJdMylbQ0BAXShbQ0gzXSkoW0NIMl1bQ0gyXVtDQEhdKFtPSF0pW0NASF00W0NIM10pW0NASF00W0NIMl1bQ0BIXShPNSlbQ0BAXTEyW0NAQEhdM1tDQEhdKE82KVtDQEBIXTVbQ0BIXShbQ0gyXTcpW0NAQEhdNltDQEBIXShPQzg9TylbQ0BIXTlbQ0BIXShbQ0BAXTg5W0NAQF0xMjcpW0NIMl1bQ0gyXVtDQEBIXTJbQ0gyXUMoPU8pW0NIMl1bQ0gyXTE=

>  <s_epik_cmdline>  (34) 
J2VwaWtfcHl0aG9uJywgJy1waHQnLCAnMi4wJywgJy1waCcsICc3LjAnLCAnLXRuJywgJzgnLCAnLW1hJywgJzIwMCcsICctaW1hZScsICc8aW5maWxlLm1hZT4nLCAnLW9tYWUnLCAnPG91dGZpbGUubWFlPic=

>  <r_lp_tautomer_probability>  (34) 
1

>  <r_epik_Ionization_Penalty>  (34) 
1.48722e-06

>  <r_epik_Ionization_Penalty_Charging>  (34) 
0

>  <r_epik_Ionization_Penalty_Neutral>  (34) 
1.48722e-06

>  <r_epik_State_Penalty>  (34) 
-0

>  <r_epik_Charging_Adjusted_Penalty>  (34) 
0

>  <i_epik_Tot_Q>  (34) 
0

>  <i_epik_Tot_abs_Q>  (34) 
0

>  <s_epik_Chemistry_Notes>  (34) 
This compound has an ester and may undergo hydrolysis at high or low pH.

>  <s_lp_Force_Field>  (34) 
OPLS3e

>  <r_lp_Energy>  (34) 
204.458

>  <b_lp_Chiralities_Consistent>  (34) 
1

>  <s_lp_Variant>  (34) 
14:0-1

>  <s_i_glide_gridfile>  (34) 
pfpi4k_grid

>  <i_i_glide_lignum>  (34) 
19

>  <i_i_glide_rotatable_bonds>  (34) 
1

>  <r_i_docking_score>  (34) 
-2.49609

>  <r_i_glide_ligand_efficiency>  (34) 
-0.0531083

>  <r_i_glide_ligand_efficiency_sa>  (34) 
-0.191659

>  <r_i_glide_ligand_efficiency_ln>  (34) 
-0.514642

>  <r_i_glide_gscore>  (34) 
-2.49609

>  <r_i_glide_lipo>  (34) 
-0.286129

>  <r_i_glide_hbond>  (34) 
-0.11682

>  <r_i_glide_metal>  (34) 
-0

>  <r_i_glide_rewards>  (34) 
-0.0165125

>  <r_i_glide_evdw>  (34) 
-33.5773

>  <r_i_glide_ecoul>  (34) 
-2.65112

>  <r_i_glide_erotb>  (34) 
0

>  <r_i_glide_esite>  (34) 
-9.38074e-05

>  <r_i_glide_emodel>  (34) 
-41.1871

>  <r_i_glide_energy>  (34) 
-36.2285

>  <r_i_glide_einternal>  (34) 
0.799562

>  <r_i_glide_intrahb_reward>  (34) 
-0

>  <i_i_glide_confnum>  (34) 
1

>  <i_i_glide_posenum>  (34) 
2

>  <r_i_glide_eff_state_penalty>  (34) 
0

>  <ligand_id>  (34) 
14

>  <original_smiles>  (34) 
CC1C(O)CCC2(C)C1CC1OC3C4CC56CCC(=O)CC5CCC5C7C(OC(=O)C576)C4OC3C3CCC2(C)OC2C(C)(C)OOC132

>  <smiles>  (34) 
[H]OC1([H])C([H])([H])C([H])([H])C2(C([H])([H])[H])C([H])(C([H])([H])C3([H])OC4([H])C([H])(OC5([H])C6([H])OC(=O)C78C([H])(C([H])([H])C([H])([H])C9([H])C([H])([H])C(=O)C([H])([H])C([H])([H])C97C([H])([H])C45[H])C68[H])C4([H])C([H])([H])C([H])([H])C2(C([H])([H])[H])OC2([H])C(C([H])([H])[H])(C([H])([H])[H])OOC324)C1([H])C([H])([H])[H]

$$$$
14:0:2
     RDKit          3D

 99109  0  0  1  0  0  0  0  0999 V2000
    4.2296    5.4570    5.2317 C   0  0  0  0  0  0  0  0  0  0  0  0
    2.7055    5.5002    4.9550 C   0  0  2  0  0  0  0  0  0  0  0  0
    2.1941    6.8486    5.5124 C   0  0  1  0  0  0  0  0  0  0  0  0
    2.6976    7.9465    4.7700 O   0  0  0  0  0  0  0  0  0  0  0  0
    0.6815    6.9433    5.4979 C   0  0  0  0  0  0  0  0  0  0  0  0
    0.0851    5.7488    6.2361 C   0  0  0  0  0  0  0  0  0  0  0  0
    0.3785    4.3402    5.6272 C   0  0  1  0  0  0  0  0  0  0  0  0
   -0.2225    4.3422    4.1924 C   0  0  0  0  0  0  0  0  0  0  0  0
    1.9639    4.2462    5.5646 C   0  0  1  0  0  0  0  0  0  0  0  0
    2.4950    2.9529    4.8896 C   0  0  0  0  0  0  0  0  0  0  0  0
    3.0377    1.8715    5.8451 C   0  0  2  0  0  0  0  0  0  0  0  0
    3.7571    0.8813    5.1016 O   0  0  0  0  0  0  0  0  0  0  0  0
    2.9875   -0.0229    4.3069 C   0  0  1  0  0  0  0  0  0  0  0  0
    3.8627   -1.1852    3.8385 C   0  0  2  0  0  0  0  0  0  0  0  0
    3.3951   -1.6717    2.4209 C   0  0  0  0  0  0  0  0  0  0  0  0
    4.1674   -2.8836    1.8240 C   0  0  2  0  0  0  0  0  0  0  0  0
    5.6769   -2.4840    1.5928 C   0  0  0  0  0  0  0  0  0  0  0  0
    5.8768   -1.4341    0.4840 C   0  0  0  0  0  0  0  0  0  0  0  0
    5.2198   -1.8883   -0.8155 C   0  0  0  0  0  0  0  0  0  0  0  0
    5.7986   -1.7887   -1.8925 O   0  0  0  0  0  0  0  0  0  0  0  0
    3.7995   -2.4391   -0.7017 C   0  0  0  0  0  0  0  0  0  0  0  0
    3.6313   -3.4311    0.4708 C   0  0  1  0  0  0  0  0  0  0  0  0
    4.2753   -4.8290    0.1964 C   0  0  0  0  0  0  0  0  0  0  0  0
    4.2451   -5.8255    1.4096 C   0  0  0  0  0  0  0  0  0  0  0  0
    4.8544   -5.2989    2.7456 C   0  0  0  0  0  0  0  0  0  0  0  0
    4.8506   -4.1591    3.8968 C   0  0  2  0  0  0  0  0  0  0  0  0
    3.9036   -3.6942    4.9992 C   0  0  2  0  0  0  0  0  0  0  0  0
    2.6328   -4.1613    4.6066 O   0  0  0  0  0  0  0  0  0  0  0  0
    2.5938   -4.3269    3.3104 C   0  0  0  0  0  0  0  0  0  0  0  0
    1.6097   -4.6519    2.6507 O   0  0  0  0  0  0  0  0  0  0  0  0
    4.0064   -4.0566    2.7908 C   0  0  1  0  0  0  0  0  0  0  0  0
    3.8037   -2.1281    5.0994 C   0  0  2  0  0  0  0  0  0  0  0  0
    2.6260   -1.7701    5.8304 O   0  0  0  0  0  0  0  0  0  0  0  0
    1.9243   -0.7380    5.1476 C   0  0  1  0  0  0  0  0  0  0  0  0
    1.0915    0.1983    6.0565 C   0  0  2  0  0  0  0  0  0  0  0  0
   -0.0089    0.8565    5.2001 C   0  0  0  0  0  0  0  0  0  0  0  0
   -0.9068    1.9009    5.8651 C   0  0  0  0  0  0  0  0  0  0  0  0
   -0.3522    3.2060    6.5301 C   0  0  2  0  0  0  0  0  0  0  0  0
   -1.6563    3.7564    7.1812 C   0  0  0  0  0  0  0  0  0  0  0  0
    0.2982    2.9166    7.7591 O   0  0  0  0  0  0  0  0  0  0  0  0
    1.4528    2.0950    7.9176 C   0  0  1  0  0  0  0  0  0  0  0  0
    1.2579    1.2251    9.1802 C   0  0  0  0  0  0  0  0  0  0  0  0
    1.8072    1.8906   10.4596 C   0  0  0  0  0  0  0  0  0  0  0  0
   -0.1814    0.7364    9.4152 C   0  0  0  0  0  0  0  0  0  0  0  0
    1.9924    0.0635    8.8529 O   0  0  0  0  0  0  0  0  0  0  0  0
    2.8415    0.4224    7.6727 O   0  0  0  0  0  0  0  0  0  0  0  0
    2.0287    1.1864    6.7973 C   0  0  2  0  0  0  0  0  0  0  0  0
    4.4372    5.4548    6.3015 H   0  0  0  0  0  0  0  0  0  0  0  0
    4.7341    6.3241    4.8028 H   0  0  0  0  0  0  0  0  0  0  0  0
    4.7206    4.5828    4.8207 H   0  0  0  0  0  0  0  0  0  0  0  0
    2.5558    5.4984    3.8728 H   0  0  0  0  0  0  0  0  0  0  0  0
    2.5372    6.9566    6.5427 H   0  0  0  0  0  0  0  0  0  0  0  0
    2.2563    7.9771    3.9341 H   0  0  0  0  0  0  0  0  0  0  0  0
    0.3771    7.8659    5.9939 H   0  0  0  0  0  0  0  0  0  0  0  0
    0.3045    7.0157    4.4780 H   0  0  0  0  0  0  0  0  0  0  0  0
    0.4239    5.7746    7.2692 H   0  0  0  0  0  0  0  0  0  0  0  0
   -0.9788    5.9579    6.2538 H   0  0  0  0  0  0  0  0  0  0  0  0
   -0.1861    3.3706    3.7009 H   0  0  0  0  0  0  0  0  0  0  0  0
    0.3054    5.0204    3.5208 H   0  0  0  0  0  0  0  0  0  0  0  0
   -1.2680    4.6497    4.2000 H   0  0  0  0  0  0  0  0  0  0  0  0
    2.3087    4.2460    6.5958 H   0  0  0  0  0  0  0  0  0  0  0  0
    1.7873    2.5726    4.1740 H   0  0  0  0  0  0  0  0  0  0  0  0
    3.3191    3.1836    4.2230 H   0  0  0  0  0  0  0  0  0  0  0  0
    3.7975    2.3466    6.4676 H   0  0  0  0  0  0  0  0  0  0  0  0
    2.5460    0.5131    3.4667 H   0  0  0  0  0  0  0  0  0  0  0  0
    4.8809   -0.8107    3.7271 H   0  0  0  0  0  0  0  0  0  0  0  0
    2.3252   -1.8685    2.4306 H   0  0  0  0  0  0  0  0  0  0  0  0
    3.4818   -0.8327    1.7318 H   0  0  0  0  0  0  0  0  0  0  0  0
    6.1503   -2.0939    2.4942 H   0  0  0  0  0  0  0  0  0  0  0  0
    6.2765   -3.3554    1.3278 H   0  0  0  0  0  0  0  0  0  0  0  0
    5.4427   -0.4802    0.7777 H   0  0  0  0  0  0  0  0  0  0  0  0
    6.9397   -1.2557    0.3115 H   0  0  0  0  0  0  0  0  0  0  0  0
    3.1252   -1.5957   -0.5677 H   0  0  0  0  0  0  0  0  0  0  0  0
    3.5149   -2.9180   -1.6367 H   0  0  0  0  0  0  0  0  0  0  0  0
    2.5576   -3.5805    0.5672 H   0  0  0  0  0  0  0  0  0  0  0  0
    3.7434   -5.2755   -0.6382 H   0  0  0  0  0  0  0  0  0  0  0  0
    5.3048   -4.7158   -0.1497 H   0  0  0  0  0  0  0  0  0  0  0  0
    3.2297   -6.1973    1.5541 H   0  0  0  0  0  0  0  0  0  0  0  0
    4.7958   -6.7218    1.1192 H   0  0  0  0  0  0  0  0  0  0  0  0
    5.9255   -5.3524    2.5620 H   0  0  0  0  0  0  0  0  0  0  0  0
    5.8157   -3.6755    3.9404 H   0  0  0  0  0  0  0  0  0  0  0  0
    4.1974   -4.1283    5.9551 H   0  0  0  0  0  0  0  0  0  0  0  0
    4.6287   -1.8040    5.7383 H   0  0  0  0  0  0  0  0  0  0  0  0
    1.2420   -1.2585    4.4769 H   0  0  0  0  0  0  0  0  0  0  0  0
    0.5862   -0.4315    6.7858 H   0  0  0  0  0  0  0  0  0  0  0  0
    0.3479    1.2072    4.2418 H   0  0  0  0  0  0  0  0  0  0  0  0
   -0.6835    0.0558    4.9004 H   0  0  0  0  0  0  0  0  0  0  0  0
   -1.6584    2.1876    5.1272 H   0  0  0  0  0  0  0  0  0  0  0  0
   -1.4729    1.3477    6.6147 H   0  0  0  0  0  0  0  0  0  0  0  0
   -2.3679    4.1161    6.4365 H   0  0  0  0  0  0  0  0  0  0  0  0
   -1.4647    4.5557    7.8993 H   0  0  0  0  0  0  0  0  0  0  0  0
   -2.1718    2.9979    7.7718 H   0  0  0  0  0  0  0  0  0  0  0  0
    2.2570    2.7848    8.1697 H   0  0  0  0  0  0  0  0  0  0  0  0
    1.2480    2.7979   10.6990 H   0  0  0  0  0  0  0  0  0  0  0  0
    2.8560    2.1675   10.3652 H   0  0  0  0  0  0  0  0  0  0  0  0
    1.7193    1.2288   11.3216 H   0  0  0  0  0  0  0  0  0  0  0  0
   -0.8510    1.5597    9.6690 H   0  0  0  0  0  0  0  0  0  0  0  0
   -0.2109    0.0215   10.2389 H   0  0  0  0  0  0  0  0  0  0  0  0
   -0.5784    0.2387    8.5355 H   0  0  0  0  0  0  0  0  0  0  0  0
  1  2  1  0
  1 48  1  0
  1 49  1  0
  1 50  1  0
  2  9  1  0
  2  3  1  0
  2 51  1  6
  3  4  1  0
  3  5  1  0
  3 52  1  1
  4 53  1  0
  5  6  1  0
  5 54  1  0
  5 55  1  0
  6  7  1  0
  6 56  1  0
  6 57  1  0
  7 38  1  0
  7  8  1  6
  7  9  1  0
  8 58  1  0
  8 59  1  0
  8 60  1  0
  9 10  1  0
  9 61  1  1
 10 11  1  0
 10 62  1  0
 10 63  1  0
 11 47  1  0
 11 12  1  0
 11 64  1  1
 12 13  1  0
 13 34  1  0
 13 14  1  0
 13 65  1  6
 14 32  1  0
 14 15  1  0
 14 66  1  6
 16 15  1  1
 15 67  1  0
 15 68  1  0
 16 22  1  0
 16 31  1  0
 16 17  1  0
 17 18  1  0
 17 69  1  0
 17 70  1  0
 18 19  1  0
 18 71  1  0
 18 72  1  0
 19 20  2  0
 19 21  1  0
 21 22  1  0
 21 73  1  0
 21 74  1  0
 22 23  1  0
 22 75  1  1
 23 24  1  0
 23 76  1  0
 23 77  1  0
 24 25  1  0
 24 78  1  0
 24 79  1  0
 25 31  1  0
 25 26  1  0
 25 80  1  0
 26 31  1  0
 26 27  1  0
 26 81  1  6
 27 28  1  0
 27 32  1  0
 27 82  1  1
 28 29  1  0
 29 30  2  0
 31 29  1  1
 32 33  1  0
 32 83  1  1
 33 34  1  0
 34 35  1  0
 34 84  1  6
 35 47  1  0
 35 36  1  0
 35 85  1  1
 36 37  1  0
 36 86  1  0
 36 87  1  0
 37 38  1  0
 37 88  1  0
 37 89  1  0
 38 39  1  1
 38 40  1  0
 39 90  1  0
 39 91  1  0
 39 92  1  0
 40 41  1  0
 41 47  1  0
 41 42  1  0
 41 93  1  1
 42 43  1  0
 42 44  1  0
 42 45  1  0
 43 94  1  0
 43 95  1  0
 43 96  1  0
 44 97  1  0
 44 98  1  0
 44 99  1  0
 45 46  1  0
 47 46  1  1
M  END
>  <i_m_ct_stereo_status>  (35) 
1

>  <s_m_source_file>  (35) 
/var/tmp/pbs.5076255.sched01/tmppe38rura/0ules8z9c.sdf

>  <i_m_source_file_index>  (35) 
19

>  <i_lp_mmshare_version>  (35) 
48012

>  <i_f3d_flags>  (35) 
0

>  <s_epik_input>  (35) 
TzFPQyhbQ0gzXSkoW0NIM10pW0NAQEhdMk9bQ0BdKFtDSDNdKShbQ0gyXVtDSDJdMylbQ0BAXShbQ0gzXSkoW0NIMl1bQ0gyXVtDQEhdKFtPSF0pW0NASF00W0NIM10pW0NASF00W0NIMl1bQ0BIXShPNSlbQ0BAXTEyW0NAQEhdM1tDQEhdKE82KVtDQEBIXTVbQ0BIXShbQ0gyXTcpW0NAQEhdNltDQEBIXShPQzg9TylbQ0BIXTlbQ0BIXShbQ0BAXTg5W0NAQF0xMjcpW0NIMl1bQ0gyXVtDQEBIXTJbQ0gyXUMoPU8pW0NIMl1bQ0gyXTE=

>  <s_epik_cmdline>  (35) 
J2VwaWtfcHl0aG9uJywgJy1waHQnLCAnMi4wJywgJy1waCcsICc3LjAnLCAnLXRuJywgJzgnLCAnLW1hJywgJzIwMCcsICctaW1hZScsICc8aW5maWxlLm1hZT4nLCAnLW9tYWUnLCAnPG91dGZpbGUubWFlPic=

>  <r_lp_tautomer_probability>  (35) 
1

>  <r_epik_Ionization_Penalty>  (35) 
1.48722e-06

>  <r_epik_Ionization_Penalty_Charging>  (35) 
0

>  <r_epik_Ionization_Penalty_Neutral>  (35) 
1.48722e-06

>  <r_epik_State_Penalty>  (35) 
-0

>  <r_epik_Charging_Adjusted_Penalty>  (35) 
0

>  <i_epik_Tot_Q>  (35) 
0

>  <i_epik_Tot_abs_Q>  (35) 
0

>  <s_epik_Chemistry_Notes>  (35) 
This compound has an ester and may undergo hydrolysis at high or low pH.

>  <s_lp_Force_Field>  (35) 
OPLS3e

>  <r_lp_Energy>  (35) 
204.458

>  <b_lp_Chiralities_Consistent>  (35) 
1

>  <s_lp_Variant>  (35) 
14:0-1

>  <s_i_glide_gridfile>  (35) 
pfpi4k_grid

>  <i_i_glide_lignum>  (35) 
19

>  <i_i_glide_rotatable_bonds>  (35) 
1

>  <r_i_docking_score>  (35) 
-2.29748

>  <r_i_glide_ligand_efficiency>  (35) 
-0.0488825

>  <r_i_glide_ligand_efficiency_sa>  (35) 
-0.176408

>  <r_i_glide_ligand_efficiency_ln>  (35) 
-0.473692

>  <r_i_glide_gscore>  (35) 
-2.29748

>  <r_i_glide_lipo>  (35) 
-0.288611

>  <r_i_glide_hbond>  (35) 
-0.0408238

>  <r_i_glide_metal>  (35) 
-0

>  <r_i_glide_rewards>  (35) 
0

>  <r_i_glide_evdw>  (35) 
-32.9515

>  <r_i_glide_ecoul>  (35) 
-1.9557

>  <r_i_glide_erotb>  (35) 
0

>  <r_i_glide_esite>  (35) 
-0.0271112

>  <r_i_glide_emodel>  (35) 
-39.9384

>  <r_i_glide_energy>  (35) 
-34.9072

>  <r_i_glide_einternal>  (35) 
0.171173

>  <r_i_glide_intrahb_reward>  (35) 
-0

>  <i_i_glide_confnum>  (35) 
1

>  <i_i_glide_posenum>  (35) 
36

>  <r_i_glide_eff_state_penalty>  (35) 
0

>  <ligand_id>  (35) 
14

>  <original_smiles>  (35) 
CC1C(O)CCC2(C)C1CC1OC3C4CC56CCC(=O)CC5CCC5C7C(OC(=O)C576)C4OC3C3CCC2(C)OC2C(C)(C)OOC132

>  <smiles>  (35) 
[H]OC1([H])C([H])([H])C([H])([H])C2(C([H])([H])[H])C([H])(C([H])([H])C3([H])OC4([H])C([H])(OC5([H])C6([H])OC(=O)C78C([H])(C([H])([H])C([H])([H])C9([H])C([H])([H])C(=O)C([H])([H])C([H])([H])C97C([H])([H])C45[H])C68[H])C4([H])C([H])([H])C([H])([H])C2(C([H])([H])[H])OC2([H])C(C([H])([H])[H])(C([H])([H])[H])OOC324)C1([H])C([H])([H])[H]

$$$$
14:1:0
     RDKit          3D

 99109  0  0  1  0  0  0  0  0999 V2000
    1.1305   -8.6339    6.4287 C   0  0  0  0  0  0  0  0  0  0  0  0
    1.4921   -8.9563    4.9570 C   0  0  2  0  0  0  0  0  0  0  0  0
    1.9042  -10.4513    4.8628 C   0  0  1  0  0  0  0  0  0  0  0  0
    0.8479  -11.2940    5.2768 O   0  0  0  0  0  0  0  0  0  0  0  0
    2.2899  -10.8639    3.4377 C   0  0  0  0  0  0  0  0  0  0  0  0
    3.3370   -9.9233    2.8286 C   0  0  0  0  0  0  0  0  0  0  0  0
    2.9517   -8.4127    2.8309 C   0  0  1  0  0  0  0  0  0  0  0  0
    1.6606   -8.2391    1.9706 C   0  0  0  0  0  0  0  0  0  0  0  0
    2.6388   -8.0566    4.3494 C   0  0  1  0  0  0  0  0  0  0  0  0
    2.4834   -6.5356    4.6499 C   0  0  0  0  0  0  0  0  0  0  0  0
    3.7383   -5.7663    5.1590 C   0  0  2  0  0  0  0  0  0  0  0  0
    3.3347   -4.4481    5.5300 O   0  0  0  0  0  0  0  0  0  0  0  0
    3.1280   -3.5280    4.4583 C   0  0  1  0  0  0  0  0  0  0  0  0
    2.8719   -2.1297    5.0204 C   0  0  2  0  0  0  0  0  0  0  0  0
    1.6555   -1.4565    4.2995 C   0  0  0  0  0  0  0  0  0  0  0  0
    1.4707    0.0634    4.5879 C   0  0  2  0  0  0  0  0  0  0  0  0
    1.2728    0.2202    6.1513 C   0  0  0  0  0  0  0  0  0  0  0  0
   -0.0296   -0.4050    6.6657 C   0  0  0  0  0  0  0  0  0  0  0  0
   -1.2191    0.1369    5.8870 C   0  0  0  0  0  0  0  0  0  0  0  0
   -2.2507    0.4453    6.4786 O   0  0  0  0  0  0  0  0  0  0  0  0
   -1.0914    0.2104    4.3660 C   0  0  0  0  0  0  0  0  0  0  0  0
    0.2716    0.7710    3.9100 C   0  0  1  0  0  0  0  0  0  0  0  0
    0.3555    2.3288    4.1006 C   0  0  0  0  0  0  0  0  0  0  0  0
    1.7166    2.9776    4.5620 C   0  0  0  0  0  0  0  0  0  0  0  0
    2.9821    2.2095    4.1692 C   0  0  1  0  0  0  0  0  0  0  0  0
    3.7663    1.0518    4.9297 C   0  0  2  0  0  0  0  0  0  0  0  0
    4.6804   -0.0834    4.4322 C   0  0  2  0  0  0  0  0  0  0  0  0
    4.4558   -0.1755    3.0283 O   0  0  0  0  0  0  0  0  0  0  0  0
    3.2664    0.2870    2.7152 C   0  0  0  0  0  0  0  0  0  0  0  0
    2.7506    0.3343    1.6002 O   0  0  0  0  0  0  0  0  0  0  0  0
    2.6754    0.8027    4.0029 C   0  0  1  0  0  0  0  0  0  0  0  0
    4.3186   -1.4808    5.0548 C   0  0  2  0  0  0  0  0  0  0  0  0
    5.1787   -2.4580    4.4660 O   0  0  0  0  0  0  0  0  0  0  0  0
    4.4096   -3.3319    3.6506 C   0  0  1  0  0  0  0  0  0  0  0  0
    5.1756   -4.6181    3.2622 C   0  0  2  0  0  0  0  0  0  0  0  0
    4.8783   -5.1018    1.8203 C   0  0  0  0  0  0  0  0  0  0  0  0
    3.7448   -6.1189    1.7049 C   0  0  0  0  0  0  0  0  0  0  0  0
    4.1255   -7.5761    2.1314 C   0  0  2  0  0  0  0  0  0  0  0  0
    4.6097   -8.2374    0.8125 C   0  0  0  0  0  0  0  0  0  0  0  0
    5.4097   -7.6357    2.7651 O   0  0  0  0  0  0  0  0  0  0  0  0
    5.7014   -7.0838    4.0402 C   0  0  1  0  0  0  0  0  0  0  0  0
    7.2363   -6.9721    4.2104 C   0  0  0  0  0  0  0  0  0  0  0  0
    7.8395   -8.1484    5.0120 C   0  0  0  0  0  0  0  0  0  0  0  0
    8.0376   -6.7563    2.9130 C   0  0  0  0  0  0  0  0  0  0  0  0
    7.3820   -5.7571    4.9149 O   0  0  0  0  0  0  0  0  0  0  0  0
    6.0192   -5.3485    5.3819 O   0  0  0  0  0  0  0  0  0  0  0  0
    5.0898   -5.7086    4.3717 C   0  0  2  0  0  0  0  0  0  0  0  0
    2.0217   -8.5519    7.0497 H   0  0  0  0  0  0  0  0  0  0  0  0
    0.4953   -9.4031    6.8659 H   0  0  0  0  0  0  0  0  0  0  0  0
    0.5524   -7.7151    6.5171 H   0  0  0  0  0  0  0  0  0  0  0  0
    0.5658   -8.8106    4.4001 H   0  0  0  0  0  0  0  0  0  0  0  0
    2.7565  -10.6357    5.5199 H   0  0  0  0  0  0  0  0  0  0  0  0
    1.0108  -11.6045    6.1687 H   0  0  0  0  0  0  0  0  0  0  0  0
    2.6908  -11.8784    3.4486 H   0  0  0  0  0  0  0  0  0  0  0  0
    1.4118  -10.9157    2.7946 H   0  0  0  0  0  0  0  0  0  0  0  0
    4.2694  -10.0473    3.3786 H   0  0  0  0  0  0  0  0  0  0  0  0
    3.5206  -10.2874    1.8195 H   0  0  0  0  0  0  0  0  0  0  0  0
    1.2637   -7.2256    1.9985 H   0  0  0  0  0  0  0  0  0  0  0  0
    0.8425   -8.8840    2.2818 H   0  0  0  0  0  0  0  0  0  0  0  0
    1.8285   -8.4986    0.9273 H   0  0  0  0  0  0  0  0  0  0  0  0
    3.4805   -8.3803    4.9494 H   0  0  0  0  0  0  0  0  0  0  0  0
    1.9106   -6.0312    3.8871 H   0  0  0  0  0  0  0  0  0  0  0  0
    1.8115   -6.4076    5.4874 H   0  0  0  0  0  0  0  0  0  0  0  0
    3.9939   -6.2466    6.1043 H   0  0  0  0  0  0  0  0  0  0  0  0
    2.3037   -3.8620    3.8282 H   0  0  0  0  0  0  0  0  0  0  0  0
    2.5609   -2.2676    6.0567 H   0  0  0  0  0  0  0  0  0  0  0  0
    1.6863   -1.6491    3.2292 H   0  0  0  0  0  0  0  0  0  0  0  0
    0.7581   -1.9869    4.6048 H   0  0  0  0  0  0  0  0  0  0  0  0
    2.0981   -0.2084    6.7219 H   0  0  0  0  0  0  0  0  0  0  0  0
    1.2444    1.2612    6.4627 H   0  0  0  0  0  0  0  0  0  0  0  0
   -0.0097   -1.4867    6.5706 H   0  0  0  0  0  0  0  0  0  0  0  0
   -0.1657   -0.1901    7.7273 H   0  0  0  0  0  0  0  0  0  0  0  0
   -1.2349   -0.7944    3.9808 H   0  0  0  0  0  0  0  0  0  0  0  0
   -1.9050    0.8188    3.9709 H   0  0  0  0  0  0  0  0  0  0  0  0
    0.3426    0.5696    2.8378 H   0  0  0  0  0  0  0  0  0  0  0  0
    0.0598    2.7751    3.1500 H   0  0  0  0  0  0  0  0  0  0  0  0
   -0.4150    2.6607    4.8018 H   0  0  0  0  0  0  0  0  0  0  0  0
    1.7955    3.9715    4.1208 H   0  0  0  0  0  0  0  0  0  0  0  0
    1.7176    3.1550    5.6419 H   0  0  0  0  0  0  0  0  0  0  0  0
    3.5342    2.7045    3.3739 H   0  0  0  0  0  0  0  0  0  0  0  0
    3.6832    1.1341    6.0131 H   0  0  0  0  0  0  0  0  0  0  0  0
    5.7249    0.1625    4.6340 H   0  0  0  0  0  0  0  0  0  0  0  0
    4.6124   -1.4364    6.1065 H   0  0  0  0  0  0  0  0  0  0  0  0
    4.1684   -2.7691    2.7506 H   0  0  0  0  0  0  0  0  0  0  0  0
    6.2150   -4.2944    3.1890 H   0  0  0  0  0  0  0  0  0  0  0  0
    4.6398   -4.2474    1.1891 H   0  0  0  0  0  0  0  0  0  0  0  0
    5.7733   -5.5222    1.3646 H   0  0  0  0  0  0  0  0  0  0  0  0
    2.8940   -5.7010    2.2123 H   0  0  0  0  0  0  0  0  0  0  0  0
    3.4041   -6.1335    0.6660 H   0  0  0  0  0  0  0  0  0  0  0  0
    3.8174   -8.4372    0.1000 H   0  0  0  0  0  0  0  0  0  0  0  0
    5.1503   -9.1739    0.9739 H   0  0  0  0  0  0  0  0  0  0  0  0
    5.3157   -7.5690    0.3199 H   0  0  0  0  0  0  0  0  0  0  0  0
    5.3953   -7.7828    4.8086 H   0  0  0  0  0  0  0  0  0  0  0  0
    7.7180   -9.0904    4.4755 H   0  0  0  0  0  0  0  0  0  0  0  0
    7.3711   -8.2618    5.9888 H   0  0  0  0  0  0  0  0  0  0  0  0
    8.9070   -8.0091    5.1777 H   0  0  0  0  0  0  0  0  0  0  0  0
    7.9359   -7.5969    2.2271 H   0  0  0  0  0  0  0  0  0  0  0  0
    9.0988   -6.6365    3.1311 H   0  0  0  0  0  0  0  0  0  0  0  0
    7.7198   -5.8521    2.4019 H   0  0  0  0  0  0  0  0  0  0  0  0
  1  2  1  0
  1 48  1  0
  1 49  1  0
  1 50  1  0
  2  9  1  0
  2  3  1  0
  2 51  1  6
  3  4  1  0
  3  5  1  0
  3 52  1  1
  4 53  1  0
  5  6  1  0
  5 54  1  0
  5 55  1  0
  6  7  1  0
  6 56  1  0
  6 57  1  0
  7 38  1  0
  7  8  1  6
  7  9  1  0
  8 58  1  0
  8 59  1  0
  8 60  1  0
  9 10  1  0
  9 61  1  1
 10 11  1  0
 10 62  1  0
 10 63  1  0
 11 47  1  0
 11 12  1  0
 11 64  1  1
 12 13  1  0
 13 34  1  0
 13 14  1  0
 13 65  1  6
 14 32  1  0
 14 15  1  0
 14 66  1  1
 16 15  1  1
 15 67  1  0
 15 68  1  0
 16 22  1  0
 16 31  1  0
 16 17  1  0
 17 18  1  0
 17 69  1  0
 17 70  1  0
 18 19  1  0
 18 71  1  0
 18 72  1  0
 19 20  2  0
 19 21  1  0
 21 22  1  0
 21 73  1  0
 21 74  1  0
 22 23  1  0
 22 75  1  6
 23 24  1  0
 23 76  1  0
 23 77  1  0
 24 25  1  0
 24 78  1  0
 24 79  1  0
 25 31  1  0
 25 26  1  0
 25 80  1  6
 26 31  1  0
 26 27  1  0
 26 81  1  1
 27 28  1  0
 27 32  1  0
 27 82  1  6
 28 29  1  0
 29 30  2  0
 31 29  1  6
 32 33  1  0
 32 83  1  1
 33 34  1  0
 34 35  1  0
 34 84  1  6
 35 47  1  0
 35 36  1  0
 35 85  1  6
 36 37  1  0
 36 86  1  0
 36 87  1  0
 37 38  1  0
 37 88  1  0
 37 89  1  0
 38 39  1  6
 38 40  1  0
 39 90  1  0
 39 91  1  0
 39 92  1  0
 40 41  1  0
 41 47  1  0
 41 42  1  0
 41 93  1  1
 42 43  1  0
 42 44  1  0
 42 45  1  0
 43 94  1  0
 43 95  1  0
 43 96  1  0
 44 97  1  0
 44 98  1  0
 44 99  1  0
 45 46  1  0
 47 46  1  1
M  END
>  <i_m_ct_stereo_status>  (36) 
1

>  <s_m_source_file>  (36) 
/var/tmp/pbs.5076255.sched01/tmppe38rura/0ules8z9c.sdf

>  <i_m_source_file_index>  (36) 
20

>  <i_lp_mmshare_version>  (36) 
48012

>  <i_f3d_flags>  (36) 
0

>  <s_epik_input>  (36) 
TzFPQyhbQ0gzXSkoW0NIM10pW0NAQEhdMk9bQ0BdKFtDSDNdKShbQ0gyXVtDSDJdMylbQ0BAXShbQ0gzXSkoW0NIMl1bQ0gyXVtDQEhdKFtPSF0pW0NASF00W0NIM10pW0NASF00W0NIMl1bQ0BIXShPNSlbQ0BAXTEyW0NAQEhdM1tDQEhdKE82KVtDQEBIXTVbQ0BIXShbQ0gyXTcpW0NAQEhdNltDQEBIXShPQzg9TylbQ0BIXTlbQ0BIXShbQ0BAXTg5W0NAQF0xMjcpW0NIMl1bQ0gyXVtDQEBIXTJbQ0gyXUMoPU8pW0NIMl1bQ0gyXTE=

>  <s_epik_cmdline>  (36) 
J2VwaWtfcHl0aG9uJywgJy1waHQnLCAnMi4wJywgJy1waCcsICc3LjAnLCAnLXRuJywgJzgnLCAnLW1hJywgJzIwMCcsICctaW1hZScsICc8aW5maWxlLm1hZT4nLCAnLW9tYWUnLCAnPG91dGZpbGUubWFlPic=

>  <r_lp_tautomer_probability>  (36) 
1

>  <r_epik_Ionization_Penalty>  (36) 
1.48722e-06

>  <r_epik_Ionization_Penalty_Charging>  (36) 
0

>  <r_epik_Ionization_Penalty_Neutral>  (36) 
1.48722e-06

>  <r_epik_State_Penalty>  (36) 
-0

>  <r_epik_Charging_Adjusted_Penalty>  (36) 
0

>  <i_epik_Tot_Q>  (36) 
0

>  <i_epik_Tot_abs_Q>  (36) 
0

>  <s_epik_Chemistry_Notes>  (36) 
This compound has an ester and may undergo hydrolysis at high or low pH.

>  <s_lp_Force_Field>  (36) 
OPLS3e

>  <r_lp_Energy>  (36) 
175.719

>  <b_lp_Chiralities_Consistent>  (36) 
1

>  <s_lp_Variant>  (36) 
14:0-2

>  <s_i_glide_gridfile>  (36) 
pfpi4k_grid

>  <i_i_glide_lignum>  (36) 
20

>  <i_i_glide_rotatable_bonds>  (36) 
1

>  <r_i_docking_score>  (36) 
-3.4405

>  <r_i_glide_ligand_efficiency>  (36) 
-0.0732021

>  <r_i_glide_ligand_efficiency_sa>  (36) 
-0.264174

>  <r_i_glide_ligand_efficiency_ln>  (36) 
-0.709359

>  <r_i_glide_gscore>  (36) 
-3.4405

>  <r_i_glide_lipo>  (36) 
-0.201795

>  <r_i_glide_hbond>  (36) 
-0.32

>  <r_i_glide_metal>  (36) 
-0

>  <r_i_glide_rewards>  (36) 
-0.0385494

>  <r_i_glide_evdw>  (36) 
-33.3598

>  <r_i_glide_ecoul>  (36) 
-7.69459

>  <r_i_glide_erotb>  (36) 
0

>  <r_i_glide_esite>  (36) 
-0.0579755

>  <r_i_glide_emodel>  (36) 
-48.6071

>  <r_i_glide_energy>  (36) 
-41.0544

>  <r_i_glide_einternal>  (36) 
1.21958

>  <r_i_glide_intrahb_reward>  (36) 
-0

>  <i_i_glide_confnum>  (36) 
1

>  <i_i_glide_posenum>  (36) 
34

>  <r_i_glide_eff_state_penalty>  (36) 
0

>  <ligand_id>  (36) 
14

>  <original_smiles>  (36) 
CC1C(O)CCC2(C)C1CC1OC3C4CC56CCC(=O)CC5CCC5C7C(OC(=O)C576)C4OC3C3CCC2(C)OC2C(C)(C)OOC132

>  <smiles>  (36) 
[H]OC1([H])C([H])([H])C([H])([H])C2(C([H])([H])[H])C([H])(C([H])([H])C3([H])OC4([H])C([H])(OC5([H])C6([H])OC(=O)C78C([H])(C([H])([H])C([H])([H])C9([H])C([H])([H])C(=O)C([H])([H])C([H])([H])C97C([H])([H])C45[H])C68[H])C4([H])C([H])([H])C([H])([H])C2(C([H])([H])[H])OC2([H])C(C([H])([H])[H])(C([H])([H])[H])OOC324)C1([H])C([H])([H])[H]

$$$$
14:1:1
     RDKit          3D

 99109  0  0  1  0  0  0  0  0999 V2000
    4.8635    3.6976    6.4410 C   0  0  0  0  0  0  0  0  0  0  0  0
    3.8059    3.9510    5.3370 C   0  0  2  0  0  0  0  0  0  0  0  0
    3.5333    5.4743    5.2426 C   0  0  1  0  0  0  0  0  0  0  0  0
    4.7032    6.2071    4.9327 O   0  0  0  0  0  0  0  0  0  0  0  0
    2.4808    5.8295    4.1896 C   0  0  0  0  0  0  0  0  0  0  0  0
    1.2024    4.9959    4.3475 C   0  0  0  0  0  0  0  0  0  0  0  0
    1.4154    3.4501    4.3591 C   0  0  1  0  0  0  0  0  0  0  0  0
    2.0589    3.0320    2.9988 C   0  0  0  0  0  0  0  0  0  0  0  0
    2.4493    3.1744    5.5389 C   0  0  1  0  0  0  0  0  0  0  0  0
    2.6285    1.6736    5.9216 C   0  0  0  0  0  0  0  0  0  0  0  0
    1.7714    1.1215    7.0982 C   0  0  2  0  0  0  0  0  0  0  0  0
    2.2016   -0.2092    7.3906 O   0  0  0  0  0  0  0  0  0  0  0  0
    1.7478   -1.2250    6.5000 C   0  0  1  0  0  0  0  0  0  0  0  0
    2.1520   -2.5979    7.0391 C   0  0  2  0  0  0  0  0  0  0  0  0
    2.7592   -3.4872    5.8970 C   0  0  0  0  0  0  0  0  0  0  0  0
    2.9606   -4.9852    6.2479 C   0  0  2  0  0  0  0  0  0  0  0  0
    3.9373   -5.0522    7.4895 C   0  0  0  0  0  0  0  0  0  0  0  0
    5.3675   -4.5726    7.1732 C   0  0  0  0  0  0  0  0  0  0  0  0
    5.9346   -5.3149    5.9667 C   0  0  0  0  0  0  0  0  0  0  0  0
    7.0997   -5.6915    5.9415 O   0  0  0  0  0  0  0  0  0  0  0  0
    5.0057   -5.4954    4.7656 C   0  0  0  0  0  0  0  0  0  0  0  0
    3.5682   -5.9008    5.1617 C   0  0  1  0  0  0  0  0  0  0  0  0
    3.4682   -7.4176    5.5754 C   0  0  0  0  0  0  0  0  0  0  0  0
    2.5041   -7.8329    6.7581 C   0  0  0  0  0  0  0  0  0  0  0  0
    1.2757   -6.9364    6.9865 C   0  0  1  0  0  0  0  0  0  0  0  0
    1.1023   -5.6337    7.8618 C   0  0  2  0  0  0  0  0  0  0  0  0
    0.1651   -4.4268    7.7466 C   0  0  2  0  0  0  0  0  0  0  0  0
   -0.3775   -4.4812    6.4371 O   0  0  0  0  0  0  0  0  0  0  0  0
    0.4394   -5.1079    5.6170 C   0  0  0  0  0  0  0  0  0  0  0  0
    0.2876   -5.3210    4.4102 O   0  0  0  0  0  0  0  0  0  0  0  0
    1.5725   -5.5934    6.4692 C   0  0  1  0  0  0  0  0  0  0  0  0
    0.8945   -3.0347    7.8946 C   0  0  2  0  0  0  0  0  0  0  0  0
   -0.0806   -2.0057    7.6974 O   0  0  0  0  0  0  0  0  0  0  0  0
    0.2234   -1.3068    6.4956 C   0  0  1  0  0  0  0  0  0  0  0  0
   -0.5250    0.0421    6.3774 C   0  0  2  0  0  0  0  0  0  0  0  0
   -0.9987    0.3621    4.9421 C   0  0  0  0  0  0  0  0  0  0  0  0
   -0.0215    1.2053    4.1277 C   0  0  0  0  0  0  0  0  0  0  0  0
   -0.0142    2.7275    4.4850 C   0  0  2  0  0  0  0  0  0  0  0  0
   -1.0752    3.3289    3.5255 C   0  0  0  0  0  0  0  0  0  0  0  0
   -0.7597    3.0199    5.6700 O   0  0  0  0  0  0  0  0  0  0  0  0
   -0.3731    2.6105    6.9771 C   0  0  1  0  0  0  0  0  0  0  0  0
   -1.5892    2.7235    7.9300 C   0  0  0  0  0  0  0  0  0  0  0  0
   -1.5923    4.0227    8.7582 C   0  0  0  0  0  0  0  0  0  0  0  0
   -2.9638    2.5256    7.2767 C   0  0  0  0  0  0  0  0  0  0  0  0
   -1.4460    1.5868    8.7603 O   0  0  0  0  0  0  0  0  0  0  0  0
   -0.0756    1.0274    8.5065 O   0  0  0  0  0  0  0  0  0  0  0  0
    0.2122    1.1907    7.1259 C   0  0  2  0  0  0  0  0  0  0  0  0
    4.4337    3.7826    7.4398 H   0  0  0  0  0  0  0  0  0  0  0  0
    5.6916    4.4047    6.3823 H   0  0  0  0  0  0  0  0  0  0  0  0
    5.3323    2.7188    6.3473 H   0  0  0  0  0  0  0  0  0  0  0  0
    4.2669    3.6156    4.4118 H   0  0  0  0  0  0  0  0  0  0  0  0
    3.1845    5.8211    6.2168 H   0  0  0  0  0  0  0  0  0  0  0  0
    4.9224    6.0707    4.0191 H   0  0  0  0  0  0  0  0  0  0  0  0
    2.2250    6.8864    4.2739 H   0  0  0  0  0  0  0  0  0  0  0  0
    2.8801    5.7109    3.1832 H   0  0  0  0  0  0  0  0  0  0  0  0
    0.7140    5.2872    5.2748 H   0  0  0  0  0  0  0  0  0  0  0  0
    0.5467    5.3055    3.5326 H   0  0  0  0  0  0  0  0  0  0  0  0
    2.3326    1.9781    2.9560 H   0  0  0  0  0  0  0  0  0  0  0  0
    2.9634    3.5792    2.7494 H   0  0  0  0  0  0  0  0  0  0  0  0
    1.4077    3.2194    2.1496 H   0  0  0  0  0  0  0  0  0  0  0  0
    2.0781    3.6556    6.4343 H   0  0  0  0  0  0  0  0  0  0  0  0
    2.6757    1.0384    5.0449 H   0  0  0  0  0  0  0  0  0  0  0  0
    3.6300    1.5188    6.2988 H   0  0  0  0  0  0  0  0  0  0  0  0
    2.0951    1.7054    7.9656 H   0  0  0  0  0  0  0  0  0  0  0  0
    2.1444   -1.0552    5.5017 H   0  0  0  0  0  0  0  0  0  0  0  0
    2.9739   -2.4258    7.7347 H   0  0  0  0  0  0  0  0  0  0  0  0
    2.1861   -3.3719    4.9772 H   0  0  0  0  0  0  0  0  0  0  0  0
    3.7193   -3.0595    5.6221 H   0  0  0  0  0  0  0  0  0  0  0  0
    3.5720   -4.4713    8.3389 H   0  0  0  0  0  0  0  0  0  0  0  0
    4.0430   -6.0588    7.8850 H   0  0  0  0  0  0  0  0  0  0  0  0
    5.3784   -3.5055    6.9600 H   0  0  0  0  0  0  0  0  0  0  0  0
    6.0252   -4.7205    8.0311 H   0  0  0  0  0  0  0  0  0  0  0  0
    4.9923   -4.5549    4.2208 H   0  0  0  0  0  0  0  0  0  0  0  0
    5.4333   -6.2389    4.0965 H   0  0  0  0  0  0  0  0  0  0  0  0
    2.9564   -5.7755    4.2650 H   0  0  0  0  0  0  0  0  0  0  0  0
    3.1902   -7.9696    4.6812 H   0  0  0  0  0  0  0  0  0  0  0  0
    4.4666   -7.7933    5.8244 H   0  0  0  0  0  0  0  0  0  0  0  0
    2.1358   -8.8470    6.5575 H   0  0  0  0  0  0  0  0  0  0  0  0
    3.0538   -7.9282    7.6851 H   0  0  0  0  0  0  0  0  0  0  0  0
    0.3569   -7.4024    6.6589 H   0  0  0  0  0  0  0  0  0  0  0  0
    1.7445   -5.6343    8.7314 H   0  0  0  0  0  0  0  0  0  0  0  0
   -0.6339   -4.5073    8.4862 H   0  0  0  0  0  0  0  0  0  0  0  0
    1.1963   -2.9599    8.9404 H   0  0  0  0  0  0  0  0  0  0  0  0
   -0.0826   -1.9622    5.6853 H   0  0  0  0  0  0  0  0  0  0  0  0
   -1.4663   -0.1312    6.8851 H   0  0  0  0  0  0  0  0  0  0  0  0
   -1.1923   -0.5610    4.4028 H   0  0  0  0  0  0  0  0  0  0  0  0
   -1.9649    0.8673    4.9571 H   0  0  0  0  0  0  0  0  0  0  0  0
    0.9354    0.7188    4.1785 H   0  0  0  0  0  0  0  0  0  0  0  0
   -0.2733    1.0913    3.0717 H   0  0  0  0  0  0  0  0  0  0  0  0
   -0.7497    3.3299    2.4836 H   0  0  0  0  0  0  0  0  0  0  0  0
   -1.3556    4.3476    3.7856 H   0  0  0  0  0  0  0  0  0  0  0  0
   -2.0015    2.7551    3.5466 H   0  0  0  0  0  0  0  0  0  0  0  0
    0.3437    3.3169    7.3786 H   0  0  0  0  0  0  0  0  0  0  0  0
   -1.7011    4.8978    8.1129 H   0  0  0  0  0  0  0  0  0  0  0  0
   -0.6747    4.1465    9.3311 H   0  0  0  0  0  0  0  0  0  0  0  0
   -2.4223    4.0432    9.4667 H   0  0  0  0  0  0  0  0  0  0  0  0
   -3.1750    3.2798    6.5175 H   0  0  0  0  0  0  0  0  0  0  0  0
   -3.7620    2.5674    8.0195 H   0  0  0  0  0  0  0  0  0  0  0  0
   -3.0188    1.5465    6.8124 H   0  0  0  0  0  0  0  0  0  0  0  0
  1  2  1  0
  1 48  1  0
  1 49  1  0
  1 50  1  0
  2  9  1  0
  2  3  1  0
  2 51  1  6
  3  4  1  0
  3  5  1  0
  3 52  1  1
  4 53  1  0
  5  6  1  0
  5 54  1  0
  5 55  1  0
  6  7  1  0
  6 56  1  0
  6 57  1  0
  7 38  1  0
  7  8  1  6
  7  9  1  0
  8 58  1  0
  8 59  1  0
  8 60  1  0
  9 10  1  0
  9 61  1  1
 10 11  1  0
 10 62  1  0
 10 63  1  0
 11 47  1  0
 11 12  1  0
 11 64  1  1
 12 13  1  0
 13 34  1  0
 13 14  1  0
 13 65  1  6
 14 32  1  0
 14 15  1  0
 14 66  1  1
 16 15  1  6
 15 67  1  0
 15 68  1  0
 16 22  1  0
 16 31  1  0
 16 17  1  0
 17 18  1  0
 17 69  1  0
 17 70  1  0
 18 19  1  0
 18 71  1  0
 18 72  1  0
 19 20  2  0
 19 21  1  0
 21 22  1  0
 21 73  1  0
 21 74  1  0
 22 23  1  0
 22 75  1  6
 23 24  1  0
 23 76  1  0
 23 77  1  0
 24 25  1  0
 24 78  1  0
 24 79  1  0
 25 31  1  0
 25 26  1  0
 25 80  1  6
 26 31  1  0
 26 27  1  0
 26 81  1  1
 27 28  1  0
 27 32  1  0
 27 82  1  1
 28 29  1  0
 29 30  2  0
 31 29  1  6
 32 33  1  0
 32 83  1  1
 33 34  1  0
 34 35  1  0
 34 84  1  6
 35 47  1  0
 35 36  1  0
 35 85  1  1
 36 37  1  0
 36 86  1  0
 36 87  1  0
 37 38  1  0
 37 88  1  0
 37 89  1  0
 38 39  1  6
 38 40  1  0
 39 90  1  0
 39 91  1  0
 39 92  1  0
 40 41  1  0
 41 47  1  0
 41 42  1  0
 41 93  1  1
 42 43  1  0
 42 44  1  0
 42 45  1  0
 43 94  1  0
 43 95  1  0
 43 96  1  0
 44 97  1  0
 44 98  1  0
 44 99  1  0
 45 46  1  0
 47 46  1  1
M  END
>  <i_m_ct_stereo_status>  (37) 
1

>  <s_m_source_file>  (37) 
/var/tmp/pbs.5076255.sched01/tmppe38rura/0ules8z9c.sdf

>  <i_m_source_file_index>  (37) 
20

>  <i_lp_mmshare_version>  (37) 
48012

>  <i_f3d_flags>  (37) 
0

>  <s_epik_input>  (37) 
TzFPQyhbQ0gzXSkoW0NIM10pW0NAQEhdMk9bQ0BdKFtDSDNdKShbQ0gyXVtDSDJdMylbQ0BAXShbQ0gzXSkoW0NIMl1bQ0gyXVtDQEhdKFtPSF0pW0NASF00W0NIM10pW0NASF00W0NIMl1bQ0BIXShPNSlbQ0BAXTEyW0NAQEhdM1tDQEhdKE82KVtDQEBIXTVbQ0BIXShbQ0gyXTcpW0NAQEhdNltDQEBIXShPQzg9TylbQ0BIXTlbQ0BIXShbQ0BAXTg5W0NAQF0xMjcpW0NIMl1bQ0gyXVtDQEBIXTJbQ0gyXUMoPU8pW0NIMl1bQ0gyXTE=

>  <s_epik_cmdline>  (37) 
J2VwaWtfcHl0aG9uJywgJy1waHQnLCAnMi4wJywgJy1waCcsICc3LjAnLCAnLXRuJywgJzgnLCAnLW1hJywgJzIwMCcsICctaW1hZScsICc8aW5maWxlLm1hZT4nLCAnLW9tYWUnLCAnPG91dGZpbGUubWFlPic=

>  <r_lp_tautomer_probability>  (37) 
1

>  <r_epik_Ionization_Penalty>  (37) 
1.48722e-06

>  <r_epik_Ionization_Penalty_Charging>  (37) 
0

>  <r_epik_Ionization_Penalty_Neutral>  (37) 
1.48722e-06

>  <r_epik_State_Penalty>  (37) 
-0

>  <r_epik_Charging_Adjusted_Penalty>  (37) 
0

>  <i_epik_Tot_Q>  (37) 
0

>  <i_epik_Tot_abs_Q>  (37) 
0

>  <s_epik_Chemistry_Notes>  (37) 
This compound has an ester and may undergo hydrolysis at high or low pH.

>  <s_lp_Force_Field>  (37) 
OPLS3e

>  <r_lp_Energy>  (37) 
175.719

>  <b_lp_Chiralities_Consistent>  (37) 
1

>  <s_lp_Variant>  (37) 
14:0-2

>  <s_i_glide_gridfile>  (37) 
pfpi4k_grid

>  <i_i_glide_lignum>  (37) 
20

>  <i_i_glide_rotatable_bonds>  (37) 
1

>  <r_i_docking_score>  (37) 
-2.09705

>  <r_i_glide_ligand_efficiency>  (37) 
-0.044618

>  <r_i_glide_ligand_efficiency_sa>  (37) 
-0.161019

>  <r_i_glide_ligand_efficiency_ln>  (37) 
-0.432368

>  <r_i_glide_gscore>  (37) 
-2.09705

>  <r_i_glide_lipo>  (37) 
-0.163308

>  <r_i_glide_hbond>  (37) 
-0.0616196

>  <r_i_glide_metal>  (37) 
-0

>  <r_i_glide_rewards>  (37) 
-0.000173451

>  <r_i_glide_evdw>  (37) 
-30.9763

>  <r_i_glide_ecoul>  (37) 
-2.12712

>  <r_i_glide_erotb>  (37) 
0

>  <r_i_glide_esite>  (37) 
-0.00406416

>  <r_i_glide_emodel>  (37) 
-37.998

>  <r_i_glide_energy>  (37) 
-33.1034

>  <r_i_glide_einternal>  (37) 
0.133045

>  <r_i_glide_intrahb_reward>  (37) 
-0

>  <i_i_glide_confnum>  (37) 
1

>  <i_i_glide_posenum>  (37) 
4

>  <r_i_glide_eff_state_penalty>  (37) 
0

>  <ligand_id>  (37) 
14

>  <original_smiles>  (37) 
CC1C(O)CCC2(C)C1CC1OC3C4CC56CCC(=O)CC5CCC5C7C(OC(=O)C576)C4OC3C3CCC2(C)OC2C(C)(C)OOC132

>  <smiles>  (37) 
[H]OC1([H])C([H])([H])C([H])([H])C2(C([H])([H])[H])C([H])(C([H])([H])C3([H])OC4([H])C([H])(OC5([H])C6([H])OC(=O)C78C([H])(C([H])([H])C([H])([H])C9([H])C([H])([H])C(=O)C([H])([H])C([H])([H])C97C([H])([H])C45[H])C68[H])C4([H])C([H])([H])C([H])([H])C2(C([H])([H])[H])OC2([H])C(C([H])([H])[H])(C([H])([H])[H])OOC324)C1([H])C([H])([H])[H]

$$$$
14:1:2
     RDKit          3D

 99109  0  0  1  0  0  0  0  0999 V2000
    4.6636    4.1473    5.8526 C   0  0  0  0  0  0  0  0  0  0  0  0
    3.4077    4.2263    4.9505 C   0  0  2  0  0  0  0  0  0  0  0  0
    3.0933    5.7180    4.6649 C   0  0  1  0  0  0  0  0  0  0  0  0
    4.1611    6.3665    3.9989 O   0  0  0  0  0  0  0  0  0  0  0  0
    1.8411    5.9104    3.8084 C   0  0  0  0  0  0  0  0  0  0  0  0
    0.6359    5.1411    4.3636 C   0  0  0  0  0  0  0  0  0  0  0  0
    0.8713    3.6160    4.5990 C   0  0  1  0  0  0  0  0  0  0  0  0
    1.2212    2.9493    3.2345 C   0  0  0  0  0  0  0  0  0  0  0  0
    2.1332    3.5230    5.5609 C   0  0  1  0  0  0  0  0  0  0  0  0
    2.4083    2.1053    6.1455 C   0  0  0  0  0  0  0  0  0  0  0  0
    1.8228    1.7773    7.5518 C   0  0  2  0  0  0  0  0  0  0  0  0
    2.3318    0.5072    7.9608 O   0  0  0  0  0  0  0  0  0  0  0  0
    1.7197   -0.6355    7.3722 C   0  0  1  0  0  0  0  0  0  0  0  0
    2.2419   -1.9090    8.0422 C   0  0  2  0  0  0  0  0  0  0  0  0
    2.6100   -2.9883    6.9650 C   0  0  0  0  0  0  0  0  0  0  0  0
    2.8996   -4.4119    7.5131 C   0  0  2  0  0  0  0  0  0  0  0  0
    4.1123   -4.2854    8.5224 C   0  0  0  0  0  0  0  0  0  0  0  0
    5.4420   -3.8948    7.8446 C   0  0  0  0  0  0  0  0  0  0  0  0
    5.7625   -4.8397    6.6905 C   0  0  0  0  0  0  0  0  0  0  0  0
    6.9015   -5.2359    6.4909 O   0  0  0  0  0  0  0  0  0  0  0  0
    4.6112   -5.1997    5.7526 C   0  0  0  0  0  0  0  0  0  0  0  0
    3.2890   -5.5067    6.4944 C   0  0  1  0  0  0  0  0  0  0  0  0
    3.3043   -6.9279    7.1746 C   0  0  0  0  0  0  0  0  0  0  0  0
    2.6045   -7.1207    8.5782 C   0  0  0  0  0  0  0  0  0  0  0  0
    1.4433   -6.1719    8.9013 C   0  0  1  0  0  0  0  0  0  0  0  0
    1.4199   -4.7474    9.5544 C   0  0  2  0  0  0  0  0  0  0  0  0
    0.4679   -3.5513    9.4388 C   0  0  2  0  0  0  0  0  0  0  0  0
   -0.3346   -3.8075    8.3001 O   0  0  0  0  0  0  0  0  0  0  0  0
    0.2996   -4.5811    7.4359 C   0  0  0  0  0  0  0  0  0  0  0  0
   -0.1037   -4.9774    6.3439 O   0  0  0  0  0  0  0  0  0  0  0  0
    1.5959   -4.9374    8.1013 C   0  0  1  0  0  0  0  0  0  0  0  0
    1.1934   -2.1716    9.1945 C   0  0  2  0  0  0  0  0  0  0  0  0
    0.1805   -1.1799    9.0230 O   0  0  0  0  0  0  0  0  0  0  0  0
    0.2323   -0.6839    7.6925 C   0  0  1  0  0  0  0  0  0  0  0  0
   -0.5554    0.6341    7.5177 C   0  0  2  0  0  0  0  0  0  0  0  0
   -1.3227    0.7211    6.1743 C   0  0  0  0  0  0  0  0  0  0  0  0
   -0.5505    1.3935    5.0439 C   0  0  0  0  0  0  0  0  0  0  0  0
   -0.4947    2.9541    5.1221 C   0  0  2  0  0  0  0  0  0  0  0  0
   -1.7315    3.4100    4.2949 C   0  0  0  0  0  0  0  0  0  0  0  0
   -0.9881    3.4532    6.3719 O   0  0  0  0  0  0  0  0  0  0  0  0
   -0.3344    3.2610    7.6210 C   0  0  1  0  0  0  0  0  0  0  0  0
   -1.3320    3.5463    8.7718 C   0  0  0  0  0  0  0  0  0  0  0  0
   -1.1842    4.9699    9.3504 C   0  0  0  0  0  0  0  0  0  0  0  0
   -2.8097    3.2638    8.4547 C   0  0  0  0  0  0  0  0  0  0  0  0
   -1.0020    2.5660    9.7334 O   0  0  0  0  0  0  0  0  0  0  0  0
    0.3100    1.9626    9.3028 O   0  0  0  0  0  0  0  0  0  0  0  0
    0.2995    1.8795    7.8859 C   0  0  2  0  0  0  0  0  0  0  0  0
    4.4414    4.4069    6.8875 H   0  0  0  0  0  0  0  0  0  0  0  0
    5.4520    4.8181    5.5097 H   0  0  0  0  0  0  0  0  0  0  0  0
    5.1193    3.1578    5.8332 H   0  0  0  0  0  0  0  0  0  0  0  0
    3.6952    3.7393    4.0183 H   0  0  0  0  0  0  0  0  0  0  0  0
    2.9463    6.2276    5.6171 H   0  0  0  0  0  0  0  0  0  0  0  0
    4.2326    6.0210    3.1216 H   0  0  0  0  0  0  0  0  0  0  0  0
    1.5914    6.9713    3.7614 H   0  0  0  0  0  0  0  0  0  0  0  0
    2.0249    5.6161    2.7756 H   0  0  0  0  0  0  0  0  0  0  0  0
    0.3433    5.5965    5.3095 H   0  0  0  0  0  0  0  0  0  0  0  0
   -0.1746    5.3222    3.6598 H   0  0  0  0  0  0  0  0  0  0  0  0
    1.5099    1.9028    3.3160 H   0  0  0  0  0  0  0  0  0  0  0  0
    2.0345    3.4401    2.7038 H   0  0  0  0  0  0  0  0  0  0  0  0
    0.3847    2.9850    2.5371 H   0  0  0  0  0  0  0  0  0  0  0  0
    1.9462    4.1549    6.4205 H   0  0  0  0  0  0  0  0  0  0  0  0
    2.2825    1.3312    5.4001 H   0  0  0  0  0  0  0  0  0  0  0  0
    3.4677    1.9965    6.3311 H   0  0  0  0  0  0  0  0  0  0  0  0
    2.3055    2.4923    8.2215 H   0  0  0  0  0  0  0  0  0  0  0  0
    1.8963   -0.6470    6.2994 H   0  0  0  0  0  0  0  0  0  0  0  0
    3.1859   -1.6405    8.5165 H   0  0  0  0  0  0  0  0  0  0  0  0
    1.8591   -3.0165    6.1751 H   0  0  0  0  0  0  0  0  0  0  0  0
    3.4902   -2.6309    6.4297 H   0  0  0  0  0  0  0  0  0  0  0  0
    3.9210   -3.5645    9.3176 H   0  0  0  0  0  0  0  0  0  0  0  0
    4.3140   -5.2123    9.0515 H   0  0  0  0  0  0  0  0  0  0  0  0
    5.3929   -2.8780    7.4580 H   0  0  0  0  0  0  0  0  0  0  0  0
    6.2635   -3.9090    8.5629 H   0  0  0  0  0  0  0  0  0  0  0  0
    4.4693   -4.3646    5.0717 H   0  0  0  0  0  0  0  0  0  0  0  0
    4.9022   -6.0542    5.1447 H   0  0  0  0  0  0  0  0  0  0  0  0
    2.5052   -5.5241    5.7362 H   0  0  0  0  0  0  0  0  0  0  0  0
    2.8545   -7.6179    6.4605 H   0  0  0  0  0  0  0  0  0  0  0  0
    4.3371   -7.2782    7.2682 H   0  0  0  0  0  0  0  0  0  0  0  0
    2.2211   -8.1447    8.6306 H   0  0  0  0  0  0  0  0  0  0  0  0
    3.3358   -7.0689    9.3773 H   0  0  0  0  0  0  0  0  0  0  0  0
    0.4785   -6.6725    8.8567 H   0  0  0  0  0  0  0  0  0  0  0  0
    2.2325   -4.6111   10.2627 H   0  0  0  0  0  0  0  0  0  0  0  0
   -0.1574   -3.4945   10.3280 H   0  0  0  0  0  0  0  0  0  0  0  0
    1.6948   -1.9238   10.1321 H   0  0  0  0  0  0  0  0  0  0  0  0
   -0.2233   -1.4582    7.0770 H   0  0  0  0  0  0  0  0  0  0  0  0
   -1.3545    0.5734    8.2531 H   0  0  0  0  0  0  0  0  0  0  0  0
   -1.6067   -0.2760    5.8448 H   0  0  0  0  0  0  0  0  0  0  0  0
   -2.2711    1.2412    6.3019 H   0  0  0  0  0  0  0  0  0  0  0  0
    0.4047    0.9041    4.9771 H   0  0  0  0  0  0  0  0  0  0  0  0
   -1.0112    1.1075    4.0963 H   0  0  0  0  0  0  0  0  0  0  0  0
   -1.6244    3.2478    3.2230 H   0  0  0  0  0  0  0  0  0  0  0  0
   -1.9736    4.4593    4.4558 H   0  0  0  0  0  0  0  0  0  0  0  0
   -2.6232    2.8627    4.6023 H   0  0  0  0  0  0  0  0  0  0  0  0
    0.4374    4.0123    7.7423 H   0  0  0  0  0  0  0  0  0  0  0  0
   -1.4355    5.7275    8.6037 H   0  0  0  0  0  0  0  0  0  0  0  0
   -0.1703    5.1725    9.6928 H   0  0  0  0  0  0  0  0  0  0  0  0
   -1.8503    5.1285   10.2003 H   0  0  0  0  0  0  0  0  0  0  0  0
   -3.1761    3.8953    7.6456 H   0  0  0  0  0  0  0  0  0  0  0  0
   -3.4358    3.4485    9.3307 H   0  0  0  0  0  0  0  0  0  0  0  0
   -2.9643    2.2253    8.1755 H   0  0  0  0  0  0  0  0  0  0  0  0
  1  2  1  0
  1 48  1  0
  1 49  1  0
  1 50  1  0
  2  9  1  0
  2  3  1  0
  2 51  1  6
  3  4  1  0
  3  5  1  0
  3 52  1  1
  4 53  1  0
  5  6  1  0
  5 54  1  0
  5 55  1  0
  6  7  1  0
  6 56  1  0
  6 57  1  0
  7 38  1  0
  7  8  1  6
  7  9  1  0
  8 58  1  0
  8 59  1  0
  8 60  1  0
  9 10  1  0
  9 61  1  1
 10 11  1  0
 10 62  1  0
 10 63  1  0
 11 47  1  0
 11 12  1  0
 11 64  1  1
 12 13  1  0
 13 34  1  0
 13 14  1  0
 13 65  1  6
 14 32  1  0
 14 15  1  0
 14 66  1  1
 16 15  1  6
 15 67  1  0
 15 68  1  0
 16 22  1  0
 16 31  1  0
 16 17  1  0
 17 18  1  0
 17 69  1  0
 17 70  1  0
 18 19  1  0
 18 71  1  0
 18 72  1  0
 19 20  2  0
 19 21  1  0
 21 22  1  0
 21 73  1  0
 21 74  1  0
 22 23  1  0
 22 75  1  6
 23 24  1  0
 23 76  1  0
 23 77  1  0
 24 25  1  0
 24 78  1  0
 24 79  1  0
 25 31  1  0
 25 26  1  0
 25 80  1  6
 26 31  1  0
 26 27  1  0
 26 81  1  1
 27 28  1  0
 27 32  1  0
 27 82  1  1
 28 29  1  0
 29 30  2  0
 31 29  1  6
 32 33  1  0
 32 83  1  1
 33 34  1  0
 34 35  1  0
 34 84  1  6
 35 47  1  0
 35 36  1  0
 35 85  1  1
 36 37  1  0
 36 86  1  0
 36 87  1  0
 37 38  1  0
 37 88  1  0
 37 89  1  0
 38 39  1  6
 38 40  1  0
 39 90  1  0
 39 91  1  0
 39 92  1  0
 40 41  1  0
 41 47  1  0
 41 42  1  0
 41 93  1  1
 42 43  1  0
 42 44  1  0
 42 45  1  0
 43 94  1  0
 43 95  1  0
 43 96  1  0
 44 97  1  0
 44 98  1  0
 44 99  1  0
 45 46  1  0
 47 46  1  1
M  END
>  <i_m_ct_stereo_status>  (38) 
1

>  <s_m_source_file>  (38) 
/var/tmp/pbs.5076255.sched01/tmppe38rura/0ules8z9c.sdf

>  <i_m_source_file_index>  (38) 
20

>  <i_lp_mmshare_version>  (38) 
48012

>  <i_f3d_flags>  (38) 
0

>  <s_epik_input>  (38) 
TzFPQyhbQ0gzXSkoW0NIM10pW0NAQEhdMk9bQ0BdKFtDSDNdKShbQ0gyXVtDSDJdMylbQ0BAXShbQ0gzXSkoW0NIMl1bQ0gyXVtDQEhdKFtPSF0pW0NASF00W0NIM10pW0NASF00W0NIMl1bQ0BIXShPNSlbQ0BAXTEyW0NAQEhdM1tDQEhdKE82KVtDQEBIXTVbQ0BIXShbQ0gyXTcpW0NAQEhdNltDQEBIXShPQzg9TylbQ0BIXTlbQ0BIXShbQ0BAXTg5W0NAQF0xMjcpW0NIMl1bQ0gyXVtDQEBIXTJbQ0gyXUMoPU8pW0NIMl1bQ0gyXTE=

>  <s_epik_cmdline>  (38) 
J2VwaWtfcHl0aG9uJywgJy1waHQnLCAnMi4wJywgJy1waCcsICc3LjAnLCAnLXRuJywgJzgnLCAnLW1hJywgJzIwMCcsICctaW1hZScsICc8aW5maWxlLm1hZT4nLCAnLW9tYWUnLCAnPG91dGZpbGUubWFlPic=

>  <r_lp_tautomer_probability>  (38) 
1

>  <r_epik_Ionization_Penalty>  (38) 
1.48722e-06

>  <r_epik_Ionization_Penalty_Charging>  (38) 
0

>  <r_epik_Ionization_Penalty_Neutral>  (38) 
1.48722e-06

>  <r_epik_State_Penalty>  (38) 
-0

>  <r_epik_Charging_Adjusted_Penalty>  (38) 
0

>  <i_epik_Tot_Q>  (38) 
0

>  <i_epik_Tot_abs_Q>  (38) 
0

>  <s_epik_Chemistry_Notes>  (38) 
This compound has an ester and may undergo hydrolysis at high or low pH.

>  <s_lp_Force_Field>  (38) 
OPLS3e

>  <r_lp_Energy>  (38) 
175.719

>  <b_lp_Chiralities_Consistent>  (38) 
1

>  <s_lp_Variant>  (38) 
14:0-2

>  <s_i_glide_gridfile>  (38) 
pfpi4k_grid

>  <i_i_glide_lignum>  (38) 
20

>  <i_i_glide_rotatable_bonds>  (38) 
1

>  <r_i_docking_score>  (38) 
-1.90014

>  <r_i_glide_ligand_efficiency>  (38) 
-0.0404285

>  <r_i_glide_ligand_efficiency_sa>  (38) 
-0.145899

>  <r_i_glide_ligand_efficiency_ln>  (38) 
-0.391769

>  <r_i_glide_gscore>  (38) 
-1.90014

>  <r_i_glide_lipo>  (38) 
-0.0905062

>  <r_i_glide_hbond>  (38) 
-0.0788013

>  <r_i_glide_metal>  (38) 
-0

>  <r_i_glide_rewards>  (38) 
0

>  <r_i_glide_evdw>  (38) 
-29.883

>  <r_i_glide_ecoul>  (38) 
-1.54776

>  <r_i_glide_erotb>  (38) 
0

>  <r_i_glide_esite>  (38) 
-0.00451791

>  <r_i_glide_emodel>  (38) 
-35.8778

>  <r_i_glide_energy>  (38) 
-31.4307

>  <r_i_glide_einternal>  (38) 
0.0512609

>  <r_i_glide_intrahb_reward>  (38) 
-0

>  <i_i_glide_confnum>  (38) 
1

>  <i_i_glide_posenum>  (38) 
5

>  <r_i_glide_eff_state_penalty>  (38) 
0

>  <ligand_id>  (38) 
14

>  <original_smiles>  (38) 
CC1C(O)CCC2(C)C1CC1OC3C4CC56CCC(=O)CC5CCC5C7C(OC(=O)C576)C4OC3C3CCC2(C)OC2C(C)(C)OOC132

>  <smiles>  (38) 
[H]OC1([H])C([H])([H])C([H])([H])C2(C([H])([H])[H])C([H])(C([H])([H])C3([H])OC4([H])C([H])(OC5([H])C6([H])OC(=O)C78C([H])(C([H])([H])C([H])([H])C9([H])C([H])([H])C(=O)C([H])([H])C([H])([H])C97C([H])([H])C45[H])C68[H])C4([H])C([H])([H])C([H])([H])C2(C([H])([H])[H])OC2([H])C(C([H])([H])[H])(C([H])([H])[H])OOC324)C1([H])C([H])([H])[H]

$$$$
15:1:0
     RDKit          3D

 51 58  0  0  1  0  0  0  0  0999 V2000
    3.9944   -0.1219    2.3960 C   0  0  0  0  0  0  0  0  0  0  0  0
    4.0176   -0.0719    0.8764 C   0  0  0  0  0  0  0  0  0  0  0  0
    4.2614   -1.0698    0.0166 C   0  0  0  0  0  0  0  0  0  0  0  0
    4.2217   -0.8519   -1.4658 C   0  0  2  0  0  0  0  0  0  0  0  0
    3.1700   -1.4242   -2.4021 C   0  0  0  0  0  0  0  0  0  0  0  0
    4.5292   -2.0587   -2.2928 C   0  0  2  0  0  0  0  0  0  0  0  0
    4.7884   -3.3058   -1.4740 C   0  0  2  0  0  0  0  0  0  0  0  0
    4.9778   -4.3115   -2.4288 O   0  0  0  0  0  0  0  0  0  0  0  0
    3.8422   -3.6085   -0.2728 C   0  0  2  0  0  0  0  0  0  0  0  0
    4.6493   -2.5048    0.4347 C   0  0  1  0  0  0  0  0  0  0  0  0
    5.8398   -3.1716   -0.3289 C   0  0  2  0  0  0  0  0  0  0  0  0
    6.8963   -2.2446   -0.6143 O   0  0  0  0  0  0  0  0  0  0  0  0
    7.7632   -2.6657   -1.6691 C   0  0  0  0  0  0  0  0  0  0  0  0
    6.3381   -4.4475    0.3851 C   0  0  0  0  0  0  0  0  0  0  0  0
    5.1969   -5.5055    0.4916 C   0  0  1  0  0  0  0  0  0  0  0  0
    5.4251   -6.6776    1.5062 C   0  0  1  0  0  0  0  0  0  0  0  0
    4.3115   -7.7079    1.1144 C   0  0  0  0  0  0  0  0  0  0  0  0
    3.1726   -7.5305    2.1105 C   0  0  1  0  0  0  0  0  0  0  0  0
    3.7832   -6.8476    3.2976 C   0  0  1  0  0  0  0  0  0  0  0  0
    5.2815   -6.8170    3.0573 C   0  0  0  0  0  0  0  0  0  0  0  0
    3.0768   -5.5561    2.9169 C   0  0  2  0  0  0  0  0  0  0  0  0
    2.3440   -6.3041    1.8211 C   0  0  1  0  0  0  0  0  0  0  0  0
    2.9016   -4.9445    1.5179 C   0  0  2  0  0  0  0  0  0  0  0  0
    3.8145   -4.9390    0.3518 N   0  0  0  0  0  0  0  0  0  0  0  0
    3.0629    0.3077    2.7592 H   0  0  0  0  0  0  0  0  0  0  0  0
    4.8025    0.4766    2.8089 H   0  0  0  0  0  0  0  0  0  0  0  0
    4.0687   -1.1228    2.8111 H   0  0  0  0  0  0  0  0  0  0  0  0
    3.8130    0.9146    0.4889 H   0  0  0  0  0  0  0  0  0  0  0  0
    4.6472    0.0915   -1.7751 H   0  0  0  0  0  0  0  0  0  0  0  0
    2.3177   -1.9534   -1.9876 H   0  0  0  0  0  0  0  0  0  0  0  0
    2.9823   -0.8872   -3.3273 H   0  0  0  0  0  0  0  0  0  0  0  0
    5.2080   -1.9189   -3.1224 H   0  0  0  0  0  0  0  0  0  0  0  0
    4.2635   -4.9356   -2.2895 H   0  0  0  0  0  0  0  0  0  0  0  0
    2.8157   -3.2978   -0.4867 H   0  0  0  0  0  0  0  0  0  0  0  0
    4.6965   -2.6461    1.5131 H   0  0  0  0  0  0  0  0  0  0  0  0
    8.5781   -1.9525   -1.7799 H   0  0  0  0  0  0  0  0  0  0  0  0
    7.2405   -2.7263   -2.6239 H   0  0  0  0  0  0  0  0  0  0  0  0
    8.2281   -3.6332   -1.4888 H   0  0  0  0  0  0  0  0  0  0  0  0
    7.1413   -4.9409   -0.1502 H   0  0  0  0  0  0  0  0  0  0  0  0
    6.7501   -4.1830    1.3594 H   0  0  0  0  0  0  0  0  0  0  0  0
    5.3421   -6.0256   -0.4545 H   0  0  0  0  0  0  0  0  0  0  0  0
    5.2825   -5.7116    1.9739 H   0  0  0  0  0  0  0  0  0  0  0  0
    3.9696   -7.6248    0.0816 H   0  0  0  0  0  0  0  0  0  0  0  0
    4.7343   -8.7084    1.2174 H   0  0  0  0  0  0  0  0  0  0  0  0
    2.5892   -8.4176    2.3578 H   0  0  0  0  0  0  0  0  0  0  0  0
    3.4469   -7.2593    4.2511 H   0  0  0  0  0  0  0  0  0  0  0  0
    5.6785   -7.7957    3.3276 H   0  0  0  0  0  0  0  0  0  0  0  0
    5.8212   -6.1147    3.7089 H   0  0  0  0  0  0  0  0  0  0  0  0
    2.4995   -5.1014    3.7237 H   0  0  0  0  0  0  0  0  0  0  0  0
    1.2735   -6.4315    1.9558 H   0  0  0  0  0  0  0  0  0  0  0  0
    2.1163   -4.1998    1.3904 H   0  0  0  0  0  0  0  0  0  0  0  0
  1  2  1  0
  1 25  1  0
  1 26  1  0
  1 27  1  0
  2  3  2  3
  2 28  1  0
  3 10  1  0
  3  4  1  0
  4  6  1  0
  4  5  1  0
  4 29  1  1
  5  6  1  0
  5 30  1  0
  5 31  1  0
  6  7  1  0
  6 32  1  6
  7 11  1  0
  7  8  1  6
  7  9  1  0
  8 33  1  0
  9 24  1  0
  9 10  1  0
  9 34  1  6
 10 11  1  0
 10 35  1  1
 11 12  1  6
 11 14  1  0
 12 13  1  0
 13 36  1  0
 13 37  1  0
 13 38  1  0
 14 15  1  0
 14 39  1  0
 14 40  1  0
 15 24  1  0
 15 16  1  0
 15 41  1  6
 16 20  1  0
 16 17  1  0
 16 42  1  6
 17 18  1  0
 17 43  1  0
 17 44  1  0
 18 22  1  0
 18 19  1  0
 18 45  1  1
 19 20  1  0
 19 21  1  0
 19 46  1  1
 20 47  1  0
 20 48  1  0
 21 23  1  0
 21 22  1  0
 21 49  1  1
 22 23  1  0
 22 50  1  1
 23 24  1  0
 23 51  1  1
M  END
>  <i_m_ct_stereo_status>  (39) 
1

>  <s_m_source_file>  (39) 
/var/tmp/pbs.5076255.sched01/tmppe38rura/0ules8z9c.sdf

>  <i_m_source_file_index>  (39) 
22

>  <i_lp_mmshare_version>  (39) 
48012

>  <i_f3d_flags>  (39) 
0

>  <s_epik_input>  (39) 
W09IXVtDQEBdMTJbQ0BASF0zW0NAQEhdKFtDSDJdMykvQyg9W0NIXVxbQ0gzXSlbQ0BIXTRbQ0BASF0xTjVbQ0BASF0oW0NIMl1bQ0BAXTI0T1tDSDNdKVtDQEBIXTZbQ0gyXVtDQEhdN1tDQEBIXShbQ0gyXTYpW0NAQEhdOFtDQEhdN1tDQEhdNTg=

>  <s_epik_cmdline>  (39) 
J2VwaWtfcHl0aG9uJywgJy1waHQnLCAnMi4wJywgJy1waCcsICc3LjAnLCAnLXRuJywgJzgnLCAnLW1hJywgJzIwMCcsICctaW1hZScsICc8aW5maWxlLm1hZT4nLCAnLW9tYWUnLCAnPG91dGZpbGUubWFlPic=

>  <r_epik_Ionization_Penalty>  (39) 
1.59733

>  <r_epik_Ionization_Penalty_Charging>  (39) 
0

>  <r_epik_Ionization_Penalty_Neutral>  (39) 
1.59733

>  <r_epik_State_Penalty>  (39) 
1.69521

>  <r_epik_Charging_Adjusted_Penalty>  (39) 
1.69521

>  <i_epik_Tot_Q>  (39) 
0

>  <i_epik_Tot_abs_Q>  (39) 
0

>  <s_lp_Force_Field>  (39) 
OPLS3e

>  <r_lp_Energy>  (39) 
152.683

>  <b_lp_Chiralities_Consistent>  (39) 
1

>  <s_lp_Variant>  (39) 
15:0-2

>  <s_i_glide_gridfile>  (39) 
pfpi4k_grid

>  <i_i_glide_lignum>  (39) 
22

>  <i_i_glide_rotatable_bonds>  (39) 
2

>  <r_i_docking_score>  (39) 
-3.47315

>  <r_i_glide_ligand_efficiency>  (39) 
-0.144714

>  <r_i_glide_ligand_efficiency_sa>  (39) 
-0.417429

>  <r_i_glide_ligand_efficiency_ln>  (39) 
-0.831283

>  <r_i_glide_gscore>  (39) 
-3.47315

>  <r_i_glide_lipo>  (39) 
-0.571373

>  <r_i_glide_hbond>  (39) 
-0.119196

>  <r_i_glide_metal>  (39) 
-0

>  <r_i_glide_rewards>  (39) 
-1.19015

>  <r_i_glide_evdw>  (39) 
-17.8313

>  <r_i_glide_ecoul>  (39) 
-4.67242

>  <r_i_glide_erotb>  (39) 
0

>  <r_i_glide_esite>  (39) 
0

>  <r_i_glide_emodel>  (39) 
-25.5717

>  <r_i_glide_energy>  (39) 
-22.5037

>  <r_i_glide_einternal>  (39) 
2.32285

>  <r_i_glide_intrahb_reward>  (39) 
-0

>  <i_i_glide_confnum>  (39) 
2

>  <i_i_glide_posenum>  (39) 
23

>  <r_i_glide_eff_state_penalty>  (39) 
0

>  <ligand_id>  (39) 
15

>  <original_smiles>  (39) 
CC=C1C2CC2C2(O)C3C1C2(OC)CC1C2CC4C(C2)C2C4C2N13

>  <smiles>  (39) 
[H]OC12C3([H])N4C([H])(C([H])([H])C1(OC([H])([H])[H])C3([H])C(=C([H])C([H])([H])[H])C1([H])C([H])([H])C12[H])C1([H])C([H])([H])C2([H])C([H])(C1([H])[H])C1([H])C4([H])C21[H]

$$$$
15:1:1
     RDKit          3D

 51 58  0  0  1  0  0  0  0  0999 V2000
    6.3090   -0.2080    0.4928 C   0  0  0  0  0  0  0  0  0  0  0  0
    5.6137   -0.7059   -0.7503 C   0  0  0  0  0  0  0  0  0  0  0  0
    4.7851   -1.7383   -0.7886 C   0  0  0  0  0  0  0  0  0  0  0  0
    4.2941   -2.2394   -2.0912 C   0  0  2  0  0  0  0  0  0  0  0  0
    2.8755   -2.1005   -2.5762 C   0  0  0  0  0  0  0  0  0  0  0  0
    3.3579   -3.3992   -1.9596 C   0  0  2  0  0  0  0  0  0  0  0  0
    3.0823   -3.7937   -0.4973 C   0  0  2  0  0  0  0  0  0  0  0  0
    2.0731   -4.7445   -0.5342 O   0  0  0  0  0  0  0  0  0  0  0  0
    2.8516   -2.6928    0.5384 C   0  0  2  0  0  0  0  0  0  0  0  0
    4.3655   -2.5238    0.4716 C   0  0  1  0  0  0  0  0  0  0  0  0
    4.3625   -4.0592    0.3458 C   0  0  2  0  0  0  0  0  0  0  0  0
    5.4699   -4.5476   -0.4248 O   0  0  0  0  0  0  0  0  0  0  0  0
    6.7627   -4.2223    0.0942 C   0  0  0  0  0  0  0  0  0  0  0  0
    4.1880   -4.7831    1.7151 C   0  0  0  0  0  0  0  0  0  0  0  0
    2.8353   -4.3450    2.3780 C   0  0  1  0  0  0  0  0  0  0  0  0
    2.6648   -4.6215    3.9072 C   0  0  1  0  0  0  0  0  0  0  0  0
    1.1314   -4.3869    4.1613 C   0  0  0  0  0  0  0  0  0  0  0  0
    1.0007   -3.0011    4.7669 C   0  0  1  0  0  0  0  0  0  0  0  0
    2.3509   -2.6619    5.3192 C   0  0  1  0  0  0  0  0  0  0  0  0
    3.1973   -3.9162    5.2006 C   0  0  0  0  0  0  0  0  0  0  0  0
    2.5575   -1.6570    4.2036 C   0  0  2  0  0  0  0  0  0  0  0  0
    1.1316   -1.9091    3.7426 C   0  0  1  0  0  0  0  0  0  0  0  0
    2.2236   -1.8512    2.7127 C   0  0  2  0  0  0  0  0  0  0  0  0
    2.2782   -3.0524    1.8564 N   0  0  0  0  0  0  0  0  0  0  0  0
    6.1646    0.8547    0.5331 H   0  0  0  0  0  0  0  0  0  0  0  0
    7.3754   -0.3809    0.4555 H   0  0  0  0  0  0  0  0  0  0  0  0
    5.9656   -0.6291    1.4307 H   0  0  0  0  0  0  0  0  0  0  0  0
    5.7744   -0.2443   -1.7106 H   0  0  0  0  0  0  0  0  0  0  0  0
    5.0704   -2.2988   -2.8420 H   0  0  0  0  0  0  0  0  0  0  0  0
    2.2443   -1.4404   -2.0118 H   0  0  0  0  0  0  0  0  0  0  0  0
    2.7143   -2.0982   -3.6441 H   0  0  0  0  0  0  0  0  0  0  0  0
    3.6474   -4.1994   -2.6274 H   0  0  0  0  0  0  0  0  0  0  0  0
    2.3505   -5.3326   -1.2199 H   0  0  0  0  0  0  0  0  0  0  0  0
    2.3287   -1.8511    0.1176 H   0  0  0  0  0  0  0  0  0  0  0  0
    4.7789   -2.1780    1.4010 H   0  0  0  0  0  0  0  0  0  0  0  0
    7.5396   -4.5744   -0.5777 H   0  0  0  0  0  0  0  0  0  0  0  0
    6.9231   -4.6868    1.0693 H   0  0  0  0  0  0  0  0  0  0  0  0
    6.9347   -3.1493    0.1671 H   0  0  0  0  0  0  0  0  0  0  0  0
    4.1500   -5.8615    1.5765 H   0  0  0  0  0  0  0  0  0  0  0  0
    5.0233   -4.5694    2.3867 H   0  0  0  0  0  0  0  0  0  0  0  0
    2.1717   -5.1153    1.9758 H   0  0  0  0  0  0  0  0  0  0  0  0
    3.3881   -3.8535    3.6634 H   0  0  0  0  0  0  0  0  0  0  0  0
    0.5092   -4.4861    3.2681 H   0  0  0  0  0  0  0  0  0  0  0  0
    0.7900   -5.1396    4.8702 H   0  0  0  0  0  0  0  0  0  0  0  0
    0.1744   -2.8190    5.4594 H   0  0  0  0  0  0  0  0  0  0  0  0
    2.2878   -2.1757    6.3022 H   0  0  0  0  0  0  0  0  0  0  0  0
    2.9562   -4.5627    6.0410 H   0  0  0  0  0  0  0  0  0  0  0  0
    4.2681   -3.7092    5.2905 H   0  0  0  0  0  0  0  0  0  0  0  0
    2.7553   -0.6533    4.5670 H   0  0  0  0  0  0  0  0  0  0  0  0
    0.4795   -1.0658    3.8930 H   0  0  0  0  0  0  0  0  0  0  0  0
    2.1194   -0.9708    2.0946 H   0  0  0  0  0  0  0  0  0  0  0  0
  1  2  1  0
  1 25  1  0
  1 26  1  0
  1 27  1  0
  2  3  2  3
  2 28  1  0
  3 10  1  0
  3  4  1  0
  4  6  1  0
  4  5  1  0
  4 29  1  6
  5  6  1  0
  5 30  1  0
  5 31  1  0
  6  7  1  0
  6 32  1  6
  7 11  1  0
  7  8  1  6
  7  9  1  0
  8 33  1  0
  9 24  1  0
  9 10  1  0
  9 34  1  6
 10 11  1  0
 10 35  1  1
 11 12  1  6
 11 14  1  0
 12 13  1  0
 13 36  1  0
 13 37  1  0
 13 38  1  0
 14 15  1  0
 14 39  1  0
 14 40  1  0
 15 24  1  0
 15 16  1  0
 15 41  1  6
 16 20  1  0
 16 17  1  0
 16 42  1  6
 17 18  1  0
 17 43  1  0
 17 44  1  0
 18 22  1  0
 18 19  1  0
 18 45  1  1
 19 20  1  0
 19 21  1  0
 19 46  1  1
 20 47  1  0
 20 48  1  0
 21 23  1  0
 21 22  1  0
 21 49  1  6
 22 23  1  0
 22 50  1  6
 23 24  1  0
 23 51  1  6
M  END
>  <i_m_ct_stereo_status>  (40) 
1

>  <s_m_source_file>  (40) 
/var/tmp/pbs.5076255.sched01/tmppe38rura/0ules8z9c.sdf

>  <i_m_source_file_index>  (40) 
22

>  <i_lp_mmshare_version>  (40) 
48012

>  <i_f3d_flags>  (40) 
0

>  <s_epik_input>  (40) 
W09IXVtDQEBdMTJbQ0BASF0zW0NAQEhdKFtDSDJdMykvQyg9W0NIXVxbQ0gzXSlbQ0BIXTRbQ0BASF0xTjVbQ0BASF0oW0NIMl1bQ0BAXTI0T1tDSDNdKVtDQEBIXTZbQ0gyXVtDQEhdN1tDQEBIXShbQ0gyXTYpW0NAQEhdOFtDQEhdN1tDQEhdNTg=

>  <s_epik_cmdline>  (40) 
J2VwaWtfcHl0aG9uJywgJy1waHQnLCAnMi4wJywgJy1waCcsICc3LjAnLCAnLXRuJywgJzgnLCAnLW1hJywgJzIwMCcsICctaW1hZScsICc8aW5maWxlLm1hZT4nLCAnLW9tYWUnLCAnPG91dGZpbGUubWFlPic=

>  <r_epik_Ionization_Penalty>  (40) 
1.59733

>  <r_epik_Ionization_Penalty_Charging>  (40) 
0

>  <r_epik_Ionization_Penalty_Neutral>  (40) 
1.59733

>  <r_epik_State_Penalty>  (40) 
1.69521

>  <r_epik_Charging_Adjusted_Penalty>  (40) 
1.69521

>  <i_epik_Tot_Q>  (40) 
0

>  <i_epik_Tot_abs_Q>  (40) 
0

>  <s_lp_Force_Field>  (40) 
OPLS3e

>  <r_lp_Energy>  (40) 
152.683

>  <b_lp_Chiralities_Consistent>  (40) 
1

>  <s_lp_Variant>  (40) 
15:0-2

>  <s_i_glide_gridfile>  (40) 
pfpi4k_grid

>  <i_i_glide_lignum>  (40) 
22

>  <i_i_glide_rotatable_bonds>  (40) 
2

>  <r_i_docking_score>  (40) 
-2.24097

>  <r_i_glide_ligand_efficiency>  (40) 
-0.0933736

>  <r_i_glide_ligand_efficiency_sa>  (40) 
-0.269336

>  <r_i_glide_ligand_efficiency_ln>  (40) 
-0.536366

>  <r_i_glide_gscore>  (40) 
-2.24097

>  <r_i_glide_lipo>  (40) 
-0.21469

>  <r_i_glide_hbond>  (40) 
0

>  <r_i_glide_metal>  (40) 
-0

>  <r_i_glide_rewards>  (40) 
-1.19015

>  <r_i_glide_evdw>  (40) 
-4.52071

>  <r_i_glide_ecoul>  (40) 
-4.06726

>  <r_i_glide_erotb>  (40) 
0

>  <r_i_glide_esite>  (40) 
0

>  <r_i_glide_emodel>  (40) 
-9.92476

>  <r_i_glide_energy>  (40) 
-8.58798

>  <r_i_glide_einternal>  (40) 
1.35693

>  <r_i_glide_intrahb_reward>  (40) 
-0

>  <i_i_glide_confnum>  (40) 
1

>  <i_i_glide_posenum>  (40) 
1

>  <r_i_glide_eff_state_penalty>  (40) 
0

>  <ligand_id>  (40) 
15

>  <original_smiles>  (40) 
CC=C1C2CC2C2(O)C3C1C2(OC)CC1C2CC4C(C2)C2C4C2N13

>  <smiles>  (40) 
[H]OC12C3([H])N4C([H])(C([H])([H])C1(OC([H])([H])[H])C3([H])C(=C([H])C([H])([H])[H])C1([H])C([H])([H])C12[H])C1([H])C([H])([H])C2([H])C([H])(C1([H])[H])C1([H])C4([H])C21[H]

$$$$
15:1:2
     RDKit          3D

 51 58  0  0  1  0  0  0  0  0999 V2000
    4.8242   -0.2208    2.2601 C   0  0  0  0  0  0  0  0  0  0  0  0
    4.5534   -0.9063    0.9392 C   0  0  0  0  0  0  0  0  0  0  0  0
    4.2384   -2.1964    0.7485 C   0  0  0  0  0  0  0  0  0  0  0  0
    4.0087   -2.7381   -0.6291 C   0  0  2  0  0  0  0  0  0  0  0  0
    2.6750   -3.2185   -1.1635 C   0  0  0  0  0  0  0  0  0  0  0  0
    3.7018   -4.2102   -0.6778 C   0  0  2  0  0  0  0  0  0  0  0  0
    3.6125   -4.8681    0.6833 C   0  0  2  0  0  0  0  0  0  0  0  0
    3.1897   -6.1994    0.4858 O   0  0  0  0  0  0  0  0  0  0  0  0
    2.8651   -4.1187    1.8060 C   0  0  2  0  0  0  0  0  0  0  0  0
    4.1397   -3.2504    1.8812 C   0  0  1  0  0  0  0  0  0  0  0  0
    4.8305   -4.6252    1.6120 C   0  0  2  0  0  0  0  0  0  0  0  0
    6.0286   -4.5261    0.8451 O   0  0  0  0  0  0  0  0  0  0  0  0
    7.1425   -4.0063    1.5364 C   0  0  0  0  0  0  0  0  0  0  0  0
    4.9489   -5.5013    2.8821 C   0  0  0  0  0  0  0  0  0  0  0  0
    3.5351   -5.7884    3.4912 C   0  0  1  0  0  0  0  0  0  0  0  0
    3.4838   -6.2822    4.9753 C   0  0  1  0  0  0  0  0  0  0  0  0
    2.0091   -6.7868    5.1397 C   0  0  0  0  0  0  0  0  0  0  0  0
    1.2497   -5.6787    5.8633 C   0  0  1  0  0  0  0  0  0  0  0  0
    2.2938   -4.8391    6.5364 C   0  0  1  0  0  0  0  0  0  0  0  0
    3.6146   -5.5715    6.3597 C   0  0  0  0  0  0  0  0  0  0  0  0
    2.0627   -3.7346    5.5246 C   0  0  2  0  0  0  0  0  0  0  0  0
    0.8998   -4.5349    4.9523 C   0  0  1  0  0  0  0  0  0  0  0  0
    1.8586   -3.8904    4.0021 C   0  0  2  0  0  0  0  0  0  0  0  0
    2.4692   -4.8343    3.0314 N   0  0  0  0  0  0  0  0  0  0  0  0
    4.1986    0.6616    2.3273 H   0  0  0  0  0  0  0  0  0  0  0  0
    5.8629    0.0884    2.3234 H   0  0  0  0  0  0  0  0  0  0  0  0
    4.6018   -0.8245    3.1341 H   0  0  0  0  0  0  0  0  0  0  0  0
    4.6426   -0.2689    0.0714 H   0  0  0  0  0  0  0  0  0  0  0  0
    4.7174   -2.3647   -1.3606 H   0  0  0  0  0  0  0  0  0  0  0  0
    1.7779   -3.0605   -0.5724 H   0  0  0  0  0  0  0  0  0  0  0  0
    2.5231   -3.1734   -2.2316 H   0  0  0  0  0  0  0  0  0  0  0  0
    4.2741   -4.7664   -1.4076 H   0  0  0  0  0  0  0  0  0  0  0  0
    3.3322   -6.6392    1.3061 H   0  0  0  0  0  0  0  0  0  0  0  0
    2.0151   -3.5431    1.4248 H   0  0  0  0  0  0  0  0  0  0  0  0
    4.3388   -2.8448    2.8848 H   0  0  0  0  0  0  0  0  0  0  0  0
    7.9730   -3.9069    0.8376 H   0  0  0  0  0  0  0  0  0  0  0  0
    7.4614   -4.6907    2.3224 H   0  0  0  0  0  0  0  0  0  0  0  0
    6.9268   -3.0215    1.9548 H   0  0  0  0  0  0  0  0  0  0  0  0
    5.4028   -6.4660    2.6499 H   0  0  0  0  0  0  0  0  0  0  0  0
    5.5837   -5.0302    3.6414 H   0  0  0  0  0  0  0  0  0  0  0  0
    3.2852   -6.7239    2.9808 H   0  0  0  0  0  0  0  0  0  0  0  0
    3.7951   -5.2502    4.8556 H   0  0  0  0  0  0  0  0  0  0  0  0
    1.5060   -7.0697    4.2087 H   0  0  0  0  0  0  0  0  0  0  0  0
    2.0341   -7.6826    5.7626 H   0  0  0  0  0  0  0  0  0  0  0  0
    0.4311   -5.9765    6.5143 H   0  0  0  0  0  0  0  0  0  0  0  0
    2.0148   -4.5492    7.5480 H   0  0  0  0  0  0  0  0  0  0  0  0
    3.6692   -6.3494    7.1211 H   0  0  0  0  0  0  0  0  0  0  0  0
    4.4866   -4.9289    6.5557 H   0  0  0  0  0  0  0  0  0  0  0  0
    1.8261   -2.7619    5.9739 H   0  0  0  0  0  0  0  0  0  0  0  0
   -0.0897   -4.0950    5.1147 H   0  0  0  0  0  0  0  0  0  0  0  0
    1.3959   -3.0644    3.4705 H   0  0  0  0  0  0  0  0  0  0  0  0
  1  2  1  0
  1 25  1  0
  1 26  1  0
  1 27  1  0
  2  3  2  3
  2 28  1  0
  3 10  1  0
  3  4  1  0
  4  6  1  0
  4  5  1  0
  4 29  1  6
  5  6  1  0
  5 30  1  0
  5 31  1  0
  6  7  1  0
  6 32  1  6
  7 11  1  0
  7  8  1  6
  7  9  1  0
  8 33  1  0
  9 24  1  0
  9 10  1  0
  9 34  1  6
 10 11  1  0
 10 35  1  1
 11 12  1  6
 11 14  1  0
 12 13  1  0
 13 36  1  0
 13 37  1  0
 13 38  1  0
 14 15  1  0
 14 39  1  0
 14 40  1  0
 15 24  1  0
 15 16  1  0
 15 41  1  6
 16 20  1  0
 16 17  1  0
 16 42  1  6
 17 18  1  0
 17 43  1  0
 17 44  1  0
 18 22  1  0
 18 19  1  0
 18 45  1  1
 19 20  1  0
 19 21  1  0
 19 46  1  1
 20 47  1  0
 20 48  1  0
 21 23  1  0
 21 22  1  0
 21 49  1  6
 22 23  1  0
 22 50  1  6
 23 24  1  0
 23 51  1  6
M  END
>  <i_m_ct_stereo_status>  (41) 
1

>  <s_m_source_file>  (41) 
/var/tmp/pbs.5076255.sched01/tmppe38rura/0ules8z9c.sdf

>  <i_m_source_file_index>  (41) 
22

>  <i_lp_mmshare_version>  (41) 
48012

>  <i_f3d_flags>  (41) 
0

>  <s_epik_input>  (41) 
W09IXVtDQEBdMTJbQ0BASF0zW0NAQEhdKFtDSDJdMykvQyg9W0NIXVxbQ0gzXSlbQ0BIXTRbQ0BASF0xTjVbQ0BASF0oW0NIMl1bQ0BAXTI0T1tDSDNdKVtDQEBIXTZbQ0gyXVtDQEhdN1tDQEBIXShbQ0gyXTYpW0NAQEhdOFtDQEhdN1tDQEhdNTg=

>  <s_epik_cmdline>  (41) 
J2VwaWtfcHl0aG9uJywgJy1waHQnLCAnMi4wJywgJy1waCcsICc3LjAnLCAnLXRuJywgJzgnLCAnLW1hJywgJzIwMCcsICctaW1hZScsICc8aW5maWxlLm1hZT4nLCAnLW9tYWUnLCAnPG91dGZpbGUubWFlPic=

>  <r_epik_Ionization_Penalty>  (41) 
1.59733

>  <r_epik_Ionization_Penalty_Charging>  (41) 
0

>  <r_epik_Ionization_Penalty_Neutral>  (41) 
1.59733

>  <r_epik_State_Penalty>  (41) 
1.69521

>  <r_epik_Charging_Adjusted_Penalty>  (41) 
1.69521

>  <i_epik_Tot_Q>  (41) 
0

>  <i_epik_Tot_abs_Q>  (41) 
0

>  <s_lp_Force_Field>  (41) 
OPLS3e

>  <r_lp_Energy>  (41) 
152.683

>  <b_lp_Chiralities_Consistent>  (41) 
1

>  <s_lp_Variant>  (41) 
15:0-2

>  <s_i_glide_gridfile>  (41) 
pfpi4k_grid

>  <i_i_glide_lignum>  (41) 
22

>  <i_i_glide_rotatable_bonds>  (41) 
2

>  <r_i_docking_score>  (41) 
-2.10617

>  <r_i_glide_ligand_efficiency>  (41) 
-0.0877571

>  <r_i_glide_ligand_efficiency_sa>  (41) 
-0.253135

>  <r_i_glide_ligand_efficiency_ln>  (41) 
-0.504103

>  <r_i_glide_gscore>  (41) 
-2.10617

>  <r_i_glide_lipo>  (41) 
-0.296706

>  <r_i_glide_hbond>  (41) 
0

>  <r_i_glide_metal>  (41) 
-0

>  <r_i_glide_rewards>  (41) 
-1.19015

>  <r_i_glide_evdw>  (41) 
-11.7945

>  <r_i_glide_ecoul>  (41) 
-0.197259

>  <r_i_glide_erotb>  (41) 
0

>  <r_i_glide_esite>  (41) 
0

>  <r_i_glide_emodel>  (41) 
-14.4162

>  <r_i_glide_energy>  (41) 
-11.9918

>  <r_i_glide_einternal>  (41) 
0.165632

>  <r_i_glide_intrahb_reward>  (41) 
-0

>  <i_i_glide_confnum>  (41) 
1

>  <i_i_glide_posenum>  (41) 
19

>  <r_i_glide_eff_state_penalty>  (41) 
0

>  <ligand_id>  (41) 
15

>  <original_smiles>  (41) 
CC=C1C2CC2C2(O)C3C1C2(OC)CC1C2CC4C(C2)C2C4C2N13

>  <smiles>  (41) 
[H]OC12C3([H])N4C([H])(C([H])([H])C1(OC([H])([H])[H])C3([H])C(=C([H])C([H])([H])[H])C1([H])C([H])([H])C12[H])C1([H])C([H])([H])C2([H])C([H])(C1([H])[H])C1([H])C4([H])C21[H]

$$$$
16:0:0
     RDKit          3D

 49 54  0  0  1  0  0  0  0  0999 V2000
    5.7512   -0.6001    2.6973 C   0  0  0  0  0  0  0  0  0  0  0  0
    4.4885   -0.8517    1.8958 C   0  0  0  0  0  0  0  0  0  0  0  0
    4.3812   -1.1194    0.5752 C   0  0  0  0  0  0  0  0  0  0  0  0
    3.0793   -1.5207    0.4243 O   0  0  0  0  0  0  0  0  0  0  0  0
    2.7906   -2.2546    1.5594 C   0  0  2  0  0  0  0  0  0  0  0  0
    3.4290   -1.4234    2.5787 N   0  0  0  0  0  0  0  0  0  0  0  0
    2.5638   -0.5728    3.3860 C   0  0  0  0  0  0  0  0  0  0  0  0
    3.5254   -3.6844    1.4270 C   0  0  1  0  0  0  0  0  0  0  0  0
    3.4557   -4.5365    2.6781 C   0  0  0  0  0  0  0  0  0  0  0  0
    3.9925   -3.9411    3.8009 O   0  0  0  0  0  0  0  0  0  0  0  0
    3.9955   -4.6267    5.0353 C   0  0  0  0  0  0  0  0  0  0  0  0
    2.9098   -5.7510    2.4734 C   0  0  0  0  0  0  0  0  0  0  0  0
    2.6321   -6.9238    3.4048 C   0  0  0  0  0  0  0  0  0  0  0  0
    2.5176   -5.9242    1.0227 C   0  0  1  0  0  0  0  0  0  0  0  0
    1.1024   -6.0318    0.9197 O   0  0  0  0  0  0  0  0  0  0  0  0
    3.1285   -4.6798    0.2816 C   0  0  1  0  0  0  0  0  0  0  0  0
    2.2214   -4.2536   -0.7167 O   0  0  0  0  0  0  0  0  0  0  0  0
    4.5633   -5.1081   -0.3040 C   0  0  1  0  0  0  0  0  0  0  0  0
    5.0052   -4.5696   -1.5354 O   0  0  0  0  0  0  0  0  0  0  0  0
    5.5833   -3.2450   -1.7357 C   0  0  2  0  0  0  0  0  0  0  0  0
    6.3139   -2.5290   -0.6564 O   0  0  0  0  0  0  0  0  0  0  0  0
    5.0178   -2.3354   -0.0744 C   0  0  2  0  0  0  0  0  0  0  0  0
    4.4834   -2.2770   -1.5595 C   0  0  1  0  0  0  0  0  0  0  0  0
    4.6057   -0.9784   -2.3687 C   0  0  0  0  0  0  0  0  0  0  0  0
    4.9711   -3.4456    1.0167 C   0  0  2  0  0  0  0  0  0  0  0  0
    5.4599   -4.7067    0.6331 O   0  0  0  0  0  0  0  0  0  0  0  0
    6.6494   -0.7954    2.1091 H   0  0  0  0  0  0  0  0  0  0  0  0
    5.7742   -1.2239    3.5959 H   0  0  0  0  0  0  0  0  0  0  0  0
    1.7197   -2.3160    1.7433 H   0  0  0  0  0  0  0  0  0  0  0  0
    3.1383   -0.0494    4.1461 H   0  0  0  0  0  0  0  0  0  0  0  0
    1.7723   -1.1320    3.8789 H   0  0  0  0  0  0  0  0  0  0  0  0
    2.1026    0.1804    2.7520 H   0  0  0  0  0  0  0  0  0  0  0  0
    4.3754   -3.9433    5.7961 H   0  0  0  0  0  0  0  0  0  0  0  0
    4.6655   -5.4869    5.0158 H   0  0  0  0  0  0  0  0  0  0  0  0
    2.9898   -4.9167    5.3373 H   0  0  0  0  0  0  0  0  0  0  0  0
    1.5627   -7.0012    3.6038 H   0  0  0  0  0  0  0  0  0  0  0  0
    3.1515   -6.8937    4.3541 H   0  0  0  0  0  0  0  0  0  0  0  0
    2.9417   -7.8518    2.9226 H   0  0  0  0  0  0  0  0  0  0  0  0
    2.9276   -6.8591    0.6410 H   0  0  0  0  0  0  0  0  0  0  0  0
    0.8635   -6.9195    1.1484 H   0  0  0  0  0  0  0  0  0  0  0  0
    2.3563   -4.8139   -1.4723 H   0  0  0  0  0  0  0  0  0  0  0  0
    4.6505   -6.1876   -0.4214 H   0  0  0  0  0  0  0  0  0  0  0  0
    6.0437   -3.1445   -2.7153 H   0  0  0  0  0  0  0  0  0  0  0  0
    3.5102   -2.7053   -1.7476 H   0  0  0  0  0  0  0  0  0  0  0  0
    5.5802   -0.5104   -2.2283 H   0  0  0  0  0  0  0  0  0  0  0  0
    3.8484   -0.2603   -2.0601 H   0  0  0  0  0  0  0  0  0  0  0  0
    4.4736   -1.1365   -3.4415 H   0  0  0  0  0  0  0  0  0  0  0  0
    5.6009   -3.1651    1.8581 H   0  0  0  0  0  0  0  0  0  0  0  0
    5.7670    0.4402    3.0322 H   0  0  0  0  0  0  0  0  0  0  0  0
  1  2  1  0
  1 27  1  0
  1 28  1  0
  1 49  1  0
  2  6  1  0
  2  3  2  0
 22  3  1  1
  3  4  1  0
  4  5  1  0
  5  6  1  0
  5  8  1  0
  5 29  1  1
  6  7  1  0
  7 30  1  0
  7 31  1  0
  7 32  1  0
  8 16  1  0
  8 25  1  0
  8  9  1  1
  9 10  1  0
  9 12  2  0
 10 11  1  0
 11 33  1  0
 11 34  1  0
 11 35  1  0
 12 13  1  0
 12 14  1  0
 13 36  1  0
 13 37  1  0
 13 38  1  0
 14 15  1  0
 14 16  1  0
 14 39  1  6
 15 40  1  0
 16 17  1  6
 16 18  1  0
 17 41  1  0
 18 26  1  0
 18 19  1  0
 18 42  1  6
 19 20  1  0
 20 23  1  0
 20 21  1  0
 20 43  1  6
 21 22  1  0
 22 23  1  0
 22 25  1  0
 23 24  1  0
 23 44  1  1
 24 45  1  0
 24 46  1  0
 24 47  1  0
 25 26  1  0
 25 48  1  1
M  END
>  <i_m_ct_stereo_status>  (42) 
1

>  <s_m_source_file>  (42) 
/var/tmp/pbs.5076255.sched01/tmppe38rura/0ules8z9c.sdf

>  <i_m_source_file_index>  (42) 
23

>  <i_lp_mmshare_version>  (42) 
48012

>  <i_f3d_flags>  (42) 
1

>  <s_epik_input>  (42) 
W0NIM11OMUMoPVtDSDJdKVtDQEhdKE9bQ0BIXTFbQ0BAXTIzNClbQ0BdNTZbQ0BASF00T1tDQEhdKE9bQ0BIXShPNSlbQ0BASF02W0NIM10pW0NAQF0zKFtPSF0pW0NASF0oW09IXSlDKFtDSDNdKT1DMk9bQ0gzXQ==

>  <s_epik_cmdline>  (42) 
J2VwaWtfcHl0aG9uJywgJy1waHQnLCAnMi4wJywgJy1waCcsICc3LjAnLCAnLXRuJywgJzgnLCAnLW1hJywgJzIwMCcsICctaW1hZScsICc8aW5maWxlLm1hZT4nLCAnLW9tYWUnLCAnPG91dGZpbGUubWFlPic=

>  <r_epik_Ionization_Penalty>  (42) 
0.00579168

>  <r_epik_Ionization_Penalty_Charging>  (42) 
1.64358e-09

>  <r_epik_Ionization_Penalty_Neutral>  (42) 
0.00579168

>  <r_epik_State_Penalty>  (42) 
0.00406409

>  <r_epik_Charging_Adjusted_Penalty>  (42) 
0.00406409

>  <i_epik_Tot_Q>  (42) 
0

>  <i_epik_Tot_abs_Q>  (42) 
0

>  <s_epik_Chemistry_Notes>  (42) 
This compound has an imine and may undergo hydrolysis. This compound contains an acetal/aminal-like group ( X-CH(R)-Y where X, Y are N, S, or O) that may be acid/base labile, releasing an aldehyde.

>  <s_lp_Force_Field>  (42) 
OPLS3e

>  <r_lp_Energy>  (42) 
126.282

>  <b_lp_Chiralities_Consistent>  (42) 
1

>  <s_lp_Variant>  (42) 
16:0-1

>  <s_i_glide_gridfile>  (42) 
pfpi4k_grid

>  <i_i_glide_lignum>  (42) 
23

>  <i_i_glide_rotatable_bonds>  (42) 
3

>  <r_i_docking_score>  (42) 
-3.48135

>  <r_i_glide_ligand_efficiency>  (42) 
-0.133898

>  <r_i_glide_ligand_efficiency_sa>  (42) 
-0.396672

>  <r_i_glide_ligand_efficiency_ln>  (42) 
-0.817583

>  <r_i_glide_gscore>  (42) 
-3.48135

>  <r_i_glide_lipo>  (42) 
-0.197122

>  <r_i_glide_hbond>  (42) 
0

>  <r_i_glide_metal>  (42) 
-0

>  <r_i_glide_rewards>  (42) 
-1.08432

>  <r_i_glide_evdw>  (42) 
-19.9747

>  <r_i_glide_ecoul>  (42) 
-7.68883

>  <r_i_glide_erotb>  (42) 
0

>  <r_i_glide_esite>  (42) 
-0.0478515

>  <r_i_glide_emodel>  (42) 
-33.1113

>  <r_i_glide_energy>  (42) 
-27.6635

>  <r_i_glide_einternal>  (42) 
0.791923

>  <r_i_glide_intrahb_reward>  (42) 
-0

>  <i_i_glide_confnum>  (42) 
2

>  <i_i_glide_posenum>  (42) 
19

>  <r_i_glide_eff_state_penalty>  (42) 
0

>  <ligand_id>  (42) 
16

>  <original_smiles>  (42) 
C=C1C2OC(N1C)C13C(OC)=C(C)C(O)C1(O)C1OC4OC2(C4C)C3O1

>  <smiles>  (42) 
[H]OC1([H])C(C([H])([H])[H])=C(OC([H])([H])[H])C23C4([H])OC(=C(C([H])([H])[H])N4C([H])([H])[H])C45OC([H])(OC([H])(OC42[H])C13O[H])C5([H])C([H])([H])[H]

$$$$
16:0:1
     RDKit          3D

 49 54  0  0  1  0  0  0  0  0999 V2000
    6.1694   -0.3762    1.3743 C   0  0  0  0  0  0  0  0  0  0  0  0
    4.7488   -0.5126    0.9168 C   0  0  0  0  0  0  0  0  0  0  0  0
    4.3180   -0.6957   -0.3427 C   0  0  0  0  0  0  0  0  0  0  0  0
    3.0430   -1.1599   -0.1959 O   0  0  0  0  0  0  0  0  0  0  0  0
    3.1028   -1.9960    0.8975 C   0  0  2  0  0  0  0  0  0  0  0  0
    3.9166   -1.1691    1.7918 N   0  0  0  0  0  0  0  0  0  0  0  0
    3.2330   -0.4216    2.8257 C   0  0  0  0  0  0  0  0  0  0  0  0
    3.8978   -3.3454    0.4911 C   0  0  1  0  0  0  0  0  0  0  0  0
    4.1823   -4.2591    1.6553 C   0  0  0  0  0  0  0  0  0  0  0  0
    4.9547   -3.6806    2.6399 O   0  0  0  0  0  0  0  0  0  0  0  0
    5.1192   -4.3471    3.8726 C   0  0  0  0  0  0  0  0  0  0  0  0
    3.6727   -5.4835    1.5154 C   0  0  0  0  0  0  0  0  0  0  0  0
    3.7186   -6.7475    2.3774 C   0  0  0  0  0  0  0  0  0  0  0  0
    2.9629   -5.6238    0.1940 C   0  0  1  0  0  0  0  0  0  0  0  0
    1.5703   -5.8264    0.3972 O   0  0  0  0  0  0  0  0  0  0  0  0
    3.2962   -4.3046   -0.5853 C   0  0  1  0  0  0  0  0  0  0  0  0
    2.1505   -3.8808   -1.3001 O   0  0  0  0  0  0  0  0  0  0  0  0
    4.5946   -4.5667   -1.5165 C   0  0  1  0  0  0  0  0  0  0  0  0
    4.6185   -3.9482   -2.7892 O   0  0  0  0  0  0  0  0  0  0  0  0
    5.0325   -2.5826   -3.0297 C   0  0  2  0  0  0  0  0  0  0  0  0
    5.9753   -1.8664   -2.1201 O   0  0  0  0  0  0  0  0  0  0  0  0
    4.8532   -1.7990   -1.2284 C   0  0  2  0  0  0  0  0  0  0  0  0
    3.9554   -1.7096   -2.5252 C   0  0  1  0  0  0  0  0  0  0  0  0
    3.7999   -0.3747   -3.2571 C   0  0  0  0  0  0  0  0  0  0  0  0
    5.1663   -2.9462   -0.2342 C   0  0  2  0  0  0  0  0  0  0  0  0
    5.6594   -4.1232   -0.8127 O   0  0  0  0  0  0  0  0  0  0  0  0
    6.8891   -0.3238    0.5427 H   0  0  0  0  0  0  0  0  0  0  0  0
    6.4545   -1.0362    2.1914 H   0  0  0  0  0  0  0  0  0  0  0  0
    2.1138   -2.1651    1.3126 H   0  0  0  0  0  0  0  0  0  0  0  0
    3.9552    0.0996    3.4518 H   0  0  0  0  0  0  0  0  0  0  0  0
    2.6319   -1.0660    3.4575 H   0  0  0  0  0  0  0  0  0  0  0  0
    2.5891    0.3275    2.3730 H   0  0  0  0  0  0  0  0  0  0  0  0
    5.6380   -3.6622    4.5441 H   0  0  0  0  0  0  0  0  0  0  0  0
    5.7532   -5.2265    3.7799 H   0  0  0  0  0  0  0  0  0  0  0  0
    4.1578   -4.5914    4.3234 H   0  0  0  0  0  0  0  0  0  0  0  0
    2.7365   -6.9210    2.8143 H   0  0  0  0  0  0  0  0  0  0  0  0
    4.4508   -6.7183    3.1684 H   0  0  0  0  0  0  0  0  0  0  0  0
    3.9647   -7.6081    1.7521 H   0  0  0  0  0  0  0  0  0  0  0  0
    3.3644   -6.4756   -0.3349 H   0  0  0  0  0  0  0  0  0  0  0  0
    1.4097   -6.7516    0.3773 H   0  0  0  0  0  0  0  0  0  0  0  0
    2.1688   -4.3283   -2.1343 H   0  0  0  0  0  0  0  0  0  0  0  0
    4.7904   -5.6225   -1.6678 H   0  0  0  0  0  0  0  0  0  0  0  0
    5.1523   -2.3790   -4.0837 H   0  0  0  0  0  0  0  0  0  0  0  0
    2.9800   -2.1881   -2.5252 H   0  0  0  0  0  0  0  0  0  0  0  0
    4.7367    0.1770   -3.2802 H   0  0  0  0  0  0  0  0  0  0  0  0
    3.0868    0.2541   -2.7444 H   0  0  0  0  0  0  0  0  0  0  0  0
    3.4450   -0.4858   -4.2833 H   0  0  0  0  0  0  0  0  0  0  0  0
    5.9772   -2.6810    0.4374 H   0  0  0  0  0  0  0  0  0  0  0  0
    6.1175    0.5905    1.8611 H   0  0  0  0  0  0  0  0  0  0  0  0
  1  2  1  0
  1 27  1  0
  1 28  1  0
  1 49  1  0
  2  6  1  0
  2  3  2  0
 22  3  1  1
  3  4  1  0
  4  5  1  0
  5  6  1  0
  5  8  1  0
  5 29  1  1
  6  7  1  0
  7 30  1  0
  7 31  1  0
  7 32  1  0
  8 16  1  0
  8 25  1  0
  8  9  1  1
  9 10  1  0
  9 12  2  0
 10 11  1  0
 11 33  1  0
 11 34  1  0
 11 35  1  0
 12 13  1  0
 12 14  1  0
 13 36  1  0
 13 37  1  0
 13 38  1  0
 14 15  1  0
 14 16  1  0
 14 39  1  6
 15 40  1  0
 16 17  1  6
 16 18  1  0
 17 41  1  0
 18 26  1  0
 18 19  1  0
 18 42  1  6
 19 20  1  0
 20 23  1  0
 20 21  1  0
 20 43  1  6
 21 22  1  0
 22 23  1  0
 22 25  1  0
 23 24  1  0
 23 44  1  1
 24 45  1  0
 24 46  1  0
 24 47  1  0
 25 26  1  0
 25 48  1  1
M  END
>  <i_m_ct_stereo_status>  (43) 
1

>  <s_m_source_file>  (43) 
/var/tmp/pbs.5076255.sched01/tmppe38rura/0ules8z9c.sdf

>  <i_m_source_file_index>  (43) 
23

>  <i_lp_mmshare_version>  (43) 
48012

>  <i_f3d_flags>  (43) 
1

>  <s_epik_input>  (43) 
W0NIM11OMUMoPVtDSDJdKVtDQEhdKE9bQ0BIXTFbQ0BAXTIzNClbQ0BdNTZbQ0BASF00T1tDQEhdKE9bQ0BIXShPNSlbQ0BASF02W0NIM10pW0NAQF0zKFtPSF0pW0NASF0oW09IXSlDKFtDSDNdKT1DMk9bQ0gzXQ==

>  <s_epik_cmdline>  (43) 
J2VwaWtfcHl0aG9uJywgJy1waHQnLCAnMi4wJywgJy1waCcsICc3LjAnLCAnLXRuJywgJzgnLCAnLW1hJywgJzIwMCcsICctaW1hZScsICc8aW5maWxlLm1hZT4nLCAnLW9tYWUnLCAnPG91dGZpbGUubWFlPic=

>  <r_epik_Ionization_Penalty>  (43) 
0.00579168

>  <r_epik_Ionization_Penalty_Charging>  (43) 
1.64358e-09

>  <r_epik_Ionization_Penalty_Neutral>  (43) 
0.00579168

>  <r_epik_State_Penalty>  (43) 
0.00406409

>  <r_epik_Charging_Adjusted_Penalty>  (43) 
0.00406409

>  <i_epik_Tot_Q>  (43) 
0

>  <i_epik_Tot_abs_Q>  (43) 
0

>  <s_epik_Chemistry_Notes>  (43) 
This compound has an imine and may undergo hydrolysis. This compound contains an acetal/aminal-like group ( X-CH(R)-Y where X, Y are N, S, or O) that may be acid/base labile, releasing an aldehyde.

>  <s_lp_Force_Field>  (43) 
OPLS3e

>  <r_lp_Energy>  (43) 
126.282

>  <b_lp_Chiralities_Consistent>  (43) 
1

>  <s_lp_Variant>  (43) 
16:0-1

>  <s_i_glide_gridfile>  (43) 
pfpi4k_grid

>  <i_i_glide_lignum>  (43) 
23

>  <i_i_glide_rotatable_bonds>  (43) 
3

>  <r_i_docking_score>  (43) 
-2.80173

>  <r_i_glide_ligand_efficiency>  (43) 
-0.107759

>  <r_i_glide_ligand_efficiency_sa>  (43) 
-0.319235

>  <r_i_glide_ligand_efficiency_ln>  (43) 
-0.657978

>  <r_i_glide_gscore>  (43) 
-2.80173

>  <r_i_glide_lipo>  (43) 
-0.408975

>  <r_i_glide_hbond>  (43) 
-0.0630645

>  <r_i_glide_metal>  (43) 
-0

>  <r_i_glide_rewards>  (43) 
-1.06781

>  <r_i_glide_evdw>  (43) 
-6.01473

>  <r_i_glide_ecoul>  (43) 
-5.81317

>  <r_i_glide_erotb>  (43) 
0

>  <r_i_glide_esite>  (43) 
-0.0891661

>  <r_i_glide_emodel>  (43) 
-14.6991

>  <r_i_glide_energy>  (43) 
-11.8279

>  <r_i_glide_einternal>  (43) 
1.81706

>  <r_i_glide_intrahb_reward>  (43) 
-0

>  <i_i_glide_confnum>  (43) 
1

>  <i_i_glide_posenum>  (43) 
21

>  <r_i_glide_eff_state_penalty>  (43) 
0

>  <ligand_id>  (43) 
16

>  <original_smiles>  (43) 
C=C1C2OC(N1C)C13C(OC)=C(C)C(O)C1(O)C1OC4OC2(C4C)C3O1

>  <smiles>  (43) 
[H]OC1([H])C(C([H])([H])[H])=C(OC([H])([H])[H])C23C4([H])OC(=C(C([H])([H])[H])N4C([H])([H])[H])C45OC([H])(OC([H])(OC42[H])C13O[H])C5([H])C([H])([H])[H]

$$$$
17:0:0
     RDKit          3D

 52 57  0  0  1  0  0  0  0  0999 V2000
   -0.9958    1.6367   10.3383 C   0  0  0  0  0  0  0  0  0  0  0  0
   -0.9639    0.9503    9.0882 O   0  0  0  0  0  0  0  0  0  0  0  0
   -0.6672    1.6991    7.9722 C   0  0  0  0  0  0  0  0  0  0  0  0
   -0.1365    2.9626    8.0121 C   0  0  0  0  0  0  0  0  0  0  0  0
    0.0685    3.8671    6.7923 C   0  0  1  0  0  0  0  0  0  0  0  0
   -0.7179    5.1494    7.1302 C   0  0  0  0  0  0  0  0  0  0  0  0
    1.5404    4.2473    6.3468 C   0  0  0  0  0  0  0  0  0  0  0  0
    1.7055    4.5996    4.8063 C   0  0  1  0  0  0  0  0  0  0  0  0
    3.0368    5.7889    4.4943 S   0  0  0  0  0  0  0  0  0  0  0  0
    2.8512    4.9356    2.9004 C   0  0  0  0  0  0  0  0  0  0  0  0
    2.3051    3.6779    3.6279 C   0  0  1  0  0  0  0  0  0  0  0  0
    3.5173    2.9603    4.0841 N   0  0  0  0  0  0  0  0  0  0  0  0
    1.4235    2.7251    2.6938 C   0  0  1  0  0  0  0  0  0  0  0  0
    1.8918    1.2965    2.6346 C   0  0  0  0  0  0  0  0  0  0  0  0
    1.0884    0.5398    3.3793 C   0  0  0  0  0  0  0  0  0  0  0  0
    0.5137   -0.8158    3.1654 C   0  0  0  0  0  0  0  0  0  0  0  0
   -0.8115   -0.0483    3.4280 C   0  0  0  0  0  0  0  0  0  0  0  0
   -0.0992    1.1937    4.0150 C   0  0  2  0  0  0  0  0  0  0  0  0
   -0.0284    2.4473    3.1495 C   0  0  0  0  0  0  0  0  0  0  0  0
   -0.9324    3.4073    3.3120 C   0  0  0  0  0  0  0  0  0  0  0  0
   -1.2526    3.6787    4.6853 C   0  0  0  0  0  0  0  0  0  0  0  0
   -0.4816    3.0799    5.6345 C   0  0  0  0  0  0  0  0  0  0  0  0
    0.0165    1.6045    5.5284 C   0  0  2  0  0  0  0  0  0  0  0  0
    1.4337    1.1725    6.0409 C   0  0  0  0  0  0  0  0  0  0  0  0
   -0.8728    1.0313    6.6456 C   0  0  0  0  0  0  0  0  0  0  0  0
   -1.6357    0.0777    6.4664 O   0  0  0  0  0  0  0  0  0  0  0  0
   -1.3409    0.9914   11.1463 H   0  0  0  0  0  0  0  0  0  0  0  0
   -1.6822    2.4855   10.2987 H   0  0  0  0  0  0  0  0  0  0  0  0
   -0.0018    1.9907   10.6113 H   0  0  0  0  0  0  0  0  0  0  0  0
    0.0846    3.4739    8.9421 H   0  0  0  0  0  0  0  0  0  0  0  0
   -1.7724    4.9103    7.2919 H   0  0  0  0  0  0  0  0  0  0  0  0
   -0.6286    5.9190    6.3633 H   0  0  0  0  0  0  0  0  0  0  0  0
   -0.3569    5.5859    8.0619 H   0  0  0  0  0  0  0  0  0  0  0  0
    1.8352    5.1089    6.9442 H   0  0  0  0  0  0  0  0  0  0  0  0
    2.2677    3.5003    6.6564 H   0  0  0  0  0  0  0  0  0  0  0  0
    0.8272    5.1266    4.4280 H   0  0  0  0  0  0  0  0  0  0  0  0
    2.1205    5.4164    2.2480 H   0  0  0  0  0  0  0  0  0  0  0  0
    3.8079    4.8084    2.3970 H   0  0  0  0  0  0  0  0  0  0  0  0
    4.0338    2.6157    3.2762 H   0  0  0  0  0  0  0  0  0  0  0  0
    3.2503    2.1920    4.6851 H   0  0  0  0  0  0  0  0  0  0  0  0
    1.4239    3.0764    1.6753 H   0  0  0  0  0  0  0  0  0  0  0  0
    2.5313    0.9564    1.8312 H   0  0  0  0  0  0  0  0  0  0  0  0
    0.5914   -1.2343    2.1606 H   0  0  0  0  0  0  0  0  0  0  0  0
    0.7337   -1.5626    3.9245 H   0  0  0  0  0  0  0  0  0  0  0  0
   -1.3647    0.1956    2.5230 H   0  0  0  0  0  0  0  0  0  0  0  0
   -1.4592   -0.5904    4.1177 H   0  0  0  0  0  0  0  0  0  0  0  0
   -0.8030    4.3096    2.7303 H   0  0  0  0  0  0  0  0  0  0  0  0
   -1.5975    4.6835    4.8485 H   0  0  0  0  0  0  0  0  0  0  0  0
    1.6800    1.4269    7.0691 H   0  0  0  0  0  0  0  0  0  0  0  0
    2.2354    1.5601    5.4524 H   0  0  0  0  0  0  0  0  0  0  0  0
    1.5343    0.0880    5.9873 H   0  0  0  0  0  0  0  0  0  0  0  0
    4.0922    3.6190    4.5930 H   0  0  0  0  0  0  0  0  0  0  0  0
  1  2  1  0
  1 27  1  0
  1 28  1  0
  1 29  1  0
  2  3  1  0
  3 25  1  0
  3  4  2  0
  4  5  1  0
  4 30  1  0
  5 22  1  0
  5  6  1  1
  5  7  1  0
  6 31  1  0
  6 32  1  0
  6 33  1  0
  7  8  1  0
  7 34  1  0
  7 35  1  0
  8 11  1  0
  8  9  1  0
  8 36  1  6
  9 10  1  0
 10 11  1  0
 10 37  1  0
 10 38  1  0
 11 12  1  1
 11 13  1  0
 12 39  1  0
 12 40  1  0
 12 52  1  0
 13 19  1  0
 13 14  1  0
 13 41  1  6
 14 15  2  0
 14 42  1  0
 15 18  1  0
 15 16  1  0
 16 17  1  0
 16 43  1  0
 16 44  1  0
 18 17  1  1
 17 45  1  0
 17 46  1  0
 18 23  1  0
 18 19  1  0
 19 20  2  0
 20 21  1  0
 20 47  1  0
 21 22  2  0
 21 48  1  0
 22 23  1  0
 23 24  1  1
 23 25  1  0
 24 49  1  0
 24 50  1  0
 24 51  1  0
 25 26  2  0
M  CHG  1  12   1
M  END
>  <i_m_ct_stereo_status>  (44) 
1

>  <s_m_source_file>  (44) 
/var/tmp/pbs.5076255.sched01/tmppe38rura/0ules8z9c.sdf

>  <i_m_source_file_index>  (44) 
24

>  <i_lp_mmshare_version>  (44) 
48012

>  <i_f3d_flags>  (44) 
0

>  <s_epik_input>  (44) 
W0NIM11PQyg9W0NIXTEpQyg9TylbQ0BdMihbQ0gzXSlDKD1bQ0hdW0NIXT1DMzQpW0NAXTEoW0NIM10pW0NIMl1bQ0BASF0oU1tDSDJdNSlbQ0BAXTUoW05IMl0pW0NASF0zW0NIXT1DKFtDQEBdMjQ2KVtDSDJdW0NIMl02

>  <s_epik_cmdline>  (44) 
J2VwaWtfcHl0aG9uJywgJy1waHQnLCAnMi4wJywgJy1waCcsICc3LjAnLCAnLXRuJywgJzgnLCAnLW1hJywgJzIwMCcsICctaW1hZScsICc8aW5maWxlLm1hZT4nLCAnLW9tYWUnLCAnPG91dGZpbGUubWFlPic=

>  <r_epik_Ionization_Penalty>  (44) 
0.306774

>  <r_epik_Ionization_Penalty_Charging>  (44) 
0.306774

>  <r_epik_Ionization_Penalty_Neutral>  (44) 
0

>  <r_epik_State_Penalty>  (44) 
0.300587

>  <r_epik_Charging_Adjusted_Penalty>  (44) 
0.60736

>  <i_epik_Tot_Q>  (44) 
1

>  <i_epik_Tot_abs_Q>  (44) 
1

>  <s_lp_Force_Field>  (44) 
OPLS3e

>  <r_lp_Energy>  (44) 
177.635

>  <b_lp_Chiralities_Consistent>  (44) 
1

>  <s_lp_Variant>  (44) 
17:0-1

>  <s_i_glide_gridfile>  (44) 
pfpi4k_grid

>  <i_i_glide_lignum>  (44) 
24

>  <i_i_glide_rotatable_bonds>  (44) 
1

>  <r_i_docking_score>  (44) 
-3.31408

>  <r_i_glide_ligand_efficiency>  (44) 
-0.127464

>  <r_i_glide_ligand_efficiency_sa>  (44) 
-0.377613

>  <r_i_glide_ligand_efficiency_ln>  (44) 
-0.7783

>  <r_i_glide_gscore>  (44) 
-3.31408

>  <r_i_glide_lipo>  (44) 
-0.0380109

>  <r_i_glide_hbond>  (44) 
-0.16

>  <r_i_glide_metal>  (44) 
-0

>  <r_i_glide_rewards>  (44) 
-0.8965

>  <r_i_glide_evdw>  (44) 
-16.7025

>  <r_i_glide_ecoul>  (44) 
-8.87966

>  <r_i_glide_erotb>  (44) 
0

>  <r_i_glide_esite>  (44) 
-0.0524929

>  <r_i_glide_emodel>  (44) 
-32.2077

>  <r_i_glide_energy>  (44) 
-25.5821

>  <r_i_glide_einternal>  (44) 
0.036391

>  <r_i_glide_intrahb_reward>  (44) 
-0

>  <i_i_glide_confnum>  (44) 
1

>  <i_i_glide_posenum>  (44) 
2

>  <r_i_glide_eff_state_penalty>  (44) 
0

>  <ligand_id>  (44) 
17

>  <original_smiles>  (44) 
COC1=CC2(C)CC3SCC3(N)C3C=C4CCC45C3=CC=C2C5(C)C1=O

>  <smiles>  (44) 
[H]C1=C2C3(C([H])([H])[H])C([H])=C(OC([H])([H])[H])C(=O)C2(C([H])([H])[H])C24C(=C([H])C([H])(C2=C1[H])C1([N+]([H])([H])[H])C([H])([H])SC1([H])C3([H])[H])C([H])([H])C4([H])[H]

$$$$
17:0:1
     RDKit          3D

 52 57  0  0  1  0  0  0  0  0999 V2000
    0.1213    0.6358   10.2541 C   0  0  0  0  0  0  0  0  0  0  0  0
   -0.5237    0.1180    9.0931 O   0  0  0  0  0  0  0  0  0  0  0  0
   -0.4059    0.8332    7.9271 C   0  0  0  0  0  0  0  0  0  0  0  0
   -0.3433    2.2020    7.8633 C   0  0  0  0  0  0  0  0  0  0  0  0
   -0.2831    3.0071    6.5608 C   0  0  1  0  0  0  0  0  0  0  0  0
   -1.5053    3.9412    6.6205 C   0  0  0  0  0  0  0  0  0  0  0  0
    1.0117    3.8634    6.2301 C   0  0  0  0  0  0  0  0  0  0  0  0
    1.2858    4.1079    4.6784 C   0  0  1  0  0  0  0  0  0  0  0  0
    2.1554    5.6668    4.3699 S   0  0  0  0  0  0  0  0  0  0  0  0
    2.5447    4.6827    2.8908 C   0  0  0  0  0  0  0  0  0  0  0  0
    2.3431    3.3770    3.7033 C   0  0  1  0  0  0  0  0  0  0  0  0
    3.6376    3.1904    4.3988 N   0  0  0  0  0  0  0  0  0  0  0  0
    1.9875    2.0991    2.8027 C   0  0  1  0  0  0  0  0  0  0  0  0
    2.9186    0.9318    2.9989 C   0  0  0  0  0  0  0  0  0  0  0  0
    2.3183   -0.0028    3.7501 C   0  0  0  0  0  0  0  0  0  0  0  0
    2.2925   -1.4930    3.6730 C   0  0  0  0  0  0  0  0  0  0  0  0
    0.7659   -1.2405    3.6793 C   0  0  0  0  0  0  0  0  0  0  0  0
    0.9044    0.2320    4.1608 C   0  0  2  0  0  0  0  0  0  0  0  0
    0.6798    1.3547    3.1454 C   0  0  0  0  0  0  0  0  0  0  0  0
   -0.5038    1.9501    3.0660 C   0  0  0  0  0  0  0  0  0  0  0  0
   -1.1124    2.1934    4.3505 C   0  0  0  0  0  0  0  0  0  0  0  0
   -0.3426    1.9894    5.4548 C   0  0  0  0  0  0  0  0  0  0  0  0
    0.6445    0.7870    5.6094 C   0  0  2  0  0  0  0  0  0  0  0  0
    2.0274    0.9468    6.3313 C   0  0  0  0  0  0  0  0  0  0  0  0
   -0.1526    0.0328    6.6853 C   0  0  0  0  0  0  0  0  0  0  0  0
   -0.4972   -1.1423    6.5470 O   0  0  0  0  0  0  0  0  0  0  0  0
   -0.1636    0.0400   11.1233 H   0  0  0  0  0  0  0  0  0  0  0  0
   -0.1246    1.6672   10.5016 H   0  0  0  0  0  0  0  0  0  0  0  0
    1.2000    0.5478   10.1250 H   0  0  0  0  0  0  0  0  0  0  0  0
   -0.4792    2.8238    8.7392 H   0  0  0  0  0  0  0  0  0  0  0  0
   -2.4383    3.3713    6.6840 H   0  0  0  0  0  0  0  0  0  0  0  0
   -1.5537    4.5861    5.7475 H   0  0  0  0  0  0  0  0  0  0  0  0
   -1.4679    4.5745    7.5080 H   0  0  0  0  0  0  0  0  0  0  0  0
    0.9008    4.8296    6.7296 H   0  0  0  0  0  0  0  0  0  0  0  0
    1.9000    3.4679    6.7142 H   0  0  0  0  0  0  0  0  0  0  0  0
    0.3590    4.2590    4.1292 H   0  0  0  0  0  0  0  0  0  0  0  0
    1.8120    4.8220    2.1016 H   0  0  0  0  0  0  0  0  0  0  0  0
    3.5496    4.8748    2.5232 H   0  0  0  0  0  0  0  0  0  0  0  0
    4.3383    2.9573    3.7023 H   0  0  0  0  0  0  0  0  0  0  0  0
    3.5635    2.4442    5.0755 H   0  0  0  0  0  0  0  0  0  0  0  0
    1.9530    2.3611    1.7405 H   0  0  0  0  0  0  0  0  0  0  0  0
    3.7556    0.7755    2.3385 H   0  0  0  0  0  0  0  0  0  0  0  0
    2.6251   -1.9705    2.7491 H   0  0  0  0  0  0  0  0  0  0  0  0
    2.6408   -2.0372    4.5520 H   0  0  0  0  0  0  0  0  0  0  0  0
    0.3149   -1.3068    2.6936 H   0  0  0  0  0  0  0  0  0  0  0  0
    0.2557   -1.9130    4.3674 H   0  0  0  0  0  0  0  0  0  0  0  0
   -0.5910    2.7748    2.3728 H   0  0  0  0  0  0  0  0  0  0  0  0
   -1.8178    3.0039    4.3319 H   0  0  0  0  0  0  0  0  0  0  0  0
    2.0067    1.3631    7.3343 H   0  0  0  0  0  0  0  0  0  0  0  0
    2.7261    1.5439    5.7881 H   0  0  0  0  0  0  0  0  0  0  0  0
    2.5029   -0.0268    6.4431 H   0  0  0  0  0  0  0  0  0  0  0  0
    3.8783    4.0579    4.8610 H   0  0  0  0  0  0  0  0  0  0  0  0
  1  2  1  0
  1 27  1  0
  1 28  1  0
  1 29  1  0
  2  3  1  0
  3 25  1  0
  3  4  2  0
  4  5  1  0
  4 30  1  0
  5 22  1  0
  5  6  1  6
  5  7  1  0
  6 31  1  0
  6 32  1  0
  6 33  1  0
  7  8  1  0
  7 34  1  0
  7 35  1  0
  8 11  1  0
  8  9  1  0
  8 36  1  6
  9 10  1  0
 10 11  1  0
 10 37  1  0
 10 38  1  0
 11 12  1  1
 11 13  1  0
 12 39  1  0
 12 40  1  0
 12 52  1  0
 13 19  1  0
 13 14  1  0
 13 41  1  6
 14 15  2  0
 14 42  1  0
 15 18  1  0
 15 16  1  0
 16 17  1  0
 16 43  1  0
 16 44  1  0
 18 17  1  6
 17 45  1  0
 17 46  1  0
 18 23  1  0
 18 19  1  0
 19 20  2  0
 20 21  1  0
 20 47  1  0
 21 22  2  0
 21 48  1  0
 22 23  1  0
 23 24  1  1
 23 25  1  0
 24 49  1  0
 24 50  1  0
 24 51  1  0
 25 26  2  0
M  CHG  1  12   1
M  END
>  <i_m_ct_stereo_status>  (45) 
1

>  <s_m_source_file>  (45) 
/var/tmp/pbs.5076255.sched01/tmppe38rura/0ules8z9c.sdf

>  <i_m_source_file_index>  (45) 
24

>  <i_lp_mmshare_version>  (45) 
48012

>  <i_f3d_flags>  (45) 
0

>  <s_epik_input>  (45) 
W0NIM11PQyg9W0NIXTEpQyg9TylbQ0BdMihbQ0gzXSlDKD1bQ0hdW0NIXT1DMzQpW0NAXTEoW0NIM10pW0NIMl1bQ0BASF0oU1tDSDJdNSlbQ0BAXTUoW05IMl0pW0NASF0zW0NIXT1DKFtDQEBdMjQ2KVtDSDJdW0NIMl02

>  <s_epik_cmdline>  (45) 
J2VwaWtfcHl0aG9uJywgJy1waHQnLCAnMi4wJywgJy1waCcsICc3LjAnLCAnLXRuJywgJzgnLCAnLW1hJywgJzIwMCcsICctaW1hZScsICc8aW5maWxlLm1hZT4nLCAnLW9tYWUnLCAnPG91dGZpbGUubWFlPic=

>  <r_epik_Ionization_Penalty>  (45) 
0.306774

>  <r_epik_Ionization_Penalty_Charging>  (45) 
0.306774

>  <r_epik_Ionization_Penalty_Neutral>  (45) 
0

>  <r_epik_State_Penalty>  (45) 
0.300587

>  <r_epik_Charging_Adjusted_Penalty>  (45) 
0.60736

>  <i_epik_Tot_Q>  (45) 
1

>  <i_epik_Tot_abs_Q>  (45) 
1

>  <s_lp_Force_Field>  (45) 
OPLS3e

>  <r_lp_Energy>  (45) 
177.635

>  <b_lp_Chiralities_Consistent>  (45) 
1

>  <s_lp_Variant>  (45) 
17:0-1

>  <s_i_glide_gridfile>  (45) 
pfpi4k_grid

>  <i_i_glide_lignum>  (45) 
24

>  <i_i_glide_rotatable_bonds>  (45) 
1

>  <r_i_docking_score>  (45) 
-2.73813

>  <r_i_glide_ligand_efficiency>  (45) 
-0.105313

>  <r_i_glide_ligand_efficiency_sa>  (45) 
-0.311988

>  <r_i_glide_ligand_efficiency_ln>  (45) 
-0.643041

>  <r_i_glide_gscore>  (45) 
-2.73813

>  <r_i_glide_lipo>  (45) 
-0.0238485

>  <r_i_glide_hbond>  (45) 
-0.00173393

>  <r_i_glide_metal>  (45) 
-0

>  <r_i_glide_rewards>  (45) 
-0.8965

>  <r_i_glide_evdw>  (45) 
-17.687

>  <r_i_glide_ecoul>  (45) 
-5.86482

>  <r_i_glide_erotb>  (45) 
0

>  <r_i_glide_esite>  (45) 
-0.0519768

>  <r_i_glide_emodel>  (45) 
-28.0226

>  <r_i_glide_energy>  (45) 
-23.5518

>  <r_i_glide_einternal>  (45) 
1.50542

>  <r_i_glide_intrahb_reward>  (45) 
-0

>  <i_i_glide_confnum>  (45) 
1

>  <i_i_glide_posenum>  (45) 
9

>  <r_i_glide_eff_state_penalty>  (45) 
0

>  <ligand_id>  (45) 
17

>  <original_smiles>  (45) 
COC1=CC2(C)CC3SCC3(N)C3C=C4CCC45C3=CC=C2C5(C)C1=O

>  <smiles>  (45) 
[H]C1=C2C3(C([H])([H])[H])C([H])=C(OC([H])([H])[H])C(=O)C2(C([H])([H])[H])C24C(=C([H])C([H])(C2=C1[H])C1([N+]([H])([H])[H])C([H])([H])SC1([H])C3([H])[H])C([H])([H])C4([H])[H]

$$$$
17:0:2
     RDKit          3D

 52 57  0  0  1  0  0  0  0  0999 V2000
    4.1804   -0.7886    1.9190 C   0  0  0  0  0  0  0  0  0  0  0  0
    3.1924   -0.9903    2.9234 O   0  0  0  0  0  0  0  0  0  0  0  0
    2.8260    0.1114    3.6652 C   0  0  0  0  0  0  0  0  0  0  0  0
    3.6950    1.0830    4.0871 C   0  0  0  0  0  0  0  0  0  0  0  0
    3.3018    2.2934    4.9617 C   0  0  1  0  0  0  0  0  0  0  0  0
    4.1985    2.1928    6.2165 C   0  0  0  0  0  0  0  0  0  0  0  0
    3.4122    3.7627    4.3646 C   0  0  0  0  0  0  0  0  0  0  0  0
    2.4129    4.8365    5.0019 C   0  0  1  0  0  0  0  0  0  0  0  0
    3.0818    6.5038    4.9758 S   0  0  0  0  0  0  0  0  0  0  0  0
    1.3131    6.8004    5.1001 C   0  0  0  0  0  0  0  0  0  0  0  0
    1.0346    5.4372    4.4024 C   0  0  1  0  0  0  0  0  0  0  0  0
    1.1608    5.7409    2.9511 N   0  0  0  0  0  0  0  0  0  0  0  0
   -0.4062    4.8161    4.7388 C   0  0  1  0  0  0  0  0  0  0  0  0
   -1.2089    4.4671    3.5089 C   0  0  0  0  0  0  0  0  0  0  0  0
   -1.1877    3.1624    3.3198 C   0  0  0  0  0  0  0  0  0  0  0  0
   -2.2377    2.2008    2.8791 C   0  0  0  0  0  0  0  0  0  0  0  0
   -1.8025    1.4846    4.1827 C   0  0  0  0  0  0  0  0  0  0  0  0
   -0.4871    2.2914    4.3161 C   0  0  2  0  0  0  0  0  0  0  0  0
   -0.4215    3.4044    5.3604 C   0  0  0  0  0  0  0  0  0  0  0  0
    0.1339    3.1612    6.5512 C   0  0  0  0  0  0  0  0  0  0  0  0
    1.3204    2.3522    6.4638 C   0  0  0  0  0  0  0  0  0  0  0  0
    1.8329    2.1220    5.2305 C   0  0  0  0  0  0  0  0  0  0  0  0
    0.9625    1.8209    3.9676 C   0  0  2  0  0  0  0  0  0  0  0  0
    1.3503    2.3745    2.5553 C   0  0  0  0  0  0  0  0  0  0  0  0
    1.3494    0.3407    3.8136 C   0  0  0  0  0  0  0  0  0  0  0  0
    0.5030   -0.5543    3.7474 O   0  0  0  0  0  0  0  0  0  0  0  0
    4.4839   -1.7545    1.5166 H   0  0  0  0  0  0  0  0  0  0  0  0
    5.0932   -0.2976    2.2521 H   0  0  0  0  0  0  0  0  0  0  0  0
    3.7473   -0.2070    1.1061 H   0  0  0  0  0  0  0  0  0  0  0  0
    4.7632    0.9942    3.9533 H   0  0  0  0  0  0  0  0  0  0  0  0
    4.0187    1.2540    6.7441 H   0  0  0  0  0  0  0  0  0  0  0  0
    4.0550    3.0180    6.9197 H   0  0  0  0  0  0  0  0  0  0  0  0
    5.2557    2.1953    5.9388 H   0  0  0  0  0  0  0  0  0  0  0  0
    4.4323    4.1064    4.5406 H   0  0  0  0  0  0  0  0  0  0  0  0
    3.3498    3.7834    3.2852 H   0  0  0  0  0  0  0  0  0  0  0  0
    2.2896    4.6740    6.0703 H   0  0  0  0  0  0  0  0  0  0  0  0
    0.9693    6.8359    6.1301 H   0  0  0  0  0  0  0  0  0  0  0  0
    1.0091    7.6835    4.5396 H   0  0  0  0  0  0  0  0  0  0  0  0
    0.4332    6.3760    2.6415 H   0  0  0  0  0  0  0  0  0  0  0  0
    1.1054    4.9059    2.3709 H   0  0  0  0  0  0  0  0  0  0  0  0
   -0.9836    5.4764    5.3940 H   0  0  0  0  0  0  0  0  0  0  0  0
   -1.9114    5.1533    3.0730 H   0  0  0  0  0  0  0  0  0  0  0  0
   -3.2743    2.5409    2.9155 H   0  0  0  0  0  0  0  0  0  0  0  0
   -2.0326    1.6164    1.9825 H   0  0  0  0  0  0  0  0  0  0  0  0
   -2.4808    1.6639    5.0190 H   0  0  0  0  0  0  0  0  0  0  0  0
   -1.6886    0.4212    4.0144 H   0  0  0  0  0  0  0  0  0  0  0  0
    0.2032    3.9918    7.2410 H   0  0  0  0  0  0  0  0  0  0  0  0
    1.9838    2.4920    7.3014 H   0  0  0  0  0  0  0  0  0  0  0  0
    2.3516    2.1525    2.1999 H   0  0  0  0  0  0  0  0  0  0  0  0
    1.2506    3.4336    2.4785 H   0  0  0  0  0  0  0  0  0  0  0  0
    0.6851    1.9638    1.7930 H   0  0  0  0  0  0  0  0  0  0  0  0
    2.0510    6.2011    2.8185 H   0  0  0  0  0  0  0  0  0  0  0  0
  1  2  1  0
  1 27  1  0
  1 28  1  0
  1 29  1  0
  2  3  1  0
  3 25  1  0
  3  4  2  0
  4  5  1  0
  4 30  1  0
  5 22  1  0
  5  6  1  1
  5  7  1  0
  6 31  1  0
  6 32  1  0
  6 33  1  0
  7  8  1  0
  7 34  1  0
  7 35  1  0
  8 11  1  0
  8  9  1  0
  8 36  1  1
  9 10  1  0
 10 11  1  0
 10 37  1  0
 10 38  1  0
 11 12  1  6
 11 13  1  0
 12 39  1  0
 12 40  1  0
 12 52  1  0
 13 19  1  0
 13 14  1  0
 13 41  1  1
 14 15  2  0
 14 42  1  0
 15 18  1  0
 15 16  1  0
 16 17  1  0
 16 43  1  0
 16 44  1  0
 18 17  1  1
 17 45  1  0
 17 46  1  0
 18 23  1  0
 18 19  1  0
 19 20  2  0
 20 21  1  0
 20 47  1  0
 21 22  2  0
 21 48  1  0
 22 23  1  0
 23 24  1  6
 23 25  1  0
 24 49  1  0
 24 50  1  0
 24 51  1  0
 25 26  2  0
M  CHG  1  12   1
M  END
>  <i_m_ct_stereo_status>  (46) 
1

>  <s_m_source_file>  (46) 
/var/tmp/pbs.5076255.sched01/tmppe38rura/0ules8z9c.sdf

>  <i_m_source_file_index>  (46) 
24

>  <i_lp_mmshare_version>  (46) 
48012

>  <i_f3d_flags>  (46) 
0

>  <s_epik_input>  (46) 
W0NIM11PQyg9W0NIXTEpQyg9TylbQ0BdMihbQ0gzXSlDKD1bQ0hdW0NIXT1DMzQpW0NAXTEoW0NIM10pW0NIMl1bQ0BASF0oU1tDSDJdNSlbQ0BAXTUoW05IMl0pW0NASF0zW0NIXT1DKFtDQEBdMjQ2KVtDSDJdW0NIMl02

>  <s_epik_cmdline>  (46) 
J2VwaWtfcHl0aG9uJywgJy1waHQnLCAnMi4wJywgJy1waCcsICc3LjAnLCAnLXRuJywgJzgnLCAnLW1hJywgJzIwMCcsICctaW1hZScsICc8aW5maWxlLm1hZT4nLCAnLW9tYWUnLCAnPG91dGZpbGUubWFlPic=

>  <r_epik_Ionization_Penalty>  (46) 
0.306774

>  <r_epik_Ionization_Penalty_Charging>  (46) 
0.306774

>  <r_epik_Ionization_Penalty_Neutral>  (46) 
0

>  <r_epik_State_Penalty>  (46) 
0.300587

>  <r_epik_Charging_Adjusted_Penalty>  (46) 
0.60736

>  <i_epik_Tot_Q>  (46) 
1

>  <i_epik_Tot_abs_Q>  (46) 
1

>  <s_lp_Force_Field>  (46) 
OPLS3e

>  <r_lp_Energy>  (46) 
177.635

>  <b_lp_Chiralities_Consistent>  (46) 
1

>  <s_lp_Variant>  (46) 
17:0-1

>  <s_i_glide_gridfile>  (46) 
pfpi4k_grid

>  <i_i_glide_lignum>  (46) 
24

>  <i_i_glide_rotatable_bonds>  (46) 
1

>  <r_i_docking_score>  (46) 
-2.67736

>  <r_i_glide_ligand_efficiency>  (46) 
-0.102975

>  <r_i_glide_ligand_efficiency_sa>  (46) 
-0.305064

>  <r_i_glide_ligand_efficiency_ln>  (46) 
-0.628769

>  <r_i_glide_gscore>  (46) 
-2.67736

>  <r_i_glide_lipo>  (46) 
-0.0494843

>  <r_i_glide_hbond>  (46) 
-0.241457

>  <r_i_glide_metal>  (46) 
-0

>  <r_i_glide_rewards>  (46) 
-0.8965

>  <r_i_glide_evdw>  (46) 
-18.8574

>  <r_i_glide_ecoul>  (46) 
-2.98948

>  <r_i_glide_erotb>  (46) 
0

>  <r_i_glide_esite>  (46) 
-0.0986269

>  <r_i_glide_emodel>  (46) 
-26.2222

>  <r_i_glide_energy>  (46) 
-21.8469

>  <r_i_glide_einternal>  (46) 
1.52325

>  <r_i_glide_intrahb_reward>  (46) 
-0

>  <i_i_glide_confnum>  (46) 
1

>  <i_i_glide_posenum>  (46) 
39

>  <r_i_glide_eff_state_penalty>  (46) 
0

>  <ligand_id>  (46) 
17

>  <original_smiles>  (46) 
COC1=CC2(C)CC3SCC3(N)C3C=C4CCC45C3=CC=C2C5(C)C1=O

>  <smiles>  (46) 
[H]C1=C2C3(C([H])([H])[H])C([H])=C(OC([H])([H])[H])C(=O)C2(C([H])([H])[H])C24C(=C([H])C([H])(C2=C1[H])C1([N+]([H])([H])[H])C([H])([H])SC1([H])C3([H])[H])C([H])([H])C4([H])[H]

$$$$
17:1:0
     RDKit          3D

 51 56  0  0  1  0  0  0  0  0999 V2000
    4.0197   -9.2867    1.3561 C   0  0  0  0  0  0  0  0  0  0  0  0
    3.4132   -8.0704    0.9321 O   0  0  0  0  0  0  0  0  0  0  0  0
    4.1322   -6.9153    1.1088 C   0  0  0  0  0  0  0  0  0  0  0  0
    5.4407   -6.8942    1.5081 C   0  0  0  0  0  0  0  0  0  0  0  0
    6.2020   -5.6193    1.9042 C   0  0  1  0  0  0  0  0  0  0  0  0
    6.6984   -5.8852    3.3387 C   0  0  0  0  0  0  0  0  0  0  0  0
    7.4137   -5.1564    0.9914 C   0  0  0  0  0  0  0  0  0  0  0  0
    7.6803   -3.5963    1.0057 C   0  0  1  0  0  0  0  0  0  0  0  0
    9.4141   -3.2226    0.8187 S   0  0  0  0  0  0  0  0  0  0  0  0
    8.6000   -1.6868    0.3355 C   0  0  0  0  0  0  0  0  0  0  0  0
    7.3649   -2.4868   -0.1137 C   0  0  1  0  0  0  0  0  0  0  0  0
    7.5977   -2.8963   -1.5061 N   0  0  0  0  0  0  0  0  0  0  0  0
    6.0540   -1.5690   -0.0510 C   0  0  1  0  0  0  0  0  0  0  0  0
    5.2379   -1.5776   -1.3170 C   0  0  0  0  0  0  0  0  0  0  0  0
    4.2261   -2.4073   -1.1697 C   0  0  0  0  0  0  0  0  0  0  0  0
    2.8111   -2.2886   -1.5942 C   0  0  0  0  0  0  0  0  0  0  0  0
    2.5851   -2.4970   -0.0680 C   0  0  0  0  0  0  0  0  0  0  0  0
    3.9985   -2.9900    0.1975 C   0  0  2  0  0  0  0  0  0  0  0  0
    4.9439   -2.0389    0.9151 C   0  0  0  0  0  0  0  0  0  0  0  0
    5.0883   -2.1369    2.2330 C   0  0  0  0  0  0  0  0  0  0  0  0
    5.1023   -3.5036    2.7233 C   0  0  0  0  0  0  0  0  0  0  0  0
    5.1910   -4.5002    1.7990 C   0  0  0  0  0  0  0  0  0  0  0  0
    4.4074   -4.4756    0.4571 C   0  0  2  0  0  0  0  0  0  0  0  0
    5.0219   -4.9970   -0.8733 C   0  0  0  0  0  0  0  0  0  0  0  0
    3.4269   -5.6297    0.7753 C   0  0  0  0  0  0  0  0  0  0  0  0
    2.1900   -5.5175    0.7205 O   0  0  0  0  0  0  0  0  0  0  0  0
    3.3356  -10.1193    1.2251 H   0  0  0  0  0  0  0  0  0  0  0  0
    4.2579   -9.2390    2.4171 H   0  0  0  0  0  0  0  0  0  0  0  0
    4.9283   -9.5078    0.7938 H   0  0  0  0  0  0  0  0  0  0  0  0
    6.0101   -7.8021    1.6827 H   0  0  0  0  0  0  0  0  0  0  0  0
    5.8476   -6.0545    4.0034 H   0  0  0  0  0  0  0  0  0  0  0  0
    7.2985   -5.0734    3.7429 H   0  0  0  0  0  0  0  0  0  0  0  0
    7.3189   -6.7825    3.3531 H   0  0  0  0  0  0  0  0  0  0  0  0
    8.3093   -5.6771    1.3350 H   0  0  0  0  0  0  0  0  0  0  0  0
    7.3339   -5.5102   -0.0260 H   0  0  0  0  0  0  0  0  0  0  0  0
    7.4159   -3.1712    1.9636 H   0  0  0  0  0  0  0  0  0  0  0  0
    8.4621   -0.9805    1.1583 H   0  0  0  0  0  0  0  0  0  0  0  0
    9.0047   -1.2029   -0.5373 H   0  0  0  0  0  0  0  0  0  0  0  0
    6.9073   -3.6017   -1.7426 H   0  0  0  0  0  0  0  0  0  0  0  0
    8.5017   -3.3597   -1.5478 H   0  0  0  0  0  0  0  0  0  0  0  0
    6.2923   -0.5441    0.2050 H   0  0  0  0  0  0  0  0  0  0  0  0
    5.3449   -0.8247   -2.0840 H   0  0  0  0  0  0  0  0  0  0  0  0
    2.5251   -1.3075   -1.9704 H   0  0  0  0  0  0  0  0  0  0  0  0
    2.3783   -3.0870   -2.1881 H   0  0  0  0  0  0  0  0  0  0  0  0
    2.3376   -1.5908    0.4902 H   0  0  0  0  0  0  0  0  0  0  0  0
    1.8275   -3.2475    0.1133 H   0  0  0  0  0  0  0  0  0  0  0  0
    5.8534   -1.5044    2.6671 H   0  0  0  0  0  0  0  0  0  0  0  0
    5.6675   -3.6135    3.6291 H   0  0  0  0  0  0  0  0  0  0  0  0
    5.3865   -6.0187   -0.8876 H   0  0  0  0  0  0  0  0  0  0  0  0
    5.8054   -4.3910   -1.2716 H   0  0  0  0  0  0  0  0  0  0  0  0
    4.2388   -4.9315   -1.6179 H   0  0  0  0  0  0  0  0  0  0  0  0
  1  2  1  0
  1 27  1  0
  1 28  1  0
  1 29  1  0
  2  3  1  0
  3 25  1  0
  3  4  2  0
  4  5  1  0
  4 30  1  0
  5 22  1  0
  5  6  1  1
  5  7  1  0
  6 31  1  0
  6 32  1  0
  6 33  1  0
  7  8  1  0
  7 34  1  0
  7 35  1  0
  8 11  1  0
  8  9  1  0
  8 36  1  1
  9 10  1  0
 10 11  1  0
 10 37  1  0
 10 38  1  0
 11 12  1  6
 11 13  1  0
 12 39  1  0
 12 40  1  0
 13 19  1  0
 13 14  1  0
 13 41  1  1
 14 15  2  0
 14 42  1  0
 15 18  1  0
 15 16  1  0
 16 17  1  0
 16 43  1  0
 16 44  1  0
 18 17  1  1
 17 45  1  0
 17 46  1  0
 18 23  1  0
 18 19  1  0
 19 20  2  0
 20 21  1  0
 20 47  1  0
 21 22  2  0
 21 48  1  0
 22 23  1  0
 23 24  1  6
 23 25  1  0
 24 49  1  0
 24 50  1  0
 24 51  1  0
 25 26  2  0
M  END
>  <i_m_ct_stereo_status>  (47) 
1

>  <s_m_source_file>  (47) 
/var/tmp/pbs.5076255.sched01/tmppe38rura/0ules8z9c.sdf

>  <i_m_source_file_index>  (47) 
25

>  <i_lp_mmshare_version>  (47) 
48012

>  <i_f3d_flags>  (47) 
0

>  <s_epik_input>  (47) 
W0NIM11PQyg9W0NIXTEpQyg9TylbQ0BdMihbQ0gzXSlDKD1bQ0hdW0NIXT1DMzQpW0NAXTEoW0NIM10pW0NIMl1bQ0BASF0oU1tDSDJdNSlbQ0BAXTUoW05IMl0pW0NASF0zW0NIXT1DKFtDQEBdMjQ2KVtDSDJdW0NIMl02

>  <s_epik_cmdline>  (47) 
J2VwaWtfcHl0aG9uJywgJy1waHQnLCAnMi4wJywgJy1waCcsICc3LjAnLCAnLXRuJywgJzgnLCAnLW1hJywgJzIwMCcsICctaW1hZScsICc8aW5maWxlLm1hZT4nLCAnLW9tYWUnLCAnPG91dGZpbGUubWFlPic=

>  <r_epik_Ionization_Penalty>  (47) 
0.536767

>  <r_epik_Ionization_Penalty_Charging>  (47) 
0

>  <r_epik_Ionization_Penalty_Neutral>  (47) 
0.536767

>  <r_epik_State_Penalty>  (47) 
0.546008

>  <r_epik_Charging_Adjusted_Penalty>  (47) 
0.546008

>  <i_epik_Tot_Q>  (47) 
0

>  <i_epik_Tot_abs_Q>  (47) 
0

>  <s_lp_Force_Field>  (47) 
OPLS3e

>  <r_lp_Energy>  (47) 
179.951

>  <b_lp_Chiralities_Consistent>  (47) 
1

>  <s_lp_Variant>  (47) 
17:0-2

>  <s_i_glide_gridfile>  (47) 
pfpi4k_grid

>  <i_i_glide_lignum>  (47) 
25

>  <i_i_glide_rotatable_bonds>  (47) 
1

>  <r_i_docking_score>  (47) 
-2.81141

>  <r_i_glide_ligand_efficiency>  (47) 
-0.108131

>  <r_i_glide_ligand_efficiency_sa>  (47) 
-0.320338

>  <r_i_glide_ligand_efficiency_ln>  (47) 
-0.66025

>  <r_i_glide_gscore>  (47) 
-2.81141

>  <r_i_glide_lipo>  (47) 
-0.69288

>  <r_i_glide_hbond>  (47) 
-0.0631319

>  <r_i_glide_metal>  (47) 
-0

>  <r_i_glide_rewards>  (47) 
-0.903372

>  <r_i_glide_evdw>  (47) 
-12.7474

>  <r_i_glide_ecoul>  (47) 
-3.40779

>  <r_i_glide_erotb>  (47) 
0

>  <r_i_glide_esite>  (47) 
-0.00348481

>  <r_i_glide_emodel>  (47) 
-18.0064

>  <r_i_glide_energy>  (47) 
-16.1552

>  <r_i_glide_einternal>  (47) 
0.0379938

>  <r_i_glide_intrahb_reward>  (47) 
-0

>  <i_i_glide_confnum>  (47) 
1

>  <i_i_glide_posenum>  (47) 
22

>  <r_i_glide_eff_state_penalty>  (47) 
0

>  <ligand_id>  (47) 
17

>  <original_smiles>  (47) 
COC1=CC2(C)CC3SCC3(N)C3C=C4CCC45C3=CC=C2C5(C)C1=O

>  <smiles>  (47) 
[H]C1=C2C3(C([H])([H])[H])C([H])=C(OC([H])([H])[H])C(=O)C2(C([H])([H])[H])C24C(=C([H])C([H])(C2=C1[H])C1(N([H])[H])C([H])([H])SC1([H])C3([H])[H])C([H])([H])C4([H])[H]

$$$$
17:1:1
     RDKit          3D

 51 56  0  0  1  0  0  0  0  0999 V2000
    1.1354   -6.6193    6.2686 C   0  0  0  0  0  0  0  0  0  0  0  0
    0.7093   -6.0554    5.0338 O   0  0  0  0  0  0  0  0  0  0  0  0
    0.9542   -4.7168    4.8454 C   0  0  0  0  0  0  0  0  0  0  0  0
    0.8413   -3.7708    5.8341 C   0  0  0  0  0  0  0  0  0  0  0  0
    1.0281   -2.2556    5.6208 C   0  0  1  0  0  0  0  0  0  0  0  0
   -0.2978   -1.6123    6.0855 C   0  0  0  0  0  0  0  0  0  0  0  0
    2.2355   -1.4961    6.3291 C   0  0  0  0  0  0  0  0  0  0  0  0
    2.7431   -0.1765    5.5867 C   0  0  1  0  0  0  0  0  0  0  0  0
    3.3809    1.0766    6.7239 S   0  0  0  0  0  0  0  0  0  0  0  0
    4.1991    1.4699    5.1604 C   0  0  0  0  0  0  0  0  0  0  0  0
    4.0908   -0.0082    4.7120 C   0  0  1  0  0  0  0  0  0  0  0  0
    5.2655   -0.7130    5.2408 N   0  0  0  0  0  0  0  0  0  0  0  0
    4.0842   -0.1712    3.1047 C   0  0  1  0  0  0  0  0  0  0  0  0
    5.1065   -1.1308    2.5421 C   0  0  0  0  0  0  0  0  0  0  0  0
    4.5057   -2.2675    2.1907 C   0  0  0  0  0  0  0  0  0  0  0  0
    4.6842   -3.1875    1.0265 C   0  0  0  0  0  0  0  0  0  0  0  0
    3.1600   -2.9419    0.8861 C   0  0  0  0  0  0  0  0  0  0  0  0
    3.0151   -2.3490    2.3152 C   0  0  2  0  0  0  0  0  0  0  0  0
    2.8422   -0.8353    2.4611 C   0  0  0  0  0  0  0  0  0  0  0  0
    1.6216   -0.3225    2.5706 C   0  0  0  0  0  0  0  0  0  0  0  0
    0.7568   -1.0938    3.4294 C   0  0  0  0  0  0  0  0  0  0  0  0
    1.3169   -2.1012    4.1515 C   0  0  0  0  0  0  0  0  0  0  0  0
    2.4148   -3.0631    3.5806 C   0  0  2  0  0  0  0  0  0  0  0  0
    3.6044   -3.5698    4.4682 C   0  0  0  0  0  0  0  0  0  0  0  0
    1.5518   -4.3415    3.5225 C   0  0  0  0  0  0  0  0  0  0  0  0
    1.4239   -5.0233    2.4962 O   0  0  0  0  0  0  0  0  0  0  0  0
    0.7972   -7.6549    6.3297 H   0  0  0  0  0  0  0  0  0  0  0  0
    0.7477   -6.1095    7.1473 H   0  0  0  0  0  0  0  0  0  0  0  0
    2.2253   -6.6233    6.3130 H   0  0  0  0  0  0  0  0  0  0  0  0
    0.4751   -4.0315    6.8196 H   0  0  0  0  0  0  0  0  0  0  0  0
   -1.1358   -1.9876    5.4909 H   0  0  0  0  0  0  0  0  0  0  0  0
   -0.2841   -0.5226    6.0256 H   0  0  0  0  0  0  0  0  0  0  0  0
   -0.4959   -1.8739    7.1250 H   0  0  0  0  0  0  0  0  0  0  0  0
    1.9157   -1.2338    7.3355 H   0  0  0  0  0  0  0  0  0  0  0  0
    3.0753   -2.1527    6.5273 H   0  0  0  0  0  0  0  0  0  0  0  0
    1.9190    0.3615    5.1146 H   0  0  0  0  0  0  0  0  0  0  0  0
    3.6393    2.1732    4.5469 H   0  0  0  0  0  0  0  0  0  0  0  0
    5.2215    1.8022    5.3130 H   0  0  0  0  0  0  0  0  0  0  0  0
    5.1365   -1.7105    5.1373 H   0  0  0  0  0  0  0  0  0  0  0  0
    5.3112   -0.5387    6.2349 H   0  0  0  0  0  0  0  0  0  0  0  0
    4.2120    0.7949    2.6198 H   0  0  0  0  0  0  0  0  0  0  0  0
    6.0774   -0.7844    2.2162 H   0  0  0  0  0  0  0  0  0  0  0  0
    5.2470   -2.8296    0.1641 H   0  0  0  0  0  0  0  0  0  0  0  0
    4.9339   -4.2208    1.2567 H   0  0  0  0  0  0  0  0  0  0  0  0
    2.9039   -2.2307    0.1036 H   0  0  0  0  0  0  0  0  0  0  0  0
    2.6293   -3.8766    0.7079 H   0  0  0  0  0  0  0  0  0  0  0  0
    1.5532    0.7453    2.7254 H   0  0  0  0  0  0  0  0  0  0  0  0
   -0.0337   -0.5072    3.8635 H   0  0  0  0  0  0  0  0  0  0  0  0
    3.3457   -4.0356    5.4163 H   0  0  0  0  0  0  0  0  0  0  0  0
    4.3142   -2.8086    4.7068 H   0  0  0  0  0  0  0  0  0  0  0  0
    4.1733   -4.3264    3.9267 H   0  0  0  0  0  0  0  0  0  0  0  0
  1  2  1  0
  1 27  1  0
  1 28  1  0
  1 29  1  0
  2  3  1  0
  3 25  1  0
  3  4  2  0
  4  5  1  0
  4 30  1  0
  5 22  1  0
  5  6  1  6
  5  7  1  0
  6 31  1  0
  6 32  1  0
  6 33  1  0
  7  8  1  0
  7 34  1  0
  7 35  1  0
  8 11  1  0
  8  9  1  0
  8 36  1  6
  9 10  1  0
 10 11  1  0
 10 37  1  0
 10 38  1  0
 11 12  1  1
 11 13  1  0
 12 39  1  0
 12 40  1  0
 13 19  1  0
 13 14  1  0
 13 41  1  6
 14 15  2  0
 14 42  1  0
 15 18  1  0
 15 16  1  0
 16 17  1  0
 16 43  1  0
 16 44  1  0
 18 17  1  6
 17 45  1  0
 17 46  1  0
 18 23  1  0
 18 19  1  0
 19 20  2  0
 20 21  1  0
 20 47  1  0
 21 22  2  0
 21 48  1  0
 22 23  1  0
 23 24  1  1
 23 25  1  0
 24 49  1  0
 24 50  1  0
 24 51  1  0
 25 26  2  0
M  END
>  <i_m_ct_stereo_status>  (48) 
1

>  <s_m_source_file>  (48) 
/var/tmp/pbs.5076255.sched01/tmppe38rura/0ules8z9c.sdf

>  <i_m_source_file_index>  (48) 
25

>  <i_lp_mmshare_version>  (48) 
48012

>  <i_f3d_flags>  (48) 
0

>  <s_epik_input>  (48) 
W0NIM11PQyg9W0NIXTEpQyg9TylbQ0BdMihbQ0gzXSlDKD1bQ0hdW0NIXT1DMzQpW0NAXTEoW0NIM10pW0NIMl1bQ0BASF0oU1tDSDJdNSlbQ0BAXTUoW05IMl0pW0NASF0zW0NIXT1DKFtDQEBdMjQ2KVtDSDJdW0NIMl02

>  <s_epik_cmdline>  (48) 
J2VwaWtfcHl0aG9uJywgJy1waHQnLCAnMi4wJywgJy1waCcsICc3LjAnLCAnLXRuJywgJzgnLCAnLW1hJywgJzIwMCcsICctaW1hZScsICc8aW5maWxlLm1hZT4nLCAnLW9tYWUnLCAnPG91dGZpbGUubWFlPic=

>  <r_epik_Ionization_Penalty>  (48) 
0.536767

>  <r_epik_Ionization_Penalty_Charging>  (48) 
0

>  <r_epik_Ionization_Penalty_Neutral>  (48) 
0.536767

>  <r_epik_State_Penalty>  (48) 
0.546008

>  <r_epik_Charging_Adjusted_Penalty>  (48) 
0.546008

>  <i_epik_Tot_Q>  (48) 
0

>  <i_epik_Tot_abs_Q>  (48) 
0

>  <s_lp_Force_Field>  (48) 
OPLS3e

>  <r_lp_Energy>  (48) 
179.951

>  <b_lp_Chiralities_Consistent>  (48) 
1

>  <s_lp_Variant>  (48) 
17:0-2

>  <s_i_glide_gridfile>  (48) 
pfpi4k_grid

>  <i_i_glide_lignum>  (48) 
25

>  <i_i_glide_rotatable_bonds>  (48) 
1

>  <r_i_docking_score>  (48) 
-1.9884

>  <r_i_glide_ligand_efficiency>  (48) 
-0.0764768

>  <r_i_glide_ligand_efficiency_sa>  (48) 
-0.226562

>  <r_i_glide_ligand_efficiency_ln>  (48) 
-0.466969

>  <r_i_glide_gscore>  (48) 
-1.9884

>  <r_i_glide_lipo>  (48) 
-0.193598

>  <r_i_glide_hbond>  (48) 
-0.00946612

>  <r_i_glide_metal>  (48) 
-0

>  <r_i_glide_rewards>  (48) 
-0.903372

>  <r_i_glide_evdw>  (48) 
-15.5601

>  <r_i_glide_ecoul>  (48) 
-0.64889

>  <r_i_glide_erotb>  (48) 
0

>  <r_i_glide_esite>  (48) 
-0.00662239

>  <r_i_glide_emodel>  (48) 
-16.9326

>  <r_i_glide_energy>  (48) 
-16.209

>  <r_i_glide_einternal>  (48) 
1.37013

>  <r_i_glide_intrahb_reward>  (48) 
-0

>  <i_i_glide_confnum>  (48) 
1

>  <i_i_glide_posenum>  (48) 
26

>  <r_i_glide_eff_state_penalty>  (48) 
0

>  <ligand_id>  (48) 
17

>  <original_smiles>  (48) 
COC1=CC2(C)CC3SCC3(N)C3C=C4CCC45C3=CC=C2C5(C)C1=O

>  <smiles>  (48) 
[H]C1=C2C3(C([H])([H])[H])C([H])=C(OC([H])([H])[H])C(=O)C2(C([H])([H])[H])C24C(=C([H])C([H])(C2=C1[H])C1(N([H])[H])C([H])([H])SC1([H])C3([H])[H])C([H])([H])C4([H])[H]

$$$$
17:1:2
     RDKit          3D

 51 56  0  0  1  0  0  0  0  0999 V2000
   -0.1300   -7.1571    1.1074 C   0  0  0  0  0  0  0  0  0  0  0  0
    1.2385   -7.4810    0.9551 O   0  0  0  0  0  0  0  0  0  0  0  0
    2.1151   -6.4273    1.0247 C   0  0  0  0  0  0  0  0  0  0  0  0
    2.0669   -5.3384    0.2012 C   0  0  0  0  0  0  0  0  0  0  0  0
    3.0866   -4.1783    0.2208 C   0  0  1  0  0  0  0  0  0  0  0  0
    3.6864   -4.0411   -1.1863 C   0  0  0  0  0  0  0  0  0  0  0  0
    2.6569   -2.7248    0.6751 C   0  0  0  0  0  0  0  0  0  0  0  0
    3.8176   -1.8137    1.2829 C   0  0  1  0  0  0  0  0  0  0  0  0
    3.5986   -0.0657    0.9442 S   0  0  0  0  0  0  0  0  0  0  0  0
    4.6205   -0.0518    2.4365 C   0  0  0  0  0  0  0  0  0  0  0  0
    4.0157   -1.4216    2.8338 C   0  0  1  0  0  0  0  0  0  0  0  0
    2.7889   -1.1621    3.5999 N   0  0  0  0  0  0  0  0  0  0  0  0
    4.9985   -2.2626    3.7551 C   0  0  1  0  0  0  0  0  0  0  0  0
    4.4497   -2.7687    5.0600 C   0  0  0  0  0  0  0  0  0  0  0  0
    4.2017   -4.0750    4.9676 C   0  0  0  0  0  0  0  0  0  0  0  0
    4.3926   -5.2097    5.9224 C   0  0  0  0  0  0  0  0  0  0  0  0
    5.1830   -5.7927    4.7203 C   0  0  0  0  0  0  0  0  0  0  0  0
    4.5862   -4.7728    3.7039 C   0  0  2  0  0  0  0  0  0  0  0  0
    5.4489   -3.6262    3.1999 C   0  0  0  0  0  0  0  0  0  0  0  0
    6.1575   -3.7722    2.0848 C   0  0  0  0  0  0  0  0  0  0  0  0
    5.4156   -4.4286    1.0360 C   0  0  0  0  0  0  0  0  0  0  0  0
    4.0927   -4.5976    1.2478 C   0  0  0  0  0  0  0  0  0  0  0  0
    3.4877   -5.0387    2.6209 C   0  0  2  0  0  0  0  0  0  0  0  0
    2.1387   -4.4660    3.1670 C   0  0  0  0  0  0  0  0  0  0  0  0
    3.0558   -6.4481    2.1890 C   0  0  0  0  0  0  0  0  0  0  0  0
    3.4106   -7.4623    2.7772 O   0  0  0  0  0  0  0  0  0  0  0  0
   -0.7315   -8.0417    0.9105 H   0  0  0  0  0  0  0  0  0  0  0  0
   -0.4738   -6.3719    0.4373 H   0  0  0  0  0  0  0  0  0  0  0  0
   -0.3200   -6.8698    2.1404 H   0  0  0  0  0  0  0  0  0  0  0  0
    1.3458   -5.2964   -0.6109 H   0  0  0  0  0  0  0  0  0  0  0  0
    4.2493   -4.9428   -1.4479 H   0  0  0  0  0  0  0  0  0  0  0  0
    4.3618   -3.1972   -1.3196 H   0  0  0  0  0  0  0  0  0  0  0  0
    2.8897   -3.9113   -1.9169 H   0  0  0  0  0  0  0  0  0  0  0  0
    2.2435   -2.2674   -0.2241 H   0  0  0  0  0  0  0  0  0  0  0  0
    1.8142   -2.7052    1.3526 H   0  0  0  0  0  0  0  0  0  0  0  0
    4.7796   -1.9884    0.7951 H   0  0  0  0  0  0  0  0  0  0  0  0
    5.6906   -0.0549    2.2142 H   0  0  0  0  0  0  0  0  0  0  0  0
    4.3461    0.7574    3.1122 H   0  0  0  0  0  0  0  0  0  0  0  0
    2.2835   -2.0281    3.7045 H   0  0  0  0  0  0  0  0  0  0  0  0
    2.2081   -0.5646    3.0307 H   0  0  0  0  0  0  0  0  0  0  0  0
    5.8661   -1.6590    3.9644 H   0  0  0  0  0  0  0  0  0  0  0  0
    4.5811   -2.1946    5.9644 H   0  0  0  0  0  0  0  0  0  0  0  0
    5.0177   -5.0508    6.8043 H   0  0  0  0  0  0  0  0  0  0  0  0
    3.4931   -5.7708    6.1665 H   0  0  0  0  0  0  0  0  0  0  0  0
    6.2628   -5.7147    4.8364 H   0  0  0  0  0  0  0  0  0  0  0  0
    4.9113   -6.8374    4.5603 H   0  0  0  0  0  0  0  0  0  0  0  0
    6.7472   -2.9344    1.7442 H   0  0  0  0  0  0  0  0  0  0  0  0
    5.7782   -4.1470    0.0537 H   0  0  0  0  0  0  0  0  0  0  0  0
    1.2854   -4.5142    2.4985 H   0  0  0  0  0  0  0  0  0  0  0  0
    2.2081   -3.4427    3.4740 H   0  0  0  0  0  0  0  0  0  0  0  0
    1.8421   -5.0154    4.0627 H   0  0  0  0  0  0  0  0  0  0  0  0
  1  2  1  0
  1 27  1  0
  1 28  1  0
  1 29  1  0
  2  3  1  0
  3 25  1  0
  3  4  2  0
  4  5  1  0
  4 30  1  0
  5 22  1  0
  5  6  1  6
  5  7  1  0
  6 31  1  0
  6 32  1  0
  6 33  1  0
  7  8  1  0
  7 34  1  0
  7 35  1  0
  8 11  1  0
  8  9  1  0
  8 36  1  6
  9 10  1  0
 10 11  1  0
 10 37  1  0
 10 38  1  0
 11 12  1  1
 11 13  1  0
 12 39  1  0
 12 40  1  0
 13 19  1  0
 13 14  1  0
 13 41  1  1
 14 15  2  0
 14 42  1  0
 15 18  1  0
 15 16  1  0
 16 17  1  0
 16 43  1  0
 16 44  1  0
 18 17  1  1
 17 45  1  0
 17 46  1  0
 18 23  1  0
 18 19  1  0
 19 20  2  0
 20 21  1  0
 20 47  1  0
 21 22  2  0
 21 48  1  0
 22 23  1  0
 23 24  1  1
 23 25  1  0
 24 49  1  0
 24 50  1  0
 24 51  1  0
 25 26  2  0
M  END
>  <i_m_ct_stereo_status>  (49) 
1

>  <s_m_source_file>  (49) 
/var/tmp/pbs.5076255.sched01/tmppe38rura/0ules8z9c.sdf

>  <i_m_source_file_index>  (49) 
25

>  <i_lp_mmshare_version>  (49) 
48012

>  <i_f3d_flags>  (49) 
0

>  <s_epik_input>  (49) 
W0NIM11PQyg9W0NIXTEpQyg9TylbQ0BdMihbQ0gzXSlDKD1bQ0hdW0NIXT1DMzQpW0NAXTEoW0NIM10pW0NIMl1bQ0BASF0oU1tDSDJdNSlbQ0BAXTUoW05IMl0pW0NASF0zW0NIXT1DKFtDQEBdMjQ2KVtDSDJdW0NIMl02

>  <s_epik_cmdline>  (49) 
J2VwaWtfcHl0aG9uJywgJy1waHQnLCAnMi4wJywgJy1waCcsICc3LjAnLCAnLXRuJywgJzgnLCAnLW1hJywgJzIwMCcsICctaW1hZScsICc8aW5maWxlLm1hZT4nLCAnLW9tYWUnLCAnPG91dGZpbGUubWFlPic=

>  <r_epik_Ionization_Penalty>  (49) 
0.536767

>  <r_epik_Ionization_Penalty_Charging>  (49) 
0

>  <r_epik_Ionization_Penalty_Neutral>  (49) 
0.536767

>  <r_epik_State_Penalty>  (49) 
0.546008

>  <r_epik_Charging_Adjusted_Penalty>  (49) 
0.546008

>  <i_epik_Tot_Q>  (49) 
0

>  <i_epik_Tot_abs_Q>  (49) 
0

>  <s_lp_Force_Field>  (49) 
OPLS3e

>  <r_lp_Energy>  (49) 
179.951

>  <b_lp_Chiralities_Consistent>  (49) 
1

>  <s_lp_Variant>  (49) 
17:0-2

>  <s_i_glide_gridfile>  (49) 
pfpi4k_grid

>  <i_i_glide_lignum>  (49) 
25

>  <i_i_glide_rotatable_bonds>  (49) 
1

>  <r_i_docking_score>  (49) 
-1.72119

>  <r_i_glide_ligand_efficiency>  (49) 
-0.0661996

>  <r_i_glide_ligand_efficiency_sa>  (49) 
-0.196116

>  <r_i_glide_ligand_efficiency_ln>  (49) 
-0.404216

>  <r_i_glide_gscore>  (49) 
-1.72119

>  <r_i_glide_lipo>  (49) 
-0.26482

>  <r_i_glide_hbond>  (49) 
0

>  <r_i_glide_metal>  (49) 
-0

>  <r_i_glide_rewards>  (49) 
-0.913247

>  <r_i_glide_evdw>  (49) 
-11.0026

>  <r_i_glide_ecoul>  (49) 
0.0467211

>  <r_i_glide_erotb>  (49) 
0

>  <r_i_glide_esite>  (49) 
0

>  <r_i_glide_emodel>  (49) 
-10.5797

>  <r_i_glide_energy>  (49) 
-10.9559

>  <r_i_glide_einternal>  (49) 
2.45781

>  <r_i_glide_intrahb_reward>  (49) 
-0

>  <i_i_glide_confnum>  (49) 
2

>  <i_i_glide_posenum>  (49) 
15

>  <r_i_glide_eff_state_penalty>  (49) 
0

>  <ligand_id>  (49) 
17

>  <original_smiles>  (49) 
COC1=CC2(C)CC3SCC3(N)C3C=C4CCC45C3=CC=C2C5(C)C1=O

>  <smiles>  (49) 
[H]C1=C2C3(C([H])([H])[H])C([H])=C(OC([H])([H])[H])C(=O)C2(C([H])([H])[H])C24C(=C([H])C([H])(C2=C1[H])C1(N([H])[H])C([H])([H])SC1([H])C3([H])[H])C([H])([H])C4([H])[H]

$$$$
19:0:0
     RDKit          3D

 81 86  0  0  1  0  0  0  0  0999 V2000
    2.8602   -3.7258   -0.4722 C   0  0  0  0  0  0  0  0  0  0  0  0
    4.2718   -3.6917    0.1404 C   0  0  0  0  0  0  0  0  0  0  0  0
    5.1606   -3.1000   -0.9962 C   0  0  0  0  0  0  0  0  0  0  0  0
    4.2498   -2.7063    1.3260 C   0  0  0  0  0  0  0  0  0  0  0  0
    4.8008   -1.6024    1.2218 O   0  0  0  0  0  0  0  0  0  0  0  0
    3.5143   -3.0725    2.5262 C   0  0  0  0  0  0  0  0  0  0  0  0
    3.7544   -4.1111    3.3466 C   0  0  0  0  0  0  0  0  0  0  0  0
    4.9023   -5.1535    3.4910 C   0  0  1  0  0  0  0  0  0  0  0  0
    6.1567   -4.6844    2.7055 C   0  0  0  0  0  0  0  0  0  0  0  0
    6.2247   -5.0318    1.2096 C   0  0  0  0  0  0  0  0  0  0  0  0
    4.8393   -5.1198    0.5383 C   0  0  1  0  0  0  0  0  0  0  0  0
    4.0208   -6.2754    1.3084 C   0  0  2  0  0  0  0  0  0  0  0  0
    4.3651   -7.5287    0.4804 C   0  0  0  0  0  0  0  0  0  0  0  0
    2.4563   -6.1965    1.3751 C   0  0  0  0  0  0  0  0  0  0  0  0
    1.6847   -7.3557    2.1170 C   0  0  0  0  0  0  0  0  0  0  0  0
    1.1113   -7.2846    3.6115 C   0  0  2  0  0  0  0  0  0  0  0  0
    0.4480   -5.9235    3.8316 C   0  0  0  0  0  0  0  0  0  0  0  0
    2.0444   -7.7189    4.8467 C   0  0  1  0  0  0  0  0  0  0  0  0
    2.1416   -9.2418    4.7309 C   0  0  0  0  0  0  0  0  0  0  0  0
    0.8744   -9.6907    3.9847 C   0  0  1  0  0  0  0  0  0  0  0  0
    0.2205  -10.7258    4.6931 O   0  0  0  0  0  0  0  0  0  0  0  0
    0.0142   -8.4372    3.7238 C   0  0  0  0  0  0  0  0  0  0  0  0
   -0.9888   -8.1926    4.8711 C   0  0  0  0  0  0  0  0  0  0  0  0
   -0.9216   -8.6821    2.5219 C   0  0  0  0  0  0  0  0  0  0  0  0
    3.1883   -6.9735    5.6837 C   0  0  2  0  0  0  0  0  0  0  0  0
    2.8870   -5.5527    6.2066 C   0  0  0  0  0  0  0  0  0  0  0  0
    4.1984   -4.7490    6.0816 C   0  0  0  0  0  0  0  0  0  0  0  0
    5.1338   -5.4716    5.0610 C   0  0  2  0  0  0  0  0  0  0  0  0
    6.5849   -5.2159    5.5509 C   0  0  0  0  0  0  0  0  0  0  0  0
    4.7364   -6.9312    5.4192 C   0  0  2  0  0  0  0  0  0  0  0  0
    5.4171   -8.0072    4.5704 C   0  0  0  0  0  0  0  0  0  0  0  0
    5.3992   -7.6834    3.0877 C   0  0  0  0  0  0  0  0  0  0  0  0
    4.4869   -6.4583    2.7759 C   0  0  1  0  0  0  0  0  0  0  0  0
    2.7614   -4.5956   -1.1077 H   0  0  0  0  0  0  0  0  0  0  0  0
    2.6485   -2.8384   -1.0724 H   0  0  0  0  0  0  0  0  0  0  0  0
    2.0627   -3.7769    0.2577 H   0  0  0  0  0  0  0  0  0  0  0  0
    5.1943   -3.7554   -1.8692 H   0  0  0  0  0  0  0  0  0  0  0  0
    6.1866   -2.9065   -0.6893 H   0  0  0  0  0  0  0  0  0  0  0  0
    4.7750   -2.1410   -1.3459 H   0  0  0  0  0  0  0  0  0  0  0  0
    2.6121   -2.5047    2.7129 H   0  0  0  0  0  0  0  0  0  0  0  0
    2.9809   -4.2001    4.0703 H   0  0  0  0  0  0  0  0  0  0  0  0
    6.2219   -3.6092    2.8179 H   0  0  0  0  0  0  0  0  0  0  0  0
    7.0747   -5.0816    3.1081 H   0  0  0  0  0  0  0  0  0  0  0  0
    6.8859   -4.3217    0.7194 H   0  0  0  0  0  0  0  0  0  0  0  0
    6.7371   -5.9859    1.0801 H   0  0  0  0  0  0  0  0  0  0  0  0
    5.0766   -5.5118   -0.4548 H   0  0  0  0  0  0  0  0  0  0  0  0
    3.8629   -8.4466    0.7797 H   0  0  0  0  0  0  0  0  0  0  0  0
    5.4310   -7.7389    0.5239 H   0  0  0  0  0  0  0  0  0  0  0  0
    4.1625   -7.3485   -0.5597 H   0  0  0  0  0  0  0  0  0  0  0  0
    2.1245   -5.2532    1.7818 H   0  0  0  0  0  0  0  0  0  0  0  0
    2.1058   -6.1950    0.3411 H   0  0  0  0  0  0  0  0  0  0  0  0
    0.8335   -7.4101    1.4526 H   0  0  0  0  0  0  0  0  0  0  0  0
    2.1849   -8.3081    1.9794 H   0  0  0  0  0  0  0  0  0  0  0  0
    0.0474   -5.7904    4.8384 H   0  0  0  0  0  0  0  0  0  0  0  0
   -0.3804   -5.8725    3.1371 H   0  0  0  0  0  0  0  0  0  0  0  0
    1.0867   -5.0688    3.6447 H   0  0  0  0  0  0  0  0  0  0  0  0
    1.3443   -7.5951    5.6625 H   0  0  0  0  0  0  0  0  0  0  0  0
    3.0044   -9.5271    4.1420 H   0  0  0  0  0  0  0  0  0  0  0  0
    2.2334   -9.7145    5.7100 H   0  0  0  0  0  0  0  0  0  0  0  0
    1.1913  -10.1150    3.0300 H   0  0  0  0  0  0  0  0  0  0  0  0
   -0.7431  -10.6489    4.7295 H   0  0  0  0  0  0  0  0  0  0  0  0
   -1.7382   -8.9800    4.9132 H   0  0  0  0  0  0  0  0  0  0  0  0
   -1.5579   -7.2815    4.7528 H   0  0  0  0  0  0  0  0  0  0  0  0
   -0.5578   -8.1986    5.8444 H   0  0  0  0  0  0  0  0  0  0  0  0
   -1.6925   -9.4120    2.7609 H   0  0  0  0  0  0  0  0  0  0  0  0
   -0.3869   -9.1291    1.6846 H   0  0  0  0  0  0  0  0  0  0  0  0
   -1.4262   -7.7818    2.1737 H   0  0  0  0  0  0  0  0  0  0  0  0
    3.1703   -7.5762    6.5967 H   0  0  0  0  0  0  0  0  0  0  0  0
    2.0639   -5.0783    5.6841 H   0  0  0  0  0  0  0  0  0  0  0  0
    2.5715   -5.5868    7.2516 H   0  0  0  0  0  0  0  0  0  0  0  0
    4.0427   -3.6891    5.8845 H   0  0  0  0  0  0  0  0  0  0  0  0
    4.6519   -4.7680    7.0700 H   0  0  0  0  0  0  0  0  0  0  0  0
    6.6957   -5.3811    6.6195 H   0  0  0  0  0  0  0  0  0  0  0  0
    6.8759   -4.1853    5.3707 H   0  0  0  0  0  0  0  0  0  0  0  0
    7.3120   -5.8730    5.0796 H   0  0  0  0  0  0  0  0  0  0  0  0
    5.1464   -7.1128    6.4099 H   0  0  0  0  0  0  0  0  0  0  0  0
    6.4590   -8.1031    4.8816 H   0  0  0  0  0  0  0  0  0  0  0  0
    4.9745   -8.9784    4.7686 H   0  0  0  0  0  0  0  0  0  0  0  0
    6.4181   -7.5124    2.7484 H   0  0  0  0  0  0  0  0  0  0  0  0
    5.0613   -8.6004    2.6047 H   0  0  0  0  0  0  0  0  0  0  0  0
    3.5990   -6.7167    3.2894 H   0  0  0  0  0  0  0  0  0  0  0  0
  1  2  1  0
  1 34  1  0
  1 35  1  0
  1 36  1  0
  2 11  1  0
  2  3  1  0
  2  4  1  0
  3 37  1  0
  3 38  1  0
  3 39  1  0
  4  5  2  0
  4  6  1  0
  6  7  2  3
  6 40  1  0
  7  8  1  0
  7 41  1  0
  8 28  1  0
  8 33  1  0
  8  9  1  6
  9 10  1  0
  9 42  1  0
  9 43  1  0
 10 11  1  0
 10 44  1  0
 10 45  1  0
 11 12  1  0
 11 46  1  6
 12 33  1  0
 12 13  1  6
 12 14  1  0
 13 47  1  0
 13 48  1  0
 13 49  1  0
 14 15  1  0
 14 50  1  0
 14 51  1  0
 15 16  1  0
 15 52  1  0
 15 53  1  0
 16 22  1  0
 16 17  1  1
 16 18  1  0
 17 54  1  0
 17 55  1  0
 17 56  1  0
 18 19  1  0
 18 25  1  0
 18 57  1  1
 19 20  1  0
 19 58  1  0
 19 59  1  0
 20 21  1  0
 20 22  1  0
 20 60  1  6
 21 61  1  0
 22 23  1  0
 22 24  1  0
 23 62  1  0
 23 63  1  0
 23 64  1  0
 24 65  1  0
 24 66  1  0
 24 67  1  0
 25 30  1  0
 25 26  1  0
 25 68  1  1
 26 27  1  0
 26 69  1  0
 26 70  1  0
 27 28  1  0
 27 71  1  0
 27 72  1  0
 28 29  1  1
 28 30  1  0
 29 73  1  0
 29 74  1  0
 29 75  1  0
 30 31  1  0
 30 76  1  1
 31 32  1  0
 31 77  1  0
 31 78  1  0
 32 33  1  0
 32 79  1  0
 32 80  1  0
 33 81  1  1
M  END
>  <i_m_ct_stereo_status>  (50) 
1

>  <s_m_source_file>  (50) 
/var/tmp/pbs.5076255.sched01/tmppe38rura/0ules8z9c.sdf

>  <i_m_source_file_index>  (50) 
27

>  <i_lp_mmshare_version>  (50) 
48012

>  <i_f3d_flags>  (50) 
0

>  <s_epik_input>  (50) 
W0NIXVwxPVtDSF1cQyg9TylDKFtDSDNdKShbQ0gzXSlbQ0BASF0oW0NIMl1bQ0gyXTIpW0NAQF0oW0NIM10pKFtDQEhdM1tDSDJdW0NIMl00KVtDSDJdW0NIMl1bQ0BAXShbQ0gzXSkoQyhbQ0gzXSkoW0NIM10pW0NAQEhdKFtDSDJdNSlbT0hdKVtDQEBIXTVbQ0BIXShbQ0gyXVtDSDJdNilbQ0BASF00W0NAXTYoW0NAQF0xMjMpW0NIM10=

>  <s_epik_cmdline>  (50) 
J2VwaWtfcHl0aG9uJywgJy1waHQnLCAnMi4wJywgJy1waCcsICc3LjAnLCAnLXRuJywgJzgnLCAnLW1hJywgJzIwMCcsICctaW1hZScsICc8aW5maWxlLm1hZT4nLCAnLW9tYWUnLCAnPG91dGZpbGUubWFlPic=

>  <r_lp_tautomer_probability>  (50) 
1

>  <r_epik_Ionization_Penalty>  (50) 
3.22403e-06

>  <r_epik_Ionization_Penalty_Charging>  (50) 
0

>  <r_epik_Ionization_Penalty_Neutral>  (50) 
3.22403e-06

>  <r_epik_State_Penalty>  (50) 
-0

>  <r_epik_Charging_Adjusted_Penalty>  (50) 
0

>  <i_epik_Tot_Q>  (50) 
0

>  <i_epik_Tot_abs_Q>  (50) 
0

>  <s_lp_Force_Field>  (50) 
OPLS3e

>  <r_lp_Energy>  (50) 
182.278

>  <b_lp_Chiralities_Consistent>  (50) 
1

>  <s_lp_Variant>  (50) 
19:0-1

>  <s_i_glide_gridfile>  (50) 
pfpi4k_grid

>  <i_i_glide_lignum>  (50) 
27

>  <i_i_glide_rotatable_bonds>  (50) 
1

>  <r_i_docking_score>  (50) 
-2.68623

>  <r_i_glide_ligand_efficiency>  (50) 
-0.0814008

>  <r_i_glide_ligand_efficiency_sa>  (50) 
-0.261096

>  <r_i_glide_ligand_efficiency_ln>  (50) 
-0.597403

>  <r_i_glide_gscore>  (50) 
-2.68623

>  <r_i_glide_lipo>  (50) 
-0.427243

>  <r_i_glide_hbond>  (50) 
-0.16

>  <r_i_glide_metal>  (50) 
-0

>  <r_i_glide_rewards>  (50) 
-0.332092

>  <r_i_glide_evdw>  (50) 
-21.2149

>  <r_i_glide_ecoul>  (50) 
-4.70763

>  <r_i_glide_erotb>  (50) 
0

>  <r_i_glide_esite>  (50) 
0

>  <r_i_glide_emodel>  (50) 
-28.3193

>  <r_i_glide_energy>  (50) 
-25.9225

>  <r_i_glide_einternal>  (50) 
1.33603

>  <r_i_glide_intrahb_reward>  (50) 
-0

>  <i_i_glide_confnum>  (50) 
1

>  <i_i_glide_posenum>  (50) 
6

>  <r_i_glide_eff_state_penalty>  (50) 
0

>  <ligand_id>  (50) 
19

>  <original_smiles>  (50) 
CC1(C)C(=O)C=CC23CCC1C1(C)CCC4(C)C(CC(O)C4(C)C)C4CCC2(C)C4CCC13

>  <smiles>  (50) 
[H]OC1([H])C([H])([H])C2([H])C3([H])C([H])([H])C([H])([H])C4(C([H])([H])[H])C3([H])C([H])([H])C([H])([H])C3([H])C45C([H])=C([H])C(=O)C(C([H])([H])[H])(C([H])([H])[H])C([H])(C([H])([H])C5([H])[H])C3(C([H])([H])[H])C([H])([H])C([H])([H])C2(C([H])([H])[H])C1(C([H])([H])[H])C([H])([H])[H]

$$$$
19:0:1
     RDKit          3D

 81 86  0  0  1  0  0  0  0  0999 V2000
    3.7396   -4.1853    0.2310 C   0  0  0  0  0  0  0  0  0  0  0  0
    5.2038   -4.4615    0.6509 C   0  0  0  0  0  0  0  0  0  0  0  0
    6.0259   -3.8365   -0.5211 C   0  0  0  0  0  0  0  0  0  0  0  0
    5.5161   -3.6636    1.9307 C   0  0  0  0  0  0  0  0  0  0  0  0
    6.1942   -2.6367    1.8620 O   0  0  0  0  0  0  0  0  0  0  0  0
    4.9156   -4.0947    3.1922 C   0  0  0  0  0  0  0  0  0  0  0  0
    5.0947   -5.2665    3.8289 C   0  0  0  0  0  0  0  0  0  0  0  0
    6.0431   -6.4819    3.6533 C   0  0  1  0  0  0  0  0  0  0  0  0
    7.2748   -6.1019    2.7649 C   0  0  0  0  0  0  0  0  0  0  0  0
    7.0417   -6.2109    1.2416 C   0  0  0  0  0  0  0  0  0  0  0  0
    5.5683   -5.9977    0.7923 C   0  0  1  0  0  0  0  0  0  0  0  0
    4.6650   -7.1175    1.5043 C   0  0  2  0  0  0  0  0  0  0  0  0
    4.6108   -8.2800    0.4793 C   0  0  0  0  0  0  0  0  0  0  0  0
    3.1665   -6.7891    1.8411 C   0  0  0  0  0  0  0  0  0  0  0  0
    2.2921   -7.9035    2.5427 C   0  0  0  0  0  0  0  0  0  0  0  0
    1.9339   -7.9621    4.1087 C   0  0  2  0  0  0  0  0  0  0  0  0
    1.5479   -6.5439    4.5907 C   0  0  0  0  0  0  0  0  0  0  0  0
    2.9415   -8.7294    5.1141 C   0  0  1  0  0  0  0  0  0  0  0  0
    2.7629  -10.2182    4.7939 C   0  0  0  0  0  0  0  0  0  0  0  0
    1.3553  -10.3496    4.2000 C   0  0  1  0  0  0  0  0  0  0  0  0
    0.6241  -11.3881    4.8068 O   0  0  0  0  0  0  0  0  0  0  0  0
    0.6795   -8.9495    4.2651 C   0  0  0  0  0  0  0  0  0  0  0  0
   -0.1160   -8.7575    5.6024 C   0  0  0  0  0  0  0  0  0  0  0  0
   -0.4220   -8.8683    3.1723 C   0  0  0  0  0  0  0  0  0  0  0  0
    4.3108   -8.3185    5.8393 C   0  0  2  0  0  0  0  0  0  0  0  0
    4.3460   -6.9697    6.5822 C   0  0  0  0  0  0  0  0  0  0  0  0
    5.7569   -6.3771    6.3536 C   0  0  0  0  0  0  0  0  0  0  0  0
    6.4039   -7.0748    5.1142 C   0  0  2  0  0  0  0  0  0  0  0  0
    7.9314   -7.1251    5.3960 C   0  0  0  0  0  0  0  0  0  0  0  0
    5.7911   -8.4866    5.3360 C   0  0  2  0  0  0  0  0  0  0  0  0
    6.1500   -9.5190    4.2624 C   0  0  0  0  0  0  0  0  0  0  0  0
    5.9921   -8.9733    2.8497 C   0  0  0  0  0  0  0  0  0  0  0  0
    5.2954   -7.5809    2.8426 C   0  0  1  0  0  0  0  0  0  0  0  0
    3.4210   -4.8771   -0.5494 H   0  0  0  0  0  0  0  0  0  0  0  0
    3.6233   -3.1800   -0.1703 H   0  0  0  0  0  0  0  0  0  0  0  0
    3.0334   -4.2387    1.0543 H   0  0  0  0  0  0  0  0  0  0  0  0
    5.8037   -4.3250   -1.4684 H   0  0  0  0  0  0  0  0  0  0  0  0
    7.1036   -3.8683   -0.3682 H   0  0  0  0  0  0  0  0  0  0  0  0
    5.7867   -2.7793   -0.6674 H   0  0  0  0  0  0  0  0  0  0  0  0
    4.1600   -3.4298    3.5915 H   0  0  0  0  0  0  0  0  0  0  0  0
    4.4138   -5.3462    4.6409 H   0  0  0  0  0  0  0  0  0  0  0  0
    7.6130   -5.0992    3.0047 H   0  0  0  0  0  0  0  0  0  0  0  0
    8.1404   -6.7397    2.9467 H   0  0  0  0  0  0  0  0  0  0  0  0
    7.7502   -5.5605    0.7301 H   0  0  0  0  0  0  0  0  0  0  0  0
    7.3430   -7.2104    0.9271 H   0  0  0  0  0  0  0  0  0  0  0  0
    5.5913   -6.2589   -0.2625 H   0  0  0  0  0  0  0  0  0  0  0  0
    3.9865   -9.1243    0.7446 H   0  0  0  0  0  0  0  0  0  0  0  0
    5.5971   -8.7060    0.3036 H   0  0  0  0  0  0  0  0  0  0  0  0
    4.2558   -7.9180   -0.4799 H   0  0  0  0  0  0  0  0  0  0  0  0
    3.0679   -5.8776    2.4133 H   0  0  0  0  0  0  0  0  0  0  0  0
    2.6788   -6.5741    0.8924 H   0  0  0  0  0  0  0  0  0  0  0  0
    1.3658   -7.7257    2.0134 H   0  0  0  0  0  0  0  0  0  0  0  0
    2.5902   -8.8975    2.2214 H   0  0  0  0  0  0  0  0  0  0  0  0
    1.3196   -6.5182    5.6538 H   0  0  0  0  0  0  0  0  0  0  0  0
    0.6758   -6.1691    4.0541 H   0  0  0  0  0  0  0  0  0  0  0  0
    2.3422   -5.8230    4.4343 H   0  0  0  0  0  0  0  0  0  0  0  0
    2.3807   -8.6337    6.0346 H   0  0  0  0  0  0  0  0  0  0  0  0
    3.4736  -10.5444    4.0393 H   0  0  0  0  0  0  0  0  0  0  0  0
    2.9031  -10.8434    5.6732 H   0  0  0  0  0  0  0  0  0  0  0  0
    1.4725  -10.6532    3.1573 H   0  0  0  0  0  0  0  0  0  0  0  0
   -0.1290  -11.0284    5.2567 H   0  0  0  0  0  0  0  0  0  0  0  0
   -0.9543   -9.4414    5.6675 H   0  0  0  0  0  0  0  0  0  0  0  0
   -0.5582   -7.7661    5.6689 H   0  0  0  0  0  0  0  0  0  0  0  0
    0.4457   -8.9376    6.5141 H   0  0  0  0  0  0  0  0  0  0  0  0
   -1.2843   -9.4775    3.4369 H   0  0  0  0  0  0  0  0  0  0  0  0
   -0.0941   -9.2569    2.2071 H   0  0  0  0  0  0  0  0  0  0  0  0
   -0.7818   -7.8517    3.0347 H   0  0  0  0  0  0  0  0  0  0  0  0
    4.3032   -9.0444    6.6557 H   0  0  0  0  0  0  0  0  0  0  0  0
    3.5580   -6.3020    6.2582 H   0  0  0  0  0  0  0  0  0  0  0  0
    4.1730   -7.1129    7.6518 H   0  0  0  0  0  0  0  0  0  0  0  0
    5.7669   -5.2883    6.3212 H   0  0  0  0  0  0  0  0  0  0  0  0
    6.3280   -6.6164    7.2509 H   0  0  0  0  0  0  0  0  0  0  0  0
    8.1570   -7.4650    6.4050 H   0  0  0  0  0  0  0  0  0  0  0  0
    8.3841   -6.1377    5.2890 H   0  0  0  0  0  0  0  0  0  0  0  0
    8.4544   -7.8199    4.7390 H   0  0  0  0  0  0  0  0  0  0  0  0
    6.2921   -8.8865    6.2158 H   0  0  0  0  0  0  0  0  0  0  0  0
    7.1885   -9.8326    4.3906 H   0  0  0  0  0  0  0  0  0  0  0  0
    5.5695  -10.4260    4.4009 H   0  0  0  0  0  0  0  0  0  0  0  0
    6.9730   -8.9262    2.3739 H   0  0  0  0  0  0  0  0  0  0  0  0
    5.4225   -9.7331    2.3125 H   0  0  0  0  0  0  0  0  0  0  0  0
    4.4528   -7.7702    3.4575 H   0  0  0  0  0  0  0  0  0  0  0  0
  1  2  1  0
  1 34  1  0
  1 35  1  0
  1 36  1  0
  2 11  1  0
  2  3  1  0
  2  4  1  0
  3 37  1  0
  3 38  1  0
  3 39  1  0
  4  5  2  0
  4  6  1  0
  6  7  2  3
  6 40  1  0
  7  8  1  0
  7 41  1  0
  8 28  1  0
  8 33  1  0
  8  9  1  6
  9 10  1  0
  9 42  1  0
  9 43  1  0
 10 11  1  0
 10 44  1  0
 10 45  1  0
 11 12  1  0
 11 46  1  6
 12 33  1  0
 12 13  1  6
 12 14  1  0
 13 47  1  0
 13 48  1  0
 13 49  1  0
 14 15  1  0
 14 50  1  0
 14 51  1  0
 15 16  1  0
 15 52  1  0
 15 53  1  0
 16 22  1  0
 16 17  1  1
 16 18  1  0
 17 54  1  0
 17 55  1  0
 17 56  1  0
 18 19  1  0
 18 25  1  0
 18 57  1  1
 19 20  1  0
 19 58  1  0
 19 59  1  0
 20 21  1  0
 20 22  1  0
 20 60  1  6
 21 61  1  0
 22 23  1  0
 22 24  1  0
 23 62  1  0
 23 63  1  0
 23 64  1  0
 24 65  1  0
 24 66  1  0
 24 67  1  0
 25 30  1  0
 25 26  1  0
 25 68  1  1
 26 27  1  0
 26 69  1  0
 26 70  1  0
 27 28  1  0
 27 71  1  0
 27 72  1  0
 28 29  1  1
 28 30  1  0
 29 73  1  0
 29 74  1  0
 29 75  1  0
 30 31  1  0
 30 76  1  1
 31 32  1  0
 31 77  1  0
 31 78  1  0
 32 33  1  0
 32 79  1  0
 32 80  1  0
 33 81  1  1
M  END
>  <i_m_ct_stereo_status>  (51) 
1

>  <s_m_source_file>  (51) 
/var/tmp/pbs.5076255.sched01/tmppe38rura/0ules8z9c.sdf

>  <i_m_source_file_index>  (51) 
27

>  <i_lp_mmshare_version>  (51) 
48012

>  <i_f3d_flags>  (51) 
0

>  <s_epik_input>  (51) 
W0NIXVwxPVtDSF1cQyg9TylDKFtDSDNdKShbQ0gzXSlbQ0BASF0oW0NIMl1bQ0gyXTIpW0NAQF0oW0NIM10pKFtDQEhdM1tDSDJdW0NIMl00KVtDSDJdW0NIMl1bQ0BAXShbQ0gzXSkoQyhbQ0gzXSkoW0NIM10pW0NAQEhdKFtDSDJdNSlbT0hdKVtDQEBIXTVbQ0BIXShbQ0gyXVtDSDJdNilbQ0BASF00W0NAXTYoW0NAQF0xMjMpW0NIM10=

>  <s_epik_cmdline>  (51) 
J2VwaWtfcHl0aG9uJywgJy1waHQnLCAnMi4wJywgJy1waCcsICc3LjAnLCAnLXRuJywgJzgnLCAnLW1hJywgJzIwMCcsICctaW1hZScsICc8aW5maWxlLm1hZT4nLCAnLW9tYWUnLCAnPG91dGZpbGUubWFlPic=

>  <r_lp_tautomer_probability>  (51) 
1

>  <r_epik_Ionization_Penalty>  (51) 
3.22403e-06

>  <r_epik_Ionization_Penalty_Charging>  (51) 
0

>  <r_epik_Ionization_Penalty_Neutral>  (51) 
3.22403e-06

>  <r_epik_State_Penalty>  (51) 
-0

>  <r_epik_Charging_Adjusted_Penalty>  (51) 
0

>  <i_epik_Tot_Q>  (51) 
0

>  <i_epik_Tot_abs_Q>  (51) 
0

>  <s_lp_Force_Field>  (51) 
OPLS3e

>  <r_lp_Energy>  (51) 
182.278

>  <b_lp_Chiralities_Consistent>  (51) 
1

>  <s_lp_Variant>  (51) 
19:0-1

>  <s_i_glide_gridfile>  (51) 
pfpi4k_grid

>  <i_i_glide_lignum>  (51) 
27

>  <i_i_glide_rotatable_bonds>  (51) 
1

>  <r_i_docking_score>  (51) 
-2.48304

>  <r_i_glide_ligand_efficiency>  (51) 
-0.0752437

>  <r_i_glide_ligand_efficiency_sa>  (51) 
-0.241347

>  <r_i_glide_ligand_efficiency_ln>  (51) 
-0.552216

>  <r_i_glide_gscore>  (51) 
-2.48304

>  <r_i_glide_lipo>  (51) 
-0.426882

>  <r_i_glide_hbond>  (51) 
-0.120107

>  <r_i_glide_metal>  (51) 
-0

>  <r_i_glide_rewards>  (51) 
-0.378383

>  <r_i_glide_evdw>  (51) 
-25.678

>  <r_i_glide_ecoul>  (51) 
-1.82516

>  <r_i_glide_erotb>  (51) 
0

>  <r_i_glide_esite>  (51) 
0

>  <r_i_glide_emodel>  (51) 
-29.941

>  <r_i_glide_energy>  (51) 
-27.5031

>  <r_i_glide_einternal>  (51) 
1.35303

>  <r_i_glide_intrahb_reward>  (51) 
-0

>  <i_i_glide_confnum>  (51) 
2

>  <i_i_glide_posenum>  (51) 
40

>  <r_i_glide_eff_state_penalty>  (51) 
0

>  <ligand_id>  (51) 
19

>  <original_smiles>  (51) 
CC1(C)C(=O)C=CC23CCC1C1(C)CCC4(C)C(CC(O)C4(C)C)C4CCC2(C)C4CCC13

>  <smiles>  (51) 
[H]OC1([H])C([H])([H])C2([H])C3([H])C([H])([H])C([H])([H])C4(C([H])([H])[H])C3([H])C([H])([H])C([H])([H])C3([H])C45C([H])=C([H])C(=O)C(C([H])([H])[H])(C([H])([H])[H])C([H])(C([H])([H])C5([H])[H])C3(C([H])([H])[H])C([H])([H])C([H])([H])C2(C([H])([H])[H])C1(C([H])([H])[H])C([H])([H])[H]

$$$$
19:0:2
     RDKit          3D

 81 86  0  0  1  0  0  0  0  0999 V2000
   -0.0233   -7.4681    1.8065 C   0  0  0  0  0  0  0  0  0  0  0  0
    0.6871   -7.9810    3.0841 C   0  0  0  0  0  0  0  0  0  0  0  0
   -0.4623   -8.6789    3.8789 C   0  0  0  0  0  0  0  0  0  0  0  0
    1.7334   -9.0532    2.6870 C   0  0  0  0  0  0  0  0  0  0  0  0
    1.5202  -10.2450    2.9070 O   0  0  0  0  0  0  0  0  0  0  0  0
    2.9376   -8.6317    1.9815 C   0  0  0  0  0  0  0  0  0  0  0  0
    3.9021   -7.8074    2.4395 C   0  0  0  0  0  0  0  0  0  0  0  0
    4.2324   -7.1509    3.8047 C   0  0  1  0  0  0  0  0  0  0  0  0
    3.4963   -7.8996    4.9660 C   0  0  0  0  0  0  0  0  0  0  0  0
    2.0479   -7.4137    5.2309 C   0  0  0  0  0  0  0  0  0  0  0  0
    1.3083   -6.8372    3.9880 C   0  0  1  0  0  0  0  0  0  0  0  0
    2.1450   -5.5729    3.4531 C   0  0  2  0  0  0  0  0  0  0  0  0
    1.4523   -4.3522    4.1491 C   0  0  0  0  0  0  0  0  0  0  0  0
    2.1529   -5.2505    1.9187 C   0  0  0  0  0  0  0  0  0  0  0  0
    2.9811   -3.9997    1.4125 C   0  0  0  0  0  0  0  0  0  0  0  0
    4.4160   -4.0654    0.6974 C   0  0  2  0  0  0  0  0  0  0  0  0
    4.4315   -5.2059   -0.3159 C   0  0  0  0  0  0  0  0  0  0  0  0
    5.7354   -4.0425    1.5976 C   0  0  1  0  0  0  0  0  0  0  0  0
    5.8081   -2.6037    2.1061 C   0  0  0  0  0  0  0  0  0  0  0  0
    5.0624   -1.7359    1.0938 C   0  0  1  0  0  0  0  0  0  0  0  0
    5.8459   -0.6396    0.6747 O   0  0  0  0  0  0  0  0  0  0  0  0
    4.6416   -2.6668   -0.0655 C   0  0  0  0  0  0  0  0  0  0  0  0
    5.7186   -2.7007   -1.2052 C   0  0  0  0  0  0  0  0  0  0  0  0
    3.4122   -2.0356   -0.7595 C   0  0  0  0  0  0  0  0  0  0  0  0
    6.5314   -5.1668    2.4243 C   0  0  2  0  0  0  0  0  0  0  0  0
    6.8637   -6.4910    1.7124 C   0  0  0  0  0  0  0  0  0  0  0  0
    6.7122   -7.6087    2.7700 C   0  0  0  0  0  0  0  0  0  0  0  0
    5.8478   -7.0682    3.9576 C   0  0  2  0  0  0  0  0  0  0  0  0
    6.3790   -7.7742    5.2360 C   0  0  0  0  0  0  0  0  0  0  0  0
    6.3567   -5.5979    3.9270 C   0  0  2  0  0  0  0  0  0  0  0  0
    5.6881   -4.6686    4.9501 C   0  0  0  0  0  0  0  0  0  0  0  0
    4.1694   -4.8190    4.9883 C   0  0  0  0  0  0  0  0  0  0  0  0
    3.6558   -5.7035    3.8238 C   0  0  1  0  0  0  0  0  0  0  0  0
   -0.6210   -6.5854    2.0164 H   0  0  0  0  0  0  0  0  0  0  0  0
   -0.7082   -8.2208    1.4095 H   0  0  0  0  0  0  0  0  0  0  0  0
    0.6521   -7.2546    0.9824 H   0  0  0  0  0  0  0  0  0  0  0  0
   -1.2460   -7.9784    4.1683 H   0  0  0  0  0  0  0  0  0  0  0  0
   -0.1236   -9.1848    4.7847 H   0  0  0  0  0  0  0  0  0  0  0  0
   -0.9491   -9.4590    3.2884 H   0  0  0  0  0  0  0  0  0  0  0  0
    2.9994   -8.9517    0.9515 H   0  0  0  0  0  0  0  0  0  0  0  0
    4.5774   -7.5774    1.6517 H   0  0  0  0  0  0  0  0  0  0  0  0
    3.5187   -8.9778    4.7900 H   0  0  0  0  0  0  0  0  0  0  0  0
    3.9893   -7.7664    5.9256 H   0  0  0  0  0  0  0  0  0  0  0  0
    1.4919   -8.2044    5.7313 H   0  0  0  0  0  0  0  0  0  0  0  0
    2.0903   -6.6210    5.9795 H   0  0  0  0  0  0  0  0  0  0  0  0
    0.3996   -6.4188    4.4196 H   0  0  0  0  0  0  0  0  0  0  0  0
    1.9164   -3.3912    3.9422 H   0  0  0  0  0  0  0  0  0  0  0  0
    1.4406   -4.4690    5.2359 H   0  0  0  0  0  0  0  0  0  0  0  0
    0.4123   -4.2563    3.8324 H   0  0  0  0  0  0  0  0  0  0  0  0
    2.4170   -6.1025    1.3114 H   0  0  0  0  0  0  0  0  0  0  0  0
    1.1135   -5.0625    1.6797 H   0  0  0  0  0  0  0  0  0  0  0  0
    2.2804   -3.6376    0.6663 H   0  0  0  0  0  0  0  0  0  0  0  0
    2.9956   -3.2109    2.1608 H   0  0  0  0  0  0  0  0  0  0  0  0
    5.3918   -5.3237   -0.8244 H   0  0  0  0  0  0  0  0  0  0  0  0
    3.6895   -4.9832   -1.0821 H   0  0  0  0  0  0  0  0  0  0  0  0
    4.1821   -6.1718    0.1074 H   0  0  0  0  0  0  0  0  0  0  0  0
    6.4913   -4.0351    0.8184 H   0  0  0  0  0  0  0  0  0  0  0  0
    5.3316   -2.5025    3.0815 H   0  0  0  0  0  0  0  0  0  0  0  0
    6.8381   -2.2775    2.1525 H   0  0  0  0  0  0  0  0  0  0  0  0
    4.1860   -1.3230    1.5981 H   0  0  0  0  0  0  0  0  0  0  0  0
    5.2863   -0.0256    0.2183 H   0  0  0  0  0  0  0  0  0  0  0  0
    5.8236   -1.7258   -1.6764 H   0  0  0  0  0  0  0  0  0  0  0  0
    5.4334   -3.3765   -2.0089 H   0  0  0  0  0  0  0  0  0  0  0  0
    6.7232   -2.9662   -0.8924 H   0  0  0  0  0  0  0  0  0  0  0  0
    3.6841   -1.1500   -1.3353 H   0  0  0  0  0  0  0  0  0  0  0  0
    2.6718   -1.6813   -0.0421 H   0  0  0  0  0  0  0  0  0  0  0  0
    2.9275   -2.7291   -1.4469 H   0  0  0  0  0  0  0  0  0  0  0  0
    7.5125   -4.6928    2.4714 H   0  0  0  0  0  0  0  0  0  0  0  0
    6.2420   -6.6602    0.8428 H   0  0  0  0  0  0  0  0  0  0  0  0
    7.8869   -6.4808    1.3282 H   0  0  0  0  0  0  0  0  0  0  0  0
    6.3746   -8.5554    2.3521 H   0  0  0  0  0  0  0  0  0  0  0  0
    7.7231   -7.8254    3.1177 H   0  0  0  0  0  0  0  0  0  0  0  0
    7.4685   -7.7649    5.2923 H   0  0  0  0  0  0  0  0  0  0  0  0
    6.0743   -8.8205    5.2653 H   0  0  0  0  0  0  0  0  0  0  0  0
    6.0427   -7.2878    6.1506 H   0  0  0  0  0  0  0  0  0  0  0  0
    7.3859   -5.6434    4.2902 H   0  0  0  0  0  0  0  0  0  0  0  0
    6.0737   -4.8952    5.9459 H   0  0  0  0  0  0  0  0  0  0  0  0
    5.9819   -3.6348    4.7807 H   0  0  0  0  0  0  0  0  0  0  0  0
    3.8644   -5.2122    5.9573 H   0  0  0  0  0  0  0  0  0  0  0  0
    3.7843   -3.8001    4.9350 H   0  0  0  0  0  0  0  0  0  0  0  0
    4.1548   -5.2616    2.9982 H   0  0  0  0  0  0  0  0  0  0  0  0
  1  2  1  0
  1 34  1  0
  1 35  1  0
  1 36  1  0
  2 11  1  0
  2  3  1  0
  2  4  1  0
  3 37  1  0
  3 38  1  0
  3 39  1  0
  4  5  2  0
  4  6  1  0
  6  7  2  3
  6 40  1  0
  7  8  1  0
  7 41  1  0
  8 28  1  0
  8 33  1  0
  8  9  1  1
  9 10  1  0
  9 42  1  0
  9 43  1  0
 10 11  1  0
 10 44  1  0
 10 45  1  0
 11 12  1  0
 11 46  1  1
 12 33  1  0
 12 13  1  1
 12 14  1  0
 13 47  1  0
 13 48  1  0
 13 49  1  0
 14 15  1  0
 14 50  1  0
 14 51  1  0
 15 16  1  0
 15 52  1  0
 15 53  1  0
 16 22  1  0
 16 17  1  6
 16 18  1  0
 17 54  1  0
 17 55  1  0
 17 56  1  0
 18 19  1  0
 18 25  1  0
 18 57  1  6
 19 20  1  0
 19 58  1  0
 19 59  1  0
 20 21  1  0
 20 22  1  0
 20 60  1  1
 21 61  1  0
 22 23  1  0
 22 24  1  0
 23 62  1  0
 23 63  1  0
 23 64  1  0
 24 65  1  0
 24 66  1  0
 24 67  1  0
 25 30  1  0
 25 26  1  0
 25 68  1  1
 26 27  1  0
 26 69  1  0
 26 70  1  0
 27 28  1  0
 27 71  1  0
 27 72  1  0
 28 29  1  1
 28 30  1  0
 29 73  1  0
 29 74  1  0
 29 75  1  0
 30 31  1  0
 30 76  1  1
 31 32  1  0
 31 77  1  0
 31 78  1  0
 32 33  1  0
 32 79  1  0
 32 80  1  0
 33 81  1  6
M  END
>  <i_m_ct_stereo_status>  (52) 
1

>  <s_m_source_file>  (52) 
/var/tmp/pbs.5076255.sched01/tmppe38rura/0ules8z9c.sdf

>  <i_m_source_file_index>  (52) 
27

>  <i_lp_mmshare_version>  (52) 
48012

>  <i_f3d_flags>  (52) 
0

>  <s_epik_input>  (52) 
W0NIXVwxPVtDSF1cQyg9TylDKFtDSDNdKShbQ0gzXSlbQ0BASF0oW0NIMl1bQ0gyXTIpW0NAQF0oW0NIM10pKFtDQEhdM1tDSDJdW0NIMl00KVtDSDJdW0NIMl1bQ0BAXShbQ0gzXSkoQyhbQ0gzXSkoW0NIM10pW0NAQEhdKFtDSDJdNSlbT0hdKVtDQEBIXTVbQ0BIXShbQ0gyXVtDSDJdNilbQ0BASF00W0NAXTYoW0NAQF0xMjMpW0NIM10=

>  <s_epik_cmdline>  (52) 
J2VwaWtfcHl0aG9uJywgJy1waHQnLCAnMi4wJywgJy1waCcsICc3LjAnLCAnLXRuJywgJzgnLCAnLW1hJywgJzIwMCcsICctaW1hZScsICc8aW5maWxlLm1hZT4nLCAnLW9tYWUnLCAnPG91dGZpbGUubWFlPic=

>  <r_lp_tautomer_probability>  (52) 
1

>  <r_epik_Ionization_Penalty>  (52) 
3.22403e-06

>  <r_epik_Ionization_Penalty_Charging>  (52) 
0

>  <r_epik_Ionization_Penalty_Neutral>  (52) 
3.22403e-06

>  <r_epik_State_Penalty>  (52) 
-0

>  <r_epik_Charging_Adjusted_Penalty>  (52) 
0

>  <i_epik_Tot_Q>  (52) 
0

>  <i_epik_Tot_abs_Q>  (52) 
0

>  <s_lp_Force_Field>  (52) 
OPLS3e

>  <r_lp_Energy>  (52) 
182.278

>  <b_lp_Chiralities_Consistent>  (52) 
1

>  <s_lp_Variant>  (52) 
19:0-1

>  <s_i_glide_gridfile>  (52) 
pfpi4k_grid

>  <i_i_glide_lignum>  (52) 
27

>  <i_i_glide_rotatable_bonds>  (52) 
1

>  <r_i_docking_score>  (52) 
-2.00564

>  <r_i_glide_ligand_efficiency>  (52) 
-0.060777

>  <r_i_glide_ligand_efficiency_sa>  (52) 
-0.194944

>  <r_i_glide_ligand_efficiency_ln>  (52) 
-0.446044

>  <r_i_glide_gscore>  (52) 
-2.00564

>  <r_i_glide_lipo>  (52) 
-0.308041

>  <r_i_glide_hbond>  (52) 
-0.00711787

>  <r_i_glide_metal>  (52) 
-0

>  <r_i_glide_rewards>  (52) 
-0.341157

>  <r_i_glide_evdw>  (52) 
-26.542

>  <r_i_glide_ecoul>  (52) 
-0.148145

>  <r_i_glide_erotb>  (52) 
0

>  <r_i_glide_esite>  (52) 
0

>  <r_i_glide_emodel>  (52) 
-29.1694

>  <r_i_glide_energy>  (52) 
-26.6902

>  <r_i_glide_einternal>  (52) 
0.350607

>  <r_i_glide_intrahb_reward>  (52) 
-0

>  <i_i_glide_confnum>  (52) 
2

>  <i_i_glide_posenum>  (52) 
26

>  <r_i_glide_eff_state_penalty>  (52) 
0

>  <ligand_id>  (52) 
19

>  <original_smiles>  (52) 
CC1(C)C(=O)C=CC23CCC1C1(C)CCC4(C)C(CC(O)C4(C)C)C4CCC2(C)C4CCC13

>  <smiles>  (52) 
[H]OC1([H])C([H])([H])C2([H])C3([H])C([H])([H])C([H])([H])C4(C([H])([H])[H])C3([H])C([H])([H])C([H])([H])C3([H])C45C([H])=C([H])C(=O)C(C([H])([H])[H])(C([H])([H])[H])C([H])(C([H])([H])C5([H])[H])C3(C([H])([H])[H])C([H])([H])C([H])([H])C2(C([H])([H])[H])C1(C([H])([H])[H])C([H])([H])[H]

$$$$
20:0:0
     RDKit          3D

 66 70  0  0  1  0  0  0  0  0999 V2000
   -1.8319   -9.1615    2.3211 C   0  0  0  0  0  0  0  0  0  0  0  0
   -1.3558   -7.8533    2.9335 C   0  0  0  0  0  0  0  0  0  0  0  0
   -1.7746   -7.4545    4.0173 O   0  0  0  0  0  0  0  0  0  0  0  0
   -0.4306   -7.2309    2.1755 O   0  0  0  0  0  0  0  0  0  0  0  0
    0.4666   -6.2939    2.7733 C   0  0  0  0  0  0  0  0  0  0  0  0
    1.9152   -6.8452    3.0101 C   0  0  1  0  0  0  0  0  0  0  0  0
    1.9617   -8.3777    2.7113 C   0  0  0  0  0  0  0  0  0  0  0  0
    2.9464   -6.1675    2.0879 C   0  0  0  0  0  0  0  0  0  0  0  0
    2.8339   -6.3759    0.8827 O   0  0  0  0  0  0  0  0  0  0  0  0
    4.1483   -5.5007    2.7001 C   0  0  0  0  0  0  0  0  0  0  0  0
    4.7119   -6.1531    3.7509 C   0  0  0  0  0  0  0  0  0  0  0  0
    6.0823   -5.8547    4.3677 C   0  0  0  0  0  0  0  0  0  0  0  0
    3.8447   -7.0338    4.6246 C   0  0  0  0  0  0  0  0  0  0  0  0
    2.3664   -6.5844    4.4732 C   0  0  1  0  0  0  0  0  0  0  0  0
    2.1240   -5.1234    5.0332 C   0  0  0  0  0  0  0  0  0  0  0  0
    2.2690   -3.8232    4.1546 C   0  0  0  0  0  0  0  0  0  0  0  0
    3.6719   -3.2336    3.7707 C   0  0  2  0  0  0  0  0  0  0  0  0
    4.5620   -3.0895    5.0250 C   0  0  0  0  0  0  0  0  0  0  0  0
    3.5091   -1.8310    3.1659 C   0  0  0  0  0  0  0  0  0  0  0  0
    2.8801   -0.9189    3.7231 O   0  0  0  0  0  0  0  0  0  0  0  0
    4.2302   -1.6726    1.8355 C   0  0  2  0  0  0  0  0  0  0  0  0
    5.6822   -1.2217    2.1272 C   0  0  0  0  0  0  0  0  0  0  0  0
    3.5654   -0.6303    0.8752 C   0  0  0  0  0  0  0  0  0  0  0  0
    3.6198   -1.0940   -0.6056 C   0  0  0  0  0  0  0  0  0  0  0  0
    3.5850   -2.6016   -0.6715 C   0  0  2  0  0  0  0  0  0  0  0  0
    2.7871   -3.2934    0.4417 C   0  0  0  0  0  0  0  0  0  0  0  0
    4.0858   -3.1255    1.2822 C   0  0  1  0  0  0  0  0  0  0  0  0
    4.7938   -3.3610   -0.0733 C   0  0  1  0  0  0  0  0  0  0  0  0
    5.1648   -4.7332   -0.5647 C   0  0  0  0  0  0  0  0  0  0  0  0
    4.3771   -3.9770    2.5671 C   0  0  2  0  0  0  0  0  0  0  0  0
   -0.9948   -9.8546    2.2275 H   0  0  0  0  0  0  0  0  0  0  0  0
   -2.2595   -9.0148    1.3343 H   0  0  0  0  0  0  0  0  0  0  0  0
   -2.5726   -9.6263    2.9666 H   0  0  0  0  0  0  0  0  0  0  0  0
    0.5309   -5.4423    2.0922 H   0  0  0  0  0  0  0  0  0  0  0  0
    0.0407   -5.9022    3.6930 H   0  0  0  0  0  0  0  0  0  0  0  0
    1.4390   -8.9489    3.4782 H   0  0  0  0  0  0  0  0  0  0  0  0
    2.9751   -8.7724    2.6418 H   0  0  0  0  0  0  0  0  0  0  0  0
    1.5114   -8.6321    1.7501 H   0  0  0  0  0  0  0  0  0  0  0  0
    6.0192   -5.5934    5.4236 H   0  0  0  0  0  0  0  0  0  0  0  0
    6.6450   -5.0753    3.8592 H   0  0  0  0  0  0  0  0  0  0  0  0
    6.6929   -6.7573    4.3118 H   0  0  0  0  0  0  0  0  0  0  0  0
    4.0269   -8.0834    4.3883 H   0  0  0  0  0  0  0  0  0  0  0  0
    4.1381   -6.9061    5.6707 H   0  0  0  0  0  0  0  0  0  0  0  0
    1.7866   -7.2477    5.1171 H   0  0  0  0  0  0  0  0  0  0  0  0
    1.0864   -5.1085    5.3680 H   0  0  0  0  0  0  0  0  0  0  0  0
    2.6737   -5.0039    5.9663 H   0  0  0  0  0  0  0  0  0  0  0  0
    1.6451   -3.8953    3.2654 H   0  0  0  0  0  0  0  0  0  0  0  0
    1.7765   -3.0458    4.7429 H   0  0  0  0  0  0  0  0  0  0  0  0
    4.5809   -3.9841    5.6332 H   0  0  0  0  0  0  0  0  0  0  0  0
    4.1969   -2.2985    5.6812 H   0  0  0  0  0  0  0  0  0  0  0  0
    5.5966   -2.8478    4.7865 H   0  0  0  0  0  0  0  0  0  0  0  0
    6.3079   -1.1617    1.2411 H   0  0  0  0  0  0  0  0  0  0  0  0
    6.1895   -1.8701    2.8349 H   0  0  0  0  0  0  0  0  0  0  0  0
    5.6916   -0.2319    2.5851 H   0  0  0  0  0  0  0  0  0  0  0  0
    2.5282   -0.4676    1.1476 H   0  0  0  0  0  0  0  0  0  0  0  0
    4.0395    0.3530    0.9562 H   0  0  0  0  0  0  0  0  0  0  0  0
    2.7956   -0.6636   -1.1770 H   0  0  0  0  0  0  0  0  0  0  0  0
    4.5107   -0.7057   -1.0960 H   0  0  0  0  0  0  0  0  0  0  0  0
    3.3208   -3.0021   -1.6658 H   0  0  0  0  0  0  0  0  0  0  0  0
    1.9294   -2.7093    0.7963 H   0  0  0  0  0  0  0  0  0  0  0  0
    2.4788   -4.2708    0.1181 H   0  0  0  0  0  0  0  0  0  0  0  0
    5.6704   -2.7026   -0.1392 H   0  0  0  0  0  0  0  0  0  0  0  0
    4.3035   -5.3451   -0.8362 H   0  0  0  0  0  0  0  0  0  0  0  0
    5.7484   -5.2860    0.1724 H   0  0  0  0  0  0  0  0  0  0  0  0
    5.7623   -4.6499   -1.4648 H   0  0  0  0  0  0  0  0  0  0  0  0
    5.4496   -3.8809    2.6867 H   0  0  0  0  0  0  0  0  0  0  0  0
  1  2  1  0
  1 31  1  0
  1 32  1  0
  1 33  1  0
  2  3  2  0
  2  4  1  0
  4  5  1  0
  6  5  1  1
  5 34  1  0
  5 35  1  0
  6 14  1  0
  6  7  1  0
  6  8  1  0
  7 36  1  0
  7 37  1  0
  7 38  1  0
  8  9  2  0
  8 10  1  0
 10 30  1  0
 10 11  2  0
 11 12  1  0
 11 13  1  0
 12 39  1  0
 12 40  1  0
 12 41  1  0
 13 14  1  0
 13 42  1  0
 13 43  1  0
 14 15  1  0
 14 44  1  1
 15 16  1  0
 15 45  1  0
 15 46  1  0
 16 17  1  0
 16 47  1  0
 16 48  1  0
 17 30  1  0
 17 18  1  1
 17 19  1  0
 18 49  1  0
 18 50  1  0
 18 51  1  0
 19 20  2  0
 19 21  1  0
 21 27  1  0
 21 22  1  1
 21 23  1  0
 22 52  1  0
 22 53  1  0
 22 54  1  0
 23 24  1  0
 23 55  1  0
 23 56  1  0
 24 25  1  0
 24 57  1  0
 24 58  1  0
 25 28  1  0
 25 26  1  0
 25 59  1  6
 27 26  1  6
 26 60  1  0
 26 61  1  0
 27 28  1  0
 27 30  1  0
 28 29  1  0
 28 62  1  1
 29 63  1  0
 29 64  1  0
 29 65  1  0
 30 66  1  1
M  END
>  <i_m_ct_stereo_status>  (53) 
1

>  <s_m_source_file>  (53) 
/var/tmp/pbs.5076255.sched01/tmppe38rura/0ules8z9c.sdf

>  <i_m_source_file_index>  (53) 
29

>  <i_lp_mmshare_version>  (53) 
48012

>  <i_f3d_flags>  (53) 
0

>  <s_epik_input>  (53) 
W0NIM11DKD1PKU9bQ0gyXVtDQEBdKFtDSDNdKShDMT1PKVtDQEhdKFtDSDJdW0NIMl0yKVtDSDJdQyhbQ0gzXSk9QzFbQ0BASF0zW0NAQF0yKFtDSDNdKUMoPU8pW0NAXShbQ0BAXTM0NSkoW0NIM10pW0NIMl1bQ0gyXVtDQEhdKFtDSDJdNClbQ0BASF01W0NIM10=

>  <s_epik_cmdline>  (53) 
J2VwaWtfcHl0aG9uJywgJy1waHQnLCAnMi4wJywgJy1waCcsICc3LjAnLCAnLXRuJywgJzgnLCAnLW1hJywgJzIwMCcsICctaW1hZScsICc8aW5maWxlLm1hZT4nLCAnLW9tYWUnLCAnPG91dGZpbGUubWFlPic=

>  <r_lp_tautomer_probability>  (53) 
1

>  <r_epik_Ionization_Penalty>  (53) 
0

>  <r_epik_Ionization_Penalty_Charging>  (53) 
0

>  <r_epik_Ionization_Penalty_Neutral>  (53) 
0

>  <r_epik_State_Penalty>  (53) 
-0

>  <r_epik_Charging_Adjusted_Penalty>  (53) 
0

>  <i_epik_Tot_Q>  (53) 
0

>  <i_epik_Tot_abs_Q>  (53) 
0

>  <s_epik_Chemistry_Notes>  (53) 
This compound has an ester and may undergo hydrolysis at high or low pH.

>  <s_lp_Force_Field>  (53) 
OPLS3e

>  <r_lp_Energy>  (53) 
107.727

>  <b_lp_Chiralities_Consistent>  (53) 
1

>  <s_lp_Variant>  (53) 
20:0-1

>  <s_i_glide_gridfile>  (53) 
pfpi4k_grid

>  <i_i_glide_lignum>  (53) 
29

>  <i_i_glide_rotatable_bonds>  (53) 
3

>  <r_i_docking_score>  (53) 
-2.37905

>  <r_i_glide_ligand_efficiency>  (53) 
-0.0793018

>  <r_i_glide_ligand_efficiency_sa>  (53) 
-0.246409

>  <r_i_glide_ligand_efficiency_ln>  (53) 
-0.540547

>  <r_i_glide_gscore>  (53) 
-2.37905

>  <r_i_glide_lipo>  (53) 
-0.516579

>  <r_i_glide_hbond>  (53) 
-0.0520464

>  <r_i_glide_metal>  (53) 
-0

>  <r_i_glide_rewards>  (53) 
-0.597898

>  <r_i_glide_evdw>  (53) 
-24.6407

>  <r_i_glide_ecoul>  (53) 
-1.02455

>  <r_i_glide_erotb>  (53) 
0.231719

>  <r_i_glide_esite>  (53) 
-0.0585304

>  <r_i_glide_emodel>  (53) 
-26.0269

>  <r_i_glide_energy>  (53) 
-25.6653

>  <r_i_glide_einternal>  (53) 
6.6521

>  <r_i_glide_intrahb_reward>  (53) 
-0

>  <i_i_glide_confnum>  (53) 
2

>  <i_i_glide_posenum>  (53) 
1

>  <r_i_glide_eff_state_penalty>  (53) 
0

>  <ligand_id>  (53) 
20

>  <original_smiles>  (53) 
CC(=O)OCC1(C)C(=O)C2=C(C)CC1CCC1(C)C(=O)C3(C)CCC4CC3(C4C)C21

>  <smiles>  (53) 
[H]C([H])([H])C(=O)OC([H])([H])C1(C([H])([H])[H])C(=O)C2=C(C([H])([H])[H])C([H])([H])C1([H])C([H])([H])C([H])([H])C1(C([H])([H])[H])C(=O)C3(C([H])([H])[H])C([H])([H])C([H])([H])C4([H])C([H])([H])C3(C21[H])C4([H])C([H])([H])[H]

$$$$
20:0:1
     RDKit          3D

 66 70  0  0  1  0  0  0  0  0999 V2000
   -1.3285   -9.4052    2.8309 C   0  0  0  0  0  0  0  0  0  0  0  0
   -0.4924   -8.1827    2.4530 C   0  0  0  0  0  0  0  0  0  0  0  0
   -0.9789   -7.0561    2.4615 O   0  0  0  0  0  0  0  0  0  0  0  0
    0.7686   -8.5084    2.1115 O   0  0  0  0  0  0  0  0  0  0  0  0
    1.6650   -7.4985    1.6615 C   0  0  0  0  0  0  0  0  0  0  0  0
    3.1061   -7.7242    2.1965 C   0  0  1  0  0  0  0  0  0  0  0  0
    3.5881   -9.1142    1.6950 C   0  0  0  0  0  0  0  0  0  0  0  0
    4.0883   -6.6610    1.6660 C   0  0  0  0  0  0  0  0  0  0  0  0
    4.3153   -6.6801    0.4517 O   0  0  0  0  0  0  0  0  0  0  0  0
    4.9007   -5.8544    2.6316 C   0  0  0  0  0  0  0  0  0  0  0  0
    5.4013   -6.5385    3.6911 C   0  0  0  0  0  0  0  0  0  0  0  0
    6.4735   -6.0436    4.6648 C   0  0  0  0  0  0  0  0  0  0  0  0
    4.6489   -7.7584    4.1944 C   0  0  0  0  0  0  0  0  0  0  0  0
    3.1644   -7.6487    3.7494 C   0  0  1  0  0  0  0  0  0  0  0  0
    2.4113   -6.4239    4.4001 C   0  0  0  0  0  0  0  0  0  0  0  0
    2.3844   -4.9655    3.7867 C   0  0  0  0  0  0  0  0  0  0  0  0
    3.6147   -4.0088    3.8378 C   0  0  2  0  0  0  0  0  0  0  0  0
    4.1536   -3.9020    5.2762 C   0  0  0  0  0  0  0  0  0  0  0  0
    3.1969   -2.6061    3.3893 C   0  0  0  0  0  0  0  0  0  0  0  0
    2.2302   -2.0005    3.8744 O   0  0  0  0  0  0  0  0  0  0  0  0
    4.1005   -2.0371    2.3086 C   0  0  2  0  0  0  0  0  0  0  0  0
    5.2751   -1.3067    3.0067 C   0  0  0  0  0  0  0  0  0  0  0  0
    3.3765   -1.0188    1.3545 C   0  0  0  0  0  0  0  0  0  0  0  0
    3.8500   -1.1697   -0.1145 C   0  0  0  0  0  0  0  0  0  0  0  0
    4.2659   -2.5943   -0.3784 C   0  0  2  0  0  0  0  0  0  0  0  0
    3.4828   -3.6622    0.3973 C   0  0  0  0  0  0  0  0  0  0  0  0
    4.4787   -3.3441    1.5515 C   0  0  1  0  0  0  0  0  0  0  0  0
    5.4894   -3.1433    0.3950 C   0  0  1  0  0  0  0  0  0  0  0  0
    6.3361   -4.2532   -0.1620 C   0  0  0  0  0  0  0  0  0  0  0  0
    4.7242   -4.3234    2.7526 C   0  0  2  0  0  0  0  0  0  0  0  0
   -0.8831   -9.9092    3.6811 H   0  0  0  0  0  0  0  0  0  0  0  0
   -1.3788  -10.0998    1.9881 H   0  0  0  0  0  0  0  0  0  0  0  0
   -2.3370   -9.1045    3.0943 H   0  0  0  0  0  0  0  0  0  0  0  0
    1.6633   -7.4791    0.5634 H   0  0  0  0  0  0  0  0  0  0  0  0
    1.2846   -6.5367    1.9353 H   0  0  0  0  0  0  0  0  0  0  0  0
    3.1217   -9.9317    2.2413 H   0  0  0  0  0  0  0  0  0  0  0  0
    4.6733   -9.2457    1.7996 H   0  0  0  0  0  0  0  0  0  0  0  0
    3.3754   -9.2659    0.6427 H   0  0  0  0  0  0  0  0  0  0  0  0
    6.1236   -6.0225    5.6925 H   0  0  0  0  0  0  0  0  0  0  0  0
    6.8838   -5.0572    4.4318 H   0  0  0  0  0  0  0  0  0  0  0  0
    7.3106   -6.7418    4.6398 H   0  0  0  0  0  0  0  0  0  0  0  0
    5.1514   -8.6692    3.8740 H   0  0  0  0  0  0  0  0  0  0  0  0
    4.6737   -7.7712    5.2909 H   0  0  0  0  0  0  0  0  0  0  0  0
    2.6781   -8.5425    4.1339 H   0  0  0  0  0  0  0  0  0  0  0  0
    1.3708   -6.7274    4.4388 H   0  0  0  0  0  0  0  0  0  0  0  0
    2.6931   -6.3699    5.4533 H   0  0  0  0  0  0  0  0  0  0  0  0
    2.0278   -4.9465    2.7649 H   0  0  0  0  0  0  0  0  0  0  0  0
    1.5832   -4.4657    4.3346 H   0  0  0  0  0  0  0  0  0  0  0  0
    4.2868   -4.8710    5.7468 H   0  0  0  0  0  0  0  0  0  0  0  0
    3.4453   -3.3640    5.9167 H   0  0  0  0  0  0  0  0  0  0  0  0
    5.1014   -3.3779    5.3357 H   0  0  0  0  0  0  0  0  0  0  0  0
    6.0245   -0.9292    2.3188 H   0  0  0  0  0  0  0  0  0  0  0  0
    5.7998   -1.9378    3.7308 H   0  0  0  0  0  0  0  0  0  0  0  0
    4.9112   -0.4553    3.5803 H   0  0  0  0  0  0  0  0  0  0  0  0
    2.3059   -1.1643    1.3808 H   0  0  0  0  0  0  0  0  0  0  0  0
    3.5347    0.0149    1.6763 H   0  0  0  0  0  0  0  0  0  0  0  0
    3.0500   -0.8768   -0.7935 H   0  0  0  0  0  0  0  0  0  0  0  0
    4.6702   -0.4846   -0.3259 H   0  0  0  0  0  0  0  0  0  0  0  0
    4.3379   -2.8503   -1.4511 H   0  0  0  0  0  0  0  0  0  0  0  0
    2.4434   -3.3829    0.5974 H   0  0  0  0  0  0  0  0  0  0  0  0
    3.5324   -4.6094   -0.1102 H   0  0  0  0  0  0  0  0  0  0  0  0
    6.1412   -2.2859    0.6399 H   0  0  0  0  0  0  0  0  0  0  0  0
    5.7566   -4.9830   -0.7301 H   0  0  0  0  0  0  0  0  0  0  0  0
    6.8640   -4.7925    0.6339 H   0  0  0  0  0  0  0  0  0  0  0  0
    7.0931   -3.8589   -0.8306 H   0  0  0  0  0  0  0  0  0  0  0  0
    5.6850   -4.0043    3.1383 H   0  0  0  0  0  0  0  0  0  0  0  0
  1  2  1  0
  1 31  1  0
  1 32  1  0
  1 33  1  0
  2  3  2  0
  2  4  1  0
  4  5  1  0
  6  5  1  6
  5 34  1  0
  5 35  1  0
  6 14  1  0
  6  7  1  0
  6  8  1  0
  7 36  1  0
  7 37  1  0
  7 38  1  0
  8  9  2  0
  8 10  1  0
 10 30  1  0
 10 11  2  0
 11 12  1  0
 11 13  1  0
 12 39  1  0
 12 40  1  0
 12 41  1  0
 13 14  1  0
 13 42  1  0
 13 43  1  0
 14 15  1  0
 14 44  1  1
 15 16  1  0
 15 45  1  0
 15 46  1  0
 16 17  1  0
 16 47  1  0
 16 48  1  0
 17 30  1  0
 17 18  1  1
 17 19  1  0
 18 49  1  0
 18 50  1  0
 18 51  1  0
 19 20  2  0
 19 21  1  0
 21 27  1  0
 21 22  1  1
 21 23  1  0
 22 52  1  0
 22 53  1  0
 22 54  1  0
 23 24  1  0
 23 55  1  0
 23 56  1  0
 24 25  1  0
 24 57  1  0
 24 58  1  0
 25 28  1  0
 25 26  1  0
 25 59  1  6
 27 26  1  6
 26 60  1  0
 26 61  1  0
 27 28  1  0
 27 30  1  0
 28 29  1  0
 28 62  1  1
 29 63  1  0
 29 64  1  0
 29 65  1  0
 30 66  1  1
M  END
>  <i_m_ct_stereo_status>  (54) 
1

>  <s_m_source_file>  (54) 
/var/tmp/pbs.5076255.sched01/tmppe38rura/0ules8z9c.sdf

>  <i_m_source_file_index>  (54) 
29

>  <i_lp_mmshare_version>  (54) 
48012

>  <i_f3d_flags>  (54) 
0

>  <s_epik_input>  (54) 
W0NIM11DKD1PKU9bQ0gyXVtDQEBdKFtDSDNdKShDMT1PKVtDQEhdKFtDSDJdW0NIMl0yKVtDSDJdQyhbQ0gzXSk9QzFbQ0BASF0zW0NAQF0yKFtDSDNdKUMoPU8pW0NAXShbQ0BAXTM0NSkoW0NIM10pW0NIMl1bQ0gyXVtDQEhdKFtDSDJdNClbQ0BASF01W0NIM10=

>  <s_epik_cmdline>  (54) 
J2VwaWtfcHl0aG9uJywgJy1waHQnLCAnMi4wJywgJy1waCcsICc3LjAnLCAnLXRuJywgJzgnLCAnLW1hJywgJzIwMCcsICctaW1hZScsICc8aW5maWxlLm1hZT4nLCAnLW9tYWUnLCAnPG91dGZpbGUubWFlPic=

>  <r_lp_tautomer_probability>  (54) 
1

>  <r_epik_Ionization_Penalty>  (54) 
0

>  <r_epik_Ionization_Penalty_Charging>  (54) 
0

>  <r_epik_Ionization_Penalty_Neutral>  (54) 
0

>  <r_epik_State_Penalty>  (54) 
-0

>  <r_epik_Charging_Adjusted_Penalty>  (54) 
0

>  <i_epik_Tot_Q>  (54) 
0

>  <i_epik_Tot_abs_Q>  (54) 
0

>  <s_epik_Chemistry_Notes>  (54) 
This compound has an ester and may undergo hydrolysis at high or low pH.

>  <s_lp_Force_Field>  (54) 
OPLS3e

>  <r_lp_Energy>  (54) 
107.727

>  <b_lp_Chiralities_Consistent>  (54) 
1

>  <s_lp_Variant>  (54) 
20:0-1

>  <s_i_glide_gridfile>  (54) 
pfpi4k_grid

>  <i_i_glide_lignum>  (54) 
29

>  <i_i_glide_rotatable_bonds>  (54) 
3

>  <r_i_docking_score>  (54) 
-2.35105

>  <r_i_glide_ligand_efficiency>  (54) 
-0.0783683

>  <r_i_glide_ligand_efficiency_sa>  (54) 
-0.243508

>  <r_i_glide_ligand_efficiency_ln>  (54) 
-0.534184

>  <r_i_glide_gscore>  (54) 
-2.35105

>  <r_i_glide_lipo>  (54) 
-0.231057

>  <r_i_glide_hbond>  (54) 
-0.16

>  <r_i_glide_metal>  (54) 
-0

>  <r_i_glide_rewards>  (54) 
-0.666282

>  <r_i_glide_evdw>  (54) 
-23.9717

>  <r_i_glide_ecoul>  (54) 
-1.82246

>  <r_i_glide_erotb>  (54) 
0.231719

>  <r_i_glide_esite>  (54) 
-0.0534715

>  <r_i_glide_emodel>  (54) 
-28.1196

>  <r_i_glide_energy>  (54) 
-25.7942

>  <r_i_glide_einternal>  (54) 
3.12245

>  <r_i_glide_intrahb_reward>  (54) 
-0

>  <i_i_glide_confnum>  (54) 
4

>  <i_i_glide_posenum>  (54) 
36

>  <r_i_glide_eff_state_penalty>  (54) 
0

>  <ligand_id>  (54) 
20

>  <original_smiles>  (54) 
CC(=O)OCC1(C)C(=O)C2=C(C)CC1CCC1(C)C(=O)C3(C)CCC4CC3(C4C)C21

>  <smiles>  (54) 
[H]C([H])([H])C(=O)OC([H])([H])C1(C([H])([H])[H])C(=O)C2=C(C([H])([H])[H])C([H])([H])C1([H])C([H])([H])C([H])([H])C1(C([H])([H])[H])C(=O)C3(C([H])([H])[H])C([H])([H])C([H])([H])C4([H])C([H])([H])C3(C21[H])C4([H])C([H])([H])[H]

$$$$
20:0:2
     RDKit          3D

 66 70  0  0  1  0  0  0  0  0999 V2000
   -0.6636   -8.5926    2.2296 C   0  0  0  0  0  0  0  0  0  0  0  0
    0.1479   -7.4601    1.5968 C   0  0  0  0  0  0  0  0  0  0  0  0
   -0.3853   -6.3920    1.2956 O   0  0  0  0  0  0  0  0  0  0  0  0
    1.4544   -7.7305    1.4324 O   0  0  0  0  0  0  0  0  0  0  0  0
    2.2923   -6.7181    0.8893 C   0  0  0  0  0  0  0  0  0  0  0  0
    3.7833   -7.0035    1.2093 C   0  0  1  0  0  0  0  0  0  0  0  0
    4.1966   -8.4286    0.7004 C   0  0  0  0  0  0  0  0  0  0  0  0
    4.6865   -5.9481    0.5293 C   0  0  0  0  0  0  0  0  0  0  0  0
    4.7524   -5.9376   -0.6948 O   0  0  0  0  0  0  0  0  0  0  0  0
    5.6492   -5.1998    1.3956 C   0  0  0  0  0  0  0  0  0  0  0  0
    6.3082   -5.9425    2.3254 C   0  0  0  0  0  0  0  0  0  0  0  0
    7.5789   -5.5634    3.0546 C   0  0  0  0  0  0  0  0  0  0  0  0
    5.5857   -7.1225    2.9408 C   0  0  0  0  0  0  0  0  0  0  0  0
    4.0571   -6.9439    2.7171 C   0  0  1  0  0  0  0  0  0  0  0  0
    3.4474   -5.6895    3.4543 C   0  0  0  0  0  0  0  0  0  0  0  0
    3.3587   -4.2375    2.8240 C   0  0  0  0  0  0  0  0  0  0  0  0
    4.6192   -3.3291    2.6979 C   0  0  2  0  0  0  0  0  0  0  0  0
    5.2946   -3.2149    4.0737 C   0  0  0  0  0  0  0  0  0  0  0  0
    4.1811   -1.9181    2.2878 C   0  0  0  0  0  0  0  0  0  0  0  0
    3.3615   -1.2571    2.9128 O   0  0  0  0  0  0  0  0  0  0  0  0
    4.9410   -1.3766    1.0927 C   0  0  2  0  0  0  0  0  0  0  0  0
    6.2169   -0.6880    1.6223 C   0  0  0  0  0  0  0  0  0  0  0  0
    4.1330   -0.3408    0.2401 C   0  0  0  0  0  0  0  0  0  0  0  0
    4.3839   -0.5281   -1.2875 C   0  0  0  0  0  0  0  0  0  0  0  0
    4.7358   -1.9585   -1.5661 C   0  0  2  0  0  0  0  0  0  0  0  0
    4.0382   -2.9721   -0.6760 C   0  0  0  0  0  0  0  0  0  0  0  0
    5.1867   -2.6963    0.3252 C   0  0  1  0  0  0  0  0  0  0  0  0
    6.0255   -2.4801   -0.9448 C   0  0  1  0  0  0  0  0  0  0  0  0
    6.7493   -3.5893   -1.6231 C   0  0  0  0  0  0  0  0  0  0  0  0
    5.5792   -3.6716    1.5013 C   0  0  2  0  0  0  0  0  0  0  0  0
   -0.2638   -8.8546    3.2028 H   0  0  0  0  0  0  0  0  0  0  0  0
   -0.6268   -9.5272    1.6947 H   0  0  0  0  0  0  0  0  0  0  0  0
   -1.7239   -8.3426    2.3022 H   0  0  0  0  0  0  0  0  0  0  0  0
    2.1084   -6.6184   -0.1661 H   0  0  0  0  0  0  0  0  0  0  0  0
    1.9398   -5.7625    1.2669 H   0  0  0  0  0  0  0  0  0  0  0  0
    3.7606   -9.2327    1.2997 H   0  0  0  0  0  0  0  0  0  0  0  0
    5.2740   -8.5773    0.6082 H   0  0  0  0  0  0  0  0  0  0  0  0
    3.8513   -8.6664   -0.2920 H   0  0  0  0  0  0  0  0  0  0  0  0
    7.3719   -5.3817    4.1097 H   0  0  0  0  0  0  0  0  0  0  0  0
    8.0244   -4.6443    2.5233 H   0  0  0  0  0  0  0  0  0  0  0  0
    8.3000   -6.4008    3.0342 H   0  0  0  0  0  0  0  0  0  0  0  0
    6.0003   -8.0580    2.5566 H   0  0  0  0  0  0  0  0  0  0  0  0
    5.7551   -7.1199    4.0112 H   0  0  0  0  0  0  0  0  0  0  0  0
    3.5876   -7.8231    3.1624 H   0  0  0  0  0  0  0  0  0  0  0  0
    2.4120   -5.9598    3.6368 H   0  0  0  0  0  0  0  0  0  0  0  0
    3.8854   -5.6378    4.4481 H   0  0  0  0  0  0  0  0  0  0  0  0
    2.8760   -4.1891    1.8488 H   0  0  0  0  0  0  0  0  0  0  0  0
    2.6708   -3.7069    3.4827 H   0  0  0  0  0  0  0  0  0  0  0  0
    5.5682   -4.1896    4.4862 H   0  0  0  0  0  0  0  0  0  0  0  0
    4.6578   -2.7035    4.8036 H   0  0  0  0  0  0  0  0  0  0  0  0
    6.2154   -2.5913    3.9367 H   0  0  0  0  0  0  0  0  0  0  0  0
    6.8653   -0.3396    0.8189 H   0  0  0  0  0  0  0  0  0  0  0  0
    6.8222   -1.3170    2.2591 H   0  0  0  0  0  0  0  0  0  0  0  0
    5.9584    0.1452    2.2700 H   0  0  0  0  0  0  0  0  0  0  0  0
    3.0581   -0.4467    0.4470 H   0  0  0  0  0  0  0  0  0  0  0  0
    4.3908    0.6770    0.5238 H   0  0  0  0  0  0  0  0  0  0  0  0
    3.5084   -0.2692   -1.8830 H   0  0  0  0  0  0  0  0  0  0  0  0
    5.1733    0.1087   -1.6886 H   0  0  0  0  0  0  0  0  0  0  0  0
    4.6578   -2.2117   -2.6132 H   0  0  0  0  0  0  0  0  0  0  0  0
    3.0599   -2.6341   -0.3429 H   0  0  0  0  0  0  0  0  0  0  0  0
    3.9722   -3.9122   -1.1978 H   0  0  0  0  0  0  0  0  0  0  0  0
    6.7029   -1.6630   -0.8108 H   0  0  0  0  0  0  0  0  0  0  0  0
    6.0097   -4.2109   -2.1186 H   0  0  0  0  0  0  0  0  0  0  0  0
    7.3323   -4.1340   -0.8754 H   0  0  0  0  0  0  0  0  0  0  0  0
    7.4257   -3.2433   -2.4059 H   0  0  0  0  0  0  0  0  0  0  0  0
    6.5979   -3.3894    1.7585 H   0  0  0  0  0  0  0  0  0  0  0  0
  1  2  1  0
  1 31  1  0
  1 32  1  0
  1 33  1  0
  2  3  2  0
  2  4  1  0
  4  5  1  0
  6  5  1  1
  5 34  1  0
  5 35  1  0
  6 14  1  0
  6  7  1  0
  6  8  1  0
  7 36  1  0
  7 37  1  0
  7 38  1  0
  8  9  2  0
  8 10  1  0
 10 30  1  0
 10 11  2  0
 11 12  1  0
 11 13  1  0
 12 39  1  0
 12 40  1  0
 12 41  1  0
 13 14  1  0
 13 42  1  0
 13 43  1  0
 14 15  1  0
 14 44  1  1
 15 16  1  0
 15 45  1  0
 15 46  1  0
 16 17  1  0
 16 47  1  0
 16 48  1  0
 17 30  1  0
 17 18  1  1
 17 19  1  0
 18 49  1  0
 18 50  1  0
 18 51  1  0
 19 20  2  0
 19 21  1  0
 21 27  1  0
 21 22  1  1
 21 23  1  0
 22 52  1  0
 22 53  1  0
 22 54  1  0
 23 24  1  0
 23 55  1  0
 23 56  1  0
 24 25  1  0
 24 57  1  0
 24 58  1  0
 25 28  1  0
 25 26  1  0
 25 59  1  6
 27 26  1  6
 26 60  1  0
 26 61  1  0
 27 28  1  0
 27 30  1  0
 28 29  1  0
 28 62  1  1
 29 63  1  0
 29 64  1  0
 29 65  1  0
 30 66  1  1
M  END
>  <i_m_ct_stereo_status>  (55) 
1

>  <s_m_source_file>  (55) 
/var/tmp/pbs.5076255.sched01/tmppe38rura/0ules8z9c.sdf

>  <i_m_source_file_index>  (55) 
29

>  <i_lp_mmshare_version>  (55) 
48012

>  <i_f3d_flags>  (55) 
0

>  <s_epik_input>  (55) 
W0NIM11DKD1PKU9bQ0gyXVtDQEBdKFtDSDNdKShDMT1PKVtDQEhdKFtDSDJdW0NIMl0yKVtDSDJdQyhbQ0gzXSk9QzFbQ0BASF0zW0NAQF0yKFtDSDNdKUMoPU8pW0NAXShbQ0BAXTM0NSkoW0NIM10pW0NIMl1bQ0gyXVtDQEhdKFtDSDJdNClbQ0BASF01W0NIM10=

>  <s_epik_cmdline>  (55) 
J2VwaWtfcHl0aG9uJywgJy1waHQnLCAnMi4wJywgJy1waCcsICc3LjAnLCAnLXRuJywgJzgnLCAnLW1hJywgJzIwMCcsICctaW1hZScsICc8aW5maWxlLm1hZT4nLCAnLW9tYWUnLCAnPG91dGZpbGUubWFlPic=

>  <r_lp_tautomer_probability>  (55) 
1

>  <r_epik_Ionization_Penalty>  (55) 
0

>  <r_epik_Ionization_Penalty_Charging>  (55) 
0

>  <r_epik_Ionization_Penalty_Neutral>  (55) 
0

>  <r_epik_State_Penalty>  (55) 
-0

>  <r_epik_Charging_Adjusted_Penalty>  (55) 
0

>  <i_epik_Tot_Q>  (55) 
0

>  <i_epik_Tot_abs_Q>  (55) 
0

>  <s_epik_Chemistry_Notes>  (55) 
This compound has an ester and may undergo hydrolysis at high or low pH.

>  <s_lp_Force_Field>  (55) 
OPLS3e

>  <r_lp_Energy>  (55) 
107.727

>  <b_lp_Chiralities_Consistent>  (55) 
1

>  <s_lp_Variant>  (55) 
20:0-1

>  <s_i_glide_gridfile>  (55) 
pfpi4k_grid

>  <i_i_glide_lignum>  (55) 
29

>  <i_i_glide_rotatable_bonds>  (55) 
3

>  <r_i_docking_score>  (55) 
-2.22864

>  <r_i_glide_ligand_efficiency>  (55) 
-0.074288

>  <r_i_glide_ligand_efficiency_sa>  (55) 
-0.23083

>  <r_i_glide_ligand_efficiency_ln>  (55) 
-0.506371

>  <r_i_glide_gscore>  (55) 
-2.22864

>  <r_i_glide_lipo>  (55) 
-0.659408

>  <r_i_glide_hbond>  (55) 
-0.295621

>  <r_i_glide_metal>  (55) 
-0

>  <r_i_glide_rewards>  (55) 
-0.760702

>  <r_i_glide_evdw>  (55) 
-5.85272

>  <r_i_glide_ecoul>  (55) 
-2.45321

>  <r_i_glide_erotb>  (55) 
0.231719

>  <r_i_glide_esite>  (55) 
-0.084011

>  <r_i_glide_emodel>  (55) 
-8.1392

>  <r_i_glide_energy>  (55) 
-8.30593

>  <r_i_glide_einternal>  (55) 
2.99666

>  <r_i_glide_intrahb_reward>  (55) 
-0

>  <i_i_glide_confnum>  (55) 
4

>  <i_i_glide_posenum>  (55) 
8

>  <r_i_glide_eff_state_penalty>  (55) 
0

>  <ligand_id>  (55) 
20

>  <original_smiles>  (55) 
CC(=O)OCC1(C)C(=O)C2=C(C)CC1CCC1(C)C(=O)C3(C)CCC4CC3(C4C)C21

>  <smiles>  (55) 
[H]C([H])([H])C(=O)OC([H])([H])C1(C([H])([H])[H])C(=O)C2=C(C([H])([H])[H])C([H])([H])C1([H])C([H])([H])C([H])([H])C1(C([H])([H])[H])C(=O)C3(C([H])([H])[H])C([H])([H])C([H])([H])C4([H])C([H])([H])C3(C21[H])C4([H])C([H])([H])[H]

$$$$
21:0:0
     RDKit          3D

 92100  0  0  1  0  0  0  0  0999 V2000
   -0.1428    3.5039    9.5277 C   0  0  0  0  0  0  0  0  0  0  0  0
    1.0345    3.2679    8.6997 O   0  0  0  0  0  0  0  0  0  0  0  0
    1.3272    2.0079    8.0157 C   0  0  1  0  0  0  0  0  0  0  0  0
    1.6485    1.1076    9.3884 C   0  0  2  0  0  0  0  0  0  0  0  0
    3.1635    1.2122    9.6239 C   0  0  1  0  0  0  0  0  0  0  0  0
    3.5980    1.3957   11.1156 C   0  0  0  0  0  0  0  0  0  0  0  0
    3.7172   -0.0163    8.7787 C   0  0  1  0  0  0  0  0  0  0  0  0
    3.5692   -1.0330    9.7803 O   0  0  0  0  0  0  0  0  0  0  0  0
    2.3515   -1.2046   10.3879 C   0  0  0  0  0  0  0  0  0  0  0  0
    2.2252   -1.9537   11.3729 O   0  0  0  0  0  0  0  0  0  0  0  0
    1.2389   -0.4272    9.6681 C   0  0  1  0  0  0  0  0  0  0  0  0
   -0.1300   -0.8931   10.1660 C   0  0  0  0  0  0  0  0  0  0  0  0
   -0.0478   -2.0403    9.2668 O   0  0  0  0  0  0  0  0  0  0  0  0
    0.8416   -1.2336    8.4684 C   0  0  2  0  0  0  0  0  0  0  0  0
    2.0439   -1.7829    7.6901 C   0  0  0  0  0  0  0  0  0  0  0  0
    3.0269   -0.5700    7.3758 C   0  0  1  0  0  0  0  0  0  0  0  0
    2.7727    0.2380    5.8835 C   0  0  2  0  0  0  0  0  0  0  0  0
    1.3355   -0.2109    5.3491 C   0  0  2  0  0  0  0  0  0  0  0  0
    1.2236   -1.3956    4.2366 C   0  0  2  0  0  0  0  0  0  0  0  0
    0.8092   -1.0553    2.7715 C   0  0  0  0  0  0  0  0  0  0  0  0
    0.2478   -2.5097    4.6782 C   0  0  0  0  0  0  0  0  0  0  0  0
    1.0202   -3.7890    4.5296 C   0  0  0  0  0  0  0  0  0  0  0  0
    0.4903   -4.8997    4.6866 O   0  0  0  0  0  0  0  0  0  0  0  0
    2.2915   -3.5667    4.2209 O   0  0  0  0  0  0  0  0  0  0  0  0
    2.5492   -2.2067    4.0526 C   0  0  2  0  0  0  0  0  0  0  0  0
    3.5678   -1.7898    4.8940 O   0  0  0  0  0  0  0  0  0  0  0  0
    3.8932   -0.4027    4.9203 C   0  0  0  0  0  0  0  0  0  0  0  0
    4.0345    0.1235    3.4609 C   0  0  0  0  0  0  0  0  0  0  0  0
    5.3504   -0.3862    5.4905 C   0  0  0  0  0  0  0  0  0  0  0  0
    0.2396    0.9158    5.4793 C   0  0  2  0  0  0  0  0  0  0  0  0
   -1.1832    0.2991    5.2645 C   0  0  0  0  0  0  0  0  0  0  0  0
    0.6615    1.7844    4.2493 C   0  0  1  0  0  0  0  0  0  0  0  0
   -0.4702    2.2973    3.3035 C   0  0  0  0  0  0  0  0  0  0  0  0
    1.7254    2.7575    4.7701 C   0  0  1  0  0  0  0  0  0  0  0  0
    2.4676    3.4293    3.5678 C   0  0  0  0  0  0  0  0  0  0  0  0
    0.8737    3.8777    5.4954 C   0  0  1  0  0  0  0  0  0  0  0  0
    0.3146    5.0741    4.6820 C   0  0  0  0  0  0  0  0  0  0  0  0
   -0.2455    3.2313    6.3419 C   0  0  0  0  0  0  0  0  0  0  0  0
    0.1485    1.8128    6.8898 C   0  0  2  0  0  0  0  0  0  0  0  0
   -0.9679    1.3945    7.6558 O   0  0  0  0  0  0  0  0  0  0  0  0
    2.7578    1.9125    5.7624 C   0  0  2  0  0  0  0  0  0  0  0  0
    4.0643    2.3382    5.3715 O   0  0  0  0  0  0  0  0  0  0  0  0
    2.6502    2.4090    7.1962 C   0  0  1  0  0  0  0  0  0  0  0  0
    3.1842    3.6950    7.4843 O   0  0  0  0  0  0  0  0  0  0  0  0
    0.0037    4.4306   10.0865 H   0  0  0  0  0  0  0  0  0  0  0  0
   -0.4013    2.7299   10.2508 H   0  0  0  0  0  0  0  0  0  0  0  0
   -1.0689    3.6519    8.9738 H   0  0  0  0  0  0  0  0  0  0  0  0
    1.2739    1.6161   10.2663 H   0  0  0  0  0  0  0  0  0  0  0  0
    3.5852    2.1752    9.3572 H   0  0  0  0  0  0  0  0  0  0  0  0
    3.0908    0.7575   11.8374 H   0  0  0  0  0  0  0  0  0  0  0  0
    3.3716    2.4108   11.4433 H   0  0  0  0  0  0  0  0  0  0  0  0
    4.6691    1.2471   11.2423 H   0  0  0  0  0  0  0  0  0  0  0  0
    4.7877    0.1332    8.6222 H   0  0  0  0  0  0  0  0  0  0  0  0
   -0.1687   -1.1717   11.2226 H   0  0  0  0  0  0  0  0  0  0  0  0
   -0.9299   -0.1968    9.9272 H   0  0  0  0  0  0  0  0  0  0  0  0
    0.1920   -0.6228    7.8719 H   0  0  0  0  0  0  0  0  0  0  0  0
    2.5447   -2.5760    8.2451 H   0  0  0  0  0  0  0  0  0  0  0  0
    1.7699   -2.3737    6.8282 H   0  0  0  0  0  0  0  0  0  0  0  0
    3.8468   -1.2370    7.1652 H   0  0  0  0  0  0  0  0  0  0  0  0
    0.8495   -0.7424    6.0866 H   0  0  0  0  0  0  0  0  0  0  0  0
    0.6998   -1.9662    2.1855 H   0  0  0  0  0  0  0  0  0  0  0  0
    1.5211   -0.4651    2.2053 H   0  0  0  0  0  0  0  0  0  0  0  0
   -0.1420   -0.5468    2.6931 H   0  0  0  0  0  0  0  0  0  0  0  0
   -0.0975   -2.4495    5.7081 H   0  0  0  0  0  0  0  0  0  0  0  0
   -0.6392   -2.5584    4.0547 H   0  0  0  0  0  0  0  0  0  0  0  0
    2.9190   -2.1423    3.0287 H   0  0  0  0  0  0  0  0  0  0  0  0
    4.7414    0.9402    3.3810 H   0  0  0  0  0  0  0  0  0  0  0  0
    3.1128    0.4868    3.0463 H   0  0  0  0  0  0  0  0  0  0  0  0
    4.4232   -0.6422    2.7918 H   0  0  0  0  0  0  0  0  0  0  0  0
    5.5061    0.4055    6.2194 H   0  0  0  0  0  0  0  0  0  0  0  0
    6.1067   -0.2568    4.7160 H   0  0  0  0  0  0  0  0  0  0  0  0
    5.6140   -1.3275    5.9763 H   0  0  0  0  0  0  0  0  0  0  0  0
   -1.9609    1.0592    5.3061 H   0  0  0  0  0  0  0  0  0  0  0  0
   -1.4187   -0.4339    6.0330 H   0  0  0  0  0  0  0  0  0  0  0  0
   -1.3187   -0.2094    4.3218 H   0  0  0  0  0  0  0  0  0  0  0  0
    1.2253    1.2065    3.5431 H   0  0  0  0  0  0  0  0  0  0  0  0
   -1.2719    2.8490    3.7806 H   0  0  0  0  0  0  0  0  0  0  0  0
   -0.9651    1.4759    2.7941 H   0  0  0  0  0  0  0  0  0  0  0  0
   -0.0841    2.9228    2.5032 H   0  0  0  0  0  0  0  0  0  0  0  0
    3.1486    4.2155    3.9027 H   0  0  0  0  0  0  0  0  0  0  0  0
    1.7910    3.9109    2.8635 H   0  0  0  0  0  0  0  0  0  0  0  0
    3.0408    2.7266    2.9706 H   0  0  0  0  0  0  0  0  0  0  0  0
    1.4929    4.4567    6.1591 H   0  0  0  0  0  0  0  0  0  0  0  0
   -0.3620    4.8078    3.8779 H   0  0  0  0  0  0  0  0  0  0  0  0
    1.1118    5.6763    4.2473 H   0  0  0  0  0  0  0  0  0  0  0  0
   -0.2344    5.7466    5.3433 H   0  0  0  0  0  0  0  0  0  0  0  0
   -0.5089    3.9922    7.0593 H   0  0  0  0  0  0  0  0  0  0  0  0
   -1.1778    3.1475    5.7887 H   0  0  0  0  0  0  0  0  0  0  0  0
   -1.0337    2.0063    8.3699 H   0  0  0  0  0  0  0  0  0  0  0  0
    4.1677    2.1796    4.4430 H   0  0  0  0  0  0  0  0  0  0  0  0
    3.5570    1.9064    7.4600 H   0  0  0  0  0  0  0  0  0  0  0  0
    2.6576    4.3425    7.0495 H   0  0  0  0  0  0  0  0  0  0  0  0
  1  2  1  0
  1 45  1  0
  1 46  1  0
  1 47  1  0
  3  2  1  1
  3 39  1  0
  3 43  1  0
  3  4  1  0
  4 11  1  0
  4  5  1  0
  4 48  1  1
  5  6  1  0
  5  7  1  0
  5 49  1  6
  6 50  1  0
  6 51  1  0
  6 52  1  0
  7 16  1  0
  7  8  1  0
  7 53  1  6
  8  9  1  0
  9 10  2  0
  9 11  1  0
 11 14  1  0
 11 12  1  1
 12 13  1  0
 12 54  1  0
 12 55  1  0
 13 14  1  0
 14 15  1  0
 14 56  1  6
 15 16  1  0
 15 57  1  0
 15 58  1  0
 16 17  1  0
 16 59  1  6
 17 27  1  6
 17 41  1  0
 17 18  1  0
 18 19  1  0
 18 30  1  0
 18 60  1  1
 19 25  1  0
 19 20  1  6
 19 21  1  0
 20 61  1  0
 20 62  1  0
 20 63  1  0
 21 22  1  0
 21 64  1  0
 21 65  1  0
 22 23  2  0
 22 24  1  0
 24 25  1  0
 25 26  1  0
 25 66  1  6
 26 27  1  0
 27 28  1  0
 27 29  1  0
 28 67  1  0
 28 68  1  0
 28 69  1  0
 29 70  1  0
 29 71  1  0
 29 72  1  0
 30 39  1  0
 30 31  1  6
 30 32  1  0
 31 73  1  0
 31 74  1  0
 31 75  1  0
 32 33  1  0
 32 34  1  0
 32 76  1  6
 33 77  1  0
 33 78  1  0
 33 79  1  0
 34 35  1  6
 34 36  1  0
 34 41  1  0
 35 80  1  0
 35 81  1  0
 35 82  1  0
 36 37  1  0
 36 38  1  0
 36 83  1  1
 37 84  1  0
 37 85  1  0
 37 86  1  0
 38 39  1  0
 38 87  1  0
 38 88  1  0
 39 40  1  1
 40 89  1  0
 41 42  1  6
 41 43  1  0
 42 90  1  0
 43 44  1  0
 43 91  1  1
 44 92  1  0
M  END
>  <i_m_ct_stereo_status>  (56) 
1

>  <s_m_source_file>  (56) 
/var/tmp/pbs.5076255.sched01/tmppe38rura/0ules8z9c.sdf

>  <i_m_source_file_index>  (56) 
30

>  <i_lp_mmshare_version>  (56) 
48012

>  <i_f3d_flags>  (56) 
0

>  <s_epik_input>  (56) 
W0NIM11PW0NAQF0xKFtDQEhdMltDQEBdMzQ1KVtDQF02KFtPSF0pW0NAXTcoW0NIM10pW0NAQEhdOFtDQEBdKFtDQF0oW09IXSkoW0NASF0xW09IXSlbQ0BAXShbQ0gzXSkoW0NAQEhdN1tDSDNdKVtDQEBIXShbQ0gzXSlbQ0gyXTYpKFtDQEBIXShbQ0BASF0oW0NAQEhdMltDSDNdKU9DMz1PKVtDSDJdW0NASF01T1tDSDJdNClDKFtDSDNdKShbQ0gzXSlPW0NAQEhdOVtDQEBdOChbQ0gzXSlbQ0gyXUMoPU8pTzk=

>  <s_epik_cmdline>  (56) 
J2VwaWtfcHl0aG9uJywgJy1waHQnLCAnMi4wJywgJy1waCcsICc3LjAnLCAnLXRuJywgJzgnLCAnLW1hJywgJzIwMCcsICctaW1hZScsICc8aW5maWxlLm1hZT4nLCAnLW9tYWUnLCAnPG91dGZpbGUubWFlPic=

>  <r_lp_tautomer_probability>  (56) 
1

>  <r_epik_Ionization_Penalty>  (56) 
1.6138e-07

>  <r_epik_Ionization_Penalty_Charging>  (56) 
0

>  <r_epik_Ionization_Penalty_Neutral>  (56) 
1.6138e-07

>  <r_epik_State_Penalty>  (56) 
-0

>  <r_epik_Charging_Adjusted_Penalty>  (56) 
0

>  <i_epik_Tot_Q>  (56) 
0

>  <i_epik_Tot_abs_Q>  (56) 
0

>  <s_epik_Chemistry_Notes>  (56) 
This compound has an ester and may undergo hydrolysis at high or low pH. This compound contains an acetal/aminal-like group ( X-CH(R)-Y where X, Y are N, S, or O) that may be acid/base labile, releasing an aldehyde.

>  <s_lp_Force_Field>  (56) 
OPLS3e

>  <r_lp_Energy>  (56) 
342.116

>  <b_lp_Chiralities_Consistent>  (56) 
1

>  <s_lp_Variant>  (56) 
21:0-1

>  <s_i_glide_gridfile>  (56) 
pfpi4k_grid

>  <i_i_glide_lignum>  (56) 
30

>  <i_i_glide_rotatable_bonds>  (56) 
4

>  <r_i_docking_score>  (56) 
-2.12999

>  <r_i_glide_ligand_efficiency>  (56) 
-0.0484089

>  <r_i_glide_ligand_efficiency_sa>  (56) 
-0.1709

>  <r_i_glide_ligand_efficiency_ln>  (56) 
-0.445215

>  <r_i_glide_gscore>  (56) 
-2.12999

>  <r_i_glide_lipo>  (56) 
-0.0728257

>  <r_i_glide_hbond>  (56) 
-0.16

>  <r_i_glide_metal>  (56) 
-0

>  <r_i_glide_rewards>  (56) 
-0.0180021

>  <r_i_glide_evdw>  (56) 
-18.5021

>  <r_i_glide_ecoul>  (56) 
-6.3604

>  <r_i_glide_erotb>  (56) 
0

>  <r_i_glide_esite>  (56) 
0

>  <r_i_glide_emodel>  (56) 
-26.7953

>  <r_i_glide_energy>  (56) 
-24.8625

>  <r_i_glide_einternal>  (56) 
2.43706

>  <r_i_glide_intrahb_reward>  (56) 
-0

>  <i_i_glide_confnum>  (56) 
2

>  <i_i_glide_posenum>  (56) 
35

>  <r_i_glide_eff_state_penalty>  (56) 
0

>  <ligand_id>  (56) 
21

>  <original_smiles>  (56) 
COC12C3C(C)C4OC(=O)C35COC5CC4C34C(C5(C)CC(=O)OC5OC3(C)C)C3(C)C(C)C(C)(C(C)CC31O)C4(O)C2O

>  <smiles>  (56) 
[H]OC1([H])C2(OC([H])([H])[H])C3([H])C([H])(C([H])([H])[H])C4([H])OC(=O)C35C([H])([H])OC5([H])C([H])([H])C4([H])C34C([H])(C5(C([H])([H])[H])C([H])(OC(=O)C5([H])[H])OC3(C([H])([H])[H])C([H])([H])[H])C3(C([H])([H])[H])C([H])(C([H])([H])[H])C(C([H])([H])[H])(C([H])(C([H])([H])[H])C([H])([H])C23O[H])C14O[H]

$$$$
21:0:1
     RDKit          3D

 92100  0  0  1  0  0  0  0  0999 V2000
   -0.1659    0.0749    9.9659 C   0  0  0  0  0  0  0  0  0  0  0  0
   -0.1664    0.2006    8.5247 O   0  0  0  0  0  0  0  0  0  0  0  0
    0.7428   -0.4531    7.5807 C   0  0  1  0  0  0  0  0  0  0  0  0
    0.6872   -2.0170    8.1724 C   0  0  2  0  0  0  0  0  0  0  0  0
    1.9447   -2.1437    9.0358 C   0  0  1  0  0  0  0  0  0  0  0  0
    1.7527   -2.9047   10.3877 C   0  0  0  0  0  0  0  0  0  0  0  0
    3.0268   -2.6444    7.9845 C   0  0  1  0  0  0  0  0  0  0  0  0
    2.7617   -4.0399    8.0739 O   0  0  0  0  0  0  0  0  0  0  0  0
    1.4832   -4.5116    7.8961 C   0  0  0  0  0  0  0  0  0  0  0  0
    1.1668   -5.6733    8.1397 O   0  0  0  0  0  0  0  0  0  0  0  0
    0.5638   -3.3695    7.3303 C   0  0  1  0  0  0  0  0  0  0  0  0
   -0.7430   -4.0228    6.8256 C   0  0  0  0  0  0  0  0  0  0  0  0
   -0.0505   -4.4105    5.6306 O   0  0  0  0  0  0  0  0  0  0  0  0
    0.8186   -3.3147    5.8552 C   0  0  2  0  0  0  0  0  0  0  0  0
    2.3083   -3.3249    5.5115 C   0  0  0  0  0  0  0  0  0  0  0  0
    3.0395   -2.2088    6.3812 C   0  0  1  0  0  0  0  0  0  0  0  0
    3.1702   -0.6588    5.6529 C   0  0  2  0  0  0  0  0  0  0  0  0
    2.1583   -0.6380    4.4134 C   0  0  2  0  0  0  0  0  0  0  0  0
    2.7222   -0.9143    2.9038 C   0  0  2  0  0  0  0  0  0  0  0  0
    2.7983    0.2467    1.8575 C   0  0  0  0  0  0  0  0  0  0  0  0
    1.9373   -2.0345    2.1839 C   0  0  0  0  0  0  0  0  0  0  0  0
    2.9948   -3.0067    1.7004 C   0  0  0  0  0  0  0  0  0  0  0  0
    2.7047   -3.9751    0.9899 O   0  0  0  0  0  0  0  0  0  0  0  0
    4.1871   -2.6809    2.1446 O   0  0  0  0  0  0  0  0  0  0  0  0
    4.1809   -1.5071    2.8882 C   0  0  2  0  0  0  0  0  0  0  0  0
    4.7036   -1.7110    4.1493 O   0  0  0  0  0  0  0  0  0  0  0  0
    4.6697   -0.6414    5.0838 C   0  0  0  0  0  0  0  0  0  0  0  0
    5.2066    0.6575    4.4045 C   0  0  0  0  0  0  0  0  0  0  0  0
    5.7771   -1.0215    6.1223 C   0  0  0  0  0  0  0  0  0  0  0  0
    0.8598    0.2201    4.6869 C   0  0  2  0  0  0  0  0  0  0  0  0
   -0.2124   -0.0896    3.5902 C   0  0  0  0  0  0  0  0  0  0  0  0
    1.4847    1.6341    4.4574 C   0  0  1  0  0  0  0  0  0  0  0  0
    0.6888    2.6540    3.5778 C   0  0  0  0  0  0  0  0  0  0  0  0
    2.0361    2.0622    5.8191 C   0  0  1  0  0  0  0  0  0  0  0  0
    2.9879    3.2904    5.6430 C   0  0  0  0  0  0  0  0  0  0  0  0
    0.7368    2.5412    6.6080 C   0  0  1  0  0  0  0  0  0  0  0  0
    0.2589    4.0151    6.4386 C   0  0  0  0  0  0  0  0  0  0  0  0
   -0.4354    1.5480    6.3875 C   0  0  0  0  0  0  0  0  0  0  0  0
    0.0885    0.0909    6.1771 C   0  0  2  0  0  0  0  0  0  0  0  0
   -1.1268   -0.6524    6.0510 O   0  0  0  0  0  0  0  0  0  0  0  0
    2.8305    0.7567    6.4850 C   0  0  2  0  0  0  0  0  0  0  0  0
    4.0669    1.2817    6.9834 O   0  0  0  0  0  0  0  0  0  0  0  0
    2.1476    0.3098    7.7615 C   0  0  1  0  0  0  0  0  0  0  0  0
    2.2628    1.2055    8.8624 O   0  0  0  0  0  0  0  0  0  0  0  0
   -0.7688    0.8934   10.3640 H   0  0  0  0  0  0  0  0  0  0  0  0
    0.8077    0.1470   10.4461 H   0  0  0  0  0  0  0  0  0  0  0  0
   -0.6421   -0.8335   10.3337 H   0  0  0  0  0  0  0  0  0  0  0  0
   -0.1859   -2.0962    8.7940 H   0  0  0  0  0  0  0  0  0  0  0  0
    2.2385   -1.2374    9.5543 H   0  0  0  0  0  0  0  0  0  0  0  0
    1.1783   -3.8254   10.3356 H   0  0  0  0  0  0  0  0  0  0  0  0
    1.2066   -2.2824   11.0974 H   0  0  0  0  0  0  0  0  0  0  0  0
    2.7100   -3.1400   10.8500 H   0  0  0  0  0  0  0  0  0  0  0  0
    4.0146   -2.4638    8.4076 H   0  0  0  0  0  0  0  0  0  0  0  0
   -1.1095   -4.8708    7.4277 H   0  0  0  0  0  0  0  0  0  0  0  0
   -1.5520   -3.2980    6.6653 H   0  0  0  0  0  0  0  0  0  0  0  0
    0.2984   -2.4450    5.4779 H   0  0  0  0  0  0  0  0  0  0  0  0
    2.7437   -4.3076    5.6808 H   0  0  0  0  0  0  0  0  0  0  0  0
    2.5098   -3.2685    4.4492 H   0  0  0  0  0  0  0  0  0  0  0  0
    4.0120   -2.6471    6.2053 H   0  0  0  0  0  0  0  0  0  0  0  0
    1.5739   -1.4882    4.4308 H   0  0  0  0  0  0  0  0  0  0  0  0
    3.1193   -0.1338    0.8858 H   0  0  0  0  0  0  0  0  0  0  0  0
    3.5096    1.0310    2.0921 H   0  0  0  0  0  0  0  0  0  0  0  0
    1.8483    0.7292    1.6610 H   0  0  0  0  0  0  0  0  0  0  0  0
    1.2404   -2.5872    2.8088 H   0  0  0  0  0  0  0  0  0  0  0  0
    1.3799   -1.6602    1.3281 H   0  0  0  0  0  0  0  0  0  0  0  0
    4.8679   -0.8525    2.3534 H   0  0  0  0  0  0  0  0  0  0  0  0
    5.6821    1.3442    5.1009 H   0  0  0  0  0  0  0  0  0  0  0  0
    4.4348    1.2269    3.9093 H   0  0  0  0  0  0  0  0  0  0  0  0
    5.9773    0.4335    3.6671 H   0  0  0  0  0  0  0  0  0  0  0  0
    5.4729   -0.8288    7.1513 H   0  0  0  0  0  0  0  0  0  0  0  0
    6.7103   -0.4848    5.9639 H   0  0  0  0  0  0  0  0  0  0  0  0
    6.0499   -2.0764    6.0641 H   0  0  0  0  0  0  0  0  0  0  0  0
   -1.1026    0.5336    3.6875 H   0  0  0  0  0  0  0  0  0  0  0  0
   -0.5350   -1.1290    3.6436 H   0  0  0  0  0  0  0  0  0  0  0  0
    0.1332    0.0626    2.5703 H   0  0  0  0  0  0  0  0  0  0  0  0
    2.3807    1.5740    3.8639 H   0  0  0  0  0  0  0  0  0  0  0  0
   -0.3351    2.8389    3.8830 H   0  0  0  0  0  0  0  0  0  0  0  0
    0.6144    2.3209    2.5437 H   0  0  0  0  0  0  0  0  0  0  0  0
    1.1842    3.6217    3.5094 H   0  0  0  0  0  0  0  0  0  0  0  0
    3.3019    3.6941    6.6066 H   0  0  0  0  0  0  0  0  0  0  0  0
    2.5230    4.1229    5.1146 H   0  0  0  0  0  0  0  0  0  0  0  0
    3.8847    3.0604    5.0735 H   0  0  0  0  0  0  0  0  0  0  0  0
    0.9280    2.5956    7.6594 H   0  0  0  0  0  0  0  0  0  0  0  0
    0.0038    4.3088    5.4250 H   0  0  0  0  0  0  0  0  0  0  0  0
    1.0070    4.7231    6.8003 H   0  0  0  0  0  0  0  0  0  0  0  0
   -0.6328    4.1886    7.0448 H   0  0  0  0  0  0  0  0  0  0  0  0
   -1.1610    1.6659    7.1987 H   0  0  0  0  0  0  0  0  0  0  0  0
   -1.0445    1.8498    5.5485 H   0  0  0  0  0  0  0  0  0  0  0  0
   -1.5598   -0.3530    5.2795 H   0  0  0  0  0  0  0  0  0  0  0  0
    4.5611    1.6096    6.2649 H   0  0  0  0  0  0  0  0  0  0  0  0
    2.9761   -0.3004    8.0589 H   0  0  0  0  0  0  0  0  0  0  0  0
    1.6982    1.9299    8.7182 H   0  0  0  0  0  0  0  0  0  0  0  0
  1  2  1  0
  1 45  1  0
  1 46  1  0
  1 47  1  0
  3  2  1  1
  3 39  1  0
  3 43  1  0
  3  4  1  0
  4 11  1  0
  4  5  1  0
  4 48  1  1
  5  6  1  0
  5  7  1  0
  5 49  1  1
  6 50  1  0
  6 51  1  0
  6 52  1  0
  7 16  1  0
  7  8  1  0
  7 53  1  1
  8  9  1  0
  9 10  2  0
  9 11  1  0
 11 14  1  0
 11 12  1  6
 12 13  1  0
 12 54  1  0
 12 55  1  0
 13 14  1  0
 14 15  1  0
 14 56  1  6
 15 16  1  0
 15 57  1  0
 15 58  1  0
 16 17  1  0
 16 59  1  6
 17 27  1  6
 17 41  1  0
 17 18  1  0
 18 19  1  0
 18 30  1  0
 18 60  1  1
 19 25  1  0
 19 20  1  6
 19 21  1  0
 20 61  1  0
 20 62  1  0
 20 63  1  0
 21 22  1  0
 21 64  1  0
 21 65  1  0
 22 23  2  0
 22 24  1  0
 24 25  1  0
 25 26  1  0
 25 66  1  6
 26 27  1  0
 27 28  1  0
 27 29  1  0
 28 67  1  0
 28 68  1  0
 28 69  1  0
 29 70  1  0
 29 71  1  0
 29 72  1  0
 30 39  1  0
 30 31  1  6
 30 32  1  0
 31 73  1  0
 31 74  1  0
 31 75  1  0
 32 33  1  0
 32 34  1  0
 32 76  1  6
 33 77  1  0
 33 78  1  0
 33 79  1  0
 34 35  1  6
 34 36  1  0
 34 41  1  0
 35 80  1  0
 35 81  1  0
 35 82  1  0
 36 37  1  0
 36 38  1  0
 36 83  1  1
 37 84  1  0
 37 85  1  0
 37 86  1  0
 38 39  1  0
 38 87  1  0
 38 88  1  0
 39 40  1  6
 40 89  1  0
 41 42  1  1
 41 43  1  0
 42 90  1  0
 43 44  1  0
 43 91  1  1
 44 92  1  0
M  END
>  <i_m_ct_stereo_status>  (57) 
1

>  <s_m_source_file>  (57) 
/var/tmp/pbs.5076255.sched01/tmppe38rura/0ules8z9c.sdf

>  <i_m_source_file_index>  (57) 
30

>  <i_lp_mmshare_version>  (57) 
48012

>  <i_f3d_flags>  (57) 
0

>  <s_epik_input>  (57) 
W0NIM11PW0NAQF0xKFtDQEhdMltDQEBdMzQ1KVtDQF02KFtPSF0pW0NAXTcoW0NIM10pW0NAQEhdOFtDQEBdKFtDQF0oW09IXSkoW0NASF0xW09IXSlbQ0BAXShbQ0gzXSkoW0NAQEhdN1tDSDNdKVtDQEBIXShbQ0gzXSlbQ0gyXTYpKFtDQEBIXShbQ0BASF0oW0NAQEhdMltDSDNdKU9DMz1PKVtDSDJdW0NASF01T1tDSDJdNClDKFtDSDNdKShbQ0gzXSlPW0NAQEhdOVtDQEBdOChbQ0gzXSlbQ0gyXUMoPU8pTzk=

>  <s_epik_cmdline>  (57) 
J2VwaWtfcHl0aG9uJywgJy1waHQnLCAnMi4wJywgJy1waCcsICc3LjAnLCAnLXRuJywgJzgnLCAnLW1hJywgJzIwMCcsICctaW1hZScsICc8aW5maWxlLm1hZT4nLCAnLW9tYWUnLCAnPG91dGZpbGUubWFlPic=

>  <r_lp_tautomer_probability>  (57) 
1

>  <r_epik_Ionization_Penalty>  (57) 
1.6138e-07

>  <r_epik_Ionization_Penalty_Charging>  (57) 
0

>  <r_epik_Ionization_Penalty_Neutral>  (57) 
1.6138e-07

>  <r_epik_State_Penalty>  (57) 
-0

>  <r_epik_Charging_Adjusted_Penalty>  (57) 
0

>  <i_epik_Tot_Q>  (57) 
0

>  <i_epik_Tot_abs_Q>  (57) 
0

>  <s_epik_Chemistry_Notes>  (57) 
This compound has an ester and may undergo hydrolysis at high or low pH. This compound contains an acetal/aminal-like group ( X-CH(R)-Y where X, Y are N, S, or O) that may be acid/base labile, releasing an aldehyde.

>  <s_lp_Force_Field>  (57) 
OPLS3e

>  <r_lp_Energy>  (57) 
342.116

>  <b_lp_Chiralities_Consistent>  (57) 
1

>  <s_lp_Variant>  (57) 
21:0-1

>  <s_i_glide_gridfile>  (57) 
pfpi4k_grid

>  <i_i_glide_lignum>  (57) 
30

>  <i_i_glide_rotatable_bonds>  (57) 
4

>  <r_i_docking_score>  (57) 
-1.75667

>  <r_i_glide_ligand_efficiency>  (57) 
-0.0399243

>  <r_i_glide_ligand_efficiency_sa>  (57) 
-0.140947

>  <r_i_glide_ligand_efficiency_ln>  (57) 
-0.367182

>  <r_i_glide_gscore>  (57) 
-1.75667

>  <r_i_glide_lipo>  (57) 
-0.16646

>  <r_i_glide_hbond>  (57) 
0

>  <r_i_glide_metal>  (57) 
-0

>  <r_i_glide_rewards>  (57) 
-0.0101958

>  <r_i_glide_evdw>  (57) 
-21.4984

>  <r_i_glide_ecoul>  (57) 
-3.32948

>  <r_i_glide_erotb>  (57) 
0

>  <r_i_glide_esite>  (57) 
-0.0056733

>  <r_i_glide_emodel>  (57) 
-27.419

>  <r_i_glide_energy>  (57) 
-24.8279

>  <r_i_glide_einternal>  (57) 
0.146748

>  <r_i_glide_intrahb_reward>  (57) 
-0

>  <i_i_glide_confnum>  (57) 
1

>  <i_i_glide_posenum>  (57) 
31

>  <r_i_glide_eff_state_penalty>  (57) 
0

>  <ligand_id>  (57) 
21

>  <original_smiles>  (57) 
COC12C3C(C)C4OC(=O)C35COC5CC4C34C(C5(C)CC(=O)OC5OC3(C)C)C3(C)C(C)C(C)(C(C)CC31O)C4(O)C2O

>  <smiles>  (57) 
[H]OC1([H])C2(OC([H])([H])[H])C3([H])C([H])(C([H])([H])[H])C4([H])OC(=O)C35C([H])([H])OC5([H])C([H])([H])C4([H])C34C([H])(C5(C([H])([H])[H])C([H])(OC(=O)C5([H])[H])OC3(C([H])([H])[H])C([H])([H])[H])C3(C([H])([H])[H])C([H])(C([H])([H])[H])C(C([H])([H])[H])(C([H])(C([H])([H])[H])C([H])([H])C23O[H])C14O[H]

$$$$
21:0:2
     RDKit          3D

 92100  0  0  1  0  0  0  0  0999 V2000
    5.1488   -9.2127    1.0382 C   0  0  0  0  0  0  0  0  0  0  0  0
    3.9273   -8.7599    1.6597 O   0  0  0  0  0  0  0  0  0  0  0  0
    3.7807   -7.5580    2.4748 C   0  0  1  0  0  0  0  0  0  0  0  0
    4.6182   -6.4703    1.5548 C   0  0  2  0  0  0  0  0  0  0  0  0
    6.0093   -6.3885    2.2214 C   0  0  1  0  0  0  0  0  0  0  0  0
    7.2242   -6.3316    1.2516 C   0  0  0  0  0  0  0  0  0  0  0  0
    5.7874   -5.2501    3.2997 C   0  0  1  0  0  0  0  0  0  0  0  0
    6.0706   -4.1378    2.4554 O   0  0  0  0  0  0  0  0  0  0  0  0
    5.3981   -3.9833    1.2748 C   0  0  0  0  0  0  0  0  0  0  0  0
    5.7552   -3.1250    0.4373 O   0  0  0  0  0  0  0  0  0  0  0  0
    4.2027   -4.9422    1.2018 C   0  0  1  0  0  0  0  0  0  0  0  0
    3.2927   -4.5254    0.0387 C   0  0  0  0  0  0  0  0  0  0  0  0
    2.7238   -3.4924    0.8991 O   0  0  0  0  0  0  0  0  0  0  0  0
    3.0942   -4.3447    2.0008 C   0  0  2  0  0  0  0  0  0  0  0  0
    3.5585   -3.7948    3.3451 C   0  0  0  0  0  0  0  0  0  0  0  0
    4.3673   -4.9550    4.0915 C   0  0  1  0  0  0  0  0  0  0  0  0
    3.4430   -5.9703    5.1207 C   0  0  2  0  0  0  0  0  0  0  0  0
    1.9076   -5.7302    4.7620 C   0  0  2  0  0  0  0  0  0  0  0  0
    1.0145   -4.7110    5.6764 C   0  0  2  0  0  0  0  0  0  0  0  0
   -0.1117   -5.2735    6.6108 C   0  0  0  0  0  0  0  0  0  0  0  0
    0.3292   -3.6215    4.8291 C   0  0  0  0  0  0  0  0  0  0  0  0
    0.6777   -2.3199    5.4741 C   0  0  0  0  0  0  0  0  0  0  0  0
    0.1495   -1.2624    5.1281 O   0  0  0  0  0  0  0  0  0  0  0  0
    1.5642   -2.4820    6.4468 O   0  0  0  0  0  0  0  0  0  0  0  0
    1.8712   -3.8299    6.6407 C   0  0  2  0  0  0  0  0  0  0  0  0
    3.2350   -4.0425    6.5155 O   0  0  0  0  0  0  0  0  0  0  0  0
    3.7172   -5.3790    6.5887 C   0  0  0  0  0  0  0  0  0  0  0  0
    3.0918   -6.0907    7.8254 C   0  0  0  0  0  0  0  0  0  0  0  0
    5.2244   -5.1928    6.9575 C   0  0  0  0  0  0  0  0  0  0  0  0
    1.2738   -6.9238    3.9440 C   0  0  2  0  0  0  0  0  0  0  0  0
   -0.0974   -6.4641    3.3422 C   0  0  0  0  0  0  0  0  0  0  0  0
    1.0389   -7.9058    5.1319 C   0  0  1  0  0  0  0  0  0  0  0  0
   -0.3334   -8.6370    5.2027 C   0  0  0  0  0  0  0  0  0  0  0  0
    2.3352   -8.7052    5.2534 C   0  0  1  0  0  0  0  0  0  0  0  0
    2.3554   -9.4659    6.6201 C   0  0  0  0  0  0  0  0  0  0  0  0
    2.2150   -9.7788    4.0849 C   0  0  1  0  0  0  0  0  0  0  0  0
    1.4678  -11.1159    4.3655 C   0  0  0  0  0  0  0  0  0  0  0  0
    1.6963   -9.1173    2.7826 C   0  0  0  0  0  0  0  0  0  0  0  0
    2.1392   -7.6176    2.6917 C   0  0  2  0  0  0  0  0  0  0  0  0
    1.6134   -7.2275    1.4409 O   0  0  0  0  0  0  0  0  0  0  0  0
    3.6039   -7.6390    5.1209 C   0  0  2  0  0  0  0  0  0  0  0  0
    4.4952   -7.9863    6.1721 O   0  0  0  0  0  0  0  0  0  0  0  0
    4.4319   -7.9523    3.8912 C   0  0  1  0  0  0  0  0  0  0  0  0
    5.1772   -9.1628    3.9668 O   0  0  0  0  0  0  0  0  0  0  0  0
    5.0131  -10.2479    0.7413 H   0  0  0  0  0  0  0  0  0  0  0  0
    6.0360   -9.1999    1.6679 H   0  0  0  0  0  0  0  0  0  0  0  0
    5.3848   -8.6986    0.1071 H   0  0  0  0  0  0  0  0  0  0  0  0
    4.7029   -6.8544    0.5484 H   0  0  0  0  0  0  0  0  0  0  0  0
    6.3516   -7.3188    2.6492 H   0  0  0  0  0  0  0  0  0  0  0  0
    7.1254   -5.6569    0.4049 H   0  0  0  0  0  0  0  0  0  0  0  0
    7.3999   -7.3113    0.8095 H   0  0  0  0  0  0  0  0  0  0  0  0
    8.1429   -6.0712    1.7747 H   0  0  0  0  0  0  0  0  0  0  0  0
    6.5955   -5.3249    4.0321 H   0  0  0  0  0  0  0  0  0  0  0  0
    3.8225   -4.1104   -0.8391 H   0  0  0  0  0  0  0  0  0  0  0  0
    2.5885   -5.2810   -0.2677 H   0  0  0  0  0  0  0  0  0  0  0  0
    2.3234   -5.0674    2.0636 H   0  0  0  0  0  0  0  0  0  0  0  0
    4.1677   -2.9049    3.2397 H   0  0  0  0  0  0  0  0  0  0  0  0
    2.7733   -3.3548    3.9380 H   0  0  0  0  0  0  0  0  0  0  0  0
    4.8186   -4.2581    4.7848 H   0  0  0  0  0  0  0  0  0  0  0  0
    1.8426   -5.1443    3.9141 H   0  0  0  0  0  0  0  0  0  0  0  0
   -0.6593   -4.4559    7.0838 H   0  0  0  0  0  0  0  0  0  0  0  0
    0.2417   -5.8768    7.4416 H   0  0  0  0  0  0  0  0  0  0  0  0
   -0.8681   -5.8555    6.1012 H   0  0  0  0  0  0  0  0  0  0  0  0
    0.6161   -3.5860    3.7755 H   0  0  0  0  0  0  0  0  0  0  0  0
   -0.7502   -3.7059    4.8684 H   0  0  0  0  0  0  0  0  0  0  0  0
    1.6141   -4.0044    7.6866 H   0  0  0  0  0  0  0  0  0  0  0  0
    3.7329   -6.8715    8.2360 H   0  0  0  0  0  0  0  0  0  0  0  0
    2.1546   -6.5755    7.6124 H   0  0  0  0  0  0  0  0  0  0  0  0
    2.9296   -5.3982    8.6540 H   0  0  0  0  0  0  0  0  0  0  0  0
    5.8782   -5.8681    6.4076 H   0  0  0  0  0  0  0  0  0  0  0  0
    5.4201   -5.3570    8.0182 H   0  0  0  0  0  0  0  0  0  0  0  0
    5.5736   -4.1792    6.7662 H   0  0  0  0  0  0  0  0  0  0  0  0
   -0.6077   -7.2727    2.8159 H   0  0  0  0  0  0  0  0  0  0  0  0
    0.0713   -5.6676    2.6215 H   0  0  0  0  0  0  0  0  0  0  0  0
   -0.8055   -6.0849    4.0708 H   0  0  0  0  0  0  0  0  0  0  0  0
    1.0107   -7.3803    6.0673 H   0  0  0  0  0  0  0  0  0  0  0  0
   -0.6237   -9.2029    4.3262 H   0  0  0  0  0  0  0  0  0  0  0  0
   -1.1382   -7.9228    5.3062 H   0  0  0  0  0  0  0  0  0  0  0  0
   -0.4073   -9.3093    6.0562 H   0  0  0  0  0  0  0  0  0  0  0  0
    3.2033  -10.1499    6.6921 H   0  0  0  0  0  0  0  0  0  0  0  0
    1.4752  -10.0841    6.7782 H   0  0  0  0  0  0  0  0  0  0  0  0
    2.3975   -8.7988    7.4774 H   0  0  0  0  0  0  0  0  0  0  0  0
    3.1700  -10.2254    3.8649 H   0  0  0  0  0  0  0  0  0  0  0  0
    0.4220  -11.0214    4.6571 H   0  0  0  0  0  0  0  0  0  0  0  0
    1.9590  -11.6999    5.1490 H   0  0  0  0  0  0  0  0  0  0  0  0
    1.4775  -11.7477    3.4735 H   0  0  0  0  0  0  0  0  0  0  0  0
    1.9726   -9.7350    1.9313 H   0  0  0  0  0  0  0  0  0  0  0  0
    0.6146   -9.1834    2.7115 H   0  0  0  0  0  0  0  0  0  0  0  0
    1.8088   -7.9362    0.8401 H   0  0  0  0  0  0  0  0  0  0  0  0
    4.6853   -8.9156    6.0864 H   0  0  0  0  0  0  0  0  0  0  0  0
    5.2511   -7.3367    4.2170 H   0  0  0  0  0  0  0  0  0  0  0  0
    4.5969   -9.8856    3.7517 H   0  0  0  0  0  0  0  0  0  0  0  0
  1  2  1  0
  1 45  1  0
  1 46  1  0
  1 47  1  0
  3  2  1  6
  3 39  1  0
  3 43  1  0
  3  4  1  0
  4 11  1  0
  4  5  1  0
  4 48  1  6
  5  6  1  0
  5  7  1  0
  5 49  1  1
  6 50  1  0
  6 51  1  0
  6 52  1  0
  7 16  1  0
  7  8  1  0
  7 53  1  1
  8  9  1  0
  9 10  2  0
  9 11  1  0
 11 14  1  0
 11 12  1  6
 12 13  1  0
 12 54  1  0
 12 55  1  0
 13 14  1  0
 14 15  1  0
 14 56  1  1
 15 16  1  0
 15 57  1  0
 15 58  1  0
 16 17  1  0
 16 59  1  1
 17 27  1  1
 17 41  1  0
 17 18  1  0
 18 19  1  0
 18 30  1  0
 18 60  1  6
 19 25  1  0
 19 20  1  1
 19 21  1  0
 20 61  1  0
 20 62  1  0
 20 63  1  0
 21 22  1  0
 21 64  1  0
 21 65  1  0
 22 23  2  0
 22 24  1  0
 24 25  1  0
 25 26  1  0
 25 66  1  1
 26 27  1  0
 27 28  1  0
 27 29  1  0
 28 67  1  0
 28 68  1  0
 28 69  1  0
 29 70  1  0
 29 71  1  0
 29 72  1  0
 30 39  1  0
 30 31  1  6
 30 32  1  0
 31 73  1  0
 31 74  1  0
 31 75  1  0
 32 33  1  0
 32 34  1  0
 32 76  1  1
 33 77  1  0
 33 78  1  0
 33 79  1  0
 34 35  1  1
 34 36  1  0
 34 41  1  0
 35 80  1  0
 35 81  1  0
 35 82  1  0
 36 37  1  0
 36 38  1  0
 36 83  1  6
 37 84  1  0
 37 85  1  0
 37 86  1  0
 38 39  1  0
 38 87  1  0
 38 88  1  0
 39 40  1  6
 40 89  1  0
 41 42  1  1
 41 43  1  0
 42 90  1  0
 43 44  1  0
 43 91  1  1
 44 92  1  0
M  END
>  <i_m_ct_stereo_status>  (58) 
1

>  <s_m_source_file>  (58) 
/var/tmp/pbs.5076255.sched01/tmppe38rura/0ules8z9c.sdf

>  <i_m_source_file_index>  (58) 
30

>  <i_lp_mmshare_version>  (58) 
48012

>  <i_f3d_flags>  (58) 
0

>  <s_epik_input>  (58) 
W0NIM11PW0NAQF0xKFtDQEhdMltDQEBdMzQ1KVtDQF02KFtPSF0pW0NAXTcoW0NIM10pW0NAQEhdOFtDQEBdKFtDQF0oW09IXSkoW0NASF0xW09IXSlbQ0BAXShbQ0gzXSkoW0NAQEhdN1tDSDNdKVtDQEBIXShbQ0gzXSlbQ0gyXTYpKFtDQEBIXShbQ0BASF0oW0NAQEhdMltDSDNdKU9DMz1PKVtDSDJdW0NASF01T1tDSDJdNClDKFtDSDNdKShbQ0gzXSlPW0NAQEhdOVtDQEBdOChbQ0gzXSlbQ0gyXUMoPU8pTzk=

>  <s_epik_cmdline>  (58) 
J2VwaWtfcHl0aG9uJywgJy1waHQnLCAnMi4wJywgJy1waCcsICc3LjAnLCAnLXRuJywgJzgnLCAnLW1hJywgJzIwMCcsICctaW1hZScsICc8aW5maWxlLm1hZT4nLCAnLW9tYWUnLCAnPG91dGZpbGUubWFlPic=

>  <r_lp_tautomer_probability>  (58) 
1

>  <r_epik_Ionization_Penalty>  (58) 
1.6138e-07

>  <r_epik_Ionization_Penalty_Charging>  (58) 
0

>  <r_epik_Ionization_Penalty_Neutral>  (58) 
1.6138e-07

>  <r_epik_State_Penalty>  (58) 
-0

>  <r_epik_Charging_Adjusted_Penalty>  (58) 
0

>  <i_epik_Tot_Q>  (58) 
0

>  <i_epik_Tot_abs_Q>  (58) 
0

>  <s_epik_Chemistry_Notes>  (58) 
This compound has an ester and may undergo hydrolysis at high or low pH. This compound contains an acetal/aminal-like group ( X-CH(R)-Y where X, Y are N, S, or O) that may be acid/base labile, releasing an aldehyde.

>  <s_lp_Force_Field>  (58) 
OPLS3e

>  <r_lp_Energy>  (58) 
342.116

>  <b_lp_Chiralities_Consistent>  (58) 
1

>  <s_lp_Variant>  (58) 
21:0-1

>  <s_i_glide_gridfile>  (58) 
pfpi4k_grid

>  <i_i_glide_lignum>  (58) 
30

>  <i_i_glide_rotatable_bonds>  (58) 
4

>  <r_i_docking_score>  (58) 
-1.66262

>  <r_i_glide_ligand_efficiency>  (58) 
-0.0377867

>  <r_i_glide_ligand_efficiency_sa>  (58) 
-0.1334

>  <r_i_glide_ligand_efficiency_ln>  (58) 
-0.347523

>  <r_i_glide_gscore>  (58) 
-1.66262

>  <r_i_glide_lipo>  (58) 
-0.243046

>  <r_i_glide_hbond>  (58) 
0

>  <r_i_glide_metal>  (58) 
-0

>  <r_i_glide_rewards>  (58) 
-0.0680192

>  <r_i_glide_evdw>  (58) 
-23.8146

>  <r_i_glide_ecoul>  (58) 
-1.03841

>  <r_i_glide_erotb>  (58) 
0

>  <r_i_glide_esite>  (58) 
-0.00506057

>  <r_i_glide_emodel>  (58) 
-27.071

>  <r_i_glide_energy>  (58) 
-24.853

>  <r_i_glide_einternal>  (58) 
0.356787

>  <r_i_glide_intrahb_reward>  (58) 
-0

>  <i_i_glide_confnum>  (58) 
1

>  <i_i_glide_posenum>  (58) 
2

>  <r_i_glide_eff_state_penalty>  (58) 
0

>  <ligand_id>  (58) 
21

>  <original_smiles>  (58) 
COC12C3C(C)C4OC(=O)C35COC5CC4C34C(C5(C)CC(=O)OC5OC3(C)C)C3(C)C(C)C(C)(C(C)CC31O)C4(O)C2O

>  <smiles>  (58) 
[H]OC1([H])C2(OC([H])([H])[H])C3([H])C([H])(C([H])([H])[H])C4([H])OC(=O)C35C([H])([H])OC5([H])C([H])([H])C4([H])C34C([H])(C5(C([H])([H])[H])C([H])(OC(=O)C5([H])[H])OC3(C([H])([H])[H])C([H])([H])[H])C3(C([H])([H])[H])C([H])(C([H])([H])[H])C(C([H])([H])[H])(C([H])(C([H])([H])[H])C([H])([H])C23O[H])C14O[H]

$$$$
22:0:0
     RDKit          3D

 69 74  0  0  1  0  0  0  0  0999 V2000
    2.3947   -8.1742    4.6135 C   0  0  0  0  0  0  0  0  0  0  0  0
    2.9895   -6.7433    4.5358 C   0  0  2  0  0  0  0  0  0  0  0  0
    3.5469   -6.4482    5.9452 C   0  0  0  0  0  0  0  0  0  0  0  0
    4.0587   -5.0191    6.1029 C   0  0  0  0  0  0  0  0  0  0  0  0
    2.9368   -4.0286    5.7904 C   0  0  1  0  0  0  0  0  0  0  0  0
    3.3965   -2.7218    6.0581 O   0  0  0  0  0  0  0  0  0  0  0  0
    2.2171   -4.1955    4.4011 C   0  0  2  0  0  0  0  0  0  0  0  0
    0.8418   -3.4851    4.5982 C   0  0  0  0  0  0  0  0  0  0  0  0
    1.8696   -5.7210    4.1610 C   0  0  1  0  0  0  0  0  0  0  0  0
    1.3356   -6.0196    2.7327 C   0  0  0  0  0  0  0  0  0  0  0  0
    2.4560   -6.1609    1.6766 C   0  0  0  0  0  0  0  0  0  0  0  0
    3.8572   -5.8329    2.2476 C   0  0  2  0  0  0  0  0  0  0  0  0
    4.1234   -6.7387    3.4765 C   0  0  0  0  0  0  0  0  0  0  0  0
    4.1282   -4.2992    2.4465 C   0  0  1  0  0  0  0  0  0  0  0  0
    5.3026   -4.1724    3.2137 O   0  0  0  0  0  0  0  0  0  0  0  0
    4.4115   -3.5914    1.0761 C   0  0  2  0  0  0  0  0  0  0  0  0
    5.4830   -4.1209    0.0921 C   0  0  1  0  0  0  0  0  0  0  0  0
    5.0113   -5.2001   -0.6980 O   0  0  0  0  0  0  0  0  0  0  0  0
    5.8269   -2.9287   -0.8304 C   0  0  0  0  0  0  0  0  0  0  0  0
    4.9583   -1.7336   -0.3591 C   0  0  1  0  0  0  0  0  0  0  0  0
    3.7359   -1.4497   -1.2782 C   0  0  2  0  0  0  0  0  0  0  0  0
    3.0337   -2.6555   -1.8593 C   0  0  0  0  0  0  0  0  0  0  0  0
    3.1070   -2.6472   -3.1870 C   0  0  0  0  0  0  0  0  0  0  0  0
    3.8286   -1.4373   -3.5774 C   0  0  0  0  0  0  0  0  0  0  0  0
    4.0804   -1.0669   -4.7218 O   0  0  0  0  0  0  0  0  0  0  0  0
    4.1858   -0.7906   -2.4498 O   0  0  0  0  0  0  0  0  0  0  0  0
    4.6670   -2.0646    1.1325 C   0  0  2  0  0  0  0  0  0  0  0  0
    5.9441   -1.6310    1.9152 C   0  0  0  0  0  0  0  0  0  0  0  0
    3.4373   -1.3922    1.7764 C   0  0  0  0  0  0  0  0  0  0  0  0
    3.1303   -1.9965    3.1647 C   0  0  0  0  0  0  0  0  0  0  0  0
    2.9218   -3.5450    3.1295 C   0  0  2  0  0  0  0  0  0  0  0  0
    3.1367   -8.8893    4.9709 H   0  0  0  0  0  0  0  0  0  0  0  0
    2.0541   -8.5417    3.6450 H   0  0  0  0  0  0  0  0  0  0  0  0
    1.5478   -8.2251    5.2979 H   0  0  0  0  0  0  0  0  0  0  0  0
    2.7527   -6.6050    6.6775 H   0  0  0  0  0  0  0  0  0  0  0  0
    4.3375   -7.1570    6.2004 H   0  0  0  0  0  0  0  0  0  0  0  0
    4.3828   -4.8800    7.1343 H   0  0  0  0  0  0  0  0  0  0  0  0
    4.9471   -4.8524    5.5079 H   0  0  0  0  0  0  0  0  0  0  0  0
    2.1864   -4.2125    6.5627 H   0  0  0  0  0  0  0  0  0  0  0  0
    4.0774   -2.5108    5.4367 H   0  0  0  0  0  0  0  0  0  0  0  0
    0.2463   -3.4525    3.6861 H   0  0  0  0  0  0  0  0  0  0  0  0
    0.9522   -2.4606    4.9534 H   0  0  0  0  0  0  0  0  0  0  0  0
    0.2378   -3.9888    5.3556 H   0  0  0  0  0  0  0  0  0  0  0  0
    1.0494   -5.9546    4.8395 H   0  0  0  0  0  0  0  0  0  0  0  0
    0.7533   -6.9408    2.7421 H   0  0  0  0  0  0  0  0  0  0  0  0
    0.6217   -5.2585    2.4307 H   0  0  0  0  0  0  0  0  0  0  0  0
    2.4632   -7.1926    1.3180 H   0  0  0  0  0  0  0  0  0  0  0  0
    2.2318   -5.5610    0.7949 H   0  0  0  0  0  0  0  0  0  0  0  0
    4.5800   -6.1913    1.5208 H   0  0  0  0  0  0  0  0  0  0  0  0
    5.0960   -6.5399    3.9277 H   0  0  0  0  0  0  0  0  0  0  0  0
    4.2416   -7.7551    3.0966 H   0  0  0  0  0  0  0  0  0  0  0  0
    5.1757   -4.6491    4.0174 H   0  0  0  0  0  0  0  0  0  0  0  0
    3.4633   -3.6913    0.5625 H   0  0  0  0  0  0  0  0  0  0  0  0
    6.3769   -4.4360    0.6278 H   0  0  0  0  0  0  0  0  0  0  0  0
    4.2800   -4.9250   -1.2303 H   0  0  0  0  0  0  0  0  0  0  0  0
    6.8840   -2.6864   -0.7137 H   0  0  0  0  0  0  0  0  0  0  0  0
    5.7024   -3.1427   -1.8884 H   0  0  0  0  0  0  0  0  0  0  0  0
    5.5572   -0.8212   -0.3957 H   0  0  0  0  0  0  0  0  0  0  0  0
    2.5164   -3.4072   -1.2790 H   0  0  0  0  0  0  0  0  0  0  0  0
    2.6939   -3.3780   -3.8632 H   0  0  0  0  0  0  0  0  0  0  0  0
    3.0140   -0.7982   -0.7850 H   0  0  0  0  0  0  0  0  0  0  0  0
    6.1789   -0.5760    1.7549 H   0  0  0  0  0  0  0  0  0  0  0  0
    6.8213   -2.2041    1.6138 H   0  0  0  0  0  0  0  0  0  0  0  0
    5.8593   -1.7543    2.9920 H   0  0  0  0  0  0  0  0  0  0  0  0
    3.5918   -0.3149    1.8616 H   0  0  0  0  0  0  0  0  0  0  0  0
    2.5533   -1.5311    1.1539 H   0  0  0  0  0  0  0  0  0  0  0  0
    3.9302   -1.7297    3.8492 H   0  0  0  0  0  0  0  0  0  0  0  0
    2.2409   -1.4917    3.5399 H   0  0  0  0  0  0  0  0  0  0  0  0
    2.1321   -3.6020    2.3817 H   0  0  0  0  0  0  0  0  0  0  0  0
  2  1  1  1
  1 32  1  0
  1 33  1  0
  1 34  1  0
  2  9  1  0
  2 13  1  0
  2  3  1  0
  3  4  1  0
  3 35  1  0
  3 36  1  0
  4  5  1  0
  4 37  1  0
  4 38  1  0
  5  6  1  0
  5  7  1  0
  5 39  1  1
  6 40  1  0
  7 31  1  0
  7  8  1  1
  7  9  1  0
  8 41  1  0
  8 42  1  0
  8 43  1  0
  9 10  1  0
  9 44  1  1
 10 11  1  0
 10 45  1  0
 10 46  1  0
 11 12  1  0
 11 47  1  0
 11 48  1  0
 12 13  1  0
 12 14  1  0
 12 49  1  6
 13 50  1  0
 13 51  1  0
 14 31  1  0
 14 15  1  1
 14 16  1  0
 15 52  1  0
 16 27  1  0
 16 17  1  0
 16 53  1  6
 17 18  1  0
 17 19  1  0
 17 54  1  1
 18 55  1  0
 19 20  1  0
 19 56  1  0
 19 57  1  0
 20 27  1  0
 20 58  1  1
 20 21  1  0
 21 26  1  0
 21 22  1  0
 21 61  1  1
 22 59  1  0
 22 23  2  0
 23 60  1  0
 23 24  1  0
 24 25  2  0
 24 26  1  0
 27 28  1  1
 27 29  1  0
 28 62  1  0
 28 63  1  0
 28 64  1  0
 29 30  1  0
 29 65  1  0
 29 66  1  0
 30 31  1  0
 30 67  1  0
 30 68  1  0
 31 69  1  6
M  END
>  <i_m_ct_stereo_status>  (59) 
1

>  <s_m_source_file>  (59) 
/var/tmp/pbs.5076255.sched01/tmppe38rura/0ules8z9c.sdf

>  <i_m_source_file_index>  (59) 
31

>  <i_lp_mmshare_version>  (59) 
48012

>  <i_f3d_flags>  (59) 
0

>  <s_epik_input>  (59) 
W0NIM11bQ0BAXTEyW0NASF0zW0NAQF0oW0NIM10pKFtDQEhdKFtPSF0pW0NIMl1bQ0gyXTEpW0NAQEhdNFtDQEBdKFtPSF0pKFtDQEBIXShbQ0gyXTIpW0NIMl1bQ0gyXTMpW0NASF01W0NAXShbQ0gzXSkoW0NIMl1bQ0gyXTQpW0NAQEhdKFtDSDJdW0NAQEhdNVtPSF0pYzZbY0hdW2NIXWMobzYpW09IXQ==

>  <s_epik_cmdline>  (59) 
J2VwaWtfcHl0aG9uJywgJy1waHQnLCAnMi4wJywgJy1waCcsICc3LjAnLCAnLXRuJywgJzgnLCAnLW1hJywgJzIwMCcsICctaW1hZScsICc8aW5maWxlLm1hZT4nLCAnLW9tYWUnLCAnPG91dGZpbGUubWFlPic=

>  <r_lp_tautomer_probability>  (59) 
1

>  <r_epik_Ionization_Penalty>  (59) 
5.85048e-06

>  <r_epik_Ionization_Penalty_Charging>  (59) 
0

>  <r_epik_Ionization_Penalty_Neutral>  (59) 
5.85048e-06

>  <r_epik_State_Penalty>  (59) 
-0

>  <r_epik_Charging_Adjusted_Penalty>  (59) 
0

>  <i_epik_Tot_Q>  (59) 
0

>  <i_epik_Tot_abs_Q>  (59) 
0

>  <s_epik_Chemistry_Notes>  (59) 
This compound has an ester and may undergo hydrolysis at high or low pH.

>  <s_lp_Force_Field>  (59) 
OPLS3e

>  <r_lp_Energy>  (59) 
80.0747

>  <b_lp_Chiralities_Consistent>  (59) 
1

>  <s_lp_Variant>  (59) 
22:0-1

>  <s_i_glide_gridfile>  (59) 
pfpi4k_grid

>  <i_i_glide_lignum>  (59) 
31

>  <i_i_glide_rotatable_bonds>  (59) 
4

>  <r_i_docking_score>  (59) 
-3.8171

>  <r_i_glide_ligand_efficiency>  (59) 
-0.123132

>  <r_i_glide_ligand_efficiency_sa>  (59) 
-0.386806

>  <r_i_glide_ligand_efficiency_ln>  (59) 
-0.860874

>  <r_i_glide_gscore>  (59) 
-3.8171

>  <r_i_glide_lipo>  (59) 
-0.362847

>  <r_i_glide_hbond>  (59) 
-0.411375

>  <r_i_glide_metal>  (59) 
-0

>  <r_i_glide_rewards>  (59) 
-0.77295

>  <r_i_glide_evdw>  (59) 
-31.578

>  <r_i_glide_ecoul>  (59) 
-5.32183

>  <r_i_glide_erotb>  (59) 
0.107243

>  <r_i_glide_esite>  (59) 
0

>  <r_i_glide_emodel>  (59) 
-44.3439

>  <r_i_glide_energy>  (59) 
-36.8998

>  <r_i_glide_einternal>  (59) 
1.87522

>  <r_i_glide_intrahb_reward>  (59) 
-0

>  <i_i_glide_confnum>  (59) 
2

>  <i_i_glide_posenum>  (59) 
28

>  <r_i_glide_eff_state_penalty>  (59) 
0

>  <ligand_id>  (59) 
22

>  <original_smiles>  (59) 
CC12CCC(O)C3(C)C1CCC(C2)C1(O)C2C(O)CC(c4ccc(O)o4)C2(C)CCC31

>  <smiles>  (59) 
[H]OC1([H])C([H])([H])C([H])(C2([H])OC(=O)C([H])=C2[H])C2(C([H])([H])[H])C([H])([H])C([H])([H])C3([H])C(O[H])(C4([H])C([H])([H])C([H])([H])C5([H])C(C([H])([H])[H])(C([H])([H])C([H])([H])C([H])(O[H])C35C([H])([H])[H])C4([H])[H])C12[H]

$$$$
22:0:1
     RDKit          3D

 69 74  0  0  1  0  0  0  0  0999 V2000
    2.8966   -7.7657    4.5440 C   0  0  0  0  0  0  0  0  0  0  0  0
    3.5115   -6.3546    4.3613 C   0  0  2  0  0  0  0  0  0  0  0  0
    4.2228   -6.0353    5.6941 C   0  0  0  0  0  0  0  0  0  0  0  0
    4.7775   -4.6142    5.7523 C   0  0  0  0  0  0  0  0  0  0  0  0
    3.6486   -3.6104    5.5320 C   0  0  1  0  0  0  0  0  0  0  0  0
    4.1859   -2.3189    5.6950 O   0  0  0  0  0  0  0  0  0  0  0  0
    2.7888   -3.7949    4.2303 C   0  0  2  0  0  0  0  0  0  0  0  0
    1.4571   -3.0414    4.5438 C   0  0  0  0  0  0  0  0  0  0  0  0
    2.3844   -5.3149    4.0742 C   0  0  1  0  0  0  0  0  0  0  0  0
    1.6972   -5.6387    2.7187 C   0  0  0  0  0  0  0  0  0  0  0  0
    2.6946   -5.8418    1.5531 C   0  0  0  0  0  0  0  0  0  0  0  0
    4.1520   -5.5354    1.9647 C   0  0  2  0  0  0  0  0  0  0  0  0
    4.5271   -6.4105    3.1902 C   0  0  0  0  0  0  0  0  0  0  0  0
    4.4719   -4.0052    2.0797 C   0  0  1  0  0  0  0  0  0  0  0  0
    5.7366   -3.9177    2.6813 O   0  0  0  0  0  0  0  0  0  0  0  0
    4.6317   -3.3338    0.6717 C   0  0  2  0  0  0  0  0  0  0  0  0
    5.6094   -3.9105   -0.3794 C   0  0  1  0  0  0  0  0  0  0  0  0
    5.0069   -4.9429   -1.1123 O   0  0  0  0  0  0  0  0  0  0  0  0
    5.8798   -2.7590   -1.3721 C   0  0  0  0  0  0  0  0  0  0  0  0
    5.0804   -1.5379   -0.8592 C   0  0  1  0  0  0  0  0  0  0  0  0
    3.7826   -1.2504   -1.6596 C   0  0  2  0  0  0  0  0  0  0  0  0
    3.0736   -2.4384   -2.2536 C   0  0  0  0  0  0  0  0  0  0  0  0
    3.0261   -2.3409   -3.5778 C   0  0  0  0  0  0  0  0  0  0  0  0
    3.6734   -1.0846   -3.9486 C   0  0  0  0  0  0  0  0  0  0  0  0
    3.8175   -0.6381   -5.0890 O   0  0  0  0  0  0  0  0  0  0  0  0
    4.1131   -0.4993   -2.8223 O   0  0  0  0  0  0  0  0  0  0  0  0
    4.9321   -1.8201    0.6608 C   0  0  2  0  0  0  0  0  0  0  0  0
    6.3017   -1.4155    1.2895 C   0  0  0  0  0  0  0  0  0  0  0  0
    3.7984   -1.0955    1.4116 C   0  0  0  0  0  0  0  0  0  0  0  0
    3.6264   -1.6554    2.8414 C   0  0  0  0  0  0  0  0  0  0  0  0
    3.3704   -3.1966    2.8730 C   0  0  2  0  0  0  0  0  0  0  0  0
    3.6558   -8.4895    4.8437 H   0  0  0  0  0  0  0  0  0  0  0  0
    2.4480   -8.1505    3.6277 H   0  0  0  0  0  0  0  0  0  0  0  0
    2.1249   -7.7736    5.3141 H   0  0  0  0  0  0  0  0  0  0  0  0
    3.5067   -6.1499    6.5109 H   0  0  0  0  0  0  0  0  0  0  0  0
    5.0219   -6.7557    5.8871 H   0  0  0  0  0  0  0  0  0  0  0  0
    5.2146   -4.4535    6.7393 H   0  0  0  0  0  0  0  0  0  0  0  0
    5.5973   -4.4771    5.0567 H   0  0  0  0  0  0  0  0  0  0  0  0
    2.9819   -3.7486    6.3855 H   0  0  0  0  0  0  0  0  0  0  0  0
    3.4790   -1.6941    5.6933 H   0  0  0  0  0  0  0  0  0  0  0  0
    0.7687   -3.0257    3.6961 H   0  0  0  0  0  0  0  0  0  0  0  0
    1.6225   -2.0067    4.8472 H   0  0  0  0  0  0  0  0  0  0  0  0
    0.9255   -3.5069    5.3779 H   0  0  0  0  0  0  0  0  0  0  0  0
    1.6336   -5.5067    4.8415 H   0  0  0  0  0  0  0  0  0  0  0  0
    1.0952   -6.5423    2.8184 H   0  0  0  0  0  0  0  0  0  0  0  0
    0.9803   -4.8599    2.4733 H   0  0  0  0  0  0  0  0  0  0  0  0
    2.6380   -6.8836    1.2289 H   0  0  0  0  0  0  0  0  0  0  0  0
    2.3930   -5.2558    0.6840 H   0  0  0  0  0  0  0  0  0  0  0  0
    4.7931   -5.9363    1.1852 H   0  0  0  0  0  0  0  0  0  0  0  0
    5.5462   -6.2260    3.5332 H   0  0  0  0  0  0  0  0  0  0  0  0
    4.5815   -7.4417    2.8333 H   0  0  0  0  0  0  0  0  0  0  0  0
    5.6788   -4.3364    3.5249 H   0  0  0  0  0  0  0  0  0  0  0  0
    3.6384   -3.4136    0.2412 H   0  0  0  0  0  0  0  0  0  0  0  0
    6.5436   -4.2535    0.0817 H   0  0  0  0  0  0  0  0  0  0  0  0
    4.7472   -5.6275   -0.5149 H   0  0  0  0  0  0  0  0  0  0  0  0
    6.9483   -2.5493   -1.3811 H   0  0  0  0  0  0  0  0  0  0  0  0
    5.6420   -3.0205   -2.4025 H   0  0  0  0  0  0  0  0  0  0  0  0
    5.6929   -0.6465   -0.9818 H   0  0  0  0  0  0  0  0  0  0  0  0
    2.6703   -3.2613   -1.6840 H   0  0  0  0  0  0  0  0  0  0  0  0
    2.5961   -3.0464   -4.2712 H   0  0  0  0  0  0  0  0  0  0  0  0
    3.0681   -0.6697   -1.0790 H   0  0  0  0  0  0  0  0  0  0  0  0
    6.5321   -0.3720    1.0644 H   0  0  0  0  0  0  0  0  0  0  0  0
    7.1345   -2.0165    0.9160 H   0  0  0  0  0  0  0  0  0  0  0  0
    6.3273   -1.5009    2.3748 H   0  0  0  0  0  0  0  0  0  0  0  0
    3.9879   -0.0219    1.4434 H   0  0  0  0  0  0  0  0  0  0  0  0
    2.8464   -1.2313    0.8987 H   0  0  0  0  0  0  0  0  0  0  0  0
    4.5027   -1.3979    3.4321 H   0  0  0  0  0  0  0  0  0  0  0  0
    2.7937   -1.1126    3.2884 H   0  0  0  0  0  0  0  0  0  0  0  0
    2.5047   -3.2480    2.2131 H   0  0  0  0  0  0  0  0  0  0  0  0
  2  1  1  1
  1 32  1  0
  1 33  1  0
  1 34  1  0
  2  9  1  0
  2 13  1  0
  2  3  1  0
  3  4  1  0
  3 35  1  0
  3 36  1  0
  4  5  1  0
  4 37  1  0
  4 38  1  0
  5  6  1  0
  5  7  1  0
  5 39  1  1
  6 40  1  0
  7 31  1  0
  7  8  1  1
  7  9  1  0
  8 41  1  0
  8 42  1  0
  8 43  1  0
  9 10  1  0
  9 44  1  1
 10 11  1  0
 10 45  1  0
 10 46  1  0
 11 12  1  0
 11 47  1  0
 11 48  1  0
 12 13  1  0
 12 14  1  0
 12 49  1  6
 13 50  1  0
 13 51  1  0
 14 31  1  0
 14 15  1  1
 14 16  1  0
 15 52  1  0
 16 27  1  0
 16 17  1  0
 16 53  1  6
 17 18  1  0
 17 19  1  0
 17 54  1  1
 18 55  1  0
 19 20  1  0
 19 56  1  0
 19 57  1  0
 20 27  1  0
 20 58  1  1
 20 21  1  0
 21 26  1  0
 21 22  1  0
 21 61  1  1
 22 59  1  0
 22 23  2  0
 23 60  1  0
 23 24  1  0
 24 25  2  0
 24 26  1  0
 27 28  1  1
 27 29  1  0
 28 62  1  0
 28 63  1  0
 28 64  1  0
 29 30  1  0
 29 65  1  0
 29 66  1  0
 30 31  1  0
 30 67  1  0
 30 68  1  0
 31 69  1  6
M  END
>  <i_m_ct_stereo_status>  (60) 
1

>  <s_m_source_file>  (60) 
/var/tmp/pbs.5076255.sched01/tmppe38rura/0ules8z9c.sdf

>  <i_m_source_file_index>  (60) 
31

>  <i_lp_mmshare_version>  (60) 
48012

>  <i_f3d_flags>  (60) 
0

>  <s_epik_input>  (60) 
W0NIM11bQ0BAXTEyW0NASF0zW0NAQF0oW0NIM10pKFtDQEhdKFtPSF0pW0NIMl1bQ0gyXTEpW0NAQEhdNFtDQEBdKFtPSF0pKFtDQEBIXShbQ0gyXTIpW0NIMl1bQ0gyXTMpW0NASF01W0NAXShbQ0gzXSkoW0NIMl1bQ0gyXTQpW0NAQEhdKFtDSDJdW0NAQEhdNVtPSF0pYzZbY0hdW2NIXWMobzYpW09IXQ==

>  <s_epik_cmdline>  (60) 
J2VwaWtfcHl0aG9uJywgJy1waHQnLCAnMi4wJywgJy1waCcsICc3LjAnLCAnLXRuJywgJzgnLCAnLW1hJywgJzIwMCcsICctaW1hZScsICc8aW5maWxlLm1hZT4nLCAnLW9tYWUnLCAnPG91dGZpbGUubWFlPic=

>  <r_lp_tautomer_probability>  (60) 
1

>  <r_epik_Ionization_Penalty>  (60) 
5.85048e-06

>  <r_epik_Ionization_Penalty_Charging>  (60) 
0

>  <r_epik_Ionization_Penalty_Neutral>  (60) 
5.85048e-06

>  <r_epik_State_Penalty>  (60) 
-0

>  <r_epik_Charging_Adjusted_Penalty>  (60) 
0

>  <i_epik_Tot_Q>  (60) 
0

>  <i_epik_Tot_abs_Q>  (60) 
0

>  <s_epik_Chemistry_Notes>  (60) 
This compound has an ester and may undergo hydrolysis at high or low pH.

>  <s_lp_Force_Field>  (60) 
OPLS3e

>  <r_lp_Energy>  (60) 
80.0747

>  <b_lp_Chiralities_Consistent>  (60) 
1

>  <s_lp_Variant>  (60) 
22:0-1

>  <s_i_glide_gridfile>  (60) 
pfpi4k_grid

>  <i_i_glide_lignum>  (60) 
31

>  <i_i_glide_rotatable_bonds>  (60) 
4

>  <r_i_docking_score>  (60) 
-3.21571

>  <r_i_glide_ligand_efficiency>  (60) 
-0.103733

>  <r_i_glide_ligand_efficiency_sa>  (60) 
-0.325864

>  <r_i_glide_ligand_efficiency_ln>  (60) 
-0.725241

>  <r_i_glide_gscore>  (60) 
-3.21571

>  <r_i_glide_lipo>  (60) 
-0.554872

>  <r_i_glide_hbond>  (60) 
-0.261452

>  <r_i_glide_metal>  (60) 
-0

>  <r_i_glide_rewards>  (60) 
-0.661324

>  <r_i_glide_evdw>  (60) 
-31.6449

>  <r_i_glide_ecoul>  (60) 
-1.75375

>  <r_i_glide_erotb>  (60) 
0.107243

>  <r_i_glide_esite>  (60) 
0

>  <r_i_glide_emodel>  (60) 
-38.7592

>  <r_i_glide_energy>  (60) 
-33.3986

>  <r_i_glide_einternal>  (60) 
3.26803

>  <r_i_glide_intrahb_reward>  (60) 
-0

>  <i_i_glide_confnum>  (60) 
2

>  <i_i_glide_posenum>  (60) 
23

>  <r_i_glide_eff_state_penalty>  (60) 
0

>  <ligand_id>  (60) 
22

>  <original_smiles>  (60) 
CC12CCC(O)C3(C)C1CCC(C2)C1(O)C2C(O)CC(c4ccc(O)o4)C2(C)CCC31

>  <smiles>  (60) 
[H]OC1([H])C([H])([H])C([H])(C2([H])OC(=O)C([H])=C2[H])C2(C([H])([H])[H])C([H])([H])C([H])([H])C3([H])C(O[H])(C4([H])C([H])([H])C([H])([H])C5([H])C(C([H])([H])[H])(C([H])([H])C([H])([H])C([H])(O[H])C35C([H])([H])[H])C4([H])[H])C12[H]

$$$$
22:0:2
     RDKit          3D

 69 74  0  0  1  0  0  0  0  0999 V2000
    3.1879   -7.7377    4.4721 C   0  0  0  0  0  0  0  0  0  0  0  0
    3.7323   -6.2990    4.2591 C   0  0  2  0  0  0  0  0  0  0  0  0
    4.4606   -5.9359    5.5700 C   0  0  0  0  0  0  0  0  0  0  0  0
    4.9555   -4.4929    5.6016 C   0  0  0  0  0  0  0  0  0  0  0  0
    3.7787   -3.5365    5.3994 C   0  0  1  0  0  0  0  0  0  0  0  0
    4.2444   -2.2133    5.5588 O   0  0  0  0  0  0  0  0  0  0  0  0
    2.8868   -3.7757    4.1231 C   0  0  2  0  0  0  0  0  0  0  0  0
    1.5321   -3.0865    4.4701 C   0  0  0  0  0  0  0  0  0  0  0  0
    2.5488   -5.3165    3.9930 C   0  0  1  0  0  0  0  0  0  0  0  0
    1.8398   -5.6856    2.6593 C   0  0  0  0  0  0  0  0  0  0  0  0
    2.8154   -5.8542    1.4713 C   0  0  0  0  0  0  0  0  0  0  0  0
    4.2676   -5.4758    1.8405 C   0  0  2  0  0  0  0  0  0  0  0  0
    4.7147   -6.3173    3.0610 C   0  0  0  0  0  0  0  0  0  0  0  0
    4.5123   -3.9305    1.9313 C   0  0  1  0  0  0  0  0  0  0  0  0
    5.7800   -3.7567    2.5100 O   0  0  0  0  0  0  0  0  0  0  0  0
    4.6070   -3.2668    0.5147 C   0  0  2  0  0  0  0  0  0  0  0  0
    5.5913   -3.8006   -0.5428 C   0  0  1  0  0  0  0  0  0  0  0  0
    5.0094   -4.8745   -1.2276 O   0  0  0  0  0  0  0  0  0  0  0  0
    5.7882   -2.6603   -1.5634 C   0  0  0  0  0  0  0  0  0  0  0  0
    4.9432   -1.4702   -1.0444 C   0  0  1  0  0  0  0  0  0  0  0  0
    3.6128   -1.2499   -1.8137 C   0  0  2  0  0  0  0  0  0  0  0  0
    3.0244   -2.4444   -2.5158 C   0  0  0  0  0  0  0  0  0  0  0  0
    2.9610   -2.2275   -3.8238 C   0  0  0  0  0  0  0  0  0  0  0  0
    3.4639   -0.8767   -4.0753 C   0  0  0  0  0  0  0  0  0  0  0  0
    3.5432   -0.2961   -5.1556 O   0  0  0  0  0  0  0  0  0  0  0  0
    3.8588   -0.3679   -2.8939 O   0  0  0  0  0  0  0  0  0  0  0  0
    4.8460   -1.7425    0.4829 C   0  0  2  0  0  0  0  0  0  0  0  0
    6.2076   -1.2716    1.0769 C   0  0  0  0  0  0  0  0  0  0  0  0
    3.6980   -1.0627    1.2618 C   0  0  0  0  0  0  0  0  0  0  0  0
    3.5886   -1.6138    2.6996 C   0  0  0  0  0  0  0  0  0  0  0  0
    3.4020   -3.1655    2.7468 C   0  0  2  0  0  0  0  0  0  0  0  0
    3.9870   -8.4228    4.7590 H   0  0  0  0  0  0  0  0  0  0  0  0
    2.7329   -8.1537    3.5738 H   0  0  0  0  0  0  0  0  0  0  0  0
    2.4380   -7.7740    5.2639 H   0  0  0  0  0  0  0  0  0  0  0  0
    3.7741   -6.0731    6.4079 H   0  0  0  0  0  0  0  0  0  0  0  0
    5.2936   -6.6179    5.7497 H   0  0  0  0  0  0  0  0  0  0  0  0
    5.4063   -4.3020    6.5764 H   0  0  0  0  0  0  0  0  0  0  0  0
    5.7553   -4.3337    4.8875 H   0  0  0  0  0  0  0  0  0  0  0  0
    3.1408   -3.7001    6.2695 H   0  0  0  0  0  0  0  0  0  0  0  0
    4.8437   -2.0149    4.8556 H   0  0  0  0  0  0  0  0  0  0  0  0
    0.8194   -3.1087    3.6449 H   0  0  0  0  0  0  0  0  0  0  0  0
    1.6594   -2.0445    4.7620 H   0  0  0  0  0  0  0  0  0  0  0  0
    1.0445   -3.5633    5.3215 H   0  0  0  0  0  0  0  0  0  0  0  0
    1.8290   -5.5341    4.7814 H   0  0  0  0  0  0  0  0  0  0  0  0
    1.2871   -6.6173    2.7827 H   0  0  0  0  0  0  0  0  0  0  0  0
    1.0725   -4.9555    2.4157 H   0  0  0  0  0  0  0  0  0  0  0  0
    2.8005   -6.8994    1.1568 H   0  0  0  0  0  0  0  0  0  0  0  0
    2.4686   -5.2910    0.6032 H   0  0  0  0  0  0  0  0  0  0  0  0
    4.9081   -5.8528    1.0516 H   0  0  0  0  0  0  0  0  0  0  0  0
    5.7327   -6.0822    3.3727 H   0  0  0  0  0  0  0  0  0  0  0  0
    4.8112   -7.3470    2.7142 H   0  0  0  0  0  0  0  0  0  0  0  0
    5.7543   -4.1264    3.3751 H   0  0  0  0  0  0  0  0  0  0  0  0
    3.6108   -3.3882    0.0922 H   0  0  0  0  0  0  0  0  0  0  0  0
    6.5453   -4.1032   -0.1050 H   0  0  0  0  0  0  0  0  0  0  0  0
    4.8370   -5.5757   -0.6278 H   0  0  0  0  0  0  0  0  0  0  0  0
    6.8443   -2.3967   -1.5954 H   0  0  0  0  0  0  0  0  0  0  0  0
    5.5535   -2.9483   -2.5876 H   0  0  0  0  0  0  0  0  0  0  0  0
    5.5088   -0.5504   -1.1906 H   0  0  0  0  0  0  0  0  0  0  0  0
    2.7298   -3.3540   -2.0133 H   0  0  0  0  0  0  0  0  0  0  0  0
    2.6010   -2.9088   -4.5840 H   0  0  0  0  0  0  0  0  0  0  0  0
    2.8568   -0.7724   -1.2034 H   0  0  0  0  0  0  0  0  0  0  0  0
    6.3854   -0.2241    0.8384 H   0  0  0  0  0  0  0  0  0  0  0  0
    7.0584   -1.8341    0.6890 H   0  0  0  0  0  0  0  0  0  0  0  0
    6.2722   -1.3401    2.1597 H   0  0  0  0  0  0  0  0  0  0  0  0
    3.8344    0.0211    1.2776 H   0  0  0  0  0  0  0  0  0  0  0  0
    2.7345   -1.2500    0.7878 H   0  0  0  0  0  0  0  0  0  0  0  0
    4.4626   -1.3042    3.2649 H   0  0  0  0  0  0  0  0  0  0  0  0
    2.7421   -1.1097    3.1632 H   0  0  0  0  0  0  0  0  0  0  0  0
    2.5220   -3.2651    2.1108 H   0  0  0  0  0  0  0  0  0  0  0  0
  2  1  1  1
  1 32  1  0
  1 33  1  0
  1 34  1  0
  2  9  1  0
  2 13  1  0
  2  3  1  0
  3  4  1  0
  3 35  1  0
  3 36  1  0
  4  5  1  0
  4 37  1  0
  4 38  1  0
  5  6  1  0
  5  7  1  0
  5 39  1  1
  6 40  1  0
  7 31  1  0
  7  8  1  1
  7  9  1  0
  8 41  1  0
  8 42  1  0
  8 43  1  0
  9 10  1  0
  9 44  1  1
 10 11  1  0
 10 45  1  0
 10 46  1  0
 11 12  1  0
 11 47  1  0
 11 48  1  0
 12 13  1  0
 12 14  1  0
 12 49  1  6
 13 50  1  0
 13 51  1  0
 14 31  1  0
 14 15  1  1
 14 16  1  0
 15 52  1  0
 16 27  1  0
 16 17  1  0
 16 53  1  6
 17 18  1  0
 17 19  1  0
 17 54  1  1
 18 55  1  0
 19 20  1  0
 19 56  1  0
 19 57  1  0
 20 27  1  0
 20 58  1  1
 20 21  1  0
 21 26  1  0
 21 22  1  0
 21 61  1  1
 22 59  1  0
 22 23  2  0
 23 60  1  0
 23 24  1  0
 24 25  2  0
 24 26  1  0
 27 28  1  1
 27 29  1  0
 28 62  1  0
 28 63  1  0
 28 64  1  0
 29 30  1  0
 29 65  1  0
 29 66  1  0
 30 31  1  0
 30 67  1  0
 30 68  1  0
 31 69  1  6
M  END
>  <i_m_ct_stereo_status>  (61) 
1

>  <s_m_source_file>  (61) 
/var/tmp/pbs.5076255.sched01/tmppe38rura/0ules8z9c.sdf

>  <i_m_source_file_index>  (61) 
31

>  <i_lp_mmshare_version>  (61) 
48012

>  <i_f3d_flags>  (61) 
0

>  <s_epik_input>  (61) 
W0NIM11bQ0BAXTEyW0NASF0zW0NAQF0oW0NIM10pKFtDQEhdKFtPSF0pW0NIMl1bQ0gyXTEpW0NAQEhdNFtDQEBdKFtPSF0pKFtDQEBIXShbQ0gyXTIpW0NIMl1bQ0gyXTMpW0NASF01W0NAXShbQ0gzXSkoW0NIMl1bQ0gyXTQpW0NAQEhdKFtDSDJdW0NAQEhdNVtPSF0pYzZbY0hdW2NIXWMobzYpW09IXQ==

>  <s_epik_cmdline>  (61) 
J2VwaWtfcHl0aG9uJywgJy1waHQnLCAnMi4wJywgJy1waCcsICc3LjAnLCAnLXRuJywgJzgnLCAnLW1hJywgJzIwMCcsICctaW1hZScsICc8aW5maWxlLm1hZT4nLCAnLW9tYWUnLCAnPG91dGZpbGUubWFlPic=

>  <r_lp_tautomer_probability>  (61) 
1

>  <r_epik_Ionization_Penalty>  (61) 
5.85048e-06

>  <r_epik_Ionization_Penalty_Charging>  (61) 
0

>  <r_epik_Ionization_Penalty_Neutral>  (61) 
5.85048e-06

>  <r_epik_State_Penalty>  (61) 
-0

>  <r_epik_Charging_Adjusted_Penalty>  (61) 
0

>  <i_epik_Tot_Q>  (61) 
0

>  <i_epik_Tot_abs_Q>  (61) 
0

>  <s_epik_Chemistry_Notes>  (61) 
This compound has an ester and may undergo hydrolysis at high or low pH.

>  <s_lp_Force_Field>  (61) 
OPLS3e

>  <r_lp_Energy>  (61) 
80.0747

>  <b_lp_Chiralities_Consistent>  (61) 
1

>  <s_lp_Variant>  (61) 
22:0-1

>  <s_i_glide_gridfile>  (61) 
pfpi4k_grid

>  <i_i_glide_lignum>  (61) 
31

>  <i_i_glide_rotatable_bonds>  (61) 
4

>  <r_i_docking_score>  (61) 
-2.76176

>  <r_i_glide_ligand_efficiency>  (61) 
-0.089089

>  <r_i_glide_ligand_efficiency_sa>  (61) 
-0.279862

>  <r_i_glide_ligand_efficiency_ln>  (61) 
-0.622861

>  <r_i_glide_gscore>  (61) 
-2.76176

>  <r_i_glide_lipo>  (61) 
-0.461232

>  <r_i_glide_hbond>  (61) 
-0.0161931

>  <r_i_glide_metal>  (61) 
-0

>  <r_i_glide_rewards>  (61) 
-0.694421

>  <r_i_glide_evdw>  (61) 
-31.4788

>  <r_i_glide_ecoul>  (61) 
-0.821428

>  <r_i_glide_erotb>  (61) 
0.107243

>  <r_i_glide_esite>  (61) 
0

>  <r_i_glide_emodel>  (61) 
-36.2921

>  <r_i_glide_energy>  (61) 
-32.3002

>  <r_i_glide_einternal>  (61) 
3.84463

>  <r_i_glide_intrahb_reward>  (61) 
-0

>  <i_i_glide_confnum>  (61) 
5

>  <i_i_glide_posenum>  (61) 
12

>  <r_i_glide_eff_state_penalty>  (61) 
0

>  <ligand_id>  (61) 
22

>  <original_smiles>  (61) 
CC12CCC(O)C3(C)C1CCC(C2)C1(O)C2C(O)CC(c4ccc(O)o4)C2(C)CCC31

>  <smiles>  (61) 
[H]OC1([H])C([H])([H])C([H])(C2([H])OC(=O)C([H])=C2[H])C2(C([H])([H])[H])C([H])([H])C([H])([H])C3([H])C(O[H])(C4([H])C([H])([H])C([H])([H])C5([H])C(C([H])([H])[H])(C([H])([H])C([H])([H])C([H])(O[H])C35C([H])([H])[H])C4([H])[H])C12[H]

$$$$
24:0:0
     RDKit          3D

 69 75  0  0  1  0  0  0  0  0999 V2000
    4.1528   -0.4273    9.3074 C   0  0  0  0  0  0  0  0  0  0  0  0
    2.8147   -0.8087    8.6760 C   0  0  0  0  0  0  0  0  0  0  0  0
    1.8903   -1.2752    9.3328 O   0  0  0  0  0  0  0  0  0  0  0  0
    2.7882   -0.5504    7.3755 O   0  0  0  0  0  0  0  0  0  0  0  0
    1.6420   -0.7362    6.5431 C   0  0  0  0  0  0  0  0  0  0  0  0
    1.8087   -0.3253    4.9965 C   0  0  2  0  0  0  0  0  0  0  0  0
    0.6901   -1.0224    4.2091 C   0  0  1  0  0  0  0  0  0  0  0  0
    0.8545   -2.5662    4.2730 C   0  0  0  0  0  0  0  0  0  0  0  0
    2.2819   -3.0137    3.8141 C   0  0  1  0  0  0  0  0  0  0  0  0
    2.3128   -2.9795    2.2616 C   0  0  0  0  0  0  0  0  0  0  0  0
    3.5216   -3.6204    1.5400 C   0  0  1  0  0  0  0  0  0  0  0  0
    3.2861   -3.7220    0.0157 C   0  0  0  0  0  0  0  0  0  0  0  0
    3.9191   -2.5778   -0.5309 O   0  0  0  0  0  0  0  0  0  0  0  0
    4.7535   -1.9799    0.3180 C   0  0  0  0  0  0  0  0  0  0  0  0
    5.4747   -1.0082    0.0890 O   0  0  0  0  0  0  0  0  0  0  0  0
    4.6701   -2.7016    1.6057 C   0  0  2  0  0  0  0  0  0  0  0  0
    5.9279   -3.2904    2.0429 O   0  0  0  0  0  0  0  0  0  0  0  0
    5.3508   -2.2336    2.8774 C   0  0  2  0  0  0  0  0  0  0  0  0
    4.8629   -2.6807    4.2214 C   0  0  0  0  0  0  0  0  0  0  0  0
    3.4196   -2.2186    4.5638 C   0  0  1  0  0  0  0  0  0  0  0  0
    3.1730   -0.6983    4.4312 C   0  0  2  0  0  0  0  0  0  0  0  0
    4.0816    0.3953    5.0605 C   0  0  1  0  0  0  0  0  0  0  0  0
    5.0706    0.8010    4.1559 O   0  0  0  0  0  0  0  0  0  0  0  0
    3.1096    1.5893    5.4122 C   0  0  0  0  0  0  0  0  0  0  0  0
    1.7449    1.2213    4.7486 C   0  0  2  0  0  0  0  0  0  0  0  0
    0.4179    1.6445    5.3782 C   0  0  0  0  0  0  0  0  0  0  0  0
    0.3808    3.0256    6.0281 C   0  0  0  0  0  0  0  0  0  0  0  0
   -0.6804    1.1137    4.7806 C   0  0  0  0  0  0  0  0  0  0  0  0
   -0.6547   -0.3764    4.6051 C   0  0  0  0  0  0  0  0  0  0  0  0
   -1.6693   -1.0822    4.7217 O   0  0  0  0  0  0  0  0  0  0  0  0
   -0.9928    1.7268    3.4221 C   0  0  1  0  0  0  0  0  0  0  0  0
   -1.4653    3.0639    3.5331 O   0  0  0  0  0  0  0  0  0  0  0  0
    0.2707    1.6676    2.5242 C   0  0  0  0  0  0  0  0  0  0  0  0
    1.6714    1.7485    3.2305 C   0  0  1  0  0  0  0  0  0  0  0  0
    2.2641    3.1583    2.9910 C   0  0  0  0  0  0  0  0  0  0  0  0
    4.3501    0.6343    9.1691 H   0  0  0  0  0  0  0  0  0  0  0  0
    4.9731   -0.9732    8.8455 H   0  0  0  0  0  0  0  0  0  0  0  0
    4.1621   -0.6346   10.3768 H   0  0  0  0  0  0  0  0  0  0  0  0
    1.4375   -1.7953    6.6542 H   0  0  0  0  0  0  0  0  0  0  0  0
    0.7930   -0.2402    7.0007 H   0  0  0  0  0  0  0  0  0  0  0  0
    0.8249   -0.7799    3.1580 H   0  0  0  0  0  0  0  0  0  0  0  0
    0.6379   -2.9620    5.2676 H   0  0  0  0  0  0  0  0  0  0  0  0
    0.0871   -3.0275    3.6507 H   0  0  0  0  0  0  0  0  0  0  0  0
    2.3833   -4.0684    4.0848 H   0  0  0  0  0  0  0  0  0  0  0  0
    1.4396   -3.5457    1.9435 H   0  0  0  0  0  0  0  0  0  0  0  0
    2.1778   -1.9674    1.8821 H   0  0  0  0  0  0  0  0  0  0  0  0
    3.7680   -4.5916    1.9596 H   0  0  0  0  0  0  0  0  0  0  0  0
    3.8027   -4.5978   -0.3877 H   0  0  0  0  0  0  0  0  0  0  0  0
    2.2435   -3.7932   -0.2563 H   0  0  0  0  0  0  0  0  0  0  0  0
    5.9017   -1.3001    2.8257 H   0  0  0  0  0  0  0  0  0  0  0  0
    4.9395   -3.7656    4.2974 H   0  0  0  0  0  0  0  0  0  0  0  0
    5.5506   -2.2762    4.9624 H   0  0  0  0  0  0  0  0  0  0  0  0
    3.3142   -2.4886    5.6168 H   0  0  0  0  0  0  0  0  0  0  0  0
    3.1817   -0.5285    3.3584 H   0  0  0  0  0  0  0  0  0  0  0  0
    4.6259    0.0354    5.9285 H   0  0  0  0  0  0  0  0  0  0  0  0
    4.6638    1.2753    3.4551 H   0  0  0  0  0  0  0  0  0  0  0  0
    2.9563    1.6816    6.4884 H   0  0  0  0  0  0  0  0  0  0  0  0
    3.5093    2.5623    5.1518 H   0  0  0  0  0  0  0  0  0  0  0  0
    0.6473    2.9349    7.0821 H   0  0  0  0  0  0  0  0  0  0  0  0
   -0.6305    3.4437    5.9771 H   0  0  0  0  0  0  0  0  0  0  0  0
    1.0626    3.7241    5.5522 H   0  0  0  0  0  0  0  0  0  0  0  0
   -1.7919    1.1730    2.9218 H   0  0  0  0  0  0  0  0  0  0  0  0
   -1.2736    3.5213    2.7300 H   0  0  0  0  0  0  0  0  0  0  0  0
    0.2286    0.7691    1.9203 H   0  0  0  0  0  0  0  0  0  0  0  0
    0.1854    2.4547    1.7799 H   0  0  0  0  0  0  0  0  0  0  0  0
    2.3150    1.1398    2.5984 H   0  0  0  0  0  0  0  0  0  0  0  0
    1.7526    3.9440    3.5432 H   0  0  0  0  0  0  0  0  0  0  0  0
    2.2024    3.4314    1.9364 H   0  0  0  0  0  0  0  0  0  0  0  0
    3.3256    3.2125    3.2101 H   0  0  0  0  0  0  0  0  0  0  0  0
  1  2  1  0
  1 36  1  0
  1 37  1  0
  1 38  1  0
  2  3  2  0
  2  4  1  0
  4  5  1  0
  6  5  1  1
  5 39  1  0
  5 40  1  0
  6 21  1  0
  6 25  1  0
  6  7  1  0
  7 29  1  0
  7  8  1  0
  7 41  1  6
  8  9  1  0
  8 42  1  0
  8 43  1  0
  9 20  1  0
  9 10  1  0
  9 44  1  6
 10 11  1  0
 10 45  1  0
 10 46  1  0
 11 16  1  0
 11 12  1  0
 11 47  1  1
 12 13  1  0
 12 48  1  0
 12 49  1  0
 13 14  1  0
 14 15  2  0
 14 16  1  0
 16 18  1  0
 16 17  1  6
 17 18  1  0
 18 19  1  0
 18 50  1  1
 19 20  1  0
 19 51  1  0
 19 52  1  0
 20 21  1  0
 20 53  1  1
 21 22  1  0
 21 54  1  6
 22 23  1  0
 22 24  1  0
 22 55  1  1
 23 56  1  0
 25 24  1  1
 24 57  1  0
 24 58  1  0
 25 34  1  0
 25 26  1  0
 26 27  1  0
 26 28  2  0
 27 59  1  0
 27 60  1  0
 27 61  1  0
 28 29  1  0
 28 31  1  0
 29 30  2  0
 31 32  1  0
 31 33  1  0
 31 62  1  6
 32 63  1  0
 33 34  1  0
 33 64  1  0
 33 65  1  0
 34 35  1  0
 34 66  1  6
 35 67  1  0
 35 68  1  0
 35 69  1  0
M  END
>  <i_m_ct_stereo_status>  (62) 
1

>  <s_m_source_file>  (62) 
/var/tmp/pbs.5076255.sched01/tmppe38rura/0ules8z9c.sdf

>  <i_m_source_file_index>  (62) 
33

>  <i_lp_mmshare_version>  (62) 
48012

>  <i_f3d_flags>  (62) 
0

>  <s_epik_input>  (62) 
W0NIM11bQ0BASF0xW0NIMl1bQ0BIXShbT0hdKUMoQyg9TylbQ0BASF0yW0NIMl0zKT1DKFtDSDNdKVtDQEBdMShbQ0gyXVtDQEBIXTRbT0hdKVtDQF0yKFtDSDJdT0MoPU8pW0NIM10pW0NAQEhdNFtDQEhdKFtDSDJdW0NASF01TzYpW0NAQEhdM1tDSDJdW0NASF0oW0NAQF01NjcpW0NIMl1PQzc9Tw==

>  <s_epik_cmdline>  (62) 
J2VwaWtfcHl0aG9uJywgJy1waHQnLCAnMi4wJywgJy1waCcsICc3LjAnLCAnLXRuJywgJzgnLCAnLW1hJywgJzIwMCcsICctaW1hZScsICc8aW5maWxlLm1hZT4nLCAnLW9tYWUnLCAnPG91dGZpbGUubWFlPic=

>  <r_lp_tautomer_probability>  (62) 
1

>  <r_epik_Ionization_Penalty>  (62) 
1.93352e-07

>  <r_epik_Ionization_Penalty_Charging>  (62) 
0

>  <r_epik_Ionization_Penalty_Neutral>  (62) 
1.93352e-07

>  <r_epik_State_Penalty>  (62) 
-0

>  <r_epik_Charging_Adjusted_Penalty>  (62) 
0

>  <i_epik_Tot_Q>  (62) 
0

>  <i_epik_Tot_abs_Q>  (62) 
0

>  <s_epik_Chemistry_Notes>  (62) 
This compound has an ester and may undergo hydrolysis at high or low pH.

>  <s_lp_Force_Field>  (62) 
OPLS3e

>  <r_lp_Energy>  (62) 
127.91

>  <b_lp_Chiralities_Consistent>  (62) 
1

>  <s_lp_Variant>  (62) 
24:0-1

>  <s_i_glide_gridfile>  (62) 
pfpi4k_grid

>  <i_i_glide_lignum>  (62) 
33

>  <i_i_glide_rotatable_bonds>  (62) 
5

>  <r_i_docking_score>  (62) 
-2.46548

>  <r_i_glide_ligand_efficiency>  (62) 
-0.0704424

>  <r_i_glide_ligand_efficiency_sa>  (62) 
-0.230422

>  <r_i_glide_ligand_efficiency_ln>  (62) 
-0.541229

>  <r_i_glide_gscore>  (62) 
-2.46548

>  <r_i_glide_lipo>  (62) 
-0.148906

>  <r_i_glide_hbond>  (62) 
-0.143695

>  <r_i_glide_metal>  (62) 
-0

>  <r_i_glide_rewards>  (62) 
-0.0938164

>  <r_i_glide_evdw>  (62) 
-26.8769

>  <r_i_glide_ecoul>  (62) 
-5.8862

>  <r_i_glide_erotb>  (62) 
0.171695

>  <r_i_glide_esite>  (62) 
-0.0239901

>  <r_i_glide_emodel>  (62) 
-35.1531

>  <r_i_glide_energy>  (62) 
-32.7631

>  <r_i_glide_einternal>  (62) 
5.95582

>  <r_i_glide_intrahb_reward>  (62) 
-0

>  <i_i_glide_confnum>  (62) 
4

>  <i_i_glide_posenum>  (62) 
24

>  <r_i_glide_eff_state_penalty>  (62) 
0

>  <ligand_id>  (62) 
24

>  <original_smiles>  (62) 
CC(=O)OCC12C3CC4CC5COC(=O)C56OC6CC4C1C(O)CC21C(C)=C(C3=O)C(O)CC1C

>  <smiles>  (62) 
[H]OC1([H])C2=C(C([H])([H])[H])C3(C([H])([H])C([H])(O[H])C4([H])C5([H])C([H])([H])C6([H])OC67C(=O)OC([H])([H])C7([H])C([H])([H])C5([H])C([H])([H])C([H])(C2=O)C43C([H])([H])OC(=O)C([H])([H])[H])C([H])(C([H])([H])[H])C1([H])[H]

$$$$
24:0:1
     RDKit          3D

 69 75  0  0  1  0  0  0  0  0999 V2000
    5.6982    1.9975    7.8901 C   0  0  0  0  0  0  0  0  0  0  0  0
    4.1958    1.8115    8.1025 C   0  0  0  0  0  0  0  0  0  0  0  0
    3.6258    2.2109    9.1059 O   0  0  0  0  0  0  0  0  0  0  0  0
    3.6199    1.2033    7.0828 O   0  0  0  0  0  0  0  0  0  0  0  0
    2.2153    0.9722    6.9484 C   0  0  0  0  0  0  0  0  0  0  0  0
    1.7312    0.2592    5.5848 C   0  0  2  0  0  0  0  0  0  0  0  0
    0.3411   -0.3330    5.8495 C   0  0  1  0  0  0  0  0  0  0  0  0
    0.4058   -1.4599    6.9180 C   0  0  0  0  0  0  0  0  0  0  0  0
    1.4585   -2.5476    6.5364 C   0  0  1  0  0  0  0  0  0  0  0  0
    0.8060   -3.4829    5.4733 C   0  0  0  0  0  0  0  0  0  0  0  0
    1.5512   -4.7922    5.1257 C   0  0  1  0  0  0  0  0  0  0  0  0
    0.6808   -5.7147    4.2548 C   0  0  0  0  0  0  0  0  0  0  0  0
    1.1012   -5.4568    2.9267 O   0  0  0  0  0  0  0  0  0  0  0  0
    2.2400   -4.7806    2.8436 C   0  0  0  0  0  0  0  0  0  0  0  0
    2.8258   -4.4416    1.8130 O   0  0  0  0  0  0  0  0  0  0  0  0
    2.6843   -4.4739    4.2226 C   0  0  2  0  0  0  0  0  0  0  0  0
    3.9676   -5.0717    4.5803 O   0  0  0  0  0  0  0  0  0  0  0  0
    3.8694   -3.6139    4.5576 C   0  0  2  0  0  0  0  0  0  0  0  0
    3.9873   -2.9406    5.8914 C   0  0  0  0  0  0  0  0  0  0  0  0
    2.8616   -1.9107    6.1746 C   0  0  1  0  0  0  0  0  0  0  0  0
    2.6869   -0.8208    5.0938 C   0  0  2  0  0  0  0  0  0  0  0  0
    3.8451    0.0313    4.4948 C   0  0  1  0  0  0  0  0  0  0  0  0
    4.3842   -0.5338    3.3234 O   0  0  0  0  0  0  0  0  0  0  0  0
    3.1933    1.4360    4.1778 C   0  0  0  0  0  0  0  0  0  0  0  0
    1.6578    1.2383    4.3645 C   0  0  2  0  0  0  0  0  0  0  0  0
    0.7659    2.3802    4.8540 C   0  0  0  0  0  0  0  0  0  0  0  0
    1.1052    3.7723    4.3227 C   0  0  0  0  0  0  0  0  0  0  0  0
   -0.5162    2.0195    5.1184 C   0  0  0  0  0  0  0  0  0  0  0  0
   -0.6670    0.8232    6.0257 C   0  0  0  0  0  0  0  0  0  0  0  0
   -1.6022    0.6669    6.8226 O   0  0  0  0  0  0  0  0  0  0  0  0
   -1.3291    1.7546    3.8626 C   0  0  1  0  0  0  0  0  0  0  0  0
   -1.6659    2.9424    3.1656 O   0  0  0  0  0  0  0  0  0  0  0  0
   -0.5958    0.7377    2.9550 C   0  0  0  0  0  0  0  0  0  0  0  0
    0.9698    0.7205    3.0087 C   0  0  1  0  0  0  0  0  0  0  0  0
    1.5057    1.3618    1.7149 C   0  0  0  0  0  0  0  0  0  0  0  0
    5.8890    2.5979    7.0022 H   0  0  0  0  0  0  0  0  0  0  0  0
    6.1961    1.0397    7.7519 H   0  0  0  0  0  0  0  0  0  0  0  0
    6.1535    2.5016    8.7419 H   0  0  0  0  0  0  0  0  0  0  0  0
    2.0140    0.3547    7.8142 H   0  0  0  0  0  0  0  0  0  0  0  0
    1.6856    1.8991    7.1330 H   0  0  0  0  0  0  0  0  0  0  0  0
    0.0224   -0.8408    4.9439 H   0  0  0  0  0  0  0  0  0  0  0  0
    0.6143   -1.0620    7.9135 H   0  0  0  0  0  0  0  0  0  0  0  0
   -0.5835   -1.9044    7.0261 H   0  0  0  0  0  0  0  0  0  0  0  0
    1.5964   -3.1683    7.4278 H   0  0  0  0  0  0  0  0  0  0  0  0
   -0.1773   -3.7815    5.8533 H   0  0  0  0  0  0  0  0  0  0  0  0
    0.6036   -2.9368    4.5533 H   0  0  0  0  0  0  0  0  0  0  0  0
    1.8940   -5.3114    6.0194 H   0  0  0  0  0  0  0  0  0  0  0  0
    0.9166   -6.7619    4.4519 H   0  0  0  0  0  0  0  0  0  0  0  0
   -0.3797   -5.5684    4.3995 H   0  0  0  0  0  0  0  0  0  0  0  0
    4.4072   -3.1631    3.7205 H   0  0  0  0  0  0  0  0  0  0  0  0
    4.0145   -3.6986    6.6734 H   0  0  0  0  0  0  0  0  0  0  0  0
    4.9509   -2.4387    5.9135 H   0  0  0  0  0  0  0  0  0  0  0  0
    3.1993   -1.4263    7.0936 H   0  0  0  0  0  0  0  0  0  0  0  0
    2.2395   -1.3520    4.2623 H   0  0  0  0  0  0  0  0  0  0  0  0
    4.6989    0.1088    5.1649 H   0  0  0  0  0  0  0  0  0  0  0  0
    3.7077   -0.6147    2.6820 H   0  0  0  0  0  0  0  0  0  0  0  0
    3.5349    2.2119    4.8634 H   0  0  0  0  0  0  0  0  0  0  0  0
    3.4981    1.8445    3.2242 H   0  0  0  0  0  0  0  0  0  0  0  0
    1.7970    4.2609    5.0109 H   0  0  0  0  0  0  0  0  0  0  0  0
    0.2061    4.3987    4.2695 H   0  0  0  0  0  0  0  0  0  0  0  0
    1.5584    3.7556    3.3337 H   0  0  0  0  0  0  0  0  0  0  0  0
   -2.2997    1.3286    4.1475 H   0  0  0  0  0  0  0  0  0  0  0  0
   -0.9612    3.2061    2.5947 H   0  0  0  0  0  0  0  0  0  0  0  0
   -0.9519   -0.2477    3.2171 H   0  0  0  0  0  0  0  0  0  0  0  0
   -0.9518    0.8628    1.9283 H   0  0  0  0  0  0  0  0  0  0  0  0
    1.2288   -0.3234    2.8360 H   0  0  0  0  0  0  0  0  0  0  0  0
    1.3408    2.4389    1.6768 H   0  0  0  0  0  0  0  0  0  0  0  0
    1.0006    0.9421    0.8444 H   0  0  0  0  0  0  0  0  0  0  0  0
    2.5587    1.1662    1.5338 H   0  0  0  0  0  0  0  0  0  0  0  0
  1  2  1  0
  1 36  1  0
  1 37  1  0
  1 38  1  0
  2  3  2  0
  2  4  1  0
  4  5  1  0
  6  5  1  1
  5 39  1  0
  5 40  1  0
  6 21  1  0
  6 25  1  0
  6  7  1  0
  7 29  1  0
  7  8  1  0
  7 41  1  6
  8  9  1  0
  8 42  1  0
  8 43  1  0
  9 20  1  0
  9 10  1  0
  9 44  1  1
 10 11  1  0
 10 45  1  0
 10 46  1  0
 11 16  1  0
 11 12  1  0
 11 47  1  1
 12 13  1  0
 12 48  1  0
 12 49  1  0
 13 14  1  0
 14 15  2  0
 14 16  1  0
 16 18  1  0
 16 17  1  1
 17 18  1  0
 18 19  1  0
 18 50  1  6
 19 20  1  0
 19 51  1  0
 19 52  1  0
 20 21  1  0
 20 53  1  1
 21 22  1  0
 21 54  1  6
 22 23  1  0
 22 24  1  0
 22 55  1  1
 23 56  1  0
 25 24  1  6
 24 57  1  0
 24 58  1  0
 25 34  1  0
 25 26  1  0
 26 27  1  0
 26 28  2  0
 27 59  1  0
 27 60  1  0
 27 61  1  0
 28 29  1  0
 28 31  1  0
 29 30  2  0
 31 32  1  0
 31 33  1  0
 31 62  1  1
 32 63  1  0
 33 34  1  0
 33 64  1  0
 33 65  1  0
 34 35  1  0
 34 66  1  6
 35 67  1  0
 35 68  1  0
 35 69  1  0
M  END
>  <i_m_ct_stereo_status>  (63) 
1

>  <s_m_source_file>  (63) 
/var/tmp/pbs.5076255.sched01/tmppe38rura/0ules8z9c.sdf

>  <i_m_source_file_index>  (63) 
33

>  <i_lp_mmshare_version>  (63) 
48012

>  <i_f3d_flags>  (63) 
0

>  <s_epik_input>  (63) 
W0NIM11bQ0BASF0xW0NIMl1bQ0BIXShbT0hdKUMoQyg9TylbQ0BASF0yW0NIMl0zKT1DKFtDSDNdKVtDQEBdMShbQ0gyXVtDQEBIXTRbT0hdKVtDQF0yKFtDSDJdT0MoPU8pW0NIM10pW0NAQEhdNFtDQEhdKFtDSDJdW0NASF01TzYpW0NAQEhdM1tDSDJdW0NASF0oW0NAQF01NjcpW0NIMl1PQzc9Tw==

>  <s_epik_cmdline>  (63) 
J2VwaWtfcHl0aG9uJywgJy1waHQnLCAnMi4wJywgJy1waCcsICc3LjAnLCAnLXRuJywgJzgnLCAnLW1hJywgJzIwMCcsICctaW1hZScsICc8aW5maWxlLm1hZT4nLCAnLW9tYWUnLCAnPG91dGZpbGUubWFlPic=

>  <r_lp_tautomer_probability>  (63) 
1

>  <r_epik_Ionization_Penalty>  (63) 
1.93352e-07

>  <r_epik_Ionization_Penalty_Charging>  (63) 
0

>  <r_epik_Ionization_Penalty_Neutral>  (63) 
1.93352e-07

>  <r_epik_State_Penalty>  (63) 
-0

>  <r_epik_Charging_Adjusted_Penalty>  (63) 
0

>  <i_epik_Tot_Q>  (63) 
0

>  <i_epik_Tot_abs_Q>  (63) 
0

>  <s_epik_Chemistry_Notes>  (63) 
This compound has an ester and may undergo hydrolysis at high or low pH.

>  <s_lp_Force_Field>  (63) 
OPLS3e

>  <r_lp_Energy>  (63) 
127.91

>  <b_lp_Chiralities_Consistent>  (63) 
1

>  <s_lp_Variant>  (63) 
24:0-1

>  <s_i_glide_gridfile>  (63) 
pfpi4k_grid

>  <i_i_glide_lignum>  (63) 
33

>  <i_i_glide_rotatable_bonds>  (63) 
5

>  <r_i_docking_score>  (63) 
-2.23202

>  <r_i_glide_ligand_efficiency>  (63) 
-0.0637721

>  <r_i_glide_ligand_efficiency_sa>  (63) 
-0.208603

>  <r_i_glide_ligand_efficiency_ln>  (63) 
-0.489979

>  <r_i_glide_gscore>  (63) 
-2.23202

>  <r_i_glide_lipo>  (63) 
-0.00225517

>  <r_i_glide_hbond>  (63) 
-0.176906

>  <r_i_glide_metal>  (63) 
-0

>  <r_i_glide_rewards>  (63) 
-0.0916769

>  <r_i_glide_evdw>  (63) 
-24.6947

>  <r_i_glide_ecoul>  (63) 
-5.76991

>  <r_i_glide_erotb>  (63) 
0.171695

>  <r_i_glide_esite>  (63) 
-0.0326581

>  <r_i_glide_emodel>  (63) 
-32.577

>  <r_i_glide_energy>  (63) 
-30.4646

>  <r_i_glide_einternal>  (63) 
5.36891

>  <r_i_glide_intrahb_reward>  (63) 
-0

>  <i_i_glide_confnum>  (63) 
4

>  <i_i_glide_posenum>  (63) 
3

>  <r_i_glide_eff_state_penalty>  (63) 
0

>  <ligand_id>  (63) 
24

>  <original_smiles>  (63) 
CC(=O)OCC12C3CC4CC5COC(=O)C56OC6CC4C1C(O)CC21C(C)=C(C3=O)C(O)CC1C

>  <smiles>  (63) 
[H]OC1([H])C2=C(C([H])([H])[H])C3(C([H])([H])C([H])(O[H])C4([H])C5([H])C([H])([H])C6([H])OC67C(=O)OC([H])([H])C7([H])C([H])([H])C5([H])C([H])([H])C([H])(C2=O)C43C([H])([H])OC(=O)C([H])([H])[H])C([H])(C([H])([H])[H])C1([H])[H]

$$$$
24:0:2
     RDKit          3D

 69 75  0  0  1  0  0  0  0  0999 V2000
    4.4537   -0.4535    9.2183 C   0  0  0  0  0  0  0  0  0  0  0  0
    3.0842   -0.8472    8.6663 C   0  0  0  0  0  0  0  0  0  0  0  0
    2.1866   -1.2722    9.3849 O   0  0  0  0  0  0  0  0  0  0  0  0
    3.0011   -0.6473    7.3573 O   0  0  0  0  0  0  0  0  0  0  0  0
    1.8180   -0.8613    6.5854 C   0  0  0  0  0  0  0  0  0  0  0  0
    1.9192   -0.5268    5.0140 C   0  0  2  0  0  0  0  0  0  0  0  0
    0.7744   -1.2638    4.3050 C   0  0  1  0  0  0  0  0  0  0  0  0
    0.9428   -2.8034    4.4340 C   0  0  0  0  0  0  0  0  0  0  0  0
    2.3506   -3.2717    3.9410 C   0  0  1  0  0  0  0  0  0  0  0  0
    2.3210   -3.3144    2.3857 C   0  0  0  0  0  0  0  0  0  0  0  0
    3.4999   -3.9882    1.6499 C   0  0  1  0  0  0  0  0  0  0  0  0
    3.2041   -4.1618    0.1435 C   0  0  0  0  0  0  0  0  0  0  0  0
    3.8045   -3.0405   -0.4811 O   0  0  0  0  0  0  0  0  0  0  0  0
    4.6719   -2.4022    0.3029 C   0  0  0  0  0  0  0  0  0  0  0  0
    5.3760   -1.4375    0.0029 O   0  0  0  0  0  0  0  0  0  0  0  0
    4.6454   -3.0662    1.6254 C   0  0  2  0  0  0  0  0  0  0  0  0
    5.9224   -3.6297    2.0452 O   0  0  0  0  0  0  0  0  0  0  0  0
    5.3652   -2.5351    2.8430 C   0  0  2  0  0  0  0  0  0  0  0  0
    4.9417   -2.9163    4.2295 C   0  0  0  0  0  0  0  0  0  0  0  0
    3.5146   -2.4385    4.6089 C   0  0  1  0  0  0  0  0  0  0  0  0
    3.2608   -0.9248    4.4146 C   0  0  2  0  0  0  0  0  0  0  0  0
    4.1869    0.1966    4.9574 C   0  0  1  0  0  0  0  0  0  0  0  0
    5.1400    0.5415    3.9901 O   0  0  0  0  0  0  0  0  0  0  0  0
    3.2277    1.4063    5.2843 C   0  0  0  0  0  0  0  0  0  0  0  0
    1.8392    1.0063    4.6931 C   0  0  2  0  0  0  0  0  0  0  0  0
    0.5386    1.4574    5.3539 C   0  0  0  0  0  0  0  0  0  0  0  0
    0.5250    2.8675    5.9397 C   0  0  0  0  0  0  0  0  0  0  0  0
   -0.5802    0.8954    4.8256 C   0  0  0  0  0  0  0  0  0  0  0  0
   -0.5555   -0.6033    4.7208 C   0  0  0  0  0  0  0  0  0  0  0  0
   -1.5579   -1.3083    4.9168 O   0  0  0  0  0  0  0  0  0  0  0  0
   -0.9511    1.4509    3.4554 C   0  0  1  0  0  0  0  0  0  0  0  0
   -1.4303    2.7874    3.5322 O   0  0  0  0  0  0  0  0  0  0  0  0
    0.2733    1.3603    2.5031 C   0  0  0  0  0  0  0  0  0  0  0  0
    1.7004    1.4635    3.1558 C   0  0  1  0  0  0  0  0  0  0  0  0
    2.2793    2.8598    2.8351 C   0  0  0  0  0  0  0  0  0  0  0  0
    4.6577    0.5980    9.0223 H   0  0  0  0  0  0  0  0  0  0  0  0
    5.2464   -1.0325    8.7482 H   0  0  0  0  0  0  0  0  0  0  0  0
    4.5074   -0.6112   10.2948 H   0  0  0  0  0  0  0  0  0  0  0  0
    1.6102   -1.9116    6.7563 H   0  0  0  0  0  0  0  0  0  0  0  0
    0.9933   -0.3355    7.0551 H   0  0  0  0  0  0  0  0  0  0  0  0
    0.8631   -1.0680    3.2400 H   0  0  0  0  0  0  0  0  0  0  0  0
    0.7651   -3.1503    5.4537 H   0  0  0  0  0  0  0  0  0  0  0  0
    0.1571   -3.2942    3.8597 H   0  0  0  0  0  0  0  0  0  0  0  0
    2.4641   -4.3111    4.2607 H   0  0  0  0  0  0  0  0  0  0  0  0
    1.4505   -3.8999    2.1033 H   0  0  0  0  0  0  0  0  0  0  0  0
    2.1700   -2.3190    1.9686 H   0  0  0  0  0  0  0  0  0  0  0  0
    3.7647   -4.9383    2.1077 H   0  0  0  0  0  0  0  0  0  0  0  0
    3.7076   -5.0531   -0.2384 H   0  0  0  0  0  0  0  0  0  0  0  0
    2.1510   -4.2501   -0.0812 H   0  0  0  0  0  0  0  0  0  0  0  0
    5.9144   -1.6054    2.7214 H   0  0  0  0  0  0  0  0  0  0  0  0
    5.0226   -3.9962    4.3531 H   0  0  0  0  0  0  0  0  0  0  0  0
    5.6612   -2.4797    4.9198 H   0  0  0  0  0  0  0  0  0  0  0  0
    3.4513   -2.6590    5.6769 H   0  0  0  0  0  0  0  0  0  0  0  0
    3.2281   -0.8029    3.3359 H   0  0  0  0  0  0  0  0  0  0  0  0
    4.7723   -0.1137    5.8157 H   0  0  0  0  0  0  0  0  0  0  0  0
    5.6938   -0.2001    3.8422 H   0  0  0  0  0  0  0  0  0  0  0  0
    3.1220    1.5451    6.3605 H   0  0  0  0  0  0  0  0  0  0  0  0
    3.6215    2.3624    4.9633 H   0  0  0  0  0  0  0  0  0  0  0  0
    0.8343    2.8278    6.9853 H   0  0  0  0  0  0  0  0  0  0  0  0
   -0.4870    3.2845    5.9111 H   0  0  0  0  0  0  0  0  0  0  0  0
    1.1867    3.5438    5.4065 H   0  0  0  0  0  0  0  0  0  0  0  0
   -1.7723    0.8736    3.0185 H   0  0  0  0  0  0  0  0  0  0  0  0
   -1.2240    3.2356    2.7276 H   0  0  0  0  0  0  0  0  0  0  0  0
    0.2124    0.4293    1.9506 H   0  0  0  0  0  0  0  0  0  0  0  0
    0.1592    2.1056    1.7115 H   0  0  0  0  0  0  0  0  0  0  0  0
    2.3227    0.8278    2.5292 H   0  0  0  0  0  0  0  0  0  0  0  0
    1.7896    3.6719    3.3662 H   0  0  0  0  0  0  0  0  0  0  0  0
    2.1802    3.0812    1.7710 H   0  0  0  0  0  0  0  0  0  0  0  0
    3.3496    2.9163    3.0137 H   0  0  0  0  0  0  0  0  0  0  0  0
  1  2  1  0
  1 36  1  0
  1 37  1  0
  1 38  1  0
  2  3  2  0
  2  4  1  0
  4  5  1  0
  6  5  1  1
  5 39  1  0
  5 40  1  0
  6 21  1  0
  6 25  1  0
  6  7  1  0
  7 29  1  0
  7  8  1  0
  7 41  1  6
  8  9  1  0
  8 42  1  0
  8 43  1  0
  9 20  1  0
  9 10  1  0
  9 44  1  1
 10 11  1  0
 10 45  1  0
 10 46  1  0
 11 16  1  0
 11 12  1  0
 11 47  1  1
 12 13  1  0
 12 48  1  0
 12 49  1  0
 13 14  1  0
 14 15  2  0
 14 16  1  0
 16 18  1  0
 16 17  1  6
 17 18  1  0
 18 19  1  0
 18 50  1  1
 19 20  1  0
 19 51  1  0
 19 52  1  0
 20 21  1  0
 20 53  1  1
 21 22  1  0
 21 54  1  6
 22 23  1  0
 22 24  1  0
 22 55  1  1
 23 56  1  0
 25 24  1  1
 24 57  1  0
 24 58  1  0
 25 34  1  0
 25 26  1  0
 26 27  1  0
 26 28  2  0
 27 59  1  0
 27 60  1  0
 27 61  1  0
 28 29  1  0
 28 31  1  0
 29 30  2  0
 31 32  1  0
 31 33  1  0
 31 62  1  6
 32 63  1  0
 33 34  1  0
 33 64  1  0
 33 65  1  0
 34 35  1  0
 34 66  1  6
 35 67  1  0
 35 68  1  0
 35 69  1  0
M  END
>  <i_m_ct_stereo_status>  (64) 
1

>  <s_m_source_file>  (64) 
/var/tmp/pbs.5076255.sched01/tmppe38rura/0ules8z9c.sdf

>  <i_m_source_file_index>  (64) 
33

>  <i_lp_mmshare_version>  (64) 
48012

>  <i_f3d_flags>  (64) 
0

>  <s_epik_input>  (64) 
W0NIM11bQ0BASF0xW0NIMl1bQ0BIXShbT0hdKUMoQyg9TylbQ0BASF0yW0NIMl0zKT1DKFtDSDNdKVtDQEBdMShbQ0gyXVtDQEBIXTRbT0hdKVtDQF0yKFtDSDJdT0MoPU8pW0NIM10pW0NAQEhdNFtDQEhdKFtDSDJdW0NASF01TzYpW0NAQEhdM1tDSDJdW0NASF0oW0NAQF01NjcpW0NIMl1PQzc9Tw==

>  <s_epik_cmdline>  (64) 
J2VwaWtfcHl0aG9uJywgJy1waHQnLCAnMi4wJywgJy1waCcsICc3LjAnLCAnLXRuJywgJzgnLCAnLW1hJywgJzIwMCcsICctaW1hZScsICc8aW5maWxlLm1hZT4nLCAnLW9tYWUnLCAnPG91dGZpbGUubWFlPic=

>  <r_lp_tautomer_probability>  (64) 
1

>  <r_epik_Ionization_Penalty>  (64) 
1.93352e-07

>  <r_epik_Ionization_Penalty_Charging>  (64) 
0

>  <r_epik_Ionization_Penalty_Neutral>  (64) 
1.93352e-07

>  <r_epik_State_Penalty>  (64) 
-0

>  <r_epik_Charging_Adjusted_Penalty>  (64) 
0

>  <i_epik_Tot_Q>  (64) 
0

>  <i_epik_Tot_abs_Q>  (64) 
0

>  <s_epik_Chemistry_Notes>  (64) 
This compound has an ester and may undergo hydrolysis at high or low pH.

>  <s_lp_Force_Field>  (64) 
OPLS3e

>  <r_lp_Energy>  (64) 
127.91

>  <b_lp_Chiralities_Consistent>  (64) 
1

>  <s_lp_Variant>  (64) 
24:0-1

>  <s_i_glide_gridfile>  (64) 
pfpi4k_grid

>  <i_i_glide_lignum>  (64) 
33

>  <i_i_glide_rotatable_bonds>  (64) 
5

>  <r_i_docking_score>  (64) 
-2.08788

>  <r_i_glide_ligand_efficiency>  (64) 
-0.0596538

>  <r_i_glide_ligand_efficiency_sa>  (64) 
-0.195132

>  <r_i_glide_ligand_efficiency_ln>  (64) 
-0.458337

>  <r_i_glide_gscore>  (64) 
-2.08788

>  <r_i_glide_lipo>  (64) 
-0.137597

>  <r_i_glide_hbond>  (64) 
0

>  <r_i_glide_metal>  (64) 
-0

>  <r_i_glide_rewards>  (64) 
-0.0916769

>  <r_i_glide_evdw>  (64) 
-28.0416

>  <r_i_glide_ecoul>  (64) 
-4.02661

>  <r_i_glide_erotb>  (64) 
0.171695

>  <r_i_glide_esite>  (64) 
-0.0242316

>  <r_i_glide_emodel>  (64) 
-33.3326

>  <r_i_glide_energy>  (64) 
-32.0682

>  <r_i_glide_einternal>  (64) 
6.24924

>  <r_i_glide_intrahb_reward>  (64) 
-0

>  <i_i_glide_confnum>  (64) 
4

>  <i_i_glide_posenum>  (64) 
25

>  <r_i_glide_eff_state_penalty>  (64) 
0

>  <ligand_id>  (64) 
24

>  <original_smiles>  (64) 
CC(=O)OCC12C3CC4CC5COC(=O)C56OC6CC4C1C(O)CC21C(C)=C(C3=O)C(O)CC1C

>  <smiles>  (64) 
[H]OC1([H])C2=C(C([H])([H])[H])C3(C([H])([H])C([H])(O[H])C4([H])C5([H])C([H])([H])C6([H])OC67C(=O)OC([H])([H])C7([H])C([H])([H])C5([H])C([H])([H])C([H])(C2=O)C43C([H])([H])OC(=O)C([H])([H])[H])C([H])(C([H])([H])[H])C1([H])[H]

$$$$
25:0:0
     RDKit          3D

 74 80  0  0  1  0  0  0  0  0999 V2000
    3.4653    4.5933    5.6511 C   0  0  0  0  0  0  0  0  0  0  0  0
    2.7245    3.8190    4.7056 O   0  0  0  0  0  0  0  0  0  0  0  0
    2.6347    2.4248    4.9957 C   0  0  2  0  0  0  0  0  0  0  0  0
    2.4706    1.6382    3.6626 C   0  0  1  0  0  0  0  0  0  0  0  0
    3.2866    0.5600    2.8437 C   0  0  2  0  0  0  0  0  0  0  0  0
    1.8743   -0.0276    2.5470 C   0  0  1  0  0  0  0  0  0  0  0  0
    1.6688   -1.5432    2.3982 C   0  0  0  0  0  0  0  0  0  0  0  0
    2.3824   -2.3057    3.5369 C   0  0  0  0  0  0  0  0  0  0  0  0
    3.2334   -1.3467    4.4101 C   0  0  2  0  0  0  0  0  0  0  0  0
    4.0427   -2.1955    5.4282 C   0  0  0  0  0  0  0  0  0  0  0  0
    2.1986   -0.3823    5.0862 C   0  0  0  0  0  0  0  0  0  0  0  0
    1.9149   -0.2995    6.6431 C   0  0  0  0  0  0  0  0  0  0  0  0
    1.8369    1.1811    7.1697 C   0  0  2  0  0  0  0  0  0  0  0  0
    1.0604    1.5467    8.4863 C   0  0  0  0  0  0  0  0  0  0  0  0
   -0.3177    2.3483    8.4714 C   0  0  0  0  0  0  0  0  0  0  0  0
   -0.7355    3.3877    7.3635 C   0  0  0  0  0  0  0  0  0  0  0  0
   -0.9124    2.9537    5.9084 N   0  0  1  0  0  0  0  0  0  0  0  0
   -2.3796    2.7628    5.6826 C   0  0  0  0  0  0  0  0  0  0  0  0
   -0.4981    4.1016    5.0396 C   0  0  0  0  0  0  0  0  0  0  0  0
   -0.2413    3.7921    3.5556 C   0  0  0  0  0  0  0  0  0  0  0  0
   -0.3807    2.3260    3.1015 C   0  0  0  0  0  0  0  0  0  0  0  0
    0.0595    1.2118    4.1175 C   0  0  1  0  0  0  0  0  0  0  0  0
   -0.8309    0.1749    3.6856 O   0  0  0  0  0  0  0  0  0  0  0  0
    1.4937    0.5409    3.9371 C   0  0  1  0  0  0  0  0  0  0  0  0
   -0.0761    1.7103    5.6055 C   0  0  2  0  0  0  0  0  0  0  0  0
   -0.8234    0.4493    6.2463 C   0  0  0  0  0  0  0  0  0  0  0  0
    1.4370    2.1238    6.0523 C   0  0  2  0  0  0  0  0  0  0  0  0
    4.1417   -0.4880    3.5229 N   0  0  0  0  0  0  0  0  0  0  0  0
    5.2704    0.1700    4.2439 C   0  0  0  0  0  0  0  0  0  0  0  0
    4.8279   -1.2972    2.4636 C   0  0  0  0  0  0  0  0  0  0  0  0
    3.4791    5.6389    5.3388 H   0  0  0  0  0  0  0  0  0  0  0  0
    4.5028    4.2608    5.7177 H   0  0  0  0  0  0  0  0  0  0  0  0
    3.0414    4.5679    6.6582 H   0  0  0  0  0  0  0  0  0  0  0  0
    3.5958    2.1870    5.4419 H   0  0  0  0  0  0  0  0  0  0  0  0
    2.1405    2.3282    2.8865 H   0  0  0  0  0  0  0  0  0  0  0  0
    3.7362    0.9737    1.9481 H   0  0  0  0  0  0  0  0  0  0  0  0
    1.4034    0.5278    1.7365 H   0  0  0  0  0  0  0  0  0  0  0  0
    0.6149   -1.7990    2.4249 H   0  0  0  0  0  0  0  0  0  0  0  0
    2.0167   -1.8989    1.4269 H   0  0  0  0  0  0  0  0  0  0  0  0
    1.6333   -2.7881    4.1714 H   0  0  0  0  0  0  0  0  0  0  0  0
    2.9772   -3.1289    3.1351 H   0  0  0  0  0  0  0  0  0  0  0  0
    3.3813   -2.8216    6.0310 H   0  0  0  0  0  0  0  0  0  0  0  0
    4.6241   -1.5864    6.1184 H   0  0  0  0  0  0  0  0  0  0  0  0
    4.7386   -2.8687    4.9320 H   0  0  0  0  0  0  0  0  0  0  0  0
    3.0481    0.1734    5.4134 H   0  0  0  0  0  0  0  0  0  0  0  0
    1.1150   -0.9492    6.9844 H   0  0  0  0  0  0  0  0  0  0  0  0
    2.7469   -0.7464    7.1889 H   0  0  0  0  0  0  0  0  0  0  0  0
    2.8736    1.4269    7.4145 H   0  0  0  0  0  0  0  0  0  0  0  0
    0.9468    0.6406    9.0885 H   0  0  0  0  0  0  0  0  0  0  0  0
    1.7484    2.1500    9.0844 H   0  0  0  0  0  0  0  0  0  0  0  0
   -1.1482    1.6822    8.6955 H   0  0  0  0  0  0  0  0  0  0  0  0
   -0.2867    2.9215    9.3993 H   0  0  0  0  0  0  0  0  0  0  0  0
   -1.6628    3.8387    7.7095 H   0  0  0  0  0  0  0  0  0  0  0  0
   -0.0456    4.2269    7.4566 H   0  0  0  0  0  0  0  0  0  0  0  0
   -2.5924    2.2940    4.7348 H   0  0  0  0  0  0  0  0  0  0  0  0
   -2.9185    3.7031    5.6867 H   0  0  0  0  0  0  0  0  0  0  0  0
   -2.8542    2.1858    6.4680 H   0  0  0  0  0  0  0  0  0  0  0  0
   -1.2283    4.9033    5.1057 H   0  0  0  0  0  0  0  0  0  0  0  0
    0.4059    4.5819    5.4085 H   0  0  0  0  0  0  0  0  0  0  0  0
   -0.9153    4.3972    2.9435 H   0  0  0  0  0  0  0  0  0  0  0  0
    0.7424    4.1696    3.2790 H   0  0  0  0  0  0  0  0  0  0  0  0
   -1.4372    2.2151    2.8470 H   0  0  0  0  0  0  0  0  0  0  0  0
    0.0821    2.2110    2.1216 H   0  0  0  0  0  0  0  0  0  0  0  0
   -1.6294    0.5617    3.3811 H   0  0  0  0  0  0  0  0  0  0  0  0
   -0.4685   -0.5021    5.8592 H   0  0  0  0  0  0  0  0  0  0  0  0
   -1.8740    0.3798    5.9879 H   0  0  0  0  0  0  0  0  0  0  0  0
   -0.7688    0.2848    7.3032 H   0  0  0  0  0  0  0  0  0  0  0  0
    1.4691    3.0622    6.5805 H   0  0  0  0  0  0  0  0  0  0  0  0
    6.0377   -0.5455    4.5099 H   0  0  0  0  0  0  0  0  0  0  0  0
    5.0191    0.6777    5.1608 H   0  0  0  0  0  0  0  0  0  0  0  0
    5.7532    0.9038    3.6125 H   0  0  0  0  0  0  0  0  0  0  0  0
    5.3981   -2.1154    2.8887 H   0  0  0  0  0  0  0  0  0  0  0  0
    5.5343   -0.6919    1.9069 H   0  0  0  0  0  0  0  0  0  0  0  0
    4.1779   -1.7241    1.7122 H   0  0  0  0  0  0  0  0  0  0  0  0
  1  2  1  0
  1 31  1  0
  1 32  1  0
  1 33  1  0
  2  3  1  0
  3 27  1  0
  3  4  1  0
  3 34  1  1
  4 24  1  0
  4  5  1  0
  4 35  1  6
  5 28  1  0
  5  6  1  0
  5 36  1  6
  6 24  1  0
  6  7  1  0
  6 37  1  6
  7  8  1  0
  7 38  1  0
  7 39  1  0
  8  9  1  0
  8 40  1  0
  8 41  1  0
  9 10  1  1
  9 11  1  0
  9 28  1  0
 10 42  1  0
 10 43  1  0
 10 44  1  0
 24 11  1  1
 11 12  1  0
 11 45  1  0
 12 13  1  0
 12 46  1  0
 12 47  1  0
 13 27  1  0
 13 14  1  0
 13 48  1  1
 14 15  1  0
 14 49  1  0
 14 50  1  0
 15 16  1  0
 15 51  1  0
 15 52  1  0
 16 17  1  0
 16 53  1  0
 16 54  1  0
 17 25  1  0
 17 18  1  1
 17 19  1  0
 18 55  1  0
 18 56  1  0
 18 57  1  0
 19 20  1  0
 19 58  1  0
 19 59  1  0
 20 21  1  0
 20 60  1  0
 20 61  1  0
 21 22  1  0
 21 62  1  0
 21 63  1  0
 22 23  1  1
 22 24  1  0
 22 25  1  0
 23 64  1  0
 25 26  1  1
 25 27  1  0
 26 65  1  0
 26 66  1  0
 26 67  1  0
 27 68  1  1
 28 29  1  0
 28 30  1  0
 29 69  1  0
 29 70  1  0
 29 71  1  0
 30 72  1  0
 30 73  1  0
 30 74  1  0
M  CHG  2  17   1  28   1
M  END
>  <i_m_ct_stereo_status>  (65) 
1

>  <s_m_source_file>  (65) 
/var/tmp/pbs.5076255.sched01/tmppe38rura/0ules8z9c.sdf

>  <i_m_source_file_index>  (65) 
34

>  <i_lp_mmshare_version>  (65) 
48012

>  <i_f3d_flags>  (65) 
0

>  <s_epik_input>  (65) 
W09IXVtDQF0xMltDSDJdW0NIMl1bQ0gyXVtOQCtdKFtDSDNdKShbQ0gyXVtDSDJdW0NIMl0zKVtDQF0yKFtDSDNdKVtDQEhdKFtDQEBIXTRPW0NIM10pW0NIXTNbQ0gyXVtDQEhdNVtDQF0oW0NIM10pKFtOK102KFtDSDNdKVtDSDNdKVtDSDJdW0NIMl1bQ0BASF03W0NASF02W0NASF00W0NAXTE1Nw==

>  <s_epik_cmdline>  (65) 
J2VwaWtfcHl0aG9uJywgJy1waHQnLCAnMi4wJywgJy1waCcsICc3LjAnLCAnLXRuJywgJzgnLCAnLW1hJywgJzIwMCcsICctaW1hZScsICc8aW5maWxlLm1hZT4nLCAnLW9tYWUnLCAnPG91dGZpbGUubWFlPic=

>  <r_lp_tautomer_probability>  (65) 
1

>  <r_epik_Ionization_Penalty>  (65) 
0.000103824

>  <r_epik_Ionization_Penalty_Charging>  (65) 
0

>  <r_epik_Ionization_Penalty_Neutral>  (65) 
0.000103824

>  <r_epik_State_Penalty>  (65) 
-0

>  <r_epik_Charging_Adjusted_Penalty>  (65) 
0

>  <i_epik_Tot_Q>  (65) 
2

>  <i_epik_Tot_abs_Q>  (65) 
2

>  <s_lp_Force_Field>  (65) 
OPLS3e

>  <r_lp_Energy>  (65) 
264.339

>  <b_lp_Chiralities_Consistent>  (65) 
1

>  <s_lp_Variant>  (65) 
25:0-1

>  <s_i_glide_gridfile>  (65) 
pfpi4k_grid

>  <i_i_glide_lignum>  (65) 
34

>  <i_i_glide_rotatable_bonds>  (65) 
2

>  <r_i_docking_score>  (65) 
-1.94897

>  <r_i_glide_ligand_efficiency>  (65) 
-0.0649658

>  <r_i_glide_ligand_efficiency_sa>  (65) 
-0.201864

>  <r_i_glide_ligand_efficiency_ln>  (65) 
-0.442828

>  <r_i_glide_gscore>  (65) 
-1.94897

>  <r_i_glide_lipo>  (65) 
-0.249431

>  <r_i_glide_hbond>  (65) 
0

>  <r_i_glide_metal>  (65) 
-0

>  <r_i_glide_rewards>  (65) 
-0.568365

>  <r_i_glide_evdw>  (65) 
-17.5469

>  <r_i_glide_ecoul>  (65) 
-1.67304

>  <r_i_glide_erotb>  (65) 
0

>  <r_i_glide_esite>  (65) 
-0.00287596

>  <r_i_glide_emodel>  (65) 
-20.5164

>  <r_i_glide_energy>  (65) 
-19.22

>  <r_i_glide_einternal>  (65) 
1.06012

>  <r_i_glide_intrahb_reward>  (65) 
-0

>  <i_i_glide_confnum>  (65) 
2

>  <i_i_glide_posenum>  (65) 
15

>  <r_i_glide_eff_state_penalty>  (65) 
0

>  <ligand_id>  (65) 
25

>  <original_smiles>  (65) 
COC1C2C3C4CCC(C)(C5CC6CCC[N+]7(C)CCCC(O)(C425)C7(C)C61)[N+]3(C)C

>  <smiles>  (65) 
[H]OC12C([H])([H])C([H])([H])C([H])([H])[N+]3(C([H])([H])[H])C([H])([H])C([H])([H])C([H])([H])C4([H])C([H])([H])C5([H])C16C1([H])C([H])([H])C([H])([H])C5(C([H])([H])[H])[N+](C([H])([H])[H])(C([H])([H])[H])C1([H])C6([H])C([H])(OC([H])([H])[H])C4([H])C23C([H])([H])[H]

$$$$
25:0:1
     RDKit          3D

 74 80  0  0  1  0  0  0  0  0999 V2000
    4.0819    3.3826    6.6219 C   0  0  0  0  0  0  0  0  0  0  0  0
    3.4527    3.0004    5.3963 O   0  0  0  0  0  0  0  0  0  0  0  0
    3.0168    1.6436    5.3354 C   0  0  2  0  0  0  0  0  0  0  0  0
    3.0332    1.1741    3.8499 C   0  0  1  0  0  0  0  0  0  0  0  0
    3.7856    0.0932    2.9833 C   0  0  2  0  0  0  0  0  0  0  0  0
    2.4067   -0.0652    2.2846 C   0  0  1  0  0  0  0  0  0  0  0  0
    1.9430   -1.4335    1.7608 C   0  0  0  0  0  0  0  0  0  0  0  0
    2.1931   -2.5413    2.8095 C   0  0  0  0  0  0  0  0  0  0  0  0
    2.9802   -1.9908    4.0256 C   0  0  2  0  0  0  0  0  0  0  0  0
    3.3391   -3.1825    4.9578 C   0  0  0  0  0  0  0  0  0  0  0  0
    2.0327   -0.9452    4.6904 C   0  0  0  0  0  0  0  0  0  0  0  0
    1.3983   -1.0750    6.1375 C   0  0  0  0  0  0  0  0  0  0  0  0
    1.4893    0.2597    6.9660 C   0  0  2  0  0  0  0  0  0  0  0  0
    0.5066    0.5585    8.1534 C   0  0  0  0  0  0  0  0  0  0  0  0
   -0.6435    1.6590    8.0536 C   0  0  0  0  0  0  0  0  0  0  0  0
   -0.5670    2.9535    7.1538 C   0  0  0  0  0  0  0  0  0  0  0  0
   -0.4686    2.8436    5.6293 N   0  0  1  0  0  0  0  0  0  0  0  0
   -1.8474    3.0594    5.0846 C   0  0  0  0  0  0  0  0  0  0  0  0
    0.3627    3.9999    5.1512 C   0  0  0  0  0  0  0  0  0  0  0  0
    0.9131    3.9097    3.7160 C   0  0  0  0  0  0  0  0  0  0  0  0
    0.5997    2.6288    2.9295 C   0  0  0  0  0  0  0  0  0  0  0  0
    0.5566    1.2761    3.7192 C   0  0  1  0  0  0  0  0  0  0  0  0
   -0.3875    0.6093    2.8860 O   0  0  0  0  0  0  0  0  0  0  0  0
    1.8190    0.3183    3.6705 C   0  0  1  0  0  0  0  0  0  0  0  0
    0.1543    1.5165    5.2237 C   0  0  2  0  0  0  0  0  0  0  0  0
   -0.9546    0.3727    5.3870 C   0  0  0  0  0  0  0  0  0  0  0  0
    1.5666    1.4552    6.0395 C   0  0  2  0  0  0  0  0  0  0  0  0
    4.2369   -1.2354    3.5493 N   0  0  0  0  0  0  0  0  0  0  0  0
    5.2583   -1.0081    4.6064 C   0  0  0  0  0  0  0  0  0  0  0  0
    4.9766   -1.9803    2.4895 C   0  0  0  0  0  0  0  0  0  0  0  0
    4.3748    4.4312    6.5734 H   0  0  0  0  0  0  0  0  0  0  0  0
    4.9870    2.8012    6.8029 H   0  0  0  0  0  0  0  0  0  0  0  0
    3.4343    3.2726    7.4934 H   0  0  0  0  0  0  0  0  0  0  0  0
    3.7760    1.0993    5.8939 H   0  0  0  0  0  0  0  0  0  0  0  0
    3.0418    2.0531    3.2076 H   0  0  0  0  0  0  0  0  0  0  0  0
    4.5203    0.5418    2.3161 H   0  0  0  0  0  0  0  0  0  0  0  0
    2.2634    0.7244    1.5485 H   0  0  0  0  0  0  0  0  0  0  0  0
    0.8801   -1.4159    1.5236 H   0  0  0  0  0  0  0  0  0  0  0  0
    2.4343   -1.6894    0.8216 H   0  0  0  0  0  0  0  0  0  0  0  0
    1.2331   -2.9331    3.1574 H   0  0  0  0  0  0  0  0  0  0  0  0
    2.6929   -3.3948    2.3492 H   0  0  0  0  0  0  0  0  0  0  0  0
    2.4429   -3.7253    5.2619 H   0  0  0  0  0  0  0  0  0  0  0  0
    3.8455   -2.8668    5.8683 H   0  0  0  0  0  0  0  0  0  0  0  0
    3.9883   -3.9018    4.4638 H   0  0  0  0  0  0  0  0  0  0  0  0
    2.8666   -0.6796    5.2965 H   0  0  0  0  0  0  0  0  0  0  0  0
    0.4267   -1.5596    6.1538 H   0  0  0  0  0  0  0  0  0  0  0  0
    1.9701   -1.8040    6.7170 H   0  0  0  0  0  0  0  0  0  0  0  0
    2.4647    0.1970    7.4584 H   0  0  0  0  0  0  0  0  0  0  0  0
    0.0763   -0.3851    8.4997 H   0  0  0  0  0  0  0  0  0  0  0  0
    1.1354    0.8604    8.9960 H   0  0  0  0  0  0  0  0  0  0  0  0
   -1.6187    1.1904    7.9473 H   0  0  0  0  0  0  0  0  0  0  0  0
   -0.7241    2.0328    9.0758 H   0  0  0  0  0  0  0  0  0  0  0  0
   -1.4421    3.5455    7.4066 H   0  0  0  0  0  0  0  0  0  0  0  0
    0.2294    3.5670    7.5700 H   0  0  0  0  0  0  0  0  0  0  0  0
   -1.9272    2.8316    4.0317 H   0  0  0  0  0  0  0  0  0  0  0  0
   -2.1705    4.0863    5.2014 H   0  0  0  0  0  0  0  0  0  0  0  0
   -2.5992    2.4842    5.6114 H   0  0  0  0  0  0  0  0  0  0  0  0
   -0.1884    4.9298    5.2544 H   0  0  0  0  0  0  0  0  0  0  0  0
    1.2237    4.1669    5.7914 H   0  0  0  0  0  0  0  0  0  0  0  0
    0.5309    4.7569    3.1413 H   0  0  0  0  0  0  0  0  0  0  0  0
    1.9877    4.0814    3.7306 H   0  0  0  0  0  0  0  0  0  0  0  0
   -0.3786    2.8257    2.4865 H   0  0  0  0  0  0  0  0  0  0  0  0
    1.2424    2.5790    2.0471 H   0  0  0  0  0  0  0  0  0  0  0  0
   -0.0737    0.6593    1.9938 H   0  0  0  0  0  0  0  0  0  0  0  0
   -0.7125   -0.5440    4.8574 H   0  0  0  0  0  0  0  0  0  0  0  0
   -1.9073    0.6103    4.9225 H   0  0  0  0  0  0  0  0  0  0  0  0
   -1.1935    0.0137    6.3663 H   0  0  0  0  0  0  0  0  0  0  0  0
    1.6534    2.2488    6.7640 H   0  0  0  0  0  0  0  0  0  0  0  0
    5.7807   -1.9314    4.8470 H   0  0  0  0  0  0  0  0  0  0  0  0
    4.9014   -0.6285    5.5498 H   0  0  0  0  0  0  0  0  0  0  0  0
    6.0113   -0.3065    4.2575 H   0  0  0  0  0  0  0  0  0  0  0  0
    5.2531   -2.9776    2.8163 H   0  0  0  0  0  0  0  0  0  0  0  0
    5.9053   -1.4763    2.2352 H   0  0  0  0  0  0  0  0  0  0  0  0
    4.4564   -2.0918    1.5470 H   0  0  0  0  0  0  0  0  0  0  0  0
  1  2  1  0
  1 31  1  0
  1 32  1  0
  1 33  1  0
  2  3  1  0
  3 27  1  0
  3  4  1  0
  3 34  1  1
  4 24  1  0
  4  5  1  0
  4 35  1  6
  5 28  1  0
  5  6  1  0
  5 36  1  6
  6 24  1  0
  6  7  1  0
  6 37  1  6
  7  8  1  0
  7 38  1  0
  7 39  1  0
  8  9  1  0
  8 40  1  0
  8 41  1  0
  9 10  1  1
  9 11  1  0
  9 28  1  0
 10 42  1  0
 10 43  1  0
 10 44  1  0
 24 11  1  1
 11 12  1  0
 11 45  1  0
 12 13  1  0
 12 46  1  0
 12 47  1  0
 13 27  1  0
 13 14  1  0
 13 48  1  1
 14 15  1  0
 14 49  1  0
 14 50  1  0
 15 16  1  0
 15 51  1  0
 15 52  1  0
 16 17  1  0
 16 53  1  0
 16 54  1  0
 17 25  1  0
 17 18  1  6
 17 19  1  0
 18 55  1  0
 18 56  1  0
 18 57  1  0
 19 20  1  0
 19 58  1  0
 19 59  1  0
 20 21  1  0
 20 60  1  0
 20 61  1  0
 21 22  1  0
 21 62  1  0
 21 63  1  0
 22 23  1  6
 22 24  1  0
 22 25  1  0
 23 64  1  0
 25 26  1  1
 25 27  1  0
 26 65  1  0
 26 66  1  0
 26 67  1  0
 27 68  1  1
 28 29  1  0
 28 30  1  0
 29 69  1  0
 29 70  1  0
 29 71  1  0
 30 72  1  0
 30 73  1  0
 30 74  1  0
M  CHG  2  17   1  28   1
M  END
>  <i_m_ct_stereo_status>  (66) 
1

>  <s_m_source_file>  (66) 
/var/tmp/pbs.5076255.sched01/tmppe38rura/0ules8z9c.sdf

>  <i_m_source_file_index>  (66) 
34

>  <i_lp_mmshare_version>  (66) 
48012

>  <i_f3d_flags>  (66) 
0

>  <s_epik_input>  (66) 
W09IXVtDQF0xMltDSDJdW0NIMl1bQ0gyXVtOQCtdKFtDSDNdKShbQ0gyXVtDSDJdW0NIMl0zKVtDQF0yKFtDSDNdKVtDQEhdKFtDQEBIXTRPW0NIM10pW0NIXTNbQ0gyXVtDQEhdNVtDQF0oW0NIM10pKFtOK102KFtDSDNdKVtDSDNdKVtDSDJdW0NIMl1bQ0BASF03W0NASF02W0NASF00W0NAXTE1Nw==

>  <s_epik_cmdline>  (66) 
J2VwaWtfcHl0aG9uJywgJy1waHQnLCAnMi4wJywgJy1waCcsICc3LjAnLCAnLXRuJywgJzgnLCAnLW1hJywgJzIwMCcsICctaW1hZScsICc8aW5maWxlLm1hZT4nLCAnLW9tYWUnLCAnPG91dGZpbGUubWFlPic=

>  <r_lp_tautomer_probability>  (66) 
1

>  <r_epik_Ionization_Penalty>  (66) 
0.000103824

>  <r_epik_Ionization_Penalty_Charging>  (66) 
0

>  <r_epik_Ionization_Penalty_Neutral>  (66) 
0.000103824

>  <r_epik_State_Penalty>  (66) 
-0

>  <r_epik_Charging_Adjusted_Penalty>  (66) 
0

>  <i_epik_Tot_Q>  (66) 
2

>  <i_epik_Tot_abs_Q>  (66) 
2

>  <s_lp_Force_Field>  (66) 
OPLS3e

>  <r_lp_Energy>  (66) 
264.339

>  <b_lp_Chiralities_Consistent>  (66) 
1

>  <s_lp_Variant>  (66) 
25:0-1

>  <s_i_glide_gridfile>  (66) 
pfpi4k_grid

>  <i_i_glide_lignum>  (66) 
34

>  <i_i_glide_rotatable_bonds>  (66) 
2

>  <r_i_docking_score>  (66) 
-1.77035

>  <r_i_glide_ligand_efficiency>  (66) 
-0.0590115

>  <r_i_glide_ligand_efficiency_sa>  (66) 
-0.183363

>  <r_i_glide_ligand_efficiency_ln>  (66) 
-0.402242

>  <r_i_glide_gscore>  (66) 
-1.77035

>  <r_i_glide_lipo>  (66) 
-0.123616

>  <r_i_glide_hbond>  (66) 
0

>  <r_i_glide_metal>  (66) 
-0

>  <r_i_glide_rewards>  (66) 
-0.568365

>  <r_i_glide_evdw>  (66) 
-16.802

>  <r_i_glide_ecoul>  (66) 
-1.56488

>  <r_i_glide_erotb>  (66) 
0

>  <r_i_glide_esite>  (66) 
-0.00353095

>  <r_i_glide_emodel>  (66) 
-19.5942

>  <r_i_glide_energy>  (66) 
-18.3669

>  <r_i_glide_einternal>  (66) 
0.927172

>  <r_i_glide_intrahb_reward>  (66) 
-0

>  <i_i_glide_confnum>  (66) 
1

>  <i_i_glide_posenum>  (66) 
14

>  <r_i_glide_eff_state_penalty>  (66) 
0

>  <ligand_id>  (66) 
25

>  <original_smiles>  (66) 
COC1C2C3C4CCC(C)(C5CC6CCC[N+]7(C)CCCC(O)(C425)C7(C)C61)[N+]3(C)C

>  <smiles>  (66) 
[H]OC12C([H])([H])C([H])([H])C([H])([H])[N+]3(C([H])([H])[H])C([H])([H])C([H])([H])C([H])([H])C4([H])C([H])([H])C5([H])C16C1([H])C([H])([H])C([H])([H])C5(C([H])([H])[H])[N+](C([H])([H])[H])(C([H])([H])[H])C1([H])C6([H])C([H])(OC([H])([H])[H])C4([H])C23C([H])([H])[H]

$$$$
25:0:2
     RDKit          3D

 74 80  0  0  1  0  0  0  0  0999 V2000
    0.6635    0.2865    9.2150 C   0  0  0  0  0  0  0  0  0  0  0  0
    0.2505   -0.2080    7.9364 O   0  0  0  0  0  0  0  0  0  0  0  0
    0.9927    0.3054    6.8305 C   0  0  2  0  0  0  0  0  0  0  0  0
    0.0973    0.2738    5.5593 C   0  0  1  0  0  0  0  0  0  0  0  0
   -0.5350    1.3128    4.5561 C   0  0  2  0  0  0  0  0  0  0  0  0
   -0.2074    0.2268    3.4966 C   0  0  1  0  0  0  0  0  0  0  0  0
    0.2007    0.6139    2.0652 C   0  0  0  0  0  0  0  0  0  0  0  0
    1.2702    1.7291    2.0927 C   0  0  0  0  0  0  0  0  0  0  0  0
    1.5043    2.2583    3.5272 C   0  0  2  0  0  0  0  0  0  0  0  0
    2.4476    3.4872    3.4569 C   0  0  0  0  0  0  0  0  0  0  0  0
    2.0992    1.0480    4.3138 C   0  0  0  0  0  0  0  0  0  0  0  0
    3.5619    0.9893    4.9242 C   0  0  0  0  0  0  0  0  0  0  0  0
    3.5841    0.4108    6.3840 C   0  0  2  0  0  0  0  0  0  0  0  0
    4.8798   -0.2373    6.9893 C   0  0  0  0  0  0  0  0  0  0  0  0
    5.0137   -1.8035    7.2417 C   0  0  0  0  0  0  0  0  0  0  0  0
    3.8074   -2.7657    7.5639 C   0  0  0  0  0  0  0  0  0  0  0  0
    2.6823   -2.9709    6.5449 N   0  0  1  0  0  0  0  0  0  0  0  0
    2.9663   -4.2609    5.8333 C   0  0  0  0  0  0  0  0  0  0  0  0
    1.4091   -3.1876    7.3151 C   0  0  0  0  0  0  0  0  0  0  0  0
    0.0908   -3.0534    6.5299 C   0  0  0  0  0  0  0  0  0  0  0  0
    0.1934   -2.6620    5.0495 C   0  0  0  0  0  0  0  0  0  0  0  0
    1.3367   -1.6686    4.6398 C   0  0  1  0  0  0  0  0  0  0  0  0
    1.5299   -2.1616    3.3173 O   0  0  0  0  0  0  0  0  0  0  0  0
    0.9768   -0.1344    4.4251 C   0  0  1  0  0  0  0  0  0  0  0  0
    2.5644   -1.7684    5.6206 C   0  0  2  0  0  0  0  0  0  0  0  0
    3.7578   -1.8434    4.5537 C   0  0  0  0  0  0  0  0  0  0  0  0
    2.3918   -0.4929    6.6235 C   0  0  2  0  0  0  0  0  0  0  0  0
    0.1556    2.6139    4.1857 N   0  0  0  0  0  0  0  0  0  0  0  0
    0.2652    3.4753    5.3947 C   0  0  0  0  0  0  0  0  0  0  0  0
   -0.7406    3.3818    3.2826 C   0  0  0  0  0  0  0  0  0  0  0  0
    0.0529   -0.1565   10.0028 H   0  0  0  0  0  0  0  0  0  0  0  0
    0.5418    1.3687    9.2830 H   0  0  0  0  0  0  0  0  0  0  0  0
    1.7031    0.0582    9.4585 H   0  0  0  0  0  0  0  0  0  0  0  0
    1.1927    1.3376    7.1004 H   0  0  0  0  0  0  0  0  0  0  0  0
   -0.7310   -0.4131    5.7302 H   0  0  0  0  0  0  0  0  0  0  0  0
   -1.6110    1.4192    4.7019 H   0  0  0  0  0  0  0  0  0  0  0  0
   -0.9813   -0.5390    3.5218 H   0  0  0  0  0  0  0  0  0  0  0  0
    0.6008   -0.2408    1.5255 H   0  0  0  0  0  0  0  0  0  0  0  0
   -0.6557    0.9379    1.4726 H   0  0  0  0  0  0  0  0  0  0  0  0
    2.2148    1.3389    1.7021 H   0  0  0  0  0  0  0  0  0  0  0  0
    1.0157    2.5337    1.4087 H   0  0  0  0  0  0  0  0  0  0  0  0
    3.3830    3.2268    2.9578 H   0  0  0  0  0  0  0  0  0  0  0  0
    2.7065    3.8748    4.4385 H   0  0  0  0  0  0  0  0  0  0  0  0
    2.0075    4.3006    2.8890 H   0  0  0  0  0  0  0  0  0  0  0  0
    1.9714    1.6461    5.1899 H   0  0  0  0  0  0  0  0  0  0  0  0
    4.3060    0.5780    4.2509 H   0  0  0  0  0  0  0  0  0  0  0  0
    3.9504    2.0040    5.0152 H   0  0  0  0  0  0  0  0  0  0  0  0
    3.4249    1.2866    7.0162 H   0  0  0  0  0  0  0  0  0  0  0  0
    5.7435    0.1058    6.4169 H   0  0  0  0  0  0  0  0  0  0  0  0
    5.0269    0.2352    7.9631 H   0  0  0  0  0  0  0  0  0  0  0  0
    5.6642   -2.2605    6.5011 H   0  0  0  0  0  0  0  0  0  0  0  0
    5.6553   -1.8678    8.1207 H   0  0  0  0  0  0  0  0  0  0  0  0
    4.2413   -3.7331    7.8023 H   0  0  0  0  0  0  0  0  0  0  0  0
    3.4207   -2.4634    8.5374 H   0  0  0  0  0  0  0  0  0  0  0  0
    2.3257   -4.4177    4.9754 H   0  0  0  0  0  0  0  0  0  0  0  0
    2.8247   -5.1188    6.4807 H   0  0  0  0  0  0  0  0  0  0  0  0
    3.9979   -4.3422    5.5063 H   0  0  0  0  0  0  0  0  0  0  0  0
    1.4290   -4.1575    7.8057 H   0  0  0  0  0  0  0  0  0  0  0  0
    1.3346   -2.5045    8.1594 H   0  0  0  0  0  0  0  0  0  0  0  0
   -0.4448   -4.0015    6.5947 H   0  0  0  0  0  0  0  0  0  0  0  0
   -0.5583   -2.3563    7.0516 H   0  0  0  0  0  0  0  0  0  0  0  0
    0.3176   -3.6105    4.5180 H   0  0  0  0  0  0  0  0  0  0  0  0
   -0.7804   -2.3485    4.6839 H   0  0  0  0  0  0  0  0  0  0  0  0
    2.1047   -1.5725    2.8617 H   0  0  0  0  0  0  0  0  0  0  0  0
    3.6083   -1.2031    3.6879 H   0  0  0  0  0  0  0  0  0  0  0  0
    3.8570   -2.8065    4.0657 H   0  0  0  0  0  0  0  0  0  0  0  0
    4.7499   -1.5746    4.8538 H   0  0  0  0  0  0  0  0  0  0  0  0
    2.5646   -0.7614    7.6506 H   0  0  0  0  0  0  0  0  0  0  0  0
    0.5060    4.5014    5.1221 H   0  0  0  0  0  0  0  0  0  0  0  0
    1.0047    3.1888    6.1275 H   0  0  0  0  0  0  0  0  0  0  0  0
   -0.6884    3.5149    5.9191 H   0  0  0  0  0  0  0  0  0  0  0  0
   -0.2656    4.2924    2.9225 H   0  0  0  0  0  0  0  0  0  0  0  0
   -1.6467    3.6984    3.7969 H   0  0  0  0  0  0  0  0  0  0  0  0
   -1.0938    2.8495    2.4064 H   0  0  0  0  0  0  0  0  0  0  0  0
  1  2  1  0
  1 31  1  0
  1 32  1  0
  1 33  1  0
  2  3  1  0
  3 27  1  0
  3  4  1  0
  3 34  1  1
  4 24  1  0
  4  5  1  0
  4 35  1  1
  5 28  1  0
  5  6  1  0
  5 36  1  1
  6 24  1  0
  6  7  1  0
  6 37  1  6
  7  8  1  0
  7 38  1  0
  7 39  1  0
  8  9  1  0
  8 40  1  0
  8 41  1  0
  9 10  1  6
  9 11  1  0
  9 28  1  0
 10 42  1  0
 10 43  1  0
 10 44  1  0
 24 11  1  6
 11 12  1  0
 11 45  1  0
 12 13  1  0
 12 46  1  0
 12 47  1  0
 13 27  1  0
 13 14  1  0
 13 48  1  1
 14 15  1  0
 14 49  1  0
 14 50  1  0
 15 16  1  0
 15 51  1  0
 15 52  1  0
 16 17  1  0
 16 53  1  0
 16 54  1  0
 17 25  1  0
 17 18  1  6
 17 19  1  0
 18 55  1  0
 18 56  1  0
 18 57  1  0
 19 20  1  0
 19 58  1  0
 19 59  1  0
 20 21  1  0
 20 60  1  0
 20 61  1  0
 21 22  1  0
 21 62  1  0
 21 63  1  0
 22 23  1  6
 22 24  1  0
 22 25  1  0
 23 64  1  0
 25 26  1  6
 25 27  1  0
 26 65  1  0
 26 66  1  0
 26 67  1  0
 27 68  1  1
 28 29  1  0
 28 30  1  0
 29 69  1  0
 29 70  1  0
 29 71  1  0
 30 72  1  0
 30 73  1  0
 30 74  1  0
M  CHG  2  17   1  28   1
M  END
>  <i_m_ct_stereo_status>  (67) 
1

>  <s_m_source_file>  (67) 
/var/tmp/pbs.5076255.sched01/tmppe38rura/0ules8z9c.sdf

>  <i_m_source_file_index>  (67) 
34

>  <i_lp_mmshare_version>  (67) 
48012

>  <i_f3d_flags>  (67) 
0

>  <s_epik_input>  (67) 
W09IXVtDQF0xMltDSDJdW0NIMl1bQ0gyXVtOQCtdKFtDSDNdKShbQ0gyXVtDSDJdW0NIMl0zKVtDQF0yKFtDSDNdKVtDQEhdKFtDQEBIXTRPW0NIM10pW0NIXTNbQ0gyXVtDQEhdNVtDQF0oW0NIM10pKFtOK102KFtDSDNdKVtDSDNdKVtDSDJdW0NIMl1bQ0BASF03W0NASF02W0NASF00W0NAXTE1Nw==

>  <s_epik_cmdline>  (67) 
J2VwaWtfcHl0aG9uJywgJy1waHQnLCAnMi4wJywgJy1waCcsICc3LjAnLCAnLXRuJywgJzgnLCAnLW1hJywgJzIwMCcsICctaW1hZScsICc8aW5maWxlLm1hZT4nLCAnLW9tYWUnLCAnPG91dGZpbGUubWFlPic=

>  <r_lp_tautomer_probability>  (67) 
1

>  <r_epik_Ionization_Penalty>  (67) 
0.000103824

>  <r_epik_Ionization_Penalty_Charging>  (67) 
0

>  <r_epik_Ionization_Penalty_Neutral>  (67) 
0.000103824

>  <r_epik_State_Penalty>  (67) 
-0

>  <r_epik_Charging_Adjusted_Penalty>  (67) 
0

>  <i_epik_Tot_Q>  (67) 
2

>  <i_epik_Tot_abs_Q>  (67) 
2

>  <s_lp_Force_Field>  (67) 
OPLS3e

>  <r_lp_Energy>  (67) 
264.339

>  <b_lp_Chiralities_Consistent>  (67) 
1

>  <s_lp_Variant>  (67) 
25:0-1

>  <s_i_glide_gridfile>  (67) 
pfpi4k_grid

>  <i_i_glide_lignum>  (67) 
34

>  <i_i_glide_rotatable_bonds>  (67) 
2

>  <r_i_docking_score>  (67) 
-1.75055

>  <r_i_glide_ligand_efficiency>  (67) 
-0.0583516

>  <r_i_glide_ligand_efficiency_sa>  (67) 
-0.181312

>  <r_i_glide_ligand_efficiency_ln>  (67) 
-0.397744

>  <r_i_glide_gscore>  (67) 
-1.75055

>  <r_i_glide_lipo>  (67) 
-0.00236986

>  <r_i_glide_hbond>  (67) 
0

>  <r_i_glide_metal>  (67) 
-0

>  <r_i_glide_rewards>  (67) 
-0.568365

>  <r_i_glide_evdw>  (67) 
-14.9276

>  <r_i_glide_ecoul>  (67) 
-2.68527

>  <r_i_glide_erotb>  (67) 
0

>  <r_i_glide_esite>  (67) 
-0.030642

>  <r_i_glide_emodel>  (67) 
-18.8632

>  <r_i_glide_energy>  (67) 
-17.6129

>  <r_i_glide_einternal>  (67) 
0.800422

>  <r_i_glide_intrahb_reward>  (67) 
-0

>  <i_i_glide_confnum>  (67) 
1

>  <i_i_glide_posenum>  (67) 
2

>  <r_i_glide_eff_state_penalty>  (67) 
0

>  <ligand_id>  (67) 
25

>  <original_smiles>  (67) 
COC1C2C3C4CCC(C)(C5CC6CCC[N+]7(C)CCCC(O)(C425)C7(C)C61)[N+]3(C)C

>  <smiles>  (67) 
[H]OC12C([H])([H])C([H])([H])C([H])([H])[N+]3(C([H])([H])[H])C([H])([H])C([H])([H])C([H])([H])C4([H])C([H])([H])C5([H])C16C1([H])C([H])([H])C([H])([H])C5(C([H])([H])[H])[N+](C([H])([H])[H])(C([H])([H])[H])C1([H])C6([H])C([H])(OC([H])([H])[H])C4([H])C23C([H])([H])[H]

$$$$
26:0:0
     RDKit          3D

 92 97  0  0  1  0  0  0  0  0999 V2000
   -1.5808   -7.3520    4.0172 C   0  0  0  0  0  0  0  0  0  0  0  0
   -0.3728   -7.6029    3.1352 C   0  0  0  0  0  0  0  0  0  0  0  0
   -0.3456   -8.9825    2.4835 C   0  0  0  0  0  0  0  0  0  0  0  0
    0.6101   -6.7280    2.9158 C   0  0  0  0  0  0  0  0  0  0  0  0
    0.6192   -5.4618    3.4809 O   0  0  0  0  0  0  0  0  0  0  0  0
    1.6970   -4.6003    3.1003 C   0  0  0  0  0  0  0  0  0  0  0  0
    2.3669   -4.0328    4.3741 C   0  0  2  0  0  0  0  0  0  0  0  0
    1.4071   -3.4327    5.3872 C   0  0  0  0  0  0  0  0  0  0  0  0
    0.9131   -2.0664    4.9112 C   0  0  1  0  0  0  0  0  0  0  0  0
   -0.4178   -1.8113    5.6258 C   0  0  0  0  0  0  0  0  0  0  0  0
    2.0686   -0.9764    4.9664 C   0  0  1  0  0  0  0  0  0  0  0  0
    3.3343   -1.4954    4.1107 C   0  0  2  0  0  0  0  0  0  0  0  0
    4.7135   -1.0709    4.7280 C   0  0  0  0  0  0  0  0  0  0  0  0
    3.2475   -1.0045    2.6141 C   0  0  0  0  0  0  0  0  0  0  0  0
    2.6038    0.3869    2.2807 C   0  0  0  0  0  0  0  0  0  0  0  0
    1.3332    0.7614    3.1217 C   0  0  2  0  0  0  0  0  0  0  0  0
    0.3091   -0.2252    2.4767 C   0  0  0  0  0  0  0  0  0  0  0  0
    0.8310    2.2591    2.8244 C   0  0  1  0  0  0  0  0  0  0  0  0
   -0.7470    2.3411    2.7845 C   0  0  0  0  0  0  0  0  0  0  0  0
   -1.2298    1.9306    4.1624 C   0  0  0  0  0  0  0  0  0  0  0  0
   -0.3809    2.2610    5.1397 C   0  0  0  0  0  0  0  0  0  0  0  0
    0.5521    1.1969    5.7169 C   0  0  1  0  0  0  0  0  0  0  0  0
    0.1198    0.8039    7.1420 C   0  0  0  0  0  0  0  0  0  0  0  0
    0.1100    1.9750    8.2161 C   0  0  0  0  0  0  0  0  0  0  0  0
   -1.0456    1.6922    9.2031 C   0  0  0  0  0  0  0  0  0  0  0  0
    1.3994    1.9195    9.0665 C   0  0  0  0  0  0  0  0  0  0  0  0
   -0.0961    3.4502    7.6739 C   0  0  0  0  0  0  0  0  0  0  0  0
    0.8120    4.0040    6.5152 C   0  0  0  0  0  0  0  0  0  0  0  0
    0.3246    3.6081    5.0619 C   0  0  2  0  0  0  0  0  0  0  0  0
   -0.6639    4.7588    4.6742 C   0  0  0  0  0  0  0  0  0  0  0  0
    1.3563    3.3474    3.8753 C   0  0  1  0  0  0  0  0  0  0  0  0
    2.7768    2.9832    4.3309 C   0  0  0  0  0  0  0  0  0  0  0  0
    2.9481    1.5348    4.8827 C   0  0  1  0  0  0  0  0  0  0  0  0
    3.6869    1.5199    6.2485 C   0  0  0  0  0  0  0  0  0  0  0  0
    1.6664    0.5711    4.6940 C   0  0  1  0  0  0  0  0  0  0  0  0
    3.5402   -3.0693    4.1379 C   0  0  0  0  0  0  0  0  0  0  0  0
   -2.5015   -7.4396    3.4411 H   0  0  0  0  0  0  0  0  0  0  0  0
   -1.5467   -6.3604    4.4772 H   0  0  0  0  0  0  0  0  0  0  0  0
   -1.6240   -8.0899    4.8187 H   0  0  0  0  0  0  0  0  0  0  0  0
   -1.2211   -9.1243    1.8505 H   0  0  0  0  0  0  0  0  0  0  0  0
   -0.3341   -9.7652    3.2413 H   0  0  0  0  0  0  0  0  0  0  0  0
    0.5452   -9.0914    1.8688 H   0  0  0  0  0  0  0  0  0  0  0  0
    1.4629   -6.9413    2.2888 H   0  0  0  0  0  0  0  0  0  0  0  0
    2.4729   -5.0857    2.5028 H   0  0  0  0  0  0  0  0  0  0  0  0
    1.2971   -3.8034    2.4761 H   0  0  0  0  0  0  0  0  0  0  0  0
    2.7953   -4.9145    4.8407 H   0  0  0  0  0  0  0  0  0  0  0  0
    0.5701   -4.1249    5.5482 H   0  0  0  0  0  0  0  0  0  0  0  0
    1.9048   -3.3389    6.3511 H   0  0  0  0  0  0  0  0  0  0  0  0
    0.6220   -2.2459    3.8942 H   0  0  0  0  0  0  0  0  0  0  0  0
   -0.2916   -1.7921    6.7078 H   0  0  0  0  0  0  0  0  0  0  0  0
   -1.1227   -2.6184    5.4110 H   0  0  0  0  0  0  0  0  0  0  0  0
   -0.9039   -0.9050    5.2785 H   0  0  0  0  0  0  0  0  0  0  0  0
    2.3841   -1.0129    6.0082 H   0  0  0  0  0  0  0  0  0  0  0  0
    5.5148   -1.7717    4.4955 H   0  0  0  0  0  0  0  0  0  0  0  0
    4.6651   -1.0455    5.8168 H   0  0  0  0  0  0  0  0  0  0  0  0
    5.1494   -0.1484    4.3680 H   0  0  0  0  0  0  0  0  0  0  0  0
    4.2485   -0.9889    2.2000 H   0  0  0  0  0  0  0  0  0  0  0  0
    2.7406   -1.7783    2.0208 H   0  0  0  0  0  0  0  0  0  0  0  0
    3.3496    1.1829    2.2655 H   0  0  0  0  0  0  0  0  0  0  0  0
    2.3340    0.3618    1.2297 H   0  0  0  0  0  0  0  0  0  0  0  0
   -0.5582   -0.4236    3.0908 H   0  0  0  0  0  0  0  0  0  0  0  0
    0.7179   -1.1884    2.1986 H   0  0  0  0  0  0  0  0  0  0  0  0
   -0.0259    0.1332    1.5042 H   0  0  0  0  0  0  0  0  0  0  0  0
    1.1939    2.5287    1.8357 H   0  0  0  0  0  0  0  0  0  0  0  0
   -1.0856    3.3285    2.5129 H   0  0  0  0  0  0  0  0  0  0  0  0
   -1.2293    1.7286    2.0298 H   0  0  0  0  0  0  0  0  0  0  0  0
   -1.6324    0.9354    4.1683 H   0  0  0  0  0  0  0  0  0  0  0  0
    1.2811    1.7651    6.2376 H   0  0  0  0  0  0  0  0  0  0  0  0
   -0.8924    0.4087    7.0800 H   0  0  0  0  0  0  0  0  0  0  0  0
    0.7493   -0.0054    7.5097 H   0  0  0  0  0  0  0  0  0  0  0  0
   -1.0690    2.4165   10.0191 H   0  0  0  0  0  0  0  0  0  0  0  0
   -0.9487    0.7069    9.6616 H   0  0  0  0  0  0  0  0  0  0  0  0
   -2.0193    1.7384    8.7125 H   0  0  0  0  0  0  0  0  0  0  0  0
    1.3506    2.6060    9.9116 H   0  0  0  0  0  0  0  0  0  0  0  0
    2.2795    2.1885    8.4982 H   0  0  0  0  0  0  0  0  0  0  0  0
    1.5670    0.9246    9.4798 H   0  0  0  0  0  0  0  0  0  0  0  0
   -1.1454    3.6021    7.4053 H   0  0  0  0  0  0  0  0  0  0  0  0
    0.0552    4.1130    8.5244 H   0  0  0  0  0  0  0  0  0  0  0  0
    0.8794    5.0871    6.6178 H   0  0  0  0  0  0  0  0  0  0  0  0
    1.8325    3.7138    6.7178 H   0  0  0  0  0  0  0  0  0  0  0  0
   -0.4024    5.7201    5.1202 H   0  0  0  0  0  0  0  0  0  0  0  0
   -1.6842    4.5348    4.9894 H   0  0  0  0  0  0  0  0  0  0  0  0
   -0.6810    4.9836    3.6113 H   0  0  0  0  0  0  0  0  0  0  0  0
    1.4449    4.2941    3.3407 H   0  0  0  0  0  0  0  0  0  0  0  0
    3.4149    3.1007    3.4543 H   0  0  0  0  0  0  0  0  0  0  0  0
    3.1618    3.7360    5.0148 H   0  0  0  0  0  0  0  0  0  0  0  0
    3.7359    1.2002    4.2555 H   0  0  0  0  0  0  0  0  0  0  0  0
    3.5660    2.4490    6.8007 H   0  0  0  0  0  0  0  0  0  0  0  0
    4.7650    1.4148    6.1119 H   0  0  0  0  0  0  0  0  0  0  0  0
    3.3615    0.7078    6.8973 H   0  0  0  0  0  0  0  0  0  0  0  0
    4.2405   -3.3509    4.9493 H   0  0  0  0  0  0  0  0  0  0  0  0
    4.0505   -3.3720    3.2321 H   0  0  0  0  0  0  0  0  0  0  0  0
  1  2  1  0
  1 37  1  0
  1 38  1  0
  1 39  1  0
  2  3  1  0
  2  4  2  3
  3 40  1  0
  3 41  1  0
  3 42  1  0
  4  5  1  0
  4 43  1  0
  5  6  1  0
  6  7  1  0
  6 44  1  0
  6 45  1  0
  7 36  1  0
  7  8  1  0
  7 46  1  1
  8  9  1  0
  8 47  1  0
  8 48  1  0
  9 10  1  0
  9 11  1  0
  9 49  1  6
 10 50  1  0
 10 51  1  0
 10 52  1  0
 11 35  1  0
 11 12  1  0
 11 53  1  1
 12 13  1  1
 12 14  1  0
 12 36  1  0
 13 54  1  0
 13 55  1  0
 13 56  1  0
 14 15  1  0
 14 57  1  0
 14 58  1  0
 15 16  1  0
 15 59  1  0
 15 60  1  0
 35 16  1  6
 16 17  1  6
 16 18  1  0
 17 61  1  0
 17 62  1  0
 17 63  1  0
 18 31  1  0
 18 19  1  0
 18 64  1  6
 19 20  1  0
 19 65  1  0
 19 66  1  0
 20 21  2  0
 20 67  1  0
 21 29  1  0
 21 22  1  0
 22 35  1  0
 22 23  1  0
 22 68  1  1
 23 24  1  0
 23 69  1  0
 23 70  1  0
 24 25  1  0
 24 26  1  0
 24 27  1  0
 25 71  1  0
 25 72  1  0
 25 73  1  0
 26 74  1  0
 26 75  1  0
 26 76  1  0
 27 28  1  0
 27 77  1  0
 27 78  1  0
 28 29  1  0
 28 79  1  0
 28 80  1  0
 29 30  1  6
 29 31  1  0
 30 81  1  0
 30 82  1  0
 30 83  1  0
 31 32  1  0
 31 84  1  6
 32 33  1  0
 32 85  1  0
 32 86  1  0
 33 34  1  0
 33 35  1  0
 33 87  1  6
 34 88  1  0
 34 89  1  0
 34 90  1  0
 36 91  1  0
 36 92  1  0
M  END
>  <i_m_ct_stereo_status>  (68) 
1

>  <s_m_source_file>  (68) 
/var/tmp/pbs.5076255.sched01/tmppe38rura/0ules8z9c.sdf

>  <i_m_source_file_index>  (68) 
35

>  <i_lp_mmshare_version>  (68) 
48012

>  <i_f3d_flags>  (68) 
0

>  <s_epik_input>  (68) 
W0NIM11DKFtDSDNdKT1bQ0hdT1tDSDJdW0NASF0oW0NIMl1bQ0BIXTFbQ0gzXSlbQ0gyXVtDQEBdKFtDQEhdMVtDQEBdMjM0KShbQ0gzXSlbQ0gyXVtDSDJdW0NAXTIoW0NIM10pW0NAQEhdNVtDQEhdKFtDSDJdW0NASF00W0NIM10pW0NAQF02KFtDSDNdKUMoPVtDSF1bQ0gyXTUpW0NASF0zW0NIMl1DKFtDSDNdKShbQ0gzXSlbQ0gyXVtDSDJdNg==

>  <s_epik_cmdline>  (68) 
J2VwaWtfcHl0aG9uJywgJy1waHQnLCAnMi4wJywgJy1waCcsICc3LjAnLCAnLXRuJywgJzgnLCAnLW1hJywgJzIwMCcsICctaW1hZScsICc8aW5maWxlLm1hZT4nLCAnLW9tYWUnLCAnPG91dGZpbGUubWFlPic=

>  <r_lp_tautomer_probability>  (68) 
1

>  <r_epik_Ionization_Penalty>  (68) 
0

>  <r_epik_Ionization_Penalty_Charging>  (68) 
0

>  <r_epik_Ionization_Penalty_Neutral>  (68) 
0

>  <r_epik_State_Penalty>  (68) 
-0

>  <r_epik_Charging_Adjusted_Penalty>  (68) 
0

>  <i_epik_Tot_Q>  (68) 
0

>  <i_epik_Tot_abs_Q>  (68) 
0

>  <s_lp_Force_Field>  (68) 
OPLS3e

>  <r_lp_Energy>  (68) 
235.185

>  <b_lp_Chiralities_Consistent>  (68) 
1

>  <s_lp_Variant>  (68) 
26:0-1

>  <s_i_glide_gridfile>  (68) 
pfpi4k_grid

>  <i_i_glide_lignum>  (68) 
35

>  <i_i_glide_rotatable_bonds>  (68) 
3

>  <r_i_docking_score>  (68) 
-1.18902

>  <r_i_glide_ligand_efficiency>  (68) 
-0.0330284

>  <r_i_glide_ligand_efficiency_sa>  (68) 
-0.109057

>  <r_i_glide_ligand_efficiency_ln>  (68) 
-0.259412

>  <r_i_glide_gscore>  (68) 
-1.18902

>  <r_i_glide_lipo>  (68) 
-0.0325577

>  <r_i_glide_hbond>  (68) 
-0.0108588

>  <r_i_glide_metal>  (68) 
-0

>  <r_i_glide_rewards>  (68) 
-0.0489645

>  <r_i_glide_evdw>  (68) 
-24.0709

>  <r_i_glide_ecoul>  (68) 
-0.964501

>  <r_i_glide_erotb>  (68) 
0.251581

>  <r_i_glide_esite>  (68) 
0

>  <r_i_glide_emodel>  (68) 
-24.4197

>  <r_i_glide_energy>  (68) 
-25.0354

>  <r_i_glide_einternal>  (68) 
3.8176

>  <r_i_glide_intrahb_reward>  (68) 
-0

>  <i_i_glide_confnum>  (68) 
1

>  <i_i_glide_posenum>  (68) 
7

>  <r_i_glide_eff_state_penalty>  (68) 
0

>  <ligand_id>  (68) 
26

>  <original_smiles>  (68) 
CC(C)=COCC1CC(C)C2C(C)(CCC3(C)C4CC=C5C6CC(C)(C)CCC5(C)C4CC(C)C623)C1

>  <smiles>  (68) 
[H]C(OC([H])([H])C1([H])C([H])([H])C([H])(C([H])([H])[H])C2([H])C(C([H])([H])[H])(C([H])([H])C([H])([H])C3(C([H])([H])[H])C4([H])C([H])([H])C([H])=C5C6([H])C([H])([H])C(C([H])([H])[H])(C([H])([H])[H])C([H])([H])C([H])([H])C5(C([H])([H])[H])C4([H])C([H])([H])C([H])(C([H])([H])[H])C623)C1([H])[H])=C(C([H])([H])[H])C([H])([H])[H]

$$$$
26:0:1
     RDKit          3D

 92 97  0  0  1  0  0  0  0  0999 V2000
   -1.9517   -7.5746    4.0367 C   0  0  0  0  0  0  0  0  0  0  0  0
   -0.6823   -7.4008    3.2229 C   0  0  0  0  0  0  0  0  0  0  0  0
   -0.5212   -8.3846    2.0816 C   0  0  0  0  0  0  0  0  0  0  0  0
    0.2408   -6.4582    3.4868 C   0  0  0  0  0  0  0  0  0  0  0  0
    0.1232   -5.5655    4.5138 O   0  0  0  0  0  0  0  0  0  0  0  0
    1.2527   -4.6988    4.6677 C   0  0  0  0  0  0  0  0  0  0  0  0
    1.1605   -4.0107    6.0483 C   0  0  2  0  0  0  0  0  0  0  0  0
   -0.0330   -3.0885    6.2176 C   0  0  0  0  0  0  0  0  0  0  0  0
    0.2114   -1.7627    5.4965 C   0  0  1  0  0  0  0  0  0  0  0  0
   -1.1623   -1.1543    5.2021 C   0  0  0  0  0  0  0  0  0  0  0  0
    1.3392   -0.8930    6.2068 C   0  0  1  0  0  0  0  0  0  0  0  0
    2.6828   -1.7691    6.3433 C   0  0  2  0  0  0  0  0  0  0  0  0
    3.4706   -1.4736    7.6716 C   0  0  0  0  0  0  0  0  0  0  0  0
    3.6280   -1.5684    5.0988 C   0  0  0  0  0  0  0  0  0  0  0  0
    3.6830   -0.1742    4.3852 C   0  0  0  0  0  0  0  0  0  0  0  0
    2.3059    0.5581    4.2201 C   0  0  2  0  0  0  0  0  0  0  0  0
    1.6646   -0.3567    3.1160 C   0  0  0  0  0  0  0  0  0  0  0  0
    2.4766    2.0344    3.6160 C   0  0  1  0  0  0  0  0  0  0  0  0
    1.3226    2.3615    2.5999 C   0  0  0  0  0  0  0  0  0  0  0  0
    0.0277    2.3111    3.3787 C   0  0  0  0  0  0  0  0  0  0  0  0
    0.1706    2.6754    4.6621 C   0  0  0  0  0  0  0  0  0  0  0  0
    0.2733    1.6088    5.7374 C   0  0  1  0  0  0  0  0  0  0  0  0
   -1.0105    1.5662    6.5973 C   0  0  0  0  0  0  0  0  0  0  0  0
   -1.3652    2.9030    7.3758 C   0  0  0  0  0  0  0  0  0  0  0  0
   -2.9057    3.0174    7.4312 C   0  0  0  0  0  0  0  0  0  0  0  0
   -0.9070    2.7953    8.8474 C   0  0  0  0  0  0  0  0  0  0  0  0
   -0.8304    4.2611    6.7564 C   0  0  0  0  0  0  0  0  0  0  0  0
    0.6901    4.4261    6.3968 C   0  0  0  0  0  0  0  0  0  0  0  0
    1.0884    3.8425    4.9784 C   0  0  2  0  0  0  0  0  0  0  0  0
    0.8498    5.0558    4.0104 C   0  0  0  0  0  0  0  0  0  0  0  0
    2.5191    3.1978    4.7111 C   0  0  1  0  0  0  0  0  0  0  0  0
    3.2393    2.6961    5.9696 C   0  0  0  0  0  0  0  0  0  0  0  0
    2.6731    1.3732    6.5706 C   0  0  1  0  0  0  0  0  0  0  0  0
    2.4218    1.4943    8.0997 C   0  0  0  0  0  0  0  0  0  0  0  0
    1.5709    0.6136    5.6635 C   0  0  1  0  0  0  0  0  0  0  0  0
    2.4330   -3.3150    6.5721 C   0  0  0  0  0  0  0  0  0  0  0  0
   -2.8251   -7.4589    3.3979 H   0  0  0  0  0  0  0  0  0  0  0  0
   -2.0194   -6.8501    4.8473 H   0  0  0  0  0  0  0  0  0  0  0  0
   -1.9855   -8.5760    4.4680 H   0  0  0  0  0  0  0  0  0  0  0  0
   -1.3502   -8.3088    1.3785 H   0  0  0  0  0  0  0  0  0  0  0  0
   -0.4950   -9.4072    2.4597 H   0  0  0  0  0  0  0  0  0  0  0  0
    0.4076   -8.2086    1.5366 H   0  0  0  0  0  0  0  0  0  0  0  0
    1.1520   -6.3422    2.9010 H   0  0  0  0  0  0  0  0  0  0  0  0
    2.1707   -5.2880    4.6335 H   0  0  0  0  0  0  0  0  0  0  0  0
    1.2932   -3.9974    3.8343 H   0  0  0  0  0  0  0  0  0  0  0  0
    1.0097   -4.8482    6.7268 H   0  0  0  0  0  0  0  0  0  0  0  0
   -0.9287   -3.5957    5.8413 H   0  0  0  0  0  0  0  0  0  0  0  0
   -0.2039   -2.9074    7.2792 H   0  0  0  0  0  0  0  0  0  0  0  0
    0.5514   -2.0622    4.5245 H   0  0  0  0  0  0  0  0  0  0  0  0
   -1.7189   -0.9478    6.1113 H   0  0  0  0  0  0  0  0  0  0  0  0
   -1.7694   -1.8546    4.6286 H   0  0  0  0  0  0  0  0  0  0  0  0
   -1.0981   -0.2675    4.5810 H   0  0  0  0  0  0  0  0  0  0  0  0
    0.9460   -0.7821    7.2176 H   0  0  0  0  0  0  0  0  0  0  0  0
    4.0499   -2.3281    8.0266 H   0  0  0  0  0  0  0  0  0  0  0  0
    2.7887   -1.2334    8.4919 H   0  0  0  0  0  0  0  0  0  0  0  0
    4.2447   -0.7210    7.6245 H   0  0  0  0  0  0  0  0  0  0  0  0
    4.6424   -1.7930    5.4107 H   0  0  0  0  0  0  0  0  0  0  0  0
    3.4074   -2.3446    4.3656 H   0  0  0  0  0  0  0  0  0  0  0  0
    4.4584    0.4689    4.8013 H   0  0  0  0  0  0  0  0  0  0  0  0
    4.1029   -0.3538    3.3970 H   0  0  0  0  0  0  0  0  0  0  0  0
    0.5852   -0.2999    3.0445 H   0  0  0  0  0  0  0  0  0  0  0  0
    1.9045   -1.4088    3.2036 H   0  0  0  0  0  0  0  0  0  0  0  0
    2.0740   -0.1461    2.1279 H   0  0  0  0  0  0  0  0  0  0  0  0
    3.4118    2.0591    3.0584 H   0  0  0  0  0  0  0  0  0  0  0  0
    1.4845    3.3280    2.1553 H   0  0  0  0  0  0  0  0  0  0  0  0
    1.2503    1.7205    1.7253 H   0  0  0  0  0  0  0  0  0  0  0  0
   -0.5296    1.4174    3.1803 H   0  0  0  0  0  0  0  0  0  0  0  0
    0.6567    2.1314    6.5780 H   0  0  0  0  0  0  0  0  0  0  0  0
   -1.8458    1.3405    5.9342 H   0  0  0  0  0  0  0  0  0  0  0  0
   -0.9484    0.7493    7.3145 H   0  0  0  0  0  0  0  0  0  0  0  0
   -3.2290    3.8760    8.0222 H   0  0  0  0  0  0  0  0  0  0  0  0
   -3.3574    2.1422    7.8955 H   0  0  0  0  0  0  0  0  0  0  0  0
   -3.3468    3.1195    6.4375 H   0  0  0  0  0  0  0  0  0  0  0  0
   -1.2771    3.6280    9.4447 H   0  0  0  0  0  0  0  0  0  0  0  0
    0.1695    2.8013    8.9427 H   0  0  0  0  0  0  0  0  0  0  0  0
   -1.2734    1.8844    9.3212 H   0  0  0  0  0  0  0  0  0  0  0  0
   -1.4245    4.5276    5.8795 H   0  0  0  0  0  0  0  0  0  0  0  0
   -1.0596    5.0393    7.4839 H   0  0  0  0  0  0  0  0  0  0  0  0
    0.9492    5.4861    6.4690 H   0  0  0  0  0  0  0  0  0  0  0  0
    1.2748    4.0160    7.2076 H   0  0  0  0  0  0  0  0  0  0  0  0
    1.0232    6.0346    4.4695 H   0  0  0  0  0  0  0  0  0  0  0  0
   -0.1709    5.0809    3.6163 H   0  0  0  0  0  0  0  0  0  0  0  0
    1.5184    5.0824    3.1510 H   0  0  0  0  0  0  0  0  0  0  0  0
    3.1362    4.0026    4.3098 H   0  0  0  0  0  0  0  0  0  0  0  0
    4.2828    2.5371    5.6895 H   0  0  0  0  0  0  0  0  0  0  0  0
    3.3072    3.4911    6.7097 H   0  0  0  0  0  0  0  0  0  0  0  0
    3.5680    0.7986    6.5914 H   0  0  0  0  0  0  0  0  0  0  0  0
    2.2314    2.5175    8.4115 H   0  0  0  0  0  0  0  0  0  0  0  0
    3.3001    1.1870    8.6709 H   0  0  0  0  0  0  0  0  0  0  0  0
    1.5857    0.8866    8.4379 H   0  0  0  0  0  0  0  0  0  0  0  0
    2.4119   -3.5537    7.6452 H   0  0  0  0  0  0  0  0  0  0  0  0
    3.2864   -3.8685    6.1948 H   0  0  0  0  0  0  0  0  0  0  0  0
  1  2  1  0
  1 37  1  0
  1 38  1  0
  1 39  1  0
  2  3  1  0
  2  4  2  3
  3 40  1  0
  3 41  1  0
  3 42  1  0
  4  5  1  0
  4 43  1  0
  5  6  1  0
  6  7  1  0
  6 44  1  0
  6 45  1  0
  7 36  1  0
  7  8  1  0
  7 46  1  1
  8  9  1  0
  8 47  1  0
  8 48  1  0
  9 10  1  0
  9 11  1  0
  9 49  1  6
 10 50  1  0
 10 51  1  0
 10 52  1  0
 11 35  1  0
 11 12  1  0
 11 53  1  1
 12 13  1  1
 12 14  1  0
 12 36  1  0
 13 54  1  0
 13 55  1  0
 13 56  1  0
 14 15  1  0
 14 57  1  0
 14 58  1  0
 15 16  1  0
 15 59  1  0
 15 60  1  0
 35 16  1  6
 16 17  1  6
 16 18  1  0
 17 61  1  0
 17 62  1  0
 17 63  1  0
 18 31  1  0
 18 19  1  0
 18 64  1  6
 19 20  1  0
 19 65  1  0
 19 66  1  0
 20 21  2  0
 20 67  1  0
 21 29  1  0
 21 22  1  0
 22 35  1  0
 22 23  1  0
 22 68  1  1
 23 24  1  0
 23 69  1  0
 23 70  1  0
 24 25  1  0
 24 26  1  0
 24 27  1  0
 25 71  1  0
 25 72  1  0
 25 73  1  0
 26 74  1  0
 26 75  1  0
 26 76  1  0
 27 28  1  0
 27 77  1  0
 27 78  1  0
 28 29  1  0
 28 79  1  0
 28 80  1  0
 29 30  1  6
 29 31  1  0
 30 81  1  0
 30 82  1  0
 30 83  1  0
 31 32  1  0
 31 84  1  6
 32 33  1  0
 32 85  1  0
 32 86  1  0
 33 34  1  0
 33 35  1  0
 33 87  1  1
 34 88  1  0
 34 89  1  0
 34 90  1  0
 36 91  1  0
 36 92  1  0
M  END
>  <i_m_ct_stereo_status>  (69) 
1

>  <s_m_source_file>  (69) 
/var/tmp/pbs.5076255.sched01/tmppe38rura/0ules8z9c.sdf

>  <i_m_source_file_index>  (69) 
35

>  <i_lp_mmshare_version>  (69) 
48012

>  <i_f3d_flags>  (69) 
0

>  <s_epik_input>  (69) 
W0NIM11DKFtDSDNdKT1bQ0hdT1tDSDJdW0NASF0oW0NIMl1bQ0BIXTFbQ0gzXSlbQ0gyXVtDQEBdKFtDQEhdMVtDQEBdMjM0KShbQ0gzXSlbQ0gyXVtDSDJdW0NAXTIoW0NIM10pW0NAQEhdNVtDQEhdKFtDSDJdW0NASF00W0NIM10pW0NAQF02KFtDSDNdKUMoPVtDSF1bQ0gyXTUpW0NASF0zW0NIMl1DKFtDSDNdKShbQ0gzXSlbQ0gyXVtDSDJdNg==

>  <s_epik_cmdline>  (69) 
J2VwaWtfcHl0aG9uJywgJy1waHQnLCAnMi4wJywgJy1waCcsICc3LjAnLCAnLXRuJywgJzgnLCAnLW1hJywgJzIwMCcsICctaW1hZScsICc8aW5maWxlLm1hZT4nLCAnLW9tYWUnLCAnPG91dGZpbGUubWFlPic=

>  <r_lp_tautomer_probability>  (69) 
1

>  <r_epik_Ionization_Penalty>  (69) 
0

>  <r_epik_Ionization_Penalty_Charging>  (69) 
0

>  <r_epik_Ionization_Penalty_Neutral>  (69) 
0

>  <r_epik_State_Penalty>  (69) 
-0

>  <r_epik_Charging_Adjusted_Penalty>  (69) 
0

>  <i_epik_Tot_Q>  (69) 
0

>  <i_epik_Tot_abs_Q>  (69) 
0

>  <s_lp_Force_Field>  (69) 
OPLS3e

>  <r_lp_Energy>  (69) 
235.185

>  <b_lp_Chiralities_Consistent>  (69) 
1

>  <s_lp_Variant>  (69) 
26:0-1

>  <s_i_glide_gridfile>  (69) 
pfpi4k_grid

>  <i_i_glide_lignum>  (69) 
35

>  <i_i_glide_rotatable_bonds>  (69) 
3

>  <r_i_docking_score>  (69) 
-1.15418

>  <r_i_glide_ligand_efficiency>  (69) 
-0.0320606

>  <r_i_glide_ligand_efficiency_sa>  (69) 
-0.105862

>  <r_i_glide_ligand_efficiency_ln>  (69) 
-0.251812

>  <r_i_glide_gscore>  (69) 
-1.15418

>  <r_i_glide_lipo>  (69) 
-0.195556

>  <r_i_glide_hbond>  (69) 
0

>  <r_i_glide_metal>  (69) 
-0

>  <r_i_glide_rewards>  (69) 
-0.0489645

>  <r_i_glide_evdw>  (69) 
-22.7117

>  <r_i_glide_ecoul>  (69) 
-0.171058

>  <r_i_glide_erotb>  (69) 
0.251581

>  <r_i_glide_esite>  (69) 
0

>  <r_i_glide_emodel>  (69) 
-22.4785

>  <r_i_glide_energy>  (69) 
-22.8828

>  <r_i_glide_einternal>  (69) 
3.34943

>  <r_i_glide_intrahb_reward>  (69) 
-0

>  <i_i_glide_confnum>  (69) 
1

>  <i_i_glide_posenum>  (69) 
15

>  <r_i_glide_eff_state_penalty>  (69) 
0

>  <ligand_id>  (69) 
26

>  <original_smiles>  (69) 
CC(C)=COCC1CC(C)C2C(C)(CCC3(C)C4CC=C5C6CC(C)(C)CCC5(C)C4CC(C)C623)C1

>  <smiles>  (69) 
[H]C(OC([H])([H])C1([H])C([H])([H])C([H])(C([H])([H])[H])C2([H])C(C([H])([H])[H])(C([H])([H])C([H])([H])C3(C([H])([H])[H])C4([H])C([H])([H])C([H])=C5C6([H])C([H])([H])C(C([H])([H])[H])(C([H])([H])[H])C([H])([H])C([H])([H])C5(C([H])([H])[H])C4([H])C([H])([H])C([H])(C([H])([H])[H])C623)C1([H])[H])=C(C([H])([H])[H])C([H])([H])[H]

$$$$
26:0:2
     RDKit          3D

 92 97  0  0  1  0  0  0  0  0999 V2000
    0.0966   -0.8489    7.4714 C   0  0  0  0  0  0  0  0  0  0  0  0
   -0.5350   -1.8309    6.5047 C   0  0  0  0  0  0  0  0  0  0  0  0
   -0.9314   -1.2323    5.1564 C   0  0  0  0  0  0  0  0  0  0  0  0
   -0.7450   -3.1219    6.7701 C   0  0  0  0  0  0  0  0  0  0  0  0
   -0.4148   -3.7131    7.9740 O   0  0  0  0  0  0  0  0  0  0  0  0
   -0.4495   -5.1454    7.9640 C   0  0  0  0  0  0  0  0  0  0  0  0
    0.8772   -5.6900    8.5449 C   0  0  2  0  0  0  0  0  0  0  0  0
    2.1222   -5.1839    7.8347 C   0  0  0  0  0  0  0  0  0  0  0  0
    2.2912   -5.8803    6.4835 C   0  0  1  0  0  0  0  0  0  0  0  0
    3.1499   -4.9533    5.6170 C   0  0  0  0  0  0  0  0  0  0  0  0
    2.6915   -7.4087    6.6547 C   0  0  1  0  0  0  0  0  0  0  0  0
    1.6024   -8.1440    7.5887 C   0  0  2  0  0  0  0  0  0  0  0  0
    2.2260   -9.2390    8.5213 C   0  0  0  0  0  0  0  0  0  0  0  0
    0.4560   -8.7839    6.7189 C   0  0  0  0  0  0  0  0  0  0  0  0
    0.7636   -9.3530    5.2926 C   0  0  0  0  0  0  0  0  0  0  0  0
    1.7735   -8.5131    4.4341 C   0  0  2  0  0  0  0  0  0  0  0  0
    0.8592   -7.2843    4.0936 C   0  0  0  0  0  0  0  0  0  0  0  0
    2.1544   -9.2565    3.0579 C   0  0  1  0  0  0  0  0  0  0  0  0
    2.2758   -8.2266    1.8675 C   0  0  0  0  0  0  0  0  0  0  0  0
    3.3987   -7.2771    2.2434 C   0  0  0  0  0  0  0  0  0  0  0  0
    4.3589   -7.8516    2.9750 C   0  0  0  0  0  0  0  0  0  0  0  0
    4.3775   -7.6411    4.4870 C   0  0  1  0  0  0  0  0  0  0  0  0
    5.5496   -6.7298    4.9020 C   0  0  0  0  0  0  0  0  0  0  0  0
    7.0048   -7.2559    4.5391 C   0  0  0  0  0  0  0  0  0  0  0  0
    7.8792   -6.0211    4.2233 C   0  0  0  0  0  0  0  0  0  0  0  0
    7.6534   -7.9098    5.7798 C   0  0  0  0  0  0  0  0  0  0  0  0
    7.1292   -8.2395    3.3021 C   0  0  0  0  0  0  0  0  0  0  0  0
    6.2276   -9.5253    3.2195 C   0  0  0  0  0  0  0  0  0  0  0  0
    4.7825   -9.2700    2.6255 C   0  0  2  0  0  0  0  0  0  0  0  0
    4.9810   -9.4532    1.0828 C   0  0  0  0  0  0  0  0  0  0  0  0
    3.5146  -10.1002    3.1220 C   0  0  1  0  0  0  0  0  0  0  0  0
    3.6655  -10.7315    4.5139 C   0  0  0  0  0  0  0  0  0  0  0  0
    3.5654   -9.7361    5.7095 C   0  0  1  0  0  0  0  0  0  0  0  0
    4.7440   -9.9104    6.7068 C   0  0  0  0  0  0  0  0  0  0  0  0
    3.1017   -8.2374    5.3219 C   0  0  1  0  0  0  0  0  0  0  0  0
    0.9647   -7.2171    8.7086 C   0  0  0  0  0  0  0  0  0  0  0  0
    1.0089   -0.4336    7.0446 H   0  0  0  0  0  0  0  0  0  0  0  0
    0.3622   -1.3304    8.4170 H   0  0  0  0  0  0  0  0  0  0  0  0
   -0.5802   -0.0207    7.6856 H   0  0  0  0  0  0  0  0  0  0  0  0
   -0.0586   -0.8147    4.6575 H   0  0  0  0  0  0  0  0  0  0  0  0
   -1.6672   -0.4397    5.2885 H   0  0  0  0  0  0  0  0  0  0  0  0
   -1.3581   -1.9908    4.5055 H   0  0  0  0  0  0  0  0  0  0  0  0
   -1.1943   -3.8058    6.0735 H   0  0  0  0  0  0  0  0  0  0  0  0
   -1.2821   -5.4418    8.6015 H   0  0  0  0  0  0  0  0  0  0  0  0
   -0.6470   -5.6038    6.9913 H   0  0  0  0  0  0  0  0  0  0  0  0
    0.9028   -5.2799    9.5493 H   0  0  0  0  0  0  0  0  0  0  0  0
    2.0511   -4.0944    7.7140 H   0  0  0  0  0  0  0  0  0  0  0  0
    2.9971   -5.3600    8.4581 H   0  0  0  0  0  0  0  0  0  0  0  0
    1.3202   -5.8035    6.0360 H   0  0  0  0  0  0  0  0  0  0  0  0
    4.1332   -4.7887    6.0563 H   0  0  0  0  0  0  0  0  0  0  0  0
    2.6810   -3.9688    5.5347 H   0  0  0  0  0  0  0  0  0  0  0  0
    3.2413   -5.3116    4.5966 H   0  0  0  0  0  0  0  0  0  0  0  0
    3.6007   -7.3519    7.2522 H   0  0  0  0  0  0  0  0  0  0  0  0
    1.6648   -9.3864    9.4446 H   0  0  0  0  0  0  0  0  0  0  0  0
    3.2315   -8.9597    8.8380 H   0  0  0  0  0  0  0  0  0  0  0  0
    2.2394  -10.2537    8.1414 H   0  0  0  0  0  0  0  0  0  0  0  0
   -0.0009   -9.5895    7.2812 H   0  0  0  0  0  0  0  0  0  0  0  0
   -0.3409   -8.0420    6.6226 H   0  0  0  0  0  0  0  0  0  0  0  0
    1.0132  -10.4150    5.3343 H   0  0  0  0  0  0  0  0  0  0  0  0
   -0.1853   -9.4092    4.7685 H   0  0  0  0  0  0  0  0  0  0  0  0
    1.3912   -6.3872    3.8029 H   0  0  0  0  0  0  0  0  0  0  0  0
    0.1880   -6.9882    4.8887 H   0  0  0  0  0  0  0  0  0  0  0  0
    0.1413   -7.5231    3.3099 H   0  0  0  0  0  0  0  0  0  0  0  0
    1.3445   -9.9389    2.8112 H   0  0  0  0  0  0  0  0  0  0  0  0
    2.4614   -8.7321    0.9333 H   0  0  0  0  0  0  0  0  0  0  0  0
    1.3774   -7.6592    1.6442 H   0  0  0  0  0  0  0  0  0  0  0  0
    3.0352   -6.3249    2.5797 H   0  0  0  0  0  0  0  0  0  0  0  0
    5.0250   -8.4064    4.8354 H   0  0  0  0  0  0  0  0  0  0  0  0
    5.4151   -5.7701    4.4046 H   0  0  0  0  0  0  0  0  0  0  0  0
    5.5047   -6.5305    5.9722 H   0  0  0  0  0  0  0  0  0  0  0  0
    8.9183   -6.2959    4.0320 H   0  0  0  0  0  0  0  0  0  0  0  0
    7.8848   -5.3115    5.0527 H   0  0  0  0  0  0  0  0  0  0  0  0
    7.5234   -5.4903    3.3383 H   0  0  0  0  0  0  0  0  0  0  0  0
    8.7055   -8.1353    5.6076 H   0  0  0  0  0  0  0  0  0  0  0  0
    7.1753   -8.8410    6.0507 H   0  0  0  0  0  0  0  0  0  0  0  0
    7.6100   -7.2530    6.6490 H   0  0  0  0  0  0  0  0  0  0  0  0
    7.0299   -7.6764    2.3695 H   0  0  0  0  0  0  0  0  0  0  0  0
    8.1611   -8.5865    3.2870 H   0  0  0  0  0  0  0  0  0  0  0  0
    6.7557  -10.2799    2.6353 H   0  0  0  0  0  0  0  0  0  0  0  0
    6.2126   -9.9915    4.1936 H   0  0  0  0  0  0  0  0  0  0  0  0
    5.7521  -10.1841    0.8315 H   0  0  0  0  0  0  0  0  0  0  0  0
    5.2642   -8.5221    0.5883 H   0  0  0  0  0  0  0  0  0  0  0  0
    4.1099   -9.8493    0.5697 H   0  0  0  0  0  0  0  0  0  0  0  0
    3.4155  -10.9351    2.4274 H   0  0  0  0  0  0  0  0  0  0  0  0
    2.8694  -11.4734    4.6122 H   0  0  0  0  0  0  0  0  0  0  0  0
    4.5652  -11.3407    4.5565 H   0  0  0  0  0  0  0  0  0  0  0  0
    2.7983  -10.2126    6.2678 H   0  0  0  0  0  0  0  0  0  0  0  0
    5.6333  -10.3226    6.2363 H   0  0  0  0  0  0  0  0  0  0  0  0
    4.4884  -10.6242    7.4926 H   0  0  0  0  0  0  0  0  0  0  0  0
    5.0298   -8.9793    7.1932 H   0  0  0  0  0  0  0  0  0  0  0  0
    1.5322   -7.3171    9.6552 H   0  0  0  0  0  0  0  0  0  0  0  0
   -0.0226   -7.5890    8.9491 H   0  0  0  0  0  0  0  0  0  0  0  0
  1  2  1  0
  1 37  1  0
  1 38  1  0
  1 39  1  0
  2  3  1  0
  2  4  2  3
  3 40  1  0
  3 41  1  0
  3 42  1  0
  4  5  1  0
  4 43  1  0
  5  6  1  0
  6  7  1  0
  6 44  1  0
  6 45  1  0
  7 36  1  0
  7  8  1  0
  7 46  1  1
  8  9  1  0
  8 47  1  0
  8 48  1  0
  9 10  1  0
  9 11  1  0
  9 49  1  6
 10 50  1  0
 10 51  1  0
 10 52  1  0
 11 35  1  0
 11 12  1  0
 11 53  1  1
 12 13  1  1
 12 14  1  0
 12 36  1  0
 13 54  1  0
 13 55  1  0
 13 56  1  0
 14 15  1  0
 14 57  1  0
 14 58  1  0
 15 16  1  0
 15 59  1  0
 15 60  1  0
 35 16  1  6
 16 17  1  6
 16 18  1  0
 17 61  1  0
 17 62  1  0
 17 63  1  0
 18 31  1  0
 18 19  1  0
 18 64  1  6
 19 20  1  0
 19 65  1  0
 19 66  1  0
 20 21  2  0
 20 67  1  0
 21 29  1  0
 21 22  1  0
 22 35  1  0
 22 23  1  0
 22 68  1  1
 23 24  1  0
 23 69  1  0
 23 70  1  0
 24 25  1  0
 24 26  1  0
 24 27  1  0
 25 71  1  0
 25 72  1  0
 25 73  1  0
 26 74  1  0
 26 75  1  0
 26 76  1  0
 27 28  1  0
 27 77  1  0
 27 78  1  0
 28 29  1  0
 28 79  1  0
 28 80  1  0
 29 30  1  6
 29 31  1  0
 30 81  1  0
 30 82  1  0
 30 83  1  0
 31 32  1  0
 31 84  1  6
 32 33  1  0
 32 85  1  0
 32 86  1  0
 33 34  1  0
 33 35  1  0
 33 87  1  1
 34 88  1  0
 34 89  1  0
 34 90  1  0
 36 91  1  0
 36 92  1  0
M  END
>  <i_m_ct_stereo_status>  (70) 
1

>  <s_m_source_file>  (70) 
/var/tmp/pbs.5076255.sched01/tmppe38rura/0ules8z9c.sdf

>  <i_m_source_file_index>  (70) 
35

>  <i_lp_mmshare_version>  (70) 
48012

>  <i_f3d_flags>  (70) 
0

>  <s_epik_input>  (70) 
W0NIM11DKFtDSDNdKT1bQ0hdT1tDSDJdW0NASF0oW0NIMl1bQ0BIXTFbQ0gzXSlbQ0gyXVtDQEBdKFtDQEhdMVtDQEBdMjM0KShbQ0gzXSlbQ0gyXVtDSDJdW0NAXTIoW0NIM10pW0NAQEhdNVtDQEhdKFtDSDJdW0NASF00W0NIM10pW0NAQF02KFtDSDNdKUMoPVtDSF1bQ0gyXTUpW0NASF0zW0NIMl1DKFtDSDNdKShbQ0gzXSlbQ0gyXVtDSDJdNg==

>  <s_epik_cmdline>  (70) 
J2VwaWtfcHl0aG9uJywgJy1waHQnLCAnMi4wJywgJy1waCcsICc3LjAnLCAnLXRuJywgJzgnLCAnLW1hJywgJzIwMCcsICctaW1hZScsICc8aW5maWxlLm1hZT4nLCAnLW9tYWUnLCAnPG91dGZpbGUubWFlPic=

>  <r_lp_tautomer_probability>  (70) 
1

>  <r_epik_Ionization_Penalty>  (70) 
0

>  <r_epik_Ionization_Penalty_Charging>  (70) 
0

>  <r_epik_Ionization_Penalty_Neutral>  (70) 
0

>  <r_epik_State_Penalty>  (70) 
-0

>  <r_epik_Charging_Adjusted_Penalty>  (70) 
0

>  <i_epik_Tot_Q>  (70) 
0

>  <i_epik_Tot_abs_Q>  (70) 
0

>  <s_lp_Force_Field>  (70) 
OPLS3e

>  <r_lp_Energy>  (70) 
235.185

>  <b_lp_Chiralities_Consistent>  (70) 
1

>  <s_lp_Variant>  (70) 
26:0-1

>  <s_i_glide_gridfile>  (70) 
pfpi4k_grid

>  <i_i_glide_lignum>  (70) 
35

>  <i_i_glide_rotatable_bonds>  (70) 
3

>  <r_i_docking_score>  (70) 
-1.00055

>  <r_i_glide_ligand_efficiency>  (70) 
-0.027793

>  <r_i_glide_ligand_efficiency_sa>  (70) 
-0.0917704

>  <r_i_glide_ligand_efficiency_ln>  (70) 
-0.218292

>  <r_i_glide_gscore>  (70) 
-1.00055

>  <r_i_glide_lipo>  (70) 
-0.0920492

>  <r_i_glide_hbond>  (70) 
0

>  <r_i_glide_metal>  (70) 
-0

>  <r_i_glide_rewards>  (70) 
-0.0489645

>  <r_i_glide_evdw>  (70) 
-19.5437

>  <r_i_glide_ecoul>  (70) 
-0.892849

>  <r_i_glide_erotb>  (70) 
0.251581

>  <r_i_glide_esite>  (70) 
0

>  <r_i_glide_emodel>  (70) 
-19.5156

>  <r_i_glide_energy>  (70) 
-20.4366

>  <r_i_glide_einternal>  (70) 
3.85244

>  <r_i_glide_intrahb_reward>  (70) 
-0

>  <i_i_glide_confnum>  (70) 
3

>  <i_i_glide_posenum>  (70) 
26

>  <r_i_glide_eff_state_penalty>  (70) 
0

>  <ligand_id>  (70) 
26

>  <original_smiles>  (70) 
CC(C)=COCC1CC(C)C2C(C)(CCC3(C)C4CC=C5C6CC(C)(C)CCC5(C)C4CC(C)C623)C1

>  <smiles>  (70) 
[H]C(OC([H])([H])C1([H])C([H])([H])C([H])(C([H])([H])[H])C2([H])C(C([H])([H])[H])(C([H])([H])C([H])([H])C3(C([H])([H])[H])C4([H])C([H])([H])C([H])=C5C6([H])C([H])([H])C(C([H])([H])[H])(C([H])([H])[H])C([H])([H])C([H])([H])C5(C([H])([H])[H])C4([H])C([H])([H])C([H])(C([H])([H])[H])C623)C1([H])[H])=C(C([H])([H])[H])C([H])([H])[H]

$$$$
26:1:0
     RDKit          3D

 92 97  0  0  1  0  0  0  0  0999 V2000
   -3.3892    6.4217    1.6773 C   0  0  0  0  0  0  0  0  0  0  0  0
   -3.7705    5.0275    2.1173 C   0  0  0  0  0  0  0  0  0  0  0  0
   -5.1418    4.5555    1.6534 C   0  0  0  0  0  0  0  0  0  0  0  0
   -2.9925    4.2319    2.8884 C   0  0  0  0  0  0  0  0  0  0  0  0
   -1.7641    4.6412    3.3622 O   0  0  0  0  0  0  0  0  0  0  0  0
   -1.2352    3.8292    4.4158 C   0  0  0  0  0  0  0  0  0  0  0  0
    0.2882    4.1033    4.5517 C   0  0  2  0  0  0  0  0  0  0  0  0
    1.1446    3.4778    3.4855 C   0  0  0  0  0  0  0  0  0  0  0  0
    1.2271    1.9449    3.5637 C   0  0  1  0  0  0  0  0  0  0  0  0
    1.8811    1.5774    2.2098 C   0  0  0  0  0  0  0  0  0  0  0  0
    1.9271    1.4422    4.9118 C   0  0  1  0  0  0  0  0  0  0  0  0
    1.5628    2.3851    6.1949 C   0  0  2  0  0  0  0  0  0  0  0  0
    2.8471    2.8051    6.9795 C   0  0  0  0  0  0  0  0  0  0  0  0
    0.5596    1.7472    7.2168 C   0  0  0  0  0  0  0  0  0  0  0  0
    0.5272    0.2173    7.3702 C   0  0  0  0  0  0  0  0  0  0  0  0
    0.6292   -0.5584    6.0292 C   0  0  2  0  0  0  0  0  0  0  0  0
   -0.6727   -0.1042    5.2895 C   0  0  0  0  0  0  0  0  0  0  0  0
    0.5747   -2.1125    6.3753 C   0  0  1  0  0  0  0  0  0  0  0  0
   -0.3276   -2.8918    5.3373 C   0  0  0  0  0  0  0  0  0  0  0  0
    0.3755   -2.8238    3.9869 C   0  0  0  0  0  0  0  0  0  0  0  0
    1.6930   -2.6215    4.0783 C   0  0  0  0  0  0  0  0  0  0  0  0
    2.1669   -1.1453    3.9337 C   0  0  2  0  0  0  0  0  0  0  0  0
    3.4337   -0.9895    3.0443 C   0  0  0  0  0  0  0  0  0  0  0  0
    4.4965   -2.1143    2.8803 C   0  0  0  0  0  0  0  0  0  0  0  0
    4.0550   -3.1501    1.8181 C   0  0  0  0  0  0  0  0  0  0  0  0
    5.7702   -1.4380    2.3150 C   0  0  0  0  0  0  0  0  0  0  0  0
    4.8797   -2.8166    4.2041 C   0  0  0  0  0  0  0  0  0  0  0  0
    3.8947   -3.8277    4.7983 C   0  0  0  0  0  0  0  0  0  0  0  0
    2.4034   -3.4884    5.1283 C   0  0  2  0  0  0  0  0  0  0  0  0
    1.8258   -4.9563    5.1891 C   0  0  0  0  0  0  0  0  0  0  0  0
    2.0236   -2.7812    6.4678 C   0  0  1  0  0  0  0  0  0  0  0  0
    3.1336   -1.8258    6.9371 C   0  0  0  0  0  0  0  0  0  0  0  0
    3.1593   -0.4450    6.2432 C   0  0  1  0  0  0  0  0  0  0  0  0
    4.5902    0.1037    5.9769 C   0  0  0  0  0  0  0  0  0  0  0  0
    1.9739   -0.1700    5.2299 C   0  0  1  0  0  0  0  0  0  0  0  0
    0.9815    3.8206    5.8804 C   0  0  0  0  0  0  0  0  0  0  0  0
   -3.3872    6.5020    0.5924 H   0  0  0  0  0  0  0  0  0  0  0  0
   -2.3889    6.7017    2.0232 H   0  0  0  0  0  0  0  0  0  0  0  0
   -4.1079    7.1498    2.0553 H   0  0  0  0  0  0  0  0  0  0  0  0
   -5.1982    4.5580    0.5663 H   0  0  0  0  0  0  0  0  0  0  0  0
   -5.9186    5.2190    2.0303 H   0  0  0  0  0  0  0  0  0  0  0  0
   -5.3571    3.5512    2.0066 H   0  0  0  0  0  0  0  0  0  0  0  0
   -3.2717    3.2405    3.1897 H   0  0  0  0  0  0  0  0  0  0  0  0
   -1.7492    4.1248    5.3279 H   0  0  0  0  0  0  0  0  0  0  0  0
   -1.4514    2.7702    4.2517 H   0  0  0  0  0  0  0  0  0  0  0  0
    0.3542    5.1834    4.4315 H   0  0  0  0  0  0  0  0  0  0  0  0
    0.7412    3.7891    2.5266 H   0  0  0  0  0  0  0  0  0  0  0  0
    2.1449    3.9034    3.5335 H   0  0  0  0  0  0  0  0  0  0  0  0
    0.2199    1.5622    3.4843 H   0  0  0  0  0  0  0  0  0  0  0  0
    2.9684    1.6307    2.2410 H   0  0  0  0  0  0  0  0  0  0  0  0
    1.5794    2.2559    1.4104 H   0  0  0  0  0  0  0  0  0  0  0  0
    1.5439    0.6237    1.8156 H   0  0  0  0  0  0  0  0  0  0  0  0
    2.9576    1.7058    4.6785 H   0  0  0  0  0  0  0  0  0  0  0  0
    2.6484    3.6298    7.6676 H   0  0  0  0  0  0  0  0  0  0  0  0
    3.6178    3.1733    6.2987 H   0  0  0  0  0  0  0  0  0  0  0  0
    3.2919    2.0584    7.6227 H   0  0  0  0  0  0  0  0  0  0  0  0
    0.7612    2.1554    8.2017 H   0  0  0  0  0  0  0  0  0  0  0  0
   -0.4607    2.0935    7.0004 H   0  0  0  0  0  0  0  0  0  0  0  0
    1.2447   -0.1203    8.1157 H   0  0  0  0  0  0  0  0  0  0  0  0
   -0.4121   -0.0282    7.8589 H   0  0  0  0  0  0  0  0  0  0  0  0
   -0.7309   -0.4208    4.2542 H   0  0  0  0  0  0  0  0  0  0  0  0
   -0.7920    0.9677    5.2427 H   0  0  0  0  0  0  0  0  0  0  0  0
   -1.5727   -0.4460    5.8007 H   0  0  0  0  0  0  0  0  0  0  0  0
    0.0932   -2.2295    7.3410 H   0  0  0  0  0  0  0  0  0  0  0  0
   -0.5212   -3.9084    5.6330 H   0  0  0  0  0  0  0  0  0  0  0  0
   -1.3344   -2.5015    5.2414 H   0  0  0  0  0  0  0  0  0  0  0  0
   -0.1784   -2.1941    3.3110 H   0  0  0  0  0  0  0  0  0  0  0  0
    1.3900   -0.7807    3.2862 H   0  0  0  0  0  0  0  0  0  0  0  0
    3.0916   -0.8185    2.0252 H   0  0  0  0  0  0  0  0  0  0  0  0
    3.9166   -0.0499    3.2941 H   0  0  0  0  0  0  0  0  0  0  0  0
    4.8150   -3.9184    1.6840 H   0  0  0  0  0  0  0  0  0  0  0  0
    3.8989   -2.6814    0.8468 H   0  0  0  0  0  0  0  0  0  0  0  0
    3.1284   -3.6516    2.0827 H   0  0  0  0  0  0  0  0  0  0  0  0
    6.5491   -2.1644    2.0827 H   0  0  0  0  0  0  0  0  0  0  0  0
    6.1954   -0.7163    3.0142 H   0  0  0  0  0  0  0  0  0  0  0  0
    5.5613   -0.8990    1.3898 H   0  0  0  0  0  0  0  0  0  0  0  0
    5.7842   -3.3872    3.9978 H   0  0  0  0  0  0  0  0  0  0  0  0
    5.2167   -2.1328    4.9673 H   0  0  0  0  0  0  0  0  0  0  0  0
    3.9155   -4.6646    4.0876 H   0  0  0  0  0  0  0  0  0  0  0  0
    4.3574   -4.2442    5.6956 H   0  0  0  0  0  0  0  0  0  0  0  0
    2.5736   -5.6989    5.4830 H   0  0  0  0  0  0  0  0  0  0  0  0
    1.4351   -5.2895    4.2260 H   0  0  0  0  0  0  0  0  0  0  0  0
    1.0558   -5.1161    5.9372 H   0  0  0  0  0  0  0  0  0  0  0  0
    1.9696   -3.5602    7.2275 H   0  0  0  0  0  0  0  0  0  0  0  0
    2.9905   -1.6769    8.0030 H   0  0  0  0  0  0  0  0  0  0  0  0
    4.1114   -2.3033    6.8941 H   0  0  0  0  0  0  0  0  0  0  0  0
    2.9639    0.1698    7.0987 H   0  0  0  0  0  0  0  0  0  0  0  0
    5.0278   -0.1267    5.0152 H   0  0  0  0  0  0  0  0  0  0  0  0
    5.2825   -0.2585    6.7388 H   0  0  0  0  0  0  0  0  0  0  0  0
    4.6418    1.1858    6.0361 H   0  0  0  0  0  0  0  0  0  0  0  0
    1.7966    4.5681    5.9002 H   0  0  0  0  0  0  0  0  0  0  0  0
    0.3263    4.1499    6.6780 H   0  0  0  0  0  0  0  0  0  0  0  0
  1  2  1  0
  1 37  1  0
  1 38  1  0
  1 39  1  0
  2  3  1  0
  2  4  2  3
  3 40  1  0
  3 41  1  0
  3 42  1  0
  4  5  1  0
  4 43  1  0
  5  6  1  0
  6  7  1  0
  6 44  1  0
  6 45  1  0
  7 36  1  0
  7  8  1  0
  7 46  1  6
  8  9  1  0
  8 47  1  0
  8 48  1  0
  9 10  1  0
  9 11  1  0
  9 49  1  6
 10 50  1  0
 10 51  1  0
 10 52  1  0
 11 35  1  0
 11 12  1  0
 11 53  1  6
 12 13  1  1
 12 14  1  0
 12 36  1  0
 13 54  1  0
 13 55  1  0
 13 56  1  0
 14 15  1  0
 14 57  1  0
 14 58  1  0
 15 16  1  0
 15 59  1  0
 15 60  1  0
 35 16  1  1
 16 17  1  6
 16 18  1  0
 17 61  1  0
 17 62  1  0
 17 63  1  0
 18 31  1  0
 18 19  1  0
 18 64  1  1
 19 20  1  0
 19 65  1  0
 19 66  1  0
 20 21  2  0
 20 67  1  0
 21 29  1  0
 21 22  1  0
 22 35  1  0
 22 23  1  0
 22 68  1  6
 23 24  1  0
 23 69  1  0
 23 70  1  0
 24 25  1  0
 24 26  1  0
 24 27  1  0
 25 71  1  0
 25 72  1  0
 25 73  1  0
 26 74  1  0
 26 75  1  0
 26 76  1  0
 27 28  1  0
 27 77  1  0
 27 78  1  0
 28 29  1  0
 28 79  1  0
 28 80  1  0
 29 30  1  1
 29 31  1  0
 30 81  1  0
 30 82  1  0
 30 83  1  0
 31 32  1  0
 31 84  1  1
 32 33  1  0
 32 85  1  0
 32 86  1  0
 33 34  1  0
 33 35  1  0
 33 87  1  1
 34 88  1  0
 34 89  1  0
 34 90  1  0
 36 91  1  0
 36 92  1  0
M  END
>  <i_m_ct_stereo_status>  (71) 
1

>  <s_m_source_file>  (71) 
/var/tmp/pbs.5076255.sched01/tmppe38rura/0ules8z9c.sdf

>  <i_m_source_file_index>  (71) 
36

>  <i_lp_mmshare_version>  (71) 
48012

>  <i_f3d_flags>  (71) 
0

>  <s_epik_input>  (71) 
W0NIM11DKFtDSDNdKT1bQ0hdT1tDSDJdW0NASF0oW0NIMl1bQ0BIXTFbQ0gzXSlbQ0gyXVtDQEBdKFtDQEhdMVtDQEBdMjM0KShbQ0gzXSlbQ0gyXVtDSDJdW0NAXTIoW0NIM10pW0NAQEhdNVtDQEhdKFtDSDJdW0NASF00W0NIM10pW0NAQF02KFtDSDNdKUMoPVtDSF1bQ0gyXTUpW0NASF0zW0NIMl1DKFtDSDNdKShbQ0gzXSlbQ0gyXVtDSDJdNg==

>  <s_epik_cmdline>  (71) 
J2VwaWtfcHl0aG9uJywgJy1waHQnLCAnMi4wJywgJy1waCcsICc3LjAnLCAnLXRuJywgJzgnLCAnLW1hJywgJzIwMCcsICctaW1hZScsICc8aW5maWxlLm1hZT4nLCAnLW9tYWUnLCAnPG91dGZpbGUubWFlPic=

>  <r_lp_tautomer_probability>  (71) 
1

>  <r_epik_Ionization_Penalty>  (71) 
0

>  <r_epik_Ionization_Penalty_Charging>  (71) 
0

>  <r_epik_Ionization_Penalty_Neutral>  (71) 
0

>  <r_epik_State_Penalty>  (71) 
-0

>  <r_epik_Charging_Adjusted_Penalty>  (71) 
0

>  <i_epik_Tot_Q>  (71) 
0

>  <i_epik_Tot_abs_Q>  (71) 
0

>  <s_lp_Force_Field>  (71) 
OPLS3e

>  <r_lp_Energy>  (71) 
213.078

>  <b_lp_Chiralities_Consistent>  (71) 
1

>  <s_lp_Variant>  (71) 
26:0-2

>  <s_i_glide_gridfile>  (71) 
pfpi4k_grid

>  <i_i_glide_lignum>  (71) 
36

>  <i_i_glide_rotatable_bonds>  (71) 
3

>  <r_i_docking_score>  (71) 
-1.66322

>  <r_i_glide_ligand_efficiency>  (71) 
-0.0462005

>  <r_i_glide_ligand_efficiency_sa>  (71) 
-0.152551

>  <r_i_glide_ligand_efficiency_ln>  (71) 
-0.36287

>  <r_i_glide_gscore>  (71) 
-1.66322

>  <r_i_glide_lipo>  (71) 
-0.357558

>  <r_i_glide_hbond>  (71) 
-0.16

>  <r_i_glide_metal>  (71) 
-0

>  <r_i_glide_rewards>  (71) 
-0.0489645

>  <r_i_glide_evdw>  (71) 
-20.6918

>  <r_i_glide_ecoul>  (71) 
-2.09126

>  <r_i_glide_erotb>  (71) 
0.251581

>  <r_i_glide_esite>  (71) 
0

>  <r_i_glide_emodel>  (71) 
-22.569

>  <r_i_glide_energy>  (71) 
-22.783

>  <r_i_glide_einternal>  (71) 
4.12524

>  <r_i_glide_intrahb_reward>  (71) 
-0

>  <i_i_glide_confnum>  (71) 
2

>  <i_i_glide_posenum>  (71) 
24

>  <r_i_glide_eff_state_penalty>  (71) 
0

>  <ligand_id>  (71) 
26

>  <original_smiles>  (71) 
CC(C)=COCC1CC(C)C2C(C)(CCC3(C)C4CC=C5C6CC(C)(C)CCC5(C)C4CC(C)C623)C1

>  <smiles>  (71) 
[H]C(OC([H])([H])C1([H])C([H])([H])C([H])(C([H])([H])[H])C2([H])C(C([H])([H])[H])(C([H])([H])C([H])([H])C3(C([H])([H])[H])C4([H])C([H])([H])C([H])=C5C6([H])C([H])([H])C(C([H])([H])[H])(C([H])([H])[H])C([H])([H])C([H])([H])C5(C([H])([H])[H])C4([H])C([H])([H])C([H])(C([H])([H])[H])C623)C1([H])[H])=C(C([H])([H])[H])C([H])([H])[H]

$$$$
26:1:1
     RDKit          3D

 92 97  0  0  1  0  0  0  0  0999 V2000
   -1.7484    1.4579    7.0922 C   0  0  0  0  0  0  0  0  0  0  0  0
   -1.7514    1.3321    5.5816 C   0  0  0  0  0  0  0  0  0  0  0  0
   -2.1880    2.5796    4.8312 C   0  0  0  0  0  0  0  0  0  0  0  0
   -1.3863    0.2117    4.9300 C   0  0  0  0  0  0  0  0  0  0  0  0
   -0.9899   -0.9400    5.5756 O   0  0  0  0  0  0  0  0  0  0  0  0
   -0.3438   -1.9130    4.7477 C   0  0  0  0  0  0  0  0  0  0  0  0
    1.1870   -1.8608    4.9575 C   0  0  2  0  0  0  0  0  0  0  0  0
    2.0087   -2.3344    3.7816 C   0  0  0  0  0  0  0  0  0  0  0  0
    1.9204   -3.8506    3.5281 C   0  0  1  0  0  0  0  0  0  0  0  0
    2.6084   -3.9948    2.1468 C   0  0  0  0  0  0  0  0  0  0  0  0
    2.5032   -4.7178    4.7489 C   0  0  1  0  0  0  0  0  0  0  0  0
    2.1860   -4.0428    6.2036 C   0  0  2  0  0  0  0  0  0  0  0  0
    3.4691   -3.9608    7.0983 C   0  0  0  0  0  0  0  0  0  0  0  0
    1.0772   -4.7715    7.0369 C   0  0  0  0  0  0  0  0  0  0  0  0
    0.8631   -6.2839    6.8414 C   0  0  0  0  0  0  0  0  0  0  0  0
    0.9508   -6.7567    5.3614 C   0  0  2  0  0  0  0  0  0  0  0  0
   -0.2526   -6.0066    4.7080 C   0  0  0  0  0  0  0  0  0  0  0  0
    0.7062   -8.3337    5.3470 C   0  0  1  0  0  0  0  0  0  0  0  0
   -0.2190   -8.7553    4.1351 C   0  0  0  0  0  0  0  0  0  0  0  0
    0.5476   -8.4724    2.8525 C   0  0  0  0  0  0  0  0  0  0  0  0
    1.8847   -8.4552    3.0213 C   0  0  0  0  0  0  0  0  0  0  0  0
    2.5162   -7.0504    3.2244 C   0  0  2  0  0  0  0  0  0  0  0  0
    3.8421   -6.8475    2.4285 C   0  0  0  0  0  0  0  0  0  0  0  0
    4.7827   -8.0268    2.0466 C   0  0  0  0  0  0  0  0  0  0  0  0
    4.2877   -8.7484    0.7712 C   0  0  0  0  0  0  0  0  0  0  0  0
    6.1520   -7.3999    1.6835 C   0  0  0  0  0  0  0  0  0  0  0  0
    5.0217   -9.0407    3.1901 C   0  0  0  0  0  0  0  0  0  0  0  0
    3.9035  -10.0383    3.5178 C   0  0  0  0  0  0  0  0  0  0  0  0
    2.4358   -9.6095    3.8730 C   0  0  2  0  0  0  0  0  0  0  0  0
    1.6988  -10.9808    3.5940 C   0  0  0  0  0  0  0  0  0  0  0  0
    2.0695   -9.1703    5.3278 C   0  0  1  0  0  0  0  0  0  0  0  0
    3.2510   -8.4761    6.0324 C   0  0  0  0  0  0  0  0  0  0  0  0
    3.4634   -6.9880    5.6639 C   0  0  1  0  0  0  0  0  0  0  0  0
    4.9565   -6.5635    5.5657 C   0  0  0  0  0  0  0  0  0  0  0  0
    2.3666   -6.3584    4.7003 C   0  0  1  0  0  0  0  0  0  0  0  0
    1.7721   -2.5121    6.2074 C   0  0  0  0  0  0  0  0  0  0  0  0
   -1.0805    2.2650    7.3947 H   0  0  0  0  0  0  0  0  0  0  0  0
   -1.3973    0.5463    7.5741 H   0  0  0  0  0  0  0  0  0  0  0  0
   -2.7491    1.6916    7.4580 H   0  0  0  0  0  0  0  0  0  0  0  0
   -1.5190    3.4097    5.0567 H   0  0  0  0  0  0  0  0  0  0  0  0
   -3.2003    2.8747    5.1110 H   0  0  0  0  0  0  0  0  0  0  0  0
   -2.1699    2.4136    3.7535 H   0  0  0  0  0  0  0  0  0  0  0  0
   -1.3900    0.1473    3.8504 H   0  0  0  0  0  0  0  0  0  0  0  0
   -0.7571   -2.8907    4.9839 H   0  0  0  0  0  0  0  0  0  0  0  0
   -0.5581   -1.7532    3.6859 H   0  0  0  0  0  0  0  0  0  0  0  0
    1.4072   -0.7950    5.0473 H   0  0  0  0  0  0  0  0  0  0  0  0
    1.6826   -1.7555    2.9153 H   0  0  0  0  0  0  0  0  0  0  0  0
    3.0534   -2.0599    3.9463 H   0  0  0  0  0  0  0  0  0  0  0  0
    0.8709   -4.0704    3.3605 H   0  0  0  0  0  0  0  0  0  0  0  0
    3.6926   -4.0820    2.2293 H   0  0  0  0  0  0  0  0  0  0  0  0
    2.4351   -3.1303    1.5037 H   0  0  0  0  0  0  0  0  0  0  0  0
    2.2021   -4.8019    1.5475 H   0  0  0  0  0  0  0  0  0  0  0  0
    3.5672   -4.5352    4.6075 H   0  0  0  0  0  0  0  0  0  0  0  0
    3.3252   -3.2913    7.9480 H   0  0  0  0  0  0  0  0  0  0  0  0
    4.3085   -3.5475    6.5364 H   0  0  0  0  0  0  0  0  0  0  0  0
    3.7937   -4.8808    7.5699 H   0  0  0  0  0  0  0  0  0  0  0  0
    1.2553   -4.6075    8.0999 H   0  0  0  0  0  0  0  0  0  0  0  0
    0.1156   -4.2859    6.8741 H   0  0  0  0  0  0  0  0  0  0  0  0
    1.4961   -6.8593    7.5078 H   0  0  0  0  0  0  0  0  0  0  0  0
   -0.1255   -6.5256    7.2357 H   0  0  0  0  0  0  0  0  0  0  0  0
   -0.2864   -6.0908    3.6289 H   0  0  0  0  0  0  0  0  0  0  0  0
   -0.2444   -4.9453    4.8951 H   0  0  0  0  0  0  0  0  0  0  0  0
   -1.2080   -6.3438    5.1127 H   0  0  0  0  0  0  0  0  0  0  0  0
    0.1585   -8.6071    6.2504 H   0  0  0  0  0  0  0  0  0  0  0  0
   -0.5404   -9.7885    4.1856 H   0  0  0  0  0  0  0  0  0  0  0  0
   -1.1775   -8.2428    4.1056 H   0  0  0  0  0  0  0  0  0  0  0  0
    0.0904   -7.6649    2.3066 H   0  0  0  0  0  0  0  0  0  0  0  0
    1.8149   -6.4555    2.6603 H   0  0  0  0  0  0  0  0  0  0  0  0
    3.5726   -6.4205    1.4661 H   0  0  0  0  0  0  0  0  0  0  0  0
    4.4074   -6.0496    2.8989 H   0  0  0  0  0  0  0  0  0  0  0  0
    4.9629   -9.5555    0.4906 H   0  0  0  0  0  0  0  0  0  0  0  0
    4.2373   -8.0642   -0.0747 H   0  0  0  0  0  0  0  0  0  0  0  0
    3.2997   -9.1875    0.8892 H   0  0  0  0  0  0  0  0  0  0  0  0
    6.8614   -8.1491    1.3310 H   0  0  0  0  0  0  0  0  0  0  0  0
    6.6106   -6.9017    2.5391 H   0  0  0  0  0  0  0  0  0  0  0  0
    6.0526   -6.6548    0.8922 H   0  0  0  0  0  0  0  0  0  0  0  0
    5.8689   -9.6572    2.8880 H   0  0  0  0  0  0  0  0  0  0  0  0
    5.3855   -8.5865    4.0953 H   0  0  0  0  0  0  0  0  0  0  0  0
    3.8702  -10.6913    2.6431 H   0  0  0  0  0  0  0  0  0  0  0  0
    4.2694  -10.6903    4.3137 H   0  0  0  0  0  0  0  0  0  0  0  0
    2.3468  -11.8493    3.7337 H   0  0  0  0  0  0  0  0  0  0  0  0
    1.3207  -11.0404    2.5712 H   0  0  0  0  0  0  0  0  0  0  0  0
    0.8790  -11.2053    4.2747 H   0  0  0  0  0  0  0  0  0  0  0  0
    1.8937  -10.0814    5.9028 H   0  0  0  0  0  0  0  0  0  0  0  0
    3.0743   -8.5501    7.1061 H   0  0  0  0  0  0  0  0  0  0  0  0
    4.1690   -9.0438    5.9015 H   0  0  0  0  0  0  0  0  0  0  0  0
    3.2931   -6.5561    6.6284 H   0  0  0  0  0  0  0  0  0  0  0  0
    5.4137   -6.6292    4.5901 H   0  0  0  0  0  0  0  0  0  0  0  0
    5.5655   -7.1630    6.2450 H   0  0  0  0  0  0  0  0  0  0  0  0
    5.1219   -5.5328    5.8652 H   0  0  0  0  0  0  0  0  0  0  0  0
    2.6539   -1.8968    6.4080 H   0  0  0  0  0  0  0  0  0  0  0  0
    1.1237   -2.2888    7.0528 H   0  0  0  0  0  0  0  0  0  0  0  0
  1  2  1  0
  1 37  1  0
  1 38  1  0
  1 39  1  0
  2  3  1  0
  2  4  2  3
  3 40  1  0
  3 41  1  0
  3 42  1  0
  4  5  1  0
  4 43  1  0
  5  6  1  0
  6  7  1  0
  6 44  1  0
  6 45  1  0
  7 36  1  0
  7  8  1  0
  7 46  1  1
  8  9  1  0
  8 47  1  0
  8 48  1  0
  9 10  1  0
  9 11  1  0
  9 49  1  6
 10 50  1  0
 10 51  1  0
 10 52  1  0
 11 35  1  0
 11 12  1  0
 11 53  1  6
 12 13  1  1
 12 14  1  0
 12 36  1  0
 13 54  1  0
 13 55  1  0
 13 56  1  0
 14 15  1  0
 14 57  1  0
 14 58  1  0
 15 16  1  0
 15 59  1  0
 15 60  1  0
 35 16  1  1
 16 17  1  6
 16 18  1  0
 17 61  1  0
 17 62  1  0
 17 63  1  0
 18 31  1  0
 18 19  1  0
 18 64  1  1
 19 20  1  0
 19 65  1  0
 19 66  1  0
 20 21  2  0
 20 67  1  0
 21 29  1  0
 21 22  1  0
 22 35  1  0
 22 23  1  0
 22 68  1  6
 23 24  1  0
 23 69  1  0
 23 70  1  0
 24 25  1  0
 24 26  1  0
 24 27  1  0
 25 71  1  0
 25 72  1  0
 25 73  1  0
 26 74  1  0
 26 75  1  0
 26 76  1  0
 27 28  1  0
 27 77  1  0
 27 78  1  0
 28 29  1  0
 28 79  1  0
 28 80  1  0
 29 30  1  6
 29 31  1  0
 30 81  1  0
 30 82  1  0
 30 83  1  0
 31 32  1  0
 31 84  1  1
 32 33  1  0
 32 85  1  0
 32 86  1  0
 33 34  1  0
 33 35  1  0
 33 87  1  1
 34 88  1  0
 34 89  1  0
 34 90  1  0
 36 91  1  0
 36 92  1  0
M  END
>  <i_m_ct_stereo_status>  (72) 
1

>  <s_m_source_file>  (72) 
/var/tmp/pbs.5076255.sched01/tmppe38rura/0ules8z9c.sdf

>  <i_m_source_file_index>  (72) 
36

>  <i_lp_mmshare_version>  (72) 
48012

>  <i_f3d_flags>  (72) 
0

>  <s_epik_input>  (72) 
W0NIM11DKFtDSDNdKT1bQ0hdT1tDSDJdW0NASF0oW0NIMl1bQ0BIXTFbQ0gzXSlbQ0gyXVtDQEBdKFtDQEhdMVtDQEBdMjM0KShbQ0gzXSlbQ0gyXVtDSDJdW0NAXTIoW0NIM10pW0NAQEhdNVtDQEhdKFtDSDJdW0NASF00W0NIM10pW0NAQF02KFtDSDNdKUMoPVtDSF1bQ0gyXTUpW0NASF0zW0NIMl1DKFtDSDNdKShbQ0gzXSlbQ0gyXVtDSDJdNg==

>  <s_epik_cmdline>  (72) 
J2VwaWtfcHl0aG9uJywgJy1waHQnLCAnMi4wJywgJy1waCcsICc3LjAnLCAnLXRuJywgJzgnLCAnLW1hJywgJzIwMCcsICctaW1hZScsICc8aW5maWxlLm1hZT4nLCAnLW9tYWUnLCAnPG91dGZpbGUubWFlPic=

>  <r_lp_tautomer_probability>  (72) 
1

>  <r_epik_Ionization_Penalty>  (72) 
0

>  <r_epik_Ionization_Penalty_Charging>  (72) 
0

>  <r_epik_Ionization_Penalty_Neutral>  (72) 
0

>  <r_epik_State_Penalty>  (72) 
-0

>  <r_epik_Charging_Adjusted_Penalty>  (72) 
0

>  <i_epik_Tot_Q>  (72) 
0

>  <i_epik_Tot_abs_Q>  (72) 
0

>  <s_lp_Force_Field>  (72) 
OPLS3e

>  <r_lp_Energy>  (72) 
213.078

>  <b_lp_Chiralities_Consistent>  (72) 
1

>  <s_lp_Variant>  (72) 
26:0-2

>  <s_i_glide_gridfile>  (72) 
pfpi4k_grid

>  <i_i_glide_lignum>  (72) 
36

>  <i_i_glide_rotatable_bonds>  (72) 
3

>  <r_i_docking_score>  (72) 
-1.42851

>  <r_i_glide_ligand_efficiency>  (72) 
-0.039681

>  <r_i_glide_ligand_efficiency_sa>  (72) 
-0.131024

>  <r_i_glide_ligand_efficiency_ln>  (72) 
-0.311663

>  <r_i_glide_gscore>  (72) 
-1.42851

>  <r_i_glide_lipo>  (72) 
-0.216378

>  <r_i_glide_hbond>  (72) 
0

>  <r_i_glide_metal>  (72) 
-0

>  <r_i_glide_rewards>  (72) 
-0.0489645

>  <r_i_glide_evdw>  (72) 
-23.3707

>  <r_i_glide_ecoul>  (72) 
-1.64147

>  <r_i_glide_erotb>  (72) 
0.251581

>  <r_i_glide_esite>  (72) 
0

>  <r_i_glide_emodel>  (72) 
-24.7131

>  <r_i_glide_energy>  (72) 
-25.0121

>  <r_i_glide_einternal>  (72) 
4.03475

>  <r_i_glide_intrahb_reward>  (72) 
-0

>  <i_i_glide_confnum>  (72) 
3

>  <i_i_glide_posenum>  (72) 
10

>  <r_i_glide_eff_state_penalty>  (72) 
0

>  <ligand_id>  (72) 
26

>  <original_smiles>  (72) 
CC(C)=COCC1CC(C)C2C(C)(CCC3(C)C4CC=C5C6CC(C)(C)CCC5(C)C4CC(C)C623)C1

>  <smiles>  (72) 
[H]C(OC([H])([H])C1([H])C([H])([H])C([H])(C([H])([H])[H])C2([H])C(C([H])([H])[H])(C([H])([H])C([H])([H])C3(C([H])([H])[H])C4([H])C([H])([H])C([H])=C5C6([H])C([H])([H])C(C([H])([H])[H])(C([H])([H])[H])C([H])([H])C([H])([H])C5(C([H])([H])[H])C4([H])C([H])([H])C([H])(C([H])([H])[H])C623)C1([H])[H])=C(C([H])([H])[H])C([H])([H])[H]

$$$$
26:1:2
     RDKit          3D

 92 97  0  0  1  0  0  0  0  0999 V2000
    0.3052    1.3086    1.9234 C   0  0  0  0  0  0  0  0  0  0  0  0
   -0.7076    1.0893    3.0347 C   0  0  0  0  0  0  0  0  0  0  0  0
   -1.7731    2.1642    3.1498 C   0  0  0  0  0  0  0  0  0  0  0  0
   -0.6809    0.0379    3.8761 C   0  0  0  0  0  0  0  0  0  0  0  0
    0.2811   -0.9403    3.8132 O   0  0  0  0  0  0  0  0  0  0  0  0
    0.3243   -1.8503    4.9170 C   0  0  0  0  0  0  0  0  0  0  0  0
    1.8089   -2.0735    5.2844 C   0  0  2  0  0  0  0  0  0  0  0  0
    2.6790   -2.5875    4.1629 C   0  0  0  0  0  0  0  0  0  0  0  0
    2.3707   -4.0437    3.7632 C   0  0  1  0  0  0  0  0  0  0  0  0
    3.1750   -4.2002    2.4493 C   0  0  0  0  0  0  0  0  0  0  0  0
    2.6596   -5.0870    4.9506 C   0  0  1  0  0  0  0  0  0  0  0  0
    2.2951   -4.4776    6.4224 C   0  0  2  0  0  0  0  0  0  0  0  0
    3.4649   -4.6837    7.4438 C   0  0  0  0  0  0  0  0  0  0  0  0
    0.9974   -5.0641    7.0739 C   0  0  0  0  0  0  0  0  0  0  0  0
    0.5628   -6.4977    6.7193 C   0  0  0  0  0  0  0  0  0  0  0  0
    0.7367   -6.8685    5.2179 C   0  0  2  0  0  0  0  0  0  0  0  0
   -0.2466   -5.8790    4.5228 C   0  0  0  0  0  0  0  0  0  0  0  0
    0.2380   -8.3727    5.0322 C   0  0  1  0  0  0  0  0  0  0  0  0
   -0.6031   -8.5354    3.7014 C   0  0  0  0  0  0  0  0  0  0  0  0
    0.3399   -8.2947    2.5314 C   0  0  0  0  0  0  0  0  0  0  0  0
    1.6340   -8.5212    2.8315 C   0  0  0  0  0  0  0  0  0  0  0  0
    2.4601   -7.2649    3.2257 C   0  0  2  0  0  0  0  0  0  0  0  0
    3.8827   -7.2324    2.5881 C   0  0  0  0  0  0  0  0  0  0  0  0
    4.6545   -8.5225    2.1928 C   0  0  0  0  0  0  0  0  0  0  0  0
    4.1954   -9.0412    0.8126 C   0  0  0  0  0  0  0  0  0  0  0  0
    6.1405   -8.1186    2.0246 C   0  0  0  0  0  0  0  0  0  0  0  0
    4.5933   -9.6487    3.2529 C   0  0  0  0  0  0  0  0  0  0  0  0
    3.2976  -10.4614    3.3772 C   0  0  0  0  0  0  0  0  0  0  0  0
    1.8892   -9.8135    3.6223 C   0  0  2  0  0  0  0  0  0  0  0  0
    0.9695  -11.0088    3.1486 C   0  0  0  0  0  0  0  0  0  0  0  0
    1.4389   -9.4283    5.0687 C   0  0  1  0  0  0  0  0  0  0  0  0
    2.6308   -9.0036    5.9478 C   0  0  0  0  0  0  0  0  0  0  0  0
    3.1253   -7.5512    5.7419 C   0  0  1  0  0  0  0  0  0  0  0  0
    4.6688   -7.3844    5.8312 C   0  0  0  0  0  0  0  0  0  0  0  0
    2.2622   -6.6713    4.7378 C   0  0  1  0  0  0  0  0  0  0  0  0
    2.1346   -2.9048    6.5228 C   0  0  0  0  0  0  0  0  0  0  0  0
   -0.1885    1.3646    0.9530 H   0  0  0  0  0  0  0  0  0  0  0  0
    1.0404    0.5062    1.8730 H   0  0  0  0  0  0  0  0  0  0  0  0
    0.8348    2.2496    2.0734 H   0  0  0  0  0  0  0  0  0  0  0  0
   -2.3525    2.2307    2.2283 H   0  0  0  0  0  0  0  0  0  0  0  0
   -1.3105    3.1339    3.3361 H   0  0  0  0  0  0  0  0  0  0  0  0
   -2.4608    1.9529    3.9685 H   0  0  0  0  0  0  0  0  0  0  0  0
   -1.4138   -0.1096    4.6544 H   0  0  0  0  0  0  0  0  0  0  0  0
   -0.1897   -1.4549    5.7968 H   0  0  0  0  0  0  0  0  0  0  0  0
   -0.1914   -2.7624    4.6281 H   0  0  0  0  0  0  0  0  0  0  0  0
    2.1665   -1.0680    5.5128 H   0  0  0  0  0  0  0  0  0  0  0  0
    2.5571   -1.8986    3.3244 H   0  0  0  0  0  0  0  0  0  0  0  0
    3.7277   -2.5093    4.4607 H   0  0  0  0  0  0  0  0  0  0  0  0
    1.3260   -4.0707    3.4708 H   0  0  0  0  0  0  0  0  0  0  0  0
    4.2137   -4.4801    2.6286 H   0  0  0  0  0  0  0  0  0  0  0  0
    3.2177   -3.2733    1.8755 H   0  0  0  0  0  0  0  0  0  0  0  0
    2.7070   -4.8754    1.7415 H   0  0  0  0  0  0  0  0  0  0  0  0
    3.7480   -5.0812    4.9328 H   0  0  0  0  0  0  0  0  0  0  0  0
    3.3377   -4.0648    8.3337 H   0  0  0  0  0  0  0  0  0  0  0  0
    4.4194   -4.3821    7.0088 H   0  0  0  0  0  0  0  0  0  0  0  0
    3.5784   -5.6790    7.8578 H   0  0  0  0  0  0  0  0  0  0  0  0
    1.0768   -5.0107    8.1601 H   0  0  0  0  0  0  0  0  0  0  0  0
    0.1524   -4.4104    6.8611 H   0  0  0  0  0  0  0  0  0  0  0  0
    1.0116   -7.2239    7.3888 H   0  0  0  0  0  0  0  0  0  0  0  0
   -0.4890   -6.5869    6.9918 H   0  0  0  0  0  0  0  0  0  0  0  0
   -0.1712   -5.8694    3.4422 H   0  0  0  0  0  0  0  0  0  0  0  0
   -0.0978   -4.8519    4.8129 H   0  0  0  0  0  0  0  0  0  0  0  0
   -1.2789   -6.0933    4.8007 H   0  0  0  0  0  0  0  0  0  0  0  0
   -0.4458   -8.6168    5.8468 H   0  0  0  0  0  0  0  0  0  0  0  0
   -1.0967   -9.4969    3.6311 H   0  0  0  0  0  0  0  0  0  0  0  0
   -1.4548   -7.8643    3.6239 H   0  0  0  0  0  0  0  0  0  0  0  0
    0.0881   -7.3817    2.0196 H   0  0  0  0  0  0  0  0  0  0  0  0
    1.9339   -6.5166    2.6531 H   0  0  0  0  0  0  0  0  0  0  0  0
    3.7970   -6.6945    1.6473 H   0  0  0  0  0  0  0  0  0  0  0  0
    4.5144   -6.5819    3.1841 H   0  0  0  0  0  0  0  0  0  0  0  0
    4.7805   -9.9080    0.5225 H   0  0  0  0  0  0  0  0  0  0  0  0
    4.3421   -8.2949    0.0334 H   0  0  0  0  0  0  0  0  0  0  0  0
    3.1472   -9.3313    0.7948 H   0  0  0  0  0  0  0  0  0  0  0  0
    6.7512   -8.9516    1.6745 H   0  0  0  0  0  0  0  0  0  0  0  0
    6.5766   -7.7738    2.9633 H   0  0  0  0  0  0  0  0  0  0  0  0
    6.2556   -7.3114    1.2992 H   0  0  0  0  0  0  0  0  0  0  0  0
    5.3558  -10.3786    2.9782 H   0  0  0  0  0  0  0  0  0  0  0  0
    4.9238   -9.3354    4.2284 H   0  0  0  0  0  0  0  0  0  0  0  0
    3.2586  -11.0353    2.4496 H   0  0  0  0  0  0  0  0  0  0  0  0
    3.4599  -11.2235    4.1427 H   0  0  0  0  0  0  0  0  0  0  0  0
    1.4473  -11.9851    3.2607 H   0  0  0  0  0  0  0  0  0  0  0  0
    0.6800  -10.9165    2.0993 H   0  0  0  0  0  0  0  0  0  0  0  0
    0.0610  -11.1360    3.7332 H   0  0  0  0  0  0  0  0  0  0  0  0
    1.0541  -10.3354    5.5390 H   0  0  0  0  0  0  0  0  0  0  0  0
    2.3255   -9.1291    6.9877 H   0  0  0  0  0  0  0  0  0  0  0  0
    3.4516   -9.7107    5.8548 H   0  0  0  0  0  0  0  0  0  0  0  0
    2.9209   -7.1695    6.7209 H   0  0  0  0  0  0  0  0  0  0  0  0
    5.2155   -7.4548    4.9034 H   0  0  0  0  0  0  0  0  0  0  0  0
    5.0905   -8.1293    6.5085 H   0  0  0  0  0  0  0  0  0  0  0  0
    4.9655   -6.4231    6.2398 H   0  0  0  0  0  0  0  0  0  0  0  0
    3.0767   -2.4658    6.8631 H   0  0  0  0  0  0  0  0  0  0  0  0
    1.4465   -2.6347    7.3216 H   0  0  0  0  0  0  0  0  0  0  0  0
  1  2  1  0
  1 37  1  0
  1 38  1  0
  1 39  1  0
  2  3  1  0
  2  4  2  3
  3 40  1  0
  3 41  1  0
  3 42  1  0
  4  5  1  0
  4 43  1  0
  5  6  1  0
  6  7  1  0
  6 44  1  0
  6 45  1  0
  7 36  1  0
  7  8  1  0
  7 46  1  1
  8  9  1  0
  8 47  1  0
  8 48  1  0
  9 10  1  0
  9 11  1  0
  9 49  1  6
 10 50  1  0
 10 51  1  0
 10 52  1  0
 11 35  1  0
 11 12  1  0
 11 53  1  1
 12 13  1  1
 12 14  1  0
 12 36  1  0
 13 54  1  0
 13 55  1  0
 13 56  1  0
 14 15  1  0
 14 57  1  0
 14 58  1  0
 15 16  1  0
 15 59  1  0
 15 60  1  0
 35 16  1  1
 16 17  1  6
 16 18  1  0
 17 61  1  0
 17 62  1  0
 17 63  1  0
 18 31  1  0
 18 19  1  0
 18 64  1  1
 19 20  1  0
 19 65  1  0
 19 66  1  0
 20 21  2  0
 20 67  1  0
 21 29  1  0
 21 22  1  0
 22 35  1  0
 22 23  1  0
 22 68  1  6
 23 24  1  0
 23 69  1  0
 23 70  1  0
 24 25  1  0
 24 26  1  0
 24 27  1  0
 25 71  1  0
 25 72  1  0
 25 73  1  0
 26 74  1  0
 26 75  1  0
 26 76  1  0
 27 28  1  0
 27 77  1  0
 27 78  1  0
 28 29  1  0
 28 79  1  0
 28 80  1  0
 29 30  1  6
 29 31  1  0
 30 81  1  0
 30 82  1  0
 30 83  1  0
 31 32  1  0
 31 84  1  1
 32 33  1  0
 32 85  1  0
 32 86  1  0
 33 34  1  0
 33 35  1  0
 33 87  1  1
 34 88  1  0
 34 89  1  0
 34 90  1  0
 36 91  1  0
 36 92  1  0
M  END
>  <i_m_ct_stereo_status>  (73) 
1

>  <s_m_source_file>  (73) 
/var/tmp/pbs.5076255.sched01/tmppe38rura/0ules8z9c.sdf

>  <i_m_source_file_index>  (73) 
36

>  <i_lp_mmshare_version>  (73) 
48012

>  <i_f3d_flags>  (73) 
0

>  <s_epik_input>  (73) 
W0NIM11DKFtDSDNdKT1bQ0hdT1tDSDJdW0NASF0oW0NIMl1bQ0BIXTFbQ0gzXSlbQ0gyXVtDQEBdKFtDQEhdMVtDQEBdMjM0KShbQ0gzXSlbQ0gyXVtDSDJdW0NAXTIoW0NIM10pW0NAQEhdNVtDQEhdKFtDSDJdW0NASF00W0NIM10pW0NAQF02KFtDSDNdKUMoPVtDSF1bQ0gyXTUpW0NASF0zW0NIMl1DKFtDSDNdKShbQ0gzXSlbQ0gyXVtDSDJdNg==

>  <s_epik_cmdline>  (73) 
J2VwaWtfcHl0aG9uJywgJy1waHQnLCAnMi4wJywgJy1waCcsICc3LjAnLCAnLXRuJywgJzgnLCAnLW1hJywgJzIwMCcsICctaW1hZScsICc8aW5maWxlLm1hZT4nLCAnLW9tYWUnLCAnPG91dGZpbGUubWFlPic=

>  <r_lp_tautomer_probability>  (73) 
1

>  <r_epik_Ionization_Penalty>  (73) 
0

>  <r_epik_Ionization_Penalty_Charging>  (73) 
0

>  <r_epik_Ionization_Penalty_Neutral>  (73) 
0

>  <r_epik_State_Penalty>  (73) 
-0

>  <r_epik_Charging_Adjusted_Penalty>  (73) 
0

>  <i_epik_Tot_Q>  (73) 
0

>  <i_epik_Tot_abs_Q>  (73) 
0

>  <s_lp_Force_Field>  (73) 
OPLS3e

>  <r_lp_Energy>  (73) 
213.078

>  <b_lp_Chiralities_Consistent>  (73) 
1

>  <s_lp_Variant>  (73) 
26:0-2

>  <s_i_glide_gridfile>  (73) 
pfpi4k_grid

>  <i_i_glide_lignum>  (73) 
36

>  <i_i_glide_rotatable_bonds>  (73) 
3

>  <r_i_docking_score>  (73) 
-1.06471

>  <r_i_glide_ligand_efficiency>  (73) 
-0.0295753

>  <r_i_glide_ligand_efficiency_sa>  (73) 
-0.0976555

>  <r_i_glide_ligand_efficiency_ln>  (73) 
-0.232291

>  <r_i_glide_gscore>  (73) 
-1.06471

>  <r_i_glide_lipo>  (73) 
-0.227741

>  <r_i_glide_hbond>  (73) 
0

>  <r_i_glide_metal>  (73) 
-0

>  <r_i_glide_rewards>  (73) 
-0.0489645

>  <r_i_glide_evdw>  (73) 
-24.5499

>  <r_i_glide_ecoul>  (73) 
1.25273

>  <r_i_glide_erotb>  (73) 
0.251581

>  <r_i_glide_esite>  (73) 
0

>  <r_i_glide_emodel>  (73) 
-22.6928

>  <r_i_glide_energy>  (73) 
-23.2972

>  <r_i_glide_einternal>  (73) 
3.77674

>  <r_i_glide_intrahb_reward>  (73) 
-0

>  <i_i_glide_confnum>  (73) 
3

>  <i_i_glide_posenum>  (73) 
12

>  <r_i_glide_eff_state_penalty>  (73) 
0

>  <ligand_id>  (73) 
26

>  <original_smiles>  (73) 
CC(C)=COCC1CC(C)C2C(C)(CCC3(C)C4CC=C5C6CC(C)(C)CCC5(C)C4CC(C)C623)C1

>  <smiles>  (73) 
[H]C(OC([H])([H])C1([H])C([H])([H])C([H])(C([H])([H])[H])C2([H])C(C([H])([H])[H])(C([H])([H])C([H])([H])C3(C([H])([H])[H])C4([H])C([H])([H])C([H])=C5C6([H])C([H])([H])C(C([H])([H])[H])(C([H])([H])[H])C([H])([H])C([H])([H])C5(C([H])([H])[H])C4([H])C([H])([H])C([H])(C([H])([H])[H])C623)C1([H])[H])=C(C([H])([H])[H])C([H])([H])[H]

$$$$
27:0:0
     RDKit          3D

 54 59  0  0  1  0  0  0  0  0999 V2000
    1.1389   -7.3764    1.5354 C   0  0  0  0  0  0  0  0  0  0  0  0
    2.5546   -6.8227    1.2912 C   0  0  2  0  0  0  0  0  0  0  0  0
    3.6071   -7.9383    1.4180 C   0  0  0  0  0  0  0  0  0  0  0  0
    4.9377   -7.4100    1.9435 C   0  0  0  0  0  0  0  0  0  0  0  0
    5.3246   -5.9906    1.4045 C   0  0  2  0  0  0  0  0  0  0  0  0
    6.7402   -5.6599    1.9669 C   0  0  0  0  0  0  0  0  0  0  0  0
    6.9249   -5.9563    3.4814 C   0  0  0  0  0  0  0  0  0  0  0  0
    7.8477   -6.4044    1.1973 C   0  0  0  0  0  0  0  0  0  0  0  0
    7.0251   -4.3040    1.6781 O   0  0  0  0  0  0  0  0  0  0  0  0
    6.0834   -3.2937    2.0099 C   0  0  2  0  0  0  0  0  0  0  0  0
    5.6464   -3.4275    3.3688 O   0  0  0  0  0  0  0  0  0  0  0  0
    4.6556   -3.6057    2.3371 C   0  0  1  0  0  0  0  0  0  0  0  0
    3.5839   -2.5225    2.4926 C   0  0  0  0  0  0  0  0  0  0  0  0
    3.5403   -1.8162    3.4940 O   0  0  0  0  0  0  0  0  0  0  0  0
    2.5817   -2.2788    1.3642 C   0  0  0  0  0  0  0  0  0  0  0  0
    3.0477   -2.9062    0.0721 C   0  0  2  0  0  0  0  0  0  0  0  0
    2.6426   -4.1929   -0.3574 O   0  0  0  0  0  0  0  0  0  0  0  0
    3.9915   -4.1150    0.1564 C   0  0  1  0  0  0  0  0  0  0  0  0
    5.2538   -3.6770   -0.6609 C   0  0  1  0  0  0  0  0  0  0  0  0
    5.0106   -3.6960   -2.1777 C   0  0  0  0  0  0  0  0  0  0  0  0
    5.8852   -2.2763   -0.2784 C   0  0  0  0  0  0  0  0  0  0  0  0
    6.4028   -2.0834    1.1747 C   0  0  1  0  0  0  0  0  0  0  0  0
    6.0331   -0.8317    1.7199 O   0  0  0  0  0  0  0  0  0  0  0  0
    4.2158   -4.8336    1.5448 C   0  0  1  0  0  0  0  0  0  0  0  0
    2.9654   -5.5948    2.1484 C   0  0  1  0  0  0  0  0  0  0  0  0
    1.8090   -4.8641    2.4558 O   0  0  0  0  0  0  0  0  0  0  0  0
    0.9994   -7.6901    2.5680 H   0  0  0  0  0  0  0  0  0  0  0  0
    1.0075   -8.2621    0.9078 H   0  0  0  0  0  0  0  0  0  0  0  0
    0.3640   -6.6583    1.2618 H   0  0  0  0  0  0  0  0  0  0  0  0
    2.5747   -6.4959    0.2527 H   0  0  0  0  0  0  0  0  0  0  0  0
    3.2191   -8.7417    2.0495 H   0  0  0  0  0  0  0  0  0  0  0  0
    3.8075   -8.3919    0.4521 H   0  0  0  0  0  0  0  0  0  0  0  0
    4.8905   -7.4172    3.0342 H   0  0  0  0  0  0  0  0  0  0  0  0
    5.7018   -8.1402    1.6624 H   0  0  0  0  0  0  0  0  0  0  0  0
    5.4286   -6.1788    0.3330 H   0  0  0  0  0  0  0  0  0  0  0  0
    7.1274   -7.0144    3.6718 H   0  0  0  0  0  0  0  0  0  0  0  0
    6.0445   -5.6819    4.0661 H   0  0  0  0  0  0  0  0  0  0  0  0
    7.7812   -5.4258    3.8882 H   0  0  0  0  0  0  0  0  0  0  0  0
    7.8213   -7.4760    1.4011 H   0  0  0  0  0  0  0  0  0  0  0  0
    8.8308   -6.0368    1.4983 H   0  0  0  0  0  0  0  0  0  0  0  0
    7.7407   -6.2525    0.1240 H   0  0  0  0  0  0  0  0  0  0  0  0
    1.5863   -2.6383    1.6244 H   0  0  0  0  0  0  0  0  0  0  0  0
    2.4684   -1.1990    1.2060 H   0  0  0  0  0  0  0  0  0  0  0  0
    3.0948   -2.2085   -0.7590 H   0  0  0  0  0  0  0  0  0  0  0  0
    6.0495   -4.4003   -0.5189 H   0  0  0  0  0  0  0  0  0  0  0  0
    4.2980   -2.9217   -2.4820 H   0  0  0  0  0  0  0  0  0  0  0  0
    4.6140   -4.6602   -2.4946 H   0  0  0  0  0  0  0  0  0  0  0  0
    5.9315   -3.5138   -2.7297 H   0  0  0  0  0  0  0  0  0  0  0  0
    6.7423   -2.0994   -0.9285 H   0  0  0  0  0  0  0  0  0  0  0  0
    5.1953   -1.4697   -0.5122 H   0  0  0  0  0  0  0  0  0  0  0  0
    7.4895   -2.0544    1.1464 H   0  0  0  0  0  0  0  0  0  0  0  0
    6.7735   -0.2430    1.6832 H   0  0  0  0  0  0  0  0  0  0  0  0
    3.2324   -5.9620    3.1329 H   0  0  0  0  0  0  0  0  0  0  0  0
    1.3909   -5.2715    3.1960 H   0  0  0  0  0  0  0  0  0  0  0  0
  1  2  1  0
  1 27  1  0
  1 28  1  0
  1 29  1  0
  2 25  1  0
  2  3  1  0
  2 30  1  6
  3  4  1  0
  3 31  1  0
  3 32  1  0
  4  5  1  0
  4 33  1  0
  4 34  1  0
  5 24  1  0
  5  6  1  0
  5 35  1  6
  6  7  1  0
  6  8  1  0
  6  9  1  0
  7 36  1  0
  7 37  1  0
  7 38  1  0
  8 39  1  0
  8 40  1  0
  8 41  1  0
 10  9  1  6
 10 12  1  0
 10 22  1  0
 10 11  1  0
 12 11  1  1
 24 12  1  1
 12 13  1  0
 13 14  2  0
 13 15  1  0
 15 16  1  0
 15 42  1  0
 15 43  1  0
 16 18  1  0
 16 17  1  0
 16 44  1  6
 18 17  1  6
 18 19  1  0
 18 24  1  0
 19 20  1  0
 19 21  1  0
 19 45  1  6
 20 46  1  0
 20 47  1  0
 20 48  1  0
 21 22  1  0
 21 49  1  0
 21 50  1  0
 22 23  1  0
 22 51  1  6
 23 52  1  0
 24 25  1  0
 25 26  1  0
 25 53  1  1
 26 54  1  0
M  END
>  <i_m_ct_stereo_status>  (74) 
1

>  <s_m_source_file>  (74) 
/var/tmp/pbs.5076255.sched01/tmppe38rura/0ules8z9c.sdf

>  <i_m_source_file_index>  (74) 
37

>  <i_lp_mmshare_version>  (74) 
48012

>  <i_f3d_flags>  (74) 
0

>  <s_epik_input>  (74) 
W09IXVtDQEhdMVtDQEhdKFtDSDNdKVtDSDJdW0NIMl1bQ0BIXShDKE8yKShbQ0gzXSlbQ0gzXSlbQ0BAXTEoW0NAXTMoW0NAXTI0NSlPNClbQ0BAXTYoW0NAQEhdKE82KVtDSDJdQzM9TylbQ0BASF0oW0NIM10pW0NIMl1bQ0BIXTVbT0hd

>  <s_epik_cmdline>  (74) 
J2VwaWtfcHl0aG9uJywgJy1waHQnLCAnMi4wJywgJy1waCcsICc3LjAnLCAnLXRuJywgJzgnLCAnLW1hJywgJzIwMCcsICctaW1hZScsICc8aW5maWxlLm1hZT4nLCAnLW9tYWUnLCAnPG91dGZpbGUubWFlPic=

>  <r_lp_tautomer_probability>  (74) 
1

>  <r_epik_Ionization_Penalty>  (74) 
1.26353e-06

>  <r_epik_Ionization_Penalty_Charging>  (74) 
0

>  <r_epik_Ionization_Penalty_Neutral>  (74) 
1.26353e-06

>  <r_epik_State_Penalty>  (74) 
-0

>  <r_epik_Charging_Adjusted_Penalty>  (74) 
0

>  <i_epik_Tot_Q>  (74) 
0

>  <i_epik_Tot_abs_Q>  (74) 
0

>  <s_lp_Force_Field>  (74) 
OPLS3e

>  <r_lp_Energy>  (74) 
100.727

>  <b_lp_Chiralities_Consistent>  (74) 
1

>  <s_lp_Variant>  (74) 
27:0-1

>  <s_i_glide_gridfile>  (74) 
pfpi4k_grid

>  <i_i_glide_lignum>  (74) 
37

>  <i_i_glide_rotatable_bonds>  (74) 
2

>  <r_i_docking_score>  (74) 
-2.73056

>  <r_i_glide_ligand_efficiency>  (74) 
-0.105022

>  <r_i_glide_ligand_efficiency_sa>  (74) 
-0.311126

>  <r_i_glide_ligand_efficiency_ln>  (74) 
-0.641264

>  <r_i_glide_gscore>  (74) 
-2.73056

>  <r_i_glide_lipo>  (74) 
-0.401006

>  <r_i_glide_hbond>  (74) 
0

>  <r_i_glide_metal>  (74) 
-0

>  <r_i_glide_rewards>  (74) 
-0.973748

>  <r_i_glide_evdw>  (74) 
-20.8113

>  <r_i_glide_ecoul>  (74) 
-2.10164

>  <r_i_glide_erotb>  (74) 
0

>  <r_i_glide_esite>  (74) 
0

>  <r_i_glide_emodel>  (74) 
-24.8951

>  <r_i_glide_energy>  (74) 
-22.9129

>  <r_i_glide_einternal>  (74) 
1.88349

>  <r_i_glide_intrahb_reward>  (74) 
-0

>  <i_i_glide_confnum>  (74) 
2

>  <i_i_glide_posenum>  (74) 
1

>  <r_i_glide_eff_state_penalty>  (74) 
0

>  <ligand_id>  (74) 
27

>  <original_smiles>  (74) 
CC1CCC2C(C)(C)OC34OC35C(=O)CC3OC3(C(C)CC4O)C25C1O

>  <smiles>  (74) 
[H]OC1([H])C([H])([H])C([H])(C([H])([H])[H])C23OC2([H])C([H])([H])C(=O)C24OC12OC(C([H])([H])[H])(C([H])([H])[H])C1([H])C([H])([H])C([H])([H])C([H])(C([H])([H])[H])C([H])(O[H])C413

$$$$
27:0:1
     RDKit          3D

 54 59  0  0  1  0  0  0  0  0999 V2000
    0.8622   -7.3025    1.6067 C   0  0  0  0  0  0  0  0  0  0  0  0
    2.2883   -6.7673    1.3732 C   0  0  2  0  0  0  0  0  0  0  0  0
    3.3170   -7.9025    1.5127 C   0  0  0  0  0  0  0  0  0  0  0  0
    4.6616   -7.3989    2.0383 C   0  0  0  0  0  0  0  0  0  0  0  0
    5.0730   -5.9862    1.5075 C   0  0  2  0  0  0  0  0  0  0  0  0
    6.4900   -5.6648    2.0648 C   0  0  0  0  0  0  0  0  0  0  0  0
    6.6726   -5.9283    3.5834 C   0  0  0  0  0  0  0  0  0  0  0  0
    7.5895   -6.4307    1.3052 C   0  0  0  0  0  0  0  0  0  0  0  0
    6.7980   -4.3187    1.7746 O   0  0  0  0  0  0  0  0  0  0  0  0
    5.8587   -3.2958    2.0883 C   0  0  2  0  0  0  0  0  0  0  0  0
    5.4376   -3.4179    3.4580 O   0  0  0  0  0  0  0  0  0  0  0  0
    4.4349   -3.5867    2.4306 C   0  0  1  0  0  0  0  0  0  0  0  0
    3.3982   -2.4778    2.5665 C   0  0  0  0  0  0  0  0  0  0  0  0
    3.3488   -1.7688    3.5644 O   0  0  0  0  0  0  0  0  0  0  0  0
    2.4006   -2.2298    1.4406 C   0  0  0  0  0  0  0  0  0  0  0  0
    2.8633   -2.8693    0.1567 C   0  0  2  0  0  0  0  0  0  0  0  0
    2.4438   -4.1572   -0.2849 O   0  0  0  0  0  0  0  0  0  0  0  0
    3.7885   -4.0889    0.2498 C   0  0  1  0  0  0  0  0  0  0  0  0
    5.0634   -3.6720   -0.5691 C   0  0  1  0  0  0  0  0  0  0  0  0
    4.8254   -3.6765   -2.0888 C   0  0  0  0  0  0  0  0  0  0  0  0
    5.7126   -2.2760   -0.1845 C   0  0  0  0  0  0  0  0  0  0  0  0
    6.2206   -2.0873    1.2696 C   0  0  1  0  0  0  0  0  0  0  0  0
    5.8521   -0.8292    1.8008 O   0  0  0  0  0  0  0  0  0  0  0  0
    3.9830   -4.8128    1.6417 C   0  0  1  0  0  0  0  0  0  0  0  0
    2.7112   -5.5535    2.2433 C   0  0  1  0  0  0  0  0  0  0  0  0
    1.5599   -4.7938    2.5235 O   0  0  0  0  0  0  0  0  0  0  0  0
    0.7050   -7.6342    2.6353 H   0  0  0  0  0  0  0  0  0  0  0  0
    0.6966   -8.1534    0.9533 H   0  0  0  0  0  0  0  0  0  0  0  0
    0.1020   -6.5628    1.3533 H   0  0  0  0  0  0  0  0  0  0  0  0
    2.3160   -6.4440    0.3323 H   0  0  0  0  0  0  0  0  0  0  0  0
    2.9286   -8.7048    2.1481 H   0  0  0  0  0  0  0  0  0  0  0  0
    3.4841   -8.3653    0.5455 H   0  0  0  0  0  0  0  0  0  0  0  0
    4.6085   -7.4068    3.1277 H   0  0  0  0  0  0  0  0  0  0  0  0
    5.4173   -8.1428    1.7731 H   0  0  0  0  0  0  0  0  0  0  0  0
    5.1777   -6.1765    0.4393 H   0  0  0  0  0  0  0  0  0  0  0  0
    6.8836   -6.9761    3.7996 H   0  0  0  0  0  0  0  0  0  0  0  0
    5.7907   -5.6559    4.1639 H   0  0  0  0  0  0  0  0  0  0  0  0
    7.5125   -5.3645    3.9821 H   0  0  0  0  0  0  0  0  0  0  0  0
    7.5535   -7.5002    1.5088 H   0  0  0  0  0  0  0  0  0  0  0  0
    8.5794   -6.0778    1.5973 H   0  0  0  0  0  0  0  0  0  0  0  0
    7.4912   -6.2828    0.2317 H   0  0  0  0  0  0  0  0  0  0  0  0
    1.4080   -2.5833    1.7073 H   0  0  0  0  0  0  0  0  0  0  0  0
    2.2952   -1.1506    1.2769 H   0  0  0  0  0  0  0  0  0  0  0  0
    2.9314   -2.1755   -0.6756 H   0  0  0  0  0  0  0  0  0  0  0  0
    5.8406   -4.4223   -0.4435 H   0  0  0  0  0  0  0  0  0  0  0  0
    4.1067   -2.9153   -2.4037 H   0  0  0  0  0  0  0  0  0  0  0  0
    4.4590   -4.6565   -2.4056 H   0  0  0  0  0  0  0  0  0  0  0  0
    5.7480   -3.5101   -2.6481 H   0  0  0  0  0  0  0  0  0  0  0  0
    6.5660   -2.1107   -0.8383 H   0  0  0  0  0  0  0  0  0  0  0  0
    5.0285   -1.4666   -0.4236 H   0  0  0  0  0  0  0  0  0  0  0  0
    7.3089   -2.0723    1.2590 H   0  0  0  0  0  0  0  0  0  0  0  0
    6.5740   -0.2331    1.6825 H   0  0  0  0  0  0  0  0  0  0  0  0
    2.9701   -5.9247    3.2376 H   0  0  0  0  0  0  0  0  0  0  0  0
    1.7738   -4.1598    3.1868 H   0  0  0  0  0  0  0  0  0  0  0  0
  1  2  1  0
  1 27  1  0
  1 28  1  0
  1 29  1  0
  2 25  1  0
  2  3  1  0
  2 30  1  6
  3  4  1  0
  3 31  1  0
  3 32  1  0
  4  5  1  0
  4 33  1  0
  4 34  1  0
  5 24  1  0
  5  6  1  0
  5 35  1  6
  6  7  1  0
  6  8  1  0
  6  9  1  0
  7 36  1  0
  7 37  1  0
  7 38  1  0
  8 39  1  0
  8 40  1  0
  8 41  1  0
 10  9  1  6
 10 12  1  0
 10 22  1  0
 10 11  1  0
 12 11  1  1
 24 12  1  1
 12 13  1  0
 13 14  2  0
 13 15  1  0
 15 16  1  0
 15 42  1  0
 15 43  1  0
 16 18  1  0
 16 17  1  0
 16 44  1  6
 18 17  1  6
 18 19  1  0
 18 24  1  0
 19 20  1  0
 19 21  1  0
 19 45  1  6
 20 46  1  0
 20 47  1  0
 20 48  1  0
 21 22  1  0
 21 49  1  0
 21 50  1  0
 22 23  1  0
 22 51  1  6
 23 52  1  0
 24 25  1  0
 25 26  1  0
 25 53  1  1
 26 54  1  0
M  END
>  <i_m_ct_stereo_status>  (75) 
1

>  <s_m_source_file>  (75) 
/var/tmp/pbs.5076255.sched01/tmppe38rura/0ules8z9c.sdf

>  <i_m_source_file_index>  (75) 
37

>  <i_lp_mmshare_version>  (75) 
48012

>  <i_f3d_flags>  (75) 
0

>  <s_epik_input>  (75) 
W09IXVtDQEhdMVtDQEhdKFtDSDNdKVtDSDJdW0NIMl1bQ0BIXShDKE8yKShbQ0gzXSlbQ0gzXSlbQ0BAXTEoW0NAXTMoW0NAXTI0NSlPNClbQ0BAXTYoW0NAQEhdKE82KVtDSDJdQzM9TylbQ0BASF0oW0NIM10pW0NIMl1bQ0BIXTVbT0hd

>  <s_epik_cmdline>  (75) 
J2VwaWtfcHl0aG9uJywgJy1waHQnLCAnMi4wJywgJy1waCcsICc3LjAnLCAnLXRuJywgJzgnLCAnLW1hJywgJzIwMCcsICctaW1hZScsICc8aW5maWxlLm1hZT4nLCAnLW9tYWUnLCAnPG91dGZpbGUubWFlPic=

>  <r_lp_tautomer_probability>  (75) 
1

>  <r_epik_Ionization_Penalty>  (75) 
1.26353e-06

>  <r_epik_Ionization_Penalty_Charging>  (75) 
0

>  <r_epik_Ionization_Penalty_Neutral>  (75) 
1.26353e-06

>  <r_epik_State_Penalty>  (75) 
-0

>  <r_epik_Charging_Adjusted_Penalty>  (75) 
0

>  <i_epik_Tot_Q>  (75) 
0

>  <i_epik_Tot_abs_Q>  (75) 
0

>  <s_lp_Force_Field>  (75) 
OPLS3e

>  <r_lp_Energy>  (75) 
100.727

>  <b_lp_Chiralities_Consistent>  (75) 
1

>  <s_lp_Variant>  (75) 
27:0-1

>  <s_i_glide_gridfile>  (75) 
pfpi4k_grid

>  <i_i_glide_lignum>  (75) 
37

>  <i_i_glide_rotatable_bonds>  (75) 
2

>  <r_i_docking_score>  (75) 
-2.72161

>  <r_i_glide_ligand_efficiency>  (75) 
-0.104677

>  <r_i_glide_ligand_efficiency_sa>  (75) 
-0.310106

>  <r_i_glide_ligand_efficiency_ln>  (75) 
-0.639162

>  <r_i_glide_gscore>  (75) 
-2.72161

>  <r_i_glide_lipo>  (75) 
-0.349012

>  <r_i_glide_hbond>  (75) 
0

>  <r_i_glide_metal>  (75) 
-0

>  <r_i_glide_rewards>  (75) 
-0.968955

>  <r_i_glide_evdw>  (75) 
-20.1737

>  <r_i_glide_ecoul>  (75) 
-2.63309

>  <r_i_glide_erotb>  (75) 
0

>  <r_i_glide_esite>  (75) 
0

>  <r_i_glide_emodel>  (75) 
-25.2389

>  <r_i_glide_energy>  (75) 
-22.8067

>  <r_i_glide_einternal>  (75) 
1.33592

>  <r_i_glide_intrahb_reward>  (75) 
-0

>  <i_i_glide_confnum>  (75) 
2

>  <i_i_glide_posenum>  (75) 
28

>  <r_i_glide_eff_state_penalty>  (75) 
0

>  <ligand_id>  (75) 
27

>  <original_smiles>  (75) 
CC1CCC2C(C)(C)OC34OC35C(=O)CC3OC3(C(C)CC4O)C25C1O

>  <smiles>  (75) 
[H]OC1([H])C([H])([H])C([H])(C([H])([H])[H])C23OC2([H])C([H])([H])C(=O)C24OC12OC(C([H])([H])[H])(C([H])([H])[H])C1([H])C([H])([H])C([H])([H])C([H])(C([H])([H])[H])C([H])(O[H])C413

$$$$
27:0:2
     RDKit          3D

 54 59  0  0  1  0  0  0  0  0999 V2000
    1.2259   -7.3749    1.5401 C   0  0  0  0  0  0  0  0  0  0  0  0
    2.6428   -6.8303    1.2790 C   0  0  2  0  0  0  0  0  0  0  0  0
    3.6885   -7.9541    1.3746 C   0  0  0  0  0  0  0  0  0  0  0  0
    5.0422   -7.4289    1.8507 C   0  0  0  0  0  0  0  0  0  0  0  0
    5.4281   -6.0294    1.2699 C   0  0  2  0  0  0  0  0  0  0  0  0
    6.8654   -5.6901    1.7861 C   0  0  0  0  0  0  0  0  0  0  0  0
    7.0956   -5.9381    3.2934 C   0  0  0  0  0  0  0  0  0  0  0  0
    7.9456   -6.4585    1.0119 C   0  0  0  0  0  0  0  0  0  0  0  0
    7.1702   -4.3482    1.4869 O   0  0  0  0  0  0  0  0  0  0  0  0
    6.2213   -3.3311    1.7908 C   0  0  2  0  0  0  0  0  0  0  0  0
    5.7645   -3.4098    3.1572 O   0  0  0  0  0  0  0  0  0  0  0  0
    4.7833   -3.6064    2.1311 C   0  0  1  0  0  0  0  0  0  0  0  0
    3.7371   -2.4930    2.2801 C   0  0  0  0  0  0  0  0  0  0  0  0
    3.7264   -1.7638    3.2614 O   0  0  0  0  0  0  0  0  0  0  0  0
    2.6930   -2.2778    1.1919 C   0  0  0  0  0  0  0  0  0  0  0  0
    3.1184   -2.9417   -0.0944 C   0  0  2  0  0  0  0  0  0  0  0  0
    2.6977   -4.2400   -0.4808 O   0  0  0  0  0  0  0  0  0  0  0  0
    4.0572   -4.1679    0.0059 C   0  0  1  0  0  0  0  0  0  0  0  0
    5.3102   -3.7598   -0.8596 C   0  0  1  0  0  0  0  0  0  0  0  0
    5.0247   -3.8019   -2.3702 C   0  0  0  0  0  0  0  0  0  0  0  0
    5.9750   -2.3648   -0.5212 C   0  0  0  0  0  0  0  0  0  0  0  0
    6.5405   -2.1420    0.9101 C   0  0  1  0  0  0  0  0  0  0  0  0
    6.1690   -0.8754    1.4191 O   0  0  0  0  0  0  0  0  0  0  0  0
    4.3154   -4.8625    1.4050 C   0  0  1  0  0  0  0  0  0  0  0  0
    3.0734   -5.5857    2.0811 C   0  0  1  0  0  0  0  0  0  0  0  0
    1.9272   -4.8283    2.3721 O   0  0  0  0  0  0  0  0  0  0  0  0
    1.0926   -7.6744    2.5860 H   0  0  0  0  0  0  0  0  0  0  0  0
    1.0461   -8.2433    0.9062 H   0  0  0  0  0  0  0  0  0  0  0  0
    0.4621   -6.6378    1.2873 H   0  0  0  0  0  0  0  0  0  0  0  0
    2.6426   -6.5243    0.2309 H   0  0  0  0  0  0  0  0  0  0  0  0
    3.3394   -8.7521    2.0415 H   0  0  0  0  0  0  0  0  0  0  0  0
    3.8259   -8.4256    0.4069 H   0  0  0  0  0  0  0  0  0  0  0  0
    5.0241   -7.4108    2.9403 H   0  0  0  0  0  0  0  0  0  0  0  0
    5.7959   -8.1680    1.5771 H   0  0  0  0  0  0  0  0  0  0  0  0
    5.4992   -6.2423    0.2033 H   0  0  0  0  0  0  0  0  0  0  0  0
    7.2951   -6.9854    3.5190 H   0  0  0  0  0  0  0  0  0  0  0  0
    6.2449   -5.6282    3.9120 H   0  0  0  0  0  0  0  0  0  0  0  0
    7.9848   -5.4043    3.6201 H   0  0  0  0  0  0  0  0  0  0  0  0
    7.9218   -7.5214    1.2375 H   0  0  0  0  0  0  0  0  0  0  0  0
    8.9347   -6.0930    1.2731 H   0  0  0  0  0  0  0  0  0  0  0  0
    7.8233   -6.3358   -0.0565 H   0  0  0  0  0  0  0  0  0  0  0  0
    1.7157   -2.6266    1.4912 H   0  0  0  0  0  0  0  0  0  0  0  0
    2.5847   -1.2069    1.0116 H   0  0  0  0  0  0  0  0  0  0  0  0
    3.1700   -2.2638   -0.9434 H   0  0  0  0  0  0  0  0  0  0  0  0
    6.1031   -4.4911   -0.7149 H   0  0  0  0  0  0  0  0  0  0  0  0
    4.3076   -3.0365   -2.6805 H   0  0  0  0  0  0  0  0  0  0  0  0
    4.6088   -4.7698   -2.6530 H   0  0  0  0  0  0  0  0  0  0  0  0
    5.9354   -3.6576   -2.9575 H   0  0  0  0  0  0  0  0  0  0  0  0
    6.8114   -2.2118   -1.2003 H   0  0  0  0  0  0  0  0  0  0  0  0
    5.2912   -1.5547   -0.7561 H   0  0  0  0  0  0  0  0  0  0  0  0
    7.6327   -2.1074    0.8593 H   0  0  0  0  0  0  0  0  0  0  0  0
    6.8152   -0.5969    2.0608 H   0  0  0  0  0  0  0  0  0  0  0  0
    3.3750   -5.9212    3.0727 H   0  0  0  0  0  0  0  0  0  0  0  0
    2.1453   -4.1994    3.0464 H   0  0  0  0  0  0  0  0  0  0  0  0
  1  2  1  0
  1 27  1  0
  1 28  1  0
  1 29  1  0
  2 25  1  0
  2  3  1  0
  2 30  1  6
  3  4  1  0
  3 31  1  0
  3 32  1  0
  4  5  1  0
  4 33  1  0
  4 34  1  0
  5 24  1  0
  5  6  1  0
  5 35  1  6
  6  7  1  0
  6  8  1  0
  6  9  1  0
  7 36  1  0
  7 37  1  0
  7 38  1  0
  8 39  1  0
  8 40  1  0
  8 41  1  0
 10  9  1  1
 10 12  1  0
 10 22  1  0
 10 11  1  0
 12 11  1  1
 24 12  1  1
 12 13  1  0
 13 14  2  0
 13 15  1  0
 15 16  1  0
 15 42  1  0
 15 43  1  0
 16 18  1  0
 16 17  1  0
 16 44  1  6
 18 17  1  6
 18 19  1  0
 18 24  1  0
 19 20  1  0
 19 21  1  0
 19 45  1  6
 20 46  1  0
 20 47  1  0
 20 48  1  0
 21 22  1  0
 21 49  1  0
 21 50  1  0
 22 23  1  0
 22 51  1  6
 23 52  1  0
 24 25  1  0
 25 26  1  0
 25 53  1  1
 26 54  1  0
M  END
>  <i_m_ct_stereo_status>  (76) 
1

>  <s_m_source_file>  (76) 
/var/tmp/pbs.5076255.sched01/tmppe38rura/0ules8z9c.sdf

>  <i_m_source_file_index>  (76) 
37

>  <i_lp_mmshare_version>  (76) 
48012

>  <i_f3d_flags>  (76) 
0

>  <s_epik_input>  (76) 
W09IXVtDQEhdMVtDQEhdKFtDSDNdKVtDSDJdW0NIMl1bQ0BIXShDKE8yKShbQ0gzXSlbQ0gzXSlbQ0BAXTEoW0NAXTMoW0NAXTI0NSlPNClbQ0BAXTYoW0NAQEhdKE82KVtDSDJdQzM9TylbQ0BASF0oW0NIM10pW0NIMl1bQ0BIXTVbT0hd

>  <s_epik_cmdline>  (76) 
J2VwaWtfcHl0aG9uJywgJy1waHQnLCAnMi4wJywgJy1waCcsICc3LjAnLCAnLXRuJywgJzgnLCAnLW1hJywgJzIwMCcsICctaW1hZScsICc8aW5maWxlLm1hZT4nLCAnLW9tYWUnLCAnPG91dGZpbGUubWFlPic=

>  <r_lp_tautomer_probability>  (76) 
1

>  <r_epik_Ionization_Penalty>  (76) 
1.26353e-06

>  <r_epik_Ionization_Penalty_Charging>  (76) 
0

>  <r_epik_Ionization_Penalty_Neutral>  (76) 
1.26353e-06

>  <r_epik_State_Penalty>  (76) 
-0

>  <r_epik_Charging_Adjusted_Penalty>  (76) 
0

>  <i_epik_Tot_Q>  (76) 
0

>  <i_epik_Tot_abs_Q>  (76) 
0

>  <s_lp_Force_Field>  (76) 
OPLS3e

>  <r_lp_Energy>  (76) 
100.727

>  <b_lp_Chiralities_Consistent>  (76) 
1

>  <s_lp_Variant>  (76) 
27:0-1

>  <s_i_glide_gridfile>  (76) 
pfpi4k_grid

>  <i_i_glide_lignum>  (76) 
37

>  <i_i_glide_rotatable_bonds>  (76) 
2

>  <r_i_docking_score>  (76) 
-2.61521

>  <r_i_glide_ligand_efficiency>  (76) 
-0.100585

>  <r_i_glide_ligand_efficiency_sa>  (76) 
-0.297982

>  <r_i_glide_ligand_efficiency_ln>  (76) 
-0.614173

>  <r_i_glide_gscore>  (76) 
-2.61521

>  <r_i_glide_lipo>  (76) 
-0.395528

>  <r_i_glide_hbond>  (76) 
0

>  <r_i_glide_metal>  (76) 
-0

>  <r_i_glide_rewards>  (76) 
-0.994991

>  <r_i_glide_evdw>  (76) 
-20.7574

>  <r_i_glide_ecoul>  (76) 
-1.24282

>  <r_i_glide_erotb>  (76) 
0

>  <r_i_glide_esite>  (76) 
-0.000396745

>  <r_i_glide_emodel>  (76) 
-24.6871

>  <r_i_glide_energy>  (76) 
-22.0002

>  <r_i_glide_einternal>  (76) 
1.07392

>  <r_i_glide_intrahb_reward>  (76) 
-0

>  <i_i_glide_confnum>  (76) 
2

>  <i_i_glide_posenum>  (76) 
18

>  <r_i_glide_eff_state_penalty>  (76) 
0

>  <ligand_id>  (76) 
27

>  <original_smiles>  (76) 
CC1CCC2C(C)(C)OC34OC35C(=O)CC3OC3(C(C)CC4O)C25C1O

>  <smiles>  (76) 
[H]OC1([H])C([H])([H])C([H])(C([H])([H])[H])C23OC2([H])C([H])([H])C(=O)C24OC12OC(C([H])([H])[H])(C([H])([H])[H])C1([H])C([H])([H])C([H])([H])C([H])(C([H])([H])[H])C([H])(O[H])C413

$$$$
29:0:0
     RDKit          3D

 70 73  0  0  1  0  0  0  0  0999 V2000
   -1.8410   -8.4499    2.5201 C   0  0  0  0  0  0  0  0  0  0  0  0
   -0.5849   -7.9102    3.2032 C   0  0  0  0  0  0  0  0  0  0  0  0
    0.5202   -8.9814    3.1812 C   0  0  0  0  0  0  0  0  0  0  0  0
   -0.8919   -7.3976    4.6325 C   0  0  0  0  0  0  0  0  0  0  0  0
    0.2831   -6.7186    5.3806 C   0  0  0  0  0  0  0  0  0  0  0  0
    0.7060   -5.3345    4.7991 C   0  0  0  0  0  0  0  0  0  0  0  0
    2.1700   -4.8826    5.0587 C   0  0  2  0  0  0  0  0  0  0  0  0
    2.3561   -3.3726    4.7521 C   0  0  0  0  0  0  0  0  0  0  0  0
    3.2765   -5.8285    4.4603 C   0  0  2  0  0  0  0  0  0  0  0  0
    4.6856   -5.5539    5.0392 C   0  0  0  0  0  0  0  0  0  0  0  0
    5.5396   -4.9354    3.9122 C   0  0  0  0  0  0  0  0  0  0  0  0
    4.5900   -4.7676    2.7116 C   0  0  1  0  0  0  0  0  0  0  0  0
    5.1645   -4.7630    1.2708 C   0  0  2  0  0  0  0  0  0  0  0  0
    6.3222   -3.7540    1.1043 C   0  0  0  0  0  0  0  0  0  0  0  0
    6.1370   -2.6864    0.0441 C   0  0  0  0  0  0  0  0  0  0  0  0
    4.9912   -2.4136   -0.6018 C   0  0  0  0  0  0  0  0  0  0  0  0
    4.9172   -1.2203   -1.5687 C   0  0  0  0  0  0  0  0  0  0  0  0
    4.0885   -1.5017   -2.8210 C   0  0  0  0  0  0  0  0  0  0  0  0
    4.2122   -0.7588   -3.8072 O   0  0  0  0  0  0  0  0  0  0  0  0
    3.1466   -2.6118   -2.8105 C   0  0  0  0  0  0  0  0  0  0  0  0
    2.9605   -3.3518   -1.7198 C   0  0  0  0  0  0  0  0  0  0  0  0
    3.7164   -3.2235   -0.3773 C   0  0  2  0  0  0  0  0  0  0  0  0
    2.8386   -2.3956    0.5674 C   0  0  0  0  0  0  0  0  0  0  0  0
    4.0394   -4.6604    0.1801 C   0  0  2  0  0  0  0  0  0  0  0  0
    2.7878   -5.5344    0.5061 C   0  0  0  0  0  0  0  0  0  0  0  0
    2.3565   -5.5717    1.9783 C   0  0  0  0  0  0  0  0  0  0  0  0
    3.5317   -5.8674    2.9232 C   0  0  2  0  0  0  0  0  0  0  0  0
    4.0949   -7.2941    2.5943 C   0  0  0  0  0  0  0  0  0  0  0  0
   -2.2430   -9.3215    3.0442 H   0  0  0  0  0  0  0  0  0  0  0  0
   -1.6169   -8.7436    1.4945 H   0  0  0  0  0  0  0  0  0  0  0  0
   -2.5993   -7.6716    2.4828 H   0  0  0  0  0  0  0  0  0  0  0  0
   -0.2853   -7.0685    2.5884 H   0  0  0  0  0  0  0  0  0  0  0  0
    0.2664   -9.8490    3.7963 H   0  0  0  0  0  0  0  0  0  0  0  0
    1.4504   -8.5763    3.5592 H   0  0  0  0  0  0  0  0  0  0  0  0
    0.7012   -9.3415    2.1672 H   0  0  0  0  0  0  0  0  0  0  0  0
   -1.7337   -6.7061    4.5984 H   0  0  0  0  0  0  0  0  0  0  0  0
   -1.2274   -8.2535    5.2260 H   0  0  0  0  0  0  0  0  0  0  0  0
   -0.0085   -6.5601    6.4228 H   0  0  0  0  0  0  0  0  0  0  0  0
    1.1041   -7.4289    5.4486 H   0  0  0  0  0  0  0  0  0  0  0  0
    0.4859   -5.2874    3.7374 H   0  0  0  0  0  0  0  0  0  0  0  0
    0.0413   -4.5932    5.2496 H   0  0  0  0  0  0  0  0  0  0  0  0
    2.2830   -4.9837    6.1448 H   0  0  0  0  0  0  0  0  0  0  0  0
    2.2230   -3.1218    3.7013 H   0  0  0  0  0  0  0  0  0  0  0  0
    3.3469   -3.0356    5.0560 H   0  0  0  0  0  0  0  0  0  0  0  0
    1.6556   -2.7666    5.3235 H   0  0  0  0  0  0  0  0  0  0  0  0
    3.0414   -6.8358    4.8000 H   0  0  0  0  0  0  0  0  0  0  0  0
    4.6517   -4.9314    5.9355 H   0  0  0  0  0  0  0  0  0  0  0  0
    5.1500   -6.4941    5.3473 H   0  0  0  0  0  0  0  0  0  0  0  0
    5.9249   -3.9720    4.2401 H   0  0  0  0  0  0  0  0  0  0  0  0
    6.3895   -5.5890    3.6814 H   0  0  0  0  0  0  0  0  0  0  0  0
    4.1423   -3.7874    2.8485 H   0  0  0  0  0  0  0  0  0  0  0  0
    5.6442   -5.7296    1.1251 H   0  0  0  0  0  0  0  0  0  0  0  0
    6.5019   -3.2196    2.0384 H   0  0  0  0  0  0  0  0  0  0  0  0
    7.2409   -4.2976    0.8658 H   0  0  0  0  0  0  0  0  0  0  0  0
    7.0097   -2.0730   -0.1245 H   0  0  0  0  0  0  0  0  0  0  0  0
    4.5014   -0.3589   -1.0555 H   0  0  0  0  0  0  0  0  0  0  0  0
    5.9270   -0.9553   -1.8682 H   0  0  0  0  0  0  0  0  0  0  0  0
    2.5764   -2.7785   -3.7176 H   0  0  0  0  0  0  0  0  0  0  0  0
    2.2118   -4.1257   -1.7838 H   0  0  0  0  0  0  0  0  0  0  0  0
    2.6641   -1.3960    0.1508 H   0  0  0  0  0  0  0  0  0  0  0  0
    3.3126   -2.2571    1.5417 H   0  0  0  0  0  0  0  0  0  0  0  0
    1.8578   -2.8437    0.7092 H   0  0  0  0  0  0  0  0  0  0  0  0
    4.4848   -5.1455   -0.6957 H   0  0  0  0  0  0  0  0  0  0  0  0
    1.9173   -5.2034   -0.0512 H   0  0  0  0  0  0  0  0  0  0  0  0
    2.9762   -6.5471    0.1562 H   0  0  0  0  0  0  0  0  0  0  0  0
    1.8802   -4.6127    2.1923 H   0  0  0  0  0  0  0  0  0  0  0  0
    1.6292   -6.3700    2.0731 H   0  0  0  0  0  0  0  0  0  0  0  0
    4.4097   -7.4118    1.5587 H   0  0  0  0  0  0  0  0  0  0  0  0
    3.3408   -8.0609    2.7594 H   0  0  0  0  0  0  0  0  0  0  0  0
    4.9578   -7.5572    3.2103 H   0  0  0  0  0  0  0  0  0  0  0  0
  1  2  1  0
  1 29  1  0
  1 30  1  0
  1 31  1  0
  2  3  1  0
  2  4  1  0
  2 32  1  0
  3 33  1  0
  3 34  1  0
  3 35  1  0
  4  5  1  0
  4 36  1  0
  4 37  1  0
  5  6  1  0
  5 38  1  0
  5 39  1  0
  6  7  1  0
  6 40  1  0
  6 41  1  0
  7  8  1  0
  7  9  1  0
  7 42  1  1
  8 43  1  0
  8 44  1  0
  8 45  1  0
  9 27  1  0
  9 10  1  0
  9 46  1  1
 10 11  1  0
 10 47  1  0
 10 48  1  0
 11 12  1  0
 11 49  1  0
 11 50  1  0
 12 27  1  0
 12 13  1  0
 12 51  1  1
 13 24  1  0
 13 14  1  0
 13 52  1  6
 14 15  1  0
 14 53  1  0
 14 54  1  0
 15 16  2  0
 15 55  1  0
 16 22  1  0
 16 17  1  0
 17 18  1  0
 17 56  1  0
 17 57  1  0
 18 19  2  0
 18 20  1  0
 20 21  2  0
 20 58  1  0
 21 22  1  0
 21 59  1  0
 22 23  1  1
 22 24  1  0
 23 60  1  0
 23 61  1  0
 23 62  1  0
 24 25  1  0
 24 63  1  6
 25 26  1  0
 25 64  1  0
 25 65  1  0
 26 27  1  0
 26 66  1  0
 26 67  1  0
 27 28  1  6
 28 68  1  0
 28 69  1  0
 28 70  1  0
M  END
>  <i_m_ct_stereo_status>  (77) 
1

>  <s_m_source_file>  (77) 
/var/tmp/pbs.5076255.sched01/tmppe38rura/0ules8z9c.sdf

>  <i_m_source_file_index>  (77) 
39

>  <i_lp_mmshare_version>  (77) 
48012

>  <i_f3d_flags>  (77) 
0

>  <s_epik_input>  (77) 
W0NIM11bQ0hdKFtDSDNdKVtDSDJdW0NIMl1bQ0gyXVtDQEhdKFtDSDNdKVtDQEhdKFtDSDJdW0NIMl0xKVtDQEBdKFtDSDNdKShbQ0gyXVtDSDJdW0NASF0yMylbQ0BASF0xW0NAQEhdMltDSDJdW0NIXT1DKFtDQF0zNFtDSDNdKVtDSDJdQyg9TylbQ0hdPVtDSF00

>  <s_epik_cmdline>  (77) 
J2VwaWtfcHl0aG9uJywgJy1waHQnLCAnMi4wJywgJy1waCcsICc3LjAnLCAnLXRuJywgJzgnLCAnLW1hJywgJzIwMCcsICctaW1hZScsICc8aW5maWxlLm1hZT4nLCAnLW9tYWUnLCAnPG91dGZpbGUubWFlPic=

>  <r_lp_tautomer_probability>  (77) 
1

>  <r_epik_Ionization_Penalty>  (77) 
0

>  <r_epik_Ionization_Penalty_Charging>  (77) 
0

>  <r_epik_Ionization_Penalty_Neutral>  (77) 
0

>  <r_epik_State_Penalty>  (77) 
-0

>  <r_epik_Charging_Adjusted_Penalty>  (77) 
0

>  <i_epik_Tot_Q>  (77) 
0

>  <i_epik_Tot_abs_Q>  (77) 
0

>  <s_lp_Force_Field>  (77) 
OPLS3e

>  <r_lp_Energy>  (77) 
63.2314

>  <b_lp_Chiralities_Consistent>  (77) 
1

>  <s_lp_Variant>  (77) 
29:0-1

>  <s_i_glide_gridfile>  (77) 
pfpi4k_grid

>  <i_i_glide_lignum>  (77) 
39

>  <i_i_glide_rotatable_bonds>  (77) 
5

>  <r_i_docking_score>  (77) 
-2.33753

>  <r_i_glide_ligand_efficiency>  (77) 
-0.0834833

>  <r_i_glide_ligand_efficiency_sa>  (77) 
-0.253504

>  <r_i_glide_ligand_efficiency_ln>  (77) 
-0.539571

>  <r_i_glide_gscore>  (77) 
-2.33753

>  <r_i_glide_lipo>  (77) 
-0.469022

>  <r_i_glide_hbond>  (77) 
0

>  <r_i_glide_metal>  (77) 
-0

>  <r_i_glide_rewards>  (77) 
-0.800306

>  <r_i_glide_evdw>  (77) 
-27.7322

>  <r_i_glide_ecoul>  (77) 
-1.34015

>  <r_i_glide_erotb>  (77) 
0.5307

>  <r_i_glide_esite>  (77) 
-0.0112703

>  <r_i_glide_emodel>  (77) 
-30.3007

>  <r_i_glide_energy>  (77) 
-29.0724

>  <r_i_glide_einternal>  (77) 
3.44934

>  <r_i_glide_intrahb_reward>  (77) 
-0

>  <i_i_glide_confnum>  (77) 
1

>  <i_i_glide_posenum>  (77) 
18

>  <r_i_glide_eff_state_penalty>  (77) 
0

>  <ligand_id>  (77) 
29

>  <original_smiles>  (77) 
CC(C)CCCC(C)C1CCC2C3CC=C4CC(=O)C=CC4(C)C3CCC12C

>  <smiles>  (77) 
[H]C1=C([H])C2(C([H])([H])[H])C(=C([H])C([H])([H])C3([H])C2([H])C([H])([H])C([H])([H])C2(C([H])([H])[H])C([H])(C([H])(C([H])([H])[H])C([H])([H])C([H])([H])C([H])([H])C([H])(C([H])([H])[H])C([H])([H])[H])C([H])([H])C([H])([H])C32[H])C([H])([H])C1=O

$$$$
29:0:1
     RDKit          3D

 70 73  0  0  1  0  0  0  0  0999 V2000
   -0.8292   -9.3813    2.5956 C   0  0  0  0  0  0  0  0  0  0  0  0
   -0.9642   -8.4213    3.8000 C   0  0  0  0  0  0  0  0  0  0  0  0
   -2.1047   -7.4351    3.4962 C   0  0  0  0  0  0  0  0  0  0  0  0
    0.4255   -7.7816    4.1329 C   0  0  0  0  0  0  0  0  0  0  0  0
    0.5634   -7.0434    5.4855 C   0  0  0  0  0  0  0  0  0  0  0  0
   -0.4103   -5.8532    5.6410 C   0  0  0  0  0  0  0  0  0  0  0  0
   -0.4233   -5.0887    6.9859 C   0  0  2  0  0  0  0  0  0  0  0  0
   -1.7138   -4.2483    7.1280 C   0  0  0  0  0  0  0  0  0  0  0  0
    0.9054   -4.3536    7.3432 C   0  0  2  0  0  0  0  0  0  0  0  0
    0.9503   -3.9321    8.8336 C   0  0  0  0  0  0  0  0  0  0  0  0
    0.8060   -2.3934    8.8836 C   0  0  0  0  0  0  0  0  0  0  0  0
    0.5834   -1.9474    7.4277 C   0  0  1  0  0  0  0  0  0  0  0  0
    0.9840   -0.5229    6.9874 C   0  0  2  0  0  0  0  0  0  0  0  0
    0.4168    0.5715    7.9273 C   0  0  0  0  0  0  0  0  0  0  0  0
   -0.4471    1.6237    7.2782 C   0  0  0  0  0  0  0  0  0  0  0  0
   -0.9200    1.6113    6.0320 C   0  0  0  0  0  0  0  0  0  0  0  0
   -1.8715    2.6964    5.5624 C   0  0  0  0  0  0  0  0  0  0  0  0
   -1.6601    3.1470    4.1117 C   0  0  0  0  0  0  0  0  0  0  0  0
   -2.1492    4.1988    3.7467 O   0  0  0  0  0  0  0  0  0  0  0  0
   -0.9084    2.2635    3.2046 C   0  0  0  0  0  0  0  0  0  0  0  0
   -0.4482    1.0570    3.6301 C   0  0  0  0  0  0  0  0  0  0  0  0
   -0.5831    0.4699    5.0370 C   0  0  2  0  0  0  0  0  0  0  0  0
   -1.7866   -0.4858    5.0371 C   0  0  0  0  0  0  0  0  0  0  0  0
    0.7416   -0.2667    5.4548 C   0  0  2  0  0  0  0  0  0  0  0  0
    1.1257   -1.4936    4.5533 C   0  0  0  0  0  0  0  0  0  0  0  0
    0.7765   -2.8766    5.1231 C   0  0  0  0  0  0  0  0  0  0  0  0
    1.2629   -3.0455    6.5812 C   0  0  2  0  0  0  0  0  0  0  0  0
    2.8199   -2.9626    6.5952 C   0  0  0  0  0  0  0  0  0  0  0  0
   -0.5437   -8.8400    1.6899 H   0  0  0  0  0  0  0  0  0  0  0  0
   -1.7882   -9.8610    2.3784 H   0  0  0  0  0  0  0  0  0  0  0  0
   -0.1053  -10.1786    2.7514 H   0  0  0  0  0  0  0  0  0  0  0  0
   -1.2529   -9.0153    4.6571 H   0  0  0  0  0  0  0  0  0  0  0  0
   -1.7839   -6.6949    2.7601 H   0  0  0  0  0  0  0  0  0  0  0  0
   -2.5190   -6.9426    4.3561 H   0  0  0  0  0  0  0  0  0  0  0  0
   -2.9077   -7.9953    3.0258 H   0  0  0  0  0  0  0  0  0  0  0  0
    1.1529   -8.5845    4.1464 H   0  0  0  0  0  0  0  0  0  0  0  0
    0.7387   -7.1485    3.3023 H   0  0  0  0  0  0  0  0  0  0  0  0
    0.4030   -7.7386    6.3060 H   0  0  0  0  0  0  0  0  0  0  0  0
    1.6059   -6.7262    5.5635 H   0  0  0  0  0  0  0  0  0  0  0  0
   -0.2847   -5.1801    4.7790 H   0  0  0  0  0  0  0  0  0  0  0  0
   -1.3953   -6.2322    5.6429 H   0  0  0  0  0  0  0  0  0  0  0  0
   -0.5041   -5.8834    7.7225 H   0  0  0  0  0  0  0  0  0  0  0  0
   -1.7802   -3.4349    6.4016 H   0  0  0  0  0  0  0  0  0  0  0  0
   -1.8094   -3.8393    8.1341 H   0  0  0  0  0  0  0  0  0  0  0  0
   -2.6091   -4.8580    6.9509 H   0  0  0  0  0  0  0  0  0  0  0  0
    1.6979   -5.0948    7.2104 H   0  0  0  0  0  0  0  0  0  0  0  0
    0.1978   -4.4436    9.4398 H   0  0  0  0  0  0  0  0  0  0  0  0
    1.9199   -4.2126    9.2683 H   0  0  0  0  0  0  0  0  0  0  0  0
   -0.0292   -2.1132    9.5275 H   0  0  0  0  0  0  0  0  0  0  0  0
    1.7116   -1.9493    9.2986 H   0  0  0  0  0  0  0  0  0  0  0  0
   -0.4898   -1.9870    7.2794 H   0  0  0  0  0  0  0  0  0  0  0  0
    2.0613   -0.4695    7.1450 H   0  0  0  0  0  0  0  0  0  0  0  0
   -0.1741    0.1350    8.7287 H   0  0  0  0  0  0  0  0  0  0  0  0
    1.2486    1.0714    8.4162 H   0  0  0  0  0  0  0  0  0  0  0  0
   -0.7267    2.4483    7.9406 H   0  0  0  0  0  0  0  0  0  0  0  0
   -2.8989    2.3430    5.6519 H   0  0  0  0  0  0  0  0  0  0  0  0
   -1.7817    3.5794    6.2069 H   0  0  0  0  0  0  0  0  0  0  0  0
   -0.7686    2.5807    2.1840 H   0  0  0  0  0  0  0  0  0  0  0  0
    0.0756    0.4683    2.8974 H   0  0  0  0  0  0  0  0  0  0  0  0
   -2.6825    0.0560    4.7427 H   0  0  0  0  0  0  0  0  0  0  0  0
   -1.9667   -0.9122    6.0246 H   0  0  0  0  0  0  0  0  0  0  0  0
   -1.6569   -1.2943    4.3159 H   0  0  0  0  0  0  0  0  0  0  0  0
    1.5034    0.4705    5.2111 H   0  0  0  0  0  0  0  0  0  0  0  0
    0.6475   -1.4323    3.5787 H   0  0  0  0  0  0  0  0  0  0  0  0
    2.1961   -1.4667    4.3410 H   0  0  0  0  0  0  0  0  0  0  0  0
   -0.3040   -2.9822    5.0301 H   0  0  0  0  0  0  0  0  0  0  0  0
    1.2379   -3.6313    4.4813 H   0  0  0  0  0  0  0  0  0  0  0  0
    3.2049   -2.0316    6.1817 H   0  0  0  0  0  0  0  0  0  0  0  0
    3.2440   -3.7714    5.9967 H   0  0  0  0  0  0  0  0  0  0  0  0
    3.2266   -3.0510    7.6033 H   0  0  0  0  0  0  0  0  0  0  0  0
  1  2  1  0
  1 29  1  0
  1 30  1  0
  1 31  1  0
  2  3  1  0
  2  4  1  0
  2 32  1  0
  3 33  1  0
  3 34  1  0
  3 35  1  0
  4  5  1  0
  4 36  1  0
  4 37  1  0
  5  6  1  0
  5 38  1  0
  5 39  1  0
  6  7  1  0
  6 40  1  0
  6 41  1  0
  7  8  1  0
  7  9  1  0
  7 42  1  1
  8 43  1  0
  8 44  1  0
  8 45  1  0
  9 27  1  0
  9 10  1  0
  9 46  1  1
 10 11  1  0
 10 47  1  0
 10 48  1  0
 11 12  1  0
 11 49  1  0
 11 50  1  0
 12 27  1  0
 12 13  1  0
 12 51  1  6
 13 24  1  0
 13 14  1  0
 13 52  1  6
 14 15  1  0
 14 53  1  0
 14 54  1  0
 15 16  2  0
 15 55  1  0
 16 22  1  0
 16 17  1  0
 17 18  1  0
 17 56  1  0
 17 57  1  0
 18 19  2  0
 18 20  1  0
 20 21  2  0
 20 58  1  0
 21 22  1  0
 21 59  1  0
 22 23  1  6
 22 24  1  0
 23 60  1  0
 23 61  1  0
 23 62  1  0
 24 25  1  0
 24 63  1  6
 25 26  1  0
 25 64  1  0
 25 65  1  0
 26 27  1  0
 26 66  1  0
 26 67  1  0
 27 28  1  6
 28 68  1  0
 28 69  1  0
 28 70  1  0
M  END
>  <i_m_ct_stereo_status>  (78) 
1

>  <s_m_source_file>  (78) 
/var/tmp/pbs.5076255.sched01/tmppe38rura/0ules8z9c.sdf

>  <i_m_source_file_index>  (78) 
39

>  <i_lp_mmshare_version>  (78) 
48012

>  <i_f3d_flags>  (78) 
0

>  <s_epik_input>  (78) 
W0NIM11bQ0hdKFtDSDNdKVtDSDJdW0NIMl1bQ0gyXVtDQEhdKFtDSDNdKVtDQEhdKFtDSDJdW0NIMl0xKVtDQEBdKFtDSDNdKShbQ0gyXVtDSDJdW0NASF0yMylbQ0BASF0xW0NAQEhdMltDSDJdW0NIXT1DKFtDQF0zNFtDSDNdKVtDSDJdQyg9TylbQ0hdPVtDSF00

>  <s_epik_cmdline>  (78) 
J2VwaWtfcHl0aG9uJywgJy1waHQnLCAnMi4wJywgJy1waCcsICc3LjAnLCAnLXRuJywgJzgnLCAnLW1hJywgJzIwMCcsICctaW1hZScsICc8aW5maWxlLm1hZT4nLCAnLW9tYWUnLCAnPG91dGZpbGUubWFlPic=

>  <r_lp_tautomer_probability>  (78) 
1

>  <r_epik_Ionization_Penalty>  (78) 
0

>  <r_epik_Ionization_Penalty_Charging>  (78) 
0

>  <r_epik_Ionization_Penalty_Neutral>  (78) 
0

>  <r_epik_State_Penalty>  (78) 
-0

>  <r_epik_Charging_Adjusted_Penalty>  (78) 
0

>  <i_epik_Tot_Q>  (78) 
0

>  <i_epik_Tot_abs_Q>  (78) 
0

>  <s_lp_Force_Field>  (78) 
OPLS3e

>  <r_lp_Energy>  (78) 
63.2314

>  <b_lp_Chiralities_Consistent>  (78) 
1

>  <s_lp_Variant>  (78) 
29:0-1

>  <s_i_glide_gridfile>  (78) 
pfpi4k_grid

>  <i_i_glide_lignum>  (78) 
39

>  <i_i_glide_rotatable_bonds>  (78) 
5

>  <r_i_docking_score>  (78) 
-2.26261

>  <r_i_glide_ligand_efficiency>  (78) 
-0.0808075

>  <r_i_glide_ligand_efficiency_sa>  (78) 
-0.245379

>  <r_i_glide_ligand_efficiency_ln>  (78) 
-0.522277

>  <r_i_glide_gscore>  (78) 
-2.26261

>  <r_i_glide_lipo>  (78) 
-0.277066

>  <r_i_glide_hbond>  (78) 
-0.110573

>  <r_i_glide_metal>  (78) 
-0

>  <r_i_glide_rewards>  (78) 
-0.800306

>  <r_i_glide_evdw>  (78) 
-24.4938

>  <r_i_glide_ecoul>  (78) 
-2.26809

>  <r_i_glide_erotb>  (78) 
0.5307

>  <r_i_glide_esite>  (78) 
-0.0404626

>  <r_i_glide_emodel>  (78) 
-27.1462

>  <r_i_glide_energy>  (78) 
-26.7619

>  <r_i_glide_einternal>  (78) 
2.19378

>  <r_i_glide_intrahb_reward>  (78) 
-0

>  <i_i_glide_confnum>  (78) 
2

>  <i_i_glide_posenum>  (78) 
12

>  <r_i_glide_eff_state_penalty>  (78) 
0

>  <ligand_id>  (78) 
29

>  <original_smiles>  (78) 
CC(C)CCCC(C)C1CCC2C3CC=C4CC(=O)C=CC4(C)C3CCC12C

>  <smiles>  (78) 
[H]C1=C([H])C2(C([H])([H])[H])C(=C([H])C([H])([H])C3([H])C2([H])C([H])([H])C([H])([H])C2(C([H])([H])[H])C([H])(C([H])(C([H])([H])[H])C([H])([H])C([H])([H])C([H])([H])C([H])(C([H])([H])[H])C([H])([H])[H])C([H])([H])C([H])([H])C32[H])C([H])([H])C1=O

$$$$
29:0:2
     RDKit          3D

 70 73  0  0  1  0  0  0  0  0999 V2000
   -1.1537   -8.9218    3.2713 C   0  0  0  0  0  0  0  0  0  0  0  0
   -0.4970   -7.5778    2.9215 C   0  0  0  0  0  0  0  0  0  0  0  0
   -0.0743   -7.5529    1.4460 C   0  0  0  0  0  0  0  0  0  0  0  0
    0.6952   -7.2677    3.8528 C   0  0  0  0  0  0  0  0  0  0  0  0
    0.3449   -7.0217    5.3386 C   0  0  0  0  0  0  0  0  0  0  0  0
   -0.6954   -5.8918    5.5516 C   0  0  0  0  0  0  0  0  0  0  0  0
   -0.7420   -5.2335    6.9574 C   0  0  2  0  0  0  0  0  0  0  0  0
   -2.0454   -4.4196    7.1366 C   0  0  0  0  0  0  0  0  0  0  0  0
    0.5587   -4.4869    7.4199 C   0  0  2  0  0  0  0  0  0  0  0  0
    0.5347   -4.0778    8.9170 C   0  0  0  0  0  0  0  0  0  0  0  0
    0.4171   -2.5394    8.9881 C   0  0  0  0  0  0  0  0  0  0  0  0
    0.2940   -2.0696    7.5263 C   0  0  1  0  0  0  0  0  0  0  0  0
    0.7382   -0.6385    7.1338 C   0  0  2  0  0  0  0  0  0  0  0  0
    0.1162    0.4443    8.0508 C   0  0  0  0  0  0  0  0  0  0  0  0
   -0.6905    1.5122    7.3513 C   0  0  0  0  0  0  0  0  0  0  0  0
   -1.0933    1.5020    6.0771 C   0  0  0  0  0  0  0  0  0  0  0  0
   -1.9843    2.6176    5.5539 C   0  0  0  0  0  0  0  0  0  0  0  0
   -1.6764    3.0735    4.1335 C   0  0  0  0  0  0  0  0  0  0  0  0
   -2.1401    4.1487    3.7595 O   0  0  0  0  0  0  0  0  0  0  0  0
   -0.8983    2.1839    3.2740 C   0  0  0  0  0  0  0  0  0  0  0  0
   -0.4757    0.9777    3.7055 C   0  0  0  0  0  0  0  0  0  0  0  0
   -0.7070    0.3686    5.1063 C   0  0  2  0  0  0  0  0  0  0  0  0
   -1.9077   -0.5772    5.0058 C   0  0  0  0  0  0  0  0  0  0  0  0
    0.5981   -0.3618    5.5932 C   0  0  2  0  0  0  0  0  0  0  0  0
    1.0261   -1.5782    4.7112 C   0  0  0  0  0  0  0  0  0  0  0  0
    0.6266   -2.9598    5.2419 C   0  0  0  0  0  0  0  0  0  0  0  0
    1.0078   -3.1659    6.7141 C   0  0  2  0  0  0  0  0  0  0  0  0
    2.5607   -3.1002    6.8369 C   0  0  0  0  0  0  0  0  0  0  0  0
   -0.4567   -9.7501    3.1487 H   0  0  0  0  0  0  0  0  0  0  0  0
   -2.0138   -9.1179    2.6347 H   0  0  0  0  0  0  0  0  0  0  0  0
   -1.5051   -8.9373    4.2998 H   0  0  0  0  0  0  0  0  0  0  0  0
   -1.2500   -6.7990    3.0408 H   0  0  0  0  0  0  0  0  0  0  0  0
    0.7466   -8.2505    1.2662 H   0  0  0  0  0  0  0  0  0  0  0  0
    0.2570   -6.5628    1.1270 H   0  0  0  0  0  0  0  0  0  0  0  0
   -0.9037   -7.8524    0.8046 H   0  0  0  0  0  0  0  0  0  0  0  0
    1.4178   -8.0857    3.7926 H   0  0  0  0  0  0  0  0  0  0  0  0
    1.2323   -6.3953    3.4707 H   0  0  0  0  0  0  0  0  0  0  0  0
   -0.0098   -7.9402    5.8127 H   0  0  0  0  0  0  0  0  0  0  0  0
    1.2843   -6.7872    5.8343 H   0  0  0  0  0  0  0  0  0  0  0  0
   -0.5588   -5.1559    4.7630 H   0  0  0  0  0  0  0  0  0  0  0  0
   -1.6779   -6.3202    5.3494 H   0  0  0  0  0  0  0  0  0  0  0  0
   -0.8277   -6.0691    7.6510 H   0  0  0  0  0  0  0  0  0  0  0  0
   -2.1022   -3.5568    6.4822 H   0  0  0  0  0  0  0  0  0  0  0  0
   -2.1484   -4.0483    8.1504 H   0  0  0  0  0  0  0  0  0  0  0  0
   -2.9262   -5.0267    6.9391 H   0  0  0  0  0  0  0  0  0  0  0  0
    1.3671   -5.2213    7.3394 H   0  0  0  0  0  0  0  0  0  0  0  0
   -0.2530   -4.5882    9.4742 H   0  0  0  0  0  0  0  0  0  0  0  0
    1.4698   -4.3684    9.3991 H   0  0  0  0  0  0  0  0  0  0  0  0
   -0.4454   -2.2493    9.5872 H   0  0  0  0  0  0  0  0  0  0  0  0
    1.3027   -2.1159    9.4729 H   0  0  0  0  0  0  0  0  0  0  0  0
   -0.7637   -2.1034    7.2932 H   0  0  0  0  0  0  0  0  0  0  0  0
    1.8048   -0.5825    7.3568 H   0  0  0  0  0  0  0  0  0  0  0  0
   -0.5376    0.0015    8.8028 H   0  0  0  0  0  0  0  0  0  0  0  0
    0.9125    0.9528    8.5930 H   0  0  0  0  0  0  0  0  0  0  0  0
   -1.0160    2.3273    7.9957 H   0  0  0  0  0  0  0  0  0  0  0  0
   -3.0027    2.2564    5.5814 H   0  0  0  0  0  0  0  0  0  0  0  0
   -1.9423    3.4809    6.2248 H   0  0  0  0  0  0  0  0  0  0  0  0
   -0.6789    2.5250    2.2671 H   0  0  0  0  0  0  0  0  0  0  0  0
    0.0865    0.3824    3.0064 H   0  0  0  0  0  0  0  0  0  0  0  0
   -2.7900   -0.0424    4.6563 H   0  0  0  0  0  0  0  0  0  0  0  0
   -2.1603   -1.0142    5.9695 H   0  0  0  0  0  0  0  0  0  0  0  0
   -1.7345   -1.3794    4.2925 H   0  0  0  0  0  0  0  0  0  0  0  0
    1.3627    0.3882    5.3985 H   0  0  0  0  0  0  0  0  0  0  0  0
    0.6074   -1.5170    3.7111 H   0  0  0  0  0  0  0  0  0  0  0  0
    2.1051   -1.5505    4.5626 H   0  0  0  0  0  0  0  0  0  0  0  0
   -0.4478   -3.0416    5.1062 H   0  0  0  0  0  0  0  0  0  0  0  0
    1.0979   -3.7196    4.6177 H   0  0  0  0  0  0  0  0  0  0  0  0
    2.9871   -2.1720    6.4632 H   0  0  0  0  0  0  0  0  0  0  0  0
    3.0228   -3.9063    6.2608 H   0  0  0  0  0  0  0  0  0  0  0  0
    2.9020   -3.2003    7.8682 H   0  0  0  0  0  0  0  0  0  0  0  0
  1  2  1  0
  1 29  1  0
  1 30  1  0
  1 31  1  0
  2  3  1  0
  2  4  1  0
  2 32  1  0
  3 33  1  0
  3 34  1  0
  3 35  1  0
  4  5  1  0
  4 36  1  0
  4 37  1  0
  5  6  1  0
  5 38  1  0
  5 39  1  0
  6  7  1  0
  6 40  1  0
  6 41  1  0
  7  8  1  0
  7  9  1  0
  7 42  1  1
  8 43  1  0
  8 44  1  0
  8 45  1  0
  9 27  1  0
  9 10  1  0
  9 46  1  1
 10 11  1  0
 10 47  1  0
 10 48  1  0
 11 12  1  0
 11 49  1  0
 11 50  1  0
 12 27  1  0
 12 13  1  0
 12 51  1  6
 13 24  1  0
 13 14  1  0
 13 52  1  1
 14 15  1  0
 14 53  1  0
 14 54  1  0
 15 16  2  0
 15 55  1  0
 16 22  1  0
 16 17  1  0
 17 18  1  0
 17 56  1  0
 17 57  1  0
 18 19  2  0
 18 20  1  0
 20 21  2  0
 20 58  1  0
 21 22  1  0
 21 59  1  0
 22 23  1  6
 22 24  1  0
 23 60  1  0
 23 61  1  0
 23 62  1  0
 24 25  1  0
 24 63  1  6
 25 26  1  0
 25 64  1  0
 25 65  1  0
 26 27  1  0
 26 66  1  0
 26 67  1  0
 27 28  1  6
 28 68  1  0
 28 69  1  0
 28 70  1  0
M  END
>  <i_m_ct_stereo_status>  (79) 
1

>  <s_m_source_file>  (79) 
/var/tmp/pbs.5076255.sched01/tmppe38rura/0ules8z9c.sdf

>  <i_m_source_file_index>  (79) 
39

>  <i_lp_mmshare_version>  (79) 
48012

>  <i_f3d_flags>  (79) 
0

>  <s_epik_input>  (79) 
W0NIM11bQ0hdKFtDSDNdKVtDSDJdW0NIMl1bQ0gyXVtDQEhdKFtDSDNdKVtDQEhdKFtDSDJdW0NIMl0xKVtDQEBdKFtDSDNdKShbQ0gyXVtDSDJdW0NASF0yMylbQ0BASF0xW0NAQEhdMltDSDJdW0NIXT1DKFtDQF0zNFtDSDNdKVtDSDJdQyg9TylbQ0hdPVtDSF00

>  <s_epik_cmdline>  (79) 
J2VwaWtfcHl0aG9uJywgJy1waHQnLCAnMi4wJywgJy1waCcsICc3LjAnLCAnLXRuJywgJzgnLCAnLW1hJywgJzIwMCcsICctaW1hZScsICc8aW5maWxlLm1hZT4nLCAnLW9tYWUnLCAnPG91dGZpbGUubWFlPic=

>  <r_lp_tautomer_probability>  (79) 
1

>  <r_epik_Ionization_Penalty>  (79) 
0

>  <r_epik_Ionization_Penalty_Charging>  (79) 
0

>  <r_epik_Ionization_Penalty_Neutral>  (79) 
0

>  <r_epik_State_Penalty>  (79) 
-0

>  <r_epik_Charging_Adjusted_Penalty>  (79) 
0

>  <i_epik_Tot_Q>  (79) 
0

>  <i_epik_Tot_abs_Q>  (79) 
0

>  <s_lp_Force_Field>  (79) 
OPLS3e

>  <r_lp_Energy>  (79) 
63.2314

>  <b_lp_Chiralities_Consistent>  (79) 
1

>  <s_lp_Variant>  (79) 
29:0-1

>  <s_i_glide_gridfile>  (79) 
pfpi4k_grid

>  <i_i_glide_lignum>  (79) 
39

>  <i_i_glide_rotatable_bonds>  (79) 
5

>  <r_i_docking_score>  (79) 
-2.16117

>  <r_i_glide_ligand_efficiency>  (79) 
-0.0771848

>  <r_i_glide_ligand_efficiency_sa>  (79) 
-0.234378

>  <r_i_glide_ligand_efficiency_ln>  (79) 
-0.498862

>  <r_i_glide_gscore>  (79) 
-2.16117

>  <r_i_glide_lipo>  (79) 
-0.205918

>  <r_i_glide_hbond>  (79) 
-0.0903974

>  <r_i_glide_metal>  (79) 
-0

>  <r_i_glide_rewards>  (79) 
-0.800306

>  <r_i_glide_evdw>  (79) 
-25.1009

>  <r_i_glide_ecoul>  (79) 
-2.01493

>  <r_i_glide_erotb>  (79) 
0.5307

>  <r_i_glide_esite>  (79) 
-0.0379662

>  <r_i_glide_emodel>  (79) 
-28.5775

>  <r_i_glide_energy>  (79) 
-27.1159

>  <r_i_glide_einternal>  (79) 
3.02834

>  <r_i_glide_intrahb_reward>  (79) 
-0

>  <i_i_glide_confnum>  (79) 
2

>  <i_i_glide_posenum>  (79) 
24

>  <r_i_glide_eff_state_penalty>  (79) 
0

>  <ligand_id>  (79) 
29

>  <original_smiles>  (79) 
CC(C)CCCC(C)C1CCC2C3CC=C4CC(=O)C=CC4(C)C3CCC12C

>  <smiles>  (79) 
[H]C1=C([H])C2(C([H])([H])[H])C(=C([H])C([H])([H])C3([H])C2([H])C([H])([H])C([H])([H])C2(C([H])([H])[H])C([H])(C([H])(C([H])([H])[H])C([H])([H])C([H])([H])C([H])([H])C([H])(C([H])([H])[H])C([H])([H])[H])C([H])([H])C([H])([H])C32[H])C([H])([H])C1=O

$$$$
30:0:0
     RDKit          3D

 91 96  0  0  1  0  0  0  0  0999 V2000
    2.5362   -3.1655   -2.1960 C   0  0  0  0  0  0  0  0  0  0  0  0
    3.7151   -2.1932   -2.0926 C   0  0  0  0  0  0  0  0  0  0  0  0
    4.2983   -1.8015   -3.0962 O   0  0  0  0  0  0  0  0  0  0  0  0
    4.0505   -1.8190   -0.8297 O   0  0  0  0  0  0  0  0  0  0  0  0
    3.4091   -2.3790    0.3117 C   0  0  0  0  0  0  0  0  0  0  0  0
    3.8662   -1.7878    1.6715 C   0  0  1  0  0  0  0  0  0  0  0  0
    3.5965   -0.2416    1.6662 C   0  0  1  0  0  0  0  0  0  0  0  0
    2.3640    0.1422    1.0844 O   0  0  0  0  0  0  0  0  0  0  0  0
    3.5850    0.3973    3.0617 C   0  0  0  0  0  0  0  0  0  0  0  0
    2.5939   -0.2812    4.0284 C   0  0  1  0  0  0  0  0  0  0  0  0
    1.1044   -0.0067    3.7056 C   0  0  0  0  0  0  0  0  0  0  0  0
    2.9595   -1.7759    4.1642 C   0  0  1  0  0  0  0  0  0  0  0  0
    2.0482   -2.4815    5.1908 C   0  0  0  0  0  0  0  0  0  0  0  0
    3.0267   -2.5131    2.7904 C   0  0  2  0  0  0  0  0  0  0  0  0
    3.4085   -4.0091    2.9173 C   0  0  0  0  0  0  0  0  0  0  0  0
    2.4566   -4.9597    2.7926 C   0  0  0  0  0  0  0  0  0  0  0  0
    2.7178   -6.4548    2.7478 C   0  0  0  0  0  0  0  0  0  0  0  0
    4.1209   -6.8029    2.1830 C   0  0  1  0  0  0  0  0  0  0  0  0
    4.1561   -6.4056    0.6838 C   0  0  0  0  0  0  0  0  0  0  0  0
    5.1264   -5.9499    3.0261 C   0  0  1  0  0  0  0  0  0  0  0  0
    6.5819   -6.4039    2.7871 C   0  0  0  0  0  0  0  0  0  0  0  0
    6.8286   -7.8876    3.1382 C   0  0  1  0  0  0  0  0  0  0  0  0
    7.6283   -7.9462    4.3013 O   0  0  0  0  0  0  0  0  0  0  0  0
    5.5656   -8.8042    3.2615 C   0  0  1  0  0  0  0  0  0  0  0  0
    4.9036   -8.8752    4.6608 C   0  0  0  0  0  0  0  0  0  0  0  0
    4.0472  -10.1460    4.5798 C   0  0  1  0  0  0  0  0  0  0  0  0
    3.5532  -10.5846    5.9724 C   0  0  0  0  0  0  0  0  0  0  0  0
    2.8449   -9.8424    3.6479 C   0  0  0  0  0  0  0  0  0  0  0  0
    3.2631   -9.3441    2.2445 C   0  0  0  0  0  0  0  0  0  0  0  0
    4.4710   -8.3574    2.2335 C   0  0  1  0  0  0  0  0  0  0  0  0
    5.0519  -11.1568    3.9744 C   0  0  1  0  0  0  0  0  0  0  0  0
    4.4549  -12.4384    3.3557 C   0  0  0  0  0  0  0  0  0  0  0  0
    5.9958  -10.3037    3.0884 C   0  0  1  0  0  0  0  0  0  0  0  0
    6.1574  -10.7541    1.7509 O   0  0  0  0  0  0  0  0  0  0  0  0
    4.9047   -4.3794    3.0692 C   0  0  2  0  0  0  0  0  0  0  0  0
    5.4089   -3.9386    4.4761 C   0  0  0  0  0  0  0  0  0  0  0  0
    5.7018   -3.6157    1.9672 C   0  0  0  0  0  0  0  0  0  0  0  0
    5.3842   -2.0961    1.9056 C   0  0  1  0  0  0  0  0  0  0  0  0
    6.2248   -1.5391    0.9165 O   0  0  0  0  0  0  0  0  0  0  0  0
    1.6398   -2.7554   -1.7318 H   0  0  0  0  0  0  0  0  0  0  0  0
    2.7743   -4.1087   -1.7008 H   0  0  0  0  0  0  0  0  0  0  0  0
    2.2860   -3.3953   -3.2327 H   0  0  0  0  0  0  0  0  0  0  0  0
    2.3339   -2.2332    0.2318 H   0  0  0  0  0  0  0  0  0  0  0  0
    3.5802   -3.4480    0.2992 H   0  0  0  0  0  0  0  0  0  0  0  0
    4.3717    0.2396    1.0670 H   0  0  0  0  0  0  0  0  0  0  0  0
    2.0472   -0.4895    0.4443 H   0  0  0  0  0  0  0  0  0  0  0  0
    4.5871    0.3446    3.4872 H   0  0  0  0  0  0  0  0  0  0  0  0
    3.3579    1.4607    2.9718 H   0  0  0  0  0  0  0  0  0  0  0  0
    2.7659    0.1863    4.9987 H   0  0  0  0  0  0  0  0  0  0  0  0
    0.7521   -0.5727    2.8415 H   0  0  0  0  0  0  0  0  0  0  0  0
    0.9497    1.0543    3.4902 H   0  0  0  0  0  0  0  0  0  0  0  0
    0.4564   -0.2667    4.5439 H   0  0  0  0  0  0  0  0  0  0  0  0
    3.9475   -1.7572    4.6025 H   0  0  0  0  0  0  0  0  0  0  0  0
    1.0283   -2.5913    4.8189 H   0  0  0  0  0  0  0  0  0  0  0  0
    2.0074   -1.9181    6.1240 H   0  0  0  0  0  0  0  0  0  0  0  0
    2.4157   -3.4785    5.4367 H   0  0  0  0  0  0  0  0  0  0  0  0
    1.9968   -2.5009    2.4327 H   0  0  0  0  0  0  0  0  0  0  0  0
    1.4228   -4.6681    2.6848 H   0  0  0  0  0  0  0  0  0  0  0  0
    2.5849   -6.8458    3.7576 H   0  0  0  0  0  0  0  0  0  0  0  0
    1.9338   -6.8817    2.1212 H   0  0  0  0  0  0  0  0  0  0  0  0
    5.1597   -6.4661    0.2620 H   0  0  0  0  0  0  0  0  0  0  0  0
    3.7875   -5.4041    0.5080 H   0  0  0  0  0  0  0  0  0  0  0  0
    3.5220   -7.0552    0.0854 H   0  0  0  0  0  0  0  0  0  0  0  0
    4.9238   -6.2382    4.0550 H   0  0  0  0  0  0  0  0  0  0  0  0
    6.8415   -6.2540    1.7389 H   0  0  0  0  0  0  0  0  0  0  0  0
    7.2885   -5.7826    3.3359 H   0  0  0  0  0  0  0  0  0  0  0  0
    7.4415   -8.2837    2.3271 H   0  0  0  0  0  0  0  0  0  0  0  0
    7.9493   -8.8341    4.3954 H   0  0  0  0  0  0  0  0  0  0  0  0
    5.6459   -8.9906    5.4507 H   0  0  0  0  0  0  0  0  0  0  0  0
    4.2932   -8.0136    4.9239 H   0  0  0  0  0  0  0  0  0  0  0  0
    2.9764  -11.5107    5.9182 H   0  0  0  0  0  0  0  0  0  0  0  0
    2.9125   -9.8246    6.4253 H   0  0  0  0  0  0  0  0  0  0  0  0
    4.3849  -10.7602    6.6565 H   0  0  0  0  0  0  0  0  0  0  0  0
    2.2097  -10.7271    3.5507 H   0  0  0  0  0  0  0  0  0  0  0  0
    2.2143   -9.0879    4.1182 H   0  0  0  0  0  0  0  0  0  0  0  0
    3.5357  -10.2172    1.6576 H   0  0  0  0  0  0  0  0  0  0  0  0
    2.4003   -8.9524    1.7109 H   0  0  0  0  0  0  0  0  0  0  0  0
    4.9499   -8.5536    1.2727 H   0  0  0  0  0  0  0  0  0  0  0  0
    5.6635  -11.5084    4.8075 H   0  0  0  0  0  0  0  0  0  0  0  0
    3.8378  -12.2447    2.4811 H   0  0  0  0  0  0  0  0  0  0  0  0
    3.8292  -12.9661    4.0776 H   0  0  0  0  0  0  0  0  0  0  0  0
    5.2443  -13.1240    3.0492 H   0  0  0  0  0  0  0  0  0  0  0  0
    6.9859  -10.4223    3.5278 H   0  0  0  0  0  0  0  0  0  0  0  0
    5.3245  -11.1003    1.4290 H   0  0  0  0  0  0  0  0  0  0  0  0
    6.2999   -4.4786    4.7866 H   0  0  0  0  0  0  0  0  0  0  0  0
    4.6624   -4.1315    5.2448 H   0  0  0  0  0  0  0  0  0  0  0  0
    5.6883   -2.8924    4.5366 H   0  0  0  0  0  0  0  0  0  0  0  0
    6.7747   -3.7447    2.1051 H   0  0  0  0  0  0  0  0  0  0  0  0
    5.5157   -4.0691    0.9929 H   0  0  0  0  0  0  0  0  0  0  0  0
    5.6935   -1.6227    2.8366 H   0  0  0  0  0  0  0  0  0  0  0  0
    5.9130   -1.8445    0.0700 H   0  0  0  0  0  0  0  0  0  0  0  0
  1  2  1  0
  1 40  1  0
  1 41  1  0
  1 42  1  0
  2  3  2  0
  2  4  1  0
  4  5  1  0
  6  5  1  6
  5 43  1  0
  5 44  1  0
  6 14  1  0
  6 38  1  0
  6  7  1  0
  7  8  1  0
  7  9  1  0
  7 45  1  6
  8 46  1  0
  9 10  1  0
  9 47  1  0
  9 48  1  0
 10 11  1  0
 10 12  1  0
 10 49  1  1
 11 50  1  0
 11 51  1  0
 11 52  1  0
 12 13  1  0
 12 14  1  0
 12 53  1  1
 13 54  1  0
 13 55  1  0
 13 56  1  0
 14 15  1  0
 14 57  1  6
 15 35  1  0
 15 16  2  0
 16 17  1  0
 16 58  1  0
 17 18  1  0
 17 59  1  0
 17 60  1  0
 18 30  1  0
 18 19  1  6
 18 20  1  0
 19 61  1  0
 19 62  1  0
 19 63  1  0
 20 21  1  0
 20 35  1  0
 20 64  1  1
 21 22  1  0
 21 65  1  0
 21 66  1  0
 22 23  1  0
 22 24  1  0
 22 67  1  6
 23 68  1  0
 24 30  1  0
 24 33  1  0
 24 25  1  1
 25 26  1  0
 25 69  1  0
 25 70  1  0
 26 27  1  1
 26 28  1  0
 26 31  1  0
 27 71  1  0
 27 72  1  0
 27 73  1  0
 28 29  1  0
 28 74  1  0
 28 75  1  0
 29 30  1  0
 29 76  1  0
 29 77  1  0
 30 78  1  6
 31 32  1  0
 31 33  1  0
 31 79  1  1
 32 80  1  0
 32 81  1  0
 32 82  1  0
 33 34  1  0
 33 83  1  1
 34 84  1  0
 35 36  1  1
 35 37  1  0
 36 85  1  0
 36 86  1  0
 36 87  1  0
 37 38  1  0
 37 88  1  0
 37 89  1  0
 38 39  1  0
 38 90  1  1
 39 91  1  0
M  END
>  <i_m_ct_stereo_status>  (80) 
1

>  <s_m_source_file>  (80) 
/var/tmp/pbs.5076255.sched01/tmppe38rura/0ules8z9c.sdf

>  <i_m_source_file_index>  (80) 
40

>  <i_lp_mmshare_version>  (80) 
48012

>  <i_f3d_flags>  (80) 
0

>  <s_epik_input>  (80) 
W0NIM11bQ0BASF0xW0NASF0oW0NIM10pW0NIMl1bQ0BIXShbT0hdKVtDQF0oW0NAQEhdKFtDSDJdMilbT0hdKShbQ0gyXU9DKD1PKVtDSDNdKVtDQEhdMUMoPVtDSF1bQ0gyXTMpW0NAQF0yKFtDSDNdKVtDQEhdKFtDSDJdW0NASF00W09IXSlbQ0BAXTMoW0NIM10pW0NAQEhdKFtDQEBdNDU2KVtDSDJdW0NIMl1bQ0BAXShbQ0gyXTUpKFtDSDNdKVtDQEBIXShbQ0gzXSlbQ0BIXTZbT0hd

>  <s_epik_cmdline>  (80) 
J2VwaWtfcHl0aG9uJywgJy1waHQnLCAnMi4wJywgJy1waCcsICc3LjAnLCAnLXRuJywgJzgnLCAnLW1hJywgJzIwMCcsICctaW1hZScsICc8aW5maWxlLm1hZT4nLCAnLW9tYWUnLCAnPG91dGZpbGUubWFlPic=

>  <r_lp_tautomer_probability>  (80) 
1

>  <r_epik_Ionization_Penalty>  (80) 
2.95704e-06

>  <r_epik_Ionization_Penalty_Charging>  (80) 
0

>  <r_epik_Ionization_Penalty_Neutral>  (80) 
2.95704e-06

>  <r_epik_State_Penalty>  (80) 
-0

>  <r_epik_Charging_Adjusted_Penalty>  (80) 
0

>  <i_epik_Tot_Q>  (80) 
0

>  <i_epik_Tot_abs_Q>  (80) 
0

>  <s_epik_Chemistry_Notes>  (80) 
This compound has an ester and may undergo hydrolysis at high or low pH.

>  <s_lp_Force_Field>  (80) 
OPLS3e

>  <r_lp_Energy>  (80) 
85.3544

>  <b_lp_Chiralities_Consistent>  (80) 
1

>  <s_lp_Variant>  (80) 
30:0-1

>  <s_i_glide_gridfile>  (80) 
pfpi4k_grid

>  <i_i_glide_lignum>  (80) 
40

>  <i_i_glide_rotatable_bonds>  (80) 
7

>  <r_i_docking_score>  (80) 
-3.9273

>  <r_i_glide_ligand_efficiency>  (80) 
-0.1007

>  <r_i_glide_ligand_efficiency_sa>  (80) 
-0.341495

>  <r_i_glide_ligand_efficiency_ln>  (80) 
-0.842125

>  <r_i_glide_gscore>  (80) 
-3.9273

>  <r_i_glide_lipo>  (80) 
-0.376951

>  <r_i_glide_hbond>  (80) 
-0.15241

>  <r_i_glide_metal>  (80) 
-0

>  <r_i_glide_rewards>  (80) 
-0.5

>  <r_i_glide_evdw>  (80) 
-33.6604

>  <r_i_glide_ecoul>  (80) 
-8.84606

>  <r_i_glide_erotb>  (80) 
0.139505

>  <r_i_glide_esite>  (80) 
-0.027512

>  <r_i_glide_emodel>  (80) 
-53.2108

>  <r_i_glide_energy>  (80) 
-42.5065

>  <r_i_glide_einternal>  (80) 
8.57912

>  <r_i_glide_intrahb_reward>  (80) 
-0.5

>  <i_i_glide_confnum>  (80) 
2

>  <i_i_glide_posenum>  (80) 
21

>  <r_i_glide_eff_state_penalty>  (80) 
0

>  <ligand_id>  (80) 
30

>  <original_smiles>  (80) 
CC(=O)OCC12C(O)CC(C)C(C)C1C1=CCC3(C)C(CC(O)C45CC(C)(CCC34)C(C)C5O)C1(C)CC2O

>  <smiles>  (80) 
[H]OC1([H])C([H])([H])C([H])(C([H])([H])[H])C([H])(C([H])([H])[H])C2([H])C3=C([H])C([H])([H])C4(C([H])([H])[H])C([H])(C([H])([H])C([H])(O[H])C56C([H])([H])C(C([H])([H])[H])(C([H])([H])C([H])([H])C54[H])C([H])(C([H])([H])[H])C6([H])O[H])C3(C([H])([H])[H])C([H])([H])C([H])(O[H])C12C([H])([H])OC(=O)C([H])([H])[H]

$$$$
30:0:1
     RDKit          3D

 91 96  0  0  1  0  0  0  0  0999 V2000
    3.7208   -2.6532   -0.9134 C   0  0  0  0  0  0  0  0  0  0  0  0
    4.4394   -1.3512   -0.6347 C   0  0  0  0  0  0  0  0  0  0  0  0
    5.4255   -1.0457   -1.3152 O   0  0  0  0  0  0  0  0  0  0  0  0
    3.9891   -0.6544    0.4253 O   0  0  0  0  0  0  0  0  0  0  0  0
    2.9582   -1.1341    1.2931 C   0  0  0  0  0  0  0  0  0  0  0  0
    3.1372   -0.7500    2.8001 C   0  0  1  0  0  0  0  0  0  0  0  0
    2.9166    0.8031    2.9516 C   0  0  1  0  0  0  0  0  0  0  0  0
    1.9002    1.3145    2.1060 O   0  0  0  0  0  0  0  0  0  0  0  0
    2.6282    1.2628    4.3880 C   0  0  0  0  0  0  0  0  0  0  0  0
    1.4401    0.5223    5.0275 C   0  0  1  0  0  0  0  0  0  0  0  0
    0.0710    0.9196    4.4391 C   0  0  0  0  0  0  0  0  0  0  0  0
    1.7211   -0.9980    5.0328 C   0  0  1  0  0  0  0  0  0  0  0  0
    0.5911   -1.7777    5.7401 C   0  0  0  0  0  0  0  0  0  0  0  0
    2.0576   -1.5612    3.6192 C   0  0  2  0  0  0  0  0  0  0  0  0
    2.3639   -3.0897    3.6325 C   0  0  0  0  0  0  0  0  0  0  0  0
    1.4338   -3.9638    3.2177 C   0  0  0  0  0  0  0  0  0  0  0  0
    1.6369   -5.4599    3.0081 C   0  0  0  0  0  0  0  0  0  0  0  0
    3.1093   -5.8212    2.7003 C   0  0  1  0  0  0  0  0  0  0  0  0
    3.4369   -5.2348    1.2986 C   0  0  0  0  0  0  0  0  0  0  0  0
    3.9557   -5.1290    3.8213 C   0  0  1  0  0  0  0  0  0  0  0  0
    5.4085   -5.6401    3.8233 C   0  0  0  0  0  0  0  0  0  0  0  0
    5.5276   -7.1652    4.0079 C   0  0  1  0  0  0  0  0  0  0  0  0
    6.0534   -7.4140    5.2948 O   0  0  0  0  0  0  0  0  0  0  0  0
    4.2373   -8.0184    3.7487 C   0  0  1  0  0  0  0  0  0  0  0  0
    3.2860   -8.2186    4.9519 C   0  0  0  0  0  0  0  0  0  0  0  0
    2.4223   -9.4086    4.5152 C   0  0  1  0  0  0  0  0  0  0  0  0
    1.6243   -9.9861    5.6935 C   0  0  0  0  0  0  0  0  0  0  0  0
    1.4619   -8.9226    3.4014 C   0  0  0  0  0  0  0  0  0  0  0  0
    2.1910   -8.2903    2.1988 C   0  0  0  0  0  0  0  0  0  0  0  0
    3.3984   -7.3865    2.5866 C   0  0  1  0  0  0  0  0  0  0  0  0
    3.5019  -10.3963    4.0125 C   0  0  1  0  0  0  0  0  0  0  0  0
    3.0118  -11.5455    3.1129 C   0  0  0  0  0  0  0  0  0  0  0  0
    4.6457   -9.5062    3.4651 C   0  0  1  0  0  0  0  0  0  0  0  0
    5.0133   -9.7721    2.1188 O   0  0  0  0  0  0  0  0  0  0  0  0
    3.7794   -3.5619    4.0333 C   0  0  2  0  0  0  0  0  0  0  0  0
    3.9953   -3.3317    5.5531 C   0  0  0  0  0  0  0  0  0  0  0  0
    4.8030   -2.7104    3.2431 C   0  0  0  0  0  0  0  0  0  0  0  0
    4.5529   -1.1821    3.3130 C   0  0  1  0  0  0  0  0  0  0  0  0
    5.6259   -0.5561    2.6410 O   0  0  0  0  0  0  0  0  0  0  0  0
    2.6339   -2.5137   -1.0010 H   0  0  0  0  0  0  0  0  0  0  0  0
    3.9596   -3.3271   -0.1031 H   0  0  0  0  0  0  0  0  0  0  0  0
    4.0519   -3.1259   -1.8687 H   0  0  0  0  0  0  0  0  0  0  0  0
    2.0038   -0.7601    0.9232 H   0  0  0  0  0  0  0  0  0  0  0  0
    2.8916   -2.2066    1.2544 H   0  0  0  0  0  0  0  0  0  0  0  0
    3.8093    1.3170    2.6104 H   0  0  0  0  0  0  0  0  0  0  0  0
    1.9238    2.2607    2.1391 H   0  0  0  0  0  0  0  0  0  0  0  0
    3.5150    1.0820    4.9902 H   0  0  0  0  0  0  0  0  0  0  0  0
    2.4707    2.3444    4.4184 H   0  0  0  0  0  0  0  0  0  0  0  0
    1.4178    0.8436    6.0686 H   0  0  0  0  0  0  0  0  0  0  0  0
   -0.0928    0.4927    3.4513 H   0  0  0  0  0  0  0  0  0  0  0  0
   -0.0024    2.0032    4.3473 H   0  0  0  0  0  0  0  0  0  0  0  0
   -0.7494    0.5910    5.0785 H   0  0  0  0  0  0  0  0  0  0  0  0
    2.5928   -1.1009    5.6638 H   0  0  0  0  0  0  0  0  0  0  0  0
   -0.3276   -1.7795    5.1530 H   0  0  0  0  0  0  0  0  0  0  0  0
    0.3696   -1.3384    6.7125 H   0  0  0  0  0  0  0  0  0  0  0  0
    0.8655   -2.8169    5.9188 H   0  0  0  0  0  0  0  0  0  0  0  0
    1.1329   -1.4508    3.0522 H   0  0  0  0  0  0  0  0  0  0  0  0
    0.4745   -3.5828    2.9226 H   0  0  0  0  0  0  0  0  0  0  0  0
    1.2681   -5.9780    3.8869 H   0  0  0  0  0  0  0  0  0  0  0  0
    1.0064   -5.7365    2.1699 H   0  0  0  0  0  0  0  0  0  0  0  0
    4.5094   -5.2640    1.1031 H   0  0  0  0  0  0  0  0  0  0  0  0
    3.1244   -4.2079    1.1959 H   0  0  0  0  0  0  0  0  0  0  0  0
    2.9557   -5.8150    0.5000 H   0  0  0  0  0  0  0  0  0  0  0  0
    3.5364   -5.5284    4.7318 H   0  0  0  0  0  0  0  0  0  0  0  0
    5.8828   -5.3746    2.8853 H   0  0  0  0  0  0  0  0  0  0  0  0
    6.0035   -5.1289    4.5890 H   0  0  0  0  0  0  0  0  0  0  0  0
    6.2877   -7.4963    3.2923 H   0  0  0  0  0  0  0  0  0  0  0  0
    6.2405   -8.3405    5.3637 H   0  0  0  0  0  0  0  0  0  0  0  0
    3.8364   -8.4792    5.8556 H   0  0  0  0  0  0  0  0  0  0  0  0
    2.6650   -7.3584    5.1908 H   0  0  0  0  0  0  0  0  0  0  0  0
    1.0478  -10.8614    5.3946 H   0  0  0  0  0  0  0  0  0  0  0  0
    0.9311   -9.2520    6.1038 H   0  0  0  0  0  0  0  0  0  0  0  0
    2.2859  -10.2975    6.5005 H   0  0  0  0  0  0  0  0  0  0  0  0
    0.8343   -9.7458    3.0573 H   0  0  0  0  0  0  0  0  0  0  0  0
    0.7689   -8.1957    3.8300 H   0  0  0  0  0  0  0  0  0  0  0  0
    2.5568   -9.0956    1.5541 H   0  0  0  0  0  0  0  0  0  0  0  0
    1.4828   -7.7695    1.5656 H   0  0  0  0  0  0  0  0  0  0  0  0
    4.0677   -7.4839    1.7373 H   0  0  0  0  0  0  0  0  0  0  0  0
    3.9076  -10.8864    4.8978 H   0  0  0  0  0  0  0  0  0  0  0  0
    2.6210  -11.1867    2.1655 H   0  0  0  0  0  0  0  0  0  0  0  0
    2.2272  -12.1173    3.6024 H   0  0  0  0  0  0  0  0  0  0  0  0
    3.8249  -12.2382    2.8887 H   0  0  0  0  0  0  0  0  0  0  0  0
    5.5240   -9.7564    4.0641 H   0  0  0  0  0  0  0  0  0  0  0  0
    4.6195  -10.5940    1.8407 H   0  0  0  0  0  0  0  0  0  0  0  0
    4.7957   -3.9474    5.9556 H   0  0  0  0  0  0  0  0  0  0  0  0
    3.0983   -3.5807    6.1167 H   0  0  0  0  0  0  0  0  0  0  0  0
    4.2753   -2.3170    5.8049 H   0  0  0  0  0  0  0  0  0  0  0  0
    5.7903   -2.9078    3.6485 H   0  0  0  0  0  0  0  0  0  0  0  0
    4.8447   -3.0337    2.2035 H   0  0  0  0  0  0  0  0  0  0  0  0
    4.6582   -0.8452    4.3417 H   0  0  0  0  0  0  0  0  0  0  0  0
    5.5467   -0.7435    1.7133 H   0  0  0  0  0  0  0  0  0  0  0  0
  1  2  1  0
  1 40  1  0
  1 41  1  0
  1 42  1  0
  2  3  2  0
  2  4  1  0
  4  5  1  0
  6  5  1  6
  5 43  1  0
  5 44  1  0
  6 14  1  0
  6 38  1  0
  6  7  1  0
  7  8  1  0
  7  9  1  0
  7 45  1  6
  8 46  1  0
  9 10  1  0
  9 47  1  0
  9 48  1  0
 10 11  1  0
 10 12  1  0
 10 49  1  1
 11 50  1  0
 11 51  1  0
 11 52  1  0
 12 13  1  0
 12 14  1  0
 12 53  1  1
 13 54  1  0
 13 55  1  0
 13 56  1  0
 14 15  1  0
 14 57  1  6
 15 35  1  0
 15 16  2  0
 16 17  1  0
 16 58  1  0
 17 18  1  0
 17 59  1  0
 17 60  1  0
 18 30  1  0
 18 19  1  6
 18 20  1  0
 19 61  1  0
 19 62  1  0
 19 63  1  0
 20 21  1  0
 20 35  1  0
 20 64  1  1
 21 22  1  0
 21 65  1  0
 21 66  1  0
 22 23  1  0
 22 24  1  0
 22 67  1  6
 23 68  1  0
 24 30  1  0
 24 33  1  0
 24 25  1  1
 25 26  1  0
 25 69  1  0
 25 70  1  0
 26 27  1  1
 26 28  1  0
 26 31  1  0
 27 71  1  0
 27 72  1  0
 27 73  1  0
 28 29  1  0
 28 74  1  0
 28 75  1  0
 29 30  1  0
 29 76  1  0
 29 77  1  0
 30 78  1  6
 31 32  1  0
 31 33  1  0
 31 79  1  1
 32 80  1  0
 32 81  1  0
 32 82  1  0
 33 34  1  0
 33 83  1  1
 34 84  1  0
 35 36  1  1
 35 37  1  0
 36 85  1  0
 36 86  1  0
 36 87  1  0
 37 38  1  0
 37 88  1  0
 37 89  1  0
 38 39  1  0
 38 90  1  1
 39 91  1  0
M  END
>  <i_m_ct_stereo_status>  (81) 
1

>  <s_m_source_file>  (81) 
/var/tmp/pbs.5076255.sched01/tmppe38rura/0ules8z9c.sdf

>  <i_m_source_file_index>  (81) 
40

>  <i_lp_mmshare_version>  (81) 
48012

>  <i_f3d_flags>  (81) 
0

>  <s_epik_input>  (81) 
W0NIM11bQ0BASF0xW0NASF0oW0NIM10pW0NIMl1bQ0BIXShbT0hdKVtDQF0oW0NAQEhdKFtDSDJdMilbT0hdKShbQ0gyXU9DKD1PKVtDSDNdKVtDQEhdMUMoPVtDSF1bQ0gyXTMpW0NAQF0yKFtDSDNdKVtDQEhdKFtDSDJdW0NASF00W09IXSlbQ0BAXTMoW0NIM10pW0NAQEhdKFtDQEBdNDU2KVtDSDJdW0NIMl1bQ0BAXShbQ0gyXTUpKFtDSDNdKVtDQEBIXShbQ0gzXSlbQ0BIXTZbT0hd

>  <s_epik_cmdline>  (81) 
J2VwaWtfcHl0aG9uJywgJy1waHQnLCAnMi4wJywgJy1waCcsICc3LjAnLCAnLXRuJywgJzgnLCAnLW1hJywgJzIwMCcsICctaW1hZScsICc8aW5maWxlLm1hZT4nLCAnLW9tYWUnLCAnPG91dGZpbGUubWFlPic=

>  <r_lp_tautomer_probability>  (81) 
1

>  <r_epik_Ionization_Penalty>  (81) 
2.95704e-06

>  <r_epik_Ionization_Penalty_Charging>  (81) 
0

>  <r_epik_Ionization_Penalty_Neutral>  (81) 
2.95704e-06

>  <r_epik_State_Penalty>  (81) 
-0

>  <r_epik_Charging_Adjusted_Penalty>  (81) 
0

>  <i_epik_Tot_Q>  (81) 
0

>  <i_epik_Tot_abs_Q>  (81) 
0

>  <s_epik_Chemistry_Notes>  (81) 
This compound has an ester and may undergo hydrolysis at high or low pH.

>  <s_lp_Force_Field>  (81) 
OPLS3e

>  <r_lp_Energy>  (81) 
85.3544

>  <b_lp_Chiralities_Consistent>  (81) 
1

>  <s_lp_Variant>  (81) 
30:0-1

>  <s_i_glide_gridfile>  (81) 
pfpi4k_grid

>  <i_i_glide_lignum>  (81) 
40

>  <i_i_glide_rotatable_bonds>  (81) 
7

>  <r_i_docking_score>  (81) 
-3.08782

>  <r_i_glide_ligand_efficiency>  (81) 
-0.0791748

>  <r_i_glide_ligand_efficiency_sa>  (81) 
-0.268499

>  <r_i_glide_ligand_efficiency_ln>  (81) 
-0.662116

>  <r_i_glide_gscore>  (81) 
-3.08782

>  <r_i_glide_lipo>  (81) 
-0.109616

>  <r_i_glide_hbond>  (81) 
-0.0903892

>  <r_i_glide_metal>  (81) 
-0

>  <r_i_glide_rewards>  (81) 
-0.5

>  <r_i_glide_evdw>  (81) 
-32.4678

>  <r_i_glide_ecoul>  (81) 
-5.74992

>  <r_i_glide_erotb>  (81) 
0.139505

>  <r_i_glide_esite>  (81) 
-0.0414385

>  <r_i_glide_emodel>  (81) 
-45.5493

>  <r_i_glide_energy>  (81) 
-38.2177

>  <r_i_glide_einternal>  (81) 
9.18021

>  <r_i_glide_intrahb_reward>  (81) 
-0.5

>  <i_i_glide_confnum>  (81) 
2

>  <i_i_glide_posenum>  (81) 
1

>  <r_i_glide_eff_state_penalty>  (81) 
0

>  <ligand_id>  (81) 
30

>  <original_smiles>  (81) 
CC(=O)OCC12C(O)CC(C)C(C)C1C1=CCC3(C)C(CC(O)C45CC(C)(CCC34)C(C)C5O)C1(C)CC2O

>  <smiles>  (81) 
[H]OC1([H])C([H])([H])C([H])(C([H])([H])[H])C([H])(C([H])([H])[H])C2([H])C3=C([H])C([H])([H])C4(C([H])([H])[H])C([H])(C([H])([H])C([H])(O[H])C56C([H])([H])C(C([H])([H])[H])(C([H])([H])C([H])([H])C54[H])C([H])(C([H])([H])[H])C6([H])O[H])C3(C([H])([H])[H])C([H])([H])C([H])(O[H])C12C([H])([H])OC(=O)C([H])([H])[H]

$$$$
30:0:2
     RDKit          3D

 91 96  0  0  1  0  0  0  0  0999 V2000
    4.7291   -1.0543   -1.7486 C   0  0  0  0  0  0  0  0  0  0  0  0
    4.0376   -1.7252   -0.5614 C   0  0  0  0  0  0  0  0  0  0  0  0
    3.9838   -2.9564   -0.4484 O   0  0  0  0  0  0  0  0  0  0  0  0
    3.5366   -0.8350    0.3070 O   0  0  0  0  0  0  0  0  0  0  0  0
    2.7984   -1.2737    1.4482 C   0  0  0  0  0  0  0  0  0  0  0  0
    3.5066   -1.0347    2.8244 C   0  0  1  0  0  0  0  0  0  0  0  0
    3.6856    0.5077    3.0213 C   0  0  1  0  0  0  0  0  0  0  0  0
    2.6161    1.2917    2.5330 O   0  0  0  0  0  0  0  0  0  0  0  0
    3.9889    0.9567    4.4666 C   0  0  0  0  0  0  0  0  0  0  0  0
    2.9357    0.4668    5.4772 C   0  0  1  0  0  0  0  0  0  0  0  0
    1.5808    1.1958    5.3581 C   0  0  0  0  0  0  0  0  0  0  0  0
    2.8486   -1.0741    5.3955 C   0  0  1  0  0  0  0  0  0  0  0  0
    1.8558   -1.6252    6.4445 C   0  0  0  0  0  0  0  0  0  0  0  0
    2.5729   -1.6134    3.9532 C   0  0  2  0  0  0  0  0  0  0  0  0
    2.5180   -3.1583    3.8855 C   0  0  0  0  0  0  0  0  0  0  0  0
    1.3278   -3.7734    3.7762 C   0  0  0  0  0  0  0  0  0  0  0  0
    1.1292   -5.2639    3.5444 C   0  0  0  0  0  0  0  0  0  0  0  0
    2.3071   -5.9072    2.7778 C   0  0  1  0  0  0  0  0  0  0  0  0
    2.3143   -5.3573    1.3254 C   0  0  0  0  0  0  0  0  0  0  0  0
    3.5846   -5.5012    3.5907 C   0  0  1  0  0  0  0  0  0  0  0  0
    4.8096   -6.3126    3.1187 C   0  0  0  0  0  0  0  0  0  0  0  0
    4.6277   -7.8296    3.2872 C   0  0  1  0  0  0  0  0  0  0  0  0
    5.4620   -8.2744    4.3320 O   0  0  0  0  0  0  0  0  0  0  0  0
    3.1658   -8.3573    3.4683 C   0  0  1  0  0  0  0  0  0  0  0  0
    2.6185   -8.4217    4.9092 C   0  0  0  0  0  0  0  0  0  0  0  0
    1.4129   -9.3591    4.7802 C   0  0  1  0  0  0  0  0  0  0  0  0
    0.9193   -9.8108    6.1583 C   0  0  0  0  0  0  0  0  0  0  0  0
    0.2855   -8.6138    4.0275 C   0  0  0  0  0  0  0  0  0  0  0  0
    0.7292   -8.0724    2.6546 C   0  0  0  0  0  0  0  0  0  0  0  0
    2.1755   -7.4854    2.6199 C   0  0  1  0  0  0  0  0  0  0  0  0
    2.0214  -10.5256    3.9642 C   0  0  1  0  0  0  0  0  0  0  0  0
    1.0206  -11.4651    3.2792 C   0  0  0  0  0  0  0  0  0  0  0  0
    3.1201   -9.8723    3.0851 C   0  0  1  0  0  0  0  0  0  0  0  0
    3.0081  -10.0674    1.6841 O   0  0  0  0  0  0  0  0  0  0  0  0
    3.8454   -3.9585    3.8431 C   0  0  2  0  0  0  0  0  0  0  0  0
    4.5697   -3.8808    5.2251 C   0  0  0  0  0  0  0  0  0  0  0  0
    4.7631   -3.3084    2.7751 C   0  0  0  0  0  0  0  0  0  0  0  0
    4.8836   -1.7694    2.9115 C   0  0  1  0  0  0  0  0  0  0  0  0
    5.8295   -1.3509    1.9503 O   0  0  0  0  0  0  0  0  0  0  0  0
    5.4080   -0.2895   -1.3915 H   0  0  0  0  0  0  0  0  0  0  0  0
    4.0101   -0.5795   -2.4289 H   0  0  0  0  0  0  0  0  0  0  0  0
    5.3238   -1.7669   -2.3210 H   0  0  0  0  0  0  0  0  0  0  0  0
    1.8519   -0.7382    1.4374 H   0  0  0  0  0  0  0  0  0  0  0  0
    2.5100   -2.3068    1.3390 H   0  0  0  0  0  0  0  0  0  0  0  0
    4.5248    0.7921    2.3892 H   0  0  0  0  0  0  0  0  0  0  0  0
    2.8918    2.1926    2.4741 H   0  0  0  0  0  0  0  0  0  0  0  0
    4.9558    0.5645    4.7606 H   0  0  0  0  0  0  0  0  0  0  0  0
    4.0895    2.0437    4.5237 H   0  0  0  0  0  0  0  0  0  0  0  0
    3.3222    0.7209    6.4673 H   0  0  0  0  0  0  0  0  0  0  0  0
    1.0134    0.8772    4.4814 H   0  0  0  0  0  0  0  0  0  0  0  0
    1.7346    2.2759    5.2849 H   0  0  0  0  0  0  0  0  0  0  0  0
    0.9558    1.0146    6.2360 H   0  0  0  0  0  0  0  0  0  0  0  0
    3.8256   -1.4026    5.7141 H   0  0  0  0  0  0  0  0  0  0  0  0
    0.8237   -1.3865    6.1845 H   0  0  0  0  0  0  0  0  0  0  0  0
    2.0645   -1.2063    7.4290 H   0  0  0  0  0  0  0  0  0  0  0  0
    1.9295   -2.7101    6.5359 H   0  0  0  0  0  0  0  0  0  0  0  0
    1.5738   -1.2559    3.7102 H   0  0  0  0  0  0  0  0  0  0  0  0
    0.4222   -3.1916    3.7910 H   0  0  0  0  0  0  0  0  0  0  0  0
    0.9712   -5.7336    4.5178 H   0  0  0  0  0  0  0  0  0  0  0  0
    0.2263   -5.3538    2.9487 H   0  0  0  0  0  0  0  0  0  0  0  0
    3.2161   -5.6336    0.7793 H   0  0  0  0  0  0  0  0  0  0  0  0
    2.2383   -4.2771    1.2904 H   0  0  0  0  0  0  0  0  0  0  0  0
    1.4739   -5.7398    0.7487 H   0  0  0  0  0  0  0  0  0  0  0  0
    3.3825   -5.8630    4.5961 H   0  0  0  0  0  0  0  0  0  0  0  0
    5.0011   -6.1046    2.0658 H   0  0  0  0  0  0  0  0  0  0  0  0
    5.7119   -6.0049    3.6369 H   0  0  0  0  0  0  0  0  0  0  0  0
    5.0065   -8.2737    2.3665 H   0  0  0  0  0  0  0  0  0  0  0  0
    5.4429   -9.2227    4.3398 H   0  0  0  0  0  0  0  0  0  0  0  0
    3.3461   -8.8634    5.5883 H   0  0  0  0  0  0  0  0  0  0  0  0
    2.3182   -7.4642    5.3313 H   0  0  0  0  0  0  0  0  0  0  0  0
    0.1182  -10.5511    6.0746 H   0  0  0  0  0  0  0  0  0  0  0  0
    0.5488   -8.9697    6.7511 H   0  0  0  0  0  0  0  0  0  0  0  0
    1.7426  -10.2574    6.7165 H   0  0  0  0  0  0  0  0  0  0  0  0
   -0.5891   -9.2619    3.9192 H   0  0  0  0  0  0  0  0  0  0  0  0
   -0.0487   -7.7791    4.6444 H   0  0  0  0  0  0  0  0  0  0  0  0
    0.6910   -8.8922    1.9434 H   0  0  0  0  0  0  0  0  0  0  0  0
   -0.0163   -7.3843    2.2667 H   0  0  0  0  0  0  0  0  0  0  0  0
    2.4984   -7.6737    1.5934 H   0  0  0  0  0  0  0  0  0  0  0  0
    2.5415  -11.1602    4.6864 H   0  0  0  0  0  0  0  0  0  0  0  0
    0.4246  -10.9929    2.5016 H   0  0  0  0  0  0  0  0  0  0  0  0
    0.3265  -11.8969    4.0045 H   0  0  0  0  0  0  0  0  0  0  0  0
    1.5609  -12.2876    2.8205 H   0  0  0  0  0  0  0  0  0  0  0  0
    4.0550  -10.3518    3.3806 H   0  0  0  0  0  0  0  0  0  0  0  0
    3.3650  -10.9164    1.4387 H   0  0  0  0  0  0  0  0  0  0  0  0
    5.2968   -4.6784    5.3368 H   0  0  0  0  0  0  0  0  0  0  0  0
    3.8678   -3.9673    6.0474 H   0  0  0  0  0  0  0  0  0  0  0  0
    5.1459   -2.9788    5.3649 H   0  0  0  0  0  0  0  0  0  0  0  0
    5.7586   -3.7485    2.8667 H   0  0  0  0  0  0  0  0  0  0  0  0
    4.3964   -3.5600    1.7709 H   0  0  0  0  0  0  0  0  0  0  0  0
    5.3362   -1.5128    3.8757 H   0  0  0  0  0  0  0  0  0  0  0  0
    6.0302   -0.4356    2.0808 H   0  0  0  0  0  0  0  0  0  0  0  0
  1  2  1  0
  1 40  1  0
  1 41  1  0
  1 42  1  0
  2  3  2  0
  2  4  1  0
  4  5  1  0
  6  5  1  6
  5 43  1  0
  5 44  1  0
  6 14  1  0
  6 38  1  0
  6  7  1  0
  7  8  1  0
  7  9  1  0
  7 45  1  6
  8 46  1  0
  9 10  1  0
  9 47  1  0
  9 48  1  0
 10 11  1  0
 10 12  1  0
 10 49  1  1
 11 50  1  0
 11 51  1  0
 11 52  1  0
 12 13  1  0
 12 14  1  0
 12 53  1  1
 13 54  1  0
 13 55  1  0
 13 56  1  0
 14 15  1  0
 14 57  1  6
 15 35  1  0
 15 16  2  0
 16 17  1  0
 16 58  1  0
 17 18  1  0
 17 59  1  0
 17 60  1  0
 18 30  1  0
 18 19  1  6
 18 20  1  0
 19 61  1  0
 19 62  1  0
 19 63  1  0
 20 21  1  0
 20 35  1  0
 20 64  1  1
 21 22  1  0
 21 65  1  0
 21 66  1  0
 22 23  1  0
 22 24  1  0
 22 67  1  6
 23 68  1  0
 24 30  1  0
 24 33  1  0
 24 25  1  1
 25 26  1  0
 25 69  1  0
 25 70  1  0
 26 27  1  1
 26 28  1  0
 26 31  1  0
 27 71  1  0
 27 72  1  0
 27 73  1  0
 28 29  1  0
 28 74  1  0
 28 75  1  0
 29 30  1  0
 29 76  1  0
 29 77  1  0
 30 78  1  6
 31 32  1  0
 31 33  1  0
 31 79  1  1
 32 80  1  0
 32 81  1  0
 32 82  1  0
 33 34  1  0
 33 83  1  1
 34 84  1  0
 35 36  1  1
 35 37  1  0
 36 85  1  0
 36 86  1  0
 36 87  1  0
 37 38  1  0
 37 88  1  0
 37 89  1  0
 38 39  1  0
 38 90  1  1
 39 91  1  0
M  END
>  <i_m_ct_stereo_status>  (82) 
1

>  <s_m_source_file>  (82) 
/var/tmp/pbs.5076255.sched01/tmppe38rura/0ules8z9c.sdf

>  <i_m_source_file_index>  (82) 
40

>  <i_lp_mmshare_version>  (82) 
48012

>  <i_f3d_flags>  (82) 
0

>  <s_epik_input>  (82) 
W0NIM11bQ0BASF0xW0NASF0oW0NIM10pW0NIMl1bQ0BIXShbT0hdKVtDQF0oW0NAQEhdKFtDSDJdMilbT0hdKShbQ0gyXU9DKD1PKVtDSDNdKVtDQEhdMUMoPVtDSF1bQ0gyXTMpW0NAQF0yKFtDSDNdKVtDQEhdKFtDSDJdW0NASF00W09IXSlbQ0BAXTMoW0NIM10pW0NAQEhdKFtDQEBdNDU2KVtDSDJdW0NIMl1bQ0BAXShbQ0gyXTUpKFtDSDNdKVtDQEBIXShbQ0gzXSlbQ0BIXTZbT0hd

>  <s_epik_cmdline>  (82) 
J2VwaWtfcHl0aG9uJywgJy1waHQnLCAnMi4wJywgJy1waCcsICc3LjAnLCAnLXRuJywgJzgnLCAnLW1hJywgJzIwMCcsICctaW1hZScsICc8aW5maWxlLm1hZT4nLCAnLW9tYWUnLCAnPG91dGZpbGUubWFlPic=

>  <r_lp_tautomer_probability>  (82) 
1

>  <r_epik_Ionization_Penalty>  (82) 
2.95704e-06

>  <r_epik_Ionization_Penalty_Charging>  (82) 
0

>  <r_epik_Ionization_Penalty_Neutral>  (82) 
2.95704e-06

>  <r_epik_State_Penalty>  (82) 
-0

>  <r_epik_Charging_Adjusted_Penalty>  (82) 
0

>  <i_epik_Tot_Q>  (82) 
0

>  <i_epik_Tot_abs_Q>  (82) 
0

>  <s_epik_Chemistry_Notes>  (82) 
This compound has an ester and may undergo hydrolysis at high or low pH.

>  <s_lp_Force_Field>  (82) 
OPLS3e

>  <r_lp_Energy>  (82) 
85.3544

>  <b_lp_Chiralities_Consistent>  (82) 
1

>  <s_lp_Variant>  (82) 
30:0-1

>  <s_i_glide_gridfile>  (82) 
pfpi4k_grid

>  <i_i_glide_lignum>  (82) 
40

>  <i_i_glide_rotatable_bonds>  (82) 
7

>  <r_i_docking_score>  (82) 
-2.53076

>  <r_i_glide_ligand_efficiency>  (82) 
-0.0648913

>  <r_i_glide_ligand_efficiency_sa>  (82) 
-0.22006

>  <r_i_glide_ligand_efficiency_ln>  (82) 
-0.542667

>  <r_i_glide_gscore>  (82) 
-2.53076

>  <r_i_glide_lipo>  (82) 
-0.296003

>  <r_i_glide_hbond>  (82) 
-0.16

>  <r_i_glide_metal>  (82) 
-0

>  <r_i_glide_rewards>  (82) 
0

>  <r_i_glide_evdw>  (82) 
-32.0105

>  <r_i_glide_ecoul>  (82) 
-3.80472

>  <r_i_glide_erotb>  (82) 
0.139505

>  <r_i_glide_esite>  (82) 
-0.0430303

>  <r_i_glide_emodel>  (82) 
-40.622

>  <r_i_glide_energy>  (82) 
-35.8152

>  <r_i_glide_einternal>  (82) 
2.64948

>  <r_i_glide_intrahb_reward>  (82) 
-0

>  <i_i_glide_confnum>  (82) 
4

>  <i_i_glide_posenum>  (82) 
8

>  <r_i_glide_eff_state_penalty>  (82) 
0

>  <ligand_id>  (82) 
30

>  <original_smiles>  (82) 
CC(=O)OCC12C(O)CC(C)C(C)C1C1=CCC3(C)C(CC(O)C45CC(C)(CCC34)C(C)C5O)C1(C)CC2O

>  <smiles>  (82) 
[H]OC1([H])C([H])([H])C([H])(C([H])([H])[H])C([H])(C([H])([H])[H])C2([H])C3=C([H])C([H])([H])C4(C([H])([H])[H])C([H])(C([H])([H])C([H])(O[H])C56C([H])([H])C(C([H])([H])[H])(C([H])([H])C([H])([H])C54[H])C([H])(C([H])([H])[H])C6([H])O[H])C3(C([H])([H])[H])C([H])([H])C([H])(O[H])C12C([H])([H])OC(=O)C([H])([H])[H]

$$$$
31:0:0
     RDKit          3D

 84 90  0  0  1  0  0  0  0  0999 V2000
   -3.2568    2.9314    8.0059 C   0  0  0  0  0  0  0  0  0  0  0  0
   -1.8573    2.6946    8.6248 C   0  0  2  0  0  0  0  0  0  0  0  0
   -1.8164    3.5502    9.9204 C   0  0  0  0  0  0  0  0  0  0  0  0
   -1.0841    4.7687    9.4786 C   0  0  0  0  0  0  0  0  0  0  0  0
   -0.4659    4.5523    8.3203 C   0  0  0  0  0  0  0  0  0  0  0  0
    0.4811    5.4671    7.7368 C   0  0  0  0  0  0  0  0  0  0  0  0
    0.1394    6.5533    7.2634 O   0  0  0  0  0  0  0  0  0  0  0  0
    1.9552    5.0341    7.7964 C   0  0  0  0  0  0  0  0  0  0  0  0
    2.6411    5.5557    6.5051 C   0  0  0  0  0  0  0  0  0  0  0  0
    2.5697    5.8322    8.9774 C   0  0  0  0  0  0  0  0  0  0  0  0
    2.1236    3.4550    8.0564 C   0  0  2  0  0  0  0  0  0  0  0  0
    3.5946    2.9226    7.6628 C   0  0  1  0  0  0  0  0  0  0  0  0
    4.0293    1.8992    8.5404 O   0  0  0  0  0  0  0  0  0  0  0  0
    4.0446    2.5542    6.1866 C   0  0  1  0  0  0  0  0  0  0  0  0
    5.4598    2.4822    6.1590 O   0  0  0  0  0  0  0  0  0  0  0  0
    3.3932    1.2048    5.6542 C   0  0  2  0  0  0  0  0  0  0  0  0
    3.2470    0.6549    4.0855 C   0  0  2  0  0  0  0  0  0  0  0  0
    4.5136   -0.1516    3.7629 C   0  0  0  0  0  0  0  0  0  0  0  0
    2.6444    1.2200    2.8116 C   0  0  0  0  0  0  0  0  0  0  0  0
    1.7273    0.1857    3.5104 C   0  0  1  0  0  0  0  0  0  0  0  0
    1.6883   -1.1042    2.6708 C   0  0  0  0  0  0  0  0  0  0  0  0
    0.1182    0.3757    4.1173 C   0  0  2  0  0  0  0  0  0  0  0  0
   -0.5887    1.7949    4.2241 C   0  0  2  0  0  0  0  0  0  0  0  0
    0.4891    2.7106    4.1626 C   0  0  0  0  0  0  0  0  0  0  0  0
    1.5304    2.3150    5.2324 C   0  0  0  0  0  0  0  0  0  0  0  0
    1.9591    0.9425    6.2012 C   0  0  1  0  0  0  0  0  0  0  0  0
    2.4064   -0.6431    6.2945 C   0  0  0  0  0  0  0  0  0  0  0  0
    2.1894   -1.5549    5.4687 O   0  0  0  0  0  0  0  0  0  0  0  0
    3.1451   -0.9455    7.2653 O   0  0  0  0  0  0  0  0  0  0  0  0
    0.9971    1.0015    7.4569 C   0  0  2  0  0  0  0  0  0  0  0  0
    1.2987    0.2368    8.8178 C   0  0  0  0  0  0  0  0  0  0  0  0
   -0.2767    0.1470    6.8877 C   0  0  0  0  0  0  0  0  0  0  0  0
   -0.5030   -0.4192    5.3709 C   0  0  1  0  0  0  0  0  0  0  0  0
   -2.0200   -0.6866    5.0987 C   0  0  0  0  0  0  0  0  0  0  0  0
   -0.2273   -1.8028    5.3587 O   0  0  0  0  0  0  0  0  0  0  0  0
    0.7846    2.4953    7.9837 C   0  0  2  0  0  0  0  0  0  0  0  0
   -0.6337    3.1804    7.7174 C   0  0  1  0  0  0  0  0  0  0  0  0
   -0.9556    3.3703    6.3137 O   0  0  0  0  0  0  0  0  0  0  0  0
   -1.4917    2.3722    5.4061 C   0  0  0  0  0  0  0  0  0  0  0  0
   -3.3018    3.8872    7.4798 H   0  0  0  0  0  0  0  0  0  0  0  0
   -4.0378    2.9434    8.7692 H   0  0  0  0  0  0  0  0  0  0  0  0
   -3.5561    2.1443    7.3203 H   0  0  0  0  0  0  0  0  0  0  0  0
   -1.7742    1.6544    8.9221 H   0  0  0  0  0  0  0  0  0  0  0  0
   -2.7917    3.7948   10.3480 H   0  0  0  0  0  0  0  0  0  0  0  0
   -1.2331    3.0548   10.6997 H   0  0  0  0  0  0  0  0  0  0  0  0
   -0.9933    5.6433   10.0997 H   0  0  0  0  0  0  0  0  0  0  0  0
    3.7249    5.4351    6.5364 H   0  0  0  0  0  0  0  0  0  0  0  0
    2.4779    6.6274    6.3631 H   0  0  0  0  0  0  0  0  0  0  0  0
    2.2585    5.0726    5.6069 H   0  0  0  0  0  0  0  0  0  0  0  0
    3.6428    5.6576    9.0743 H   0  0  0  0  0  0  0  0  0  0  0  0
    2.1053    5.5667    9.9297 H   0  0  0  0  0  0  0  0  0  0  0  0
    2.4324    6.9091    8.8529 H   0  0  0  0  0  0  0  0  0  0  0  0
    2.2538    3.4634    9.1402 H   0  0  0  0  0  0  0  0  0  0  0  0
    4.2536    3.7429    7.9484 H   0  0  0  0  0  0  0  0  0  0  0  0
    3.5543    1.1002    8.3302 H   0  0  0  0  0  0  0  0  0  0  0  0
    3.9107    3.4193    5.5513 H   0  0  0  0  0  0  0  0  0  0  0  0
    5.7152    1.7998    6.7664 H   0  0  0  0  0  0  0  0  0  0  0  0
    4.2272    0.5998    6.0310 H   0  0  0  0  0  0  0  0  0  0  0  0
    4.5031   -0.5138    2.7350 H   0  0  0  0  0  0  0  0  0  0  0  0
    4.5852   -1.0277    4.4062 H   0  0  0  0  0  0  0  0  0  0  0  0
    5.4134    0.4535    3.8838 H   0  0  0  0  0  0  0  0  0  0  0  0
    2.6409    2.2963    2.7883 H   0  0  0  0  0  0  0  0  0  0  0  0
    3.0678    0.8849    1.8658 H   0  0  0  0  0  0  0  0  0  0  0  0
    0.8426   -1.7439    2.9182 H   0  0  0  0  0  0  0  0  0  0  0  0
    2.5870   -1.7006    2.8407 H   0  0  0  0  0  0  0  0  0  0  0  0
    1.6436   -0.8670    1.6030 H   0  0  0  0  0  0  0  0  0  0  0  0
   -0.4373   -0.0541    3.2810 H   0  0  0  0  0  0  0  0  0  0  0  0
   -1.1826    1.9087    3.3154 H   0  0  0  0  0  0  0  0  0  0  0  0
    0.7802    2.7575    3.1211 H   0  0  0  0  0  0  0  0  0  0  0  0
    0.1764    3.7478    4.3004 H   0  0  0  0  0  0  0  0  0  0  0  0
    2.2867    2.8324    4.6726 H   0  0  0  0  0  0  0  0  0  0  0  0
    1.3729    3.1471    5.8671 H   0  0  0  0  0  0  0  0  0  0  0  0
    1.3420   -0.8490    8.7453 H   0  0  0  0  0  0  0  0  0  0  0  0
    0.4961    0.3785    9.5422 H   0  0  0  0  0  0  0  0  0  0  0  0
    2.2118    0.5486    9.3108 H   0  0  0  0  0  0  0  0  0  0  0  0
   -0.3302   -0.7744    7.4709 H   0  0  0  0  0  0  0  0  0  0  0  0
   -1.1842    0.5897    7.2526 H   0  0  0  0  0  0  0  0  0  0  0  0
   -2.5785    0.1461    4.6805 H   0  0  0  0  0  0  0  0  0  0  0  0
   -2.5435   -1.0229    5.9952 H   0  0  0  0  0  0  0  0  0  0  0  0
   -2.1679   -1.4525    4.3352 H   0  0  0  0  0  0  0  0  0  0  0  0
    0.7420   -1.8680    5.3734 H   0  0  0  0  0  0  0  0  0  0  0  0
    0.6257    2.3824    9.0523 H   0  0  0  0  0  0  0  0  0  0  0  0
   -2.2221    2.9785    4.8715 H   0  0  0  0  0  0  0  0  0  0  0  0
   -2.1491    1.6904    5.9036 H   0  0  0  0  0  0  0  0  0  0  0  0
  1  2  1  0
  1 40  1  0
  1 41  1  0
  1 42  1  0
  2 37  1  0
  2  3  1  0
  2 43  1  1
  3  4  1  0
  3 44  1  0
  3 45  1  0
  4  5  2  0
  4 46  1  0
  5 37  1  0
  5  6  1  0
  6  7  2  0
  6  8  1  0
  8  9  1  0
  8 10  1  0
  8 11  1  0
  9 47  1  0
  9 48  1  0
  9 49  1  0
 10 50  1  0
 10 51  1  0
 10 52  1  0
 11 36  1  0
 11 12  1  0
 11 53  1  1
 12 13  1  0
 12 14  1  0
 12 54  1  1
 13 55  1  0
 14 15  1  0
 14 16  1  0
 14 56  1  6
 15 57  1  0
 16 26  1  0
 16 17  1  0
 16 58  1  1
 17 20  1  0
 17 18  1  6
 17 19  1  0
 18 59  1  0
 18 60  1  0
 18 61  1  0
 19 20  1  0
 19 62  1  0
 19 63  1  0
 20 21  1  6
 20 22  1  0
 21 64  1  0
 21 65  1  0
 21 66  1  0
 22 33  1  0
 22 23  1  0
 22 67  1  6
 23 39  1  0
 23 24  1  0
 23 68  1  6
 24 25  1  0
 24 69  1  0
 24 70  1  0
 25 26  1  0
 25 71  1  0
 25 72  1  0
 26 27  1  6
 26 30  1  0
 27 28  2  0
 27 29  1  0
 30 31  1  1
 30 32  1  0
 30 36  1  0
 31 73  1  0
 31 74  1  0
 31 75  1  0
 32 33  1  0
 32 76  1  0
 32 77  1  0
 33 34  1  0
 33 35  1  1
 34 78  1  0
 34 79  1  0
 34 80  1  0
 35 81  1  0
 36 37  1  0
 36 82  1  1
 37 38  1  6
 38 39  1  0
 39 83  1  0
 39 84  1  0
M  CHG  1  29  -1
M  END
>  <i_m_ct_stereo_status>  (83) 
1

>  <s_m_source_file>  (83) 
/var/tmp/pbs.5076255.sched01/tmpxjfjwjbi/40jwkb7fqh.sdf

>  <i_m_source_file_index>  (83) 
1

>  <i_lp_mmshare_version>  (83) 
48012

>  <i_f3d_flags>  (83) 
0

>  <s_epik_input>  (83) 
W0NIM11bQ0BASF0xW0NIMl1bQ0hdPUMoW0NAXTEyMylDKD1PKUMoW0NIM10pKFtDSDNdKVtDQEhdNFtDSF0yW0NAXTUoW0NIM10pW0NAXTYoQyg9TylbT0hdKVtDSF0oW0NASF0oW09IXSlbQ0BASF00W09IXSlbQ0BAXTcoW0NIM10pW0NAQF0oW0NIMl03KShbQ0gzXSlbQ0BASF0oW0NAQF0oW0NIMl01KShbQ0gzXSlbT0hdKVtDQEBIXShbQ0gyXU8zKVtDSDJdW0NIMl02

>  <s_epik_cmdline>  (83) 
J2VwaWtfcHl0aG9uJywgJy1waHQnLCAnMi4wJywgJy1waCcsICc3LjAnLCAnLXRuJywgJzgnLCAnLW1hJywgJzIwMCcsICctaW1hZScsICc8aW5maWxlLm1hZT4nLCAnLW9tYWUnLCAnPG91dGZpbGUubWFlPic=

>  <r_epik_Ionization_Penalty>  (83) 
0.00438743

>  <r_epik_Ionization_Penalty_Charging>  (83) 
0.004386

>  <r_epik_Ionization_Penalty_Neutral>  (83) 
1.43043e-06

>  <r_epik_State_Penalty>  (83) 
0.00316013

>  <r_epik_Charging_Adjusted_Penalty>  (83) 
0.00754613

>  <i_epik_Tot_Q>  (83) 
-1

>  <i_epik_Tot_abs_Q>  (83) 
1

>  <s_lp_Force_Field>  (83) 
OPLS3e

>  <r_lp_Energy>  (83) 
456.406

>  <b_lp_Chiralities_Consistent>  (83) 
1

>  <s_lp_Variant>  (83) 
31:0-1

>  <s_i_glide_gridfile>  (83) 
pfpi4k_grid

>  <i_i_glide_lignum>  (83) 
1

>  <i_i_glide_rotatable_bonds>  (83) 
4

>  <r_i_docking_score>  (83) 
-2.56309

>  <r_i_glide_ligand_efficiency>  (83) 
-0.0657202

>  <r_i_glide_ligand_efficiency_sa>  (83) 
-0.222871

>  <r_i_glide_ligand_efficiency_ln>  (83) 
-0.549599

>  <r_i_glide_gscore>  (83) 
-2.56309

>  <r_i_glide_lipo>  (83) 
-0.138528

>  <r_i_glide_hbond>  (83) 
0

>  <r_i_glide_metal>  (83) 
-0

>  <r_i_glide_rewards>  (83) 
-1

>  <r_i_glide_evdw>  (83) 
-27.3544

>  <r_i_glide_ecoul>  (83) 
-0.378921

>  <r_i_glide_erotb>  (83) 
0

>  <r_i_glide_esite>  (83) 
0

>  <r_i_glide_emodel>  (83) 
-43.4196

>  <r_i_glide_energy>  (83) 
-27.7334

>  <r_i_glide_einternal>  (83) 
0.044694

>  <r_i_glide_intrahb_reward>  (83) 
-1

>  <i_i_glide_confnum>  (83) 
2

>  <i_i_glide_posenum>  (83) 
3

>  <r_i_glide_eff_state_penalty>  (83) 
0

>  <ligand_id>  (83) 
31

>  <original_smiles>  (83) 
CC1CC=C2C(=O)C(C)(C)C3C(O)C(O)C4C5(C)CC5(C)C5C6CCC4(C(=O)O)C(C)(CC5(C)O)C3C21OC6

>  <smiles>  (83) 
[H]OC1([H])C([H])(O[H])C2([H])C3(C(=O)[O-])C([H])([H])C([H])([H])C4([H])C([H])([H])OC56C(=C([H])C([H])([H])C5([H])C([H])([H])[H])C(=O)C(C([H])([H])[H])(C([H])([H])[H])C1([H])C6([H])C3(C([H])([H])[H])C([H])([H])C(O[H])(C([H])([H])[H])C4([H])C1(C([H])([H])[H])C([H])([H])C21C([H])([H])[H]

$$$$
31:0:1
     RDKit          3D

 84 90  0  0  1  0  0  0  0  0999 V2000
   -1.3857    3.9993    4.4743 C   0  0  0  0  0  0  0  0  0  0  0  0
   -1.6169    2.7398    5.3497 C   0  0  2  0  0  0  0  0  0  0  0  0
   -2.7125    3.1185    6.3817 C   0  0  0  0  0  0  0  0  0  0  0  0
   -1.9245    3.4498    7.5978 C   0  0  0  0  0  0  0  0  0  0  0  0
   -0.6822    2.9861    7.4840 C   0  0  0  0  0  0  0  0  0  0  0  0
    0.2611    2.9647    8.5716 C   0  0  0  0  0  0  0  0  0  0  0  0
    0.7614    3.9920    9.0329 O   0  0  0  0  0  0  0  0  0  0  0  0
    0.5529    1.5821    9.1763 C   0  0  0  0  0  0  0  0  0  0  0  0
    2.0434    1.5776    9.6065 C   0  0  0  0  0  0  0  0  0  0  0  0
   -0.2880    1.5274   10.4806 C   0  0  0  0  0  0  0  0  0  0  0  0
    0.1326    0.3765    8.1958 C   0  0  2  0  0  0  0  0  0  0  0  0
    0.8340   -1.0202    8.6006 C   0  0  1  0  0  0  0  0  0  0  0  0
   -0.0143   -2.1351    8.3687 O   0  0  0  0  0  0  0  0  0  0  0  0
    2.3082   -1.4223    8.1821 C   0  0  1  0  0  0  0  0  0  0  0  0
    2.7364   -2.5023    8.9954 O   0  0  0  0  0  0  0  0  0  0  0  0
    2.4436   -1.7731    6.6372 C   0  0  2  0  0  0  0  0  0  0  0  0
    3.8184   -1.8464    5.6981 C   0  0  2  0  0  0  0  0  0  0  0  0
    4.3663   -3.2797    5.7947 C   0  0  0  0  0  0  0  0  0  0  0  0
    4.9337   -0.8771    5.3747 C   0  0  0  0  0  0  0  0  0  0  0  0
    3.8750   -0.9753    4.2454 C   0  0  1  0  0  0  0  0  0  0  0  0
    4.4834   -1.7045    3.0348 C   0  0  0  0  0  0  0  0  0  0  0  0
    2.8754    0.2602    3.5619 C   0  0  2  0  0  0  0  0  0  0  0  0
    2.7781    1.7161    4.1984 C   0  0  2  0  0  0  0  0  0  0  0  0
    3.2651    1.5416    5.5182 C   0  0  0  0  0  0  0  0  0  0  0  0
    2.4828    0.3838    6.1788 C   0  0  0  0  0  0  0  0  0  0  0  0
    1.4860   -0.9576    5.7120 C   0  0  1  0  0  0  0  0  0  0  0  0
    1.2963   -2.3673    4.8678 C   0  0  0  0  0  0  0  0  0  0  0  0
    1.9614   -2.7961    3.9040 O   0  0  0  0  0  0  0  0  0  0  0  0
    0.5036   -3.1940    5.3941 O   0  0  0  0  0  0  0  0  0  0  0  0
    0.0360   -0.3497    5.5224 C   0  0  2  0  0  0  0  0  0  0  0  0
   -1.2858   -1.2310    5.5453 C   0  0  0  0  0  0  0  0  0  0  0  0
    0.1030    0.0884    3.9480 C   0  0  0  0  0  0  0  0  0  0  0  0
    1.4006    0.0302    2.9524 C   0  0  1  0  0  0  0  0  0  0  0  0
    1.2070    1.0253    1.7507 C   0  0  0  0  0  0  0  0  0  0  0  0
    1.2813   -1.0837    2.0834 O   0  0  0  0  0  0  0  0  0  0  0  0
   -0.3094    0.7343    6.6458 C   0  0  2  0  0  0  0  0  0  0  0  0
   -0.3501    2.2667    6.1994 C   0  0  1  0  0  0  0  0  0  0  0  0
    0.9222    2.7908    5.7366 O   0  0  0  0  0  0  0  0  0  0  0  0
    1.4876    2.6305    4.4083 C   0  0  0  0  0  0  0  0  0  0  0  0
   -0.7632    4.7402    4.9844 H   0  0  0  0  0  0  0  0  0  0  0  0
   -2.3259    4.4896    4.2239 H   0  0  0  0  0  0  0  0  0  0  0  0
   -0.9329    3.7765    3.5088 H   0  0  0  0  0  0  0  0  0  0  0  0
   -2.0252    1.9567    4.7197 H   0  0  0  0  0  0  0  0  0  0  0  0
   -3.3594    3.9407    6.0793 H   0  0  0  0  0  0  0  0  0  0  0  0
   -3.3557    2.2682    6.6147 H   0  0  0  0  0  0  0  0  0  0  0  0
   -2.3656    3.8921    8.4738 H   0  0  0  0  0  0  0  0  0  0  0  0
    2.2975    0.6962   10.1964 H   0  0  0  0  0  0  0  0  0  0  0  0
    2.2828    2.4288   10.2495 H   0  0  0  0  0  0  0  0  0  0  0  0
    2.7215    1.6437    8.7569 H   0  0  0  0  0  0  0  0  0  0  0  0
   -0.1115    0.6106   11.0466 H   0  0  0  0  0  0  0  0  0  0  0  0
   -1.3602    1.5898   10.2806 H   0  0  0  0  0  0  0  0  0  0  0  0
   -0.0549    2.3601   11.1496 H   0  0  0  0  0  0  0  0  0  0  0  0
   -0.8573    0.1695    8.6005 H   0  0  0  0  0  0  0  0  0  0  0  0
    0.8595   -0.9850    9.6908 H   0  0  0  0  0  0  0  0  0  0  0  0
    0.2154   -2.5104    7.5201 H   0  0  0  0  0  0  0  0  0  0  0  0
    2.9915   -0.6690    8.5484 H   0  0  0  0  0  0  0  0  0  0  0  0
    2.1687   -3.2421    8.8180 H   0  0  0  0  0  0  0  0  0  0  0  0
    2.2372   -2.8353    6.8229 H   0  0  0  0  0  0  0  0  0  0  0  0
    5.2853   -3.3941    5.2206 H   0  0  0  0  0  0  0  0  0  0  0  0
    3.6557   -3.9965    5.3846 H   0  0  0  0  0  0  0  0  0  0  0  0
    4.5865   -3.5566    6.8257 H   0  0  0  0  0  0  0  0  0  0  0  0
    5.1060   -0.1538    6.1530 H   0  0  0  0  0  0  0  0  0  0  0  0
    5.8940   -1.3116    5.1251 H   0  0  0  0  0  0  0  0  0  0  0  0
    3.9176   -1.5416    2.1209 H   0  0  0  0  0  0  0  0  0  0  0  0
    4.4871   -2.7822    3.2007 H   0  0  0  0  0  0  0  0  0  0  0  0
    5.5180   -1.3924    2.8714 H   0  0  0  0  0  0  0  0  0  0  0  0
    3.4582    0.4885    2.6666 H   0  0  0  0  0  0  0  0  0  0  0  0
    3.4917    2.3424    3.6573 H   0  0  0  0  0  0  0  0  0  0  0  0
    4.3418    1.4798    5.4289 H   0  0  0  0  0  0  0  0  0  0  0  0
    3.1952    2.4477    6.1265 H   0  0  0  0  0  0  0  0  0  0  0  0
    3.2931    0.2364    6.8664 H   0  0  0  0  0  0  0  0  0  0  0  0
    1.9544    0.9816    6.8739 H   0  0  0  0  0  0  0  0  0  0  0  0
   -1.3619   -1.9698    4.7505 H   0  0  0  0  0  0  0  0  0  0  0  0
   -2.1805   -0.6316    5.3725 H   0  0  0  0  0  0  0  0  0  0  0  0
   -1.4319   -1.7682    6.4747 H   0  0  0  0  0  0  0  0  0  0  0  0
   -0.5965   -0.5505    3.4101 H   0  0  0  0  0  0  0  0  0  0  0  0
   -0.4407    1.0055    3.8105 H   0  0  0  0  0  0  0  0  0  0  0  0
    1.5517    2.0494    1.8948 H   0  0  0  0  0  0  0  0  0  0  0  0
    0.1615    1.0877    1.4314 H   0  0  0  0  0  0  0  0  0  0  0  0
    1.7927    0.7346    0.8743 H   0  0  0  0  0  0  0  0  0  0  0  0
    1.2325   -0.7694    1.1845 H   0  0  0  0  0  0  0  0  0  0  0  0
   -1.3853    0.6595    6.7767 H   0  0  0  0  0  0  0  0  0  0  0  0
    1.8771    3.6356    4.2493 H   0  0  0  0  0  0  0  0  0  0  0  0
    0.7361    2.6038    3.6473 H   0  0  0  0  0  0  0  0  0  0  0  0
  1  2  1  0
  1 40  1  0
  1 41  1  0
  1 42  1  0
  2 37  1  0
  2  3  1  0
  2 43  1  6
  3  4  1  0
  3 44  1  0
  3 45  1  0
  4  5  2  0
  4 46  1  0
  5 37  1  0
  5  6  1  0
  6  7  2  0
  6  8  1  0
  8  9  1  0
  8 10  1  0
  8 11  1  0
  9 47  1  0
  9 48  1  0
  9 49  1  0
 10 50  1  0
 10 51  1  0
 10 52  1  0
 11 36  1  0
 11 12  1  0
 11 53  1  1
 12 13  1  0
 12 14  1  0
 12 54  1  1
 13 55  1  0
 14 15  1  0
 14 16  1  0
 14 56  1  6
 15 57  1  0
 16 26  1  0
 16 17  1  0
 16 58  1  1
 17 20  1  0
 17 18  1  6
 17 19  1  0
 18 59  1  0
 18 60  1  0
 18 61  1  0
 19 20  1  0
 19 62  1  0
 19 63  1  0
 20 21  1  6
 20 22  1  0
 21 64  1  0
 21 65  1  0
 21 66  1  0
 22 33  1  0
 22 23  1  0
 22 67  1  6
 23 39  1  0
 23 24  1  0
 23 68  1  6
 24 25  1  0
 24 69  1  0
 24 70  1  0
 25 26  1  0
 25 71  1  0
 25 72  1  0
 26 27  1  6
 26 30  1  0
 27 28  2  0
 27 29  1  0
 30 31  1  6
 30 32  1  0
 30 36  1  0
 31 73  1  0
 31 74  1  0
 31 75  1  0
 32 33  1  0
 32 76  1  0
 32 77  1  0
 33 34  1  0
 33 35  1  6
 34 78  1  0
 34 79  1  0
 34 80  1  0
 35 81  1  0
 36 37  1  0
 36 82  1  1
 37 38  1  6
 38 39  1  0
 39 83  1  0
 39 84  1  0
M  CHG  1  29  -1
M  END
>  <i_m_ct_stereo_status>  (84) 
1

>  <s_m_source_file>  (84) 
/var/tmp/pbs.5076255.sched01/tmpxjfjwjbi/40jwkb7fqh.sdf

>  <i_m_source_file_index>  (84) 
1

>  <i_lp_mmshare_version>  (84) 
48012

>  <i_f3d_flags>  (84) 
0

>  <s_epik_input>  (84) 
W0NIM11bQ0BASF0xW0NIMl1bQ0hdPUMoW0NAXTEyMylDKD1PKUMoW0NIM10pKFtDSDNdKVtDQEhdNFtDSF0yW0NAXTUoW0NIM10pW0NAXTYoQyg9TylbT0hdKVtDSF0oW0NASF0oW09IXSlbQ0BASF00W09IXSlbQ0BAXTcoW0NIM10pW0NAQF0oW0NIMl03KShbQ0gzXSlbQ0BASF0oW0NAQF0oW0NIMl01KShbQ0gzXSlbT0hdKVtDQEBIXShbQ0gyXU8zKVtDSDJdW0NIMl02

>  <s_epik_cmdline>  (84) 
J2VwaWtfcHl0aG9uJywgJy1waHQnLCAnMi4wJywgJy1waCcsICc3LjAnLCAnLXRuJywgJzgnLCAnLW1hJywgJzIwMCcsICctaW1hZScsICc8aW5maWxlLm1hZT4nLCAnLW9tYWUnLCAnPG91dGZpbGUubWFlPic=

>  <r_epik_Ionization_Penalty>  (84) 
0.00438743

>  <r_epik_Ionization_Penalty_Charging>  (84) 
0.004386

>  <r_epik_Ionization_Penalty_Neutral>  (84) 
1.43043e-06

>  <r_epik_State_Penalty>  (84) 
0.00316013

>  <r_epik_Charging_Adjusted_Penalty>  (84) 
0.00754613

>  <i_epik_Tot_Q>  (84) 
-1

>  <i_epik_Tot_abs_Q>  (84) 
1

>  <s_lp_Force_Field>  (84) 
OPLS3e

>  <r_lp_Energy>  (84) 
456.406

>  <b_lp_Chiralities_Consistent>  (84) 
1

>  <s_lp_Variant>  (84) 
31:0-1

>  <s_i_glide_gridfile>  (84) 
pfpi4k_grid

>  <i_i_glide_lignum>  (84) 
1

>  <i_i_glide_rotatable_bonds>  (84) 
4

>  <r_i_docking_score>  (84) 
-2.32018

>  <r_i_glide_ligand_efficiency>  (84) 
-0.0594919

>  <r_i_glide_ligand_efficiency_sa>  (84) 
-0.20175

>  <r_i_glide_ligand_efficiency_ln>  (84) 
-0.497513

>  <r_i_glide_gscore>  (84) 
-2.32018

>  <r_i_glide_lipo>  (84) 
-0.276821

>  <r_i_glide_hbond>  (84) 
0

>  <r_i_glide_metal>  (84) 
-0

>  <r_i_glide_rewards>  (84) 
-0.500166

>  <r_i_glide_evdw>  (84) 
-25.8438

>  <r_i_glide_ecoul>  (84) 
-1.67339

>  <r_i_glide_erotb>  (84) 
0

>  <r_i_glide_esite>  (84) 
0

>  <r_i_glide_emodel>  (84) 
-36.6541

>  <r_i_glide_energy>  (84) 
-27.5171

>  <r_i_glide_einternal>  (84) 
1.85865

>  <r_i_glide_intrahb_reward>  (84) 
-0.5

>  <i_i_glide_confnum>  (84) 
2

>  <i_i_glide_posenum>  (84) 
12

>  <r_i_glide_eff_state_penalty>  (84) 
0

>  <ligand_id>  (84) 
31

>  <original_smiles>  (84) 
CC1CC=C2C(=O)C(C)(C)C3C(O)C(O)C4C5(C)CC5(C)C5C6CCC4(C(=O)O)C(C)(CC5(C)O)C3C21OC6

>  <smiles>  (84) 
[H]OC1([H])C([H])(O[H])C2([H])C3(C(=O)[O-])C([H])([H])C([H])([H])C4([H])C([H])([H])OC56C(=C([H])C([H])([H])C5([H])C([H])([H])[H])C(=O)C(C([H])([H])[H])(C([H])([H])[H])C1([H])C6([H])C3(C([H])([H])[H])C([H])([H])C(O[H])(C([H])([H])[H])C4([H])C1(C([H])([H])[H])C([H])([H])C21C([H])([H])[H]

$$$$
31:0:2
     RDKit          3D

 84 90  0  0  1  0  0  0  0  0999 V2000
   -3.2693    2.9373    8.0864 C   0  0  0  0  0  0  0  0  0  0  0  0
   -1.8576    2.7358    8.6902 C   0  0  2  0  0  0  0  0  0  0  0  0
   -1.8249    3.5958    9.9843 C   0  0  0  0  0  0  0  0  0  0  0  0
   -1.1260    4.8272    9.5359 C   0  0  0  0  0  0  0  0  0  0  0  0
   -0.5076    4.6165    8.3679 C   0  0  0  0  0  0  0  0  0  0  0  0
    0.4011    5.5551    7.7681 C   0  0  0  0  0  0  0  0  0  0  0  0
    0.0507    6.6328    7.2938 O   0  0  0  0  0  0  0  0  0  0  0  0
    1.8850    5.1549    7.8117 C   0  0  0  0  0  0  0  0  0  0  0  0
    2.5514    5.6866    6.5139 C   0  0  0  0  0  0  0  0  0  0  0  0
    2.5044    5.9672    8.9810 C   0  0  0  0  0  0  0  0  0  0  0  0
    2.0898    3.5826    8.0705 C   0  0  2  0  0  0  0  0  0  0  0  0
    3.5669    3.0782    7.6690 C   0  0  1  0  0  0  0  0  0  0  0  0
    4.0131    2.0782    8.5630 O   0  0  0  0  0  0  0  0  0  0  0  0
    4.0053    2.7089    6.1875 C   0  0  1  0  0  0  0  0  0  0  0  0
    5.4156    2.6650    6.1626 O   0  0  0  0  0  0  0  0  0  0  0  0
    3.3794    1.3441    5.6613 C   0  0  2  0  0  0  0  0  0  0  0  0
    3.2344    0.8000    4.0935 C   0  0  2  0  0  0  0  0  0  0  0  0
    4.5115    0.0151    3.7590 C   0  0  0  0  0  0  0  0  0  0  0  0
    2.5986    1.3465    2.8193 C   0  0  0  0  0  0  0  0  0  0  0  0
    1.7194    0.2928    3.5401 C   0  0  1  0  0  0  0  0  0  0  0  0
    1.6894   -0.9933    2.7018 C   0  0  0  0  0  0  0  0  0  0  0  0
    0.1137    0.4424    4.1571 C   0  0  2  0  0  0  0  0  0  0  0  0
   -0.6226    1.8439    4.2754 C   0  0  2  0  0  0  0  0  0  0  0  0
    0.4307    2.7880    4.2031 C   0  0  0  0  0  0  0  0  0  0  0  0
    1.4949    2.4136    5.2578 C   0  0  0  0  0  0  0  0  0  0  0  0
    1.9560    1.0560    6.2204 C   0  0  1  0  0  0  0  0  0  0  0  0
    2.4464   -0.5218    6.3087 C   0  0  0  0  0  0  0  0  0  0  0  0
    2.3267   -1.4202    5.4514 O   0  0  0  0  0  0  0  0  0  0  0  0
    3.1637   -0.7986    7.2879 O   0  0  0  0  0  0  0  0  0  0  0  0
    1.0118    1.0947    7.4882 C   0  0  2  0  0  0  0  0  0  0  0  0
    1.3407    0.3467    8.8517 C   0  0  0  0  0  0  0  0  0  0  0  0
   -0.2476    0.2121    6.9403 C   0  0  0  0  0  0  0  0  0  0  0  0
   -0.4808   -0.3650    5.4212 C   0  0  1  0  0  0  0  0  0  0  0  0
   -2.0049   -0.6487    5.1676 C   0  0  0  0  0  0  0  0  0  0  0  0
   -0.2413   -1.7503    5.4469 O   0  0  0  0  0  0  0  0  0  0  0  0
    0.7759    2.5893    8.0140 C   0  0  2  0  0  0  0  0  0  0  0  0
   -0.6559    3.2467    7.7668 C   0  0  1  0  0  0  0  0  0  0  0  0
   -1.0005    3.4325    6.3640 O   0  0  0  0  0  0  0  0  0  0  0  0
   -1.5245    2.4136    5.4686 C   0  0  0  0  0  0  0  0  0  0  0  0
   -3.3481    3.8913    7.5603 H   0  0  0  0  0  0  0  0  0  0  0  0
   -4.0413    2.9429    8.8566 H   0  0  0  0  0  0  0  0  0  0  0  0
   -3.5605    2.1451    7.4049 H   0  0  0  0  0  0  0  0  0  0  0  0
   -1.7496    1.6939    8.9935 H   0  0  0  0  0  0  0  0  0  0  0  0
   -2.7983    3.8239   10.4236 H   0  0  0  0  0  0  0  0  0  0  0  0
   -1.2175    3.1181   10.7547 H   0  0  0  0  0  0  0  0  0  0  0  0
   -1.0372    5.7046   10.1460 H   0  0  0  0  0  0  0  0  0  0  0  0
    3.6396    5.5871    6.5290 H   0  0  0  0  0  0  0  0  0  0  0  0
    2.3646    6.7529    6.3663 H   0  0  0  0  0  0  0  0  0  0  0  0
    2.1699    5.1945    5.6213 H   0  0  0  0  0  0  0  0  0  0  0  0
    3.5837    5.8141    9.0688 H   0  0  0  0  0  0  0  0  0  0  0  0
    2.0581    5.6947    9.9382 H   0  0  0  0  0  0  0  0  0  0  0  0
    2.3433    7.0409    8.8599 H   0  0  0  0  0  0  0  0  0  0  0  0
    2.2357    3.5977    9.1533 H   0  0  0  0  0  0  0  0  0  0  0  0
    4.2201    3.9090    7.9403 H   0  0  0  0  0  0  0  0  0  0  0  0
    3.5933    1.2512    8.3252 H   0  0  0  0  0  0  0  0  0  0  0  0
    3.8510    3.5720    5.5466 H   0  0  0  0  0  0  0  0  0  0  0  0
    5.6706    2.3686    5.2960 H   0  0  0  0  0  0  0  0  0  0  0  0
    4.2292    0.7597    6.0348 H   0  0  0  0  0  0  0  0  0  0  0  0
    4.4901   -0.3523    2.7336 H   0  0  0  0  0  0  0  0  0  0  0  0
    4.6096   -0.8614    4.3997 H   0  0  0  0  0  0  0  0  0  0  0  0
    5.4066    0.6313    3.8631 H   0  0  0  0  0  0  0  0  0  0  0  0
    2.5710    2.4225    2.8059 H   0  0  0  0  0  0  0  0  0  0  0  0
    3.0241    1.0082    1.8737 H   0  0  0  0  0  0  0  0  0  0  0  0
    0.8636   -1.6599    2.9574 H   0  0  0  0  0  0  0  0  0  0  0  0
    2.6001   -1.5740    2.8576 H   0  0  0  0  0  0  0  0  0  0  0  0
    1.6328   -0.7688    1.6298 H   0  0  0  0  0  0  0  0  0  0  0  0
   -0.4507    0.0065    3.3277 H   0  0  0  0  0  0  0  0  0  0  0  0
   -1.2332    1.9537    3.3772 H   0  0  0  0  0  0  0  0  0  0  0  0
    0.7086    2.8397    3.1571 H   0  0  0  0  0  0  0  0  0  0  0  0
    0.0986    3.8225    4.3411 H   0  0  0  0  0  0  0  0  0  0  0  0
    2.2362    2.9423    4.6925 H   0  0  0  0  0  0  0  0  0  0  0  0
    1.3262    3.2420    5.8923 H   0  0  0  0  0  0  0  0  0  0  0  0
    1.4045   -0.7364    8.7845 H   0  0  0  0  0  0  0  0  0  0  0  0
    0.5475    0.4766    9.5886 H   0  0  0  0  0  0  0  0  0  0  0  0
    2.2526    0.6731    9.3349 H   0  0  0  0  0  0  0  0  0  0  0  0
   -0.2709   -0.7101    7.5254 H   0  0  0  0  0  0  0  0  0  0  0  0
   -1.1588    0.6361    7.3146 H   0  0  0  0  0  0  0  0  0  0  0  0
   -2.5803    0.1740    4.7629 H   0  0  0  0  0  0  0  0  0  0  0  0
   -2.5133   -0.9898    6.0703 H   0  0  0  0  0  0  0  0  0  0  0  0
   -2.1803   -1.4103    4.4042 H   0  0  0  0  0  0  0  0  0  0  0  0
   -0.0959   -2.0342    4.5419 H   0  0  0  0  0  0  0  0  0  0  0  0
    0.6358    2.4775    9.0867 H   0  0  0  0  0  0  0  0  0  0  0  0
   -2.2755    3.0041    4.9429 H   0  0  0  0  0  0  0  0  0  0  0  0
   -2.1613    1.7202    5.9764 H   0  0  0  0  0  0  0  0  0  0  0  0
  1  2  1  0
  1 40  1  0
  1 41  1  0
  1 42  1  0
  2 37  1  0
  2  3  1  0
  2 43  1  1
  3  4  1  0
  3 44  1  0
  3 45  1  0
  4  5  2  0
  4 46  1  0
  5 37  1  0
  5  6  1  0
  6  7  2  0
  6  8  1  0
  8  9  1  0
  8 10  1  0
  8 11  1  0
  9 47  1  0
  9 48  1  0
  9 49  1  0
 10 50  1  0
 10 51  1  0
 10 52  1  0
 11 36  1  0
 11 12  1  0
 11 53  1  1
 12 13  1  0
 12 14  1  0
 12 54  1  1
 13 55  1  0
 14 15  1  0
 14 16  1  0
 14 56  1  6
 15 57  1  0
 16 26  1  0
 16 17  1  0
 16 58  1  1
 17 20  1  0
 17 18  1  6
 17 19  1  0
 18 59  1  0
 18 60  1  0
 18 61  1  0
 19 20  1  0
 19 62  1  0
 19 63  1  0
 20 21  1  6
 20 22  1  0
 21 64  1  0
 21 65  1  0
 21 66  1  0
 22 33  1  0
 22 23  1  0
 22 67  1  6
 23 39  1  0
 23 24  1  0
 23 68  1  6
 24 25  1  0
 24 69  1  0
 24 70  1  0
 25 26  1  0
 25 71  1  0
 25 72  1  0
 26 27  1  6
 26 30  1  0
 27 28  2  0
 27 29  1  0
 30 31  1  1
 30 32  1  0
 30 36  1  0
 31 73  1  0
 31 74  1  0
 31 75  1  0
 32 33  1  0
 32 76  1  0
 32 77  1  0
 33 34  1  0
 33 35  1  1
 34 78  1  0
 34 79  1  0
 34 80  1  0
 35 81  1  0
 36 37  1  0
 36 82  1  1
 37 38  1  6
 38 39  1  0
 39 83  1  0
 39 84  1  0
M  CHG  1  29  -1
M  END
>  <i_m_ct_stereo_status>  (85) 
1

>  <s_m_source_file>  (85) 
/var/tmp/pbs.5076255.sched01/tmpxjfjwjbi/40jwkb7fqh.sdf

>  <i_m_source_file_index>  (85) 
1

>  <i_lp_mmshare_version>  (85) 
48012

>  <i_f3d_flags>  (85) 
0

>  <s_epik_input>  (85) 
W0NIM11bQ0BASF0xW0NIMl1bQ0hdPUMoW0NAXTEyMylDKD1PKUMoW0NIM10pKFtDSDNdKVtDQEhdNFtDSF0yW0NAXTUoW0NIM10pW0NAXTYoQyg9TylbT0hdKVtDSF0oW0NASF0oW09IXSlbQ0BASF00W09IXSlbQ0BAXTcoW0NIM10pW0NAQF0oW0NIMl03KShbQ0gzXSlbQ0BASF0oW0NAQF0oW0NIMl01KShbQ0gzXSlbT0hdKVtDQEBIXShbQ0gyXU8zKVtDSDJdW0NIMl02

>  <s_epik_cmdline>  (85) 
J2VwaWtfcHl0aG9uJywgJy1waHQnLCAnMi4wJywgJy1waCcsICc3LjAnLCAnLXRuJywgJzgnLCAnLW1hJywgJzIwMCcsICctaW1hZScsICc8aW5maWxlLm1hZT4nLCAnLW9tYWUnLCAnPG91dGZpbGUubWFlPic=

>  <r_epik_Ionization_Penalty>  (85) 
0.00438743

>  <r_epik_Ionization_Penalty_Charging>  (85) 
0.004386

>  <r_epik_Ionization_Penalty_Neutral>  (85) 
1.43043e-06

>  <r_epik_State_Penalty>  (85) 
0.00316013

>  <r_epik_Charging_Adjusted_Penalty>  (85) 
0.00754613

>  <i_epik_Tot_Q>  (85) 
-1

>  <i_epik_Tot_abs_Q>  (85) 
1

>  <s_lp_Force_Field>  (85) 
OPLS3e

>  <r_lp_Energy>  (85) 
456.406

>  <b_lp_Chiralities_Consistent>  (85) 
1

>  <s_lp_Variant>  (85) 
31:0-1

>  <s_i_glide_gridfile>  (85) 
pfpi4k_grid

>  <i_i_glide_lignum>  (85) 
1

>  <i_i_glide_rotatable_bonds>  (85) 
4

>  <r_i_docking_score>  (85) 
-2.22338

>  <r_i_glide_ligand_efficiency>  (85) 
-0.0570099

>  <r_i_glide_ligand_efficiency_sa>  (85) 
-0.193332

>  <r_i_glide_ligand_efficiency_ln>  (85) 
-0.476757

>  <r_i_glide_gscore>  (85) 
-2.22338

>  <r_i_glide_lipo>  (85) 
-0.124228

>  <r_i_glide_hbond>  (85) 
0

>  <r_i_glide_metal>  (85) 
-0

>  <r_i_glide_rewards>  (85) 
-0.5

>  <r_i_glide_evdw>  (85) 
-27.6699

>  <r_i_glide_ecoul>  (85) 
-1.43775

>  <r_i_glide_erotb>  (85) 
0

>  <r_i_glide_esite>  (85) 
0

>  <r_i_glide_emodel>  (85) 
-38.515

>  <r_i_glide_energy>  (85) 
-29.1076

>  <r_i_glide_einternal>  (85) 
0.702894

>  <r_i_glide_intrahb_reward>  (85) 
-0.5

>  <i_i_glide_confnum>  (85) 
2

>  <i_i_glide_posenum>  (85) 
8

>  <r_i_glide_eff_state_penalty>  (85) 
0

>  <ligand_id>  (85) 
31

>  <original_smiles>  (85) 
CC1CC=C2C(=O)C(C)(C)C3C(O)C(O)C4C5(C)CC5(C)C5C6CCC4(C(=O)O)C(C)(CC5(C)O)C3C21OC6

>  <smiles>  (85) 
[H]OC1([H])C([H])(O[H])C2([H])C3(C(=O)[O-])C([H])([H])C([H])([H])C4([H])C([H])([H])OC56C(=C([H])C([H])([H])C5([H])C([H])([H])[H])C(=O)C(C([H])([H])[H])(C([H])([H])[H])C1([H])C6([H])C3(C([H])([H])[H])C([H])([H])C(O[H])(C([H])([H])[H])C4([H])C1(C([H])([H])[H])C([H])([H])C21C([H])([H])[H]

$$$$
32:0:0
     RDKit          3D

 24 24  0  0  1  0  0  0  0  0999 V2000
    2.9582    0.2650   -5.5470 O   0  0  0  0  0  0  0  0  0  0  0  0
    3.2268    0.2394   -4.1707 C   0  0  0  0  0  0  0  0  0  0  0  0
    4.2165   -0.9158   -3.8570 C   0  0  2  0  0  0  0  0  0  0  0  0
    3.7071   -2.2000   -4.2824 O   0  0  0  0  0  0  0  0  0  0  0  0
    2.5724   -2.6591   -3.6180 C   0  0  1  0  0  0  0  0  0  0  0  0
    2.2205   -3.8694   -4.2058 O   0  0  0  0  0  0  0  0  0  0  0  0
    2.8506   -2.8006   -2.1008 C   0  0  1  0  0  0  0  0  0  0  0  0
    3.8054   -3.8399   -1.9177 O   0  0  0  0  0  0  0  0  0  0  0  0
    3.4403   -1.4990   -1.5277 C   0  0  1  0  0  0  0  0  0  0  0  0
    3.6954   -1.5575   -0.1161 O   0  0  0  0  0  0  0  0  0  0  0  0
    4.6305   -1.0006   -2.3604 C   0  0  1  0  0  0  0  0  0  0  0  0
    5.7637   -1.8595   -2.2027 O   0  0  0  0  0  0  0  0  0  0  0  0
    2.0795    0.6582   -5.6819 H   0  0  0  0  0  0  0  0  0  0  0  0
    3.7226    1.1850   -3.9226 H   0  0  0  0  0  0  0  0  0  0  0  0
    2.2872    0.2037   -3.6259 H   0  0  0  0  0  0  0  0  0  0  0  0
    5.0260   -0.7392   -4.5479 H   0  0  0  0  0  0  0  0  0  0  0  0
    1.7902   -1.9320   -3.8794 H   0  0  0  0  0  0  0  0  0  0  0  0
    1.2998   -4.1008   -3.9560 H   0  0  0  0  0  0  0  0  0  0  0  0
    1.9198   -3.0730   -1.6313 H   0  0  0  0  0  0  0  0  0  0  0  0
    3.4454   -4.6222   -2.3413 H   0  0  0  0  0  0  0  0  0  0  0  0
    2.6661   -0.7486   -1.6527 H   0  0  0  0  0  0  0  0  0  0  0  0
    2.8619   -1.7673    0.3254 H   0  0  0  0  0  0  0  0  0  0  0  0
    4.9228   -0.0118   -2.0111 H   0  0  0  0  0  0  0  0  0  0  0  0
    5.4350   -2.7813   -2.2675 H   0  0  0  0  0  0  0  0  0  0  0  0
  1  2  1  0
  1 13  1  0
  2  3  1  0
  2 14  1  0
  2 15  1  0
  3 11  1  0
  3  4  1  0
  3 16  1  6
  4  5  1  0
  5  6  1  0
  5  7  1  0
  5 17  1  1
  6 18  1  0
  7  8  1  0
  7  9  1  0
  7 19  1  1
  8 20  1  0
  9 10  1  0
  9 11  1  0
  9 21  1  1
 10 22  1  0
 11 12  1  0
 11 23  1  1
 12 24  1  0
M  END
>  <i_m_ct_stereo_status>  (86) 
1

>  <s_m_source_file>  (86) 
/var/tmp/pbs.5076255.sched01/tmpxjfjwjbi/40jwkb7fqh.sdf

>  <i_m_source_file_index>  (86) 
2

>  <i_lp_mmshare_version>  (86) 
48012

>  <i_f3d_flags>  (86) 
0

>  <s_epik_input>  (86) 
W09IXVtDSDJdW0NAQEhdMU9bQ0BASF0oW09IXSlbQ0BASF0oW09IXSlbQ0BASF0oW09IXSlbQ0BIXTFbT0hd

>  <s_epik_cmdline>  (86) 
J2VwaWtfcHl0aG9uJywgJy1waHQnLCAnMi4wJywgJy1waCcsICc3LjAnLCAnLXRuJywgJzgnLCAnLW1hJywgJzIwMCcsICctaW1hZScsICc8aW5maWxlLm1hZT4nLCAnLW9tYWUnLCAnPG91dGZpbGUubWFlPic=

>  <r_lp_tautomer_probability>  (86) 
1

>  <r_epik_Ionization_Penalty>  (86) 
2.91483e-06

>  <r_epik_Ionization_Penalty_Charging>  (86) 
0

>  <r_epik_Ionization_Penalty_Neutral>  (86) 
2.91483e-06

>  <r_epik_State_Penalty>  (86) 
-0

>  <r_epik_Charging_Adjusted_Penalty>  (86) 
0

>  <i_epik_Tot_Q>  (86) 
0

>  <i_epik_Tot_abs_Q>  (86) 
0

>  <s_epik_Chemistry_Notes>  (86) 
This compound contains an acetal/aminal-like group ( X-CH(R)-Y where X, Y are N, S, or O) that may be acid/base labile, releasing an aldehyde.

>  <s_lp_Force_Field>  (86) 
OPLS3e

>  <r_lp_Energy>  (86) 
14.5669

>  <b_lp_Chiralities_Consistent>  (86) 
1

>  <s_lp_Variant>  (86) 
32:0-1

>  <s_i_glide_gridfile>  (86) 
pfpi4k_grid

>  <i_i_glide_lignum>  (86) 
2

>  <i_i_glide_rotatable_bonds>  (86) 
6

>  <r_i_docking_score>  (86) 
-6.22987

>  <r_i_glide_ligand_efficiency>  (86) 
-0.519156

>  <r_i_glide_ligand_efficiency_sa>  (86) 
-1.18857

>  <r_i_glide_ligand_efficiency_ln>  (86) 
-1.78767

>  <r_i_glide_gscore>  (86) 
-6.22987

>  <r_i_glide_lipo>  (86) 
-0.175772

>  <r_i_glide_hbond>  (86) 
-0.288

>  <r_i_glide_metal>  (86) 
-0

>  <r_i_glide_rewards>  (86) 
-3.05084

>  <r_i_glide_evdw>  (86) 
-6.12146

>  <r_i_glide_ecoul>  (86) 
-18.3265

>  <r_i_glide_erotb>  (86) 
0.339794

>  <r_i_glide_esite>  (86) 
0

>  <r_i_glide_emodel>  (86) 
-37.4237

>  <r_i_glide_energy>  (86) 
-24.448

>  <r_i_glide_einternal>  (86) 
6.39156

>  <r_i_glide_intrahb_reward>  (86) 
-0.5

>  <i_i_glide_confnum>  (86) 
6

>  <i_i_glide_posenum>  (86) 
36

>  <r_i_glide_eff_state_penalty>  (86) 
0

>  <ligand_id>  (86) 
32

>  <original_smiles>  (86) 
OCC1OC(O)C(O)C(O)C1O

>  <smiles>  (86) 
[H]OC([H])([H])C1([H])OC([H])(O[H])C([H])(O[H])C([H])(O[H])C1([H])O[H]

$$$$
32:0:1
     RDKit          3D

 24 24  0  0  1  0  0  0  0  0999 V2000
    2.8182    0.5271   -4.6058 O   0  0  0  0  0  0  0  0  0  0  0  0
    3.7752    0.1052   -3.6348 C   0  0  0  0  0  0  0  0  0  0  0  0
    3.2364   -0.9892   -2.6457 C   0  0  2  0  0  0  0  0  0  0  0  0
    4.0646   -1.0506   -1.4581 O   0  0  0  0  0  0  0  0  0  0  0  0
    5.3954   -1.4957   -1.6204 C   0  0  1  0  0  0  0  0  0  0  0  0
    6.0555   -1.4070   -0.3604 O   0  0  0  0  0  0  0  0  0  0  0  0
    5.4340   -2.9325   -2.2117 C   0  0  1  0  0  0  0  0  0  0  0  0
    4.9787   -3.8445   -1.2298 O   0  0  0  0  0  0  0  0  0  0  0  0
    4.5339   -2.9808   -3.4646 C   0  0  1  0  0  0  0  0  0  0  0  0
    4.4904   -4.2704   -4.0470 O   0  0  0  0  0  0  0  0  0  0  0  0
    3.1205   -2.4199   -3.2182 C   0  0  1  0  0  0  0  0  0  0  0  0
    2.3650   -3.2613   -2.3347 O   0  0  0  0  0  0  0  0  0  0  0  0
    2.1987    1.1209   -4.1321 H   0  0  0  0  0  0  0  0  0  0  0  0
    4.6391   -0.2390   -4.1926 H   0  0  0  0  0  0  0  0  0  0  0  0
    4.1058    0.9915   -3.0838 H   0  0  0  0  0  0  0  0  0  0  0  0
    2.2611   -0.6723   -2.3235 H   0  0  0  0  0  0  0  0  0  0  0  0
    5.8301   -0.7653   -2.3081 H   0  0  0  0  0  0  0  0  0  0  0  0
    5.8985   -0.5218   -0.0014 H   0  0  0  0  0  0  0  0  0  0  0  0
    6.4692   -3.1737   -2.4625 H   0  0  0  0  0  0  0  0  0  0  0  0
    4.0508   -3.6159   -1.0622 H   0  0  0  0  0  0  0  0  0  0  0  0
    5.0126   -2.3460   -4.1977 H   0  0  0  0  0  0  0  0  0  0  0  0
    4.2184   -4.9165   -3.3766 H   0  0  0  0  0  0  0  0  0  0  0  0
    2.5877   -2.3669   -4.1719 H   0  0  0  0  0  0  0  0  0  0  0  0
    2.2505   -4.1387   -2.7376 H   0  0  0  0  0  0  0  0  0  0  0  0
  1  2  1  0
  1 13  1  0
  2  3  1  0
  2 14  1  0
  2 15  1  0
  3 11  1  0
  3  4  1  0
  3 16  1  1
  4  5  1  0
  5  6  1  0
  5  7  1  0
  5 17  1  6
  6 18  1  0
  7  8  1  0
  7  9  1  0
  7 19  1  6
  8 20  1  0
  9 10  1  0
  9 11  1  0
  9 21  1  6
 10 22  1  0
 11 12  1  0
 11 23  1  6
 12 24  1  0
M  END
>  <i_m_ct_stereo_status>  (87) 
1

>  <s_m_source_file>  (87) 
/var/tmp/pbs.5076255.sched01/tmpxjfjwjbi/40jwkb7fqh.sdf

>  <i_m_source_file_index>  (87) 
2

>  <i_lp_mmshare_version>  (87) 
48012

>  <i_f3d_flags>  (87) 
0

>  <s_epik_input>  (87) 
W09IXVtDSDJdW0NAQEhdMU9bQ0BASF0oW09IXSlbQ0BASF0oW09IXSlbQ0BASF0oW09IXSlbQ0BIXTFbT0hd

>  <s_epik_cmdline>  (87) 
J2VwaWtfcHl0aG9uJywgJy1waHQnLCAnMi4wJywgJy1waCcsICc3LjAnLCAnLXRuJywgJzgnLCAnLW1hJywgJzIwMCcsICctaW1hZScsICc8aW5maWxlLm1hZT4nLCAnLW9tYWUnLCAnPG91dGZpbGUubWFlPic=

>  <r_lp_tautomer_probability>  (87) 
1

>  <r_epik_Ionization_Penalty>  (87) 
2.91483e-06

>  <r_epik_Ionization_Penalty_Charging>  (87) 
0

>  <r_epik_Ionization_Penalty_Neutral>  (87) 
2.91483e-06

>  <r_epik_State_Penalty>  (87) 
-0

>  <r_epik_Charging_Adjusted_Penalty>  (87) 
0

>  <i_epik_Tot_Q>  (87) 
0

>  <i_epik_Tot_abs_Q>  (87) 
0

>  <s_epik_Chemistry_Notes>  (87) 
This compound contains an acetal/aminal-like group ( X-CH(R)-Y where X, Y are N, S, or O) that may be acid/base labile, releasing an aldehyde.

>  <s_lp_Force_Field>  (87) 
OPLS3e

>  <r_lp_Energy>  (87) 
14.5669

>  <b_lp_Chiralities_Consistent>  (87) 
1

>  <s_lp_Variant>  (87) 
32:0-1

>  <s_i_glide_gridfile>  (87) 
pfpi4k_grid

>  <i_i_glide_lignum>  (87) 
2

>  <i_i_glide_rotatable_bonds>  (87) 
6

>  <r_i_docking_score>  (87) 
-5.1721

>  <r_i_glide_ligand_efficiency>  (87) 
-0.431009

>  <r_i_glide_ligand_efficiency_sa>  (87) 
-0.986764

>  <r_i_glide_ligand_efficiency_ln>  (87) 
-1.48414

>  <r_i_glide_gscore>  (87) 
-5.1721

>  <r_i_glide_lipo>  (87) 
-0.419798

>  <r_i_glide_hbond>  (87) 
-0.248292

>  <r_i_glide_metal>  (87) 
-0

>  <r_i_glide_rewards>  (87) 
-2.68076

>  <r_i_glide_evdw>  (87) 
-17.1955

>  <r_i_glide_ecoul>  (87) 
-9.25558

>  <r_i_glide_erotb>  (87) 
0.48542

>  <r_i_glide_esite>  (87) 
-0.0605695

>  <r_i_glide_emodel>  (87) 
-40.2184

>  <r_i_glide_energy>  (87) 
-26.451

>  <r_i_glide_einternal>  (87) 
1.22207

>  <r_i_glide_intrahb_reward>  (87) 
-0.5

>  <i_i_glide_confnum>  (87) 
1

>  <i_i_glide_posenum>  (87) 
29

>  <r_i_glide_eff_state_penalty>  (87) 
0

>  <ligand_id>  (87) 
32

>  <original_smiles>  (87) 
OCC1OC(O)C(O)C(O)C1O

>  <smiles>  (87) 
[H]OC([H])([H])C1([H])OC([H])(O[H])C([H])(O[H])C([H])(O[H])C1([H])O[H]

$$$$
32:0:2
     RDKit          3D

 24 24  0  0  1  0  0  0  0  0999 V2000
    2.8811    0.5494   -4.6427 O   0  0  0  0  0  0  0  0  0  0  0  0
    3.8230    0.1504   -3.6544 C   0  0  0  0  0  0  0  0  0  0  0  0
    3.2261   -0.8835   -2.6509 C   0  0  2  0  0  0  0  0  0  0  0  0
    4.0393   -0.9999   -1.4619 O   0  0  0  0  0  0  0  0  0  0  0  0
    5.3394   -1.5175   -1.6194 C   0  0  1  0  0  0  0  0  0  0  0  0
    5.9949   -1.4546   -0.3583 O   0  0  0  0  0  0  0  0  0  0  0  0
    5.2899   -2.9576   -2.1988 C   0  0  1  0  0  0  0  0  0  0  0  0
    4.7597   -3.8249   -1.2058 O   0  0  0  0  0  0  0  0  0  0  0  0
    4.3743   -2.9678   -3.4407 C   0  0  1  0  0  0  0  0  0  0  0  0
    4.2487   -4.2515   -4.0060 O   0  0  0  0  0  0  0  0  0  0  0  0
    2.9891   -2.2984   -3.1961 C   0  0  1  0  0  0  0  0  0  0  0  0
    2.1825   -3.0213   -2.2640 O   0  0  0  0  0  0  0  0  0  0  0  0
    2.2910    1.1904   -4.2016 H   0  0  0  0  0  0  0  0  0  0  0  0
    4.6788   -0.2397   -4.1914 H   0  0  0  0  0  0  0  0  0  0  0  0
    4.1657    1.0450   -3.1243 H   0  0  0  0  0  0  0  0  0  0  0  0
    2.2649   -0.4889   -2.3312 H   0  0  0  0  0  0  0  0  0  0  0  0
    5.8200   -0.8208   -2.3020 H   0  0  0  0  0  0  0  0  0  0  0  0
    5.8958   -0.5602   -0.0104 H   0  0  0  0  0  0  0  0  0  0  0  0
    6.2994   -3.2701   -2.4476 H   0  0  0  0  0  0  0  0  0  0  0  0
    3.8203   -3.5794   -1.1154 H   0  0  0  0  0  0  0  0  0  0  0  0
    4.8769   -2.3877   -4.1971 H   0  0  0  0  0  0  0  0  0  0  0  0
    3.8737   -4.8681   -3.3472 H   0  0  0  0  0  0  0  0  0  0  0  0
    2.4460   -2.2314   -4.1428 H   0  0  0  0  0  0  0  0  0  0  0  0
    1.4249   -2.4518   -2.0177 H   0  0  0  0  0  0  0  0  0  0  0  0
  1  2  1  0
  1 13  1  0
  2  3  1  0
  2 14  1  0
  2 15  1  0
  3 11  1  0
  3  4  1  0
  3 16  1  1
  4  5  1  0
  5  6  1  0
  5  7  1  0
  5 17  1  6
  6 18  1  0
  7  8  1  0
  7  9  1  0
  7 19  1  6
  8 20  1  0
  9 10  1  0
  9 11  1  0
  9 21  1  6
 10 22  1  0
 11 12  1  0
 11 23  1  6
 12 24  1  0
M  END
>  <i_m_ct_stereo_status>  (88) 
1

>  <s_m_source_file>  (88) 
/var/tmp/pbs.5076255.sched01/tmpxjfjwjbi/40jwkb7fqh.sdf

>  <i_m_source_file_index>  (88) 
2

>  <i_lp_mmshare_version>  (88) 
48012

>  <i_f3d_flags>  (88) 
0

>  <s_epik_input>  (88) 
W09IXVtDSDJdW0NAQEhdMU9bQ0BASF0oW09IXSlbQ0BASF0oW09IXSlbQ0BASF0oW09IXSlbQ0BIXTFbT0hd

>  <s_epik_cmdline>  (88) 
J2VwaWtfcHl0aG9uJywgJy1waHQnLCAnMi4wJywgJy1waCcsICc3LjAnLCAnLXRuJywgJzgnLCAnLW1hJywgJzIwMCcsICctaW1hZScsICc8aW5maWxlLm1hZT4nLCAnLW9tYWUnLCAnPG91dGZpbGUubWFlPic=

>  <r_lp_tautomer_probability>  (88) 
1

>  <r_epik_Ionization_Penalty>  (88) 
2.91483e-06

>  <r_epik_Ionization_Penalty_Charging>  (88) 
0

>  <r_epik_Ionization_Penalty_Neutral>  (88) 
2.91483e-06

>  <r_epik_State_Penalty>  (88) 
-0

>  <r_epik_Charging_Adjusted_Penalty>  (88) 
0

>  <i_epik_Tot_Q>  (88) 
0

>  <i_epik_Tot_abs_Q>  (88) 
0

>  <s_epik_Chemistry_Notes>  (88) 
This compound contains an acetal/aminal-like group ( X-CH(R)-Y where X, Y are N, S, or O) that may be acid/base labile, releasing an aldehyde.

>  <s_lp_Force_Field>  (88) 
OPLS3e

>  <r_lp_Energy>  (88) 
14.5669

>  <b_lp_Chiralities_Consistent>  (88) 
1

>  <s_lp_Variant>  (88) 
32:0-1

>  <s_i_glide_gridfile>  (88) 
pfpi4k_grid

>  <i_i_glide_lignum>  (88) 
2

>  <i_i_glide_rotatable_bonds>  (88) 
6

>  <r_i_docking_score>  (88) 
-5.05884

>  <r_i_glide_ligand_efficiency>  (88) 
-0.42157

>  <r_i_glide_ligand_efficiency_sa>  (88) 
-0.965154

>  <r_i_glide_ligand_efficiency_ln>  (88) 
-1.45164

>  <r_i_glide_gscore>  (88) 
-5.05884

>  <r_i_glide_lipo>  (88) 
-0.389388

>  <r_i_glide_hbond>  (88) 
-0.259327

>  <r_i_glide_metal>  (88) 
-0

>  <r_i_glide_rewards>  (88) 
-2.68076

>  <r_i_glide_evdw>  (88) 
-16.5993

>  <r_i_glide_ecoul>  (88) 
-8.85509

>  <r_i_glide_erotb>  (88) 
0.48542

>  <r_i_glide_esite>  (88) 
-0.0565562

>  <r_i_glide_emodel>  (88) 
-38.8258

>  <r_i_glide_energy>  (88) 
-25.4544

>  <r_i_glide_einternal>  (88) 
1.36726

>  <r_i_glide_intrahb_reward>  (88) 
-0.5

>  <i_i_glide_confnum>  (88) 
1

>  <i_i_glide_posenum>  (88) 
25

>  <r_i_glide_eff_state_penalty>  (88) 
0

>  <ligand_id>  (88) 
32

>  <original_smiles>  (88) 
OCC1OC(O)C(O)C(O)C1O

>  <smiles>  (88) 
[H]OC([H])([H])C1([H])OC([H])(O[H])C([H])(O[H])C([H])(O[H])C1([H])O[H]

$$$$
33:0:0
     RDKit          3D

 39 41  0  0  1  0  0  0  0  0999 V2000
    3.0754   -4.1482    0.8312 O   0  0  0  0  0  0  0  0  0  0  0  0
    3.0025   -2.9474    0.5494 C   0  0  0  0  0  0  0  0  0  0  0  0
    2.5176   -1.9772    1.3363 N   0  0  0  0  0  0  0  0  0  0  0  0
    2.0697   -2.0290    2.6036 C   0  0  0  0  0  0  0  0  0  0  0  0
    2.0381   -3.0688    3.2784 O   0  0  0  0  0  0  0  0  0  0  0  0
    1.6017   -0.8432    3.0722 N   0  0  0  0  0  0  0  0  0  0  0  0
    1.8194    0.4717    2.4287 C   0  0  0  0  0  0  0  0  0  0  0  0
    0.4669    1.1583    2.1926 C   0  0  0  0  0  0  0  0  0  0  0  0
   -0.2631    1.3330    3.5398 C   0  0  0  0  0  0  0  0  0  0  0  0
   -0.4293   -0.0230    4.2593 C   0  0  0  0  0  0  0  0  0  0  0  0
    0.9401   -0.7267    4.3822 C   0  0  0  0  0  0  0  0  0  0  0  0
    0.4519    2.1954    4.3677 O   0  0  0  0  0  0  0  0  0  0  0  0
    0.0765    3.4911    3.9482 C   0  0  0  0  0  0  0  0  0  0  0  0
   -1.3769    3.2809    3.5185 C   0  0  0  0  0  0  0  0  0  0  0  0
   -1.5118    1.8861    3.3181 O   0  0  0  0  0  0  0  0  0  0  0  0
    3.4305   -2.4748   -0.8133 C   0  0  0  0  0  0  0  0  0  0  0  0
    2.8647   -3.0715   -1.9625 C   0  0  0  0  0  0  0  0  0  0  0  0
    3.2445   -2.6777   -3.2563 C   0  0  0  0  0  0  0  0  0  0  0  0
    4.1979   -1.6617   -3.4206 C   0  0  0  0  0  0  0  0  0  0  0  0
    4.7510   -1.0491   -2.2817 C   0  0  0  0  0  0  0  0  0  0  0  0
    4.3851   -1.4456   -0.9844 C   0  0  0  0  0  0  0  0  0  0  0  0
    5.1634   -0.6574    0.3506 Cl  0  0  0  0  0  0  0  0  0  0  0  0
    2.4056   -1.0816    0.8889 H   0  0  0  0  0  0  0  0  0  0  0  0
    2.4525    1.0781    3.0794 H   0  0  0  0  0  0  0  0  0  0  0  0
    2.3262    0.4706    1.4681 H   0  0  0  0  0  0  0  0  0  0  0  0
    0.6108    2.1189    1.6833 H   0  0  0  0  0  0  0  0  0  0  0  0
   -0.1586    0.5553    1.5290 H   0  0  0  0  0  0  0  0  0  0  0  0
   -0.8991    0.1289    5.2378 H   0  0  0  0  0  0  0  0  0  0  0  0
   -1.1141   -0.6501    3.6829 H   0  0  0  0  0  0  0  0  0  0  0  0
    0.7953   -1.6919    4.8700 H   0  0  0  0  0  0  0  0  0  0  0  0
    1.5844   -0.1593    5.0552 H   0  0  0  0  0  0  0  0  0  0  0  0
    0.1912    4.2363    4.7351 H   0  0  0  0  0  0  0  0  0  0  0  0
    0.6984    3.8012    3.1116 H   0  0  0  0  0  0  0  0  0  0  0  0
   -2.0691    3.5886    4.3018 H   0  0  0  0  0  0  0  0  0  0  0  0
   -1.6206    3.8281    2.6103 H   0  0  0  0  0  0  0  0  0  0  0  0
    2.1287   -3.8576   -1.8527 H   0  0  0  0  0  0  0  0  0  0  0  0
    2.8062   -3.1655   -4.1267 H   0  0  0  0  0  0  0  0  0  0  0  0
    4.5087   -1.3525   -4.4102 H   0  0  0  0  0  0  0  0  0  0  0  0
    5.4743   -0.2539   -2.3925 H   0  0  0  0  0  0  0  0  0  0  0  0
  1  2  2  0
  2  3  1  0
  2 16  1  0
  3  4  1  0
  3 23  1  0
  4  5  2  0
  4  6  1  0
  6 11  1  0
  6  7  1  0
  7  8  1  0
  7 24  1  0
  7 25  1  0
  8  9  1  0
  8 26  1  0
  8 27  1  0
  9 15  1  0
  9 10  1  0
  9 12  1  0
 10 11  1  0
 10 28  1  0
 10 29  1  0
 11 30  1  0
 11 31  1  0
 12 13  1  0
 13 14  1  0
 13 32  1  0
 13 33  1  0
 14 15  1  0
 14 34  1  0
 14 35  1  0
 16 21  1  0
 16 17  2  0
 17 18  1  0
 17 36  1  0
 18 19  2  0
 18 37  1  0
 19 20  1  0
 19 38  1  0
 20 21  2  0
 20 39  1  0
 21 22  1  0
M  END
>  <i_m_ct_stereo_status>  (89) 
1

>  <s_m_source_file>  (89) 
/var/tmp/pbs.5076255.sched01/tmpxjfjwjbi/40jwkb7fqh.sdf

>  <i_m_source_file_index>  (89) 
3

>  <i_lp_mmshare_version>  (89) 
48012

>  <i_f3d_flags>  (89) 
0

>  <s_epik_input>  (89) 
Q2xjMVtjSF1bY0hdW2NIXVtjSF1jMUMoPU8pW05IXUMoPU8pTihbQ0gyXVtDSDJdMilbQ0gyXVtDSDJdQzIzT1tDSDJdW0NIMl1PMw==

>  <s_epik_cmdline>  (89) 
J2VwaWtfcHl0aG9uJywgJy1waHQnLCAnMi4wJywgJy1waCcsICc3LjAnLCAnLXRuJywgJzgnLCAnLW1hJywgJzIwMCcsICctaW1hZScsICc8aW5maWxlLm1hZT4nLCAnLW9tYWUnLCAnPG91dGZpbGUubWFlPic=

>  <r_lp_tautomer_probability>  (89) 
1

>  <r_epik_Ionization_Penalty>  (89) 
1.98476e-05

>  <r_epik_Ionization_Penalty_Charging>  (89) 
0

>  <r_epik_Ionization_Penalty_Neutral>  (89) 
1.98476e-05

>  <r_epik_State_Penalty>  (89) 
-0

>  <r_epik_Charging_Adjusted_Penalty>  (89) 
0

>  <i_epik_Tot_Q>  (89) 
0

>  <i_epik_Tot_abs_Q>  (89) 
0

>  <s_lp_Force_Field>  (89) 
OPLS3e

>  <r_lp_Energy>  (89) 
22.7737

>  <b_lp_Chiralities_Consistent>  (89) 
1

>  <s_lp_Variant>  (89) 
33:0-1

>  <s_i_glide_gridfile>  (89) 
pfpi4k_grid

>  <i_i_glide_lignum>  (89) 
3

>  <i_i_glide_rotatable_bonds>  (89) 
4

>  <r_i_docking_score>  (89) 
-3.05004

>  <r_i_glide_ligand_efficiency>  (89) 
-0.138638

>  <r_i_glide_ligand_efficiency_sa>  (89) 
-0.38847

>  <r_i_glide_ligand_efficiency_ln>  (89) 
-0.745542

>  <r_i_glide_gscore>  (89) 
-3.05004

>  <r_i_glide_lipo>  (89) 
-0.405891

>  <r_i_glide_hbond>  (89) 
-0.00653133

>  <r_i_glide_metal>  (89) 
-0

>  <r_i_glide_rewards>  (89) 
-1.19482

>  <r_i_glide_evdw>  (89) 
-30.4816

>  <r_i_glide_ecoul>  (89) 
-0.924445

>  <r_i_glide_erotb>  (89) 
0.355215

>  <r_i_glide_esite>  (89) 
-0.135263

>  <r_i_glide_emodel>  (89) 
-36.5564

>  <r_i_glide_energy>  (89) 
-31.4061

>  <r_i_glide_einternal>  (89) 
1.70053

>  <r_i_glide_intrahb_reward>  (89) 
-0

>  <i_i_glide_confnum>  (89) 
5

>  <i_i_glide_posenum>  (89) 
17

>  <r_i_glide_eff_state_penalty>  (89) 
0

>  <ligand_id>  (89) 
33

>  <original_smiles>  (89) 
O=C(NC(=O)N1CCC2(CC1)OCCO2)c1ccccc1Cl

>  <smiles>  (89) 
[H]c1c([H])c([H])c(C(=O)N([H])C(=O)N2C([H])([H])C([H])([H])C3(OC([H])([H])C([H])([H])O3)C([H])([H])C2([H])[H])c(Cl)c1[H]

$$$$
33:0:1
     RDKit          3D

 39 41  0  0  1  0  0  0  0  0999 V2000
   -1.6934   -1.0987    5.6682 O   0  0  0  0  0  0  0  0  0  0  0  0
   -1.0190   -0.4273    4.8836 C   0  0  0  0  0  0  0  0  0  0  0  0
    0.0488   -0.8708    4.1897 N   0  0  0  0  0  0  0  0  0  0  0  0
    0.6366   -2.0809    4.2015 C   0  0  0  0  0  0  0  0  0  0  0  0
    0.3276   -2.9907    4.9754 O   0  0  0  0  0  0  0  0  0  0  0  0
    1.6755   -2.1714    3.3352 N   0  0  0  0  0  0  0  0  0  0  0  0
    1.8165   -1.3607    2.1108 C   0  0  0  0  0  0  0  0  0  0  0  0
    3.1835   -0.6639    2.1006 C   0  0  0  0  0  0  0  0  0  0  0  0
    4.2979   -1.7326    2.1821 C   0  0  0  0  0  0  0  0  0  0  0  0
    4.1101   -2.6299    3.4255 C   0  0  0  0  0  0  0  0  0  0  0  0
    2.6871   -3.2334    3.4321 C   0  0  0  0  0  0  0  0  0  0  0  0
    4.2877   -2.5284    1.0438 O   0  0  0  0  0  0  0  0  0  0  0  0
    5.0076   -1.7962    0.0768 C   0  0  0  0  0  0  0  0  0  0  0  0
    6.0427   -1.0679    0.9349 C   0  0  0  0  0  0  0  0  0  0  0  0
    5.5283   -1.0947    2.2545 O   0  0  0  0  0  0  0  0  0  0  0  0
   -1.3338    1.0269    4.6390 C   0  0  0  0  0  0  0  0  0  0  0  0
   -1.1993    1.5658    3.3360 C   0  0  0  0  0  0  0  0  0  0  0  0
   -1.4967    2.9128    3.0737 C   0  0  0  0  0  0  0  0  0  0  0  0
   -1.9492    3.7453    4.1063 C   0  0  0  0  0  0  0  0  0  0  0  0
   -2.0852    3.2344    5.4089 C   0  0  0  0  0  0  0  0  0  0  0  0
   -1.7773    1.8890    5.6822 C   0  0  0  0  0  0  0  0  0  0  0  0
   -1.9400    1.3690    7.3195 Cl  0  0  0  0  0  0  0  0  0  0  0  0
    0.4715   -0.1997    3.5664 H   0  0  0  0  0  0  0  0  0  0  0  0
    1.7237   -2.0206    1.2509 H   0  0  0  0  0  0  0  0  0  0  0  0
    1.0580   -0.5925    1.9571 H   0  0  0  0  0  0  0  0  0  0  0  0
    3.2884   -0.0475    1.2049 H   0  0  0  0  0  0  0  0  0  0  0  0
    3.2807    0.0054    2.9573 H   0  0  0  0  0  0  0  0  0  0  0  0
    4.8753   -3.4111    3.4430 H   0  0  0  0  0  0  0  0  0  0  0  0
    4.2539   -2.0279    4.3219 H   0  0  0  0  0  0  0  0  0  0  0  0
    2.5626   -3.8403    4.3316 H   0  0  0  0  0  0  0  0  0  0  0  0
    2.5651   -3.9187    2.5952 H   0  0  0  0  0  0  0  0  0  0  0  0
    5.4528   -2.4302   -0.6889 H   0  0  0  0  0  0  0  0  0  0  0  0
    4.3425   -1.0930   -0.4222 H   0  0  0  0  0  0  0  0  0  0  0  0
    7.0024   -1.5828    0.9245 H   0  0  0  0  0  0  0  0  0  0  0  0
    6.2015   -0.0431    0.6030 H   0  0  0  0  0  0  0  0  0  0  0  0
   -0.8788    0.9550    2.5070 H   0  0  0  0  0  0  0  0  0  0  0  0
   -1.3850    3.3144    2.0824 H   0  0  0  0  0  0  0  0  0  0  0  0
   -2.1698    4.7721    3.8917 H   0  0  0  0  0  0  0  0  0  0  0  0
   -2.4281    3.8779    6.2096 H   0  0  0  0  0  0  0  0  0  0  0  0
  1  2  2  0
  2  3  1  0
  2 16  1  0
  3  4  1  0
  3 23  1  0
  4  5  2  0
  4  6  1  0
  6 11  1  0
  6  7  1  0
  7  8  1  0
  7 24  1  0
  7 25  1  0
  8  9  1  0
  8 26  1  0
  8 27  1  0
  9 15  1  0
  9 10  1  0
  9 12  1  0
 10 11  1  0
 10 28  1  0
 10 29  1  0
 11 30  1  0
 11 31  1  0
 12 13  1  0
 13 14  1  0
 13 32  1  0
 13 33  1  0
 14 15  1  0
 14 34  1  0
 14 35  1  0
 16 21  1  0
 16 17  2  0
 17 18  1  0
 17 36  1  0
 18 19  2  0
 18 37  1  0
 19 20  1  0
 19 38  1  0
 20 21  2  0
 20 39  1  0
 21 22  1  0
M  END
>  <i_m_ct_stereo_status>  (90) 
1

>  <s_m_source_file>  (90) 
/var/tmp/pbs.5076255.sched01/tmpxjfjwjbi/40jwkb7fqh.sdf

>  <i_m_source_file_index>  (90) 
3

>  <i_lp_mmshare_version>  (90) 
48012

>  <i_f3d_flags>  (90) 
0

>  <s_epik_input>  (90) 
Q2xjMVtjSF1bY0hdW2NIXVtjSF1jMUMoPU8pW05IXUMoPU8pTihbQ0gyXVtDSDJdMilbQ0gyXVtDSDJdQzIzT1tDSDJdW0NIMl1PMw==

>  <s_epik_cmdline>  (90) 
J2VwaWtfcHl0aG9uJywgJy1waHQnLCAnMi4wJywgJy1waCcsICc3LjAnLCAnLXRuJywgJzgnLCAnLW1hJywgJzIwMCcsICctaW1hZScsICc8aW5maWxlLm1hZT4nLCAnLW9tYWUnLCAnPG91dGZpbGUubWFlPic=

>  <r_lp_tautomer_probability>  (90) 
1

>  <r_epik_Ionization_Penalty>  (90) 
1.98476e-05

>  <r_epik_Ionization_Penalty_Charging>  (90) 
0

>  <r_epik_Ionization_Penalty_Neutral>  (90) 
1.98476e-05

>  <r_epik_State_Penalty>  (90) 
-0

>  <r_epik_Charging_Adjusted_Penalty>  (90) 
0

>  <i_epik_Tot_Q>  (90) 
0

>  <i_epik_Tot_abs_Q>  (90) 
0

>  <s_lp_Force_Field>  (90) 
OPLS3e

>  <r_lp_Energy>  (90) 
22.7737

>  <b_lp_Chiralities_Consistent>  (90) 
1

>  <s_lp_Variant>  (90) 
33:0-1

>  <s_i_glide_gridfile>  (90) 
pfpi4k_grid

>  <i_i_glide_lignum>  (90) 
3

>  <i_i_glide_rotatable_bonds>  (90) 
4

>  <r_i_docking_score>  (90) 
-2.97422

>  <r_i_glide_ligand_efficiency>  (90) 
-0.135192

>  <r_i_glide_ligand_efficiency_sa>  (90) 
-0.378812

>  <r_i_glide_ligand_efficiency_ln>  (90) 
-0.727007

>  <r_i_glide_gscore>  (90) 
-2.97422

>  <r_i_glide_lipo>  (90) 
-0.133887

>  <r_i_glide_hbond>  (90) 
-0.0142337

>  <r_i_glide_metal>  (90) 
-0

>  <r_i_glide_rewards>  (90) 
-1.27757

>  <r_i_glide_evdw>  (90) 
-26.0847

>  <r_i_glide_ecoul>  (90) 
-3.68995

>  <r_i_glide_erotb>  (90) 
0.355215

>  <r_i_glide_esite>  (90) 
-0.0460186

>  <r_i_glide_emodel>  (90) 
-35.2216

>  <r_i_glide_energy>  (90) 
-29.7746

>  <r_i_glide_einternal>  (90) 
0.980335

>  <r_i_glide_intrahb_reward>  (90) 
-0

>  <i_i_glide_confnum>  (90) 
5

>  <i_i_glide_posenum>  (90) 
9

>  <r_i_glide_eff_state_penalty>  (90) 
0

>  <ligand_id>  (90) 
33

>  <original_smiles>  (90) 
O=C(NC(=O)N1CCC2(CC1)OCCO2)c1ccccc1Cl

>  <smiles>  (90) 
[H]c1c([H])c([H])c(C(=O)N([H])C(=O)N2C([H])([H])C([H])([H])C3(OC([H])([H])C([H])([H])O3)C([H])([H])C2([H])[H])c(Cl)c1[H]

$$$$
33:0:2
     RDKit          3D

 39 41  0  0  1  0  0  0  0  0999 V2000
    2.9926   -4.6119    3.6638 O   0  0  0  0  0  0  0  0  0  0  0  0
    1.7880   -4.5902    3.9189 C   0  0  0  0  0  0  0  0  0  0  0  0
    1.1137   -3.5549    4.4524 N   0  0  0  0  0  0  0  0  0  0  0  0
    1.5817   -2.3690    4.8966 C   0  0  0  0  0  0  0  0  0  0  0  0
    2.7737   -2.0567    4.8850 O   0  0  0  0  0  0  0  0  0  0  0  0
    0.6229   -1.5774    5.4495 N   0  0  0  0  0  0  0  0  0  0  0  0
    0.9787   -0.4152    6.2819 C   0  0  0  0  0  0  0  0  0  0  0  0
    0.3430    0.8736    5.7303 C   0  0  0  0  0  0  0  0  0  0  0  0
   -1.1925    0.7030    5.6328 C   0  0  0  0  0  0  0  0  0  0  0  0
   -1.5449   -0.5316    4.7883 C   0  0  0  0  0  0  0  0  0  0  0  0
   -0.8400   -1.7833    5.3540 C   0  0  0  0  0  0  0  0  0  0  0  0
   -1.7516    0.5487    6.8934 O   0  0  0  0  0  0  0  0  0  0  0  0
   -1.8839    1.8626    7.3945 C   0  0  0  0  0  0  0  0  0  0  0  0
   -2.1867    2.6594    6.1242 C   0  0  0  0  0  0  0  0  0  0  0  0
   -1.7431    1.8378    5.0570 O   0  0  0  0  0  0  0  0  0  0  0  0
    0.9215   -5.7689    3.5621 C   0  0  0  0  0  0  0  0  0  0  0  0
    1.0324   -6.3254    2.2677 C   0  0  0  0  0  0  0  0  0  0  0  0
    0.2348   -7.4162    1.8802 C   0  0  0  0  0  0  0  0  0  0  0  0
   -0.6672   -7.9875    2.7933 C   0  0  0  0  0  0  0  0  0  0  0  0
   -0.7746   -7.4600    4.0919 C   0  0  0  0  0  0  0  0  0  0  0  0
    0.0126   -6.3602    4.4855 C   0  0  0  0  0  0  0  0  0  0  0  0
   -0.1791   -5.7938    6.1100 Cl  0  0  0  0  0  0  0  0  0  0  0  0
    0.1274   -3.7043    4.5872 H   0  0  0  0  0  0  0  0  0  0  0  0
    0.6529   -0.5919    7.3080 H   0  0  0  0  0  0  0  0  0  0  0  0
    2.0576   -0.2534    6.3443 H   0  0  0  0  0  0  0  0  0  0  0  0
    0.6066    1.7222    6.3603 H   0  0  0  0  0  0  0  0  0  0  0  0
    0.7313    1.1008    4.7351 H   0  0  0  0  0  0  0  0  0  0  0  0
   -2.6276   -0.6622    4.7670 H   0  0  0  0  0  0  0  0  0  0  0  0
   -1.2272   -0.3514    3.7626 H   0  0  0  0  0  0  0  0  0  0  0  0
   -1.1208   -2.6151    4.7116 H   0  0  0  0  0  0  0  0  0  0  0  0
   -1.2327   -2.0337    6.3417 H   0  0  0  0  0  0  0  0  0  0  0  0
   -2.6549    1.9555    8.1586 H   0  0  0  0  0  0  0  0  0  0  0  0
   -0.9466    2.1868    7.8468 H   0  0  0  0  0  0  0  0  0  0  0  0
   -3.2554    2.8383    6.0227 H   0  0  0  0  0  0  0  0  0  0  0  0
   -1.6797    3.6242    6.1090 H   0  0  0  0  0  0  0  0  0  0  0  0
    1.7360   -5.8988    1.5659 H   0  0  0  0  0  0  0  0  0  0  0  0
    0.3283   -7.8319    0.8862 H   0  0  0  0  0  0  0  0  0  0  0  0
   -1.2600   -8.8373    2.5021 H   0  0  0  0  0  0  0  0  0  0  0  0
   -1.4537   -7.9223    4.7951 H   0  0  0  0  0  0  0  0  0  0  0  0
  1  2  2  0
  2  3  1  0
  2 16  1  0
  3  4  1  0
  3 23  1  0
  4  5  2  0
  4  6  1  0
  6 11  1  0
  6  7  1  0
  7  8  1  0
  7 24  1  0
  7 25  1  0
  8  9  1  0
  8 26  1  0
  8 27  1  0
  9 15  1  0
  9 10  1  0
  9 12  1  0
 10 11  1  0
 10 28  1  0
 10 29  1  0
 11 30  1  0
 11 31  1  0
 12 13  1  0
 13 14  1  0
 13 32  1  0
 13 33  1  0
 14 15  1  0
 14 34  1  0
 14 35  1  0
 16 21  1  0
 16 17  2  0
 17 18  1  0
 17 36  1  0
 18 19  2  0
 18 37  1  0
 19 20  1  0
 19 38  1  0
 20 21  2  0
 20 39  1  0
 21 22  1  0
M  END
>  <i_m_ct_stereo_status>  (91) 
1

>  <s_m_source_file>  (91) 
/var/tmp/pbs.5076255.sched01/tmpxjfjwjbi/40jwkb7fqh.sdf

>  <i_m_source_file_index>  (91) 
3

>  <i_lp_mmshare_version>  (91) 
48012

>  <i_f3d_flags>  (91) 
0

>  <s_epik_input>  (91) 
Q2xjMVtjSF1bY0hdW2NIXVtjSF1jMUMoPU8pW05IXUMoPU8pTihbQ0gyXVtDSDJdMilbQ0gyXVtDSDJdQzIzT1tDSDJdW0NIMl1PMw==

>  <s_epik_cmdline>  (91) 
J2VwaWtfcHl0aG9uJywgJy1waHQnLCAnMi4wJywgJy1waCcsICc3LjAnLCAnLXRuJywgJzgnLCAnLW1hJywgJzIwMCcsICctaW1hZScsICc8aW5maWxlLm1hZT4nLCAnLW9tYWUnLCAnPG91dGZpbGUubWFlPic=

>  <r_lp_tautomer_probability>  (91) 
1

>  <r_epik_Ionization_Penalty>  (91) 
1.98476e-05

>  <r_epik_Ionization_Penalty_Charging>  (91) 
0

>  <r_epik_Ionization_Penalty_Neutral>  (91) 
1.98476e-05

>  <r_epik_State_Penalty>  (91) 
-0

>  <r_epik_Charging_Adjusted_Penalty>  (91) 
0

>  <i_epik_Tot_Q>  (91) 
0

>  <i_epik_Tot_abs_Q>  (91) 
0

>  <s_lp_Force_Field>  (91) 
OPLS3e

>  <r_lp_Energy>  (91) 
22.7737

>  <b_lp_Chiralities_Consistent>  (91) 
1

>  <s_lp_Variant>  (91) 
33:0-1

>  <s_i_glide_gridfile>  (91) 
pfpi4k_grid

>  <i_i_glide_lignum>  (91) 
3

>  <i_i_glide_rotatable_bonds>  (91) 
4

>  <r_i_docking_score>  (91) 
-2.96863

>  <r_i_glide_ligand_efficiency>  (91) 
-0.134938

>  <r_i_glide_ligand_efficiency_sa>  (91) 
-0.3781

>  <r_i_glide_ligand_efficiency_ln>  (91) 
-0.72564

>  <r_i_glide_gscore>  (91) 
-2.96863

>  <r_i_glide_lipo>  (91) 
-0.0939273

>  <r_i_glide_hbond>  (91) 
-0.16

>  <r_i_glide_metal>  (91) 
-0

>  <r_i_glide_rewards>  (91) 
-1.19494

>  <r_i_glide_evdw>  (91) 
-23.3333

>  <r_i_glide_ecoul>  (91) 
-4.4252

>  <r_i_glide_erotb>  (91) 
0.355215

>  <r_i_glide_esite>  (91) 
-0.0445288

>  <r_i_glide_emodel>  (91) 
-33.1997

>  <r_i_glide_energy>  (91) 
-27.7585

>  <r_i_glide_einternal>  (91) 
0.988741

>  <r_i_glide_intrahb_reward>  (91) 
-0

>  <i_i_glide_confnum>  (91) 
6

>  <i_i_glide_posenum>  (91) 
6

>  <r_i_glide_eff_state_penalty>  (91) 
0

>  <ligand_id>  (91) 
33

>  <original_smiles>  (91) 
O=C(NC(=O)N1CCC2(CC1)OCCO2)c1ccccc1Cl

>  <smiles>  (91) 
[H]c1c([H])c([H])c(C(=O)N([H])C(=O)N2C([H])([H])C([H])([H])C3(OC([H])([H])C([H])([H])O3)C([H])([H])C2([H])[H])c(Cl)c1[H]

$$$$
34:0:0
     RDKit          3D

 54 60  0  0  1  0  0  0  0  0999 V2000
    6.8605   -3.1059   -2.0745 C   0  0  0  0  0  0  0  0  0  0  0  0
    6.6166   -2.0683   -1.1487 O   0  0  0  0  0  0  0  0  0  0  0  0
    6.1878   -2.4448    0.1687 C   0  0  2  0  0  0  0  0  0  0  0  0
    5.8608   -3.8791    0.6012 C   0  0  0  0  0  0  0  0  0  0  0  0
    4.3252   -3.8251    0.8192 C   0  0  2  0  0  0  0  0  0  0  0  0
    3.5037   -3.8677   -0.5343 C   0  0  0  0  0  0  0  0  0  0  0  0
    3.6181   -2.7970   -1.6520 C   0  0  0  0  0  0  0  0  0  0  0  0
    3.4597   -3.2144   -2.9870 C   0  0  0  0  0  0  0  0  0  0  0  0
    3.5037   -2.3186   -4.0487 C   0  0  0  0  0  0  0  0  0  0  0  0
    3.7412   -0.9388   -3.8153 C   0  0  0  0  0  0  0  0  0  0  0  0
    3.7014   -0.0443   -4.8501 O   0  0  0  0  0  0  0  0  0  0  0  0
    3.9737   -0.5209   -2.5046 C   0  0  0  0  0  0  0  0  0  0  0  0
    3.8624   -1.4082   -1.4195 C   0  0  0  0  0  0  0  0  0  0  0  0
    4.0111   -0.8749   -0.0024 C   0  0  1  0  0  0  0  0  0  0  0  0
    3.0914   -1.5824    0.8951 O   0  0  0  0  0  0  0  0  0  0  0  0
    4.1110   -2.4444    1.4880 C   0  0  1  0  0  0  0  0  0  0  0  0
    4.1270   -2.3360    3.0046 C   0  0  0  0  0  0  0  0  0  0  0  0
    3.3061   -3.4938    3.5689 C   0  0  0  0  0  0  0  0  0  0  0  0
    3.9487   -4.8063    3.1181 C   0  0  0  0  0  0  0  0  0  0  0  0
    3.8785   -5.0064    1.6391 N   0  0  2  0  0  0  0  0  0  0  0  0
    4.5254   -6.2871    1.2498 C   0  0  0  0  0  0  0  0  0  0  0  0
    3.6735   -7.4816    1.5911 C   0  0  0  0  0  0  0  0  0  0  0  0
    4.0594   -8.4261    2.7129 C   0  0  0  0  0  0  0  0  0  0  0  0
    4.1942   -8.8656    1.2880 C   0  0  0  0  0  0  0  0  0  0  0  0
    5.0759   -1.5748    0.7795 C   0  0  1  0  0  0  0  0  0  0  0  0
    6.5010   -1.2830    1.0759 C   0  0  0  0  0  0  0  0  0  0  0  0
    7.0177   -2.6810   -3.0699 H   0  0  0  0  0  0  0  0  0  0  0  0
    6.0029   -3.7508   -2.2162 H   0  0  0  0  0  0  0  0  0  0  0  0
    7.7112   -3.7062   -1.7574 H   0  0  0  0  0  0  0  0  0  0  0  0
    6.1521   -4.6974   -0.0720 H   0  0  0  0  0  0  0  0  0  0  0  0
    6.3896   -4.0505    1.5574 H   0  0  0  0  0  0  0  0  0  0  0  0
    3.7924   -4.7909   -1.0212 H   0  0  0  0  0  0  0  0  0  0  0  0
    2.4365   -3.9720   -0.2930 H   0  0  0  0  0  0  0  0  0  0  0  0
    3.3024   -4.2225   -3.2604 H   0  0  0  0  0  0  0  0  0  0  0  0
    3.3595   -2.6602   -5.0410 H   0  0  0  0  0  0  0  0  0  0  0  0
    3.5477    0.8521   -4.5446 H   0  0  0  0  0  0  0  0  0  0  0  0
    4.1774    0.5372   -2.3527 H   0  0  0  0  0  0  0  0  0  0  0  0
    3.9354    0.2152    0.1117 H   0  0  0  0  0  0  0  0  0  0  0  0
    5.1380   -2.3811    3.4232 H   0  0  0  0  0  0  0  0  0  0  0  0
    3.7031   -1.3742    3.3122 H   0  0  0  0  0  0  0  0  0  0  0  0
    3.3049   -3.4553    4.6604 H   0  0  0  0  0  0  0  0  0  0  0  0
    2.2589   -3.4390    3.2349 H   0  0  0  0  0  0  0  0  0  0  0  0
    4.9845   -4.8326    3.4777 H   0  0  0  0  0  0  0  0  0  0  0  0
    3.4316   -5.6332    3.5956 H   0  0  0  0  0  0  0  0  0  0  0  0
    4.7003   -6.3391    0.1770 H   0  0  0  0  0  0  0  0  0  0  0  0
    5.5078   -6.3792    1.7229 H   0  0  0  0  0  0  0  0  0  0  0  0
    2.6082   -7.3427    1.3746 H   0  0  0  0  0  0  0  0  0  0  0  0
    4.9771   -8.2368    3.2756 H   0  0  0  0  0  0  0  0  0  0  0  0
    3.2414   -8.8562    3.2864 H   0  0  0  0  0  0  0  0  0  0  0  0
    3.4755   -9.6063    0.9503 H   0  0  0  0  0  0  0  0  0  0  0  0
    5.2054   -8.9913    0.8956 H   0  0  0  0  0  0  0  0  0  0  0  0
    6.8308   -1.5212    2.0866 H   0  0  0  0  0  0  0  0  0  0  0  0
    6.8715   -0.3712    0.6056 H   0  0  0  0  0  0  0  0  0  0  0  0
    2.8960   -5.1121    1.3893 H   0  0  0  0  0  0  0  0  0  0  0  0
  1  2  1  0
  1 27  1  0
  1 28  1  0
  1 29  1  0
  3  2  1  6
  3 25  1  0
  3 26  1  0
  3  4  1  0
  5  4  1  6
  4 30  1  0
  4 31  1  0
  5 16  1  0
  5 20  1  0
  5  6  1  0
  6  7  1  0
  6 32  1  0
  6 33  1  0
  7 13  2  0
  7  8  1  0
  8  9  2  0
  8 34  1  0
  9 10  1  0
  9 35  1  0
 10 11  1  0
 10 12  2  0
 11 36  1  0
 12 13  1  0
 12 37  1  0
 13 14  1  0
 14 25  1  0
 14 15  1  0
 14 38  1  6
 15 16  1  0
 16 17  1  1
 16 25  1  0
 17 18  1  0
 17 39  1  0
 17 40  1  0
 18 19  1  0
 18 41  1  0
 18 42  1  0
 19 20  1  0
 19 43  1  0
 19 44  1  0
 20 21  1  0
 20 54  1  6
 21 22  1  0
 21 45  1  0
 21 46  1  0
 22 24  1  0
 22 23  1  0
 22 47  1  0
 23 24  1  0
 23 48  1  0
 23 49  1  0
 24 50  1  0
 24 51  1  0
 25 26  1  1
 26 52  1  0
 26 53  1  0
M  CHG  1  20   1
M  END
>  <i_m_ct_stereo_status>  (92) 
1

>  <s_m_source_file>  (92) 
/var/tmp/pbs.5076255.sched01/tmpxjfjwjbi/40jwkb7fqh.sdf

>  <i_m_source_file_index>  (92) 
4

>  <i_lp_mmshare_version>  (92) 
48012

>  <i_f3d_flags>  (92) 
0

>  <s_epik_input>  (92) 
W09IXWMoW2NIXTEpW2NIXVtjSF1jKFtDSDJdMiljMVtDQEBIXShPMylbQ0BdNChbQ0BdKFtDSDJdNSkoW0NIMl00KU9bQ0gzXSlbQ0BAXTMoW0NAQF0yNTYpW0NIMl1bQ0gyXVtDSDJdTjZbQ0gyXVtDSF03W0NIMl1bQ0gyXTc=

>  <s_epik_cmdline>  (92) 
J2VwaWtfcHl0aG9uJywgJy1waHQnLCAnMi4wJywgJy1waCcsICc3LjAnLCAnLXRuJywgJzgnLCAnLW1hJywgJzIwMCcsICctaW1hZScsICc8aW5maWxlLm1hZT4nLCAnLW9tYWUnLCAnPG91dGZpbGUubWFlPic=

>  <r_lp_tautomer_probability>  (92) 
1

>  <r_epik_Ionization_Penalty>  (92) 
0.0114648

>  <r_epik_Ionization_Penalty_Charging>  (92) 
0.010079

>  <r_epik_Ionization_Penalty_Neutral>  (92) 
0.00138585

>  <r_epik_State_Penalty>  (92) 
0.00768882

>  <r_epik_Charging_Adjusted_Penalty>  (92) 
0.0177678

>  <i_epik_Tot_Q>  (92) 
1

>  <i_epik_Tot_abs_Q>  (92) 
1

>  <s_lp_Force_Field>  (92) 
OPLS3e

>  <r_lp_Energy>  (92) 
73.687

>  <b_lp_Chiralities_Consistent>  (92) 
1

>  <s_lp_Variant>  (92) 
34:0-1

>  <s_i_glide_gridfile>  (92) 
pfpi4k_grid

>  <i_i_glide_lignum>  (92) 
4

>  <i_i_glide_rotatable_bonds>  (92) 
4

>  <r_i_docking_score>  (92) 
-3.32553

>  <r_i_glide_ligand_efficiency>  (92) 
-0.127905

>  <r_i_glide_ligand_efficiency_sa>  (92) 
-0.378918

>  <r_i_glide_ligand_efficiency_ln>  (92) 
-0.78099

>  <r_i_glide_gscore>  (92) 
-3.32553

>  <r_i_glide_lipo>  (92) 
-0.700132

>  <r_i_glide_hbond>  (92) 
-0.16

>  <r_i_glide_metal>  (92) 
-0

>  <r_i_glide_rewards>  (92) 
-0.9923

>  <r_i_glide_evdw>  (92) 
-21.9915

>  <r_i_glide_ecoul>  (92) 
-4.51803

>  <r_i_glide_erotb>  (92) 
0.304178

>  <r_i_glide_esite>  (92) 
0

>  <r_i_glide_emodel>  (92) 
-28.9442

>  <r_i_glide_energy>  (92) 
-26.5095

>  <r_i_glide_einternal>  (92) 
7.37862

>  <r_i_glide_intrahb_reward>  (92) 
-0

>  <i_i_glide_confnum>  (92) 
5

>  <i_i_glide_posenum>  (92) 
33

>  <r_i_glide_eff_state_penalty>  (92) 
0

>  <ligand_id>  (92) 
34

>  <original_smiles>  (92) 
COC12CC34Cc5ccc(O)cc5C5OC3(CCCN4CC3CC3)C51C2

>  <smiles>  (92) 
[H]Oc1c([H])c([H])c2c(c1[H])C1([H])OC34C([H])([H])C([H])([H])C([H])([H])[N+]([H])(C([H])([H])C5([H])C([H])([H])C5([H])[H])C3(C2([H])[H])C([H])([H])C2(OC([H])([H])[H])C([H])([H])C124

$$$$
34:0:1
     RDKit          3D

 54 60  0  0  1  0  0  0  0  0999 V2000
    7.5280   -2.5830   -1.6924 C   0  0  0  0  0  0  0  0  0  0  0  0
    6.4864   -3.4701   -1.3364 O   0  0  0  0  0  0  0  0  0  0  0  0
    6.4339   -3.8798    0.0310 C   0  0  2  0  0  0  0  0  0  0  0  0
    5.6079   -5.1303    0.2624 C   0  0  0  0  0  0  0  0  0  0  0  0
    4.3159   -4.6608    1.0134 C   0  0  2  0  0  0  0  0  0  0  0  0
    3.2185   -4.1771   -0.0212 C   0  0  0  0  0  0  0  0  0  0  0  0
    3.4945   -3.0462   -1.0356 C   0  0  0  0  0  0  0  0  0  0  0  0
    2.8518   -3.1137   -2.2845 C   0  0  0  0  0  0  0  0  0  0  0  0
    2.9852   -2.1058   -3.2548 C   0  0  0  0  0  0  0  0  0  0  0  0
    3.7432   -0.9565   -2.9641 C   0  0  0  0  0  0  0  0  0  0  0  0
    3.7910    0.0640   -3.8596 O   0  0  0  0  0  0  0  0  0  0  0  0
    4.3842   -0.8679   -1.7215 C   0  0  0  0  0  0  0  0  0  0  0  0
    4.2863   -1.8794   -0.7471 C   0  0  0  0  0  0  0  0  0  0  0  0
    4.9931   -1.7050    0.5975 C   0  0  1  0  0  0  0  0  0  0  0  0
    4.1138   -2.1990    1.6417 O   0  0  0  0  0  0  0  0  0  0  0  0
    4.8237   -3.4497    1.8479 C   0  0  1  0  0  0  0  0  0  0  0  0
    5.2410   -3.6548    3.2974 C   0  0  0  0  0  0  0  0  0  0  0  0
    4.2210   -4.5165    4.0065 C   0  0  0  0  0  0  0  0  0  0  0  0
    4.1790   -5.8571    3.2744 C   0  0  0  0  0  0  0  0  0  0  0  0
    3.6832   -5.7460    1.8693 N   0  0  2  0  0  0  0  0  0  0  0  0
    3.6380   -7.0839    1.2268 C   0  0  0  0  0  0  0  0  0  0  0  0
    2.6015   -8.0043    1.8438 C   0  0  0  0  0  0  0  0  0  0  0  0
    3.0195   -9.1570    2.7282 C   0  0  0  0  0  0  0  0  0  0  0  0
    2.4826   -9.4213    1.3464 C   0  0  0  0  0  0  0  0  0  0  0  0
    5.8808   -2.8587    1.0050 C   0  0  1  0  0  0  0  0  0  0  0  0
    7.3517   -3.1939    1.0489 C   0  0  0  0  0  0  0  0  0  0  0  0
    7.4473   -2.2817   -2.7198 H   0  0  0  0  0  0  0  0  0  0  0  0
    8.5326   -2.9741   -1.5307 H   0  0  0  0  0  0  0  0  0  0  0  0
    7.3719   -1.6492   -1.1609 H   0  0  0  0  0  0  0  0  0  0  0  0
    5.4044   -5.6769   -0.6632 H   0  0  0  0  0  0  0  0  0  0  0  0
    6.1993   -5.7793    0.9178 H   0  0  0  0  0  0  0  0  0  0  0  0
    2.9161   -5.0421   -0.6075 H   0  0  0  0  0  0  0  0  0  0  0  0
    2.3266   -3.8977    0.5435 H   0  0  0  0  0  0  0  0  0  0  0  0
    2.1998   -3.9374   -2.5294 H   0  0  0  0  0  0  0  0  0  0  0  0
    2.4591   -2.1736   -4.1943 H   0  0  0  0  0  0  0  0  0  0  0  0
    3.5615    0.9095   -3.4956 H   0  0  0  0  0  0  0  0  0  0  0  0
    4.9211    0.0319   -1.4727 H   0  0  0  0  0  0  0  0  0  0  0  0
    5.3552   -0.6903    0.8000 H   0  0  0  0  0  0  0  0  0  0  0  0
    6.2084   -4.1627    3.3681 H   0  0  0  0  0  0  0  0  0  0  0  0
    5.3534   -2.6938    3.7943 H   0  0  0  0  0  0  0  0  0  0  0  0
    4.5171   -4.6812    5.0392 H   0  0  0  0  0  0  0  0  0  0  0  0
    3.2386   -4.0447    4.0145 H   0  0  0  0  0  0  0  0  0  0  0  0
    5.1614   -6.3365    3.3111 H   0  0  0  0  0  0  0  0  0  0  0  0
    3.5092   -6.5126    3.8368 H   0  0  0  0  0  0  0  0  0  0  0  0
    3.4110   -6.9685    0.1716 H   0  0  0  0  0  0  0  0  0  0  0  0
    4.6194   -7.5628    1.2753 H   0  0  0  0  0  0  0  0  0  0  0  0
    1.6450   -7.5216    2.0563 H   0  0  0  0  0  0  0  0  0  0  0  0
    4.0801   -9.3410    2.8948 H   0  0  0  0  0  0  0  0  0  0  0  0
    2.3661   -9.4083    3.5580 H   0  0  0  0  0  0  0  0  0  0  0  0
    1.4890   -9.8457    1.3118 H   0  0  0  0  0  0  0  0  0  0  0  0
    3.1811   -9.7992    0.6006 H   0  0  0  0  0  0  0  0  0  0  0  0
    7.7161   -3.9084    1.7768 H   0  0  0  0  0  0  0  0  0  0  0  0
    8.0308   -2.3760    0.8092 H   0  0  0  0  0  0  0  0  0  0  0  0
    2.7196   -5.4512    1.9506 H   0  0  0  0  0  0  0  0  0  0  0  0
  1  2  1  0
  1 27  1  0
  1 28  1  0
  1 29  1  0
  3  2  1  6
  3 25  1  0
  3 26  1  0
  3  4  1  0
  5  4  1  6
  4 30  1  0
  4 31  1  0
  5 16  1  0
  5 20  1  0
  5  6  1  0
  6  7  1  0
  6 32  1  0
  6 33  1  0
  7 13  2  0
  7  8  1  0
  8  9  2  0
  8 34  1  0
  9 10  1  0
  9 35  1  0
 10 11  1  0
 10 12  2  0
 11 36  1  0
 12 13  1  0
 12 37  1  0
 13 14  1  0
 14 25  1  0
 14 15  1  0
 14 38  1  1
 15 16  1  0
 16 17  1  1
 16 25  1  0
 17 18  1  0
 17 39  1  0
 17 40  1  0
 18 19  1  0
 18 41  1  0
 18 42  1  0
 19 20  1  0
 19 43  1  0
 19 44  1  0
 20 21  1  0
 20 54  1  1
 21 22  1  0
 21 45  1  0
 21 46  1  0
 22 24  1  0
 22 23  1  0
 22 47  1  0
 23 24  1  0
 23 48  1  0
 23 49  1  0
 24 50  1  0
 24 51  1  0
 25 26  1  1
 26 52  1  0
 26 53  1  0
M  CHG  1  20   1
M  END
>  <i_m_ct_stereo_status>  (93) 
1

>  <s_m_source_file>  (93) 
/var/tmp/pbs.5076255.sched01/tmpxjfjwjbi/40jwkb7fqh.sdf

>  <i_m_source_file_index>  (93) 
4

>  <i_lp_mmshare_version>  (93) 
48012

>  <i_f3d_flags>  (93) 
0

>  <s_epik_input>  (93) 
W09IXWMoW2NIXTEpW2NIXVtjSF1jKFtDSDJdMiljMVtDQEBIXShPMylbQ0BdNChbQ0BdKFtDSDJdNSkoW0NIMl00KU9bQ0gzXSlbQ0BAXTMoW0NAQF0yNTYpW0NIMl1bQ0gyXVtDSDJdTjZbQ0gyXVtDSF03W0NIMl1bQ0gyXTc=

>  <s_epik_cmdline>  (93) 
J2VwaWtfcHl0aG9uJywgJy1waHQnLCAnMi4wJywgJy1waCcsICc3LjAnLCAnLXRuJywgJzgnLCAnLW1hJywgJzIwMCcsICctaW1hZScsICc8aW5maWxlLm1hZT4nLCAnLW9tYWUnLCAnPG91dGZpbGUubWFlPic=

>  <r_lp_tautomer_probability>  (93) 
1

>  <r_epik_Ionization_Penalty>  (93) 
0.0114648

>  <r_epik_Ionization_Penalty_Charging>  (93) 
0.010079

>  <r_epik_Ionization_Penalty_Neutral>  (93) 
0.00138585

>  <r_epik_State_Penalty>  (93) 
0.00768882

>  <r_epik_Charging_Adjusted_Penalty>  (93) 
0.0177678

>  <i_epik_Tot_Q>  (93) 
1

>  <i_epik_Tot_abs_Q>  (93) 
1

>  <s_lp_Force_Field>  (93) 
OPLS3e

>  <r_lp_Energy>  (93) 
73.687

>  <b_lp_Chiralities_Consistent>  (93) 
1

>  <s_lp_Variant>  (93) 
34:0-1

>  <s_i_glide_gridfile>  (93) 
pfpi4k_grid

>  <i_i_glide_lignum>  (93) 
4

>  <i_i_glide_rotatable_bonds>  (93) 
4

>  <r_i_docking_score>  (93) 
-3.30206

>  <r_i_glide_ligand_efficiency>  (93) 
-0.127002

>  <r_i_glide_ligand_efficiency_sa>  (93) 
-0.376244

>  <r_i_glide_ligand_efficiency_ln>  (93) 
-0.775478

>  <r_i_glide_gscore>  (93) 
-3.30206

>  <r_i_glide_lipo>  (93) 
-0.676438

>  <r_i_glide_hbond>  (93) 
-0.190076

>  <r_i_glide_metal>  (93) 
-0

>  <r_i_glide_rewards>  (93) 
-0.9923

>  <r_i_glide_evdw>  (93) 
-22.4547

>  <r_i_glide_ecoul>  (93) 
-4.16458

>  <r_i_glide_erotb>  (93) 
0.304178

>  <r_i_glide_esite>  (93) 
0

>  <r_i_glide_emodel>  (93) 
-27.6398

>  <r_i_glide_energy>  (93) 
-26.6193

>  <r_i_glide_einternal>  (93) 
9.71691

>  <r_i_glide_intrahb_reward>  (93) 
-0

>  <i_i_glide_confnum>  (93) 
5

>  <i_i_glide_posenum>  (93) 
29

>  <r_i_glide_eff_state_penalty>  (93) 
0

>  <ligand_id>  (93) 
34

>  <original_smiles>  (93) 
COC12CC34Cc5ccc(O)cc5C5OC3(CCCN4CC3CC3)C51C2

>  <smiles>  (93) 
[H]Oc1c([H])c([H])c2c(c1[H])C1([H])OC34C([H])([H])C([H])([H])C([H])([H])[N+]([H])(C([H])([H])C5([H])C([H])([H])C5([H])[H])C3(C2([H])[H])C([H])([H])C2(OC([H])([H])[H])C([H])([H])C124

$$$$
34:0:2
     RDKit          3D

 54 60  0  0  1  0  0  0  0  0999 V2000
    0.7937   -2.8112    3.9224 C   0  0  0  0  0  0  0  0  0  0  0  0
    1.5191   -3.9438    3.4942 O   0  0  0  0  0  0  0  0  0  0  0  0
    2.7554   -3.5952    2.8552 C   0  0  2  0  0  0  0  0  0  0  0  0
    2.7039   -3.1539    1.4169 C   0  0  0  0  0  0  0  0  0  0  0  0
    3.3415   -4.3046    0.5949 C   0  0  2  0  0  0  0  0  0  0  0  0
    2.2604   -5.4401    0.3066 C   0  0  0  0  0  0  0  0  0  0  0  0
    1.5374   -6.2076    1.4297 C   0  0  0  0  0  0  0  0  0  0  0  0
    0.2058   -6.6582    1.1867 C   0  0  0  0  0  0  0  0  0  0  0  0
   -0.4954   -7.4087    2.1251 C   0  0  0  0  0  0  0  0  0  0  0  0
    0.1153   -7.7687    3.3538 C   0  0  0  0  0  0  0  0  0  0  0  0
   -0.5764   -8.5221    4.2332 O   0  0  0  0  0  0  0  0  0  0  0  0
    1.4287   -7.3499    3.6078 C   0  0  0  0  0  0  0  0  0  0  0  0
    2.1322   -6.5757    2.6774 C   0  0  0  0  0  0  0  0  0  0  0  0
    3.5442   -6.1591    3.0168 C   0  0  1  0  0  0  0  0  0  0  0  0
    4.3738   -6.2956    1.8259 O   0  0  0  0  0  0  0  0  0  0  0  0
    4.4317   -4.8645    1.5617 C   0  0  1  0  0  0  0  0  0  0  0  0
    5.8719   -4.3504    1.4635 C   0  0  0  0  0  0  0  0  0  0  0  0
    6.2503   -4.2998    0.0069 C   0  0  0  0  0  0  0  0  0  0  0  0
    5.3043   -3.3380   -0.6898 C   0  0  0  0  0  0  0  0  0  0  0  0
    3.8921   -3.8373   -0.7313 N   0  0  2  0  0  0  0  0  0  0  0  0
    3.0168   -2.9112   -1.5072 C   0  0  0  0  0  0  0  0  0  0  0  0
    3.3145   -2.8298   -3.0052 C   0  0  0  0  0  0  0  0  0  0  0  0
    4.3756   -3.6651   -3.7061 C   0  0  0  0  0  0  0  0  0  0  0  0
    4.5781   -2.1822   -3.5330 C   0  0  0  0  0  0  0  0  0  0  0  0
    3.8139   -4.6886    2.8927 C   0  0  1  0  0  0  0  0  0  0  0  0
    3.9097   -3.4977    3.8279 C   0  0  0  0  0  0  0  0  0  0  0  0
   -0.1220   -3.1598    4.3991 H   0  0  0  0  0  0  0  0  0  0  0  0
    0.5094   -2.1762    3.0837 H   0  0  0  0  0  0  0  0  0  0  0  0
    1.3379   -2.2110    4.6548 H   0  0  0  0  0  0  0  0  0  0  0  0
    1.7094   -2.8652    1.1065 H   0  0  0  0  0  0  0  0  0  0  0  0
    3.3235   -2.2469    1.3248 H   0  0  0  0  0  0  0  0  0  0  0  0
    1.4818   -5.0387   -0.3569 H   0  0  0  0  0  0  0  0  0  0  0  0
    2.7484   -6.2185   -0.2952 H   0  0  0  0  0  0  0  0  0  0  0  0
   -0.2803   -6.4331    0.2392 H   0  0  0  0  0  0  0  0  0  0  0  0
   -1.4977   -7.7534    1.9262 H   0  0  0  0  0  0  0  0  0  0  0  0
   -0.0523   -8.9729    4.8744 H   0  0  0  0  0  0  0  0  0  0  0  0
    1.9014   -7.6450    4.5287 H   0  0  0  0  0  0  0  0  0  0  0  0
    4.0084   -6.6633    3.8632 H   0  0  0  0  0  0  0  0  0  0  0  0
    5.9816   -3.3460    1.8658 H   0  0  0  0  0  0  0  0  0  0  0  0
    6.5588   -5.0082    2.0156 H   0  0  0  0  0  0  0  0  0  0  0  0
    7.2779   -3.9696   -0.1086 H   0  0  0  0  0  0  0  0  0  0  0  0
    6.1646   -5.2972   -0.4329 H   0  0  0  0  0  0  0  0  0  0  0  0
    5.3647   -2.3472   -0.2034 H   0  0  0  0  0  0  0  0  0  0  0  0
    5.7553   -3.2666   -1.6911 H   0  0  0  0  0  0  0  0  0  0  0  0
    1.9848   -3.2205   -1.4174 H   0  0  0  0  0  0  0  0  0  0  0  0
    3.0331   -1.9080   -1.0784 H   0  0  0  0  0  0  0  0  0  0  0  0
    2.4175   -2.5793   -3.5671 H   0  0  0  0  0  0  0  0  0  0  0  0
    4.8616   -4.3981   -3.0533 H   0  0  0  0  0  0  0  0  0  0  0  0
    4.1381   -3.9999   -4.7110 H   0  0  0  0  0  0  0  0  0  0  0  0
    4.4964   -1.5927   -4.4404 H   0  0  0  0  0  0  0  0  0  0  0  0
    5.1918   -1.7538   -2.7432 H   0  0  0  0  0  0  0  0  0  0  0  0
    4.6186   -2.6931    3.5898 H   0  0  0  0  0  0  0  0  0  0  0  0
    3.6924   -3.6679    4.8743 H   0  0  0  0  0  0  0  0  0  0  0  0
    3.9120   -4.6835   -1.2988 H   0  0  0  0  0  0  0  0  0  0  0  0
  1  2  1  0
  1 27  1  0
  1 28  1  0
  1 29  1  0
  3  2  1  1
  3 25  1  0
  3 26  1  0
  3  4  1  0
  5  4  1  1
  4 30  1  0
  4 31  1  0
  5 16  1  0
  5 20  1  0
  5  6  1  0
  6  7  1  0
  6 32  1  0
  6 33  1  0
  7 13  2  0
  7  8  1  0
  8  9  2  0
  8 34  1  0
  9 10  1  0
  9 35  1  0
 10 11  1  0
 10 12  2  0
 11 36  1  0
 12 13  1  0
 12 37  1  0
 13 14  1  0
 14 25  1  0
 14 15  1  0
 14 38  1  1
 15 16  1  0
 16 17  1  1
 16 25  1  0
 17 18  1  0
 17 39  1  0
 17 40  1  0
 18 19  1  0
 18 41  1  0
 18 42  1  0
 19 20  1  0
 19 43  1  0
 19 44  1  0
 20 21  1  0
 20 54  1  6
 21 22  1  0
 21 45  1  0
 21 46  1  0
 22 24  1  0
 22 23  1  0
 22 47  1  0
 23 24  1  0
 23 48  1  0
 23 49  1  0
 24 50  1  0
 24 51  1  0
 25 26  1  1
 26 52  1  0
 26 53  1  0
M  CHG  1  20   1
M  END
>  <i_m_ct_stereo_status>  (94) 
1

>  <s_m_source_file>  (94) 
/var/tmp/pbs.5076255.sched01/tmpxjfjwjbi/40jwkb7fqh.sdf

>  <i_m_source_file_index>  (94) 
4

>  <i_lp_mmshare_version>  (94) 
48012

>  <i_f3d_flags>  (94) 
0

>  <s_epik_input>  (94) 
W09IXWMoW2NIXTEpW2NIXVtjSF1jKFtDSDJdMiljMVtDQEBIXShPMylbQ0BdNChbQ0BdKFtDSDJdNSkoW0NIMl00KU9bQ0gzXSlbQ0BAXTMoW0NAQF0yNTYpW0NIMl1bQ0gyXVtDSDJdTjZbQ0gyXVtDSF03W0NIMl1bQ0gyXTc=

>  <s_epik_cmdline>  (94) 
J2VwaWtfcHl0aG9uJywgJy1waHQnLCAnMi4wJywgJy1waCcsICc3LjAnLCAnLXRuJywgJzgnLCAnLW1hJywgJzIwMCcsICctaW1hZScsICc8aW5maWxlLm1hZT4nLCAnLW9tYWUnLCAnPG91dGZpbGUubWFlPic=

>  <r_lp_tautomer_probability>  (94) 
1

>  <r_epik_Ionization_Penalty>  (94) 
0.0114648

>  <r_epik_Ionization_Penalty_Charging>  (94) 
0.010079

>  <r_epik_Ionization_Penalty_Neutral>  (94) 
0.00138585

>  <r_epik_State_Penalty>  (94) 
0.00768882

>  <r_epik_Charging_Adjusted_Penalty>  (94) 
0.0177678

>  <i_epik_Tot_Q>  (94) 
1

>  <i_epik_Tot_abs_Q>  (94) 
1

>  <s_lp_Force_Field>  (94) 
OPLS3e

>  <r_lp_Energy>  (94) 
73.687

>  <b_lp_Chiralities_Consistent>  (94) 
1

>  <s_lp_Variant>  (94) 
34:0-1

>  <s_i_glide_gridfile>  (94) 
pfpi4k_grid

>  <i_i_glide_lignum>  (94) 
4

>  <i_i_glide_rotatable_bonds>  (94) 
4

>  <r_i_docking_score>  (94) 
-2.96673

>  <r_i_glide_ligand_efficiency>  (94) 
-0.114105

>  <r_i_glide_ligand_efficiency_sa>  (94) 
-0.338035

>  <r_i_glide_ligand_efficiency_ln>  (94) 
-0.696726

>  <r_i_glide_gscore>  (94) 
-2.96673

>  <r_i_glide_lipo>  (94) 
-0.419058

>  <r_i_glide_hbond>  (94) 
0

>  <r_i_glide_metal>  (94) 
-0

>  <r_i_glide_rewards>  (94) 
-0.9923

>  <r_i_glide_evdw>  (94) 
-24.2054

>  <r_i_glide_ecoul>  (94) 
-4.25503

>  <r_i_glide_erotb>  (94) 
0.304178

>  <r_i_glide_esite>  (94) 
-0.0110221

>  <r_i_glide_emodel>  (94) 
-27.2961

>  <r_i_glide_energy>  (94) 
-28.4605

>  <r_i_glide_einternal>  (94) 
10.9358

>  <r_i_glide_intrahb_reward>  (94) 
-0

>  <i_i_glide_confnum>  (94) 
3

>  <i_i_glide_posenum>  (94) 
19

>  <r_i_glide_eff_state_penalty>  (94) 
0

>  <ligand_id>  (94) 
34

>  <original_smiles>  (94) 
COC12CC34Cc5ccc(O)cc5C5OC3(CCCN4CC3CC3)C51C2

>  <smiles>  (94) 
[H]Oc1c([H])c([H])c2c(c1[H])C1([H])OC34C([H])([H])C([H])([H])C([H])([H])[N+]([H])(C([H])([H])C5([H])C([H])([H])C5([H])[H])C3(C2([H])[H])C([H])([H])C2(OC([H])([H])[H])C([H])([H])C124

$$$$
34:1:0
     RDKit          3D

 53 59  0  0  1  0  0  0  0  0999 V2000
    8.1278   -2.2667   -0.7310 C   0  0  0  0  0  0  0  0  0  0  0  0
    6.7638   -1.9637   -0.4692 O   0  0  0  0  0  0  0  0  0  0  0  0
    6.2801   -2.4414    0.7810 C   0  0  2  0  0  0  0  0  0  0  0  0
    6.3603   -3.9365    1.0789 C   0  0  0  0  0  0  0  0  0  0  0  0
    4.8938   -4.4339    1.0644 C   0  0  2  0  0  0  0  0  0  0  0  0
    4.4232   -4.6717   -0.4153 C   0  0  0  0  0  0  0  0  0  0  0  0
    4.4174   -3.5356   -1.4685 C   0  0  0  0  0  0  0  0  0  0  0  0
    4.6911   -3.9181   -2.7912 C   0  0  0  0  0  0  0  0  0  0  0  0
    4.5233   -3.0497   -3.8606 C   0  0  0  0  0  0  0  0  0  0  0  0
    4.1561   -1.7068   -3.6227 C   0  0  0  0  0  0  0  0  0  0  0  0
    4.0044   -0.8585   -4.6733 O   0  0  0  0  0  0  0  0  0  0  0  0
    3.9401   -1.2818   -2.3089 C   0  0  0  0  0  0  0  0  0  0  0  0
    4.0483   -2.1876   -1.2275 C   0  0  0  0  0  0  0  0  0  0  0  0
    3.7513   -1.7140    0.1776 C   0  0  1  0  0  0  0  0  0  0  0  0
    2.9852   -2.7396    0.8798 O   0  0  0  0  0  0  0  0  0  0  0  0
    4.1100   -3.2358    1.6686 C   0  0  1  0  0  0  0  0  0  0  0  0
    3.8365   -3.2207    3.1784 C   0  0  0  0  0  0  0  0  0  0  0  0
    3.4735   -4.6161    3.6759 C   0  0  0  0  0  0  0  0  0  0  0  0
    4.5767   -5.5852    3.2543 C   0  0  0  0  0  0  0  0  0  0  0  0
    4.6801   -5.7113    1.7985 N   0  0  0  0  0  0  0  0  0  0  0  0
    5.6154   -6.7834    1.4471 C   0  0  0  0  0  0  0  0  0  0  0  0
    4.9600   -8.1441    1.3561 C   0  0  0  0  0  0  0  0  0  0  0  0
    5.0347   -9.1335    2.4952 C   0  0  0  0  0  0  0  0  0  0  0  0
    5.8082   -9.3875    1.2273 C   0  0  0  0  0  0  0  0  0  0  0  0
    4.8449   -2.0507    1.1523 C   0  0  1  0  0  0  0  0  0  0  0  0
    6.0038   -1.3072    1.7453 C   0  0  0  0  0  0  0  0  0  0  0  0
    8.3839   -1.8734   -1.7092 H   0  0  0  0  0  0  0  0  0  0  0  0
    8.3269   -3.3355   -0.7942 H   0  0  0  0  0  0  0  0  0  0  0  0
    8.7862   -1.8103    0.0096 H   0  0  0  0  0  0  0  0  0  0  0  0
    6.9764   -4.4970    0.3700 H   0  0  0  0  0  0  0  0  0  0  0  0
    6.7937   -4.0538    2.0696 H   0  0  0  0  0  0  0  0  0  0  0  0
    4.9827   -5.4970   -0.8550 H   0  0  0  0  0  0  0  0  0  0  0  0
    3.4025   -5.0521   -0.3612 H   0  0  0  0  0  0  0  0  0  0  0  0
    4.9334   -4.9412   -3.0319 H   0  0  0  0  0  0  0  0  0  0  0  0
    4.6692   -3.4640   -4.8378 H   0  0  0  0  0  0  0  0  0  0  0  0
    3.6349   -0.0217   -4.4075 H   0  0  0  0  0  0  0  0  0  0  0  0
    3.6365   -0.2608   -2.1202 H   0  0  0  0  0  0  0  0  0  0  0  0
    3.2765   -0.7371    0.2524 H   0  0  0  0  0  0  0  0  0  0  0  0
    4.7080   -2.8800    3.7432 H   0  0  0  0  0  0  0  0  0  0  0  0
    3.0384   -2.5153    3.3996 H   0  0  0  0  0  0  0  0  0  0  0  0
    3.3518   -4.6190    4.7612 H   0  0  0  0  0  0  0  0  0  0  0  0
    2.5244   -4.9398    3.2468 H   0  0  0  0  0  0  0  0  0  0  0  0
    5.5283   -5.2595    3.6721 H   0  0  0  0  0  0  0  0  0  0  0  0
    4.3540   -6.5603    3.6884 H   0  0  0  0  0  0  0  0  0  0  0  0
    6.0911   -6.5947    0.4873 H   0  0  0  0  0  0  0  0  0  0  0  0
    6.4246   -6.8126    2.1739 H   0  0  0  0  0  0  0  0  0  0  0  0
    4.0467   -8.1360    0.7648 H   0  0  0  0  0  0  0  0  0  0  0  0
    5.5850   -8.8397    3.3885 H   0  0  0  0  0  0  0  0  0  0  0  0
    4.1543   -9.7513    2.6692 H   0  0  0  0  0  0  0  0  0  0  0  0
    5.4353  -10.1819    0.5828 H   0  0  0  0  0  0  0  0  0  0  0  0
    6.8907   -9.2665    1.2525 H   0  0  0  0  0  0  0  0  0  0  0  0
    6.2373   -1.4925    2.7860 H   0  0  0  0  0  0  0  0  0  0  0  0
    6.1558   -0.2896    1.3802 H   0  0  0  0  0  0  0  0  0  0  0  0
  1  2  1  0
  1 27  1  0
  1 28  1  0
  1 29  1  0
  3  2  1  6
  3 25  1  0
  3 26  1  0
  3  4  1  0
  4  5  1  0
  4 30  1  0
  4 31  1  0
  5 16  1  0
  5 20  1  1
  5  6  1  0
  6  7  1  0
  6 32  1  0
  6 33  1  0
  7 13  2  0
  7  8  1  0
  8  9  2  0
  8 34  1  0
  9 10  1  0
  9 35  1  0
 10 11  1  0
 10 12  2  0
 11 36  1  0
 12 13  1  0
 12 37  1  0
 13 14  1  0
 14 25  1  0
 14 15  1  0
 14 38  1  6
 15 16  1  0
 16 17  1  1
 16 25  1  0
 17 18  1  0
 17 39  1  0
 17 40  1  0
 18 19  1  0
 18 41  1  0
 18 42  1  0
 19 20  1  0
 19 43  1  0
 19 44  1  0
 20 21  1  0
 21 22  1  0
 21 45  1  0
 21 46  1  0
 22 24  1  0
 22 23  1  0
 22 47  1  0
 23 24  1  0
 23 48  1  0
 23 49  1  0
 24 50  1  0
 24 51  1  0
 25 26  1  1
 26 52  1  0
 26 53  1  0
M  END
>  <i_m_ct_stereo_status>  (95) 
1

>  <s_m_source_file>  (95) 
/var/tmp/pbs.5076255.sched01/tmpxjfjwjbi/40jwkb7fqh.sdf

>  <i_m_source_file_index>  (95) 
5

>  <i_lp_mmshare_version>  (95) 
48012

>  <i_f3d_flags>  (95) 
0

>  <s_epik_input>  (95) 
W09IXWMoW2NIXTEpW2NIXVtjSF1jKFtDSDJdMiljMVtDQEBIXShPMylbQ0BdNChbQ0BdKFtDSDJdNSkoW0NIMl00KU9bQ0gzXSlbQ0BAXTMoW0NAQF0yNTYpW0NIMl1bQ0gyXVtDSDJdTjZbQ0gyXVtDSF03W0NIMl1bQ0gyXTc=

>  <s_epik_cmdline>  (95) 
J2VwaWtfcHl0aG9uJywgJy1waHQnLCAnMi4wJywgJy1waCcsICc3LjAnLCAnLXRuJywgJzgnLCAnLW1hJywgJzIwMCcsICctaW1hZScsICc8aW5maWxlLm1hZT4nLCAnLW9tYWUnLCAnPG91dGZpbGUubWFlPic=

>  <r_lp_tautomer_probability>  (95) 
1

>  <r_epik_Ionization_Penalty>  (95) 
2.41898

>  <r_epik_Ionization_Penalty_Charging>  (95) 
0

>  <r_epik_Ionization_Penalty_Neutral>  (95) 
2.41898

>  <r_epik_State_Penalty>  (95) 
2.57793

>  <r_epik_Charging_Adjusted_Penalty>  (95) 
2.57793

>  <i_epik_Tot_Q>  (95) 
0

>  <i_epik_Tot_abs_Q>  (95) 
0

>  <s_lp_Force_Field>  (95) 
OPLS3e

>  <r_lp_Energy>  (95) 
72.716

>  <b_lp_Chiralities_Consistent>  (95) 
1

>  <s_lp_Variant>  (95) 
34:0-2

>  <s_i_glide_gridfile>  (95) 
pfpi4k_grid

>  <i_i_glide_lignum>  (95) 
5

>  <i_i_glide_rotatable_bonds>  (95) 
4

>  <r_i_docking_score>  (95) 
-3.51727

>  <r_i_glide_ligand_efficiency>  (95) 
-0.13528

>  <r_i_glide_ligand_efficiency_sa>  (95) 
-0.400765

>  <r_i_glide_ligand_efficiency_ln>  (95) 
-0.826019

>  <r_i_glide_gscore>  (95) 
-3.51727

>  <r_i_glide_lipo>  (95) 
-0.898452

>  <r_i_glide_hbond>  (95) 
-0.377137

>  <r_i_glide_metal>  (95) 
-0

>  <r_i_glide_rewards>  (95) 
-0.999173

>  <r_i_glide_evdw>  (95) 
-24.3009

>  <r_i_glide_ecoul>  (95) 
-2.22124

>  <r_i_glide_erotb>  (95) 
0.305723

>  <r_i_glide_esite>  (95) 
0

>  <r_i_glide_emodel>  (95) 
-31.6512

>  <r_i_glide_energy>  (95) 
-26.5222

>  <r_i_glide_einternal>  (95) 
1.1748

>  <r_i_glide_intrahb_reward>  (95) 
-0

>  <i_i_glide_confnum>  (95) 
2

>  <i_i_glide_posenum>  (95) 
39

>  <r_i_glide_eff_state_penalty>  (95) 
0

>  <ligand_id>  (95) 
34

>  <original_smiles>  (95) 
COC12CC34Cc5ccc(O)cc5C5OC3(CCCN4CC3CC3)C51C2

>  <smiles>  (95) 
[H]Oc1c([H])c([H])c2c(c1[H])C1([H])OC34C([H])([H])C([H])([H])C([H])([H])N(C([H])([H])C5([H])C([H])([H])C5([H])[H])C3(C2([H])[H])C([H])([H])C2(OC([H])([H])[H])C([H])([H])C124

$$$$
34:1:1
     RDKit          3D

 53 59  0  0  1  0  0  0  0  0999 V2000
    7.6252   -2.9307   -1.2202 C   0  0  0  0  0  0  0  0  0  0  0  0
    6.3026   -2.4972   -0.9641 O   0  0  0  0  0  0  0  0  0  0  0  0
    5.9105   -2.5205    0.3894 C   0  0  2  0  0  0  0  0  0  0  0  0
    5.2552   -3.7752    0.9409 C   0  0  0  0  0  0  0  0  0  0  0  0
    3.7836   -3.3672    1.2331 C   0  0  2  0  0  0  0  0  0  0  0  0
    2.9314   -3.4511   -0.0882 C   0  0  0  0  0  0  0  0  0  0  0  0
    3.2962   -2.6483   -1.3590 C   0  0  0  0  0  0  0  0  0  0  0  0
    2.9390   -3.2343   -2.6043 C   0  0  0  0  0  0  0  0  0  0  0  0
    3.1493   -2.5606   -3.8214 C   0  0  0  0  0  0  0  0  0  0  0  0
    3.6596   -1.2603   -3.8181 C   0  0  0  0  0  0  0  0  0  0  0  0
    3.7802   -0.5510   -4.9921 O   0  0  0  0  0  0  0  0  0  0  0  0
    4.0122   -0.6592   -2.5934 C   0  0  0  0  0  0  0  0  0  0  0  0
    3.8222   -1.3419   -1.3613 C   0  0  0  0  0  0  0  0  0  0  0  0
    4.1145   -0.6032   -0.0703 C   0  0  1  0  0  0  0  0  0  0  0  0
    3.1165   -0.9514    0.9252 O   0  0  0  0  0  0  0  0  0  0  0  0
    3.9260   -1.8885    1.6670 C   0  0  1  0  0  0  0  0  0  0  0  0
    4.0110   -1.5384    3.1535 C   0  0  0  0  0  0  0  0  0  0  0  0
    3.0688   -2.4136    3.9771 C   0  0  0  0  0  0  0  0  0  0  0  0
    3.3578   -3.8772    3.6395 C   0  0  0  0  0  0  0  0  0  0  0  0
    3.0569   -4.1886    2.2393 N   0  0  0  0  0  0  0  0  0  0  0  0
    3.1715   -5.6330    2.0090 C   0  0  0  0  0  0  0  0  0  0  0  0
    1.8557   -6.3626    2.1887 C   0  0  0  0  0  0  0  0  0  0  0  0
    1.7006   -7.7839    1.7012 C   0  0  0  0  0  0  0  0  0  0  0  0
    0.9917   -6.6666    0.9859 C   0  0  0  0  0  0  0  0  0  0  0  0
    5.0251   -1.3723    0.8304 C   0  0  1  0  0  0  0  0  0  0  0  0
    6.4906   -1.3430    1.1188 C   0  0  0  0  0  0  0  0  0  0  0  0
    7.7856   -2.9283   -2.3031 H   0  0  0  0  0  0  0  0  0  0  0  0
    7.7975   -3.9342   -0.8420 H   0  0  0  0  0  0  0  0  0  0  0  0
    8.3664   -2.2645   -0.7832 H   0  0  0  0  0  0  0  0  0  0  0  0
    5.3680   -4.6148    0.2499 H   0  0  0  0  0  0  0  0  0  0  0  0
    5.7550   -4.0135    1.8691 H   0  0  0  0  0  0  0  0  0  0  0  0
    2.8551   -4.4879   -0.4129 H   0  0  0  0  0  0  0  0  0  0  0  0
    1.9072   -3.1589    0.1529 H   0  0  0  0  0  0  0  0  0  0  0  0
    2.4523   -4.1877   -2.6313 H   0  0  0  0  0  0  0  0  0  0  0  0
    2.8684   -3.0576   -4.7440 H   0  0  0  0  0  0  0  0  0  0  0  0
    3.1302   -0.8032   -5.6359 H   0  0  0  0  0  0  0  0  0  0  0  0
    4.3247    0.3774   -2.5970 H   0  0  0  0  0  0  0  0  0  0  0  0
    4.2608    0.4755   -0.1232 H   0  0  0  0  0  0  0  0  0  0  0  0
    5.0182   -1.6900    3.5349 H   0  0  0  0  0  0  0  0  0  0  0  0
    3.7898   -0.4828    3.3194 H   0  0  0  0  0  0  0  0  0  0  0  0
    3.1960   -2.2250    5.0495 H   0  0  0  0  0  0  0  0  0  0  0  0
    2.0290   -2.1815    3.7345 H   0  0  0  0  0  0  0  0  0  0  0  0
    4.4000   -4.1034    3.8816 H   0  0  0  0  0  0  0  0  0  0  0  0
    2.7408   -4.4934    4.2924 H   0  0  0  0  0  0  0  0  0  0  0  0
    3.5402   -5.8571    1.0075 H   0  0  0  0  0  0  0  0  0  0  0  0
    3.8979   -6.0695    2.7002 H   0  0  0  0  0  0  0  0  0  0  0  0
    1.3411   -6.1294    3.1183 H   0  0  0  0  0  0  0  0  0  0  0  0
    2.5675   -8.2404    1.2280 H   0  0  0  0  0  0  0  0  0  0  0  0
    1.0835   -8.4630    2.2909 H   0  0  0  0  0  0  0  0  0  0  0  0
   -0.0910   -6.6194    1.0990 H   0  0  0  0  0  0  0  0  0  0  0  0
    1.3743   -6.3528    0.0172 H   0  0  0  0  0  0  0  0  0  0  0  0
    6.8297   -1.5483    2.1257 H   0  0  0  0  0  0  0  0  0  0  0  0
    7.1173   -0.6481    0.5431 H   0  0  0  0  0  0  0  0  0  0  0  0
  1  2  1  0
  1 27  1  0
  1 28  1  0
  1 29  1  0
  3  2  1  6
  3 25  1  0
  3 26  1  0
  3  4  1  0
  4  5  1  0
  4 30  1  0
  4 31  1  0
  5 16  1  0
  5 20  1  1
  5  6  1  0
  6  7  1  0
  6 32  1  0
  6 33  1  0
  7 13  2  0
  7  8  1  0
  8  9  2  0
  8 34  1  0
  9 10  1  0
  9 35  1  0
 10 11  1  0
 10 12  2  0
 11 36  1  0
 12 13  1  0
 12 37  1  0
 13 14  1  0
 14 25  1  0
 14 15  1  0
 14 38  1  6
 15 16  1  0
 16 17  1  1
 16 25  1  0
 17 18  1  0
 17 39  1  0
 17 40  1  0
 18 19  1  0
 18 41  1  0
 18 42  1  0
 19 20  1  0
 19 43  1  0
 19 44  1  0
 20 21  1  0
 21 22  1  0
 21 45  1  0
 21 46  1  0
 22 24  1  0
 22 23  1  0
 22 47  1  0
 23 24  1  0
 23 48  1  0
 23 49  1  0
 24 50  1  0
 24 51  1  0
 25 26  1  1
 26 52  1  0
 26 53  1  0
M  END
>  <i_m_ct_stereo_status>  (96) 
1

>  <s_m_source_file>  (96) 
/var/tmp/pbs.5076255.sched01/tmpxjfjwjbi/40jwkb7fqh.sdf

>  <i_m_source_file_index>  (96) 
5

>  <i_lp_mmshare_version>  (96) 
48012

>  <i_f3d_flags>  (96) 
0

>  <s_epik_input>  (96) 
W09IXWMoW2NIXTEpW2NIXVtjSF1jKFtDSDJdMiljMVtDQEBIXShPMylbQ0BdNChbQ0BdKFtDSDJdNSkoW0NIMl00KU9bQ0gzXSlbQ0BAXTMoW0NAQF0yNTYpW0NIMl1bQ0gyXVtDSDJdTjZbQ0gyXVtDSF03W0NIMl1bQ0gyXTc=

>  <s_epik_cmdline>  (96) 
J2VwaWtfcHl0aG9uJywgJy1waHQnLCAnMi4wJywgJy1waCcsICc3LjAnLCAnLXRuJywgJzgnLCAnLW1hJywgJzIwMCcsICctaW1hZScsICc8aW5maWxlLm1hZT4nLCAnLW9tYWUnLCAnPG91dGZpbGUubWFlPic=

>  <r_lp_tautomer_probability>  (96) 
1

>  <r_epik_Ionization_Penalty>  (96) 
2.41898

>  <r_epik_Ionization_Penalty_Charging>  (96) 
0

>  <r_epik_Ionization_Penalty_Neutral>  (96) 
2.41898

>  <r_epik_State_Penalty>  (96) 
2.57793

>  <r_epik_Charging_Adjusted_Penalty>  (96) 
2.57793

>  <i_epik_Tot_Q>  (96) 
0

>  <i_epik_Tot_abs_Q>  (96) 
0

>  <s_lp_Force_Field>  (96) 
OPLS3e

>  <r_lp_Energy>  (96) 
72.716

>  <b_lp_Chiralities_Consistent>  (96) 
1

>  <s_lp_Variant>  (96) 
34:0-2

>  <s_i_glide_gridfile>  (96) 
pfpi4k_grid

>  <i_i_glide_lignum>  (96) 
5

>  <i_i_glide_rotatable_bonds>  (96) 
4

>  <r_i_docking_score>  (96) 
-3.26325

>  <r_i_glide_ligand_efficiency>  (96) 
-0.12551

>  <r_i_glide_ligand_efficiency_sa>  (96) 
-0.371822

>  <r_i_glide_ligand_efficiency_ln>  (96) 
-0.766364

>  <r_i_glide_gscore>  (96) 
-3.26325

>  <r_i_glide_lipo>  (96) 
-0.650939

>  <r_i_glide_hbond>  (96) 
-0.398089

>  <r_i_glide_metal>  (96) 
-0

>  <r_i_glide_rewards>  (96) 
-0.999173

>  <r_i_glide_evdw>  (96) 
-25.3401

>  <r_i_glide_ecoul>  (96) 
-1.69179

>  <r_i_glide_erotb>  (96) 
0.305723

>  <r_i_glide_esite>  (96) 
0

>  <r_i_glide_emodel>  (96) 
-31.3884

>  <r_i_glide_energy>  (96) 
-27.0319

>  <r_i_glide_einternal>  (96) 
1.58508

>  <r_i_glide_intrahb_reward>  (96) 
-0

>  <i_i_glide_confnum>  (96) 
4

>  <i_i_glide_posenum>  (96) 
35

>  <r_i_glide_eff_state_penalty>  (96) 
0

>  <ligand_id>  (96) 
34

>  <original_smiles>  (96) 
COC12CC34Cc5ccc(O)cc5C5OC3(CCCN4CC3CC3)C51C2

>  <smiles>  (96) 
[H]Oc1c([H])c([H])c2c(c1[H])C1([H])OC34C([H])([H])C([H])([H])C([H])([H])N(C([H])([H])C5([H])C([H])([H])C5([H])[H])C3(C2([H])[H])C([H])([H])C2(OC([H])([H])[H])C([H])([H])C124

$$$$
34:1:2
     RDKit          3D

 53 59  0  0  1  0  0  0  0  0999 V2000
    6.9999   -3.0833   -1.9994 C   0  0  0  0  0  0  0  0  0  0  0  0
    5.9583   -3.8409   -1.3843 O   0  0  0  0  0  0  0  0  0  0  0  0
    5.8918   -3.8981    0.0546 C   0  0  2  0  0  0  0  0  0  0  0  0
    4.8999   -4.9209    0.5866 C   0  0  0  0  0  0  0  0  0  0  0  0
    3.7222   -4.1036    1.2045 C   0  0  2  0  0  0  0  0  0  0  0  0
    2.6954   -3.7035    0.0782 C   0  0  0  0  0  0  0  0  0  0  0  0
    3.1082   -2.8849   -1.1594 C   0  0  0  0  0  0  0  0  0  0  0  0
    2.4143   -3.1548   -2.3469 C   0  0  0  0  0  0  0  0  0  0  0  0
    2.6404   -2.3972   -3.5145 C   0  0  0  0  0  0  0  0  0  0  0  0
    3.5587   -1.3482   -3.5005 C   0  0  0  0  0  0  0  0  0  0  0  0
    3.7543   -0.5993   -4.6255 O   0  0  0  0  0  0  0  0  0  0  0  0
    4.2612   -1.0493   -2.3146 C   0  0  0  0  0  0  0  0  0  0  0  0
    4.0506   -1.8065   -1.1408 C   0  0  0  0  0  0  0  0  0  0  0  0
    4.8149   -1.4508    0.1289 C   0  0  1  0  0  0  0  0  0  0  0  0
    3.9102   -1.5502    1.2654 O   0  0  0  0  0  0  0  0  0  0  0  0
    4.4276   -2.8270    1.7439 C   0  0  1  0  0  0  0  0  0  0  0  0
    4.8824   -2.7870    3.2072 C   0  0  0  0  0  0  0  0  0  0  0  0
    3.8364   -3.4138    4.1199 C   0  0  0  0  0  0  0  0  0  0  0  0
    3.5313   -4.8169    3.6009 C   0  0  0  0  0  0  0  0  0  0  0  0
    2.9335   -4.8085    2.2641 N   0  0  0  0  0  0  0  0  0  0  0  0
    2.4708   -6.1473    1.8969 C   0  0  0  0  0  0  0  0  0  0  0  0
    1.0271   -6.4105    2.2587 C   0  0  0  0  0  0  0  0  0  0  0  0
    0.4326   -7.7873    2.0730 C   0  0  0  0  0  0  0  0  0  0  0  0
    0.0209   -6.6641    1.1583 C   0  0  0  0  0  0  0  0  0  0  0  0
    5.5295   -2.6119    0.7756 C   0  0  1  0  0  0  0  0  0  0  0  0
    6.9463   -3.1442    0.8647 C   0  0  0  0  0  0  0  0  0  0  0  0
    6.8857   -3.1080   -3.0730 H   0  0  0  0  0  0  0  0  0  0  0  0
    7.9886   -3.4762   -1.7586 H   0  0  0  0  0  0  0  0  0  0  0  0
    6.9628   -2.0341   -1.7141 H   0  0  0  0  0  0  0  0  0  0  0  0
    4.5960   -5.6394   -0.1778 H   0  0  0  0  0  0  0  0  0  0  0  0
    5.4048   -5.4819    1.3801 H   0  0  0  0  0  0  0  0  0  0  0  0
    2.2078   -4.6073   -0.2968 H   0  0  0  0  0  0  0  0  0  0  0  0
    1.9018   -3.1350    0.5656 H   0  0  0  0  0  0  0  0  0  0  0  0
    1.6672   -3.9298   -2.3884 H   0  0  0  0  0  0  0  0  0  0  0  0
    2.0731   -2.6369   -4.3953 H   0  0  0  0  0  0  0  0  0  0  0  0
    3.0601   -0.6942   -5.2606 H   0  0  0  0  0  0  0  0  0  0  0  0
    4.9384   -0.2139   -2.2923 H   0  0  0  0  0  0  0  0  0  0  0  0
    5.3308   -0.4914    0.1037 H   0  0  0  0  0  0  0  0  0  0  0  0
    5.8122   -3.3316    3.3532 H   0  0  0  0  0  0  0  0  0  0  0  0
    5.0898   -1.7593    3.4979 H   0  0  0  0  0  0  0  0  0  0  0  0
    4.1968   -3.4450    5.1500 H   0  0  0  0  0  0  0  0  0  0  0  0
    2.9274   -2.8126    4.1129 H   0  0  0  0  0  0  0  0  0  0  0  0
    4.4406   -5.4141    3.6010 H   0  0  0  0  0  0  0  0  0  0  0  0
    2.8422   -5.2880    4.3102 H   0  0  0  0  0  0  0  0  0  0  0  0
    2.6033   -6.3319    0.8358 H   0  0  0  0  0  0  0  0  0  0  0  0
    3.0910   -6.8853    2.4051 H   0  0  0  0  0  0  0  0  0  0  0  0
    0.6816   -5.8697    3.1382 H   0  0  0  0  0  0  0  0  0  0  0  0
    1.0830   -8.5652    1.6694 H   0  0  0  0  0  0  0  0  0  0  0  0
   -0.3018   -8.1227    2.8018 H   0  0  0  0  0  0  0  0  0  0  0  0
   -0.9842   -6.2557    1.2904 H   0  0  0  0  0  0  0  0  0  0  0  0
    0.3903   -6.6834    0.1329 H   0  0  0  0  0  0  0  0  0  0  0  0
    7.2618   -3.7047    1.7428 H   0  0  0  0  0  0  0  0  0  0  0  0
    7.7165   -2.5297    0.4063 H   0  0  0  0  0  0  0  0  0  0  0  0
  1  2  1  0
  1 27  1  0
  1 28  1  0
  1 29  1  0
  3  2  1  6
  3 25  1  0
  3 26  1  0
  3  4  1  0
  4  5  1  0
  4 30  1  0
  4 31  1  0
  5 16  1  0
  5 20  1  1
  5  6  1  0
  6  7  1  0
  6 32  1  0
  6 33  1  0
  7 13  2  0
  7  8  1  0
  8  9  2  0
  8 34  1  0
  9 10  1  0
  9 35  1  0
 10 11  1  0
 10 12  2  0
 11 36  1  0
 12 13  1  0
 12 37  1  0
 13 14  1  0
 14 25  1  0
 14 15  1  0
 14 38  1  6
 15 16  1  0
 16 17  1  1
 16 25  1  0
 17 18  1  0
 17 39  1  0
 17 40  1  0
 18 19  1  0
 18 41  1  0
 18 42  1  0
 19 20  1  0
 19 43  1  0
 19 44  1  0
 20 21  1  0
 21 22  1  0
 21 45  1  0
 21 46  1  0
 22 24  1  0
 22 23  1  0
 22 47  1  0
 23 24  1  0
 23 48  1  0
 23 49  1  0
 24 50  1  0
 24 51  1  0
 25 26  1  1
 26 52  1  0
 26 53  1  0
M  END
>  <i_m_ct_stereo_status>  (97) 
1

>  <s_m_source_file>  (97) 
/var/tmp/pbs.5076255.sched01/tmpxjfjwjbi/40jwkb7fqh.sdf

>  <i_m_source_file_index>  (97) 
5

>  <i_lp_mmshare_version>  (97) 
48012

>  <i_f3d_flags>  (97) 
0

>  <s_epik_input>  (97) 
W09IXWMoW2NIXTEpW2NIXVtjSF1jKFtDSDJdMiljMVtDQEBIXShPMylbQ0BdNChbQ0BdKFtDSDJdNSkoW0NIMl00KU9bQ0gzXSlbQ0BAXTMoW0NAQF0yNTYpW0NIMl1bQ0gyXVtDSDJdTjZbQ0gyXVtDSF03W0NIMl1bQ0gyXTc=

>  <s_epik_cmdline>  (97) 
J2VwaWtfcHl0aG9uJywgJy1waHQnLCAnMi4wJywgJy1waCcsICc3LjAnLCAnLXRuJywgJzgnLCAnLW1hJywgJzIwMCcsICctaW1hZScsICc8aW5maWxlLm1hZT4nLCAnLW9tYWUnLCAnPG91dGZpbGUubWFlPic=

>  <r_lp_tautomer_probability>  (97) 
1

>  <r_epik_Ionization_Penalty>  (97) 
2.41898

>  <r_epik_Ionization_Penalty_Charging>  (97) 
0

>  <r_epik_Ionization_Penalty_Neutral>  (97) 
2.41898

>  <r_epik_State_Penalty>  (97) 
2.57793

>  <r_epik_Charging_Adjusted_Penalty>  (97) 
2.57793

>  <i_epik_Tot_Q>  (97) 
0

>  <i_epik_Tot_abs_Q>  (97) 
0

>  <s_lp_Force_Field>  (97) 
OPLS3e

>  <r_lp_Energy>  (97) 
72.716

>  <b_lp_Chiralities_Consistent>  (97) 
1

>  <s_lp_Variant>  (97) 
34:0-2

>  <s_i_glide_gridfile>  (97) 
pfpi4k_grid

>  <i_i_glide_lignum>  (97) 
5

>  <i_i_glide_rotatable_bonds>  (97) 
4

>  <r_i_docking_score>  (97) 
-3.12908

>  <r_i_glide_ligand_efficiency>  (97) 
-0.120349

>  <r_i_glide_ligand_efficiency_sa>  (97) 
-0.356534

>  <r_i_glide_ligand_efficiency_ln>  (97) 
-0.734854

>  <r_i_glide_gscore>  (97) 
-3.12908

>  <r_i_glide_lipo>  (97) 
-0.844128

>  <r_i_glide_hbond>  (97) 
-0.0778908

>  <r_i_glide_metal>  (97) 
-0

>  <r_i_glide_rewards>  (97) 
-0.999173

>  <r_i_glide_evdw>  (97) 
-28.5777

>  <r_i_glide_ecoul>  (97) 
-0.56485

>  <r_i_glide_erotb>  (97) 
0.305723

>  <r_i_glide_esite>  (97) 
0

>  <r_i_glide_emodel>  (97) 
-30.5252

>  <r_i_glide_energy>  (97) 
-29.1426

>  <r_i_glide_einternal>  (97) 
7.28158

>  <r_i_glide_intrahb_reward>  (97) 
-0

>  <i_i_glide_confnum>  (97) 
3

>  <i_i_glide_posenum>  (97) 
18

>  <r_i_glide_eff_state_penalty>  (97) 
0

>  <ligand_id>  (97) 
34

>  <original_smiles>  (97) 
COC12CC34Cc5ccc(O)cc5C5OC3(CCCN4CC3CC3)C51C2

>  <smiles>  (97) 
[H]Oc1c([H])c([H])c2c(c1[H])C1([H])OC34C([H])([H])C([H])([H])C([H])([H])N(C([H])([H])C5([H])C([H])([H])C5([H])[H])C3(C2([H])[H])C([H])([H])C2(OC([H])([H])[H])C([H])([H])C124

$$$$
35:0:0
     RDKit          3D

 64 69  0  0  1  0  0  0  0  0999 V2000
    6.1973   -6.7358    1.4636 C   0  0  0  0  0  0  0  0  0  0  0  0
    5.1381   -5.6095    1.5722 C   0  0  2  0  0  0  0  0  0  0  0  0
    3.8083   -6.2477    0.9044 C   0  0  0  0  0  0  0  0  0  0  0  0
    2.7100   -5.3061    0.3167 C   0  0  1  0  0  0  0  0  0  0  0  0
    2.1243   -4.5147    1.4374 O   0  0  0  0  0  0  0  0  0  0  0  0
    3.0841   -3.5393    1.9836 C   0  0  2  0  0  0  0  0  0  0  0  0
    3.1160   -4.2531    3.4702 C   0  0  0  0  0  0  0  0  0  0  0  0
    2.6177   -5.7231    3.6632 C   0  0  0  0  0  0  0  0  0  0  0  0
    4.4163   -4.0299    4.3075 C   0  0  0  0  0  0  0  0  0  0  0  0
    2.1368   -3.5792    4.2724 O   0  0  0  0  0  0  0  0  0  0  0  0
    3.4310   -1.8164    2.2909 C   0  0  0  0  0  0  0  0  0  0  0  0
    5.1261   -1.3416    2.1902 C   0  0  2  0  0  0  0  0  0  0  0  0
    5.7060   -1.1370    3.4678 O   0  0  0  0  0  0  0  0  0  0  0  0
    5.3157   -2.3686    1.3003 C   0  0  1  0  0  0  0  0  0  0  0  0
    4.6189   -1.3743   -0.2326 C   0  0  1  0  0  0  0  0  0  0  0  0
    5.4232   -1.4556   -1.4547 O   0  0  0  0  0  0  0  0  0  0  0  0
    4.1094   -1.8888   -1.7245 C   0  0  2  0  0  0  0  0  0  0  0  0
    3.3921   -0.9341   -2.6756 C   0  0  0  0  0  0  0  0  0  0  0  0
    3.4104   -1.3579   -4.0201 O   0  0  0  0  0  0  0  0  0  0  0  0
    3.6221   -3.4413   -1.9346 C   0  0  1  0  0  0  0  0  0  0  0  0
    4.3363   -3.9393   -3.0404 O   0  0  0  0  0  0  0  0  0  0  0  0
    3.5949   -4.5117   -0.6886 C   0  0  1  0  0  0  0  0  0  0  0  0
    3.6741   -3.5874    0.4258 C   0  0  1  0  0  0  0  0  0  0  0  0
    2.2917   -2.6595    0.0600 C   0  0  0  0  0  0  0  0  0  0  0  0
    5.5682   -3.3641    0.3627 C   0  0  1  0  0  0  0  0  0  0  0  0
    6.5433   -3.9364   -0.7524 C   0  0  0  0  0  0  0  0  0  0  0  0
    6.4021   -1.8877    1.1664 C   0  0  1  0  0  0  0  0  0  0  0  0
    7.1471   -0.8507    0.4585 O   0  0  0  0  0  0  0  0  0  0  0  0
    5.7747   -4.0477    1.5100 C   0  0  2  0  0  0  0  0  0  0  0  0
    7.1019   -4.2634    1.9368 O   0  0  0  0  0  0  0  0  0  0  0  0
    6.6533   -6.7853    0.5077 H   0  0  0  0  0  0  0  0  0  0  0  0
    5.7582   -7.7140    1.6630 H   0  0  0  0  0  0  0  0  0  0  0  0
    7.0195   -6.6623    2.1688 H   0  0  0  0  0  0  0  0  0  0  0  0
    5.0348   -5.8279    2.6093 H   0  0  0  0  0  0  0  0  0  0  0  0
    4.1296   -6.8979    0.0910 H   0  0  0  0  0  0  0  0  0  0  0  0
    3.3168   -6.9974    1.5212 H   0  0  0  0  0  0  0  0  0  0  0  0
    1.9364   -5.8809   -0.1924 H   0  0  0  0  0  0  0  0  0  0  0  0
    3.3390   -6.4330    3.3588 H   0  0  0  0  0  0  0  0  0  0  0  0
    1.6617   -5.9398    3.1793 H   0  0  0  0  0  0  0  0  0  0  0  0
    2.5129   -5.9752    4.7184 H   0  0  0  0  0  0  0  0  0  0  0  0
    5.3190   -4.4110    3.8624 H   0  0  0  0  0  0  0  0  0  0  0  0
    4.3528   -4.5034    5.2918 H   0  0  0  0  0  0  0  0  0  0  0  0
    4.5798   -2.9649    4.4664 H   0  0  0  0  0  0  0  0  0  0  0  0
    2.4292   -2.6950    4.4746 H   0  0  0  0  0  0  0  0  0  0  0  0
    2.9027   -1.0598    1.7051 H   0  0  0  0  0  0  0  0  0  0  0  0
    3.0671   -1.5180    3.2770 H   0  0  0  0  0  0  0  0  0  0  0  0
    6.4678   -0.5765    3.4058 H   0  0  0  0  0  0  0  0  0  0  0  0
    5.1090   -2.8832    2.3670 H   0  0  0  0  0  0  0  0  0  0  0  0
    4.3357   -0.3101    0.0003 H   0  0  0  0  0  0  0  0  0  0  0  0
    2.3619   -0.7946   -2.3558 H   0  0  0  0  0  0  0  0  0  0  0  0
    3.8758    0.0407   -2.6199 H   0  0  0  0  0  0  0  0  0  0  0  0
    2.8283   -2.1020   -4.1012 H   0  0  0  0  0  0  0  0  0  0  0  0
    2.6266   -3.4411   -2.3651 H   0  0  0  0  0  0  0  0  0  0  0  0
    3.9959   -4.8214   -3.1740 H   0  0  0  0  0  0  0  0  0  0  0  0
    4.4407   -5.1310   -0.9218 H   0  0  0  0  0  0  0  0  0  0  0  0
    1.5734   -3.0908   -0.6818 H   0  0  0  0  0  0  0  0  0  0  0  0
    2.4205   -1.6386   -0.1725 H   0  0  0  0  0  0  0  0  0  0  0  0
    1.5357   -2.4262    0.8358 H   0  0  0  0  0  0  0  0  0  0  0  0
    7.5785   -3.7045   -0.4805 H   0  0  0  0  0  0  0  0  0  0  0  0
    6.3850   -3.5685   -1.7174 H   0  0  0  0  0  0  0  0  0  0  0  0
    6.4414   -4.9974   -0.6892 H   0  0  0  0  0  0  0  0  0  0  0  0
    7.4120   -2.0740    1.6485 H   0  0  0  0  0  0  0  0  0  0  0  0
    7.4076   -0.1691    1.0731 H   0  0  0  0  0  0  0  0  0  0  0  0
    7.4656   -5.0409    1.5441 H   0  0  0  0  0  0  0  0  0  0  0  0
  1  2  1  0
  1 31  1  0
  1 32  1  0
  1 33  1  0
  2 29  1  0
  2  3  1  0
  2 34  1  1
  3  4  1  0
  3 35  1  0
  3 36  1  0
  4 22  1  0
  4  5  1  0
  4 37  1  6
  5  6  1  0
  6 23  1  0
  6  7  1  1
  6 11  1  0
  7  8  1  0
  7  9  1  0
  7 10  1  0
  8 38  1  0
  8 39  1  0
  8 40  1  0
  9 41  1  0
  9 42  1  0
  9 43  1  0
 10 44  1  0
 11 12  1  0
 11 45  1  0
 11 46  1  0
 12 27  1  0
 12 13  1  6
 12 14  1  0
 13 47  1  0
 14 29  1  0
 14 15  1  0
 14 48  1  6
 15 17  1  0
 15 16  1  0
 15 49  1  1
 16 17  1  0
 17 18  1  6
 17 20  1  0
 18 19  1  0
 18 50  1  0
 18 51  1  0
 19 52  1  0
 20 21  1  0
 20 22  1  0
 20 53  1  6
 21 54  1  0
 22 23  1  0
 22 55  1  6
 23 24  1  6
 23 25  1  0
 24 56  1  0
 24 57  1  0
 24 58  1  0
 25 26  1  6
 25 27  1  0
 25 29  1  0
 26 59  1  0
 26 60  1  0
 26 61  1  0
 27 28  1  0
 27 62  1  1
 28 63  1  0
 29 30  1  6
 30 64  1  0
M  END
>  <i_m_ct_stereo_status>  (98) 
1

>  <s_m_source_file>  (98) 
/var/tmp/pbs.5076255.sched01/tmpxjfjwjbi/40jwkb7fqh.sdf

>  <i_m_source_file_index>  (98) 
6

>  <i_lp_mmshare_version>  (98) 
48012

>  <i_f3d_flags>  (98) 
0

>  <s_epik_input>  (98) 
W09IXVtDSDJdW0NAXShPMSkoW0NASF0yW09IXSlbQ0BIXTFbQ0BIXShbQ0BAXShbQ0gyXTMpKFtPSF0pW0NASF0oW09IXSlbQ0BdNDVbQ0gzXSlbQ0BAXTUoW09IXSlbQ0BIXShbQ0gzXSlbQ0gyXVtDSF0oTzYpW0NAQEhdMltDQEBdNChbQ0gzXSlDMzZDKFtDSDNdKShbQ0gzXSlbT0hd

>  <s_epik_cmdline>  (98) 
J2VwaWtfcHl0aG9uJywgJy1waHQnLCAnMi4wJywgJy1waCcsICc3LjAnLCAnLXRuJywgJzgnLCAnLW1hJywgJzIwMCcsICctaW1hZScsICc8aW5maWxlLm1hZT4nLCAnLW9tYWUnLCAnPG91dGZpbGUubWFlPic=

>  <r_lp_tautomer_probability>  (98) 
1

>  <r_epik_Ionization_Penalty>  (98) 
8.00043e-07

>  <r_epik_Ionization_Penalty_Charging>  (98) 
0

>  <r_epik_Ionization_Penalty_Neutral>  (98) 
8.00043e-07

>  <r_epik_State_Penalty>  (98) 
-0

>  <r_epik_Charging_Adjusted_Penalty>  (98) 
0

>  <i_epik_Tot_Q>  (98) 
0

>  <i_epik_Tot_abs_Q>  (98) 
0

>  <s_lp_Force_Field>  (98) 
OPLS3e

>  <r_lp_Energy>  (98) 
1046.67

>  <b_lp_Chiralities_Consistent>  (98) 
1

>  <s_lp_Variant>  (98) 
35:0-1

>  <s_i_glide_gridfile>  (98) 
pfpi4k_grid

>  <i_i_glide_lignum>  (98) 
6

>  <i_i_glide_rotatable_bonds>  (98) 
8

>  <r_i_docking_score>  (98) 
-2.82943

>  <r_i_glide_ligand_efficiency>  (98) 
-0.0943143

>  <r_i_glide_ligand_efficiency_sa>  (98) 
-0.293057

>  <r_i_glide_ligand_efficiency_ln>  (98) 
-0.642877

>  <r_i_glide_gscore>  (98) 
-2.82943

>  <r_i_glide_lipo>  (98) 
-0.638885

>  <r_i_glide_hbond>  (98) 
-0.00659568

>  <r_i_glide_metal>  (98) 
-0

>  <r_i_glide_rewards>  (98) 
-0.501133

>  <r_i_glide_evdw>  (98) 
3.65818

>  <r_i_glide_ecoul>  (98) 
-13.8929

>  <r_i_glide_erotb>  (98) 
0.218212

>  <r_i_glide_esite>  (98) 
0

>  <r_i_glide_emodel>  (98) 
-8.54375

>  <r_i_glide_energy>  (98) 
-10.2347

>  <r_i_glide_einternal>  (98) 
2.12809

>  <r_i_glide_intrahb_reward>  (98) 
-0

>  <i_i_glide_confnum>  (98) 
4

>  <i_i_glide_posenum>  (98) 
25

>  <r_i_glide_eff_state_penalty>  (98) 
0

>  <ligand_id>  (98) 
35

>  <original_smiles>  (98) 
CC1CC2OC3(C(C)(C)O)CC4(O)C5C6OC6(CO)C(O)C2C3(C)C(C)(C4O)C15O

>  <smiles>  (98) 
[H]OC([H])([H])C12OC1([H])C1([H])C3(O[H])C([H])([H])C4(C(O[H])(C([H])([H])[H])C([H])([H])[H])OC5([H])C([H])([H])C([H])(C([H])([H])[H])C1(O[H])C(C([H])([H])[H])(C3([H])O[H])C4(C([H])([H])[H])C5([H])C2([H])O[H]

$$$$
35:0:1
     RDKit          3D

 64 69  0  0  1  0  0  0  0  0999 V2000
    7.5613   -6.0592    0.7817 C   0  0  0  0  0  0  0  0  0  0  0  0
    6.2005   -5.3325    1.0440 C   0  0  2  0  0  0  0  0  0  0  0  0
    5.0618   -6.3213    0.4630 C   0  0  0  0  0  0  0  0  0  0  0  0
    3.7009   -5.7586   -0.0221 C   0  0  1  0  0  0  0  0  0  0  0  0
    2.9139   -5.2520    1.1321 O   0  0  0  0  0  0  0  0  0  0  0  0
    3.5828   -4.0773    1.6847 C   0  0  2  0  0  0  0  0  0  0  0  0
    3.9642   -4.8162    3.1139 C   0  0  0  0  0  0  0  0  0  0  0  0
    4.0052   -6.3777    3.2433 C   0  0  0  0  0  0  0  0  0  0  0  0
    5.1626   -4.2114    3.8881 C   0  0  0  0  0  0  0  0  0  0  0  0
    2.9363   -4.4874    4.0608 O   0  0  0  0  0  0  0  0  0  0  0  0
    3.3970   -2.3613    2.0774 C   0  0  0  0  0  0  0  0  0  0  0  0
    4.8395   -1.3644    1.9211 C   0  0  2  0  0  0  0  0  0  0  0  0
    5.4443   -1.0422    3.1789 O   0  0  0  0  0  0  0  0  0  0  0  0
    5.2849   -2.2356    0.9682 C   0  0  1  0  0  0  0  0  0  0  0  0
    4.1804   -1.4412   -0.4703 C   0  0  1  0  0  0  0  0  0  0  0  0
    4.8989   -1.2003   -1.7146 O   0  0  0  0  0  0  0  0  0  0  0  0
    3.8049   -2.0472   -1.9659 C   0  0  2  0  0  0  0  0  0  0  0  0
    2.7547   -1.3551   -2.8172 C   0  0  0  0  0  0  0  0  0  0  0  0
    3.0852   -1.3677   -4.1880 O   0  0  0  0  0  0  0  0  0  0  0  0
    3.8386   -3.6600   -2.2550 C   0  0  1  0  0  0  0  0  0  0  0  0
    4.6146   -3.9209   -3.4121 O   0  0  0  0  0  0  0  0  0  0  0  0
    4.2273   -4.7103   -1.0573 C   0  0  1  0  0  0  0  0  0  0  0  0
    4.0582   -3.8687    0.0886 C   0  0  1  0  0  0  0  0  0  0  0  0
    2.4023   -3.4193   -0.1871 C   0  0  0  0  0  0  0  0  0  0  0  0
    5.7775   -3.0269   -0.0480 C   0  0  1  0  0  0  0  0  0  0  0  0
    6.8033   -3.1858   -1.2360 C   0  0  0  0  0  0  0  0  0  0  0  0
    6.1402   -1.4365    0.8372 C   0  0  1  0  0  0  0  0  0  0  0  0
    6.4688   -0.2261    0.0841 O   0  0  0  0  0  0  0  0  0  0  0  0
    6.2869   -3.6496    1.0254 C   0  0  2  0  0  0  0  0  0  0  0  0
    7.6700   -3.4775    1.2321 O   0  0  0  0  0  0  0  0  0  0  0  0
    7.9353   -5.9267   -0.2300 H   0  0  0  0  0  0  0  0  0  0  0  0
    7.4734   -7.1352    0.9714 H   0  0  0  0  0  0  0  0  0  0  0  0
    8.3605   -5.7516    1.4632 H   0  0  0  0  0  0  0  0  0  0  0  0
    6.2765   -5.6150    2.0688 H   0  0  0  0  0  0  0  0  0  0  0  0
    5.4035   -6.7603   -0.4188 H   0  0  0  0  0  0  0  0  0  0  0  0
    4.9184   -7.2546    1.0203 H   0  0  0  0  0  0  0  0  0  0  0  0
    3.2052   -6.5880   -0.4785 H   0  0  0  0  0  0  0  0  0  0  0  0
    4.9253   -6.7829    2.8787 H   0  0  0  0  0  0  0  0  0  0  0  0
    3.1713   -6.9090    2.7706 H   0  0  0  0  0  0  0  0  0  0  0  0
    4.1031   -6.7085    4.2742 H   0  0  0  0  0  0  0  0  0  0  0  0
    6.1070   -4.2384    3.3724 H   0  0  0  0  0  0  0  0  0  0  0  0
    5.3532   -4.7054    4.8392 H   0  0  0  0  0  0  0  0  0  0  0  0
    4.9731   -3.1631    4.0971 H   0  0  0  0  0  0  0  0  0  0  0  0
    2.1985   -5.0727    3.9888 H   0  0  0  0  0  0  0  0  0  0  0  0
    2.6151   -1.8035    1.5543 H   0  0  0  0  0  0  0  0  0  0  0  0
    3.0195   -2.2484    3.0951 H   0  0  0  0  0  0  0  0  0  0  0  0
    6.2272   -0.5254    3.0521 H   0  0  0  0  0  0  0  0  0  0  0  0
    5.3133   -2.8338    1.9844 H   0  0  0  0  0  0  0  0  0  0  0  0
    3.5897   -0.5769   -0.1517 H   0  0  0  0  0  0  0  0  0  0  0  0
    1.8192   -1.8807   -2.6993 H   0  0  0  0  0  0  0  0  0  0  0  0
    2.6016   -0.3336   -2.4754 H   0  0  0  0  0  0  0  0  0  0  0  0
    2.2811   -1.3526   -4.6886 H   0  0  0  0  0  0  0  0  0  0  0  0
    2.8494   -3.9155   -2.6289 H   0  0  0  0  0  0  0  0  0  0  0  0
    4.4603   -4.8245   -3.6490 H   0  0  0  0  0  0  0  0  0  0  0  0
    5.2161   -5.0255   -1.3559 H   0  0  0  0  0  0  0  0  0  0  0  0
    1.8312   -4.0611   -0.8620 H   0  0  0  0  0  0  0  0  0  0  0  0
    2.1306   -2.4142   -0.4133 H   0  0  0  0  0  0  0  0  0  0  0  0
    1.7488   -3.4788    0.6677 H   0  0  0  0  0  0  0  0  0  0  0  0
    7.7334   -2.6467   -1.0359 H   0  0  0  0  0  0  0  0  0  0  0  0
    6.4739   -2.8385   -2.2083 H   0  0  0  0  0  0  0  0  0  0  0  0
    7.1150   -4.2042   -1.3086 H   0  0  0  0  0  0  0  0  0  0  0  0
    7.1305   -1.2943    1.3668 H   0  0  0  0  0  0  0  0  0  0  0  0
    5.6865    0.1748   -0.2111 H   0  0  0  0  0  0  0  0  0  0  0  0
    7.8071   -3.8238    2.1072 H   0  0  0  0  0  0  0  0  0  0  0  0
  1  2  1  0
  1 31  1  0
  1 32  1  0
  1 33  1  0
  2 29  1  0
  2  3  1  0
  2 34  1  1
  3  4  1  0
  3 35  1  0
  3 36  1  0
  4 22  1  0
  4  5  1  0
  4 37  1  6
  5  6  1  0
  6 23  1  0
  6  7  1  1
  6 11  1  0
  7  8  1  0
  7  9  1  0
  7 10  1  0
  8 38  1  0
  8 39  1  0
  8 40  1  0
  9 41  1  0
  9 42  1  0
  9 43  1  0
 10 44  1  0
 11 12  1  0
 11 45  1  0
 11 46  1  0
 12 27  1  0
 12 13  1  6
 12 14  1  0
 13 47  1  0
 14 29  1  0
 14 15  1  0
 14 48  1  6
 15 17  1  0
 15 16  1  0
 15 49  1  1
 16 17  1  0
 17 18  1  6
 17 20  1  0
 18 19  1  0
 18 50  1  0
 18 51  1  0
 19 52  1  0
 20 21  1  0
 20 22  1  0
 20 53  1  6
 21 54  1  0
 22 23  1  0
 22 55  1  6
 23 24  1  6
 23 25  1  0
 24 56  1  0
 24 57  1  0
 24 58  1  0
 25 26  1  6
 25 27  1  0
 25 29  1  0
 26 59  1  0
 26 60  1  0
 26 61  1  0
 27 28  1  0
 27 62  1  1
 28 63  1  0
 29 30  1  6
 30 64  1  0
M  END
>  <i_m_ct_stereo_status>  (99) 
1

>  <s_m_source_file>  (99) 
/var/tmp/pbs.5076255.sched01/tmpxjfjwjbi/40jwkb7fqh.sdf

>  <i_m_source_file_index>  (99) 
6

>  <i_lp_mmshare_version>  (99) 
48012

>  <i_f3d_flags>  (99) 
0

>  <s_epik_input>  (99) 
W09IXVtDSDJdW0NAXShPMSkoW0NASF0yW09IXSlbQ0BIXTFbQ0BIXShbQ0BAXShbQ0gyXTMpKFtPSF0pW0NASF0oW09IXSlbQ0BdNDVbQ0gzXSlbQ0BAXTUoW09IXSlbQ0BIXShbQ0gzXSlbQ0gyXVtDSF0oTzYpW0NAQEhdMltDQEBdNChbQ0gzXSlDMzZDKFtDSDNdKShbQ0gzXSlbT0hd

>  <s_epik_cmdline>  (99) 
J2VwaWtfcHl0aG9uJywgJy1waHQnLCAnMi4wJywgJy1waCcsICc3LjAnLCAnLXRuJywgJzgnLCAnLW1hJywgJzIwMCcsICctaW1hZScsICc8aW5maWxlLm1hZT4nLCAnLW9tYWUnLCAnPG91dGZpbGUubWFlPic=

>  <r_lp_tautomer_probability>  (99) 
1

>  <r_epik_Ionization_Penalty>  (99) 
8.00043e-07

>  <r_epik_Ionization_Penalty_Charging>  (99) 
0

>  <r_epik_Ionization_Penalty_Neutral>  (99) 
8.00043e-07

>  <r_epik_State_Penalty>  (99) 
-0

>  <r_epik_Charging_Adjusted_Penalty>  (99) 
0

>  <i_epik_Tot_Q>  (99) 
0

>  <i_epik_Tot_abs_Q>  (99) 
0

>  <s_lp_Force_Field>  (99) 
OPLS3e

>  <r_lp_Energy>  (99) 
1046.67

>  <b_lp_Chiralities_Consistent>  (99) 
1

>  <s_lp_Variant>  (99) 
35:0-1

>  <s_i_glide_gridfile>  (99) 
pfpi4k_grid

>  <i_i_glide_lignum>  (99) 
6

>  <i_i_glide_rotatable_bonds>  (99) 
8

>  <r_i_docking_score>  (99) 
-2.62668

>  <r_i_glide_ligand_efficiency>  (99) 
-0.087556

>  <r_i_glide_ligand_efficiency_sa>  (99) 
-0.272057

>  <r_i_glide_ligand_efficiency_ln>  (99) 
-0.59681

>  <r_i_glide_gscore>  (99) 
-2.62668

>  <r_i_glide_lipo>  (99) 
-0.772251

>  <r_i_glide_hbond>  (99) 
0

>  <r_i_glide_metal>  (99) 
-0

>  <r_i_glide_rewards>  (99) 
-0.501133

>  <r_i_glide_evdw>  (99) 
-0.0523835

>  <r_i_glide_ecoul>  (99) 
-10.4593

>  <r_i_glide_erotb>  (99) 
0.218212

>  <r_i_glide_esite>  (99) 
0

>  <r_i_glide_emodel>  (99) 
-6.51192

>  <r_i_glide_energy>  (99) 
-10.5116

>  <r_i_glide_einternal>  (99) 
3.40632

>  <r_i_glide_intrahb_reward>  (99) 
-0

>  <i_i_glide_confnum>  (99) 
2

>  <i_i_glide_posenum>  (99) 
16

>  <r_i_glide_eff_state_penalty>  (99) 
0

>  <ligand_id>  (99) 
35

>  <original_smiles>  (99) 
CC1CC2OC3(C(C)(C)O)CC4(O)C5C6OC6(CO)C(O)C2C3(C)C(C)(C4O)C15O

>  <smiles>  (99) 
[H]OC([H])([H])C12OC1([H])C1([H])C3(O[H])C([H])([H])C4(C(O[H])(C([H])([H])[H])C([H])([H])[H])OC5([H])C([H])([H])C([H])(C([H])([H])[H])C1(O[H])C(C([H])([H])[H])(C3([H])O[H])C4(C([H])([H])[H])C5([H])C2([H])O[H]

$$$$
35:0:2
     RDKit          3D

 64 69  0  0  1  0  0  0  0  0999 V2000
    6.0473   -7.0986    1.4657 C   0  0  0  0  0  0  0  0  0  0  0  0
    4.9842   -5.9654    1.5472 C   0  0  2  0  0  0  0  0  0  0  0  0
    3.7093   -6.5582    0.7454 C   0  0  0  0  0  0  0  0  0  0  0  0
    2.6724   -5.5810    0.0947 C   0  0  1  0  0  0  0  0  0  0  0  0
    1.9915   -4.7965    1.1590 O   0  0  0  0  0  0  0  0  0  0  0  0
    2.9136   -3.8706    1.8422 C   0  0  2  0  0  0  0  0  0  0  0  0
    2.8184   -4.6427    3.2953 C   0  0  0  0  0  0  0  0  0  0  0  0
    2.2689   -6.1025    3.4007 C   0  0  0  0  0  0  0  0  0  0  0  0
    4.0325   -4.4791    4.2609 C   0  0  0  0  0  0  0  0  0  0  0  0
    1.8033   -3.9510    4.0191 O   0  0  0  0  0  0  0  0  0  0  0  0
    3.2593   -2.1776    2.2265 C   0  0  0  0  0  0  0  0  0  0  0  0
    4.9450   -1.7151    2.2777 C   0  0  2  0  0  0  0  0  0  0  0  0
    5.4402   -1.5854    3.6332 O   0  0  0  0  0  0  0  0  0  0  0  0
    5.2211   -2.7258    1.4051 C   0  0  1  0  0  0  0  0  0  0  0  0
    4.6693   -1.6414   -0.1833 C   0  0  1  0  0  0  0  0  0  0  0  0
    5.5822   -1.7122   -1.3116 O   0  0  0  0  0  0  0  0  0  0  0  0
    4.3008   -2.1429   -1.7231 C   0  0  2  0  0  0  0  0  0  0  0  0
    3.6764   -1.1398   -2.6835 C   0  0  0  0  0  0  0  0  0  0  0  0
    4.0284   -1.4197   -4.0271 O   0  0  0  0  0  0  0  0  0  0  0  0
    3.8412   -3.6875   -2.0118 C   0  0  1  0  0  0  0  0  0  0  0  0
    4.7124   -4.2343   -3.0052 O   0  0  0  0  0  0  0  0  0  0  0  0
    3.6616   -4.7446   -0.7665 C   0  0  1  0  0  0  0  0  0  0  0  0
    3.6216   -3.8662    0.3319 C   0  0  1  0  0  0  0  0  0  0  0  0
    2.2914   -2.8865   -0.1562 C   0  0  0  0  0  0  0  0  0  0  0  0
    5.5373   -3.6493    0.4747 C   0  0  1  0  0  0  0  0  0  0  0  0
    6.5876   -4.2143   -0.5585 C   0  0  0  0  0  0  0  0  0  0  0  0
    6.2823   -2.2417    1.3949 C   0  0  1  0  0  0  0  0  0  0  0  0
    7.1341   -1.1976    0.7467 O   0  0  0  0  0  0  0  0  0  0  0  0
    5.6423   -4.4014    1.5858 C   0  0  2  0  0  0  0  0  0  0  0  0
    6.9551   -4.6596    2.1058 O   0  0  0  0  0  0  0  0  0  0  0  0
    6.5746   -7.1053    0.5178 H   0  0  0  0  0  0  0  0  0  0  0  0
    5.5757   -8.0762    1.6083 H   0  0  0  0  0  0  0  0  0  0  0  0
    6.7882   -7.0575    2.2664 H   0  0  0  0  0  0  0  0  0  0  0  0
    4.7690   -6.2087    2.5628 H   0  0  0  0  0  0  0  0  0  0  0  0
    4.1050   -7.1817   -0.0713 H   0  0  0  0  0  0  0  0  0  0  0  0
    3.1621   -7.3246    1.2864 H   0  0  0  0  0  0  0  0  0  0  0  0
    1.9416   -6.1184   -0.4990 H   0  0  0  0  0  0  0  0  0  0  0  0
    3.0073   -6.8416    3.1289 H   0  0  0  0  0  0  0  0  0  0  0  0
    1.3593   -6.2841    2.8271 H   0  0  0  0  0  0  0  0  0  0  0  0
    2.0521   -6.3774    4.4328 H   0  0  0  0  0  0  0  0  0  0  0  0
    4.9760   -4.8586    3.8889 H   0  0  0  0  0  0  0  0  0  0  0  0
    3.8678   -4.9799    5.2148 H   0  0  0  0  0  0  0  0  0  0  0  0
    4.1885   -3.4245    4.4860 H   0  0  0  0  0  0  0  0  0  0  0  0
    2.1634   -3.1822    4.4047 H   0  0  0  0  0  0  0  0  0  0  0  0
    2.7786   -1.3960    1.6114 H   0  0  0  0  0  0  0  0  0  0  0  0
    2.8052   -1.9006    3.1830 H   0  0  0  0  0  0  0  0  0  0  0  0
    6.2393   -1.1418    3.6451 H   0  0  0  0  0  0  0  0  0  0  0  0
    4.8975   -3.2560    2.4020 H   0  0  0  0  0  0  0  0  0  0  0  0
    4.3771   -0.6160    0.0657 H   0  0  0  0  0  0  0  0  0  0  0  0
    2.5899   -1.1360   -2.5844 H   0  0  0  0  0  0  0  0  0  0  0  0
    4.0256   -0.1413   -2.4378 H   0  0  0  0  0  0  0  0  0  0  0  0
    4.9673   -1.4107   -4.0668 H   0  0  0  0  0  0  0  0  0  0  0  0
    2.8813   -3.6527   -2.5294 H   0  0  0  0  0  0  0  0  0  0  0  0
    4.3338   -5.0870   -3.1879 H   0  0  0  0  0  0  0  0  0  0  0  0
    4.5086   -5.3756   -0.9457 H   0  0  0  0  0  0  0  0  0  0  0  0
    1.6583   -3.3315   -0.9206 H   0  0  0  0  0  0  0  0  0  0  0  0
    2.4337   -1.8452   -0.4056 H   0  0  0  0  0  0  0  0  0  0  0  0
    1.5009   -2.6940    0.5698 H   0  0  0  0  0  0  0  0  0  0  0  0
    7.6108   -4.0384   -0.2246 H   0  0  0  0  0  0  0  0  0  0  0  0
    6.5495   -3.8136   -1.5603 H   0  0  0  0  0  0  0  0  0  0  0  0
    6.4468   -5.2806   -0.5791 H   0  0  0  0  0  0  0  0  0  0  0  0
    7.1317   -2.4588    2.0837 H   0  0  0  0  0  0  0  0  0  0  0  0
    7.3504   -0.5304    1.3722 H   0  0  0  0  0  0  0  0  0  0  0  0
    7.3575   -5.3955    1.6844 H   0  0  0  0  0  0  0  0  0  0  0  0
  1  2  1  0
  1 31  1  0
  1 32  1  0
  1 33  1  0
  2 29  1  0
  2  3  1  0
  2 34  1  1
  3  4  1  0
  3 35  1  0
  3 36  1  0
  4 22  1  0
  4  5  1  0
  4 37  1  6
  5  6  1  0
  6 23  1  0
  6  7  1  1
  6 11  1  0
  7  8  1  0
  7  9  1  0
  7 10  1  0
  8 38  1  0
  8 39  1  0
  8 40  1  0
  9 41  1  0
  9 42  1  0
  9 43  1  0
 10 44  1  0
 11 12  1  0
 11 45  1  0
 11 46  1  0
 12 27  1  0
 12 13  1  6
 12 14  1  0
 13 47  1  0
 14 29  1  0
 14 15  1  0
 14 48  1  6
 15 17  1  0
 15 16  1  0
 15 49  1  1
 16 17  1  0
 17 18  1  6
 17 20  1  0
 18 19  1  0
 18 50  1  0
 18 51  1  0
 19 52  1  0
 20 21  1  0
 20 22  1  0
 20 53  1  6
 21 54  1  0
 22 23  1  0
 22 55  1  1
 23 24  1  6
 23 25  1  0
 24 56  1  0
 24 57  1  0
 24 58  1  0
 25 26  1  6
 25 27  1  0
 25 29  1  0
 26 59  1  0
 26 60  1  0
 26 61  1  0
 27 28  1  0
 27 62  1  1
 28 63  1  0
 29 30  1  1
 30 64  1  0
M  END
>  <i_m_ct_stereo_status>  (100) 
1

>  <s_m_source_file>  (100) 
/var/tmp/pbs.5076255.sched01/tmpxjfjwjbi/40jwkb7fqh.sdf

>  <i_m_source_file_index>  (100) 
6

>  <i_lp_mmshare_version>  (100) 
48012

>  <i_f3d_flags>  (100) 
0

>  <s_epik_input>  (100) 
W09IXVtDSDJdW0NAXShPMSkoW0NASF0yW09IXSlbQ0BIXTFbQ0BIXShbQ0BAXShbQ0gyXTMpKFtPSF0pW0NASF0oW09IXSlbQ0BdNDVbQ0gzXSlbQ0BAXTUoW09IXSlbQ0BIXShbQ0gzXSlbQ0gyXVtDSF0oTzYpW0NAQEhdMltDQEBdNChbQ0gzXSlDMzZDKFtDSDNdKShbQ0gzXSlbT0hd

>  <s_epik_cmdline>  (100) 
J2VwaWtfcHl0aG9uJywgJy1waHQnLCAnMi4wJywgJy1waCcsICc3LjAnLCAnLXRuJywgJzgnLCAnLW1hJywgJzIwMCcsICctaW1hZScsICc8aW5maWxlLm1hZT4nLCAnLW9tYWUnLCAnPG91dGZpbGUubWFlPic=

>  <r_lp_tautomer_probability>  (100) 
1

>  <r_epik_Ionization_Penalty>  (100) 
8.00043e-07

>  <r_epik_Ionization_Penalty_Charging>  (100) 
0

>  <r_epik_Ionization_Penalty_Neutral>  (100) 
8.00043e-07

>  <r_epik_State_Penalty>  (100) 
-0

>  <r_epik_Charging_Adjusted_Penalty>  (100) 
0

>  <i_epik_Tot_Q>  (100) 
0

>  <i_epik_Tot_abs_Q>  (100) 
0

>  <s_lp_Force_Field>  (100) 
OPLS3e

>  <r_lp_Energy>  (100) 
1046.67

>  <b_lp_Chiralities_Consistent>  (100) 
1

>  <s_lp_Variant>  (100) 
35:0-1

>  <s_i_glide_gridfile>  (100) 
pfpi4k_grid

>  <i_i_glide_lignum>  (100) 
6

>  <i_i_glide_rotatable_bonds>  (100) 
8

>  <r_i_docking_score>  (100) 
-2.18052

>  <r_i_glide_ligand_efficiency>  (100) 
-0.0726841

>  <r_i_glide_ligand_efficiency_sa>  (100) 
-0.225846

>  <r_i_glide_ligand_efficiency_ln>  (100) 
-0.495439

>  <r_i_glide_gscore>  (100) 
-2.18052

>  <r_i_glide_lipo>  (100) 
-0.587132

>  <r_i_glide_hbond>  (100) 
-0.0357719

>  <r_i_glide_metal>  (100) 
-0

>  <r_i_glide_rewards>  (100) 
-0.501133

>  <r_i_glide_evdw>  (100) 
3.49701

>  <r_i_glide_ecoul>  (100) 
-9.66366

>  <r_i_glide_erotb>  (100) 
0.218212

>  <r_i_glide_esite>  (100) 
0

>  <r_i_glide_emodel>  (100) 
-4.36178

>  <r_i_glide_energy>  (100) 
-6.16666

>  <r_i_glide_einternal>  (100) 
1.82091

>  <r_i_glide_intrahb_reward>  (100) 
-0

>  <i_i_glide_confnum>  (100) 
4

>  <i_i_glide_posenum>  (100) 
9

>  <r_i_glide_eff_state_penalty>  (100) 
0

>  <ligand_id>  (100) 
35

>  <original_smiles>  (100) 
CC1CC2OC3(C(C)(C)O)CC4(O)C5C6OC6(CO)C(O)C2C3(C)C(C)(C4O)C15O

>  <smiles>  (100) 
[H]OC([H])([H])C12OC1([H])C1([H])C3(O[H])C([H])([H])C4(C(O[H])(C([H])([H])[H])C([H])([H])[H])OC5([H])C([H])([H])C([H])(C([H])([H])[H])C1(O[H])C(C([H])([H])[H])(C3([H])O[H])C4(C([H])([H])[H])C5([H])C2([H])O[H]

$$$$
35:1:0
     RDKit          3D

 64 69  0  0  1  0  0  0  0  0999 V2000
    3.9649   -1.5413    4.7381 C   0  0  0  0  0  0  0  0  0  0  0  0
    3.2241   -0.2470    5.1828 C   0  0  2  0  0  0  0  0  0  0  0  0
    1.9580   -0.6504    5.9339 C   0  0  0  0  0  0  0  0  0  0  0  0
    1.3855    0.7115    6.3241 C   0  0  1  0  0  0  0  0  0  0  0  0
    0.8258    1.8752    5.4644 O   0  0  0  0  0  0  0  0  0  0  0  0
   -0.3683    2.2342    4.7061 C   0  0  1  0  0  0  0  0  0  0  0  0
   -1.7902    2.7903    5.2704 C   0  0  0  0  0  0  0  0  0  0  0  0
   -2.8853    3.0623    4.1811 C   0  0  0  0  0  0  0  0  0  0  0  0
   -2.5332    2.1013    6.4627 C   0  0  0  0  0  0  0  0  0  0  0  0
   -1.5346    4.1188    5.6854 O   0  0  0  0  0  0  0  0  0  0  0  0
    0.4032    3.3394    3.8973 C   0  0  0  0  0  0  0  0  0  0  0  0
    1.7517    2.8910    3.3264 C   0  0  1  0  0  0  0  0  0  0  0  0
    2.2392    3.9056    2.4766 O   0  0  0  0  0  0  0  0  0  0  0  0
    2.9038    2.4128    4.3686 C   0  0  1  0  0  0  0  0  0  0  0  0
    2.9737    3.0349    5.9114 C   0  0  1  0  0  0  0  0  0  0  0  0
    2.0255    4.0914    6.1947 O   0  0  0  0  0  0  0  0  0  0  0  0
    2.0027    3.1344    7.2687 C   0  0  2  0  0  0  0  0  0  0  0  0
    2.6269    3.6431    8.5570 C   0  0  0  0  0  0  0  0  0  0  0  0
    3.3641    2.6109    9.1873 O   0  0  0  0  0  0  0  0  0  0  0  0
    0.6059    2.3224    7.6056 C   0  0  1  0  0  0  0  0  0  0  0  0
   -0.2958    3.3383    8.0227 O   0  0  0  0  0  0  0  0  0  0  0  0
    0.1095    0.9941    6.5400 C   0  0  1  0  0  0  0  0  0  0  0  0
   -0.0161    0.8138    4.7911 C   0  0  1  0  0  0  0  0  0  0  0  0
   -1.1785   -0.1658    4.4254 C   0  0  0  0  0  0  0  0  0  0  0  0
    1.2707    0.5401    3.5964 C   0  0  1  0  0  0  0  0  0  0  0  0
    1.1548   -0.8030    2.7923 C   0  0  0  0  0  0  0  0  0  0  0  0
    1.3235    1.6556    2.5010 C   0  0  1  0  0  0  0  0  0  0  0  0
    0.1334    1.7223    1.7520 O   0  0  0  0  0  0  0  0  0  0  0  0
    2.8018    0.7992    4.0992 C   0  0  2  0  0  0  0  0  0  0  0  0
    3.7721    0.5436    3.0799 O   0  0  0  0  0  0  0  0  0  0  0  0
    3.4087   -2.1122    3.9967 H   0  0  0  0  0  0  0  0  0  0  0  0
    4.1305   -2.2012    5.5890 H   0  0  0  0  0  0  0  0  0  0  0  0
    4.9510   -1.3294    4.3238 H   0  0  0  0  0  0  0  0  0  0  0  0
    3.9127    0.2560    5.8623 H   0  0  0  0  0  0  0  0  0  0  0  0
    1.2804   -1.3211    5.4151 H   0  0  0  0  0  0  0  0  0  0  0  0
    2.2423   -1.2074    6.8300 H   0  0  0  0  0  0  0  0  0  0  0  0
    2.1063    0.8561    7.1384 H   0  0  0  0  0  0  0  0  0  0  0  0
   -3.0598    2.2439    3.4779 H   0  0  0  0  0  0  0  0  0  0  0  0
   -2.7553    3.9847    3.5977 H   0  0  0  0  0  0  0  0  0  0  0  0
   -3.8462    3.2152    4.6733 H   0  0  0  0  0  0  0  0  0  0  0  0
   -2.5552    1.0273    6.4216 H   0  0  0  0  0  0  0  0  0  0  0  0
   -3.5436    2.4811    6.6025 H   0  0  0  0  0  0  0  0  0  0  0  0
   -2.0643    2.2813    7.4300 H   0  0  0  0  0  0  0  0  0  0  0  0
   -0.7634    4.0812    6.2454 H   0  0  0  0  0  0  0  0  0  0  0  0
   -0.2460    3.7112    3.1028 H   0  0  0  0  0  0  0  0  0  0  0  0
    0.5761    4.2407    4.4709 H   0  0  0  0  0  0  0  0  0  0  0  0
    1.5440    4.1414    1.8546 H   0  0  0  0  0  0  0  0  0  0  0  0
    3.8583    2.7419    3.9547 H   0  0  0  0  0  0  0  0  0  0  0  0
    3.9936    3.2933    6.1772 H   0  0  0  0  0  0  0  0  0  0  0  0
    3.3013    4.4710    8.3437 H   0  0  0  0  0  0  0  0  0  0  0  0
    1.8703    4.0272    9.2487 H   0  0  0  0  0  0  0  0  0  0  0  0
    3.6893    2.9305   10.0094 H   0  0  0  0  0  0  0  0  0  0  0  0
    0.7863    1.8028    8.5503 H   0  0  0  0  0  0  0  0  0  0  0  0
   -0.0538    3.6181    8.9271 H   0  0  0  0  0  0  0  0  0  0  0  0
   -0.3604    0.1782    7.0814 H   0  0  0  0  0  0  0  0  0  0  0  0
   -0.8306   -1.1888    4.2921 H   0  0  0  0  0  0  0  0  0  0  0  0
   -1.7052    0.1460    3.5237 H   0  0  0  0  0  0  0  0  0  0  0  0
   -1.9258   -0.3261    5.1852 H   0  0  0  0  0  0  0  0  0  0  0  0
    1.9369   -0.9062    2.0364 H   0  0  0  0  0  0  0  0  0  0  0  0
    0.2251   -0.8521    2.2359 H   0  0  0  0  0  0  0  0  0  0  0  0
    1.2096   -1.7070    3.3924 H   0  0  0  0  0  0  0  0  0  0  0  0
    2.0721    1.4622    1.7263 H   0  0  0  0  0  0  0  0  0  0  0  0
    0.1279    2.6033    1.2909 H   0  0  0  0  0  0  0  0  0  0  0  0
    3.7797    1.2613    2.4708 H   0  0  0  0  0  0  0  0  0  0  0  0
  1  2  1  0
  1 31  1  0
  1 32  1  0
  1 33  1  0
  2 29  1  0
  2  3  1  0
  2 34  1  1
  3  4  1  0
  3 35  1  0
  3 36  1  0
  4 22  1  0
  4  5  1  0
  4 37  1  1
  5  6  1  0
  6 23  1  0
  6  7  1  1
  6 11  1  0
  7  8  1  0
  7  9  1  0
  7 10  1  0
  8 38  1  0
  8 39  1  0
  8 40  1  0
  9 41  1  0
  9 42  1  0
  9 43  1  0
 10 44  1  0
 11 12  1  0
 11 45  1  0
 11 46  1  0
 12 27  1  0
 12 13  1  6
 12 14  1  0
 13 47  1  0
 14 29  1  0
 14 15  1  0
 14 48  1  6
 15 17  1  0
 15 16  1  0
 15 49  1  1
 16 17  1  0
 17 18  1  1
 17 20  1  0
 18 19  1  0
 18 50  1  0
 18 51  1  0
 19 52  1  0
 20 21  1  0
 20 22  1  0
 20 53  1  1
 21 54  1  0
 22 23  1  0
 22 55  1  1
 23 24  1  1
 23 25  1  0
 24 56  1  0
 24 57  1  0
 24 58  1  0
 25 26  1  6
 25 27  1  0
 25 29  1  0
 26 59  1  0
 26 60  1  0
 26 61  1  0
 27 28  1  0
 27 62  1  6
 28 63  1  0
 29 30  1  6
 30 64  1  0
M  END
>  <i_m_ct_stereo_status>  (101) 
1

>  <s_m_source_file>  (101) 
/var/tmp/pbs.5076255.sched01/tmpxjfjwjbi/40jwkb7fqh.sdf

>  <i_m_source_file_index>  (101) 
7

>  <i_lp_mmshare_version>  (101) 
48012

>  <i_f3d_flags>  (101) 
0

>  <s_epik_input>  (101) 
W09IXVtDSDJdW0NAXShPMSkoW0NASF0yW09IXSlbQ0BIXTFbQ0BIXShbQ0BAXShbQ0gyXTMpKFtPSF0pW0NASF0oW09IXSlbQ0BdNDVbQ0gzXSlbQ0BAXTUoW09IXSlbQ0BIXShbQ0gzXSlbQ0gyXVtDSF0oTzYpW0NAQEhdMltDQEBdNChbQ0gzXSlDMzZDKFtDSDNdKShbQ0gzXSlbT0hd

>  <s_epik_cmdline>  (101) 
J2VwaWtfcHl0aG9uJywgJy1waHQnLCAnMi4wJywgJy1waCcsICc3LjAnLCAnLXRuJywgJzgnLCAnLW1hJywgJzIwMCcsICctaW1hZScsICc8aW5maWxlLm1hZT4nLCAnLW9tYWUnLCAnPG91dGZpbGUubWFlPic=

>  <r_lp_tautomer_probability>  (101) 
1

>  <r_epik_Ionization_Penalty>  (101) 
8.00043e-07

>  <r_epik_Ionization_Penalty_Charging>  (101) 
0

>  <r_epik_Ionization_Penalty_Neutral>  (101) 
8.00043e-07

>  <r_epik_State_Penalty>  (101) 
-0

>  <r_epik_Charging_Adjusted_Penalty>  (101) 
0

>  <i_epik_Tot_Q>  (101) 
0

>  <i_epik_Tot_abs_Q>  (101) 
0

>  <s_lp_Force_Field>  (101) 
OPLS3e

>  <r_lp_Energy>  (101) 
434.795

>  <b_lp_Chiralities_Consistent>  (101) 
1

>  <s_lp_Variant>  (101) 
35:0-2

>  <s_i_glide_gridfile>  (101) 
pfpi4k_grid

>  <i_i_glide_lignum>  (101) 
7

>  <i_i_glide_rotatable_bonds>  (101) 
8

>  <r_i_docking_score>  (101) 
-2.94213

>  <r_i_glide_ligand_efficiency>  (101) 
-0.0980709

>  <r_i_glide_ligand_efficiency_sa>  (101) 
-0.304729

>  <r_i_glide_ligand_efficiency_ln>  (101) 
-0.668483

>  <r_i_glide_gscore>  (101) 
-2.94213

>  <r_i_glide_lipo>  (101) 
-0.0714561

>  <r_i_glide_hbond>  (101) 
-0.0817728

>  <r_i_glide_metal>  (101) 
-0

>  <r_i_glide_rewards>  (101) 
-1.00113

>  <r_i_glide_evdw>  (101) 
-17.0593

>  <r_i_glide_ecoul>  (101) 
-7.80522

>  <r_i_glide_erotb>  (101) 
0.218212

>  <r_i_glide_esite>  (101) 
0

>  <r_i_glide_emodel>  (101) 
-27.4745

>  <r_i_glide_energy>  (101) 
-24.8645

>  <r_i_glide_einternal>  (101) 
8.06132

>  <r_i_glide_intrahb_reward>  (101) 
-0.5

>  <i_i_glide_confnum>  (101) 
4

>  <i_i_glide_posenum>  (101) 
24

>  <r_i_glide_eff_state_penalty>  (101) 
0

>  <ligand_id>  (101) 
35

>  <original_smiles>  (101) 
CC1CC2OC3(C(C)(C)O)CC4(O)C5C6OC6(CO)C(O)C2C3(C)C(C)(C4O)C15O

>  <smiles>  (101) 
[H]OC([H])([H])C12OC1([H])C1([H])C3(O[H])C([H])([H])C4(C(O[H])(C([H])([H])[H])C([H])([H])[H])OC5([H])C([H])([H])C([H])(C([H])([H])[H])C1(O[H])C(C([H])([H])[H])(C3([H])O[H])C4(C([H])([H])[H])C5([H])C2([H])O[H]

$$$$
35:1:1
     RDKit          3D

 64 69  0  0  1  0  0  0  0  0999 V2000
    3.8645   -1.0557    6.4690 C   0  0  0  0  0  0  0  0  0  0  0  0
    3.0763    0.2807    6.3908 C   0  0  2  0  0  0  0  0  0  0  0  0
    1.6345    0.0225    6.8266 C   0  0  0  0  0  0  0  0  0  0  0  0
    1.0208    1.4156    6.7354 C   0  0  1  0  0  0  0  0  0  0  0  0
    0.7774    2.3351    5.5095 O   0  0  0  0  0  0  0  0  0  0  0  0
   -0.1512    2.4909    4.4030 C   0  0  1  0  0  0  0  0  0  0  0  0
   -1.6528    3.1298    4.3893 C   0  0  0  0  0  0  0  0  0  0  0  0
   -2.3992    3.0907    3.0174 C   0  0  0  0  0  0  0  0  0  0  0  0
   -2.6992    2.7241    5.4551 C   0  0  0  0  0  0  0  0  0  0  0  0
   -1.4839    4.5403    4.4509 O   0  0  0  0  0  0  0  0  0  0  0  0
    0.8673    3.3970    3.6171 C   0  0  0  0  0  0  0  0  0  0  0  0
    2.2923    2.8743    3.5634 C   0  0  1  0  0  0  0  0  0  0  0  0
    3.0320    3.7403    2.7090 O   0  0  0  0  0  0  0  0  0  0  0  0
    3.0923    2.6743    4.9524 C   0  0  1  0  0  0  0  0  0  0  0  0
    2.7391    3.6305    6.2849 C   0  0  1  0  0  0  0  0  0  0  0  0
    1.8091    4.7026    6.0270 O   0  0  0  0  0  0  0  0  0  0  0  0
    1.4191    4.0344    7.2245 C   0  0  2  0  0  0  0  0  0  0  0  0
    1.7137    4.8235    8.5101 C   0  0  0  0  0  0  0  0  0  0  0  0
    0.6460    5.6402    8.9650 O   0  0  0  0  0  0  0  0  0  0  0  0
   -0.0320    3.2367    7.3464 C   0  0  1  0  0  0  0  0  0  0  0  0
   -1.0138    4.2585    7.3072 O   0  0  0  0  0  0  0  0  0  0  0  0
   -0.2485    1.6971    6.5038 C   0  0  1  0  0  0  0  0  0  0  0  0
    0.1071    1.1356    4.8802 C   0  0  1  0  0  0  0  0  0  0  0  0
   -0.9391    0.0672    4.4285 C   0  0  0  0  0  0  0  0  0  0  0  0
    1.6707    0.6369    4.1903 C   0  0  1  0  0  0  0  0  0  0  0  0
    1.7342   -0.8560    3.7015 C   0  0  0  0  0  0  0  0  0  0  0  0
    2.0761    1.4758    2.9345 C   0  0  1  0  0  0  0  0  0  0  0  0
    1.1416    1.3441    1.8650 O   0  0  0  0  0  0  0  0  0  0  0  0
    3.0121    1.0450    5.0285 C   0  0  2  0  0  0  0  0  0  0  0  0
    4.2344    0.6232    4.4100 O   0  0  0  0  0  0  0  0  0  0  0  0
    3.5195   -1.7951    5.7482 H   0  0  0  0  0  0  0  0  0  0  0  0
    3.7619   -1.5039    7.4582 H   0  0  0  0  0  0  0  0  0  0  0  0
    4.9340   -0.9115    6.3143 H   0  0  0  0  0  0  0  0  0  0  0  0
    3.5622    0.9428    7.1069 H   0  0  0  0  0  0  0  0  0  0  0  0
    1.1053   -0.7716    6.3004 H   0  0  0  0  0  0  0  0  0  0  0  0
    1.6381   -0.3161    7.8686 H   0  0  0  0  0  0  0  0  0  0  0  0
    1.4913    1.7698    7.6567 H   0  0  0  0  0  0  0  0  0  0  0  0
   -2.4099    2.1188    2.5091 H   0  0  0  0  0  0  0  0  0  0  0  0
   -2.0736    3.8460    2.2761 H   0  0  0  0  0  0  0  0  0  0  0  0
   -3.4550    3.3409    3.1604 H   0  0  0  0  0  0  0  0  0  0  0  0
   -2.6701    1.6873    5.6778 H   0  0  0  0  0  0  0  0  0  0  0  0
   -3.7114    3.0622    5.2115 H   0  0  0  0  0  0  0  0  0  0  0  0
   -2.5610    3.1345    6.4329 H   0  0  0  0  0  0  0  0  0  0  0  0
   -0.7361    4.7598    3.8977 H   0  0  0  0  0  0  0  0  0  0  0  0
    0.4881    3.5265    2.6124 H   0  0  0  0  0  0  0  0  0  0  0  0
    0.9019    4.4133    3.9848 H   0  0  0  0  0  0  0  0  0  0  0  0
    3.8519    3.3719    2.4847 H   0  0  0  0  0  0  0  0  0  0  0  0
    4.1401    2.9387    4.7645 H   0  0  0  0  0  0  0  0  0  0  0  0
    3.6642    3.9718    6.7497 H   0  0  0  0  0  0  0  0  0  0  0  0
    1.9573    4.1254    9.3103 H   0  0  0  0  0  0  0  0  0  0  0  0
    2.5892    5.4617    8.3483 H   0  0  0  0  0  0  0  0  0  0  0  0
    0.8959    6.0924    9.7544 H   0  0  0  0  0  0  0  0  0  0  0  0
   -0.1280    2.9607    8.3790 H   0  0  0  0  0  0  0  0  0  0  0  0
   -0.9319    4.7724    8.1171 H   0  0  0  0  0  0  0  0  0  0  0  0
   -0.8828    1.0146    7.0637 H   0  0  0  0  0  0  0  0  0  0  0  0
   -0.6099   -0.9488    4.6360 H   0  0  0  0  0  0  0  0  0  0  0  0
   -1.1744    0.1467    3.3689 H   0  0  0  0  0  0  0  0  0  0  0  0
   -1.8759    0.0730    4.9575 H   0  0  0  0  0  0  0  0  0  0  0  0
    2.6964   -1.1019    3.2402 H   0  0  0  0  0  0  0  0  0  0  0  0
    0.9887   -1.0689    2.9327 H   0  0  0  0  0  0  0  0  0  0  0  0
    1.5894   -1.5992    4.4802 H   0  0  0  0  0  0  0  0  0  0  0  0
    3.0041    1.1383    2.4628 H   0  0  0  0  0  0  0  0  0  0  0  0
    1.2561    0.5098    1.4356 H   0  0  0  0  0  0  0  0  0  0  0  0
    4.3340    1.0636    3.5791 H   0  0  0  0  0  0  0  0  0  0  0  0
  1  2  1  0
  1 31  1  0
  1 32  1  0
  1 33  1  0
  2 29  1  0
  2  3  1  0
  2 34  1  1
  3  4  1  0
  3 35  1  0
  3 36  1  0
  4 22  1  0
  4  5  1  0
  4 37  1  1
  5  6  1  0
  6 23  1  0
  6  7  1  1
  6 11  1  0
  7  8  1  0
  7  9  1  0
  7 10  1  0
  8 38  1  0
  8 39  1  0
  8 40  1  0
  9 41  1  0
  9 42  1  0
  9 43  1  0
 10 44  1  0
 11 12  1  0
 11 45  1  0
 11 46  1  0
 12 27  1  0
 12 13  1  6
 12 14  1  0
 13 47  1  0
 14 29  1  0
 14 15  1  0
 14 48  1  6
 15 17  1  0
 15 16  1  0
 15 49  1  1
 16 17  1  0
 17 18  1  1
 17 20  1  0
 18 19  1  0
 18 50  1  0
 18 51  1  0
 19 52  1  0
 20 21  1  0
 20 22  1  0
 20 53  1  1
 21 54  1  0
 22 23  1  0
 22 55  1  1
 23 24  1  6
 23 25  1  0
 24 56  1  0
 24 57  1  0
 24 58  1  0
 25 26  1  6
 25 27  1  0
 25 29  1  0
 26 59  1  0
 26 60  1  0
 26 61  1  0
 27 28  1  0
 27 62  1  6
 28 63  1  0
 29 30  1  6
 30 64  1  0
M  END
>  <i_m_ct_stereo_status>  (102) 
1

>  <s_m_source_file>  (102) 
/var/tmp/pbs.5076255.sched01/tmpxjfjwjbi/40jwkb7fqh.sdf

>  <i_m_source_file_index>  (102) 
7

>  <i_lp_mmshare_version>  (102) 
48012

>  <i_f3d_flags>  (102) 
0

>  <s_epik_input>  (102) 
W09IXVtDSDJdW0NAXShPMSkoW0NASF0yW09IXSlbQ0BIXTFbQ0BIXShbQ0BAXShbQ0gyXTMpKFtPSF0pW0NASF0oW09IXSlbQ0BdNDVbQ0gzXSlbQ0BAXTUoW09IXSlbQ0BIXShbQ0gzXSlbQ0gyXVtDSF0oTzYpW0NAQEhdMltDQEBdNChbQ0gzXSlDMzZDKFtDSDNdKShbQ0gzXSlbT0hd

>  <s_epik_cmdline>  (102) 
J2VwaWtfcHl0aG9uJywgJy1waHQnLCAnMi4wJywgJy1waCcsICc3LjAnLCAnLXRuJywgJzgnLCAnLW1hJywgJzIwMCcsICctaW1hZScsICc8aW5maWxlLm1hZT4nLCAnLW9tYWUnLCAnPG91dGZpbGUubWFlPic=

>  <r_lp_tautomer_probability>  (102) 
1

>  <r_epik_Ionization_Penalty>  (102) 
8.00043e-07

>  <r_epik_Ionization_Penalty_Charging>  (102) 
0

>  <r_epik_Ionization_Penalty_Neutral>  (102) 
8.00043e-07

>  <r_epik_State_Penalty>  (102) 
-0

>  <r_epik_Charging_Adjusted_Penalty>  (102) 
0

>  <i_epik_Tot_Q>  (102) 
0

>  <i_epik_Tot_abs_Q>  (102) 
0

>  <s_lp_Force_Field>  (102) 
OPLS3e

>  <r_lp_Energy>  (102) 
434.795

>  <b_lp_Chiralities_Consistent>  (102) 
1

>  <s_lp_Variant>  (102) 
35:0-2

>  <s_i_glide_gridfile>  (102) 
pfpi4k_grid

>  <i_i_glide_lignum>  (102) 
7

>  <i_i_glide_rotatable_bonds>  (102) 
8

>  <r_i_docking_score>  (102) 
-2.75567

>  <r_i_glide_ligand_efficiency>  (102) 
-0.0918557

>  <r_i_glide_ligand_efficiency_sa>  (102) 
-0.285417

>  <r_i_glide_ligand_efficiency_ln>  (102) 
-0.626119

>  <r_i_glide_gscore>  (102) 
-2.75567

>  <r_i_glide_lipo>  (102) 
-0.0168331

>  <r_i_glide_hbond>  (102) 
0

>  <r_i_glide_metal>  (102) 
-0

>  <r_i_glide_rewards>  (102) 
-1.00113

>  <r_i_glide_evdw>  (102) 
-13.6704

>  <r_i_glide_ecoul>  (102) 
-8.48264

>  <r_i_glide_erotb>  (102) 
0.218212

>  <r_i_glide_esite>  (102) 
0

>  <r_i_glide_emodel>  (102) 
-24.5425

>  <r_i_glide_energy>  (102) 
-22.1531

>  <r_i_glide_einternal>  (102) 
8.69598

>  <r_i_glide_intrahb_reward>  (102) 
-0.5

>  <i_i_glide_confnum>  (102) 
5

>  <i_i_glide_posenum>  (102) 
17

>  <r_i_glide_eff_state_penalty>  (102) 
0

>  <ligand_id>  (102) 
35

>  <original_smiles>  (102) 
CC1CC2OC3(C(C)(C)O)CC4(O)C5C6OC6(CO)C(O)C2C3(C)C(C)(C4O)C15O

>  <smiles>  (102) 
[H]OC([H])([H])C12OC1([H])C1([H])C3(O[H])C([H])([H])C4(C(O[H])(C([H])([H])[H])C([H])([H])[H])OC5([H])C([H])([H])C([H])(C([H])([H])[H])C1(O[H])C(C([H])([H])[H])(C3([H])O[H])C4(C([H])([H])[H])C5([H])C2([H])O[H]

$$$$
35:1:2
     RDKit          3D

 64 69  0  0  1  0  0  0  0  0999 V2000
    3.0685   -1.6806    4.5611 C   0  0  0  0  0  0  0  0  0  0  0  0
    2.1966   -0.5013    5.0713 C   0  0  2  0  0  0  0  0  0  0  0  0
    0.7697   -0.7103    4.5711 C   0  0  0  0  0  0  0  0  0  0  0  0
    0.0544    0.5028    5.1612 C   0  0  1  0  0  0  0  0  0  0  0  0
    0.2007    2.0264    4.8871 O   0  0  0  0  0  0  0  0  0  0  0  0
   -0.1462    3.0190    3.8767 C   0  0  1  0  0  0  0  0  0  0  0  0
   -1.5680    3.7529    3.6845 C   0  0  0  0  0  0  0  0  0  0  0  0
   -1.5351    5.1382    2.9588 C   0  0  0  0  0  0  0  0  0  0  0  0
   -2.8097    2.9753    3.1477 C   0  0  0  0  0  0  0  0  0  0  0  0
   -1.8563    4.2596    4.9332 O   0  0  0  0  0  0  0  0  0  0  0  0
    0.9093    4.0273    4.4526 C   0  0  0  0  0  0  0  0  0  0  0  0
    2.2955    3.4104    4.6915 C   0  0  1  0  0  0  0  0  0  0  0  0
    3.2462    4.4237    4.9686 O   0  0  0  0  0  0  0  0  0  0  0  0
    2.4523    2.1940    5.7547 C   0  0  1  0  0  0  0  0  0  0  0  0
    1.4119    2.1066    7.0580 C   0  0  1  0  0  0  0  0  0  0  0  0
    0.5379    3.2465    7.2004 O   0  0  0  0  0  0  0  0  0  0  0  0
   -0.2329    2.0472    7.3492 C   0  0  2  0  0  0  0  0  0  0  0  0
   -0.6210    1.7384    8.7992 C   0  0  0  0  0  0  0  0  0  0  0  0
   -1.9295    2.1617    9.1506 O   0  0  0  0  0  0  0  0  0  0  0  0
   -1.4671    1.6020    6.2782 C   0  0  1  0  0  0  0  0  0  0  0  0
   -2.6175    2.3942    6.4512 O   0  0  0  0  0  0  0  0  0  0  0  0
   -1.0330    1.0598    4.6590 C   0  0  1  0  0  0  0  0  0  0  0  0
    0.0792    1.6325    3.4328 C   0  0  1  0  0  0  0  0  0  0  0  0
   -0.4923    1.2646    2.0324 C   0  0  0  0  0  0  0  0  0  0  0  0
    1.8351    1.4460    3.3372 C   0  0  1  0  0  0  0  0  0  0  0  0
    2.3446    0.6580    2.0806 C   0  0  0  0  0  0  0  0  0  0  0  0
    2.5477    2.8229    3.2855 C   0  0  1  0  0  0  0  0  0  0  0  0
    2.2190    3.6269    2.1479 O   0  0  0  0  0  0  0  0  0  0  0  0
    2.6069    0.9588    4.6872 C   0  0  2  0  0  0  0  0  0  0  0  0
    4.0262    0.8190    4.5174 O   0  0  0  0  0  0  0  0  0  0  0  0
    3.1801   -1.6891    3.4772 H   0  0  0  0  0  0  0  0  0  0  0  0
    2.6237   -2.6336    4.8436 H   0  0  0  0  0  0  0  0  0  0  0  0
    4.0665   -1.6695    4.9991 H   0  0  0  0  0  0  0  0  0  0  0  0
    2.2195   -0.5708    6.1590 H   0  0  0  0  0  0  0  0  0  0  0  0
    0.6425   -0.8526    3.5023 H   0  0  0  0  0  0  0  0  0  0  0  0
    0.3691   -1.6290    5.0037 H   0  0  0  0  0  0  0  0  0  0  0  0
    0.0392    0.0729    6.1726 H   0  0  0  0  0  0  0  0  0  0  0  0
   -1.0004    5.2894    2.0651 H   0  0  0  0  0  0  0  0  0  0  0  0
   -1.0430    5.8994    3.5613 H   0  0  0  0  0  0  0  0  0  0  0  0
   -2.5532    5.4349    2.6800 H   0  0  0  0  0  0  0  0  0  0  0  0
   -2.6527    2.5465    2.1937 H   0  0  0  0  0  0  0  0  0  0  0  0
   -3.6818    3.6414    3.0726 H   0  0  0  0  0  0  0  0  0  0  0  0
   -3.1438    2.2182    3.8784 H   0  0  0  0  0  0  0  0  0  0  0  0
   -2.0143    3.5053    5.5284 H   0  0  0  0  0  0  0  0  0  0  0  0
    0.9997    4.8858    3.7777 H   0  0  0  0  0  0  0  0  0  0  0  0
    0.5809    4.5339    5.3578 H   0  0  0  0  0  0  0  0  0  0  0  0
    3.1353    5.0890    4.3103 H   0  0  0  0  0  0  0  0  0  0  0  0
    3.4278    2.3220    6.2252 H   0  0  0  0  0  0  0  0  0  0  0  0
    1.9907    1.8762    7.9552 H   0  0  0  0  0  0  0  0  0  0  0  0
   -0.5601    0.6623    8.9739 H   0  0  0  0  0  0  0  0  0  0  0  0
    0.0888    2.2089    9.4755 H   0  0  0  0  0  0  0  0  0  0  0  0
   -2.0165    2.1518   10.0960 H   0  0  0  0  0  0  0  0  0  0  0  0
   -1.8389    0.6828    6.7372 H   0  0  0  0  0  0  0  0  0  0  0  0
   -2.6190    2.6468    7.3569 H   0  0  0  0  0  0  0  0  0  0  0  0
   -1.7296    0.3148    4.2941 H   0  0  0  0  0  0  0  0  0  0  0  0
    0.0112    0.3992    1.5905 H   0  0  0  0  0  0  0  0  0  0  0  0
   -0.3237    2.0868    1.3241 H   0  0  0  0  0  0  0  0  0  0  0  0
   -1.5285    1.0113    2.0607 H   0  0  0  0  0  0  0  0  0  0  0  0
    3.4320    0.6040    2.0229 H   0  0  0  0  0  0  0  0  0  0  0  0
    2.0307    1.1445    1.1575 H   0  0  0  0  0  0  0  0  0  0  0  0
    1.9883   -0.3686    2.0133 H   0  0  0  0  0  0  0  0  0  0  0  0
    3.6215    2.7169    3.2014 H   0  0  0  0  0  0  0  0  0  0  0  0
    1.2867    3.6595    1.9669 H   0  0  0  0  0  0  0  0  0  0  0  0
    4.3468    1.5738    4.0550 H   0  0  0  0  0  0  0  0  0  0  0  0
  1  2  1  0
  1 31  1  0
  1 32  1  0
  1 33  1  0
  2 29  1  0
  2  3  1  0
  2 34  1  1
  3  4  1  0
  3 35  1  0
  3 36  1  0
  4 22  1  0
  4  5  1  0
  4 37  1  1
  5  6  1  0
  6 23  1  0
  6  7  1  1
  6 11  1  0
  7  8  1  0
  7  9  1  0
  7 10  1  0
  8 38  1  0
  8 39  1  0
  8 40  1  0
  9 41  1  0
  9 42  1  0
  9 43  1  0
 10 44  1  0
 11 12  1  0
 11 45  1  0
 11 46  1  0
 12 27  1  0
 12 13  1  1
 12 14  1  0
 13 47  1  0
 14 29  1  0
 14 15  1  0
 14 48  1  1
 15 17  1  0
 15 16  1  0
 15 49  1  1
 16 17  1  0
 17 18  1  1
 17 20  1  0
 18 19  1  0
 18 50  1  0
 18 51  1  0
 19 52  1  0
 20 21  1  0
 20 22  1  0
 20 53  1  1
 21 54  1  0
 22 23  1  0
 22 55  1  6
 23 24  1  6
 23 25  1  0
 24 56  1  0
 24 57  1  0
 24 58  1  0
 25 26  1  6
 25 27  1  0
 25 29  1  0
 26 59  1  0
 26 60  1  0
 26 61  1  0
 27 28  1  0
 27 62  1  1
 28 63  1  0
 29 30  1  6
 30 64  1  0
M  END
>  <i_m_ct_stereo_status>  (103) 
1

>  <s_m_source_file>  (103) 
/var/tmp/pbs.5076255.sched01/tmpxjfjwjbi/40jwkb7fqh.sdf

>  <i_m_source_file_index>  (103) 
7

>  <i_lp_mmshare_version>  (103) 
48012

>  <i_f3d_flags>  (103) 
0

>  <s_epik_input>  (103) 
W09IXVtDSDJdW0NAXShPMSkoW0NASF0yW09IXSlbQ0BIXTFbQ0BIXShbQ0BAXShbQ0gyXTMpKFtPSF0pW0NASF0oW09IXSlbQ0BdNDVbQ0gzXSlbQ0BAXTUoW09IXSlbQ0BIXShbQ0gzXSlbQ0gyXVtDSF0oTzYpW0NAQEhdMltDQEBdNChbQ0gzXSlDMzZDKFtDSDNdKShbQ0gzXSlbT0hd

>  <s_epik_cmdline>  (103) 
J2VwaWtfcHl0aG9uJywgJy1waHQnLCAnMi4wJywgJy1waCcsICc3LjAnLCAnLXRuJywgJzgnLCAnLW1hJywgJzIwMCcsICctaW1hZScsICc8aW5maWxlLm1hZT4nLCAnLW9tYWUnLCAnPG91dGZpbGUubWFlPic=

>  <r_lp_tautomer_probability>  (103) 
1

>  <r_epik_Ionization_Penalty>  (103) 
8.00043e-07

>  <r_epik_Ionization_Penalty_Charging>  (103) 
0

>  <r_epik_Ionization_Penalty_Neutral>  (103) 
8.00043e-07

>  <r_epik_State_Penalty>  (103) 
-0

>  <r_epik_Charging_Adjusted_Penalty>  (103) 
0

>  <i_epik_Tot_Q>  (103) 
0

>  <i_epik_Tot_abs_Q>  (103) 
0

>  <s_lp_Force_Field>  (103) 
OPLS3e

>  <r_lp_Energy>  (103) 
434.795

>  <b_lp_Chiralities_Consistent>  (103) 
1

>  <s_lp_Variant>  (103) 
35:0-2

>  <s_i_glide_gridfile>  (103) 
pfpi4k_grid

>  <i_i_glide_lignum>  (103) 
7

>  <i_i_glide_rotatable_bonds>  (103) 
8

>  <r_i_docking_score>  (103) 
-2.67307

>  <r_i_glide_ligand_efficiency>  (103) 
-0.0891024

>  <r_i_glide_ligand_efficiency_sa>  (103) 
-0.276862

>  <r_i_glide_ligand_efficiency_ln>  (103) 
-0.607351

>  <r_i_glide_gscore>  (103) 
-2.67307

>  <r_i_glide_lipo>  (103) 
0

>  <r_i_glide_hbond>  (103) 
0

>  <r_i_glide_metal>  (103) 
-0

>  <r_i_glide_rewards>  (103) 
-1.50113

>  <r_i_glide_evdw>  (103) 
-13.9528

>  <r_i_glide_ecoul>  (103) 
-7.53585

>  <r_i_glide_erotb>  (103) 
0.218212

>  <r_i_glide_esite>  (103) 
0

>  <r_i_glide_emodel>  (103) 
-25.7104

>  <r_i_glide_energy>  (103) 
-21.4886

>  <r_i_glide_einternal>  (103) 
12.0601

>  <r_i_glide_intrahb_reward>  (103) 
-1

>  <i_i_glide_confnum>  (103) 
5

>  <i_i_glide_posenum>  (103) 
28

>  <r_i_glide_eff_state_penalty>  (103) 
0

>  <ligand_id>  (103) 
35

>  <original_smiles>  (103) 
CC1CC2OC3(C(C)(C)O)CC4(O)C5C6OC6(CO)C(O)C2C3(C)C(C)(C4O)C15O

>  <smiles>  (103) 
[H]OC([H])([H])C12OC1([H])C1([H])C3(O[H])C([H])([H])C4(C(O[H])(C([H])([H])[H])C([H])([H])[H])OC5([H])C([H])([H])C([H])(C([H])([H])[H])C1(O[H])C(C([H])([H])[H])(C3([H])O[H])C4(C([H])([H])[H])C5([H])C2([H])O[H]

$$$$
36:0:0
     RDKit          3D

 47 50  0  0  1  0  0  0  0  0999 V2000
    1.9043    1.3839    3.1056 C   0  0  0  0  0  0  0  0  0  0  0  0
    1.7453    0.5402    1.8312 C   0  0  2  0  0  0  0  0  0  0  0  0
    0.3689    0.2810    1.6806 O   0  0  0  0  0  0  0  0  0  0  0  0
    2.5869   -0.7708    1.7580 C   0  0  1  0  0  0  0  0  0  0  0  0
    3.7512   -0.8811    2.7487 C   0  0  0  0  0  0  0  0  0  0  0  0
    4.0909   -2.3581    2.6348 C   0  0  1  0  0  0  0  0  0  0  0  0
    4.9163   -2.9017    3.8069 C   0  0  0  0  0  0  0  0  0  0  0  0
    2.7886   -2.8814    2.8065 O   0  0  0  0  0  0  0  0  0  0  0  0
    1.8279   -1.8961    2.1779 O   0  0  0  0  0  0  0  0  0  0  0  0
    4.4970   -2.7524    1.1796 C   0  0  2  0  0  0  0  0  0  0  0  0
    5.9674   -3.3121    1.0202 C   0  0  1  0  0  0  0  0  0  0  0  0
    6.0363   -4.6510    1.4520 O   0  0  0  0  0  0  0  0  0  0  0  0
    6.4133   -3.2071   -0.3177 O   0  0  0  0  0  0  0  0  0  0  0  0
    5.3673   -3.2930   -1.2801 C   0  0  2  0  0  0  0  0  0  0  0  0
    5.6945   -3.4407   -2.7553 C   0  0  0  0  0  0  0  0  0  0  0  0
    4.4812   -2.8298   -3.4735 C   0  0  1  0  0  0  0  0  0  0  0  0
    3.8123   -3.8379   -4.2032 O   0  0  0  0  0  0  0  0  0  0  0  0
    3.6196   -2.1199   -2.4009 C   0  0  1  0  0  0  0  0  0  0  0  0
    3.0970   -0.7898   -2.9540 C   0  0  0  0  0  0  0  0  0  0  0  0
    2.5406   -2.9718   -2.0416 O   0  0  0  0  0  0  0  0  0  0  0  0
    4.6373   -1.9602   -1.2458 C   0  0  1  0  0  0  0  0  0  0  0  0
    4.3133   -1.5618    0.2126 C   0  0  1  0  0  0  0  0  0  0  0  0
    3.0656   -0.9066    0.4109 O   0  0  0  0  0  0  0  0  0  0  0  0
    2.9397    1.7119    3.2211 H   0  0  0  0  0  0  0  0  0  0  0  0
    1.6060    0.8200    3.9938 H   0  0  0  0  0  0  0  0  0  0  0  0
    1.2862    2.2829    3.0506 H   0  0  0  0  0  0  0  0  0  0  0  0
    2.0352    1.1798    0.9989 H   0  0  0  0  0  0  0  0  0  0  0  0
    0.2444    0.0333    0.7536 H   0  0  0  0  0  0  0  0  0  0  0  0
    4.5775   -0.2029    2.5269 H   0  0  0  0  0  0  0  0  0  0  0  0
    3.4230   -0.6829    3.7652 H   0  0  0  0  0  0  0  0  0  0  0  0
    5.9266   -2.5102    3.7780 H   0  0  0  0  0  0  0  0  0  0  0  0
    4.9524   -3.9910    3.8051 H   0  0  0  0  0  0  0  0  0  0  0  0
    4.4800   -2.5919    4.7548 H   0  0  0  0  0  0  0  0  0  0  0  0
    3.8149   -3.5441    0.8629 H   0  0  0  0  0  0  0  0  0  0  0  0
    6.6745   -2.7472    1.6370 H   0  0  0  0  0  0  0  0  0  0  0  0
    5.3777   -5.1428    0.9875 H   0  0  0  0  0  0  0  0  0  0  0  0
    4.7088   -4.1313   -1.0390 H   0  0  0  0  0  0  0  0  0  0  0  0
    6.6029   -2.8956   -3.0079 H   0  0  0  0  0  0  0  0  0  0  0  0
    5.8190   -4.4808   -3.0263 H   0  0  0  0  0  0  0  0  0  0  0  0
    4.8418   -2.0932   -4.1952 H   0  0  0  0  0  0  0  0  0  0  0  0
    3.4591   -4.4760   -3.5981 H   0  0  0  0  0  0  0  0  0  0  0  0
    3.8977   -0.1053   -3.2329 H   0  0  0  0  0  0  0  0  0  0  0  0
    2.4798   -0.2881   -2.2238 H   0  0  0  0  0  0  0  0  0  0  0  0
    2.4808   -0.9548   -3.8310 H   0  0  0  0  0  0  0  0  0  0  0  0
    2.8494   -3.8515   -1.9016 H   0  0  0  0  0  0  0  0  0  0  0  0
    5.3502   -1.2034   -1.5775 H   0  0  0  0  0  0  0  0  0  0  0  0
    5.0778   -0.8235    0.4797 H   0  0  0  0  0  0  0  0  0  0  0  0
  1  2  1  0
  1 24  1  0
  1 25  1  0
  1 26  1  0
  2  3  1  0
  2  4  1  0
  2 27  1  6
  3 28  1  0
  4  9  1  1
  4 23  1  0
  4  5  1  0
  5  6  1  0
  5 29  1  0
  5 30  1  0
  6  7  1  1
  6  8  1  0
  6 10  1  0
  7 31  1  0
  7 32  1  0
  7 33  1  0
  8  9  1  0
 10 22  1  0
 10 11  1  0
 10 34  1  6
 11 12  1  0
 11 13  1  0
 11 35  1  1
 12 36  1  0
 13 14  1  0
 14 21  1  0
 14 15  1  0
 14 37  1  1
 15 16  1  0
 15 38  1  0
 15 39  1  0
 16 17  1  0
 16 18  1  0
 16 40  1  6
 17 41  1  0
 18 19  1  0
 18 20  1  1
 18 21  1  0
 19 42  1  0
 19 43  1  0
 19 44  1  0
 20 45  1  0
 21 22  1  0
 21 46  1  6
 22 23  1  0
 22 47  1  1
M  END
>  <i_m_ct_stereo_status>  (104) 
1

>  <s_m_source_file>  (104) 
/var/tmp/pbs.5076255.sched01/tmpxjfjwjbi/40jwkb7fqh.sdf

>  <i_m_source_file_index>  (104) 
8

>  <i_lp_mmshare_version>  (104) 
48012

>  <i_f3d_flags>  (104) 
0

>  <s_epik_input>  (104) 
W0NIM11bQ0BIXShbT0hdKVtDQEBdMTJbQ0gyXVtDQEBdKFtDSDNdKShPTzEpW0NASF0zW0NASF0oTzIpW0NASF00W0NASF0oT1tDQEBIXTNbT0hdKVtDSDJdW0NAQEhdKFtPSF0pW0NAQF00KFtDSDNdKVtPSF0=

>  <s_epik_cmdline>  (104) 
J2VwaWtfcHl0aG9uJywgJy1waHQnLCAnMi4wJywgJy1waCcsICc3LjAnLCAnLXRuJywgJzgnLCAnLW1hJywgJzIwMCcsICctaW1hZScsICc8aW5maWxlLm1hZT4nLCAnLW9tYWUnLCAnPG91dGZpbGUubWFlPic=

>  <r_lp_tautomer_probability>  (104) 
1

>  <r_epik_Ionization_Penalty>  (104) 
1.74871e-06

>  <r_epik_Ionization_Penalty_Charging>  (104) 
0

>  <r_epik_Ionization_Penalty_Neutral>  (104) 
1.74871e-06

>  <r_epik_State_Penalty>  (104) 
-0

>  <r_epik_Charging_Adjusted_Penalty>  (104) 
0

>  <i_epik_Tot_Q>  (104) 
0

>  <i_epik_Tot_abs_Q>  (104) 
0

>  <s_epik_Chemistry_Notes>  (104) 
This compound contains an acetal/aminal-like group ( X-CH(R)-Y where X, Y are N, S, or O) that may be acid/base labile, releasing an aldehyde.

>  <s_lp_Force_Field>  (104) 
OPLS3e

>  <r_lp_Energy>  (104) 
29.5825

>  <b_lp_Chiralities_Consistent>  (104) 
1

>  <s_lp_Variant>  (104) 
36:0-1

>  <s_i_glide_gridfile>  (104) 
pfpi4k_grid

>  <i_i_glide_lignum>  (104) 
8

>  <i_i_glide_rotatable_bonds>  (104) 
5

>  <r_i_docking_score>  (104) 
-3.60399

>  <r_i_glide_ligand_efficiency>  (104) 
-0.156695

>  <r_i_glide_ligand_efficiency_sa>  (104) 
-0.44562

>  <r_i_glide_ligand_efficiency_ln>  (104) 
-0.871478

>  <r_i_glide_gscore>  (104) 
-3.60399

>  <r_i_glide_lipo>  (104) 
-0.544564

>  <r_i_glide_hbond>  (104) 
0

>  <r_i_glide_metal>  (104) 
-0

>  <r_i_glide_rewards>  (104) 
-1.25113

>  <r_i_glide_evdw>  (104) 
-22.8053

>  <r_i_glide_ecoul>  (104) 
-5.25725

>  <r_i_glide_erotb>  (104) 
0.170508

>  <r_i_glide_esite>  (104) 
-0.0499503

>  <r_i_glide_emodel>  (104) 
-29.0471

>  <r_i_glide_energy>  (104) 
-28.0626

>  <r_i_glide_einternal>  (104) 
9.12744

>  <r_i_glide_intrahb_reward>  (104) 
-0

>  <i_i_glide_confnum>  (104) 
5

>  <i_i_glide_posenum>  (104) 
23

>  <r_i_glide_eff_state_penalty>  (104) 
0

>  <ligand_id>  (104) 
36

>  <original_smiles>  (104) 
CC(O)C12CC(C)(OO1)C1C(O)OC3CC(O)C(C)(O)C3C1O2

>  <smiles>  (104) 
[H]OC1([H])OC2([H])C([H])([H])C([H])(O[H])C(O[H])(C([H])([H])[H])C2([H])C2([H])OC3(C([H])(O[H])C([H])([H])[H])OOC(C([H])([H])[H])(C3([H])[H])C12[H]

$$$$
36:0:1
     RDKit          3D

 47 50  0  0  1  0  0  0  0  0999 V2000
    1.9502    1.5369    2.1180 C   0  0  0  0  0  0  0  0  0  0  0  0
    1.3350    0.1448    2.0501 C   0  0  2  0  0  0  0  0  0  0  0  0
    0.4744    0.0511    3.1635 O   0  0  0  0  0  0  0  0  0  0  0  0
    2.3929   -0.9872    1.9580 C   0  0  1  0  0  0  0  0  0  0  0  0
    3.4694   -0.9769    3.0287 C   0  0  0  0  0  0  0  0  0  0  0  0
    4.0050   -2.3935    2.8996 C   0  0  1  0  0  0  0  0  0  0  0  0
    4.8541   -2.8501    4.0929 C   0  0  0  0  0  0  0  0  0  0  0  0
    2.7670   -3.0636    2.9897 O   0  0  0  0  0  0  0  0  0  0  0  0
    1.7940   -2.2560    2.1743 O   0  0  0  0  0  0  0  0  0  0  0  0
    4.5090   -2.7185    1.4510 C   0  0  2  0  0  0  0  0  0  0  0  0
    6.0276   -3.1163    1.3673 C   0  0  1  0  0  0  0  0  0  0  0  0
    6.2540   -4.4403    1.7910 O   0  0  0  0  0  0  0  0  0  0  0  0
    6.5253   -2.9421    0.0581 O   0  0  0  0  0  0  0  0  0  0  0  0
    5.5458   -3.1380   -0.9663 C   0  0  2  0  0  0  0  0  0  0  0  0
    5.9636   -3.2347   -2.4282 C   0  0  0  0  0  0  0  0  0  0  0  0
    4.7055   -2.7827   -3.1944 C   0  0  1  0  0  0  0  0  0  0  0  0
    4.1424   -3.8569   -3.9159 O   0  0  0  0  0  0  0  0  0  0  0  0
    3.7383   -2.1528   -2.1540 C   0  0  1  0  0  0  0  0  0  0  0  0
    3.0925   -0.9187   -2.7640 C   0  0  0  0  0  0  0  0  0  0  0  0
    2.7060   -3.0396   -1.7663 O   0  0  0  0  0  0  0  0  0  0  0  0
    4.6895   -1.8750   -0.9676 C   0  0  1  0  0  0  0  0  0  0  0  0
    4.2742   -1.5305    0.4834 C   0  0  1  0  0  0  0  0  0  0  0  0
    3.0014   -0.9219    0.6463 O   0  0  0  0  0  0  0  0  0  0  0  0
    2.6378    1.6911    1.2952 H   0  0  0  0  0  0  0  0  0  0  0  0
    2.4999    1.6791    3.0422 H   0  0  0  0  0  0  0  0  0  0  0  0
    1.1854    2.3048    2.0601 H   0  0  0  0  0  0  0  0  0  0  0  0
    0.6962    0.1225    1.1793 H   0  0  0  0  0  0  0  0  0  0  0  0
   -0.2531    0.6364    2.9990 H   0  0  0  0  0  0  0  0  0  0  0  0
    4.2141   -0.2025    2.8540 H   0  0  0  0  0  0  0  0  0  0  0  0
    3.0357   -0.8111    4.0091 H   0  0  0  0  0  0  0  0  0  0  0  0
    5.8089   -2.3315    4.1186 H   0  0  0  0  0  0  0  0  0  0  0  0
    5.0275   -3.9264    4.0750 H   0  0  0  0  0  0  0  0  0  0  0  0
    4.3373   -2.6026    5.0140 H   0  0  0  0  0  0  0  0  0  0  0  0
    3.9280   -3.5668    1.0798 H   0  0  0  0  0  0  0  0  0  0  0  0
    6.5980   -2.4509    2.0269 H   0  0  0  0  0  0  0  0  0  0  0  0
    5.7023   -5.0212    1.2898 H   0  0  0  0  0  0  0  0  0  0  0  0
    4.9552   -4.0403   -0.7586 H   0  0  0  0  0  0  0  0  0  0  0  0
    6.7881   -2.5534   -2.6393 H   0  0  0  0  0  0  0  0  0  0  0  0
    6.2460   -4.2455   -2.7052 H   0  0  0  0  0  0  0  0  0  0  0  0
    5.0207   -2.0141   -3.9175 H   0  0  0  0  0  0  0  0  0  0  0  0
    3.7237   -4.4488   -3.2969 H   0  0  0  0  0  0  0  0  0  0  0  0
    3.8159   -0.1625   -3.0549 H   0  0  0  0  0  0  0  0  0  0  0  0
    2.4087   -0.4750   -2.0592 H   0  0  0  0  0  0  0  0  0  0  0  0
    2.5405   -1.1820   -3.6596 H   0  0  0  0  0  0  0  0  0  0  0  0
    2.0268   -2.5174   -1.3505 H   0  0  0  0  0  0  0  0  0  0  0  0
    5.3140   -1.0357   -1.2701 H   0  0  0  0  0  0  0  0  0  0  0  0
    4.9687   -0.7501    0.8137 H   0  0  0  0  0  0  0  0  0  0  0  0
  1  2  1  0
  1 24  1  0
  1 25  1  0
  1 26  1  0
  2  3  1  0
  2  4  1  0
  2 27  1  6
  3 28  1  0
  4  9  1  6
  4 23  1  0
  4  5  1  0
  5  6  1  0
  5 29  1  0
  5 30  1  0
  6  7  1  1
  6  8  1  0
  6 10  1  0
  7 31  1  0
  7 32  1  0
  7 33  1  0
  8  9  1  0
 10 22  1  0
 10 11  1  0
 10 34  1  6
 11 12  1  0
 11 13  1  0
 11 35  1  1
 12 36  1  0
 13 14  1  0
 14 21  1  0
 14 15  1  0
 14 37  1  1
 15 16  1  0
 15 38  1  0
 15 39  1  0
 16 17  1  0
 16 18  1  0
 16 40  1  6
 17 41  1  0
 18 19  1  0
 18 20  1  1
 18 21  1  0
 19 42  1  0
 19 43  1  0
 19 44  1  0
 20 45  1  0
 21 22  1  0
 21 46  1  6
 22 23  1  0
 22 47  1  1
M  END
>  <i_m_ct_stereo_status>  (105) 
1

>  <s_m_source_file>  (105) 
/var/tmp/pbs.5076255.sched01/tmpxjfjwjbi/40jwkb7fqh.sdf

>  <i_m_source_file_index>  (105) 
8

>  <i_lp_mmshare_version>  (105) 
48012

>  <i_f3d_flags>  (105) 
0

>  <s_epik_input>  (105) 
W0NIM11bQ0BIXShbT0hdKVtDQEBdMTJbQ0gyXVtDQEBdKFtDSDNdKShPTzEpW0NASF0zW0NASF0oTzIpW0NASF00W0NASF0oT1tDQEBIXTNbT0hdKVtDSDJdW0NAQEhdKFtPSF0pW0NAQF00KFtDSDNdKVtPSF0=

>  <s_epik_cmdline>  (105) 
J2VwaWtfcHl0aG9uJywgJy1waHQnLCAnMi4wJywgJy1waCcsICc3LjAnLCAnLXRuJywgJzgnLCAnLW1hJywgJzIwMCcsICctaW1hZScsICc8aW5maWxlLm1hZT4nLCAnLW9tYWUnLCAnPG91dGZpbGUubWFlPic=

>  <r_lp_tautomer_probability>  (105) 
1

>  <r_epik_Ionization_Penalty>  (105) 
1.74871e-06

>  <r_epik_Ionization_Penalty_Charging>  (105) 
0

>  <r_epik_Ionization_Penalty_Neutral>  (105) 
1.74871e-06

>  <r_epik_State_Penalty>  (105) 
-0

>  <r_epik_Charging_Adjusted_Penalty>  (105) 
0

>  <i_epik_Tot_Q>  (105) 
0

>  <i_epik_Tot_abs_Q>  (105) 
0

>  <s_epik_Chemistry_Notes>  (105) 
This compound contains an acetal/aminal-like group ( X-CH(R)-Y where X, Y are N, S, or O) that may be acid/base labile, releasing an aldehyde.

>  <s_lp_Force_Field>  (105) 
OPLS3e

>  <r_lp_Energy>  (105) 
29.5825

>  <b_lp_Chiralities_Consistent>  (105) 
1

>  <s_lp_Variant>  (105) 
36:0-1

>  <s_i_glide_gridfile>  (105) 
pfpi4k_grid

>  <i_i_glide_lignum>  (105) 
8

>  <i_i_glide_rotatable_bonds>  (105) 
5

>  <r_i_docking_score>  (105) 
-3.45621

>  <r_i_glide_ligand_efficiency>  (105) 
-0.15027

>  <r_i_glide_ligand_efficiency_sa>  (105) 
-0.427348

>  <r_i_glide_ligand_efficiency_ln>  (105) 
-0.835742

>  <r_i_glide_gscore>  (105) 
-3.45621

>  <r_i_glide_lipo>  (105) 
-0.499465

>  <r_i_glide_hbond>  (105) 
0

>  <r_i_glide_metal>  (105) 
-0

>  <r_i_glide_rewards>  (105) 
-1.2737

>  <r_i_glide_evdw>  (105) 
-24.3616

>  <r_i_glide_ecoul>  (105) 
-3.9305

>  <r_i_glide_erotb>  (105) 
0.170508

>  <r_i_glide_esite>  (105) 
-0.0458949

>  <r_i_glide_emodel>  (105) 
-31.1826

>  <r_i_glide_energy>  (105) 
-28.2921

>  <r_i_glide_einternal>  (105) 
5.1853

>  <r_i_glide_intrahb_reward>  (105) 
-0

>  <i_i_glide_confnum>  (105) 
6

>  <i_i_glide_posenum>  (105) 
27

>  <r_i_glide_eff_state_penalty>  (105) 
0

>  <ligand_id>  (105) 
36

>  <original_smiles>  (105) 
CC(O)C12CC(C)(OO1)C1C(O)OC3CC(O)C(C)(O)C3C1O2

>  <smiles>  (105) 
[H]OC1([H])OC2([H])C([H])([H])C([H])(O[H])C(O[H])(C([H])([H])[H])C2([H])C2([H])OC3(C([H])(O[H])C([H])([H])[H])OOC(C([H])([H])[H])(C3([H])[H])C12[H]

$$$$
36:0:2
     RDKit          3D

 47 50  0  0  1  0  0  0  0  0999 V2000
    2.0953    1.2356    1.8891 C   0  0  0  0  0  0  0  0  0  0  0  0
    1.4704   -0.1516    2.0709 C   0  0  2  0  0  0  0  0  0  0  0  0
    0.8548   -0.1450    3.3417 O   0  0  0  0  0  0  0  0  0  0  0  0
    2.4984   -1.3040    1.9295 C   0  0  1  0  0  0  0  0  0  0  0  0
    3.5962   -1.3611    2.9908 C   0  0  0  0  0  0  0  0  0  0  0  0
    4.1091   -2.7842    2.7790 C   0  0  1  0  0  0  0  0  0  0  0  0
    4.9426   -3.3202    3.9499 C   0  0  0  0  0  0  0  0  0  0  0  0
    2.8589   -3.4484    2.8280 O   0  0  0  0  0  0  0  0  0  0  0  0
    1.8548   -2.5477    2.1491 O   0  0  0  0  0  0  0  0  0  0  0  0
    4.6380   -3.0149    1.3235 C   0  0  2  0  0  0  0  0  0  0  0  0
    6.1652   -3.3912    1.1993 C   0  0  1  0  0  0  0  0  0  0  0  0
    6.3681   -4.7422    1.5353 O   0  0  0  0  0  0  0  0  0  0  0  0
    6.6600   -3.1354   -0.0989 O   0  0  0  0  0  0  0  0  0  0  0  0
    5.6789   -3.2688   -1.1180 C   0  0  2  0  0  0  0  0  0  0  0  0
    6.0963   -3.2563   -2.5736 C   0  0  0  0  0  0  0  0  0  0  0  0
    4.8311   -2.7608   -3.3053 C   0  0  1  0  0  0  0  0  0  0  0  0
    4.2861   -3.7599   -4.1465 O   0  0  0  0  0  0  0  0  0  0  0  0
    3.8564   -2.2243   -2.2351 C   0  0  1  0  0  0  0  0  0  0  0  0
    3.2169   -0.9284   -2.7245 C   0  0  0  0  0  0  0  0  0  0  0  0
    2.8296   -3.1592   -1.9627 O   0  0  0  0  0  0  0  0  0  0  0  0
    4.7973   -2.0316   -1.0288 C   0  0  1  0  0  0  0  0  0  0  0  0
    4.3583   -1.7829    0.4329 C   0  0  1  0  0  0  0  0  0  0  0  0
    3.0434   -1.2583    0.5988 O   0  0  0  0  0  0  0  0  0  0  0  0
    2.5920    1.3022    0.9219 H   0  0  0  0  0  0  0  0  0  0  0  0
    2.8332    1.4558    2.6596 H   0  0  0  0  0  0  0  0  0  0  0  0
    1.3333    2.0164    1.9149 H   0  0  0  0  0  0  0  0  0  0  0  0
    0.6980   -0.2766    1.3090 H   0  0  0  0  0  0  0  0  0  0  0  0
    0.2181    0.5582    3.3469 H   0  0  0  0  0  0  0  0  0  0  0  0
    4.3578   -0.5877    2.8726 H   0  0  0  0  0  0  0  0  0  0  0  0
    3.1769   -1.2543    3.9891 H   0  0  0  0  0  0  0  0  0  0  0  0
    5.8936   -2.8023    4.0153 H   0  0  0  0  0  0  0  0  0  0  0  0
    5.1256   -4.3934    3.8624 H   0  0  0  0  0  0  0  0  0  0  0  0
    4.4299   -3.1555    4.8969 H   0  0  0  0  0  0  0  0  0  0  0  0
    4.0698   -3.8510    0.9108 H   0  0  0  0  0  0  0  0  0  0  0  0
    6.7757   -2.7912    1.8769 H   0  0  0  0  0  0  0  0  0  0  0  0
    5.7905   -5.2696    1.0017 H   0  0  0  0  0  0  0  0  0  0  0  0
    5.1141   -4.1930   -0.9736 H   0  0  0  0  0  0  0  0  0  0  0  0
    6.9376   -2.5790   -2.7185 H   0  0  0  0  0  0  0  0  0  0  0  0
    6.3979   -4.2388   -2.9164 H   0  0  0  0  0  0  0  0  0  0  0  0
    5.1233   -1.9181   -3.9249 H   0  0  0  0  0  0  0  0  0  0  0  0
    3.9295   -4.4591   -3.6115 H   0  0  0  0  0  0  0  0  0  0  0  0
    3.9415   -0.1368   -2.9263 H   0  0  0  0  0  0  0  0  0  0  0  0
    2.5622   -0.5846   -1.9361 H   0  0  0  0  0  0  0  0  0  0  0  0
    2.6436   -1.0807   -3.6342 H   0  0  0  0  0  0  0  0  0  0  0  0
    3.1903   -4.0348   -1.9000 H   0  0  0  0  0  0  0  0  0  0  0  0
    5.4232   -1.1691   -1.2737 H   0  0  0  0  0  0  0  0  0  0  0  0
    5.0157   -0.9891    0.7930 H   0  0  0  0  0  0  0  0  0  0  0  0
  1  2  1  0
  1 24  1  0
  1 25  1  0
  1 26  1  0
  2  3  1  0
  2  4  1  0
  2 27  1  6
  3 28  1  0
  4  9  1  6
  4 23  1  0
  4  5  1  0
  5  6  1  0
  5 29  1  0
  5 30  1  0
  6  7  1  1
  6  8  1  0
  6 10  1  0
  7 31  1  0
  7 32  1  0
  7 33  1  0
  8  9  1  0
 10 22  1  0
 10 11  1  0
 10 34  1  6
 11 12  1  0
 11 13  1  0
 11 35  1  1
 12 36  1  0
 13 14  1  0
 14 21  1  0
 14 15  1  0
 14 37  1  1
 15 16  1  0
 15 38  1  0
 15 39  1  0
 16 17  1  0
 16 18  1  0
 16 40  1  6
 17 41  1  0
 18 19  1  0
 18 20  1  1
 18 21  1  0
 19 42  1  0
 19 43  1  0
 19 44  1  0
 20 45  1  0
 21 22  1  0
 21 46  1  6
 22 23  1  0
 22 47  1  1
M  END
>  <i_m_ct_stereo_status>  (106) 
1

>  <s_m_source_file>  (106) 
/var/tmp/pbs.5076255.sched01/tmpxjfjwjbi/40jwkb7fqh.sdf

>  <i_m_source_file_index>  (106) 
8

>  <i_lp_mmshare_version>  (106) 
48012

>  <i_f3d_flags>  (106) 
0

>  <s_epik_input>  (106) 
W0NIM11bQ0BIXShbT0hdKVtDQEBdMTJbQ0gyXVtDQEBdKFtDSDNdKShPTzEpW0NASF0zW0NASF0oTzIpW0NASF00W0NASF0oT1tDQEBIXTNbT0hdKVtDSDJdW0NAQEhdKFtPSF0pW0NAQF00KFtDSDNdKVtPSF0=

>  <s_epik_cmdline>  (106) 
J2VwaWtfcHl0aG9uJywgJy1waHQnLCAnMi4wJywgJy1waCcsICc3LjAnLCAnLXRuJywgJzgnLCAnLW1hJywgJzIwMCcsICctaW1hZScsICc8aW5maWxlLm1hZT4nLCAnLW9tYWUnLCAnPG91dGZpbGUubWFlPic=

>  <r_lp_tautomer_probability>  (106) 
1

>  <r_epik_Ionization_Penalty>  (106) 
1.74871e-06

>  <r_epik_Ionization_Penalty_Charging>  (106) 
0

>  <r_epik_Ionization_Penalty_Neutral>  (106) 
1.74871e-06

>  <r_epik_State_Penalty>  (106) 
-0

>  <r_epik_Charging_Adjusted_Penalty>  (106) 
0

>  <i_epik_Tot_Q>  (106) 
0

>  <i_epik_Tot_abs_Q>  (106) 
0

>  <s_epik_Chemistry_Notes>  (106) 
This compound contains an acetal/aminal-like group ( X-CH(R)-Y where X, Y are N, S, or O) that may be acid/base labile, releasing an aldehyde.

>  <s_lp_Force_Field>  (106) 
OPLS3e

>  <r_lp_Energy>  (106) 
29.5825

>  <b_lp_Chiralities_Consistent>  (106) 
1

>  <s_lp_Variant>  (106) 
36:0-1

>  <s_i_glide_gridfile>  (106) 
pfpi4k_grid

>  <i_i_glide_lignum>  (106) 
8

>  <i_i_glide_rotatable_bonds>  (106) 
5

>  <r_i_docking_score>  (106) 
-3.38151

>  <r_i_glide_ligand_efficiency>  (106) 
-0.147022

>  <r_i_glide_ligand_efficiency_sa>  (106) 
-0.418112

>  <r_i_glide_ligand_efficiency_ln>  (106) 
-0.81768

>  <r_i_glide_gscore>  (106) 
-3.38151

>  <r_i_glide_lipo>  (106) 
-0.568279

>  <r_i_glide_hbond>  (106) 
0

>  <r_i_glide_metal>  (106) 
-0

>  <r_i_glide_rewards>  (106) 
-1.2633

>  <r_i_glide_evdw>  (106) 
-22.3078

>  <r_i_glide_ecoul>  (106) 
-3.74741

>  <r_i_glide_erotb>  (106) 
0.170508

>  <r_i_glide_esite>  (106) 
-0.0429376

>  <r_i_glide_emodel>  (106) 
-30.2565

>  <r_i_glide_energy>  (106) 
-26.0552

>  <r_i_glide_einternal>  (106) 
3.13693

>  <r_i_glide_intrahb_reward>  (106) 
-0

>  <i_i_glide_confnum>  (106) 
3

>  <i_i_glide_posenum>  (106) 
18

>  <r_i_glide_eff_state_penalty>  (106) 
0

>  <ligand_id>  (106) 
36

>  <original_smiles>  (106) 
CC(O)C12CC(C)(OO1)C1C(O)OC3CC(O)C(C)(O)C3C1O2

>  <smiles>  (106) 
[H]OC1([H])OC2([H])C([H])([H])C([H])(O[H])C(O[H])(C([H])([H])[H])C2([H])C2([H])OC3(C([H])(O[H])C([H])([H])[H])OOC(C([H])([H])[H])(C3([H])[H])C12[H]

$$$$
37:0:0
     RDKit          3D

 81 86  0  0  1  0  0  0  0  0999 V2000
    5.4458   -9.5356    1.4434 C   0  0  0  0  0  0  0  0  0  0  0  0
    4.2019   -8.6734    1.3521 C   0  0  0  0  0  0  0  0  0  0  0  0
    4.3643   -7.4512    0.4719 C   0  0  0  0  0  0  0  0  0  0  0  0
    3.0526   -8.9174    2.0240 C   0  0  0  0  0  0  0  0  0  0  0  0
    2.7697  -10.0851    2.9624 C   0  0  0  0  0  0  0  0  0  0  0  0
    3.1071   -9.7874    4.4462 C   0  0  1  0  0  0  0  0  0  0  0  0
    2.7530  -10.9198    5.4090 C   0  0  0  0  0  0  0  0  0  0  0  0
    3.4779  -10.2410    6.5818 C   0  0  1  0  0  0  0  0  0  0  0  0
    3.4183  -11.0310    7.7525 O   0  0  0  0  0  0  0  0  0  0  0  0
    4.9386  -10.2634    6.0057 C   0  0  0  0  0  0  0  0  0  0  0  0
    6.1156   -9.8154    6.9111 C   0  0  0  0  0  0  0  0  0  0  0  0
    5.4704  -11.6686    5.5485 C   0  0  0  0  0  0  0  0  0  0  0  0
    4.6224   -9.4529    4.7435 C   0  0  2  0  0  0  0  0  0  0  0  0
    4.9380   -7.9341    4.8344 C   0  0  0  0  0  0  0  0  0  0  0  0
    4.6964   -7.1991    6.1853 C   0  0  0  0  0  0  0  0  0  0  0  0
    3.3774   -7.4624    7.0219 C   0  0  1  0  0  0  0  0  0  0  0  0
    3.8353   -7.6902    8.5032 C   0  0  0  0  0  0  0  0  0  0  0  0
    2.4020   -6.1540    6.9406 C   0  0  2  0  0  0  0  0  0  0  0  0
    2.5670   -5.3186    5.6205 C   0  0  0  0  0  0  0  0  0  0  0  0
    2.7199   -5.1192    8.0666 C   0  0  0  0  0  0  0  0  0  0  0  0
    1.8611   -3.8219    8.0451 C   0  0  0  0  0  0  0  0  0  0  0  0
    0.4055   -4.0499    7.6473 C   0  0  1  0  0  0  0  0  0  0  0  0
   -0.0857   -2.8233    6.8294 C   0  0  0  0  0  0  0  0  0  0  0  0
   -0.4210   -3.0227    5.6554 O   0  0  0  0  0  0  0  0  0  0  0  0
   -0.1764   -1.7564    7.4389 O   0  0  0  0  0  0  0  0  0  0  0  0
   -0.0990   -5.4029    7.2193 C   0  0  1  0  0  0  0  0  0  0  0  0
    0.8910   -6.5600    7.0247 C   0  0  2  0  0  0  0  0  0  0  0  0
    0.6144   -7.7506    7.9440 C   0  0  0  0  0  0  0  0  0  0  0  0
    1.3762   -9.0236    7.5188 C   0  0  0  0  0  0  0  0  0  0  0  0
    2.6535   -8.8334    6.6152 C   0  0  2  0  0  0  0  0  0  0  0  0
    2.2237   -8.7502    5.1162 C   0  0  0  0  0  0  0  0  0  0  0  0
   -0.6266   -4.7613    8.4964 C   0  0  0  0  0  0  0  0  0  0  0  0
   -0.2607   -5.1676    9.9213 C   0  0  0  0  0  0  0  0  0  0  0  0
   -2.0817   -4.3101    8.5150 C   0  0  0  0  0  0  0  0  0  0  0  0
    6.2345   -8.9967    1.9688 H   0  0  0  0  0  0  0  0  0  0  0  0
    5.8437   -9.7739    0.4762 H   0  0  0  0  0  0  0  0  0  0  0  0
    5.2736  -10.5025    1.9105 H   0  0  0  0  0  0  0  0  0  0  0  0
    5.1782   -6.8282    0.8425 H   0  0  0  0  0  0  0  0  0  0  0  0
    3.4565   -6.8439    0.4481 H   0  0  0  0  0  0  0  0  0  0  0  0
    4.6198   -7.7576   -0.5411 H   0  0  0  0  0  0  0  0  0  0  0  0
    2.2349   -8.2237    1.9088 H   0  0  0  0  0  0  0  0  0  0  0  0
    1.7048  -10.3033    2.8552 H   0  0  0  0  0  0  0  0  0  0  0  0
    3.2725  -10.9916    2.6217 H   0  0  0  0  0  0  0  0  0  0  0  0
    1.6819  -11.0527    5.5743 H   0  0  0  0  0  0  0  0  0  0  0  0
    3.0853  -11.9115    5.1183 H   0  0  0  0  0  0  0  0  0  0  0  0
    2.6409  -11.6025    7.6880 H   0  0  0  0  0  0  0  0  0  0  0  0
    6.9443   -9.4322    6.3146 H   0  0  0  0  0  0  0  0  0  0  0  0
    6.5040  -10.6561    7.4872 H   0  0  0  0  0  0  0  0  0  0  0  0
    5.8928   -9.0920    7.6714 H   0  0  0  0  0  0  0  0  0  0  0  0
    6.5460  -11.6472    5.3650 H   0  0  0  0  0  0  0  0  0  0  0  0
    5.0653  -12.0306    4.6029 H   0  0  0  0  0  0  0  0  0  0  0  0
    5.2930  -12.4338    6.3048 H   0  0  0  0  0  0  0  0  0  0  0  0
    5.2665   -9.8568    3.9785 H   0  0  0  0  0  0  0  0  0  0  0  0
    5.9944   -7.8106    4.5957 H   0  0  0  0  0  0  0  0  0  0  0  0
    4.4326   -7.4051    4.0278 H   0  0  0  0  0  0  0  0  0  0  0  0
    5.5779   -7.3228    6.8022 H   0  0  0  0  0  0  0  0  0  0  0  0
    4.8310   -6.1390    5.9893 H   0  0  0  0  0  0  0  0  0  0  0  0
    3.0264   -7.6200    9.2237 H   0  0  0  0  0  0  0  0  0  0  0  0
    4.6062   -6.9830    8.8150 H   0  0  0  0  0  0  0  0  0  0  0  0
    4.2125   -8.6903    8.6862 H   0  0  0  0  0  0  0  0  0  0  0  0
    1.6669   -4.7696    5.3606 H   0  0  0  0  0  0  0  0  0  0  0  0
    2.8259   -5.8746    4.7295 H   0  0  0  0  0  0  0  0  0  0  0  0
    3.3478   -4.5645    5.7187 H   0  0  0  0  0  0  0  0  0  0  0  0
    2.5792   -5.5602    9.0409 H   0  0  0  0  0  0  0  0  0  0  0  0
    3.7775   -4.8416    8.0441 H   0  0  0  0  0  0  0  0  0  0  0  0
    1.8752   -3.3637    9.0364 H   0  0  0  0  0  0  0  0  0  0  0  0
    2.3278   -3.0917    7.3828 H   0  0  0  0  0  0  0  0  0  0  0  0
   -0.8485   -5.4157    6.4344 H   0  0  0  0  0  0  0  0  0  0  0  0
    0.6263   -6.9264    6.0352 H   0  0  0  0  0  0  0  0  0  0  0  0
    0.9227   -7.5024    8.9571 H   0  0  0  0  0  0  0  0  0  0  0  0
   -0.4560   -7.9570    8.0263 H   0  0  0  0  0  0  0  0  0  0  0  0
    1.6030   -9.5791    8.4337 H   0  0  0  0  0  0  0  0  0  0  0  0
    0.6565   -9.6541    6.9937 H   0  0  0  0  0  0  0  0  0  0  0  0
    2.3256   -7.7933    4.6383 H   0  0  0  0  0  0  0  0  0  0  0  0
    1.1704   -9.0015    4.9704 H   0  0  0  0  0  0  0  0  0  0  0  0
   -0.8835   -5.9859   10.2568 H   0  0  0  0  0  0  0  0  0  0  0  0
   -0.4069   -4.3277   10.5985 H   0  0  0  0  0  0  0  0  0  0  0  0
    0.7676   -5.4811    9.9924 H   0  0  0  0  0  0  0  0  0  0  0  0
   -2.7580   -5.0709    8.8533 H   0  0  0  0  0  0  0  0  0  0  0  0
   -2.4227   -4.0179    7.5183 H   0  0  0  0  0  0  0  0  0  0  0  0
   -2.2119   -3.5336    9.2428 H   0  0  0  0  0  0  0  0  0  0  0  0
  1  2  1  0
  1 35  1  0
  1 36  1  0
  1 37  1  0
  2  3  1  0
  2  4  2  3
  3 38  1  0
  3 39  1  0
  3 40  1  0
  4  5  1  0
  4 41  1  0
  6  5  1  6
  5 42  1  0
  5 43  1  0
  6 13  1  0
  6 31  1  0
  6  7  1  0
  7  8  1  0
  7 44  1  0
  7 45  1  0
  8 30  1  0
  8  9  1  1
  8 10  1  0
  9 46  1  0
 10 11  1  0
 10 12  1  0
 10 13  1  0
 11 47  1  0
 11 48  1  0
 11 49  1  0
 12 50  1  0
 12 51  1  0
 12 52  1  0
 13 14  1  0
 13 53  1  6
 14 15  1  0
 14 54  1  0
 14 55  1  0
 15 16  1  0
 15 56  1  0
 15 57  1  0
 16 30  1  0
 16 17  1  1
 16 18  1  0
 17 58  1  0
 17 59  1  0
 17 60  1  0
 18 27  1  0
 18 19  1  6
 18 20  1  0
 19 61  1  0
 19 62  1  0
 19 63  1  0
 20 21  1  0
 20 64  1  0
 20 65  1  0
 21 22  1  0
 21 66  1  0
 21 67  1  0
 22 32  1  0
 22 23  1  6
 22 26  1  0
 23 24  2  0
 23 25  1  0
 26 27  1  0
 26 32  1  0
 26 68  1  6
 27 28  1  0
 27 69  1  6
 28 29  1  0
 28 70  1  0
 28 71  1  0
 30 29  1  1
 29 72  1  0
 29 73  1  0
 30 31  1  0
 31 74  1  0
 31 75  1  0
 32 33  1  0
 32 34  1  0
 33 76  1  0
 33 77  1  0
 33 78  1  0
 34 79  1  0
 34 80  1  0
 34 81  1  0
M  CHG  1  25  -1
M  END
>  <i_m_ct_stereo_status>  (107) 
1

>  <s_m_source_file>  (107) 
/var/tmp/pbs.5076255.sched01/tmpxjfjwjbi/40jwkb7fqh.sdf

>  <i_m_source_file_index>  (107) 
9

>  <i_lp_mmshare_version>  (107) 
48012

>  <i_f3d_flags>  (107) 
0

>  <s_epik_input>  (107) 
W0NIM11DKFtDSDNdKT1bQ0hdW0NIMl1bQ0BAXShbQ0gyXTEpKFtDSDJdW0NAQF0yKFtDQF0xMzQpW09IXSlbQ0BIXShDMihbQ0gzXSlbQ0gzXSlbQ0gyXVtDSDJdW0NAQF0zKFtDSDNdKVtDQEBdNShbQ0gzXSlbQ0BASF0oW0NIMl1bQ0gyXTQpW0NAQEhdNltDQEBdKFtDSDJdW0NIMl01KShDKD1PKVtPSF0pQzYoW0NIM10pW0NIM10=

>  <s_epik_cmdline>  (107) 
J2VwaWtfcHl0aG9uJywgJy1waHQnLCAnMi4wJywgJy1waCcsICc3LjAnLCAnLXRuJywgJzgnLCAnLW1hJywgJzIwMCcsICctaW1hZScsICc8aW5maWxlLm1hZT4nLCAnLW9tYWUnLCAnPG91dGZpbGUubWFlPic=

>  <r_epik_Ionization_Penalty>  (107) 
0.0107771

>  <r_epik_Ionization_Penalty_Charging>  (107) 
0.0107701

>  <r_epik_Ionization_Penalty_Neutral>  (107) 
7.09443e-06

>  <r_epik_State_Penalty>  (107) 
0.00825386

>  <r_epik_Charging_Adjusted_Penalty>  (107) 
0.0190239

>  <i_epik_Tot_Q>  (107) 
-1

>  <i_epik_Tot_abs_Q>  (107) 
1

>  <s_lp_Force_Field>  (107) 
OPLS3e

>  <r_lp_Energy>  (107) 
156.798

>  <b_lp_Chiralities_Consistent>  (107) 
1

>  <s_lp_Variant>  (107) 
37:0-1

>  <s_i_glide_gridfile>  (107) 
pfpi4k_grid

>  <i_i_glide_lignum>  (107) 
9

>  <i_i_glide_rotatable_bonds>  (107) 
4

>  <r_i_docking_score>  (107) 
-2.02037

>  <r_i_glide_ligand_efficiency>  (107) 
-0.0594227

>  <r_i_glide_ligand_efficiency_sa>  (107) 
-0.192506

>  <r_i_glide_ligand_efficiency_ln>  (107) 
-0.446357

>  <r_i_glide_gscore>  (107) 
-2.02037

>  <r_i_glide_lipo>  (107) 
-0.149087

>  <r_i_glide_hbond>  (107) 
-0.187935

>  <r_i_glide_metal>  (107) 
-0

>  <r_i_glide_rewards>  (107) 
-0.220206

>  <r_i_glide_evdw>  (107) 
-13.2044

>  <r_i_glide_ecoul>  (107) 
-6.36984

>  <r_i_glide_erotb>  (107) 
0.184546

>  <r_i_glide_esite>  (107) 
-0.0319913

>  <r_i_glide_emodel>  (107) 
-21.8555

>  <r_i_glide_energy>  (107) 
-19.5743

>  <r_i_glide_einternal>  (107) 
2.95256

>  <r_i_glide_intrahb_reward>  (107) 
-0

>  <i_i_glide_confnum>  (107) 
3

>  <i_i_glide_posenum>  (107) 
20

>  <r_i_glide_eff_state_penalty>  (107) 
0

>  <ligand_id>  (107) 
37

>  <original_smiles>  (107) 
CC(C)=CCC12CC3(O)C(C)(C)C1CCC1(C)C4(C)CCC5(C(=O)O)C(C4CCC13C2)C5(C)C

>  <smiles>  (107) 
[H]OC12C([H])([H])C3(C([H])([H])C([H])=C(C([H])([H])[H])C([H])([H])[H])C([H])([H])C14C([H])([H])C([H])([H])C1([H])C5([H])C(C(=O)[O-])(C([H])([H])C([H])([H])C1(C([H])([H])[H])C4(C([H])([H])[H])C([H])([H])C([H])([H])C3([H])C2(C([H])([H])[H])C([H])([H])[H])C5(C([H])([H])[H])C([H])([H])[H]

$$$$
37:0:1
     RDKit          3D

 81 86  0  0  1  0  0  0  0  0999 V2000
    0.0669   -7.2497    1.7268 C   0  0  0  0  0  0  0  0  0  0  0  0
    1.5281   -7.2748    1.3190 C   0  0  0  0  0  0  0  0  0  0  0  0
    1.9356   -6.1311    0.4108 C   0  0  0  0  0  0  0  0  0  0  0  0
    2.4202   -8.2151    1.7028 C   0  0  0  0  0  0  0  0  0  0  0  0
    2.1767   -9.4347    2.5858 C   0  0  0  0  0  0  0  0  0  0  0  0
    2.7266   -9.2766    4.0257 C   0  0  1  0  0  0  0  0  0  0  0  0
    2.4871  -10.4959    4.9258 C   0  0  0  0  0  0  0  0  0  0  0  0
    3.3453   -9.9160    6.0563 C   0  0  1  0  0  0  0  0  0  0  0  0
    3.4176  -10.7991    7.1611 O   0  0  0  0  0  0  0  0  0  0  0  0
    4.7310   -9.8727    5.3015 C   0  0  0  0  0  0  0  0  0  0  0  0
    6.0028   -9.4960    6.1127 C   0  0  0  0  0  0  0  0  0  0  0  0
    5.2069  -11.2325    4.6818 C   0  0  0  0  0  0  0  0  0  0  0  0
    4.2721   -8.9629    4.1399 C   0  0  2  0  0  0  0  0  0  0  0  0
    4.6053   -7.4543    4.3481 C   0  0  0  0  0  0  0  0  0  0  0  0
    4.5227   -6.8471    5.7854 C   0  0  0  0  0  0  0  0  0  0  0  0
    3.3084   -7.1852    6.7480 C   0  0  1  0  0  0  0  0  0  0  0  0
    3.9326   -7.5339    8.1458 C   0  0  0  0  0  0  0  0  0  0  0  0
    2.3368   -5.8831    6.8953 C   0  0  2  0  0  0  0  0  0  0  0  0
    2.3479   -4.9295    5.6427 C   0  0  0  0  0  0  0  0  0  0  0  0
    2.7814   -4.9459    8.0652 C   0  0  0  0  0  0  0  0  0  0  0  0
    1.9275   -3.6573    8.2522 C   0  0  0  0  0  0  0  0  0  0  0  0
    0.4329   -3.8451    7.9917 C   0  0  1  0  0  0  0  0  0  0  0  0
   -0.1479   -2.5761    7.3096 C   0  0  0  0  0  0  0  0  0  0  0  0
    0.2160   -1.4647    7.7615 O   0  0  0  0  0  0  0  0  0  0  0  0
   -1.0111   -2.7027    6.4202 O   0  0  0  0  0  0  0  0  0  0  0  0
   -0.1233   -5.1768    7.5263 C   0  0  1  0  0  0  0  0  0  0  0  0
    0.8412   -6.2963    7.1229 C   0  0  2  0  0  0  0  0  0  0  0  0
    0.6695   -7.5645    7.9563 C   0  0  0  0  0  0  0  0  0  0  0  0
    1.3708   -8.7929    7.3326 C   0  0  0  0  0  0  0  0  0  0  0  0
    2.5389   -8.5202    6.3089 C   0  0  2  0  0  0  0  0  0  0  0  0
    1.9405   -8.3056    4.8875 C   0  0  0  0  0  0  0  0  0  0  0  0
   -0.5009   -4.6238    8.9104 C   0  0  0  0  0  0  0  0  0  0  0  0
    0.0186   -5.1764   10.2293 C   0  0  0  0  0  0  0  0  0  0  0  0
   -1.9366   -4.1741    9.1371 C   0  0  0  0  0  0  0  0  0  0  0  0
   -0.5675   -7.4363    0.8596 H   0  0  0  0  0  0  0  0  0  0  0  0
   -0.1784   -6.2707    2.1346 H   0  0  0  0  0  0  0  0  0  0  0  0
   -0.1775   -7.9854    2.4901 H   0  0  0  0  0  0  0  0  0  0  0  0
    1.3380   -6.1409   -0.5008 H   0  0  0  0  0  0  0  0  0  0  0  0
    2.9829   -6.2062    0.1126 H   0  0  0  0  0  0  0  0  0  0  0  0
    1.7994   -5.1694    0.9034 H   0  0  0  0  0  0  0  0  0  0  0  0
    3.4402   -8.1148    1.3620 H   0  0  0  0  0  0  0  0  0  0  0  0
    1.1203   -9.6898    2.6140 H   0  0  0  0  0  0  0  0  0  0  0  0
    2.6593  -10.2844    2.1013 H   0  0  0  0  0  0  0  0  0  0  0  0
    1.4429  -10.6512    5.2024 H   0  0  0  0  0  0  0  0  0  0  0  0
    2.7851  -11.4544    4.5151 H   0  0  0  0  0  0  0  0  0  0  0  0
    2.5791  -11.2595    7.2684 H   0  0  0  0  0  0  0  0  0  0  0  0
    6.7683   -9.0556    5.4739 H   0  0  0  0  0  0  0  0  0  0  0  0
    6.4491  -10.3774    6.5739 H   0  0  0  0  0  0  0  0  0  0  0  0
    5.8669   -8.8471    6.9568 H   0  0  0  0  0  0  0  0  0  0  0  0
    6.2581  -11.1924    4.3848 H   0  0  0  0  0  0  0  0  0  0  0  0
    4.6952  -11.5231    3.7631 H   0  0  0  0  0  0  0  0  0  0  0  0
    5.1122  -12.0535    5.3957 H   0  0  0  0  0  0  0  0  0  0  0  0
    4.7687   -9.2737    3.2162 H   0  0  0  0  0  0  0  0  0  0  0  0
    5.6324   -7.2993    4.0108 H   0  0  0  0  0  0  0  0  0  0  0  0
    4.0123   -6.8545    3.6572 H   0  0  0  0  0  0  0  0  0  0  0  0
    5.4676   -7.0100    6.2864 H   0  0  0  0  0  0  0  0  0  0  0  0
    4.6349   -5.7716    5.6722 H   0  0  0  0  0  0  0  0  0  0  0  0
    3.2097   -7.5290    8.9584 H   0  0  0  0  0  0  0  0  0  0  0  0
    4.7356   -6.8490    8.4291 H   0  0  0  0  0  0  0  0  0  0  0  0
    4.3251   -8.5427    8.2020 H   0  0  0  0  0  0  0  0  0  0  0  0
    1.4231   -4.3649    5.5362 H   0  0  0  0  0  0  0  0  0  0  0  0
    2.5003   -5.4044    4.6820 H   0  0  0  0  0  0  0  0  0  0  0  0
    3.1377   -4.1798    5.7138 H   0  0  0  0  0  0  0  0  0  0  0  0
    2.7529   -5.4698    9.0125 H   0  0  0  0  0  0  0  0  0  0  0  0
    3.8281   -4.6574    7.9471 H   0  0  0  0  0  0  0  0  0  0  0  0
    2.0592   -3.2851    9.2702 H   0  0  0  0  0  0  0  0  0  0  0  0
    2.3403   -2.8791    7.6118 H   0  0  0  0  0  0  0  0  0  0  0  0
   -0.9663   -5.1480    6.8384 H   0  0  0  0  0  0  0  0  0  0  0  0
    0.4659   -6.5806    6.1415 H   0  0  0  0  0  0  0  0  0  0  0  0
    1.0843   -7.4053    8.9564 H   0  0  0  0  0  0  0  0  0  0  0  0
   -0.3829   -7.7783    8.1253 H   0  0  0  0  0  0  0  0  0  0  0  0
    1.6953   -9.4114    8.1639 H   0  0  0  0  0  0  0  0  0  0  0  0
    0.5865   -9.3862    6.8477 H   0  0  0  0  0  0  0  0  0  0  0  0
    1.9897   -7.3115    4.4841 H   0  0  0  0  0  0  0  0  0  0  0  0
    0.8772   -8.5504    4.8433 H   0  0  0  0  0  0  0  0  0  0  0  0
   -0.5710   -6.0344   10.5429 H   0  0  0  0  0  0  0  0  0  0  0  0
   -0.0417   -4.4104   11.0012 H   0  0  0  0  0  0  0  0  0  0  0  0
    1.0536   -5.4910   10.1661 H   0  0  0  0  0  0  0  0  0  0  0  0
   -2.5644   -4.9471    9.5195 H   0  0  0  0  0  0  0  0  0  0  0  0
   -2.4031   -3.8514    8.2066 H   0  0  0  0  0  0  0  0  0  0  0  0
   -1.9710   -3.3753    9.8726 H   0  0  0  0  0  0  0  0  0  0  0  0
  1  2  1  0
  1 35  1  0
  1 36  1  0
  1 37  1  0
  2  3  1  0
  2  4  2  3
  3 38  1  0
  3 39  1  0
  3 40  1  0
  4  5  1  0
  4 41  1  0
  6  5  1  6
  5 42  1  0
  5 43  1  0
  6 13  1  0
  6 31  1  0
  6  7  1  0
  7  8  1  0
  7 44  1  0
  7 45  1  0
  8 30  1  0
  8  9  1  1
  8 10  1  0
  9 46  1  0
 10 11  1  0
 10 12  1  0
 10 13  1  0
 11 47  1  0
 11 48  1  0
 11 49  1  0
 12 50  1  0
 12 51  1  0
 12 52  1  0
 13 14  1  0
 13 53  1  6
 14 15  1  0
 14 54  1  0
 14 55  1  0
 15 16  1  0
 15 56  1  0
 15 57  1  0
 16 30  1  0
 16 17  1  1
 16 18  1  0
 17 58  1  0
 17 59  1  0
 17 60  1  0
 18 27  1  0
 18 19  1  6
 18 20  1  0
 19 61  1  0
 19 62  1  0
 19 63  1  0
 20 21  1  0
 20 64  1  0
 20 65  1  0
 21 22  1  0
 21 66  1  0
 21 67  1  0
 22 32  1  0
 22 23  1  6
 22 26  1  0
 23 24  2  0
 23 25  1  0
 26 27  1  0
 26 32  1  0
 26 68  1  6
 27 28  1  0
 27 69  1  6
 28 29  1  0
 28 70  1  0
 28 71  1  0
 30 29  1  1
 29 72  1  0
 29 73  1  0
 30 31  1  0
 31 74  1  0
 31 75  1  0
 32 33  1  0
 32 34  1  0
 33 76  1  0
 33 77  1  0
 33 78  1  0
 34 79  1  0
 34 80  1  0
 34 81  1  0
M  CHG  1  25  -1
M  END
>  <i_m_ct_stereo_status>  (108) 
1

>  <s_m_source_file>  (108) 
/var/tmp/pbs.5076255.sched01/tmpxjfjwjbi/40jwkb7fqh.sdf

>  <i_m_source_file_index>  (108) 
9

>  <i_lp_mmshare_version>  (108) 
48012

>  <i_f3d_flags>  (108) 
0

>  <s_epik_input>  (108) 
W0NIM11DKFtDSDNdKT1bQ0hdW0NIMl1bQ0BAXShbQ0gyXTEpKFtDSDJdW0NAQF0yKFtDQF0xMzQpW09IXSlbQ0BIXShDMihbQ0gzXSlbQ0gzXSlbQ0gyXVtDSDJdW0NAQF0zKFtDSDNdKVtDQEBdNShbQ0gzXSlbQ0BASF0oW0NIMl1bQ0gyXTQpW0NAQEhdNltDQEBdKFtDSDJdW0NIMl01KShDKD1PKVtPSF0pQzYoW0NIM10pW0NIM10=

>  <s_epik_cmdline>  (108) 
J2VwaWtfcHl0aG9uJywgJy1waHQnLCAnMi4wJywgJy1waCcsICc3LjAnLCAnLXRuJywgJzgnLCAnLW1hJywgJzIwMCcsICctaW1hZScsICc8aW5maWxlLm1hZT4nLCAnLW9tYWUnLCAnPG91dGZpbGUubWFlPic=

>  <r_epik_Ionization_Penalty>  (108) 
0.0107771

>  <r_epik_Ionization_Penalty_Charging>  (108) 
0.0107701

>  <r_epik_Ionization_Penalty_Neutral>  (108) 
7.09443e-06

>  <r_epik_State_Penalty>  (108) 
0.00825386

>  <r_epik_Charging_Adjusted_Penalty>  (108) 
0.0190239

>  <i_epik_Tot_Q>  (108) 
-1

>  <i_epik_Tot_abs_Q>  (108) 
1

>  <s_lp_Force_Field>  (108) 
OPLS3e

>  <r_lp_Energy>  (108) 
156.798

>  <b_lp_Chiralities_Consistent>  (108) 
1

>  <s_lp_Variant>  (108) 
37:0-1

>  <s_i_glide_gridfile>  (108) 
pfpi4k_grid

>  <i_i_glide_lignum>  (108) 
9

>  <i_i_glide_rotatable_bonds>  (108) 
4

>  <r_i_docking_score>  (108) 
-1.85428

>  <r_i_glide_ligand_efficiency>  (108) 
-0.0545377

>  <r_i_glide_ligand_efficiency_sa>  (108) 
-0.176681

>  <r_i_glide_ligand_efficiency_ln>  (108) 
-0.409663

>  <r_i_glide_gscore>  (108) 
-1.85428

>  <r_i_glide_lipo>  (108) 
-0.0572422

>  <r_i_glide_hbond>  (108) 
-0.171093

>  <r_i_glide_metal>  (108) 
-0

>  <r_i_glide_rewards>  (108) 
-0.220206

>  <r_i_glide_evdw>  (108) 
-15.7438

>  <r_i_glide_ecoul>  (108) 
-5.01616

>  <r_i_glide_erotb>  (108) 
0.184546

>  <r_i_glide_esite>  (108) 
-0.0506728

>  <r_i_glide_emodel>  (108) 
-24.0521

>  <r_i_glide_energy>  (108) 
-20.7599

>  <r_i_glide_einternal>  (108) 
1.01399

>  <r_i_glide_intrahb_reward>  (108) 
-0

>  <i_i_glide_confnum>  (108) 
3

>  <i_i_glide_posenum>  (108) 
38

>  <r_i_glide_eff_state_penalty>  (108) 
0

>  <ligand_id>  (108) 
37

>  <original_smiles>  (108) 
CC(C)=CCC12CC3(O)C(C)(C)C1CCC1(C)C4(C)CCC5(C(=O)O)C(C4CCC13C2)C5(C)C

>  <smiles>  (108) 
[H]OC12C([H])([H])C3(C([H])([H])C([H])=C(C([H])([H])[H])C([H])([H])[H])C([H])([H])C14C([H])([H])C([H])([H])C1([H])C5([H])C(C(=O)[O-])(C([H])([H])C([H])([H])C1(C([H])([H])[H])C4(C([H])([H])[H])C([H])([H])C([H])([H])C3([H])C2(C([H])([H])[H])C([H])([H])[H])C5(C([H])([H])[H])C([H])([H])[H]

$$$$
37:0:2
     RDKit          3D

 81 86  0  0  1  0  0  0  0  0999 V2000
   -2.7288    2.6549    6.8140 C   0  0  0  0  0  0  0  0  0  0  0  0
   -1.8421    2.0964    7.9107 C   0  0  0  0  0  0  0  0  0  0  0  0
   -2.0851    2.7086    9.2756 C   0  0  0  0  0  0  0  0  0  0  0  0
   -0.8890    1.1493    7.7329 C   0  0  0  0  0  0  0  0  0  0  0  0
   -0.4916    0.4437    6.4387 C   0  0  0  0  0  0  0  0  0  0  0  0
    0.9755    0.6909    6.0002 C   0  0  1  0  0  0  0  0  0  0  0  0
    1.2531    2.0866    5.4331 C   0  0  0  0  0  0  0  0  0  0  0  0
    2.7586    1.8168    5.3380 C   0  0  1  0  0  0  0  0  0  0  0  0
    3.4528    2.9534    4.8553 O   0  0  0  0  0  0  0  0  0  0  0  0
    3.0657    1.6071    6.8696 C   0  0  0  0  0  0  0  0  0  0  0  0
    4.5469    1.4675    7.3143 C   0  0  0  0  0  0  0  0  0  0  0  0
    2.6100    2.7768    7.8113 C   0  0  0  0  0  0  0  0  0  0  0  0
    2.0981    0.4231    7.0832 C   0  0  2  0  0  0  0  0  0  0  0  0
    2.7612   -0.9795    6.9937 C   0  0  0  0  0  0  0  0  0  0  0  0
    3.9195   -1.2077    5.9748 C   0  0  0  0  0  0  0  0  0  0  0  0
    3.8195   -0.6549    4.4914 C   0  0  1  0  0  0  0  0  0  0  0  0
    5.1892    0.0453    4.1808 C   0  0  0  0  0  0  0  0  0  0  0  0
    3.5939   -1.8954    3.4577 C   0  0  2  0  0  0  0  0  0  0  0  0
    2.8496   -3.1342    4.0867 C   0  0  0  0  0  0  0  0  0  0  0  0
    4.9433   -2.4996    2.9546 C   0  0  0  0  0  0  0  0  0  0  0  0
    4.8245   -3.7221    1.9882 C   0  0  0  0  0  0  0  0  0  0  0  0
    3.6621   -3.6432    1.0008 C   0  0  1  0  0  0  0  0  0  0  0  0
    3.0553   -5.0767    0.7883 C   0  0  0  0  0  0  0  0  0  0  0  0
    1.8203   -5.1875    0.5772 O   0  0  0  0  0  0  0  0  0  0  0  0
    3.8288   -6.0553    0.8574 O   0  0  0  0  0  0  0  0  0  0  0  0
    2.6980   -2.4760    1.0451 C   0  0  1  0  0  0  0  0  0  0  0  0
    2.7558   -1.4700    2.2048 C   0  0  2  0  0  0  0  0  0  0  0  0
    3.0050   -0.0341    1.7488 C   0  0  0  0  0  0  0  0  0  0  0  0
    2.7168    1.0111    2.8509 C   0  0  0  0  0  0  0  0  0  0  0  0
    2.7341    0.5177    4.3490 C   0  0  2  0  0  0  0  0  0  0  0  0
    1.3315   -0.0523    4.7202 C   0  0  0  0  0  0  0  0  0  0  0  0
    3.6126   -2.6687   -0.1696 C   0  0  0  0  0  0  0  0  0  0  0  0
    4.8128   -1.7811   -0.4808 C   0  0  0  0  0  0  0  0  0  0  0  0
    2.9557   -3.0086   -1.4964 C   0  0  0  0  0  0  0  0  0  0  0  0
   -2.4848    3.7034    6.6459 H   0  0  0  0  0  0  0  0  0  0  0  0
   -3.7735    2.5932    7.1281 H   0  0  0  0  0  0  0  0  0  0  0  0
   -2.6374    2.1427    5.8621 H   0  0  0  0  0  0  0  0  0  0  0  0
   -1.9264    3.7871    9.2349 H   0  0  0  0  0  0  0  0  0  0  0  0
   -1.4190    2.3040   10.0409 H   0  0  0  0  0  0  0  0  0  0  0  0
   -3.1135    2.5320    9.5998 H   0  0  0  0  0  0  0  0  0  0  0  0
   -0.3488    0.8439    8.6133 H   0  0  0  0  0  0  0  0  0  0  0  0
   -0.6416   -0.6270    6.6000 H   0  0  0  0  0  0  0  0  0  0  0  0
   -1.1279    0.7049    5.6063 H   0  0  0  0  0  0  0  0  0  0  0  0
    0.7775    2.2833    4.4702 H   0  0  0  0  0  0  0  0  0  0  0  0
    0.9315    2.9197    6.0465 H   0  0  0  0  0  0  0  0  0  0  0  0
    3.1757    3.1092    3.9729 H   0  0  0  0  0  0  0  0  0  0  0  0
    4.6284    0.8914    8.2362 H   0  0  0  0  0  0  0  0  0  0  0  0
    4.9912    2.4438    7.5114 H   0  0  0  0  0  0  0  0  0  0  0  0
    5.2295    1.0450    6.6003 H   0  0  0  0  0  0  0  0  0  0  0  0
    3.0479    2.6809    8.8082 H   0  0  0  0  0  0  0  0  0  0  0  0
    1.5386    2.8180    8.0093 H   0  0  0  0  0  0  0  0  0  0  0  0
    2.9188    3.7501    7.4237 H   0  0  0  0  0  0  0  0  0  0  0  0
    1.6970    0.4902    8.0940 H   0  0  0  0  0  0  0  0  0  0  0  0
    3.1774   -1.1977    7.9794 H   0  0  0  0  0  0  0  0  0  0  0  0
    1.9858   -1.7348    6.8683 H   0  0  0  0  0  0  0  0  0  0  0  0
    4.8494   -0.9088    6.4348 H   0  0  0  0  0  0  0  0  0  0  0  0
    4.1242   -2.2764    5.9761 H   0  0  0  0  0  0  0  0  0  0  0  0
    5.3514    0.2240    3.1207 H   0  0  0  0  0  0  0  0  0  0  0  0
    6.0402   -0.5315    4.5428 H   0  0  0  0  0  0  0  0  0  0  0  0
    5.2671    1.0416    4.5949 H   0  0  0  0  0  0  0  0  0  0  0  0
    2.3103   -3.7225    3.3446 H   0  0  0  0  0  0  0  0  0  0  0  0
    2.1217   -2.9094    4.8556 H   0  0  0  0  0  0  0  0  0  0  0  0
    3.5498   -3.8295    4.5525 H   0  0  0  0  0  0  0  0  0  0  0  0
    5.5358   -1.7548    2.4351 H   0  0  0  0  0  0  0  0  0  0  0  0
    5.5627   -2.7929    3.8023 H   0  0  0  0  0  0  0  0  0  0  0  0
    5.7538   -3.8202    1.4238 H   0  0  0  0  0  0  0  0  0  0  0  0
    4.7604   -4.6122    2.6037 H   0  0  0  0  0  0  0  0  0  0  0  0
    1.6641   -2.6528    0.7774 H   0  0  0  0  0  0  0  0  0  0  0  0
    1.7202   -1.4445    2.5441 H   0  0  0  0  0  0  0  0  0  0  0  0
    4.0505    0.0788    1.4360 H   0  0  0  0  0  0  0  0  0  0  0  0
    2.4247    0.1883    0.8604 H   0  0  0  0  0  0  0  0  0  0  0  0
    3.4113    1.8173    2.6878 H   0  0  0  0  0  0  0  0  0  0  0  0
    1.7384    1.4497    2.6119 H   0  0  0  0  0  0  0  0  0  0  0  0
    1.2602   -1.1170    4.8628 H   0  0  0  0  0  0  0  0  0  0  0  0
    0.5830    0.1498    3.9471 H   0  0  0  0  0  0  0  0  0  0  0  0
    4.4951   -0.8773   -1.0016 H   0  0  0  0  0  0  0  0  0  0  0  0
    5.5136   -2.3284   -1.1087 H   0  0  0  0  0  0  0  0  0  0  0  0
    5.3431   -1.4752    0.4159 H   0  0  0  0  0  0  0  0  0  0  0  0
    2.6859   -2.1058   -2.0412 H   0  0  0  0  0  0  0  0  0  0  0  0
    2.0322   -3.5732   -1.3584 H   0  0  0  0  0  0  0  0  0  0  0  0
    3.6235   -3.6106   -2.1073 H   0  0  0  0  0  0  0  0  0  0  0  0
  1  2  1  0
  1 35  1  0
  1 36  1  0
  1 37  1  0
  2  3  1  0
  2  4  2  3
  3 38  1  0
  3 39  1  0
  3 40  1  0
  4  5  1  0
  4 41  1  0
  6  5  1  1
  5 42  1  0
  5 43  1  0
  6 13  1  0
  6 31  1  0
  6  7  1  0
  7  8  1  0
  7 44  1  0
  7 45  1  0
  8 30  1  0
  8  9  1  6
  8 10  1  0
  9 46  1  0
 10 11  1  0
 10 12  1  0
 10 13  1  0
 11 47  1  0
 11 48  1  0
 11 49  1  0
 12 50  1  0
 12 51  1  0
 12 52  1  0
 13 14  1  0
 13 53  1  1
 14 15  1  0
 14 54  1  0
 14 55  1  0
 15 16  1  0
 15 56  1  0
 15 57  1  0
 16 30  1  0
 16 17  1  6
 16 18  1  0
 17 58  1  0
 17 59  1  0
 17 60  1  0
 18 27  1  0
 18 19  1  1
 18 20  1  0
 19 61  1  0
 19 62  1  0
 19 63  1  0
 20 21  1  0
 20 64  1  0
 20 65  1  0
 21 22  1  0
 21 66  1  0
 21 67  1  0
 22 32  1  0
 22 23  1  6
 22 26  1  0
 23 24  2  0
 23 25  1  0
 26 27  1  0
 26 32  1  0
 26 68  1  6
 27 28  1  0
 27 69  1  1
 28 29  1  0
 28 70  1  0
 28 71  1  0
 30 29  1  6
 29 72  1  0
 29 73  1  0
 30 31  1  0
 31 74  1  0
 31 75  1  0
 32 33  1  0
 32 34  1  0
 33 76  1  0
 33 77  1  0
 33 78  1  0
 34 79  1  0
 34 80  1  0
 34 81  1  0
M  CHG  1  25  -1
M  END
>  <i_m_ct_stereo_status>  (109) 
1

>  <s_m_source_file>  (109) 
/var/tmp/pbs.5076255.sched01/tmpxjfjwjbi/40jwkb7fqh.sdf

>  <i_m_source_file_index>  (109) 
9

>  <i_lp_mmshare_version>  (109) 
48012

>  <i_f3d_flags>  (109) 
0

>  <s_epik_input>  (109) 
W0NIM11DKFtDSDNdKT1bQ0hdW0NIMl1bQ0BAXShbQ0gyXTEpKFtDSDJdW0NAQF0yKFtDQF0xMzQpW09IXSlbQ0BIXShDMihbQ0gzXSlbQ0gzXSlbQ0gyXVtDSDJdW0NAQF0zKFtDSDNdKVtDQEBdNShbQ0gzXSlbQ0BASF0oW0NIMl1bQ0gyXTQpW0NAQEhdNltDQEBdKFtDSDJdW0NIMl01KShDKD1PKVtPSF0pQzYoW0NIM10pW0NIM10=

>  <s_epik_cmdline>  (109) 
J2VwaWtfcHl0aG9uJywgJy1waHQnLCAnMi4wJywgJy1waCcsICc3LjAnLCAnLXRuJywgJzgnLCAnLW1hJywgJzIwMCcsICctaW1hZScsICc8aW5maWxlLm1hZT4nLCAnLW9tYWUnLCAnPG91dGZpbGUubWFlPic=

>  <r_epik_Ionization_Penalty>  (109) 
0.0107771

>  <r_epik_Ionization_Penalty_Charging>  (109) 
0.0107701

>  <r_epik_Ionization_Penalty_Neutral>  (109) 
7.09443e-06

>  <r_epik_State_Penalty>  (109) 
0.00825386

>  <r_epik_Charging_Adjusted_Penalty>  (109) 
0.0190239

>  <i_epik_Tot_Q>  (109) 
-1

>  <i_epik_Tot_abs_Q>  (109) 
1

>  <s_lp_Force_Field>  (109) 
OPLS3e

>  <r_lp_Energy>  (109) 
156.798

>  <b_lp_Chiralities_Consistent>  (109) 
1

>  <s_lp_Variant>  (109) 
37:0-1

>  <s_i_glide_gridfile>  (109) 
pfpi4k_grid

>  <i_i_glide_lignum>  (109) 
9

>  <i_i_glide_rotatable_bonds>  (109) 
4

>  <r_i_docking_score>  (109) 
-1.77504

>  <r_i_glide_ligand_efficiency>  (109) 
-0.052207

>  <r_i_glide_ligand_efficiency_sa>  (109) 
-0.16913

>  <r_i_glide_ligand_efficiency_ln>  (109) 
-0.392156

>  <r_i_glide_gscore>  (109) 
-1.77504

>  <r_i_glide_lipo>  (109) 
-0.364025

>  <r_i_glide_hbond>  (109) 
-0.106024

>  <r_i_glide_metal>  (109) 
-0

>  <r_i_glide_rewards>  (109) 
-0.220206

>  <r_i_glide_evdw>  (109) 
-19.8118

>  <r_i_glide_ecoul>  (109) 
-1.74993

>  <r_i_glide_erotb>  (109) 
0.184546

>  <r_i_glide_esite>  (109) 
-0.0162472

>  <r_i_glide_emodel>  (109) 
-24.9578

>  <r_i_glide_energy>  (109) 
-21.5618

>  <r_i_glide_einternal>  (109) 
0.469706

>  <r_i_glide_intrahb_reward>  (109) 
-0

>  <i_i_glide_confnum>  (109) 
6

>  <i_i_glide_posenum>  (109) 
2

>  <r_i_glide_eff_state_penalty>  (109) 
0

>  <ligand_id>  (109) 
37

>  <original_smiles>  (109) 
CC(C)=CCC12CC3(O)C(C)(C)C1CCC1(C)C4(C)CCC5(C(=O)O)C(C4CCC13C2)C5(C)C

>  <smiles>  (109) 
[H]OC12C([H])([H])C3(C([H])([H])C([H])=C(C([H])([H])[H])C([H])([H])[H])C([H])([H])C14C([H])([H])C([H])([H])C1([H])C5([H])C(C(=O)[O-])(C([H])([H])C([H])([H])C1(C([H])([H])[H])C4(C([H])([H])[H])C([H])([H])C([H])([H])C3([H])C2(C([H])([H])[H])C([H])([H])[H])C5(C([H])([H])[H])C([H])([H])[H]

$$$$
37:1:0
     RDKit          3D

 82 87  0  0  1  0  0  0  0  0999 V2000
    0.1119   -9.9352    2.4951 C   0  0  0  0  0  0  0  0  0  0  0  0
   -0.5322   -8.5578    2.5305 C   0  0  0  0  0  0  0  0  0  0  0  0
   -1.8649   -8.5193    3.2557 C   0  0  0  0  0  0  0  0  0  0  0  0
    0.0022   -7.4419    1.9934 C   0  0  0  0  0  0  0  0  0  0  0  0
    1.3221   -7.2969    1.2491 C   0  0  0  0  0  0  0  0  0  0  0  0
    2.4219   -6.5397    2.0288 C   0  0  1  0  0  0  0  0  0  0  0  0
    2.7663   -7.1142    3.4038 C   0  0  0  0  0  0  0  0  0  0  0  0
    3.9992   -6.2107    3.5449 C   0  0  1  0  0  0  0  0  0  0  0  0
    4.6791   -6.4493    4.7601 O   0  0  0  0  0  0  0  0  0  0  0  0
    4.8398   -6.7669    2.3295 C   0  0  0  0  0  0  0  0  0  0  0  0
    6.2993   -6.2554    2.1547 C   0  0  0  0  0  0  0  0  0  0  0  0
    5.0908   -8.3174    2.3259 C   0  0  0  0  0  0  0  0  0  0  0  0
    3.7901   -6.4556    1.2399 C   0  0  2  0  0  0  0  0  0  0  0  0
    4.0260   -5.1116    0.4856 C   0  0  0  0  0  0  0  0  0  0  0  0
    4.5841   -3.8864    1.2791 C   0  0  0  0  0  0  0  0  0  0  0  0
    4.0256   -3.5254    2.7172 C   0  0  1  0  0  0  0  0  0  0  0  0
    5.2641   -3.2482    3.6325 C   0  0  0  0  0  0  0  0  0  0  0  0
    3.1172   -2.1599    2.6219 C   0  0  2  0  0  0  0  0  0  0  0  0
    2.4309   -1.9462    1.2271 C   0  0  0  0  0  0  0  0  0  0  0  0
    3.9744   -0.8647    2.8156 C   0  0  0  0  0  0  0  0  0  0  0  0
    3.2056    0.4745    2.6896 C   0  0  0  0  0  0  0  0  0  0  0  0
    1.7914    0.4963    3.2958 C   0  0  1  0  0  0  0  0  0  0  0  0
    0.8469    1.3571    2.4788 C   0  0  0  0  0  0  0  0  0  0  0  0
   -0.3150    1.0449    2.2099 O   0  0  0  0  0  0  0  0  0  0  0  0
    1.4092    2.5417    2.0869 O   0  0  0  0  0  0  0  0  0  0  0  0
    1.2138   -0.8112    3.8558 C   0  0  1  0  0  0  0  0  0  0  0  0
    1.9688   -2.1498    3.6873 C   0  0  2  0  0  0  0  0  0  0  0  0
    2.3433   -2.8264    5.0082 C   0  0  0  0  0  0  0  0  0  0  0  0
    2.7534   -4.3053    4.8326 C   0  0  0  0  0  0  0  0  0  0  0  0
    3.2699   -4.7534    3.4118 C   0  0  2  0  0  0  0  0  0  0  0  0
    2.0465   -5.1543    2.5317 C   0  0  0  0  0  0  0  0  0  0  0  0
    1.5142    0.3547    4.7968 C   0  0  0  0  0  0  0  0  0  0  0  0
    2.6525    0.3770    5.8123 C   0  0  0  0  0  0  0  0  0  0  0  0
    0.3128    1.0320    5.4568 C   0  0  0  0  0  0  0  0  0  0  0  0
    0.3635  -10.2493    3.5080 H   0  0  0  0  0  0  0  0  0  0  0  0
    1.0175   -9.9939    1.8966 H   0  0  0  0  0  0  0  0  0  0  0  0
   -0.5917  -10.6547    2.0798 H   0  0  0  0  0  0  0  0  0  0  0  0
   -1.7328   -8.8359    4.2898 H   0  0  0  0  0  0  0  0  0  0  0  0
   -2.5733   -9.2023    2.7845 H   0  0  0  0  0  0  0  0  0  0  0  0
   -2.3078   -7.5224    3.2640 H   0  0  0  0  0  0  0  0  0  0  0  0
   -0.5536   -6.5264    2.0924 H   0  0  0  0  0  0  0  0  0  0  0  0
    1.7130   -8.2692    0.9537 H   0  0  0  0  0  0  0  0  0  0  0  0
    1.1068   -6.7782    0.3143 H   0  0  0  0  0  0  0  0  0  0  0  0
    2.0069   -6.9433    4.1676 H   0  0  0  0  0  0  0  0  0  0  0  0
    2.9201   -8.1892    3.4364 H   0  0  0  0  0  0  0  0  0  0  0  0
    4.9161   -7.3655    4.7842 H   0  0  0  0  0  0  0  0  0  0  0  0
    6.6084   -6.2861    1.1095 H   0  0  0  0  0  0  0  0  0  0  0  0
    7.0044   -6.8768    2.7079 H   0  0  0  0  0  0  0  0  0  0  0  0
    6.5147   -5.2746    2.5347 H   0  0  0  0  0  0  0  0  0  0  0  0
    5.8619   -8.5949    1.6039 H   0  0  0  0  0  0  0  0  0  0  0  0
    4.2321   -8.9171    2.0223 H   0  0  0  0  0  0  0  0  0  0  0  0
    5.4274   -8.6767    3.2984 H   0  0  0  0  0  0  0  0  0  0  0  0
    3.8150   -7.2401    0.4800 H   0  0  0  0  0  0  0  0  0  0  0  0
    4.7422   -5.3127   -0.3129 H   0  0  0  0  0  0  0  0  0  0  0  0
    3.1172   -4.8370   -0.0503 H   0  0  0  0  0  0  0  0  0  0  0  0
    5.6636   -3.9495    1.2953 H   0  0  0  0  0  0  0  0  0  0  0  0
    4.5252   -3.0332    0.6116 H   0  0  0  0  0  0  0  0  0  0  0  0
    5.0221   -2.7280    4.5542 H   0  0  0  0  0  0  0  0  0  0  0  0
    6.0178   -2.6539    3.1173 H   0  0  0  0  0  0  0  0  0  0  0  0
    5.7358   -4.1502    4.0018 H   0  0  0  0  0  0  0  0  0  0  0  0
    1.5203   -1.3565    1.2977 H   0  0  0  0  0  0  0  0  0  0  0  0
    2.1548   -2.8403    0.6883 H   0  0  0  0  0  0  0  0  0  0  0  0
    3.0737   -1.3995    0.5383 H   0  0  0  0  0  0  0  0  0  0  0  0
    4.4686   -0.8553    3.7767 H   0  0  0  0  0  0  0  0  0  0  0  0
    4.7919   -0.8551    2.0915 H   0  0  0  0  0  0  0  0  0  0  0  0
    3.7864    1.2694    3.1584 H   0  0  0  0  0  0  0  0  0  0  0  0
    3.1546    0.7304    1.6281 H   0  0  0  0  0  0  0  0  0  0  0  0
    0.8328    3.1293    1.5845 H   0  0  0  0  0  0  0  0  0  0  0  0
    0.1494   -0.9750    3.7112 H   0  0  0  0  0  0  0  0  0  0  0  0
    1.1954   -2.7994    3.2801 H   0  0  0  0  0  0  0  0  0  0  0  0
    3.1613   -2.2893    5.4827 H   0  0  0  0  0  0  0  0  0  0  0  0
    1.5153   -2.7581    5.7157 H   0  0  0  0  0  0  0  0  0  0  0  0
    3.5057   -4.4973    5.5999 H   0  0  0  0  0  0  0  0  0  0  0  0
    1.9044   -4.9201    5.1313 H   0  0  0  0  0  0  0  0  0  0  0  0
    1.8133   -4.5031    1.7105 H   0  0  0  0  0  0  0  0  0  0  0  0
    1.1232   -5.1883    3.1125 H   0  0  0  0  0  0  0  0  0  0  0  0
    2.3638   -0.1576    6.7178 H   0  0  0  0  0  0  0  0  0  0  0  0
    2.8932    1.4059    6.0810 H   0  0  0  0  0  0  0  0  0  0  0  0
    3.5556   -0.0794    5.4336 H   0  0  0  0  0  0  0  0  0  0  0  0
    0.0642    0.5395    6.3963 H   0  0  0  0  0  0  0  0  0  0  0  0
   -0.5735    0.9862    4.8257 H   0  0  0  0  0  0  0  0  0  0  0  0
    0.5310    2.0793    5.6614 H   0  0  0  0  0  0  0  0  0  0  0  0
  1  2  1  0
  1 35  1  0
  1 36  1  0
  1 37  1  0
  2  3  1  0
  2  4  2  3
  3 38  1  0
  3 39  1  0
  3 40  1  0
  4  5  1  0
  4 41  1  0
  6  5  1  6
  5 42  1  0
  5 43  1  0
  6 13  1  0
  6 31  1  0
  6  7  1  0
  7  8  1  0
  7 44  1  0
  7 45  1  0
  8 30  1  0
  8  9  1  1
  8 10  1  0
  9 46  1  0
 10 11  1  0
 10 12  1  0
 10 13  1  0
 11 47  1  0
 11 48  1  0
 11 49  1  0
 12 50  1  0
 12 51  1  0
 12 52  1  0
 13 14  1  0
 13 53  1  6
 14 15  1  0
 14 54  1  0
 14 55  1  0
 15 16  1  0
 15 56  1  0
 15 57  1  0
 16 30  1  0
 16 17  1  1
 16 18  1  0
 17 58  1  0
 17 59  1  0
 17 60  1  0
 18 27  1  0
 18 19  1  6
 18 20  1  0
 19 61  1  0
 19 62  1  0
 19 63  1  0
 20 21  1  0
 20 64  1  0
 20 65  1  0
 21 22  1  0
 21 66  1  0
 21 67  1  0
 22 32  1  0
 22 23  1  6
 22 26  1  0
 23 24  2  0
 23 25  1  0
 25 68  1  0
 26 27  1  0
 26 32  1  0
 26 69  1  6
 27 28  1  0
 27 70  1  6
 28 29  1  0
 28 71  1  0
 28 72  1  0
 30 29  1  1
 29 73  1  0
 29 74  1  0
 30 31  1  0
 31 75  1  0
 31 76  1  0
 32 33  1  0
 32 34  1  0
 33 77  1  0
 33 78  1  0
 33 79  1  0
 34 80  1  0
 34 81  1  0
 34 82  1  0
M  END
>  <i_m_ct_stereo_status>  (110) 
1

>  <s_m_source_file>  (110) 
/var/tmp/pbs.5076255.sched01/tmpxjfjwjbi/40jwkb7fqh.sdf

>  <i_m_source_file_index>  (110) 
10

>  <i_lp_mmshare_version>  (110) 
48012

>  <i_f3d_flags>  (110) 
0

>  <s_epik_input>  (110) 
W0NIM11DKFtDSDNdKT1bQ0hdW0NIMl1bQ0BAXShbQ0gyXTEpKFtDSDJdW0NAQF0yKFtDQF0xMzQpW09IXSlbQ0BIXShDMihbQ0gzXSlbQ0gzXSlbQ0gyXVtDSDJdW0NAQF0zKFtDSDNdKVtDQEBdNShbQ0gzXSlbQ0BASF0oW0NIMl1bQ0gyXTQpW0NAQEhdNltDQEBdKFtDSDJdW0NIMl01KShDKD1PKVtPSF0pQzYoW0NIM10pW0NIM10=

>  <s_epik_cmdline>  (110) 
J2VwaWtfcHl0aG9uJywgJy1waHQnLCAnMi4wJywgJy1waCcsICc3LjAnLCAnLXRuJywgJzgnLCAnLW1hJywgJzIwMCcsICctaW1hZScsICc8aW5maWxlLm1hZT4nLCAnLW9tYWUnLCAnPG91dGZpbGUubWFlPic=

>  <r_epik_Ionization_Penalty>  (110) 
2.3798

>  <r_epik_Ionization_Penalty_Charging>  (110) 
0

>  <r_epik_Ionization_Penalty_Neutral>  (110) 
2.3798

>  <r_epik_State_Penalty>  (110) 
2.5362

>  <r_epik_Charging_Adjusted_Penalty>  (110) 
2.5362

>  <i_epik_Tot_Q>  (110) 
0

>  <i_epik_Tot_abs_Q>  (110) 
0

>  <s_lp_Force_Field>  (110) 
OPLS3e

>  <r_lp_Energy>  (110) 
155.698

>  <b_lp_Chiralities_Consistent>  (110) 
1

>  <s_lp_Variant>  (110) 
37:0-2

>  <s_i_glide_gridfile>  (110) 
pfpi4k_grid

>  <i_i_glide_lignum>  (110) 
10

>  <i_i_glide_rotatable_bonds>  (110) 
5

>  <r_i_docking_score>  (110) 
-2.17588

>  <r_i_glide_ligand_efficiency>  (110) 
-0.0639966

>  <r_i_glide_ligand_efficiency_sa>  (110) 
-0.207324

>  <r_i_glide_ligand_efficiency_ln>  (110) 
-0.480714

>  <r_i_glide_gscore>  (110) 
-2.17588

>  <r_i_glide_lipo>  (110) 
-0.356724

>  <r_i_glide_hbond>  (110) 
0

>  <r_i_glide_metal>  (110) 
-0

>  <r_i_glide_rewards>  (110) 
-0.213334

>  <r_i_glide_evdw>  (110) 
-25.5169

>  <r_i_glide_ecoul>  (110) 
-3.72854

>  <r_i_glide_erotb>  (110) 
0.275734

>  <r_i_glide_esite>  (110) 
-0.0464358

>  <r_i_glide_emodel>  (110) 
-32.9587

>  <r_i_glide_energy>  (110) 
-29.2454

>  <r_i_glide_einternal>  (110) 
0.825926

>  <r_i_glide_intrahb_reward>  (110) 
-0

>  <i_i_glide_confnum>  (110) 
2

>  <i_i_glide_posenum>  (110) 
12

>  <r_i_glide_eff_state_penalty>  (110) 
0

>  <ligand_id>  (110) 
37

>  <original_smiles>  (110) 
CC(C)=CCC12CC3(O)C(C)(C)C1CCC1(C)C4(C)CCC5(C(=O)O)C(C4CCC13C2)C5(C)C

>  <smiles>  (110) 
[H]OC(=O)C12C([H])([H])C([H])([H])C3(C([H])([H])[H])C([H])(C([H])([H])C([H])([H])C45C([H])([H])C6(C([H])([H])C([H])=C(C([H])([H])[H])C([H])([H])[H])C([H])([H])C4(O[H])C(C([H])([H])[H])(C([H])([H])[H])C6([H])C([H])([H])C([H])([H])C35C([H])([H])[H])C1([H])C2(C([H])([H])[H])C([H])([H])[H]

$$$$
37:1:1
     RDKit          3D

 82 87  0  0  1  0  0  0  0  0999 V2000
   -0.0490   -9.7037    2.7327 C   0  0  0  0  0  0  0  0  0  0  0  0
   -0.5781   -8.3385    3.1356 C   0  0  0  0  0  0  0  0  0  0  0  0
   -1.7493   -8.3994    4.0992 C   0  0  0  0  0  0  0  0  0  0  0  0
   -0.0845   -7.1565    2.7193 C   0  0  0  0  0  0  0  0  0  0  0  0
    1.0763   -6.9077    1.7650 C   0  0  0  0  0  0  0  0  0  0  0  0
    2.2624   -6.1469    2.3950 C   0  0  1  0  0  0  0  0  0  0  0  0
    2.7762   -6.7062    3.7238 C   0  0  0  0  0  0  0  0  0  0  0  0
    4.0147   -5.8072    3.6987 C   0  0  1  0  0  0  0  0  0  0  0  0
    4.8365   -6.0472    4.8237 O   0  0  0  0  0  0  0  0  0  0  0  0
    4.6977   -6.3745    2.3949 C   0  0  0  0  0  0  0  0  0  0  0  0
    6.1246   -5.8684    2.0327 C   0  0  0  0  0  0  0  0  0  0  0  0
    4.9450   -7.9239    2.3765 C   0  0  0  0  0  0  0  0  0  0  0  0
    3.5210   -6.0708    1.4417 C   0  0  2  0  0  0  0  0  0  0  0  0
    3.6584   -4.7382    0.6493 C   0  0  0  0  0  0  0  0  0  0  0  0
    4.3114   -3.5054    1.3529 C   0  0  0  0  0  0  0  0  0  0  0  0
    3.9363   -3.1253    2.8442 C   0  0  1  0  0  0  0  0  0  0  0  0
    5.2817   -2.8445    3.5935 C   0  0  0  0  0  0  0  0  0  0  0  0
    3.0239   -1.7606    2.8490 C   0  0  2  0  0  0  0  0  0  0  0  0
    2.1687   -1.5627    1.5491 C   0  0  0  0  0  0  0  0  0  0  0  0
    3.8989   -0.4670    2.9183 C   0  0  0  0  0  0  0  0  0  0  0  0
    3.1207    0.8723    2.8811 C   0  0  0  0  0  0  0  0  0  0  0  0
    1.7994    0.8993    3.6591 C   0  0  1  0  0  0  0  0  0  0  0  0
    0.7639    1.7473    2.9430 C   0  0  0  0  0  0  0  0  0  0  0  0
   -0.4083    1.4299    2.7891 O   0  0  0  0  0  0  0  0  0  0  0  0
    1.2903    2.9230    2.4848 O   0  0  0  0  0  0  0  0  0  0  0  0
    1.2911   -0.3956    4.2988 C   0  0  1  0  0  0  0  0  0  0  0  0
    2.0196   -1.7377    4.0496 C   0  0  2  0  0  0  0  0  0  0  0  0
    2.5576   -2.3992    5.3201 C   0  0  0  0  0  0  0  0  0  0  0  0
    2.9431   -3.8835    5.1124 C   0  0  0  0  0  0  0  0  0  0  0  0
    3.2767   -4.3470    3.6425 C   0  0  2  0  0  0  0  0  0  0  0  0
    1.9482   -4.7567    2.9297 C   0  0  0  0  0  0  0  0  0  0  0  0
    1.7088    0.7761    5.1841 C   0  0  0  0  0  0  0  0  0  0  0  0
    2.9648    0.8106    6.0451 C   0  0  0  0  0  0  0  0  0  0  0  0
    0.6012    1.4642    5.9808 C   0  0  0  0  0  0  0  0  0  0  0  0
    0.3598  -10.2137    3.6047 H   0  0  0  0  0  0  0  0  0  0  0  0
    0.7274   -9.6839    1.9724 H   0  0  0  0  0  0  0  0  0  0  0  0
   -0.8693  -10.3036    2.3416 H   0  0  0  0  0  0  0  0  0  0  0  0
   -1.4370   -8.9023    5.0142 H   0  0  0  0  0  0  0  0  0  0  0  0
   -2.5709   -8.9732    3.6642 H   0  0  0  0  0  0  0  0  0  0  0  0
   -2.1267   -7.4138    4.3672 H   0  0  0  0  0  0  0  0  0  0  0  0
   -0.5556   -6.2682    3.1045 H   0  0  0  0  0  0  0  0  0  0  0  0
    1.4540   -7.8417    1.3577 H   0  0  0  0  0  0  0  0  0  0  0  0
    0.6934   -6.3589    0.9054 H   0  0  0  0  0  0  0  0  0  0  0  0
    2.1229   -6.5253    4.5769 H   0  0  0  0  0  0  0  0  0  0  0  0
    2.9383   -7.7786    3.7539 H   0  0  0  0  0  0  0  0  0  0  0  0
    5.6219   -5.5323    4.7231 H   0  0  0  0  0  0  0  0  0  0  0  0
    6.2987   -5.9143    0.9574 H   0  0  0  0  0  0  0  0  0  0  0  0
    6.8913   -6.4872    2.4999 H   0  0  0  0  0  0  0  0  0  0  0  0
    6.3890   -4.8833    2.3689 H   0  0  0  0  0  0  0  0  0  0  0  0
    5.6198   -8.2137    1.5691 H   0  0  0  0  0  0  0  0  0  0  0  0
    4.0550   -8.5259    2.1927 H   0  0  0  0  0  0  0  0  0  0  0  0
    5.3976   -8.2679    3.3077 H   0  0  0  0  0  0  0  0  0  0  0  0
    3.4530   -6.8649    0.6932 H   0  0  0  0  0  0  0  0  0  0  0  0
    4.2682   -4.9506   -0.2309 H   0  0  0  0  0  0  0  0  0  0  0  0
    2.6872   -4.4676    0.2313 H   0  0  0  0  0  0  0  0  0  0  0  0
    5.3846   -3.5721    1.2333 H   0  0  0  0  0  0  0  0  0  0  0  0
    4.1698   -2.6603    0.6856 H   0  0  0  0  0  0  0  0  0  0  0  0
    5.1575   -2.3095    4.5291 H   0  0  0  0  0  0  0  0  0  0  0  0
    5.9744   -2.2661    2.9817 H   0  0  0  0  0  0  0  0  0  0  0  0
    5.7921   -3.7444    3.9113 H   0  0  0  0  0  0  0  0  0  0  0  0
    1.2740   -0.9669    1.7216 H   0  0  0  0  0  0  0  0  0  0  0  0
    1.8195   -2.4626    1.0640 H   0  0  0  0  0  0  0  0  0  0  0  0
    2.7221   -1.0293    0.7769 H   0  0  0  0  0  0  0  0  0  0  0  0
    4.5122   -0.4478    3.8089 H   0  0  0  0  0  0  0  0  0  0  0  0
    4.6174   -0.4653    2.0976 H   0  0  0  0  0  0  0  0  0  0  0  0
    3.7562    1.6658    3.2742 H   0  0  0  0  0  0  0  0  0  0  0  0
    2.9404    1.1195    1.8350 H   0  0  0  0  0  0  0  0  0  0  0  0
    0.7042    3.4532    1.9183 H   0  0  0  0  0  0  0  0  0  0  0  0
    0.2172   -0.5594    4.2894 H   0  0  0  0  0  0  0  0  0  0  0  0
    1.2015   -2.3904    3.7495 H   0  0  0  0  0  0  0  0  0  0  0  0
    3.4289   -1.8574    5.6836 H   0  0  0  0  0  0  0  0  0  0  0  0
    1.8266   -2.3258    6.1243 H   0  0  0  0  0  0  0  0  0  0  0  0
    3.7834   -4.0661    5.7806 H   0  0  0  0  0  0  0  0  0  0  0  0
    2.1387   -4.4938    5.5216 H   0  0  0  0  0  0  0  0  0  0  0  0
    1.6092   -4.1138    2.1414 H   0  0  0  0  0  0  0  0  0  0  0  0
    1.1099   -4.7861    3.6238 H   0  0  0  0  0  0  0  0  0  0  0  0
    2.7956    0.2868    6.9873 H   0  0  0  0  0  0  0  0  0  0  0  0
    3.2391    1.8425    6.2693 H   0  0  0  0  0  0  0  0  0  0  0  0
    3.8160    0.3483    5.5606 H   0  0  0  0  0  0  0  0  0  0  0  0
    0.4745    0.9832    6.9505 H   0  0  0  0  0  0  0  0  0  0  0  0
   -0.3551    1.4128    5.4638 H   0  0  0  0  0  0  0  0  0  0  0  0
    0.8470    2.5145    6.1434 H   0  0  0  0  0  0  0  0  0  0  0  0
  1  2  1  0
  1 35  1  0
  1 36  1  0
  1 37  1  0
  2  3  1  0
  2  4  2  3
  3 38  1  0
  3 39  1  0
  3 40  1  0
  4  5  1  0
  4 41  1  0
  6  5  1  6
  5 42  1  0
  5 43  1  0
  6 13  1  0
  6 31  1  0
  6  7  1  0
  7  8  1  0
  7 44  1  0
  7 45  1  0
  8 30  1  0
  8  9  1  1
  8 10  1  0
  9 46  1  0
 10 11  1  0
 10 12  1  0
 10 13  1  0
 11 47  1  0
 11 48  1  0
 11 49  1  0
 12 50  1  0
 12 51  1  0
 12 52  1  0
 13 14  1  0
 13 53  1  6
 14 15  1  0
 14 54  1  0
 14 55  1  0
 15 16  1  0
 15 56  1  0
 15 57  1  0
 16 30  1  0
 16 17  1  1
 16 18  1  0
 17 58  1  0
 17 59  1  0
 17 60  1  0
 18 27  1  0
 18 19  1  6
 18 20  1  0
 19 61  1  0
 19 62  1  0
 19 63  1  0
 20 21  1  0
 20 64  1  0
 20 65  1  0
 21 22  1  0
 21 66  1  0
 21 67  1  0
 22 32  1  0
 22 23  1  6
 22 26  1  0
 23 24  2  0
 23 25  1  0
 25 68  1  0
 26 27  1  0
 26 32  1  0
 26 69  1  6
 27 28  1  0
 27 70  1  6
 28 29  1  0
 28 71  1  0
 28 72  1  0
 30 29  1  1
 29 73  1  0
 29 74  1  0
 30 31  1  0
 31 75  1  0
 31 76  1  0
 32 33  1  0
 32 34  1  0
 33 77  1  0
 33 78  1  0
 33 79  1  0
 34 80  1  0
 34 81  1  0
 34 82  1  0
M  END
>  <i_m_ct_stereo_status>  (111) 
1

>  <s_m_source_file>  (111) 
/var/tmp/pbs.5076255.sched01/tmpxjfjwjbi/40jwkb7fqh.sdf

>  <i_m_source_file_index>  (111) 
10

>  <i_lp_mmshare_version>  (111) 
48012

>  <i_f3d_flags>  (111) 
0

>  <s_epik_input>  (111) 
W0NIM11DKFtDSDNdKT1bQ0hdW0NIMl1bQ0BAXShbQ0gyXTEpKFtDSDJdW0NAQF0yKFtDQF0xMzQpW09IXSlbQ0BIXShDMihbQ0gzXSlbQ0gzXSlbQ0gyXVtDSDJdW0NAQF0zKFtDSDNdKVtDQEBdNShbQ0gzXSlbQ0BASF0oW0NIMl1bQ0gyXTQpW0NAQEhdNltDQEBdKFtDSDJdW0NIMl01KShDKD1PKVtPSF0pQzYoW0NIM10pW0NIM10=

>  <s_epik_cmdline>  (111) 
J2VwaWtfcHl0aG9uJywgJy1waHQnLCAnMi4wJywgJy1waCcsICc3LjAnLCAnLXRuJywgJzgnLCAnLW1hJywgJzIwMCcsICctaW1hZScsICc8aW5maWxlLm1hZT4nLCAnLW9tYWUnLCAnPG91dGZpbGUubWFlPic=

>  <r_epik_Ionization_Penalty>  (111) 
2.3798

>  <r_epik_Ionization_Penalty_Charging>  (111) 
0

>  <r_epik_Ionization_Penalty_Neutral>  (111) 
2.3798

>  <r_epik_State_Penalty>  (111) 
2.5362

>  <r_epik_Charging_Adjusted_Penalty>  (111) 
2.5362

>  <i_epik_Tot_Q>  (111) 
0

>  <i_epik_Tot_abs_Q>  (111) 
0

>  <s_lp_Force_Field>  (111) 
OPLS3e

>  <r_lp_Energy>  (111) 
155.698

>  <b_lp_Chiralities_Consistent>  (111) 
1

>  <s_lp_Variant>  (111) 
37:0-2

>  <s_i_glide_gridfile>  (111) 
pfpi4k_grid

>  <i_i_glide_lignum>  (111) 
10

>  <i_i_glide_rotatable_bonds>  (111) 
5

>  <r_i_docking_score>  (111) 
-2.02312

>  <r_i_glide_ligand_efficiency>  (111) 
-0.0595034

>  <r_i_glide_ligand_efficiency_sa>  (111) 
-0.192768

>  <r_i_glide_ligand_efficiency_ln>  (111) 
-0.446963

>  <r_i_glide_gscore>  (111) 
-2.02312

>  <r_i_glide_lipo>  (111) 
-0.198515

>  <r_i_glide_hbond>  (111) 
0

>  <r_i_glide_metal>  (111) 
-0

>  <r_i_glide_rewards>  (111) 
-0.213334

>  <r_i_glide_evdw>  (111) 
-21.8379

>  <r_i_glide_ecoul>  (111) 
-5.00503

>  <r_i_glide_erotb>  (111) 
0.275734

>  <r_i_glide_esite>  (111) 
-0.0443534

>  <r_i_glide_emodel>  (111) 
-30.1771

>  <r_i_glide_energy>  (111) 
-26.8429

>  <r_i_glide_einternal>  (111) 
0.854964

>  <r_i_glide_intrahb_reward>  (111) 
-0

>  <i_i_glide_confnum>  (111) 
2

>  <i_i_glide_posenum>  (111) 
2

>  <r_i_glide_eff_state_penalty>  (111) 
0

>  <ligand_id>  (111) 
37

>  <original_smiles>  (111) 
CC(C)=CCC12CC3(O)C(C)(C)C1CCC1(C)C4(C)CCC5(C(=O)O)C(C4CCC13C2)C5(C)C

>  <smiles>  (111) 
[H]OC(=O)C12C([H])([H])C([H])([H])C3(C([H])([H])[H])C([H])(C([H])([H])C([H])([H])C45C([H])([H])C6(C([H])([H])C([H])=C(C([H])([H])[H])C([H])([H])[H])C([H])([H])C4(O[H])C(C([H])([H])[H])(C([H])([H])[H])C6([H])C([H])([H])C([H])([H])C35C([H])([H])[H])C1([H])C2(C([H])([H])[H])C([H])([H])[H]

$$$$
37:1:2
     RDKit          3D

 82 87  0  0  1  0  0  0  0  0999 V2000
   -0.0985   -8.7275    5.0249 C   0  0  0  0  0  0  0  0  0  0  0  0
   -0.5239   -8.4026    3.6246 C   0  0  0  0  0  0  0  0  0  0  0  0
   -1.8264   -7.6234    3.5100 C   0  0  0  0  0  0  0  0  0  0  0  0
    0.1551   -8.7262    2.5032 C   0  0  0  0  0  0  0  0  0  0  0  0
    1.4996   -9.4601    2.4014 C   0  0  0  0  0  0  0  0  0  0  0  0
    2.7397   -8.7088    2.9429 C   0  0  1  0  0  0  0  0  0  0  0  0
    2.7127   -8.3723    4.4412 C   0  0  0  0  0  0  0  0  0  0  0  0
    4.1686   -7.9453    4.4628 C   0  0  1  0  0  0  0  0  0  0  0  0
    4.5364   -7.5700    5.7668 O   0  0  0  0  0  0  0  0  0  0  0  0
    4.8300   -9.3246    4.0630 C   0  0  0  0  0  0  0  0  0  0  0  0
    6.3803   -9.4156    4.1385 C   0  0  0  0  0  0  0  0  0  0  0  0
    4.4393  -10.5721    4.9437 C   0  0  0  0  0  0  0  0  0  0  0  0
    4.1113   -9.4755    2.6938 C   0  0  2  0  0  0  0  0  0  0  0  0
    4.9410   -8.9589    1.4796 C   0  0  0  0  0  0  0  0  0  0  0  0
    5.8367   -7.6889    1.6699 C   0  0  0  0  0  0  0  0  0  0  0  0
    5.3140   -6.4123    2.4331 C   0  0  1  0  0  0  0  0  0  0  0  0
    6.4351   -5.9638    3.4234 C   0  0  0  0  0  0  0  0  0  0  0  0
    5.0228   -5.2070    1.3505 C   0  0  2  0  0  0  0  0  0  0  0  0
    4.6342   -5.7044   -0.0891 C   0  0  0  0  0  0  0  0  0  0  0  0
    6.2900   -4.3198    1.1172 C   0  0  0  0  0  0  0  0  0  0  0  0
    6.1403   -3.1886    0.0815 C   0  0  0  0  0  0  0  0  0  0  0  0
    4.7931   -2.4460    0.1074 C   0  0  1  0  0  0  0  0  0  0  0  0
    4.3702   -2.0515   -1.2973 C   0  0  0  0  0  0  0  0  0  0  0  0
    3.4271   -2.5401   -1.9045 O   0  0  0  0  0  0  0  0  0  0  0  0
    5.1827   -1.0724   -1.7793 O   0  0  0  0  0  0  0  0  0  0  0  0
    3.6727   -2.9505    1.0224 C   0  0  1  0  0  0  0  0  0  0  0  0
    3.8561   -4.2683    1.8204 C   0  0  2  0  0  0  0  0  0  0  0  0
    3.7822   -4.0797    3.3405 C   0  0  0  0  0  0  0  0  0  0  0  0
    3.5859   -5.4094    4.0836 C   0  0  0  0  0  0  0  0  0  0  0  0
    4.0665   -6.7361    3.3667 C   0  0  2  0  0  0  0  0  0  0  0  0
    2.8921   -7.2630    2.4701 C   0  0  0  0  0  0  0  0  0  0  0  0
    4.3092   -1.5831    1.2623 C   0  0  0  0  0  0  0  0  0  0  0  0
    5.2379   -1.2511    2.4286 C   0  0  0  0  0  0  0  0  0  0  0  0
    3.4040   -0.3712    1.0346 C   0  0  0  0  0  0  0  0  0  0  0  0
    0.1948   -7.8203    5.5135 H   0  0  0  0  0  0  0  0  0  0  0  0
    0.6557   -9.4307    5.0284 H   0  0  0  0  0  0  0  0  0  0  0  0
   -0.9748   -9.0886    5.5873 H   0  0  0  0  0  0  0  0  0  0  0  0
   -1.7218   -6.6495    4.0173 H   0  0  0  0  0  0  0  0  0  0  0  0
   -2.5997   -8.1838    4.0282 H   0  0  0  0  0  0  0  0  0  0  0  0
   -2.1645   -7.4425    2.4763 H   0  0  0  0  0  0  0  0  0  0  0  0
   -0.2566   -8.4615    1.5336 H   0  0  0  0  0  0  0  0  0  0  0  0
    1.4030  -10.4436    2.8751 H   0  0  0  0  0  0  0  0  0  0  0  0
    1.6629   -9.6806    1.3484 H   0  0  0  0  0  0  0  0  0  0  0  0
    2.0267   -7.5805    4.7311 H   0  0  0  0  0  0  0  0  0  0  0  0
    2.4681   -9.1488    5.1236 H   0  0  0  0  0  0  0  0  0  0  0  0
    4.3281   -8.2979    6.3264 H   0  0  0  0  0  0  0  0  0  0  0  0
    6.7687  -10.1495    3.4207 H   0  0  0  0  0  0  0  0  0  0  0  0
    6.6938   -9.7268    5.1426 H   0  0  0  0  0  0  0  0  0  0  0  0
    6.9057   -8.4828    4.0071 H   0  0  0  0  0  0  0  0  0  0  0  0
    5.1139  -11.4167    4.7826 H   0  0  0  0  0  0  0  0  0  0  0  0
    3.4577  -10.9864    4.7304 H   0  0  0  0  0  0  0  0  0  0  0  0
    4.4736  -10.3457    6.0072 H   0  0  0  0  0  0  0  0  0  0  0  0
    3.8991  -10.5319    2.5028 H   0  0  0  0  0  0  0  0  0  0  0  0
    5.6028   -9.7737    1.1840 H   0  0  0  0  0  0  0  0  0  0  0  0
    4.2738   -8.8419    0.6231 H   0  0  0  0  0  0  0  0  0  0  0  0
    6.7920   -8.0062    2.0700 H   0  0  0  0  0  0  0  0  0  0  0  0
    6.1896   -7.4081    0.6934 H   0  0  0  0  0  0  0  0  0  0  0  0
    6.2977   -4.9606    3.8111 H   0  0  0  0  0  0  0  0  0  0  0  0
    7.4292   -6.0204    2.9791 H   0  0  0  0  0  0  0  0  0  0  0  0
    6.4529   -6.5514    4.3363 H   0  0  0  0  0  0  0  0  0  0  0  0
    4.0259   -4.9862   -0.6371 H   0  0  0  0  0  0  0  0  0  0  0  0
    4.0956   -6.6428   -0.1418 H   0  0  0  0  0  0  0  0  0  0  0  0
    5.5216   -5.8554   -0.7056 H   0  0  0  0  0  0  0  0  0  0  0  0
    6.6217   -3.8676    2.0383 H   0  0  0  0  0  0  0  0  0  0  0  0
    7.1287   -4.9612    0.8108 H   0  0  0  0  0  0  0  0  0  0  0  0
    6.9319   -2.4479    0.2305 H   0  0  0  0  0  0  0  0  0  0  0  0
    6.3058   -3.6040   -0.9206 H   0  0  0  0  0  0  0  0  0  0  0  0
    4.8377   -0.8046   -2.6262 H   0  0  0  0  0  0  0  0  0  0  0  0
    2.6636   -2.8988    0.6245 H   0  0  0  0  0  0  0  0  0  0  0  0
    2.9410   -4.8074    1.5824 H   0  0  0  0  0  0  0  0  0  0  0  0
    4.6739   -3.6005    3.7034 H   0  0  0  0  0  0  0  0  0  0  0  0
    2.9554   -3.3869    3.5918 H   0  0  0  0  0  0  0  0  0  0  0  0
    4.1002   -5.2888    5.0528 H   0  0  0  0  0  0  0  0  0  0  0  0
    2.5442   -5.4815    4.3535 H   0  0  0  0  0  0  0  0  0  0  0  0
    2.9961   -7.1987    1.3976 H   0  0  0  0  0  0  0  0  0  0  0  0
    1.9649   -6.7251    2.6580 H   0  0  0  0  0  0  0  0  0  0  0  0
    4.6514   -1.0389    3.3234 H   0  0  0  0  0  0  0  0  0  0  0  0
    5.8318   -0.3703    2.1823 H   0  0  0  0  0  0  0  0  0  0  0  0
    5.9116   -2.0541    2.6506 H   0  0  0  0  0  0  0  0  0  0  0  0
    2.8619   -0.1174    1.9442 H   0  0  0  0  0  0  0  0  0  0  0  0
    2.6594   -0.5696    0.2670 H   0  0  0  0  0  0  0  0  0  0  0  0
    3.9918    0.4915    0.7271 H   0  0  0  0  0  0  0  0  0  0  0  0
  1  2  1  0
  1 35  1  0
  1 36  1  0
  1 37  1  0
  2  3  1  0
  2  4  2  3
  3 38  1  0
  3 39  1  0
  3 40  1  0
  4  5  1  0
  4 41  1  0
  6  5  1  6
  5 42  1  0
  5 43  1  0
  6 13  1  0
  6 31  1  0
  6  7  1  0
  7  8  1  0
  7 44  1  0
  7 45  1  0
  8 30  1  0
  8  9  1  1
  8 10  1  0
  9 46  1  0
 10 11  1  0
 10 12  1  0
 10 13  1  0
 11 47  1  0
 11 48  1  0
 11 49  1  0
 12 50  1  0
 12 51  1  0
 12 52  1  0
 13 14  1  0
 13 53  1  6
 14 15  1  0
 14 54  1  0
 14 55  1  0
 15 16  1  0
 15 56  1  0
 15 57  1  0
 16 30  1  0
 16 17  1  1
 16 18  1  0
 17 58  1  0
 17 59  1  0
 17 60  1  0
 18 27  1  0
 18 19  1  6
 18 20  1  0
 19 61  1  0
 19 62  1  0
 19 63  1  0
 20 21  1  0
 20 64  1  0
 20 65  1  0
 21 22  1  0
 21 66  1  0
 21 67  1  0
 22 32  1  0
 22 23  1  6
 22 26  1  0
 23 24  2  0
 23 25  1  0
 25 68  1  0
 26 27  1  0
 26 32  1  0
 26 69  1  6
 27 28  1  0
 27 70  1  6
 28 29  1  0
 28 71  1  0
 28 72  1  0
 30 29  1  1
 29 73  1  0
 29 74  1  0
 30 31  1  0
 31 75  1  0
 31 76  1  0
 32 33  1  0
 32 34  1  0
 33 77  1  0
 33 78  1  0
 33 79  1  0
 34 80  1  0
 34 81  1  0
 34 82  1  0
M  END
>  <i_m_ct_stereo_status>  (112) 
1

>  <s_m_source_file>  (112) 
/var/tmp/pbs.5076255.sched01/tmpxjfjwjbi/40jwkb7fqh.sdf

>  <i_m_source_file_index>  (112) 
10

>  <i_lp_mmshare_version>  (112) 
48012

>  <i_f3d_flags>  (112) 
0

>  <s_epik_input>  (112) 
W0NIM11DKFtDSDNdKT1bQ0hdW0NIMl1bQ0BAXShbQ0gyXTEpKFtDSDJdW0NAQF0yKFtDQF0xMzQpW09IXSlbQ0BIXShDMihbQ0gzXSlbQ0gzXSlbQ0gyXVtDSDJdW0NAQF0zKFtDSDNdKVtDQEBdNShbQ0gzXSlbQ0BASF0oW0NIMl1bQ0gyXTQpW0NAQEhdNltDQEBdKFtDSDJdW0NIMl01KShDKD1PKVtPSF0pQzYoW0NIM10pW0NIM10=

>  <s_epik_cmdline>  (112) 
J2VwaWtfcHl0aG9uJywgJy1waHQnLCAnMi4wJywgJy1waCcsICc3LjAnLCAnLXRuJywgJzgnLCAnLW1hJywgJzIwMCcsICctaW1hZScsICc8aW5maWxlLm1hZT4nLCAnLW9tYWUnLCAnPG91dGZpbGUubWFlPic=

>  <r_epik_Ionization_Penalty>  (112) 
2.3798

>  <r_epik_Ionization_Penalty_Charging>  (112) 
0

>  <r_epik_Ionization_Penalty_Neutral>  (112) 
2.3798

>  <r_epik_State_Penalty>  (112) 
2.5362

>  <r_epik_Charging_Adjusted_Penalty>  (112) 
2.5362

>  <i_epik_Tot_Q>  (112) 
0

>  <i_epik_Tot_abs_Q>  (112) 
0

>  <s_lp_Force_Field>  (112) 
OPLS3e

>  <r_lp_Energy>  (112) 
155.698

>  <b_lp_Chiralities_Consistent>  (112) 
1

>  <s_lp_Variant>  (112) 
37:0-2

>  <s_i_glide_gridfile>  (112) 
pfpi4k_grid

>  <i_i_glide_lignum>  (112) 
10

>  <i_i_glide_rotatable_bonds>  (112) 
5

>  <r_i_docking_score>  (112) 
-1.7738

>  <r_i_glide_ligand_efficiency>  (112) 
-0.0521705

>  <r_i_glide_ligand_efficiency_sa>  (112) 
-0.169012

>  <r_i_glide_ligand_efficiency_ln>  (112) 
-0.391881

>  <r_i_glide_gscore>  (112) 
-1.7738

>  <r_i_glide_lipo>  (112) 
-0.499742

>  <r_i_glide_hbond>  (112) 
0

>  <r_i_glide_metal>  (112) 
-0

>  <r_i_glide_rewards>  (112) 
-0.213334

>  <r_i_glide_evdw>  (112) 
-26.4425

>  <r_i_glide_ecoul>  (112) 
0.101471

>  <r_i_glide_erotb>  (112) 
0.275734

>  <r_i_glide_esite>  (112) 
-0.0295512

>  <r_i_glide_emodel>  (112) 
-26.1292

>  <r_i_glide_energy>  (112) 
-26.341

>  <r_i_glide_einternal>  (112) 
3.15944

>  <r_i_glide_intrahb_reward>  (112) 
-0

>  <i_i_glide_confnum>  (112) 
2

>  <i_i_glide_posenum>  (112) 
11

>  <r_i_glide_eff_state_penalty>  (112) 
0

>  <ligand_id>  (112) 
37

>  <original_smiles>  (112) 
CC(C)=CCC12CC3(O)C(C)(C)C1CCC1(C)C4(C)CCC5(C(=O)O)C(C4CCC13C2)C5(C)C

>  <smiles>  (112) 
[H]OC(=O)C12C([H])([H])C([H])([H])C3(C([H])([H])[H])C([H])(C([H])([H])C([H])([H])C45C([H])([H])C6(C([H])([H])C([H])=C(C([H])([H])[H])C([H])([H])[H])C([H])([H])C4(O[H])C(C([H])([H])[H])(C([H])([H])[H])C6([H])C([H])([H])C([H])([H])C35C([H])([H])[H])C1([H])C2(C([H])([H])[H])C([H])([H])[H]

$$$$
38:0:0
     RDKit          3D

 79 87  0  0  1  0  0  0  0  0999 V2000
    4.6330   -5.7579   -0.0826 C   0  0  0  0  0  0  0  0  0  0  0  0
    3.4281   -5.2826    0.7397 C   0  0  2  0  0  0  0  0  0  0  0  0
    3.3652   -3.7844    1.1536 C   0  0  0  0  0  0  0  0  0  0  0  0
    3.6930   -3.3549    2.6143 C   0  0  2  0  0  0  0  0  0  0  0  0
    3.3487   -1.9917    2.6930 O   0  0  0  0  0  0  0  0  0  0  0  0
    5.1326   -3.4419    3.0700 C   0  0  0  0  0  0  0  0  0  0  0  0
    5.9422   -4.5529    2.4770 C   0  0  0  0  0  0  0  0  0  0  0  0
    6.1263   -5.8053    2.9356 C   0  0  0  0  0  0  0  0  0  0  0  0
    5.3114   -6.3592    4.1454 C   0  0  2  0  0  0  0  0  0  0  0  0
    6.2318   -7.3342    5.0512 C   0  0  2  0  0  0  0  0  0  0  0  0
    7.6657   -6.7401    5.1339 C   0  0  0  0  0  0  0  0  0  0  0  0
    8.3631   -6.4625    3.7921 C   0  0  1  0  0  0  0  0  0  0  0  0
    9.5740   -7.1916    3.6815 O   0  0  0  0  0  0  0  0  0  0  0  0
    7.4614   -6.5216    2.5300 C   0  0  2  0  0  0  0  0  0  0  0  0
    8.2765   -5.7261    1.4498 C   0  0  0  0  0  0  0  0  0  0  0  0
    7.3443   -7.9238    1.8425 C   0  0  0  0  0  0  0  0  0  0  0  0
    6.7173   -9.1876    2.4647 C   0  0  0  0  0  0  0  0  0  0  0  0
    7.1166   -9.5873    3.8836 C   0  0  1  0  0  0  0  0  0  0  0  0
    8.5146   -9.5693    4.0761 O   0  0  0  0  0  0  0  0  0  0  0  0
    6.2550   -8.9428    5.0082 C   0  0  0  0  0  0  0  0  0  0  0  0
    6.7920   -9.4751    6.3696 C   0  0  0  0  0  0  0  0  0  0  0  0
    4.8672   -9.6302    4.9124 C   0  0  0  0  0  0  0  0  0  0  0  0
    3.6877   -6.5530    3.9921 C   0  0  2  0  0  0  0  0  0  0  0  0
    3.1304   -7.1707    5.3865 C   0  0  1  0  0  0  0  0  0  0  0  0
    2.4948   -6.1666    6.2255 O   0  0  0  0  0  0  0  0  0  0  0  0
    1.2786   -6.9592    6.3103 C   0  0  1  0  0  0  0  0  0  0  0  0
    0.1609   -6.5859    5.3529 C   0  0  0  0  0  0  0  0  0  0  0  0
    0.3185   -7.5862    4.1912 C   0  0  2  0  0  0  0  0  0  0  0  0
    1.0348   -8.6584    4.7872 O   0  0  0  0  0  0  0  0  0  0  0  0
    1.9755   -8.1603    5.7303 C   0  0  1  0  0  0  0  0  0  0  0  0
    1.0990   -7.2665    2.8879 C   0  0  2  0  0  0  0  0  0  0  0  0
    2.2506   -8.1198    2.8037 O   0  0  0  0  0  0  0  0  0  0  0  0
    3.3881   -7.2929    2.6256 C   0  0  1  0  0  0  0  0  0  0  0  0
    2.7162   -6.3736    1.5679 C   0  0  1  0  0  0  0  0  0  0  0  0
    1.7150   -5.8905    2.5508 C   0  0  2  0  0  0  0  0  0  0  0  0
    2.6723   -5.3801    3.6261 C   0  0  2  0  0  0  0  0  0  0  0  0
    2.9489   -3.9992    3.5798 O   0  0  0  0  0  0  0  0  0  0  0  0
    5.4007   -6.2067    0.5269 H   0  0  0  0  0  0  0  0  0  0  0  0
    5.0785   -4.9525   -0.6694 H   0  0  0  0  0  0  0  0  0  0  0  0
    4.3360   -6.5414   -0.7741 H   0  0  0  0  0  0  0  0  0  0  0  0
    2.7224   -5.2018   -0.0875 H   0  0  0  0  0  0  0  0  0  0  0  0
    4.0126   -3.2025    0.4934 H   0  0  0  0  0  0  0  0  0  0  0  0
    2.3588   -3.4163    0.9473 H   0  0  0  0  0  0  0  0  0  0  0  0
    3.5697   -1.6965    3.5611 H   0  0  0  0  0  0  0  0  0  0  0  0
    5.6439   -2.5220    2.7809 H   0  0  0  0  0  0  0  0  0  0  0  0
    5.1762   -3.4499    4.1599 H   0  0  0  0  0  0  0  0  0  0  0  0
    6.5287   -4.1458    1.6728 H   0  0  0  0  0  0  0  0  0  0  0  0
    5.3119   -5.4959    4.8054 H   0  0  0  0  0  0  0  0  0  0  0  0
    5.8974   -7.1367    6.0683 H   0  0  0  0  0  0  0  0  0  0  0  0
    7.5822   -5.7835    5.6515 H   0  0  0  0  0  0  0  0  0  0  0  0
    8.3269   -7.3133    5.7779 H   0  0  0  0  0  0  0  0  0  0  0  0
    8.7007   -5.4317    3.8889 H   0  0  0  0  0  0  0  0  0  0  0  0
    9.9045   -7.1504    2.7838 H   0  0  0  0  0  0  0  0  0  0  0  0
    9.2088   -6.2244    1.1816 H   0  0  0  0  0  0  0  0  0  0  0  0
    8.5750   -4.7297    1.7838 H   0  0  0  0  0  0  0  0  0  0  0  0
    7.7215   -5.6092    0.5172 H   0  0  0  0  0  0  0  0  0  0  0  0
    6.8417   -7.7947    0.8856 H   0  0  0  0  0  0  0  0  0  0  0  0
    8.3522   -8.2334    1.5573 H   0  0  0  0  0  0  0  0  0  0  0  0
    5.6436   -9.2081    2.3633 H   0  0  0  0  0  0  0  0  0  0  0  0
    7.0154  -10.0138    1.8156 H   0  0  0  0  0  0  0  0  0  0  0  0
    6.9299  -10.6606    3.9352 H   0  0  0  0  0  0  0  0  0  0  0  0
    8.8353   -8.6742    3.9458 H   0  0  0  0  0  0  0  0  0  0  0  0
    6.7345  -10.5631    6.4217 H   0  0  0  0  0  0  0  0  0  0  0  0
    6.2120   -9.0925    7.2109 H   0  0  0  0  0  0  0  0  0  0  0  0
    7.8340   -9.2255    6.5615 H   0  0  0  0  0  0  0  0  0  0  0  0
    4.9460  -10.7019    4.7306 H   0  0  0  0  0  0  0  0  0  0  0  0
    4.2478   -9.2444    4.1110 H   0  0  0  0  0  0  0  0  0  0  0  0
    4.3182   -9.5764    5.8484 H   0  0  0  0  0  0  0  0  0  0  0  0
    3.9344   -7.5394    5.9983 H   0  0  0  0  0  0  0  0  0  0  0  0
    0.9617   -7.1021    7.3421 H   0  0  0  0  0  0  0  0  0  0  0  0
   -0.7905   -6.8011    5.8282 H   0  0  0  0  0  0  0  0  0  0  0  0
    0.0917   -5.5342    5.0762 H   0  0  0  0  0  0  0  0  0  0  0  0
   -0.6637   -7.9658    3.9094 H   0  0  0  0  0  0  0  0  0  0  0  0
    2.2335   -8.8837    6.5025 H   0  0  0  0  0  0  0  0  0  0  0  0
    0.4430   -7.5533    2.0646 H   0  0  0  0  0  0  0  0  0  0  0  0
    4.2144   -7.8384    2.1985 H   0  0  0  0  0  0  0  0  0  0  0  0
    2.2521   -7.0145    0.8141 H   0  0  0  0  0  0  0  0  0  0  0  0
    1.0048   -5.1497    2.1927 H   0  0  0  0  0  0  0  0  0  0  0  0
    1.9765   -5.1810    4.4018 H   0  0  0  0  0  0  0  0  0  0  0  0
  1  2  1  0
  1 38  1  0
  1 39  1  0
  1 40  1  0
  2 34  1  0
  2  3  1  0
  2 41  1  6
  3  4  1  0
  3 42  1  0
  3 43  1  0
  4 37  1  0
  4  5  1  6
  4  6  1  0
  5 44  1  0
  6  7  1  0
  6 45  1  0
  6 46  1  0
  7  8  2  3
  7 47  1  0
  8 14  1  0
  8  9  1  0
  9 10  1  0
 23  9  1  1
  9 48  1  1
 10 20  1  0
 10 11  1  0
 10 49  1  1
 11 12  1  0
 11 50  1  0
 11 51  1  0
 12 13  1  0
 12 14  1  0
 12 52  1  1
 13 53  1  0
 14 15  1  6
 14 16  1  0
 15 54  1  0
 15 55  1  0
 15 56  1  0
 16 17  1  0
 16 57  1  0
 16 58  1  0
 17 18  1  0
 17 59  1  0
 17 60  1  0
 18 19  1  0
 18 20  1  0
 18 61  1  6
 19 62  1  0
 20 21  1  0
 20 22  1  0
 21 63  1  0
 21 64  1  0
 21 65  1  0
 22 66  1  0
 22 67  1  0
 22 68  1  0
 23 33  1  0
 23 36  1  0
 23 24  1  0
 24 30  1  0
 24 25  1  0
 24 69  1  1
 25 26  1  0
 26 30  1  0
 26 27  1  0
 26 70  1  1
 27 28  1  0
 27 71  1  0
 27 72  1  0
 28 29  1  0
 28 31  1  0
 28 73  1  6
 29 30  1  0
 30 74  1  1
 31 35  1  0
 31 32  1  0
 31 75  1  6
 32 33  1  0
 33 34  1  0
 33 76  1  6
 34 35  1  0
 34 77  1  6
 35 36  1  0
 35 78  1  6
 36 37  1  0
 36 79  1  1
M  END
>  <i_m_ct_stereo_status>  (113) 
1

>  <s_m_source_file>  (113) 
/var/tmp/pbs.5076255.sched01/tmpxjfjwjbi/40jwkb7fqh.sdf

>  <i_m_source_file_index>  (113) 
11

>  <i_lp_mmshare_version>  (113) 
48012

>  <i_f3d_flags>  (113) 
0

>  <s_epik_input>  (113) 
TzFbQ0BIXTJbQ0BIXShPMylbQ0BASF0xW0NIMl1bQ0BIXTNbQ0BASF0oW0NASF00W0NAQEhdNU82KU9bQ0BIXTdbQ0BASF00W0NASF0oW0NIM10pW0NIMl1bQ0BdNihbT0hdKVtDSDJdL1tDSF09QyhcW0NASF04W0NAQF0yNTcpW0NAQF05KFtDSDNdKVtDQEhdKFtPSF0pW0NIMl1bQ0BASF04QyhbQ0gzXSkoW0NIM10pW0NASF0oW09IXSlbQ0gyXVtDSDJdOQ==

>  <s_epik_cmdline>  (113) 
J2VwaWtfcHl0aG9uJywgJy1waHQnLCAnMi4wJywgJy1waCcsICc3LjAnLCAnLXRuJywgJzgnLCAnLW1hJywgJzIwMCcsICctaW1hZScsICc8aW5maWxlLm1hZT4nLCAnLW9tYWUnLCAnPG91dGZpbGUubWFlPic=

>  <r_lp_tautomer_probability>  (113) 
1

>  <r_epik_Ionization_Penalty>  (113) 
1.93128e-06

>  <r_epik_Ionization_Penalty_Charging>  (113) 
0

>  <r_epik_Ionization_Penalty_Neutral>  (113) 
1.93128e-06

>  <r_epik_State_Penalty>  (113) 
-0

>  <r_epik_Charging_Adjusted_Penalty>  (113) 
0

>  <i_epik_Tot_Q>  (113) 
0

>  <i_epik_Tot_abs_Q>  (113) 
0

>  <s_lp_Force_Field>  (113) 
OPLS3e

>  <r_lp_Energy>  (113) 
199.433

>  <b_lp_Chiralities_Consistent>  (113) 
1

>  <s_lp_Variant>  (113) 
38:0-1

>  <s_i_glide_gridfile>  (113) 
pfpi4k_grid

>  <i_i_glide_lignum>  (113) 
11

>  <i_i_glide_rotatable_bonds>  (113) 
3

>  <r_i_docking_score>  (113) 
-2.22887

>  <r_i_glide_ligand_efficiency>  (113) 
-0.0602397

>  <r_i_glide_ligand_efficiency_sa>  (113) 
-0.200732

>  <r_i_glide_ligand_efficiency_ln>  (113) 
-0.48339

>  <r_i_glide_gscore>  (113) 
-2.22887

>  <r_i_glide_lipo>  (113) 
-0.199586

>  <r_i_glide_hbond>  (113) 
0

>  <r_i_glide_metal>  (113) 
-0

>  <r_i_glide_rewards>  (113) 
-0.501689

>  <r_i_glide_evdw>  (113) 
-25.5944

>  <r_i_glide_ecoul>  (113) 
-1.6525

>  <r_i_glide_erotb>  (113) 
0

>  <r_i_glide_esite>  (113) 
0

>  <r_i_glide_emodel>  (113) 
-36.2961

>  <r_i_glide_energy>  (113) 
-27.2469

>  <r_i_glide_einternal>  (113) 
1.206

>  <r_i_glide_intrahb_reward>  (113) 
-0.5

>  <i_i_glide_confnum>  (113) 
2

>  <i_i_glide_posenum>  (113) 
39

>  <r_i_glide_eff_state_penalty>  (113) 
0

>  <ligand_id>  (113) 
38

>  <original_smiles>  (113) 
CC1CC2(O)CC=C3C(C4CC(O)C3(C)CCC(O)C4(C)C)C34C5OC6CC(OC65)C5OC3C1C5C4O2

>  <smiles>  (113) 
[H]OC1([H])C([H])([H])C2([H])C3([H])C(=C([H])C([H])([H])C4(O[H])OC5([H])C6([H])C7([H])OC([H])(C6([H])C([H])(C([H])([H])[H])C4([H])[H])C53C3([H])OC4([H])C([H])([H])C7([H])OC43[H])C1(C([H])([H])[H])C([H])([H])C([H])([H])C([H])(O[H])C2(C([H])([H])[H])C([H])([H])[H]

$$$$
38:0:1
     RDKit          3D

 79 87  0  0  1  0  0  0  0  0999 V2000
    4.4046   -5.3652    0.6385 C   0  0  0  0  0  0  0  0  0  0  0  0
    3.0902   -5.1987    1.4161 C   0  0  2  0  0  0  0  0  0  0  0  0
    2.9926   -4.0527    2.4689 C   0  0  0  0  0  0  0  0  0  0  0  0
    3.0625   -4.3663    3.9947 C   0  0  2  0  0  0  0  0  0  0  0  0
    2.7299   -3.1609    4.6427 O   0  0  0  0  0  0  0  0  0  0  0  0
    4.4002   -4.7898    4.5749 C   0  0  0  0  0  0  0  0  0  0  0  0
    5.2836   -5.5879    3.6701 C   0  0  0  0  0  0  0  0  0  0  0  0
    5.3487   -6.9272    3.5060 C   0  0  0  0  0  0  0  0  0  0  0  0
    4.3155   -7.8821    4.1833 C   0  0  2  0  0  0  0  0  0  0  0  0
    5.0418   -9.2510    4.6570 C   0  0  2  0  0  0  0  0  0  0  0  0
    6.4539   -8.9112    5.2147 C   0  0  0  0  0  0  0  0  0  0  0  0
    7.3839   -8.1072    4.2859 C   0  0  1  0  0  0  0  0  0  0  0  0
    8.6363   -8.7357    4.0674 O   0  0  0  0  0  0  0  0  0  0  0  0
    6.7171   -7.5116    3.0137 C   0  0  2  0  0  0  0  0  0  0  0  0
    7.7279   -6.4036    2.5499 C   0  0  0  0  0  0  0  0  0  0  0  0
    6.6866   -8.4331    1.7455 C   0  0  0  0  0  0  0  0  0  0  0  0
    5.9407   -9.7763    1.6087 C   0  0  0  0  0  0  0  0  0  0  0  0
    6.0532  -10.8237    2.7153 C   0  0  1  0  0  0  0  0  0  0  0  0
    7.3952  -11.0600    3.0828 O   0  0  0  0  0  0  0  0  0  0  0  0
    5.0296  -10.6621    3.8791 C   0  0  0  0  0  0  0  0  0  0  0  0
    5.3047  -11.8023    4.9052 C   0  0  0  0  0  0  0  0  0  0  0  0
    3.6616  -11.0851    3.2792 C   0  0  0  0  0  0  0  0  0  0  0  0
    2.7380   -7.8200    3.7202 C   0  0  2  0  0  0  0  0  0  0  0  0
    1.9323   -8.9394    4.5740 C   0  0  1  0  0  0  0  0  0  0  0  0
    1.1809   -8.3573    5.6763 O   0  0  0  0  0  0  0  0  0  0  0  0
   -0.0498   -8.9803    5.2117 C   0  0  1  0  0  0  0  0  0  0  0  0
   -0.9812   -8.1180    4.3796 C   0  0  0  0  0  0  0  0  0  0  0  0
   -0.6373   -8.4888    2.9251 C   0  0  2  0  0  0  0  0  0  0  0  0
   -0.0565   -9.7775    3.0541 O   0  0  0  0  0  0  0  0  0  0  0  0
    0.7094   -9.8539    4.2501 C   0  0  1  0  0  0  0  0  0  0  0  0
    0.3692   -7.6921    2.0505 C   0  0  2  0  0  0  0  0  0  0  0  0
    1.5038   -8.5219    1.7485 O   0  0  0  0  0  0  0  0  0  0  0  0
    2.6718   -7.8276    2.1375 C   0  0  1  0  0  0  0  0  0  0  0  0
    2.2176   -6.4686    1.5357 C   0  0  1  0  0  0  0  0  0  0  0  0
    1.0693   -6.3817    2.4770 C   0  0  2  0  0  0  0  0  0  0  0  0
    1.8300   -6.5120    3.7924 C   0  0  2  0  0  0  0  0  0  0  0  0
    2.1470   -5.2976    4.4301 O   0  0  0  0  0  0  0  0  0  0  0  0
    5.0383   -6.1213    1.0772 H   0  0  0  0  0  0  0  0  0  0  0  0
    4.9704   -4.4358    0.5841 H   0  0  0  0  0  0  0  0  0  0  0  0
    4.2147   -5.6903   -0.3853 H   0  0  0  0  0  0  0  0  0  0  0  0
    2.5362   -4.6799    0.6305 H   0  0  0  0  0  0  0  0  0  0  0  0
    3.7566   -3.3035    2.2484 H   0  0  0  0  0  0  0  0  0  0  0  0
    2.0416   -3.5375    2.3085 H   0  0  0  0  0  0  0  0  0  0  0  0
    3.3856   -2.5194    4.4158 H   0  0  0  0  0  0  0  0  0  0  0  0
    4.9732   -3.8958    4.8258 H   0  0  0  0  0  0  0  0  0  0  0  0
    4.2384   -5.2909    5.5284 H   0  0  0  0  0  0  0  0  0  0  0  0
    6.0131   -4.9265    3.2382 H   0  0  0  0  0  0  0  0  0  0  0  0
    4.2145   -7.4171    5.1616 H   0  0  0  0  0  0  0  0  0  0  0  0
    4.5349   -9.4990    5.5876 H   0  0  0  0  0  0  0  0  0  0  0  0
    6.2957   -8.2938    6.0988 H   0  0  0  0  0  0  0  0  0  0  0  0
    6.9793   -9.7774    5.6049 H   0  0  0  0  0  0  0  0  0  0  0  0
    7.6756   -7.2542    4.9009 H   0  0  0  0  0  0  0  0  0  0  0  0
    9.1540   -8.2056    3.4795 H   0  0  0  0  0  0  0  0  0  0  0  0
    8.6818   -6.8187    2.2205 H   0  0  0  0  0  0  0  0  0  0  0  0
    7.9870   -5.7028    3.3446 H   0  0  0  0  0  0  0  0  0  0  0  0
    7.3452   -5.8262    1.7079 H   0  0  0  0  0  0  0  0  0  0  0  0
    6.3526   -7.8381    0.8975 H   0  0  0  0  0  0  0  0  0  0  0  0
    7.7238   -8.6564    1.4968 H   0  0  0  0  0  0  0  0  0  0  0  0
    4.8995   -9.6445    1.3500 H   0  0  0  0  0  0  0  0  0  0  0  0
    6.3393  -10.2469    0.7080 H   0  0  0  0  0  0  0  0  0  0  0  0
    5.8197  -11.7731    2.2284 H   0  0  0  0  0  0  0  0  0  0  0  0
    7.4118  -11.7604    3.7133 H   0  0  0  0  0  0  0  0  0  0  0  0
    5.2119  -12.7860    4.4412 H   0  0  0  0  0  0  0  0  0  0  0  0
    4.5904  -11.7827    5.7303 H   0  0  0  0  0  0  0  0  0  0  0  0
    6.2975  -11.7704    5.3495 H   0  0  0  0  0  0  0  0  0  0  0  0
    3.7428  -11.9626    2.6375 H   0  0  0  0  0  0  0  0  0  0  0  0
    3.2057  -10.3204    2.6621 H   0  0  0  0  0  0  0  0  0  0  0  0
    2.9568  -11.4037    4.0424 H   0  0  0  0  0  0  0  0  0  0  0  0
    2.6048   -9.6220    5.0608 H   0  0  0  0  0  0  0  0  0  0  0  0
   -0.5470   -9.5389    6.0061 H   0  0  0  0  0  0  0  0  0  0  0  0
   -2.0036   -8.4509    4.5614 H   0  0  0  0  0  0  0  0  0  0  0  0
   -0.9854   -7.0559    4.6132 H   0  0  0  0  0  0  0  0  0  0  0  0
   -1.5610   -8.5964    2.3561 H   0  0  0  0  0  0  0  0  0  0  0  0
    0.8040  -10.8710    4.6286 H   0  0  0  0  0  0  0  0  0  0  0  0
   -0.1368   -7.5065    1.1003 H   0  0  0  0  0  0  0  0  0  0  0  0
    3.5453   -8.2062    1.6351 H   0  0  0  0  0  0  0  0  0  0  0  0
    1.8800   -6.6453    0.5080 H   0  0  0  0  0  0  0  0  0  0  0  0
    0.4456   -5.4907    2.4057 H   0  0  0  0  0  0  0  0  0  0  0  0
    1.0100   -6.6123    4.4626 H   0  0  0  0  0  0  0  0  0  0  0  0
  1  2  1  0
  1 38  1  0
  1 39  1  0
  1 40  1  0
  2 34  1  0
  2  3  1  0
  2 41  1  6
  3  4  1  0
  3 42  1  0
  3 43  1  0
  4 37  1  0
  4  5  1  1
  4  6  1  0
  5 44  1  0
  6  7  1  0
  6 45  1  0
  6 46  1  0
  7  8  2  3
  7 47  1  0
  8 14  1  0
  8  9  1  0
  9 10  1  0
 23  9  1  6
  9 48  1  1
 10 20  1  0
 10 11  1  0
 10 49  1  1
 11 12  1  0
 11 50  1  0
 11 51  1  0
 12 13  1  0
 12 14  1  0
 12 52  1  1
 13 53  1  0
 14 15  1  6
 14 16  1  0
 15 54  1  0
 15 55  1  0
 15 56  1  0
 16 17  1  0
 16 57  1  0
 16 58  1  0
 17 18  1  0
 17 59  1  0
 17 60  1  0
 18 19  1  0
 18 20  1  0
 18 61  1  6
 19 62  1  0
 20 21  1  0
 20 22  1  0
 21 63  1  0
 21 64  1  0
 21 65  1  0
 22 66  1  0
 22 67  1  0
 22 68  1  0
 23 33  1  0
 23 36  1  0
 23 24  1  0
 24 30  1  0
 24 25  1  0
 24 69  1  1
 25 26  1  0
 26 30  1  0
 26 27  1  0
 26 70  1  1
 27 28  1  0
 27 71  1  0
 27 72  1  0
 28 29  1  0
 28 31  1  0
 28 73  1  6
 29 30  1  0
 30 74  1  1
 31 35  1  0
 31 32  1  0
 31 75  1  6
 32 33  1  0
 33 34  1  0
 33 76  1  6
 34 35  1  0
 34 77  1  6
 35 36  1  0
 35 78  1  1
 36 37  1  0
 36 79  1  1
M  END
>  <i_m_ct_stereo_status>  (114) 
1

>  <s_m_source_file>  (114) 
/var/tmp/pbs.5076255.sched01/tmpxjfjwjbi/40jwkb7fqh.sdf

>  <i_m_source_file_index>  (114) 
11

>  <i_lp_mmshare_version>  (114) 
48012

>  <i_f3d_flags>  (114) 
0

>  <s_epik_input>  (114) 
TzFbQ0BIXTJbQ0BIXShPMylbQ0BASF0xW0NIMl1bQ0BIXTNbQ0BASF0oW0NASF00W0NAQEhdNU82KU9bQ0BIXTdbQ0BASF00W0NASF0oW0NIM10pW0NIMl1bQ0BdNihbT0hdKVtDSDJdL1tDSF09QyhcW0NASF04W0NAQF0yNTcpW0NAQF05KFtDSDNdKVtDQEhdKFtPSF0pW0NIMl1bQ0BASF04QyhbQ0gzXSkoW0NIM10pW0NASF0oW09IXSlbQ0gyXVtDSDJdOQ==

>  <s_epik_cmdline>  (114) 
J2VwaWtfcHl0aG9uJywgJy1waHQnLCAnMi4wJywgJy1waCcsICc3LjAnLCAnLXRuJywgJzgnLCAnLW1hJywgJzIwMCcsICctaW1hZScsICc8aW5maWxlLm1hZT4nLCAnLW9tYWUnLCAnPG91dGZpbGUubWFlPic=

>  <r_lp_tautomer_probability>  (114) 
1

>  <r_epik_Ionization_Penalty>  (114) 
1.93128e-06

>  <r_epik_Ionization_Penalty_Charging>  (114) 
0

>  <r_epik_Ionization_Penalty_Neutral>  (114) 
1.93128e-06

>  <r_epik_State_Penalty>  (114) 
-0

>  <r_epik_Charging_Adjusted_Penalty>  (114) 
0

>  <i_epik_Tot_Q>  (114) 
0

>  <i_epik_Tot_abs_Q>  (114) 
0

>  <s_lp_Force_Field>  (114) 
OPLS3e

>  <r_lp_Energy>  (114) 
199.433

>  <b_lp_Chiralities_Consistent>  (114) 
1

>  <s_lp_Variant>  (114) 
38:0-1

>  <s_i_glide_gridfile>  (114) 
pfpi4k_grid

>  <i_i_glide_lignum>  (114) 
11

>  <i_i_glide_rotatable_bonds>  (114) 
3

>  <r_i_docking_score>  (114) 
-2.04908

>  <r_i_glide_ligand_efficiency>  (114) 
-0.0553806

>  <r_i_glide_ligand_efficiency_sa>  (114) 
-0.184541

>  <r_i_glide_ligand_efficiency_ln>  (114) 
-0.444398

>  <r_i_glide_gscore>  (114) 
-2.04908

>  <r_i_glide_lipo>  (114) 
-0.190445

>  <r_i_glide_hbond>  (114) 
0

>  <r_i_glide_metal>  (114) 
-0

>  <r_i_glide_rewards>  (114) 
0

>  <r_i_glide_evdw>  (114) 
-34.2934

>  <r_i_glide_ecoul>  (114) 
-0.9598

>  <r_i_glide_erotb>  (114) 
0

>  <r_i_glide_esite>  (114) 
0

>  <r_i_glide_emodel>  (114) 
-38.4737

>  <r_i_glide_energy>  (114) 
-35.2532

>  <r_i_glide_einternal>  (114) 
2.37898

>  <r_i_glide_intrahb_reward>  (114) 
-0

>  <i_i_glide_confnum>  (114) 
2

>  <i_i_glide_posenum>  (114) 
32

>  <r_i_glide_eff_state_penalty>  (114) 
0

>  <ligand_id>  (114) 
38

>  <original_smiles>  (114) 
CC1CC2(O)CC=C3C(C4CC(O)C3(C)CCC(O)C4(C)C)C34C5OC6CC(OC65)C5OC3C1C5C4O2

>  <smiles>  (114) 
[H]OC1([H])C([H])([H])C2([H])C3([H])C(=C([H])C([H])([H])C4(O[H])OC5([H])C6([H])C7([H])OC([H])(C6([H])C([H])(C([H])([H])[H])C4([H])[H])C53C3([H])OC4([H])C([H])([H])C7([H])OC43[H])C1(C([H])([H])[H])C([H])([H])C([H])([H])C([H])(O[H])C2(C([H])([H])[H])C([H])([H])[H]

$$$$
38:1:0
     RDKit          3D

 79 87  0  0  1  0  0  0  0  0999 V2000
    1.3199   -7.7343    5.7086 C   0  0  0  0  0  0  0  0  0  0  0  0
    0.8810   -6.7496    4.6344 C   0  0  2  0  0  0  0  0  0  0  0  0
   -0.2040   -7.2162    3.6511 C   0  0  0  0  0  0  0  0  0  0  0  0
    0.2476   -8.1167    2.4819 C   0  0  2  0  0  0  0  0  0  0  0  0
   -0.9054   -8.2607    1.6864 O   0  0  0  0  0  0  0  0  0  0  0  0
    0.6608   -9.5545    2.9048 C   0  0  0  0  0  0  0  0  0  0  0  0
    2.0777   -9.8253    2.4907 C   0  0  0  0  0  0  0  0  0  0  0  0
    3.0941   -9.6270    3.3352 C   0  0  0  0  0  0  0  0  0  0  0  0
    4.1895   -8.6630    2.8503 C   0  0  2  0  0  0  0  0  0  0  0  0
    5.6716   -9.2320    3.1343 C   0  0  2  0  0  0  0  0  0  0  0  0
    5.6667  -10.7693    2.9086 C   0  0  0  0  0  0  0  0  0  0  0  0
    4.6228  -11.5832    3.6890 C   0  0  1  0  0  0  0  0  0  0  0  0
    5.2389  -12.4657    4.6099 O   0  0  0  0  0  0  0  0  0  0  0  0
    3.4605  -10.7731    4.3312 C   0  0  2  0  0  0  0  0  0  0  0  0
    2.3016  -11.8054    4.4820 C   0  0  0  0  0  0  0  0  0  0  0  0
    3.7536  -10.3375    5.8037 C   0  0  0  0  0  0  0  0  0  0  0  0
    4.6919   -9.1587    6.1128 C   0  0  0  0  0  0  0  0  0  0  0  0
    6.1799   -9.2932    5.7556 C   0  0  1  0  0  0  0  0  0  0  0  0
    6.6344  -10.5917    6.0883 O   0  0  0  0  0  0  0  0  0  0  0  0
    6.6091   -8.7871    4.3392 C   0  0  0  0  0  0  0  0  0  0  0  0
    8.0715   -9.2633    4.0787 C   0  0  0  0  0  0  0  0  0  0  0  0
    6.8006   -7.2517    4.3960 C   0  0  0  0  0  0  0  0  0  0  0  0
    3.7638   -7.0787    2.6294 C   0  0  2  0  0  0  0  0  0  0  0  0
    4.9480   -6.5045    1.6889 C   0  0  1  0  0  0  0  0  0  0  0  0
    4.5659   -6.6737    0.3012 O   0  0  0  0  0  0  0  0  0  0  0  0
    4.8022   -5.2653    0.0298 C   0  0  1  0  0  0  0  0  0  0  0  0
    3.6068   -4.3356    0.0804 C   0  0  0  0  0  0  0  0  0  0  0  0
    3.6776   -3.7096    1.4860 C   0  0  2  0  0  0  0  0  0  0  0  0
    5.0480   -3.8509    1.8185 O   0  0  0  0  0  0  0  0  0  0  0  0
    5.5303   -5.0994    1.3347 C   0  0  1  0  0  0  0  0  0  0  0  0
    2.9551   -4.2975    2.7249 C   0  0  2  0  0  0  0  0  0  0  0  0
    3.8926   -4.8884    3.6447 O   0  0  0  0  0  0  0  0  0  0  0  0
    3.4641   -6.2121    3.9327 C   0  0  1  0  0  0  0  0  0  0  0  0
    1.9755   -5.8117    4.0924 C   0  0  1  0  0  0  0  0  0  0  0  0
    1.8788   -5.3935    2.6571 C   0  0  2  0  0  0  0  0  0  0  0  0
    2.3460   -6.6827    1.9706 C   0  0  2  0  0  0  0  0  0  0  0  0
    1.2322   -7.5343    1.6509 O   0  0  0  0  0  0  0  0  0  0  0  0
    1.9849   -8.4532    5.2668 H   0  0  0  0  0  0  0  0  0  0  0  0
    0.4792   -8.2727    6.1449 H   0  0  0  0  0  0  0  0  0  0  0  0
    1.8600   -7.2344    6.5117 H   0  0  0  0  0  0  0  0  0  0  0  0
    0.2766   -6.0677    5.2357 H   0  0  0  0  0  0  0  0  0  0  0  0
   -0.9782   -7.7571    4.2014 H   0  0  0  0  0  0  0  0  0  0  0  0
   -0.7091   -6.3450    3.2340 H   0  0  0  0  0  0  0  0  0  0  0  0
   -0.6816   -8.8778    0.9896 H   0  0  0  0  0  0  0  0  0  0  0  0
    0.5106   -9.6866    3.9728 H   0  0  0  0  0  0  0  0  0  0  0  0
    0.0270  -10.2927    2.4109 H   0  0  0  0  0  0  0  0  0  0  0  0
    2.2015   -9.4896    1.4728 H   0  0  0  0  0  0  0  0  0  0  0  0
    4.1953   -8.9265    1.7919 H   0  0  0  0  0  0  0  0  0  0  0  0
    6.2678   -8.9374    2.2752 H   0  0  0  0  0  0  0  0  0  0  0  0
    5.4313  -10.9190    1.8558 H   0  0  0  0  0  0  0  0  0  0  0  0
    6.6448  -11.2326    3.0013 H   0  0  0  0  0  0  0  0  0  0  0  0
    4.1881  -12.2502    2.9415 H   0  0  0  0  0  0  0  0  0  0  0  0
    4.5731  -13.0561    4.9381 H   0  0  0  0  0  0  0  0  0  0  0  0
    2.5964  -12.6447    5.1144 H   0  0  0  0  0  0  0  0  0  0  0  0
    1.9881  -12.2362    3.5319 H   0  0  0  0  0  0  0  0  0  0  0  0
    1.4192  -11.3819    4.9602 H   0  0  0  0  0  0  0  0  0  0  0  0
    2.8065  -10.1057    6.2865 H   0  0  0  0  0  0  0  0  0  0  0  0
    4.0860  -11.1946    6.3909 H   0  0  0  0  0  0  0  0  0  0  0  0
    4.2917   -8.2608    5.6832 H   0  0  0  0  0  0  0  0  0  0  0  0
    4.6356   -8.9943    7.1898 H   0  0  0  0  0  0  0  0  0  0  0  0
    6.7104   -8.6645    6.4734 H   0  0  0  0  0  0  0  0  0  0  0  0
    6.1475  -11.2279    5.5685 H   0  0  0  0  0  0  0  0  0  0  0  0
    8.7592   -8.8693    4.8283 H   0  0  0  0  0  0  0  0  0  0  0  0
    8.4377   -8.9234    3.1099 H   0  0  0  0  0  0  0  0  0  0  0  0
    8.2005  -10.3434    4.1083 H   0  0  0  0  0  0  0  0  0  0  0  0
    7.4816   -6.9605    5.1965 H   0  0  0  0  0  0  0  0  0  0  0  0
    5.8907   -6.7091    4.5819 H   0  0  0  0  0  0  0  0  0  0  0  0
    7.2425   -6.8599    3.4819 H   0  0  0  0  0  0  0  0  0  0  0  0
    5.8675   -7.0402    1.8481 H   0  0  0  0  0  0  0  0  0  0  0  0
    5.4373   -5.1208   -0.8429 H   0  0  0  0  0  0  0  0  0  0  0  0
    3.7678   -3.5310   -0.6400 H   0  0  0  0  0  0  0  0  0  0  0  0
    2.6503   -4.7646   -0.2070 H   0  0  0  0  0  0  0  0  0  0  0  0
    3.4394   -2.6472    1.4228 H   0  0  0  0  0  0  0  0  0  0  0  0
    6.6118   -5.1111    1.2001 H   0  0  0  0  0  0  0  0  0  0  0  0
    2.5236   -3.4387    3.2439 H   0  0  0  0  0  0  0  0  0  0  0  0
    3.8900   -6.5121    4.8731 H   0  0  0  0  0  0  0  0  0  0  0  0
    1.9201   -4.9479    4.7648 H   0  0  0  0  0  0  0  0  0  0  0  0
    0.9091   -5.0262    2.3314 H   0  0  0  0  0  0  0  0  0  0  0  0
    2.4803   -6.4370    0.9376 H   0  0  0  0  0  0  0  0  0  0  0  0
  1  2  1  0
  1 38  1  0
  1 39  1  0
  1 40  1  0
  2 34  1  0
  2  3  1  0
  2 41  1  1
  3  4  1  0
  3 42  1  0
  3 43  1  0
  4 37  1  0
  4  5  1  6
  4  6  1  0
  5 44  1  0
  6  7  1  0
  6 45  1  0
  6 46  1  0
  7  8  2  3
  7 47  1  0
  8 14  1  0
  8  9  1  0
  9 10  1  0
 23  9  1  1
  9 48  1  6
 10 20  1  0
 10 11  1  0
 10 49  1  6
 11 12  1  0
 11 50  1  0
 11 51  1  0
 12 13  1  0
 12 14  1  0
 12 52  1  6
 13 53  1  0
 14 15  1  1
 14 16  1  0
 15 54  1  0
 15 55  1  0
 15 56  1  0
 16 17  1  0
 16 57  1  0
 16 58  1  0
 17 18  1  0
 17 59  1  0
 17 60  1  0
 18 19  1  0
 18 20  1  0
 18 61  1  1
 19 62  1  0
 20 21  1  0
 20 22  1  0
 21 63  1  0
 21 64  1  0
 21 65  1  0
 22 66  1  0
 22 67  1  0
 22 68  1  0
 23 33  1  0
 23 36  1  0
 23 24  1  0
 24 30  1  0
 24 25  1  0
 24 69  1  6
 25 26  1  0
 26 30  1  0
 26 27  1  0
 26 70  1  6
 27 28  1  0
 27 71  1  0
 27 72  1  0
 28 29  1  0
 28 31  1  0
 28 73  1  6
 29 30  1  0
 30 74  1  6
 31 35  1  0
 31 32  1  0
 31 75  1  1
 32 33  1  0
 33 34  1  0
 33 76  1  1
 34 35  1  0
 34 77  1  1
 35 36  1  0
 35 78  1  6
 36 37  1  0
 36 79  1  6
M  END
>  <i_m_ct_stereo_status>  (115) 
1

>  <s_m_source_file>  (115) 
/var/tmp/pbs.5076255.sched01/tmpxjfjwjbi/40jwkb7fqh.sdf

>  <i_m_source_file_index>  (115) 
12

>  <i_lp_mmshare_version>  (115) 
48012

>  <i_f3d_flags>  (115) 
0

>  <s_epik_input>  (115) 
TzFbQ0BIXTJbQ0BIXShPMylbQ0BASF0xW0NIMl1bQ0BIXTNbQ0BASF0oW0NASF00W0NAQEhdNU82KU9bQ0BIXTdbQ0BASF00W0NASF0oW0NIM10pW0NIMl1bQ0BdNihbT0hdKVtDSDJdL1tDSF09QyhcW0NASF04W0NAQF0yNTcpW0NAQF05KFtDSDNdKVtDQEhdKFtPSF0pW0NIMl1bQ0BASF04QyhbQ0gzXSkoW0NIM10pW0NASF0oW09IXSlbQ0gyXVtDSDJdOQ==

>  <s_epik_cmdline>  (115) 
J2VwaWtfcHl0aG9uJywgJy1waHQnLCAnMi4wJywgJy1waCcsICc3LjAnLCAnLXRuJywgJzgnLCAnLW1hJywgJzIwMCcsICctaW1hZScsICc8aW5maWxlLm1hZT4nLCAnLW9tYWUnLCAnPG91dGZpbGUubWFlPic=

>  <r_lp_tautomer_probability>  (115) 
1

>  <r_epik_Ionization_Penalty>  (115) 
1.93128e-06

>  <r_epik_Ionization_Penalty_Charging>  (115) 
0

>  <r_epik_Ionization_Penalty_Neutral>  (115) 
1.93128e-06

>  <r_epik_State_Penalty>  (115) 
-0

>  <r_epik_Charging_Adjusted_Penalty>  (115) 
0

>  <i_epik_Tot_Q>  (115) 
0

>  <i_epik_Tot_abs_Q>  (115) 
0

>  <s_lp_Force_Field>  (115) 
OPLS3e

>  <r_lp_Energy>  (115) 
220.542

>  <b_lp_Chiralities_Consistent>  (115) 
1

>  <s_lp_Variant>  (115) 
38:0-2

>  <s_i_glide_gridfile>  (115) 
pfpi4k_grid

>  <i_i_glide_lignum>  (115) 
12

>  <i_i_glide_rotatable_bonds>  (115) 
3

>  <r_i_docking_score>  (115) 
-3.41924

>  <r_i_glide_ligand_efficiency>  (115) 
-0.0924119

>  <r_i_glide_ligand_efficiency_sa>  (115) 
-0.307937

>  <r_i_glide_ligand_efficiency_ln>  (115) 
-0.741553

>  <r_i_glide_gscore>  (115) 
-3.41924

>  <r_i_glide_lipo>  (115) 
-0.220564

>  <r_i_glide_hbond>  (115) 
0

>  <r_i_glide_metal>  (115) 
-0

>  <r_i_glide_rewards>  (115) 
-0.5

>  <r_i_glide_evdw>  (115) 
-31.63

>  <r_i_glide_ecoul>  (115) 
-7.15957

>  <r_i_glide_erotb>  (115) 
0

>  <r_i_glide_esite>  (115) 
-0.0432413

>  <r_i_glide_emodel>  (115) 
-52.017

>  <r_i_glide_energy>  (115) 
-38.7895

>  <r_i_glide_einternal>  (115) 
0.446327

>  <r_i_glide_intrahb_reward>  (115) 
-0.5

>  <i_i_glide_confnum>  (115) 
1

>  <i_i_glide_posenum>  (115) 
8

>  <r_i_glide_eff_state_penalty>  (115) 
0

>  <ligand_id>  (115) 
38

>  <original_smiles>  (115) 
CC1CC2(O)CC=C3C(C4CC(O)C3(C)CCC(O)C4(C)C)C34C5OC6CC(OC65)C5OC3C1C5C4O2

>  <smiles>  (115) 
[H]OC1([H])C([H])([H])C2([H])C3([H])C(=C([H])C([H])([H])C4(O[H])OC5([H])C6([H])C7([H])OC([H])(C6([H])C([H])(C([H])([H])[H])C4([H])[H])C53C3([H])OC4([H])C([H])([H])C7([H])OC43[H])C1(C([H])([H])[H])C([H])([H])C([H])([H])C([H])(O[H])C2(C([H])([H])[H])C([H])([H])[H]

$$$$
38:1:1
     RDKit          3D

 79 87  0  0  1  0  0  0  0  0999 V2000
    1.7369   -8.1090    6.0386 C   0  0  0  0  0  0  0  0  0  0  0  0
    0.8601   -6.8933    5.7696 C   0  0  2  0  0  0  0  0  0  0  0  0
   -0.3969   -7.1024    4.9082 C   0  0  0  0  0  0  0  0  0  0  0  0
   -0.2032   -7.1701    3.3795 C   0  0  2  0  0  0  0  0  0  0  0  0
   -1.5114   -7.2346    2.8683 O   0  0  0  0  0  0  0  0  0  0  0  0
    0.5124   -8.4528    2.8770 C   0  0  0  0  0  0  0  0  0  0  0  0
    1.7589   -8.0935    2.1267 C   0  0  0  0  0  0  0  0  0  0  0  0
    2.9475   -8.0486    2.7424 C   0  0  0  0  0  0  0  0  0  0  0  0
    3.6959   -6.7095    2.6564 C   0  0  2  0  0  0  0  0  0  0  0  0
    5.2559   -6.9091    2.2987 C   0  0  2  0  0  0  0  0  0  0  0  0
    5.3920   -8.0754    1.2839 C   0  0  0  0  0  0  0  0  0  0  0  0
    4.7676   -9.4160    1.6882 C   0  0  1  0  0  0  0  0  0  0  0  0
    5.7430  -10.4394    1.7775 O   0  0  0  0  0  0  0  0  0  0  0  0
    3.7558   -9.3800    2.8744 C   0  0  2  0  0  0  0  0  0  0  0  0
    2.8499  -10.6281    2.6715 C   0  0  0  0  0  0  0  0  0  0  0  0
    4.4227   -9.6477    4.2577 C   0  0  0  0  0  0  0  0  0  0  0  0
    5.2379   -8.5585    4.9690 C   0  0  0  0  0  0  0  0  0  0  0  0
    6.5469   -8.0902    4.3174 C   0  0  1  0  0  0  0  0  0  0  0  0
    7.2486   -9.2054    3.7940 O   0  0  0  0  0  0  0  0  0  0  0  0
    6.4456   -6.8679    3.3506 C   0  0  0  0  0  0  0  0  0  0  0  0
    7.8094   -6.7278    2.6034 C   0  0  0  0  0  0  0  0  0  0  0  0
    6.4223   -5.5733    4.1922 C   0  0  0  0  0  0  0  0  0  0  0  0
    3.0109   -5.4036    3.4088 C   0  0  2  0  0  0  0  0  0  0  0  0
    3.7573   -4.1465    2.7200 C   0  0  1  0  0  0  0  0  0  0  0  0
    2.9927   -3.7210    1.5617 O   0  0  0  0  0  0  0  0  0  0  0  0
    2.9507   -2.3496    2.0521 C   0  0  1  0  0  0  0  0  0  0  0  0
    1.7157   -1.9272    2.8246 C   0  0  0  0  0  0  0  0  0  0  0  0
    2.1264   -2.0734    4.3018 C   0  0  2  0  0  0  0  0  0  0  0  0
    3.5387   -1.9745    4.2397 O   0  0  0  0  0  0  0  0  0  0  0  0
    4.0096   -2.6458    3.0772 C   0  0  1  0  0  0  0  0  0  0  0  0
    1.8988   -3.3611    5.1361 C   0  0  2  0  0  0  0  0  0  0  0  0
    3.1431   -4.0393    5.3970 O   0  0  0  0  0  0  0  0  0  0  0  0
    3.0061   -5.3966    5.0010 C   0  0  1  0  0  0  0  0  0  0  0  0
    1.5975   -5.5490    5.6273 C   0  0  1  0  0  0  0  0  0  0  0  0
    1.0084   -4.5345    4.6938 C   0  0  2  0  0  0  0  0  0  0  0  0
    1.4180   -5.1509    3.3490 C   0  0  2  0  0  0  0  0  0  0  0  0
    0.3958   -6.0165    2.8211 O   0  0  0  0  0  0  0  0  0  0  0  0
    2.3278   -8.3138    5.1651 H   0  0  0  0  0  0  0  0  0  0  0  0
    1.1515   -8.9987    6.2702 H   0  0  0  0  0  0  0  0  0  0  0  0
    2.4233   -7.9329    6.8668 H   0  0  0  0  0  0  0  0  0  0  0  0
    0.3820   -6.7850    6.7451 H   0  0  0  0  0  0  0  0  0  0  0  0
   -0.8841   -8.0296    5.2215 H   0  0  0  0  0  0  0  0  0  0  0  0
   -1.1219   -6.3154    5.1306 H   0  0  0  0  0  0  0  0  0  0  0  0
   -1.8363   -8.1099    3.0239 H   0  0  0  0  0  0  0  0  0  0  0  0
    0.7113   -9.1168    3.7150 H   0  0  0  0  0  0  0  0  0  0  0  0
   -0.1333   -9.0033    2.1915 H   0  0  0  0  0  0  0  0  0  0  0  0
    1.5212   -7.2899    1.4476 H   0  0  0  0  0  0  0  0  0  0  0  0
    3.4118   -6.4136    1.6453 H   0  0  0  0  0  0  0  0  0  0  0  0
    5.5127   -6.0816    1.6436 H   0  0  0  0  0  0  0  0  0  0  0  0
    4.8651   -7.7605    0.3841 H   0  0  0  0  0  0  0  0  0  0  0  0
    6.4070   -8.2314    0.9309 H   0  0  0  0  0  0  0  0  0  0  0  0
    4.2083   -9.7185    0.8015 H   0  0  0  0  0  0  0  0  0  0  0  0
    5.3254  -11.2234    1.4168 H   0  0  0  0  0  0  0  0  0  0  0  0
    3.4277  -11.5525    2.6622 H   0  0  0  0  0  0  0  0  0  0  0  0
    2.3288  -10.5895    1.7187 H   0  0  0  0  0  0  0  0  0  0  0  0
    2.1036  -10.7487    3.4540 H   0  0  0  0  0  0  0  0  0  0  0  0
    3.6454   -9.9477    4.9587 H   0  0  0  0  0  0  0  0  0  0  0  0
    5.0355  -10.5486    4.2010 H   0  0  0  0  0  0  0  0  0  0  0  0
    4.6063   -7.7147    5.1766 H   0  0  0  0  0  0  0  0  0  0  0  0
    5.4924   -8.9573    5.9517 H   0  0  0  0  0  0  0  0  0  0  0  0
    7.1832   -7.7678    5.1442 H   0  0  0  0  0  0  0  0  0  0  0  0
    6.7288   -9.5942    3.0968 H   0  0  0  0  0  0  0  0  0  0  0  0
    8.6334   -6.5716    3.3022 H   0  0  0  0  0  0  0  0  0  0  0  0
    7.8113   -5.8789    1.9197 H   0  0  0  0  0  0  0  0  0  0  0  0
    8.0935   -7.6041    2.0217 H   0  0  0  0  0  0  0  0  0  0  0  0
    7.2756   -5.5161    4.8697 H   0  0  0  0  0  0  0  0  0  0  0  0
    5.5529   -5.4658    4.8151 H   0  0  0  0  0  0  0  0  0  0  0  0
    6.4837   -4.6946    3.5586 H   0  0  0  0  0  0  0  0  0  0  0  0
    4.7433   -4.4125    2.3846 H   0  0  0  0  0  0  0  0  0  0  0  0
    3.2702   -1.6363    1.2926 H   0  0  0  0  0  0  0  0  0  0  0  0
    1.5384   -0.8679    2.6366 H   0  0  0  0  0  0  0  0  0  0  0  0
    0.7844   -2.4100    2.5457 H   0  0  0  0  0  0  0  0  0  0  0  0
    1.7370   -1.2283    4.8702 H   0  0  0  0  0  0  0  0  0  0  0  0
    4.9885   -2.2927    2.7584 H   0  0  0  0  0  0  0  0  0  0  0  0
    1.5390   -3.0172    6.1090 H   0  0  0  0  0  0  0  0  0  0  0  0
    3.7326   -5.9824    5.5318 H   0  0  0  0  0  0  0  0  0  0  0  0
    1.6353   -5.1742    6.6574 H   0  0  0  0  0  0  0  0  0  0  0  0
   -0.0581   -4.3271    4.8027 H   0  0  0  0  0  0  0  0  0  0  0  0
    1.1957   -4.4044    2.6178 H   0  0  0  0  0  0  0  0  0  0  0  0
  1  2  1  0
  1 38  1  0
  1 39  1  0
  1 40  1  0
  2 34  1  0
  2  3  1  0
  2 41  1  1
  3  4  1  0
  3 42  1  0
  3 43  1  0
  4 37  1  0
  4  5  1  6
  4  6  1  0
  5 44  1  0
  6  7  1  0
  6 45  1  0
  6 46  1  0
  7  8  2  3
  7 47  1  0
  8 14  1  0
  8  9  1  0
  9 10  1  0
 23  9  1  1
  9 48  1  6
 10 20  1  0
 10 11  1  0
 10 49  1  6
 11 12  1  0
 11 50  1  0
 11 51  1  0
 12 13  1  0
 12 14  1  0
 12 52  1  6
 13 53  1  0
 14 15  1  6
 14 16  1  0
 15 54  1  0
 15 55  1  0
 15 56  1  0
 16 17  1  0
 16 57  1  0
 16 58  1  0
 17 18  1  0
 17 59  1  0
 17 60  1  0
 18 19  1  0
 18 20  1  0
 18 61  1  1
 19 62  1  0
 20 21  1  0
 20 22  1  0
 21 63  1  0
 21 64  1  0
 21 65  1  0
 22 66  1  0
 22 67  1  0
 22 68  1  0
 23 33  1  0
 23 36  1  0
 23 24  1  0
 24 30  1  0
 24 25  1  0
 24 69  1  6
 25 26  1  0
 26 30  1  0
 26 27  1  0
 26 70  1  6
 27 28  1  0
 27 71  1  0
 27 72  1  0
 28 29  1  0
 28 31  1  0
 28 73  1  1
 29 30  1  0
 30 74  1  6
 31 35  1  0
 31 32  1  0
 31 75  1  1
 32 33  1  0
 33 34  1  0
 33 76  1  1
 34 35  1  0
 34 77  1  1
 35 36  1  0
 35 78  1  6
 36 37  1  0
 36 79  1  6
M  END
>  <i_m_ct_stereo_status>  (116) 
1

>  <s_m_source_file>  (116) 
/var/tmp/pbs.5076255.sched01/tmpxjfjwjbi/40jwkb7fqh.sdf

>  <i_m_source_file_index>  (116) 
12

>  <i_lp_mmshare_version>  (116) 
48012

>  <i_f3d_flags>  (116) 
0

>  <s_epik_input>  (116) 
TzFbQ0BIXTJbQ0BIXShPMylbQ0BASF0xW0NIMl1bQ0BIXTNbQ0BASF0oW0NASF00W0NAQEhdNU82KU9bQ0BIXTdbQ0BASF00W0NASF0oW0NIM10pW0NIMl1bQ0BdNihbT0hdKVtDSDJdL1tDSF09QyhcW0NASF04W0NAQF0yNTcpW0NAQF05KFtDSDNdKVtDQEhdKFtPSF0pW0NIMl1bQ0BASF04QyhbQ0gzXSkoW0NIM10pW0NASF0oW09IXSlbQ0gyXVtDSDJdOQ==

>  <s_epik_cmdline>  (116) 
J2VwaWtfcHl0aG9uJywgJy1waHQnLCAnMi4wJywgJy1waCcsICc3LjAnLCAnLXRuJywgJzgnLCAnLW1hJywgJzIwMCcsICctaW1hZScsICc8aW5maWxlLm1hZT4nLCAnLW9tYWUnLCAnPG91dGZpbGUubWFlPic=

>  <r_lp_tautomer_probability>  (116) 
1

>  <r_epik_Ionization_Penalty>  (116) 
1.93128e-06

>  <r_epik_Ionization_Penalty_Charging>  (116) 
0

>  <r_epik_Ionization_Penalty_Neutral>  (116) 
1.93128e-06

>  <r_epik_State_Penalty>  (116) 
-0

>  <r_epik_Charging_Adjusted_Penalty>  (116) 
0

>  <i_epik_Tot_Q>  (116) 
0

>  <i_epik_Tot_abs_Q>  (116) 
0

>  <s_lp_Force_Field>  (116) 
OPLS3e

>  <r_lp_Energy>  (116) 
220.542

>  <b_lp_Chiralities_Consistent>  (116) 
1

>  <s_lp_Variant>  (116) 
38:0-2

>  <s_i_glide_gridfile>  (116) 
pfpi4k_grid

>  <i_i_glide_lignum>  (116) 
12

>  <i_i_glide_rotatable_bonds>  (116) 
3

>  <r_i_docking_score>  (116) 
-3.27966

>  <r_i_glide_ligand_efficiency>  (116) 
-0.0886395

>  <r_i_glide_ligand_efficiency_sa>  (116) 
-0.295366

>  <r_i_glide_ligand_efficiency_ln>  (116) 
-0.711282

>  <r_i_glide_gscore>  (116) 
-3.27966

>  <r_i_glide_lipo>  (116) 
-0.094477

>  <r_i_glide_hbond>  (116) 
-0.0977755

>  <r_i_glide_metal>  (116) 
-0

>  <r_i_glide_rewards>  (116) 
-0.5

>  <r_i_glide_evdw>  (116) 
-26.9092

>  <r_i_glide_ecoul>  (116) 
-7.89803

>  <r_i_glide_erotb>  (116) 
0

>  <r_i_glide_esite>  (116) 
-0.0572451

>  <r_i_glide_emodel>  (116) 
-46.5002

>  <r_i_glide_energy>  (116) 
-34.8072

>  <r_i_glide_einternal>  (116) 
2.4284

>  <r_i_glide_intrahb_reward>  (116) 
-0.5

>  <i_i_glide_confnum>  (116) 
2

>  <i_i_glide_posenum>  (116) 
9

>  <r_i_glide_eff_state_penalty>  (116) 
0

>  <ligand_id>  (116) 
38

>  <original_smiles>  (116) 
CC1CC2(O)CC=C3C(C4CC(O)C3(C)CCC(O)C4(C)C)C34C5OC6CC(OC65)C5OC3C1C5C4O2

>  <smiles>  (116) 
[H]OC1([H])C([H])([H])C2([H])C3([H])C(=C([H])C([H])([H])C4(O[H])OC5([H])C6([H])C7([H])OC([H])(C6([H])C([H])(C([H])([H])[H])C4([H])[H])C53C3([H])OC4([H])C([H])([H])C7([H])OC43[H])C1(C([H])([H])[H])C([H])([H])C([H])([H])C([H])(O[H])C2(C([H])([H])[H])C([H])([H])[H]

$$$$
38:1:2
     RDKit          3D

 79 87  0  0  1  0  0  0  0  0999 V2000
    1.6451   -7.5489    5.8748 C   0  0  0  0  0  0  0  0  0  0  0  0
    0.9636   -6.3808    5.1769 C   0  0  2  0  0  0  0  0  0  0  0  0
   -0.1726   -6.7132    4.1964 C   0  0  0  0  0  0  0  0  0  0  0  0
    0.2343   -7.1831    2.7821 C   0  0  2  0  0  0  0  0  0  0  0  0
   -0.9835   -7.2792    2.0851 O   0  0  0  0  0  0  0  0  0  0  0  0
    0.8594   -8.6041    2.7352 C   0  0  0  0  0  0  0  0  0  0  0  0
    2.2299   -8.5411    2.1361 C   0  0  0  0  0  0  0  0  0  0  0  0
    3.3149   -8.4360    2.9121 C   0  0  0  0  0  0  0  0  0  0  0  0
    4.2185   -7.2222    2.6330 C   0  0  2  0  0  0  0  0  0  0  0  0
    5.7810   -7.6241    2.6044 C   0  0  2  0  0  0  0  0  0  0  0  0
    5.9250   -9.0215    1.9428 C   0  0  0  0  0  0  0  0  0  0  0  0
    5.0955  -10.1594    2.5513 C   0  0  1  0  0  0  0  0  0  0  0  0
    5.9163  -11.1806    3.0807 O   0  0  0  0  0  0  0  0  0  0  0  0
    3.9320   -9.7468    3.4976 C   0  0  2  0  0  0  0  0  0  0  0  0
    2.9280  -10.9425    3.4440 C   0  0  0  0  0  0  0  0  0  0  0  0
    4.3562   -9.6943    4.9989 C   0  0  0  0  0  0  0  0  0  0  0  0
    5.1833   -8.5225    5.5506 C   0  0  0  0  0  0  0  0  0  0  0  0
    6.6190   -8.3374    5.0382 C   0  0  1  0  0  0  0  0  0  0  0  0
    7.2581   -9.5968    4.9311 O   0  0  0  0  0  0  0  0  0  0  0  0
    6.8033   -7.4016    3.8005 C   0  0  0  0  0  0  0  0  0  0  0  0
    8.2651   -7.5659    3.2820 C   0  0  0  0  0  0  0  0  0  0  0  0
    6.8171   -5.9344    4.2854 C   0  0  0  0  0  0  0  0  0  0  0  0
    3.5866   -5.7191    2.9196 C   0  0  2  0  0  0  0  0  0  0  0  0
    4.5699   -4.7400    2.0845 C   0  0  1  0  0  0  0  0  0  0  0  0
    4.0367   -4.5720    0.7444 O   0  0  0  0  0  0  0  0  0  0  0  0
    4.0807   -3.1223    0.8743 C   0  0  1  0  0  0  0  0  0  0  0  0
    2.8029   -2.4253    1.2995 C   0  0  0  0  0  0  0  0  0  0  0  0
    2.9760   -2.2134    2.8156 C   0  0  2  0  0  0  0  0  0  0  0  0
    4.3843   -2.2401    2.9725 O   0  0  0  0  0  0  0  0  0  0  0  0
    4.9385   -3.2233    2.1064 C   0  0  1  0  0  0  0  0  0  0  0  0
    2.4853   -3.2204    3.8876 C   0  0  2  0  0  0  0  0  0  0  0  0
    3.5914   -3.9012    4.5110 O   0  0  0  0  0  0  0  0  0  0  0  0
    3.3562   -5.3000    4.4383 C   0  0  1  0  0  0  0  0  0  0  0  0
    1.8637   -5.1792    4.8367 C   0  0  1  0  0  0  0  0  0  0  0  0
    1.5385   -4.3972    3.5983 C   0  0  2  0  0  0  0  0  0  0  0  0
    2.0609   -5.3681    2.5296 C   0  0  2  0  0  0  0  0  0  0  0  0
    1.0237   -6.2542    2.0696 O   0  0  0  0  0  0  0  0  0  0  0  0
    2.3282   -8.0141    5.1879 H   0  0  0  0  0  0  0  0  0  0  0  0
    0.9338   -8.3037    6.2097 H   0  0  0  0  0  0  0  0  0  0  0  0
    2.2203   -7.2173    6.7389 H   0  0  0  0  0  0  0  0  0  0  0  0
    0.3648   -5.9892    6.0003 H   0  0  0  0  0  0  0  0  0  0  0  0
   -0.8036   -7.4915    4.6331 H   0  0  0  0  0  0  0  0  0  0  0  0
   -0.8294   -5.8507    4.0955 H   0  0  0  0  0  0  0  0  0  0  0  0
   -0.8528   -7.8962    1.3747 H   0  0  0  0  0  0  0  0  0  0  0  0
    0.8591   -9.0422    3.7290 H   0  0  0  0  0  0  0  0  0  0  0  0
    0.2579   -9.2641    2.1075 H   0  0  0  0  0  0  0  0  0  0  0  0
    2.1857   -7.9189    1.2590 H   0  0  0  0  0  0  0  0  0  0  0  0
    4.1210   -7.1777    1.5471 H   0  0  0  0  0  0  0  0  0  0  0  0
    6.2245   -7.0160    1.8202 H   0  0  0  0  0  0  0  0  0  0  0  0
    5.5762   -8.9118    0.9168 H   0  0  0  0  0  0  0  0  0  0  0  0
    6.9547   -9.3417    1.8115 H   0  0  0  0  0  0  0  0  0  0  0  0
    4.6436  -10.6382    1.6829 H   0  0  0  0  0  0  0  0  0  0  0  0
    5.4349  -11.9940    3.0040 H   0  0  0  0  0  0  0  0  0  0  0  0
    3.3916  -11.8738    3.7689 H   0  0  0  0  0  0  0  0  0  0  0  0
    2.5501  -11.1297    2.4412 H   0  0  0  0  0  0  0  0  0  0  0  0
    2.0695  -10.7982    4.0971 H   0  0  0  0  0  0  0  0  0  0  0  0
    3.4562   -9.7445    5.6088 H   0  0  0  0  0  0  0  0  0  0  0  0
    4.8608  -10.6216    5.2716 H   0  0  0  0  0  0  0  0  0  0  0  0
    4.6312   -7.6093    5.4369 H   0  0  0  0  0  0  0  0  0  0  0  0
    5.2446   -8.6726    6.6288 H   0  0  0  0  0  0  0  0  0  0  0  0
    7.1602   -7.8612    5.8579 H   0  0  0  0  0  0  0  0  0  0  0  0
    6.7990  -10.1177    4.2763 H   0  0  0  0  0  0  0  0  0  0  0  0
    8.9927   -7.2969    4.0489 H   0  0  0  0  0  0  0  0  0  0  0  0
    8.4665   -6.9269    2.4219 H   0  0  0  0  0  0  0  0  0  0  0  0
    8.5239   -8.5807    2.9862 H   0  0  0  0  0  0  0  0  0  0  0  0
    7.5630   -5.7726    5.0644 H   0  0  0  0  0  0  0  0  0  0  0  0
    5.8842   -5.6026    4.7051 H   0  0  0  0  0  0  0  0  0  0  0  0
    7.0774   -5.2568    3.4776 H   0  0  0  0  0  0  0  0  0  0  0  0
    5.5573   -5.1590    1.9990 H   0  0  0  0  0  0  0  0  0  0  0  0
    4.5882   -2.6547    0.0317 H   0  0  0  0  0  0  0  0  0  0  0  0
    2.7747   -1.4390    0.8337 H   0  0  0  0  0  0  0  0  0  0  0  0
    1.8725   -2.8916    0.9901 H   0  0  0  0  0  0  0  0  0  0  0  0
    2.6098   -1.2235    3.0864 H   0  0  0  0  0  0  0  0  0  0  0  0
    5.9886   -3.0397    1.8793 H   0  0  0  0  0  0  0  0  0  0  0  0
    2.0289   -2.6119    4.6713 H   0  0  0  0  0  0  0  0  0  0  0  0
    3.9284   -5.7823    5.2095 H   0  0  0  0  0  0  0  0  0  0  0  0
    1.7962   -4.5539    5.7353 H   0  0  0  0  0  0  0  0  0  0  0  0
    0.5015   -4.0841    3.4781 H   0  0  0  0  0  0  0  0  0  0  0  0
    2.0366   -4.8233    1.6096 H   0  0  0  0  0  0  0  0  0  0  0  0
  1  2  1  0
  1 38  1  0
  1 39  1  0
  1 40  1  0
  2 34  1  0
  2  3  1  0
  2 41  1  1
  3  4  1  0
  3 42  1  0
  3 43  1  0
  4 37  1  0
  4  5  1  6
  4  6  1  0
  5 44  1  0
  6  7  1  0
  6 45  1  0
  6 46  1  0
  7  8  2  3
  7 47  1  0
  8 14  1  0
  8  9  1  0
  9 10  1  0
 23  9  1  1
  9 48  1  6
 10 20  1  0
 10 11  1  0
 10 49  1  6
 11 12  1  0
 11 50  1  0
 11 51  1  0
 12 13  1  0
 12 14  1  0
 12 52  1  6
 13 53  1  0
 14 15  1  1
 14 16  1  0
 15 54  1  0
 15 55  1  0
 15 56  1  0
 16 17  1  0
 16 57  1  0
 16 58  1  0
 17 18  1  0
 17 59  1  0
 17 60  1  0
 18 19  1  0
 18 20  1  0
 18 61  1  1
 19 62  1  0
 20 21  1  0
 20 22  1  0
 21 63  1  0
 21 64  1  0
 21 65  1  0
 22 66  1  0
 22 67  1  0
 22 68  1  0
 23 33  1  0
 23 36  1  0
 23 24  1  0
 24 30  1  0
 24 25  1  0
 24 69  1  6
 25 26  1  0
 26 30  1  0
 26 27  1  0
 26 70  1  6
 27 28  1  0
 27 71  1  0
 27 72  1  0
 28 29  1  0
 28 31  1  0
 28 73  1  1
 29 30  1  0
 30 74  1  6
 31 35  1  0
 31 32  1  0
 31 75  1  1
 32 33  1  0
 33 34  1  0
 33 76  1  1
 34 35  1  0
 34 77  1  1
 35 36  1  0
 35 78  1  6
 36 37  1  0
 36 79  1  6
M  END
>  <i_m_ct_stereo_status>  (117) 
1

>  <s_m_source_file>  (117) 
/var/tmp/pbs.5076255.sched01/tmpxjfjwjbi/40jwkb7fqh.sdf

>  <i_m_source_file_index>  (117) 
12

>  <i_lp_mmshare_version>  (117) 
48012

>  <i_f3d_flags>  (117) 
0

>  <s_epik_input>  (117) 
TzFbQ0BIXTJbQ0BIXShPMylbQ0BASF0xW0NIMl1bQ0BIXTNbQ0BASF0oW0NASF00W0NAQEhdNU82KU9bQ0BIXTdbQ0BASF00W0NASF0oW0NIM10pW0NIMl1bQ0BdNihbT0hdKVtDSDJdL1tDSF09QyhcW0NASF04W0NAQF0yNTcpW0NAQF05KFtDSDNdKVtDQEhdKFtPSF0pW0NIMl1bQ0BASF04QyhbQ0gzXSkoW0NIM10pW0NASF0oW09IXSlbQ0gyXVtDSDJdOQ==

>  <s_epik_cmdline>  (117) 
J2VwaWtfcHl0aG9uJywgJy1waHQnLCAnMi4wJywgJy1waCcsICc3LjAnLCAnLXRuJywgJzgnLCAnLW1hJywgJzIwMCcsICctaW1hZScsICc8aW5maWxlLm1hZT4nLCAnLW9tYWUnLCAnPG91dGZpbGUubWFlPic=

>  <r_lp_tautomer_probability>  (117) 
1

>  <r_epik_Ionization_Penalty>  (117) 
1.93128e-06

>  <r_epik_Ionization_Penalty_Charging>  (117) 
0

>  <r_epik_Ionization_Penalty_Neutral>  (117) 
1.93128e-06

>  <r_epik_State_Penalty>  (117) 
-0

>  <r_epik_Charging_Adjusted_Penalty>  (117) 
0

>  <i_epik_Tot_Q>  (117) 
0

>  <i_epik_Tot_abs_Q>  (117) 
0

>  <s_lp_Force_Field>  (117) 
OPLS3e

>  <r_lp_Energy>  (117) 
220.542

>  <b_lp_Chiralities_Consistent>  (117) 
1

>  <s_lp_Variant>  (117) 
38:0-2

>  <s_i_glide_gridfile>  (117) 
pfpi4k_grid

>  <i_i_glide_lignum>  (117) 
12

>  <i_i_glide_rotatable_bonds>  (117) 
3

>  <r_i_docking_score>  (117) 
-3.04795

>  <r_i_glide_ligand_efficiency>  (117) 
-0.0823771

>  <r_i_glide_ligand_efficiency_sa>  (117) 
-0.274499

>  <r_i_glide_ligand_efficiency_ln>  (117) 
-0.661029

>  <r_i_glide_gscore>  (117) 
-3.04795

>  <r_i_glide_lipo>  (117) 
-0.10216

>  <r_i_glide_hbond>  (117) 
-0.0244777

>  <r_i_glide_metal>  (117) 
-0

>  <r_i_glide_rewards>  (117) 
-0.5

>  <r_i_glide_evdw>  (117) 
-28.5345

>  <r_i_glide_ecoul>  (117) 
-6.25337

>  <r_i_glide_erotb>  (117) 
0

>  <r_i_glide_esite>  (117) 
-0.0565834

>  <r_i_glide_emodel>  (117) 
-46.6148

>  <r_i_glide_energy>  (117) 
-34.7879

>  <r_i_glide_einternal>  (117) 
0.927798

>  <r_i_glide_intrahb_reward>  (117) 
-0.5

>  <i_i_glide_confnum>  (117) 
1

>  <i_i_glide_posenum>  (117) 
13

>  <r_i_glide_eff_state_penalty>  (117) 
0

>  <ligand_id>  (117) 
38

>  <original_smiles>  (117) 
CC1CC2(O)CC=C3C(C4CC(O)C3(C)CCC(O)C4(C)C)C34C5OC6CC(OC65)C5OC3C1C5C4O2

>  <smiles>  (117) 
[H]OC1([H])C([H])([H])C2([H])C3([H])C(=C([H])C([H])([H])C4(O[H])OC5([H])C6([H])C7([H])OC([H])(C6([H])C([H])(C([H])([H])[H])C4([H])[H])C53C3([H])OC4([H])C([H])([H])C7([H])OC43[H])C1(C([H])([H])[H])C([H])([H])C([H])([H])C([H])(O[H])C2(C([H])([H])[H])C([H])([H])[H]

$$$$
39:0:0
     RDKit          3D

 55 59  0  0  1  0  0  0  0  0999 V2000
    5.1263   -3.0697    4.9765 C   0  0  0  0  0  0  0  0  0  0  0  0
    4.9865   -3.6759    3.5483 C   0  0  2  0  0  0  0  0  0  0  0  0
    5.8314   -4.9731    3.5619 C   0  0  0  0  0  0  0  0  0  0  0  0
    4.8783   -6.1899    3.4848 C   0  0  2  0  0  0  0  0  0  0  0  0
    5.3933   -7.3471    2.8257 O   0  0  0  0  0  0  0  0  0  0  0  0
    5.6341   -7.2274    1.4258 C   0  0  0  0  0  0  0  0  0  0  0  0
    4.5928   -6.4053    0.6989 C   0  0  0  0  0  0  0  0  0  0  0  0
    3.6542   -5.6691    1.3254 C   0  0  0  0  0  0  0  0  0  0  0  0
    2.6147   -4.9075    0.5015 C   0  0  0  0  0  0  0  0  0  0  0  0
    2.8616   -3.3936    0.2424 C   0  0  1  0  0  0  0  0  0  0  0  0
    2.2195   -2.6553    1.2449 O   0  0  0  0  0  0  0  0  0  0  0  0
    4.3084   -2.9932   -0.0937 C   0  0  1  0  0  0  0  0  0  0  0  0
    4.5343   -3.5276   -1.5163 C   0  0  0  0  0  0  0  0  0  0  0  0
    4.9106   -1.6217    0.2183 C   0  0  1  0  0  0  0  0  0  0  0  0
    5.7283   -0.8392   -0.7927 C   0  0  0  0  0  0  0  0  0  0  0  0
    4.3493   -0.6413    1.2238 C   0  0  0  0  0  0  0  0  0  0  0  0
    4.5058   -1.2841    2.6088 C   0  0  0  0  0  0  0  0  0  0  0  0
    5.3620   -2.5709    2.4652 C   0  0  2  0  0  0  0  0  0  0  0  0
    5.4675   -2.8629    0.9319 C   0  0  1  0  0  0  0  0  0  0  0  0
    6.8545   -3.3858    0.5037 C   0  0  0  0  0  0  0  0  0  0  0  0
    7.8667   -2.4129    0.4596 O   0  0  0  0  0  0  0  0  0  0  0  0
    3.5674   -5.6856    2.8555 C   0  0  1  0  0  0  0  0  0  0  0  0
    2.3570   -6.5061    3.3385 C   0  0  0  0  0  0  0  0  0  0  0  0
    3.5707   -4.2640    3.4089 C   0  0  0  0  0  0  0  0  0  0  0  0
    2.5925   -3.7522    3.9054 O   0  0  0  0  0  0  0  0  0  0  0  0
    6.1531   -2.7747    5.1979 H   0  0  0  0  0  0  0  0  0  0  0  0
    4.8470   -3.7930    5.7448 H   0  0  0  0  0  0  0  0  0  0  0  0
    4.4938   -2.1992    5.1358 H   0  0  0  0  0  0  0  0  0  0  0  0
    6.5040   -5.0514    2.7341 H   0  0  0  0  0  0  0  0  0  0  0  0
    6.4853   -5.0638    4.4323 H   0  0  0  0  0  0  0  0  0  0  0  0
    4.6695   -6.4841    4.5154 H   0  0  0  0  0  0  0  0  0  0  0  0
    6.6194   -6.8000    1.2268 H   0  0  0  0  0  0  0  0  0  0  0  0
    5.6378   -8.2350    1.0052 H   0  0  0  0  0  0  0  0  0  0  0  0
    4.6379   -6.4595   -0.3819 H   0  0  0  0  0  0  0  0  0  0  0  0
    2.5741   -5.3841   -0.4753 H   0  0  0  0  0  0  0  0  0  0  0  0
    1.6282   -5.0759    0.9255 H   0  0  0  0  0  0  0  0  0  0  0  0
    2.2530   -3.1296   -0.6240 H   0  0  0  0  0  0  0  0  0  0  0  0
    1.9424   -1.8199    0.8801 H   0  0  0  0  0  0  0  0  0  0  0  0
    5.4821   -3.2343   -1.9536 H   0  0  0  0  0  0  0  0  0  0  0  0
    3.7674   -3.1665   -2.2041 H   0  0  0  0  0  0  0  0  0  0  0  0
    4.5233   -4.6147   -1.5298 H   0  0  0  0  0  0  0  0  0  0  0  0
    6.3824   -0.1473   -0.2601 H   0  0  0  0  0  0  0  0  0  0  0  0
    5.0900   -0.2774   -1.4747 H   0  0  0  0  0  0  0  0  0  0  0  0
    6.3801   -1.4791   -1.3821 H   0  0  0  0  0  0  0  0  0  0  0  0
    4.8733    0.3152    1.1945 H   0  0  0  0  0  0  0  0  0  0  0  0
    3.3126   -0.4157    0.9696 H   0  0  0  0  0  0  0  0  0  0  0  0
    4.9673   -0.5776    3.3008 H   0  0  0  0  0  0  0  0  0  0  0  0
    3.5146   -1.4710    3.0295 H   0  0  0  0  0  0  0  0  0  0  0  0
    6.3519   -2.2223    2.7296 H   0  0  0  0  0  0  0  0  0  0  0  0
    7.2564   -4.1787    1.1040 H   0  0  0  0  0  0  0  0  0  0  0  0
    6.8156   -3.8505   -0.4777 H   0  0  0  0  0  0  0  0  0  0  0  0
    7.9186   -1.9892    1.3145 H   0  0  0  0  0  0  0  0  0  0  0  0
    1.4187   -6.1015    2.9727 H   0  0  0  0  0  0  0  0  0  0  0  0
    2.3030   -6.5203    4.4233 H   0  0  0  0  0  0  0  0  0  0  0  0
    2.4389   -7.5362    2.9995 H   0  0  0  0  0  0  0  0  0  0  0  0
  2  1  1  1
  1 26  1  0
  1 27  1  0
  1 28  1  0
  2 18  1  0
  2 24  1  0
  2  3  1  0
  3  4  1  0
  3 29  1  0
  3 30  1  0
  4 22  1  0
  4  5  1  0
  4 31  1  1
  5  6  1  0
  6  7  1  0
  6 32  1  0
  6 33  1  0
  7  8  2  0
  7 34  1  0
  8  9  1  0
  8 22  1  0
  9 10  1  0
  9 35  1  0
  9 36  1  0
 10 11  1  0
 10 12  1  0
 10 37  1  6
 11 38  1  0
 12 19  1  0
 12 13  1  6
 12 14  1  0
 13 39  1  0
 13 40  1  0
 13 41  1  0
 14 19  1  0
 14 15  1  6
 14 16  1  0
 15 42  1  0
 15 43  1  0
 15 44  1  0
 16 17  1  0
 16 45  1  0
 16 46  1  0
 17 18  1  0
 17 47  1  0
 17 48  1  0
 18 19  1  0
 18 49  1  1
 19 20  1  6
 20 21  1  0
 20 50  1  0
 20 51  1  0
 21 52  1  0
 22 23  1  6
 22 24  1  0
 23 53  1  0
 23 54  1  0
 23 55  1  0
 24 25  2  0
M  END
>  <i_m_ct_stereo_status>  (118) 
1

>  <s_m_source_file>  (118) 
/var/tmp/pbs.5076255.sched01/tmpxjfjwjbi/40jwkb7fqh.sdf

>  <i_m_source_file_index>  (118) 
13

>  <i_lp_mmshare_version>  (118) 
48012

>  <i_f3d_flags>  (118) 
0

>  <s_epik_input>  (118) 
W0NIM11bQ0BAXTEyW0NASF0zW0NAQF00KFtDSDJdW09IXSlbQ0BdKFtDSDNdKShbQ0BAXTQoW0NIM10pW0NIMl1bQ0gyXTMpW0NASF0oW09IXSlbQ0gyXUM1W0NAXShbQ0gzXSkoQzI9TylbQ0BIXShbQ0gyXTEpT1tDSDJdW0NIXT01

>  <s_epik_cmdline>  (118) 
J2VwaWtfcHl0aG9uJywgJy1waHQnLCAnMi4wJywgJy1waCcsICc3LjAnLCAnLXRuJywgJzgnLCAnLW1hJywgJzIwMCcsICctaW1hZScsICc8aW5maWxlLm1hZT4nLCAnLW9tYWUnLCAnPG91dGZpbGUubWFlPic=

>  <r_lp_tautomer_probability>  (118) 
1

>  <r_epik_Ionization_Penalty>  (118) 
7.70737e-07

>  <r_epik_Ionization_Penalty_Charging>  (118) 
0

>  <r_epik_Ionization_Penalty_Neutral>  (118) 
7.70737e-07

>  <r_epik_State_Penalty>  (118) 
-0

>  <r_epik_Charging_Adjusted_Penalty>  (118) 
0

>  <i_epik_Tot_Q>  (118) 
0

>  <i_epik_Tot_abs_Q>  (118) 
0

>  <s_lp_Force_Field>  (118) 
OPLS3e

>  <r_lp_Energy>  (118) 
67.1469

>  <b_lp_Chiralities_Consistent>  (118) 
1

>  <s_lp_Variant>  (118) 
39:0-1

>  <s_i_glide_gridfile>  (118) 
pfpi4k_grid

>  <i_i_glide_lignum>  (118) 
13

>  <i_i_glide_rotatable_bonds>  (118) 
3

>  <r_i_docking_score>  (118) 
-2.50783

>  <r_i_glide_ligand_efficiency>  (118) 
-0.100313

>  <r_i_glide_ligand_efficiency_sa>  (118) 
-0.293317

>  <r_i_glide_ligand_efficiency_ln>  (118) 
-0.59443

>  <r_i_glide_gscore>  (118) 
-2.50783

>  <r_i_glide_lipo>  (118) 
-0.680868

>  <r_i_glide_hbond>  (118) 
0

>  <r_i_glide_metal>  (118) 
-0

>  <r_i_glide_rewards>  (118) 
-1.04686

>  <r_i_glide_evdw>  (118) 
-17.1055

>  <r_i_glide_ecoul>  (118) 
-0.554775

>  <r_i_glide_erotb>  (118) 
0.158391

>  <r_i_glide_esite>  (118) 
0

>  <r_i_glide_emodel>  (118) 
-18.9387

>  <r_i_glide_energy>  (118) 
-17.6603

>  <r_i_glide_einternal>  (118) 
2.22241

>  <r_i_glide_intrahb_reward>  (118) 
-0

>  <i_i_glide_confnum>  (118) 
3

>  <i_i_glide_posenum>  (118) 
13

>  <r_i_glide_eff_state_penalty>  (118) 
0

>  <ligand_id>  (118) 
39

>  <original_smiles>  (118) 
CC12CC3OCC=C(CC(O)C4(C)C5(C)CCC1C54CO)C3(C)C2=O

>  <smiles>  (118) 
[H]OC([H])([H])C12C3([H])C([H])([H])C([H])([H])C1(C([H])([H])[H])C2(C([H])([H])[H])C([H])(O[H])C([H])([H])C1=C([H])C([H])([H])OC2([H])C([H])([H])C3(C([H])([H])[H])C(=O)C12C([H])([H])[H]

$$$$
39:0:1
     RDKit          3D

 55 59  0  0  1  0  0  0  0  0999 V2000
    5.1813   -3.1666    4.9351 C   0  0  0  0  0  0  0  0  0  0  0  0
    5.0344   -3.7470    3.4990 C   0  0  2  0  0  0  0  0  0  0  0  0
    5.8735   -5.0485    3.4704 C   0  0  0  0  0  0  0  0  0  0  0  0
    4.9082   -6.2551    3.3930 C   0  0  2  0  0  0  0  0  0  0  0  0
    5.4090   -7.4035    2.7082 O   0  0  0  0  0  0  0  0  0  0  0  0
    5.6369   -7.2623    1.3077 C   0  0  0  0  0  0  0  0  0  0  0  0
    4.5915   -6.4254    0.6043 C   0  0  0  0  0  0  0  0  0  0  0  0
    3.6615   -5.6940    1.2544 C   0  0  0  0  0  0  0  0  0  0  0  0
    2.6174   -4.9106    0.4558 C   0  0  0  0  0  0  0  0  0  0  0  0
    2.8713   -3.3935    0.2219 C   0  0  1  0  0  0  0  0  0  0  0  0
    2.2635   -2.6649    1.2481 O   0  0  0  0  0  0  0  0  0  0  0  0
    4.3165   -2.9946   -0.1243 C   0  0  1  0  0  0  0  0  0  0  0  0
    4.5255   -3.5070   -1.5587 C   0  0  0  0  0  0  0  0  0  0  0  0
    4.9258   -1.6322    0.2052 C   0  0  1  0  0  0  0  0  0  0  0  0
    5.7357   -0.8380   -0.8053 C   0  0  0  0  0  0  0  0  0  0  0  0
    4.3773   -0.6674    1.2362 C   0  0  0  0  0  0  0  0  0  0  0  0
    4.5490   -1.3327    2.6076 C   0  0  0  0  0  0  0  0  0  0  0  0
    5.3956   -2.6193    2.4322 C   0  0  2  0  0  0  0  0  0  0  0  0
    5.4869   -2.8865    0.8942 C   0  0  1  0  0  0  0  0  0  0  0  0
    6.8733   -3.4107    0.4566 C   0  0  0  0  0  0  0  0  0  0  0  0
    7.8923   -2.4408    0.4193 O   0  0  0  0  0  0  0  0  0  0  0  0
    3.5954   -5.7352    2.7839 C   0  0  1  0  0  0  0  0  0  0  0  0
    2.3843   -6.5593    3.2667 C   0  0  0  0  0  0  0  0  0  0  0  0
    3.6049   -4.3217    3.3706 C   0  0  0  0  0  0  0  0  0  0  0  0
    2.6341   -3.8157    3.8798 O   0  0  0  0  0  0  0  0  0  0  0  0
    6.2155   -2.8786    5.1493 H   0  0  0  0  0  0  0  0  0  0  0  0
    4.9088   -3.9011    5.6909 H   0  0  0  0  0  0  0  0  0  0  0  0
    4.5563   -2.2972    5.1137 H   0  0  0  0  0  0  0  0  0  0  0  0
    6.5296   -5.1113    2.6247 H   0  0  0  0  0  0  0  0  0  0  0  0
    6.5315   -5.1562    4.3362 H   0  0  0  0  0  0  0  0  0  0  0  0
    4.7086   -6.5706    4.4201 H   0  0  0  0  0  0  0  0  0  0  0  0
    6.6212   -6.8344    1.1043 H   0  0  0  0  0  0  0  0  0  0  0  0
    5.6293   -8.2645    0.8772 H   0  0  0  0  0  0  0  0  0  0  0  0
    4.6244   -6.4550   -0.4770 H   0  0  0  0  0  0  0  0  0  0  0  0
    2.5612   -5.3672   -0.5304 H   0  0  0  0  0  0  0  0  0  0  0  0
    1.6321   -5.0804    0.8846 H   0  0  0  0  0  0  0  0  0  0  0  0
    2.2501   -3.1098   -0.6305 H   0  0  0  0  0  0  0  0  0  0  0  0
    1.9963   -1.8207    0.8992 H   0  0  0  0  0  0  0  0  0  0  0  0
    5.4726   -3.2159   -1.9964 H   0  0  0  0  0  0  0  0  0  0  0  0
    3.7517   -3.1283   -2.2304 H   0  0  0  0  0  0  0  0  0  0  0  0
    4.5046   -4.5928   -1.5901 H   0  0  0  0  0  0  0  0  0  0  0  0
    6.3960   -0.1591   -0.2739 H   0  0  0  0  0  0  0  0  0  0  0  0
    5.0783   -0.2641   -1.4643 H   0  0  0  0  0  0  0  0  0  0  0  0
    6.3646   -1.4734   -1.4159 H   0  0  0  0  0  0  0  0  0  0  0  0
    4.9079    0.2854    1.2176 H   0  0  0  0  0  0  0  0  0  0  0  0
    3.3403   -0.4254    0.9978 H   0  0  0  0  0  0  0  0  0  0  0  0
    5.0227   -0.6414    3.3057 H   0  0  0  0  0  0  0  0  0  0  0  0
    3.5644   -1.5254    3.0367 H   0  0  0  0  0  0  0  0  0  0  0  0
    6.3975   -2.2812    2.6766 H   0  0  0  0  0  0  0  0  0  0  0  0
    7.2848   -4.1714    1.0890 H   0  0  0  0  0  0  0  0  0  0  0  0
    6.8107   -3.9017   -0.5068 H   0  0  0  0  0  0  0  0  0  0  0  0
    8.6963   -2.8397    0.0962 H   0  0  0  0  0  0  0  0  0  0  0  0
    1.4428   -6.1458    2.9193 H   0  0  0  0  0  0  0  0  0  0  0  0
    2.3412   -6.5938    4.3514 H   0  0  0  0  0  0  0  0  0  0  0  0
    2.4558   -7.5846    2.9100 H   0  0  0  0  0  0  0  0  0  0  0  0
  2  1  1  1
  1 26  1  0
  1 27  1  0
  1 28  1  0
  2 18  1  0
  2 24  1  0
  2  3  1  0
  3  4  1  0
  3 29  1  0
  3 30  1  0
  4 22  1  0
  4  5  1  0
  4 31  1  1
  5  6  1  0
  6  7  1  0
  6 32  1  0
  6 33  1  0
  7  8  2  0
  7 34  1  0
  8  9  1  0
  8 22  1  0
  9 10  1  0
  9 35  1  0
  9 36  1  0
 10 11  1  0
 10 12  1  0
 10 37  1  6
 11 38  1  0
 12 19  1  0
 12 13  1  6
 12 14  1  0
 13 39  1  0
 13 40  1  0
 13 41  1  0
 14 19  1  0
 14 15  1  6
 14 16  1  0
 15 42  1  0
 15 43  1  0
 15 44  1  0
 16 17  1  0
 16 45  1  0
 16 46  1  0
 17 18  1  0
 17 47  1  0
 17 48  1  0
 18 19  1  0
 18 49  1  1
 19 20  1  6
 20 21  1  0
 20 50  1  0
 20 51  1  0
 21 52  1  0
 22 23  1  6
 22 24  1  0
 23 53  1  0
 23 54  1  0
 23 55  1  0
 24 25  2  0
M  END
>  <i_m_ct_stereo_status>  (119) 
1

>  <s_m_source_file>  (119) 
/var/tmp/pbs.5076255.sched01/tmpxjfjwjbi/40jwkb7fqh.sdf

>  <i_m_source_file_index>  (119) 
13

>  <i_lp_mmshare_version>  (119) 
48012

>  <i_f3d_flags>  (119) 
0

>  <s_epik_input>  (119) 
W0NIM11bQ0BAXTEyW0NASF0zW0NAQF00KFtDSDJdW09IXSlbQ0BdKFtDSDNdKShbQ0BAXTQoW0NIM10pW0NIMl1bQ0gyXTMpW0NASF0oW09IXSlbQ0gyXUM1W0NAXShbQ0gzXSkoQzI9TylbQ0BIXShbQ0gyXTEpT1tDSDJdW0NIXT01

>  <s_epik_cmdline>  (119) 
J2VwaWtfcHl0aG9uJywgJy1waHQnLCAnMi4wJywgJy1waCcsICc3LjAnLCAnLXRuJywgJzgnLCAnLW1hJywgJzIwMCcsICctaW1hZScsICc8aW5maWxlLm1hZT4nLCAnLW9tYWUnLCAnPG91dGZpbGUubWFlPic=

>  <r_lp_tautomer_probability>  (119) 
1

>  <r_epik_Ionization_Penalty>  (119) 
7.70737e-07

>  <r_epik_Ionization_Penalty_Charging>  (119) 
0

>  <r_epik_Ionization_Penalty_Neutral>  (119) 
7.70737e-07

>  <r_epik_State_Penalty>  (119) 
-0

>  <r_epik_Charging_Adjusted_Penalty>  (119) 
0

>  <i_epik_Tot_Q>  (119) 
0

>  <i_epik_Tot_abs_Q>  (119) 
0

>  <s_lp_Force_Field>  (119) 
OPLS3e

>  <r_lp_Energy>  (119) 
67.1469

>  <b_lp_Chiralities_Consistent>  (119) 
1

>  <s_lp_Variant>  (119) 
39:0-1

>  <s_i_glide_gridfile>  (119) 
pfpi4k_grid

>  <i_i_glide_lignum>  (119) 
13

>  <i_i_glide_rotatable_bonds>  (119) 
3

>  <r_i_docking_score>  (119) 
-2.50356

>  <r_i_glide_ligand_efficiency>  (119) 
-0.100142

>  <r_i_glide_ligand_efficiency_sa>  (119) 
-0.292818

>  <r_i_glide_ligand_efficiency_ln>  (119) 
-0.593419

>  <r_i_glide_gscore>  (119) 
-2.50356

>  <r_i_glide_lipo>  (119) 
-0.687256

>  <r_i_glide_hbond>  (119) 
0

>  <r_i_glide_metal>  (119) 
-0

>  <r_i_glide_rewards>  (119) 
-1.04686

>  <r_i_glide_evdw>  (119) 
-17.041

>  <r_i_glide_ecoul>  (119) 
-0.505234

>  <r_i_glide_erotb>  (119) 
0.158391

>  <r_i_glide_esite>  (119) 
0

>  <r_i_glide_emodel>  (119) 
-18.5612

>  <r_i_glide_energy>  (119) 
-17.5462

>  <r_i_glide_einternal>  (119) 
2.90949

>  <r_i_glide_intrahb_reward>  (119) 
-0

>  <i_i_glide_confnum>  (119) 
1

>  <i_i_glide_posenum>  (119) 
26

>  <r_i_glide_eff_state_penalty>  (119) 
0

>  <ligand_id>  (119) 
39

>  <original_smiles>  (119) 
CC12CC3OCC=C(CC(O)C4(C)C5(C)CCC1C54CO)C3(C)C2=O

>  <smiles>  (119) 
[H]OC([H])([H])C12C3([H])C([H])([H])C([H])([H])C1(C([H])([H])[H])C2(C([H])([H])[H])C([H])(O[H])C([H])([H])C1=C([H])C([H])([H])OC2([H])C([H])([H])C3(C([H])([H])[H])C(=O)C12C([H])([H])[H]

$$$$
39:0:2
     RDKit          3D

 55 59  0  0  1  0  0  0  0  0999 V2000
    4.0757   -1.2527    3.8435 C   0  0  0  0  0  0  0  0  0  0  0  0
    4.3518   -2.4189    2.8497 C   0  0  2  0  0  0  0  0  0  0  0  0
    5.3256   -3.3828    3.5545 C   0  0  0  0  0  0  0  0  0  0  0  0
    4.5620   -4.6753    3.9004 C   0  0  2  0  0  0  0  0  0  0  0  0
    5.3578   -5.8676    3.9336 O   0  0  0  0  0  0  0  0  0  0  0  0
    5.9021   -6.3054    2.6833 C   0  0  0  0  0  0  0  0  0  0  0  0
    4.9549   -6.1039    1.5186 C   0  0  0  0  0  0  0  0  0  0  0  0
    3.8154   -5.3983    1.5864 C   0  0  0  0  0  0  0  0  0  0  0  0
    2.9176   -5.3010    0.3484 C   0  0  0  0  0  0  0  0  0  0  0  0
    3.0467   -4.0327   -0.5363 C   0  0  1  0  0  0  0  0  0  0  0  0
    2.2190   -3.0678   -0.0046 O   0  0  0  0  0  0  0  0  0  0  0  0
    4.4630   -3.4863   -0.7685 C   0  0  1  0  0  0  0  0  0  0  0  0
    5.0724   -4.4952   -1.7400 C   0  0  0  0  0  0  0  0  0  0  0  0
    4.8036   -2.0337   -1.0060 C   0  0  1  0  0  0  0  0  0  0  0  0
    5.7156   -1.6156   -2.1352 C   0  0  0  0  0  0  0  0  0  0  0  0
    3.9092   -0.8600   -0.6513 C   0  0  0  0  0  0  0  0  0  0  0  0
    3.8038   -0.7964    0.8651 C   0  0  0  0  0  0  0  0  0  0  0  0
    4.8149   -1.8036    1.4584 C   0  0  2  0  0  0  0  0  0  0  0  0
    5.3233   -2.7031    0.2706 C   0  0  1  0  0  0  0  0  0  0  0  0
    6.8243   -3.0219    0.3398 C   0  0  0  0  0  0  0  0  0  0  0  0
    7.6316   -1.8694    0.2506 O   0  0  0  0  0  0  0  0  0  0  0  0
    3.3923   -4.7809    2.9217 C   0  0  1  0  0  0  0  0  0  0  0  0
    2.2062   -5.5630    3.5413 C   0  0  0  0  0  0  0  0  0  0  0  0
    3.0852   -3.2955    2.7869 C   0  0  0  0  0  0  0  0  0  0  0  0
    1.9473   -2.8417    2.8441 O   0  0  0  0  0  0  0  0  0  0  0  0
    4.9871   -0.6791    4.0392 H   0  0  0  0  0  0  0  0  0  0  0  0
    3.7240   -1.6264    4.8047 H   0  0  0  0  0  0  0  0  0  0  0  0
    3.3192   -0.5526    3.4922 H   0  0  0  0  0  0  0  0  0  0  0  0
    6.1693   -3.6213    2.9282 H   0  0  0  0  0  0  0  0  0  0  0  0
    5.7730   -2.9519    4.4582 H   0  0  0  0  0  0  0  0  0  0  0  0
    4.1687   -4.5517    4.9075 H   0  0  0  0  0  0  0  0  0  0  0  0
    6.8386   -5.7979    2.4657 H   0  0  0  0  0  0  0  0  0  0  0  0
    6.1204   -7.3640    2.7724 H   0  0  0  0  0  0  0  0  0  0  0  0
    5.2573   -6.5933    0.6011 H   0  0  0  0  0  0  0  0  0  0  0  0
    3.1673   -6.1477   -0.2859 H   0  0  0  0  0  0  0  0  0  0  0  0
    1.8744   -5.4647    0.6318 H   0  0  0  0  0  0  0  0  0  0  0  0
    2.5989   -4.2439   -1.5141 H   0  0  0  0  0  0  0  0  0  0  0  0
    1.9892   -2.4087   -0.6513 H   0  0  0  0  0  0  0  0  0  0  0  0
    6.0327   -4.2097   -2.1100 H   0  0  0  0  0  0  0  0  0  0  0  0
    4.4682   -4.5862   -2.6438 H   0  0  0  0  0  0  0  0  0  0  0  0
    5.1554   -5.4676   -1.2650 H   0  0  0  0  0  0  0  0  0  0  0  0
    6.1635   -0.6496   -1.8933 H   0  0  0  0  0  0  0  0  0  0  0  0
    5.1574   -1.5495   -3.0673 H   0  0  0  0  0  0  0  0  0  0  0  0
    6.5735   -2.2560   -2.2506 H   0  0  0  0  0  0  0  0  0  0  0  0
    4.3065    0.0873   -1.0329 H   0  0  0  0  0  0  0  0  0  0  0  0
    2.9738   -0.9877   -1.1806 H   0  0  0  0  0  0  0  0  0  0  0  0
    3.9971    0.2155    1.2187 H   0  0  0  0  0  0  0  0  0  0  0  0
    2.7802   -0.9963    1.1612 H   0  0  0  0  0  0  0  0  0  0  0  0
    5.6872   -1.1841    1.7099 H   0  0  0  0  0  0  0  0  0  0  0  0
    7.0969   -3.6030    1.2069 H   0  0  0  0  0  0  0  0  0  0  0  0
    7.1110   -3.6794   -0.4531 H   0  0  0  0  0  0  0  0  0  0  0  0
    7.4809   -1.3164    1.0148 H   0  0  0  0  0  0  0  0  0  0  0  0
    1.3299   -5.5613    2.8934 H   0  0  0  0  0  0  0  0  0  0  0  0
    1.9010   -5.1329    4.4961 H   0  0  0  0  0  0  0  0  0  0  0  0
    2.4879   -6.5989    3.7239 H   0  0  0  0  0  0  0  0  0  0  0  0
  2  1  1  1
  1 26  1  0
  1 27  1  0
  1 28  1  0
  2 18  1  0
  2 24  1  0
  2  3  1  0
  3  4  1  0
  3 29  1  0
  3 30  1  0
  4 22  1  0
  4  5  1  0
  4 31  1  1
  5  6  1  0
  6  7  1  0
  6 32  1  0
  6 33  1  0
  7  8  2  0
  7 34  1  0
  8  9  1  0
  8 22  1  0
  9 10  1  0
  9 35  1  0
  9 36  1  0
 10 11  1  0
 10 12  1  0
 10 37  1  6
 11 38  1  0
 12 19  1  0
 12 13  1  6
 12 14  1  0
 13 39  1  0
 13 40  1  0
 13 41  1  0
 14 19  1  0
 14 15  1  6
 14 16  1  0
 15 42  1  0
 15 43  1  0
 15 44  1  0
 16 17  1  0
 16 45  1  0
 16 46  1  0
 17 18  1  0
 17 47  1  0
 17 48  1  0
 18 19  1  0
 18 49  1  1
 19 20  1  6
 20 21  1  0
 20 50  1  0
 20 51  1  0
 21 52  1  0
 22 23  1  1
 22 24  1  0
 23 53  1  0
 23 54  1  0
 23 55  1  0
 24 25  2  0
M  END
>  <i_m_ct_stereo_status>  (120) 
1

>  <s_m_source_file>  (120) 
/var/tmp/pbs.5076255.sched01/tmpxjfjwjbi/40jwkb7fqh.sdf

>  <i_m_source_file_index>  (120) 
13

>  <i_lp_mmshare_version>  (120) 
48012

>  <i_f3d_flags>  (120) 
0

>  <s_epik_input>  (120) 
W0NIM11bQ0BAXTEyW0NASF0zW0NAQF00KFtDSDJdW09IXSlbQ0BdKFtDSDNdKShbQ0BAXTQoW0NIM10pW0NIMl1bQ0gyXTMpW0NASF0oW09IXSlbQ0gyXUM1W0NAXShbQ0gzXSkoQzI9TylbQ0BIXShbQ0gyXTEpT1tDSDJdW0NIXT01

>  <s_epik_cmdline>  (120) 
J2VwaWtfcHl0aG9uJywgJy1waHQnLCAnMi4wJywgJy1waCcsICc3LjAnLCAnLXRuJywgJzgnLCAnLW1hJywgJzIwMCcsICctaW1hZScsICc8aW5maWxlLm1hZT4nLCAnLW9tYWUnLCAnPG91dGZpbGUubWFlPic=

>  <r_lp_tautomer_probability>  (120) 
1

>  <r_epik_Ionization_Penalty>  (120) 
7.70737e-07

>  <r_epik_Ionization_Penalty_Charging>  (120) 
0

>  <r_epik_Ionization_Penalty_Neutral>  (120) 
7.70737e-07

>  <r_epik_State_Penalty>  (120) 
-0

>  <r_epik_Charging_Adjusted_Penalty>  (120) 
0

>  <i_epik_Tot_Q>  (120) 
0

>  <i_epik_Tot_abs_Q>  (120) 
0

>  <s_lp_Force_Field>  (120) 
OPLS3e

>  <r_lp_Energy>  (120) 
67.1469

>  <b_lp_Chiralities_Consistent>  (120) 
1

>  <s_lp_Variant>  (120) 
39:0-1

>  <s_i_glide_gridfile>  (120) 
pfpi4k_grid

>  <i_i_glide_lignum>  (120) 
13

>  <i_i_glide_rotatable_bonds>  (120) 
3

>  <r_i_docking_score>  (120) 
-2.36373

>  <r_i_glide_ligand_efficiency>  (120) 
-0.0945491

>  <r_i_glide_ligand_efficiency_sa>  (120) 
-0.276463

>  <r_i_glide_ligand_efficiency_ln>  (120) 
-0.560274

>  <r_i_glide_gscore>  (120) 
-2.36373

>  <r_i_glide_lipo>  (120) 
-0.355007

>  <r_i_glide_hbond>  (120) 
-0.0390326

>  <r_i_glide_metal>  (120) 
-0

>  <r_i_glide_rewards>  (120) 
-1.04686

>  <r_i_glide_evdw>  (120) 
-12.3063

>  <r_i_glide_ecoul>  (120) 
-3.10551

>  <r_i_glide_erotb>  (120) 
0.158391

>  <r_i_glide_esite>  (120) 
-7.34768e-05

>  <r_i_glide_emodel>  (120) 
-16.7235

>  <r_i_glide_energy>  (120) 
-15.4119

>  <r_i_glide_einternal>  (120) 
1.28481

>  <r_i_glide_intrahb_reward>  (120) 
-0

>  <i_i_glide_confnum>  (120) 
3

>  <i_i_glide_posenum>  (120) 
17

>  <r_i_glide_eff_state_penalty>  (120) 
0

>  <ligand_id>  (120) 
39

>  <original_smiles>  (120) 
CC12CC3OCC=C(CC(O)C4(C)C5(C)CCC1C54CO)C3(C)C2=O

>  <smiles>  (120) 
[H]OC([H])([H])C12C3([H])C([H])([H])C([H])([H])C1(C([H])([H])[H])C2(C([H])([H])[H])C([H])(O[H])C([H])([H])C1=C([H])C([H])([H])OC2([H])C([H])([H])C3(C([H])([H])[H])C(=O)C12C([H])([H])[H]

$$$$
40:0:0
     RDKit          3D

 81 87  0  0  1  0  0  0  0  0999 V2000
    7.7325   -3.4328   -0.4045 C   0  0  0  0  0  0  0  0  0  0  0  0
    7.3287   -3.9814    0.9851 C   0  0  2  0  0  0  0  0  0  0  0  0
    7.7869   -5.6090    1.0549 C   0  0  1  0  0  0  0  0  0  0  0  0
    9.2015   -5.5471    1.0668 O   0  0  0  0  0  0  0  0  0  0  0  0
    7.5125   -6.8205    2.1337 C   0  0  0  0  0  0  0  0  0  0  0  0
    6.5437   -8.0434    1.8504 C   0  0  0  0  0  0  0  0  0  0  0  0
    7.0181   -8.9094    1.1076 O   0  0  0  0  0  0  0  0  0  0  0  0
    5.0527   -8.3399    2.4775 C   0  0  2  0  0  0  0  0  0  0  0  0
    5.3002   -9.3524    3.6216 C   0  0  0  0  0  0  0  0  0  0  0  0
    4.1949   -8.9751    1.3718 C   0  0  1  0  0  0  0  0  0  0  0  0
    2.6139   -9.2734    1.7873 C   0  0  0  0  0  0  0  0  0  0  0  0
    1.8361   -8.7614    3.1566 C   0  0  2  0  0  0  0  0  0  0  0  0
    0.6890   -9.7304    3.5024 C   0  0  1  0  0  0  0  0  0  0  0  0
    1.1807  -11.0047    3.8632 O   0  0  0  0  0  0  0  0  0  0  0  0
   -0.0560   -9.1091    4.6974 C   0  0  0  0  0  0  0  0  0  0  0  0
    0.4418   -7.6655    4.8678 C   0  0  1  0  0  0  0  0  0  0  0  0
    1.2004   -7.6317    6.0531 O   0  0  0  0  0  0  0  0  0  0  0  0
    1.1866   -7.2809    3.5379 C   0  0  2  0  0  0  0  0  0  0  0  0
   -0.0638   -6.9954    2.6272 C   0  0  0  0  0  0  0  0  0  0  0  0
    2.1412   -5.9039    3.7849 C   0  0  2  0  0  0  0  0  0  0  0  0
    1.9673   -4.4886    2.8679 C   0  0  1  0  0  0  0  0  0  0  0  0
    1.2307   -3.5971    3.6917 O   0  0  0  0  0  0  0  0  0  0  0  0
    3.0709   -3.5360    1.9955 C   0  0  1  0  0  0  0  0  0  0  0  0
    3.3484   -2.3113    2.6684 O   0  0  0  0  0  0  0  0  0  0  0  0
    4.3649   -3.9173    0.9824 C   0  0  2  0  0  0  0  0  0  0  0  0
    4.0392   -3.5555   -0.4879 C   0  0  0  0  0  0  0  0  0  0  0  0
    4.9219   -5.2731    1.1583 C   0  0  1  0  0  0  0  0  0  0  0  0
    5.3644   -4.8331    2.7170 C   0  0  2  0  0  0  0  0  0  0  0  0
    4.5140   -5.0345    4.0023 C   0  0  0  0  0  0  0  0  0  0  0  0
    3.6433   -6.3118    3.9959 C   0  0  1  0  0  0  0  0  0  0  0  0
    3.9521   -7.0099    5.3490 C   0  0  0  0  0  0  0  0  0  0  0  0
    4.0154   -7.1561    2.7659 C   0  0  2  0  0  0  0  0  0  0  0  0
    3.2987   -6.5926    1.4436 C   0  0  0  0  0  0  0  0  0  0  0  0
    2.1384   -6.5039    1.0746 O   0  0  0  0  0  0  0  0  0  0  0  0
    4.2122   -6.5122    0.4652 C   0  0  2  0  0  0  0  0  0  0  0  0
    4.4844   -7.9552    0.3013 O   0  0  0  0  0  0  0  0  0  0  0  0
    5.7879   -3.5122    2.7203 O   0  0  0  0  0  0  0  0  0  0  0  0
    5.8241   -3.3062    1.3982 C   0  0  1  0  0  0  0  0  0  0  0  0
    5.8235   -1.9199    1.1393 O   0  0  0  0  0  0  0  0  0  0  0  0
    7.1076   -3.8521   -1.1925 H   0  0  0  0  0  0  0  0  0  0  0  0
    8.7670   -3.6750   -0.6524 H   0  0  0  0  0  0  0  0  0  0  0  0
    7.6627   -2.3466   -0.4655 H   0  0  0  0  0  0  0  0  0  0  0  0
    8.0088   -3.4811    1.6706 H   0  0  0  0  0  0  0  0  0  0  0  0
    7.5656   -6.0497    0.0804 H   0  0  0  0  0  0  0  0  0  0  0  0
    9.5459   -6.4369    1.1290 H   0  0  0  0  0  0  0  0  0  0  0  0
    8.4443   -7.3841    2.1058 H   0  0  0  0  0  0  0  0  0  0  0  0
    7.5561   -6.5543    3.1891 H   0  0  0  0  0  0  0  0  0  0  0  0
    4.4091   -9.8818    3.9484 H   0  0  0  0  0  0  0  0  0  0  0  0
    5.7659   -8.8794    4.4843 H   0  0  0  0  0  0  0  0  0  0  0  0
    5.9944  -10.1289    3.2952 H   0  0  0  0  0  0  0  0  0  0  0  0
    4.6352   -9.9101    1.0346 H   0  0  0  0  0  0  0  0  0  0  0  0
    1.9726   -9.0572    0.9308 H   0  0  0  0  0  0  0  0  0  0  0  0
    2.5854  -10.3594    1.8293 H   0  0  0  0  0  0  0  0  0  0  0  0
    2.5342   -8.9632    3.9510 H   0  0  0  0  0  0  0  0  0  0  0  0
    0.0067   -9.8343    2.6538 H   0  0  0  0  0  0  0  0  0  0  0  0
    1.5585  -11.4185    3.0997 H   0  0  0  0  0  0  0  0  0  0  0  0
   -1.1247   -9.0977    4.4892 H   0  0  0  0  0  0  0  0  0  0  0  0
    0.0583   -9.7028    5.6067 H   0  0  0  0  0  0  0  0  0  0  0  0
   -0.3979   -6.9958    5.0594 H   0  0  0  0  0  0  0  0  0  0  0  0
    1.8298   -8.3395    6.0118 H   0  0  0  0  0  0  0  0  0  0  0  0
   -0.3643   -5.9639    2.7346 H   0  0  0  0  0  0  0  0  0  0  0  0
   -0.9529   -7.5698    2.8851 H   0  0  0  0  0  0  0  0  0  0  0  0
    0.0546   -7.2360    1.5740 H   0  0  0  0  0  0  0  0  0  0  0  0
    1.8435   -5.5594    4.7754 H   0  0  0  0  0  0  0  0  0  0  0  0
    1.2073   -4.6957    2.1290 H   0  0  0  0  0  0  0  0  0  0  0  0
    0.9039   -2.8858    3.1614 H   0  0  0  0  0  0  0  0  0  0  0  0
    2.3740   -3.1296    1.2629 H   0  0  0  0  0  0  0  0  0  0  0  0
    2.5345   -1.8718    2.8593 H   0  0  0  0  0  0  0  0  0  0  0  0
    4.8510   -3.8087   -1.1674 H   0  0  0  0  0  0  0  0  0  0  0  0
    3.8482   -2.4878   -0.5813 H   0  0  0  0  0  0  0  0  0  0  0  0
    3.1434   -4.0749   -0.8331 H   0  0  0  0  0  0  0  0  0  0  0  0
    5.6312   -5.3342    0.3579 H   0  0  0  0  0  0  0  0  0  0  0  0
    6.2760   -5.2138    3.0785 H   0  0  0  0  0  0  0  0  0  0  0  0
    5.2341   -5.0668    4.8215 H   0  0  0  0  0  0  0  0  0  0  0  0
    3.9484   -4.1568    4.3039 H   0  0  0  0  0  0  0  0  0  0  0  0
    5.0271   -7.0914    5.5201 H   0  0  0  0  0  0  0  0  0  0  0  0
    3.5750   -8.0229    5.4377 H   0  0  0  0  0  0  0  0  0  0  0  0
    3.5535   -6.4282    6.1817 H   0  0  0  0  0  0  0  0  0  0  0  0
    5.0101   -6.8619    2.9307 H   0  0  0  0  0  0  0  0  0  0  0  0
    3.7847   -6.1805   -0.4790 H   0  0  0  0  0  0  0  0  0  0  0  0
    4.9785   -1.5985    1.4261 H   0  0  0  0  0  0  0  0  0  0  0  0
  1  2  1  0
  1 40  1  0
  1 41  1  0
  1 42  1  0
  2 38  1  0
  2  3  1  0
  2 43  1  1
  3  4  1  0
  3  5  1  0
  3 44  1  6
  4 45  1  0
  5  6  1  0
  5 46  1  0
  5 47  1  0
  6  7  2  0
  6  8  1  0
  8 32  1  0
  8  9  1  1
  8 10  1  0
  9 48  1  0
  9 49  1  0
  9 50  1  0
 10 36  1  0
 10 11  1  0
 10 51  1  6
 11 12  1  0
 11 52  1  0
 11 53  1  0
 12 18  1  0
 12 13  1  0
 12 54  1  1
 13 14  1  0
 13 15  1  0
 13 55  1  6
 14 56  1  0
 15 16  1  0
 15 57  1  0
 15 58  1  0
 16 17  1  0
 16 18  1  0
 16 59  1  1
 17 60  1  0
 18 19  1  6
 18 20  1  0
 19 61  1  0
 19 62  1  0
 19 63  1  0
 20 30  1  0
 20 21  1  0
 20 64  1  1
 21 22  1  0
 21 23  1  0
 21 65  1  6
 22 66  1  0
 23 24  1  0
 23 25  1  0
 23 67  1  6
 24 68  1  0
 25 38  1  0
 25 26  1  6
 25 27  1  0
 26 69  1  0
 26 70  1  0
 26 71  1  0
 27 35  1  0
 27 28  1  0
 27 72  1  6
 28 29  1  0
 28 37  1  0
 28 73  1  1
 29 30  1  0
 29 74  1  0
 29 75  1  0
 30 31  1  1
 30 32  1  0
 31 76  1  0
 31 77  1  0
 31 78  1  0
 32 33  1  0
 32 79  1  1
 33 34  2  0
 33 35  1  0
 35 36  1  0
 35 80  1  6
 37 38  1  0
 38 39  1  1
 39 81  1  0
M  END
>  <i_m_ct_stereo_status>  (121) 
1

>  <s_m_source_file>  (121) 
/var/tmp/pbs.5076255.sched01/tmpxjfjwjbi/40jwkb7fqh.sdf

>  <i_m_source_file_index>  (121) 
14

>  <i_lp_mmshare_version>  (121) 
48012

>  <i_f3d_flags>  (121) 
0

>  <s_epik_input>  (121) 
Tz1DMVtDSDJdW0NASF0oW09IXSlbQ0BASF0oW0NIM10pW0NAXShbT0hdKShPW0NASF0yW0NIMl0zKVtDQF0oW0NIM10pKFtDQEhdKFtPSF0pW0NAQEhdNFtPSF0pW0NAQEhdMltDSF0oTzUpQyg9TylbQ0BIXTZbQ0BdMyhbQ0gzXSlbQ0BASF00W0NAXShbQ0gzXSkoW0NASF0oW09IXSlbQ0gyXVtDQEBIXTdbT0hdKVtDQEBIXTdbQ0gyXVtDQEBIXTVbQ0BAXTE2W0NIM10=

>  <s_epik_cmdline>  (121) 
J2VwaWtfcHl0aG9uJywgJy1waHQnLCAnMi4wJywgJy1waCcsICc3LjAnLCAnLXRuJywgJzgnLCAnLW1hJywgJzIwMCcsICctaW1hZScsICc8aW5maWxlLm1hZT4nLCAnLW9tYWUnLCAnPG91dGZpbGUubWFlPic=

>  <r_lp_tautomer_probability>  (121) 
1

>  <r_epik_Ionization_Penalty>  (121) 
2.35268e-06

>  <r_epik_Ionization_Penalty_Charging>  (121) 
0

>  <r_epik_Ionization_Penalty_Neutral>  (121) 
2.35268e-06

>  <r_epik_State_Penalty>  (121) 
-0

>  <r_epik_Charging_Adjusted_Penalty>  (121) 
0

>  <i_epik_Tot_Q>  (121) 
0

>  <i_epik_Tot_abs_Q>  (121) 
0

>  <s_lp_Force_Field>  (121) 
OPLS3e

>  <r_lp_Energy>  (121) 
491.128

>  <b_lp_Chiralities_Consistent>  (121) 
1

>  <s_lp_Variant>  (121) 
40:0-1

>  <s_i_glide_gridfile>  (121) 
pfpi4k_grid

>  <i_i_glide_lignum>  (121) 
14

>  <i_i_glide_rotatable_bonds>  (121) 
6

>  <r_i_docking_score>  (121) 
-4.67283

>  <r_i_glide_ligand_efficiency>  (121) 
-0.119816

>  <r_i_glide_ligand_efficiency_sa>  (121) 
-0.406322

>  <r_i_glide_ligand_efficiency_ln>  (121) 
-1.00199

>  <r_i_glide_gscore>  (121) 
-4.67283

>  <r_i_glide_lipo>  (121) 
-0.636451

>  <r_i_glide_hbond>  (121) 
-0.199373

>  <r_i_glide_metal>  (121) 
-0

>  <r_i_glide_rewards>  (121) 
-0.814064

>  <r_i_glide_evdw>  (121) 
-34.9142

>  <r_i_glide_ecoul>  (121) 
-8.5149

>  <r_i_glide_erotb>  (121) 
0

>  <r_i_glide_esite>  (121) 
0

>  <r_i_glide_emodel>  (121) 
-61.2953

>  <r_i_glide_energy>  (121) 
-43.4291

>  <r_i_glide_einternal>  (121) 
1.89172

>  <r_i_glide_intrahb_reward>  (121) 
-0.5

>  <i_i_glide_confnum>  (121) 
2

>  <i_i_glide_posenum>  (121) 
10

>  <r_i_glide_eff_state_penalty>  (121) 
0

>  <ligand_id>  (121) 
40

>  <original_smiles>  (121) 
CC1C(O)CC(=O)C2(C)C3CC4C(O)CC(O)C4(C)C4C(O)C(O)C5(C)C6C(CC4(C)C2C(=O)C6O3)OC15O

>  <smiles>  (121) 
[H]OC1([H])C([H])([H])C(=O)C2(C([H])([H])[H])C3([H])OC4([H])C(=O)C2([H])C2(C([H])([H])[H])C([H])([H])C5([H])OC(O[H])(C1([H])C([H])([H])[H])C(C([H])([H])[H])(C([H])(O[H])C([H])(O[H])C2([H])C1(C([H])([H])[H])C([H])(O[H])C([H])([H])C([H])(O[H])C1([H])C3([H])[H])C45[H]

$$$$
40:0:1
     RDKit          3D

 81 87  0  0  1  0  0  0  0  0999 V2000
    7.3916   -3.4485   -0.4776 C   0  0  0  0  0  0  0  0  0  0  0  0
    7.1191   -3.9801    0.9584 C   0  0  2  0  0  0  0  0  0  0  0  0
    7.5878   -5.6106    1.0145 C   0  0  1  0  0  0  0  0  0  0  0  0
    9.0034   -5.5589    0.8728 O   0  0  0  0  0  0  0  0  0  0  0  0
    7.4031   -6.7959    2.1443 C   0  0  0  0  0  0  0  0  0  0  0  0
    6.4138   -8.0270    1.9735 C   0  0  0  0  0  0  0  0  0  0  0  0
    6.8289   -8.9164    1.2270 O   0  0  0  0  0  0  0  0  0  0  0  0
    4.9819   -8.3166    2.7278 C   0  0  2  0  0  0  0  0  0  0  0  0
    5.3309   -9.2978    3.8741 C   0  0  0  0  0  0  0  0  0  0  0  0
    4.0343   -8.9870    1.7143 C   0  0  1  0  0  0  0  0  0  0  0  0
    2.4963   -9.2778    2.2788 C   0  0  0  0  0  0  0  0  0  0  0  0
    1.8380   -8.7345    3.6975 C   0  0  2  0  0  0  0  0  0  0  0  0
    0.7361   -9.7056    4.1766 C   0  0  1  0  0  0  0  0  0  0  0  0
    1.2509  -10.9877    4.4881 O   0  0  0  0  0  0  0  0  0  0  0  0
    0.0839   -9.0560    5.4116 C   0  0  0  0  0  0  0  0  0  0  0  0
    0.5878   -7.5982    5.4906 C   0  0  1  0  0  0  0  0  0  0  0  0
    1.4443   -7.5221    6.6041 O   0  0  0  0  0  0  0  0  0  0  0  0
    1.2151   -7.2460    4.0919 C   0  0  2  0  0  0  0  0  0  0  0  0
   -0.1120   -6.9719    3.2890 C   0  0  0  0  0  0  0  0  0  0  0  0
    2.1796   -5.8635    4.2142 C   0  0  2  0  0  0  0  0  0  0  0  0
    1.9055   -4.4855    3.2728 C   0  0  1  0  0  0  0  0  0  0  0  0
    1.2027   -3.6050    4.1304 O   0  0  0  0  0  0  0  0  0  0  0  0
    2.9350   -3.5423    2.3123 C   0  0  1  0  0  0  0  0  0  0  0  0
    3.2179   -2.3263    2.9884 O   0  0  0  0  0  0  0  0  0  0  0  0
    4.1540   -3.9266    1.1976 C   0  0  2  0  0  0  0  0  0  0  0  0
    3.7044   -3.6080   -0.2525 C   0  0  0  0  0  0  0  0  0  0  0  0
    4.7310   -5.2799    1.3490 C   0  0  1  0  0  0  0  0  0  0  0  0
    5.2962   -4.8004    2.8545 C   0  0  2  0  0  0  0  0  0  0  0  0
    4.5620   -4.9791    4.2109 C   0  0  0  0  0  0  0  0  0  0  0  0
    3.7010   -6.2572    4.3073 C   0  0  1  0  0  0  0  0  0  0  0  0
    4.1256   -6.9165    5.6487 C   0  0  0  0  0  0  0  0  0  0  0  0
    3.9700   -7.1296    3.0705 C   0  0  2  0  0  0  0  0  0  0  0  0
    3.1425   -6.6023    1.7993 C   0  0  0  0  0  0  0  0  0  0  0  0
    1.9529   -6.5442    1.5237 O   0  0  0  0  0  0  0  0  0  0  0  0
    3.9649   -6.5402    0.7432 C   0  0  2  0  0  0  0  0  0  0  0  0
    4.2251   -7.9908    0.5930 O   0  0  0  0  0  0  0  0  0  0  0  0
    5.7080   -3.4762    2.7976 O   0  0  0  0  0  0  0  0  0  0  0  0
    5.6439   -3.3027    1.4754 C   0  0  1  0  0  0  0  0  0  0  0  0
    5.6330   -1.9175    1.1965 O   0  0  0  0  0  0  0  0  0  0  0  0
    6.6850   -3.8544   -1.1995 H   0  0  0  0  0  0  0  0  0  0  0  0
    8.3955   -3.7105   -0.8171 H   0  0  0  0  0  0  0  0  0  0  0  0
    7.3232   -2.3635   -0.5544 H   0  0  0  0  0  0  0  0  0  0  0  0
    7.8492   -3.4748    1.5901 H   0  0  0  0  0  0  0  0  0  0  0  0
    7.2710   -6.0769    0.0824 H   0  0  0  0  0  0  0  0  0  0  0  0
    9.3534   -6.4431    0.9281 H   0  0  0  0  0  0  0  0  0  0  0  0
    8.3341   -7.3578    2.0545 H   0  0  0  0  0  0  0  0  0  0  0  0
    7.5344   -6.5020    3.1865 H   0  0  0  0  0  0  0  0  0  0  0  0
    4.4734   -9.8193    4.2897 H   0  0  0  0  0  0  0  0  0  0  0  0
    5.8682   -8.8011    4.6800 H   0  0  0  0  0  0  0  0  0  0  0  0
    5.9959  -10.0811    3.5087 H   0  0  0  0  0  0  0  0  0  0  0  0
    4.4488   -9.9319    1.3708 H   0  0  0  0  0  0  0  0  0  0  0  0
    1.7860   -9.0899    1.4744 H   0  0  0  0  0  0  0  0  0  0  0  0
    2.4703  -10.3638    2.3553 H   0  0  0  0  0  0  0  0  0  0  0  0
    2.6049   -8.9080    4.4333 H   0  0  0  0  0  0  0  0  0  0  0  0
   -0.0124   -9.8204    3.3912 H   0  0  0  0  0  0  0  0  0  0  0  0
    1.3962  -11.0544    5.4243 H   0  0  0  0  0  0  0  0  0  0  0  0
   -1.0001   -9.0571    5.2942 H   0  0  0  0  0  0  0  0  0  0  0  0
    0.2754   -9.6129    6.3292 H   0  0  0  0  0  0  0  0  0  0  0  0
   -0.2321   -6.9177    5.7281 H   0  0  0  0  0  0  0  0  0  0  0  0
    2.1095   -8.1880    6.5054 H   0  0  0  0  0  0  0  0  0  0  0  0
   -0.4306   -5.9421    3.4067 H   0  0  0  0  0  0  0  0  0  0  0  0
   -0.9641   -7.5561    3.6290 H   0  0  0  0  0  0  0  0  0  0  0  0
   -0.0816   -7.2303    2.2332 H   0  0  0  0  0  0  0  0  0  0  0  0
    1.9707   -5.4928    5.2172 H   0  0  0  0  0  0  0  0  0  0  0  0
    1.0918   -4.7050    2.5927 H   0  0  0  0  0  0  0  0  0  0  0  0
    1.8406   -3.1600    4.6753 H   0  0  0  0  0  0  0  0  0  0  0  0
    2.1901   -3.1447    1.6256 H   0  0  0  0  0  0  0  0  0  0  0  0
    3.4927   -1.6922    2.3406 H   0  0  0  0  0  0  0  0  0  0  0  0
    4.4539   -3.8835   -0.9918 H   0  0  0  0  0  0  0  0  0  0  0  0
    3.5047   -2.5432   -0.3585 H   0  0  0  0  0  0  0  0  0  0  0  0
    2.7844   -4.1386   -0.5085 H   0  0  0  0  0  0  0  0  0  0  0  0
    5.3757   -5.3552    0.4967 H   0  0  0  0  0  0  0  0  0  0  0  0
    6.2367   -5.1717    3.1415 H   0  0  0  0  0  0  0  0  0  0  0  0
    5.3508   -4.9882    4.9656 H   0  0  0  0  0  0  0  0  0  0  0  0
    4.0207   -4.0988    4.5418 H   0  0  0  0  0  0  0  0  0  0  0  0
    5.2106   -6.9907    5.7323 H   0  0  0  0  0  0  0  0  0  0  0  0
    3.7637   -7.9271    5.7979 H   0  0  0  0  0  0  0  0  0  0  0  0
    3.7966   -6.3144    6.4964 H   0  0  0  0  0  0  0  0  0  0  0  0
    4.9731   -6.8265    3.1489 H   0  0  0  0  0  0  0  0  0  0  0  0
    3.4474   -6.2319   -0.1685 H   0  0  0  0  0  0  0  0  0  0  0  0
    6.4451   -1.5579    1.5248 H   0  0  0  0  0  0  0  0  0  0  0  0
  1  2  1  0
  1 40  1  0
  1 41  1  0
  1 42  1  0
  2 38  1  0
  2  3  1  0
  2 43  1  1
  3  4  1  0
  3  5  1  0
  3 44  1  6
  4 45  1  0
  5  6  1  0
  5 46  1  0
  5 47  1  0
  6  7  2  0
  6  8  1  0
  8 32  1  0
  8  9  1  1
  8 10  1  0
  9 48  1  0
  9 49  1  0
  9 50  1  0
 10 36  1  0
 10 11  1  0
 10 51  1  6
 11 12  1  0
 11 52  1  0
 11 53  1  0
 12 18  1  0
 12 13  1  0
 12 54  1  1
 13 14  1  0
 13 15  1  0
 13 55  1  6
 14 56  1  0
 15 16  1  0
 15 57  1  0
 15 58  1  0
 16 17  1  0
 16 18  1  0
 16 59  1  1
 17 60  1  0
 18 19  1  6
 18 20  1  0
 19 61  1  0
 19 62  1  0
 19 63  1  0
 20 30  1  0
 20 21  1  0
 20 64  1  1
 21 22  1  0
 21 23  1  0
 21 65  1  6
 22 66  1  0
 23 24  1  0
 23 25  1  0
 23 67  1  6
 24 68  1  0
 25 38  1  0
 25 26  1  6
 25 27  1  0
 26 69  1  0
 26 70  1  0
 26 71  1  0
 27 35  1  0
 27 28  1  0
 27 72  1  6
 28 29  1  0
 28 37  1  0
 28 73  1  1
 29 30  1  0
 29 74  1  0
 29 75  1  0
 30 31  1  1
 30 32  1  0
 31 76  1  0
 31 77  1  0
 31 78  1  0
 32 33  1  0
 32 79  1  1
 33 34  2  0
 33 35  1  0
 35 36  1  0
 35 80  1  6
 37 38  1  0
 38 39  1  1
 39 81  1  0
M  END
>  <i_m_ct_stereo_status>  (122) 
1

>  <s_m_source_file>  (122) 
/var/tmp/pbs.5076255.sched01/tmpxjfjwjbi/40jwkb7fqh.sdf

>  <i_m_source_file_index>  (122) 
14

>  <i_lp_mmshare_version>  (122) 
48012

>  <i_f3d_flags>  (122) 
0

>  <s_epik_input>  (122) 
Tz1DMVtDSDJdW0NASF0oW09IXSlbQ0BASF0oW0NIM10pW0NAXShbT0hdKShPW0NASF0yW0NIMl0zKVtDQF0oW0NIM10pKFtDQEhdKFtPSF0pW0NAQEhdNFtPSF0pW0NAQEhdMltDSF0oTzUpQyg9TylbQ0BIXTZbQ0BdMyhbQ0gzXSlbQ0BASF00W0NAXShbQ0gzXSkoW0NASF0oW09IXSlbQ0gyXVtDQEBIXTdbT0hdKVtDQEBIXTdbQ0gyXVtDQEBIXTVbQ0BAXTE2W0NIM10=

>  <s_epik_cmdline>  (122) 
J2VwaWtfcHl0aG9uJywgJy1waHQnLCAnMi4wJywgJy1waCcsICc3LjAnLCAnLXRuJywgJzgnLCAnLW1hJywgJzIwMCcsICctaW1hZScsICc8aW5maWxlLm1hZT4nLCAnLW9tYWUnLCAnPG91dGZpbGUubWFlPic=

>  <r_lp_tautomer_probability>  (122) 
1

>  <r_epik_Ionization_Penalty>  (122) 
2.35268e-06

>  <r_epik_Ionization_Penalty_Charging>  (122) 
0

>  <r_epik_Ionization_Penalty_Neutral>  (122) 
2.35268e-06

>  <r_epik_State_Penalty>  (122) 
-0

>  <r_epik_Charging_Adjusted_Penalty>  (122) 
0

>  <i_epik_Tot_Q>  (122) 
0

>  <i_epik_Tot_abs_Q>  (122) 
0

>  <s_lp_Force_Field>  (122) 
OPLS3e

>  <r_lp_Energy>  (122) 
491.128

>  <b_lp_Chiralities_Consistent>  (122) 
1

>  <s_lp_Variant>  (122) 
40:0-1

>  <s_i_glide_gridfile>  (122) 
pfpi4k_grid

>  <i_i_glide_lignum>  (122) 
14

>  <i_i_glide_rotatable_bonds>  (122) 
6

>  <r_i_docking_score>  (122) 
-4.05604

>  <r_i_glide_ligand_efficiency>  (122) 
-0.104001

>  <r_i_glide_ligand_efficiency_sa>  (122) 
-0.35269

>  <r_i_glide_ligand_efficiency_ln>  (122) 
-0.86973

>  <r_i_glide_gscore>  (122) 
-4.05604

>  <r_i_glide_lipo>  (122) 
-0.544237

>  <r_i_glide_hbond>  (122) 
-0.151875

>  <r_i_glide_metal>  (122) 
-0

>  <r_i_glide_rewards>  (122) 
-0.741046

>  <r_i_glide_evdw>  (122) 
-36.8654

>  <r_i_glide_ecoul>  (122) 
-5.17074

>  <r_i_glide_erotb>  (122) 
0

>  <r_i_glide_esite>  (122) 
0

>  <r_i_glide_emodel>  (122) 
-57.8187

>  <r_i_glide_energy>  (122) 
-42.0362

>  <r_i_glide_einternal>  (122) 
1.76258

>  <r_i_glide_intrahb_reward>  (122) 
-0.5

>  <i_i_glide_confnum>  (122) 
1

>  <i_i_glide_posenum>  (122) 
2

>  <r_i_glide_eff_state_penalty>  (122) 
0

>  <ligand_id>  (122) 
40

>  <original_smiles>  (122) 
CC1C(O)CC(=O)C2(C)C3CC4C(O)CC(O)C4(C)C4C(O)C(O)C5(C)C6C(CC4(C)C2C(=O)C6O3)OC15O

>  <smiles>  (122) 
[H]OC1([H])C([H])([H])C(=O)C2(C([H])([H])[H])C3([H])OC4([H])C(=O)C2([H])C2(C([H])([H])[H])C([H])([H])C5([H])OC(O[H])(C1([H])C([H])([H])[H])C(C([H])([H])[H])(C([H])(O[H])C([H])(O[H])C2([H])C1(C([H])([H])[H])C([H])(O[H])C([H])([H])C([H])(O[H])C1([H])C3([H])[H])C45[H]

$$$$
40:0:2
     RDKit          3D

 81 87  0  0  1  0  0  0  0  0999 V2000
    7.4256   -3.4482   -0.4578 C   0  0  0  0  0  0  0  0  0  0  0  0
    7.1281   -3.9769    0.9724 C   0  0  2  0  0  0  0  0  0  0  0  0
    7.5867   -5.6110    1.0280 C   0  0  1  0  0  0  0  0  0  0  0  0
    9.0061   -5.5649    0.9038 O   0  0  0  0  0  0  0  0  0  0  0  0
    7.3767   -6.8032    2.1435 C   0  0  0  0  0  0  0  0  0  0  0  0
    6.3819   -8.0284    1.9514 C   0  0  0  0  0  0  0  0  0  0  0  0
    6.8056   -8.9168    1.2082 O   0  0  0  0  0  0  0  0  0  0  0  0
    4.9364   -8.3119    2.6812 C   0  0  2  0  0  0  0  0  0  0  0  0
    5.2595   -9.3020    3.8269 C   0  0  0  0  0  0  0  0  0  0  0  0
    4.0006   -8.9676    1.6487 C   0  0  1  0  0  0  0  0  0  0  0  0
    2.4495   -9.2530    2.1827 C   0  0  0  0  0  0  0  0  0  0  0  0
    1.7675   -8.7120    3.5934 C   0  0  2  0  0  0  0  0  0  0  0  0
    0.6430   -9.6683    4.0439 C   0  0  1  0  0  0  0  0  0  0  0  0
    1.1495  -10.9335    4.4079 O   0  0  0  0  0  0  0  0  0  0  0  0
   -0.0186   -9.0315    5.2771 C   0  0  0  0  0  0  0  0  0  0  0  0
    0.4965   -7.5825    5.3778 C   0  0  1  0  0  0  0  0  0  0  0  0
    1.3377   -7.5296    6.5077 O   0  0  0  0  0  0  0  0  0  0  0  0
    1.1525   -7.2252    3.9928 C   0  0  2  0  0  0  0  0  0  0  0  0
   -0.1601   -6.9385    3.1722 C   0  0  0  0  0  0  0  0  0  0  0  0
    2.1237   -5.8512    4.1409 C   0  0  2  0  0  0  0  0  0  0  0  0
    1.8742   -4.4634    3.2060 C   0  0  1  0  0  0  0  0  0  0  0  0
    1.1605   -3.5838    4.0595 O   0  0  0  0  0  0  0  0  0  0  0  0
    2.9233   -3.5206    2.2664 C   0  0  1  0  0  0  0  0  0  0  0  0
    3.2049   -2.3095    2.9562 O   0  0  0  0  0  0  0  0  0  0  0  0
    4.1591   -3.9042    1.1675 C   0  0  2  0  0  0  0  0  0  0  0  0
    3.7346   -3.5735   -0.2878 C   0  0  0  0  0  0  0  0  0  0  0  0
    4.7248   -5.2632    1.3194 C   0  0  1  0  0  0  0  0  0  0  0  0
    5.2698   -4.7973    2.8368 C   0  0  2  0  0  0  0  0  0  0  0  0
    4.5117   -4.9800    4.1806 C   0  0  0  0  0  0  0  0  0  0  0  0
    3.6409   -6.2542    4.2549 C   0  0  1  0  0  0  0  0  0  0  0  0
    4.0386   -6.9249    5.5986 C   0  0  0  0  0  0  0  0  0  0  0  0
    3.9248   -7.1192    3.0151 C   0  0  2  0  0  0  0  0  0  0  0  0
    3.1221   -6.5790    1.7352 C   0  0  0  0  0  0  0  0  0  0  0  0
    1.9372   -6.5060    1.4399 O   0  0  0  0  0  0  0  0  0  0  0  0
    3.9615   -6.5149    0.6922 C   0  0  2  0  0  0  0  0  0  0  0  0
    4.2225   -7.9675    0.5373 O   0  0  0  0  0  0  0  0  0  0  0  0
    5.6906   -3.4754    2.7943 O   0  0  0  0  0  0  0  0  0  0  0  0
    5.6475   -3.2924    1.4727 C   0  0  1  0  0  0  0  0  0  0  0  0
    5.6509   -1.9073    1.2008 O   0  0  0  0  0  0  0  0  0  0  0  0
    6.7304   -3.8512   -1.1955 H   0  0  0  0  0  0  0  0  0  0  0  0
    8.4349   -3.7134   -0.7807 H   0  0  0  0  0  0  0  0  0  0  0  0
    7.3694   -2.3597   -0.5265 H   0  0  0  0  0  0  0  0  0  0  0  0
    7.8499   -3.4779    1.6168 H   0  0  0  0  0  0  0  0  0  0  0  0
    7.2805   -6.0661    0.0825 H   0  0  0  0  0  0  0  0  0  0  0  0
    9.3514   -6.4504    0.9626 H   0  0  0  0  0  0  0  0  0  0  0  0
    8.3051   -7.3684    2.0657 H   0  0  0  0  0  0  0  0  0  0  0  0
    7.4912   -6.5157    3.1908 H   0  0  0  0  0  0  0  0  0  0  0  0
    4.3901   -9.8204    4.2240 H   0  0  0  0  0  0  0  0  0  0  0  0
    5.7839   -8.8146    4.6466 H   0  0  0  0  0  0  0  0  0  0  0  0
    5.9254  -10.0873    3.4690 H   0  0  0  0  0  0  0  0  0  0  0  0
    4.4146   -9.9143    1.3027 H   0  0  0  0  0  0  0  0  0  0  0  0
    1.7536   -9.0520    1.3673 H   0  0  0  0  0  0  0  0  0  0  0  0
    2.4130  -10.3387    2.2551 H   0  0  0  0  0  0  0  0  0  0  0  0
    2.5196   -8.9035    4.3405 H   0  0  0  0  0  0  0  0  0  0  0  0
   -0.0974   -9.7921    3.2492 H   0  0  0  0  0  0  0  0  0  0  0  0
    0.4444  -11.4324    4.7934 H   0  0  0  0  0  0  0  0  0  0  0  0
   -1.1015   -9.0480    5.1515 H   0  0  0  0  0  0  0  0  0  0  0  0
    0.1686   -9.6002    6.1901 H   0  0  0  0  0  0  0  0  0  0  0  0
   -0.3215   -6.8978    5.6099 H   0  0  0  0  0  0  0  0  0  0  0  0
    1.9529   -8.2448    6.4431 H   0  0  0  0  0  0  0  0  0  0  0  0
   -0.4674   -5.9082    3.3017 H   0  0  0  0  0  0  0  0  0  0  0  0
   -1.0224   -7.5182    3.4940 H   0  0  0  0  0  0  0  0  0  0  0  0
   -0.1138   -7.1859    2.1157 H   0  0  0  0  0  0  0  0  0  0  0  0
    1.9023   -5.4870    5.1438 H   0  0  0  0  0  0  0  0  0  0  0  0
    1.0715   -4.6747    2.5122 H   0  0  0  0  0  0  0  0  0  0  0  0
    1.7892   -3.1450    4.6159 H   0  0  0  0  0  0  0  0  0  0  0  0
    2.1911   -3.1118    1.5725 H   0  0  0  0  0  0  0  0  0  0  0  0
    3.4838   -1.6708    2.3154 H   0  0  0  0  0  0  0  0  0  0  0  0
    4.4944   -3.8461   -1.0173 H   0  0  0  0  0  0  0  0  0  0  0  0
    3.5411   -2.5069   -0.3899 H   0  0  0  0  0  0  0  0  0  0  0  0
    2.8167   -4.0984   -0.5619 H   0  0  0  0  0  0  0  0  0  0  0  0
    5.3841   -5.3375    0.4782 H   0  0  0  0  0  0  0  0  0  0  0  0
    6.2045   -5.1755    3.1373 H   0  0  0  0  0  0  0  0  0  0  0  0
    5.2886   -4.9995    4.9466 H   0  0  0  0  0  0  0  0  0  0  0  0
    3.9708   -4.0977    4.5091 H   0  0  0  0  0  0  0  0  0  0  0  0
    5.1223   -7.0064    5.6994 H   0  0  0  0  0  0  0  0  0  0  0  0
    3.6649   -7.9340    5.7334 H   0  0  0  0  0  0  0  0  0  0  0  0
    3.6994   -6.3253    6.4447 H   0  0  0  0  0  0  0  0  0  0  0  0
    4.9285   -6.8224    3.1103 H   0  0  0  0  0  0  0  0  0  0  0  0
    3.4634   -6.2019   -0.2265 H   0  0  0  0  0  0  0  0  0  0  0  0
    6.4573   -1.5532    1.5463 H   0  0  0  0  0  0  0  0  0  0  0  0
  1  2  1  0
  1 40  1  0
  1 41  1  0
  1 42  1  0
  2 38  1  0
  2  3  1  0
  2 43  1  1
  3  4  1  0
  3  5  1  0
  3 44  1  6
  4 45  1  0
  5  6  1  0
  5 46  1  0
  5 47  1  0
  6  7  2  0
  6  8  1  0
  8 32  1  0
  8  9  1  1
  8 10  1  0
  9 48  1  0
  9 49  1  0
  9 50  1  0
 10 36  1  0
 10 11  1  0
 10 51  1  6
 11 12  1  0
 11 52  1  0
 11 53  1  0
 12 18  1  0
 12 13  1  0
 12 54  1  1
 13 14  1  0
 13 15  1  0
 13 55  1  6
 14 56  1  0
 15 16  1  0
 15 57  1  0
 15 58  1  0
 16 17  1  0
 16 18  1  0
 16 59  1  1
 17 60  1  0
 18 19  1  6
 18 20  1  0
 19 61  1  0
 19 62  1  0
 19 63  1  0
 20 30  1  0
 20 21  1  0
 20 64  1  1
 21 22  1  0
 21 23  1  0
 21 65  1  6
 22 66  1  0
 23 24  1  0
 23 25  1  0
 23 67  1  6
 24 68  1  0
 25 38  1  0
 25 26  1  6
 25 27  1  0
 26 69  1  0
 26 70  1  0
 26 71  1  0
 27 35  1  0
 27 28  1  0
 27 72  1  6
 28 29  1  0
 28 37  1  0
 28 73  1  1
 29 30  1  0
 29 74  1  0
 29 75  1  0
 30 31  1  1
 30 32  1  0
 31 76  1  0
 31 77  1  0
 31 78  1  0
 32 33  1  0
 32 79  1  1
 33 34  2  0
 33 35  1  0
 35 36  1  0
 35 80  1  6
 37 38  1  0
 38 39  1  1
 39 81  1  0
M  END
>  <i_m_ct_stereo_status>  (123) 
1

>  <s_m_source_file>  (123) 
/var/tmp/pbs.5076255.sched01/tmpxjfjwjbi/40jwkb7fqh.sdf

>  <i_m_source_file_index>  (123) 
14

>  <i_lp_mmshare_version>  (123) 
48012

>  <i_f3d_flags>  (123) 
0

>  <s_epik_input>  (123) 
Tz1DMVtDSDJdW0NASF0oW09IXSlbQ0BASF0oW0NIM10pW0NAXShbT0hdKShPW0NASF0yW0NIMl0zKVtDQF0oW0NIM10pKFtDQEhdKFtPSF0pW0NAQEhdNFtPSF0pW0NAQEhdMltDSF0oTzUpQyg9TylbQ0BIXTZbQ0BdMyhbQ0gzXSlbQ0BASF00W0NAXShbQ0gzXSkoW0NASF0oW09IXSlbQ0gyXVtDQEBIXTdbT0hdKVtDQEBIXTdbQ0gyXVtDQEBIXTVbQ0BAXTE2W0NIM10=

>  <s_epik_cmdline>  (123) 
J2VwaWtfcHl0aG9uJywgJy1waHQnLCAnMi4wJywgJy1waCcsICc3LjAnLCAnLXRuJywgJzgnLCAnLW1hJywgJzIwMCcsICctaW1hZScsICc8aW5maWxlLm1hZT4nLCAnLW9tYWUnLCAnPG91dGZpbGUubWFlPic=

>  <r_lp_tautomer_probability>  (123) 
1

>  <r_epik_Ionization_Penalty>  (123) 
2.35268e-06

>  <r_epik_Ionization_Penalty_Charging>  (123) 
0

>  <r_epik_Ionization_Penalty_Neutral>  (123) 
2.35268e-06

>  <r_epik_State_Penalty>  (123) 
-0

>  <r_epik_Charging_Adjusted_Penalty>  (123) 
0

>  <i_epik_Tot_Q>  (123) 
0

>  <i_epik_Tot_abs_Q>  (123) 
0

>  <s_lp_Force_Field>  (123) 
OPLS3e

>  <r_lp_Energy>  (123) 
491.128

>  <b_lp_Chiralities_Consistent>  (123) 
1

>  <s_lp_Variant>  (123) 
40:0-1

>  <s_i_glide_gridfile>  (123) 
pfpi4k_grid

>  <i_i_glide_lignum>  (123) 
14

>  <i_i_glide_rotatable_bonds>  (123) 
6

>  <r_i_docking_score>  (123) 
-3.9621

>  <r_i_glide_ligand_efficiency>  (123) 
-0.101592

>  <r_i_glide_ligand_efficiency_sa>  (123) 
-0.344521

>  <r_i_glide_ligand_efficiency_ln>  (123) 
-0.849588

>  <r_i_glide_gscore>  (123) 
-3.9621

>  <r_i_glide_lipo>  (123) 
-0.560462

>  <r_i_glide_hbond>  (123) 
-0.155294

>  <r_i_glide_metal>  (123) 
-0

>  <r_i_glide_rewards>  (123) 
-0.747552

>  <r_i_glide_evdw>  (123) 
-36.8845

>  <r_i_glide_ecoul>  (123) 
-4.36381

>  <r_i_glide_erotb>  (123) 
0

>  <r_i_glide_esite>  (123) 
0

>  <r_i_glide_emodel>  (123) 
-57.1591

>  <r_i_glide_energy>  (123) 
-41.2483

>  <r_i_glide_einternal>  (123) 
1.51735

>  <r_i_glide_intrahb_reward>  (123) 
-0.5

>  <i_i_glide_confnum>  (123) 
2

>  <i_i_glide_posenum>  (123) 
6

>  <r_i_glide_eff_state_penalty>  (123) 
0

>  <ligand_id>  (123) 
40

>  <original_smiles>  (123) 
CC1C(O)CC(=O)C2(C)C3CC4C(O)CC(O)C4(C)C4C(O)C(O)C5(C)C6C(CC4(C)C2C(=O)C6O3)OC15O

>  <smiles>  (123) 
[H]OC1([H])C([H])([H])C(=O)C2(C([H])([H])[H])C3([H])OC4([H])C(=O)C2([H])C2(C([H])([H])[H])C([H])([H])C5([H])OC(O[H])(C1([H])C([H])([H])[H])C(C([H])([H])[H])(C([H])(O[H])C([H])(O[H])C2([H])C1(C([H])([H])[H])C([H])(O[H])C([H])([H])C([H])(O[H])C1([H])C3([H])[H])C45[H]

$$$$
40:1:0
     RDKit          3D

 81 87  0  0  1  0  0  0  0  0999 V2000
    2.1539    0.4519    4.0991 C   0  0  0  0  0  0  0  0  0  0  0  0
    2.9513   -0.8089    4.5198 C   0  0  2  0  0  0  0  0  0  0  0  0
    4.1082   -1.2091    3.2821 C   0  0  1  0  0  0  0  0  0  0  0  0
    5.4074   -1.0081    3.8155 O   0  0  0  0  0  0  0  0  0  0  0  0
    4.2477   -2.3080    1.9817 C   0  0  0  0  0  0  0  0  0  0  0  0
    5.2767   -3.6296    1.8082 C   0  0  0  0  0  0  0  0  0  0  0  0
    6.3788   -3.3985    1.3171 O   0  0  0  0  0  0  0  0  0  0  0  0
    4.9049   -5.2381    2.2467 C   0  0  2  0  0  0  0  0  0  0  0  0
    5.7833   -6.1359    1.3357 C   0  0  0  0  0  0  0  0  0  0  0  0
    3.4582   -5.2407    1.9104 C   0  0  1  0  0  0  0  0  0  0  0  0
    2.8175   -6.5831    1.4406 C   0  0  0  0  0  0  0  0  0  0  0  0
    2.9382   -7.8313    2.3511 C   0  0  2  0  0  0  0  0  0  0  0  0
    2.9738   -9.2150    1.6736 C   0  0  1  0  0  0  0  0  0  0  0  0
    4.1611   -9.4493    0.9415 O   0  0  0  0  0  0  0  0  0  0  0  0
    2.9033  -10.1549    2.8805 C   0  0  0  0  0  0  0  0  0  0  0  0
    1.9714   -9.4540    3.8875 C   0  0  1  0  0  0  0  0  0  0  0  0
    2.3234   -9.7399    5.2213 O   0  0  0  0  0  0  0  0  0  0  0  0
    1.8594   -7.9362    3.4537 C   0  0  2  0  0  0  0  0  0  0  0  0
    0.4406   -7.9409    2.7650 C   0  0  0  0  0  0  0  0  0  0  0  0
    2.0581   -6.7833    4.5826 C   0  0  2  0  0  0  0  0  0  0  0  0
    0.8821   -5.6567    4.5111 C   0  0  1  0  0  0  0  0  0  0  0  0
   -0.3399   -6.2659    4.9036 O   0  0  0  0  0  0  0  0  0  0  0  0
    0.7693   -4.2363    5.2204 C   0  0  1  0  0  0  0  0  0  0  0  0
    0.4829   -4.3322    6.6124 O   0  0  0  0  0  0  0  0  0  0  0  0
    1.7460   -3.1012    4.6895 C   0  0  2  0  0  0  0  0  0  0  0  0
    1.1795   -2.6522    3.2877 C   0  0  0  0  0  0  0  0  0  0  0  0
    3.2282   -3.3635    5.0971 C   0  0  1  0  0  0  0  0  0  0  0  0
    3.3545   -3.7680    6.4570 C   0  0  2  0  0  0  0  0  0  0  0  0
    3.2833   -5.4016    6.3781 C   0  0  0  0  0  0  0  0  0  0  0  0
    3.5891   -6.3499    5.0000 C   0  0  1  0  0  0  0  0  0  0  0  0
    4.2633   -7.5869    5.6534 C   0  0  0  0  0  0  0  0  0  0  0  0
    4.8663   -5.9418    3.8441 C   0  0  2  0  0  0  0  0  0  0  0  0
    5.1485   -4.7535    4.5103 C   0  0  0  0  0  0  0  0  0  0  0  0
    6.0923   -4.4701    5.2516 O   0  0  0  0  0  0  0  0  0  0  0  0
    3.9211   -3.9943    4.1363 C   0  0  1  0  0  0  0  0  0  0  0  0
    3.0014   -4.5858    3.0981 O   0  0  0  0  0  0  0  0  0  0  0  0
    2.4826   -2.5556    6.6799 O   0  0  0  0  0  0  0  0  0  0  0  0
    1.9428   -1.8818    5.4647 C   0  0  1  0  0  0  0  0  0  0  0  0
    0.7067   -1.2588    5.7711 O   0  0  0  0  0  0  0  0  0  0  0  0
    1.4055    0.2419    3.3343 H   0  0  0  0  0  0  0  0  0  0  0  0
    2.8219    1.2184    3.7015 H   0  0  0  0  0  0  0  0  0  0  0  0
    1.6540    0.9240    4.9461 H   0  0  0  0  0  0  0  0  0  0  0  0
    3.5824   -0.3818    5.3016 H   0  0  0  0  0  0  0  0  0  0  0  0
    4.0475   -0.2971    2.6873 H   0  0  0  0  0  0  0  0  0  0  0  0
    6.0184   -0.9068    3.1023 H   0  0  0  0  0  0  0  0  0  0  0  0
    3.2578   -2.6031    1.6583 H   0  0  0  0  0  0  0  0  0  0  0  0
    4.5591   -1.6828    1.1463 H   0  0  0  0  0  0  0  0  0  0  0  0
    5.4511   -7.1703    1.3030 H   0  0  0  0  0  0  0  0  0  0  0  0
    6.8146   -6.1580    1.6904 H   0  0  0  0  0  0  0  0  0  0  0  0
    5.8037   -5.7800    0.3044 H   0  0  0  0  0  0  0  0  0  0  0  0
    3.2314   -4.5907    1.0641 H   0  0  0  0  0  0  0  0  0  0  0  0
    1.7872   -6.3885    1.1606 H   0  0  0  0  0  0  0  0  0  0  0  0
    3.2863   -6.8317    0.4884 H   0  0  0  0  0  0  0  0  0  0  0  0
    3.9098   -7.8313    2.8167 H   0  0  0  0  0  0  0  0  0  0  0  0
    2.1265   -9.3652    1.0063 H   0  0  0  0  0  0  0  0  0  0  0  0
    4.1927  -10.3848    0.7014 H   0  0  0  0  0  0  0  0  0  0  0  0
    2.5446  -11.1453    2.6000 H   0  0  0  0  0  0  0  0  0  0  0  0
    3.8972  -10.2831    3.3126 H   0  0  0  0  0  0  0  0  0  0  0  0
    1.0044   -9.9521    3.7978 H   0  0  0  0  0  0  0  0  0  0  0  0
    2.1491  -10.6564    5.3999 H   0  0  0  0  0  0  0  0  0  0  0  0
   -0.3474   -8.2604    3.4482 H   0  0  0  0  0  0  0  0  0  0  0  0
    0.3756   -8.6598    1.9507 H   0  0  0  0  0  0  0  0  0  0  0  0
    0.1233   -7.0029    2.3184 H   0  0  0  0  0  0  0  0  0  0  0  0
    1.7399   -7.3045    5.4865 H   0  0  0  0  0  0  0  0  0  0  0  0
    0.7660   -5.4165    3.4627 H   0  0  0  0  0  0  0  0  0  0  0  0
   -0.3360   -7.1602    4.5938 H   0  0  0  0  0  0  0  0  0  0  0  0
   -0.2059   -3.8680    4.9056 H   0  0  0  0  0  0  0  0  0  0  0  0
    1.2637   -4.6275    7.0558 H   0  0  0  0  0  0  0  0  0  0  0  0
    1.7141   -1.8962    2.7368 H   0  0  0  0  0  0  0  0  0  0  0  0
    0.1837   -2.2323    3.4188 H   0  0  0  0  0  0  0  0  0  0  0  0
    1.0387   -3.4758    2.5971 H   0  0  0  0  0  0  0  0  0  0  0  0
    3.9872   -2.5873    5.2969 H   0  0  0  0  0  0  0  0  0  0  0  0
    4.3072   -3.5203    6.9367 H   0  0  0  0  0  0  0  0  0  0  0  0
    4.0648   -5.6660    7.0916 H   0  0  0  0  0  0  0  0  0  0  0  0
    2.4214   -5.7840    6.9192 H   0  0  0  0  0  0  0  0  0  0  0  0
    5.2349   -7.3385    6.0859 H   0  0  0  0  0  0  0  0  0  0  0  0
    4.4535   -8.3797    4.9312 H   0  0  0  0  0  0  0  0  0  0  0  0
    3.6678   -8.0022    6.4671 H   0  0  0  0  0  0  0  0  0  0  0  0
    5.7327   -6.5949    3.9677 H   0  0  0  0  0  0  0  0  0  0  0  0
    4.6286   -3.2641    3.8820 H   0  0  0  0  0  0  0  0  0  0  0  0
    0.9082   -0.4619    6.2383 H   0  0  0  0  0  0  0  0  0  0  0  0
  1  2  1  0
  1 40  1  0
  1 41  1  0
  1 42  1  0
  2 38  1  0
  2  3  1  0
  2 43  1  1
  3  4  1  0
  3  5  1  0
  3 44  1  6
  4 45  1  0
  5  6  1  0
  5 46  1  0
  5 47  1  0
  6  7  2  0
  6  8  1  0
  8 32  1  0
  8  9  1  6
  8 10  1  0
  9 48  1  0
  9 49  1  0
  9 50  1  0
 10 36  1  0
 10 11  1  0
 10 51  1  6
 11 12  1  0
 11 52  1  0
 11 53  1  0
 12 18  1  0
 12 13  1  0
 12 54  1  1
 13 14  1  0
 13 15  1  0
 13 55  1  6
 14 56  1  0
 15 16  1  0
 15 57  1  0
 15 58  1  0
 16 17  1  0
 16 18  1  0
 16 59  1  6
 17 60  1  0
 18 19  1  6
 18 20  1  0
 19 61  1  0
 19 62  1  0
 19 63  1  0
 20 30  1  0
 20 21  1  0
 20 64  1  1
 21 22  1  0
 21 23  1  0
 21 65  1  6
 22 66  1  0
 23 24  1  0
 23 25  1  0
 23 67  1  6
 24 68  1  0
 25 38  1  0
 25 26  1  6
 25 27  1  0
 26 69  1  0
 26 70  1  0
 26 71  1  0
 27 35  1  0
 27 28  1  0
 27 72  1  1
 28 29  1  0
 28 37  1  0
 28 73  1  1
 29 30  1  0
 29 74  1  0
 29 75  1  0
 30 31  1  1
 30 32  1  0
 31 76  1  0
 31 77  1  0
 31 78  1  0
 32 33  1  0
 32 79  1  6
 33 34  2  0
 33 35  1  0
 35 36  1  0
 35 80  1  6
 37 38  1  0
 38 39  1  1
 39 81  1  0
M  END
>  <i_m_ct_stereo_status>  (124) 
1

>  <s_m_source_file>  (124) 
/var/tmp/pbs.5076255.sched01/tmpxjfjwjbi/40jwkb7fqh.sdf

>  <i_m_source_file_index>  (124) 
15

>  <i_lp_mmshare_version>  (124) 
48012

>  <i_f3d_flags>  (124) 
0

>  <s_epik_input>  (124) 
Tz1DMVtDSDJdW0NASF0oW09IXSlbQ0BASF0oW0NIM10pW0NAXShbT0hdKShPW0NASF0yW0NIMl0zKVtDQF0oW0NIM10pKFtDQEhdKFtPSF0pW0NAQEhdNFtPSF0pW0NAQEhdMltDSF0oTzUpQyg9TylbQ0BIXTZbQ0BdMyhbQ0gzXSlbQ0BASF00W0NAXShbQ0gzXSkoW0NASF0oW09IXSlbQ0gyXVtDQEBIXTdbT0hdKVtDQEBIXTdbQ0gyXVtDQEBIXTVbQ0BAXTE2W0NIM10=

>  <s_epik_cmdline>  (124) 
J2VwaWtfcHl0aG9uJywgJy1waHQnLCAnMi4wJywgJy1waCcsICc3LjAnLCAnLXRuJywgJzgnLCAnLW1hJywgJzIwMCcsICctaW1hZScsICc8aW5maWxlLm1hZT4nLCAnLW9tYWUnLCAnPG91dGZpbGUubWFlPic=

>  <r_lp_tautomer_probability>  (124) 
1

>  <r_epik_Ionization_Penalty>  (124) 
2.35268e-06

>  <r_epik_Ionization_Penalty_Charging>  (124) 
0

>  <r_epik_Ionization_Penalty_Neutral>  (124) 
2.35268e-06

>  <r_epik_State_Penalty>  (124) 
-0

>  <r_epik_Charging_Adjusted_Penalty>  (124) 
0

>  <i_epik_Tot_Q>  (124) 
0

>  <i_epik_Tot_abs_Q>  (124) 
0

>  <s_lp_Force_Field>  (124) 
OPLS3e

>  <r_lp_Energy>  (124) 
528.986

>  <b_lp_Chiralities_Consistent>  (124) 
1

>  <s_lp_Variant>  (124) 
40:0-2

>  <s_i_glide_gridfile>  (124) 
pfpi4k_grid

>  <i_i_glide_lignum>  (124) 
15

>  <i_i_glide_rotatable_bonds>  (124) 
6

>  <r_i_docking_score>  (124) 
-2.96765

>  <r_i_glide_ligand_efficiency>  (124) 
-0.0760937

>  <r_i_glide_ligand_efficiency_sa>  (124) 
-0.25805

>  <r_i_glide_ligand_efficiency_ln>  (124) 
-0.636349

>  <r_i_glide_gscore>  (124) 
-2.96765

>  <r_i_glide_lipo>  (124) 
-0.19135

>  <r_i_glide_hbond>  (124) 
-0.16

>  <r_i_glide_metal>  (124) 
-0

>  <r_i_glide_rewards>  (124) 
-0.0565931

>  <r_i_glide_evdw>  (124) 
-27.8422

>  <r_i_glide_ecoul>  (124) 
-7.7839

>  <r_i_glide_erotb>  (124) 
0

>  <r_i_glide_esite>  (124) 
-1.52779e-05

>  <r_i_glide_emodel>  (124) 
-42.1149

>  <r_i_glide_energy>  (124) 
-35.6261

>  <r_i_glide_einternal>  (124) 
1.78035

>  <r_i_glide_intrahb_reward>  (124) 
-0

>  <i_i_glide_confnum>  (124) 
1

>  <i_i_glide_posenum>  (124) 
38

>  <r_i_glide_eff_state_penalty>  (124) 
0

>  <ligand_id>  (124) 
40

>  <original_smiles>  (124) 
CC1C(O)CC(=O)C2(C)C3CC4C(O)CC(O)C4(C)C4C(O)C(O)C5(C)C6C(CC4(C)C2C(=O)C6O3)OC15O

>  <smiles>  (124) 
[H]OC1([H])C([H])([H])C(=O)C2(C([H])([H])[H])C3([H])OC4([H])C(=O)C2([H])C2(C([H])([H])[H])C([H])([H])C5([H])OC(O[H])(C1([H])C([H])([H])[H])C(C([H])([H])[H])(C([H])(O[H])C([H])(O[H])C2([H])C1(C([H])([H])[H])C([H])(O[H])C([H])([H])C([H])(O[H])C1([H])C3([H])[H])C45[H]

$$$$
40:1:1
     RDKit          3D

 81 87  0  0  1  0  0  0  0  0999 V2000
    5.1615   -1.9081    0.3338 C   0  0  0  0  0  0  0  0  0  0  0  0
    5.3811   -2.9935    1.4186 C   0  0  2  0  0  0  0  0  0  0  0  0
    5.3395   -4.5750    0.6862 C   0  0  1  0  0  0  0  0  0  0  0  0
    6.6384   -5.1401    0.7836 O   0  0  0  0  0  0  0  0  0  0  0  0
    4.2251   -5.8557    0.4953 C   0  0  0  0  0  0  0  0  0  0  0  0
    4.2511   -7.3992    1.1680 C   0  0  0  0  0  0  0  0  0  0  0  0
    4.8533   -8.2627    0.5355 O   0  0  0  0  0  0  0  0  0  0  0  0
    3.5030   -7.8559    2.6306 C   0  0  2  0  0  0  0  0  0  0  0  0
    3.2166   -9.3739    2.4969 C   0  0  0  0  0  0  0  0  0  0  0  0
    2.3011   -6.9865    2.5517 C   0  0  1  0  0  0  0  0  0  0  0  0
    0.9905   -7.4971    3.2174 C   0  0  0  0  0  0  0  0  0  0  0  0
    1.0237   -7.8863    4.7165 C   0  0  2  0  0  0  0  0  0  0  0  0
    0.0429   -8.9650    5.1839 C   0  0  1  0  0  0  0  0  0  0  0  0
    0.3357  -10.2352    4.6606 O   0  0  0  0  0  0  0  0  0  0  0  0
    0.2367   -8.9454    6.7032 C   0  0  0  0  0  0  0  0  0  0  0  0
    0.4823   -7.4629    7.0480 C   0  0  1  0  0  0  0  0  0  0  0  0
    1.3054   -7.2945    8.1740 O   0  0  0  0  0  0  0  0  0  0  0  0
    0.8287   -6.7155    5.7011 C   0  0  2  0  0  0  0  0  0  0  0  0
   -0.5474   -6.0272    5.3723 C   0  0  0  0  0  0  0  0  0  0  0  0
    2.0945   -5.7098    5.6854 C   0  0  2  0  0  0  0  0  0  0  0  0
    1.7278   -4.2811    4.9943 C   0  0  1  0  0  0  0  0  0  0  0  0
    0.8076   -3.5989    5.8374 O   0  0  0  0  0  0  0  0  0  0  0  0
    2.6735   -3.0944    4.5258 C   0  0  1  0  0  0  0  0  0  0  0  0
    3.1932   -2.3470    5.6168 O   0  0  0  0  0  0  0  0  0  0  0  0
    3.5840   -3.3646    3.2511 C   0  0  2  0  0  0  0  0  0  0  0  0
    2.6162   -3.3253    2.0017 C   0  0  0  0  0  0  0  0  0  0  0  0
    4.7320   -4.3775    3.5584 C   0  0  1  0  0  0  0  0  0  0  0  0
    5.3712   -4.1046    4.7993 C   0  0  2  0  0  0  0  0  0  0  0  0
    4.5536   -5.0142    5.8790 C   0  0  0  0  0  0  0  0  0  0  0  0
    3.5932   -6.3637    5.5140 C   0  0  1  0  0  0  0  0  0  0  0  0
    3.8707   -7.2517    6.7571 C   0  0  0  0  0  0  0  0  0  0  0  0
    4.0392   -7.5316    4.2598 C   0  0  2  0  0  0  0  0  0  0  0  0
    5.1367   -6.7656    3.8727 C   0  0  0  0  0  0  0  0  0  0  0  0
    6.3406   -6.9694    4.0321 O   0  0  0  0  0  0  0  0  0  0  0  0
    4.4000   -5.6368    3.2336 C   0  0  1  0  0  0  0  0  0  0  0  0
    2.9202   -5.7778    2.9996 O   0  0  0  0  0  0  0  0  0  0  0  0
    5.4116   -2.7071    4.2267 O   0  0  0  0  0  0  0  0  0  0  0  0
    4.6981   -2.4809    2.9460 C   0  0  1  0  0  0  0  0  0  0  0  0
    4.2814   -1.1315    2.8796 O   0  0  0  0  0  0  0  0  0  0  0  0
    4.1192   -1.8253    0.0217 H   0  0  0  0  0  0  0  0  0  0  0  0
    5.7557   -2.1215   -0.5562 H   0  0  0  0  0  0  0  0  0  0  0  0
    5.4918   -0.9238    0.6710 H   0  0  0  0  0  0  0  0  0  0  0  0
    6.4466   -2.8531    1.6115 H   0  0  0  0  0  0  0  0  0  0  0  0
    5.3863   -4.2816   -0.3626 H   0  0  0  0  0  0  0  0  0  0  0  0
    6.7477   -5.5435    1.6350 H   0  0  0  0  0  0  0  0  0  0  0  0
    3.2180   -5.4630    0.5711 H   0  0  0  0  0  0  0  0  0  0  0  0
    4.2790   -6.0868   -0.5669 H   0  0  0  0  0  0  0  0  0  0  0  0
    2.4997   -9.7388    3.2268 H   0  0  0  0  0  0  0  0  0  0  0  0
    4.1286   -9.9540    2.6435 H   0  0  0  0  0  0  0  0  0  0  0  0
    2.8275   -9.6292    1.5124 H   0  0  0  0  0  0  0  0  0  0  0  0
    1.9722   -6.8289    1.5242 H   0  0  0  0  0  0  0  0  0  0  0  0
    0.2025   -6.7824    3.0021 H   0  0  0  0  0  0  0  0  0  0  0  0
    0.6797   -8.3834    2.6588 H   0  0  0  0  0  0  0  0  0  0  0  0
    1.9541   -8.3836    4.9363 H   0  0  0  0  0  0  0  0  0  0  0  0
   -0.9879   -8.7458    4.9085 H   0  0  0  0  0  0  0  0  0  0  0  0
   -0.4107  -10.7895    4.8756 H   0  0  0  0  0  0  0  0  0  0  0  0
   -0.6170   -9.3717    7.2296 H   0  0  0  0  0  0  0  0  0  0  0  0
    1.1065   -9.5455    6.9772 H   0  0  0  0  0  0  0  0  0  0  0  0
   -0.4498   -7.0742    7.4515 H   0  0  0  0  0  0  0  0  0  0  0  0
    2.1479   -7.6837    7.9857 H   0  0  0  0  0  0  0  0  0  0  0  0
   -0.8583   -5.3515    6.1685 H   0  0  0  0  0  0  0  0  0  0  0  0
   -1.3712   -6.7296    5.2792 H   0  0  0  0  0  0  0  0  0  0  0  0
   -0.5739   -5.4602    4.4485 H   0  0  0  0  0  0  0  0  0  0  0  0
    2.1300   -5.3843    6.7263 H   0  0  0  0  0  0  0  0  0  0  0  0
    1.1897   -4.5128    4.0862 H   0  0  0  0  0  0  0  0  0  0  0  0
    0.5960   -2.7741    5.4269 H   0  0  0  0  0  0  0  0  0  0  0  0
    1.9886   -2.3352    4.1475 H   0  0  0  0  0  0  0  0  0  0  0  0
    3.6367   -1.5909    5.2593 H   0  0  0  0  0  0  0  0  0  0  0  0
    3.0378   -3.5112    1.0251 H   0  0  0  0  0  0  0  0  0  0  0  0
    2.1795   -2.3298    1.9182 H   0  0  0  0  0  0  0  0  0  0  0  0
    1.7658   -3.9977    2.0867 H   0  0  0  0  0  0  0  0  0  0  0  0
    5.7329   -4.3831    3.0869 H   0  0  0  0  0  0  0  0  0  0  0  0
    6.4157   -4.4234    4.8795 H   0  0  0  0  0  0  0  0  0  0  0  0
    5.3796   -5.4012    6.4748 H   0  0  0  0  0  0  0  0  0  0  0  0
    4.0697   -4.3771    6.6191 H   0  0  0  0  0  0  0  0  0  0  0  0
    4.9064   -7.5978    6.7729 H   0  0  0  0  0  0  0  0  0  0  0  0
    3.2598   -8.1536    6.7575 H   0  0  0  0  0  0  0  0  0  0  0  0
    3.7215   -6.7060    7.6880 H   0  0  0  0  0  0  0  0  0  0  0  0
    4.4210   -8.4559    4.7003 H   0  0  0  0  0  0  0  0  0  0  0  0
    5.0893   -5.8325    2.4706 H   0  0  0  0  0  0  0  0  0  0  0  0
    5.0492   -0.6137    2.6960 H   0  0  0  0  0  0  0  0  0  0  0  0
  1  2  1  0
  1 40  1  0
  1 41  1  0
  1 42  1  0
  2 38  1  0
  2  3  1  0
  2 43  1  1
  3  4  1  0
  3  5  1  0
  3 44  1  6
  4 45  1  0
  5  6  1  0
  5 46  1  0
  5 47  1  0
  6  7  2  0
  6  8  1  0
  8 32  1  0
  8  9  1  6
  8 10  1  0
  9 48  1  0
  9 49  1  0
  9 50  1  0
 10 36  1  0
 10 11  1  0
 10 51  1  6
 11 12  1  0
 11 52  1  0
 11 53  1  0
 12 18  1  0
 12 13  1  0
 12 54  1  1
 13 14  1  0
 13 15  1  0
 13 55  1  1
 14 56  1  0
 15 16  1  0
 15 57  1  0
 15 58  1  0
 16 17  1  0
 16 18  1  0
 16 59  1  1
 17 60  1  0
 18 19  1  6
 18 20  1  0
 19 61  1  0
 19 62  1  0
 19 63  1  0
 20 30  1  0
 20 21  1  0
 20 64  1  1
 21 22  1  0
 21 23  1  0
 21 65  1  6
 22 66  1  0
 23 24  1  0
 23 25  1  0
 23 67  1  6
 24 68  1  0
 25 38  1  0
 25 26  1  6
 25 27  1  0
 26 69  1  0
 26 70  1  0
 26 71  1  0
 27 35  1  0
 27 28  1  0
 27 72  1  6
 28 29  1  0
 28 37  1  0
 28 73  1  6
 29 30  1  0
 29 74  1  0
 29 75  1  0
 30 31  1  1
 30 32  1  0
 31 76  1  0
 31 77  1  0
 31 78  1  0
 32 33  1  0
 32 79  1  1
 33 34  2  0
 33 35  1  0
 35 36  1  0
 35 80  1  6
 37 38  1  0
 38 39  1  6
 39 81  1  0
M  END
>  <i_m_ct_stereo_status>  (125) 
1

>  <s_m_source_file>  (125) 
/var/tmp/pbs.5076255.sched01/tmpxjfjwjbi/40jwkb7fqh.sdf

>  <i_m_source_file_index>  (125) 
15

>  <i_lp_mmshare_version>  (125) 
48012

>  <i_f3d_flags>  (125) 
0

>  <s_epik_input>  (125) 
Tz1DMVtDSDJdW0NASF0oW09IXSlbQ0BASF0oW0NIM10pW0NAXShbT0hdKShPW0NASF0yW0NIMl0zKVtDQF0oW0NIM10pKFtDQEhdKFtPSF0pW0NAQEhdNFtPSF0pW0NAQEhdMltDSF0oTzUpQyg9TylbQ0BIXTZbQ0BdMyhbQ0gzXSlbQ0BASF00W0NAXShbQ0gzXSkoW0NASF0oW09IXSlbQ0gyXVtDQEBIXTdbT0hdKVtDQEBIXTdbQ0gyXVtDQEBIXTVbQ0BAXTE2W0NIM10=

>  <s_epik_cmdline>  (125) 
J2VwaWtfcHl0aG9uJywgJy1waHQnLCAnMi4wJywgJy1waCcsICc3LjAnLCAnLXRuJywgJzgnLCAnLW1hJywgJzIwMCcsICctaW1hZScsICc8aW5maWxlLm1hZT4nLCAnLW9tYWUnLCAnPG91dGZpbGUubWFlPic=

>  <r_lp_tautomer_probability>  (125) 
1

>  <r_epik_Ionization_Penalty>  (125) 
2.35268e-06

>  <r_epik_Ionization_Penalty_Charging>  (125) 
0

>  <r_epik_Ionization_Penalty_Neutral>  (125) 
2.35268e-06

>  <r_epik_State_Penalty>  (125) 
-0

>  <r_epik_Charging_Adjusted_Penalty>  (125) 
0

>  <i_epik_Tot_Q>  (125) 
0

>  <i_epik_Tot_abs_Q>  (125) 
0

>  <s_lp_Force_Field>  (125) 
OPLS3e

>  <r_lp_Energy>  (125) 
528.986

>  <b_lp_Chiralities_Consistent>  (125) 
1

>  <s_lp_Variant>  (125) 
40:0-2

>  <s_i_glide_gridfile>  (125) 
pfpi4k_grid

>  <i_i_glide_lignum>  (125) 
15

>  <i_i_glide_rotatable_bonds>  (125) 
6

>  <r_i_docking_score>  (125) 
-2.75137

>  <r_i_glide_ligand_efficiency>  (125) 
-0.070548

>  <r_i_glide_ligand_efficiency_sa>  (125) 
-0.239243

>  <r_i_glide_ligand_efficiency_ln>  (125) 
-0.589972

>  <r_i_glide_gscore>  (125) 
-2.75137

>  <r_i_glide_lipo>  (125) 
-0.26686

>  <r_i_glide_hbond>  (125) 
-0.16

>  <r_i_glide_metal>  (125) 
-0

>  <r_i_glide_rewards>  (125) 
-0.185739

>  <r_i_glide_evdw>  (125) 
-27.564

>  <r_i_glide_ecoul>  (125) 
-5.07049

>  <r_i_glide_erotb>  (125) 
0

>  <r_i_glide_esite>  (125) 
0

>  <r_i_glide_emodel>  (125) 
-38.8519

>  <r_i_glide_energy>  (125) 
-32.6345

>  <r_i_glide_einternal>  (125) 
1.1669

>  <r_i_glide_intrahb_reward>  (125) 
-0

>  <i_i_glide_confnum>  (125) 
2

>  <i_i_glide_posenum>  (125) 
1

>  <r_i_glide_eff_state_penalty>  (125) 
0

>  <ligand_id>  (125) 
40

>  <original_smiles>  (125) 
CC1C(O)CC(=O)C2(C)C3CC4C(O)CC(O)C4(C)C4C(O)C(O)C5(C)C6C(CC4(C)C2C(=O)C6O3)OC15O

>  <smiles>  (125) 
[H]OC1([H])C([H])([H])C(=O)C2(C([H])([H])[H])C3([H])OC4([H])C(=O)C2([H])C2(C([H])([H])[H])C([H])([H])C5([H])OC(O[H])(C1([H])C([H])([H])[H])C(C([H])([H])[H])(C([H])(O[H])C([H])(O[H])C2([H])C1(C([H])([H])[H])C([H])(O[H])C([H])([H])C([H])(O[H])C1([H])C3([H])[H])C45[H]

$$$$
40:1:2
     RDKit          3D

 81 87  0  0  1  0  0  0  0  0999 V2000
    2.3653    0.3957    3.8134 C   0  0  0  0  0  0  0  0  0  0  0  0
    3.0613   -0.8879    4.3338 C   0  0  2  0  0  0  0  0  0  0  0  0
    3.9537   -1.6362    3.0371 C   0  0  1  0  0  0  0  0  0  0  0  0
    5.3340   -1.5475    3.3434 O   0  0  0  0  0  0  0  0  0  0  0  0
    3.7517   -2.9244    1.9322 C   0  0  0  0  0  0  0  0  0  0  0  0
    4.5729   -4.3912    1.8467 C   0  0  0  0  0  0  0  0  0  0  0  0
    5.6199   -4.3975    1.1955 O   0  0  0  0  0  0  0  0  0  0  0  0
    4.0816   -5.8455    2.5920 C   0  0  2  0  0  0  0  0  0  0  0  0
    4.6904   -6.9832    1.7369 C   0  0  0  0  0  0  0  0  0  0  0  0
    2.6090   -5.6897    2.4631 C   0  0  1  0  0  0  0  0  0  0  0  0
    1.7449   -6.9803    2.3219 C   0  0  0  0  0  0  0  0  0  0  0  0
    1.8531   -8.0789    3.4106 C   0  0  2  0  0  0  0  0  0  0  0  0
    1.6068   -9.5310    2.9789 C   0  0  1  0  0  0  0  0  0  0  0  0
    2.6480   -9.9940    2.1519 O   0  0  0  0  0  0  0  0  0  0  0  0
    1.6205  -10.2673    4.3220 C   0  0  0  0  0  0  0  0  0  0  0  0
    0.9592   -9.3014    5.3199 C   0  0  1  0  0  0  0  0  0  0  0  0
    1.4945   -9.4556    6.6171 O   0  0  0  0  0  0  0  0  0  0  0  0
    0.9644   -7.8644    4.6519 C   0  0  2  0  0  0  0  0  0  0  0  0
   -0.5316   -7.7623    4.1722 C   0  0  0  0  0  0  0  0  0  0  0  0
    1.4790   -6.5961    5.5253 C   0  0  2  0  0  0  0  0  0  0  0  0
    0.4525   -5.3348    5.4162 C   0  0  1  0  0  0  0  0  0  0  0  0
   -0.7470   -5.6939    6.0813 O   0  0  0  0  0  0  0  0  0  0  0  0
    0.6223   -3.8288    5.8932 C   0  0  1  0  0  0  0  0  0  0  0  0
    0.5468   -3.7004    7.3104 O   0  0  0  0  0  0  0  0  0  0  0  0
    1.6289   -2.9279    5.0540 C   0  0  2  0  0  0  0  0  0  0  0  0
    0.9094   -2.6178    3.6829 C   0  0  0  0  0  0  0  0  0  0  0  0
    3.1140   -3.3406    5.2901 C   0  0  1  0  0  0  0  0  0  0  0  0
    3.4095   -3.5538    6.6671 C   0  0  2  0  0  0  0  0  0  0  0  0
    3.1310   -5.1529    6.8762 C   0  0  0  0  0  0  0  0  0  0  0  0
    3.0983   -6.3307    5.6501 C   0  0  1  0  0  0  0  0  0  0  0  0
    3.7154   -7.5374    6.4052 C   0  0  0  0  0  0  0  0  0  0  0  0
    4.2132   -6.2899    4.2760 C   0  0  2  0  0  0  0  0  0  0  0  0
    4.7360   -5.0614    4.6767 C   0  0  0  0  0  0  0  0  0  0  0  0
    5.8323   -4.7878    5.1606 O   0  0  0  0  0  0  0  0  0  0  0  0
    3.5538   -4.2065    4.3607 C   0  0  1  0  0  0  0  0  0  0  0  0
    2.4216   -4.8040    3.5706 O   0  0  0  0  0  0  0  0  0  0  0  0
    2.7274   -2.2145    6.8044 O   0  0  0  0  0  0  0  0  0  0  0  0
    2.0936   -1.6494    5.5789 C   0  0  1  0  0  0  0  0  0  0  0  0
    1.0075   -0.8176    5.9417 O   0  0  0  0  0  0  0  0  0  0  0  0
    1.4839    0.1851    3.2061 H   0  0  0  0  0  0  0  0  0  0  0  0
    3.0517    0.9878    3.2048 H   0  0  0  0  0  0  0  0  0  0  0  0
    2.0687    1.0542    4.6309 H   0  0  0  0  0  0  0  0  0  0  0  0
    3.8563   -0.4416    4.9336 H   0  0  0  0  0  0  0  0  0  0  0  0
    3.9142   -0.8242    2.3103 H   0  0  0  0  0  0  0  0  0  0  0  0
    5.5640   -2.2315    3.9593 H   0  0  0  0  0  0  0  0  0  0  0  0
    2.6931   -3.1112    1.7974 H   0  0  0  0  0  0  0  0  0  0  0  0
    4.0083   -2.4783    0.9733 H   0  0  0  0  0  0  0  0  0  0  0  0
    4.2371   -7.9500    1.9308 H   0  0  0  0  0  0  0  0  0  0  0  0
    5.7546   -7.0938    1.9452 H   0  0  0  0  0  0  0  0  0  0  0  0
    4.5833   -6.7869    0.6698 H   0  0  0  0  0  0  0  0  0  0  0  0
    2.3348   -5.1442    1.5596 H   0  0  0  0  0  0  0  0  0  0  0  0
    0.7158   -6.6786    2.1609 H   0  0  0  0  0  0  0  0  0  0  0  0
    2.0203   -7.4378    1.3705 H   0  0  0  0  0  0  0  0  0  0  0  0
    2.8814   -8.1589    3.7272 H   0  0  0  0  0  0  0  0  0  0  0  0
    0.6558   -9.6618    2.4620 H   0  0  0  0  0  0  0  0  0  0  0  0
    2.5192  -10.9173    1.9752 H   0  0  0  0  0  0  0  0  0  0  0  0
    1.1119  -11.2298    4.2745 H   0  0  0  0  0  0  0  0  0  0  0  0
    2.6496  -10.4637    4.6261 H   0  0  0  0  0  0  0  0  0  0  0  0
   -0.0634   -9.6612    5.4450 H   0  0  0  0  0  0  0  0  0  0  0  0
    1.4147  -10.3701    6.8751 H   0  0  0  0  0  0  0  0  0  0  0  0
   -1.2227   -7.8399    5.0105 H   0  0  0  0  0  0  0  0  0  0  0  0
   -0.8187   -8.5832    3.5184 H   0  0  0  0  0  0  0  0  0  0  0  0
   -0.7967   -6.8635    3.6230 H   0  0  0  0  0  0  0  0  0  0  0  0
    1.2501   -6.9277    6.5382 H   0  0  0  0  0  0  0  0  0  0  0  0
    0.2000   -5.2353    4.3690 H   0  0  0  0  0  0  0  0  0  0  0  0
   -0.5547   -5.7673    7.0023 H   0  0  0  0  0  0  0  0  0  0  0  0
   -0.3360   -3.3716    5.6538 H   0  0  0  0  0  0  0  0  0  0  0  0
    1.3895   -3.9309    7.6776 H   0  0  0  0  0  0  0  0  0  0  0  0
    1.4376   -2.0353    2.9445 H   0  0  0  0  0  0  0  0  0  0  0  0
    0.0021   -2.0485    3.8771 H   0  0  0  0  0  0  0  0  0  0  0  0
    0.5740   -3.5087    3.1637 H   0  0  0  0  0  0  0  0  0  0  0  0
    3.9847   -2.6612    5.2465 H   0  0  0  0  0  0  0  0  0  0  0  0
    4.4527   -3.3785    6.9534 H   0  0  0  0  0  0  0  0  0  0  0  0
    3.9839   -5.4137    7.5028 H   0  0  0  0  0  0  0  0  0  0  0  0
    2.3266   -5.3247    7.5884 H   0  0  0  0  0  0  0  0  0  0  0  0
    4.7653   -7.3639    6.6479 H   0  0  0  0  0  0  0  0  0  0  0  0
    3.6906   -8.4465    5.8064 H   0  0  0  0  0  0  0  0  0  0  0  0
    3.2088   -7.7297    7.3507 H   0  0  0  0  0  0  0  0  0  0  0  0
    5.0038   -7.0358    4.3895 H   0  0  0  0  0  0  0  0  0  0  0  0
    4.2960   -3.6377    3.8914 H   0  0  0  0  0  0  0  0  0  0  0  0
    1.3764   -0.0109    6.2720 H   0  0  0  0  0  0  0  0  0  0  0  0
  1  2  1  0
  1 40  1  0
  1 41  1  0
  1 42  1  0
  2 38  1  0
  2  3  1  0
  2 43  1  1
  3  4  1  0
  3  5  1  0
  3 44  1  6
  4 45  1  0
  5  6  1  0
  5 46  1  0
  5 47  1  0
  6  7  2  0
  6  8  1  0
  8 32  1  0
  8  9  1  6
  8 10  1  0
  9 48  1  0
  9 49  1  0
  9 50  1  0
 10 36  1  0
 10 11  1  0
 10 51  1  6
 11 12  1  0
 11 52  1  0
 11 53  1  0
 12 18  1  0
 12 13  1  0
 12 54  1  1
 13 14  1  0
 13 15  1  0
 13 55  1  6
 14 56  1  0
 15 16  1  0
 15 57  1  0
 15 58  1  0
 16 17  1  0
 16 18  1  0
 16 59  1  1
 17 60  1  0
 18 19  1  6
 18 20  1  0
 19 61  1  0
 19 62  1  0
 19 63  1  0
 20 30  1  0
 20 21  1  0
 20 64  1  1
 21 22  1  0
 21 23  1  0
 21 65  1  6
 22 66  1  0
 23 24  1  0
 23 25  1  0
 23 67  1  6
 24 68  1  0
 25 38  1  0
 25 26  1  6
 25 27  1  0
 26 69  1  0
 26 70  1  0
 26 71  1  0
 27 35  1  0
 27 28  1  0
 27 72  1  6
 28 29  1  0
 28 37  1  0
 28 73  1  6
 29 30  1  0
 29 74  1  0
 29 75  1  0
 30 31  1  1
 30 32  1  0
 31 76  1  0
 31 77  1  0
 31 78  1  0
 32 33  1  0
 32 79  1  6
 33 34  2  0
 33 35  1  0
 35 36  1  0
 35 80  1  6
 37 38  1  0
 38 39  1  1
 39 81  1  0
M  END
>  <i_m_ct_stereo_status>  (126) 
1

>  <s_m_source_file>  (126) 
/var/tmp/pbs.5076255.sched01/tmpxjfjwjbi/40jwkb7fqh.sdf

>  <i_m_source_file_index>  (126) 
15

>  <i_lp_mmshare_version>  (126) 
48012

>  <i_f3d_flags>  (126) 
0

>  <s_epik_input>  (126) 
Tz1DMVtDSDJdW0NASF0oW09IXSlbQ0BASF0oW0NIM10pW0NAXShbT0hdKShPW0NASF0yW0NIMl0zKVtDQF0oW0NIM10pKFtDQEhdKFtPSF0pW0NAQEhdNFtPSF0pW0NAQEhdMltDSF0oTzUpQyg9TylbQ0BIXTZbQ0BdMyhbQ0gzXSlbQ0BASF00W0NAXShbQ0gzXSkoW0NASF0oW09IXSlbQ0gyXVtDQEBIXTdbT0hdKVtDQEBIXTdbQ0gyXVtDQEBIXTVbQ0BAXTE2W0NIM10=

>  <s_epik_cmdline>  (126) 
J2VwaWtfcHl0aG9uJywgJy1waHQnLCAnMi4wJywgJy1waCcsICc3LjAnLCAnLXRuJywgJzgnLCAnLW1hJywgJzIwMCcsICctaW1hZScsICc8aW5maWxlLm1hZT4nLCAnLW9tYWUnLCAnPG91dGZpbGUubWFlPic=

>  <r_lp_tautomer_probability>  (126) 
1

>  <r_epik_Ionization_Penalty>  (126) 
2.35268e-06

>  <r_epik_Ionization_Penalty_Charging>  (126) 
0

>  <r_epik_Ionization_Penalty_Neutral>  (126) 
2.35268e-06

>  <r_epik_State_Penalty>  (126) 
-0

>  <r_epik_Charging_Adjusted_Penalty>  (126) 
0

>  <i_epik_Tot_Q>  (126) 
0

>  <i_epik_Tot_abs_Q>  (126) 
0

>  <s_lp_Force_Field>  (126) 
OPLS3e

>  <r_lp_Energy>  (126) 
528.986

>  <b_lp_Chiralities_Consistent>  (126) 
1

>  <s_lp_Variant>  (126) 
40:0-2

>  <s_i_glide_gridfile>  (126) 
pfpi4k_grid

>  <i_i_glide_lignum>  (126) 
15

>  <i_i_glide_rotatable_bonds>  (126) 
6

>  <r_i_docking_score>  (126) 
-2.50903

>  <r_i_glide_ligand_efficiency>  (126) 
-0.064334

>  <r_i_glide_ligand_efficiency_sa>  (126) 
-0.21817

>  <r_i_glide_ligand_efficiency_ln>  (126) 
-0.538006

>  <r_i_glide_gscore>  (126) 
-2.50903

>  <r_i_glide_lipo>  (126) 
-0.1297

>  <r_i_glide_hbond>  (126) 
-0.127492

>  <r_i_glide_metal>  (126) 
-0

>  <r_i_glide_rewards>  (126) 
-0.0260046

>  <r_i_glide_evdw>  (126) 
-27.6175

>  <r_i_glide_ecoul>  (126) 
-5.63301

>  <r_i_glide_erotb>  (126) 
0

>  <r_i_glide_esite>  (126) 
-5.60292e-06

>  <r_i_glide_emodel>  (126) 
-39.057

>  <r_i_glide_energy>  (126) 
-33.2505

>  <r_i_glide_einternal>  (126) 
0.747748

>  <r_i_glide_intrahb_reward>  (126) 
-0

>  <i_i_glide_confnum>  (126) 
1

>  <i_i_glide_posenum>  (126) 
3

>  <r_i_glide_eff_state_penalty>  (126) 
0

>  <ligand_id>  (126) 
40

>  <original_smiles>  (126) 
CC1C(O)CC(=O)C2(C)C3CC4C(O)CC(O)C4(C)C4C(O)C(O)C5(C)C6C(CC4(C)C2C(=O)C6O3)OC15O

>  <smiles>  (126) 
[H]OC1([H])C([H])([H])C(=O)C2(C([H])([H])[H])C3([H])OC4([H])C(=O)C2([H])C2(C([H])([H])[H])C([H])([H])C5([H])OC(O[H])(C1([H])C([H])([H])[H])C(C([H])([H])[H])(C([H])(O[H])C([H])(O[H])C2([H])C1(C([H])([H])[H])C([H])(O[H])C([H])([H])C([H])(O[H])C1([H])C3([H])[H])C45[H]

$$$$
41:0:0
     RDKit          3D

 66 72  0  0  1  0  0  0  0  0999 V2000
    7.1571   -7.4549    1.6056 C   0  0  0  0  0  0  0  0  0  0  0  0
    5.8365   -6.7224    1.2927 C   0  0  2  0  0  0  0  0  0  0  0  0
    6.0684   -5.1813    1.3339 C   0  0  2  0  0  0  0  0  0  0  0  0
    5.9358   -4.7889    2.6740 O   0  0  0  0  0  0  0  0  0  0  0  0
    4.7130   -5.0250    3.3354 C   0  0  1  0  0  0  0  0  0  0  0  0
    4.1710   -3.7154    3.9614 C   0  0  2  0  0  0  0  0  0  0  0  0
    5.2702   -3.0800    4.8618 C   0  0  0  0  0  0  0  0  0  0  0  0
    3.1069   -4.1440    5.0533 C   0  0  1  0  0  0  0  0  0  0  0  0
    2.3296   -3.1005    5.6105 O   0  0  0  0  0  0  0  0  0  0  0  0
    2.2897   -5.4090    4.8151 C   0  0  1  0  0  0  0  0  0  0  0  0
    1.5524   -5.5380    3.6249 O   0  0  0  0  0  0  0  0  0  0  0  0
    2.6704   -6.4380    3.7671 C   0  0  2  0  0  0  0  0  0  0  0  0
    2.3057   -7.8982    3.9885 C   0  0  0  0  0  0  0  0  0  0  0  0
    3.7812   -6.1257    2.7378 C   0  0  1  0  0  0  0  0  0  0  0  0
    3.0865   -5.7579    1.5739 O   0  0  0  0  0  0  0  0  0  0  0  0
    4.7179   -7.2550    2.2499 C   0  0  1  0  0  0  0  0  0  0  0  0
    4.0305   -8.2825    1.5509 O   0  0  0  0  0  0  0  0  0  0  0  0
    3.7734   -2.6057    2.8913 C   0  0  2  0  0  0  0  0  0  0  0  0
    2.3802   -2.7785    2.2828 C   0  0  0  0  0  0  0  0  0  0  0  0
    1.3819   -2.6214    2.9570 O   0  0  0  0  0  0  0  0  0  0  0  0
    2.2111   -3.0525    0.7785 C   0  0  0  0  0  0  0  0  0  0  0  0
    3.3017   -2.7942   -0.2343 C   0  0  1  0  0  0  0  0  0  0  0  0
    3.0173   -1.5965   -0.9322 O   0  0  0  0  0  0  0  0  0  0  0  0
    4.6876   -2.8830    0.4005 C   0  0  1  0  0  0  0  0  0  0  0  0
    5.3189   -4.3131    0.2699 C   0  0  1  0  0  0  0  0  0  0  0  0
    6.3424   -3.8050   -0.6155 O   0  0  0  0  0  0  0  0  0  0  0  0
    5.9004   -2.4496   -0.4106 C   0  0  1  0  0  0  0  0  0  0  0  0
    5.7975   -1.7698   -1.7705 C   0  0  0  0  0  0  0  0  0  0  0  0
    6.8621   -1.7433    0.5219 C   0  0  0  0  0  0  0  0  0  0  0  0
    6.2311   -1.8604    1.9182 C   0  0  0  0  0  0  0  0  0  0  0  0
    4.7207   -2.0582    1.7284 C   0  0  2  0  0  0  0  0  0  0  0  0
    4.2757   -0.5731    1.5338 C   0  0  0  0  0  0  0  0  0  0  0  0
    7.5140   -7.2136    2.6098 H   0  0  0  0  0  0  0  0  0  0  0  0
    7.9493   -7.1775    0.9096 H   0  0  0  0  0  0  0  0  0  0  0  0
    7.0379   -8.5364    1.5509 H   0  0  0  0  0  0  0  0  0  0  0  0
    5.5532   -6.9583    0.2696 H   0  0  0  0  0  0  0  0  0  0  0  0
    7.1317   -5.0306    1.1443 H   0  0  0  0  0  0  0  0  0  0  0  0
    5.1153   -5.5453    4.2025 H   0  0  0  0  0  0  0  0  0  0  0  0
    4.9188   -2.1735    5.3554 H   0  0  0  0  0  0  0  0  0  0  0  0
    6.1574   -2.8072    4.3217 H   0  0  0  0  0  0  0  0  0  0  0  0
    5.6289   -3.7501    5.6430 H   0  0  0  0  0  0  0  0  0  0  0  0
    3.6705   -4.4590    5.9291 H   0  0  0  0  0  0  0  0  0  0  0  0
    2.9055   -2.4110    5.8999 H   0  0  0  0  0  0  0  0  0  0  0  0
    1.7659   -5.7781    5.6985 H   0  0  0  0  0  0  0  0  0  0  0  0
    3.1724   -8.4537    4.3404 H   0  0  0  0  0  0  0  0  0  0  0  0
    1.9218   -8.3541    3.0758 H   0  0  0  0  0  0  0  0  0  0  0  0
    1.5303   -7.9743    4.7519 H   0  0  0  0  0  0  0  0  0  0  0  0
    3.7260   -5.4225    0.9734 H   0  0  0  0  0  0  0  0  0  0  0  0
    5.1732   -7.7030    3.1331 H   0  0  0  0  0  0  0  0  0  0  0  0
    3.5674   -7.8960    0.8263 H   0  0  0  0  0  0  0  0  0  0  0  0
    3.6094   -1.7398    3.5387 H   0  0  0  0  0  0  0  0  0  0  0  0
    1.8299   -4.0561    0.6260 H   0  0  0  0  0  0  0  0  0  0  0  0
    1.4240   -2.3509    0.5208 H   0  0  0  0  0  0  0  0  0  0  0  0
    3.1751   -3.5461   -1.0110 H   0  0  0  0  0  0  0  0  0  0  0  0
    2.0510   -1.4528   -0.9800 H   0  0  0  0  0  0  0  0  0  0  0  0
    4.6518   -4.9184   -0.3297 H   0  0  0  0  0  0  0  0  0  0  0  0
    5.4402   -0.7412   -1.6698 H   0  0  0  0  0  0  0  0  0  0  0  0
    5.1115   -2.2774   -2.4455 H   0  0  0  0  0  0  0  0  0  0  0  0
    6.7648   -1.7695   -2.2665 H   0  0  0  0  0  0  0  0  0  0  0  0
    7.8727   -2.1554    0.4743 H   0  0  0  0  0  0  0  0  0  0  0  0
    6.9425   -0.6879    0.2715 H   0  0  0  0  0  0  0  0  0  0  0  0
    6.6461   -2.7579    2.3067 H   0  0  0  0  0  0  0  0  0  0  0  0
    6.5161   -1.0256    2.5634 H   0  0  0  0  0  0  0  0  0  0  0  0
    4.7607   -0.0951    0.6856 H   0  0  0  0  0  0  0  0  0  0  0  0
    4.5316    0.0141    2.4175 H   0  0  0  0  0  0  0  0  0  0  0  0
    3.2059   -0.4393    1.3902 H   0  0  0  0  0  0  0  0  0  0  0  0
  1  2  1  0
  1 33  1  0
  1 34  1  0
  1 35  1  0
  2 16  1  0
  2  3  1  0
  2 36  1  6
  3 25  1  0
  3  4  1  0
  3 37  1  6
  4  5  1  0
  5 14  1  0
  5  6  1  0
  5 38  1  1
  6  7  1  1
  6  8  1  0
  6 18  1  0
  7 39  1  0
  7 40  1  0
  7 41  1  0
  8  9  1  0
  8 10  1  0
  8 42  1  1
  9 43  1  0
 10 12  1  0
 10 11  1  0
 10 44  1  1
 11 12  1  0
 12 13  1  1
 12 14  1  0
 13 45  1  0
 13 46  1  0
 13 47  1  0
 14 15  1  6
 14 16  1  0
 15 48  1  0
 16 17  1  0
 16 49  1  1
 17 50  1  0
 18 31  1  0
 18 19  1  0
 18 51  1  1
 19 20  2  0
 19 21  1  0
 21 22  1  0
 21 52  1  0
 21 53  1  0
 22 23  1  0
 22 24  1  0
 22 54  1  6
 23 55  1  0
 24 27  1  6
 24 31  1  0
 24 25  1  0
 25 26  1  0
 25 56  1  6
 26 27  1  0
 27 28  1  6
 27 29  1  0
 28 57  1  0
 28 58  1  0
 28 59  1  0
 29 30  1  0
 29 60  1  0
 29 61  1  0
 30 31  1  0
 30 62  1  0
 30 63  1  0
 31 32  1  6
 32 64  1  0
 32 65  1  0
 32 66  1  0
M  END
>  <i_m_ct_stereo_status>  (127) 
1

>  <s_m_source_file>  (127) 
/var/tmp/pbs.5076255.sched01/tmpxjfjwjbi/40jwkb7fqh.sdf

>  <i_m_source_file_index>  (127) 
16

>  <i_lp_mmshare_version>  (127) 
48012

>  <i_f3d_flags>  (127) 
0

>  <s_epik_input>  (127) 
W0NAQF0xMjNbQ0BASF00W0NAQEhdNVtDQEBIXShbQ0gzXSlbQ0BIXShbT0hdKVtDQF02KFtPSF0pW0NAQEhdKE81KVtDQF0oW0NIM10pKFtDQEBIXShbT0hdKVtDQEBIXTdbQ0BdNihPNylbQ0gzXSlbQ0BIXShDKD1PKVtDSDJdW0NASF0xW09IXSlbQ0BAXTMoW0NIM10pW0NIMl1bQ0gyXVtDQF0yKE80KVtDSDNd

>  <s_epik_cmdline>  (127) 
J2VwaWtfcHl0aG9uJywgJy1waHQnLCAnMi4wJywgJy1waCcsICc3LjAnLCAnLXRuJywgJzgnLCAnLW1hJywgJzIwMCcsICctaW1hZScsICc8aW5maWxlLm1hZT4nLCAnLW9tYWUnLCAnPG91dGZpbGUubWFlPic=

>  <r_lp_tautomer_probability>  (127) 
1

>  <r_epik_Ionization_Penalty>  (127) 
4.34262e-07

>  <r_epik_Ionization_Penalty_Charging>  (127) 
0

>  <r_epik_Ionization_Penalty_Neutral>  (127) 
4.34262e-07

>  <r_epik_State_Penalty>  (127) 
-0

>  <r_epik_Charging_Adjusted_Penalty>  (127) 
0

>  <i_epik_Tot_Q>  (127) 
0

>  <i_epik_Tot_abs_Q>  (127) 
0

>  <s_lp_Force_Field>  (127) 
OPLS3e

>  <r_lp_Energy>  (127) 
102.364

>  <b_lp_Chiralities_Consistent>  (127) 
1

>  <s_lp_Variant>  (127) 
41:0-1

>  <s_i_glide_gridfile>  (127) 
pfpi4k_grid

>  <i_i_glide_lignum>  (127) 
16

>  <i_i_glide_rotatable_bonds>  (127) 
4

>  <r_i_docking_score>  (127) 
-2.80387

>  <r_i_glide_ligand_efficiency>  (127) 
-0.087621

>  <r_i_glide_ligand_efficiency_sa>  (127) 
-0.278179

>  <r_i_glide_ligand_efficiency_ln>  (127) 
-0.627863

>  <r_i_glide_gscore>  (127) 
-2.80387

>  <r_i_glide_lipo>  (127) 
-0.59369

>  <r_i_glide_hbond>  (127) 
-0.11033

>  <r_i_glide_metal>  (127) 
-0

>  <r_i_glide_rewards>  (127) 
-0.33735

>  <r_i_glide_evdw>  (127) 
-10.4617

>  <r_i_glide_ecoul>  (127) 
-8.20604

>  <r_i_glide_erotb>  (127) 
0

>  <r_i_glide_esite>  (127) 
-0.0085102

>  <r_i_glide_emodel>  (127) 
-20.5635

>  <r_i_glide_energy>  (127) 
-18.6677

>  <r_i_glide_einternal>  (127) 
1.07165

>  <r_i_glide_intrahb_reward>  (127) 
-0

>  <i_i_glide_confnum>  (127) 
1

>  <i_i_glide_posenum>  (127) 
1

>  <r_i_glide_eff_state_penalty>  (127) 
0

>  <ligand_id>  (127) 
41

>  <original_smiles>  (127) 
CC1C2OC3C(C)(C(O)C4OC4(C)C3(O)C1O)C1C(=O)CC(O)C34C2OC3(C)CCC14C

>  <smiles>  (127) 
[H]OC1([H])C([H])(C([H])([H])[H])C2([H])OC3([H])C1(O[H])C1(C([H])([H])[H])OC1([H])C([H])(O[H])C3(C([H])([H])[H])C1([H])C(=O)C([H])([H])C([H])(O[H])C34C2([H])OC3(C([H])([H])[H])C([H])([H])C([H])([H])C14C([H])([H])[H]

$$$$
41:0:1
     RDKit          3D

 66 72  0  0  1  0  0  0  0  0999 V2000
    6.9688   -7.5378    1.7713 C   0  0  0  0  0  0  0  0  0  0  0  0
    5.6721   -6.7739    1.4271 C   0  0  2  0  0  0  0  0  0  0  0  0
    5.9475   -5.2364    1.4197 C   0  0  2  0  0  0  0  0  0  0  0  0
    5.8305   -4.7900    2.7452 O   0  0  0  0  0  0  0  0  0  0  0  0
    4.6147   -4.9751    3.4292 C   0  0  1  0  0  0  0  0  0  0  0  0
    4.1101   -3.6229    4.0070 C   0  0  2  0  0  0  0  0  0  0  0  0
    5.2365   -2.9962    4.8811 C   0  0  0  0  0  0  0  0  0  0  0  0
    3.0335   -3.9815    5.1021 C   0  0  1  0  0  0  0  0  0  0  0  0
    2.2831   -2.8974    5.6285 O   0  0  0  0  0  0  0  0  0  0  0  0
    2.1631   -5.2239    4.9253 C   0  0  1  0  0  0  0  0  0  0  0  0
    1.4124   -5.3678    3.7360 O   0  0  0  0  0  0  0  0  0  0  0  0
    2.5123   -6.2995    3.8888 C   0  0  2  0  0  0  0  0  0  0  0  0
    2.0981   -7.7367    4.1703 C   0  0  0  0  0  0  0  0  0  0  0  0
    3.6331   -6.0440    2.8652 C   0  0  1  0  0  0  0  0  0  0  0  0
    2.9461   -5.6545    1.7078 O   0  0  0  0  0  0  0  0  0  0  0  0
    4.5301   -7.2325    2.3992 C   0  0  1  0  0  0  0  0  0  0  0  0
    3.7928   -8.2441    1.7374 O   0  0  0  0  0  0  0  0  0  0  0  0
    3.7447   -2.5438    2.8893 C   0  0  2  0  0  0  0  0  0  0  0  0
    2.3362   -2.6813    2.2956 C   0  0  0  0  0  0  0  0  0  0  0  0
    1.3409   -2.4821    2.9763 O   0  0  0  0  0  0  0  0  0  0  0  0
    2.1511   -2.9771    0.7990 C   0  0  0  0  0  0  0  0  0  0  0  0
    3.2513   -2.7936   -0.2218 C   0  0  1  0  0  0  0  0  0  0  0  0
    3.0164   -1.6142   -0.9493 O   0  0  0  0  0  0  0  0  0  0  0  0
    4.6448   -2.9205    0.4177 C   0  0  1  0  0  0  0  0  0  0  0  0
    5.2206   -4.3794    0.3237 C   0  0  1  0  0  0  0  0  0  0  0  0
    6.2570   -3.9328   -0.5822 O   0  0  0  0  0  0  0  0  0  0  0  0
    5.8753   -2.5534   -0.4155 C   0  0  1  0  0  0  0  0  0  0  0  0
    5.8009   -1.9068   -1.7989 C   0  0  0  0  0  0  0  0  0  0  0  0
    6.8668   -1.8550    0.5013 C   0  0  0  0  0  0  0  0  0  0  0  0
    6.2355   -1.9076    1.9026 C   0  0  0  0  0  0  0  0  0  0  0  0
    4.7117   -2.0577    1.7165 C   0  0  2  0  0  0  0  0  0  0  0  0
    4.3191   -0.5660    1.4751 C   0  0  0  0  0  0  0  0  0  0  0  0
    7.3313   -7.2738    2.7659 H   0  0  0  0  0  0  0  0  0  0  0  0
    7.7669   -7.3084    1.0659 H   0  0  0  0  0  0  0  0  0  0  0  0
    6.8172   -8.6163    1.7510 H   0  0  0  0  0  0  0  0  0  0  0  0
    5.4044   -7.0524    0.4099 H   0  0  0  0  0  0  0  0  0  0  0  0
    7.0128   -5.1171    1.2242 H   0  0  0  0  0  0  0  0  0  0  0  0
    5.0025   -5.4838    4.3105 H   0  0  0  0  0  0  0  0  0  0  0  0
    4.9159   -2.0595    5.3454 H   0  0  0  0  0  0  0  0  0  0  0  0
    6.1327   -2.7706    4.3370 H   0  0  0  0  0  0  0  0  0  0  0  0
    5.5717   -3.6491    5.6870 H   0  0  0  0  0  0  0  0  0  0  0  0
    3.5820   -4.2849    5.9966 H   0  0  0  0  0  0  0  0  0  0  0  0
    2.8821   -2.2635    6.0008 H   0  0  0  0  0  0  0  0  0  0  0  0
    1.6406   -5.5444    5.8105 H   0  0  0  0  0  0  0  0  0  0  0  0
    2.9507   -8.3057    4.5418 H   0  0  0  0  0  0  0  0  0  0  0  0
    1.7017   -8.2155    3.2746 H   0  0  0  0  0  0  0  0  0  0  0  0
    1.3230   -7.7669    4.9349 H   0  0  0  0  0  0  0  0  0  0  0  0
    3.5955   -5.4806    1.0425 H   0  0  0  0  0  0  0  0  0  0  0  0
    4.9659   -7.6708    3.2996 H   0  0  0  0  0  0  0  0  0  0  0  0
    4.3461   -9.0128    1.6273 H   0  0  0  0  0  0  0  0  0  0  0  0
    3.6118   -1.6522    3.5058 H   0  0  0  0  0  0  0  0  0  0  0  0
    1.7822   -3.9858    0.6773 H   0  0  0  0  0  0  0  0  0  0  0  0
    1.3835   -2.2676    0.5265 H   0  0  0  0  0  0  0  0  0  0  0  0
    3.1048   -3.5680   -0.9764 H   0  0  0  0  0  0  0  0  0  0  0  0
    2.0634   -1.4521   -1.0099 H   0  0  0  0  0  0  0  0  0  0  0  0
    4.5367   -4.9943   -0.2514 H   0  0  0  0  0  0  0  0  0  0  0  0
    5.4614   -0.8716   -1.7271 H   0  0  0  0  0  0  0  0  0  0  0  0
    5.1043   -2.4219   -2.4562 H   0  0  0  0  0  0  0  0  0  0  0  0
    6.7694   -1.9191   -2.2936 H   0  0  0  0  0  0  0  0  0  0  0  0
    7.8600   -2.2989    0.4597 H   0  0  0  0  0  0  0  0  0  0  0  0
    6.9818   -0.8113    0.2162 H   0  0  0  0  0  0  0  0  0  0  0  0
    6.6331   -2.7953    2.3343 H   0  0  0  0  0  0  0  0  0  0  0  0
    6.5461   -1.0612    2.5164 H   0  0  0  0  0  0  0  0  0  0  0  0
    4.8150   -0.1289    0.6097 H   0  0  0  0  0  0  0  0  0  0  0  0
    4.5941    0.0452    2.3357 H   0  0  0  0  0  0  0  0  0  0  0  0
    3.2541   -0.4013    1.3282 H   0  0  0  0  0  0  0  0  0  0  0  0
  1  2  1  0
  1 33  1  0
  1 34  1  0
  1 35  1  0
  2 16  1  0
  2  3  1  0
  2 36  1  6
  3 25  1  0
  3  4  1  0
  3 37  1  6
  4  5  1  0
  5 14  1  0
  5  6  1  0
  5 38  1  1
  6  7  1  1
  6  8  1  0
  6 18  1  0
  7 39  1  0
  7 40  1  0
  7 41  1  0
  8  9  1  0
  8 10  1  0
  8 42  1  1
  9 43  1  0
 10 12  1  0
 10 11  1  0
 10 44  1  1
 11 12  1  0
 12 13  1  1
 12 14  1  0
 13 45  1  0
 13 46  1  0
 13 47  1  0
 14 15  1  6
 14 16  1  0
 15 48  1  0
 16 17  1  0
 16 49  1  1
 17 50  1  0
 18 31  1  0
 18 19  1  0
 18 51  1  1
 19 20  2  0
 19 21  1  0
 21 22  1  0
 21 52  1  0
 21 53  1  0
 22 23  1  0
 22 24  1  0
 22 54  1  6
 23 55  1  0
 24 27  1  6
 24 31  1  0
 24 25  1  0
 25 26  1  0
 25 56  1  6
 26 27  1  0
 27 28  1  6
 27 29  1  0
 28 57  1  0
 28 58  1  0
 28 59  1  0
 29 30  1  0
 29 60  1  0
 29 61  1  0
 30 31  1  0
 30 62  1  0
 30 63  1  0
 31 32  1  6
 32 64  1  0
 32 65  1  0
 32 66  1  0
M  END
>  <i_m_ct_stereo_status>  (128) 
1

>  <s_m_source_file>  (128) 
/var/tmp/pbs.5076255.sched01/tmpxjfjwjbi/40jwkb7fqh.sdf

>  <i_m_source_file_index>  (128) 
16

>  <i_lp_mmshare_version>  (128) 
48012

>  <i_f3d_flags>  (128) 
0

>  <s_epik_input>  (128) 
W0NAQF0xMjNbQ0BASF00W0NAQEhdNVtDQEBIXShbQ0gzXSlbQ0BIXShbT0hdKVtDQF02KFtPSF0pW0NAQEhdKE81KVtDQF0oW0NIM10pKFtDQEBIXShbT0hdKVtDQEBIXTdbQ0BdNihPNylbQ0gzXSlbQ0BIXShDKD1PKVtDSDJdW0NASF0xW09IXSlbQ0BAXTMoW0NIM10pW0NIMl1bQ0gyXVtDQF0yKE80KVtDSDNd

>  <s_epik_cmdline>  (128) 
J2VwaWtfcHl0aG9uJywgJy1waHQnLCAnMi4wJywgJy1waCcsICc3LjAnLCAnLXRuJywgJzgnLCAnLW1hJywgJzIwMCcsICctaW1hZScsICc8aW5maWxlLm1hZT4nLCAnLW9tYWUnLCAnPG91dGZpbGUubWFlPic=

>  <r_lp_tautomer_probability>  (128) 
1

>  <r_epik_Ionization_Penalty>  (128) 
4.34262e-07

>  <r_epik_Ionization_Penalty_Charging>  (128) 
0

>  <r_epik_Ionization_Penalty_Neutral>  (128) 
4.34262e-07

>  <r_epik_State_Penalty>  (128) 
-0

>  <r_epik_Charging_Adjusted_Penalty>  (128) 
0

>  <i_epik_Tot_Q>  (128) 
0

>  <i_epik_Tot_abs_Q>  (128) 
0

>  <s_lp_Force_Field>  (128) 
OPLS3e

>  <r_lp_Energy>  (128) 
102.364

>  <b_lp_Chiralities_Consistent>  (128) 
1

>  <s_lp_Variant>  (128) 
41:0-1

>  <s_i_glide_gridfile>  (128) 
pfpi4k_grid

>  <i_i_glide_lignum>  (128) 
16

>  <i_i_glide_rotatable_bonds>  (128) 
4

>  <r_i_docking_score>  (128) 
-2.69785

>  <r_i_glide_ligand_efficiency>  (128) 
-0.0843078

>  <r_i_glide_ligand_efficiency_sa>  (128) 
-0.267661

>  <r_i_glide_ligand_efficiency_ln>  (128) 
-0.604122

>  <r_i_glide_gscore>  (128) 
-2.69785

>  <r_i_glide_lipo>  (128) 
-0.590112

>  <r_i_glide_hbond>  (128) 
-0.11631

>  <r_i_glide_metal>  (128) 
-0

>  <r_i_glide_rewards>  (128) 
-0.33735

>  <r_i_glide_evdw>  (128) 
-8.14041

>  <r_i_glide_ecoul>  (128) 
-8.25136

>  <r_i_glide_erotb>  (128) 
0

>  <r_i_glide_esite>  (128) 
-0.00935283

>  <r_i_glide_emodel>  (128) 
-17.9038

>  <r_i_glide_energy>  (128) 
-16.3918

>  <r_i_glide_einternal>  (128) 
1.45367

>  <r_i_glide_intrahb_reward>  (128) 
-0

>  <i_i_glide_confnum>  (128) 
1

>  <i_i_glide_posenum>  (128) 
30

>  <r_i_glide_eff_state_penalty>  (128) 
0

>  <ligand_id>  (128) 
41

>  <original_smiles>  (128) 
CC1C2OC3C(C)(C(O)C4OC4(C)C3(O)C1O)C1C(=O)CC(O)C34C2OC3(C)CCC14C

>  <smiles>  (128) 
[H]OC1([H])C([H])(C([H])([H])[H])C2([H])OC3([H])C1(O[H])C1(C([H])([H])[H])OC1([H])C([H])(O[H])C3(C([H])([H])[H])C1([H])C(=O)C([H])([H])C([H])(O[H])C34C2([H])OC3(C([H])([H])[H])C([H])([H])C([H])([H])C14C([H])([H])[H]

$$$$
41:0:2
     RDKit          3D

 66 72  0  0  1  0  0  0  0  0999 V2000
    7.2843   -6.9312    3.0439 C   0  0  0  0  0  0  0  0  0  0  0  0
    6.0020   -6.3787    2.3913 C   0  0  2  0  0  0  0  0  0  0  0  0
    6.1506   -4.8458    2.1502 C   0  0  2  0  0  0  0  0  0  0  0  0
    5.8123   -4.2071    3.3524 O   0  0  0  0  0  0  0  0  0  0  0  0
    4.5092   -4.3952    3.8699 C   0  0  1  0  0  0  0  0  0  0  0  0
    3.8213   -3.0230    4.1287 C   0  0  2  0  0  0  0  0  0  0  0  0
    4.7511   -2.1506    5.0203 C   0  0  0  0  0  0  0  0  0  0  0  0
    2.6201   -3.3153    5.1201 C   0  0  1  0  0  0  0  0  0  0  0  0
    1.7192   -2.2478    5.3647 O   0  0  0  0  0  0  0  0  0  0  0  0
    1.8956   -4.6548    5.0397 C   0  0  1  0  0  0  0  0  0  0  0  0
    1.3549   -5.0677    3.8061 O   0  0  0  0  0  0  0  0  0  0  0  0
    2.4809   -5.8393    4.2838 C   0  0  2  0  0  0  0  0  0  0  0  0
    2.1457   -7.2483    4.7415 C   0  0  0  0  0  0  0  0  0  0  0  0
    3.7225   -5.6470    3.3887 C   0  0  1  0  0  0  0  0  0  0  0  0
    3.1836   -5.5351    2.0958 O   0  0  0  0  0  0  0  0  0  0  0  0
    4.7725   -6.7846    3.2747 C   0  0  1  0  0  0  0  0  0  0  0  0
    4.2543   -7.9775    2.7200 O   0  0  0  0  0  0  0  0  0  0  0  0
    3.5435   -2.1929    2.7996 C   0  0  2  0  0  0  0  0  0  0  0  0
    2.2539   -2.5333    2.0661 C   0  0  0  0  0  0  0  0  0  0  0  0
    1.1765   -2.2264    2.5990 O   0  0  0  0  0  0  0  0  0  0  0  0
    2.2539   -3.1404    0.6385 C   0  0  0  0  0  0  0  0  0  0  0  0
    3.5167   -2.9824   -0.2313 C   0  0  1  0  0  0  0  0  0  0  0  0
    3.3371   -1.9099   -1.1476 O   0  0  0  0  0  0  0  0  0  0  0  0
    4.8207   -2.8734    0.5896 C   0  0  1  0  0  0  0  0  0  0  0  0
    5.5256   -4.2567    0.8389 C   0  0  1  0  0  0  0  0  0  0  0  0
    6.6644   -3.8560    0.0346 O   0  0  0  0  0  0  0  0  0  0  0  0
    6.1353   -2.5204   -0.1171 C   0  0  1  0  0  0  0  0  0  0  0  0
    6.2317   -2.1324   -1.5901 C   0  0  0  0  0  0  0  0  0  0  0  0
    6.9223   -1.5792    0.7688 C   0  0  0  0  0  0  0  0  0  0  0  0
    6.1183   -1.4690    2.0764 C   0  0  0  0  0  0  0  0  0  0  0  0
    4.6474   -1.8112    1.7101 C   0  0  2  0  0  0  0  0  0  0  0  0
    4.1692   -0.4229    1.1630 C   0  0  0  0  0  0  0  0  0  0  0  0
    7.4638   -6.4662    4.0196 H   0  0  0  0  0  0  0  0  0  0  0  0
    8.1616   -6.7415    2.4236 H   0  0  0  0  0  0  0  0  0  0  0  0
    7.2189   -8.0100    3.1940 H   0  0  0  0  0  0  0  0  0  0  0  0
    5.9259   -6.8538    1.4080 H   0  0  0  0  0  0  0  0  0  0  0  0
    7.2261   -4.6683    2.0833 H   0  0  0  0  0  0  0  0  0  0  0  0
    4.7779   -4.7023    4.8771 H   0  0  0  0  0  0  0  0  0  0  0  0
    4.2740   -1.1972    5.2639 H   0  0  0  0  0  0  0  0  0  0  0  0
    5.7067   -1.9202    4.5784 H   0  0  0  0  0  0  0  0  0  0  0  0
    4.9942   -2.6332    5.9654 H   0  0  0  0  0  0  0  0  0  0  0  0
    3.0547   -3.4101    6.1120 H   0  0  0  0  0  0  0  0  0  0  0  0
    2.2152   -1.4520    5.4954 H   0  0  0  0  0  0  0  0  0  0  0  0
    1.2586   -4.8789    5.8848 H   0  0  0  0  0  0  0  0  0  0  0  0
    2.9667   -7.6681    5.3216 H   0  0  0  0  0  0  0  0  0  0  0  0
    1.9152   -7.8941    3.8937 H   0  0  0  0  0  0  0  0  0  0  0  0
    1.2691   -7.2311    5.3838 H   0  0  0  0  0  0  0  0  0  0  0  0
    3.9121   -5.4557    1.5046 H   0  0  0  0  0  0  0  0  0  0  0  0
    5.1115   -7.0082    4.2878 H   0  0  0  0  0  0  0  0  0  0  0  0
    3.6155   -8.3477    3.3092 H   0  0  0  0  0  0  0  0  0  0  0  0
    3.2680   -1.2258    3.2375 H   0  0  0  0  0  0  0  0  0  0  0  0
    1.9511   -4.1799    0.6468 H   0  0  0  0  0  0  0  0  0  0  0  0
    1.4417   -2.6512    0.1042 H   0  0  0  0  0  0  0  0  0  0  0  0
    3.5629   -3.8577   -0.8747 H   0  0  0  0  0  0  0  0  0  0  0  0
    2.4262   -1.6176   -1.1168 H   0  0  0  0  0  0  0  0  0  0  0  0
    4.9983   -5.0089    0.2836 H   0  0  0  0  0  0  0  0  0  0  0  0
    5.8169   -1.1346   -1.7489 H   0  0  0  0  0  0  0  0  0  0  0  0
    5.6891   -2.8186   -2.2362 H   0  0  0  0  0  0  0  0  0  0  0  0
    7.2697   -2.1259   -1.9319 H   0  0  0  0  0  0  0  0  0  0  0  0
    7.9522   -1.9277    0.8887 H   0  0  0  0  0  0  0  0  0  0  0  0
    6.9828   -0.5853    0.3254 H   0  0  0  0  0  0  0  0  0  0  0  0
    6.5484   -2.2085    2.7219 H   0  0  0  0  0  0  0  0  0  0  0  0
    6.2415   -0.4946    2.5613 H   0  0  0  0  0  0  0  0  0  0  0  0
    4.7567   -0.0888    0.3069 H   0  0  0  0  0  0  0  0  0  0  0  0
    4.2508    0.3437    1.9380 H   0  0  0  0  0  0  0  0  0  0  0  0
    3.1256   -0.3980    0.8424 H   0  0  0  0  0  0  0  0  0  0  0  0
  1  2  1  0
  1 33  1  0
  1 34  1  0
  1 35  1  0
  2 16  1  0
  2  3  1  0
  2 36  1  6
  3 25  1  0
  3  4  1  0
  3 37  1  6
  4  5  1  0
  5 14  1  0
  5  6  1  0
  5 38  1  1
  6  7  1  1
  6  8  1  0
  6 18  1  0
  7 39  1  0
  7 40  1  0
  7 41  1  0
  8  9  1  0
  8 10  1  0
  8 42  1  1
  9 43  1  0
 10 12  1  0
 10 11  1  0
 10 44  1  1
 11 12  1  0
 12 13  1  1
 12 14  1  0
 13 45  1  0
 13 46  1  0
 13 47  1  0
 14 15  1  6
 14 16  1  0
 15 48  1  0
 16 17  1  0
 16 49  1  1
 17 50  1  0
 18 31  1  0
 18 19  1  0
 18 51  1  1
 19 20  2  0
 19 21  1  0
 21 22  1  0
 21 52  1  0
 21 53  1  0
 22 23  1  0
 22 24  1  0
 22 54  1  6
 23 55  1  0
 24 27  1  6
 24 31  1  0
 24 25  1  0
 25 26  1  0
 25 56  1  6
 26 27  1  0
 27 28  1  6
 27 29  1  0
 28 57  1  0
 28 58  1  0
 28 59  1  0
 29 30  1  0
 29 60  1  0
 29 61  1  0
 30 31  1  0
 30 62  1  0
 30 63  1  0
 31 32  1  6
 32 64  1  0
 32 65  1  0
 32 66  1  0
M  END
>  <i_m_ct_stereo_status>  (129) 
1

>  <s_m_source_file>  (129) 
/var/tmp/pbs.5076255.sched01/tmpxjfjwjbi/40jwkb7fqh.sdf

>  <i_m_source_file_index>  (129) 
16

>  <i_lp_mmshare_version>  (129) 
48012

>  <i_f3d_flags>  (129) 
0

>  <s_epik_input>  (129) 
W0NAQF0xMjNbQ0BASF00W0NAQEhdNVtDQEBIXShbQ0gzXSlbQ0BIXShbT0hdKVtDQF02KFtPSF0pW0NAQEhdKE81KVtDQF0oW0NIM10pKFtDQEBIXShbT0hdKVtDQEBIXTdbQ0BdNihPNylbQ0gzXSlbQ0BIXShDKD1PKVtDSDJdW0NASF0xW09IXSlbQ0BAXTMoW0NIM10pW0NIMl1bQ0gyXVtDQF0yKE80KVtDSDNd

>  <s_epik_cmdline>  (129) 
J2VwaWtfcHl0aG9uJywgJy1waHQnLCAnMi4wJywgJy1waCcsICc3LjAnLCAnLXRuJywgJzgnLCAnLW1hJywgJzIwMCcsICctaW1hZScsICc8aW5maWxlLm1hZT4nLCAnLW9tYWUnLCAnPG91dGZpbGUubWFlPic=

>  <r_lp_tautomer_probability>  (129) 
1

>  <r_epik_Ionization_Penalty>  (129) 
4.34262e-07

>  <r_epik_Ionization_Penalty_Charging>  (129) 
0

>  <r_epik_Ionization_Penalty_Neutral>  (129) 
4.34262e-07

>  <r_epik_State_Penalty>  (129) 
-0

>  <r_epik_Charging_Adjusted_Penalty>  (129) 
0

>  <i_epik_Tot_Q>  (129) 
0

>  <i_epik_Tot_abs_Q>  (129) 
0

>  <s_lp_Force_Field>  (129) 
OPLS3e

>  <r_lp_Energy>  (129) 
102.364

>  <b_lp_Chiralities_Consistent>  (129) 
1

>  <s_lp_Variant>  (129) 
41:0-1

>  <s_i_glide_gridfile>  (129) 
pfpi4k_grid

>  <i_i_glide_lignum>  (129) 
16

>  <i_i_glide_rotatable_bonds>  (129) 
4

>  <r_i_docking_score>  (129) 
-1.91078

>  <r_i_glide_ligand_efficiency>  (129) 
-0.059712

>  <r_i_glide_ligand_efficiency_sa>  (129) 
-0.189574

>  <r_i_glide_ligand_efficiency_ln>  (129) 
-0.427877

>  <r_i_glide_gscore>  (129) 
-1.91078

>  <r_i_glide_lipo>  (129) 
-0.470688

>  <r_i_glide_hbond>  (129) 
-0.16

>  <r_i_glide_metal>  (129) 
-0

>  <r_i_glide_rewards>  (129) 
-0.33735

>  <r_i_glide_evdw>  (129) 
-14.5638

>  <r_i_glide_ecoul>  (129) 
-1.30496

>  <r_i_glide_erotb>  (129) 
0

>  <r_i_glide_esite>  (129) 
-0.0188108

>  <r_i_glide_emodel>  (129) 
-16.4646

>  <r_i_glide_energy>  (129) 
-15.8688

>  <r_i_glide_einternal>  (129) 
2.18106

>  <r_i_glide_intrahb_reward>  (129) 
-0

>  <i_i_glide_confnum>  (129) 
2

>  <i_i_glide_posenum>  (129) 
27

>  <r_i_glide_eff_state_penalty>  (129) 
0

>  <ligand_id>  (129) 
41

>  <original_smiles>  (129) 
CC1C2OC3C(C)(C(O)C4OC4(C)C3(O)C1O)C1C(=O)CC(O)C34C2OC3(C)CCC14C

>  <smiles>  (129) 
[H]OC1([H])C([H])(C([H])([H])[H])C2([H])OC3([H])C1(O[H])C1(C([H])([H])[H])OC1([H])C([H])(O[H])C3(C([H])([H])[H])C1([H])C(=O)C([H])([H])C([H])(O[H])C34C2([H])OC3(C([H])([H])[H])C([H])([H])C([H])([H])C14C([H])([H])[H]

$$$$
42:0:0
     RDKit          3D

 56 61  0  0  1  0  0  0  0  0999 V2000
    3.9750   -2.2821    3.4931 C   0  0  0  0  0  0  0  0  0  0  0  0
    4.5021   -3.4503    2.6076 C   0  0  1  0  0  0  0  0  0  0  0  0
    5.8129   -2.9715    1.8928 C   0  0  1  0  0  0  0  0  0  0  0  0
    6.7213   -4.0564    1.2468 C   0  0  0  0  0  0  0  0  0  0  0  0
    6.4668   -5.5037    1.6988 C   0  0  0  0  0  0  0  0  0  0  0  0
    5.1305   -5.7404    2.4285 C   0  0  1  0  0  0  0  0  0  0  0  0
    4.9162   -4.6696    3.4802 C   0  0  2  0  0  0  0  0  0  0  0  0
    3.9093   -5.2308    4.5168 C   0  0  0  0  0  0  0  0  0  0  0  0
    2.6537   -5.9748    3.9858 C   0  0  0  0  0  0  0  0  0  0  0  0
    2.7687   -6.4661    2.4934 C   0  0  0  0  0  0  0  0  0  0  0  0
    3.1322   -7.8170    2.5023 O   0  0  0  0  0  0  0  0  0  0  0  0
    1.9348   -8.5461    2.7065 C   0  0  0  0  0  0  0  0  0  0  0  0
    0.9032   -7.6703    2.0011 C   0  0  0  0  0  0  0  0  0  0  0  0
    1.5099   -6.3973    1.8925 O   0  0  0  0  0  0  0  0  0  0  0  0
    3.8042   -5.6208    1.6288 C   0  0  2  0  0  0  0  0  0  0  0  0
    3.9121   -6.2569    0.2239 C   0  0  0  0  0  0  0  0  0  0  0  0
    3.4418   -4.0613    1.6333 C   0  0  1  0  0  0  0  0  0  0  0  0
    2.1742   -3.8173    2.2047 O   0  0  0  0  0  0  0  0  0  0  0  0
    3.1831   -3.3359    0.2648 C   0  0  0  0  0  0  0  0  0  0  0  0
    4.3735   -2.9590   -0.6329 C   0  0  1  0  0  0  0  0  0  0  0  0
    3.9515   -2.6982   -2.0580 C   0  0  0  0  0  0  0  0  0  0  0  0
    3.1556   -1.6341   -2.5636 C   0  0  0  0  0  0  0  0  0  0  0  0
    3.0312   -1.8243   -3.9099 C   0  0  0  0  0  0  0  0  0  0  0  0
    3.7043   -2.9402   -4.2929 O   0  0  0  0  0  0  0  0  0  0  0  0
    4.2516   -3.4534   -3.1625 C   0  0  0  0  0  0  0  0  0  0  0  0
    5.0057   -1.7870   -0.1412 O   0  0  0  0  0  0  0  0  0  0  0  0
    5.6884   -1.7131    1.0138 C   0  0  0  0  0  0  0  0  0  0  0  0
    6.2079   -0.6735    1.3917 O   0  0  0  0  0  0  0  0  0  0  0  0
    3.6317   -1.4364    2.8943 H   0  0  0  0  0  0  0  0  0  0  0  0
    4.7586   -1.9255    4.1638 H   0  0  0  0  0  0  0  0  0  0  0  0
    3.1414   -2.5761    4.1297 H   0  0  0  0  0  0  0  0  0  0  0  0
    6.3987   -2.5961    2.7250 H   0  0  0  0  0  0  0  0  0  0  0  0
    6.7755   -4.0065    0.1602 H   0  0  0  0  0  0  0  0  0  0  0  0
    7.7470   -3.8179    1.5285 H   0  0  0  0  0  0  0  0  0  0  0  0
    6.5879   -6.1859    0.8557 H   0  0  0  0  0  0  0  0  0  0  0  0
    7.2725   -5.7742    2.3874 H   0  0  0  0  0  0  0  0  0  0  0  0
    5.2314   -6.7200    2.8888 H   0  0  0  0  0  0  0  0  0  0  0  0
    5.8365   -4.4461    4.0189 H   0  0  0  0  0  0  0  0  0  0  0  0
    4.4572   -5.9469    5.1257 H   0  0  0  0  0  0  0  0  0  0  0  0
    3.5957   -4.4631    5.2246 H   0  0  0  0  0  0  0  0  0  0  0  0
    2.4680   -6.8165    4.6511 H   0  0  0  0  0  0  0  0  0  0  0  0
    1.7741   -5.3334    4.0849 H   0  0  0  0  0  0  0  0  0  0  0  0
    1.9931   -9.5632    2.3162 H   0  0  0  0  0  0  0  0  0  0  0  0
    1.7154   -8.6176    3.7732 H   0  0  0  0  0  0  0  0  0  0  0  0
    0.6955   -8.0438    1.0026 H   0  0  0  0  0  0  0  0  0  0  0  0
   -0.0306   -7.6114    2.5565 H   0  0  0  0  0  0  0  0  0  0  0  0
    2.9547   -6.2213   -0.2912 H   0  0  0  0  0  0  0  0  0  0  0  0
    4.2145   -7.3015    0.2888 H   0  0  0  0  0  0  0  0  0  0  0  0
    4.6425   -5.7692   -0.4172 H   0  0  0  0  0  0  0  0  0  0  0  0
    2.0127   -2.8833    2.1724 H   0  0  0  0  0  0  0  0  0  0  0  0
    2.5063   -3.9590   -0.3189 H   0  0  0  0  0  0  0  0  0  0  0  0
    2.6249   -2.4054    0.4119 H   0  0  0  0  0  0  0  0  0  0  0  0
    5.0609   -3.7903   -0.7194 H   0  0  0  0  0  0  0  0  0  0  0  0
    2.7041   -0.8220   -2.0057 H   0  0  0  0  0  0  0  0  0  0  0  0
    2.5187   -1.2893   -4.6953 H   0  0  0  0  0  0  0  0  0  0  0  0
    4.8033   -4.3703   -3.3033 H   0  0  0  0  0  0  0  0  0  0  0  0
  2  1  1  1
  1 29  1  0
  1 30  1  0
  1 31  1  0
  2  7  1  0
  2 17  1  0
  2  3  1  0
  3 27  1  0
  3  4  1  0
  3 32  1  1
  4  5  1  0
  4 33  1  0
  4 34  1  0
  5  6  1  0
  5 35  1  0
  5 36  1  0
  6 15  1  0
  6  7  1  0
  6 37  1  1
  7  8  1  0
  7 38  1  1
  8  9  1  0
  8 39  1  0
  8 40  1  0
  9 10  1  0
  9 41  1  0
  9 42  1  0
 10 14  1  0
 10 11  1  0
 10 15  1  0
 11 12  1  0
 12 13  1  0
 12 43  1  0
 12 44  1  0
 13 14  1  0
 13 45  1  0
 13 46  1  0
 15 16  1  6
 15 17  1  0
 16 47  1  0
 16 48  1  0
 16 49  1  0
 17 18  1  1
 17 19  1  0
 18 50  1  0
 19 20  1  0
 19 51  1  0
 19 52  1  0
 20 21  1  0
 20 26  1  0
 20 53  1  6
 21 25  2  0
 21 22  1  0
 22 23  2  0
 22 54  1  0
 23 24  1  0
 23 55  1  0
 24 25  1  0
 25 56  1  0
 26 27  1  0
 27 28  2  0
M  END
>  <i_m_ct_stereo_status>  (130) 
1

>  <s_m_source_file>  (130) 
/var/tmp/pbs.5076255.sched01/tmpxjfjwjbi/40jwkb7fqh.sdf

>  <i_m_source_file_index>  (130) 
17

>  <i_lp_mmshare_version>  (130) 
48012

>  <i_f3d_flags>  (130) 
0

>  <s_epik_input>  (130) 
TzFbQ0gyXVtDSDJdT0MxMltDQF0zKFtDSDNdKVtDQEBIXTRbQ0BIXShbQ0gyXVtDSDJdMilbQ0BAXTUoW0NIM10pW0NAQEhdKFtDSDJdW0NIMl00KUMoPU8pT1tDQEBIXShbQ0gyXVtDQEBdMzVbT0hdKWM2W2NIXVtjSF1vW2NIXTY=

>  <s_epik_cmdline>  (130) 
J2VwaWtfcHl0aG9uJywgJy1waHQnLCAnMi4wJywgJy1waCcsICc3LjAnLCAnLXRuJywgJzgnLCAnLW1hJywgJzIwMCcsICctaW1hZScsICc8aW5maWxlLm1hZT4nLCAnLW9tYWUnLCAnPG91dGZpbGUubWFlPic=

>  <r_lp_tautomer_probability>  (130) 
1

>  <r_epik_Ionization_Penalty>  (130) 
3.10727e-08

>  <r_epik_Ionization_Penalty_Charging>  (130) 
0

>  <r_epik_Ionization_Penalty_Neutral>  (130) 
3.10727e-08

>  <r_epik_State_Penalty>  (130) 
-0

>  <r_epik_Charging_Adjusted_Penalty>  (130) 
0

>  <i_epik_Tot_Q>  (130) 
0

>  <i_epik_Tot_abs_Q>  (130) 
0

>  <s_epik_Chemistry_Notes>  (130) 
This compound has an ester and may undergo hydrolysis at high or low pH.

>  <s_lp_Force_Field>  (130) 
OPLS3e

>  <r_lp_Energy>  (130) 
62.8602

>  <b_lp_Chiralities_Consistent>  (130) 
1

>  <s_lp_Variant>  (130) 
42:0-1

>  <s_i_glide_gridfile>  (130) 
pfpi4k_grid

>  <i_i_glide_lignum>  (130) 
17

>  <i_i_glide_rotatable_bonds>  (130) 
2

>  <r_i_docking_score>  (130) 
-3.41163

>  <r_i_glide_ligand_efficiency>  (130) 
-0.121844

>  <r_i_glide_ligand_efficiency_sa>  (130) 
-0.36999

>  <r_i_glide_ligand_efficiency_ln>  (130) 
-0.787504

>  <r_i_glide_gscore>  (130) 
-3.41163

>  <r_i_glide_lipo>  (130) 
-0.496377

>  <r_i_glide_hbond>  (130) 
-0.267484

>  <r_i_glide_metal>  (130) 
-0

>  <r_i_glide_rewards>  (130) 
-0.915615

>  <r_i_glide_evdw>  (130) 
-27.5282

>  <r_i_glide_ecoul>  (130) 
-3.20822

>  <r_i_glide_erotb>  (130) 
0.129123

>  <r_i_glide_esite>  (130) 
-0.00363445

>  <r_i_glide_emodel>  (130) 
-37.2415

>  <r_i_glide_energy>  (130) 
-30.7364

>  <r_i_glide_einternal>  (130) 
0.0359424

>  <r_i_glide_intrahb_reward>  (130) 
-0

>  <i_i_glide_confnum>  (130) 
5

>  <i_i_glide_posenum>  (130) 
14

>  <r_i_glide_eff_state_penalty>  (130) 
0

>  <ligand_id>  (130) 
42

>  <original_smiles>  (130) 
CC12C3CCC4C1CCC1(OCCO1)C4(C)C2(O)CC(c1ccoc1)OC3=O

>  <smiles>  (130) 
[H]OC12C([H])([H])C([H])(c3c([H])oc([H])c3[H])OC(=O)C3([H])C([H])([H])C([H])([H])C4([H])C([H])(C([H])([H])C([H])([H])C5(OC([H])([H])C([H])([H])O5)C41C([H])([H])[H])C32C([H])([H])[H]

$$$$
42:0:1
     RDKit          3D

 56 61  0  0  1  0  0  0  0  0999 V2000
    6.7740   -5.8609    1.1155 C   0  0  0  0  0  0  0  0  0  0  0  0
    5.7360   -4.7466    1.4219 C   0  0  1  0  0  0  0  0  0  0  0  0
    5.4609   -4.7532    2.9692 C   0  0  1  0  0  0  0  0  0  0  0  0
    4.7394   -3.5198    3.5779 C   0  0  0  0  0  0  0  0  0  0  0  0
    4.7263   -2.2529    2.7092 C   0  0  0  0  0  0  0  0  0  0  0  0
    5.0843   -2.4640    1.2239 C   0  0  1  0  0  0  0  0  0  0  0  0
    6.3121   -3.3406    1.1067 C   0  0  2  0  0  0  0  0  0  0  0  0
    6.9583   -3.0755   -0.2783 C   0  0  0  0  0  0  0  0  0  0  0  0
    6.0154   -3.0062   -1.5091 C   0  0  0  0  0  0  0  0  0  0  0  0
    4.5027   -2.7565   -1.1566 C   0  0  0  0  0  0  0  0  0  0  0  0
    4.2375   -1.3940   -1.3128 O   0  0  0  0  0  0  0  0  0  0  0  0
    3.9849   -1.2022   -2.6923 C   0  0  0  0  0  0  0  0  0  0  0  0
    3.3400   -2.5252   -3.0963 C   0  0  0  0  0  0  0  0  0  0  0  0
    3.7079   -3.4330   -2.0768 O   0  0  0  0  0  0  0  0  0  0  0  0
    4.1000   -3.2429    0.3069 C   0  0  2  0  0  0  0  0  0  0  0  0
    2.6261   -2.8640    0.5770 C   0  0  0  0  0  0  0  0  0  0  0  0
    4.4480   -4.7914    0.5303 C   0  0  1  0  0  0  0  0  0  0  0  0
    4.7892   -5.4504   -0.6806 O   0  0  0  0  0  0  0  0  0  0  0  0
    3.3040   -5.7722    0.9521 C   0  0  0  0  0  0  0  0  0  0  0  0
    2.7917   -5.7793    2.4004 C   0  0  1  0  0  0  0  0  0  0  0  0
    1.4199   -6.4164    2.5126 C   0  0  0  0  0  0  0  0  0  0  0  0
    0.7863   -7.3294    1.6206 C   0  0  0  0  0  0  0  0  0  0  0  0
   -0.4437   -7.6190    2.1474 C   0  0  0  0  0  0  0  0  0  0  0  0
   -0.6272   -6.9514    3.3135 O   0  0  0  0  0  0  0  0  0  0  0  0
    0.5156   -6.2446    3.5257 C   0  0  0  0  0  0  0  0  0  0  0  0
    3.6918   -6.4900    3.2429 O   0  0  0  0  0  0  0  0  0  0  0  0
    4.9420   -6.0776    3.5604 C   0  0  0  0  0  0  0  0  0  0  0  0
    5.6730   -6.7257    4.3031 O   0  0  0  0  0  0  0  0  0  0  0  0
    6.3658   -6.8593    1.2753 H   0  0  0  0  0  0  0  0  0  0  0  0
    7.6564   -5.7519    1.7440 H   0  0  0  0  0  0  0  0  0  0  0  0
    7.1277   -5.8350    0.0892 H   0  0  0  0  0  0  0  0  0  0  0  0
    6.4621   -4.6933    3.3966 H   0  0  0  0  0  0  0  0  0  0  0  0
    3.7379   -3.7293    3.9505 H   0  0  0  0  0  0  0  0  0  0  0  0
    5.2680   -3.2704    4.4976 H   0  0  0  0  0  0  0  0  0  0  0  0
    3.7750   -1.7310    2.8165 H   0  0  0  0  0  0  0  0  0  0  0  0
    5.4655   -1.5675    3.1314 H   0  0  0  0  0  0  0  0  0  0  0  0
    5.2839   -1.4660    0.8403 H   0  0  0  0  0  0  0  0  0  0  0  0
    7.0488   -3.0713    1.8562 H   0  0  0  0  0  0  0  0  0  0  0  0
    7.4551   -2.1105   -0.2040 H   0  0  0  0  0  0  0  0  0  0  0  0
    7.7669   -3.7768   -0.4823 H   0  0  0  0  0  0  0  0  0  0  0  0
    6.3865   -2.2212   -2.1659 H   0  0  0  0  0  0  0  0  0  0  0  0
    6.1000   -3.9250   -2.0911 H   0  0  0  0  0  0  0  0  0  0  0  0
    3.3558   -0.3315   -2.8830 H   0  0  0  0  0  0  0  0  0  0  0  0
    4.9279   -1.0577   -3.2203 H   0  0  0  0  0  0  0  0  0  0  0  0
    2.2552   -2.4408   -3.1383 H   0  0  0  0  0  0  0  0  0  0  0  0
    3.6970   -2.8751   -4.0633 H   0  0  0  0  0  0  0  0  0  0  0  0
    1.9624   -3.3558   -0.1329 H   0  0  0  0  0  0  0  0  0  0  0  0
    2.4849   -1.7904    0.4793 H   0  0  0  0  0  0  0  0  0  0  0  0
    2.2936   -3.1158    1.5822 H   0  0  0  0  0  0  0  0  0  0  0  0
    4.0411   -5.4249   -1.2698 H   0  0  0  0  0  0  0  0  0  0  0  0
    2.4603   -5.5839    0.2908 H   0  0  0  0  0  0  0  0  0  0  0  0
    3.5917   -6.8063    0.7500 H   0  0  0  0  0  0  0  0  0  0  0  0
    2.6224   -4.7673    2.7495 H   0  0  0  0  0  0  0  0  0  0  0  0
    1.1680   -7.7529    0.7060 H   0  0  0  0  0  0  0  0  0  0  0  0
   -1.2516   -8.2646    1.8368 H   0  0  0  0  0  0  0  0  0  0  0  0
    0.5257   -5.6758    4.4437 H   0  0  0  0  0  0  0  0  0  0  0  0
  2  1  1  1
  1 29  1  0
  1 30  1  0
  1 31  1  0
  2  7  1  0
  2 17  1  0
  2  3  1  0
  3 27  1  0
  3  4  1  0
  3 32  1  1
  4  5  1  0
  4 33  1  0
  4 34  1  0
  5  6  1  0
  5 35  1  0
  5 36  1  0
  6 15  1  0
  6  7  1  0
  6 37  1  6
  7  8  1  0
  7 38  1  1
  8  9  1  0
  8 39  1  0
  8 40  1  0
  9 10  1  0
  9 41  1  0
  9 42  1  0
 10 14  1  0
 10 11  1  0
 10 15  1  0
 11 12  1  0
 12 13  1  0
 12 43  1  0
 12 44  1  0
 13 14  1  0
 13 45  1  0
 13 46  1  0
 15 16  1  1
 15 17  1  0
 16 47  1  0
 16 48  1  0
 16 49  1  0
 17 18  1  6
 17 19  1  0
 18 50  1  0
 19 20  1  0
 19 51  1  0
 19 52  1  0
 20 21  1  0
 20 26  1  0
 20 53  1  1
 21 25  2  0
 21 22  1  0
 22 23  2  0
 22 54  1  0
 23 24  1  0
 23 55  1  0
 24 25  1  0
 25 56  1  0
 26 27  1  0
 27 28  2  0
M  END
>  <i_m_ct_stereo_status>  (131) 
1

>  <s_m_source_file>  (131) 
/var/tmp/pbs.5076255.sched01/tmpxjfjwjbi/40jwkb7fqh.sdf

>  <i_m_source_file_index>  (131) 
17

>  <i_lp_mmshare_version>  (131) 
48012

>  <i_f3d_flags>  (131) 
0

>  <s_epik_input>  (131) 
TzFbQ0gyXVtDSDJdT0MxMltDQF0zKFtDSDNdKVtDQEBIXTRbQ0BIXShbQ0gyXVtDSDJdMilbQ0BAXTUoW0NIM10pW0NAQEhdKFtDSDJdW0NIMl00KUMoPU8pT1tDQEBIXShbQ0gyXVtDQEBdMzVbT0hdKWM2W2NIXVtjSF1vW2NIXTY=

>  <s_epik_cmdline>  (131) 
J2VwaWtfcHl0aG9uJywgJy1waHQnLCAnMi4wJywgJy1waCcsICc3LjAnLCAnLXRuJywgJzgnLCAnLW1hJywgJzIwMCcsICctaW1hZScsICc8aW5maWxlLm1hZT4nLCAnLW9tYWUnLCAnPG91dGZpbGUubWFlPic=

>  <r_lp_tautomer_probability>  (131) 
1

>  <r_epik_Ionization_Penalty>  (131) 
3.10727e-08

>  <r_epik_Ionization_Penalty_Charging>  (131) 
0

>  <r_epik_Ionization_Penalty_Neutral>  (131) 
3.10727e-08

>  <r_epik_State_Penalty>  (131) 
-0

>  <r_epik_Charging_Adjusted_Penalty>  (131) 
0

>  <i_epik_Tot_Q>  (131) 
0

>  <i_epik_Tot_abs_Q>  (131) 
0

>  <s_epik_Chemistry_Notes>  (131) 
This compound has an ester and may undergo hydrolysis at high or low pH.

>  <s_lp_Force_Field>  (131) 
OPLS3e

>  <r_lp_Energy>  (131) 
62.8602

>  <b_lp_Chiralities_Consistent>  (131) 
1

>  <s_lp_Variant>  (131) 
42:0-1

>  <s_i_glide_gridfile>  (131) 
pfpi4k_grid

>  <i_i_glide_lignum>  (131) 
17

>  <i_i_glide_rotatable_bonds>  (131) 
2

>  <r_i_docking_score>  (131) 
-3.29951

>  <r_i_glide_ligand_efficiency>  (131) 
-0.117839

>  <r_i_glide_ligand_efficiency_sa>  (131) 
-0.35783

>  <r_i_glide_ligand_efficiency_ln>  (131) 
-0.761623

>  <r_i_glide_gscore>  (131) 
-3.29951

>  <r_i_glide_lipo>  (131) 
-0.619695

>  <r_i_glide_hbond>  (131) 
-0.112242

>  <r_i_glide_metal>  (131) 
-0

>  <r_i_glide_rewards>  (131) 
-0.76054

>  <r_i_glide_evdw>  (131) 
-30.207

>  <r_i_glide_ecoul>  (131) 
-2.77179

>  <r_i_glide_erotb>  (131) 
0.129123

>  <r_i_glide_esite>  (131) 
-0.0100332

>  <r_i_glide_emodel>  (131) 
-39.0776

>  <r_i_glide_energy>  (131) 
-32.9788

>  <r_i_glide_einternal>  (131) 
0.513336

>  <r_i_glide_intrahb_reward>  (131) 
-0

>  <i_i_glide_confnum>  (131) 
5

>  <i_i_glide_posenum>  (131) 
22

>  <r_i_glide_eff_state_penalty>  (131) 
0

>  <ligand_id>  (131) 
42

>  <original_smiles>  (131) 
CC12C3CCC4C1CCC1(OCCO1)C4(C)C2(O)CC(c1ccoc1)OC3=O

>  <smiles>  (131) 
[H]OC12C([H])([H])C([H])(c3c([H])oc([H])c3[H])OC(=O)C3([H])C([H])([H])C([H])([H])C4([H])C([H])(C([H])([H])C([H])([H])C5(OC([H])([H])C([H])([H])O5)C41C([H])([H])[H])C32C([H])([H])[H]

$$$$
42:0:2
     RDKit          3D

 56 61  0  0  1  0  0  0  0  0999 V2000
    5.9730   -9.6083    1.5808 C   0  0  0  0  0  0  0  0  0  0  0  0
    5.4142   -8.5294    2.5461 C   0  0  1  0  0  0  0  0  0  0  0  0
    4.8879   -9.2521    3.8386 C   0  0  1  0  0  0  0  0  0  0  0  0
    4.5951   -8.3723    5.0860 C   0  0  0  0  0  0  0  0  0  0  0  0
    5.2330   -6.9750    5.0869 C   0  0  0  0  0  0  0  0  0  0  0  0
    5.7476   -6.4840    3.7194 C   0  0  1  0  0  0  0  0  0  0  0  0
    6.5410   -7.5819    3.0403 C   0  0  2  0  0  0  0  0  0  0  0  0
    7.4736   -6.9116    1.9975 C   0  0  0  0  0  0  0  0  0  0  0  0
    6.8662   -5.8030    1.0966 C   0  0  0  0  0  0  0  0  0  0  0  0
    5.5294   -5.1699    1.6385 C   0  0  0  0  0  0  0  0  0  0  0  0
    5.8355   -3.9762    2.2955 O   0  0  0  0  0  0  0  0  0  0  0  0
    5.9504   -2.9893    1.2885 C   0  0  0  0  0  0  0  0  0  0  0  0
    4.9325   -3.4659    0.2586 C   0  0  0  0  0  0  0  0  0  0  0  0
    4.7178   -4.8324    0.5576 O   0  0  0  0  0  0  0  0  0  0  0  0
    4.7149   -6.1403    2.6016 C   0  0  2  0  0  0  0  0  0  0  0  0
    3.4848   -5.3745    3.1497 C   0  0  0  0  0  0  0  0  0  0  0  0
    4.3869   -7.5405    1.8888 C   0  0  1  0  0  0  0  0  0  0  0  0
    4.6205   -7.5007    0.4869 O   0  0  0  0  0  0  0  0  0  0  0  0
    2.8965   -8.0015    1.7731 C   0  0  0  0  0  0  0  0  0  0  0  0
    2.1720   -8.5660    3.0007 C   0  0  1  0  0  0  0  0  0  0  0  0
    0.6738   -8.5041    2.8249 C   0  0  0  0  0  0  0  0  0  0  0  0
   -0.2669   -9.5774    2.8790 C   0  0  0  0  0  0  0  0  0  0  0  0
   -1.5013   -9.0420    2.6666 C   0  0  0  0  0  0  0  0  0  0  0  0
   -1.4138   -7.6974    2.4784 O   0  0  0  0  0  0  0  0  0  0  0  0
   -0.0929   -7.3916    2.5805 C   0  0  0  0  0  0  0  0  0  0  0  0
    2.5652   -9.9172    3.2146 O   0  0  0  0  0  0  0  0  0  0  0  0
    3.7972  -10.3159    3.6177 C   0  0  0  0  0  0  0  0  0  0  0  0
    4.0689  -11.4993    3.8112 O   0  0  0  0  0  0  0  0  0  0  0  0
    5.1809  -10.2499    1.1901 H   0  0  0  0  0  0  0  0  0  0  0  0
    6.6945  -10.2440    2.0940 H   0  0  0  0  0  0  0  0  0  0  0  0
    6.4835   -9.1807    0.7185 H   0  0  0  0  0  0  0  0  0  0  0  0
    5.7403   -9.8576    4.1550 H   0  0  0  0  0  0  0  0  0  0  0  0
    3.5409   -8.3069    5.3470 H   0  0  0  0  0  0  0  0  0  0  0  0
    5.0022   -8.9063    5.9448 H   0  0  0  0  0  0  0  0  0  0  0  0
    4.5598   -6.2489    5.5438 H   0  0  0  0  0  0  0  0  0  0  0  0
    6.0914   -7.0171    5.7621 H   0  0  0  0  0  0  0  0  0  0  0  0
    6.3854   -5.6309    3.9462 H   0  0  0  0  0  0  0  0  0  0  0  0
    7.1834   -8.1081    3.7517 H   0  0  0  0  0  0  0  0  0  0  0  0
    8.2858   -6.4538    2.5604 H   0  0  0  0  0  0  0  0  0  0  0  0
    7.9711   -7.6539    1.3748 H   0  0  0  0  0  0  0  0  0  0  0  0
    7.6250   -5.0312    0.9745 H   0  0  0  0  0  0  0  0  0  0  0  0
    6.6905   -6.2037    0.0992 H   0  0  0  0  0  0  0  0  0  0  0  0
    5.7588   -1.9840    1.6685 H   0  0  0  0  0  0  0  0  0  0  0  0
    6.9590   -2.9997    0.8752 H   0  0  0  0  0  0  0  0  0  0  0  0
    3.9974   -2.9144    0.3550 H   0  0  0  0  0  0  0  0  0  0  0  0
    5.2985   -3.3444   -0.7613 H   0  0  0  0  0  0  0  0  0  0  0  0
    2.8099   -5.0800    2.3473 H   0  0  0  0  0  0  0  0  0  0  0  0
    3.7857   -4.4689    3.6726 H   0  0  0  0  0  0  0  0  0  0  0  0
    2.9093   -5.9557    3.8679 H   0  0  0  0  0  0  0  0  0  0  0  0
    4.1442   -6.7653    0.1354 H   0  0  0  0  0  0  0  0  0  0  0  0
    2.3328   -7.1527    1.3899 H   0  0  0  0  0  0  0  0  0  0  0  0
    2.7864   -8.7703    1.0070 H   0  0  0  0  0  0  0  0  0  0  0  0
    2.3357   -7.9411    3.8686 H   0  0  0  0  0  0  0  0  0  0  0  0
   -0.0635  -10.6201    3.0615 H   0  0  0  0  0  0  0  0  0  0  0  0
   -2.4978   -9.4612    2.6307 H   0  0  0  0  0  0  0  0  0  0  0  0
    0.1397   -6.3471    2.4584 H   0  0  0  0  0  0  0  0  0  0  0  0
  2  1  1  6
  1 29  1  0
  1 30  1  0
  1 31  1  0
  2  7  1  0
  2 17  1  0
  2  3  1  0
  3 27  1  0
  3  4  1  0
  3 32  1  1
  4  5  1  0
  4 33  1  0
  4 34  1  0
  5  6  1  0
  5 35  1  0
  5 36  1  0
  6 15  1  0
  6  7  1  0
  6 37  1  1
  7  8  1  0
  7 38  1  1
  8  9  1  0
  8 39  1  0
  8 40  1  0
  9 10  1  0
  9 41  1  0
  9 42  1  0
 10 14  1  0
 10 11  1  0
 10 15  1  0
 11 12  1  0
 12 13  1  0
 12 43  1  0
 12 44  1  0
 13 14  1  0
 13 45  1  0
 13 46  1  0
 15 16  1  1
 15 17  1  0
 16 47  1  0
 16 48  1  0
 16 49  1  0
 17 18  1  6
 17 19  1  0
 18 50  1  0
 19 20  1  0
 19 51  1  0
 19 52  1  0
 20 21  1  0
 20 26  1  0
 20 53  1  1
 21 25  2  0
 21 22  1  0
 22 23  2  0
 22 54  1  0
 23 24  1  0
 23 55  1  0
 24 25  1  0
 25 56  1  0
 26 27  1  0
 27 28  2  0
M  END
>  <i_m_ct_stereo_status>  (132) 
1

>  <s_m_source_file>  (132) 
/var/tmp/pbs.5076255.sched01/tmpxjfjwjbi/40jwkb7fqh.sdf

>  <i_m_source_file_index>  (132) 
17

>  <i_lp_mmshare_version>  (132) 
48012

>  <i_f3d_flags>  (132) 
0

>  <s_epik_input>  (132) 
TzFbQ0gyXVtDSDJdT0MxMltDQF0zKFtDSDNdKVtDQEBIXTRbQ0BIXShbQ0gyXVtDSDJdMilbQ0BAXTUoW0NIM10pW0NAQEhdKFtDSDJdW0NIMl00KUMoPU8pT1tDQEBIXShbQ0gyXVtDQEBdMzVbT0hdKWM2W2NIXVtjSF1vW2NIXTY=

>  <s_epik_cmdline>  (132) 
J2VwaWtfcHl0aG9uJywgJy1waHQnLCAnMi4wJywgJy1waCcsICc3LjAnLCAnLXRuJywgJzgnLCAnLW1hJywgJzIwMCcsICctaW1hZScsICc8aW5maWxlLm1hZT4nLCAnLW9tYWUnLCAnPG91dGZpbGUubWFlPic=

>  <r_lp_tautomer_probability>  (132) 
1

>  <r_epik_Ionization_Penalty>  (132) 
3.10727e-08

>  <r_epik_Ionization_Penalty_Charging>  (132) 
0

>  <r_epik_Ionization_Penalty_Neutral>  (132) 
3.10727e-08

>  <r_epik_State_Penalty>  (132) 
-0

>  <r_epik_Charging_Adjusted_Penalty>  (132) 
0

>  <i_epik_Tot_Q>  (132) 
0

>  <i_epik_Tot_abs_Q>  (132) 
0

>  <s_epik_Chemistry_Notes>  (132) 
This compound has an ester and may undergo hydrolysis at high or low pH.

>  <s_lp_Force_Field>  (132) 
OPLS3e

>  <r_lp_Energy>  (132) 
62.8602

>  <b_lp_Chiralities_Consistent>  (132) 
1

>  <s_lp_Variant>  (132) 
42:0-1

>  <s_i_glide_gridfile>  (132) 
pfpi4k_grid

>  <i_i_glide_lignum>  (132) 
17

>  <i_i_glide_rotatable_bonds>  (132) 
2

>  <r_i_docking_score>  (132) 
-2.92326

>  <r_i_glide_ligand_efficiency>  (132) 
-0.104402

>  <r_i_glide_ligand_efficiency_sa>  (132) 
-0.317027

>  <r_i_glide_ligand_efficiency_ln>  (132) 
-0.674775

>  <r_i_glide_gscore>  (132) 
-2.92326

>  <r_i_glide_lipo>  (132) 
-0.335156

>  <r_i_glide_hbond>  (132) 
0

>  <r_i_glide_metal>  (132) 
-0

>  <r_i_glide_rewards>  (132) 
-1.32578

>  <r_i_glide_evdw>  (132) 
-29.3409

>  <r_i_glide_ecoul>  (132) 
0.619927

>  <r_i_glide_erotb>  (132) 
0.129123

>  <r_i_glide_esite>  (132) 
-0.0173987

>  <r_i_glide_emodel>  (132) 
-39.1005

>  <r_i_glide_energy>  (132) 
-28.7209

>  <r_i_glide_einternal>  (132) 
0.391515

>  <r_i_glide_intrahb_reward>  (132) 
-0.5

>  <i_i_glide_confnum>  (132) 
5

>  <i_i_glide_posenum>  (132) 
4

>  <r_i_glide_eff_state_penalty>  (132) 
0

>  <ligand_id>  (132) 
42

>  <original_smiles>  (132) 
CC12C3CCC4C1CCC1(OCCO1)C4(C)C2(O)CC(c1ccoc1)OC3=O

>  <smiles>  (132) 
[H]OC12C([H])([H])C([H])(c3c([H])oc([H])c3[H])OC(=O)C3([H])C([H])([H])C([H])([H])C4([H])C([H])(C([H])([H])C([H])([H])C5(OC([H])([H])C([H])([H])O5)C41C([H])([H])[H])C32C([H])([H])[H]

$$$$
44:0:0
     RDKit          3D

 66 71  0  0  1  0  0  0  0  0999 V2000
    2.9375   -9.4648    1.2739 C   0  0  0  0  0  0  0  0  0  0  0  0
    3.2393   -8.2399    2.1632 C   0  0  2  0  0  0  0  0  0  0  0  0
    1.9657   -7.6409    2.8347 C   0  0  1  0  0  0  0  0  0  0  0  0
    0.9037   -8.6473    3.2354 C   0  0  0  0  0  0  0  0  0  0  0  0
    0.2182   -8.2916    4.3166 C   0  0  0  0  0  0  0  0  0  0  0  0
    0.7690   -7.0361    4.8027 C   0  0  0  0  0  0  0  0  0  0  0  0
    0.2585   -6.3508    5.6891 O   0  0  0  0  0  0  0  0  0  0  0  0
    2.1235   -6.7128    4.1053 C   0  0  1  0  0  0  0  0  0  0  0  0
    3.1807   -7.2076    5.1320 C   0  0  0  0  0  0  0  0  0  0  0  0
    2.3080   -5.1798    3.7371 C   0  0  1  0  0  0  0  0  0  0  0  0
    1.9219   -4.1842    4.8710 C   0  0  0  0  0  0  0  0  0  0  0  0
    2.8232   -2.9430    4.7633 C   0  0  1  0  0  0  0  0  0  0  0  0
    3.4348   -3.0618    3.3625 C   0  0  2  0  0  0  0  0  0  0  0  0
    2.5218   -2.4648    2.2519 C   0  0  0  0  0  0  0  0  0  0  0  0
    1.3852   -1.5754    2.7291 C   0  0  0  0  0  0  0  0  0  0  0  0
    1.2024   -1.1516    3.9890 C   0  0  0  0  0  0  0  0  0  0  0  0
    0.0651   -0.1909    4.3482 C   0  0  0  0  0  0  0  0  0  0  0  0
   -0.5680   -0.4819    5.7129 C   0  0  0  0  0  0  0  0  0  0  0  0
   -1.7111   -0.0857    5.9466 O   0  0  0  0  0  0  0  0  0  0  0  0
    0.2207   -1.1864    6.7259 C   0  0  0  0  0  0  0  0  0  0  0  0
    1.4481   -1.6615    6.4493 C   0  0  0  0  0  0  0  0  0  0  0  0
    2.1606   -1.5722    5.1029 C   0  0  1  0  0  0  0  0  0  0  0  0
    3.2202   -0.4575    5.2321 C   0  0  0  0  0  0  0  0  0  0  0  0
    3.6870   -4.5968    3.2398 C   0  0  2  0  0  0  0  0  0  0  0  0
    4.3740   -5.1090    1.9070 C   0  0  2  0  0  0  0  0  0  0  0  0
    5.2438   -4.0004    1.2894 C   0  0  0  0  0  0  0  0  0  0  0  0
    3.5071   -5.8569    0.8769 C   0  0  0  0  0  0  0  0  0  0  0  0
    4.0580   -7.2142    1.3459 C   0  0  1  0  0  0  0  0  0  0  0  0
    5.1615   -6.4421    2.0607 C   0  0  1  0  0  0  0  0  0  0  0  0
    6.5945   -6.5988    1.5492 C   0  0  0  0  0  0  0  0  0  0  0  0
    2.2148   -9.2461    0.4934 H   0  0  0  0  0  0  0  0  0  0  0  0
    2.5583  -10.3037    1.8537 H   0  0  0  0  0  0  0  0  0  0  0  0
    3.8407   -9.8347    0.7908 H   0  0  0  0  0  0  0  0  0  0  0  0
    3.8797   -8.6400    2.9536 H   0  0  0  0  0  0  0  0  0  0  0  0
    0.6766   -9.5298    2.6571 H   0  0  0  0  0  0  0  0  0  0  0  0
   -0.6049   -8.8221    4.7784 H   0  0  0  0  0  0  0  0  0  0  0  0
    1.4209   -7.1026    2.0668 H   0  0  0  0  0  0  0  0  0  0  0  0
    4.2090   -7.1028    4.8144 H   0  0  0  0  0  0  0  0  0  0  0  0
    3.0373   -8.2632    5.3698 H   0  0  0  0  0  0  0  0  0  0  0  0
    3.1067   -6.6631    6.0743 H   0  0  0  0  0  0  0  0  0  0  0  0
    1.5836   -4.9851    2.9468 H   0  0  0  0  0  0  0  0  0  0  0  0
    0.8676   -3.9187    4.7867 H   0  0  0  0  0  0  0  0  0  0  0  0
    2.0675   -4.6096    5.8624 H   0  0  0  0  0  0  0  0  0  0  0  0
    3.6337   -3.0920    5.4787 H   0  0  0  0  0  0  0  0  0  0  0  0
    4.3829   -2.5244    3.3621 H   0  0  0  0  0  0  0  0  0  0  0  0
    3.1181   -1.8389    1.5909 H   0  0  0  0  0  0  0  0  0  0  0  0
    2.0989   -3.2472    1.6259 H   0  0  0  0  0  0  0  0  0  0  0  0
    0.7175   -1.2343    1.9501 H   0  0  0  0  0  0  0  0  0  0  0  0
    0.4581    0.8247    4.3544 H   0  0  0  0  0  0  0  0  0  0  0  0
   -0.7038   -0.2320    3.5782 H   0  0  0  0  0  0  0  0  0  0  0  0
   -0.1872   -1.2849    7.7175 H   0  0  0  0  0  0  0  0  0  0  0  0
    1.9993   -2.1521    7.2398 H   0  0  0  0  0  0  0  0  0  0  0  0
    2.7464    0.4977    5.4788 H   0  0  0  0  0  0  0  0  0  0  0  0
    3.7598   -0.3092    4.2948 H   0  0  0  0  0  0  0  0  0  0  0  0
    3.9471   -0.6717    6.0167 H   0  0  0  0  0  0  0  0  0  0  0  0
    4.3977   -4.8286    4.0337 H   0  0  0  0  0  0  0  0  0  0  0  0
    5.7945   -4.3642    0.4205 H   0  0  0  0  0  0  0  0  0  0  0  0
    5.9818   -3.6247    1.9974 H   0  0  0  0  0  0  0  0  0  0  0  0
    4.6632   -3.1690    0.9008 H   0  0  0  0  0  0  0  0  0  0  0  0
    2.4378   -5.6863    0.9603 H   0  0  0  0  0  0  0  0  0  0  0  0
    3.8217   -5.6524   -0.1498 H   0  0  0  0  0  0  0  0  0  0  0  0
    4.5113   -7.6976    0.4764 H   0  0  0  0  0  0  0  0  0  0  0  0
    5.1712   -6.7224    3.1002 H   0  0  0  0  0  0  0  0  0  0  0  0
    6.6812   -6.4320    0.4771 H   0  0  0  0  0  0  0  0  0  0  0  0
    6.9781   -7.6006    1.7440 H   0  0  0  0  0  0  0  0  0  0  0  0
    7.2696   -5.9015    2.0445 H   0  0  0  0  0  0  0  0  0  0  0  0
  1  2  1  0
  1 31  1  0
  1 32  1  0
  1 33  1  0
  2 28  1  0
  2 34  1  1
  2  3  1  0
  3 37  1  6
  3  4  1  0
  3  8  1  0
  4 35  1  0
  4  5  2  0
  5 36  1  0
  5  6  1  0
  6  7  2  0
  6  8  1  0
  8  9  1  1
  8 10  1  0
  9 38  1  0
  9 39  1  0
  9 40  1  0
 10 24  1  0
 10 11  1  0
 10 41  1  6
 11 12  1  0
 11 42  1  0
 11 43  1  0
 12 22  1  0
 12 13  1  0
 12 44  1  1
 13 14  1  0
 13 24  1  0
 13 45  1  1
 14 15  1  0
 14 46  1  0
 14 47  1  0
 15 16  2  0
 15 48  1  0
 16 22  1  0
 16 17  1  0
 17 18  1  0
 17 49  1  0
 17 50  1  0
 18 19  2  0
 18 20  1  0
 20 21  2  0
 20 51  1  0
 21 22  1  0
 21 52  1  0
 22 23  1  1
 23 53  1  0
 23 54  1  0
 23 55  1  0
 24 25  1  0
 24 56  1  1
 25 29  1  0
 25 26  1  6
 25 27  1  0
 26 57  1  0
 26 58  1  0
 26 59  1  0
 27 28  1  0
 27 60  1  0
 27 61  1  0
 28 29  1  0
 28 62  1  6
 29 30  1  0
 29 63  1  1
 30 64  1  0
 30 65  1  0
 30 66  1  0
M  END
>  <i_m_ct_stereo_status>  (133) 
1

>  <s_m_source_file>  (133) 
/var/tmp/pbs.5076255.sched01/tmpxjfjwjbi/40jwkb7fqh.sdf

>  <i_m_source_file_index>  (133) 
19

>  <i_lp_mmshare_version>  (133) 
48012

>  <i_f3d_flags>  (133) 
0

>  <s_epik_input>  (133) 
Tz1DMVtDSDJdW0NIXT1DKFtDQF0xMltDSDNdKVtDQEBIXShbQ0gzXSlbQ0BIXTNbQ0gyXVtDQF0oW0NIM10pKFtDQEBIXTNbQ0gzXSlbQ0BASF00W0NAQEhdMltDSDJdW0NASF01W0NAQEhdNFtDSDJdW0NIXT1DNltDQEBdNShbQ0gzXSlbQ0hdPVtDSF1DKD1PKVtDSDJdNg==

>  <s_epik_cmdline>  (133) 
J2VwaWtfcHl0aG9uJywgJy1waHQnLCAnMi4wJywgJy1waCcsICc3LjAnLCAnLXRuJywgJzgnLCAnLW1hJywgJzIwMCcsICctaW1hZScsICc8aW5maWxlLm1hZT4nLCAnLW9tYWUnLCAnPG91dGZpbGUubWFlPic=

>  <r_lp_tautomer_probability>  (133) 
1

>  <r_epik_Ionization_Penalty>  (133) 
0

>  <r_epik_Ionization_Penalty_Charging>  (133) 
0

>  <r_epik_Ionization_Penalty_Neutral>  (133) 
0

>  <r_epik_State_Penalty>  (133) 
-0

>  <r_epik_Charging_Adjusted_Penalty>  (133) 
0

>  <i_epik_Tot_Q>  (133) 
0

>  <i_epik_Tot_abs_Q>  (133) 
0

>  <s_lp_Force_Field>  (133) 
OPLS3e

>  <r_lp_Energy>  (133) 
69.3676

>  <b_lp_Chiralities_Consistent>  (133) 
1

>  <s_lp_Variant>  (133) 
44:0-1

>  <s_i_glide_gridfile>  (133) 
pfpi4k_grid

>  <i_i_glide_lignum>  (133) 
19

>  <i_i_glide_rotatable_bonds>  (133) 
0

>  <r_i_docking_score>  (133) 
-2.55399

>  <r_i_glide_ligand_efficiency>  (133) 
-0.0851328

>  <r_i_glide_ligand_efficiency_sa>  (133) 
-0.264528

>  <r_i_glide_ligand_efficiency_ln>  (133) 
-0.580293

>  <r_i_glide_gscore>  (133) 
-2.55399

>  <r_i_glide_lipo>  (133) 
-0.26911

>  <r_i_glide_hbond>  (133) 
-0.11646

>  <r_i_glide_metal>  (133) 
-0

>  <r_i_glide_rewards>  (133) 
-0.650562

>  <r_i_glide_evdw>  (133) 
-20.5796

>  <r_i_glide_ecoul>  (133) 
-2.93335

>  <r_i_glide_erotb>  (133) 
0

>  <r_i_glide_esite>  (133) 
-0.0488709

>  <r_i_glide_emodel>  (133) 
-27.1929

>  <r_i_glide_energy>  (133) 
-23.5129

>  <r_i_glide_einternal>  (133) 
0

>  <r_i_glide_intrahb_reward>  (133) 
-0

>  <i_i_glide_confnum>  (133) 
2

>  <i_i_glide_posenum>  (133) 
21

>  <r_i_glide_eff_state_penalty>  (133) 
0

>  <ligand_id>  (133) 
44

>  <original_smiles>  (133) 
CC1C2=CCC(=O)C2(C)C2CC3C(CC=C4CC(=O)C=CC43C)C2C2(C)CC1C2C

>  <smiles>  (133) 
[H]C1=C([H])C2([H])C([H])(C([H])([H])[H])C3([H])C([H])([H])C(C([H])([H])[H])(C3([H])C([H])([H])[H])C3([H])C4([H])C([H])([H])C([H])=C5C([H])([H])C(=O)C([H])=C([H])C5(C([H])([H])[H])C4([H])C([H])([H])C3([H])C2(C([H])([H])[H])C1=O

$$$$
44:0:1
     RDKit          3D

 66 71  0  0  1  0  0  0  0  0999 V2000
    3.5159   -9.5909    1.4710 C   0  0  0  0  0  0  0  0  0  0  0  0
    3.8219   -8.2511    2.1688 C   0  0  2  0  0  0  0  0  0  0  0  0
    2.5662   -7.3428    2.3215 C   0  0  1  0  0  0  0  0  0  0  0  0
    1.2620   -8.0722    2.5786 C   0  0  0  0  0  0  0  0  0  0  0  0
    0.4144   -7.3827    3.3363 C   0  0  0  0  0  0  0  0  0  0  0  0
    1.0674   -6.1424    3.7227 C   0  0  0  0  0  0  0  0  0  0  0  0
    0.5017   -5.2142    4.2987 O   0  0  0  0  0  0  0  0  0  0  0  0
    2.5857   -6.1780    3.3896 C   0  0  1  0  0  0  0  0  0  0  0  0
    3.2340   -6.5623    4.7487 C   0  0  0  0  0  0  0  0  0  0  0  0
    3.1509   -4.8116    2.8130 C   0  0  1  0  0  0  0  0  0  0  0  0
    2.6976   -3.5366    3.5841 C   0  0  0  0  0  0  0  0  0  0  0  0
    3.8237   -2.4915    3.5108 C   0  0  1  0  0  0  0  0  0  0  0  0
    4.7289   -3.0155    2.3892 C   0  0  2  0  0  0  0  0  0  0  0  0
    4.2546   -2.5741    0.9735 C   0  0  0  0  0  0  0  0  0  0  0  0
    3.2299   -1.4513    0.9349 C   0  0  0  0  0  0  0  0  0  0  0  0
    2.8339   -0.7211    1.9885 C   0  0  0  0  0  0  0  0  0  0  0  0
    1.8605    0.4479    1.8227 C   0  0  0  0  0  0  0  0  0  0  0  0
    0.8581    0.5718    2.9733 C   0  0  0  0  0  0  0  0  0  0  0  0
   -0.1964    1.1701    2.7839 O   0  0  0  0  0  0  0  0  0  0  0  0
    1.2082    0.0151    4.2838 C   0  0  0  0  0  0  0  0  0  0  0  0
    2.3471   -0.6746    4.4662 C   0  0  0  0  0  0  0  0  0  0  0  0
    3.3807   -1.0007    3.3879 C   0  0  1  0  0  0  0  0  0  0  0  0
    4.5724   -0.0460    3.6047 C   0  0  0  0  0  0  0  0  0  0  0  0
    4.6972   -4.5564    2.6320 C   0  0  2  0  0  0  0  0  0  0  0  0
    5.5764   -5.4543    1.6691 C   0  0  2  0  0  0  0  0  0  0  0  0
    6.7734   -4.6551    1.1254 C   0  0  0  0  0  0  0  0  0  0  0  0
    4.8534   -6.2881    0.5981 C   0  0  0  0  0  0  0  0  0  0  0  0
    5.0009   -7.5662    1.4425 C   0  0  1  0  0  0  0  0  0  0  0  0
    6.0253   -6.8120    2.2827 C   0  0  1  0  0  0  0  0  0  0  0  0
    7.4827   -7.2824    2.2329 C   0  0  0  0  0  0  0  0  0  0  0  0
    3.0817   -9.4512    0.4837 H   0  0  0  0  0  0  0  0  0  0  0  0
    2.8429  -10.2202    2.0525 H   0  0  0  0  0  0  0  0  0  0  0  0
    4.4246  -10.1787    1.3489 H   0  0  0  0  0  0  0  0  0  0  0  0
    4.1540   -8.5433    3.1681 H   0  0  0  0  0  0  0  0  0  0  0  0
    1.0157   -9.0236    2.1331 H   0  0  0  0  0  0  0  0  0  0  0  0
   -0.5831   -7.6702    3.6360 H   0  0  0  0  0  0  0  0  0  0  0  0
    2.3463   -6.9269    1.3441 H   0  0  0  0  0  0  0  0  0  0  0  0
    4.3086   -6.6776    4.7247 H   0  0  0  0  0  0  0  0  0  0  0  0
    2.8307   -7.5037    5.1271 H   0  0  0  0  0  0  0  0  0  0  0  0
    3.0353   -5.8089    5.5119 H   0  0  0  0  0  0  0  0  0  0  0  0
    2.6989   -4.7075    1.8266 H   0  0  0  0  0  0  0  0  0  0  0  0
    1.7711   -3.1540    3.1544 H   0  0  0  0  0  0  0  0  0  0  0  0
    2.5049   -3.7362    4.6363 H   0  0  0  0  0  0  0  0  0  0  0  0
    4.3854   -2.5824    4.4418 H   0  0  0  0  0  0  0  0  0  0  0  0
    5.7344   -2.6301    2.5586 H   0  0  0  0  0  0  0  0  0  0  0  0
    5.1079   -2.2062    0.4074 H   0  0  0  0  0  0  0  0  0  0  0  0
    3.8532   -3.4128    0.4079 H   0  0  0  0  0  0  0  0  0  0  0  0
    2.8494   -1.2121   -0.0471 H   0  0  0  0  0  0  0  0  0  0  0  0
    2.4277    1.3743    1.7541 H   0  0  0  0  0  0  0  0  0  0  0  0
    1.3126    0.3410    0.8874 H   0  0  0  0  0  0  0  0  0  0  0  0
    0.5363    0.2072    5.1066 H   0  0  0  0  0  0  0  0  0  0  0  0
    2.5763   -1.0425    5.4573 H   0  0  0  0  0  0  0  0  0  0  0  0
    4.2433    0.9945    3.5257 H   0  0  0  0  0  0  0  0  0  0  0  0
    5.3464   -0.1935    2.8492 H   0  0  0  0  0  0  0  0  0  0  0  0
    5.0251   -0.1698    4.5888 H   0  0  0  0  0  0  0  0  0  0  0  0
    5.1284   -4.6943    3.6238 H   0  0  0  0  0  0  0  0  0  0  0  0
    7.4394   -5.2843    0.5325 H   0  0  0  0  0  0  0  0  0  0  0  0
    7.3749   -4.2394    1.9310 H   0  0  0  0  0  0  0  0  0  0  0  0
    6.4852   -3.8609    0.4432 H   0  0  0  0  0  0  0  0  0  0  0  0
    3.8522   -5.9563    0.3383 H   0  0  0  0  0  0  0  0  0  0  0  0
    5.4401   -6.3516   -0.3154 H   0  0  0  0  0  0  0  0  0  0  0  0
    5.5542   -8.2977    0.8483 H   0  0  0  0  0  0  0  0  0  0  0  0
    5.7223   -6.8423    3.3164 H   0  0  0  0  0  0  0  0  0  0  0  0
    7.8663   -7.3915    1.2168 H   0  0  0  0  0  0  0  0  0  0  0  0
    7.5999   -8.2517    2.7179 H   0  0  0  0  0  0  0  0  0  0  0  0
    8.1366   -6.5896    2.7636 H   0  0  0  0  0  0  0  0  0  0  0  0
  1  2  1  0
  1 31  1  0
  1 32  1  0
  1 33  1  0
  2 28  1  0
  2 34  1  1
  2  3  1  0
  3 37  1  6
  3  4  1  0
  3  8  1  0
  4 35  1  0
  4  5  2  0
  5 36  1  0
  5  6  1  0
  6  7  2  0
  6  8  1  0
  8  9  1  1
  8 10  1  0
  9 38  1  0
  9 39  1  0
  9 40  1  0
 10 24  1  0
 10 11  1  0
 10 41  1  6
 11 12  1  0
 11 42  1  0
 11 43  1  0
 12 22  1  0
 12 13  1  0
 12 44  1  1
 13 14  1  0
 13 24  1  0
 13 45  1  1
 14 15  1  0
 14 46  1  0
 14 47  1  0
 15 16  2  0
 15 48  1  0
 16 22  1  0
 16 17  1  0
 17 18  1  0
 17 49  1  0
 17 50  1  0
 18 19  2  0
 18 20  1  0
 20 21  2  0
 20 51  1  0
 21 22  1  0
 21 52  1  0
 22 23  1  1
 23 53  1  0
 23 54  1  0
 23 55  1  0
 24 25  1  0
 24 56  1  1
 25 29  1  0
 25 26  1  6
 25 27  1  0
 26 57  1  0
 26 58  1  0
 26 59  1  0
 27 28  1  0
 27 60  1  0
 27 61  1  0
 28 29  1  0
 28 62  1  6
 29 30  1  0
 29 63  1  1
 30 64  1  0
 30 65  1  0
 30 66  1  0
M  END
>  <i_m_ct_stereo_status>  (134) 
1

>  <s_m_source_file>  (134) 
/var/tmp/pbs.5076255.sched01/tmpxjfjwjbi/40jwkb7fqh.sdf

>  <i_m_source_file_index>  (134) 
19

>  <i_lp_mmshare_version>  (134) 
48012

>  <i_f3d_flags>  (134) 
0

>  <s_epik_input>  (134) 
Tz1DMVtDSDJdW0NIXT1DKFtDQF0xMltDSDNdKVtDQEBIXShbQ0gzXSlbQ0BIXTNbQ0gyXVtDQF0oW0NIM10pKFtDQEBIXTNbQ0gzXSlbQ0BASF00W0NAQEhdMltDSDJdW0NASF01W0NAQEhdNFtDSDJdW0NIXT1DNltDQEBdNShbQ0gzXSlbQ0hdPVtDSF1DKD1PKVtDSDJdNg==

>  <s_epik_cmdline>  (134) 
J2VwaWtfcHl0aG9uJywgJy1waHQnLCAnMi4wJywgJy1waCcsICc3LjAnLCAnLXRuJywgJzgnLCAnLW1hJywgJzIwMCcsICctaW1hZScsICc8aW5maWxlLm1hZT4nLCAnLW9tYWUnLCAnPG91dGZpbGUubWFlPic=

>  <r_lp_tautomer_probability>  (134) 
1

>  <r_epik_Ionization_Penalty>  (134) 
0

>  <r_epik_Ionization_Penalty_Charging>  (134) 
0

>  <r_epik_Ionization_Penalty_Neutral>  (134) 
0

>  <r_epik_State_Penalty>  (134) 
-0

>  <r_epik_Charging_Adjusted_Penalty>  (134) 
0

>  <i_epik_Tot_Q>  (134) 
0

>  <i_epik_Tot_abs_Q>  (134) 
0

>  <s_lp_Force_Field>  (134) 
OPLS3e

>  <r_lp_Energy>  (134) 
69.3676

>  <b_lp_Chiralities_Consistent>  (134) 
1

>  <s_lp_Variant>  (134) 
44:0-1

>  <s_i_glide_gridfile>  (134) 
pfpi4k_grid

>  <i_i_glide_lignum>  (134) 
19

>  <i_i_glide_rotatable_bonds>  (134) 
0

>  <r_i_docking_score>  (134) 
-2.33561

>  <r_i_glide_ligand_efficiency>  (134) 
-0.0778537

>  <r_i_glide_ligand_efficiency_sa>  (134) 
-0.24191

>  <r_i_glide_ligand_efficiency_ln>  (134) 
-0.530676

>  <r_i_glide_gscore>  (134) 
-2.33561

>  <r_i_glide_lipo>  (134) 
-0.50337

>  <r_i_glide_hbond>  (134) 
0

>  <r_i_glide_metal>  (134) 
-0

>  <r_i_glide_rewards>  (134) 
-0.650562

>  <r_i_glide_evdw>  (134) 
-22.9853

>  <r_i_glide_ecoul>  (134) 
0.0796096

>  <r_i_glide_erotb>  (134) 
0

>  <r_i_glide_esite>  (134) 
-0.0443576

>  <r_i_glide_emodel>  (134) 
-26.2385

>  <r_i_glide_energy>  (134) 
-22.9057

>  <r_i_glide_einternal>  (134) 
0

>  <r_i_glide_intrahb_reward>  (134) 
-0

>  <i_i_glide_confnum>  (134) 
2

>  <i_i_glide_posenum>  (134) 
34

>  <r_i_glide_eff_state_penalty>  (134) 
0

>  <ligand_id>  (134) 
44

>  <original_smiles>  (134) 
CC1C2=CCC(=O)C2(C)C2CC3C(CC=C4CC(=O)C=CC43C)C2C2(C)CC1C2C

>  <smiles>  (134) 
[H]C1=C([H])C2([H])C([H])(C([H])([H])[H])C3([H])C([H])([H])C(C([H])([H])[H])(C3([H])C([H])([H])[H])C3([H])C4([H])C([H])([H])C([H])=C5C([H])([H])C(=O)C([H])=C([H])C5(C([H])([H])[H])C4([H])C([H])([H])C3([H])C2(C([H])([H])[H])C1=O

$$$$
44:0:2
     RDKit          3D

 66 71  0  0  1  0  0  0  0  0999 V2000
    0.6691  -11.0971    2.9569 C   0  0  0  0  0  0  0  0  0  0  0  0
    1.5242   -9.8770    3.3622 C   0  0  2  0  0  0  0  0  0  0  0  0
    0.7196   -8.5426    3.3761 C   0  0  1  0  0  0  0  0  0  0  0  0
   -0.7235   -8.6544    3.8180 C   0  0  0  0  0  0  0  0  0  0  0  0
   -1.1664   -7.5737    4.4442 C   0  0  0  0  0  0  0  0  0  0  0  0
   -0.0653   -6.6376    4.5613 C   0  0  0  0  0  0  0  0  0  0  0  0
   -0.1827   -5.4842    4.9715 O   0  0  0  0  0  0  0  0  0  0  0  0
    1.2847   -7.3112    4.1898 C   0  0  1  0  0  0  0  0  0  0  0  0
    1.8838   -7.6758    5.5759 C   0  0  0  0  0  0  0  0  0  0  0  0
    2.2414   -6.3836    3.3332 C   0  0  1  0  0  0  0  0  0  0  0  0
    2.3737   -4.9202    3.8503 C   0  0  0  0  0  0  0  0  0  0  0  0
    3.7864   -4.4120    3.5275 C   0  0  1  0  0  0  0  0  0  0  0  0
    4.3076   -5.4247    2.5014 C   0  0  2  0  0  0  0  0  0  0  0  0
    3.8746   -5.0848    1.0434 C   0  0  0  0  0  0  0  0  0  0  0  0
    3.3305   -3.6805    0.8171 C   0  0  0  0  0  0  0  0  0  0  0  0
    3.3525   -2.6877    1.7192 C   0  0  0  0  0  0  0  0  0  0  0  0
    2.8781   -1.2794    1.3638 C   0  0  0  0  0  0  0  0  0  0  0  0
    2.1247   -0.5874    2.5005 C   0  0  0  0  0  0  0  0  0  0  0  0
    1.3626    0.3370    2.2281 O   0  0  0  0  0  0  0  0  0  0  0  0
    2.3765   -1.0010    3.8840 C   0  0  0  0  0  0  0  0  0  0  0  0
    3.1919   -2.0347    4.1553 C   0  0  0  0  0  0  0  0  0  0  0  0
    3.9038   -2.9102    3.1236 C   0  0  1  0  0  0  0  0  0  0  0  0
    5.3718   -2.4604    3.1025 C   0  0  0  0  0  0  0  0  0  0  0  0
    3.7416   -6.7730    3.0466 C   0  0  2  0  0  0  0  0  0  0  0  0
    4.1197   -8.0892    2.2528 C   0  0  2  0  0  0  0  0  0  0  0  0
    5.4598   -7.9090    1.5190 C   0  0  0  0  0  0  0  0  0  0  0  0
    3.0363   -8.7661    1.3942 C   0  0  0  0  0  0  0  0  0  0  0  0
    2.7892   -9.8268    2.4791 C   0  0  1  0  0  0  0  0  0  0  0  0
    4.1018   -9.3860    3.1122 C   0  0  1  0  0  0  0  0  0  0  0  0
    5.2661  -10.3773    3.1020 C   0  0  0  0  0  0  0  0  0  0  0  0
    0.2034  -10.9640    1.9829 H   0  0  0  0  0  0  0  0  0  0  0  0
   -0.1076  -11.2953    3.6918 H   0  0  0  0  0  0  0  0  0  0  0  0
    1.2703  -12.0047    2.9116 H   0  0  0  0  0  0  0  0  0  0  0  0
    1.8296  -10.0990    4.3875 H   0  0  0  0  0  0  0  0  0  0  0  0
   -1.3536   -9.4998    3.5901 H   0  0  0  0  0  0  0  0  0  0  0  0
   -2.1596   -7.3919    4.8294 H   0  0  0  0  0  0  0  0  0  0  0  0
    0.5620   -8.2501    2.3430 H   0  0  0  0  0  0  0  0  0  0  0  0
    2.8315   -8.1958    5.5407 H   0  0  0  0  0  0  0  0  0  0  0  0
    1.2055   -8.3120    6.1464 H   0  0  0  0  0  0  0  0  0  0  0  0
    2.0576   -6.7850    6.1820 H   0  0  0  0  0  0  0  0  0  0  0  0
    1.7540   -6.2863    2.3639 H   0  0  0  0  0  0  0  0  0  0  0  0
    1.6107   -4.2925    3.3899 H   0  0  0  0  0  0  0  0  0  0  0  0
    2.2401   -4.8476    4.9279 H   0  0  0  0  0  0  0  0  0  0  0  0
    4.3733   -4.5491    4.4368 H   0  0  0  0  0  0  0  0  0  0  0  0
    5.3968   -5.4296    2.5556 H   0  0  0  0  0  0  0  0  0  0  0  0
    4.7388   -5.1713    0.3866 H   0  0  0  0  0  0  0  0  0  0  0  0
    3.1408   -5.7960    0.6688 H   0  0  0  0  0  0  0  0  0  0  0  0
    2.9666   -3.4840   -0.1814 H   0  0  0  0  0  0  0  0  0  0  0  0
    3.7423   -0.6697    1.0962 H   0  0  0  0  0  0  0  0  0  0  0  0
    2.2283   -1.3372    0.4928 H   0  0  0  0  0  0  0  0  0  0  0  0
    1.9194   -0.4262    4.6761 H   0  0  0  0  0  0  0  0  0  0  0  0
    3.3810   -2.2864    5.1914 H   0  0  0  0  0  0  0  0  0  0  0  0
    5.4611   -1.4040    2.8330 H   0  0  0  0  0  0  0  0  0  0  0  0
    5.9650   -3.0230    2.3791 H   0  0  0  0  0  0  0  0  0  0  0  0
    5.8020   -2.5849    4.0946 H   0  0  0  0  0  0  0  0  0  0  0  0
    4.1961   -6.8906    4.0309 H   0  0  0  0  0  0  0  0  0  0  0  0
    5.7778   -8.8346    1.0394 H   0  0  0  0  0  0  0  0  0  0  0  0
    6.2574   -7.6168    2.2011 H   0  0  0  0  0  0  0  0  0  0  0  0
    5.4062   -7.1943    0.7043 H   0  0  0  0  0  0  0  0  0  0  0  0
    2.2037   -8.1267    1.1124 H   0  0  0  0  0  0  0  0  0  0  0  0
    3.4550   -9.2319    0.4992 H   0  0  0  0  0  0  0  0  0  0  0  0
    2.9728  -10.8033    2.0282 H   0  0  0  0  0  0  0  0  0  0  0  0
    3.9213   -9.1229    4.1405 H   0  0  0  0  0  0  0  0  0  0  0  0
    5.4606  -10.7936    2.1106 H   0  0  0  0  0  0  0  0  0  0  0  0
    5.0672  -11.2217    3.7629 H   0  0  0  0  0  0  0  0  0  0  0  0
    6.1831   -9.9085    3.4594 H   0  0  0  0  0  0  0  0  0  0  0  0
  1  2  1  0
  1 31  1  0
  1 32  1  0
  1 33  1  0
  2 28  1  0
  2 34  1  1
  2  3  1  0
  3 37  1  6
  3  4  1  0
  3  8  1  0
  4 35  1  0
  4  5  2  0
  5 36  1  0
  5  6  1  0
  6  7  2  0
  6  8  1  0
  8  9  1  1
  8 10  1  0
  9 38  1  0
  9 39  1  0
  9 40  1  0
 10 24  1  0
 10 11  1  0
 10 41  1  6
 11 12  1  0
 11 42  1  0
 11 43  1  0
 12 22  1  0
 12 13  1  0
 12 44  1  1
 13 14  1  0
 13 24  1  0
 13 45  1  6
 14 15  1  0
 14 46  1  0
 14 47  1  0
 15 16  2  0
 15 48  1  0
 16 22  1  0
 16 17  1  0
 17 18  1  0
 17 49  1  0
 17 50  1  0
 18 19  2  0
 18 20  1  0
 20 21  2  0
 20 51  1  0
 21 22  1  0
 21 52  1  0
 22 23  1  6
 23 53  1  0
 23 54  1  0
 23 55  1  0
 24 25  1  0
 24 56  1  1
 25 29  1  0
 25 26  1  6
 25 27  1  0
 26 57  1  0
 26 58  1  0
 26 59  1  0
 27 28  1  0
 27 60  1  0
 27 61  1  0
 28 29  1  0
 28 62  1  6
 29 30  1  0
 29 63  1  1
 30 64  1  0
 30 65  1  0
 30 66  1  0
M  END
>  <i_m_ct_stereo_status>  (135) 
1

>  <s_m_source_file>  (135) 
/var/tmp/pbs.5076255.sched01/tmpxjfjwjbi/40jwkb7fqh.sdf

>  <i_m_source_file_index>  (135) 
19

>  <i_lp_mmshare_version>  (135) 
48012

>  <i_f3d_flags>  (135) 
0

>  <s_epik_input>  (135) 
Tz1DMVtDSDJdW0NIXT1DKFtDQF0xMltDSDNdKVtDQEBIXShbQ0gzXSlbQ0BIXTNbQ0gyXVtDQF0oW0NIM10pKFtDQEBIXTNbQ0gzXSlbQ0BASF00W0NAQEhdMltDSDJdW0NASF01W0NAQEhdNFtDSDJdW0NIXT1DNltDQEBdNShbQ0gzXSlbQ0hdPVtDSF1DKD1PKVtDSDJdNg==

>  <s_epik_cmdline>  (135) 
J2VwaWtfcHl0aG9uJywgJy1waHQnLCAnMi4wJywgJy1waCcsICc3LjAnLCAnLXRuJywgJzgnLCAnLW1hJywgJzIwMCcsICctaW1hZScsICc8aW5maWxlLm1hZT4nLCAnLW9tYWUnLCAnPG91dGZpbGUubWFlPic=

>  <r_lp_tautomer_probability>  (135) 
1

>  <r_epik_Ionization_Penalty>  (135) 
0

>  <r_epik_Ionization_Penalty_Charging>  (135) 
0

>  <r_epik_Ionization_Penalty_Neutral>  (135) 
0

>  <r_epik_State_Penalty>  (135) 
-0

>  <r_epik_Charging_Adjusted_Penalty>  (135) 
0

>  <i_epik_Tot_Q>  (135) 
0

>  <i_epik_Tot_abs_Q>  (135) 
0

>  <s_lp_Force_Field>  (135) 
OPLS3e

>  <r_lp_Energy>  (135) 
69.3676

>  <b_lp_Chiralities_Consistent>  (135) 
1

>  <s_lp_Variant>  (135) 
44:0-1

>  <s_i_glide_gridfile>  (135) 
pfpi4k_grid

>  <i_i_glide_lignum>  (135) 
19

>  <i_i_glide_rotatable_bonds>  (135) 
0

>  <r_i_docking_score>  (135) 
-2.14348

>  <r_i_glide_ligand_efficiency>  (135) 
-0.0714492

>  <r_i_glide_ligand_efficiency_sa>  (135) 
-0.222009

>  <r_i_glide_ligand_efficiency_ln>  (135) 
-0.487021

>  <r_i_glide_gscore>  (135) 
-2.14348

>  <r_i_glide_lipo>  (135) 
-0.269613

>  <r_i_glide_hbond>  (135) 
0

>  <r_i_glide_metal>  (135) 
-0

>  <r_i_glide_rewards>  (135) 
-0.650562

>  <r_i_glide_evdw>  (135) 
-23.788

>  <r_i_glide_ecoul>  (135) 
0.104966

>  <r_i_glide_erotb>  (135) 
0

>  <r_i_glide_esite>  (135) 
-0.0496474

>  <r_i_glide_emodel>  (135) 
-26.6797

>  <r_i_glide_energy>  (135) 
-23.683

>  <r_i_glide_einternal>  (135) 
0

>  <r_i_glide_intrahb_reward>  (135) 
-0

>  <i_i_glide_confnum>  (135) 
1

>  <i_i_glide_posenum>  (135) 
10

>  <r_i_glide_eff_state_penalty>  (135) 
0

>  <ligand_id>  (135) 
44

>  <original_smiles>  (135) 
CC1C2=CCC(=O)C2(C)C2CC3C(CC=C4CC(=O)C=CC43C)C2C2(C)CC1C2C

>  <smiles>  (135) 
[H]C1=C([H])C2([H])C([H])(C([H])([H])[H])C3([H])C([H])([H])C(C([H])([H])[H])(C3([H])C([H])([H])[H])C3([H])C4([H])C([H])([H])C([H])=C5C([H])([H])C(=O)C([H])=C([H])C5(C([H])([H])[H])C4([H])C([H])([H])C3([H])C2(C([H])([H])[H])C1=O

$$$$
45:0:0
     RDKit          3D

 77 82  0  0  1  0  0  0  0  0999 V2000
    4.1743   -4.7078    5.9208 C   0  0  0  0  0  0  0  0  0  0  0  0
    4.8621   -6.0917    5.7495 C   0  0  0  0  0  0  0  0  0  0  0  0
    5.7874   -6.2431    6.9821 C   0  0  0  0  0  0  0  0  0  0  0  0
    3.7865   -7.1996    5.8082 C   0  0  0  0  0  0  0  0  0  0  0  0
    3.3925   -7.9159    4.4887 C   0  0  1  0  0  0  0  0  0  0  0  0
    2.0713   -7.4793    3.7741 C   0  0  2  0  0  0  0  0  0  0  0  0
    1.0859   -7.3775    4.7768 O   0  0  0  0  0  0  0  0  0  0  0  0
    1.6707   -8.5265    2.9151 O   0  0  0  0  0  0  0  0  0  0  0  0
    2.5896   -9.5533    2.5138 C   0  0  0  0  0  0  0  0  0  0  0  0
    3.9284   -8.8907    2.1920 C   0  0  1  0  0  0  0  0  0  0  0  0
    4.8182   -9.8422    1.6312 O   0  0  0  0  0  0  0  0  0  0  0  0
    3.5496   -7.9628    1.2361 O   0  0  0  0  0  0  0  0  0  0  0  0
    4.4982   -7.0029    0.8810 C   0  0  0  0  0  0  0  0  0  0  0  0
    4.6947   -6.0173    2.0540 C   0  0  1  0  0  0  0  0  0  0  0  0
    5.8028   -4.9619    1.6462 C   0  0  1  0  0  0  0  0  0  0  0  0
    6.2405   -5.0868    0.3003 O   0  0  0  0  0  0  0  0  0  0  0  0
    5.6130   -3.4668    2.0568 C   0  0  1  0  0  0  0  0  0  0  0  0
    6.5172   -2.6754    1.2996 O   0  0  0  0  0  0  0  0  0  0  0  0
    4.1695   -2.8727    2.1584 C   0  0  1  0  0  0  0  0  0  0  0  0
    3.9845   -1.3638    1.7105 C   0  0  0  0  0  0  0  0  0  0  0  0
    2.5650   -0.7521    1.8596 C   0  0  0  0  0  0  0  0  0  0  0  0
    4.8607   -0.4486    2.5962 C   0  0  0  0  0  0  0  0  0  0  0  0
    4.3822   -1.0667    0.3705 O   0  0  0  0  0  0  0  0  0  0  0  0
    3.9284   -1.6808   -0.7628 C   0  0  0  0  0  0  0  0  0  0  0  0
    3.8427   -1.0916   -1.8317 O   0  0  0  0  0  0  0  0  0  0  0  0
    3.7391   -3.2039   -0.7219 C   0  0  0  0  0  0  0  0  0  0  0  0
    2.6854   -3.7985    0.2342 C   0  0  1  0  0  0  0  0  0  0  0  0
    2.2759   -5.0342   -0.3142 O   0  0  0  0  0  0  0  0  0  0  0  0
    3.0670   -3.9028    1.7753 C   0  0  2  0  0  0  0  0  0  0  0  0
    1.9477   -3.4114    2.4906 O   0  0  0  0  0  0  0  0  0  0  0  0
    3.3457   -5.3162    2.4845 C   0  0  1  0  0  0  0  0  0  0  0  0
    2.0237   -6.1340    2.9241 C   0  0  1  0  0  0  0  0  0  0  0  0
    1.0712   -6.2561    1.8761 O   0  0  0  0  0  0  0  0  0  0  0  0
    5.3029   -6.9058    3.1910 C   0  0  1  0  0  0  0  0  0  0  0  0
    5.7983   -6.1972    4.4974 C   0  0  0  0  0  0  0  0  0  0  0  0
    4.5315   -8.2107    3.4921 C   0  0  1  0  0  0  0  0  0  0  0  0
    5.4948   -9.2236    4.1900 C   0  0  0  0  0  0  0  0  0  0  0  0
    3.9519   -4.5116    6.9701 H   0  0  0  0  0  0  0  0  0  0  0  0
    3.2091   -4.6461    5.4296 H   0  0  0  0  0  0  0  0  0  0  0  0
    4.7961   -3.8856    5.5753 H   0  0  0  0  0  0  0  0  0  0  0  0
    6.3204   -7.2009    6.9610 H   0  0  0  0  0  0  0  0  0  0  0  0
    5.2315   -6.2147    7.9234 H   0  0  0  0  0  0  0  0  0  0  0  0
    6.5465   -5.4551    7.0151 H   0  0  0  0  0  0  0  0  0  0  0  0
    4.1891   -7.9883    6.4528 H   0  0  0  0  0  0  0  0  0  0  0  0
    2.9151   -6.8652    6.3647 H   0  0  0  0  0  0  0  0  0  0  0  0
    3.1070   -8.8855    4.8960 H   0  0  0  0  0  0  0  0  0  0  0  0
    1.0442   -8.2110    5.2245 H   0  0  0  0  0  0  0  0  0  0  0  0
    2.7061  -10.3257    3.2785 H   0  0  0  0  0  0  0  0  0  0  0  0
    2.1965  -10.0363    1.6199 H   0  0  0  0  0  0  0  0  0  0  0  0
    4.3320  -10.5138    1.1582 H   0  0  0  0  0  0  0  0  0  0  0  0
    5.4258   -7.5074    0.6135 H   0  0  0  0  0  0  0  0  0  0  0  0
    4.1709   -6.5197   -0.0371 H   0  0  0  0  0  0  0  0  0  0  0  0
    6.7403   -5.2401    2.1291 H   0  0  0  0  0  0  0  0  0  0  0  0
    5.5288   -4.8676   -0.2824 H   0  0  0  0  0  0  0  0  0  0  0  0
    5.9811   -3.3952    3.0792 H   0  0  0  0  0  0  0  0  0  0  0  0
    6.5672   -1.8202    1.7005 H   0  0  0  0  0  0  0  0  0  0  0  0
    4.0484   -2.7865    3.2392 H   0  0  0  0  0  0  0  0  0  0  0  0
    2.1904   -0.8427    2.8757 H   0  0  0  0  0  0  0  0  0  0  0  0
    1.8367   -1.1958    1.1911 H   0  0  0  0  0  0  0  0  0  0  0  0
    2.5576    0.3105    1.6184 H   0  0  0  0  0  0  0  0  0  0  0  0
    4.6279   -0.5499    3.6550 H   0  0  0  0  0  0  0  0  0  0  0  0
    4.6425    0.5774    2.3376 H   0  0  0  0  0  0  0  0  0  0  0  0
    5.9349   -0.5661    2.4769 H   0  0  0  0  0  0  0  0  0  0  0  0
    3.4467   -3.4656   -1.7397 H   0  0  0  0  0  0  0  0  0  0  0  0
    4.7175   -3.6381   -0.5930 H   0  0  0  0  0  0  0  0  0  0  0  0
    1.8141   -3.1504    0.1202 H   0  0  0  0  0  0  0  0  0  0  0  0
    2.5876   -5.1281   -1.2165 H   0  0  0  0  0  0  0  0  0  0  0  0
    1.6710   -2.5945    2.1041 H   0  0  0  0  0  0  0  0  0  0  0  0
    3.6596   -4.9734    3.4541 H   0  0  0  0  0  0  0  0  0  0  0  0
    1.5365   -5.4480    3.6204 H   0  0  0  0  0  0  0  0  0  0  0  0
    1.3784   -6.9638    1.3251 H   0  0  0  0  0  0  0  0  0  0  0  0
    6.2269   -7.2614    2.7387 H   0  0  0  0  0  0  0  0  0  0  0  0
    6.1809   -5.2096    4.2823 H   0  0  0  0  0  0  0  0  0  0  0  0
    6.7027   -6.7433    4.7943 H   0  0  0  0  0  0  0  0  0  0  0  0
    6.3745   -9.4342    3.5808 H   0  0  0  0  0  0  0  0  0  0  0  0
    5.0004  -10.1738    4.3970 H   0  0  0  0  0  0  0  0  0  0  0  0
    5.8697   -8.8568    5.1419 H   0  0  0  0  0  0  0  0  0  0  0  0
  1  2  1  0
  1 38  1  0
  1 39  1  0
  1 40  1  0
  2 35  1  0
  2  3  1  0
  2  4  1  0
  3 41  1  0
  3 42  1  0
  3 43  1  0
  4  5  1  0
  4 44  1  0
  4 45  1  0
  5 36  1  0
  5  6  1  0
  5 46  1  1
  6 32  1  0
  6  7  1  1
  6  8  1  0
  7 47  1  0
  8  9  1  0
  9 10  1  0
  9 48  1  0
  9 49  1  0
 10 36  1  0
 10 11  1  6
 10 12  1  0
 11 50  1  0
 12 13  1  0
 14 13  1  6
 13 51  1  0
 13 52  1  0
 14 31  1  0
 14 15  1  0
 14 34  1  0
 15 16  1  0
 15 17  1  0
 15 53  1  1
 16 54  1  0
 17 18  1  0
 17 19  1  0
 17 55  1  1
 18 56  1  0
 19 29  1  0
 19 20  1  0
 19 57  1  1
 20 21  1  0
 20 22  1  0
 20 23  1  0
 21 58  1  0
 21 59  1  0
 21 60  1  0
 22 61  1  0
 22 62  1  0
 22 63  1  0
 23 24  1  0
 24 25  2  0
 24 26  1  0
 26 27  1  0
 26 64  1  0
 26 65  1  0
 27 28  1  0
 27 29  1  0
 27 66  1  1
 28 67  1  0
 29 30  1  1
 29 31  1  0
 30 68  1  0
 31 32  1  0
 31 69  1  1
 32 33  1  0
 32 70  1  1
 33 71  1  0
 34 35  1  0
 34 36  1  0
 34 72  1  6
 35 73  1  0
 35 74  1  0
 36 37  1  1
 37 75  1  0
 37 76  1  0
 37 77  1  0
M  END
>  <i_m_ct_stereo_status>  (136) 
1

>  <s_m_source_file>  (136) 
/var/tmp/pbs.5076255.sched01/tmpxjfjwjbi/40jwkb7fqh.sdf

>  <i_m_source_file_index>  (136) 
20

>  <i_lp_mmshare_version>  (136) 
48012

>  <i_f3d_flags>  (136) 
0

>  <s_epik_input>  (136) 
W0NIM11DKFtDSDNdKShbQ0gyXTEpW0NIMl1bQ0BIXTJbQ0BdKFtDSDNdKShbQ0BdKFtDSDJdTzMpKFtPSF0pT1tDSDJdNClbQ0BASF0xW0NAQF0zKFtPSF0pW0NASF0oW09IXSlbQ0BASF0oW0NAQF0yNDUpW0NAQF02KFtPSF0pW0NAQEhdKFtDQEhdKFtPSF0pW0NAQEhdNVtPSF0pQyhbQ0gzXSkoW0NIM10pT0MoPU8pW0NIMl1bQ0BIXTZbT0hd

>  <s_epik_cmdline>  (136) 
J2VwaWtfcHl0aG9uJywgJy1waHQnLCAnMi4wJywgJy1waCcsICc3LjAnLCAnLXRuJywgJzgnLCAnLW1hJywgJzIwMCcsICctaW1hZScsICc8aW5maWxlLm1hZT4nLCAnLW9tYWUnLCAnPG91dGZpbGUubWFlPic=

>  <r_lp_tautomer_probability>  (136) 
1

>  <r_epik_Ionization_Penalty>  (136) 
4.40058e-07

>  <r_epik_Ionization_Penalty_Charging>  (136) 
0

>  <r_epik_Ionization_Penalty_Neutral>  (136) 
4.40058e-07

>  <r_epik_State_Penalty>  (136) 
-0

>  <r_epik_Charging_Adjusted_Penalty>  (136) 
0

>  <i_epik_Tot_Q>  (136) 
0

>  <i_epik_Tot_abs_Q>  (136) 
0

>  <s_epik_Chemistry_Notes>  (136) 
This compound has an ester and may undergo hydrolysis at high or low pH.

>  <s_lp_Force_Field>  (136) 
OPLS3e

>  <r_lp_Energy>  (136) 
146.895

>  <b_lp_Chiralities_Consistent>  (136) 
1

>  <s_lp_Variant>  (136) 
45:0-1

>  <s_i_glide_gridfile>  (136) 
pfpi4k_grid

>  <i_i_glide_lignum>  (136) 
20

>  <i_i_glide_rotatable_bonds>  (136) 
7

>  <r_i_docking_score>  (136) 
-4.23448

>  <r_i_glide_ligand_efficiency>  (136) 
-0.114445

>  <r_i_glide_ligand_efficiency_sa>  (136) 
-0.381358

>  <r_i_glide_ligand_efficiency_ln>  (136) 
-0.91836

>  <r_i_glide_gscore>  (136) 
-4.23448

>  <r_i_glide_lipo>  (136) 
-0.373281

>  <r_i_glide_hbond>  (136) 
0

>  <r_i_glide_metal>  (136) 
-0

>  <r_i_glide_rewards>  (136) 
-0.5

>  <r_i_glide_evdw>  (136) 
-27.8855

>  <r_i_glide_ecoul>  (136) 
-12.5581

>  <r_i_glide_erotb>  (136) 
0

>  <r_i_glide_esite>  (136) 
-0.0832081

>  <r_i_glide_emodel>  (136) 
-55.3741

>  <r_i_glide_energy>  (136) 
-40.4436

>  <r_i_glide_einternal>  (136) 
2.02347

>  <r_i_glide_intrahb_reward>  (136) 
-0.5

>  <i_i_glide_confnum>  (136) 
1

>  <i_i_glide_posenum>  (136) 
3

>  <r_i_glide_eff_state_penalty>  (136) 
0

>  <ligand_id>  (136) 
45

>  <original_smiles>  (136) 
CC1(C)CC2C3(O)OCC4(O)OCC5(C(O)C(O)C6C(C)(C)OC(=O)CC(O)C6(O)C5C3O)C(C1)C24C

>  <smiles>  (136) 
[H]OC1([H])C([H])(O[H])C23C([H])([H])OC4(O[H])C([H])([H])OC(O[H])(C([H])(O[H])C2([H])C2(O[H])C([H])(O[H])C([H])([H])C(=O)OC(C([H])([H])[H])(C([H])([H])[H])C12[H])C1([H])C([H])([H])C(C([H])([H])[H])(C([H])([H])[H])C([H])([H])C3([H])C41C([H])([H])[H]

$$$$
45:0:1
     RDKit          3D

 77 82  0  0  1  0  0  0  0  0999 V2000
    4.3846   -4.3164    5.7594 C   0  0  0  0  0  0  0  0  0  0  0  0
    4.8900   -5.7853    5.7075 C   0  0  0  0  0  0  0  0  0  0  0  0
    5.8606   -5.9218    6.9084 C   0  0  0  0  0  0  0  0  0  0  0  0
    3.7009   -6.7436    5.9326 C   0  0  0  0  0  0  0  0  0  0  0  0
    3.1508   -7.5339    4.7197 C   0  0  1  0  0  0  0  0  0  0  0  0
    1.8531   -7.0117    4.0196 C   0  0  2  0  0  0  0  0  0  0  0  0
    0.9428   -6.6904    5.0489 O   0  0  0  0  0  0  0  0  0  0  0  0
    1.2835   -8.0838    3.2982 O   0  0  0  0  0  0  0  0  0  0  0  0
    2.0493   -9.2514    2.9678 C   0  0  0  0  0  0  0  0  0  0  0  0
    3.4393   -8.7908    2.5170 C   0  0  1  0  0  0  0  0  0  0  0  0
    4.1924   -9.8862    2.0531 O   0  0  0  0  0  0  0  0  0  0  0  0
    3.1319   -7.9344    1.4697 O   0  0  0  0  0  0  0  0  0  0  0  0
    4.1716   -7.1358    0.9824 C   0  0  0  0  0  0  0  0  0  0  0  0
    4.5328   -6.0627    2.0337 C   0  0  1  0  0  0  0  0  0  0  0  0
    5.7343   -5.1909    1.4743 C   0  0  1  0  0  0  0  0  0  0  0  0
    6.0666   -5.4583    0.1200 O   0  0  0  0  0  0  0  0  0  0  0  0
    5.7562   -3.6555    1.7456 C   0  0  1  0  0  0  0  0  0  0  0  0
    6.7390   -3.0555    0.9132 O   0  0  0  0  0  0  0  0  0  0  0  0
    4.3947   -2.8839    1.8228 C   0  0  1  0  0  0  0  0  0  0  0  0
    4.3614   -1.4175    1.2208 C   0  0  0  0  0  0  0  0  0  0  0  0
    3.0323   -0.6238    1.3716 C   0  0  0  0  0  0  0  0  0  0  0  0
    5.3885   -0.5197    1.9465 C   0  0  0  0  0  0  0  0  0  0  0  0
    4.7180   -1.3315   -0.1593 O   0  0  0  0  0  0  0  0  0  0  0  0
    4.0940   -1.9664   -1.1906 C   0  0  0  0  0  0  0  0  0  0  0  0
    3.9982   -1.4706   -2.3045 O   0  0  0  0  0  0  0  0  0  0  0  0
    3.7395   -3.4452   -0.9846 C   0  0  0  0  0  0  0  0  0  0  0  0
    2.6896   -3.8162    0.0812 C   0  0  1  0  0  0  0  0  0  0  0  0
    2.1194   -5.0423   -0.3238 O   0  0  0  0  0  0  0  0  0  0  0  0
    3.1587   -3.8099    1.6038 C   0  0  2  0  0  0  0  0  0  0  0  0
    2.1517   -3.1110    2.3082 O   0  0  0  0  0  0  0  0  0  0  0  0
    3.2998   -5.1668    2.4438 C   0  0  1  0  0  0  0  0  0  0  0  0
    1.9172   -5.7694    3.0307 C   0  0  1  0  0  0  0  0  0  0  0  0
    0.9080   -5.8984    2.0366 O   0  0  0  0  0  0  0  0  0  0  0  0
    5.0928   -6.9000    3.2359 C   0  0  1  0  0  0  0  0  0  0  0  0
    5.7399   -6.1352    4.4392 C   0  0  0  0  0  0  0  0  0  0  0  0
    4.1891   -8.0602    3.7094 C   0  0  1  0  0  0  0  0  0  0  0  0
    5.0655   -9.1085    4.4710 C   0  0  0  0  0  0  0  0  0  0  0  0
    4.2469   -3.9908    6.7900 H   0  0  0  0  0  0  0  0  0  0  0  0
    3.4084   -4.1862    5.3067 H   0  0  0  0  0  0  0  0  0  0  0  0
    5.0775   -3.6166    5.3007 H   0  0  0  0  0  0  0  0  0  0  0  0
    6.2769   -6.9354    6.9684 H   0  0  0  0  0  0  0  0  0  0  0  0
    5.3652   -5.7309    7.8649 H   0  0  0  0  0  0  0  0  0  0  0  0
    6.7070   -5.2310    6.8259 H   0  0  0  0  0  0  0  0  0  0  0  0
    4.0424   -7.5031    6.6444 H   0  0  0  0  0  0  0  0  0  0  0  0
    2.9074   -6.2450    6.4852 H   0  0  0  0  0  0  0  0  0  0  0  0
    2.7787   -8.4159    5.2394 H   0  0  0  0  0  0  0  0  0  0  0  0
    0.8580   -7.4563    5.5996 H   0  0  0  0  0  0  0  0  0  0  0  0
    2.1165   -9.9502    3.8065 H   0  0  0  0  0  0  0  0  0  0  0  0
    1.5524   -9.7762    2.1476 H   0  0  0  0  0  0  0  0  0  0  0  0
    3.6617  -10.4554    1.4993 H   0  0  0  0  0  0  0  0  0  0  0  0
    5.0212   -7.7686    0.7285 H   0  0  0  0  0  0  0  0  0  0  0  0
    3.8476   -6.7060    0.0369 H   0  0  0  0  0  0  0  0  0  0  0  0
    6.6550   -5.5450    1.9386 H   0  0  0  0  0  0  0  0  0  0  0  0
    5.3151   -5.3274   -0.4372 H   0  0  0  0  0  0  0  0  0  0  0  0
    6.1797   -3.5390    2.7404 H   0  0  0  0  0  0  0  0  0  0  0  0
    6.4661   -3.1393    0.0117 H   0  0  0  0  0  0  0  0  0  0  0  0
    4.3375   -2.6733    2.8913 H   0  0  0  0  0  0  0  0  0  0  0  0
    2.7084   -0.5647    2.4075 H   0  0  0  0  0  0  0  0  0  0  0  0
    2.2161   -1.0425    0.7965 H   0  0  0  0  0  0  0  0  0  0  0  0
    3.1340    0.4024    1.0174 H   0  0  0  0  0  0  0  0  0  0  0  0
    5.1999   -0.4720    3.0189 H   0  0  0  0  0  0  0  0  0  0  0  0
    5.3212    0.4963    1.5625 H   0  0  0  0  0  0  0  0  0  0  0  0
    6.4248   -0.8167    1.8118 H   0  0  0  0  0  0  0  0  0  0  0  0
    3.3660   -3.7769   -1.9546 H   0  0  0  0  0  0  0  0  0  0  0  0
    4.6656   -3.9788   -0.8557 H   0  0  0  0  0  0  0  0  0  0  0  0
    1.8830   -3.0898   -0.0545 H   0  0  0  0  0  0  0  0  0  0  0  0
    2.5749   -5.3660   -1.1023 H   0  0  0  0  0  0  0  0  0  0  0  0
    1.9319   -2.3237    1.8321 H   0  0  0  0  0  0  0  0  0  0  0  0
    3.7038   -4.7675    3.3586 H   0  0  0  0  0  0  0  0  0  0  0  0
    1.5494   -4.9595    3.6635 H   0  0  0  0  0  0  0  0  0  0  0  0
    1.1167   -6.6932    1.5642 H   0  0  0  0  0  0  0  0  0  0  0  0
    5.9379   -7.4156    2.7869 H   0  0  0  0  0  0  0  0  0  0  0  0
    6.2177   -5.2295    4.1013 H   0  0  0  0  0  0  0  0  0  0  0  0
    6.5945   -6.7533    4.7529 H   0  0  0  0  0  0  0  0  0  0  0  0
    5.8805   -9.4893    3.8522 H   0  0  0  0  0  0  0  0  0  0  0  0
    4.4773   -9.9688    4.8006 H   0  0  0  0  0  0  0  0  0  0  0  0
    5.5351   -8.6982    5.3602 H   0  0  0  0  0  0  0  0  0  0  0  0
  1  2  1  0
  1 38  1  0
  1 39  1  0
  1 40  1  0
  2 35  1  0
  2  3  1  0
  2  4  1  0
  3 41  1  0
  3 42  1  0
  3 43  1  0
  4  5  1  0
  4 44  1  0
  4 45  1  0
  5 36  1  0
  5  6  1  0
  5 46  1  1
  6 32  1  0
  6  7  1  1
  6  8  1  0
  7 47  1  0
  8  9  1  0
  9 10  1  0
  9 48  1  0
  9 49  1  0
 10 36  1  0
 10 11  1  6
 10 12  1  0
 11 50  1  0
 12 13  1  0
 14 13  1  6
 13 51  1  0
 13 52  1  0
 14 31  1  0
 14 15  1  0
 14 34  1  0
 15 16  1  0
 15 17  1  0
 15 53  1  1
 16 54  1  0
 17 18  1  0
 17 19  1  0
 17 55  1  1
 18 56  1  0
 19 29  1  0
 19 20  1  0
 19 57  1  1
 20 21  1  0
 20 22  1  0
 20 23  1  0
 21 58  1  0
 21 59  1  0
 21 60  1  0
 22 61  1  0
 22 62  1  0
 22 63  1  0
 23 24  1  0
 24 25  2  0
 24 26  1  0
 26 27  1  0
 26 64  1  0
 26 65  1  0
 27 28  1  0
 27 29  1  0
 27 66  1  1
 28 67  1  0
 29 30  1  1
 29 31  1  0
 30 68  1  0
 31 32  1  0
 31 69  1  1
 32 33  1  0
 32 70  1  1
 33 71  1  0
 34 35  1  0
 34 36  1  0
 34 72  1  6
 35 73  1  0
 35 74  1  0
 36 37  1  1
 37 75  1  0
 37 76  1  0
 37 77  1  0
M  END
>  <i_m_ct_stereo_status>  (137) 
1

>  <s_m_source_file>  (137) 
/var/tmp/pbs.5076255.sched01/tmpxjfjwjbi/40jwkb7fqh.sdf

>  <i_m_source_file_index>  (137) 
20

>  <i_lp_mmshare_version>  (137) 
48012

>  <i_f3d_flags>  (137) 
0

>  <s_epik_input>  (137) 
W0NIM11DKFtDSDNdKShbQ0gyXTEpW0NIMl1bQ0BIXTJbQ0BdKFtDSDNdKShbQ0BdKFtDSDJdTzMpKFtPSF0pT1tDSDJdNClbQ0BASF0xW0NAQF0zKFtPSF0pW0NASF0oW09IXSlbQ0BASF0oW0NAQF0yNDUpW0NAQF02KFtPSF0pW0NAQEhdKFtDQEhdKFtPSF0pW0NAQEhdNVtPSF0pQyhbQ0gzXSkoW0NIM10pT0MoPU8pW0NIMl1bQ0BIXTZbT0hd

>  <s_epik_cmdline>  (137) 
J2VwaWtfcHl0aG9uJywgJy1waHQnLCAnMi4wJywgJy1waCcsICc3LjAnLCAnLXRuJywgJzgnLCAnLW1hJywgJzIwMCcsICctaW1hZScsICc8aW5maWxlLm1hZT4nLCAnLW9tYWUnLCAnPG91dGZpbGUubWFlPic=

>  <r_lp_tautomer_probability>  (137) 
1

>  <r_epik_Ionization_Penalty>  (137) 
4.40058e-07

>  <r_epik_Ionization_Penalty_Charging>  (137) 
0

>  <r_epik_Ionization_Penalty_Neutral>  (137) 
4.40058e-07

>  <r_epik_State_Penalty>  (137) 
-0

>  <r_epik_Charging_Adjusted_Penalty>  (137) 
0

>  <i_epik_Tot_Q>  (137) 
0

>  <i_epik_Tot_abs_Q>  (137) 
0

>  <s_epik_Chemistry_Notes>  (137) 
This compound has an ester and may undergo hydrolysis at high or low pH.

>  <s_lp_Force_Field>  (137) 
OPLS3e

>  <r_lp_Energy>  (137) 
146.895

>  <b_lp_Chiralities_Consistent>  (137) 
1

>  <s_lp_Variant>  (137) 
45:0-1

>  <s_i_glide_gridfile>  (137) 
pfpi4k_grid

>  <i_i_glide_lignum>  (137) 
20

>  <i_i_glide_rotatable_bonds>  (137) 
7

>  <r_i_docking_score>  (137) 
-4.05134

>  <r_i_glide_ligand_efficiency>  (137) 
-0.109496

>  <r_i_glide_ligand_efficiency_sa>  (137) 
-0.364863

>  <r_i_glide_ligand_efficiency_ln>  (137) 
-0.87864

>  <r_i_glide_gscore>  (137) 
-4.05134

>  <r_i_glide_lipo>  (137) 
-0.414724

>  <r_i_glide_hbond>  (137) 
0

>  <r_i_glide_metal>  (137) 
-0

>  <r_i_glide_rewards>  (137) 
-0.5

>  <r_i_glide_evdw>  (137) 
-27.7309

>  <r_i_glide_ecoul>  (137) 
-11.3174

>  <r_i_glide_erotb>  (137) 
0

>  <r_i_glide_esite>  (137) 
-0.0524619

>  <r_i_glide_emodel>  (137) 
-53.9332

>  <r_i_glide_energy>  (137) 
-39.0483

>  <r_i_glide_einternal>  (137) 
1.71012

>  <r_i_glide_intrahb_reward>  (137) 
-0.5

>  <i_i_glide_confnum>  (137) 
2

>  <i_i_glide_posenum>  (137) 
25

>  <r_i_glide_eff_state_penalty>  (137) 
0

>  <ligand_id>  (137) 
45

>  <original_smiles>  (137) 
CC1(C)CC2C3(O)OCC4(O)OCC5(C(O)C(O)C6C(C)(C)OC(=O)CC(O)C6(O)C5C3O)C(C1)C24C

>  <smiles>  (137) 
[H]OC1([H])C([H])(O[H])C23C([H])([H])OC4(O[H])C([H])([H])OC(O[H])(C([H])(O[H])C2([H])C2(O[H])C([H])(O[H])C([H])([H])C(=O)OC(C([H])([H])[H])(C([H])([H])[H])C12[H])C1([H])C([H])([H])C(C([H])([H])[H])(C([H])([H])[H])C([H])([H])C3([H])C41C([H])([H])[H]

$$$$
45:0:2
     RDKit          3D

 77 82  0  0  1  0  0  0  0  0999 V2000
    4.3715   -4.3159    5.7707 C   0  0  0  0  0  0  0  0  0  0  0  0
    4.8733   -5.7829    5.7100 C   0  0  0  0  0  0  0  0  0  0  0  0
    5.8408   -5.9213    6.9162 C   0  0  0  0  0  0  0  0  0  0  0  0
    3.6904   -6.7504    5.9380 C   0  0  0  0  0  0  0  0  0  0  0  0
    3.1487   -7.5363    4.7205 C   0  0  1  0  0  0  0  0  0  0  0  0
    1.8469   -7.0093    4.0225 C   0  0  2  0  0  0  0  0  0  0  0  0
    0.9290   -6.6890    5.0532 O   0  0  0  0  0  0  0  0  0  0  0  0
    1.2902   -8.0817    3.2970 O   0  0  0  0  0  0  0  0  0  0  0  0
    2.0414   -9.2511    2.9703 C   0  0  0  0  0  0  0  0  0  0  0  0
    3.4350   -8.7936    2.5241 C   0  0  1  0  0  0  0  0  0  0  0  0
    4.1990   -9.8913    2.0582 O   0  0  0  0  0  0  0  0  0  0  0  0
    3.1371   -7.9303    1.4782 O   0  0  0  0  0  0  0  0  0  0  0  0
    4.1747   -7.1354    0.9898 C   0  0  0  0  0  0  0  0  0  0  0  0
    4.5267   -6.0650    2.0470 C   0  0  1  0  0  0  0  0  0  0  0  0
    5.7308   -5.1998    1.5000 C   0  0  1  0  0  0  0  0  0  0  0  0
    6.0773   -5.4781    0.1593 O   0  0  0  0  0  0  0  0  0  0  0  0
    5.7525   -3.6594    1.7594 C   0  0  1  0  0  0  0  0  0  0  0  0
    6.7140   -3.0722    0.8986 O   0  0  0  0  0  0  0  0  0  0  0  0
    4.3968   -2.8789    1.8328 C   0  0  1  0  0  0  0  0  0  0  0  0
    4.3586   -1.4112    1.2367 C   0  0  0  0  0  0  0  0  0  0  0  0
    3.0327   -0.6212    1.3835 C   0  0  0  0  0  0  0  0  0  0  0  0
    5.3878   -0.5189    1.9623 C   0  0  0  0  0  0  0  0  0  0  0  0
    4.7061   -1.3223   -0.1437 O   0  0  0  0  0  0  0  0  0  0  0  0
    4.1057   -1.9616   -1.1790 C   0  0  0  0  0  0  0  0  0  0  0  0
    4.0073   -1.4730   -2.3069 O   0  0  0  0  0  0  0  0  0  0  0  0
    3.7578   -3.4375   -0.9684 C   0  0  0  0  0  0  0  0  0  0  0  0
    2.6973   -3.8067    0.1004 C   0  0  1  0  0  0  0  0  0  0  0  0
    2.1489   -5.0542   -0.2428 O   0  0  0  0  0  0  0  0  0  0  0  0
    3.1641   -3.8084    1.6097 C   0  0  2  0  0  0  0  0  0  0  0  0
    2.1619   -3.1083    2.3226 O   0  0  0  0  0  0  0  0  0  0  0  0
    3.2955   -5.1670    2.4594 C   0  0  1  0  0  0  0  0  0  0  0  0
    1.9057   -5.7676    3.0276 C   0  0  1  0  0  0  0  0  0  0  0  0
    0.8918   -5.9101    2.0449 O   0  0  0  0  0  0  0  0  0  0  0  0
    5.0827   -6.8967    3.2475 C   0  0  1  0  0  0  0  0  0  0  0  0
    5.7379   -6.1496    4.4552 C   0  0  0  0  0  0  0  0  0  0  0  0
    4.1797   -8.0550    3.7137 C   0  0  1  0  0  0  0  0  0  0  0  0
    5.0530   -9.1093    4.4776 C   0  0  0  0  0  0  0  0  0  0  0  0
    4.2301   -3.9946    6.8016 H   0  0  0  0  0  0  0  0  0  0  0  0
    3.3987   -4.1906    5.3160 H   0  0  0  0  0  0  0  0  0  0  0  0
    5.0670   -3.6198    5.3155 H   0  0  0  0  0  0  0  0  0  0  0  0
    6.2611   -6.9375    6.9822 H   0  0  0  0  0  0  0  0  0  0  0  0
    5.3464   -5.7324    7.8767 H   0  0  0  0  0  0  0  0  0  0  0  0
    6.6933   -5.2344    6.8389 H   0  0  0  0  0  0  0  0  0  0  0  0
    4.0304   -7.5045    6.6569 H   0  0  0  0  0  0  0  0  0  0  0  0
    2.8928   -6.2480    6.4839 H   0  0  0  0  0  0  0  0  0  0  0  0
    2.7698   -8.4152    5.2411 H   0  0  0  0  0  0  0  0  0  0  0  0
    0.8395   -7.4612    5.5933 H   0  0  0  0  0  0  0  0  0  0  0  0
    2.1103   -9.9501    3.8083 H   0  0  0  0  0  0  0  0  0  0  0  0
    1.5512   -9.7729    2.1499 H   0  0  0  0  0  0  0  0  0  0  0  0
    3.6705  -10.4540    1.4977 H   0  0  0  0  0  0  0  0  0  0  0  0
    5.0240   -7.7724    0.7460 H   0  0  0  0  0  0  0  0  0  0  0  0
    3.8586   -6.7106    0.0413 H   0  0  0  0  0  0  0  0  0  0  0  0
    6.6513   -5.5496    1.9675 H   0  0  0  0  0  0  0  0  0  0  0  0
    5.3570   -5.2734   -0.4221 H   0  0  0  0  0  0  0  0  0  0  0  0
    6.1766   -3.5351    2.7533 H   0  0  0  0  0  0  0  0  0  0  0  0
    7.5322   -3.5323    1.0223 H   0  0  0  0  0  0  0  0  0  0  0  0
    4.3375   -2.6732    2.9033 H   0  0  0  0  0  0  0  0  0  0  0  0
    2.7060   -0.5651    2.4176 H   0  0  0  0  0  0  0  0  0  0  0  0
    2.2171   -1.0402    0.8081 H   0  0  0  0  0  0  0  0  0  0  0  0
    3.1338    0.4030    1.0311 H   0  0  0  0  0  0  0  0  0  0  0  0
    5.1935   -0.4720    3.0323 H   0  0  0  0  0  0  0  0  0  0  0  0
    5.3174    0.4947    1.5778 H   0  0  0  0  0  0  0  0  0  0  0  0
    6.4221   -0.8204    1.8267 H   0  0  0  0  0  0  0  0  0  0  0  0
    3.3786   -3.7751   -1.9342 H   0  0  0  0  0  0  0  0  0  0  0  0
    4.6822   -3.9738   -0.8379 H   0  0  0  0  0  0  0  0  0  0  0  0
    1.8866   -3.0911   -0.0495 H   0  0  0  0  0  0  0  0  0  0  0  0
    2.5536   -5.3548   -1.0502 H   0  0  0  0  0  0  0  0  0  0  0  0
    1.9214   -2.3355    1.8285 H   0  0  0  0  0  0  0  0  0  0  0  0
    3.6977   -4.7662    3.3719 H   0  0  0  0  0  0  0  0  0  0  0  0
    1.5390   -4.9599    3.6672 H   0  0  0  0  0  0  0  0  0  0  0  0
    1.1180   -6.7050    1.5722 H   0  0  0  0  0  0  0  0  0  0  0  0
    5.9317   -7.4122    2.8001 H   0  0  0  0  0  0  0  0  0  0  0  0
    6.2027   -5.2337    4.1178 H   0  0  0  0  0  0  0  0  0  0  0  0
    6.5915   -6.7539    4.7717 H   0  0  0  0  0  0  0  0  0  0  0  0
    5.8722   -9.4890    3.8620 H   0  0  0  0  0  0  0  0  0  0  0  0
    4.4661   -9.9712    4.8068 H   0  0  0  0  0  0  0  0  0  0  0  0
    5.5226   -8.7019    5.3704 H   0  0  0  0  0  0  0  0  0  0  0  0
  1  2  1  0
  1 38  1  0
  1 39  1  0
  1 40  1  0
  2 35  1  0
  2  3  1  0
  2  4  1  0
  3 41  1  0
  3 42  1  0
  3 43  1  0
  4  5  1  0
  4 44  1  0
  4 45  1  0
  5 36  1  0
  5  6  1  0
  5 46  1  1
  6 32  1  0
  6  7  1  1
  6  8  1  0
  7 47  1  0
  8  9  1  0
  9 10  1  0
  9 48  1  0
  9 49  1  0
 10 36  1  0
 10 11  1  6
 10 12  1  0
 11 50  1  0
 12 13  1  0
 14 13  1  6
 13 51  1  0
 13 52  1  0
 14 31  1  0
 14 15  1  0
 14 34  1  0
 15 16  1  0
 15 17  1  0
 15 53  1  1
 16 54  1  0
 17 18  1  0
 17 19  1  0
 17 55  1  1
 18 56  1  0
 19 29  1  0
 19 20  1  0
 19 57  1  1
 20 21  1  0
 20 22  1  0
 20 23  1  0
 21 58  1  0
 21 59  1  0
 21 60  1  0
 22 61  1  0
 22 62  1  0
 22 63  1  0
 23 24  1  0
 24 25  2  0
 24 26  1  0
 26 27  1  0
 26 64  1  0
 26 65  1  0
 27 28  1  0
 27 29  1  0
 27 66  1  1
 28 67  1  0
 29 30  1  1
 29 31  1  0
 30 68  1  0
 31 32  1  0
 31 69  1  1
 32 33  1  0
 32 70  1  1
 33 71  1  0
 34 35  1  0
 34 36  1  0
 34 72  1  6
 35 73  1  0
 35 74  1  0
 36 37  1  1
 37 75  1  0
 37 76  1  0
 37 77  1  0
M  END
>  <i_m_ct_stereo_status>  (138) 
1

>  <s_m_source_file>  (138) 
/var/tmp/pbs.5076255.sched01/tmpxjfjwjbi/40jwkb7fqh.sdf

>  <i_m_source_file_index>  (138) 
20

>  <i_lp_mmshare_version>  (138) 
48012

>  <i_f3d_flags>  (138) 
0

>  <s_epik_input>  (138) 
W0NIM11DKFtDSDNdKShbQ0gyXTEpW0NIMl1bQ0BIXTJbQ0BdKFtDSDNdKShbQ0BdKFtDSDJdTzMpKFtPSF0pT1tDSDJdNClbQ0BASF0xW0NAQF0zKFtPSF0pW0NASF0oW09IXSlbQ0BASF0oW0NAQF0yNDUpW0NAQF02KFtPSF0pW0NAQEhdKFtDQEhdKFtPSF0pW0NAQEhdNVtPSF0pQyhbQ0gzXSkoW0NIM10pT0MoPU8pW0NIMl1bQ0BIXTZbT0hd

>  <s_epik_cmdline>  (138) 
J2VwaWtfcHl0aG9uJywgJy1waHQnLCAnMi4wJywgJy1waCcsICc3LjAnLCAnLXRuJywgJzgnLCAnLW1hJywgJzIwMCcsICctaW1hZScsICc8aW5maWxlLm1hZT4nLCAnLW9tYWUnLCAnPG91dGZpbGUubWFlPic=

>  <r_lp_tautomer_probability>  (138) 
1

>  <r_epik_Ionization_Penalty>  (138) 
4.40058e-07

>  <r_epik_Ionization_Penalty_Charging>  (138) 
0

>  <r_epik_Ionization_Penalty_Neutral>  (138) 
4.40058e-07

>  <r_epik_State_Penalty>  (138) 
-0

>  <r_epik_Charging_Adjusted_Penalty>  (138) 
0

>  <i_epik_Tot_Q>  (138) 
0

>  <i_epik_Tot_abs_Q>  (138) 
0

>  <s_epik_Chemistry_Notes>  (138) 
This compound has an ester and may undergo hydrolysis at high or low pH.

>  <s_lp_Force_Field>  (138) 
OPLS3e

>  <r_lp_Energy>  (138) 
146.895

>  <b_lp_Chiralities_Consistent>  (138) 
1

>  <s_lp_Variant>  (138) 
45:0-1

>  <s_i_glide_gridfile>  (138) 
pfpi4k_grid

>  <i_i_glide_lignum>  (138) 
20

>  <i_i_glide_rotatable_bonds>  (138) 
7

>  <r_i_docking_score>  (138) 
-3.98872

>  <r_i_glide_ligand_efficiency>  (138) 
-0.107803

>  <r_i_glide_ligand_efficiency_sa>  (138) 
-0.359224

>  <r_i_glide_ligand_efficiency_ln>  (138) 
-0.865059

>  <r_i_glide_gscore>  (138) 
-3.98872

>  <r_i_glide_lipo>  (138) 
-0.41126

>  <r_i_glide_hbond>  (138) 
0

>  <r_i_glide_metal>  (138) 
-0

>  <r_i_glide_rewards>  (138) 
-0.5

>  <r_i_glide_evdw>  (138) 
-28.0687

>  <r_i_glide_ecoul>  (138) 
-10.815

>  <r_i_glide_erotb>  (138) 
0

>  <r_i_glide_esite>  (138) 
-0.0517694

>  <r_i_glide_emodel>  (138) 
-53.4066

>  <r_i_glide_energy>  (138) 
-38.8837

>  <r_i_glide_einternal>  (138) 
2.04887

>  <r_i_glide_intrahb_reward>  (138) 
-0.5

>  <i_i_glide_confnum>  (138) 
1

>  <i_i_glide_posenum>  (138) 
21

>  <r_i_glide_eff_state_penalty>  (138) 
0

>  <ligand_id>  (138) 
45

>  <original_smiles>  (138) 
CC1(C)CC2C3(O)OCC4(O)OCC5(C(O)C(O)C6C(C)(C)OC(=O)CC(O)C6(O)C5C3O)C(C1)C24C

>  <smiles>  (138) 
[H]OC1([H])C([H])(O[H])C23C([H])([H])OC4(O[H])C([H])([H])OC(O[H])(C([H])(O[H])C2([H])C2(O[H])C([H])(O[H])C([H])([H])C(=O)OC(C([H])([H])[H])(C([H])([H])[H])C12[H])C1([H])C([H])([H])C(C([H])([H])[H])(C([H])([H])[H])C([H])([H])C3([H])C41C([H])([H])[H]

$$$$
46:0:0
     RDKit          3D

 74 79  0  0  1  0  0  0  0  0999 V2000
    2.2898    0.5397    1.9541 C   0  0  0  0  0  0  0  0  0  0  0  0
    0.9483    0.4517    2.7152 C   0  0  2  0  0  0  0  0  0  0  0  0
   -0.1389    1.5887    2.4056 C   0  0  0  0  0  0  0  0  0  0  0  0
   -1.3048    1.9943    3.4242 C   0  0  0  0  0  0  0  0  0  0  0  0
   -0.8457    2.0101    4.9164 C   0  0  1  0  0  0  0  0  0  0  0  0
   -1.5843    2.6347    6.1624 C   0  0  0  0  0  0  0  0  0  0  0  0
   -0.8564    2.3814    7.5834 C   0  0  0  0  0  0  0  0  0  0  0  0
    0.7454    2.3324    7.8558 C   0  0  1  0  0  0  0  0  0  0  0  0
    1.0103    1.9568    9.3179 C   0  0  0  0  0  0  0  0  0  0  0  0
    1.6185    1.4320    6.9119 C   0  0  2  0  0  0  0  0  0  0  0  0
    1.9710   -0.0567    6.7012 C   0  0  2  0  0  0  0  0  0  0  0  0
    3.2512   -0.7080    7.1586 C   0  0  1  0  0  0  0  0  0  0  0  0
    3.1352   -1.7023    8.3273 C   0  0  0  0  0  0  0  0  0  0  0  0
    3.7576   -1.3349    5.8482 C   0  0  1  0  0  0  0  0  0  0  0  0
    3.0811   -2.5371    5.6156 O   0  0  0  0  0  0  0  0  0  0  0  0
    3.5605   -3.3123    4.6084 C   0  0  0  0  0  0  0  0  0  0  0  0
    4.6146   -3.1063    3.9866 O   0  0  0  0  0  0  0  0  0  0  0  0
    2.6608   -4.4508    4.3388 C   0  0  0  0  0  0  0  0  0  0  0  0
    2.9248   -5.3898    3.4207 C   0  0  0  0  0  0  0  0  0  0  0  0
    2.0364   -6.5211    3.0771 C   0  0  0  0  0  0  0  0  0  0  0  0
    2.5422   -7.6355    2.3746 C   0  0  0  0  0  0  0  0  0  0  0  0
    1.7110   -8.7403    2.0801 C   0  0  0  0  0  0  0  0  0  0  0  0
    0.3640   -8.7350    2.4812 C   0  0  0  0  0  0  0  0  0  0  0  0
   -0.1494   -7.6299    3.1855 C   0  0  0  0  0  0  0  0  0  0  0  0
   -1.7985   -7.5982    3.6707 Cl  0  0  0  0  0  0  0  0  0  0  0  0
    0.6814   -6.5375    3.4882 C   0  0  0  0  0  0  0  0  0  0  0  0
    3.4427   -0.3789    4.8651 O   0  0  0  0  0  0  0  0  0  0  0  0
    2.2132    0.3049    5.1806 C   0  0  1  0  0  0  0  0  0  0  0  0
    1.0339    0.0002    4.1815 C   0  0  0  0  0  0  0  0  0  0  0  0
   -0.1207   -0.5483    4.5768 C   0  0  0  0  0  0  0  0  0  0  0  0
   -0.9779    0.4313    5.2210 C   0  0  0  0  0  0  0  0  0  0  0  0
   -1.8934    0.0125    5.9379 O   0  0  0  0  0  0  0  0  0  0  0  0
    2.4213    1.7836    5.6565 C   0  0  2  0  0  0  0  0  0  0  0  0
    3.7520    2.1236    5.9797 O   0  0  0  0  0  0  0  0  0  0  0  0
    1.8948    2.9822    4.9109 C   0  0  1  0  0  0  0  0  0  0  0  0
    2.6622    3.4377    3.6485 C   0  0  0  0  0  0  0  0  0  0  0  0
    0.3602    3.0960    4.8175 C   0  0  0  0  0  0  0  0  0  0  0  0
    2.6545   -0.4574    1.6964 H   0  0  0  0  0  0  0  0  0  0  0  0
    3.0848    1.0193    2.5224 H   0  0  0  0  0  0  0  0  0  0  0  0
    2.1687    1.0726    1.0121 H   0  0  0  0  0  0  0  0  0  0  0  0
    0.5049   -0.4064    2.2056 H   0  0  0  0  0  0  0  0  0  0  0  0
    0.3816    2.5009    2.1236 H   0  0  0  0  0  0  0  0  0  0  0  0
   -0.6221    1.3235    1.4620 H   0  0  0  0  0  0  0  0  0  0  0  0
   -1.6974    2.9710    3.1339 H   0  0  0  0  0  0  0  0  0  0  0  0
   -2.1643    1.3392    3.2750 H   0  0  0  0  0  0  0  0  0  0  0  0
   -1.7779    3.7002    6.0197 H   0  0  0  0  0  0  0  0  0  0  0  0
   -2.6100    2.2681    6.2323 H   0  0  0  0  0  0  0  0  0  0  0  0
   -1.2641    3.1354    8.2591 H   0  0  0  0  0  0  0  0  0  0  0  0
   -1.2701    1.4549    7.9844 H   0  0  0  0  0  0  0  0  0  0  0  0
    1.0950    3.3578    7.7395 H   0  0  0  0  0  0  0  0  0  0  0  0
    0.6791    0.9434    9.5348 H   0  0  0  0  0  0  0  0  0  0  0  0
    0.4974    2.6302   10.0044 H   0  0  0  0  0  0  0  0  0  0  0  0
    2.0737    2.0119    9.5366 H   0  0  0  0  0  0  0  0  0  0  0  0
    0.7138    1.1927    6.5212 H   0  0  0  0  0  0  0  0  0  0  0  0
    1.1170   -0.7245    6.8561 H   0  0  0  0  0  0  0  0  0  0  0  0
    3.9768    0.0460    7.4598 H   0  0  0  0  0  0  0  0  0  0  0  0
    2.4072   -2.4917    8.1376 H   0  0  0  0  0  0  0  0  0  0  0  0
    2.8255   -1.1856    9.2400 H   0  0  0  0  0  0  0  0  0  0  0  0
    4.0991   -2.1735    8.5418 H   0  0  0  0  0  0  0  0  0  0  0  0
    4.8395   -1.5097    5.8692 H   0  0  0  0  0  0  0  0  0  0  0  0
    1.7524   -4.4876    4.9301 H   0  0  0  0  0  0  0  0  0  0  0  0
    3.8470   -5.3296    2.8508 H   0  0  0  0  0  0  0  0  0  0  0  0
    3.5762   -7.6627    2.0558 H   0  0  0  0  0  0  0  0  0  0  0  0
    2.0990   -9.5963    1.5362 H   0  0  0  0  0  0  0  0  0  0  0  0
   -0.2814   -9.5752    2.2461 H   0  0  0  0  0  0  0  0  0  0  0  0
    0.2528   -5.7102    4.0270 H   0  0  0  0  0  0  0  0  0  0  0  0
   -0.7540   -0.9732    3.8047 H   0  0  0  0  0  0  0  0  0  0  0  0
    4.1267    1.3624    6.4071 H   0  0  0  0  0  0  0  0  0  0  0  0
    2.1596    3.8139    5.5715 H   0  0  0  0  0  0  0  0  0  0  0  0
    2.3134    3.0004    2.7247 H   0  0  0  0  0  0  0  0  0  0  0  0
    3.7316    3.2531    3.7153 H   0  0  0  0  0  0  0  0  0  0  0  0
    2.5393    4.5120    3.5190 H   0  0  0  0  0  0  0  0  0  0  0  0
    0.1858    3.7357    3.9525 H   0  0  0  0  0  0  0  0  0  0  0  0
    0.2014    3.8684    5.5702 H   0  0  0  0  0  0  0  0  0  0  0  0
  1  2  1  0
  1 38  1  0
  1 39  1  0
  1 40  1  0
  2 29  1  0
  2  3  1  0
  2 41  1  6
  3  4  1  0
  3 42  1  0
  3 43  1  0
  5  4  1  6
  4 44  1  0
  4 45  1  0
  5 31  1  0
  5 37  1  0
  5  6  1  0
  6  7  1  0
  6 46  1  0
  6 47  1  0
  7  8  1  0
  7 48  1  0
  7 49  1  0
  8  9  1  0
  8 10  1  0
  8 50  1  1
  9 51  1  0
  9 52  1  0
  9 53  1  0
 10 33  1  0
 10 11  1  0
 10 54  1  1
 11 28  1  0
 11 12  1  0
 11 55  1  6
 12 13  1  0
 12 14  1  0
 12 56  1  1
 13 57  1  0
 13 58  1  0
 13 59  1  0
 14 15  1  0
 14 27  1  0
 14 60  1  1
 15 16  1  0
 16 17  2  0
 16 18  1  0
 18 19  2  3
 18 61  1  0
 19 20  1  0
 19 62  1  0
 20 26  1  0
 20 21  2  0
 21 22  1  0
 21 63  1  0
 22 23  2  0
 22 64  1  0
 23 24  1  0
 23 65  1  0
 24 25  1  0
 24 26  2  0
 26 66  1  0
 28 27  1  6
 28 29  1  0
 28 33  1  0
 29 30  2  0
 30 31  1  0
 30 67  1  0
 31 32  2  0
 33 34  1  1
 33 35  1  0
 34 68  1  0
 35 36  1  0
 35 37  1  0
 35 69  1  1
 36 70  1  0
 36 71  1  0
 36 72  1  0
 37 73  1  0
 37 74  1  0
M  END
>  <i_m_ct_stereo_status>  (139) 
1

>  <s_m_source_file>  (139) 
/var/tmp/pbs.5076255.sched01/tmpxjfjwjbi/40jwkb7fqh.sdf

>  <i_m_source_file_index>  (139) 
21

>  <i_lp_mmshare_version>  (139) 
48012

>  <i_f3d_flags>  (139) 
0

>  <s_epik_input>  (139) 
QzEyM1tDSDJdW0NIMl1bQ0BASF0oW0NIM10pQyg9W0NIXUMyPU8pW0NAQF00NVtDQEhdKFtDQEBIXShbQ0BIXShbQ0gzXSlbQ0gyXVtDSDJdMSlbQ0BdNShbT0hdKVtDQEBIXShbQ0gzXSlbQ0gyXTMpW0NAQEhdKFtDSDNdKVtDQEhdKE80KU9DKD1PKS9bQ0hdPVtDSF0vYzZbY0hdW2NIXVtjSF1jKENsKVtjSF02

>  <s_epik_cmdline>  (139) 
J2VwaWtfcHl0aG9uJywgJy1waHQnLCAnMi4wJywgJy1waCcsICc3LjAnLCAnLXRuJywgJzgnLCAnLW1hJywgJzIwMCcsICctaW1hZScsICc8aW5maWxlLm1hZT4nLCAnLW9tYWUnLCAnPG91dGZpbGUubWFlPic=

>  <r_lp_tautomer_probability>  (139) 
1

>  <r_epik_Ionization_Penalty>  (139) 
3.47349e-08

>  <r_epik_Ionization_Penalty_Charging>  (139) 
0

>  <r_epik_Ionization_Penalty_Neutral>  (139) 
3.47349e-08

>  <r_epik_State_Penalty>  (139) 
-0

>  <r_epik_Charging_Adjusted_Penalty>  (139) 
0

>  <i_epik_Tot_Q>  (139) 
0

>  <i_epik_Tot_abs_Q>  (139) 
0

>  <s_epik_Chemistry_Notes>  (139) 
This compound has an ester and may undergo hydrolysis at high or low pH. This compound contains an acetal/aminal-like group ( X-CH(R)-Y where X, Y are N, S, or O) that may be acid/base labile, releasing an aldehyde.

>  <s_lp_Force_Field>  (139) 
OPLS3e

>  <r_lp_Energy>  (139) 
247.121

>  <b_lp_Chiralities_Consistent>  (139) 
1

>  <s_lp_Variant>  (139) 
46:0-1

>  <s_i_glide_gridfile>  (139) 
pfpi4k_grid

>  <i_i_glide_lignum>  (139) 
21

>  <i_i_glide_rotatable_bonds>  (139) 
5

>  <r_i_docking_score>  (139) 
-2.23129

>  <r_i_glide_ligand_efficiency>  (139) 
-0.0603051

>  <r_i_glide_ligand_efficiency_sa>  (139) 
-0.20095

>  <r_i_glide_ligand_efficiency_ln>  (139) 
-0.483914

>  <r_i_glide_gscore>  (139) 
-2.23129

>  <r_i_glide_lipo>  (139) 
-0.045921

>  <r_i_glide_hbond>  (139) 
-0.13421

>  <r_i_glide_metal>  (139) 
-0

>  <r_i_glide_rewards>  (139) 
0

>  <r_i_glide_evdw>  (139) 
-32.0586

>  <r_i_glide_ecoul>  (139) 
-4.30416

>  <r_i_glide_erotb>  (139) 
0.223941

>  <r_i_glide_esite>  (139) 
-0.0265472

>  <r_i_glide_emodel>  (139) 
-40.6028

>  <r_i_glide_energy>  (139) 
-36.3627

>  <r_i_glide_einternal>  (139) 
1.58699

>  <r_i_glide_intrahb_reward>  (139) 
-0

>  <i_i_glide_confnum>  (139) 
1

>  <i_i_glide_posenum>  (139) 
22

>  <r_i_glide_eff_state_penalty>  (139) 
0

>  <ligand_id>  (139) 
46

>  <original_smiles>  (139) 
CC1CCC23CCC(C)C4C5C(C)C(OC(=O)C=Cc6cccc(Cl)c6)OC5(C1=CC2=O)C4(O)C(C)C3

>  <smiles>  (139) 
[H]OC12C34OC([H])(OC(=O)C([H])=C([H])c5c([H])c([H])c([H])c(Cl)c5[H])C([H])(C([H])([H])[H])C3([H])C1([H])C([H])(C([H])([H])[H])C([H])([H])C([H])([H])C1(C(=O)C([H])=C4C([H])(C([H])([H])[H])C([H])([H])C1([H])[H])C([H])([H])C2([H])C([H])([H])[H]

$$$$
46:0:1
     RDKit          3D

 74 79  0  0  1  0  0  0  0  0999 V2000
    5.3294    2.7008    6.4839 C   0  0  0  0  0  0  0  0  0  0  0  0
    4.2202    3.6046    5.8908 C   0  0  2  0  0  0  0  0  0  0  0  0
    3.9852    5.0191    6.6093 C   0  0  0  0  0  0  0  0  0  0  0  0
    2.6125    5.8245    6.5191 C   0  0  0  0  0  0  0  0  0  0  0  0
    1.3574    4.9043    6.5970 C   0  0  1  0  0  0  0  0  0  0  0  0
   -0.1437    5.3137    6.8544 C   0  0  0  0  0  0  0  0  0  0  0  0
   -1.1988    4.1005    6.7660 C   0  0  0  0  0  0  0  0  0  0  0  0
   -0.9757    2.5689    7.2498 C   0  0  1  0  0  0  0  0  0  0  0  0
   -2.1888    1.7309    6.8810 C   0  0  0  0  0  0  0  0  0  0  0  0
    0.3189    1.8652    6.7581 C   0  0  2  0  0  0  0  0  0  0  0  0
    0.8941    1.1661    5.4964 C   0  0  2  0  0  0  0  0  0  0  0  0
    0.9771   -0.3051    5.2925 C   0  0  1  0  0  0  0  0  0  0  0  0
    0.0276   -0.9142    4.2425 C   0  0  0  0  0  0  0  0  0  0  0  0
    2.4747   -0.4908    4.9665 C   0  0  1  0  0  0  0  0  0  0  0  0
    2.6769   -0.2516    3.6069 O   0  0  0  0  0  0  0  0  0  0  0  0
    3.9586   -0.3325    3.1690 C   0  0  0  0  0  0  0  0  0  0  0  0
    4.9731   -0.0443    3.8227 O   0  0  0  0  0  0  0  0  0  0  0  0
    4.0010   -0.8821    1.7936 C   0  0  0  0  0  0  0  0  0  0  0  0
    5.1499   -1.2550    1.1984 C   0  0  0  0  0  0  0  0  0  0  0  0
    5.2415   -1.8238   -0.1601 C   0  0  0  0  0  0  0  0  0  0  0  0
    6.4715   -2.3626   -0.6084 C   0  0  0  0  0  0  0  0  0  0  0  0
    6.5776   -2.9438   -1.8973 C   0  0  0  0  0  0  0  0  0  0  0  0
    5.4437   -3.0066   -2.7368 C   0  0  0  0  0  0  0  0  0  0  0  0
    4.2133   -2.4755   -2.3018 C   0  0  0  0  0  0  0  0  0  0  0  0
    2.8430   -2.5335   -3.3395 Cl  0  0  0  0  0  0  0  0  0  0  0  0
    4.1130   -1.8957   -1.0220 C   0  0  0  0  0  0  0  0  0  0  0  0
    3.1249    0.4191    5.8233 O   0  0  0  0  0  0  0  0  0  0  0  0
    2.3274    1.5818    6.0143 C   0  0  1  0  0  0  0  0  0  0  0  0
    2.9330    2.8982    5.4114 C   0  0  0  0  0  0  0  0  0  0  0  0
    2.3486    3.6110    4.4445 C   0  0  0  0  0  0  0  0  0  0  0  0
    1.3044    4.4440    5.0551 C   0  0  0  0  0  0  0  0  0  0  0  0
    0.4300    4.9215    4.3148 O   0  0  0  0  0  0  0  0  0  0  0  0
    1.6846    1.6969    7.4380 C   0  0  2  0  0  0  0  0  0  0  0  0
    1.7034    0.4895    8.1882 O   0  0  0  0  0  0  0  0  0  0  0  0
    2.0084    2.7491    8.4474 C   0  0  1  0  0  0  0  0  0  0  0  0
    3.3516    2.6357    9.2142 C   0  0  0  0  0  0  0  0  0  0  0  0
    1.6249    4.1914    8.0290 C   0  0  0  0  0  0  0  0  0  0  0  0
    5.8461    2.1559    5.6799 H   0  0  0  0  0  0  0  0  0  0  0  0
    4.9527    1.9339    7.1576 H   0  0  0  0  0  0  0  0  0  0  0  0
    6.0848    3.2830    7.0033 H   0  0  0  0  0  0  0  0  0  0  0  0
    4.7003    3.9250    4.9662 H   0  0  0  0  0  0  0  0  0  0  0  0
    4.2485    4.9269    7.6621 H   0  0  0  0  0  0  0  0  0  0  0  0
    4.7709    5.6933    6.2463 H   0  0  0  0  0  0  0  0  0  0  0  0
    2.5846    6.5719    7.3123 H   0  0  0  0  0  0  0  0  0  0  0  0
    2.6100    6.4306    5.6034 H   0  0  0  0  0  0  0  0  0  0  0  0
   -0.2555    5.8557    7.7964 H   0  0  0  0  0  0  0  0  0  0  0  0
   -0.4569    6.0987    6.1571 H   0  0  0  0  0  0  0  0  0  0  0  0
   -2.0935    4.4530    7.2962 H   0  0  0  0  0  0  0  0  0  0  0  0
   -1.5420    4.0547    5.7273 H   0  0  0  0  0  0  0  0  0  0  0  0
   -0.9408    2.6089    8.3375 H   0  0  0  0  0  0  0  0  0  0  0  0
   -2.3091    1.6560    5.8023 H   0  0  0  0  0  0  0  0  0  0  0  0
   -3.1082    2.1480    7.2909 H   0  0  0  0  0  0  0  0  0  0  0  0
   -2.0763    0.7290    7.2699 H   0  0  0  0  0  0  0  0  0  0  0  0
    0.4638    2.7238    6.2399 H   0  0  0  0  0  0  0  0  0  0  0  0
    0.6094    1.6867    4.5696 H   0  0  0  0  0  0  0  0  0  0  0  0
    0.7881   -0.8355    6.2330 H   0  0  0  0  0  0  0  0  0  0  0  0
    0.1136   -0.4387    3.2679 H   0  0  0  0  0  0  0  0  0  0  0  0
   -1.0217   -0.7992    4.5578 H   0  0  0  0  0  0  0  0  0  0  0  0
    0.1942   -1.9883    4.1118 H   0  0  0  0  0  0  0  0  0  0  0  0
    2.8259   -1.5064    5.1785 H   0  0  0  0  0  0  0  0  0  0  0  0
    3.0457   -0.9863    1.3009 H   0  0  0  0  0  0  0  0  0  0  0  0
    6.0802   -1.1317    1.7328 H   0  0  0  0  0  0  0  0  0  0  0  0
    7.3440   -2.3464    0.0302 H   0  0  0  0  0  0  0  0  0  0  0  0
    7.5193   -3.3509   -2.2515 H   0  0  0  0  0  0  0  0  0  0  0  0
    5.5167   -3.4524   -3.7199 H   0  0  0  0  0  0  0  0  0  0  0  0
    3.1550   -1.5068   -0.7366 H   0  0  0  0  0  0  0  0  0  0  0  0
    2.9411    4.3138    3.8777 H   0  0  0  0  0  0  0  0  0  0  0  0
    2.6050    0.3459    8.4398 H   0  0  0  0  0  0  0  0  0  0  0  0
    1.3303    2.5521    9.2729 H   0  0  0  0  0  0  0  0  0  0  0  0
    4.1850    3.1408    8.7388 H   0  0  0  0  0  0  0  0  0  0  0  0
    3.6507    1.6119    9.4007 H   0  0  0  0  0  0  0  0  0  0  0  0
    3.2455    3.1162   10.1838 H   0  0  0  0  0  0  0  0  0  0  0  0
    2.2632    4.8379    8.6292 H   0  0  0  0  0  0  0  0  0  0  0  0
    0.7300    4.2988    8.6504 H   0  0  0  0  0  0  0  0  0  0  0  0
  1  2  1  0
  1 38  1  0
  1 39  1  0
  1 40  1  0
  2 29  1  0
  2  3  1  0
  2 41  1  6
  3  4  1  0
  3 42  1  0
  3 43  1  0
  5  4  1  6
  4 44  1  0
  4 45  1  0
  5 31  1  0
  5 37  1  0
  5  6  1  0
  6  7  1  0
  6 46  1  0
  6 47  1  0
  7  8  1  0
  7 48  1  0
  7 49  1  0
  8  9  1  0
  8 10  1  0
  8 50  1  1
  9 51  1  0
  9 52  1  0
  9 53  1  0
 10 33  1  0
 10 11  1  0
 10 54  1  1
 11 28  1  0
 11 12  1  0
 11 55  1  6
 12 13  1  0
 12 14  1  0
 12 56  1  1
 13 57  1  0
 13 58  1  0
 13 59  1  0
 14 15  1  0
 14 27  1  0
 14 60  1  1
 15 16  1  0
 16 17  2  0
 16 18  1  0
 18 19  2  3
 18 61  1  0
 19 20  1  0
 19 62  1  0
 20 26  1  0
 20 21  2  0
 21 22  1  0
 21 63  1  0
 22 23  2  0
 22 64  1  0
 23 24  1  0
 23 65  1  0
 24 25  1  0
 24 26  2  0
 26 66  1  0
 28 27  1  1
 28 29  1  0
 28 33  1  0
 29 30  2  0
 30 31  1  0
 30 67  1  0
 31 32  2  0
 33 34  1  1
 33 35  1  0
 34 68  1  0
 35 36  1  0
 35 37  1  0
 35 69  1  1
 36 70  1  0
 36 71  1  0
 36 72  1  0
 37 73  1  0
 37 74  1  0
M  END
>  <i_m_ct_stereo_status>  (140) 
1

>  <s_m_source_file>  (140) 
/var/tmp/pbs.5076255.sched01/tmpxjfjwjbi/40jwkb7fqh.sdf

>  <i_m_source_file_index>  (140) 
21

>  <i_lp_mmshare_version>  (140) 
48012

>  <i_f3d_flags>  (140) 
0

>  <s_epik_input>  (140) 
QzEyM1tDSDJdW0NIMl1bQ0BASF0oW0NIM10pQyg9W0NIXUMyPU8pW0NAQF00NVtDQEhdKFtDQEBIXShbQ0BIXShbQ0gzXSlbQ0gyXVtDSDJdMSlbQ0BdNShbT0hdKVtDQEBIXShbQ0gzXSlbQ0gyXTMpW0NAQEhdKFtDSDNdKVtDQEhdKE80KU9DKD1PKS9bQ0hdPVtDSF0vYzZbY0hdW2NIXVtjSF1jKENsKVtjSF02

>  <s_epik_cmdline>  (140) 
J2VwaWtfcHl0aG9uJywgJy1waHQnLCAnMi4wJywgJy1waCcsICc3LjAnLCAnLXRuJywgJzgnLCAnLW1hJywgJzIwMCcsICctaW1hZScsICc8aW5maWxlLm1hZT4nLCAnLW9tYWUnLCAnPG91dGZpbGUubWFlPic=

>  <r_lp_tautomer_probability>  (140) 
1

>  <r_epik_Ionization_Penalty>  (140) 
3.47349e-08

>  <r_epik_Ionization_Penalty_Charging>  (140) 
0

>  <r_epik_Ionization_Penalty_Neutral>  (140) 
3.47349e-08

>  <r_epik_State_Penalty>  (140) 
-0

>  <r_epik_Charging_Adjusted_Penalty>  (140) 
0

>  <i_epik_Tot_Q>  (140) 
0

>  <i_epik_Tot_abs_Q>  (140) 
0

>  <s_epik_Chemistry_Notes>  (140) 
This compound has an ester and may undergo hydrolysis at high or low pH. This compound contains an acetal/aminal-like group ( X-CH(R)-Y where X, Y are N, S, or O) that may be acid/base labile, releasing an aldehyde.

>  <s_lp_Force_Field>  (140) 
OPLS3e

>  <r_lp_Energy>  (140) 
247.121

>  <b_lp_Chiralities_Consistent>  (140) 
1

>  <s_lp_Variant>  (140) 
46:0-1

>  <s_i_glide_gridfile>  (140) 
pfpi4k_grid

>  <i_i_glide_lignum>  (140) 
21

>  <i_i_glide_rotatable_bonds>  (140) 
5

>  <r_i_docking_score>  (140) 
-2.08182

>  <r_i_glide_ligand_efficiency>  (140) 
-0.0562653

>  <r_i_glide_ligand_efficiency_sa>  (140) 
-0.187488

>  <r_i_glide_ligand_efficiency_ln>  (140) 
-0.451497

>  <r_i_glide_gscore>  (140) 
-2.08182

>  <r_i_glide_lipo>  (140) 
-0.516519

>  <r_i_glide_hbond>  (140) 
0

>  <r_i_glide_metal>  (140) 
-0

>  <r_i_glide_rewards>  (140) 
-0.0379833

>  <r_i_glide_evdw>  (140) 
-32.4926

>  <r_i_glide_ecoul>  (140) 
-0.777085

>  <r_i_glide_erotb>  (140) 
0.223941

>  <r_i_glide_esite>  (140) 
-0.0100619

>  <r_i_glide_emodel>  (140) 
-35.1672

>  <r_i_glide_energy>  (140) 
-33.2697

>  <r_i_glide_einternal>  (140) 
5.06029

>  <r_i_glide_intrahb_reward>  (140) 
-0

>  <i_i_glide_confnum>  (140) 
1

>  <i_i_glide_posenum>  (140) 
29

>  <r_i_glide_eff_state_penalty>  (140) 
0

>  <ligand_id>  (140) 
46

>  <original_smiles>  (140) 
CC1CCC23CCC(C)C4C5C(C)C(OC(=O)C=Cc6cccc(Cl)c6)OC5(C1=CC2=O)C4(O)C(C)C3

>  <smiles>  (140) 
[H]OC12C34OC([H])(OC(=O)C([H])=C([H])c5c([H])c([H])c([H])c(Cl)c5[H])C([H])(C([H])([H])[H])C3([H])C1([H])C([H])(C([H])([H])[H])C([H])([H])C([H])([H])C1(C(=O)C([H])=C4C([H])(C([H])([H])[H])C([H])([H])C1([H])[H])C([H])([H])C2([H])C([H])([H])[H]

$$$$
46:0:2
     RDKit          3D

 74 79  0  0  1  0  0  0  0  0999 V2000
    5.5333    0.3075    4.2986 C   0  0  0  0  0  0  0  0  0  0  0  0
    4.0662    0.5941    3.9202 C   0  0  2  0  0  0  0  0  0  0  0  0
    3.4160    1.9562    4.4643 C   0  0  0  0  0  0  0  0  0  0  0  0
    1.8405    2.1702    4.6301 C   0  0  0  0  0  0  0  0  0  0  0  0
    1.1233    0.8990    5.1764 C   0  0  1  0  0  0  0  0  0  0  0  0
   -0.3348    0.7863    5.7644 C   0  0  0  0  0  0  0  0  0  0  0  0
   -0.7930   -0.7148    6.1176 C   0  0  0  0  0  0  0  0  0  0  0  0
    0.1324   -1.8985    6.7542 C   0  0  1  0  0  0  0  0  0  0  0  0
   -0.6701   -3.2009    6.8576 C   0  0  0  0  0  0  0  0  0  0  0  0
    1.4826   -2.1852    6.0477 C   0  0  2  0  0  0  0  0  0  0  0  0
    2.0293   -2.8984    4.7814 C   0  0  2  0  0  0  0  0  0  0  0  0
    2.6727   -4.2472    4.7724 C   0  0  1  0  0  0  0  0  0  0  0  0
    1.8676   -5.3878    4.1139 C   0  0  0  0  0  0  0  0  0  0  0  0
    4.0203   -3.9357    4.0768 C   0  0  1  0  0  0  0  0  0  0  0  0
    3.8053   -3.9119    2.6834 O   0  0  0  0  0  0  0  0  0  0  0  0
    4.7373   -3.2691    1.9121 C   0  0  0  0  0  0  0  0  0  0  0  0
    5.8006   -2.7749    2.2938 O   0  0  0  0  0  0  0  0  0  0  0  0
    4.3074   -3.2418    0.4984 C   0  0  0  0  0  0  0  0  0  0  0  0
    4.6977   -2.2251   -0.2942 C   0  0  0  0  0  0  0  0  0  0  0  0
    4.3817   -2.0865   -1.7127 C   0  0  0  0  0  0  0  0  0  0  0  0
    4.1066   -3.2235   -2.5112 C   0  0  0  0  0  0  0  0  0  0  0  0
    3.7557   -3.0681   -3.8678 C   0  0  0  0  0  0  0  0  0  0  0  0
    3.6530   -1.7672   -4.3935 C   0  0  0  0  0  0  0  0  0  0  0  0
    3.9048   -0.6345   -3.6370 C   0  0  0  0  0  0  0  0  0  0  0  0
    3.8193    0.8534   -4.4972 Cl  0  0  0  0  0  0  0  0  0  0  0  0
    4.2756   -0.7857   -2.2819 C   0  0  0  0  0  0  0  0  0  0  0  0
    4.3840   -2.6810    4.6162 O   0  0  0  0  0  0  0  0  0  0  0  0
    3.2308   -1.8758    4.8248 C   0  0  1  0  0  0  0  0  0  0  0  0
    3.1196   -0.6204    3.8908 C   0  0  0  0  0  0  0  0  0  0  0  0
    2.1111   -0.4163    3.0480 C   0  0  0  0  0  0  0  0  0  0  0  0
    0.9610    0.1065    3.7899 C   0  0  0  0  0  0  0  0  0  0  0  0
   -0.1444    0.0373    3.2487 O   0  0  0  0  0  0  0  0  0  0  0  0
    2.9084   -1.6707    6.3434 C   0  0  2  0  0  0  0  0  0  0  0  0
    3.5998   -2.5801    7.2064 O   0  0  0  0  0  0  0  0  0  0  0  0
    2.9536   -0.3625    7.0645 C   0  0  1  0  0  0  0  0  0  0  0  0
    4.3373    0.2076    7.4368 C   0  0  0  0  0  0  0  0  0  0  0  0
    1.9306    0.6949    6.5747 C   0  0  0  0  0  0  0  0  0  0  0  0
    6.0645   -0.1452    3.4601 H   0  0  0  0  0  0  0  0  0  0  0  0
    5.6456   -0.3641    5.1440 H   0  0  0  0  0  0  0  0  0  0  0  0
    6.0542    1.2345    4.5382 H   0  0  0  0  0  0  0  0  0  0  0  0
    4.1798    0.8388    2.8656 H   0  0  0  0  0  0  0  0  0  0  0  0
    3.8895    2.2280    5.4067 H   0  0  0  0  0  0  0  0  0  0  0  0
    3.7599    2.7635    3.8056 H   0  0  0  0  0  0  0  0  0  0  0  0
    1.6601    3.0228    5.2930 H   0  0  0  0  0  0  0  0  0  0  0  0
    1.4134    2.4985    3.6763 H   0  0  0  0  0  0  0  0  0  0  0  0
   -0.4722    1.4493    6.6242 H   0  0  0  0  0  0  0  0  0  0  0  0
   -1.0715    1.2177    5.0816 H   0  0  0  0  0  0  0  0  0  0  0  0
   -1.6107   -0.5474    6.8015 H   0  0  0  0  0  0  0  0  0  0  0  0
   -1.2778   -1.1300    5.2329 H   0  0  0  0  0  0  0  0  0  0  0  0
    0.3518   -1.5882    7.7751 H   0  0  0  0  0  0  0  0  0  0  0  0
   -0.9490   -3.5701    5.8768 H   0  0  0  0  0  0  0  0  0  0  0  0
   -1.5771   -3.0793    7.4321 H   0  0  0  0  0  0  0  0  0  0  0  0
   -0.0799   -3.9704    7.3477 H   0  0  0  0  0  0  0  0  0  0  0  0
    1.1485   -1.4787    5.3987 H   0  0  0  0  0  0  0  0  0  0  0  0
    1.3811   -2.7521    3.9086 H   0  0  0  0  0  0  0  0  0  0  0  0
    2.9024   -4.5749    5.7928 H   0  0  0  0  0  0  0  0  0  0  0  0
    1.5625   -5.1527    3.0916 H   0  0  0  0  0  0  0  0  0  0  0  0
    0.9559   -5.5890    4.6843 H   0  0  0  0  0  0  0  0  0  0  0  0
    2.4369   -6.3197    4.0909 H   0  0  0  0  0  0  0  0  0  0  0  0
    4.7891   -4.6717    4.3019 H   0  0  0  0  0  0  0  0  0  0  0  0
    3.6793   -4.0380    0.1326 H   0  0  0  0  0  0  0  0  0  0  0  0
    5.3107   -1.4431    0.1184 H   0  0  0  0  0  0  0  0  0  0  0  0
    4.1797   -4.2266   -2.1160 H   0  0  0  0  0  0  0  0  0  0  0  0
    3.5682   -3.9225   -4.4920 H   0  0  0  0  0  0  0  0  0  0  0  0
    3.4177   -1.5831   -5.4220 H   0  0  0  0  0  0  0  0  0  0  0  0
    4.4687    0.0764   -1.6787 H   0  0  0  0  0  0  0  0  0  0  0  0
    2.2421    0.2945    2.2543 H   0  0  0  0  0  0  0  0  0  0  0  0
    3.3044   -2.4291    8.0845 H   0  0  0  0  0  0  0  0  0  0  0  0
    2.5852   -0.5859    8.0679 H   0  0  0  0  0  0  0  0  0  0  0  0
    4.7771    0.8470    6.6906 H   0  0  0  0  0  0  0  0  0  0  0  0
    5.0600   -0.5687    7.6708 H   0  0  0  0  0  0  0  0  0  0  0  0
    4.2458    0.8293    8.3266 H   0  0  0  0  0  0  0  0  0  0  0  0
    2.3491    1.6569    6.8784 H   0  0  0  0  0  0  0  0  0  0  0  0
    1.2079    0.6191    7.3886 H   0  0  0  0  0  0  0  0  0  0  0  0
  1  2  1  0
  1 38  1  0
  1 39  1  0
  1 40  1  0
  2 29  1  0
  2  3  1  0
  2 41  1  6
  3  4  1  0
  3 42  1  0
  3 43  1  0
  5  4  1  6
  4 44  1  0
  4 45  1  0
  5 31  1  0
  5 37  1  0
  5  6  1  0
  6  7  1  0
  6 46  1  0
  6 47  1  0
  7  8  1  0
  7 48  1  0
  7 49  1  0
  8  9  1  0
  8 10  1  0
  8 50  1  1
  9 51  1  0
  9 52  1  0
  9 53  1  0
 10 33  1  0
 10 11  1  0
 10 54  1  1
 11 28  1  0
 11 12  1  0
 11 55  1  6
 12 13  1  0
 12 14  1  0
 12 56  1  1
 13 57  1  0
 13 58  1  0
 13 59  1  0
 14 15  1  0
 14 27  1  0
 14 60  1  6
 15 16  1  0
 16 17  2  0
 16 18  1  0
 18 19  2  3
 18 61  1  0
 19 20  1  0
 19 62  1  0
 20 26  1  0
 20 21  2  0
 21 22  1  0
 21 63  1  0
 22 23  2  0
 22 64  1  0
 23 24  1  0
 23 65  1  0
 24 25  1  0
 24 26  2  0
 26 66  1  0
 28 27  1  1
 28 29  1  0
 28 33  1  0
 29 30  2  0
 30 31  1  0
 30 67  1  0
 31 32  2  0
 33 34  1  1
 33 35  1  0
 34 68  1  0
 35 36  1  0
 35 37  1  0
 35 69  1  1
 36 70  1  0
 36 71  1  0
 36 72  1  0
 37 73  1  0
 37 74  1  0
M  END
>  <i_m_ct_stereo_status>  (141) 
1

>  <s_m_source_file>  (141) 
/var/tmp/pbs.5076255.sched01/tmpxjfjwjbi/40jwkb7fqh.sdf

>  <i_m_source_file_index>  (141) 
21

>  <i_lp_mmshare_version>  (141) 
48012

>  <i_f3d_flags>  (141) 
0

>  <s_epik_input>  (141) 
QzEyM1tDSDJdW0NIMl1bQ0BASF0oW0NIM10pQyg9W0NIXUMyPU8pW0NAQF00NVtDQEhdKFtDQEBIXShbQ0BIXShbQ0gzXSlbQ0gyXVtDSDJdMSlbQ0BdNShbT0hdKVtDQEBIXShbQ0gzXSlbQ0gyXTMpW0NAQEhdKFtDSDNdKVtDQEhdKE80KU9DKD1PKS9bQ0hdPVtDSF0vYzZbY0hdW2NIXVtjSF1jKENsKVtjSF02

>  <s_epik_cmdline>  (141) 
J2VwaWtfcHl0aG9uJywgJy1waHQnLCAnMi4wJywgJy1waCcsICc3LjAnLCAnLXRuJywgJzgnLCAnLW1hJywgJzIwMCcsICctaW1hZScsICc8aW5maWxlLm1hZT4nLCAnLW9tYWUnLCAnPG91dGZpbGUubWFlPic=

>  <r_lp_tautomer_probability>  (141) 
1

>  <r_epik_Ionization_Penalty>  (141) 
3.47349e-08

>  <r_epik_Ionization_Penalty_Charging>  (141) 
0

>  <r_epik_Ionization_Penalty_Neutral>  (141) 
3.47349e-08

>  <r_epik_State_Penalty>  (141) 
-0

>  <r_epik_Charging_Adjusted_Penalty>  (141) 
0

>  <i_epik_Tot_Q>  (141) 
0

>  <i_epik_Tot_abs_Q>  (141) 
0

>  <s_epik_Chemistry_Notes>  (141) 
This compound has an ester and may undergo hydrolysis at high or low pH. This compound contains an acetal/aminal-like group ( X-CH(R)-Y where X, Y are N, S, or O) that may be acid/base labile, releasing an aldehyde.

>  <s_lp_Force_Field>  (141) 
OPLS3e

>  <r_lp_Energy>  (141) 
247.121

>  <b_lp_Chiralities_Consistent>  (141) 
1

>  <s_lp_Variant>  (141) 
46:0-1

>  <s_i_glide_gridfile>  (141) 
pfpi4k_grid

>  <i_i_glide_lignum>  (141) 
21

>  <i_i_glide_rotatable_bonds>  (141) 
5

>  <r_i_docking_score>  (141) 
-1.42059

>  <r_i_glide_ligand_efficiency>  (141) 
-0.0383942

>  <r_i_glide_ligand_efficiency_sa>  (141) 
-0.127938

>  <r_i_glide_ligand_efficiency_ln>  (141) 
-0.308092

>  <r_i_glide_gscore>  (141) 
-1.42059

>  <r_i_glide_lipo>  (141) 
-0.50486

>  <r_i_glide_hbond>  (141) 
0

>  <r_i_glide_metal>  (141) 
-0

>  <r_i_glide_rewards>  (141) 
-0.0395963

>  <r_i_glide_evdw>  (141) 
-26.4195

>  <r_i_glide_ecoul>  (141) 
1.5358

>  <r_i_glide_erotb>  (141) 
0.223941

>  <r_i_glide_esite>  (141) 
-0.00946629

>  <r_i_glide_emodel>  (141) 
-24.6535

>  <r_i_glide_energy>  (141) 
-24.8837

>  <r_i_glide_einternal>  (141) 
5.81536

>  <r_i_glide_intrahb_reward>  (141) 
-0

>  <i_i_glide_confnum>  (141) 
2

>  <i_i_glide_posenum>  (141) 
14

>  <r_i_glide_eff_state_penalty>  (141) 
0

>  <ligand_id>  (141) 
46

>  <original_smiles>  (141) 
CC1CCC23CCC(C)C4C5C(C)C(OC(=O)C=Cc6cccc(Cl)c6)OC5(C1=CC2=O)C4(O)C(C)C3

>  <smiles>  (141) 
[H]OC12C34OC([H])(OC(=O)C([H])=C([H])c5c([H])c([H])c([H])c(Cl)c5[H])C([H])(C([H])([H])[H])C3([H])C1([H])C([H])(C([H])([H])[H])C([H])([H])C([H])([H])C1(C(=O)C([H])=C4C([H])(C([H])([H])[H])C([H])([H])C1([H])[H])C([H])([H])C2([H])C([H])([H])[H]

$$$$
46:3:0
     RDKit          3D

 74 79  0  0  1  0  0  0  0  0999 V2000
    0.1553   -2.6664    6.1778 C   0  0  0  0  0  0  0  0  0  0  0  0
    0.7853   -1.2516    5.9796 C   0  0  2  0  0  0  0  0  0  0  0  0
    0.8864   -0.4891    7.3223 C   0  0  0  0  0  0  0  0  0  0  0  0
    0.9560    1.0850    7.2731 C   0  0  0  0  0  0  0  0  0  0  0  0
   -0.1763    2.1001    6.6061 C   0  0  2  0  0  0  0  0  0  0  0  0
    0.2904    3.3919    7.3427 C   0  0  0  0  0  0  0  0  0  0  0  0
    1.7393    3.8461    6.7497 C   0  0  0  0  0  0  0  0  0  0  0  0
    2.3057    3.6141    5.2177 C   0  0  1  0  0  0  0  0  0  0  0  0
    3.8244    3.8292    5.2084 C   0  0  0  0  0  0  0  0  0  0  0  0
    1.9737    2.2812    4.4177 C   0  0  2  0  0  0  0  0  0  0  0  0
    2.4826    0.8276    4.3226 C   0  0  2  0  0  0  0  0  0  0  0  0
    3.3486    0.3554    3.1805 C   0  0  1  0  0  0  0  0  0  0  0  0
    4.7983   -0.0083    3.5358 C   0  0  0  0  0  0  0  0  0  0  0  0
    2.5192   -0.8231    2.6433 C   0  0  1  0  0  0  0  0  0  0  0  0
    2.8544   -2.0292    3.2767 O   0  0  0  0  0  0  0  0  0  0  0  0
    2.0087   -3.0431    3.0861 C   0  0  0  0  0  0  0  0  0  0  0  0
    0.8078   -2.9944    3.3474 O   0  0  0  0  0  0  0  0  0  0  0  0
    2.6440   -4.1325    2.3239 C   0  0  0  0  0  0  0  0  0  0  0  0
    2.1844   -5.4134    2.2330 C   0  0  0  0  0  0  0  0  0  0  0  0
    1.0824   -6.1057    2.9605 C   0  0  0  0  0  0  0  0  0  0  0  0
    0.7500   -5.7587    4.2913 C   0  0  0  0  0  0  0  0  0  0  0  0
   -0.2881   -6.4094    4.9778 C   0  0  0  0  0  0  0  0  0  0  0  0
   -1.0140   -7.4338    4.3472 C   0  0  0  0  0  0  0  0  0  0  0  0
   -0.7022   -7.7943    3.0233 C   0  0  0  0  0  0  0  0  0  0  0  0
   -1.6071   -9.0495    2.2678 Cl  0  0  0  0  0  0  0  0  0  0  0  0
    0.3311   -7.1272    2.3270 C   0  0  0  0  0  0  0  0  0  0  0  0
    1.1814   -0.4353    2.8385 O   0  0  0  0  0  0  0  0  0  0  0  0
    0.9938    0.4084    3.9665 C   0  0  1  0  0  0  0  0  0  0  0  0
    0.0389   -0.3037    5.0450 C   0  0  0  0  0  0  0  0  0  0  0  0
   -1.1971    0.0649    5.5349 C   0  0  0  0  0  0  0  0  0  0  0  0
   -1.3850    1.1964    6.5217 C   0  0  0  0  0  0  0  0  0  0  0  0
   -2.4010    1.3741    7.2007 O   0  0  0  0  0  0  0  0  0  0  0  0
    0.7818    1.9022    3.4948 C   0  0  2  0  0  0  0  0  0  0  0  0
    1.0359    2.0907    2.1114 O   0  0  0  0  0  0  0  0  0  0  0  0
   -0.5239    2.5710    3.7898 C   0  0  1  0  0  0  0  0  0  0  0  0
   -1.7702    1.9297    3.1396 C   0  0  0  0  0  0  0  0  0  0  0  0
   -0.6038    2.9642    5.2754 C   0  0  0  0  0  0  0  0  0  0  0  0
   -0.0019   -3.2045    5.2555 H   0  0  0  0  0  0  0  0  0  0  0  0
   -0.8055   -2.6209    6.6969 H   0  0  0  0  0  0  0  0  0  0  0  0
    0.8395   -3.2594    6.7892 H   0  0  0  0  0  0  0  0  0  0  0  0
    1.7915   -1.3923    5.5836 H   0  0  0  0  0  0  0  0  0  0  0  0
    0.0449   -0.7838    7.9468 H   0  0  0  0  0  0  0  0  0  0  0  0
    1.7659   -0.8717    7.8446 H   0  0  0  0  0  0  0  0  0  0  0  0
    0.8961    1.2591    8.3477 H   0  0  0  0  0  0  0  0  0  0  0  0
    2.0034    1.3278    7.1168 H   0  0  0  0  0  0  0  0  0  0  0  0
   -0.4325    4.2080    7.2961 H   0  0  0  0  0  0  0  0  0  0  0  0
    0.3742    3.2571    8.4201 H   0  0  0  0  0  0  0  0  0  0  0  0
    1.8278    4.9154    6.9506 H   0  0  0  0  0  0  0  0  0  0  0  0
    2.4867    3.4313    7.4266 H   0  0  0  0  0  0  0  0  0  0  0  0
    1.9051    4.4353    4.6198 H   0  0  0  0  0  0  0  0  0  0  0  0
    4.3450    3.0549    5.7754 H   0  0  0  0  0  0  0  0  0  0  0  0
    4.0987    4.8001    5.6267 H   0  0  0  0  0  0  0  0  0  0  0  0
    4.2079    3.7944    4.1864 H   0  0  0  0  0  0  0  0  0  0  0  0
    1.6494    1.9711    5.3260 H   0  0  0  0  0  0  0  0  0  0  0  0
    2.8514    0.4334    5.2692 H   0  0  0  0  0  0  0  0  0  0  0  0
    3.3603    1.1047    2.3866 H   0  0  0  0  0  0  0  0  0  0  0  0
    4.8575   -0.7361    4.3423 H   0  0  0  0  0  0  0  0  0  0  0  0
    5.3321    0.8829    3.8576 H   0  0  0  0  0  0  0  0  0  0  0  0
    5.3214   -0.4109    2.6694 H   0  0  0  0  0  0  0  0  0  0  0  0
    2.6888   -0.9905    1.5791 H   0  0  0  0  0  0  0  0  0  0  0  0
    3.5440   -3.8638    1.7463 H   0  0  0  0  0  0  0  0  0  0  0  0
    2.7134   -6.0551    1.5360 H   0  0  0  0  0  0  0  0  0  0  0  0
    1.3155   -5.0008    4.8146 H   0  0  0  0  0  0  0  0  0  0  0  0
   -0.5246   -6.1186    5.9939 H   0  0  0  0  0  0  0  0  0  0  0  0
   -1.8032   -7.9500    4.8761 H   0  0  0  0  0  0  0  0  0  0  0  0
    0.5562   -7.4276    1.3129 H   0  0  0  0  0  0  0  0  0  0  0  0
   -1.6796   -0.7431    6.0449 H   0  0  0  0  0  0  0  0  0  0  0  0
    0.6958    2.9616    1.8758 H   0  0  0  0  0  0  0  0  0  0  0  0
   -0.5029    3.5354    3.2797 H   0  0  0  0  0  0  0  0  0  0  0  0
   -1.7686    0.8426    3.2009 H   0  0  0  0  0  0  0  0  0  0  0  0
   -1.8097    2.1550    2.0721 H   0  0  0  0  0  0  0  0  0  0  0  0
   -2.6974    2.3035    3.5797 H   0  0  0  0  0  0  0  0  0  0  0  0
   -1.6315    3.3130    5.4164 H   0  0  0  0  0  0  0  0  0  0  0  0
   -0.1641    3.9575    5.2242 H   0  0  0  0  0  0  0  0  0  0  0  0
  1  2  1  0
  1 38  1  0
  1 39  1  0
  1 40  1  0
  2 29  1  0
  2  3  1  0
  2 41  1  6
  3  4  1  0
  3 42  1  0
  3 43  1  0
  5  4  1  6
  4 44  1  0
  4 45  1  0
  5 31  1  0
  5 37  1  0
  5  6  1  0
  6  7  1  0
  6 46  1  0
  6 47  1  0
  7  8  1  0
  7 48  1  0
  7 49  1  0
  8  9  1  0
  8 10  1  0
  8 50  1  6
  9 51  1  0
  9 52  1  0
  9 53  1  0
 10 33  1  0
 10 11  1  0
 10 54  1  6
 11 28  1  0
 11 12  1  0
 11 55  1  1
 12 13  1  0
 12 14  1  0
 12 56  1  6
 13 57  1  0
 13 58  1  0
 13 59  1  0
 14 15  1  0
 14 27  1  0
 14 60  1  6
 15 16  1  0
 16 17  2  0
 16 18  1  0
 18 19  2  3
 18 61  1  0
 19 20  1  0
 19 62  1  0
 20 26  1  0
 20 21  2  0
 21 22  1  0
 21 63  1  0
 22 23  2  0
 22 64  1  0
 23 24  1  0
 23 65  1  0
 24 25  1  0
 24 26  2  0
 26 66  1  0
 28 27  1  6
 28 29  1  0
 28 33  1  0
 29 30  2  0
 30 31  1  0
 30 67  1  0
 31 32  2  0
 33 34  1  6
 33 35  1  0
 34 68  1  0
 35 36  1  0
 35 37  1  0
 35 69  1  6
 36 70  1  0
 36 71  1  0
 36 72  1  0
 37 73  1  0
 37 74  1  0
M  END
>  <i_m_ct_stereo_status>  (142) 
1

>  <s_m_source_file>  (142) 
/var/tmp/pbs.5076255.sched01/tmpxjfjwjbi/40jwkb7fqh.sdf

>  <i_m_source_file_index>  (142) 
24

>  <i_lp_mmshare_version>  (142) 
48012

>  <i_f3d_flags>  (142) 
0

>  <s_epik_input>  (142) 
QzEyM1tDSDJdW0NIMl1bQ0BASF0oW0NIM10pQyg9W0NIXUMyPU8pW0NAQF00NVtDQEhdKFtDQEBIXShbQ0BIXShbQ0gzXSlbQ0gyXVtDSDJdMSlbQ0BdNShbT0hdKVtDQEBIXShbQ0gzXSlbQ0gyXTMpW0NAQEhdKFtDSDNdKVtDQEhdKE80KU9DKD1PKS9bQ0hdPVtDSF0vYzZbY0hdW2NIXVtjSF1jKENsKVtjSF02

>  <s_epik_cmdline>  (142) 
J2VwaWtfcHl0aG9uJywgJy1waHQnLCAnMi4wJywgJy1waCcsICc3LjAnLCAnLXRuJywgJzgnLCAnLW1hJywgJzIwMCcsICctaW1hZScsICc8aW5maWxlLm1hZT4nLCAnLW9tYWUnLCAnPG91dGZpbGUubWFlPic=

>  <r_lp_tautomer_probability>  (142) 
1

>  <r_epik_Ionization_Penalty>  (142) 
3.47349e-08

>  <r_epik_Ionization_Penalty_Charging>  (142) 
0

>  <r_epik_Ionization_Penalty_Neutral>  (142) 
3.47349e-08

>  <r_epik_State_Penalty>  (142) 
-0

>  <r_epik_Charging_Adjusted_Penalty>  (142) 
0

>  <i_epik_Tot_Q>  (142) 
0

>  <i_epik_Tot_abs_Q>  (142) 
0

>  <s_epik_Chemistry_Notes>  (142) 
This compound has an ester and may undergo hydrolysis at high or low pH. This compound contains an acetal/aminal-like group ( X-CH(R)-Y where X, Y are N, S, or O) that may be acid/base labile, releasing an aldehyde.

>  <s_lp_Force_Field>  (142) 
OPLS3e

>  <r_lp_Energy>  (142) 
296.854

>  <b_lp_Chiralities_Consistent>  (142) 
1

>  <s_lp_Variant>  (142) 
46:0-4

>  <s_i_glide_gridfile>  (142) 
pfpi4k_grid

>  <i_i_glide_lignum>  (142) 
24

>  <i_i_glide_rotatable_bonds>  (142) 
5

>  <r_i_docking_score>  (142) 
-2.00633

>  <r_i_glide_ligand_efficiency>  (142) 
-0.054225

>  <r_i_glide_ligand_efficiency_sa>  (142) 
-0.18069

>  <r_i_glide_ligand_efficiency_ln>  (142) 
-0.435125

>  <r_i_glide_gscore>  (142) 
-2.00633

>  <r_i_glide_lipo>  (142) 
-0.302421

>  <r_i_glide_hbond>  (142) 
-0.140309

>  <r_i_glide_metal>  (142) 
-0

>  <r_i_glide_rewards>  (142) 
-0.000439473

>  <r_i_glide_evdw>  (142) 
-33.704

>  <r_i_glide_ecoul>  (142) 
-0.294987

>  <r_i_glide_erotb>  (142) 
0.223941

>  <r_i_glide_esite>  (142) 
-0.0576504

>  <r_i_glide_emodel>  (142) 
-31.2936

>  <r_i_glide_energy>  (142) 
-33.999

>  <r_i_glide_einternal>  (142) 
11.8575

>  <r_i_glide_intrahb_reward>  (142) 
-0

>  <i_i_glide_confnum>  (142) 
1

>  <i_i_glide_posenum>  (142) 
30

>  <r_i_glide_eff_state_penalty>  (142) 
0

>  <ligand_id>  (142) 
46

>  <original_smiles>  (142) 
CC1CCC23CCC(C)C4C5C(C)C(OC(=O)C=Cc6cccc(Cl)c6)OC5(C1=CC2=O)C4(O)C(C)C3

>  <smiles>  (142) 
[H]OC12C34OC([H])(OC(=O)C([H])=C([H])c5c([H])c([H])c([H])c(Cl)c5[H])C([H])(C([H])([H])[H])C3([H])C1([H])C([H])(C([H])([H])[H])C([H])([H])C([H])([H])C1(C(=O)C([H])=C4C([H])(C([H])([H])[H])C([H])([H])C1([H])[H])C([H])([H])C2([H])C([H])([H])[H]

$$$$
46:6:0
     RDKit          3D

 74 79  0  0  1  0  0  0  0  0999 V2000
    3.8584   -4.6451    3.3895 C   0  0  0  0  0  0  0  0  0  0  0  0
    2.9489   -3.4200    3.6644 C   0  0  2  0  0  0  0  0  0  0  0  0
    2.3836   -2.7997    2.3884 C   0  0  0  0  0  0  0  0  0  0  0  0
    1.9410   -1.2949    2.5086 C   0  0  0  0  0  0  0  0  0  0  0  0
    2.9363   -0.0386    2.8316 C   0  0  2  0  0  0  0  0  0  0  0  0
    2.1550    1.0083    2.0293 C   0  0  0  0  0  0  0  0  0  0  0  0
    0.7441    1.1434    2.7571 C   0  0  0  0  0  0  0  0  0  0  0  0
    0.4298    0.8849    4.3422 C   0  0  1  0  0  0  0  0  0  0  0  0
   -1.0886    0.7044    4.4485 C   0  0  0  0  0  0  0  0  0  0  0  0
    1.1448   -0.1353    5.3759 C   0  0  1  0  0  0  0  0  0  0  0  0
    1.1291   -1.7020    5.4788 C   0  0  2  0  0  0  0  0  0  0  0  0
    0.6405   -2.3682    6.7227 C   0  0  1  0  0  0  0  0  0  0  0  0
   -0.6844   -3.1427    6.5722 C   0  0  0  0  0  0  0  0  0  0  0  0
    1.8337   -3.2321    7.1670 C   0  0  1  0  0  0  0  0  0  0  0  0
    1.7360   -4.4693    6.5492 O   0  0  0  0  0  0  0  0  0  0  0  0
    2.7048   -5.3780    6.8293 C   0  0  0  0  0  0  0  0  0  0  0  0
    3.6593   -5.1951    7.5791 O   0  0  0  0  0  0  0  0  0  0  0  0
    2.4951   -6.6756    6.1254 C   0  0  0  0  0  0  0  0  0  0  0  0
    1.4538   -6.8937    5.2999 C   0  0  0  0  0  0  0  0  0  0  0  0
    1.1577   -8.1263    4.5741 C   0  0  0  0  0  0  0  0  0  0  0  0
    1.9749   -9.2848    4.6583 C   0  0  0  0  0  0  0  0  0  0  0  0
    1.6319  -10.4543    3.9401 C   0  0  0  0  0  0  0  0  0  0  0  0
    0.4761  -10.4709    3.1287 C   0  0  0  0  0  0  0  0  0  0  0  0
   -0.3499   -9.3229    3.0473 C   0  0  0  0  0  0  0  0  0  0  0  0
   -1.7860   -9.3004    2.1051 Cl  0  0  0  0  0  0  0  0  0  0  0  0
   -0.0010   -8.1600    3.7665 C   0  0  0  0  0  0  0  0  0  0  0  0
    2.9585   -2.4922    6.7559 O   0  0  0  0  0  0  0  0  0  0  0  0
    2.6929   -1.7356    5.5747 C   0  0  1  0  0  0  0  0  0  0  0  0
    3.6033   -2.2560    4.3778 C   0  0  0  0  0  0  0  0  0  0  0  0
    4.6447   -1.7029    3.6672 C   0  0  0  0  0  0  0  0  0  0  0  0
    4.3162   -0.6343    2.6616 C   0  0  0  0  0  0  0  0  0  0  0  0
    5.0902   -0.2392    1.7881 O   0  0  0  0  0  0  0  0  0  0  0  0
    2.6255   -0.2146    5.9223 C   0  0  2  0  0  0  0  0  0  0  0  0
    2.6739    0.0263    7.3310 O   0  0  0  0  0  0  0  0  0  0  0  0
    3.6198    0.7649    5.4446 C   0  0  1  0  0  0  0  0  0  0  0  0
    5.0950    0.5090    5.8373 C   0  0  0  0  0  0  0  0  0  0  0  0
    3.3277    1.0368    3.9808 C   0  0  0  0  0  0  0  0  0  0  0  0
    4.2991   -5.0273    4.3097 H   0  0  0  0  0  0  0  0  0  0  0  0
    4.6726   -4.4374    2.6949 H   0  0  0  0  0  0  0  0  0  0  0  0
    3.2758   -5.4581    2.9509 H   0  0  0  0  0  0  0  0  0  0  0  0
    2.1221   -3.8007    4.2510 H   0  0  0  0  0  0  0  0  0  0  0  0
    3.0953   -2.9037    1.5676 H   0  0  0  0  0  0  0  0  0  0  0  0
    1.5203   -3.3960    2.0824 H   0  0  0  0  0  0  0  0  0  0  0  0
    1.6321   -1.1894    1.4649 H   0  0  0  0  0  0  0  0  0  0  0  0
    0.9679   -1.2412    2.9574 H   0  0  0  0  0  0  0  0  0  0  0  0
    2.6584    1.9756    1.9430 H   0  0  0  0  0  0  0  0  0  0  0  0
    2.0181    0.7422    0.9778 H   0  0  0  0  0  0  0  0  0  0  0  0
    0.3916    2.1561    2.5297 H   0  0  0  0  0  0  0  0  0  0  0  0
    0.0392    0.5393    2.1802 H   0  0  0  0  0  0  0  0  0  0  0  0
    0.6051    1.8720    4.7738 H   0  0  0  0  0  0  0  0  0  0  0  0
   -1.3919   -0.2740    4.0826 H   0  0  0  0  0  0  0  0  0  0  0  0
   -1.6214    1.4544    3.8618 H   0  0  0  0  0  0  0  0  0  0  0  0
   -1.4353    0.8015    5.4755 H   0  0  0  0  0  0  0  0  0  0  0  0
    0.6111    0.1300    6.2995 H   0  0  0  0  0  0  0  0  0  0  0  0
    0.7031   -2.2015    4.6146 H   0  0  0  0  0  0  0  0  0  0  0  0
    0.5038   -1.6375    7.5260 H   0  0  0  0  0  0  0  0  0  0  0  0
   -0.6409   -3.8828    5.7727 H   0  0  0  0  0  0  0  0  0  0  0  0
   -1.4975   -2.4591    6.3255 H   0  0  0  0  0  0  0  0  0  0  0  0
   -0.9561   -3.6601    7.4933 H   0  0  0  0  0  0  0  0  0  0  0  0
    1.8713   -3.3745    8.2431 H   0  0  0  0  0  0  0  0  0  0  0  0
    3.2295   -7.4402    6.3109 H   0  0  0  0  0  0  0  0  0  0  0  0
    0.7331   -6.1076    5.1246 H   0  0  0  0  0  0  0  0  0  0  0  0
    2.8582   -9.2989    5.2684 H   0  0  0  0  0  0  0  0  0  0  0  0
    2.2500  -11.3324    4.0187 H   0  0  0  0  0  0  0  0  0  0  0  0
    0.2260  -11.3679    2.5895 H   0  0  0  0  0  0  0  0  0  0  0  0
   -0.6400   -7.3011    3.6951 H   0  0  0  0  0  0  0  0  0  0  0  0
    5.2089   -2.4030    3.0918 H   0  0  0  0  0  0  0  0  0  0  0  0
    3.5314   -0.2356    7.6059 H   0  0  0  0  0  0  0  0  0  0  0  0
    3.4153    1.7266    5.9158 H   0  0  0  0  0  0  0  0  0  0  0  0
    5.3996   -0.5295    5.7728 H   0  0  0  0  0  0  0  0  0  0  0  0
    5.2660    0.8114    6.8697 H   0  0  0  0  0  0  0  0  0  0  0  0
    5.7768    1.1027    5.2278 H   0  0  0  0  0  0  0  0  0  0  0  0
    4.2076    1.5863    3.6446 H   0  0  0  0  0  0  0  0  0  0  0  0
    2.6670    1.9004    4.0497 H   0  0  0  0  0  0  0  0  0  0  0  0
  1  2  1  0
  1 38  1  0
  1 39  1  0
  1 40  1  0
  2 29  1  0
  2  3  1  0
  2 41  1  1
  3  4  1  0
  3 42  1  0
  3 43  1  0
  5  4  1  1
  4 44  1  0
  4 45  1  0
  5 31  1  0
  5 37  1  0
  5  6  1  0
  6  7  1  0
  6 46  1  0
  6 47  1  0
  7  8  1  0
  7 48  1  0
  7 49  1  0
  8  9  1  0
  8 10  1  0
  8 50  1  1
  9 51  1  0
  9 52  1  0
  9 53  1  0
 10 33  1  0
 10 11  1  0
 10 54  1  1
 11 28  1  0
 11 12  1  0
 11 55  1  6
 12 13  1  0
 12 14  1  0
 12 56  1  1
 13 57  1  0
 13 58  1  0
 13 59  1  0
 14 15  1  0
 14 27  1  0
 14 60  1  1
 15 16  1  0
 16 17  2  0
 16 18  1  0
 18 19  2  3
 18 61  1  0
 19 20  1  0
 19 62  1  0
 20 26  1  0
 20 21  2  0
 21 22  1  0
 21 63  1  0
 22 23  2  0
 22 64  1  0
 23 24  1  0
 23 65  1  0
 24 25  1  0
 24 26  2  0
 26 66  1  0
 28 27  1  1
 28 29  1  0
 28 33  1  0
 29 30  2  0
 30 31  1  0
 30 67  1  0
 31 32  2  0
 33 34  1  1
 33 35  1  0
 34 68  1  0
 35 36  1  0
 35 37  1  0
 35 69  1  1
 36 70  1  0
 36 71  1  0
 36 72  1  0
 37 73  1  0
 37 74  1  0
M  END
>  <i_m_ct_stereo_status>  (143) 
1

>  <s_m_source_file>  (143) 
/var/tmp/pbs.5076255.sched01/tmpxjfjwjbi/40jwkb7fqh.sdf

>  <i_m_source_file_index>  (143) 
27

>  <i_lp_mmshare_version>  (143) 
48012

>  <i_f3d_flags>  (143) 
0

>  <s_epik_input>  (143) 
QzEyM1tDSDJdW0NIMl1bQ0BASF0oW0NIM10pQyg9W0NIXUMyPU8pW0NAQF00NVtDQEhdKFtDQEBIXShbQ0BIXShbQ0gzXSlbQ0gyXVtDSDJdMSlbQ0BdNShbT0hdKVtDQEBIXShbQ0gzXSlbQ0gyXTMpW0NAQEhdKFtDSDNdKVtDQEhdKE80KU9DKD1PKS9bQ0hdPVtDSF0vYzZbY0hdW2NIXVtjSF1jKENsKVtjSF02

>  <s_epik_cmdline>  (143) 
J2VwaWtfcHl0aG9uJywgJy1waHQnLCAnMi4wJywgJy1waCcsICc3LjAnLCAnLXRuJywgJzgnLCAnLW1hJywgJzIwMCcsICctaW1hZScsICc8aW5maWxlLm1hZT4nLCAnLW9tYWUnLCAnPG91dGZpbGUubWFlPic=

>  <r_lp_tautomer_probability>  (143) 
1

>  <r_epik_Ionization_Penalty>  (143) 
3.47349e-08

>  <r_epik_Ionization_Penalty_Charging>  (143) 
0

>  <r_epik_Ionization_Penalty_Neutral>  (143) 
3.47349e-08

>  <r_epik_State_Penalty>  (143) 
-0

>  <r_epik_Charging_Adjusted_Penalty>  (143) 
0

>  <i_epik_Tot_Q>  (143) 
0

>  <i_epik_Tot_abs_Q>  (143) 
0

>  <s_epik_Chemistry_Notes>  (143) 
This compound has an ester and may undergo hydrolysis at high or low pH. This compound contains an acetal/aminal-like group ( X-CH(R)-Y where X, Y are N, S, or O) that may be acid/base labile, releasing an aldehyde.

>  <s_lp_Force_Field>  (143) 
OPLS3e

>  <r_lp_Energy>  (143) 
245.56

>  <b_lp_Chiralities_Consistent>  (143) 
1

>  <s_lp_Variant>  (143) 
46:0-7

>  <s_i_glide_gridfile>  (143) 
pfpi4k_grid

>  <i_i_glide_lignum>  (143) 
27

>  <i_i_glide_rotatable_bonds>  (143) 
5

>  <r_i_docking_score>  (143) 
-2.0017

>  <r_i_glide_ligand_efficiency>  (143) 
-0.0541001

>  <r_i_glide_ligand_efficiency_sa>  (143) 
-0.180273

>  <r_i_glide_ligand_efficiency_ln>  (143) 
-0.434122

>  <r_i_glide_gscore>  (143) 
-2.0017

>  <r_i_glide_lipo>  (143) 
-0.331528

>  <r_i_glide_hbond>  (143) 
-0.129761

>  <r_i_glide_metal>  (143) 
-0

>  <r_i_glide_rewards>  (143) 
-0.0774802

>  <r_i_glide_evdw>  (143) 
-30.408

>  <r_i_glide_ecoul>  (143) 
-1.10778

>  <r_i_glide_erotb>  (143) 
0.223941

>  <r_i_glide_esite>  (143) 
-0.000308099

>  <r_i_glide_emodel>  (143) 
-34.8993

>  <r_i_glide_energy>  (143) 
-31.5158

>  <r_i_glide_einternal>  (143) 
0.832648

>  <r_i_glide_intrahb_reward>  (143) 
-0

>  <i_i_glide_confnum>  (143) 
2

>  <i_i_glide_posenum>  (143) 
6

>  <r_i_glide_eff_state_penalty>  (143) 
0

>  <ligand_id>  (143) 
46

>  <original_smiles>  (143) 
CC1CCC23CCC(C)C4C5C(C)C(OC(=O)C=Cc6cccc(Cl)c6)OC5(C1=CC2=O)C4(O)C(C)C3

>  <smiles>  (143) 
[H]OC12C34OC([H])(OC(=O)C([H])=C([H])c5c([H])c([H])c([H])c(Cl)c5[H])C([H])(C([H])([H])[H])C3([H])C1([H])C([H])(C([H])([H])[H])C([H])([H])C([H])([H])C1(C(=O)C([H])=C4C([H])(C([H])([H])[H])C([H])([H])C1([H])[H])C([H])([H])C2([H])C([H])([H])[H]

$$$$
46:6:1
     RDKit          3D

 74 79  0  0  1  0  0  0  0  0999 V2000
    2.7994   -0.3339    1.6893 C   0  0  0  0  0  0  0  0  0  0  0  0
    1.8649    0.1834    2.8072 C   0  0  2  0  0  0  0  0  0  0  0  0
    0.7054    1.0406    2.2769 C   0  0  0  0  0  0  0  0  0  0  0  0
    0.0810    2.0442    3.3194 C   0  0  0  0  0  0  0  0  0  0  0  0
    0.8579    3.3055    4.0249 C   0  0  2  0  0  0  0  0  0  0  0  0
   -0.3694    4.2129    4.1665 C   0  0  0  0  0  0  0  0  0  0  0  0
   -1.3457    3.4470    5.1747 C   0  0  0  0  0  0  0  0  0  0  0  0
   -0.9073    2.4164    6.3655 C   0  0  1  0  0  0  0  0  0  0  0  0
   -2.1818    1.6447    6.7416 C   0  0  0  0  0  0  0  0  0  0  0  0
    0.3527    1.3871    6.4560 C   0  0  1  0  0  0  0  0  0  0  0  0
    0.6713    0.0878    5.6473 C   0  0  2  0  0  0  0  0  0  0  0  0
    0.8816   -1.2116    6.3923 C   0  0  1  0  0  0  0  0  0  0  0  0
   -0.2162   -2.2735    6.1771 C   0  0  0  0  0  0  0  0  0  0  0  0
    2.2828   -1.6515    5.9508 C   0  0  1  0  0  0  0  0  0  0  0  0
    2.1764   -2.4673    4.8186 O   0  0  0  0  0  0  0  0  0  0  0  0
    3.3225   -3.0434    4.3851 C   0  0  0  0  0  0  0  0  0  0  0  0
    4.4610   -2.5974    4.5649 O   0  0  0  0  0  0  0  0  0  0  0  0
    3.0290   -4.3233    3.7107 C   0  0  0  0  0  0  0  0  0  0  0  0
    4.0018   -5.1650    3.3123 C   0  0  0  0  0  0  0  0  0  0  0  0
    3.8074   -6.4697    2.6486 C   0  0  0  0  0  0  0  0  0  0  0  0
    2.5233   -6.9806    2.3349 C   0  0  0  0  0  0  0  0  0  0  0  0
    2.3827   -8.2259    1.6906 C   0  0  0  0  0  0  0  0  0  0  0  0
    3.5256   -8.9790    1.3601 C   0  0  0  0  0  0  0  0  0  0  0  0
    4.8072   -8.4920    1.6770 C   0  0  0  0  0  0  0  0  0  0  0  0
    6.2084   -9.4192    1.2811 Cl  0  0  0  0  0  0  0  0  0  0  0  0
    4.9427   -7.2434    2.3183 C   0  0  0  0  0  0  0  0  0  0  0  0
    2.9733   -0.4450    5.7342 O   0  0  0  0  0  0  0  0  0  0  0  0
    2.1064    0.6201    5.3131 C   0  0  1  0  0  0  0  0  0  0  0  0
    2.5270    1.0506    3.8487 C   0  0  0  0  0  0  0  0  0  0  0  0
    3.0164    2.2330    3.3409 C   0  0  0  0  0  0  0  0  0  0  0  0
    2.1400    3.4325    3.2315 C   0  0  0  0  0  0  0  0  0  0  0  0
    2.4296    4.4685    2.6296 O   0  0  0  0  0  0  0  0  0  0  0  0
    1.9034    1.6465    6.4711 C   0  0  2  0  0  0  0  0  0  0  0  0
    2.4821    1.2318    7.7016 O   0  0  0  0  0  0  0  0  0  0  0  0
    2.3988    3.0457    6.3678 C   0  0  1  0  0  0  0  0  0  0  0  0
    3.9261    3.2250    6.1781 C   0  0  0  0  0  0  0  0  0  0  0  0
    1.4823    3.8127    5.4353 C   0  0  0  0  0  0  0  0  0  0  0  0
    3.6428   -0.8907    2.0985 H   0  0  0  0  0  0  0  0  0  0  0  0
    3.1974    0.4537    1.0493 H   0  0  0  0  0  0  0  0  0  0  0  0
    2.2534   -1.0132    1.0344 H   0  0  0  0  0  0  0  0  0  0  0  0
    1.4478   -0.7040    3.2730 H   0  0  0  0  0  0  0  0  0  0  0  0
    1.0250    1.5977    1.3924 H   0  0  0  0  0  0  0  0  0  0  0  0
   -0.0745    0.3713    1.9109 H   0  0  0  0  0  0  0  0  0  0  0  0
   -0.6437    2.4758    2.6266 H   0  0  0  0  0  0  0  0  0  0  0  0
   -0.6037    1.5134    3.9540 H   0  0  0  0  0  0  0  0  0  0  0  0
   -0.1344    5.2261    4.5029 H   0  0  0  0  0  0  0  0  0  0  0  0
   -0.8656    4.4102    3.2145 H   0  0  0  0  0  0  0  0  0  0  0  0
   -1.9431    4.2206    5.6528 H   0  0  0  0  0  0  0  0  0  0  0  0
   -2.0900    2.9410    4.5580 H   0  0  0  0  0  0  0  0  0  0  0  0
   -0.7617    3.0870    7.2158 H   0  0  0  0  0  0  0  0  0  0  0  0
   -2.4077    0.8939    5.9862 H   0  0  0  0  0  0  0  0  0  0  0  0
   -3.0427    2.3083    6.8215 H   0  0  0  0  0  0  0  0  0  0  0  0
   -2.0776    1.1409    7.7006 H   0  0  0  0  0  0  0  0  0  0  0  0
    0.2002    0.9976    7.4616 H   0  0  0  0  0  0  0  0  0  0  0  0
    0.0291   -0.1048    4.8011 H   0  0  0  0  0  0  0  0  0  0  0  0
    0.9614   -1.0289    7.4641 H   0  0  0  0  0  0  0  0  0  0  0  0
   -0.3746   -2.5042    5.1224 H   0  0  0  0  0  0  0  0  0  0  0  0
   -1.1700   -1.9158    6.5648 H   0  0  0  0  0  0  0  0  0  0  0  0
    0.0252   -3.2009    6.6986 H   0  0  0  0  0  0  0  0  0  0  0  0
    2.7959   -2.2195    6.7294 H   0  0  0  0  0  0  0  0  0  0  0  0
    1.9890   -4.5661    3.5630 H   0  0  0  0  0  0  0  0  0  0  0  0
    5.0306   -4.8831    3.4884 H   0  0  0  0  0  0  0  0  0  0  0  0
    1.6301   -6.4300    2.5803 H   0  0  0  0  0  0  0  0  0  0  0  0
    1.4013   -8.6068    1.4474 H   0  0  0  0  0  0  0  0  0  0  0  0
    3.4152   -9.9315    0.8641 H   0  0  0  0  0  0  0  0  0  0  0  0
    5.9312   -6.8818    2.5562 H   0  0  0  0  0  0  0  0  0  0  0  0
    3.3900    2.1287    2.3356 H   0  0  0  0  0  0  0  0  0  0  0  0
    3.4187    1.2793    7.5788 H   0  0  0  0  0  0  0  0  0  0  0  0
    2.2315    3.5316    7.3343 H   0  0  0  0  0  0  0  0  0  0  0  0
    4.3679    2.5283    5.4711 H   0  0  0  0  0  0  0  0  0  0  0  0
    4.4475    3.0717    7.1229 H   0  0  0  0  0  0  0  0  0  0  0  0
    4.1654    4.2371    5.8543 H   0  0  0  0  0  0  0  0  0  0  0  0
    2.0068    4.7542    5.2451 H   0  0  0  0  0  0  0  0  0  0  0  0
    0.7589    4.2234    6.1401 H   0  0  0  0  0  0  0  0  0  0  0  0
  1  2  1  0
  1 38  1  0
  1 39  1  0
  1 40  1  0
  2 29  1  0
  2  3  1  0
  2 41  1  1
  3  4  1  0
  3 42  1  0
  3 43  1  0
  5  4  1  1
  4 44  1  0
  4 45  1  0
  5 31  1  0
  5 37  1  0
  5  6  1  0
  6  7  1  0
  6 46  1  0
  6 47  1  0
  7  8  1  0
  7 48  1  0
  7 49  1  0
  8  9  1  0
  8 10  1  0
  8 50  1  1
  9 51  1  0
  9 52  1  0
  9 53  1  0
 10 33  1  0
 10 11  1  0
 10 54  1  1
 11 28  1  0
 11 12  1  0
 11 55  1  6
 12 13  1  0
 12 14  1  0
 12 56  1  1
 13 57  1  0
 13 58  1  0
 13 59  1  0
 14 15  1  0
 14 27  1  0
 14 60  1  1
 15 16  1  0
 16 17  2  0
 16 18  1  0
 18 19  2  3
 18 61  1  0
 19 20  1  0
 19 62  1  0
 20 26  1  0
 20 21  2  0
 21 22  1  0
 21 63  1  0
 22 23  2  0
 22 64  1  0
 23 24  1  0
 23 65  1  0
 24 25  1  0
 24 26  2  0
 26 66  1  0
 28 27  1  1
 28 29  1  0
 28 33  1  0
 29 30  2  0
 30 31  1  0
 30 67  1  0
 31 32  2  0
 33 34  1  1
 33 35  1  0
 34 68  1  0
 35 36  1  0
 35 37  1  0
 35 69  1  1
 36 70  1  0
 36 71  1  0
 36 72  1  0
 37 73  1  0
 37 74  1  0
M  END
>  <i_m_ct_stereo_status>  (144) 
1

>  <s_m_source_file>  (144) 
/var/tmp/pbs.5076255.sched01/tmpxjfjwjbi/40jwkb7fqh.sdf

>  <i_m_source_file_index>  (144) 
27

>  <i_lp_mmshare_version>  (144) 
48012

>  <i_f3d_flags>  (144) 
0

>  <s_epik_input>  (144) 
QzEyM1tDSDJdW0NIMl1bQ0BASF0oW0NIM10pQyg9W0NIXUMyPU8pW0NAQF00NVtDQEhdKFtDQEBIXShbQ0BIXShbQ0gzXSlbQ0gyXVtDSDJdMSlbQ0BdNShbT0hdKVtDQEBIXShbQ0gzXSlbQ0gyXTMpW0NAQEhdKFtDSDNdKVtDQEhdKE80KU9DKD1PKS9bQ0hdPVtDSF0vYzZbY0hdW2NIXVtjSF1jKENsKVtjSF02

>  <s_epik_cmdline>  (144) 
J2VwaWtfcHl0aG9uJywgJy1waHQnLCAnMi4wJywgJy1waCcsICc3LjAnLCAnLXRuJywgJzgnLCAnLW1hJywgJzIwMCcsICctaW1hZScsICc8aW5maWxlLm1hZT4nLCAnLW9tYWUnLCAnPG91dGZpbGUubWFlPic=

>  <r_lp_tautomer_probability>  (144) 
1

>  <r_epik_Ionization_Penalty>  (144) 
3.47349e-08

>  <r_epik_Ionization_Penalty_Charging>  (144) 
0

>  <r_epik_Ionization_Penalty_Neutral>  (144) 
3.47349e-08

>  <r_epik_State_Penalty>  (144) 
-0

>  <r_epik_Charging_Adjusted_Penalty>  (144) 
0

>  <i_epik_Tot_Q>  (144) 
0

>  <i_epik_Tot_abs_Q>  (144) 
0

>  <s_epik_Chemistry_Notes>  (144) 
This compound has an ester and may undergo hydrolysis at high or low pH. This compound contains an acetal/aminal-like group ( X-CH(R)-Y where X, Y are N, S, or O) that may be acid/base labile, releasing an aldehyde.

>  <s_lp_Force_Field>  (144) 
OPLS3e

>  <r_lp_Energy>  (144) 
245.56

>  <b_lp_Chiralities_Consistent>  (144) 
1

>  <s_lp_Variant>  (144) 
46:0-7

>  <s_i_glide_gridfile>  (144) 
pfpi4k_grid

>  <i_i_glide_lignum>  (144) 
27

>  <i_i_glide_rotatable_bonds>  (144) 
5

>  <r_i_docking_score>  (144) 
-1.61825

>  <r_i_glide_ligand_efficiency>  (144) 
-0.0437365

>  <r_i_glide_ligand_efficiency_sa>  (144) 
-0.14574

>  <r_i_glide_ligand_efficiency_ln>  (144) 
-0.35096

>  <r_i_glide_gscore>  (144) 
-1.61825

>  <r_i_glide_lipo>  (144) 
-0.0701898

>  <r_i_glide_hbond>  (144) 
0

>  <r_i_glide_metal>  (144) 
-0

>  <r_i_glide_rewards>  (144) 
0

>  <r_i_glide_evdw>  (144) 
-32.7581

>  <r_i_glide_ecoul>  (144) 
-0.58933

>  <r_i_glide_erotb>  (144) 
0.223941

>  <r_i_glide_esite>  (144) 
-0.0456966

>  <r_i_glide_emodel>  (144) 
-34.4914

>  <r_i_glide_energy>  (144) 
-33.3474

>  <r_i_glide_einternal>  (144) 
3.65669

>  <r_i_glide_intrahb_reward>  (144) 
-0

>  <i_i_glide_confnum>  (144) 
1

>  <i_i_glide_posenum>  (144) 
8

>  <r_i_glide_eff_state_penalty>  (144) 
0

>  <ligand_id>  (144) 
46

>  <original_smiles>  (144) 
CC1CCC23CCC(C)C4C5C(C)C(OC(=O)C=Cc6cccc(Cl)c6)OC5(C1=CC2=O)C4(O)C(C)C3

>  <smiles>  (144) 
[H]OC12C34OC([H])(OC(=O)C([H])=C([H])c5c([H])c([H])c([H])c(Cl)c5[H])C([H])(C([H])([H])[H])C3([H])C1([H])C([H])(C([H])([H])[H])C([H])([H])C([H])([H])C1(C(=O)C([H])=C4C([H])(C([H])([H])[H])C([H])([H])C1([H])[H])C([H])([H])C2([H])C([H])([H])[H]

$$$$
46:6:2
     RDKit          3D

 74 79  0  0  1  0  0  0  0  0999 V2000
    3.0313   -3.0189    2.8974 C   0  0  0  0  0  0  0  0  0  0  0  0
    2.1445   -2.1048    3.7791 C   0  0  2  0  0  0  0  0  0  0  0  0
    1.0383   -1.4165    2.9862 C   0  0  0  0  0  0  0  0  0  0  0  0
    0.4740   -0.0924    3.6217 C   0  0  0  0  0  0  0  0  0  0  0  0
    1.3263    1.2792    3.8636 C   0  0  2  0  0  0  0  0  0  0  0  0
    0.1693    2.2595    3.6462 C   0  0  0  0  0  0  0  0  0  0  0  0
   -0.8394    1.9616    4.8358 C   0  0  0  0  0  0  0  0  0  0  0  0
   -0.4530    1.3842    6.3140 C   0  0  1  0  0  0  0  0  0  0  0  0
   -1.7695    0.8916    6.8871 C   0  0  0  0  0  0  0  0  0  0  0  0
    0.7346    0.3690    6.7563 C   0  0  1  0  0  0  0  0  0  0  0  0
    0.9778   -1.1610    6.4793 C   0  0  2  0  0  0  0  0  0  0  0  0
    1.1289   -2.1283    7.6124 C   0  0  1  0  0  0  0  0  0  0  0  0
   -0.0049   -3.1550    7.7661 C   0  0  0  0  0  0  0  0  0  0  0  0
    2.5040   -2.7707    7.3713 C   0  0  1  0  0  0  0  0  0  0  0  0
    2.3404   -3.8745    6.5274 O   0  0  0  0  0  0  0  0  0  0  0  0
    3.4764   -4.5025    6.1301 C   0  0  0  0  0  0  0  0  0  0  0  0
    4.6130   -4.2582    6.5278 O   0  0  0  0  0  0  0  0  0  0  0  0
    3.1567   -5.5147    5.0867 C   0  0  0  0  0  0  0  0  0  0  0  0
    4.1254   -6.2107    4.4628 C   0  0  0  0  0  0  0  0  0  0  0  0
    3.9256   -7.1914    3.3885 C   0  0  0  0  0  0  0  0  0  0  0  0
    2.6469   -7.4724    2.8320 C   0  0  0  0  0  0  0  0  0  0  0  0
    2.4986   -8.4283    1.8016 C   0  0  0  0  0  0  0  0  0  0  0  0
    3.6325   -9.1151    1.3084 C   0  0  0  0  0  0  0  0  0  0  0  0
    4.9046   -8.8555    1.8591 C   0  0  0  0  0  0  0  0  0  0  0  0
    6.2757   -9.7123    1.2777 Cl  0  0  0  0  0  0  0  0  0  0  0  0
    5.0504   -7.8991    2.8879 C   0  0  0  0  0  0  0  0  0  0  0  0
    3.2567   -1.7244    6.7959 O   0  0  0  0  0  0  0  0  0  0  0  0
    2.4413   -0.8656    6.0036 C   0  0  1  0  0  0  0  0  0  0  0  0
    2.8708   -0.9687    4.4765 C   0  0  0  0  0  0  0  0  0  0  0  0
    3.4447   -0.0839    3.6028 C   0  0  0  0  0  0  0  0  0  0  0  0
    2.5789    1.0292    3.0816 C   0  0  0  0  0  0  0  0  0  0  0  0
    2.8439    1.7277    2.1192 O   0  0  0  0  0  0  0  0  0  0  0  0
    2.3029    0.5271    6.7009 C   0  0  2  0  0  0  0  0  0  0  0  0
    2.8745    0.5368    8.0119 O   0  0  0  0  0  0  0  0  0  0  0  0
    2.8858    1.7667    6.1519 C   0  0  1  0  0  0  0  0  0  0  0  0
    4.4157    1.7751    5.9223 C   0  0  0  0  0  0  0  0  0  0  0  0
    2.0038    2.2164    4.9997 C   0  0  0  0  0  0  0  0  0  0  0  0
    3.8692   -3.4161    3.4673 H   0  0  0  0  0  0  0  0  0  0  0  0
    3.4515   -2.5185    2.0253 H   0  0  0  0  0  0  0  0  0  0  0  0
    2.4463   -3.8647    2.5283 H   0  0  0  0  0  0  0  0  0  0  0  0
    1.6715   -2.7494    4.5071 H   0  0  0  0  0  0  0  0  0  0  0  0
    1.3700   -1.2184    1.9639 H   0  0  0  0  0  0  0  0  0  0  0  0
    0.2137   -2.1281    2.8791 H   0  0  0  0  0  0  0  0  0  0  0  0
   -0.2241    0.1255    2.8073 H   0  0  0  0  0  0  0  0  0  0  0  0
   -0.2468   -0.3305    4.3798 H   0  0  0  0  0  0  0  0  0  0  0  0
    0.4744    3.3097    3.6123 H   0  0  0  0  0  0  0  0  0  0  0  0
   -0.3214    2.1511    2.6771 H   0  0  0  0  0  0  0  0  0  0  0  0
   -1.3900    2.8951    5.0031 H   0  0  0  0  0  0  0  0  0  0  0  0
   -1.6216    1.3154    4.4258 H   0  0  0  0  0  0  0  0  0  0  0  0
   -0.2577    2.2954    6.8834 H   0  0  0  0  0  0  0  0  0  0  0  0
   -2.0462   -0.0604    6.4354 H   0  0  0  0  0  0  0  0  0  0  0  0
   -2.5913    1.5902    6.7349 H   0  0  0  0  0  0  0  0  0  0  0  0
   -1.6726    0.7496    7.9643 H   0  0  0  0  0  0  0  0  0  0  0  0
    0.5778    0.3540    7.8437 H   0  0  0  0  0  0  0  0  0  0  0  0
    0.3178   -1.5941    5.7316 H   0  0  0  0  0  0  0  0  0  0  0  0
    1.2204   -1.5956    8.5653 H   0  0  0  0  0  0  0  0  0  0  0  0
   -0.2027   -3.7142    6.8518 H   0  0  0  0  0  0  0  0  0  0  0  0
   -0.9025   -2.6300    8.0097 H   0  0  0  0  0  0  0  0  0  0  0  0
    0.1815   -3.8586    8.5784 H   0  0  0  0  0  0  0  0  0  0  0  0
    2.9800   -3.0979    8.2931 H   0  0  0  0  0  0  0  0  0  0  0  0
    2.1216   -5.6534    4.8368 H   0  0  0  0  0  0  0  0  0  0  0  0
    5.1521   -6.0400    4.7500 H   0  0  0  0  0  0  0  0  0  0  0  0
    1.7665   -6.9657    3.1811 H   0  0  0  0  0  0  0  0  0  0  0  0
    1.5290   -8.6464    1.3916 H   0  0  0  0  0  0  0  0  0  0  0  0
    3.5222   -9.8546    0.5326 H   0  0  0  0  0  0  0  0  0  0  0  0
    6.0276   -7.7113    3.2940 H   0  0  0  0  0  0  0  0  0  0  0  0
    3.8257   -0.5276    2.7110 H   0  0  0  0  0  0  0  0  0  0  0  0
    3.7825    0.3619    7.8893 H   0  0  0  0  0  0  0  0  0  0  0  0
    2.7556    2.5672    6.8810 H   0  0  0  0  0  0  0  0  0  0  0  0
    4.8092    0.8562    5.5029 H   0  0  0  0  0  0  0  0  0  0  0  0
    4.9377    1.9259    6.8664 H   0  0  0  0  0  0  0  0  0  0  0  0
    4.7080    2.6020    5.2762 H   0  0  0  0  0  0  0  0  0  0  0  0
    2.5832    2.9934    4.4907 H   0  0  0  0  0  0  0  0  0  0  0  0
    1.3187    2.8923    5.5083 H   0  0  0  0  0  0  0  0  0  0  0  0
  1  2  1  0
  1 38  1  0
  1 39  1  0
  1 40  1  0
  2 29  1  0
  2  3  1  0
  2 41  1  1
  3  4  1  0
  3 42  1  0
  3 43  1  0
  5  4  1  1
  4 44  1  0
  4 45  1  0
  5 31  1  0
  5 37  1  0
  5  6  1  0
  6  7  1  0
  6 46  1  0
  6 47  1  0
  7  8  1  0
  7 48  1  0
  7 49  1  0
  8  9  1  0
  8 10  1  0
  8 50  1  1
  9 51  1  0
  9 52  1  0
  9 53  1  0
 10 33  1  0
 10 11  1  0
 10 54  1  1
 11 28  1  0
 11 12  1  0
 11 55  1  6
 12 13  1  0
 12 14  1  0
 12 56  1  1
 13 57  1  0
 13 58  1  0
 13 59  1  0
 14 15  1  0
 14 27  1  0
 14 60  1  1
 15 16  1  0
 16 17  2  0
 16 18  1  0
 18 19  2  3
 18 61  1  0
 19 20  1  0
 19 62  1  0
 20 26  1  0
 20 21  2  0
 21 22  1  0
 21 63  1  0
 22 23  2  0
 22 64  1  0
 23 24  1  0
 23 65  1  0
 24 25  1  0
 24 26  2  0
 26 66  1  0
 28 27  1  1
 28 29  1  0
 28 33  1  0
 29 30  2  0
 30 31  1  0
 30 67  1  0
 31 32  2  0
 33 34  1  1
 33 35  1  0
 34 68  1  0
 35 36  1  0
 35 37  1  0
 35 69  1  1
 36 70  1  0
 36 71  1  0
 36 72  1  0
 37 73  1  0
 37 74  1  0
M  END
>  <i_m_ct_stereo_status>  (145) 
1

>  <s_m_source_file>  (145) 
/var/tmp/pbs.5076255.sched01/tmpxjfjwjbi/40jwkb7fqh.sdf

>  <i_m_source_file_index>  (145) 
27

>  <i_lp_mmshare_version>  (145) 
48012

>  <i_f3d_flags>  (145) 
0

>  <s_epik_input>  (145) 
QzEyM1tDSDJdW0NIMl1bQ0BASF0oW0NIM10pQyg9W0NIXUMyPU8pW0NAQF00NVtDQEhdKFtDQEBIXShbQ0BIXShbQ0gzXSlbQ0gyXVtDSDJdMSlbQ0BdNShbT0hdKVtDQEBIXShbQ0gzXSlbQ0gyXTMpW0NAQEhdKFtDSDNdKVtDQEhdKE80KU9DKD1PKS9bQ0hdPVtDSF0vYzZbY0hdW2NIXVtjSF1jKENsKVtjSF02

>  <s_epik_cmdline>  (145) 
J2VwaWtfcHl0aG9uJywgJy1waHQnLCAnMi4wJywgJy1waCcsICc3LjAnLCAnLXRuJywgJzgnLCAnLW1hJywgJzIwMCcsICctaW1hZScsICc8aW5maWxlLm1hZT4nLCAnLW9tYWUnLCAnPG91dGZpbGUubWFlPic=

>  <r_lp_tautomer_probability>  (145) 
1

>  <r_epik_Ionization_Penalty>  (145) 
3.47349e-08

>  <r_epik_Ionization_Penalty_Charging>  (145) 
0

>  <r_epik_Ionization_Penalty_Neutral>  (145) 
3.47349e-08

>  <r_epik_State_Penalty>  (145) 
-0

>  <r_epik_Charging_Adjusted_Penalty>  (145) 
0

>  <i_epik_Tot_Q>  (145) 
0

>  <i_epik_Tot_abs_Q>  (145) 
0

>  <s_epik_Chemistry_Notes>  (145) 
This compound has an ester and may undergo hydrolysis at high or low pH. This compound contains an acetal/aminal-like group ( X-CH(R)-Y where X, Y are N, S, or O) that may be acid/base labile, releasing an aldehyde.

>  <s_lp_Force_Field>  (145) 
OPLS3e

>  <r_lp_Energy>  (145) 
245.56

>  <b_lp_Chiralities_Consistent>  (145) 
1

>  <s_lp_Variant>  (145) 
46:0-7

>  <s_i_glide_gridfile>  (145) 
pfpi4k_grid

>  <i_i_glide_lignum>  (145) 
27

>  <i_i_glide_rotatable_bonds>  (145) 
5

>  <r_i_docking_score>  (145) 
-0.992981

>  <r_i_glide_ligand_efficiency>  (145) 
-0.0268373

>  <r_i_glide_ligand_efficiency_sa>  (145) 
-0.0894279

>  <r_i_glide_ligand_efficiency_ln>  (145) 
-0.215354

>  <r_i_glide_gscore>  (145) 
-0.992981

>  <r_i_glide_lipo>  (145) 
-0.00279658

>  <r_i_glide_hbond>  (145) 
0

>  <r_i_glide_metal>  (145) 
-0

>  <r_i_glide_rewards>  (145) 
0

>  <r_i_glide_evdw>  (145) 
-23.9357

>  <r_i_glide_ecoul>  (145) 
-0.0918251

>  <r_i_glide_erotb>  (145) 
0.223941

>  <r_i_glide_esite>  (145) 
-0.00356764

>  <r_i_glide_emodel>  (145) 
-24.8703

>  <r_i_glide_energy>  (145) 
-24.0275

>  <r_i_glide_einternal>  (145) 
1.62365

>  <r_i_glide_intrahb_reward>  (145) 
-0

>  <i_i_glide_confnum>  (145) 
2

>  <i_i_glide_posenum>  (145) 
1

>  <r_i_glide_eff_state_penalty>  (145) 
0

>  <ligand_id>  (145) 
46

>  <original_smiles>  (145) 
CC1CCC23CCC(C)C4C5C(C)C(OC(=O)C=Cc6cccc(Cl)c6)OC5(C1=CC2=O)C4(O)C(C)C3

>  <smiles>  (145) 
[H]OC12C34OC([H])(OC(=O)C([H])=C([H])c5c([H])c([H])c([H])c(Cl)c5[H])C([H])(C([H])([H])[H])C3([H])C1([H])C([H])(C([H])([H])[H])C([H])([H])C([H])([H])C1(C(=O)C([H])=C4C([H])(C([H])([H])[H])C([H])([H])C1([H])[H])C([H])([H])C2([H])C([H])([H])[H]

$$$$
48:0:0
     RDKit          3D

 40 43  0  0  1  0  0  0  0  0999 V2000
    2.9876   -4.2944    4.4078 C   0  0  0  0  0  0  0  0  0  0  0  0
    3.3958   -5.2066    3.2403 C   0  0  1  0  0  0  0  0  0  0  0  0
    3.4970   -6.5285    3.7213 O   0  0  0  0  0  0  0  0  0  0  0  0
    2.4614   -5.0991    2.0505 C   0  0  0  0  0  0  0  0  0  0  0  0
    3.0580   -4.6401    0.9412 C   0  0  0  0  0  0  0  0  0  0  0  0
    2.4291   -4.2478   -0.3030 C   0  0  0  0  0  0  0  0  0  0  0  0
    3.1093   -3.5164   -1.2120 C   0  0  0  0  0  0  0  0  0  0  0  0
    2.4793   -3.1045   -2.5346 C   0  0  0  0  0  0  0  0  0  0  0  0
    3.5225   -2.8921   -3.6282 C   0  0  0  0  0  0  0  0  0  0  0  0
    4.5125   -1.7929   -3.2304 C   0  0  0  0  0  0  0  0  0  0  0  0
    5.0185   -1.9083   -1.7912 C   0  0  0  0  0  0  0  0  0  0  0  0
    5.8135   -1.0844   -1.3405 O   0  0  0  0  0  0  0  0  0  0  0  0
    4.5797   -3.1310   -0.9780 C   0  0  1  0  0  0  0  0  0  0  0  0
    5.0168   -3.1523    0.5201 C   0  0  1  0  0  0  0  0  0  0  0  0
    4.5825   -1.9432    1.3273 C   0  0  0  0  0  0  0  0  0  0  0  0
    5.3891   -1.3822    2.3619 C   0  0  0  0  0  0  0  0  0  0  0  0
    4.8283   -0.2915    2.9726 C   0  0  0  0  0  0  0  0  0  0  0  0
    3.2827    0.1022    2.2797 S   0  0  0  0  0  0  0  0  0  0  0  0
    3.4087   -1.2367    1.1714 C   0  0  0  0  0  0  0  0  0  0  0  0
    4.5416   -4.4986    1.1032 C   0  0  1  0  0  0  0  0  0  0  0  0
    4.7129   -4.7635    2.5960 C   0  0  0  0  0  0  0  0  0  0  0  0
    5.7734   -4.6449    3.2033 O   0  0  0  0  0  0  0  0  0  0  0  0
    2.9135   -3.2562    4.0903 H   0  0  0  0  0  0  0  0  0  0  0  0
    3.7213   -4.3348    5.2128 H   0  0  0  0  0  0  0  0  0  0  0  0
    2.0249   -4.5884    4.8297 H   0  0  0  0  0  0  0  0  0  0  0  0
    4.1392   -6.5386    4.4194 H   0  0  0  0  0  0  0  0  0  0  0  0
    1.4054   -5.2805    2.1604 H   0  0  0  0  0  0  0  0  0  0  0  0
    1.4148   -4.5515   -0.5179 H   0  0  0  0  0  0  0  0  0  0  0  0
    1.7993   -3.8877   -2.8603 H   0  0  0  0  0  0  0  0  0  0  0  0
    1.8952   -2.1962   -2.3886 H   0  0  0  0  0  0  0  0  0  0  0  0
    4.0604   -3.8224   -3.8229 H   0  0  0  0  0  0  0  0  0  0  0  0
    3.0342   -2.6207   -4.5653 H   0  0  0  0  0  0  0  0  0  0  0  0
    5.3680   -1.8585   -3.8974 H   0  0  0  0  0  0  0  0  0  0  0  0
    4.0495   -0.8105   -3.3537 H   0  0  0  0  0  0  0  0  0  0  0  0
    5.1152   -3.9547   -1.4462 H   0  0  0  0  0  0  0  0  0  0  0  0
    6.1092   -3.1799    0.5314 H   0  0  0  0  0  0  0  0  0  0  0  0
    6.3470   -1.8037    2.6182 H   0  0  0  0  0  0  0  0  0  0  0  0
    5.2303    0.3089    3.7756 H   0  0  0  0  0  0  0  0  0  0  0  0
    2.6065   -1.4033    0.4670 H   0  0  0  0  0  0  0  0  0  0  0  0
    5.0055   -5.3213    0.5621 H   0  0  0  0  0  0  0  0  0  0  0  0
  1  2  1  0
  1 23  1  0
  1 24  1  0
  1 25  1  0
  2 21  1  0
  2  3  1  1
  2  4  1  0
  3 26  1  0
  4  5  2  0
  4 27  1  0
  5 20  1  0
  5  6  1  0
  6  7  2  0
  6 28  1  0
  7 13  1  0
  7  8  1  0
  8  9  1  0
  8 29  1  0
  8 30  1  0
  9 10  1  0
  9 31  1  0
  9 32  1  0
 10 11  1  0
 10 33  1  0
 10 34  1  0
 11 12  2  0
 11 13  1  0
 13 14  1  0
 13 35  1  6
 14 15  1  0
 14 20  1  0
 14 36  1  6
 15 19  2  0
 15 16  1  0
 16 17  2  0
 16 37  1  0
 17 18  1  0
 17 38  1  0
 18 19  1  0
 19 39  1  0
 20 21  1  0
 20 40  1  6
 21 22  2  0
M  END
>  <i_m_ct_stereo_status>  (146) 
1

>  <s_m_source_file>  (146) 
/var/tmp/pbs.5076255.sched01/tmpxjfjwjbi/40jwkb7fqh.sdf

>  <i_m_source_file_index>  (146) 
31

>  <i_lp_mmshare_version>  (146) 
48012

>  <i_f3d_flags>  (146) 
0

>  <s_epik_input>  (146) 
W2NIXTFzW2NIXVtjSF1jMVtDQEBIXShbQ0BIXShDMjMpQyg9TylbQ0BdKFtDSDNdKShbT0hdKVtDSF09MilbQ0BIXTRDKD1bQ0hdMylbQ0gyXVtDSDJdW0NIMl1DND1P

>  <s_epik_cmdline>  (146) 
J2VwaWtfcHl0aG9uJywgJy1waHQnLCAnMi4wJywgJy1waCcsICc3LjAnLCAnLXRuJywgJzgnLCAnLW1hJywgJzIwMCcsICctaW1hZScsICc8aW5maWxlLm1hZT4nLCAnLW9tYWUnLCAnPG91dGZpbGUubWFlPic=

>  <r_lp_tautomer_probability>  (146) 
1

>  <r_epik_Ionization_Penalty>  (146) 
6.64834e-08

>  <r_epik_Ionization_Penalty_Charging>  (146) 
0

>  <r_epik_Ionization_Penalty_Neutral>  (146) 
6.64834e-08

>  <r_epik_State_Penalty>  (146) 
-0

>  <r_epik_Charging_Adjusted_Penalty>  (146) 
0

>  <i_epik_Tot_Q>  (146) 
0

>  <i_epik_Tot_abs_Q>  (146) 
0

>  <s_lp_Force_Field>  (146) 
OPLS3e

>  <r_lp_Energy>  (146) 
18.9705

>  <b_lp_Chiralities_Consistent>  (146) 
1

>  <s_lp_Variant>  (146) 
48:0-1

>  <s_i_glide_gridfile>  (146) 
pfpi4k_grid

>  <i_i_glide_lignum>  (146) 
31

>  <i_i_glide_rotatable_bonds>  (146) 
2

>  <r_i_docking_score>  (146) 
-3.43766

>  <r_i_glide_ligand_efficiency>  (146) 
-0.156257

>  <r_i_glide_ligand_efficiency_sa>  (146) 
-0.437839

>  <r_i_glide_ligand_efficiency_ln>  (146) 
-0.840289

>  <r_i_glide_gscore>  (146) 
-3.43766

>  <r_i_glide_lipo>  (146) 
-0.774445

>  <r_i_glide_hbond>  (146) 
-0.069981

>  <r_i_glide_metal>  (146) 
-0

>  <r_i_glide_rewards>  (146) 
-1.27712

>  <r_i_glide_evdw>  (146) 
-23.4393

>  <r_i_glide_ecoul>  (146) 
-2.03914

>  <r_i_glide_erotb>  (146) 
0.188046

>  <r_i_glide_esite>  (146) 
-0.0263273

>  <r_i_glide_emodel>  (146) 
-29.6464

>  <r_i_glide_energy>  (146) 
-25.4784

>  <r_i_glide_einternal>  (146) 
1.92086

>  <r_i_glide_intrahb_reward>  (146) 
-0

>  <i_i_glide_confnum>  (146) 
3

>  <i_i_glide_posenum>  (146) 
40

>  <r_i_glide_eff_state_penalty>  (146) 
0

>  <ligand_id>  (146) 
48

>  <original_smiles>  (146) 
CC1(O)C=C2C=C3CCCC(=O)C3C(c3ccsc3)C2C1=O

>  <smiles>  (146) 
[H]OC1(C([H])([H])[H])C(=O)C2([H])C(=C1[H])C([H])=C1C([H])([H])C([H])([H])C([H])([H])C(=O)C1([H])C2([H])c1c([H])sc([H])c1[H]

$$$$
48:0:1
     RDKit          3D

 40 43  0  0  1  0  0  0  0  0999 V2000
    3.5770   -4.8671    3.9569 C   0  0  0  0  0  0  0  0  0  0  0  0
    3.7913   -5.6508    2.6505 C   0  0  1  0  0  0  0  0  0  0  0  0
    3.8846   -7.0361    2.9241 O   0  0  0  0  0  0  0  0  0  0  0  0
    2.7236   -5.3575    1.6166 C   0  0  0  0  0  0  0  0  0  0  0  0
    3.1932   -4.7801    0.5071 C   0  0  0  0  0  0  0  0  0  0  0  0
    2.4260   -4.2234   -0.5842 C   0  0  0  0  0  0  0  0  0  0  0  0
    3.0380   -3.4580   -1.5151 C   0  0  0  0  0  0  0  0  0  0  0  0
    2.2858   -2.8900   -2.7056 C   0  0  0  0  0  0  0  0  0  0  0  0
    3.1976   -2.5633   -3.8863 C   0  0  0  0  0  0  0  0  0  0  0  0
    4.2475   -1.5219   -3.4876 C   0  0  0  0  0  0  0  0  0  0  0  0
    4.9151   -1.8346   -2.1420 C   0  0  0  0  0  0  0  0  0  0  0  0
    5.7759   -1.0904   -1.6833 O   0  0  0  0  0  0  0  0  0  0  0  0
    4.5388   -3.1395   -1.4289 C   0  0  1  0  0  0  0  0  0  0  0  0
    5.1595   -3.3325   -0.0075 C   0  0  1  0  0  0  0  0  0  0  0  0
    4.8687   -2.2026    0.9711 C   0  0  0  0  0  0  0  0  0  0  0  0
    3.7423   -1.3165    0.9313 C   0  0  0  0  0  0  0  0  0  0  0  0
    3.7497   -0.3699    1.9230 C   0  0  0  0  0  0  0  0  0  0  0  0
    5.1246   -0.5562    2.9671 S   0  0  0  0  0  0  0  0  0  0  0  0
    5.6973   -1.9001    2.0225 C   0  0  0  0  0  0  0  0  0  0  0  0
    4.6921   -4.7194    0.4803 C   0  0  1  0  0  0  0  0  0  0  0  0
    5.0356   -5.1612    1.8966 C   0  0  0  0  0  0  0  0  0  0  0  0
    6.1653   -5.1097    2.3739 O   0  0  0  0  0  0  0  0  0  0  0  0
    3.5130   -3.7969    3.7665 H   0  0  0  0  0  0  0  0  0  0  0  0
    4.4044   -5.0213    4.6479 H   0  0  0  0  0  0  0  0  0  0  0  0
    2.6608   -5.1686    4.4638 H   0  0  0  0  0  0  0  0  0  0  0  0
    3.1312   -7.3150    3.4228 H   0  0  0  0  0  0  0  0  0  0  0  0
    1.6808   -5.5176    1.8376 H   0  0  0  0  0  0  0  0  0  0  0  0
    1.3828   -4.4624   -0.7040 H   0  0  0  0  0  0  0  0  0  0  0  0
    1.4735   -3.5491   -3.0061 H   0  0  0  0  0  0  0  0  0  0  0  0
    1.8518   -1.9517   -2.3756 H   0  0  0  0  0  0  0  0  0  0  0  0
    3.6657   -3.4742   -4.2589 H   0  0  0  0  0  0  0  0  0  0  0  0
    2.6143   -2.1471   -4.7044 H   0  0  0  0  0  0  0  0  0  0  0  0
    5.0044   -1.4652   -4.2685 H   0  0  0  0  0  0  0  0  0  0  0  0
    3.7978   -0.5272   -3.4191 H   0  0  0  0  0  0  0  0  0  0  0  0
    4.9827   -3.9129   -2.0525 H   0  0  0  0  0  0  0  0  0  0  0  0
    6.2432   -3.3980   -0.1335 H   0  0  0  0  0  0  0  0  0  0  0  0
    2.9671   -1.3785    0.1804 H   0  0  0  0  0  0  0  0  0  0  0  0
    3.0318    0.4210    2.0983 H   0  0  0  0  0  0  0  0  0  0  0  0
    6.6072   -2.4066    2.3057 H   0  0  0  0  0  0  0  0  0  0  0  0
    5.0459   -5.4928   -0.2026 H   0  0  0  0  0  0  0  0  0  0  0  0
  1  2  1  0
  1 23  1  0
  1 24  1  0
  1 25  1  0
  2 21  1  0
  2  3  1  1
  2  4  1  0
  3 26  1  0
  4  5  2  0
  4 27  1  0
  5 20  1  0
  5  6  1  0
  6  7  2  0
  6 28  1  0
  7 13  1  0
  7  8  1  0
  8  9  1  0
  8 29  1  0
  8 30  1  0
  9 10  1  0
  9 31  1  0
  9 32  1  0
 10 11  1  0
 10 33  1  0
 10 34  1  0
 11 12  2  0
 11 13  1  0
 13 14  1  0
 13 35  1  6
 14 15  1  0
 14 20  1  0
 14 36  1  6
 15 19  2  0
 15 16  1  0
 16 17  2  0
 16 37  1  0
 17 18  1  0
 17 38  1  0
 18 19  1  0
 19 39  1  0
 20 21  1  0
 20 40  1  6
 21 22  2  0
M  END
>  <i_m_ct_stereo_status>  (147) 
1

>  <s_m_source_file>  (147) 
/var/tmp/pbs.5076255.sched01/tmpxjfjwjbi/40jwkb7fqh.sdf

>  <i_m_source_file_index>  (147) 
31

>  <i_lp_mmshare_version>  (147) 
48012

>  <i_f3d_flags>  (147) 
0

>  <s_epik_input>  (147) 
W2NIXTFzW2NIXVtjSF1jMVtDQEBIXShbQ0BIXShDMjMpQyg9TylbQ0BdKFtDSDNdKShbT0hdKVtDSF09MilbQ0BIXTRDKD1bQ0hdMylbQ0gyXVtDSDJdW0NIMl1DND1P

>  <s_epik_cmdline>  (147) 
J2VwaWtfcHl0aG9uJywgJy1waHQnLCAnMi4wJywgJy1waCcsICc3LjAnLCAnLXRuJywgJzgnLCAnLW1hJywgJzIwMCcsICctaW1hZScsICc8aW5maWxlLm1hZT4nLCAnLW9tYWUnLCAnPG91dGZpbGUubWFlPic=

>  <r_lp_tautomer_probability>  (147) 
1

>  <r_epik_Ionization_Penalty>  (147) 
6.64834e-08

>  <r_epik_Ionization_Penalty_Charging>  (147) 
0

>  <r_epik_Ionization_Penalty_Neutral>  (147) 
6.64834e-08

>  <r_epik_State_Penalty>  (147) 
-0

>  <r_epik_Charging_Adjusted_Penalty>  (147) 
0

>  <i_epik_Tot_Q>  (147) 
0

>  <i_epik_Tot_abs_Q>  (147) 
0

>  <s_lp_Force_Field>  (147) 
OPLS3e

>  <r_lp_Energy>  (147) 
18.9705

>  <b_lp_Chiralities_Consistent>  (147) 
1

>  <s_lp_Variant>  (147) 
48:0-1

>  <s_i_glide_gridfile>  (147) 
pfpi4k_grid

>  <i_i_glide_lignum>  (147) 
31

>  <i_i_glide_rotatable_bonds>  (147) 
2

>  <r_i_docking_score>  (147) 
-3.38897

>  <r_i_glide_ligand_efficiency>  (147) 
-0.154044

>  <r_i_glide_ligand_efficiency_sa>  (147) 
-0.431638

>  <r_i_glide_ligand_efficiency_ln>  (147) 
-0.828388

>  <r_i_glide_gscore>  (147) 
-3.38897

>  <r_i_glide_lipo>  (147) 
-0.793355

>  <r_i_glide_hbond>  (147) 
-0.0637798

>  <r_i_glide_metal>  (147) 
-0

>  <r_i_glide_rewards>  (147) 
-1.29719

>  <r_i_glide_evdw>  (147) 
-22.4816

>  <r_i_glide_ecoul>  (147) 
-1.88637

>  <r_i_glide_erotb>  (147) 
0.188046

>  <r_i_glide_esite>  (147) 
-0.0156554

>  <r_i_glide_emodel>  (147) 
-29.1749

>  <r_i_glide_energy>  (147) 
-24.3679

>  <r_i_glide_einternal>  (147) 
0.574038

>  <r_i_glide_intrahb_reward>  (147) 
-0

>  <i_i_glide_confnum>  (147) 
4

>  <i_i_glide_posenum>  (147) 
29

>  <r_i_glide_eff_state_penalty>  (147) 
0

>  <ligand_id>  (147) 
48

>  <original_smiles>  (147) 
CC1(O)C=C2C=C3CCCC(=O)C3C(c3ccsc3)C2C1=O

>  <smiles>  (147) 
[H]OC1(C([H])([H])[H])C(=O)C2([H])C(=C1[H])C([H])=C1C([H])([H])C([H])([H])C([H])([H])C(=O)C1([H])C2([H])c1c([H])sc([H])c1[H]

$$$$
48:0:2
     RDKit          3D

 40 43  0  0  1  0  0  0  0  0999 V2000
    2.8796   -4.3950    4.4195 C   0  0  0  0  0  0  0  0  0  0  0  0
    3.3370   -5.2704    3.2409 C   0  0  1  0  0  0  0  0  0  0  0  0
    3.4656   -6.6130    3.6620 O   0  0  0  0  0  0  0  0  0  0  0  0
    2.4334   -5.1496    2.0309 C   0  0  0  0  0  0  0  0  0  0  0  0
    3.0403   -4.6517    0.9481 C   0  0  0  0  0  0  0  0  0  0  0  0
    2.4198   -4.2559   -0.3044 C   0  0  0  0  0  0  0  0  0  0  0  0
    3.1053   -3.4984   -1.1862 C   0  0  0  0  0  0  0  0  0  0  0  0
    2.4959   -3.0755   -2.5170 C   0  0  0  0  0  0  0  0  0  0  0  0
    3.5634   -2.7984   -3.5755 C   0  0  0  0  0  0  0  0  0  0  0  0
    4.5034   -1.6782   -3.1192 C   0  0  0  0  0  0  0  0  0  0  0  0
    4.9874   -1.8338   -1.6776 C   0  0  0  0  0  0  0  0  0  0  0  0
    5.7839   -1.0366   -1.1904 O   0  0  0  0  0  0  0  0  0  0  0  0
    4.5580   -3.0780   -0.9026 C   0  0  1  0  0  0  0  0  0  0  0  0
    4.9664   -3.1058    0.6042 C   0  0  1  0  0  0  0  0  0  0  0  0
    4.4805   -1.9248    1.4300 C   0  0  0  0  0  0  0  0  0  0  0  0
    5.2213   -1.3945    2.5346 C   0  0  0  0  0  0  0  0  0  0  0  0
    4.6180   -0.3261    3.1431 C   0  0  0  0  0  0  0  0  0  0  0  0
    3.1178    0.0880    2.3692 S   0  0  0  0  0  0  0  0  0  0  0  0
    3.3156   -1.2173    1.2325 C   0  0  0  0  0  0  0  0  0  0  0  0
    4.5149   -4.4738    1.1474 C   0  0  1  0  0  0  0  0  0  0  0  0
    4.6551   -4.7689    2.6395 C   0  0  0  0  0  0  0  0  0  0  0  0
    5.6977   -4.6118    3.2750 O   0  0  0  0  0  0  0  0  0  0  0  0
    2.7871   -3.3515    4.1211 H   0  0  0  0  0  0  0  0  0  0  0  0
    3.5966   -4.4306    5.2381 H   0  0  0  0  0  0  0  0  0  0  0  0
    1.9154   -4.7140    4.8115 H   0  0  0  0  0  0  0  0  0  0  0  0
    2.6769   -6.8878    4.1098 H   0  0  0  0  0  0  0  0  0  0  0  0
    1.3795   -5.3608    2.1075 H   0  0  0  0  0  0  0  0  0  0  0  0
    1.4149   -4.5724   -0.5418 H   0  0  0  0  0  0  0  0  0  0  0  0
    1.8282   -3.8578   -2.8695 H   0  0  0  0  0  0  0  0  0  0  0  0
    1.8934   -2.1852   -2.3606 H   0  0  0  0  0  0  0  0  0  0  0  0
    4.1409   -3.7024   -3.7714 H   0  0  0  0  0  0  0  0  0  0  0  0
    3.0941   -2.5193   -4.5190 H   0  0  0  0  0  0  0  0  0  0  0  0
    5.3758   -1.6842   -3.7675 H   0  0  0  0  0  0  0  0  0  0  0  0
    4.0142   -0.7052   -3.2266 H   0  0  0  0  0  0  0  0  0  0  0  0
    5.1405   -3.8665   -1.3732 H   0  0  0  0  0  0  0  0  0  0  0  0
    6.0575   -3.1004    0.6469 H   0  0  0  0  0  0  0  0  0  0  0  0
    6.1654   -1.8211    2.8413 H   0  0  0  0  0  0  0  0  0  0  0  0
    4.9650    0.2487    3.9904 H   0  0  0  0  0  0  0  0  0  0  0  0
    2.5544   -1.3611    0.4790 H   0  0  0  0  0  0  0  0  0  0  0  0
    5.0194   -5.2726    0.6064 H   0  0  0  0  0  0  0  0  0  0  0  0
  1  2  1  0
  1 23  1  0
  1 24  1  0
  1 25  1  0
  2 21  1  0
  2  3  1  1
  2  4  1  0
  3 26  1  0
  4  5  2  0
  4 27  1  0
  5 20  1  0
  5  6  1  0
  6  7  2  0
  6 28  1  0
  7 13  1  0
  7  8  1  0
  8  9  1  0
  8 29  1  0
  8 30  1  0
  9 10  1  0
  9 31  1  0
  9 32  1  0
 10 11  1  0
 10 33  1  0
 10 34  1  0
 11 12  2  0
 11 13  1  0
 13 14  1  0
 13 35  1  6
 14 15  1  0
 14 20  1  0
 14 36  1  6
 15 19  2  0
 15 16  1  0
 16 17  2  0
 16 37  1  0
 17 18  1  0
 17 38  1  0
 18 19  1  0
 19 39  1  0
 20 21  1  0
 20 40  1  6
 21 22  2  0
M  END
>  <i_m_ct_stereo_status>  (148) 
1

>  <s_m_source_file>  (148) 
/var/tmp/pbs.5076255.sched01/tmpxjfjwjbi/40jwkb7fqh.sdf

>  <i_m_source_file_index>  (148) 
31

>  <i_lp_mmshare_version>  (148) 
48012

>  <i_f3d_flags>  (148) 
0

>  <s_epik_input>  (148) 
W2NIXTFzW2NIXVtjSF1jMVtDQEBIXShbQ0BIXShDMjMpQyg9TylbQ0BdKFtDSDNdKShbT0hdKVtDSF09MilbQ0BIXTRDKD1bQ0hdMylbQ0gyXVtDSDJdW0NIMl1DND1P

>  <s_epik_cmdline>  (148) 
J2VwaWtfcHl0aG9uJywgJy1waHQnLCAnMi4wJywgJy1waCcsICc3LjAnLCAnLXRuJywgJzgnLCAnLW1hJywgJzIwMCcsICctaW1hZScsICc8aW5maWxlLm1hZT4nLCAnLW9tYWUnLCAnPG91dGZpbGUubWFlPic=

>  <r_lp_tautomer_probability>  (148) 
1

>  <r_epik_Ionization_Penalty>  (148) 
6.64834e-08

>  <r_epik_Ionization_Penalty_Charging>  (148) 
0

>  <r_epik_Ionization_Penalty_Neutral>  (148) 
6.64834e-08

>  <r_epik_State_Penalty>  (148) 
-0

>  <r_epik_Charging_Adjusted_Penalty>  (148) 
0

>  <i_epik_Tot_Q>  (148) 
0

>  <i_epik_Tot_abs_Q>  (148) 
0

>  <s_lp_Force_Field>  (148) 
OPLS3e

>  <r_lp_Energy>  (148) 
18.9705

>  <b_lp_Chiralities_Consistent>  (148) 
1

>  <s_lp_Variant>  (148) 
48:0-1

>  <s_i_glide_gridfile>  (148) 
pfpi4k_grid

>  <i_i_glide_lignum>  (148) 
31

>  <i_i_glide_rotatable_bonds>  (148) 
2

>  <r_i_docking_score>  (148) 
-3.32483

>  <r_i_glide_ligand_efficiency>  (148) 
-0.151129

>  <r_i_glide_ligand_efficiency_sa>  (148) 
-0.423469

>  <r_i_glide_ligand_efficiency_ln>  (148) 
-0.81271

>  <r_i_glide_gscore>  (148) 
-3.32483

>  <r_i_glide_lipo>  (148) 
-0.683521

>  <r_i_glide_hbond>  (148) 
-0.0615951

>  <r_i_glide_metal>  (148) 
-0

>  <r_i_glide_rewards>  (148) 
-1.27561

>  <r_i_glide_evdw>  (148) 
-23.3134

>  <r_i_glide_ecoul>  (148) 
-1.95207

>  <r_i_glide_erotb>  (148) 
0.188046

>  <r_i_glide_esite>  (148) 
-0.0336679

>  <r_i_glide_emodel>  (148) 
-30.1301

>  <r_i_glide_energy>  (148) 
-25.2655

>  <r_i_glide_einternal>  (148) 
0.186045

>  <r_i_glide_intrahb_reward>  (148) 
-0

>  <i_i_glide_confnum>  (148) 
3

>  <i_i_glide_posenum>  (148) 
28

>  <r_i_glide_eff_state_penalty>  (148) 
0

>  <ligand_id>  (148) 
48

>  <original_smiles>  (148) 
CC1(O)C=C2C=C3CCCC(=O)C3C(c3ccsc3)C2C1=O

>  <smiles>  (148) 
[H]OC1(C([H])([H])[H])C(=O)C2([H])C(=C1[H])C([H])=C1C([H])([H])C([H])([H])C([H])([H])C(=O)C1([H])C2([H])c1c([H])sc([H])c1[H]

$$$$
50:0:0
     RDKit          3D

 33 38  0  0  1  0  0  0  0  0999 V2000
   -4.6027   -7.1431   -4.8485 O   0  0  0  0  0  0  0  0  0  0  0  0
   -5.5300   -6.2945   -4.2331 C   0  0  0  0  0  0  0  0  0  0  0  0
   -5.4482   -4.8857   -4.7573 C   0  0  1  0  0  0  0  0  0  0  0  0
   -6.0721   -4.3811   -6.0048 C   0  0  1  0  0  0  0  0  0  0  0  0
   -7.1665   -5.0721   -6.8345 C   0  0  1  0  0  0  0  0  0  0  0  0
   -8.7982   -5.5566   -5.6063 C   0  0  2  0  0  0  0  0  0  0  0  0
  -10.3063   -5.0639   -6.0109 C   0  0  0  0  0  0  0  0  0  0  0  0
   -9.8847   -4.0244   -6.9470 C   0  0  2  0  0  0  0  0  0  0  0  0
   -9.1278   -4.8346   -8.0210 C   0  0  2  0  0  0  0  0  0  0  0  0
   -8.8846   -6.3902   -7.5885 C   0  0  0  0  0  0  0  0  0  0  0  0
   -8.0557   -6.1761   -6.0836 C   0  0  1  0  0  0  0  0  0  0  0  0
   -8.0884   -4.4013   -4.9954 C   0  0  2  0  0  0  0  0  0  0  0  0
   -8.6126   -3.3779   -6.2953 C   0  0  1  0  0  0  0  0  0  0  0  0
   -7.9371   -3.9957   -7.5473 C   0  0  1  0  0  0  0  0  0  0  0  0
   -6.6600   -3.9997   -4.7182 C   0  0  1  0  0  0  0  0  0  0  0  0
   -4.6084   -7.9691   -4.3938 H   0  0  0  0  0  0  0  0  0  0  0  0
   -6.5138   -6.6983   -4.1785 H   0  0  0  0  0  0  0  0  0  0  0  0
   -5.3793   -6.3193   -3.1863 H   0  0  0  0  0  0  0  0  0  0  0  0
   -4.5439   -4.3547   -4.4935 H   0  0  0  0  0  0  0  0  0  0  0  0
   -5.4758   -3.6430   -6.5243 H   0  0  0  0  0  0  0  0  0  0  0  0
   -6.5841   -5.8154   -7.4718 H   0  0  0  0  0  0  0  0  0  0  0  0
   -8.8809   -6.2251   -4.6908 H   0  0  0  0  0  0  0  0  0  0  0  0
  -10.9904   -5.8043   -6.4174 H   0  0  0  0  0  0  0  0  0  0  0  0
  -10.7747   -4.5799   -5.1677 H   0  0  0  0  0  0  0  0  0  0  0  0
  -10.6320   -3.3301   -7.3165 H   0  0  0  0  0  0  0  0  0  0  0  0
   -9.4631   -4.6497   -9.0394 H   0  0  0  0  0  0  0  0  0  0  0  0
   -9.7721   -7.0190   -7.5219 H   0  0  0  0  0  0  0  0  0  0  0  0
   -8.2698   -6.9116   -8.3310 H   0  0  0  0  0  0  0  0  0  0  0  0
   -7.7258   -7.1672   -5.6939 H   0  0  0  0  0  0  0  0  0  0  0  0
   -8.5830   -4.2359   -3.9849 H   0  0  0  0  0  0  0  0  0  0  0  0
   -8.6627   -2.2954   -6.1517 H   0  0  0  0  0  0  0  0  0  0  0  0
   -7.4895   -3.2899   -8.2485 H   0  0  0  0  0  0  0  0  0  0  0  0
   -6.4996   -2.9693   -4.4351 H   0  0  0  0  0  0  0  0  0  0  0  0
  1  2  1  0
  1 16  1  0
  2  3  1  0
  2 17  1  0
  2 18  1  0
  3 15  1  0
  3  4  1  0
  3 19  1  1
  4 15  1  0
  4  5  1  0
  4 20  1  6
  5 14  1  0
  5  6  1  0
  5 21  1  6
  6 11  1  0
  6  7  1  0
  6 22  1  1
  7  8  1  0
  7 23  1  0
  7 24  1  0
  8 13  1  0
  8  9  1  0
  8 25  1  6
  9 14  1  0
  9 10  1  0
  9 26  1  6
 10 11  1  0
 10 27  1  0
 10 28  1  0
 11 12  1  0
 11 29  1  1
 12 13  1  0
 12 15  1  0
 12 30  1  1
 13 14  1  0
 13 31  1  1
 14 32  1  6
 15 33  1  1
M  END
>  <i_m_ct_stereo_status>  (149) 
1

>  <s_m_source_file>  (149) 
/var/tmp/pbs.5076255.sched01/tmpxjfjwjbi/40jwkb7fqh.sdf

>  <i_m_source_file_index>  (149) 
33

>  <i_lp_mmshare_version>  (149) 
48012

>  <i_f3d_flags>  (149) 
0

>  <s_epik_input>  (149) 
W09IXVtDSDJdW0NASF0xW0NAQEhdMltDQEhdKFtDQEhdM1tDQEhdNFtDQEBIXTVbQ0BIXTEyKVtDQEBIXTZbQ0BIXShbQ0gyXTQpW0NASF0oW0NIMl0zKVtDQEhdNTY=

>  <s_epik_cmdline>  (149) 
J2VwaWtfcHl0aG9uJywgJy1waHQnLCAnMi4wJywgJy1waCcsICc3LjAnLCAnLXRuJywgJzgnLCAnLW1hJywgJzIwMCcsICctaW1hZScsICc8aW5maWxlLm1hZT4nLCAnLW9tYWUnLCAnPG91dGZpbGUubWFlPic=

>  <r_lp_tautomer_probability>  (149) 
1

>  <r_epik_Ionization_Penalty>  (149) 
1.1225e-06

>  <r_epik_Ionization_Penalty_Charging>  (149) 
0

>  <r_epik_Ionization_Penalty_Neutral>  (149) 
1.1225e-06

>  <r_epik_State_Penalty>  (149) 
-0

>  <r_epik_Charging_Adjusted_Penalty>  (149) 
0

>  <i_epik_Tot_Q>  (149) 
0

>  <i_epik_Tot_abs_Q>  (149) 
0

>  <s_lp_Force_Field>  (149) 
OPLS3e

>  <r_lp_Energy>  (149) 
731.376

>  <b_lp_Chiralities_Consistent>  (149) 
1

>  <s_lp_Variant>  (149) 
50:0-1

>  <s_i_glide_gridfile>  (149) 
pfpi4k_grid

>  <i_i_glide_lignum>  (149) 
33

>  <i_i_glide_rotatable_bonds>  (149) 
2

>  <r_i_docking_score>  (149) 
-5.78773

>  <r_i_glide_ligand_efficiency>  (149) 
-0.385849

>  <r_i_glide_ligand_efficiency_sa>  (149) 
-0.951584

>  <r_i_glide_ligand_efficiency_ln>  (149) 
-1.56086

>  <r_i_glide_gscore>  (149) 
-5.78773

>  <r_i_glide_lipo>  (149) 
-2.47431

>  <r_i_glide_hbond>  (149) 
-0.245652

>  <r_i_glide_metal>  (149) 
-0

>  <r_i_glide_rewards>  (149) 
-2.78505

>  <r_i_glide_evdw>  (149) 
1.32882

>  <r_i_glide_ecoul>  (149) 
-2.62293

>  <r_i_glide_erotb>  (149) 
0

>  <r_i_glide_esite>  (149) 
0

>  <r_i_glide_emodel>  (149) 
-0.526543

>  <r_i_glide_energy>  (149) 
-1.2941

>  <r_i_glide_einternal>  (149) 
0.824896

>  <r_i_glide_intrahb_reward>  (149) 
-0

>  <i_i_glide_confnum>  (149) 
2

>  <i_i_glide_posenum>  (149) 
25

>  <r_i_glide_eff_state_penalty>  (149) 
0

>  <ligand_id>  (149) 
50

>  <original_smiles>  (149) 
OCC1C2C3C4CC5C6CC4C(C5C63)C12

>  <smiles>  (149) 
[H]OC([H])([H])C1([H])C2([H])C1([H])C1([H])C3([H])C([H])([H])C4([H])C5([H])C([H])([H])C3([H])C2([H])C4([H])C51[H]

$$$$
50:0:1
     RDKit          3D

 33 38  0  0  1  0  0  0  0  0999 V2000
   -6.8063   -5.0617   -5.5277 O   0  0  0  0  0  0  0  0  0  0  0  0
   -8.2008   -5.2480   -5.5136 C   0  0  0  0  0  0  0  0  0  0  0  0
   -8.8613   -4.4083   -6.5874 C   0  0  1  0  0  0  0  0  0  0  0  0
   -8.8011   -4.5948   -8.1002 C   0  0  1  0  0  0  0  0  0  0  0  0
   -8.4751   -5.8840   -8.9124 C   0  0  1  0  0  0  0  0  0  0  0  0
   -9.4667   -7.5908   -8.1085 C   0  0  2  0  0  0  0  0  0  0  0  0
  -10.4085   -8.5171   -9.0862 C   0  0  0  0  0  0  0  0  0  0  0  0
  -10.4790   -7.5649  -10.1967 C   0  0  2  0  0  0  0  0  0  0  0  0
   -8.9892   -7.3637  -10.5679 C   0  0  2  0  0  0  0  0  0  0  0  0
   -7.9602   -8.0470   -9.4771 C   0  0  0  0  0  0  0  0  0  0  0  0
   -8.4409   -7.2037   -8.0372 C   0  0  1  0  0  0  0  0  0  0  0  0
  -10.2782   -6.3515   -7.8100 C   0  0  2  0  0  0  0  0  0  0  0  0
  -10.6515   -6.1811   -9.4949 C   0  0  1  0  0  0  0  0  0  0  0  0
   -9.2810   -5.9065  -10.1596 C   0  0  1  0  0  0  0  0  0  0  0  0
  -10.0519   -4.9226   -7.3583 C   0  0  1  0  0  0  0  0  0  0  0  0
   -6.4435   -5.5501   -4.7982 H   0  0  0  0  0  0  0  0  0  0  0  0
   -8.4746   -6.2931   -5.6055 H   0  0  0  0  0  0  0  0  0  0  0  0
   -8.5815   -4.9405   -4.5414 H   0  0  0  0  0  0  0  0  0  0  0  0
   -8.9286   -3.3608   -6.2950 H   0  0  0  0  0  0  0  0  0  0  0  0
   -8.7523   -3.6706   -8.6672 H   0  0  0  0  0  0  0  0  0  0  0  0
   -7.3965   -5.7432   -9.2077 H   0  0  0  0  0  0  0  0  0  0  0  0
   -9.3916   -8.2028   -7.1630 H   0  0  0  0  0  0  0  0  0  0  0  0
  -10.0285   -9.5026   -9.3484 H   0  0  0  0  0  0  0  0  0  0  0  0
  -11.3937   -8.6714   -8.6404 H   0  0  0  0  0  0  0  0  0  0  0  0
  -11.1457   -7.7818  -11.0299 H   0  0  0  0  0  0  0  0  0  0  0  0
   -8.7696   -7.5080  -11.6253 H   0  0  0  0  0  0  0  0  0  0  0  0
   -8.0049   -9.1327   -9.4051 H   0  0  0  0  0  0  0  0  0  0  0  0
   -6.9197   -7.8212   -9.7230 H   0  0  0  0  0  0  0  0  0  0  0  0
   -7.7840   -7.4374   -7.1664 H   0  0  0  0  0  0  0  0  0  0  0  0
  -11.1438   -6.7037   -7.1834 H   0  0  0  0  0  0  0  0  0  0  0  0
  -11.5075   -5.5690   -9.8314 H   0  0  0  0  0  0  0  0  0  0  0  0
   -9.1721   -5.1432  -10.9301 H   0  0  0  0  0  0  0  0  0  0  0  0
  -10.8997   -4.2471   -7.4819 H   0  0  0  0  0  0  0  0  0  0  0  0
  1  2  1  0
  1 16  1  0
  2  3  1  0
  2 17  1  0
  2 18  1  0
  3 15  1  0
  3  4  1  0
  3 19  1  6
  4 15  1  0
  4  5  1  0
  4 20  1  6
  5 14  1  0
  5  6  1  0
  5 21  1  6
  6 11  1  0
  6  7  1  0
  6 22  1  1
  7  8  1  0
  7 23  1  0
  7 24  1  0
  8 13  1  0
  8  9  1  0
  8 25  1  6
  9 14  1  0
  9 10  1  0
  9 26  1  6
 10 11  1  0
 10 27  1  0
 10 28  1  0
 11 12  1  0
 11 29  1  1
 12 13  1  0
 12 15  1  0
 12 30  1  1
 13 14  1  0
 13 31  1  1
 14 32  1  6
 15 33  1  6
M  END
>  <i_m_ct_stereo_status>  (150) 
1

>  <s_m_source_file>  (150) 
/var/tmp/pbs.5076255.sched01/tmpxjfjwjbi/40jwkb7fqh.sdf

>  <i_m_source_file_index>  (150) 
33

>  <i_lp_mmshare_version>  (150) 
48012

>  <i_f3d_flags>  (150) 
0

>  <s_epik_input>  (150) 
W09IXVtDSDJdW0NASF0xW0NAQEhdMltDQEhdKFtDQEhdM1tDQEhdNFtDQEBIXTVbQ0BIXTEyKVtDQEBIXTZbQ0BIXShbQ0gyXTQpW0NASF0oW0NIMl0zKVtDQEhdNTY=

>  <s_epik_cmdline>  (150) 
J2VwaWtfcHl0aG9uJywgJy1waHQnLCAnMi4wJywgJy1waCcsICc3LjAnLCAnLXRuJywgJzgnLCAnLW1hJywgJzIwMCcsICctaW1hZScsICc8aW5maWxlLm1hZT4nLCAnLW9tYWUnLCAnPG91dGZpbGUubWFlPic=

>  <r_lp_tautomer_probability>  (150) 
1

>  <r_epik_Ionization_Penalty>  (150) 
1.1225e-06

>  <r_epik_Ionization_Penalty_Charging>  (150) 
0

>  <r_epik_Ionization_Penalty_Neutral>  (150) 
1.1225e-06

>  <r_epik_State_Penalty>  (150) 
-0

>  <r_epik_Charging_Adjusted_Penalty>  (150) 
0

>  <i_epik_Tot_Q>  (150) 
0

>  <i_epik_Tot_abs_Q>  (150) 
0

>  <s_lp_Force_Field>  (150) 
OPLS3e

>  <r_lp_Energy>  (150) 
731.376

>  <b_lp_Chiralities_Consistent>  (150) 
1

>  <s_lp_Variant>  (150) 
50:0-1

>  <s_i_glide_gridfile>  (150) 
pfpi4k_grid

>  <i_i_glide_lignum>  (150) 
33

>  <i_i_glide_rotatable_bonds>  (150) 
2

>  <r_i_docking_score>  (150) 
-4.37126

>  <r_i_glide_ligand_efficiency>  (150) 
-0.291418

>  <r_i_glide_ligand_efficiency_sa>  (150) 
-0.718698

>  <r_i_glide_ligand_efficiency_ln>  (150) 
-1.17886

>  <r_i_glide_gscore>  (150) 
-4.37126

>  <r_i_glide_lipo>  (150) 
-1.44013

>  <r_i_glide_hbond>  (150) 
0

>  <r_i_glide_metal>  (150) 
-0

>  <r_i_glide_rewards>  (150) 
-2.1966

>  <r_i_glide_evdw>  (150) 
-14.3341

>  <r_i_glide_ecoul>  (150) 
-0.118878

>  <r_i_glide_erotb>  (150) 
0

>  <r_i_glide_esite>  (150) 
0

>  <r_i_glide_emodel>  (150) 
-16.7168

>  <r_i_glide_energy>  (150) 
-14.453

>  <r_i_glide_einternal>  (150) 
0.837388

>  <r_i_glide_intrahb_reward>  (150) 
-0

>  <i_i_glide_confnum>  (150) 
2

>  <i_i_glide_posenum>  (150) 
36

>  <r_i_glide_eff_state_penalty>  (150) 
0

>  <ligand_id>  (150) 
50

>  <original_smiles>  (150) 
OCC1C2C3C4CC5C6CC4C(C5C63)C12

>  <smiles>  (150) 
[H]OC([H])([H])C1([H])C2([H])C1([H])C1([H])C3([H])C([H])([H])C4([H])C5([H])C([H])([H])C3([H])C2([H])C4([H])C51[H]

$$$$
52:0:0
     RDKit          3D

 45 48  0  0  1  0  0  0  0  0999 V2000
    3.9050   -1.2163   -4.1185 C   0  0  0  0  0  0  0  0  0  0  0  0
    3.8627   -2.4060   -3.1451 C   0  0  2  0  0  0  0  0  0  0  0  0
    2.3501   -2.8068   -2.8063 C   0  0  0  0  0  0  0  0  0  0  0  0
    2.0030   -3.5493   -1.4239 C   0  0  0  0  0  0  0  0  0  0  0  0
    3.0085   -3.1339   -0.3277 C   0  0  1  0  0  0  0  0  0  0  0  0
    3.0198   -3.3241    1.1653 C   0  0  1  0  0  0  0  0  0  0  0  0
    3.4848   -4.6926    1.6292 C   0  0  0  0  0  0  0  0  0  0  0  0
    4.9890   -4.7969    1.8857 C   0  0  0  0  0  0  0  0  0  0  0  0
    5.8791   -3.9600    0.9265 C   0  0  1  0  0  0  0  0  0  0  0  0
    7.2771   -4.5911    0.9217 C   0  0  0  0  0  0  0  0  0  0  0  0
    5.4831   -4.0335   -0.4066 O   0  0  0  0  0  0  0  0  0  0  0  0
    4.3423   -3.3859   -0.9707 C   0  0  2  0  0  0  0  0  0  0  0  0
    4.4960   -2.1202   -1.7687 C   0  0  1  0  0  0  0  0  0  0  0  0
    5.6294   -1.2998   -1.1901 C   0  0  0  0  0  0  0  0  0  0  0  0
    5.1956   -0.7561    0.2346 C   0  0  0  0  0  0  0  0  0  0  0  0
    5.0716   -1.7653    1.4613 C   0  0  1  0  0  0  0  0  0  0  0  0
    5.4082   -0.9800    2.7369 C   0  0  0  0  0  0  0  0  0  0  0  0
    3.7554   -2.2349    1.7771 O   0  0  0  0  0  0  0  0  0  0  0  0
    6.1146   -2.6874    1.4224 O   0  0  0  0  0  0  0  0  0  0  0  0
    3.4086   -0.3371   -3.7015 H   0  0  0  0  0  0  0  0  0  0  0  0
    3.4025   -1.4538   -5.0559 H   0  0  0  0  0  0  0  0  0  0  0  0
    4.9299   -0.9403   -4.3565 H   0  0  0  0  0  0  0  0  0  0  0  0
    4.3647   -3.2487   -3.6283 H   0  0  0  0  0  0  0  0  0  0  0  0
    1.8214   -1.8561   -2.7551 H   0  0  0  0  0  0  0  0  0  0  0  0
    1.9050   -3.3528   -3.6383 H   0  0  0  0  0  0  0  0  0  0  0  0
    0.9927   -3.2922   -1.1350 H   0  0  0  0  0  0  0  0  0  0  0  0
    1.9918   -4.6355   -1.5142 H   0  0  0  0  0  0  0  0  0  0  0  0
    2.7027   -2.0939   -0.2328 H   0  0  0  0  0  0  0  0  0  0  0  0
    1.9899   -3.2015    1.5022 H   0  0  0  0  0  0  0  0  0  0  0  0
    2.9699   -4.9271    2.5616 H   0  0  0  0  0  0  0  0  0  0  0  0
    3.1665   -5.4466    0.9040 H   0  0  0  0  0  0  0  0  0  0  0  0
    5.2187   -4.4911    2.9094 H   0  0  0  0  0  0  0  0  0  0  0  0
    5.2658   -5.8485    1.8088 H   0  0  0  0  0  0  0  0  0  0  0  0
    7.9401   -3.9987    0.2929 H   0  0  0  0  0  0  0  0  0  0  0  0
    7.2324   -5.6072    0.5308 H   0  0  0  0  0  0  0  0  0  0  0  0
    7.6806   -4.6167    1.9355 H   0  0  0  0  0  0  0  0  0  0  0  0
    4.2090   -4.2094   -1.6754 H   0  0  0  0  0  0  0  0  0  0  0  0
    3.7815   -1.3192   -1.5895 H   0  0  0  0  0  0  0  0  0  0  0  0
    6.5650   -1.8601   -1.1464 H   0  0  0  0  0  0  0  0  0  0  0  0
    5.7952   -0.4449   -1.8414 H   0  0  0  0  0  0  0  0  0  0  0  0
    5.9618   -0.0307    0.5058 H   0  0  0  0  0  0  0  0  0  0  0  0
    4.2789   -0.1655    0.1915 H   0  0  0  0  0  0  0  0  0  0  0  0
    5.3372   -1.6491    3.5944 H   0  0  0  0  0  0  0  0  0  0  0  0
    4.7027   -0.1597    2.8743 H   0  0  0  0  0  0  0  0  0  0  0  0
    6.4221   -0.5871    2.6910 H   0  0  0  0  0  0  0  0  0  0  0  0
  1  2  1  0
  1 20  1  0
  1 21  1  0
  1 22  1  0
  2 13  1  0
  2  3  1  0
  2 23  1  6
  3  4  1  0
  3 24  1  0
  3 25  1  0
  4  5  1  0
  4 26  1  0
  4 27  1  0
  5 12  1  0
  5  6  1  0
  5 28  1  1
  6 18  1  0
  6  7  1  0
  6 29  1  1
  7  8  1  0
  7 30  1  0
  7 31  1  0
  8  9  1  0
  8 32  1  0
  8 33  1  0
  9 19  1  0
  9 10  1  6
  9 11  1  0
 10 34  1  0
 10 35  1  0
 10 36  1  0
 11 12  1  0
 12 13  1  0
 12 37  1  6
 13 14  1  0
 13 38  1  1
 14 15  1  0
 14 39  1  0
 14 40  1  0
 15 16  1  0
 15 41  1  0
 15 42  1  0
 16 17  1  1
 16 18  1  0
 16 19  1  0
 17 43  1  0
 17 44  1  0
 17 45  1  0
M  END
>  <i_m_ct_stereo_status>  (151) 
1

>  <s_m_source_file>  (151) 
/var/tmp/pbs.5076255.sched01/tmpxjfjwjbi/40jwkb7fqh.sdf

>  <i_m_source_file_index>  (151) 
35

>  <i_lp_mmshare_version>  (151) 
48012

>  <i_f3d_flags>  (151) 
0

>  <s_epik_input>  (151) 
W0NIM11bQ0BdKE8xKShPMilbQ0gyXVtDSDJdW0NAQEhdKFtDQEhdKFtDSDNdKVtDSDJdW0NIMl0zKVtDQEBIXShPNClbQ0BASF0zW0NASF0xW0NIMl1bQ0gyXVtDQF0yNFtDSDNd

>  <s_epik_cmdline>  (151) 
J2VwaWtfcHl0aG9uJywgJy1waHQnLCAnMi4wJywgJy1waCcsICc3LjAnLCAnLXRuJywgJzgnLCAnLW1hJywgJzIwMCcsICctaW1hZScsICc8aW5maWxlLm1hZT4nLCAnLW9tYWUnLCAnPG91dGZpbGUubWFlPic=

>  <r_lp_tautomer_probability>  (151) 
1

>  <r_epik_Ionization_Penalty>  (151) 
6.19376e-13

>  <r_epik_Ionization_Penalty_Charging>  (151) 
0

>  <r_epik_Ionization_Penalty_Neutral>  (151) 
6.19376e-13

>  <r_epik_State_Penalty>  (151) 
-0

>  <r_epik_Charging_Adjusted_Penalty>  (151) 
0

>  <i_epik_Tot_Q>  (151) 
0

>  <i_epik_Tot_abs_Q>  (151) 
0

>  <s_lp_Force_Field>  (151) 
OPLS3e

>  <r_lp_Energy>  (151) 
112.411

>  <b_lp_Chiralities_Consistent>  (151) 
1

>  <s_lp_Variant>  (151) 
52:0-1

>  <s_i_glide_gridfile>  (151) 
pfpi4k_grid

>  <i_i_glide_lignum>  (151) 
35

>  <i_i_glide_rotatable_bonds>  (151) 
0

>  <r_i_docking_score>  (151) 
-3.58835

>  <r_i_glide_ligand_efficiency>  (151) 
-0.188861

>  <r_i_glide_ligand_efficiency_sa>  (151) 
-0.503956

>  <r_i_glide_ligand_efficiency_ln>  (151) 
-0.909724

>  <r_i_glide_gscore>  (151) 
-3.58835

>  <r_i_glide_lipo>  (151) 
-0.577596

>  <r_i_glide_hbond>  (151) 
0

>  <r_i_glide_metal>  (151) 
-0

>  <r_i_glide_rewards>  (151) 
-1.7868

>  <r_i_glide_evdw>  (151) 
-22.9439

>  <r_i_glide_ecoul>  (151) 
-0.51172

>  <r_i_glide_erotb>  (151) 
0

>  <r_i_glide_esite>  (151) 
0

>  <r_i_glide_emodel>  (151) 
-27.992

>  <r_i_glide_energy>  (151) 
-23.4556

>  <r_i_glide_einternal>  (151) 
0

>  <r_i_glide_intrahb_reward>  (151) 
-0

>  <i_i_glide_confnum>  (151) 
1

>  <i_i_glide_posenum>  (151) 
39

>  <r_i_glide_eff_state_penalty>  (151) 
0

>  <ligand_id>  (151) 
52

>  <original_smiles>  (151) 
CC1CCC2C3CCC4(C)OC2C1CCC(C)(O3)O4

>  <smiles>  (151) 
[H]C([H])([H])C12OC3([H])C4([H])C([H])([H])C([H])([H])C([H])(C([H])([H])[H])C3([H])C([H])([H])C([H])([H])C(C([H])([H])[H])(OC4([H])C([H])([H])C1([H])[H])O2

$$$$
52:0:1
     RDKit          3D

 45 48  0  0  1  0  0  0  0  0999 V2000
    2.6434   -3.2956   -3.8060 C   0  0  0  0  0  0  0  0  0  0  0  0
    3.3241   -2.4415   -2.7527 C   0  0  2  0  0  0  0  0  0  0  0  0
    4.8700   -2.2595   -3.0872 C   0  0  0  0  0  0  0  0  0  0  0  0
    5.8735   -1.8990   -1.8973 C   0  0  0  0  0  0  0  0  0  0  0  0
    5.3951   -2.5166   -0.5699 C   0  0  1  0  0  0  0  0  0  0  0  0
    6.0568   -2.6804    0.7709 C   0  0  1  0  0  0  0  0  0  0  0  0
    6.0540   -1.4306    1.6356 C   0  0  0  0  0  0  0  0  0  0  0  0
    4.8657   -1.3245    2.5921 C   0  0  0  0  0  0  0  0  0  0  0  0
    3.5246   -1.8350    1.9983 C   0  0  1  0  0  0  0  0  0  0  0  0
    2.3882   -1.1376    2.7591 C   0  0  0  0  0  0  0  0  0  0  0  0
    3.3404   -1.4412    0.6754 O   0  0  0  0  0  0  0  0  0  0  0  0
    3.9828   -2.0208   -0.4612 C   0  0  2  0  0  0  0  0  0  0  0  0
    3.3016   -3.0365   -1.3387 C   0  0  1  0  0  0  0  0  0  0  0  0
    2.3995   -3.8834   -0.4846 C   0  0  0  0  0  0  0  0  0  0  0  0
    3.2894   -4.8021    0.4469 C   0  0  0  0  0  0  0  0  0  0  0  0
    4.0959   -4.1382    1.6538 C   0  0  1  0  0  0  0  0  0  0  0  0
    4.2080   -5.1976    2.7589 C   0  0  0  0  0  0  0  0  0  0  0  0
    5.4820   -3.8429    1.4236 O   0  0  0  0  0  0  0  0  0  0  0  0
    3.3099   -3.1749    2.2768 O   0  0  0  0  0  0  0  0  0  0  0  0
    3.1271   -4.2617   -3.9078 H   0  0  0  0  0  0  0  0  0  0  0  0
    2.7431   -2.8098   -4.7625 H   0  0  0  0  0  0  0  0  0  0  0  0
    1.5874   -3.4381   -3.5854 H   0  0  0  0  0  0  0  0  0  0  0  0
    2.8293   -1.4730   -2.7601 H   0  0  0  0  0  0  0  0  0  0  0  0
    5.2171   -3.2021   -3.5199 H   0  0  0  0  0  0  0  0  0  0  0  0
    4.9763   -1.5159   -3.8743 H   0  0  0  0  0  0  0  0  0  0  0  0
    6.8809   -2.2446   -2.1316 H   0  0  0  0  0  0  0  0  0  0  0  0
    5.8988   -0.8173   -1.8017 H   0  0  0  0  0  0  0  0  0  0  0  0
    5.5332   -3.5693   -0.8241 H   0  0  0  0  0  0  0  0  0  0  0  0
    7.0993   -2.9399    0.5727 H   0  0  0  0  0  0  0  0  0  0  0  0
    6.9615   -1.4219    2.2311 H   0  0  0  0  0  0  0  0  0  0  0  0
    6.1192   -0.5424    0.9977 H   0  0  0  0  0  0  0  0  0  0  0  0
    5.0603   -1.8709    3.5170 H   0  0  0  0  0  0  0  0  0  0  0  0
    4.7610   -0.2766    2.8685 H   0  0  0  0  0  0  0  0  0  0  0  0
    1.4301   -1.5032    2.3919 H   0  0  0  0  0  0  0  0  0  0  0  0
    2.4344   -0.0594    2.6085 H   0  0  0  0  0  0  0  0  0  0  0  0
    2.4625   -1.3548    3.8274 H   0  0  0  0  0  0  0  0  0  0  0  0
    3.9283   -1.0535   -0.9662 H   0  0  0  0  0  0  0  0  0  0  0  0
    3.8672   -3.8988   -1.6722 H   0  0  0  0  0  0  0  0  0  0  0  0
    1.7628   -3.2306    0.0991 H   0  0  0  0  0  0  0  0  0  0  0  0
    1.7776   -4.5103   -1.1210 H   0  0  0  0  0  0  0  0  0  0  0  0
    2.5932   -5.5111    0.8920 H   0  0  0  0  0  0  0  0  0  0  0  0
    3.9797   -5.4281   -0.1208 H   0  0  0  0  0  0  0  0  0  0  0  0
    4.7493   -4.7766    3.6046 H   0  0  0  0  0  0  0  0  0  0  0  0
    4.7492   -6.0699    2.3944 H   0  0  0  0  0  0  0  0  0  0  0  0
    3.2206   -5.5035    3.1019 H   0  0  0  0  0  0  0  0  0  0  0  0
  1  2  1  0
  1 20  1  0
  1 21  1  0
  1 22  1  0
  2 13  1  0
  2  3  1  0
  2 23  1  1
  3  4  1  0
  3 24  1  0
  3 25  1  0
  4  5  1  0
  4 26  1  0
  4 27  1  0
  5 12  1  0
  5  6  1  0
  5 28  1  6
  6 18  1  0
  6  7  1  0
  6 29  1  6
  7  8  1  0
  7 30  1  0
  7 31  1  0
  8  9  1  0
  8 32  1  0
  8 33  1  0
  9 19  1  0
  9 10  1  1
  9 11  1  0
 10 34  1  0
 10 35  1  0
 10 36  1  0
 11 12  1  0
 12 13  1  0
 12 37  1  6
 13 14  1  0
 13 38  1  6
 14 15  1  0
 14 39  1  0
 14 40  1  0
 15 16  1  0
 15 41  1  0
 15 42  1  0
 16 17  1  1
 16 18  1  0
 16 19  1  0
 17 43  1  0
 17 44  1  0
 17 45  1  0
M  END
>  <i_m_ct_stereo_status>  (152) 
1

>  <s_m_source_file>  (152) 
/var/tmp/pbs.5076255.sched01/tmpxjfjwjbi/40jwkb7fqh.sdf

>  <i_m_source_file_index>  (152) 
35

>  <i_lp_mmshare_version>  (152) 
48012

>  <i_f3d_flags>  (152) 
0

>  <s_epik_input>  (152) 
W0NIM11bQ0BdKE8xKShPMilbQ0gyXVtDSDJdW0NAQEhdKFtDQEhdKFtDSDNdKVtDSDJdW0NIMl0zKVtDQEBIXShPNClbQ0BASF0zW0NASF0xW0NIMl1bQ0gyXVtDQF0yNFtDSDNd

>  <s_epik_cmdline>  (152) 
J2VwaWtfcHl0aG9uJywgJy1waHQnLCAnMi4wJywgJy1waCcsICc3LjAnLCAnLXRuJywgJzgnLCAnLW1hJywgJzIwMCcsICctaW1hZScsICc8aW5maWxlLm1hZT4nLCAnLW9tYWUnLCAnPG91dGZpbGUubWFlPic=

>  <r_lp_tautomer_probability>  (152) 
1

>  <r_epik_Ionization_Penalty>  (152) 
6.19376e-13

>  <r_epik_Ionization_Penalty_Charging>  (152) 
0

>  <r_epik_Ionization_Penalty_Neutral>  (152) 
6.19376e-13

>  <r_epik_State_Penalty>  (152) 
-0

>  <r_epik_Charging_Adjusted_Penalty>  (152) 
0

>  <i_epik_Tot_Q>  (152) 
0

>  <i_epik_Tot_abs_Q>  (152) 
0

>  <s_lp_Force_Field>  (152) 
OPLS3e

>  <r_lp_Energy>  (152) 
112.411

>  <b_lp_Chiralities_Consistent>  (152) 
1

>  <s_lp_Variant>  (152) 
52:0-1

>  <s_i_glide_gridfile>  (152) 
pfpi4k_grid

>  <i_i_glide_lignum>  (152) 
35

>  <i_i_glide_rotatable_bonds>  (152) 
0

>  <r_i_docking_score>  (152) 
-3.10239

>  <r_i_glide_ligand_efficiency>  (152) 
-0.163284

>  <r_i_glide_ligand_efficiency_sa>  (152) 
-0.435707

>  <r_i_glide_ligand_efficiency_ln>  (152) 
-0.786523

>  <r_i_glide_gscore>  (152) 
-3.10239

>  <r_i_glide_lipo>  (152) 
-0.571743

>  <r_i_glide_hbond>  (152) 
0

>  <r_i_glide_metal>  (152) 
-0

>  <r_i_glide_rewards>  (152) 
-1.60774

>  <r_i_glide_evdw>  (152) 
-20.4395

>  <r_i_glide_ecoul>  (152) 
0.707166

>  <r_i_glide_erotb>  (152) 
0

>  <r_i_glide_esite>  (152) 
-0.00700426

>  <r_i_glide_emodel>  (152) 
-23.5864

>  <r_i_glide_energy>  (152) 
-19.7324

>  <r_i_glide_einternal>  (152) 
0

>  <r_i_glide_intrahb_reward>  (152) 
-0

>  <i_i_glide_confnum>  (152) 
1

>  <i_i_glide_posenum>  (152) 
4

>  <r_i_glide_eff_state_penalty>  (152) 
0

>  <ligand_id>  (152) 
52

>  <original_smiles>  (152) 
CC1CCC2C3CCC4(C)OC2C1CCC(C)(O3)O4

>  <smiles>  (152) 
[H]C([H])([H])C12OC3([H])C4([H])C([H])([H])C([H])([H])C([H])(C([H])([H])[H])C3([H])C([H])([H])C([H])([H])C(C([H])([H])[H])(OC4([H])C([H])([H])C1([H])[H])O2

$$$$
52:0:2
     RDKit          3D

 45 48  0  0  1  0  0  0  0  0999 V2000
    4.0748   -0.8163   -3.2194 C   0  0  0  0  0  0  0  0  0  0  0  0
    4.0132   -2.1532   -2.4985 C   0  0  2  0  0  0  0  0  0  0  0  0
    2.5187   -2.6919   -2.4823 C   0  0  0  0  0  0  0  0  0  0  0  0
    2.0092   -3.6036   -1.2640 C   0  0  0  0  0  0  0  0  0  0  0  0
    2.8352   -3.3191    0.0200 C   0  0  1  0  0  0  0  0  0  0  0  0
    2.6888   -3.7593    1.4532 C   0  0  1  0  0  0  0  0  0  0  0  0
    3.1365   -5.1789    1.7388 C   0  0  0  0  0  0  0  0  0  0  0  0
    4.5918   -5.2888    2.1893 C   0  0  0  0  0  0  0  0  0  0  0  0
    5.5591   -4.2841    1.5016 C   0  0  1  0  0  0  0  0  0  0  0  0
    6.9600   -4.8832    1.5910 C   0  0  0  0  0  0  0  0  0  0  0  0
    5.3351   -4.1382    0.1303 O   0  0  0  0  0  0  0  0  0  0  0  0
    4.2492   -3.4230   -0.4604 C   0  0  2  0  0  0  0  0  0  0  0  0
    4.4408   -2.0476   -1.0206 C   0  0  1  0  0  0  0  0  0  0  0  0
    5.4683   -1.3015   -0.1804 C   0  0  0  0  0  0  0  0  0  0  0  0
    4.8321   -1.0155    1.2396 C   0  0  0  0  0  0  0  0  0  0  0  0
    4.5977   -2.2159    2.2658 C   0  0  1  0  0  0  0  0  0  0  0  0
    4.7030   -1.6408    3.6781 C   0  0  0  0  0  0  0  0  0  0  0  0
    3.2800   -2.7663    2.3212 O   0  0  0  0  0  0  0  0  0  0  0  0
    5.6726   -3.0929    2.2308 O   0  0  0  0  0  0  0  0  0  0  0  0
    3.4235   -0.0650   -2.7542 H   0  0  0  0  0  0  0  0  0  0  0  0
    3.7837   -0.8988   -4.2730 H   0  0  0  0  0  0  0  0  0  0  0  0
    5.0934   -0.4580   -3.1210 H   0  0  0  0  0  0  0  0  0  0  0  0
    4.6438   -2.8621   -3.0384 H   0  0  0  0  0  0  0  0  0  0  0  0
    1.9214   -1.7899   -2.3751 H   0  0  0  0  0  0  0  0  0  0  0  0
    2.2525   -3.1541   -3.4371 H   0  0  0  0  0  0  0  0  0  0  0  0
    0.9477   -3.4253   -1.1066 H   0  0  0  0  0  0  0  0  0  0  0  0
    2.0946   -4.6440   -1.5132 H   0  0  0  0  0  0  0  0  0  0  0  0
    2.4588   -2.3248    0.2402 H   0  0  0  0  0  0  0  0  0  0  0  0
    1.6390   -3.7167    1.7050 H   0  0  0  0  0  0  0  0  0  0  0  0
    2.5091   -5.5766    2.5386 H   0  0  0  0  0  0  0  0  0  0  0  0
    2.9596   -5.8037    0.8584 H   0  0  0  0  0  0  0  0  0  0  0  0
    4.6657   -5.1491    3.2725 H   0  0  0  0  0  0  0  0  0  0  0  0
    4.9241   -6.3121    1.9825 H   0  0  0  0  0  0  0  0  0  0  0  0
    7.6769   -4.1775    1.1871 H   0  0  0  0  0  0  0  0  0  0  0  0
    7.0037   -5.8126    1.0193 H   0  0  0  0  0  0  0  0  0  0  0  0
    7.2082   -5.0708    2.6341 H   0  0  0  0  0  0  0  0  0  0  0  0
    4.2609   -4.1243   -1.2992 H   0  0  0  0  0  0  0  0  0  0  0  0
    3.6657   -1.3057   -0.8217 H   0  0  0  0  0  0  0  0  0  0  0  0
    6.4140   -1.8366   -0.0836 H   0  0  0  0  0  0  0  0  0  0  0  0
    5.6970   -0.3437   -0.6393 H   0  0  0  0  0  0  0  0  0  0  0  0
    5.5138   -0.3251    1.7365 H   0  0  0  0  0  0  0  0  0  0  0  0
    3.9032   -0.4483    1.1689 H   0  0  0  0  0  0  0  0  0  0  0  0
    4.5490   -2.4453    4.3986 H   0  0  0  0  0  0  0  0  0  0  0  0
    3.9399   -0.8789    3.8350 H   0  0  0  0  0  0  0  0  0  0  0  0
    5.6907   -1.2104    3.8365 H   0  0  0  0  0  0  0  0  0  0  0  0
  1  2  1  0
  1 20  1  0
  1 21  1  0
  1 22  1  0
  2 13  1  0
  2  3  1  0
  2 23  1  6
  3  4  1  0
  3 24  1  0
  3 25  1  0
  4  5  1  0
  4 26  1  0
  4 27  1  0
  5 12  1  0
  5  6  1  0
  5 28  1  1
  6 18  1  0
  6  7  1  0
  6 29  1  1
  7  8  1  0
  7 30  1  0
  7 31  1  0
  8  9  1  0
  8 32  1  0
  8 33  1  0
  9 19  1  0
  9 10  1  6
  9 11  1  0
 10 34  1  0
 10 35  1  0
 10 36  1  0
 11 12  1  0
 12 13  1  0
 12 37  1  6
 13 14  1  0
 13 38  1  1
 14 15  1  0
 14 39  1  0
 14 40  1  0
 15 16  1  0
 15 41  1  0
 15 42  1  0
 16 17  1  1
 16 18  1  0
 16 19  1  0
 17 43  1  0
 17 44  1  0
 17 45  1  0
M  END
>  <i_m_ct_stereo_status>  (153) 
1

>  <s_m_source_file>  (153) 
/var/tmp/pbs.5076255.sched01/tmpxjfjwjbi/40jwkb7fqh.sdf

>  <i_m_source_file_index>  (153) 
35

>  <i_lp_mmshare_version>  (153) 
48012

>  <i_f3d_flags>  (153) 
0

>  <s_epik_input>  (153) 
W0NIM11bQ0BdKE8xKShPMilbQ0gyXVtDSDJdW0NAQEhdKFtDQEhdKFtDSDNdKVtDSDJdW0NIMl0zKVtDQEBIXShPNClbQ0BASF0zW0NASF0xW0NIMl1bQ0gyXVtDQF0yNFtDSDNd

>  <s_epik_cmdline>  (153) 
J2VwaWtfcHl0aG9uJywgJy1waHQnLCAnMi4wJywgJy1waCcsICc3LjAnLCAnLXRuJywgJzgnLCAnLW1hJywgJzIwMCcsICctaW1hZScsICc8aW5maWxlLm1hZT4nLCAnLW9tYWUnLCAnPG91dGZpbGUubWFlPic=

>  <r_lp_tautomer_probability>  (153) 
1

>  <r_epik_Ionization_Penalty>  (153) 
6.19376e-13

>  <r_epik_Ionization_Penalty_Charging>  (153) 
0

>  <r_epik_Ionization_Penalty_Neutral>  (153) 
6.19376e-13

>  <r_epik_State_Penalty>  (153) 
-0

>  <r_epik_Charging_Adjusted_Penalty>  (153) 
0

>  <i_epik_Tot_Q>  (153) 
0

>  <i_epik_Tot_abs_Q>  (153) 
0

>  <s_lp_Force_Field>  (153) 
OPLS3e

>  <r_lp_Energy>  (153) 
112.411

>  <b_lp_Chiralities_Consistent>  (153) 
1

>  <s_lp_Variant>  (153) 
52:0-1

>  <s_i_glide_gridfile>  (153) 
pfpi4k_grid

>  <i_i_glide_lignum>  (153) 
35

>  <i_i_glide_rotatable_bonds>  (153) 
0

>  <r_i_docking_score>  (153) 
-3.10026

>  <r_i_glide_ligand_efficiency>  (153) 
-0.163171

>  <r_i_glide_ligand_efficiency_sa>  (153) 
-0.435407

>  <r_i_glide_ligand_efficiency_ln>  (153) 
-0.785982

>  <r_i_glide_gscore>  (153) 
-3.10026

>  <r_i_glide_lipo>  (153) 
-0.462586

>  <r_i_glide_hbond>  (153) 
0

>  <r_i_glide_metal>  (153) 
-0

>  <r_i_glide_rewards>  (153) 
-1.70722

>  <r_i_glide_evdw>  (153) 
-17.0424

>  <r_i_glide_ecoul>  (153) 
-0.522199

>  <r_i_glide_erotb>  (153) 
0

>  <r_i_glide_esite>  (153) 
0

>  <r_i_glide_emodel>  (153) 
-21.38

>  <r_i_glide_energy>  (153) 
-17.5646

>  <r_i_glide_einternal>  (153) 
0

>  <r_i_glide_intrahb_reward>  (153) 
-0

>  <i_i_glide_confnum>  (153) 
2

>  <i_i_glide_posenum>  (153) 
3

>  <r_i_glide_eff_state_penalty>  (153) 
0

>  <ligand_id>  (153) 
52

>  <original_smiles>  (153) 
CC1CCC2C3CCC4(C)OC2C1CCC(C)(O3)O4

>  <smiles>  (153) 
[H]C([H])([H])C12OC3([H])C4([H])C([H])([H])C([H])([H])C([H])(C([H])([H])[H])C3([H])C([H])([H])C([H])([H])C(C([H])([H])[H])(OC4([H])C([H])([H])C1([H])[H])O2

$$$$
54:0:0
     RDKit          3D

 67 74  0  0  1  0  0  0  0  0999 V2000
    0.8727   -3.3532    5.6424 C   0  0  0  0  0  0  0  0  0  0  0  0
    1.8585   -2.4561    5.3972 C   0  0  0  0  0  0  0  0  0  0  0  0
    3.1146   -2.9457    4.8082 C   0  0  0  0  0  0  0  0  0  0  0  0
    3.2428   -4.0482    4.2839 O   0  0  0  0  0  0  0  0  0  0  0  0
    4.3117   -2.0194    4.8679 C   0  0  2  0  0  0  0  0  0  0  0  0
    4.6035   -1.7396    6.3730 C   0  0  0  0  0  0  0  0  0  0  0  0
    4.3014   -0.2696    6.6043 C   0  0  1  0  0  0  0  0  0  0  0  0
    5.3758    0.4275    5.7668 C   0  0  0  0  0  0  0  0  0  0  0  0
    5.3454    0.1571    4.4430 C   0  0  0  0  0  0  0  0  0  0  0  0
    4.1590   -0.7013    3.9724 C   0  0  1  0  0  0  0  0  0  0  0  0
    4.2289   -1.2011    2.4945 C   0  0  0  0  0  0  0  0  0  0  0  0
    5.5048   -1.3119    1.8941 C   0  0  0  0  0  0  0  0  0  0  0  0
    5.7238   -1.8875    0.6377 C   0  0  0  0  0  0  0  0  0  0  0  0
    7.0262   -1.9298    0.1843 O   0  0  0  0  0  0  0  0  0  0  0  0
    7.3157   -2.6734   -0.9884 C   0  0  0  0  0  0  0  0  0  0  0  0
    4.6204   -2.3954   -0.0726 C   0  0  0  0  0  0  0  0  0  0  0  0
    3.3363   -2.3066    0.4811 C   0  0  0  0  0  0  0  0  0  0  0  0
    3.1077   -1.7291    1.7342 C   0  0  0  0  0  0  0  0  0  0  0  0
    1.6184   -1.6267    2.1899 C   0  0  0  0  0  0  0  0  0  0  0  0
    1.1881   -0.3446    2.9460 C   0  0  2  0  0  0  0  0  0  0  0  0
    1.5053   -0.1274    4.4231 C   0  0  1  0  0  0  0  0  0  0  0  0
    1.7187   -0.9725    5.7049 C   0  0  1  0  0  0  0  0  0  0  0  0
    0.6575   -0.7240    6.6352 O   0  0  0  0  0  0  0  0  0  0  0  0
    0.9616   -1.0541    7.9873 C   0  0  0  0  0  0  0  0  0  0  0  0
    2.9027    0.0700    5.9892 C   0  0  2  0  0  0  0  0  0  0  0  0
    2.9708    0.2624    4.4580 C   0  0  1  0  0  0  0  0  0  0  0  0
    3.0087    1.7023    3.8020 C   0  0  0  0  0  0  0  0  0  0  0  0
    1.7312    2.1375    2.9821 C   0  0  0  0  0  0  0  0  0  0  0  0
    0.9938    0.9933    2.2717 N   0  0  2  0  0  0  0  0  0  0  0  0
   -0.4360    1.3109    1.9865 C   0  0  0  0  0  0  0  0  0  0  0  0
   -1.2614    1.6145    3.2244 C   0  0  0  0  0  0  0  0  0  0  0  0
   -2.4952    2.5169    3.1527 C   0  0  0  0  0  0  0  0  0  0  0  0
   -1.2489    3.0246    3.8113 C   0  0  0  0  0  0  0  0  0  0  0  0
   -0.0693   -3.0337    6.0703 H   0  0  0  0  0  0  0  0  0  0  0  0
    0.9929   -4.4036    5.4298 H   0  0  0  0  0  0  0  0  0  0  0  0
    5.1560   -2.5870    4.4827 H   0  0  0  0  0  0  0  0  0  0  0  0
    4.0225   -2.3607    7.0610 H   0  0  0  0  0  0  0  0  0  0  0  0
    5.6499   -1.9609    6.5996 H   0  0  0  0  0  0  0  0  0  0  0  0
    4.3843    0.0086    7.6541 H   0  0  0  0  0  0  0  0  0  0  0  0
    6.1250    1.0472    6.2350 H   0  0  0  0  0  0  0  0  0  0  0  0
    6.0376    0.6008    3.7454 H   0  0  0  0  0  0  0  0  0  0  0  0
    6.3872   -1.0002    2.4331 H   0  0  0  0  0  0  0  0  0  0  0  0
    8.3850   -2.6107   -1.1961 H   0  0  0  0  0  0  0  0  0  0  0  0
    6.7938   -2.2810   -1.8609 H   0  0  0  0  0  0  0  0  0  0  0  0
    7.0688   -3.7276   -0.8635 H   0  0  0  0  0  0  0  0  0  0  0  0
    4.7278   -2.8576   -1.0404 H   0  0  0  0  0  0  0  0  0  0  0  0
    2.4989   -2.6907   -0.0977 H   0  0  0  0  0  0  0  0  0  0  0  0
    1.0153   -1.6801    1.2898 H   0  0  0  0  0  0  0  0  0  0  0  0
    1.3354   -2.5170    2.7529 H   0  0  0  0  0  0  0  0  0  0  0  0
    2.0620    0.0095    2.4303 H   0  0  0  0  0  0  0  0  0  0  0  0
    0.8712    0.6679    4.7990 H   0  0  0  0  0  0  0  0  0  0  0  0
    0.0771   -0.9091    8.6097 H   0  0  0  0  0  0  0  0  0  0  0  0
    1.7540   -0.4272    8.3949 H   0  0  0  0  0  0  0  0  0  0  0  0
    1.2671   -2.0934    8.0905 H   0  0  0  0  0  0  0  0  0  0  0  0
    2.4946    0.9716    6.4404 H   0  0  0  0  0  0  0  0  0  0  0  0
    3.1867    2.4596    4.5676 H   0  0  0  0  0  0  0  0  0  0  0  0
    3.8129    1.7704    3.0905 H   0  0  0  0  0  0  0  0  0  0  0  0
    1.1193    2.6061    3.7320 H   0  0  0  0  0  0  0  0  0  0  0  0
    1.9750    2.9110    2.2422 H   0  0  0  0  0  0  0  0  0  0  0  0
   -0.4773    2.1399    1.2797 H   0  0  0  0  0  0  0  0  0  0  0  0
   -0.8893    0.4622    1.4844 H   0  0  0  0  0  0  0  0  0  0  0  0
   -1.3381    0.7984    3.9371 H   0  0  0  0  0  0  0  0  0  0  0  0
   -2.7634    2.9323    2.1862 H   0  0  0  0  0  0  0  0  0  0  0  0
   -3.3350    2.2868    3.7997 H   0  0  0  0  0  0  0  0  0  0  0  0
   -1.2122    3.0765    4.8999 H   0  0  0  0  0  0  0  0  0  0  0  0
   -0.7008    3.8016    3.2802 H   0  0  0  0  0  0  0  0  0  0  0  0
    1.3944    0.8816    1.3667 H   0  0  0  0  0  0  0  0  0  0  0  0
  1  2  2  0
  1 34  1  0
  1 35  1  0
  2 22  1  0
  2  3  1  0
  3  4  2  0
  3  5  1  0
  5 10  1  0
  5  6  1  0
  5 36  1  6
  6  7  1  0
  6 37  1  0
  6 38  1  0
  7 25  1  0
  7  8  1  0
  7 39  1  1
  8  9  2  0
  8 40  1  0
  9 10  1  0
  9 41  1  0
 10 26  1  0
 10 11  1  6
 11 18  2  0
 11 12  1  0
 12 13  2  0
 12 42  1  0
 13 14  1  0
 13 16  1  0
 14 15  1  0
 15 43  1  0
 15 44  1  0
 15 45  1  0
 16 17  2  0
 16 46  1  0
 17 18  1  0
 17 47  1  0
 18 19  1  0
 19 20  1  0
 19 48  1  0
 19 49  1  0
 20 29  1  0
 20 21  1  0
 20 50  1  1
 21 26  1  0
 21 22  1  0
 21 51  1  1
 22 23  1  1
 22 25  1  0
 23 24  1  0
 24 52  1  0
 24 53  1  0
 24 54  1  0
 25 26  1  0
 25 55  1  1
 26 27  1  1
 27 28  1  0
 27 56  1  0
 27 57  1  0
 28 29  1  0
 28 58  1  0
 28 59  1  0
 29 30  1  0
 29 67  1  6
 30 31  1  0
 30 60  1  0
 30 61  1  0
 31 33  1  0
 31 32  1  0
 31 62  1  0
 32 33  1  0
 32 63  1  0
 32 64  1  0
 33 65  1  0
 33 66  1  0
M  CHG  1  29   1
M  END
>  <i_m_ct_stereo_status>  (154) 
1

>  <s_m_source_file>  (154) 
/var/tmp/pbs.5076255.sched01/tmpxjfjwjbi/40jwkb7fqh.sdf

>  <i_m_source_file_index>  (154) 
37

>  <i_lp_mmshare_version>  (154) 
48012

>  <i_f3d_flags>  (154) 
2

>  <s_epik_input>  (154) 
W0NIMl09QzFDKD1PKVtDQEBIXTJbQ0gyXVtDQEBIXShbQ0hdPVtDSF0zKVtDQEBIXTRbQ0BAXTEoT1tDSDNdKVtDQEhdKFtDQEBdNDVDMjM2KVtDQEhdKE4oW0NIMl1bQ0gyXTUpW0NIMl1bQ0hdN1tDSDJdW0NIMl03KVtDSDJdYzhjNltjSF1jKE9bQ0gzXSlbY0hdW2NIXTg=

>  <s_epik_cmdline>  (154) 
J2VwaWtfcHl0aG9uJywgJy1waHQnLCAnMi4wJywgJy1waCcsICc3LjAnLCAnLXRuJywgJzgnLCAnLW1hJywgJzIwMCcsICctaW1hZScsICc8aW5maWxlLm1hZT4nLCAnLW9tYWUnLCAnPG91dGZpbGUubWFlPic=

>  <r_lp_tautomer_probability>  (154) 
1

>  <r_epik_Ionization_Penalty>  (154) 
0.0185492

>  <r_epik_Ionization_Penalty_Charging>  (154) 
0.0185492

>  <r_epik_Ionization_Penalty_Neutral>  (154) 
1.06168e-13

>  <r_epik_State_Penalty>  (154) 
0.014766

>  <r_epik_Charging_Adjusted_Penalty>  (154) 
0.0333151

>  <i_epik_Tot_Q>  (154) 
1

>  <i_epik_Tot_abs_Q>  (154) 
1

>  <s_lp_Force_Field>  (154) 
OPLS3e

>  <r_lp_Energy>  (154) 
207.343

>  <b_lp_Chiralities_Consistent>  (154) 
0

>  <s_lp_Variant>  (154) 
54:0-1

>  <s_i_glide_gridfile>  (154) 
pfpi4k_grid

>  <i_i_glide_lignum>  (154) 
37

>  <i_i_glide_rotatable_bonds>  (154) 
4

>  <r_i_docking_score>  (154) 
-2.49518

>  <r_i_glide_ligand_efficiency>  (154) 
-0.0756116

>  <r_i_glide_ligand_efficiency_sa>  (154) 
-0.242527

>  <r_i_glide_ligand_efficiency_ln>  (154) 
-0.554916

>  <r_i_glide_gscore>  (154) 
-2.49518

>  <r_i_glide_lipo>  (154) 
-0.39741

>  <r_i_glide_hbond>  (154) 
-0.0124485

>  <r_i_glide_metal>  (154) 
-0

>  <r_i_glide_rewards>  (154) 
-0.377828

>  <r_i_glide_evdw>  (154) 
-24.3371

>  <r_i_glide_ecoul>  (154) 
-4.31032

>  <r_i_glide_erotb>  (154) 
0.202384

>  <r_i_glide_esite>  (154) 
-0.0464741

>  <r_i_glide_emodel>  (154) 
-31.1999

>  <r_i_glide_energy>  (154) 
-28.6474

>  <r_i_glide_einternal>  (154) 
4.24558

>  <r_i_glide_intrahb_reward>  (154) 
-0

>  <i_i_glide_confnum>  (154) 
3

>  <i_i_glide_posenum>  (154) 
37

>  <r_i_glide_eff_state_penalty>  (154) 
0

>  <ligand_id>  (154) 
54

>  <original_smiles>  (154) 
C=C1C(=O)C2CC3C=CC24c2cc(OC)ccc2CC2C5C1(OC)C3C54CCN2CC1CC1

>  <smiles>  (154) 
[H]C([H])=C1C(=O)C2([H])C([H])([H])C3([H])C([H])=C([H])C24c2c([H])c(OC([H])([H])[H])c([H])c([H])c2C([H])([H])C2([H])C5([H])C1(OC([H])([H])[H])C3([H])C45C([H])([H])C([H])([H])[N+]2([H])C([H])([H])C1([H])C([H])([H])C1([H])[H]

$$$$
54:0:1
     RDKit          3D

 67 74  0  0  1  0  0  0  0  0999 V2000
    0.6903   -3.0127    5.3353 C   0  0  0  0  0  0  0  0  0  0  0  0
    1.8232   -2.2879    5.2937 C   0  0  0  0  0  0  0  0  0  0  0  0
    2.9907   -2.8446    4.5972 C   0  0  0  0  0  0  0  0  0  0  0  0
    2.9426   -3.8017    3.8211 O   0  0  0  0  0  0  0  0  0  0  0  0
    4.3329   -2.1909    4.8624 C   0  0  2  0  0  0  0  0  0  0  0  0
    4.6250   -2.3472    6.3827 C   0  0  0  0  0  0  0  0  0  0  0  0
    4.5853   -0.9468    6.9623 C   0  0  1  0  0  0  0  0  0  0  0  0
    5.7953   -0.2751    6.3058 C   0  0  0  0  0  0  0  0  0  0  0  0
    5.7596   -0.1962    4.9600 C   0  0  0  0  0  0  0  0  0  0  0  0
    4.4607   -0.6919    4.3132 C   0  0  1  0  0  0  0  0  0  0  0  0
    4.4736   -0.8308    2.7526 C   0  0  0  0  0  0  0  0  0  0  0  0
    5.7389   -1.0445    2.1411 C   0  0  0  0  0  0  0  0  0  0  0  0
    5.9006   -1.3585    0.7749 C   0  0  0  0  0  0  0  0  0  0  0  0
    7.1902   -1.5359    0.3162 O   0  0  0  0  0  0  0  0  0  0  0  0
    7.3737   -2.2976   -0.8708 C   0  0  0  0  0  0  0  0  0  0  0  0
    4.7542   -1.4633   -0.0290 C   0  0  0  0  0  0  0  0  0  0  0  0
    3.4826   -1.2610    0.5380 C   0  0  0  0  0  0  0  0  0  0  0  0
    3.3148   -0.9485    1.9128 C   0  0  0  0  0  0  0  0  0  0  0  0
    1.8441   -0.6860    2.3758 C   0  0  0  0  0  0  0  0  0  0  0  0
    1.6700    0.4471    3.4099 C   0  0  2  0  0  0  0  0  0  0  0  0
    1.9546    0.2089    4.9023 C   0  0  1  0  0  0  0  0  0  0  0  0
    1.9428   -0.9157    5.9557 C   0  0  1  0  0  0  0  0  0  0  0  0
    0.9139   -0.6971    6.9319 O   0  0  0  0  0  0  0  0  0  0  0  0
    1.1207   -1.3883    8.1594 C   0  0  0  0  0  0  0  0  0  0  0  0
    3.2936   -0.2310    6.4574 C   0  0  2  0  0  0  0  0  0  0  0  0
    3.4494    0.3222    5.0260 C   0  0  1  0  0  0  0  0  0  0  0  0
    3.7614    1.8499    4.7380 C   0  0  0  0  0  0  0  0  0  0  0  0
    2.5879    2.6831    4.0560 C   0  0  0  0  0  0  0  0  0  0  0  0
    1.7054    1.8973    3.1073 N   0  0  2  0  0  0  0  0  0  0  0  0
    0.3783    2.5065    2.8896 C   0  0  0  0  0  0  0  0  0  0  0  0
   -0.6177    2.1494    3.9713 C   0  0  0  0  0  0  0  0  0  0  0  0
   -1.4554    0.8997    3.8310 C   0  0  0  0  0  0  0  0  0  0  0  0
   -2.1097    2.2512    3.7399 C   0  0  0  0  0  0  0  0  0  0  0  0
   -0.1912   -2.6381    5.8344 H   0  0  0  0  0  0  0  0  0  0  0  0
    0.6213   -3.9893    4.8744 H   0  0  0  0  0  0  0  0  0  0  0  0
    5.0662   -2.8051    4.3467 H   0  0  0  0  0  0  0  0  0  0  0  0
    3.9170   -2.9925    6.9065 H   0  0  0  0  0  0  0  0  0  0  0  0
    5.6025   -2.8075    6.5407 H   0  0  0  0  0  0  0  0  0  0  0  0
    4.6911   -0.9447    8.0457 H   0  0  0  0  0  0  0  0  0  0  0  0
    6.6314    0.0533    6.9002 H   0  0  0  0  0  0  0  0  0  0  0  0
    6.5428    0.2509    4.3711 H   0  0  0  0  0  0  0  0  0  0  0  0
    6.6407   -1.0359    2.7285 H   0  0  0  0  0  0  0  0  0  0  0  0
    8.4400   -2.3424   -1.0831 H   0  0  0  0  0  0  0  0  0  0  0  0
    6.8929   -1.8574   -1.7452 H   0  0  0  0  0  0  0  0  0  0  0  0
    7.0183   -3.3200   -0.7411 H   0  0  0  0  0  0  0  0  0  0  0  0
    4.8039   -1.6891   -1.0878 H   0  0  0  0  0  0  0  0  0  0  0  0
    2.6587   -1.3520   -0.1219 H   0  0  0  0  0  0  0  0  0  0  0  0
    1.2628   -0.4182    1.4990 H   0  0  0  0  0  0  0  0  0  0  0  0
    1.3924   -1.6199    2.7172 H   0  0  0  0  0  0  0  0  0  0  0  0
    2.6241    0.7385    2.9943 H   0  0  0  0  0  0  0  0  0  0  0  0
    1.4675    0.9816    5.4841 H   0  0  0  0  0  0  0  0  0  0  0  0
    0.2577   -1.2339    8.8034 H   0  0  0  0  0  0  0  0  0  0  0  0
    1.9989   -1.0261    8.6947 H   0  0  0  0  0  0  0  0  0  0  0  0
    1.2351   -2.4628    8.0155 H   0  0  0  0  0  0  0  0  0  0  0  0
    3.0440    0.6014    7.1068 H   0  0  0  0  0  0  0  0  0  0  0  0
    4.0462    2.3670    5.6612 H   0  0  0  0  0  0  0  0  0  0  0  0
    4.6187    1.9415    4.0758 H   0  0  0  0  0  0  0  0  0  0  0  0
    1.9734    3.1060    4.8396 H   0  0  0  0  0  0  0  0  0  0  0  0
    2.9903    3.5437    3.5365 H   0  0  0  0  0  0  0  0  0  0  0  0
    0.4583    3.5830    2.8857 H   0  0  0  0  0  0  0  0  0  0  0  0
   -0.0138    2.1903    1.9296 H   0  0  0  0  0  0  0  0  0  0  0  0
   -0.3123    2.4190    4.9784 H   0  0  0  0  0  0  0  0  0  0  0  0
   -1.3347    0.3320    2.9108 H   0  0  0  0  0  0  0  0  0  0  0  0
   -1.6192    0.3033    4.7299 H   0  0  0  0  0  0  0  0  0  0  0  0
   -2.7318    2.5553    4.5831 H   0  0  0  0  0  0  0  0  0  0  0  0
   -2.4449    2.5912    2.7635 H   0  0  0  0  0  0  0  0  0  0  0  0
    2.1510    1.9794    2.2211 H   0  0  0  0  0  0  0  0  0  0  0  0
  1  2  2  0
  1 34  1  0
  1 35  1  0
  2 22  1  0
  2  3  1  0
  3  4  2  0
  3  5  1  0
  5 10  1  0
  5  6  1  0
  5 36  1  6
  6  7  1  0
  6 37  1  0
  6 38  1  0
  7 25  1  0
  7  8  1  0
  7 39  1  1
  8  9  2  0
  8 40  1  0
  9 10  1  0
  9 41  1  0
 10 26  1  0
 10 11  1  6
 11 18  2  0
 11 12  1  0
 12 13  2  0
 12 42  1  0
 13 14  1  0
 13 16  1  0
 14 15  1  0
 15 43  1  0
 15 44  1  0
 15 45  1  0
 16 17  2  0
 16 46  1  0
 17 18  1  0
 17 47  1  0
 18 19  1  0
 19 20  1  0
 19 48  1  0
 19 49  1  0
 20 29  1  0
 20 21  1  0
 20 50  1  1
 21 26  1  0
 21 22  1  0
 21 51  1  1
 22 23  1  1
 22 25  1  0
 23 24  1  0
 24 52  1  0
 24 53  1  0
 24 54  1  0
 25 26  1  0
 25 55  1  1
 26 27  1  1
 27 28  1  0
 27 56  1  0
 27 57  1  0
 28 29  1  0
 28 58  1  0
 28 59  1  0
 29 30  1  0
 29 67  1  6
 30 31  1  0
 30 60  1  0
 30 61  1  0
 31 33  1  0
 31 32  1  0
 31 62  1  0
 32 33  1  0
 32 63  1  0
 32 64  1  0
 33 65  1  0
 33 66  1  0
M  CHG  1  29   1
M  END
>  <i_m_ct_stereo_status>  (155) 
1

>  <s_m_source_file>  (155) 
/var/tmp/pbs.5076255.sched01/tmpxjfjwjbi/40jwkb7fqh.sdf

>  <i_m_source_file_index>  (155) 
37

>  <i_lp_mmshare_version>  (155) 
48012

>  <i_f3d_flags>  (155) 
2

>  <s_epik_input>  (155) 
W0NIMl09QzFDKD1PKVtDQEBIXTJbQ0gyXVtDQEBIXShbQ0hdPVtDSF0zKVtDQEBIXTRbQ0BAXTEoT1tDSDNdKVtDQEhdKFtDQEBdNDVDMjM2KVtDQEhdKE4oW0NIMl1bQ0gyXTUpW0NIMl1bQ0hdN1tDSDJdW0NIMl03KVtDSDJdYzhjNltjSF1jKE9bQ0gzXSlbY0hdW2NIXTg=

>  <s_epik_cmdline>  (155) 
J2VwaWtfcHl0aG9uJywgJy1waHQnLCAnMi4wJywgJy1waCcsICc3LjAnLCAnLXRuJywgJzgnLCAnLW1hJywgJzIwMCcsICctaW1hZScsICc8aW5maWxlLm1hZT4nLCAnLW9tYWUnLCAnPG91dGZpbGUubWFlPic=

>  <r_lp_tautomer_probability>  (155) 
1

>  <r_epik_Ionization_Penalty>  (155) 
0.0185492

>  <r_epik_Ionization_Penalty_Charging>  (155) 
0.0185492

>  <r_epik_Ionization_Penalty_Neutral>  (155) 
1.06168e-13

>  <r_epik_State_Penalty>  (155) 
0.014766

>  <r_epik_Charging_Adjusted_Penalty>  (155) 
0.0333151

>  <i_epik_Tot_Q>  (155) 
1

>  <i_epik_Tot_abs_Q>  (155) 
1

>  <s_lp_Force_Field>  (155) 
OPLS3e

>  <r_lp_Energy>  (155) 
207.343

>  <b_lp_Chiralities_Consistent>  (155) 
0

>  <s_lp_Variant>  (155) 
54:0-1

>  <s_i_glide_gridfile>  (155) 
pfpi4k_grid

>  <i_i_glide_lignum>  (155) 
37

>  <i_i_glide_rotatable_bonds>  (155) 
4

>  <r_i_docking_score>  (155) 
-2.29586

>  <r_i_glide_ligand_efficiency>  (155) 
-0.0695715

>  <r_i_glide_ligand_efficiency_sa>  (155) 
-0.223153

>  <r_i_glide_ligand_efficiency_ln>  (155) 
-0.510587

>  <r_i_glide_gscore>  (155) 
-2.29586

>  <r_i_glide_lipo>  (155) 
-0.434205

>  <r_i_glide_hbond>  (155) 
-0.0416306

>  <r_i_glide_metal>  (155) 
-0

>  <r_i_glide_rewards>  (155) 
-0.377828

>  <r_i_glide_evdw>  (155) 
-22.7501

>  <r_i_glide_ecoul>  (155) 
-3.24137

>  <r_i_glide_erotb>  (155) 
0.202384

>  <r_i_glide_esite>  (155) 
-0.0208689

>  <r_i_glide_emodel>  (155) 
-28.8152

>  <r_i_glide_energy>  (155) 
-25.9915

>  <r_i_glide_einternal>  (155) 
3.48014

>  <r_i_glide_intrahb_reward>  (155) 
-0

>  <i_i_glide_confnum>  (155) 
3

>  <i_i_glide_posenum>  (155) 
16

>  <r_i_glide_eff_state_penalty>  (155) 
0

>  <ligand_id>  (155) 
54

>  <original_smiles>  (155) 
C=C1C(=O)C2CC3C=CC24c2cc(OC)ccc2CC2C5C1(OC)C3C54CCN2CC1CC1

>  <smiles>  (155) 
[H]C([H])=C1C(=O)C2([H])C([H])([H])C3([H])C([H])=C([H])C24c2c([H])c(OC([H])([H])[H])c([H])c([H])c2C([H])([H])C2([H])C5([H])C1(OC([H])([H])[H])C3([H])C45C([H])([H])C([H])([H])[N+]2([H])C([H])([H])C1([H])C([H])([H])C1([H])[H]

$$$$
54:0:2
     RDKit          3D

 67 74  0  0  1  0  0  0  0  0999 V2000
   -1.2104    1.8164    8.1615 C   0  0  0  0  0  0  0  0  0  0  0  0
    0.0026    1.6389    7.6050 C   0  0  0  0  0  0  0  0  0  0  0  0
    0.7629    0.4312    7.9430 C   0  0  0  0  0  0  0  0  0  0  0  0
    0.2636   -0.5688    8.4684 O   0  0  0  0  0  0  0  0  0  0  0  0
    2.2409    0.4258    7.5993 C   0  0  2  0  0  0  0  0  0  0  0  0
    2.9028    1.5925    8.3910 C   0  0  0  0  0  0  0  0  0  0  0  0
    3.3540    2.6051    7.3536 C   0  0  1  0  0  0  0  0  0  0  0  0
    4.4527    1.8485    6.6024 C   0  0  0  0  0  0  0  0  0  0  0  0
    4.0620    0.7161    5.9822 C   0  0  0  0  0  0  0  0  0  0  0  0
    2.5552    0.4361    6.0299 C   0  0  1  0  0  0  0  0  0  0  0  0
    2.0935   -0.9745    5.5167 C   0  0  0  0  0  0  0  0  0  0  0  0
    3.0544   -2.0191    5.5925 C   0  0  0  0  0  0  0  0  0  0  0  0
    2.7445   -3.3674    5.3057 C   0  0  0  0  0  0  0  0  0  0  0  0
    3.7772   -4.2745    5.4173 O   0  0  0  0  0  0  0  0  0  0  0  0
    3.5098   -5.6417    5.1355 C   0  0  0  0  0  0  0  0  0  0  0  0
    1.4223   -3.6978    4.9539 C   0  0  0  0  0  0  0  0  0  0  0  0
    0.4367   -2.6940    4.8813 C   0  0  0  0  0  0  0  0  0  0  0  0
    0.7499   -1.3355    5.1556 C   0  0  0  0  0  0  0  0  0  0  0  0
   -0.4251   -0.3263    4.9610 C   0  0  0  0  0  0  0  0  0  0  0  0
   -0.0275    1.0315    4.3358 C   0  0  2  0  0  0  0  0  0  0  0  0
    0.5955    2.1424    5.1938 C   0  0  1  0  0  0  0  0  0  0  0  0
    0.6195    2.6599    6.6399 C   0  0  1  0  0  0  0  0  0  0  0  0
   -0.0163    3.9386    6.7424 O   0  0  0  0  0  0  0  0  0  0  0  0
    0.3296    4.6786    7.9106 C   0  0  0  0  0  0  0  0  0  0  0  0
    2.1764    2.8688    6.3655 C   0  0  2  0  0  0  0  0  0  0  0  0
    2.0500    1.7677    5.2906 C   0  0  1  0  0  0  0  0  0  0  0  0
    2.6209    1.9470    3.8187 C   0  0  0  0  0  0  0  0  0  0  0  0
    1.5233    2.0677    2.6667 C   0  0  0  0  0  0  0  0  0  0  0  0
    0.2544    1.2708    2.9065 N   0  0  2  0  0  0  0  0  0  0  0  0
   -0.9065    1.7417    2.1327 C   0  0  0  0  0  0  0  0  0  0  0  0
   -1.5640    2.9650    2.7558 C   0  0  0  0  0  0  0  0  0  0  0  0
   -2.6064    2.7893    3.8361 C   0  0  0  0  0  0  0  0  0  0  0  0
   -3.0145    3.3108    2.4900 C   0  0  0  0  0  0  0  0  0  0  0  0
   -1.8057    2.6897    7.9384 H   0  0  0  0  0  0  0  0  0  0  0  0
   -1.6215    1.1066    8.8643 H   0  0  0  0  0  0  0  0  0  0  0  0
    2.6422   -0.4929    8.0185 H   0  0  0  0  0  0  0  0  0  0  0  0
    2.2412    2.0666    9.1194 H   0  0  0  0  0  0  0  0  0  0  0  0
    3.7530    1.2279    8.9713 H   0  0  0  0  0  0  0  0  0  0  0  0
    3.7530    3.5110    7.8073 H   0  0  0  0  0  0  0  0  0  0  0  0
    5.4733    2.1950    6.6277 H   0  0  0  0  0  0  0  0  0  0  0  0
    4.7338    0.0978    5.4094 H   0  0  0  0  0  0  0  0  0  0  0  0
    4.0608   -1.8301    5.9204 H   0  0  0  0  0  0  0  0  0  0  0  0
    4.4273   -6.2141    5.2636 H   0  0  0  0  0  0  0  0  0  0  0  0
    3.1775   -5.7853    4.1078 H   0  0  0  0  0  0  0  0  0  0  0  0
    2.7696   -6.0569    5.8187 H   0  0  0  0  0  0  0  0  0  0  0  0
    1.1323   -4.7210    4.7395 H   0  0  0  0  0  0  0  0  0  0  0  0
   -0.5687   -2.9799    4.6073 H   0  0  0  0  0  0  0  0  0  0  0  0
   -1.1538   -0.7879    4.2974 H   0  0  0  0  0  0  0  0  0  0  0  0
   -0.9602   -0.2014    5.8984 H   0  0  0  0  0  0  0  0  0  0  0  0
    0.8071    0.4430    4.0015 H   0  0  0  0  0  0  0  0  0  0  0  0
    0.4738    3.0904    4.6730 H   0  0  0  0  0  0  0  0  0  0  0  0
   -0.2602    5.5924    7.9432 H   0  0  0  0  0  0  0  0  0  0  0  0
    1.3819    4.9617    7.9199 H   0  0  0  0  0  0  0  0  0  0  0  0
    0.1240    4.1268    8.8271 H   0  0  0  0  0  0  0  0  0  0  0  0
    2.3155    3.8197    5.8541 H   0  0  0  0  0  0  0  0  0  0  0  0
    3.2551    2.8375    3.7602 H   0  0  0  0  0  0  0  0  0  0  0  0
    3.2725    1.1132    3.5475 H   0  0  0  0  0  0  0  0  0  0  0  0
    1.2698    3.1136    2.5413 H   0  0  0  0  0  0  0  0  0  0  0  0
    1.9480    1.7820    1.7121 H   0  0  0  0  0  0  0  0  0  0  0  0
   -0.5729    1.9652    1.1352 H   0  0  0  0  0  0  0  0  0  0  0  0
   -1.6455    0.9545    2.0322 H   0  0  0  0  0  0  0  0  0  0  0  0
   -0.9097    3.8276    2.8788 H   0  0  0  0  0  0  0  0  0  0  0  0
   -2.8548    1.7623    4.0870 H   0  0  0  0  0  0  0  0  0  0  0  0
   -2.5645    3.4816    4.6795 H   0  0  0  0  0  0  0  0  0  0  0  0
   -3.2828    4.3677    2.4335 H   0  0  0  0  0  0  0  0  0  0  0  0
   -3.5752    2.6499    1.8322 H   0  0  0  0  0  0  0  0  0  0  0  0
    0.4556    0.3669    2.5110 H   0  0  0  0  0  0  0  0  0  0  0  0
  1  2  2  0
  1 34  1  0
  1 35  1  0
  2 22  1  0
  2  3  1  0
  3  4  2  0
  3  5  1  0
  5 10  1  0
  5  6  1  0
  5 36  1  1
  6  7  1  0
  6 37  1  0
  6 38  1  0
  7 25  1  0
  7  8  1  0
  7 39  1  1
  8  9  2  0
  8 40  1  0
  9 10  1  0
  9 41  1  0
 10 26  1  0
 10 11  1  6
 11 18  2  0
 11 12  1  0
 12 13  2  0
 12 42  1  0
 13 14  1  0
 13 16  1  0
 14 15  1  0
 15 43  1  0
 15 44  1  0
 15 45  1  0
 16 17  2  0
 16 46  1  0
 17 18  1  0
 17 47  1  0
 18 19  1  0
 19 20  1  0
 19 48  1  0
 19 49  1  0
 20 29  1  0
 20 21  1  0
 20 50  1  6
 21 26  1  0
 21 22  1  0
 21 51  1  6
 22 23  1  6
 22 25  1  0
 23 24  1  0
 24 52  1  0
 24 53  1  0
 24 54  1  0
 25 26  1  0
 25 55  1  6
 26 27  1  6
 27 28  1  0
 27 56  1  0
 27 57  1  0
 28 29  1  0
 28 58  1  0
 28 59  1  0
 29 30  1  0
 29 67  1  6
 30 31  1  0
 30 60  1  0
 30 61  1  0
 31 33  1  0
 31 32  1  0
 31 62  1  0
 32 33  1  0
 32 63  1  0
 32 64  1  0
 33 65  1  0
 33 66  1  0
M  CHG  1  29   1
M  END
>  <i_m_ct_stereo_status>  (156) 
1

>  <s_m_source_file>  (156) 
/var/tmp/pbs.5076255.sched01/tmpxjfjwjbi/40jwkb7fqh.sdf

>  <i_m_source_file_index>  (156) 
37

>  <i_lp_mmshare_version>  (156) 
48012

>  <i_f3d_flags>  (156) 
2

>  <s_epik_input>  (156) 
W0NIMl09QzFDKD1PKVtDQEBIXTJbQ0gyXVtDQEBIXShbQ0hdPVtDSF0zKVtDQEBIXTRbQ0BAXTEoT1tDSDNdKVtDQEhdKFtDQEBdNDVDMjM2KVtDQEhdKE4oW0NIMl1bQ0gyXTUpW0NIMl1bQ0hdN1tDSDJdW0NIMl03KVtDSDJdYzhjNltjSF1jKE9bQ0gzXSlbY0hdW2NIXTg=

>  <s_epik_cmdline>  (156) 
J2VwaWtfcHl0aG9uJywgJy1waHQnLCAnMi4wJywgJy1waCcsICc3LjAnLCAnLXRuJywgJzgnLCAnLW1hJywgJzIwMCcsICctaW1hZScsICc8aW5maWxlLm1hZT4nLCAnLW9tYWUnLCAnPG91dGZpbGUubWFlPic=

>  <r_lp_tautomer_probability>  (156) 
1

>  <r_epik_Ionization_Penalty>  (156) 
0.0185492

>  <r_epik_Ionization_Penalty_Charging>  (156) 
0.0185492

>  <r_epik_Ionization_Penalty_Neutral>  (156) 
1.06168e-13

>  <r_epik_State_Penalty>  (156) 
0.014766

>  <r_epik_Charging_Adjusted_Penalty>  (156) 
0.0333151

>  <i_epik_Tot_Q>  (156) 
1

>  <i_epik_Tot_abs_Q>  (156) 
1

>  <s_lp_Force_Field>  (156) 
OPLS3e

>  <r_lp_Energy>  (156) 
207.343

>  <b_lp_Chiralities_Consistent>  (156) 
0

>  <s_lp_Variant>  (156) 
54:0-1

>  <s_i_glide_gridfile>  (156) 
pfpi4k_grid

>  <i_i_glide_lignum>  (156) 
37

>  <i_i_glide_rotatable_bonds>  (156) 
4

>  <r_i_docking_score>  (156) 
-1.91072

>  <r_i_glide_ligand_efficiency>  (156) 
-0.0579007

>  <r_i_glide_ligand_efficiency_sa>  (156) 
-0.185719

>  <r_i_glide_ligand_efficiency_ln>  (156) 
-0.424935

>  <r_i_glide_gscore>  (156) 
-1.91072

>  <r_i_glide_lipo>  (156) 
-0.0210682

>  <r_i_glide_hbond>  (156) 
0

>  <r_i_glide_metal>  (156) 
-0

>  <r_i_glide_rewards>  (156) 
-0.377828

>  <r_i_glide_evdw>  (156) 
-18.917

>  <r_i_glide_ecoul>  (156) 
-4.76533

>  <r_i_glide_erotb>  (156) 
0.202384

>  <r_i_glide_esite>  (156) 
-0.0535605

>  <r_i_glide_emodel>  (156) 
-26.3318

>  <r_i_glide_energy>  (156) 
-23.6824

>  <r_i_glide_einternal>  (156) 
2.38907

>  <r_i_glide_intrahb_reward>  (156) 
-0

>  <i_i_glide_confnum>  (156) 
3

>  <i_i_glide_posenum>  (156) 
25

>  <r_i_glide_eff_state_penalty>  (156) 
0

>  <ligand_id>  (156) 
54

>  <original_smiles>  (156) 
C=C1C(=O)C2CC3C=CC24c2cc(OC)ccc2CC2C5C1(OC)C3C54CCN2CC1CC1

>  <smiles>  (156) 
[H]C([H])=C1C(=O)C2([H])C([H])([H])C3([H])C([H])=C([H])C24c2c([H])c(OC([H])([H])[H])c([H])c([H])c2C([H])([H])C2([H])C5([H])C1(OC([H])([H])[H])C3([H])C45C([H])([H])C([H])([H])[N+]2([H])C([H])([H])C1([H])C([H])([H])C1([H])[H]

$$$$
55:0:0
     RDKit          3D

 68 74  0  0  1  0  0  0  0  0999 V2000
    5.5589   -0.9931    1.9350 C   0  0  0  0  0  0  0  0  0  0  0  0
    4.0874   -0.6926    1.6100 C   0  0  2  0  0  0  0  0  0  0  0  0
    3.4335    0.1203    2.7405 C   0  0  0  0  0  0  0  0  0  0  0  0
    3.1689   -0.7365    3.9888 C   0  0  0  0  0  0  0  0  0  0  0  0
    2.3141   -1.9798    3.6639 C   0  0  1  0  0  0  0  0  0  0  0  0
    1.0012   -1.5336    3.3712 O   0  0  0  0  0  0  0  0  0  0  0  0
    2.9126   -2.8079    2.5175 C   0  0  2  0  0  0  0  0  0  0  0  0
    2.2116   -4.0047    2.2003 O   0  0  0  0  0  0  0  0  0  0  0  0
    3.4903   -4.2195    2.8230 C   0  0  2  0  0  0  0  0  0  0  0  0
    3.3867   -4.9836    4.1687 C   0  0  2  0  0  0  0  0  0  0  0  0
    4.7527   -5.6898    4.2752 C   0  0  0  0  0  0  0  0  0  0  0  0
    4.9362   -6.2215    2.8425 C   0  0  1  0  0  0  0  0  0  0  0  0
    6.3785   -6.7557    2.6354 C   0  0  0  0  0  0  0  0  0  0  0  0
    3.9054   -7.4048    2.7921 C   0  0  2  0  0  0  0  0  0  0  0  0
    3.8051   -8.3813    1.6205 C   0  0  0  0  0  0  0  0  0  0  0  0
    4.6932   -8.6032    0.7952 O   0  0  0  0  0  0  0  0  0  0  0  0
    2.3915   -8.9886    1.6070 C   0  0  0  0  0  0  0  0  0  0  0  0
    1.6810   -8.3699    2.8215 C   0  0  1  0  0  0  0  0  0  0  0  0
    1.9030   -9.2575    3.8966 O   0  0  0  0  0  0  0  0  0  0  0  0
    2.4264   -7.0135    2.9778 C   0  0  1  0  0  0  0  0  0  0  0  0
    2.2374   -6.0784    4.2209 C   0  0  0  0  0  0  0  0  0  0  0  0
    0.9851   -5.4529    4.1981 O   0  0  0  0  0  0  0  0  0  0  0  0
    0.0865   -6.3431    4.8324 C   0  0  0  0  0  0  0  0  0  0  0  0
    0.9845   -7.0321    5.8673 C   0  0  0  0  0  0  0  0  0  0  0  0
    2.3094   -6.7935    5.4151 O   0  0  0  0  0  0  0  0  0  0  0  0
    4.6185   -4.9064    2.0302 C   0  0  2  0  0  0  0  0  0  0  0  0
    5.7577   -4.0749    2.2156 O   0  0  0  0  0  0  0  0  0  0  0  0
    4.4597   -5.0120    0.4804 C   0  0  1  0  0  0  0  0  0  0  0  0
    3.2824   -5.7027    0.0906 O   0  0  0  0  0  0  0  0  0  0  0  0
    4.5497   -3.6701   -0.2980 C   0  0  1  0  0  0  0  0  0  0  0  0
    4.7037   -3.9403   -1.6778 O   0  0  0  0  0  0  0  0  0  0  0  0
    3.4297   -2.6019   -0.1092 C   0  0  1  0  0  0  0  0  0  0  0  0
    2.2096   -3.0588   -0.6270 O   0  0  0  0  0  0  0  0  0  0  0  0
    3.1834   -1.9264    1.2835 C   0  0  2  0  0  0  0  0  0  0  0  0
    5.6775   -1.5914    2.8369 H   0  0  0  0  0  0  0  0  0  0  0  0
    6.0945   -0.0629    2.1218 H   0  0  0  0  0  0  0  0  0  0  0  0
    6.0780   -1.4783    1.1114 H   0  0  0  0  0  0  0  0  0  0  0  0
    4.0896   -0.0435    0.7369 H   0  0  0  0  0  0  0  0  0  0  0  0
    4.0610    0.9679    3.0126 H   0  0  0  0  0  0  0  0  0  0  0  0
    2.4886    0.5400    2.3877 H   0  0  0  0  0  0  0  0  0  0  0  0
    4.1165   -1.0544    4.4276 H   0  0  0  0  0  0  0  0  0  0  0  0
    2.6663   -0.1390    4.7548 H   0  0  0  0  0  0  0  0  0  0  0  0
    2.2451   -2.5924    4.5534 H   0  0  0  0  0  0  0  0  0  0  0  0
    1.0132   -1.0598    2.5522 H   0  0  0  0  0  0  0  0  0  0  0  0
    3.2942   -4.3080    5.0099 H   0  0  0  0  0  0  0  0  0  0  0  0
    5.5328   -4.9683    4.5425 H   0  0  0  0  0  0  0  0  0  0  0  0
    4.7958   -6.4645    5.0393 H   0  0  0  0  0  0  0  0  0  0  0  0
    6.5725   -7.0079    1.5915 H   0  0  0  0  0  0  0  0  0  0  0  0
    6.5243   -7.6590    3.2286 H   0  0  0  0  0  0  0  0  0  0  0  0
    7.1477   -6.0449    2.9496 H   0  0  0  0  0  0  0  0  0  0  0  0
    4.1785   -8.0253    3.6455 H   0  0  0  0  0  0  0  0  0  0  0  0
    1.8587   -8.6758    0.7144 H   0  0  0  0  0  0  0  0  0  0  0  0
    2.3967  -10.0777    1.6417 H   0  0  0  0  0  0  0  0  0  0  0  0
    0.6136   -8.2651    2.5795 H   0  0  0  0  0  0  0  0  0  0  0  0
    1.2999   -9.9891    3.7849 H   0  0  0  0  0  0  0  0  0  0  0  0
    2.1319   -6.4068    2.1274 H   0  0  0  0  0  0  0  0  0  0  0  0
   -0.7549   -5.8161    5.3171 H   0  0  0  0  0  0  0  0  0  0  0  0
   -0.2819   -7.0476    4.0749 H   0  0  0  0  0  0  0  0  0  0  0  0
    0.8585   -6.6225    6.8781 H   0  0  0  0  0  0  0  0  0  0  0  0
    0.8010   -8.1015    5.9126 H   0  0  0  0  0  0  0  0  0  0  0  0
    5.5682   -3.2308    1.8308 H   0  0  0  0  0  0  0  0  0  0  0  0
    5.2915   -5.6216    0.1284 H   0  0  0  0  0  0  0  0  0  0  0  0
    3.2776   -5.8457   -0.8502 H   0  0  0  0  0  0  0  0  0  0  0  0
    5.4996   -3.1875   -0.0705 H   0  0  0  0  0  0  0  0  0  0  0  0
    3.9370   -4.4206   -1.9769 H   0  0  0  0  0  0  0  0  0  0  0  0
    3.7022   -1.7808   -0.7781 H   0  0  0  0  0  0  0  0  0  0  0  0
    1.6534   -2.2847   -0.7458 H   0  0  0  0  0  0  0  0  0  0  0  0
    2.2200   -1.4404    1.1021 H   0  0  0  0  0  0  0  0  0  0  0  0
  1  2  1  0
  1 35  1  0
  1 36  1  0
  1 37  1  0
  2 34  1  0
  2  3  1  0
  2 38  1  6
  3  4  1  0
  3 39  1  0
  3 40  1  0
  4  5  1  0
  4 41  1  0
  4 42  1  0
  5  6  1  0
  5  7  1  0
  5 43  1  1
  6 44  1  0
  7  9  1  0
  7 34  1  0
  7  8  1  6
  9  8  1  6
  9 26  1  0
  9 10  1  0
 10 21  1  0
 10 11  1  0
 10 45  1  1
 11 12  1  0
 11 46  1  0
 11 47  1  0
 12 13  1  1
 12 14  1  0
 12 26  1  0
 13 48  1  0
 13 49  1  0
 13 50  1  0
 14 20  1  0
 14 15  1  0
 14 51  1  1
 15 16  2  0
 15 17  1  0
 17 18  1  0
 17 52  1  0
 17 53  1  0
 18 19  1  0
 18 20  1  0
 18 54  1  6
 19 55  1  0
 20 21  1  0
 20 56  1  6
 21 25  1  0
 21 22  1  0
 22 23  1  0
 23 24  1  0
 23 57  1  0
 23 58  1  0
 24 25  1  0
 24 59  1  0
 24 60  1  0
 26 27  1  6
 26 28  1  0
 27 61  1  0
 28 29  1  0
 28 30  1  0
 28 62  1  6
 29 63  1  0
 30 31  1  0
 30 32  1  0
 30 64  1  1
 31 65  1  0
 32 33  1  0
 32 34  1  0
 32 66  1  6
 33 67  1  0
 34 68  1  6
M  END
>  <i_m_ct_stereo_status>  (157) 
1

>  <s_m_source_file>  (157) 
/var/tmp/pbs.5076255.sched01/tmpxjfjwjbi/40jwkb7fqh.sdf

>  <i_m_source_file_index>  (157) 
39

>  <i_lp_mmshare_version>  (157) 
48012

>  <i_f3d_flags>  (157) 
0

>  <s_epik_input>  (157) 
W09IXVtDQEBIXTFbQ0gyXVtDSDJdW0NAQEhdKFtDSDNdKVtDQEhdMltDQEhdKFtPSF0pW0NASF0oW09IXSlbQ0BIXShbT0hdKVtDQF0zKFtPSF0pW0NAXShbQ0gyXTQpKFtDSDNdKVtDQEhdKEMoPU8pW0NIMl1bQ0BIXTVbT0hdKVtDQEBIXTVDNihbQ0BASF00W0NAXTMoW0NAQF0xMjcpTzcpT1tDSDJdW0NIMl1PNg==

>  <s_epik_cmdline>  (157) 
J2VwaWtfcHl0aG9uJywgJy1waHQnLCAnMi4wJywgJy1waCcsICc3LjAnLCAnLXRuJywgJzgnLCAnLW1hJywgJzIwMCcsICctaW1hZScsICc8aW5maWxlLm1hZT4nLCAnLW9tYWUnLCAnPG91dGZpbGUubWFlPic=

>  <r_lp_tautomer_probability>  (157) 
1

>  <r_epik_Ionization_Penalty>  (157) 
4.66277e-07

>  <r_epik_Ionization_Penalty_Charging>  (157) 
0

>  <r_epik_Ionization_Penalty_Neutral>  (157) 
4.66277e-07

>  <r_epik_State_Penalty>  (157) 
-0

>  <r_epik_Charging_Adjusted_Penalty>  (157) 
0

>  <i_epik_Tot_Q>  (157) 
0

>  <i_epik_Tot_abs_Q>  (157) 
0

>  <s_lp_Force_Field>  (157) 
OPLS3e

>  <r_lp_Energy>  (157) 
40.6368

>  <b_lp_Chiralities_Consistent>  (157) 
1

>  <s_lp_Variant>  (157) 
55:0-1

>  <s_i_glide_gridfile>  (157) 
pfpi4k_grid

>  <i_i_glide_lignum>  (157) 
39

>  <i_i_glide_rotatable_bonds>  (157) 
6

>  <r_i_docking_score>  (157) 
-3.26716

>  <r_i_glide_ligand_efficiency>  (157) 
-0.096093

>  <r_i_glide_ligand_efficiency_sa>  (157) 
-0.311304

>  <r_i_glide_ligand_efficiency_ln>  (157) 
-0.721808

>  <r_i_glide_gscore>  (157) 
-3.26716

>  <r_i_glide_lipo>  (157) 
-0.296747

>  <r_i_glide_hbond>  (157) 
0

>  <r_i_glide_metal>  (157) 
-0

>  <r_i_glide_rewards>  (157) 
-0.119177

>  <r_i_glide_evdw>  (157) 
-26.7556

>  <r_i_glide_ecoul>  (157) 
-9.97787

>  <r_i_glide_erotb>  (157) 
0

>  <r_i_glide_esite>  (157) 
-0.0167785

>  <r_i_glide_emodel>  (157) 
-44.125

>  <r_i_glide_energy>  (157) 
-36.7335

>  <r_i_glide_einternal>  (157) 
1.17116

>  <r_i_glide_intrahb_reward>  (157) 
-0

>  <i_i_glide_confnum>  (157) 
4

>  <i_i_glide_posenum>  (157) 
17

>  <r_i_glide_eff_state_penalty>  (157) 
0

>  <ligand_id>  (157) 
55

>  <original_smiles>  (157) 
CC1CCC(O)C23OC24C2CC(C)(C5C(=O)CC(O)C5C25OCCO5)C4(O)C(O)C(O)C(O)C13

>  <smiles>  (157) 
[H]OC1([H])C([H])(O[H])C2([H])C([H])(C([H])([H])[H])C([H])([H])C([H])([H])C([H])(O[H])C23OC32C3([H])C([H])([H])C(C([H])([H])[H])(C4([H])C(=O)C([H])([H])C([H])(O[H])C4([H])C34OC([H])([H])C([H])([H])O4)C2(O[H])C1([H])O[H]

$$$$
55:0:1
     RDKit          3D

 68 74  0  0  1  0  0  0  0  0999 V2000
    5.5891   -1.0366    1.9245 C   0  0  0  0  0  0  0  0  0  0  0  0
    4.1217   -0.7156    1.6018 C   0  0  2  0  0  0  0  0  0  0  0  0
    3.4808    0.1061    2.7295 C   0  0  0  0  0  0  0  0  0  0  0  0
    3.2024   -0.7463    3.9808 C   0  0  0  0  0  0  0  0  0  0  0  0
    2.3312   -1.9758    3.6558 C   0  0  1  0  0  0  0  0  0  0  0  0
    1.0200   -1.5165    3.3658 O   0  0  0  0  0  0  0  0  0  0  0  0
    2.9186   -2.8197    2.5161 C   0  0  2  0  0  0  0  0  0  0  0  0
    2.2013   -4.0041    2.1970 O   0  0  0  0  0  0  0  0  0  0  0  0
    3.4750   -4.2255    2.8197 C   0  0  2  0  0  0  0  0  0  0  0  0
    3.3645   -4.9924    4.1671 C   0  0  2  0  0  0  0  0  0  0  0  0
    4.7143   -5.7168    4.2790 C   0  0  0  0  0  0  0  0  0  0  0  0
    4.8888   -6.2532    2.8422 C   0  0  1  0  0  0  0  0  0  0  0  0
    6.3206   -6.8159    2.6395 C   0  0  0  0  0  0  0  0  0  0  0  0
    3.8342   -7.4215    2.8013 C   0  0  2  0  0  0  0  0  0  0  0  0
    3.7121   -8.3999    1.6348 C   0  0  0  0  0  0  0  0  0  0  0  0
    4.5978   -8.6356    0.8060 O   0  0  0  0  0  0  0  0  0  0  0  0
    2.2909   -8.9802    1.6229 C   0  0  0  0  0  0  0  0  0  0  0  0
    1.5899   -8.3415    2.8400 C   0  0  1  0  0  0  0  0  0  0  0  0
    1.7991   -9.2388    3.9207 O   0  0  0  0  0  0  0  0  0  0  0  0
    2.3705   -7.0033    2.9802 C   0  0  1  0  0  0  0  0  0  0  0  0
    2.1934   -6.0662    4.2277 C   0  0  0  0  0  0  0  0  0  0  0  0
    0.9585   -5.4244    4.2005 O   0  0  0  0  0  0  0  0  0  0  0  0
    0.0449   -6.3246    4.8114 C   0  0  0  0  0  0  0  0  0  0  0  0
    0.9325   -7.0149    5.8630 C   0  0  0  0  0  0  0  0  0  0  0  0
    2.2574   -6.7845    5.4157 O   0  0  0  0  0  0  0  0  0  0  0  0
    4.5883   -4.9367    2.0312 C   0  0  2  0  0  0  0  0  0  0  0  0
    5.7366   -4.1188    2.2059 O   0  0  0  0  0  0  0  0  0  0  0  0
    4.4284   -5.0472    0.4769 C   0  0  1  0  0  0  0  0  0  0  0  0
    3.2526   -5.7288    0.0826 O   0  0  0  0  0  0  0  0  0  0  0  0
    4.5392   -3.7014   -0.2971 C   0  0  1  0  0  0  0  0  0  0  0  0
    4.6947   -3.9837   -1.6802 O   0  0  0  0  0  0  0  0  0  0  0  0
    3.4343   -2.6204   -0.1103 C   0  0  1  0  0  0  0  0  0  0  0  0
    2.1943   -3.0579   -0.6360 O   0  0  0  0  0  0  0  0  0  0  0  0
    3.2018   -1.9300    1.2827 C   0  0  2  0  0  0  0  0  0  0  0  0
    5.6950   -1.6428    2.8242 H   0  0  0  0  0  0  0  0  0  0  0  0
    6.1433   -0.1185    2.1069 H   0  0  0  0  0  0  0  0  0  0  0  0
    6.0968   -1.5415    1.1050 H   0  0  0  0  0  0  0  0  0  0  0  0
    4.1315   -0.0712    0.7230 H   0  0  0  0  0  0  0  0  0  0  0  0
    4.1203    0.9418    3.0019 H   0  0  0  0  0  0  0  0  0  0  0  0
    2.5424    0.5395    2.3785 H   0  0  0  0  0  0  0  0  0  0  0  0
    4.1461   -1.0762    4.4200 H   0  0  0  0  0  0  0  0  0  0  0  0
    2.7121   -0.1370    4.7467 H   0  0  0  0  0  0  0  0  0  0  0  0
    2.2507   -2.5822    4.5532 H   0  0  0  0  0  0  0  0  0  0  0  0
    1.0384   -1.0287    2.5571 H   0  0  0  0  0  0  0  0  0  0  0  0
    3.2756   -4.3104    5.0141 H   0  0  0  0  0  0  0  0  0  0  0  0
    5.5036   -5.0076    4.5465 H   0  0  0  0  0  0  0  0  0  0  0  0
    4.7435   -6.4918    5.0453 H   0  0  0  0  0  0  0  0  0  0  0  0
    6.5126   -7.0736    1.5954 H   0  0  0  0  0  0  0  0  0  0  0  0
    6.4507   -7.7240    3.2303 H   0  0  0  0  0  0  0  0  0  0  0  0
    7.1048   -6.1242    2.9614 H   0  0  0  0  0  0  0  0  0  0  0  0
    4.0959   -8.0509    3.6515 H   0  0  0  0  0  0  0  0  0  0  0  0
    1.7692   -8.6549    0.7300 H   0  0  0  0  0  0  0  0  0  0  0  0
    2.2724  -10.0664    1.6594 H   0  0  0  0  0  0  0  0  0  0  0  0
    0.5318   -8.2132    2.6133 H   0  0  0  0  0  0  0  0  0  0  0  0
    1.1833   -9.9435    3.8181 H   0  0  0  0  0  0  0  0  0  0  0  0
    2.0751   -6.3969    2.1323 H   0  0  0  0  0  0  0  0  0  0  0  0
   -0.7987   -5.7924    5.2879 H   0  0  0  0  0  0  0  0  0  0  0  0
   -0.3161   -7.0110    4.0582 H   0  0  0  0  0  0  0  0  0  0  0  0
    0.8004   -6.6060    6.8585 H   0  0  0  0  0  0  0  0  0  0  0  0
    0.7377   -8.0858    5.8948 H   0  0  0  0  0  0  0  0  0  0  0  0
    6.4715   -4.5494    1.7948 H   0  0  0  0  0  0  0  0  0  0  0  0
    5.2536   -5.6654    0.1231 H   0  0  0  0  0  0  0  0  0  0  0  0
    3.2559   -5.8577   -0.8588 H   0  0  0  0  0  0  0  0  0  0  0  0
    5.4947   -3.2364   -0.0628 H   0  0  0  0  0  0  0  0  0  0  0  0
    3.9212   -4.4499   -1.9774 H   0  0  0  0  0  0  0  0  0  0  0  0
    3.7159   -1.8043   -0.7913 H   0  0  0  0  0  0  0  0  0  0  0  0
    1.6454   -2.2741   -0.7518 H   0  0  0  0  0  0  0  0  0  0  0  0
    2.2453   -1.4413    1.0943 H   0  0  0  0  0  0  0  0  0  0  0  0
  1  2  1  0
  1 35  1  0
  1 36  1  0
  1 37  1  0
  2 34  1  0
  2  3  1  0
  2 38  1  6
  3  4  1  0
  3 39  1  0
  3 40  1  0
  4  5  1  0
  4 41  1  0
  4 42  1  0
  5  6  1  0
  5  7  1  0
  5 43  1  1
  6 44  1  0
  7  9  1  0
  7 34  1  0
  7  8  1  6
  9  8  1  6
  9 26  1  0
  9 10  1  0
 10 21  1  0
 10 11  1  0
 10 45  1  1
 11 12  1  0
 11 46  1  0
 11 47  1  0
 12 13  1  1
 12 14  1  0
 12 26  1  0
 13 48  1  0
 13 49  1  0
 13 50  1  0
 14 20  1  0
 14 15  1  0
 14 51  1  1
 15 16  2  0
 15 17  1  0
 17 18  1  0
 17 52  1  0
 17 53  1  0
 18 19  1  0
 18 20  1  0
 18 54  1  6
 19 55  1  0
 20 21  1  0
 20 56  1  6
 21 25  1  0
 21 22  1  0
 22 23  1  0
 23 24  1  0
 23 57  1  0
 23 58  1  0
 24 25  1  0
 24 59  1  0
 24 60  1  0
 26 27  1  6
 26 28  1  0
 27 61  1  0
 28 29  1  0
 28 30  1  0
 28 62  1  6
 29 63  1  0
 30 31  1  0
 30 32  1  0
 30 64  1  1
 31 65  1  0
 32 33  1  0
 32 34  1  0
 32 66  1  6
 33 67  1  0
 34 68  1  6
M  END
>  <i_m_ct_stereo_status>  (158) 
1

>  <s_m_source_file>  (158) 
/var/tmp/pbs.5076255.sched01/tmpxjfjwjbi/40jwkb7fqh.sdf

>  <i_m_source_file_index>  (158) 
39

>  <i_lp_mmshare_version>  (158) 
48012

>  <i_f3d_flags>  (158) 
0

>  <s_epik_input>  (158) 
W09IXVtDQEBIXTFbQ0gyXVtDSDJdW0NAQEhdKFtDSDNdKVtDQEhdMltDQEhdKFtPSF0pW0NASF0oW09IXSlbQ0BIXShbT0hdKVtDQF0zKFtPSF0pW0NAXShbQ0gyXTQpKFtDSDNdKVtDQEhdKEMoPU8pW0NIMl1bQ0BIXTVbT0hdKVtDQEBIXTVDNihbQ0BASF00W0NAXTMoW0NAQF0xMjcpTzcpT1tDSDJdW0NIMl1PNg==

>  <s_epik_cmdline>  (158) 
J2VwaWtfcHl0aG9uJywgJy1waHQnLCAnMi4wJywgJy1waCcsICc3LjAnLCAnLXRuJywgJzgnLCAnLW1hJywgJzIwMCcsICctaW1hZScsICc8aW5maWxlLm1hZT4nLCAnLW9tYWUnLCAnPG91dGZpbGUubWFlPic=

>  <r_lp_tautomer_probability>  (158) 
1

>  <r_epik_Ionization_Penalty>  (158) 
4.66277e-07

>  <r_epik_Ionization_Penalty_Charging>  (158) 
0

>  <r_epik_Ionization_Penalty_Neutral>  (158) 
4.66277e-07

>  <r_epik_State_Penalty>  (158) 
-0

>  <r_epik_Charging_Adjusted_Penalty>  (158) 
0

>  <i_epik_Tot_Q>  (158) 
0

>  <i_epik_Tot_abs_Q>  (158) 
0

>  <s_lp_Force_Field>  (158) 
OPLS3e

>  <r_lp_Energy>  (158) 
40.6368

>  <b_lp_Chiralities_Consistent>  (158) 
1

>  <s_lp_Variant>  (158) 
55:0-1

>  <s_i_glide_gridfile>  (158) 
pfpi4k_grid

>  <i_i_glide_lignum>  (158) 
39

>  <i_i_glide_rotatable_bonds>  (158) 
6

>  <r_i_docking_score>  (158) 
-3.26187

>  <r_i_glide_ligand_efficiency>  (158) 
-0.0959375

>  <r_i_glide_ligand_efficiency_sa>  (158) 
-0.3108

>  <r_i_glide_ligand_efficiency_ln>  (158) 
-0.720639

>  <r_i_glide_gscore>  (158) 
-3.26187

>  <r_i_glide_lipo>  (158) 
-0.315554

>  <r_i_glide_hbond>  (158) 
0

>  <r_i_glide_metal>  (158) 
-0

>  <r_i_glide_rewards>  (158) 
-0.119177

>  <r_i_glide_evdw>  (158) 
-26.3558

>  <r_i_glide_ecoul>  (158) 
-9.94534

>  <r_i_glide_erotb>  (158) 
0

>  <r_i_glide_esite>  (158) 
-0.0175516

>  <r_i_glide_emodel>  (158) 
-43.3824

>  <r_i_glide_energy>  (158) 
-36.3012

>  <r_i_glide_einternal>  (158) 
1.15998

>  <r_i_glide_intrahb_reward>  (158) 
-0

>  <i_i_glide_confnum>  (158) 
1

>  <i_i_glide_posenum>  (158) 
22

>  <r_i_glide_eff_state_penalty>  (158) 
0

>  <ligand_id>  (158) 
55

>  <original_smiles>  (158) 
CC1CCC(O)C23OC24C2CC(C)(C5C(=O)CC(O)C5C25OCCO5)C4(O)C(O)C(O)C(O)C13

>  <smiles>  (158) 
[H]OC1([H])C([H])(O[H])C2([H])C([H])(C([H])([H])[H])C([H])([H])C([H])([H])C([H])(O[H])C23OC32C3([H])C([H])([H])C(C([H])([H])[H])(C4([H])C(=O)C([H])([H])C([H])(O[H])C4([H])C34OC([H])([H])C([H])([H])O4)C2(O[H])C1([H])O[H]

$$$$
55:0:2
     RDKit          3D

 68 74  0  0  1  0  0  0  0  0999 V2000
    5.3346   -1.0575    1.6868 C   0  0  0  0  0  0  0  0  0  0  0  0
    3.8251   -0.9636    1.3905 C   0  0  2  0  0  0  0  0  0  0  0  0
    3.1084   -0.1815    2.5082 C   0  0  0  0  0  0  0  0  0  0  0  0
    2.9803   -1.0188    3.7949 C   0  0  0  0  0  0  0  0  0  0  0  0
    2.2774   -2.3659    3.5423 C   0  0  1  0  0  0  0  0  0  0  0  0
    0.9170   -2.0857    3.2734 O   0  0  0  0  0  0  0  0  0  0  0  0
    2.9406   -3.1796    2.4129 C   0  0  2  0  0  0  0  0  0  0  0  0
    2.3826   -4.4512    2.1655 O   0  0  0  0  0  0  0  0  0  0  0  0
    3.6821   -4.4805    2.7552 C   0  0  2  0  0  0  0  0  0  0  0  0
    3.7160   -5.2086    4.1378 C   0  0  2  0  0  0  0  0  0  0  0  0
    5.1587   -5.7353    4.2301 C   0  0  0  0  0  0  0  0  0  0  0  0
    5.3788   -6.2889    2.8081 C   0  0  1  0  0  0  0  0  0  0  0  0
    6.8732   -6.6543    2.5910 C   0  0  0  0  0  0  0  0  0  0  0  0
    4.5062   -7.6000    2.8274 C   0  0  2  0  0  0  0  0  0  0  0  0
    4.5023   -8.6190    1.6860 C   0  0  0  0  0  0  0  0  0  0  0  0
    5.4078   -8.7682    0.8804 O   0  0  0  0  0  0  0  0  0  0  0  0
    3.1629   -9.3886    1.7169 C   0  0  0  0  0  0  0  0  0  0  0  0
    2.3949   -8.8316    2.9375 C   0  0  1  0  0  0  0  0  0  0  0  0
    2.6808   -9.6466    4.0707 O   0  0  0  0  0  0  0  0  0  0  0  0
    2.9932   -7.3964    3.0452 C   0  0  1  0  0  0  0  0  0  0  0  0
    2.7066   -6.4354    4.2566 C   0  0  0  0  0  0  0  0  0  0  0  0
    1.3874   -5.9657    4.2473 O   0  0  0  0  0  0  0  0  0  0  0  0
    0.6222   -6.9233    4.9455 C   0  0  0  0  0  0  0  0  0  0  0  0
    1.6173   -7.4509    5.9733 C   0  0  0  0  0  0  0  0  0  0  0  0
    2.8923   -7.0977    5.4703 O   0  0  0  0  0  0  0  0  0  0  0  0
    4.8803   -5.0561    1.9633 C   0  0  2  0  0  0  0  0  0  0  0  0
    5.9032   -4.0837    2.0813 O   0  0  0  0  0  0  0  0  0  0  0  0
    4.7113   -5.2361    0.4201 C   0  0  1  0  0  0  0  0  0  0  0  0
    3.6345   -6.0892    0.1240 O   0  0  0  0  0  0  0  0  0  0  0  0
    4.6110   -3.9245   -0.4058 C   0  0  1  0  0  0  0  0  0  0  0  0
    4.7763   -4.2035   -1.7868 O   0  0  0  0  0  0  0  0  0  0  0  0
    3.3585   -3.0264   -0.2247 C   0  0  1  0  0  0  0  0  0  0  0  0
    2.2103   -3.7210   -0.6803 O   0  0  0  0  0  0  0  0  0  0  0  0
    3.0700   -2.3104    1.1401 C   0  0  2  0  0  0  0  0  0  0  0  0
    5.5452   -1.6058    2.6043 H   0  0  0  0  0  0  0  0  0  0  0  0
    5.7627   -0.0624    1.8142 H   0  0  0  0  0  0  0  0  0  0  0  0
    5.8864   -1.5220    0.8743 H   0  0  0  0  0  0  0  0  0  0  0  0
    3.7279   -0.3552    0.4909 H   0  0  0  0  0  0  0  0  0  0  0  0
    3.6286    0.7550    2.7186 H   0  0  0  0  0  0  0  0  0  0  0  0
    2.1112    0.0989    2.1607 H   0  0  0  0  0  0  0  0  0  0  0  0
    3.9694   -1.2010    4.2203 H   0  0  0  0  0  0  0  0  0  0  0  0
    2.4210   -0.4585    4.5484 H   0  0  0  0  0  0  0  0  0  0  0  0
    2.3021   -2.9523    4.4548 H   0  0  0  0  0  0  0  0  0  0  0  0
    0.8561   -1.6448    2.4369 H   0  0  0  0  0  0  0  0  0  0  0  0
    3.5611   -4.5089    4.9492 H   0  0  0  0  0  0  0  0  0  0  0  0
    5.8501   -4.9143    4.4546 H   0  0  0  0  0  0  0  0  0  0  0  0
    5.3170   -6.4661    5.0222 H   0  0  0  0  0  0  0  0  0  0  0  0
    7.0826   -6.9263    1.5549 H   0  0  0  0  0  0  0  0  0  0  0  0
    7.1444   -7.5103    3.2131 H   0  0  0  0  0  0  0  0  0  0  0  0
    7.5625   -5.8519    2.8633 H   0  0  0  0  0  0  0  0  0  0  0  0
    4.8701   -8.1487    3.6940 H   0  0  0  0  0  0  0  0  0  0  0  0
    2.5950   -9.1932    0.8078 H   0  0  0  0  0  0  0  0  0  0  0  0
    3.3127  -10.4630    1.7915 H   0  0  0  0  0  0  0  0  0  0  0  0
    1.3134   -8.8151    2.7204 H   0  0  0  0  0  0  0  0  0  0  0  0
    3.6292   -9.7016    4.1662 H   0  0  0  0  0  0  0  0  0  0  0  0
    2.6104   -6.8531    2.1877 H   0  0  0  0  0  0  0  0  0  0  0  0
   -0.2521   -6.4621    5.4326 H   0  0  0  0  0  0  0  0  0  0  0  0
    0.3410   -7.7005    4.2221 H   0  0  0  0  0  0  0  0  0  0  0  0
    1.4804   -7.0068    6.9671 H   0  0  0  0  0  0  0  0  0  0  0  0
    1.5678   -8.5245    6.0644 H   0  0  0  0  0  0  0  0  0  0  0  0
    6.6908   -4.4368    1.6855 H   0  0  0  0  0  0  0  0  0  0  0  0
    5.5978   -5.7585    0.0588 H   0  0  0  0  0  0  0  0  0  0  0  0
    3.5057   -6.1413   -0.8278 H   0  0  0  0  0  0  0  0  0  0  0  0
    5.4847   -3.3149   -0.1927 H   0  0  0  0  0  0  0  0  0  0  0  0
    4.1045   -4.8268   -2.0636 H   0  0  0  0  0  0  0  0  0  0  0  0
    3.4875   -2.2023   -0.9290 H   0  0  0  0  0  0  0  0  0  0  0  0
    2.3702   -3.9582   -1.5835 H   0  0  0  0  0  0  0  0  0  0  0  0
    2.0521   -1.9590    0.9602 H   0  0  0  0  0  0  0  0  0  0  0  0
  1  2  1  0
  1 35  1  0
  1 36  1  0
  1 37  1  0
  2 34  1  0
  2  3  1  0
  2 38  1  6
  3  4  1  0
  3 39  1  0
  3 40  1  0
  4  5  1  0
  4 41  1  0
  4 42  1  0
  5  6  1  0
  5  7  1  0
  5 43  1  1
  6 44  1  0
  7  9  1  0
  7 34  1  0
  7  8  1  6
  9  8  1  6
  9 26  1  0
  9 10  1  0
 10 21  1  0
 10 11  1  0
 10 45  1  1
 11 12  1  0
 11 46  1  0
 11 47  1  0
 12 13  1  6
 12 14  1  0
 12 26  1  0
 13 48  1  0
 13 49  1  0
 13 50  1  0
 14 20  1  0
 14 15  1  0
 14 51  1  1
 15 16  2  0
 15 17  1  0
 17 18  1  0
 17 52  1  0
 17 53  1  0
 18 19  1  0
 18 20  1  0
 18 54  1  6
 19 55  1  0
 20 21  1  0
 20 56  1  6
 21 25  1  0
 21 22  1  0
 22 23  1  0
 23 24  1  0
 23 57  1  0
 23 58  1  0
 24 25  1  0
 24 59  1  0
 24 60  1  0
 26 27  1  6
 26 28  1  0
 27 61  1  0
 28 29  1  0
 28 30  1  0
 28 62  1  6
 29 63  1  0
 30 31  1  0
 30 32  1  0
 30 64  1  1
 31 65  1  0
 32 33  1  0
 32 34  1  0
 32 66  1  6
 33 67  1  0
 34 68  1  6
M  END
>  <i_m_ct_stereo_status>  (159) 
1

>  <s_m_source_file>  (159) 
/var/tmp/pbs.5076255.sched01/tmpxjfjwjbi/40jwkb7fqh.sdf

>  <i_m_source_file_index>  (159) 
39

>  <i_lp_mmshare_version>  (159) 
48012

>  <i_f3d_flags>  (159) 
0

>  <s_epik_input>  (159) 
W09IXVtDQEBIXTFbQ0gyXVtDSDJdW0NAQEhdKFtDSDNdKVtDQEhdMltDQEhdKFtPSF0pW0NASF0oW09IXSlbQ0BIXShbT0hdKVtDQF0zKFtPSF0pW0NAXShbQ0gyXTQpKFtDSDNdKVtDQEhdKEMoPU8pW0NIMl1bQ0BIXTVbT0hdKVtDQEBIXTVDNihbQ0BASF00W0NAXTMoW0NAQF0xMjcpTzcpT1tDSDJdW0NIMl1PNg==

>  <s_epik_cmdline>  (159) 
J2VwaWtfcHl0aG9uJywgJy1waHQnLCAnMi4wJywgJy1waCcsICc3LjAnLCAnLXRuJywgJzgnLCAnLW1hJywgJzIwMCcsICctaW1hZScsICc8aW5maWxlLm1hZT4nLCAnLW9tYWUnLCAnPG91dGZpbGUubWFlPic=

>  <r_lp_tautomer_probability>  (159) 
1

>  <r_epik_Ionization_Penalty>  (159) 
4.66277e-07

>  <r_epik_Ionization_Penalty_Charging>  (159) 
0

>  <r_epik_Ionization_Penalty_Neutral>  (159) 
4.66277e-07

>  <r_epik_State_Penalty>  (159) 
-0

>  <r_epik_Charging_Adjusted_Penalty>  (159) 
0

>  <i_epik_Tot_Q>  (159) 
0

>  <i_epik_Tot_abs_Q>  (159) 
0

>  <s_lp_Force_Field>  (159) 
OPLS3e

>  <r_lp_Energy>  (159) 
40.6368

>  <b_lp_Chiralities_Consistent>  (159) 
1

>  <s_lp_Variant>  (159) 
55:0-1

>  <s_i_glide_gridfile>  (159) 
pfpi4k_grid

>  <i_i_glide_lignum>  (159) 
39

>  <i_i_glide_rotatable_bonds>  (159) 
6

>  <r_i_docking_score>  (159) 
-3.07288

>  <r_i_glide_ligand_efficiency>  (159) 
-0.0903789

>  <r_i_glide_ligand_efficiency_sa>  (159) 
-0.292793

>  <r_i_glide_ligand_efficiency_ln>  (159) 
-0.678886

>  <r_i_glide_gscore>  (159) 
-3.07288

>  <r_i_glide_lipo>  (159) 
-0.248005

>  <r_i_glide_hbond>  (159) 
0

>  <r_i_glide_metal>  (159) 
-0

>  <r_i_glide_rewards>  (159) 
-0.119177

>  <r_i_glide_evdw>  (159) 
-28.0061

>  <r_i_glide_ecoul>  (159) 
-8.58834

>  <r_i_glide_erotb>  (159) 
0

>  <r_i_glide_esite>  (159) 
-0.0171492

>  <r_i_glide_emodel>  (159) 
-43.7265

>  <r_i_glide_energy>  (159) 
-36.5944

>  <r_i_glide_einternal>  (159) 
1.00585

>  <r_i_glide_intrahb_reward>  (159) 
-0

>  <i_i_glide_confnum>  (159) 
4

>  <i_i_glide_posenum>  (159) 
1

>  <r_i_glide_eff_state_penalty>  (159) 
0

>  <ligand_id>  (159) 
55

>  <original_smiles>  (159) 
CC1CCC(O)C23OC24C2CC(C)(C5C(=O)CC(O)C5C25OCCO5)C4(O)C(O)C(O)C(O)C13

>  <smiles>  (159) 
[H]OC1([H])C([H])(O[H])C2([H])C([H])(C([H])([H])[H])C([H])([H])C([H])([H])C([H])(O[H])C23OC32C3([H])C([H])([H])C(C([H])([H])[H])(C4([H])C(=O)C([H])([H])C([H])(O[H])C4([H])C34OC([H])([H])C([H])([H])O4)C2(O[H])C1([H])O[H]

$$$$
56:0:0
     RDKit          3D

 75 81  0  0  1  0  0  0  0  0999 V2000
    3.4357    4.2969    9.0806 C   0  0  0  0  0  0  0  0  0  0  0  0
    4.6923    3.8054    8.3858 C   0  0  0  0  0  0  0  0  0  0  0  0
    5.1799    2.5627    8.3047 C   0  0  0  0  0  0  0  0  0  0  0  0
    4.8646    1.3203    9.0588 C   0  0  1  0  0  0  0  0  0  0  0  0
    4.6337    0.1742    8.2389 O   0  0  0  0  0  0  0  0  0  0  0  0
    4.2550    0.1824    6.8410 C   0  0  1  0  0  0  0  0  0  0  0  0
    4.2919   -1.3900    6.6011 C   0  0  0  0  0  0  0  0  0  0  0  0
    3.1794   -2.1624    7.3391 C   0  0  0  0  0  0  0  0  0  0  0  0
    5.6295   -2.0858    6.9922 C   0  0  0  0  0  0  0  0  0  0  0  0
    2.7671    0.7940    6.6226 C   0  0  1  0  0  0  0  0  0  0  0  0
    1.8460    0.6803    7.8623 C   0  0  0  0  0  0  0  0  0  0  0  0
    2.9097    2.1741    6.3270 O   0  0  0  0  0  0  0  0  0  0  0  0
    3.5067    2.1980    5.0729 C   0  0  1  0  0  0  0  0  0  0  0  0
    4.8826    2.1434    5.3093 O   0  0  0  0  0  0  0  0  0  0  0  0
    5.3787    0.9445    5.8957 C   0  0  2  0  0  0  0  0  0  0  0  0
    5.8138    0.0800    4.8525 O   0  0  0  0  0  0  0  0  0  0  0  0
    6.7004    1.3520    6.6667 C   0  0  1  0  0  0  0  0  0  0  0  0
    7.8009    1.6422    5.8104 O   0  0  0  0  0  0  0  0  0  0  0  0
    6.5529    2.4674    7.7579 C   0  0  1  0  0  0  0  0  0  0  0  0
    6.8386    3.9245    7.2924 C   0  0  0  0  0  0  0  0  0  0  0  0
    5.7006    4.8016    7.8681 C   0  0  0  0  0  0  0  0  0  0  0  0
    7.2507    2.0265    9.0615 C   0  0  0  0  0  0  0  0  0  0  0  0
    6.2391    1.0571    9.7336 C   0  0  1  0  0  0  0  0  0  0  0  0
    6.2015    1.2590   11.1308 O   0  0  0  0  0  0  0  0  0  0  0  0
    3.0012    0.9401    4.3801 C   0  0  0  0  0  0  0  0  0  0  0  0
    3.4197    0.4023    3.3579 O   0  0  0  0  0  0  0  0  0  0  0  0
    1.9847    0.4034    5.3123 C   0  0  2  0  0  0  0  0  0  0  0  0
    0.6495    1.1904    5.1718 C   0  0  1  0  0  0  0  0  0  0  0  0
    0.5497    2.5975    4.5490 C   0  0  1  0  0  0  0  0  0  0  0  0
    1.6110    3.3376    3.7065 C   0  0  0  0  0  0  0  0  0  0  0  0
    3.0617    3.4695    4.2890 C   0  0  1  0  0  0  0  0  0  0  0  0
    3.2709    4.7363    5.1183 C   0  0  0  0  0  0  0  0  0  0  0  0
   -0.2392    1.4288    3.9571 C   0  0  0  0  0  0  0  0  0  0  0  0
    0.0606    0.8194    2.5958 C   0  0  0  0  0  0  0  0  0  0  0  0
   -1.7428    1.4236    4.1682 C   0  0  0  0  0  0  0  0  0  0  0  0
    2.7661    4.7491    8.3487 H   0  0  0  0  0  0  0  0  0  0  0  0
    3.6950    5.0592    9.8152 H   0  0  0  0  0  0  0  0  0  0  0  0
    2.9033    3.4904    9.5864 H   0  0  0  0  0  0  0  0  0  0  0  0
    4.0645    1.4731    9.7832 H   0  0  0  0  0  0  0  0  0  0  0  0
    4.1230   -1.5927    5.5442 H   0  0  0  0  0  0  0  0  0  0  0  0
    3.2048   -1.9672    8.4121 H   0  0  0  0  0  0  0  0  0  0  0  0
    3.2980   -3.2386    7.2060 H   0  0  0  0  0  0  0  0  0  0  0  0
    2.1878   -1.9191    6.9657 H   0  0  0  0  0  0  0  0  0  0  0  0
    5.8324   -2.0135    8.0609 H   0  0  0  0  0  0  0  0  0  0  0  0
    6.4984   -1.6948    6.4655 H   0  0  0  0  0  0  0  0  0  0  0  0
    5.5918   -3.1514    6.7520 H   0  0  0  0  0  0  0  0  0  0  0  0
    1.0934   -0.0991    7.7380 H   0  0  0  0  0  0  0  0  0  0  0  0
    1.3186    1.6205    8.0341 H   0  0  0  0  0  0  0  0  0  0  0  0
    2.3676    0.4440    8.7844 H   0  0  0  0  0  0  0  0  0  0  0  0
    5.0652   -0.1461    4.3133 H   0  0  0  0  0  0  0  0  0  0  0  0
    7.0155    0.4370    7.1664 H   0  0  0  0  0  0  0  0  0  0  0  0
    8.5802    1.7437    6.3354 H   0  0  0  0  0  0  0  0  0  0  0  0
    7.8322    4.2701    7.5808 H   0  0  0  0  0  0  0  0  0  0  0  0
    6.7825    3.9834    6.2074 H   0  0  0  0  0  0  0  0  0  0  0  0
    5.2762    5.4982    7.1498 H   0  0  0  0  0  0  0  0  0  0  0  0
    6.0674    5.3859    8.7117 H   0  0  0  0  0  0  0  0  0  0  0  0
    8.2328    1.5837    8.8976 H   0  0  0  0  0  0  0  0  0  0  0  0
    7.4025    2.8913    9.7065 H   0  0  0  0  0  0  0  0  0  0  0  0
    6.5584    0.0283    9.5698 H   0  0  0  0  0  0  0  0  0  0  0  0
    5.5882    0.6429   11.5013 H   0  0  0  0  0  0  0  0  0  0  0  0
    1.8290   -0.6635    5.1707 H   0  0  0  0  0  0  0  0  0  0  0  0
    0.0438    1.0627    6.0659 H   0  0  0  0  0  0  0  0  0  0  0  0
   -0.0240    3.3020    5.1499 H   0  0  0  0  0  0  0  0  0  0  0  0
    1.6789    2.8852    2.7194 H   0  0  0  0  0  0  0  0  0  0  0  0
    1.2197    4.3330    3.4960 H   0  0  0  0  0  0  0  0  0  0  0  0
    3.7286    3.5599    3.4306 H   0  0  0  0  0  0  0  0  0  0  0  0
    2.6818    4.7196    6.0340 H   0  0  0  0  0  0  0  0  0  0  0  0
    2.9933    5.6263    4.5555 H   0  0  0  0  0  0  0  0  0  0  0  0
    4.3218    4.8308    5.3716 H   0  0  0  0  0  0  0  0  0  0  0  0
   -0.4590    1.3754    1.8129 H   0  0  0  0  0  0  0  0  0  0  0  0
   -0.2730   -0.2192    2.5717 H   0  0  0  0  0  0  0  0  0  0  0  0
    1.1236    0.8280    2.3645 H   0  0  0  0  0  0  0  0  0  0  0  0
   -2.2394    2.0116    3.3966 H   0  0  0  0  0  0  0  0  0  0  0  0
   -1.9989    1.8517    5.1383 H   0  0  0  0  0  0  0  0  0  0  0  0
   -2.1288    0.4055    4.1315 H   0  0  0  0  0  0  0  0  0  0  0  0
  1  2  1  0
  1 36  1  0
  1 37  1  0
  1 38  1  0
  2 21  1  0
  2  3  2  0
  3 19  1  0
  3  4  1  0
  4 23  1  0
  4  5  1  0
  4 39  1  1
  5  6  1  0
  6 15  1  0
  6  7  1  6
  6 10  1  0
  7  8  1  0
  7  9  1  0
  7 40  1  0
  8 41  1  0
  8 42  1  0
  8 43  1  0
  9 44  1  0
  9 45  1  0
  9 46  1  0
 10 27  1  0
 10 11  1  1
 10 12  1  0
 11 47  1  0
 11 48  1  0
 11 49  1  0
 12 13  1  0
 13 31  1  0
 13 14  1  1
 13 25  1  0
 14 15  1  0
 15 16  1  6
 15 17  1  0
 16 50  1  0
 17 18  1  0
 17 19  1  0
 17 51  1  1
 18 52  1  0
 19 20  1  6
 19 22  1  0
 20 21  1  0
 20 53  1  0
 20 54  1  0
 21 55  1  0
 21 56  1  0
 22 23  1  0
 22 57  1  0
 22 58  1  0
 23 24  1  0
 23 59  1  1
 24 60  1  0
 25 26  2  0
 25 27  1  0
 27 28  1  0
 27 61  1  6
 28 33  1  0
 28 29  1  0
 28 62  1  1
 29 30  1  0
 29 33  1  0
 29 63  1  1
 30 31  1  0
 30 64  1  0
 30 65  1  0
 31 32  1  0
 31 66  1  6
 32 67  1  0
 32 68  1  0
 32 69  1  0
 33 34  1  0
 33 35  1  0
 34 70  1  0
 34 71  1  0
 34 72  1  0
 35 73  1  0
 35 74  1  0
 35 75  1  0
M  END
>  <i_m_ct_stereo_status>  (160) 
1

>  <s_m_source_file>  (160) 
/var/tmp/pbs.5076255.sched01/tmpxjfjwjbi/40jwkb7fqh.sdf

>  <i_m_source_file_index>  (160) 
40

>  <i_lp_mmshare_version>  (160) 
48012

>  <i_f3d_flags>  (160) 
0

>  <s_epik_input>  (160) 
W0NIMl0xW0NIMl1DKFtDSDNdKT1DKFtDQEBIXShPMilbQ0BASF0oW0NIMl0zKVtPSF0pW0NAQF0xM1tDQEhdKFtPSF0pW0NAQF0oTzQpKFtPSF0pW0NAXTIoW0NIXShbQ0gzXSlbQ0gzXSlbQ0BAXShbQ0gzXSkoT1tDQEBdNDU2KVtDQEhdKEM1PU8pW0NASF03W0NASF0oQzcoW0NIM10pW0NIM10pW0NIMl1bQ0BIXTZbQ0gzXQ==

>  <s_epik_cmdline>  (160) 
J2VwaWtfcHl0aG9uJywgJy1waHQnLCAnMi4wJywgJy1waCcsICc3LjAnLCAnLXRuJywgJzgnLCAnLW1hJywgJzIwMCcsICctaW1hZScsICc8aW5maWxlLm1hZT4nLCAnLW9tYWUnLCAnPG91dGZpbGUubWFlPic=

>  <r_lp_tautomer_probability>  (160) 
1

>  <r_epik_Ionization_Penalty>  (160) 
2.57528e-06

>  <r_epik_Ionization_Penalty_Charging>  (160) 
0

>  <r_epik_Ionization_Penalty_Neutral>  (160) 
2.57528e-06

>  <r_epik_State_Penalty>  (160) 
-0

>  <r_epik_Charging_Adjusted_Penalty>  (160) 
0

>  <i_epik_Tot_Q>  (160) 
0

>  <i_epik_Tot_abs_Q>  (160) 
0

>  <s_lp_Force_Field>  (160) 
OPLS3e

>  <r_lp_Energy>  (160) 
89.9404

>  <b_lp_Chiralities_Consistent>  (160) 
1

>  <s_lp_Variant>  (160) 
56:0-1

>  <s_i_glide_gridfile>  (160) 
pfpi4k_grid

>  <i_i_glide_lignum>  (160) 
40

>  <i_i_glide_rotatable_bonds>  (160) 
4

>  <r_i_docking_score>  (160) 
-2.08548

>  <r_i_glide_ligand_efficiency>  (160) 
-0.059585

>  <r_i_glide_ligand_efficiency_sa>  (160) 
-0.194907

>  <r_i_glide_ligand_efficiency_ln>  (160) 
-0.457808

>  <r_i_glide_gscore>  (160) 
-2.08548

>  <r_i_glide_lipo>  (160) 
-0.0924262

>  <r_i_glide_hbond>  (160) 
0

>  <r_i_glide_metal>  (160) 
-0

>  <r_i_glide_rewards>  (160) 
-0.626339

>  <r_i_glide_evdw>  (160) 
-15.577

>  <r_i_glide_ecoul>  (160) 
-3.88784

>  <r_i_glide_erotb>  (160) 
0

>  <r_i_glide_esite>  (160) 
-0.00468565

>  <r_i_glide_emodel>  (160) 
-27.5615

>  <r_i_glide_energy>  (160) 
-19.4648

>  <r_i_glide_einternal>  (160) 
0.674916

>  <r_i_glide_intrahb_reward>  (160) 
-0.5

>  <i_i_glide_confnum>  (160) 
2

>  <i_i_glide_posenum>  (160) 
31

>  <r_i_glide_eff_state_penalty>  (160) 
0

>  <ligand_id>  (160) 
56

>  <original_smiles>  (160) 
CC1=C2C3OC4(C(C)C)C5(C)OC6(OC4(O)C(O)C2(CC1)CC3O)C(=O)C5C1C(CC6C)C1(C)C

>  <smiles>  (160) 
[H]OC1([H])C2([H])OC3(C([H])(C([H])([H])[H])C([H])([H])[H])C(O[H])(OC45OC3(C([H])([H])[H])C([H])(C4=O)C3([H])C([H])(C([H])([H])C5([H])C([H])([H])[H])C3(C([H])([H])[H])C([H])([H])[H])C([H])(O[H])C3(C2=C(C([H])([H])[H])C([H])([H])C3([H])[H])C1([H])[H]

$$$$
56:0:1
     RDKit          3D

 75 81  0  0  1  0  0  0  0  0999 V2000
   -0.1645   -4.9256    5.4789 C   0  0  0  0  0  0  0  0  0  0  0  0
    1.0253   -5.6940    6.0195 C   0  0  0  0  0  0  0  0  0  0  0  0
    1.4427   -6.9184    5.6983 C   0  0  0  0  0  0  0  0  0  0  0  0
    0.8220   -8.0461    4.9280 C   0  0  1  0  0  0  0  0  0  0  0  0
    1.6721   -8.5764    3.8872 O   0  0  0  0  0  0  0  0  0  0  0  0
    2.8173   -7.9453    3.2632 C   0  0  1  0  0  0  0  0  0  0  0  0
    3.2654   -9.2040    2.3636 C   0  0  0  0  0  0  0  0  0  0  0  0
    3.4831  -10.5308    3.1688 C   0  0  0  0  0  0  0  0  0  0  0  0
    4.4135   -9.0837    1.3038 C   0  0  0  0  0  0  0  0  0  0  0  0
    2.3075   -6.6723    2.3802 C   0  0  1  0  0  0  0  0  0  0  0  0
    0.8360   -6.7631    1.8896 C   0  0  0  0  0  0  0  0  0  0  0  0
    2.4324   -5.5136    3.2061 O   0  0  0  0  0  0  0  0  0  0  0  0
    3.8067   -5.3692    3.3678 C   0  0  1  0  0  0  0  0  0  0  0  0
    4.1464   -6.1235    4.5031 O   0  0  0  0  0  0  0  0  0  0  0  0
    3.9651   -7.5330    4.3806 C   0  0  2  0  0  0  0  0  0  0  0  0
    5.2034   -8.0998    4.0150 O   0  0  0  0  0  0  0  0  0  0  0  0
    3.6934   -8.0933    5.8279 C   0  0  1  0  0  0  0  0  0  0  0  0
    4.8454   -8.1146    6.6570 O   0  0  0  0  0  0  0  0  0  0  0  0
    2.4790   -7.4716    6.5957 C   0  0  1  0  0  0  0  0  0  0  0  0
    2.8247   -6.2684    7.5140 C   0  0  0  0  0  0  0  0  0  0  0  0
    1.7445   -5.1948    7.2467 C   0  0  0  0  0  0  0  0  0  0  0  0
    1.6246   -8.5922    7.2250 C   0  0  0  0  0  0  0  0  0  0  0  0
    0.7641   -9.1409    6.0444 C   0  0  1  0  0  0  0  0  0  0  0  0
   -0.5542   -9.4306    6.4854 O   0  0  0  0  0  0  0  0  0  0  0  0
    4.3906   -5.9234    2.0644 C   0  0  0  0  0  0  0  0  0  0  0  0
    5.5704   -6.1276    1.7875 O   0  0  0  0  0  0  0  0  0  0  0  0
    3.2059   -6.1488    1.2013 C   0  0  2  0  0  0  0  0  0  0  0  0
    2.7264   -4.8158    0.5829 C   0  0  1  0  0  0  0  0  0  0  0  0
    3.0800   -3.4205    1.1108 C   0  0  1  0  0  0  0  0  0  0  0  0
    4.1610   -3.0887    2.1551 C   0  0  0  0  0  0  0  0  0  0  0  0
    4.1769   -3.8664    3.5196 C   0  0  1  0  0  0  0  0  0  0  0  0
    3.3218   -3.2041    4.5927 C   0  0  0  0  0  0  0  0  0  0  0  0
    3.4665   -3.8444   -0.3187 C   0  0  0  0  0  0  0  0  0  0  0  0
    4.9096   -4.0764   -0.7716 C   0  0  0  0  0  0  0  0  0  0  0  0
    2.7025   -3.2196   -1.4708 C   0  0  0  0  0  0  0  0  0  0  0  0
    0.1801   -4.0057    5.0164 H   0  0  0  0  0  0  0  0  0  0  0  0
   -0.8431   -4.6526    6.2855 H   0  0  0  0  0  0  0  0  0  0  0  0
   -0.7089   -5.5059    4.7345 H   0  0  0  0  0  0  0  0  0  0  0  0
   -0.1733   -7.7911    4.5560 H   0  0  0  0  0  0  0  0  0  0  0  0
    2.3802   -9.4175    1.7673 H   0  0  0  0  0  0  0  0  0  0  0  0
    4.3050  -10.4709    3.8775 H   0  0  0  0  0  0  0  0  0  0  0  0
    3.7645  -11.3278    2.4839 H   0  0  0  0  0  0  0  0  0  0  0  0
    2.6052  -10.8817    3.7157 H   0  0  0  0  0  0  0  0  0  0  0  0
    5.3993   -8.9584    1.7734 H   0  0  0  0  0  0  0  0  0  0  0  0
    4.2807   -8.3531    0.5410 H   0  0  0  0  0  0  0  0  0  0  0  0
    4.5108  -10.0378    0.7681 H   0  0  0  0  0  0  0  0  0  0  0  0
    0.7706   -7.0134    0.8287 H   0  0  0  0  0  0  0  0  0  0  0  0
    0.3434   -5.8110    2.0575 H   0  0  0  0  0  0  0  0  0  0  0  0
    0.2368   -7.5040    2.4026 H   0  0  0  0  0  0  0  0  0  0  0  0
    5.0759   -9.0321    3.9340 H   0  0  0  0  0  0  0  0  0  0  0  0
    3.4749   -9.1502    5.6748 H   0  0  0  0  0  0  0  0  0  0  0  0
    4.6589   -8.6294    7.4226 H   0  0  0  0  0  0  0  0  0  0  0  0
    2.9044   -6.5468    8.5621 H   0  0  0  0  0  0  0  0  0  0  0  0
    3.7830   -5.8434    7.2165 H   0  0  0  0  0  0  0  0  0  0  0  0
    2.1451   -4.1941    7.1123 H   0  0  0  0  0  0  0  0  0  0  0  0
    1.0437   -5.1592    8.0807 H   0  0  0  0  0  0  0  0  0  0  0  0
    2.2161   -9.3644    7.7119 H   0  0  0  0  0  0  0  0  0  0  0  0
    0.9793   -8.1677    7.9929 H   0  0  0  0  0  0  0  0  0  0  0  0
    1.1902  -10.0880    5.7008 H   0  0  0  0  0  0  0  0  0  0  0  0
   -0.9849  -10.0156    5.8670 H   0  0  0  0  0  0  0  0  0  0  0  0
    3.3304   -6.8118    0.3620 H   0  0  0  0  0  0  0  0  0  0  0  0
    1.7167   -4.9379    0.2132 H   0  0  0  0  0  0  0  0  0  0  0  0
    2.2184   -2.7662    1.1881 H   0  0  0  0  0  0  0  0  0  0  0  0
    5.1444   -3.1850    1.6894 H   0  0  0  0  0  0  0  0  0  0  0  0
    4.0701   -2.0207    2.3509 H   0  0  0  0  0  0  0  0  0  0  0  0
    5.2098   -3.8358    3.8726 H   0  0  0  0  0  0  0  0  0  0  0  0
    2.2606   -3.2401    4.3425 H   0  0  0  0  0  0  0  0  0  0  0  0
    3.6071   -2.1592    4.7240 H   0  0  0  0  0  0  0  0  0  0  0  0
    3.4870   -3.7119    5.5399 H   0  0  0  0  0  0  0  0  0  0  0  0
    5.3569   -3.1266   -1.0630 H   0  0  0  0  0  0  0  0  0  0  0  0
    4.9436   -4.7522   -1.6258 H   0  0  0  0  0  0  0  0  0  0  0  0
    5.5249   -4.4978    0.0055 H   0  0  0  0  0  0  0  0  0  0  0  0
    3.1212   -2.2497   -1.7311 H   0  0  0  0  0  0  0  0  0  0  0  0
    1.6592   -3.0712   -1.1979 H   0  0  0  0  0  0  0  0  0  0  0  0
    2.7219   -3.8542   -2.3609 H   0  0  0  0  0  0  0  0  0  0  0  0
  1  2  1  0
  1 36  1  0
  1 37  1  0
  1 38  1  0
  2 21  1  0
  2  3  2  0
  3 19  1  0
  3  4  1  0
  4 23  1  0
  4  5  1  0
  4 39  1  6
  5  6  1  0
  6 15  1  0
  6  7  1  6
  6 10  1  0
  7  8  1  0
  7  9  1  0
  7 40  1  0
  8 41  1  0
  8 42  1  0
  8 43  1  0
  9 44  1  0
  9 45  1  0
  9 46  1  0
 10 27  1  0
 10 11  1  6
 10 12  1  0
 11 47  1  0
 11 48  1  0
 11 49  1  0
 12 13  1  0
 13 31  1  0
 13 14  1  1
 13 25  1  0
 14 15  1  0
 15 16  1  6
 15 17  1  0
 16 50  1  0
 17 18  1  0
 17 19  1  0
 17 51  1  6
 18 52  1  0
 19 20  1  1
 19 22  1  0
 20 21  1  0
 20 53  1  0
 20 54  1  0
 21 55  1  0
 21 56  1  0
 22 23  1  0
 22 57  1  0
 22 58  1  0
 23 24  1  0
 23 59  1  6
 24 60  1  0
 25 26  2  0
 25 27  1  0
 27 28  1  0
 27 61  1  6
 28 33  1  0
 28 29  1  0
 28 62  1  6
 29 30  1  0
 29 33  1  0
 29 63  1  6
 30 31  1  0
 30 64  1  0
 30 65  1  0
 31 32  1  0
 31 66  1  1
 32 67  1  0
 32 68  1  0
 32 69  1  0
 33 34  1  0
 33 35  1  0
 34 70  1  0
 34 71  1  0
 34 72  1  0
 35 73  1  0
 35 74  1  0
 35 75  1  0
M  END
>  <i_m_ct_stereo_status>  (161) 
1

>  <s_m_source_file>  (161) 
/var/tmp/pbs.5076255.sched01/tmpxjfjwjbi/40jwkb7fqh.sdf

>  <i_m_source_file_index>  (161) 
40

>  <i_lp_mmshare_version>  (161) 
48012

>  <i_f3d_flags>  (161) 
0

>  <s_epik_input>  (161) 
W0NIMl0xW0NIMl1DKFtDSDNdKT1DKFtDQEBIXShPMilbQ0BASF0oW0NIMl0zKVtPSF0pW0NAQF0xM1tDQEhdKFtPSF0pW0NAQF0oTzQpKFtPSF0pW0NAXTIoW0NIXShbQ0gzXSlbQ0gzXSlbQ0BAXShbQ0gzXSkoT1tDQEBdNDU2KVtDQEhdKEM1PU8pW0NASF03W0NASF0oQzcoW0NIM10pW0NIM10pW0NIMl1bQ0BIXTZbQ0gzXQ==

>  <s_epik_cmdline>  (161) 
J2VwaWtfcHl0aG9uJywgJy1waHQnLCAnMi4wJywgJy1waCcsICc3LjAnLCAnLXRuJywgJzgnLCAnLW1hJywgJzIwMCcsICctaW1hZScsICc8aW5maWxlLm1hZT4nLCAnLW9tYWUnLCAnPG91dGZpbGUubWFlPic=

>  <r_lp_tautomer_probability>  (161) 
1

>  <r_epik_Ionization_Penalty>  (161) 
2.57528e-06

>  <r_epik_Ionization_Penalty_Charging>  (161) 
0

>  <r_epik_Ionization_Penalty_Neutral>  (161) 
2.57528e-06

>  <r_epik_State_Penalty>  (161) 
-0

>  <r_epik_Charging_Adjusted_Penalty>  (161) 
0

>  <i_epik_Tot_Q>  (161) 
0

>  <i_epik_Tot_abs_Q>  (161) 
0

>  <s_lp_Force_Field>  (161) 
OPLS3e

>  <r_lp_Energy>  (161) 
89.9404

>  <b_lp_Chiralities_Consistent>  (161) 
1

>  <s_lp_Variant>  (161) 
56:0-1

>  <s_i_glide_gridfile>  (161) 
pfpi4k_grid

>  <i_i_glide_lignum>  (161) 
40

>  <i_i_glide_rotatable_bonds>  (161) 
4

>  <r_i_docking_score>  (161) 
-1.99208

>  <r_i_glide_ligand_efficiency>  (161) 
-0.0569165

>  <r_i_glide_ligand_efficiency_sa>  (161) 
-0.186178

>  <r_i_glide_ligand_efficiency_ln>  (161) 
-0.437305

>  <r_i_glide_gscore>  (161) 
-1.99208

>  <r_i_glide_lipo>  (161) 
-0.122074

>  <r_i_glide_hbond>  (161) 
-0.16

>  <r_i_glide_metal>  (161) 
-0

>  <r_i_glide_rewards>  (161) 
-0.100668

>  <r_i_glide_evdw>  (161) 
-19.6998

>  <r_i_glide_ecoul>  (161) 
-4.16231

>  <r_i_glide_erotb>  (161) 
0

>  <r_i_glide_esite>  (161) 
-3.92799e-09

>  <r_i_glide_emodel>  (161) 
-19.6671

>  <r_i_glide_energy>  (161) 
-23.8621

>  <r_i_glide_einternal>  (161) 
13.3561

>  <r_i_glide_intrahb_reward>  (161) 
-0

>  <i_i_glide_confnum>  (161) 
1

>  <i_i_glide_posenum>  (161) 
25

>  <r_i_glide_eff_state_penalty>  (161) 
0

>  <ligand_id>  (161) 
56

>  <original_smiles>  (161) 
CC1=C2C3OC4(C(C)C)C5(C)OC6(OC4(O)C(O)C2(CC1)CC3O)C(=O)C5C1C(CC6C)C1(C)C

>  <smiles>  (161) 
[H]OC1([H])C2([H])OC3(C([H])(C([H])([H])[H])C([H])([H])[H])C(O[H])(OC45OC3(C([H])([H])[H])C([H])(C4=O)C3([H])C([H])(C([H])([H])C5([H])C([H])([H])[H])C3(C([H])([H])[H])C([H])([H])[H])C([H])(O[H])C3(C2=C(C([H])([H])[H])C([H])([H])C3([H])[H])C1([H])[H]

$$$$
56:0:2
     RDKit          3D

 75 81  0  0  1  0  0  0  0  0999 V2000
    4.1155    5.4838    8.6525 C   0  0  0  0  0  0  0  0  0  0  0  0
    5.1290    4.5503    8.0243 C   0  0  0  0  0  0  0  0  0  0  0  0
    5.2562    3.2264    8.1677 C   0  0  0  0  0  0  0  0  0  0  0  0
    4.6837    2.2690    9.1530 C   0  0  1  0  0  0  0  0  0  0  0  0
    4.0850    1.1118    8.5607 O   0  0  0  0  0  0  0  0  0  0  0  0
    3.6065    0.9853    7.1989 C   0  0  1  0  0  0  0  0  0  0  0  0
    3.1991   -0.5518    7.2576 C   0  0  0  0  0  0  0  0  0  0  0  0
    1.9837   -0.8431    8.1623 C   0  0  0  0  0  0  0  0  0  0  0  0
    4.3259   -1.5160    7.7326 C   0  0  0  0  0  0  0  0  0  0  0  0
    2.3280    1.9427    6.9188 C   0  0  1  0  0  0  0  0  0  0  0  0
    1.5155    2.3041    8.1868 C   0  0  0  0  0  0  0  0  0  0  0  0
    2.8182    3.1536    6.3662 O   0  0  0  0  0  0  0  0  0  0  0  0
    3.2913    2.7946    5.1059 C   0  0  1  0  0  0  0  0  0  0  0  0
    4.6178    2.3911    5.2921 O   0  0  0  0  0  0  0  0  0  0  0  0
    4.8171    1.2269    6.0913 C   0  0  2  0  0  0  0  0  0  0  0  0
    4.9158    0.1081    5.2151 O   0  0  0  0  0  0  0  0  0  0  0  0
    6.2489    1.3753    6.7459 C   0  0  1  0  0  0  0  0  0  0  0  0
    7.3243    1.2049    5.8324 O   0  0  0  0  0  0  0  0  0  0  0  0
    6.4985    2.6601    7.6055 C   0  0  1  0  0  0  0  0  0  0  0  0
    7.1304    3.8741    6.8607 C   0  0  0  0  0  0  0  0  0  0  0  0
    6.3236    5.1193    7.2964 C   0  0  0  0  0  0  0  0  0  0  0  0
    7.1631    2.2728    8.9415 C   0  0  0  0  0  0  0  0  0  0  0  0
    5.9931    1.7554    9.8215 C   0  0  1  0  0  0  0  0  0  0  0  0
    6.1467    2.1798   11.1631 O   0  0  0  0  0  0  0  0  0  0  0  0
    2.4032    1.6320    4.6818 C   0  0  0  0  0  0  0  0  0  0  0  0
    2.5789    0.8253    3.7693 O   0  0  0  0  0  0  0  0  0  0  0  0
    1.3631    1.5672    5.7304 C   0  0  2  0  0  0  0  0  0  0  0  0
    0.2803    2.6590    5.4871 C   0  0  1  0  0  0  0  0  0  0  0  0
    0.5123    3.9082    4.6141 C   0  0  1  0  0  0  0  0  0  0  0  0
    1.6601    4.1663    3.6149 C   0  0  0  0  0  0  0  0  0  0  0  0
    3.1338    3.9871    4.1168 C   0  0  1  0  0  0  0  0  0  0  0  0
    3.7468    5.2663    4.6866 C   0  0  0  0  0  0  0  0  0  0  0  0
   -0.6087    2.9226    4.2778 C   0  0  0  0  0  0  0  0  0  0  0  0
   -0.6011    2.0253    3.0486 C   0  0  0  0  0  0  0  0  0  0  0  0
   -2.0347    3.3774    4.5305 C   0  0  0  0  0  0  0  0  0  0  0  0
    3.5354    5.9721    7.8685 H   0  0  0  0  0  0  0  0  0  0  0  0
    4.6315    6.2572    9.2221 H   0  0  0  0  0  0  0  0  0  0  0  0
    3.4279    4.9567    9.3167 H   0  0  0  0  0  0  0  0  0  0  0  0
    4.0158    2.7620    9.8571 H   0  0  0  0  0  0  0  0  0  0  0  0
    2.8969   -0.8785    6.2634 H   0  0  0  0  0  0  0  0  0  0  0  0
    2.1498   -0.4812    9.1784 H   0  0  0  0  0  0  0  0  0  0  0  0
    1.7977   -1.9159    8.2316 H   0  0  0  0  0  0  0  0  0  0  0  0
    1.0667   -0.3996    7.7819 H   0  0  0  0  0  0  0  0  0  0  0  0
    4.6283   -1.3191    8.7619 H   0  0  0  0  0  0  0  0  0  0  0  0
    5.2209   -1.4813    7.1131 H   0  0  0  0  0  0  0  0  0  0  0  0
    3.9832   -2.5531    7.7006 H   0  0  0  0  0  0  0  0  0  0  0  0
    0.5731    1.7576    8.2350 H   0  0  0  0  0  0  0  0  0  0  0  0
    1.2762    3.3684    8.1949 H   0  0  0  0  0  0  0  0  0  0  0  0
    2.0284    2.0928    9.1191 H   0  0  0  0  0  0  0  0  0  0  0  0
    4.1020    0.0141    4.7427 H   0  0  0  0  0  0  0  0  0  0  0  0
    6.3486    0.5037    7.3938 H   0  0  0  0  0  0  0  0  0  0  0  0
    7.3266    1.9471    5.2517 H   0  0  0  0  0  0  0  0  0  0  0  0
    8.2017    3.9692    7.0476 H   0  0  0  0  0  0  0  0  0  0  0  0
    7.0059    3.7715    5.7844 H   0  0  0  0  0  0  0  0  0  0  0  0
    6.0450    5.7725    6.4735 H   0  0  0  0  0  0  0  0  0  0  0  0
    6.9047    5.7124    8.0018 H   0  0  0  0  0  0  0  0  0  0  0  0
    7.9689    1.5488    8.8231 H   0  0  0  0  0  0  0  0  0  0  0  0
    7.6020    3.1564    9.4005 H   0  0  0  0  0  0  0  0  0  0  0  0
    6.0114    0.6674    9.8343 H   0  0  0  0  0  0  0  0  0  0  0  0
    5.8304    3.0652   11.2344 H   0  0  0  0  0  0  0  0  0  0  0  0
    0.9144    0.5773    5.7957 H   0  0  0  0  0  0  0  0  0  0  0  0
   -0.2596    2.8622    6.4095 H   0  0  0  0  0  0  0  0  0  0  0  0
    0.2062    4.8368    5.0932 H   0  0  0  0  0  0  0  0  0  0  0  0
    1.5249    3.5462    2.7316 H   0  0  0  0  0  0  0  0  0  0  0  0
    1.5356    5.1790    3.2323 H   0  0  0  0  0  0  0  0  0  0  0  0
    3.7293    3.7405    3.2375 H   0  0  0  0  0  0  0  0  0  0  0  0
    3.2521    5.5744    5.6066 H   0  0  0  0  0  0  0  0  0  0  0  0
    3.6761    6.0867    3.9735 H   0  0  0  0  0  0  0  0  0  0  0  0
    4.8018    5.1054    4.8859 H   0  0  0  0  0  0  0  0  0  0  0  0
   -1.0058    2.5652    2.1909 H   0  0  0  0  0  0  0  0  0  0  0  0
   -1.2196    1.1423    3.2247 H   0  0  0  0  0  0  0  0  0  0  0  0
    0.4018    1.6935    2.7892 H   0  0  0  0  0  0  0  0  0  0  0  0
   -2.4149    3.9360    3.6765 H   0  0  0  0  0  0  0  0  0  0  0  0
   -2.0834    4.0157    5.4132 H   0  0  0  0  0  0  0  0  0  0  0  0
   -2.6819    2.5176    4.6951 H   0  0  0  0  0  0  0  0  0  0  0  0
  1  2  1  0
  1 36  1  0
  1 37  1  0
  1 38  1  0
  2 21  1  0
  2  3  2  0
  3 19  1  0
  3  4  1  0
  4 23  1  0
  4  5  1  0
  4 39  1  1
  5  6  1  0
  6 15  1  0
  6  7  1  1
  6 10  1  0
  7  8  1  0
  7  9  1  0
  7 40  1  0
  8 41  1  0
  8 42  1  0
  8 43  1  0
  9 44  1  0
  9 45  1  0
  9 46  1  0
 10 27  1  0
 10 11  1  1
 10 12  1  0
 11 47  1  0
 11 48  1  0
 11 49  1  0
 12 13  1  0
 13 31  1  0
 13 14  1  1
 13 25  1  0
 14 15  1  0
 15 16  1  6
 15 17  1  0
 16 50  1  0
 17 18  1  0
 17 19  1  0
 17 51  1  1
 18 52  1  0
 19 20  1  6
 19 22  1  0
 20 21  1  0
 20 53  1  0
 20 54  1  0
 21 55  1  0
 21 56  1  0
 22 23  1  0
 22 57  1  0
 22 58  1  0
 23 24  1  0
 23 59  1  1
 24 60  1  0
 25 26  2  0
 25 27  1  0
 27 28  1  0
 27 61  1  1
 28 33  1  0
 28 29  1  0
 28 62  1  1
 29 30  1  0
 29 33  1  0
 29 63  1  1
 30 31  1  0
 30 64  1  0
 30 65  1  0
 31 32  1  0
 31 66  1  6
 32 67  1  0
 32 68  1  0
 32 69  1  0
 33 34  1  0
 33 35  1  0
 34 70  1  0
 34 71  1  0
 34 72  1  0
 35 73  1  0
 35 74  1  0
 35 75  1  0
M  END
>  <i_m_ct_stereo_status>  (162) 
1

>  <s_m_source_file>  (162) 
/var/tmp/pbs.5076255.sched01/tmpxjfjwjbi/40jwkb7fqh.sdf

>  <i_m_source_file_index>  (162) 
40

>  <i_lp_mmshare_version>  (162) 
48012

>  <i_f3d_flags>  (162) 
0

>  <s_epik_input>  (162) 
W0NIMl0xW0NIMl1DKFtDSDNdKT1DKFtDQEBIXShPMilbQ0BASF0oW0NIMl0zKVtPSF0pW0NAQF0xM1tDQEhdKFtPSF0pW0NAQF0oTzQpKFtPSF0pW0NAXTIoW0NIXShbQ0gzXSlbQ0gzXSlbQ0BAXShbQ0gzXSkoT1tDQEBdNDU2KVtDQEhdKEM1PU8pW0NASF03W0NASF0oQzcoW0NIM10pW0NIM10pW0NIMl1bQ0BIXTZbQ0gzXQ==

>  <s_epik_cmdline>  (162) 
J2VwaWtfcHl0aG9uJywgJy1waHQnLCAnMi4wJywgJy1waCcsICc3LjAnLCAnLXRuJywgJzgnLCAnLW1hJywgJzIwMCcsICctaW1hZScsICc8aW5maWxlLm1hZT4nLCAnLW9tYWUnLCAnPG91dGZpbGUubWFlPic=

>  <r_lp_tautomer_probability>  (162) 
1

>  <r_epik_Ionization_Penalty>  (162) 
2.57528e-06

>  <r_epik_Ionization_Penalty_Charging>  (162) 
0

>  <r_epik_Ionization_Penalty_Neutral>  (162) 
2.57528e-06

>  <r_epik_State_Penalty>  (162) 
-0

>  <r_epik_Charging_Adjusted_Penalty>  (162) 
0

>  <i_epik_Tot_Q>  (162) 
0

>  <i_epik_Tot_abs_Q>  (162) 
0

>  <s_lp_Force_Field>  (162) 
OPLS3e

>  <r_lp_Energy>  (162) 
89.9404

>  <b_lp_Chiralities_Consistent>  (162) 
1

>  <s_lp_Variant>  (162) 
56:0-1

>  <s_i_glide_gridfile>  (162) 
pfpi4k_grid

>  <i_i_glide_lignum>  (162) 
40

>  <i_i_glide_rotatable_bonds>  (162) 
4

>  <r_i_docking_score>  (162) 
-1.7979

>  <r_i_glide_ligand_efficiency>  (162) 
-0.0513686

>  <r_i_glide_ligand_efficiency_sa>  (162) 
-0.16803

>  <r_i_glide_ligand_efficiency_ln>  (162) 
-0.394679

>  <r_i_glide_gscore>  (162) 
-1.7979

>  <r_i_glide_lipo>  (162) 
-0.0850611

>  <r_i_glide_hbond>  (162) 
0

>  <r_i_glide_metal>  (162) 
-0

>  <r_i_glide_rewards>  (162) 
-0.585801

>  <r_i_glide_evdw>  (162) 
-16.0797

>  <r_i_glide_ecoul>  (162) 
-2.12317

>  <r_i_glide_erotb>  (162) 
0

>  <r_i_glide_esite>  (162) 
-0.00457534

>  <r_i_glide_emodel>  (162) 
-25.7711

>  <r_i_glide_energy>  (162) 
-18.2029

>  <r_i_glide_einternal>  (162) 
0.331582

>  <r_i_glide_intrahb_reward>  (162) 
-0.5

>  <i_i_glide_confnum>  (162) 
2

>  <i_i_glide_posenum>  (162) 
10

>  <r_i_glide_eff_state_penalty>  (162) 
0

>  <ligand_id>  (162) 
56

>  <original_smiles>  (162) 
CC1=C2C3OC4(C(C)C)C5(C)OC6(OC4(O)C(O)C2(CC1)CC3O)C(=O)C5C1C(CC6C)C1(C)C

>  <smiles>  (162) 
[H]OC1([H])C2([H])OC3(C([H])(C([H])([H])[H])C([H])([H])[H])C(O[H])(OC45OC3(C([H])([H])[H])C([H])(C4=O)C3([H])C([H])(C([H])([H])C5([H])C([H])([H])[H])C3(C([H])([H])[H])C([H])([H])[H])C([H])(O[H])C3(C2=C(C([H])([H])[H])C([H])([H])C3([H])[H])C1([H])[H]

$$$$
58:0:0
     RDKit          3D

 33 35  0  0  1  0  0  0  0  0999 V2000
   -8.4533  -10.2313  -10.6687 C   0  0  0  0  0  0  0  0  0  0  0  0
   -8.0088   -9.3388   -9.5450 C   0  0  0  0  0  0  0  0  0  0  0  0
   -7.1790   -9.7354   -8.6731 N   0  0  0  0  0  0  0  0  0  0  0  0
   -6.9523   -8.8836   -7.6218 C   0  0  0  0  0  0  0  0  0  0  0  0
   -6.0062   -9.0931   -6.6884 C   0  0  0  0  0  0  0  0  0  0  0  0
   -6.1290   -7.9829   -5.7997 C   0  0  0  0  0  0  0  0  0  0  0  0
   -7.1910   -7.2152   -6.1937 C   0  0  0  0  0  0  0  0  0  0  0  0
   -7.7032   -7.7616   -7.3410 N   0  0  0  0  0  0  0  0  0  0  0  0
   -8.8253   -7.3724   -8.1762 C   0  0  0  0  0  0  0  0  0  0  0  0
   -8.5537   -7.9102   -9.5883 C   0  0  0  0  0  0  0  0  0  0  0  0
   -7.7061   -5.9893   -5.5250 C   0  0  0  0  0  0  0  0  0  0  0  0
   -6.7237   -5.4874   -4.5256 N   0  0  2  0  0  0  0  0  0  0  0  0
   -5.7164   -4.5773   -5.0977 C   0  0  0  0  0  0  0  0  0  0  0  0
   -6.0891   -6.6066   -3.8009 C   0  0  0  0  0  0  0  0  0  0  0  0
   -5.2674   -7.5945   -4.6331 C   0  0  0  0  0  0  0  0  0  0  0  0
   -9.5374  -10.2976  -10.7844 H   0  0  0  0  0  0  0  0  0  0  0  0
   -7.9648  -11.2055  -10.6314 H   0  0  0  0  0  0  0  0  0  0  0  0
   -8.1231   -9.7659  -11.5655 H   0  0  0  0  0  0  0  0  0  0  0  0
   -5.3055   -9.9056   -6.6874 H   0  0  0  0  0  0  0  0  0  0  0  0
   -9.7234   -7.8636   -7.8085 H   0  0  0  0  0  0  0  0  0  0  0  0
   -8.9642   -6.2906   -8.1567 H   0  0  0  0  0  0  0  0  0  0  0  0
   -7.7711   -7.3044  -10.0375 H   0  0  0  0  0  0  0  0  0  0  0  0
   -9.4171   -7.8332  -10.2452 H   0  0  0  0  0  0  0  0  0  0  0  0
   -7.9853   -5.2214   -6.2457 H   0  0  0  0  0  0  0  0  0  0  0  0
   -8.5666   -6.2616   -4.9178 H   0  0  0  0  0  0  0  0  0  0  0  0
   -5.2021   -5.1555   -5.8508 H   0  0  0  0  0  0  0  0  0  0  0  0
   -4.9883   -4.2505   -4.3441 H   0  0  0  0  0  0  0  0  0  0  0  0
   -6.2250   -3.7296   -5.5514 H   0  0  0  0  0  0  0  0  0  0  0  0
   -5.6595   -6.2244   -2.9072 H   0  0  0  0  0  0  0  0  0  0  0  0
   -6.8653   -7.2316   -3.4511 H   0  0  0  0  0  0  0  0  0  0  0  0
   -4.9772   -8.4754   -4.0554 H   0  0  0  0  0  0  0  0  0  0  0  0
   -4.3425   -7.1534   -5.0052 H   0  0  0  0  0  0  0  0  0  0  0  0
   -7.2436   -4.9751   -3.8507 H   0  0  0  0  0  0  0  0  0  0  0  0
  1  2  1  0
  1 16  1  0
  1 17  1  0
  1 18  1  0
  2 10  1  0
  2  3  2  0
  3  4  1  0
  4  8  1  0
  4  5  2  0
  5  6  1  0
  5 19  1  0
  6 15  1  0
  6  7  2  0
  7  8  1  0
  7 11  1  0
  8  9  1  0
  9 10  1  0
  9 20  1  0
  9 21  1  0
 10 22  1  0
 10 23  1  0
 11 12  1  0
 11 24  1  0
 11 25  1  0
 12 13  1  0
 12 14  1  0
 12 33  1  1
 13 26  1  0
 13 27  1  0
 13 28  1  0
 14 15  1  0
 14 29  1  0
 14 30  1  0
 15 31  1  0
 15 32  1  0
M  CHG  1  12   1
M  END
>  <i_m_ct_stereo_status>  (163) 
1

>  <s_m_source_file>  (163) 
/var/tmp/pbs.5076255.sched01/tmp403565pz/80s7duc8s0.sdf

>  <i_m_source_file_index>  (163) 
2

>  <i_lp_mmshare_version>  (163) 
48012

>  <i_f3d_flags>  (163) 
0

>  <s_epik_input>  (163) 
W0NIM11DKD1OMSlbQ0gyXVtDSDJdbihjMTIpYzNjKFtjSF0yKVtDSDJdW0NIMl1OKFtDSDJdMylbQ0gzXQ==

>  <s_epik_cmdline>  (163) 
J2VwaWtfcHl0aG9uJywgJy1waHQnLCAnMi4wJywgJy1waCcsICc3LjAnLCAnLXRuJywgJzgnLCAnLW1hJywgJzIwMCcsICctaW1hZScsICc8aW5maWxlLm1hZT4nLCAnLW9tYWUnLCAnPG91dGZpbGUubWFlPic=

>  <r_lp_tautomer_probability>  (163) 
0.999601

>  <r_epik_Ionization_Penalty>  (163) 
0.0661152

>  <r_epik_Ionization_Penalty_Charging>  (163) 
0.0659427

>  <r_epik_Ionization_Penalty_Neutral>  (163) 
0.000172511

>  <r_epik_State_Penalty>  (163) 
0.0575405

>  <r_epik_Charging_Adjusted_Penalty>  (163) 
0.123483

>  <i_epik_Tot_Q>  (163) 
1

>  <i_epik_Tot_abs_Q>  (163) 
1

>  <s_epik_Chemistry_Notes>  (163) 
This compound has an imine and may undergo hydrolysis.

>  <s_lp_Force_Field>  (163) 
OPLS3e

>  <r_lp_Energy>  (163) 
20.9229

>  <b_lp_Chiralities_Consistent>  (163) 
1

>  <s_lp_Variant>  (163) 
58:0-1

>  <s_i_glide_gridfile>  (163) 
pfpi4k_grid

>  <i_i_glide_lignum>  (163) 
2

>  <i_i_glide_rotatable_bonds>  (163) 
0

>  <r_i_docking_score>  (163) 
-4.59133

>  <r_i_glide_ligand_efficiency>  (163) 
-0.306089

>  <r_i_glide_ligand_efficiency_sa>  (163) 
-0.75488

>  <r_i_glide_ligand_efficiency_ln>  (163) 
-1.23821

>  <r_i_glide_gscore>  (163) 
-4.59133

>  <r_i_glide_lipo>  (163) 
-2.17814

>  <r_i_glide_hbond>  (163) 
0

>  <r_i_glide_metal>  (163) 
-0

>  <r_i_glide_rewards>  (163) 
-1.82295

>  <r_i_glide_evdw>  (163) 
-8.63989

>  <r_i_glide_ecoul>  (163) 
-1.05499

>  <r_i_glide_erotb>  (163) 
0

>  <r_i_glide_esite>  (163) 
0

>  <r_i_glide_emodel>  (163) 
-11.4311

>  <r_i_glide_energy>  (163) 
-9.69488

>  <r_i_glide_einternal>  (163) 
0

>  <r_i_glide_intrahb_reward>  (163) 
-0

>  <i_i_glide_confnum>  (163) 
1

>  <i_i_glide_posenum>  (163) 
38

>  <r_i_glide_eff_state_penalty>  (163) 
0

>  <ligand_id>  (163) 
58

>  <original_smiles>  (163) 
CC1=Nc2cc3c(n2CC1)CN(C)CC3

>  <smiles>  (163) 
[H]c1c2c(n3c1N=C(C([H])([H])[H])C([H])([H])C3([H])[H])C([H])([H])[N+]([H])(C([H])([H])[H])C([H])([H])C2([H])[H]

$$$$
58:1:0
     RDKit          3D

 32 34  0  0  1  0  0  0  0  0999 V2000
    5.0169   -2.0147    4.4711 C   0  0  0  0  0  0  0  0  0  0  0  0
    4.9487   -1.9552    2.9587 C   0  0  0  0  0  0  0  0  0  0  0  0
    5.1668   -2.9860    2.2365 N   0  0  0  0  0  0  0  0  0  0  0  0
    4.9979   -2.8637    0.8711 C   0  0  0  0  0  0  0  0  0  0  0  0
    5.4099   -3.7566   -0.0762 C   0  0  0  0  0  0  0  0  0  0  0  0
    4.9950   -3.2256   -1.3352 C   0  0  0  0  0  0  0  0  0  0  0  0
    4.3358   -2.0516   -1.0979 C   0  0  0  0  0  0  0  0  0  0  0  0
    4.3524   -1.8053    0.2622 N   0  0  0  0  0  0  0  0  0  0  0  0
    3.7882   -0.7253    1.0502 C   0  0  0  0  0  0  0  0  0  0  0  0
    4.6208   -0.5846    2.3458 C   0  0  0  0  0  0  0  0  0  0  0  0
    3.6866   -1.2246   -2.1514 C   0  0  0  0  0  0  0  0  0  0  0  0
    4.2209   -1.5544   -3.4793 N   0  0  0  0  0  0  0  0  0  0  0  0
    3.4808   -0.8346   -4.5038 C   0  0  0  0  0  0  0  0  0  0  0  0
    4.1776   -3.0077   -3.6999 C   0  0  0  0  0  0  0  0  0  0  0  0
    5.1598   -3.7330   -2.7426 C   0  0  0  0  0  0  0  0  0  0  0  0
    4.0697   -1.7102    4.9179 H   0  0  0  0  0  0  0  0  0  0  0  0
    5.8028   -1.3607    4.8453 H   0  0  0  0  0  0  0  0  0  0  0  0
    5.2337   -3.0316    4.8044 H   0  0  0  0  0  0  0  0  0  0  0  0
    5.9357   -4.6788    0.1162 H   0  0  0  0  0  0  0  0  0  0  0  0
    3.7698    0.2056    0.4823 H   0  0  0  0  0  0  0  0  0  0  0  0
    2.7618   -0.9907    1.3053 H   0  0  0  0  0  0  0  0  0  0  0  0
    4.1343    0.0666    3.0737 H   0  0  0  0  0  0  0  0  0  0  0  0
    5.5768   -0.1185    2.0985 H   0  0  0  0  0  0  0  0  0  0  0  0
    2.6103   -1.3798   -2.1227 H   0  0  0  0  0  0  0  0  0  0  0  0
    3.8885   -0.1756   -1.9614 H   0  0  0  0  0  0  0  0  0  0  0  0
    3.8898   -1.0419   -5.4941 H   0  0  0  0  0  0  0  0  0  0  0  0
    3.5475    0.2435   -4.3419 H   0  0  0  0  0  0  0  0  0  0  0  0
    2.4261   -1.1163   -4.5052 H   0  0  0  0  0  0  0  0  0  0  0  0
    3.1611   -3.3667   -3.5376 H   0  0  0  0  0  0  0  0  0  0  0  0
    4.4518   -3.2535   -4.7210 H   0  0  0  0  0  0  0  0  0  0  0  0
    6.1877   -3.5453   -3.0536 H   0  0  0  0  0  0  0  0  0  0  0  0
    5.0036   -4.8103   -2.7598 H   0  0  0  0  0  0  0  0  0  0  0  0
  1  2  1  0
  1 16  1  0
  1 17  1  0
  1 18  1  0
  2 10  1  0
  2  3  2  0
  3  4  1  0
  4  8  1  0
  4  5  2  0
  5  6  1  0
  5 19  1  0
  6 15  1  0
  6  7  2  0
  7  8  1  0
  7 11  1  0
  8  9  1  0
  9 10  1  0
  9 20  1  0
  9 21  1  0
 10 22  1  0
 10 23  1  0
 11 12  1  0
 11 24  1  0
 11 25  1  0
 12 13  1  0
 12 14  1  0
 13 26  1  0
 13 27  1  0
 13 28  1  0
 14 15  1  0
 14 29  1  0
 14 30  1  0
 15 31  1  0
 15 32  1  0
M  END
>  <i_m_ct_stereo_status>  (164) 
1

>  <s_m_source_file>  (164) 
/var/tmp/pbs.5076255.sched01/tmp403565pz/80s7duc8s0.sdf

>  <i_m_source_file_index>  (164) 
3

>  <i_lp_mmshare_version>  (164) 
48012

>  <i_f3d_flags>  (164) 
0

>  <s_epik_input>  (164) 
W0NIM11DKD1OMSlbQ0gyXVtDSDJdbihjMTIpYzNjKFtjSF0yKVtDSDJdW0NIMl1OKFtDSDJdMylbQ0gzXQ==

>  <s_epik_cmdline>  (164) 
J2VwaWtfcHl0aG9uJywgJy1waHQnLCAnMi4wJywgJy1waCcsICc3LjAnLCAnLXRuJywgJzgnLCAnLW1hJywgJzIwMCcsICctaW1hZScsICc8aW5maWxlLm1hZT4nLCAnLW9tYWUnLCAnPG91dGZpbGUubWFlPic=

>  <r_lp_tautomer_probability>  (164) 
0.999601

>  <r_epik_Ionization_Penalty>  (164) 
1.33402

>  <r_epik_Ionization_Penalty_Charging>  (164) 
0

>  <r_epik_Ionization_Penalty_Neutral>  (164) 
1.33402

>  <r_epik_State_Penalty>  (164) 
1.41012

>  <r_epik_Charging_Adjusted_Penalty>  (164) 
1.41012

>  <i_epik_Tot_Q>  (164) 
0

>  <i_epik_Tot_abs_Q>  (164) 
0

>  <s_epik_Chemistry_Notes>  (164) 
This compound has an imine and may undergo hydrolysis.

>  <s_lp_Force_Field>  (164) 
OPLS3e

>  <r_lp_Energy>  (164) 
16.7553

>  <b_lp_Chiralities_Consistent>  (164) 
1

>  <s_lp_Variant>  (164) 
58:0-2

>  <s_i_glide_gridfile>  (164) 
pfpi4k_grid

>  <i_i_glide_lignum>  (164) 
3

>  <i_i_glide_rotatable_bonds>  (164) 
0

>  <r_i_docking_score>  (164) 
-3.96362

>  <r_i_glide_ligand_efficiency>  (164) 
-0.264241

>  <r_i_glide_ligand_efficiency_sa>  (164) 
-0.651675

>  <r_i_glide_ligand_efficiency_ln>  (164) 
-1.06892

>  <r_i_glide_gscore>  (164) 
-3.96362

>  <r_i_glide_lipo>  (164) 
-0.62901

>  <r_i_glide_hbond>  (164) 
0

>  <r_i_glide_metal>  (164) 
-0

>  <r_i_glide_rewards>  (164) 
-2.11128

>  <r_i_glide_evdw>  (164) 
-20.6499

>  <r_i_glide_ecoul>  (164) 
-1.18475

>  <r_i_glide_erotb>  (164) 
0

>  <r_i_glide_esite>  (164) 
-0.0131212

>  <r_i_glide_emodel>  (164) 
-27.2799

>  <r_i_glide_energy>  (164) 
-21.8346

>  <r_i_glide_einternal>  (164) 
0

>  <r_i_glide_intrahb_reward>  (164) 
-0

>  <i_i_glide_confnum>  (164) 
1

>  <i_i_glide_posenum>  (164) 
11

>  <r_i_glide_eff_state_penalty>  (164) 
0

>  <ligand_id>  (164) 
58

>  <original_smiles>  (164) 
CC1=Nc2cc3c(n2CC1)CN(C)CC3

>  <smiles>  (164) 
[H]c1c2c(n3c1N=C(C([H])([H])[H])C([H])([H])C3([H])[H])C([H])([H])N(C([H])([H])[H])C([H])([H])C2([H])[H]

$$$$
58:1:1
     RDKit          3D

 32 34  0  0  1  0  0  0  0  0999 V2000
   -0.4821    1.4436    2.5727 C   0  0  0  0  0  0  0  0  0  0  0  0
   -0.6588    1.8342    4.0260 C   0  0  0  0  0  0  0  0  0  0  0  0
   -1.8041    2.1233    4.5090 N   0  0  0  0  0  0  0  0  0  0  0  0
   -1.8911    2.3784    5.8639 C   0  0  0  0  0  0  0  0  0  0  0  0
   -2.9525    2.9424    6.5108 C   0  0  0  0  0  0  0  0  0  0  0  0
   -2.6118    2.9697    7.8985 C   0  0  0  0  0  0  0  0  0  0  0  0
   -1.3632    2.4288    8.0302 C   0  0  0  0  0  0  0  0  0  0  0  0
   -0.9026    2.0721    6.7749 N   0  0  0  0  0  0  0  0  0  0  0  0
    0.3346    1.4498    6.3468 C   0  0  0  0  0  0  0  0  0  0  0  0
    0.6170    1.8757    4.8850 C   0  0  0  0  0  0  0  0  0  0  0  0
   -0.6568    2.2425    9.3292 C   0  0  0  0  0  0  0  0  0  0  0  0
   -1.2447    3.1080   10.3581 N   0  0  0  0  0  0  0  0  0  0  0  0
   -0.6633    2.7974   11.6561 C   0  0  0  0  0  0  0  0  0  0  0  0
   -2.7074    2.9512   10.4159 C   0  0  0  0  0  0  0  0  0  0  0  0
   -3.3585    3.4798    9.1074 C   0  0  0  0  0  0  0  0  0  0  0  0
   -0.0271    0.4578    2.4809 H   0  0  0  0  0  0  0  0  0  0  0  0
    0.1515    2.1620    2.0553 H   0  0  0  0  0  0  0  0  0  0  0  0
   -1.4455    1.4151    2.0611 H   0  0  0  0  0  0  0  0  0  0  0  0
   -3.8607    3.2723    6.0359 H   0  0  0  0  0  0  0  0  0  0  0  0
    1.1530    1.7159    7.0171 H   0  0  0  0  0  0  0  0  0  0  0  0
    0.2020    0.3678    6.3847 H   0  0  0  0  0  0  0  0  0  0  0  0
    1.4147    1.2812    4.4348 H   0  0  0  0  0  0  0  0  0  0  0  0
    0.9625    2.9117    4.8843 H   0  0  0  0  0  0  0  0  0  0  0  0
   -0.7262    1.1958    9.6277 H   0  0  0  0  0  0  0  0  0  0  0  0
    0.3994    2.4878    9.2186 H   0  0  0  0  0  0  0  0  0  0  0  0
   -1.0800    3.4487   12.4264 H   0  0  0  0  0  0  0  0  0  0  0  0
    0.4166    2.9535   11.6379 H   0  0  0  0  0  0  0  0  0  0  0  0
   -0.8611    1.7640   11.9494 H   0  0  0  0  0  0  0  0  0  0  0  0
   -2.9499    1.8986   10.5494 H   0  0  0  0  0  0  0  0  0  0  0  0
   -3.1241    3.4790   11.2777 H   0  0  0  0  0  0  0  0  0  0  0  0
   -3.3198    4.5699    9.0976 H   0  0  0  0  0  0  0  0  0  0  0  0
   -4.4058    3.1837    9.0454 H   0  0  0  0  0  0  0  0  0  0  0  0
  1  2  1  0
  1 16  1  0
  1 17  1  0
  1 18  1  0
  2 10  1  0
  2  3  2  0
  3  4  1  0
  4  8  1  0
  4  5  2  0
  5  6  1  0
  5 19  1  0
  6 15  1  0
  6  7  2  0
  7  8  1  0
  7 11  1  0
  8  9  1  0
  9 10  1  0
  9 20  1  0
  9 21  1  0
 10 22  1  0
 10 23  1  0
 11 12  1  0
 11 24  1  0
 11 25  1  0
 12 13  1  0
 12 14  1  0
 13 26  1  0
 13 27  1  0
 13 28  1  0
 14 15  1  0
 14 29  1  0
 14 30  1  0
 15 31  1  0
 15 32  1  0
M  END
>  <i_m_ct_stereo_status>  (165) 
1

>  <s_m_source_file>  (165) 
/var/tmp/pbs.5076255.sched01/tmp403565pz/80s7duc8s0.sdf

>  <i_m_source_file_index>  (165) 
3

>  <i_lp_mmshare_version>  (165) 
48012

>  <i_f3d_flags>  (165) 
0

>  <s_epik_input>  (165) 
W0NIM11DKD1OMSlbQ0gyXVtDSDJdbihjMTIpYzNjKFtjSF0yKVtDSDJdW0NIMl1OKFtDSDJdMylbQ0gzXQ==

>  <s_epik_cmdline>  (165) 
J2VwaWtfcHl0aG9uJywgJy1waHQnLCAnMi4wJywgJy1waCcsICc3LjAnLCAnLXRuJywgJzgnLCAnLW1hJywgJzIwMCcsICctaW1hZScsICc8aW5maWxlLm1hZT4nLCAnLW9tYWUnLCAnPG91dGZpbGUubWFlPic=

>  <r_lp_tautomer_probability>  (165) 
0.999601

>  <r_epik_Ionization_Penalty>  (165) 
1.33402

>  <r_epik_Ionization_Penalty_Charging>  (165) 
0

>  <r_epik_Ionization_Penalty_Neutral>  (165) 
1.33402

>  <r_epik_State_Penalty>  (165) 
1.41012

>  <r_epik_Charging_Adjusted_Penalty>  (165) 
1.41012

>  <i_epik_Tot_Q>  (165) 
0

>  <i_epik_Tot_abs_Q>  (165) 
0

>  <s_epik_Chemistry_Notes>  (165) 
This compound has an imine and may undergo hydrolysis.

>  <s_lp_Force_Field>  (165) 
OPLS3e

>  <r_lp_Energy>  (165) 
16.7553

>  <b_lp_Chiralities_Consistent>  (165) 
1

>  <s_lp_Variant>  (165) 
58:0-2

>  <s_i_glide_gridfile>  (165) 
pfpi4k_grid

>  <i_i_glide_lignum>  (165) 
3

>  <i_i_glide_rotatable_bonds>  (165) 
0

>  <r_i_docking_score>  (165) 
-3.53766

>  <r_i_glide_ligand_efficiency>  (165) 
-0.235844

>  <r_i_glide_ligand_efficiency_sa>  (165) 
-0.581641

>  <r_i_glide_ligand_efficiency_ln>  (165) 
-0.954048

>  <r_i_glide_gscore>  (165) 
-3.53766

>  <r_i_glide_lipo>  (165) 
-0.347035

>  <r_i_glide_hbond>  (165) 
0

>  <r_i_glide_metal>  (165) 
-0

>  <r_i_glide_rewards>  (165) 
-2.02307

>  <r_i_glide_evdw>  (165) 
-16.2037

>  <r_i_glide_ecoul>  (165) 
-2.15699

>  <r_i_glide_erotb>  (165) 
0

>  <r_i_glide_esite>  (165) 
-0.0338219

>  <r_i_glide_emodel>  (165) 
-23.2042

>  <r_i_glide_energy>  (165) 
-18.3607

>  <r_i_glide_einternal>  (165) 
0

>  <r_i_glide_intrahb_reward>  (165) 
-0

>  <i_i_glide_confnum>  (165) 
2

>  <i_i_glide_posenum>  (165) 
40

>  <r_i_glide_eff_state_penalty>  (165) 
0

>  <ligand_id>  (165) 
58

>  <original_smiles>  (165) 
CC1=Nc2cc3c(n2CC1)CN(C)CC3

>  <smiles>  (165) 
[H]c1c2c(n3c1N=C(C([H])([H])[H])C([H])([H])C3([H])[H])C([H])([H])N(C([H])([H])[H])C([H])([H])C2([H])[H]

$$$$
58:1:2
     RDKit          3D

 32 34  0  0  1  0  0  0  0  0999 V2000
   -0.3857    1.3447    2.5749 C   0  0  0  0  0  0  0  0  0  0  0  0
   -0.8079    2.0815    3.8289 C   0  0  0  0  0  0  0  0  0  0  0  0
   -1.4346    1.4923    4.7754 N   0  0  0  0  0  0  0  0  0  0  0  0
   -1.7049    2.2190    5.9192 C   0  0  0  0  0  0  0  0  0  0  0  0
   -2.5671    1.8633    6.9154 C   0  0  0  0  0  0  0  0  0  0  0  0
   -2.5013    2.8976    7.8985 C   0  0  0  0  0  0  0  0  0  0  0  0
   -1.5968    3.8248    7.4621 C   0  0  0  0  0  0  0  0  0  0  0  0
   -1.1134    3.4259    6.2284 N   0  0  0  0  0  0  0  0  0  0  0  0
   -0.1335    4.0219    5.3421 C   0  0  0  0  0  0  0  0  0  0  0  0
   -0.4492    3.5769    3.8944 C   0  0  0  0  0  0  0  0  0  0  0  0
   -1.1904    5.0346    8.2322 C   0  0  0  0  0  0  0  0  0  0  0  0
   -2.1959    5.3492    9.2557 N   0  0  0  0  0  0  0  0  0  0  0  0
   -1.7213    6.4310   10.1056 C   0  0  0  0  0  0  0  0  0  0  0  0
   -2.5047    4.1620   10.0702 C   0  0  0  0  0  0  0  0  0  0  0  0
   -3.2208    3.0872    9.2112 C   0  0  0  0  0  0  0  0  0  0  0  0
    0.6939    1.4047    2.4318 H   0  0  0  0  0  0  0  0  0  0  0  0
   -0.8711    1.7673    1.6970 H   0  0  0  0  0  0  0  0  0  0  0  0
   -0.6566    0.2900    2.6398 H   0  0  0  0  0  0  0  0  0  0  0  0
   -3.1695    0.9703    6.9237 H   0  0  0  0  0  0  0  0  0  0  0  0
   -0.1265    5.1071    5.4458 H   0  0  0  0  0  0  0  0  0  0  0  0
    0.8501    3.6477    5.6259 H   0  0  0  0  0  0  0  0  0  0  0  0
    0.3674    3.8156    3.2104 H   0  0  0  0  0  0  0  0  0  0  0  0
   -1.3215    4.1272    3.5358 H   0  0  0  0  0  0  0  0  0  0  0  0
   -0.2200    4.8532    8.6956 H   0  0  0  0  0  0  0  0  0  0  0  0
   -1.0808    5.8893    7.5639 H   0  0  0  0  0  0  0  0  0  0  0  0
   -2.4720    6.6847   10.8573 H   0  0  0  0  0  0  0  0  0  0  0  0
   -1.5313    7.3277    9.5128 H   0  0  0  0  0  0  0  0  0  0  0  0
   -0.7990    6.1591   10.6236 H   0  0  0  0  0  0  0  0  0  0  0  0
   -1.5800    3.7489   10.4726 H   0  0  0  0  0  0  0  0  0  0  0  0
   -3.1309    4.4230   10.9258 H   0  0  0  0  0  0  0  0  0  0  0  0
   -4.2440    3.4023    9.0042 H   0  0  0  0  0  0  0  0  0  0  0  0
   -3.2647    2.1431    9.7478 H   0  0  0  0  0  0  0  0  0  0  0  0
  1  2  1  0
  1 16  1  0
  1 17  1  0
  1 18  1  0
  2 10  1  0
  2  3  2  0
  3  4  1  0
  4  8  1  0
  4  5  2  0
  5  6  1  0
  5 19  1  0
  6 15  1  0
  6  7  2  0
  7  8  1  0
  7 11  1  0
  8  9  1  0
  9 10  1  0
  9 20  1  0
  9 21  1  0
 10 22  1  0
 10 23  1  0
 11 12  1  0
 11 24  1  0
 11 25  1  0
 12 13  1  0
 12 14  1  0
 13 26  1  0
 13 27  1  0
 13 28  1  0
 14 15  1  0
 14 29  1  0
 14 30  1  0
 15 31  1  0
 15 32  1  0
M  END
>  <i_m_ct_stereo_status>  (166) 
1

>  <s_m_source_file>  (166) 
/var/tmp/pbs.5076255.sched01/tmp403565pz/80s7duc8s0.sdf

>  <i_m_source_file_index>  (166) 
3

>  <i_lp_mmshare_version>  (166) 
48012

>  <i_f3d_flags>  (166) 
0

>  <s_epik_input>  (166) 
W0NIM11DKD1OMSlbQ0gyXVtDSDJdbihjMTIpYzNjKFtjSF0yKVtDSDJdW0NIMl1OKFtDSDJdMylbQ0gzXQ==

>  <s_epik_cmdline>  (166) 
J2VwaWtfcHl0aG9uJywgJy1waHQnLCAnMi4wJywgJy1waCcsICc3LjAnLCAnLXRuJywgJzgnLCAnLW1hJywgJzIwMCcsICctaW1hZScsICc8aW5maWxlLm1hZT4nLCAnLW9tYWUnLCAnPG91dGZpbGUubWFlPic=

>  <r_lp_tautomer_probability>  (166) 
0.999601

>  <r_epik_Ionization_Penalty>  (166) 
1.33402

>  <r_epik_Ionization_Penalty_Charging>  (166) 
0

>  <r_epik_Ionization_Penalty_Neutral>  (166) 
1.33402

>  <r_epik_State_Penalty>  (166) 
1.41012

>  <r_epik_Charging_Adjusted_Penalty>  (166) 
1.41012

>  <i_epik_Tot_Q>  (166) 
0

>  <i_epik_Tot_abs_Q>  (166) 
0

>  <s_epik_Chemistry_Notes>  (166) 
This compound has an imine and may undergo hydrolysis.

>  <s_lp_Force_Field>  (166) 
OPLS3e

>  <r_lp_Energy>  (166) 
16.7553

>  <b_lp_Chiralities_Consistent>  (166) 
1

>  <s_lp_Variant>  (166) 
58:0-2

>  <s_i_glide_gridfile>  (166) 
pfpi4k_grid

>  <i_i_glide_lignum>  (166) 
3

>  <i_i_glide_rotatable_bonds>  (166) 
0

>  <r_i_docking_score>  (166) 
-3.26717

>  <r_i_glide_ligand_efficiency>  (166) 
-0.217811

>  <r_i_glide_ligand_efficiency_sa>  (166) 
-0.537169

>  <r_i_glide_ligand_efficiency_ln>  (166) 
-0.881102

>  <r_i_glide_gscore>  (166) 
-3.26717

>  <r_i_glide_lipo>  (166) 
-0.146593

>  <r_i_glide_hbond>  (166) 
0

>  <r_i_glide_metal>  (166) 
-0

>  <r_i_glide_rewards>  (166) 
-2.03354

>  <r_i_glide_evdw>  (166) 
-16.6627

>  <r_i_glide_ecoul>  (166) 
-1.47651

>  <r_i_glide_erotb>  (166) 
0

>  <r_i_glide_esite>  (166) 
-0.0324231

>  <r_i_glide_emodel>  (166) 
-22.6075

>  <r_i_glide_energy>  (166) 
-18.1392

>  <r_i_glide_einternal>  (166) 
0

>  <r_i_glide_intrahb_reward>  (166) 
-0

>  <i_i_glide_confnum>  (166) 
1

>  <i_i_glide_posenum>  (166) 
18

>  <r_i_glide_eff_state_penalty>  (166) 
0

>  <ligand_id>  (166) 
58

>  <original_smiles>  (166) 
CC1=Nc2cc3c(n2CC1)CN(C)CC3

>  <smiles>  (166) 
[H]c1c2c(n3c1N=C(C([H])([H])[H])C([H])([H])C3([H])[H])C([H])([H])N(C([H])([H])[H])C([H])([H])C2([H])[H]

$$$$
61:0:0
     RDKit          3D

 29 32  0  0  1  0  0  0  0  0999 V2000
    5.5961   -6.4635    1.3185 O   0  0  0  0  0  0  0  0  0  0  0  0
    5.1404   -5.5143    0.7349 C   0  0  0  0  0  0  0  0  0  0  0  0
    4.2517   -5.2993   -0.3029 N   0  0  0  0  0  0  0  0  0  0  0  0
    4.6351   -3.9079   -0.2903 C   0  0  1  0  0  0  0  0  0  0  0  0
    5.3118   -4.1511    0.9621 O   0  0  0  0  0  0  0  0  0  0  0  0
    5.6593   -3.5487   -1.3710 C   0  0  2  0  0  0  0  0  0  0  0  0
    6.0880   -2.0822   -1.2093 C   0  0  0  0  0  0  0  0  0  0  0  0
    4.8385   -1.1842   -1.3566 C   0  0  1  0  0  0  0  0  0  0  0  0
    4.2244   -1.4032   -2.7594 C   0  0  0  0  0  0  0  0  0  0  0  0
    3.7830   -2.8730   -2.8949 C   0  0  1  0  0  0  0  0  0  0  0  0
    5.0345   -3.7707   -2.7582 C   0  0  0  0  0  0  0  0  0  0  0  0
    2.7525   -3.1877   -1.7779 C   0  0  0  0  0  0  0  0  0  0  0  0
    3.3970   -2.9891   -0.3804 C   0  0  2  0  0  0  0  0  0  0  0  0
    3.8325   -1.5177   -0.2420 C   0  0  0  0  0  0  0  0  0  0  0  0
    3.6115   -5.8422   -0.8935 H   0  0  0  0  0  0  0  0  0  0  0  0
    6.5489   -4.1635   -1.2718 H   0  0  0  0  0  0  0  0  0  0  0  0
    6.5372   -1.9240   -0.2293 H   0  0  0  0  0  0  0  0  0  0  0  0
    6.8473   -1.8535   -1.9531 H   0  0  0  0  0  0  0  0  0  0  0  0
    5.1410   -0.1476   -1.2593 H   0  0  0  0  0  0  0  0  0  0  0  0
    3.3781   -0.7309   -2.9193 H   0  0  0  0  0  0  0  0  0  0  0  0
    4.9603   -1.1701   -3.5252 H   0  0  0  0  0  0  0  0  0  0  0  0
    3.3368   -3.0468   -3.8782 H   0  0  0  0  0  0  0  0  0  0  0  0
    5.7677   -3.5789   -3.5425 H   0  0  0  0  0  0  0  0  0  0  0  0
    4.7554   -4.8181   -2.8652 H   0  0  0  0  0  0  0  0  0  0  0  0
    1.8551   -2.5898   -1.9141 H   0  0  0  0  0  0  0  0  0  0  0  0
    2.3940   -4.2098   -1.8829 H   0  0  0  0  0  0  0  0  0  0  0  0
    2.6755   -3.2328    0.3887 H   0  0  0  0  0  0  0  0  0  0  0  0
    4.2678   -1.3540    0.7378 H   0  0  0  0  0  0  0  0  0  0  0  0
    2.9683   -0.8453   -0.2981 H   0  0  0  0  0  0  0  0  0  0  0  0
  1  2  2  0
  2  5  1  0
  2  3  1  0
  3  4  1  0
  3 15  1  0
  4 13  1  0
  4  5  1  1
  4  6  1  0
  6 11  1  0
  6  7  1  0
  6 16  1  1
  7  8  1  0
  7 17  1  0
  7 18  1  0
  8 14  1  0
  8  9  1  0
  8 19  1  6
  9 10  1  0
  9 20  1  0
  9 21  1  0
 10 11  1  0
 10 12  1  0
 10 22  1  6
 11 23  1  0
 11 24  1  0
 12 13  1  0
 12 25  1  0
 12 26  1  0
 13 14  1  0
 13 27  1  1
 14 28  1  0
 14 29  1  0
M  END
>  <i_m_ct_stereo_status>  (167) 
1

>  <s_m_source_file>  (167) 
/var/tmp/pbs.5076255.sched01/tmp403565pz/80s7duc8s0.sdf

>  <i_m_source_file_index>  (167) 
6

>  <i_lp_mmshare_version>  (167) 
48012

>  <i_f3d_flags>  (167) 
0

>  <s_epik_input>  (167) 
Tz1DKE8xKVtOSF1bQ0BdMTJbQ0BIXTNbQ0gyXVtDQEBIXTRbQ0gyXVtDQEhdKFtDSDJdMylbQ0gyXVtDQEhdMltDSDJdNA==

>  <s_epik_cmdline>  (167) 
J2VwaWtfcHl0aG9uJywgJy1waHQnLCAnMi4wJywgJy1waCcsICc3LjAnLCAnLXRuJywgJzgnLCAnLW1hJywgJzIwMCcsICctaW1hZScsICc8aW5maWxlLm1hZT4nLCAnLW9tYWUnLCAnPG91dGZpbGUubWFlPic=

>  <r_lp_tautomer_probability>  (167) 
1

>  <r_epik_Ionization_Penalty>  (167) 
1.15275e-06

>  <r_epik_Ionization_Penalty_Charging>  (167) 
0

>  <r_epik_Ionization_Penalty_Neutral>  (167) 
1.15275e-06

>  <r_epik_State_Penalty>  (167) 
-0

>  <r_epik_Charging_Adjusted_Penalty>  (167) 
0

>  <i_epik_Tot_Q>  (167) 
0

>  <i_epik_Tot_abs_Q>  (167) 
0

>  <s_epik_Chemistry_Notes>  (167) 
This compound has an ester and may undergo hydrolysis at high or low pH.

>  <s_lp_Force_Field>  (167) 
OPLS3e

>  <r_lp_Energy>  (167) 
15.3013

>  <b_lp_Chiralities_Consistent>  (167) 
1

>  <s_lp_Variant>  (167) 
61:0-1

>  <s_i_glide_gridfile>  (167) 
pfpi4k_grid

>  <i_i_glide_lignum>  (167) 
6

>  <i_i_glide_rotatable_bonds>  (167) 
0

>  <r_i_docking_score>  (167) 
-4.07437

>  <r_i_glide_ligand_efficiency>  (167) 
-0.291026

>  <r_i_glide_ligand_efficiency_sa>  (167) 
-0.701415

>  <r_i_glide_ligand_efficiency_ln>  (167) 
-1.11962

>  <r_i_glide_gscore>  (167) 
-4.07437

>  <r_i_glide_lipo>  (167) 
-0.221547

>  <r_i_glide_hbond>  (167) 
-0.300745

>  <r_i_glide_metal>  (167) 
-0

>  <r_i_glide_rewards>  (167) 
-2.24457

>  <r_i_glide_evdw>  (167) 
-16.4552

>  <r_i_glide_ecoul>  (167) 
-2.9983

>  <r_i_glide_erotb>  (167) 
0

>  <r_i_glide_esite>  (167) 
-0.0349964

>  <r_i_glide_emodel>  (167) 
-24.012

>  <r_i_glide_energy>  (167) 
-19.4535

>  <r_i_glide_einternal>  (167) 
0

>  <r_i_glide_intrahb_reward>  (167) 
-0

>  <i_i_glide_confnum>  (167) 
1

>  <i_i_glide_posenum>  (167) 
16

>  <r_i_glide_eff_state_penalty>  (167) 
0

>  <ligand_id>  (167) 
61

>  <original_smiles>  (167) 
O=C1NC2(O1)C1CC3CC(C1)CC2C3

>  <smiles>  (167) 
[H]N1C(=O)OC12C1([H])C([H])([H])C3([H])C([H])([H])C([H])(C1([H])[H])C([H])([H])C2([H])C3([H])[H]

$$$$
61:0:1
     RDKit          3D

 29 32  0  0  1  0  0  0  0  0999 V2000
    1.4177   -5.8726    0.2711 O   0  0  0  0  0  0  0  0  0  0  0  0
    2.3167   -5.0741    0.3072 C   0  0  0  0  0  0  0  0  0  0  0  0
    2.6148   -3.9001   -0.3586 N   0  0  0  0  0  0  0  0  0  0  0  0
    3.8814   -3.8689    0.3209 C   0  0  1  0  0  0  0  0  0  0  0  0
    3.4261   -4.9302    1.1775 O   0  0  0  0  0  0  0  0  0  0  0  0
    5.0309   -4.4427   -0.5030 C   0  0  2  0  0  0  0  0  0  0  0  0
    6.3078   -4.4701    0.3651 C   0  0  0  0  0  0  0  0  0  0  0  0
    6.6485   -3.0355    0.8095 C   0  0  1  0  0  0  0  0  0  0  0  0
    6.8707   -2.1719   -0.4511 C   0  0  0  0  0  0  0  0  0  0  0  0
    5.5724   -2.1278   -1.2868 C   0  0  1  0  0  0  0  0  0  0  0  0
    5.2284   -3.5621   -1.7424 C   0  0  0  0  0  0  0  0  0  0  0  0
    4.4280   -1.5418   -0.4180 C   0  0  0  0  0  0  0  0  0  0  0  0
    4.2037   -2.4450    0.8270 C   0  0  2  0  0  0  0  0  0  0  0  0
    5.4932   -2.4658    1.6681 C   0  0  0  0  0  0  0  0  0  0  0  0
    2.1736   -3.2909   -1.0608 H   0  0  0  0  0  0  0  0  0  0  0  0
    4.7997   -5.4618   -0.8197 H   0  0  0  0  0  0  0  0  0  0  0  0
    6.1625   -5.1037    1.2412 H   0  0  0  0  0  0  0  0  0  0  0  0
    7.1329   -4.9052   -0.1937 H   0  0  0  0  0  0  0  0  0  0  0  0
    7.5651   -3.0509    1.3967 H   0  0  0  0  0  0  0  0  0  0  0  0
    7.1767   -1.1658   -0.1645 H   0  0  0  0  0  0  0  0  0  0  0  0
    7.6837   -2.5881   -1.0495 H   0  0  0  0  0  0  0  0  0  0  0  0
    5.7158   -1.5140   -2.1779 H   0  0  0  0  0  0  0  0  0  0  0  0
    6.0120   -3.9790   -2.3722 H   0  0  0  0  0  0  0  0  0  0  0  0
    4.3167   -3.5625   -2.3452 H   0  0  0  0  0  0  0  0  0  0  0  0
    4.6540   -0.5149   -0.1326 H   0  0  0  0  0  0  0  0  0  0  0  0
    3.5153   -1.4801   -1.0144 H   0  0  0  0  0  0  0  0  0  0  0  0
    3.3834   -2.0404    1.4174 H   0  0  0  0  0  0  0  0  0  0  0  0
    5.3398   -3.0912    2.5480 H   0  0  0  0  0  0  0  0  0  0  0  0
    5.7311   -1.4694    2.0422 H   0  0  0  0  0  0  0  0  0  0  0  0
  1  2  2  0
  2  5  1  0
  2  3  1  0
  3  4  1  0
  3 15  1  0
  4 13  1  0
  4  5  1  1
  4  6  1  0
  6 11  1  0
  6  7  1  0
  6 16  1  6
  7  8  1  0
  7 17  1  0
  7 18  1  0
  8 14  1  0
  8  9  1  0
  8 19  1  1
  9 10  1  0
  9 20  1  0
  9 21  1  0
 10 11  1  0
 10 12  1  0
 10 22  1  6
 11 23  1  0
 11 24  1  0
 12 13  1  0
 12 25  1  0
 12 26  1  0
 13 14  1  0
 13 27  1  1
 14 28  1  0
 14 29  1  0
M  END
>  <i_m_ct_stereo_status>  (168) 
1

>  <s_m_source_file>  (168) 
/var/tmp/pbs.5076255.sched01/tmp403565pz/80s7duc8s0.sdf

>  <i_m_source_file_index>  (168) 
6

>  <i_lp_mmshare_version>  (168) 
48012

>  <i_f3d_flags>  (168) 
0

>  <s_epik_input>  (168) 
Tz1DKE8xKVtOSF1bQ0BdMTJbQ0BIXTNbQ0gyXVtDQEBIXTRbQ0gyXVtDQEhdKFtDSDJdMylbQ0gyXVtDQEhdMltDSDJdNA==

>  <s_epik_cmdline>  (168) 
J2VwaWtfcHl0aG9uJywgJy1waHQnLCAnMi4wJywgJy1waCcsICc3LjAnLCAnLXRuJywgJzgnLCAnLW1hJywgJzIwMCcsICctaW1hZScsICc8aW5maWxlLm1hZT4nLCAnLW9tYWUnLCAnPG91dGZpbGUubWFlPic=

>  <r_lp_tautomer_probability>  (168) 
1

>  <r_epik_Ionization_Penalty>  (168) 
1.15275e-06

>  <r_epik_Ionization_Penalty_Charging>  (168) 
0

>  <r_epik_Ionization_Penalty_Neutral>  (168) 
1.15275e-06

>  <r_epik_State_Penalty>  (168) 
-0

>  <r_epik_Charging_Adjusted_Penalty>  (168) 
0

>  <i_epik_Tot_Q>  (168) 
0

>  <i_epik_Tot_abs_Q>  (168) 
0

>  <s_epik_Chemistry_Notes>  (168) 
This compound has an ester and may undergo hydrolysis at high or low pH.

>  <s_lp_Force_Field>  (168) 
OPLS3e

>  <r_lp_Energy>  (168) 
15.3013

>  <b_lp_Chiralities_Consistent>  (168) 
1

>  <s_lp_Variant>  (168) 
61:0-1

>  <s_i_glide_gridfile>  (168) 
pfpi4k_grid

>  <i_i_glide_lignum>  (168) 
6

>  <i_i_glide_rotatable_bonds>  (168) 
0

>  <r_i_docking_score>  (168) 
-4.05646

>  <r_i_glide_ligand_efficiency>  (168) 
-0.289747

>  <r_i_glide_ligand_efficiency_sa>  (168) 
-0.698331

>  <r_i_glide_ligand_efficiency_ln>  (168) 
-1.1147

>  <r_i_glide_gscore>  (168) 
-4.05646

>  <r_i_glide_lipo>  (168) 
-0.372206

>  <r_i_glide_hbond>  (168) 
-0.152831

>  <r_i_glide_metal>  (168) 
-0

>  <r_i_glide_rewards>  (168) 
-2.10167

>  <r_i_glide_evdw>  (168) 
-16.3378

>  <r_i_glide_ecoul>  (168) 
-3.41242

>  <r_i_glide_erotb>  (168) 
0

>  <r_i_glide_esite>  (168) 
-0.100999

>  <r_i_glide_emodel>  (168) 
-23.9547

>  <r_i_glide_energy>  (168) 
-19.7502

>  <r_i_glide_einternal>  (168) 
0

>  <r_i_glide_intrahb_reward>  (168) 
-0

>  <i_i_glide_confnum>  (168) 
1

>  <i_i_glide_posenum>  (168) 
6

>  <r_i_glide_eff_state_penalty>  (168) 
0

>  <ligand_id>  (168) 
61

>  <original_smiles>  (168) 
O=C1NC2(O1)C1CC3CC(C1)CC2C3

>  <smiles>  (168) 
[H]N1C(=O)OC12C1([H])C([H])([H])C3([H])C([H])([H])C([H])(C1([H])[H])C([H])([H])C2([H])C3([H])[H]

$$$$
61:0:2
     RDKit          3D

 29 32  0  0  1  0  0  0  0  0999 V2000
    1.6274   -2.2834    3.1070 O   0  0  0  0  0  0  0  0  0  0  0  0
    2.5110   -2.0928    2.2953 C   0  0  0  0  0  0  0  0  0  0  0  0
    2.6233   -1.7803    0.9705 N   0  0  0  0  0  0  0  0  0  0  0  0
    4.0174   -2.0460    1.0644 C   0  0  1  0  0  0  0  0  0  0  0  0
    3.8561   -2.0856    2.4980 O   0  0  0  0  0  0  0  0  0  0  0  0
    4.4284   -3.4329    0.5440 C   0  0  2  0  0  0  0  0  0  0  0  0
    5.9358   -3.6523    0.7817 C   0  0  0  0  0  0  0  0  0  0  0  0
    6.7358   -2.5702    0.0269 C   0  0  1  0  0  0  0  0  0  0  0  0
    6.4027   -2.6820   -1.4802 C   0  0  0  0  0  0  0  0  0  0  0  0
    4.8960   -2.4296   -1.7026 C   0  0  1  0  0  0  0  0  0  0  0  0
    4.0910   -3.5115   -0.9525 C   0  0  0  0  0  0  0  0  0  0  0  0
    4.5449   -1.0167   -1.1657 C   0  0  0  0  0  0  0  0  0  0  0  0
    4.8491   -0.9367    0.3580 C   0  0  2  0  0  0  0  0  0  0  0  0
    6.3542   -1.1679    0.5686 C   0  0  0  0  0  0  0  0  0  0  0  0
    1.9798   -1.4621    0.2175 H   0  0  0  0  0  0  0  0  0  0  0  0
    3.8697   -4.2063    1.0712 H   0  0  0  0  0  0  0  0  0  0  0  0
    6.1600   -3.5962    1.8489 H   0  0  0  0  0  0  0  0  0  0  0  0
    6.2196   -4.6551    0.4554 H   0  0  0  0  0  0  0  0  0  0  0  0
    7.8055   -2.7381    0.1800 H   0  0  0  0  0  0  0  0  0  0  0  0
    6.9969   -1.9835   -2.0629 H   0  0  0  0  0  0  0  0  0  0  0  0
    6.6584   -3.6760   -1.8417 H   0  0  0  0  0  0  0  0  0  0  0  0
    4.6523   -2.4951   -2.7644 H   0  0  0  0  0  0  0  0  0  0  0  0
    4.3125   -4.5156   -1.3206 H   0  0  0  0  0  0  0  0  0  0  0  0
    3.0174   -3.3552   -1.0988 H   0  0  0  0  0  0  0  0  0  0  0  0
    5.0748   -0.2629   -1.7303 H   0  0  0  0  0  0  0  0  0  0  0  0
    3.4858   -0.8186   -1.3527 H   0  0  0  0  0  0  0  0  0  0  0  0
    4.5744    0.0511    0.7207 H   0  0  0  0  0  0  0  0  0  0  0  0
    6.5825   -1.1029    1.6325 H   0  0  0  0  0  0  0  0  0  0  0  0
    6.9420   -0.3855    0.0867 H   0  0  0  0  0  0  0  0  0  0  0  0
  1  2  2  0
  2  5  1  0
  2  3  1  0
  3  4  1  0
  3 15  1  0
  4 13  1  0
  4  5  1  1
  4  6  1  0
  6 11  1  0
  6  7  1  0
  6 16  1  1
  7  8  1  0
  7 17  1  0
  7 18  1  0
  8 14  1  0
  8  9  1  0
  8 19  1  6
  9 10  1  0
  9 20  1  0
  9 21  1  0
 10 11  1  0
 10 12  1  0
 10 22  1  6
 11 23  1  0
 11 24  1  0
 12 13  1  0
 12 25  1  0
 12 26  1  0
 13 14  1  0
 13 27  1  1
 14 28  1  0
 14 29  1  0
M  END
>  <i_m_ct_stereo_status>  (169) 
1

>  <s_m_source_file>  (169) 
/var/tmp/pbs.5076255.sched01/tmp403565pz/80s7duc8s0.sdf

>  <i_m_source_file_index>  (169) 
6

>  <i_lp_mmshare_version>  (169) 
48012

>  <i_f3d_flags>  (169) 
0

>  <s_epik_input>  (169) 
Tz1DKE8xKVtOSF1bQ0BdMTJbQ0BIXTNbQ0gyXVtDQEBIXTRbQ0gyXVtDQEhdKFtDSDJdMylbQ0gyXVtDQEhdMltDSDJdNA==

>  <s_epik_cmdline>  (169) 
J2VwaWtfcHl0aG9uJywgJy1waHQnLCAnMi4wJywgJy1waCcsICc3LjAnLCAnLXRuJywgJzgnLCAnLW1hJywgJzIwMCcsICctaW1hZScsICc8aW5maWxlLm1hZT4nLCAnLW9tYWUnLCAnPG91dGZpbGUubWFlPic=

>  <r_lp_tautomer_probability>  (169) 
1

>  <r_epik_Ionization_Penalty>  (169) 
1.15275e-06

>  <r_epik_Ionization_Penalty_Charging>  (169) 
0

>  <r_epik_Ionization_Penalty_Neutral>  (169) 
1.15275e-06

>  <r_epik_State_Penalty>  (169) 
-0

>  <r_epik_Charging_Adjusted_Penalty>  (169) 
0

>  <i_epik_Tot_Q>  (169) 
0

>  <i_epik_Tot_abs_Q>  (169) 
0

>  <s_epik_Chemistry_Notes>  (169) 
This compound has an ester and may undergo hydrolysis at high or low pH.

>  <s_lp_Force_Field>  (169) 
OPLS3e

>  <r_lp_Energy>  (169) 
15.3013

>  <b_lp_Chiralities_Consistent>  (169) 
1

>  <s_lp_Variant>  (169) 
61:0-1

>  <s_i_glide_gridfile>  (169) 
pfpi4k_grid

>  <i_i_glide_lignum>  (169) 
6

>  <i_i_glide_rotatable_bonds>  (169) 
0

>  <r_i_docking_score>  (169) 
-3.84365

>  <r_i_glide_ligand_efficiency>  (169) 
-0.274546

>  <r_i_glide_ligand_efficiency_sa>  (169) 
-0.661696

>  <r_i_glide_ligand_efficiency_ln>  (169) 
-1.05622

>  <r_i_glide_gscore>  (169) 
-3.84365

>  <r_i_glide_lipo>  (169) 
-0.281785

>  <r_i_glide_hbond>  (169) 
-0.16

>  <r_i_glide_metal>  (169) 
-0

>  <r_i_glide_rewards>  (169) 
-2.09153

>  <r_i_glide_evdw>  (169) 
-16.9124

>  <r_i_glide_ecoul>  (169) 
-2.57668

>  <r_i_glide_erotb>  (169) 
0

>  <r_i_glide_esite>  (169) 
-0.0782108

>  <r_i_glide_emodel>  (169) 
-23.4112

>  <r_i_glide_energy>  (169) 
-19.4891

>  <r_i_glide_einternal>  (169) 
0

>  <r_i_glide_intrahb_reward>  (169) 
-0

>  <i_i_glide_confnum>  (169) 
2

>  <i_i_glide_posenum>  (169) 
30

>  <r_i_glide_eff_state_penalty>  (169) 
0

>  <ligand_id>  (169) 
61

>  <original_smiles>  (169) 
O=C1NC2(O1)C1CC3CC(C1)CC2C3

>  <smiles>  (169) 
[H]N1C(=O)OC12C1([H])C([H])([H])C3([H])C([H])([H])C([H])(C1([H])[H])C([H])([H])C2([H])C3([H])[H]

$$$$
62:0:0
     RDKit          3D

 59 63  0  0  1  0  0  0  0  0999 V2000
    3.5165   -1.8812   -3.4970 C   0  0  0  0  0  0  0  0  0  0  0  0
    3.0150   -1.2554   -2.1898 C   0  0  0  0  0  0  0  0  0  0  0  0
    4.0448   -1.1768   -1.0388 C   0  0  2  0  0  0  0  0  0  0  0  0
    5.2240   -0.6754   -1.5895 O   0  0  0  0  0  0  0  0  0  0  0  0
    4.3186   -2.3262    0.0647 C   0  0  1  0  0  0  0  0  0  0  0  0
    5.8718   -2.5187    0.3236 C   0  0  1  0  0  0  0  0  0  0  0  0
    6.0922   -2.8209    1.8276 C   0  0  0  0  0  0  0  0  0  0  0  0
    4.6670   -3.0644    2.3333 C   0  0  1  0  0  0  0  0  0  0  0  0
    4.2843   -2.7401    3.7877 C   0  0  1  0  0  0  0  0  0  0  0  0
    5.0775   -1.7121    4.3700 O   0  0  0  0  0  0  0  0  0  0  0  0
    2.9320   -2.3769    3.6576 O   0  0  0  0  0  0  0  0  0  0  0  0
    2.5329   -2.1367    2.2806 C   0  0  1  0  0  0  0  0  0  0  0  0
    1.5762   -0.9553    2.2941 C   0  0  2  0  0  0  0  0  0  0  0  0
    1.4382   -0.0145    3.4715 C   0  0  0  0  0  0  0  0  0  0  0  0
    0.5075   -1.0788    3.2521 O   0  0  0  0  0  0  0  0  0  0  0  0
    3.9033   -1.9495    1.5636 C   0  0  2  0  0  0  0  0  0  0  0  0
    4.3556   -0.4479    1.8804 C   0  0  0  0  0  0  0  0  0  0  0  0
    4.2120   -4.5944    2.0595 C   0  0  1  0  0  0  0  0  0  0  0  0
    5.3213   -5.6497    2.2221 C   0  0  0  0  0  0  0  0  0  0  0  0
    3.2437   -5.0901    2.9875 O   0  0  0  0  0  0  0  0  0  0  0  0
    3.5359   -4.7776    0.7102 C   0  0  0  0  0  0  0  0  0  0  0  0
    3.9543   -3.8057   -0.4057 C   0  0  1  0  0  0  0  0  0  0  0  0
    2.7872   -3.9353   -1.2009 O   0  0  0  0  0  0  0  0  0  0  0  0
    5.2124   -4.3872   -1.1385 C   0  0  1  0  0  0  0  0  0  0  0  0
    5.1595   -4.3021   -2.5215 O   0  0  0  0  0  0  0  0  0  0  0  0
    6.4246   -3.6187   -0.6195 C   0  0  1  0  0  0  0  0  0  0  0  0
    7.4299   -3.0589   -1.6608 C   0  0  0  0  0  0  0  0  0  0  0  0
    2.7291   -1.9958   -4.2394 H   0  0  0  0  0  0  0  0  0  0  0  0
    3.7515   -2.8755   -3.3166 H   0  0  0  0  0  0  0  0  0  0  0  0
    4.3918   -1.3714   -3.9094 H   0  0  0  0  0  0  0  0  0  0  0  0
    2.5910   -0.2960   -2.4021 H   0  0  0  0  0  0  0  0  0  0  0  0
    2.1802   -1.8680   -1.8720 H   0  0  0  0  0  0  0  0  0  0  0  0
    3.6514   -0.3273   -0.5018 H   0  0  0  0  0  0  0  0  0  0  0  0
    5.1698    0.2967   -1.5455 H   0  0  0  0  0  0  0  0  0  0  0  0
    6.4519   -1.6017    0.1830 H   0  0  0  0  0  0  0  0  0  0  0  0
    6.7962   -3.6259    2.0151 H   0  0  0  0  0  0  0  0  0  0  0  0
    6.5529   -1.9543    2.3036 H   0  0  0  0  0  0  0  0  0  0  0  0
    4.3771   -3.5769    4.4760 H   0  0  0  0  0  0  0  0  0  0  0  0
    5.1018   -1.0028    3.7597 H   0  0  0  0  0  0  0  0  0  0  0  0
    1.9730   -2.9908    1.9202 H   0  0  0  0  0  0  0  0  0  0  0  0
    1.2167   -0.6212    1.3219 H   0  0  0  0  0  0  0  0  0  0  0  0
    2.1103   -0.1506    4.3186 H   0  0  0  0  0  0  0  0  0  0  0  0
    1.0506    0.9868    3.3065 H   0  0  0  0  0  0  0  0  0  0  0  0
    4.1599   -0.1276    2.8985 H   0  0  0  0  0  0  0  0  0  0  0  0
    3.7908    0.3173    1.3520 H   0  0  0  0  0  0  0  0  0  0  0  0
    5.4042   -0.2374    1.6822 H   0  0  0  0  0  0  0  0  0  0  0  0
    6.0743   -5.6162    1.4396 H   0  0  0  0  0  0  0  0  0  0  0  0
    4.9027   -6.6576    2.1752 H   0  0  0  0  0  0  0  0  0  0  0  0
    5.8164   -5.5603    3.1883 H   0  0  0  0  0  0  0  0  0  0  0  0
    2.5433   -4.4736    3.0717 H   0  0  0  0  0  0  0  0  0  0  0  0
    3.6396   -5.8101    0.3601 H   0  0  0  0  0  0  0  0  0  0  0  0
    2.4532   -4.7326    0.8678 H   0  0  0  0  0  0  0  0  0  0  0  0
    2.8685   -4.7040   -1.7152 H   0  0  0  0  0  0  0  0  0  0  0  0
    5.3325   -5.4502   -0.9174 H   0  0  0  0  0  0  0  0  0  0  0  0
    4.4358   -4.8482   -2.8355 H   0  0  0  0  0  0  0  0  0  0  0  0
    7.0123   -4.3245   -0.0379 H   0  0  0  0  0  0  0  0  0  0  0  0
    6.9956   -2.3022   -2.3209 H   0  0  0  0  0  0  0  0  0  0  0  0
    7.8063   -3.8508   -2.3128 H   0  0  0  0  0  0  0  0  0  0  0  0
    8.3040   -2.6170   -1.1733 H   0  0  0  0  0  0  0  0  0  0  0  0
  1  2  1  0
  1 28  1  0
  1 29  1  0
  1 30  1  0
  2  3  1  0
  2 31  1  0
  2 32  1  0
  3  4  1  0
  3  5  1  0
  3 33  1  1
  4 34  1  0
  5 16  1  0
  5 22  1  6
  5  6  1  0
  6 26  1  0
  6  7  1  0
  6 35  1  6
  8  7  1  1
  7 36  1  0
  7 37  1  0
  8 16  1  0
  8  9  1  0
  8 18  1  0
  9 10  1  0
  9 11  1  0
  9 38  1  1
 10 39  1  0
 11 12  1  0
 12 13  1  0
 12 16  1  0
 12 40  1  6
 13 15  1  0
 13 14  1  0
 13 41  1  6
 14 15  1  0
 14 42  1  0
 14 43  1  0
 16 17  1  1
 17 44  1  0
 17 45  1  0
 17 46  1  0
 18 19  1  0
 18 20  1  1
 18 21  1  0
 19 47  1  0
 19 48  1  0
 19 49  1  0
 20 50  1  0
 21 22  1  0
 21 51  1  0
 21 52  1  0
 22 23  1  6
 22 24  1  0
 23 53  1  0
 24 25  1  0
 24 26  1  0
 24 54  1  6
 25 55  1  0
 26 27  1  0
 26 56  1  1
 27 57  1  0
 27 58  1  0
 27 59  1  0
M  END
>  <i_m_ct_stereo_status>  (170) 
1

>  <s_m_source_file>  (170) 
/var/tmp/pbs.5076255.sched01/tmp403565pz/80s7duc8s0.sdf

>  <i_m_source_file_index>  (170) 
7

>  <i_lp_mmshare_version>  (170) 
48012

>  <i_f3d_flags>  (170) 
0

>  <s_epik_input>  (170) 
W09IXVtDQEhdMU9bQ0BASF0oW0NAQEhdMltDSDJdTzIpW0NAXShbQ0BdMTM0KShbQ0gzXSlbQ0BAXTUoW0NAQEhdKFtPSF0pW0NIMl1bQ0gzXSlbQ0BASF0oW0NIMl0zKVtDQEhdKFtDSDNdKVtDQEhdKFtPSF0pW0NAQF01KFtPSF0pW0NIMl1bQ0BdNChbQ0gzXSlbT0hd

>  <s_epik_cmdline>  (170) 
J2VwaWtfcHl0aG9uJywgJy1waHQnLCAnMi4wJywgJy1waCcsICc3LjAnLCAnLXRuJywgJzgnLCAnLW1hJywgJzIwMCcsICctaW1hZScsICc8aW5maWxlLm1hZT4nLCAnLW9tYWUnLCAnPG91dGZpbGUubWFlPic=

>  <r_lp_tautomer_probability>  (170) 
1

>  <r_epik_Ionization_Penalty>  (170) 
1.61806e-06

>  <r_epik_Ionization_Penalty_Charging>  (170) 
0

>  <r_epik_Ionization_Penalty_Neutral>  (170) 
1.61806e-06

>  <r_epik_State_Penalty>  (170) 
-0

>  <r_epik_Charging_Adjusted_Penalty>  (170) 
0

>  <i_epik_Tot_Q>  (170) 
0

>  <i_epik_Tot_abs_Q>  (170) 
0

>  <s_epik_Chemistry_Notes>  (170) 
This compound contains an acetal/aminal-like group ( X-CH(R)-Y where X, Y are N, S, or O) that may be acid/base labile, releasing an aldehyde.

>  <s_lp_Force_Field>  (170) 
OPLS3e

>  <r_lp_Energy>  (170) 
83.2563

>  <b_lp_Chiralities_Consistent>  (170) 
1

>  <s_lp_Variant>  (170) 
62:0-1

>  <s_i_glide_gridfile>  (170) 
pfpi4k_grid

>  <i_i_glide_lignum>  (170) 
7

>  <i_i_glide_rotatable_bonds>  (170) 
8

>  <r_i_docking_score>  (170) 
-3.68255

>  <r_i_glide_ligand_efficiency>  (170) 
-0.136391

>  <r_i_glide_ligand_efficiency_sa>  (170) 
-0.409172

>  <r_i_glide_ligand_efficiency_ln>  (170) 
-0.857237

>  <r_i_glide_gscore>  (170) 
-3.68255

>  <r_i_glide_lipo>  (170) 
-0.538089

>  <r_i_glide_hbond>  (170) 
-0.288

>  <r_i_glide_metal>  (170) 
-0

>  <r_i_glide_rewards>  (170) 
-0.799797

>  <r_i_glide_evdw>  (170) 
-12.202

>  <r_i_glide_ecoul>  (170) 
-11.3976

>  <r_i_glide_erotb>  (170) 
0.263075

>  <r_i_glide_esite>  (170) 
0

>  <r_i_glide_emodel>  (170) 
-17.7146

>  <r_i_glide_energy>  (170) 
-23.5996

>  <r_i_glide_einternal>  (170) 
20.7958

>  <r_i_glide_intrahb_reward>  (170) 
-0

>  <i_i_glide_confnum>  (170) 
6

>  <i_i_glide_posenum>  (170) 
8

>  <r_i_glide_eff_state_penalty>  (170) 
0

>  <ligand_id>  (170) 
62

>  <original_smiles>  (170) 
CCC(O)C12C3CC4(C(O)OC(C5CO5)C41C)C(C)(O)CC2(O)C(O)C3C

>  <smiles>  (170) 
[H]OC1([H])OC([H])(C2([H])OC2([H])[H])C2(C([H])([H])[H])C13C([H])([H])C1([H])C([H])(C([H])([H])[H])C([H])(O[H])C(O[H])(C([H])([H])C3(O[H])C([H])([H])[H])C12C([H])(O[H])C([H])([H])C([H])([H])[H]

$$$$
62:0:1
     RDKit          3D

 59 63  0  0  1  0  0  0  0  0999 V2000
    3.7534   -8.9181    2.1535 C   0  0  0  0  0  0  0  0  0  0  0  0
    3.5496   -7.4645    2.5765 C   0  0  0  0  0  0  0  0  0  0  0  0
    4.3705   -6.4038    1.7835 C   0  0  2  0  0  0  0  0  0  0  0  0
    5.7044   -6.7617    2.0676 O   0  0  0  0  0  0  0  0  0  0  0  0
    4.0843   -4.8432    2.0478 C   0  0  1  0  0  0  0  0  0  0  0  0
    4.5965   -4.3434    3.4642 C   0  0  1  0  0  0  0  0  0  0  0  0
    5.1302   -2.8886    3.2719 C   0  0  0  0  0  0  0  0  0  0  0  0
    4.6692   -2.5003    1.8640 C   0  0  1  0  0  0  0  0  0  0  0  0
    5.4690   -1.5147    0.9764 C   0  0  1  0  0  0  0  0  0  0  0  0
    6.8251   -1.4694    1.3078 O   0  0  0  0  0  0  0  0  0  0  0  0
    5.2253   -2.0065   -0.3251 O   0  0  0  0  0  0  0  0  0  0  0  0
    4.5928   -3.3179   -0.3299 C   0  0  1  0  0  0  0  0  0  0  0  0
    5.1491   -4.0794   -1.5273 C   0  0  2  0  0  0  0  0  0  0  0  0
    5.8564   -3.3485   -2.6524 C   0  0  0  0  0  0  0  0  0  0  0  0
    4.5131   -3.8057   -2.7873 O   0  0  0  0  0  0  0  0  0  0  0  0
    4.9153   -3.8394    1.1035 C   0  0  2  0  0  0  0  0  0  0  0  0
    6.4208   -4.3221    1.0308 C   0  0  0  0  0  0  0  0  0  0  0  0
    3.1496   -1.9754    1.8799 C   0  0  1  0  0  0  0  0  0  0  0  0
    2.7665   -1.1009    3.1053 C   0  0  0  0  0  0  0  0  0  0  0  0
    2.8966   -1.0163    0.8568 O   0  0  0  0  0  0  0  0  0  0  0  0
    2.1234   -3.1120    1.6750 C   0  0  0  0  0  0  0  0  0  0  0  0
    2.5338   -4.5278    2.1682 C   0  0  1  0  0  0  0  0  0  0  0  0
    1.7595   -5.4112    1.3680 O   0  0  0  0  0  0  0  0  0  0  0  0
    2.1313   -4.6317    3.6840 C   0  0  1  0  0  0  0  0  0  0  0  0
    1.4321   -5.8040    4.0513 O   0  0  0  0  0  0  0  0  0  0  0  0
    3.4328   -4.4380    4.4975 C   0  0  1  0  0  0  0  0  0  0  0  0
    3.7095   -5.4022    5.6808 C   0  0  0  0  0  0  0  0  0  0  0  0
    3.0946   -9.5386    2.7629 H   0  0  0  0  0  0  0  0  0  0  0  0
    4.7766   -9.2604    2.3172 H   0  0  0  0  0  0  0  0  0  0  0  0
    3.4837   -9.0680    1.0996 H   0  0  0  0  0  0  0  0  0  0  0  0
    2.4693   -7.3615    2.4735 H   0  0  0  0  0  0  0  0  0  0  0  0
    3.7958   -7.3982    3.6315 H   0  0  0  0  0  0  0  0  0  0  0  0
    4.2011   -6.5839    0.7106 H   0  0  0  0  0  0  0  0  0  0  0  0
    5.8809   -6.5750    2.9835 H   0  0  0  0  0  0  0  0  0  0  0  0
    5.4272   -4.9501    3.8238 H   0  0  0  0  0  0  0  0  0  0  0  0
    4.8361   -2.1964    4.0411 H   0  0  0  0  0  0  0  0  0  0  0  0
    6.2057   -2.8734    3.3050 H   0  0  0  0  0  0  0  0  0  0  0  0
    5.1513   -0.4774    1.0533 H   0  0  0  0  0  0  0  0  0  0  0  0
    7.1266   -2.3578    1.3590 H   0  0  0  0  0  0  0  0  0  0  0  0
    3.5327   -3.2022   -0.5135 H   0  0  0  0  0  0  0  0  0  0  0  0
    5.3204   -5.1471   -1.3791 H   0  0  0  0  0  0  0  0  0  0  0  0
    5.9172   -2.2592   -2.6728 H   0  0  0  0  0  0  0  0  0  0  0  0
    6.5767   -3.8576   -3.2719 H   0  0  0  0  0  0  0  0  0  0  0  0
    7.0795   -3.6676    0.4617 H   0  0  0  0  0  0  0  0  0  0  0  0
    6.5028   -5.2736    0.5046 H   0  0  0  0  0  0  0  0  0  0  0  0
    6.8908   -4.4804    2.0004 H   0  0  0  0  0  0  0  0  0  0  0  0
    2.6893   -1.6389    4.0464 H   0  0  0  0  0  0  0  0  0  0  0  0
    1.7984   -0.6267    2.9672 H   0  0  0  0  0  0  0  0  0  0  0  0
    3.4842   -0.2892    3.2509 H   0  0  0  0  0  0  0  0  0  0  0  0
    1.9957   -1.0598    0.5347 H   0  0  0  0  0  0  0  0  0  0  0  0
    1.1947   -2.7894    2.1318 H   0  0  0  0  0  0  0  0  0  0  0  0
    1.8295   -3.1665    0.6268 H   0  0  0  0  0  0  0  0  0  0  0  0
    2.2094   -5.5394    0.5377 H   0  0  0  0  0  0  0  0  0  0  0  0
    1.4235   -3.8495    3.9651 H   0  0  0  0  0  0  0  0  0  0  0  0
    1.9310   -6.5549    3.7657 H   0  0  0  0  0  0  0  0  0  0  0  0
    3.3259   -3.4633    4.9797 H   0  0  0  0  0  0  0  0  0  0  0  0
    3.8906   -6.4348    5.3885 H   0  0  0  0  0  0  0  0  0  0  0  0
    2.8858   -5.3877    6.3871 H   0  0  0  0  0  0  0  0  0  0  0  0
    4.5921   -5.0562    6.2200 H   0  0  0  0  0  0  0  0  0  0  0  0
  1  2  1  0
  1 28  1  0
  1 29  1  0
  1 30  1  0
  2  3  1  0
  2 31  1  0
  2 32  1  0
  3  4  1  0
  3  5  1  0
  3 33  1  6
  4 34  1  0
  5 16  1  0
  5 22  1  1
  5  6  1  0
  6 26  1  0
  6  7  1  0
  6 35  1  1
  8  7  1  1
  7 36  1  0
  7 37  1  0
  8 16  1  0
  8  9  1  0
  8 18  1  0
  9 10  1  0
  9 11  1  0
  9 38  1  6
 10 39  1  0
 11 12  1  0
 12 13  1  0
 12 16  1  0
 12 40  1  6
 13 15  1  0
 13 14  1  0
 13 41  1  1
 14 15  1  0
 14 42  1  0
 14 43  1  0
 16 17  1  6
 17 44  1  0
 17 45  1  0
 17 46  1  0
 18 19  1  0
 18 20  1  6
 18 21  1  0
 19 47  1  0
 19 48  1  0
 19 49  1  0
 20 50  1  0
 21 22  1  0
 21 51  1  0
 21 52  1  0
 22 23  1  6
 22 24  1  0
 23 53  1  0
 24 25  1  0
 24 26  1  0
 24 54  1  1
 25 55  1  0
 26 27  1  0
 26 56  1  1
 27 57  1  0
 27 58  1  0
 27 59  1  0
M  END
>  <i_m_ct_stereo_status>  (171) 
1

>  <s_m_source_file>  (171) 
/var/tmp/pbs.5076255.sched01/tmp403565pz/80s7duc8s0.sdf

>  <i_m_source_file_index>  (171) 
7

>  <i_lp_mmshare_version>  (171) 
48012

>  <i_f3d_flags>  (171) 
0

>  <s_epik_input>  (171) 
W09IXVtDQEhdMU9bQ0BASF0oW0NAQEhdMltDSDJdTzIpW0NAXShbQ0BdMTM0KShbQ0gzXSlbQ0BAXTUoW0NAQEhdKFtPSF0pW0NIMl1bQ0gzXSlbQ0BASF0oW0NIMl0zKVtDQEhdKFtDSDNdKVtDQEhdKFtPSF0pW0NAQF01KFtPSF0pW0NIMl1bQ0BdNChbQ0gzXSlbT0hd

>  <s_epik_cmdline>  (171) 
J2VwaWtfcHl0aG9uJywgJy1waHQnLCAnMi4wJywgJy1waCcsICc3LjAnLCAnLXRuJywgJzgnLCAnLW1hJywgJzIwMCcsICctaW1hZScsICc8aW5maWxlLm1hZT4nLCAnLW9tYWUnLCAnPG91dGZpbGUubWFlPic=

>  <r_lp_tautomer_probability>  (171) 
1

>  <r_epik_Ionization_Penalty>  (171) 
1.61806e-06

>  <r_epik_Ionization_Penalty_Charging>  (171) 
0

>  <r_epik_Ionization_Penalty_Neutral>  (171) 
1.61806e-06

>  <r_epik_State_Penalty>  (171) 
-0

>  <r_epik_Charging_Adjusted_Penalty>  (171) 
0

>  <i_epik_Tot_Q>  (171) 
0

>  <i_epik_Tot_abs_Q>  (171) 
0

>  <s_epik_Chemistry_Notes>  (171) 
This compound contains an acetal/aminal-like group ( X-CH(R)-Y where X, Y are N, S, or O) that may be acid/base labile, releasing an aldehyde.

>  <s_lp_Force_Field>  (171) 
OPLS3e

>  <r_lp_Energy>  (171) 
83.2563

>  <b_lp_Chiralities_Consistent>  (171) 
1

>  <s_lp_Variant>  (171) 
62:0-1

>  <s_i_glide_gridfile>  (171) 
pfpi4k_grid

>  <i_i_glide_lignum>  (171) 
7

>  <i_i_glide_rotatable_bonds>  (171) 
8

>  <r_i_docking_score>  (171) 
-2.6711

>  <r_i_glide_ligand_efficiency>  (171) 
-0.0989295

>  <r_i_glide_ligand_efficiency_sa>  (171) 
-0.296789

>  <r_i_glide_ligand_efficiency_ln>  (171) 
-0.621787

>  <r_i_glide_gscore>  (171) 
-2.6711

>  <r_i_glide_lipo>  (171) 
-0.616455

>  <r_i_glide_hbond>  (171) 
0

>  <r_i_glide_metal>  (171) 
-0

>  <r_i_glide_rewards>  (171) 
-0.929556

>  <r_i_glide_evdw>  (171) 
-13.5289

>  <r_i_glide_ecoul>  (171) 
-4.74478

>  <r_i_glide_erotb>  (171) 
0.263075

>  <r_i_glide_esite>  (171) 
0

>  <r_i_glide_emodel>  (171) 
-18.3931

>  <r_i_glide_energy>  (171) 
-18.2736

>  <r_i_glide_einternal>  (171) 
7.07947

>  <r_i_glide_intrahb_reward>  (171) 
-0

>  <i_i_glide_confnum>  (171) 
6

>  <i_i_glide_posenum>  (171) 
15

>  <r_i_glide_eff_state_penalty>  (171) 
0

>  <ligand_id>  (171) 
62

>  <original_smiles>  (171) 
CCC(O)C12C3CC4(C(O)OC(C5CO5)C41C)C(C)(O)CC2(O)C(O)C3C

>  <smiles>  (171) 
[H]OC1([H])OC([H])(C2([H])OC2([H])[H])C2(C([H])([H])[H])C13C([H])([H])C1([H])C([H])(C([H])([H])[H])C([H])(O[H])C(O[H])(C([H])([H])C3(O[H])C([H])([H])[H])C12C([H])(O[H])C([H])([H])C([H])([H])[H]

$$$$
62:0:2
     RDKit          3D

 59 63  0  0  1  0  0  0  0  0999 V2000
   -0.0629   -6.2067    3.9685 C   0  0  0  0  0  0  0  0  0  0  0  0
    0.8291   -4.9557    3.9561 C   0  0  0  0  0  0  0  0  0  0  0  0
    1.9226   -4.8726    2.8529 C   0  0  2  0  0  0  0  0  0  0  0  0
    2.5124   -6.1599    2.8968 O   0  0  0  0  0  0  0  0  0  0  0  0
    3.0102   -3.6961    2.9343 C   0  0  1  0  0  0  0  0  0  0  0  0
    4.0218   -3.9131    4.1192 C   0  0  1  0  0  0  0  0  0  0  0  0
    5.4104   -3.4198    3.6005 C   0  0  0  0  0  0  0  0  0  0  0  0
    5.1006   -2.7002    2.2672 C   0  0  1  0  0  0  0  0  0  0  0  0
    6.1266   -2.6734    1.1100 C   0  0  1  0  0  0  0  0  0  0  0  0
    7.0468   -3.7416    1.1619 O   0  0  0  0  0  0  0  0  0  0  0  0
    5.2929   -2.7159   -0.0313 O   0  0  0  0  0  0  0  0  0  0  0  0
    3.9058   -3.0097    0.3023 C   0  0  1  0  0  0  0  0  0  0  0  0
    3.2986   -3.8073   -0.8422 C   0  0  2  0  0  0  0  0  0  0  0  0
    2.5797   -3.1283   -1.9669 C   0  0  0  0  0  0  0  0  0  0  0  0
    1.8682   -3.8376   -0.9340 O   0  0  0  0  0  0  0  0  0  0  0  0
    4.0377   -3.6743    1.6979 C   0  0  2  0  0  0  0  0  0  0  0  0
    4.5436   -5.1431    1.3811 C   0  0  0  0  0  0  0  0  0  0  0  0
    4.6262   -1.1783    2.5161 C   0  0  1  0  0  0  0  0  0  0  0  0
    5.3906   -0.4390    3.6437 C   0  0  0  0  0  0  0  0  0  0  0  0
    4.8959   -0.2904    1.4309 O   0  0  0  0  0  0  0  0  0  0  0  0
    3.1018   -1.0526    2.7328 C   0  0  0  0  0  0  0  0  0  0  0  0
    2.3922   -2.2883    3.3438 C   0  0  1  0  0  0  0  0  0  0  0  0
    1.0682   -2.1146    2.8915 O   0  0  0  0  0  0  0  0  0  0  0  0
    2.4381   -2.1874    4.9108 C   0  0  1  0  0  0  0  0  0  0  0  0
    1.2119   -2.4400    5.5790 O   0  0  0  0  0  0  0  0  0  0  0  0
    3.5491   -3.1495    5.3758 C   0  0  1  0  0  0  0  0  0  0  0  0
    3.2936   -4.0412    6.6196 C   0  0  0  0  0  0  0  0  0  0  0  0
   -0.7897   -6.1408    4.7808 H   0  0  0  0  0  0  0  0  0  0  0  0
    0.5124   -7.1078    4.1664 H   0  0  0  0  0  0  0  0  0  0  0  0
   -0.5960   -6.3571    3.0270 H   0  0  0  0  0  0  0  0  0  0  0  0
    0.1472   -4.1105    3.8995 H   0  0  0  0  0  0  0  0  0  0  0  0
    1.3041   -4.9402    4.9169 H   0  0  0  0  0  0  0  0  0  0  0  0
    1.4203   -4.7902    1.8835 H   0  0  0  0  0  0  0  0  0  0  0  0
    3.0362   -6.2354    3.6713 H   0  0  0  0  0  0  0  0  0  0  0  0
    4.1474   -4.9645    4.3768 H   0  0  0  0  0  0  0  0  0  0  0  0
    5.9251   -2.8069    4.3249 H   0  0  0  0  0  0  0  0  0  0  0  0
    6.0606   -4.2729    3.4397 H   0  0  0  0  0  0  0  0  0  0  0  0
    6.7516   -1.7870    1.0947 H   0  0  0  0  0  0  0  0  0  0  0  0
    6.5540   -4.5336    1.2579 H   0  0  0  0  0  0  0  0  0  0  0  0
    3.3548   -2.0783    0.3488 H   0  0  0  0  0  0  0  0  0  0  0  0
    3.8147   -4.7191   -1.1182 H   0  0  0  0  0  0  0  0  0  0  0  0
    2.4951   -2.0415   -1.9415 H   0  0  0  0  0  0  0  0  0  0  0  0
    2.5726   -3.6090   -2.9447 H   0  0  0  0  0  0  0  0  0  0  0  0
    5.3042   -5.2179    0.6076 H   0  0  0  0  0  0  0  0  0  0  0  0
    3.7318   -5.7457    0.9740 H   0  0  0  0  0  0  0  0  0  0  0  0
    4.9265   -5.6873    2.2424 H   0  0  0  0  0  0  0  0  0  0  0  0
    5.1700   -0.8004    4.6441 H   0  0  0  0  0  0  0  0  0  0  0  0
    5.1333    0.6191    3.6662 H   0  0  0  0  0  0  0  0  0  0  0  0
    6.4685   -0.4835    3.4923 H   0  0  0  0  0  0  0  0  0  0  0  0
    4.3649   -0.5322    0.6873 H   0  0  0  0  0  0  0  0  0  0  0  0
    2.8914   -0.1521    3.3123 H   0  0  0  0  0  0  0  0  0  0  0  0
    2.6338   -0.7899    1.7845 H   0  0  0  0  0  0  0  0  0  0  0  0
    1.0944   -1.8387    1.9874 H   0  0  0  0  0  0  0  0  0  0  0  0
    2.6742   -1.1659    5.2259 H   0  0  0  0  0  0  0  0  0  0  0  0
    0.9167   -3.2944    5.3132 H   0  0  0  0  0  0  0  0  0  0  0  0
    4.3472   -2.4931    5.7116 H   0  0  0  0  0  0  0  0  0  0  0  0
    2.5603   -4.8338    6.4965 H   0  0  0  0  0  0  0  0  0  0  0  0
    2.9876   -3.4404    7.4763 H   0  0  0  0  0  0  0  0  0  0  0  0
    4.2256   -4.5263    6.9108 H   0  0  0  0  0  0  0  0  0  0  0  0
  1  2  1  0
  1 28  1  0
  1 29  1  0
  1 30  1  0
  2  3  1  0
  2 31  1  0
  2 32  1  0
  3  4  1  0
  3  5  1  0
  3 33  1  6
  4 34  1  0
  5 16  1  0
  5 22  1  1
  5  6  1  0
  6 26  1  0
  6  7  1  0
  6 35  1  1
  8  7  1  1
  7 36  1  0
  7 37  1  0
  8 16  1  0
  8  9  1  0
  8 18  1  0
  9 10  1  0
  9 11  1  0
  9 38  1  6
 10 39  1  0
 11 12  1  0
 12 13  1  0
 12 16  1  0
 12 40  1  1
 13 15  1  0
 13 14  1  0
 13 41  1  6
 14 15  1  0
 14 42  1  0
 14 43  1  0
 16 17  1  6
 17 44  1  0
 17 45  1  0
 17 46  1  0
 18 19  1  0
 18 20  1  6
 18 21  1  0
 19 47  1  0
 19 48  1  0
 19 49  1  0
 20 50  1  0
 21 22  1  0
 21 51  1  0
 21 52  1  0
 22 23  1  6
 22 24  1  0
 23 53  1  0
 24 25  1  0
 24 26  1  0
 24 54  1  6
 25 55  1  0
 26 27  1  0
 26 56  1  1
 27 57  1  0
 27 58  1  0
 27 59  1  0
M  END
>  <i_m_ct_stereo_status>  (172) 
1

>  <s_m_source_file>  (172) 
/var/tmp/pbs.5076255.sched01/tmp403565pz/80s7duc8s0.sdf

>  <i_m_source_file_index>  (172) 
7

>  <i_lp_mmshare_version>  (172) 
48012

>  <i_f3d_flags>  (172) 
0

>  <s_epik_input>  (172) 
W09IXVtDQEhdMU9bQ0BASF0oW0NAQEhdMltDSDJdTzIpW0NAXShbQ0BdMTM0KShbQ0gzXSlbQ0BAXTUoW0NAQEhdKFtPSF0pW0NIMl1bQ0gzXSlbQ0BASF0oW0NIMl0zKVtDQEhdKFtDSDNdKVtDQEhdKFtPSF0pW0NAQF01KFtPSF0pW0NIMl1bQ0BdNChbQ0gzXSlbT0hd

>  <s_epik_cmdline>  (172) 
J2VwaWtfcHl0aG9uJywgJy1waHQnLCAnMi4wJywgJy1waCcsICc3LjAnLCAnLXRuJywgJzgnLCAnLW1hJywgJzIwMCcsICctaW1hZScsICc8aW5maWxlLm1hZT4nLCAnLW9tYWUnLCAnPG91dGZpbGUubWFlPic=

>  <r_lp_tautomer_probability>  (172) 
1

>  <r_epik_Ionization_Penalty>  (172) 
1.61806e-06

>  <r_epik_Ionization_Penalty_Charging>  (172) 
0

>  <r_epik_Ionization_Penalty_Neutral>  (172) 
1.61806e-06

>  <r_epik_State_Penalty>  (172) 
-0

>  <r_epik_Charging_Adjusted_Penalty>  (172) 
0

>  <i_epik_Tot_Q>  (172) 
0

>  <i_epik_Tot_abs_Q>  (172) 
0

>  <s_epik_Chemistry_Notes>  (172) 
This compound contains an acetal/aminal-like group ( X-CH(R)-Y where X, Y are N, S, or O) that may be acid/base labile, releasing an aldehyde.

>  <s_lp_Force_Field>  (172) 
OPLS3e

>  <r_lp_Energy>  (172) 
83.2563

>  <b_lp_Chiralities_Consistent>  (172) 
1

>  <s_lp_Variant>  (172) 
62:0-1

>  <s_i_glide_gridfile>  (172) 
pfpi4k_grid

>  <i_i_glide_lignum>  (172) 
7

>  <i_i_glide_rotatable_bonds>  (172) 
8

>  <r_i_docking_score>  (172) 
-2.09385

>  <r_i_glide_ligand_efficiency>  (172) 
-0.07755

>  <r_i_glide_ligand_efficiency_sa>  (172) 
-0.23265

>  <r_i_glide_ligand_efficiency_ln>  (172) 
-0.487414

>  <r_i_glide_gscore>  (172) 
-2.09385

>  <r_i_glide_lipo>  (172) 
-0.36061

>  <r_i_glide_hbond>  (172) 
-0.0116186

>  <r_i_glide_metal>  (172) 
-0

>  <r_i_glide_rewards>  (172) 
-0.924171

>  <r_i_glide_evdw>  (172) 
-15.6

>  <r_i_glide_ecoul>  (172) 
-1.87018

>  <r_i_glide_erotb>  (172) 
0.263075

>  <r_i_glide_esite>  (172) 
0

>  <r_i_glide_emodel>  (172) 
-17.1544

>  <r_i_glide_energy>  (172) 
-17.4701

>  <r_i_glide_einternal>  (172) 
6.88645

>  <r_i_glide_intrahb_reward>  (172) 
-0

>  <i_i_glide_confnum>  (172) 
6

>  <i_i_glide_posenum>  (172) 
1

>  <r_i_glide_eff_state_penalty>  (172) 
0

>  <ligand_id>  (172) 
62

>  <original_smiles>  (172) 
CCC(O)C12C3CC4(C(O)OC(C5CO5)C41C)C(C)(O)CC2(O)C(O)C3C

>  <smiles>  (172) 
[H]OC1([H])OC([H])(C2([H])OC2([H])[H])C2(C([H])([H])[H])C13C([H])([H])C1([H])C([H])(C([H])([H])[H])C([H])(O[H])C(O[H])(C([H])([H])C3(O[H])C([H])([H])[H])C12C([H])(O[H])C([H])([H])C([H])([H])[H]

$$$$
63:0:0
     RDKit          3D

 38 40  0  0  1  0  0  0  0  0999 V2000
   -5.1509    4.7591    2.0778 C   0  0  0  0  0  0  0  0  0  0  0  0
   -4.4397    3.4001    2.1052 C   0  0  0  0  0  0  0  0  0  0  0  0
   -3.8350    3.2422    3.3811 O   0  0  0  0  0  0  0  0  0  0  0  0
   -2.5720    2.6143    3.4139 C   0  0  2  0  0  0  0  0  0  0  0  0
   -2.1822    2.1554    4.8313 C   0  0  0  0  0  0  0  0  0  0  0  0
   -0.6895    2.4828    5.0211 C   0  0  0  0  0  0  0  0  0  0  0  0
   -0.2336    3.0051    3.6533 C   0  0  1  0  0  0  0  0  0  0  0  0
   -1.4866    3.5947    3.0169 C   0  0  2  0  0  0  0  0  0  0  0  0
   -1.7582    4.9213    3.4593 O   0  0  0  0  0  0  0  0  0  0  0  0
   -0.6627    5.7685    3.1481 C   0  0  0  0  0  0  0  0  0  0  0  0
    0.5632    5.3456    3.9558 C   0  0  0  0  0  0  0  0  0  0  0  0
    0.9171    3.9404    3.6896 N   0  0  0  0  0  0  0  0  0  0  0  0
    2.2230    3.5921    3.6235 C   0  0  0  0  0  0  0  0  0  0  0  0
    3.1373    4.3694    3.9032 O   0  0  0  0  0  0  0  0  0  0  0  0
    2.5427    2.1816    3.2600 C   0  0  0  0  0  0  0  0  0  0  0  0
    3.4207    1.3535    4.0173 C   0  0  0  0  0  0  0  0  0  0  0  0
    3.5381    0.0888    3.5077 C   0  0  0  0  0  0  0  0  0  0  0  0
    2.5994   -0.0978    2.0536 S   0  0  0  0  0  0  0  0  0  0  0  0
    2.0717    1.5545    2.1344 C   0  0  0  0  0  0  0  0  0  0  0  0
   -5.6310    4.9379    1.1121 H   0  0  0  0  0  0  0  0  0  0  0  0
   -4.4419    5.5693    2.2485 H   0  0  0  0  0  0  0  0  0  0  0  0
   -5.9215    4.8191    2.8443 H   0  0  0  0  0  0  0  0  0  0  0  0
   -5.1520    2.5914    1.9476 H   0  0  0  0  0  0  0  0  0  0  0  0
   -3.7287    3.3440    1.2864 H   0  0  0  0  0  0  0  0  0  0  0  0
   -2.5445    1.7539    2.7444 H   0  0  0  0  0  0  0  0  0  0  0  0
   -2.7603    2.6960    5.5799 H   0  0  0  0  0  0  0  0  0  0  0  0
   -2.3699    1.0870    4.9504 H   0  0  0  0  0  0  0  0  0  0  0  0
   -0.5503    3.2407    5.7986 H   0  0  0  0  0  0  0  0  0  0  0  0
   -0.1088    1.5985    5.2867 H   0  0  0  0  0  0  0  0  0  0  0  0
   -0.0520    2.1179    3.0497 H   0  0  0  0  0  0  0  0  0  0  0  0
   -1.4039    3.5689    1.9544 H   0  0  0  0  0  0  0  0  0  0  0  0
   -0.4749    5.7850    2.0836 H   0  0  0  0  0  0  0  0  0  0  0  0
   -0.9140    6.7961    3.3753 H   0  0  0  0  0  0  0  0  0  0  0  0
    1.3711    6.0381    3.7009 H   0  0  0  0  0  0  0  0  0  0  0  0
    0.3794    5.4669    5.0222 H   0  0  0  0  0  0  0  0  0  0  0  0
    3.9124    1.7107    4.9092 H   0  0  0  0  0  0  0  0  0  0  0  0
    4.1189   -0.7423    3.8879 H   0  0  0  0  0  0  0  0  0  0  0  0
    1.4290    1.9681    1.3638 H   0  0  0  0  0  0  0  0  0  0  0  0
  1  2  1  0
  1 20  1  0
  1 21  1  0
  1 22  1  0
  2  3  1  0
  2 23  1  0
  2 24  1  0
  3  4  1  0
  4  8  1  0
  4  5  1  0
  4 25  1  6
  5  6  1  0
  5 26  1  0
  5 27  1  0
  6  7  1  0
  6 28  1  0
  6 29  1  0
  7 12  1  0
  7  8  1  0
  7 30  1  6
  8  9  1  0
  8 31  1  6
  9 10  1  0
 10 11  1  0
 10 32  1  0
 10 33  1  0
 11 12  1  0
 11 34  1  0
 11 35  1  0
 12 13  1  0
 13 14  2  0
 13 15  1  0
 15 19  2  0
 15 16  1  0
 16 17  2  0
 16 36  1  0
 17 18  1  0
 17 37  1  0
 18 19  1  0
 19 38  1  0
M  END
>  <i_m_ct_stereo_status>  (173) 
1

>  <s_m_source_file>  (173) 
/var/tmp/pbs.5076255.sched01/tmp403565pz/80s7duc8s0.sdf

>  <i_m_source_file_index>  (173) 
8

>  <i_lp_mmshare_version>  (173) 
48012

>  <i_f3d_flags>  (173) 
0

>  <s_epik_input>  (173) 
W0NIM11bQ0gyXU9bQ0BIXShbQ0gyXVtDSDJdMSlbQ0BIXShbQ0BIXTEyKU9bQ0gyXVtDSDJdTjJDKD1PKWMzW2NIXVtjSF1zW2NIXTM=

>  <s_epik_cmdline>  (173) 
J2VwaWtfcHl0aG9uJywgJy1waHQnLCAnMi4wJywgJy1waCcsICc3LjAnLCAnLXRuJywgJzgnLCAnLW1hJywgJzIwMCcsICctaW1hZScsICc8aW5maWxlLm1hZT4nLCAnLW9tYWUnLCAnPG91dGZpbGUubWFlPic=

>  <r_lp_tautomer_probability>  (173) 
1

>  <r_epik_Ionization_Penalty>  (173) 
2.82177e-10

>  <r_epik_Ionization_Penalty_Charging>  (173) 
0

>  <r_epik_Ionization_Penalty_Neutral>  (173) 
2.82177e-10

>  <r_epik_State_Penalty>  (173) 
-0

>  <r_epik_Charging_Adjusted_Penalty>  (173) 
0

>  <i_epik_Tot_Q>  (173) 
0

>  <i_epik_Tot_abs_Q>  (173) 
0

>  <s_lp_Force_Field>  (173) 
OPLS3e

>  <r_lp_Energy>  (173) 
39.367

>  <b_lp_Chiralities_Consistent>  (173) 
1

>  <s_lp_Variant>  (173) 
63:0-1

>  <s_i_glide_gridfile>  (173) 
pfpi4k_grid

>  <i_i_glide_lignum>  (173) 
8

>  <i_i_glide_rotatable_bonds>  (173) 
4

>  <r_i_docking_score>  (173) 
-2.7904

>  <r_i_glide_ligand_efficiency>  (173) 
-0.146863

>  <r_i_glide_ligand_efficiency_sa>  (173) 
-0.39189

>  <r_i_glide_ligand_efficiency_ln>  (173) 
-0.707426

>  <r_i_glide_gscore>  (173) 
-2.7904

>  <r_i_glide_lipo>  (173) 
-0.252748

>  <r_i_glide_hbond>  (173) 
-0.16

>  <r_i_glide_metal>  (173) 
-0

>  <r_i_glide_rewards>  (173) 
-1.49065

>  <r_i_glide_evdw>  (173) 
-15.0459

>  <r_i_glide_ecoul>  (173) 
-4.72351

>  <r_i_glide_erotb>  (173) 
0.68495

>  <r_i_glide_esite>  (173) 
-0.111129

>  <r_i_glide_emodel>  (173) 
-21.6937

>  <r_i_glide_energy>  (173) 
-19.7694

>  <r_i_glide_einternal>  (173) 
2.7254

>  <r_i_glide_intrahb_reward>  (173) 
-0

>  <i_i_glide_confnum>  (173) 
6

>  <i_i_glide_posenum>  (173) 
25

>  <r_i_glide_eff_state_penalty>  (173) 
0

>  <ligand_id>  (173) 
63

>  <original_smiles>  (173) 
CCOC1CCC2C1OCCN2C(=O)c1ccsc1

>  <smiles>  (173) 
[H]c1sc([H])c(C(=O)N2C([H])([H])C([H])([H])OC3([H])C([H])(OC([H])([H])C([H])([H])[H])C([H])([H])C([H])([H])C23[H])c1[H]

$$$$
63:0:1
     RDKit          3D

 38 40  0  0  1  0  0  0  0  0999 V2000
   -3.8822    3.5639    2.3636 C   0  0  0  0  0  0  0  0  0  0  0  0
   -2.4836    4.1421    2.6241 C   0  0  0  0  0  0  0  0  0  0  0  0
   -2.1887    4.1770    4.0176 O   0  0  0  0  0  0  0  0  0  0  0  0
   -1.7641    2.9344    4.5595 C   0  0  2  0  0  0  0  0  0  0  0  0
   -1.5980    3.0214    6.0858 C   0  0  0  0  0  0  0  0  0  0  0  0
   -0.3331    2.2207    6.4422 C   0  0  0  0  0  0  0  0  0  0  0  0
    0.1046    1.5623    5.1251 C   0  0  1  0  0  0  0  0  0  0  0  0
   -0.4041    2.4843    4.0174 C   0  0  2  0  0  0  0  0  0  0  0  0
    0.4481    3.6027    3.8299 O   0  0  0  0  0  0  0  0  0  0  0  0
    1.7412    3.1824    3.4302 C   0  0  0  0  0  0  0  0  0  0  0  0
    2.3962    2.4247    4.5943 C   0  0  0  0  0  0  0  0  0  0  0  0
    1.5616    1.2787    5.0292 N   0  0  0  0  0  0  0  0  0  0  0  0
    2.1727    0.1279    5.4296 C   0  0  0  0  0  0  0  0  0  0  0  0
    3.3855    0.0021    5.4623 O   0  0  0  0  0  0  0  0  0  0  0  0
    1.2869   -0.9855    5.8979 C   0  0  0  0  0  0  0  0  0  0  0  0
    1.5110   -1.6626    7.1524 C   0  0  0  0  0  0  0  0  0  0  0  0
    0.5709   -2.6158    7.4039 C   0  0  0  0  0  0  0  0  0  0  0  0
   -0.5780   -2.7558    6.0981 S   0  0  0  0  0  0  0  0  0  0  0  0
    0.2773   -1.5290    5.2035 C   0  0  0  0  0  0  0  0  0  0  0  0
   -4.1156    3.5460    1.2952 H   0  0  0  0  0  0  0  0  0  0  0  0
   -4.6556    4.1404    2.8651 H   0  0  0  0  0  0  0  0  0  0  0  0
   -3.9560    2.5447    2.7164 H   0  0  0  0  0  0  0  0  0  0  0  0
   -1.7297    3.5794    2.0783 H   0  0  0  0  0  0  0  0  0  0  0  0
   -2.4260    5.1623    2.2438 H   0  0  0  0  0  0  0  0  0  0  0  0
   -2.4984    2.1497    4.3556 H   0  0  0  0  0  0  0  0  0  0  0  0
   -1.4667    4.0562    6.3922 H   0  0  0  0  0  0  0  0  0  0  0  0
   -2.4912    2.6340    6.5891 H   0  0  0  0  0  0  0  0  0  0  0  0
    0.4338    2.8858    6.8534 H   0  0  0  0  0  0  0  0  0  0  0  0
   -0.5395    1.4543    7.1865 H   0  0  0  0  0  0  0  0  0  0  0  0
   -0.5070    0.6782    5.0162 H   0  0  0  0  0  0  0  0  0  0  0  0
   -0.5070    1.9295    3.0880 H   0  0  0  0  0  0  0  0  0  0  0  0
    1.6848    2.5592    2.5303 H   0  0  0  0  0  0  0  0  0  0  0  0
    2.3324    4.0599    3.1793 H   0  0  0  0  0  0  0  0  0  0  0  0
    3.3879    2.1215    4.2723 H   0  0  0  0  0  0  0  0  0  0  0  0
    2.5439    3.0898    5.4377 H   0  0  0  0  0  0  0  0  0  0  0  0
    2.3254   -1.3988    7.8078 H   0  0  0  0  0  0  0  0  0  0  0  0
    0.4919   -3.2651    8.2805 H   0  0  0  0  0  0  0  0  0  0  0  0
   -0.0791   -1.2393    4.1949 H   0  0  0  0  0  0  0  0  0  0  0  0
  1  2  1  0
  1 20  1  0
  1 21  1  0
  1 22  1  0
  2  3  1  0
  2 23  1  0
  2 24  1  0
  3  4  1  0
  4  8  1  0
  4  5  1  0
  4 25  1  1
  5  6  1  0
  5 26  1  0
  5 27  1  0
  6  7  1  0
  6 28  1  0
  6 29  1  0
  7 12  1  0
  7  8  1  0
  7 30  1  6
  8  9  1  0
  8 31  1  6
  9 10  1  0
 10 11  1  0
 10 32  1  0
 10 33  1  0
 11 12  1  0
 11 34  1  0
 11 35  1  0
 12 13  1  0
 13 14  2  0
 13 15  1  0
 15 19  2  0
 15 16  1  0
 16 17  2  0
 16 36  1  0
 17 18  1  0
 17 37  1  0
 18 19  1  0
 19 38  1  0
M  END
>  <i_m_ct_stereo_status>  (174) 
1

>  <s_m_source_file>  (174) 
/var/tmp/pbs.5076255.sched01/tmp403565pz/80s7duc8s0.sdf

>  <i_m_source_file_index>  (174) 
8

>  <i_lp_mmshare_version>  (174) 
48012

>  <i_f3d_flags>  (174) 
0

>  <s_epik_input>  (174) 
W0NIM11bQ0gyXU9bQ0BIXShbQ0gyXVtDSDJdMSlbQ0BIXShbQ0BIXTEyKU9bQ0gyXVtDSDJdTjJDKD1PKWMzW2NIXVtjSF1zW2NIXTM=

>  <s_epik_cmdline>  (174) 
J2VwaWtfcHl0aG9uJywgJy1waHQnLCAnMi4wJywgJy1waCcsICc3LjAnLCAnLXRuJywgJzgnLCAnLW1hJywgJzIwMCcsICctaW1hZScsICc8aW5maWxlLm1hZT4nLCAnLW9tYWUnLCAnPG91dGZpbGUubWFlPic=

>  <r_lp_tautomer_probability>  (174) 
1

>  <r_epik_Ionization_Penalty>  (174) 
2.82177e-10

>  <r_epik_Ionization_Penalty_Charging>  (174) 
0

>  <r_epik_Ionization_Penalty_Neutral>  (174) 
2.82177e-10

>  <r_epik_State_Penalty>  (174) 
-0

>  <r_epik_Charging_Adjusted_Penalty>  (174) 
0

>  <i_epik_Tot_Q>  (174) 
0

>  <i_epik_Tot_abs_Q>  (174) 
0

>  <s_lp_Force_Field>  (174) 
OPLS3e

>  <r_lp_Energy>  (174) 
39.367

>  <b_lp_Chiralities_Consistent>  (174) 
1

>  <s_lp_Variant>  (174) 
63:0-1

>  <s_i_glide_gridfile>  (174) 
pfpi4k_grid

>  <i_i_glide_lignum>  (174) 
8

>  <i_i_glide_rotatable_bonds>  (174) 
4

>  <r_i_docking_score>  (174) 
-2.42658

>  <r_i_glide_ligand_efficiency>  (174) 
-0.127715

>  <r_i_glide_ligand_efficiency_sa>  (174) 
-0.340794

>  <r_i_glide_ligand_efficiency_ln>  (174) 
-0.61519

>  <r_i_glide_gscore>  (174) 
-2.42658

>  <r_i_glide_lipo>  (174) 
-0.335644

>  <r_i_glide_hbond>  (174) 
-0.0902684

>  <r_i_glide_metal>  (174) 
-0

>  <r_i_glide_rewards>  (174) 
-1.49065

>  <r_i_glide_evdw>  (174) 
-15.5381

>  <r_i_glide_ecoul>  (174) 
-2.7791

>  <r_i_glide_erotb>  (174) 
0.68495

>  <r_i_glide_esite>  (174) 
-0.00119667

>  <r_i_glide_emodel>  (174) 
-20.2533

>  <r_i_glide_energy>  (174) 
-18.3172

>  <r_i_glide_einternal>  (174) 
1.71826

>  <r_i_glide_intrahb_reward>  (174) 
-0

>  <i_i_glide_confnum>  (174) 
5

>  <i_i_glide_posenum>  (174) 
23

>  <r_i_glide_eff_state_penalty>  (174) 
0

>  <ligand_id>  (174) 
63

>  <original_smiles>  (174) 
CCOC1CCC2C1OCCN2C(=O)c1ccsc1

>  <smiles>  (174) 
[H]c1sc([H])c(C(=O)N2C([H])([H])C([H])([H])OC3([H])C([H])(OC([H])([H])C([H])([H])[H])C([H])([H])C([H])([H])C23[H])c1[H]

$$$$
63:0:2
     RDKit          3D

 38 40  0  0  1  0  0  0  0  0999 V2000
    4.4398   -4.4470   -4.2348 C   0  0  0  0  0  0  0  0  0  0  0  0
    5.1936   -4.0780   -2.9578 C   0  0  0  0  0  0  0  0  0  0  0  0
    4.9812   -2.7186   -2.6830 O   0  0  0  0  0  0  0  0  0  0  0  0
    4.2074   -2.4997   -1.5253 C   0  0  2  0  0  0  0  0  0  0  0  0
    3.6870   -1.0734   -1.5760 C   0  0  0  0  0  0  0  0  0  0  0  0
    3.7163   -0.5921   -0.1251 C   0  0  0  0  0  0  0  0  0  0  0  0
    4.2128   -1.7490    0.7579 C   0  0  1  0  0  0  0  0  0  0  0  0
    5.0042   -2.6213   -0.2213 C   0  0  2  0  0  0  0  0  0  0  0  0
    6.3133   -2.0991   -0.4261 O   0  0  0  0  0  0  0  0  0  0  0  0
    7.0278   -2.0740    0.7919 C   0  0  0  0  0  0  0  0  0  0  0  0
    6.3705   -1.0557    1.7159 C   0  0  0  0  0  0  0  0  0  0  0  0
    4.9536   -1.3188    1.9702 N   0  0  0  0  0  0  0  0  0  0  0  0
    4.4292   -1.1013    3.2122 C   0  0  0  0  0  0  0  0  0  0  0  0
    5.1242   -0.8660    4.1952 O   0  0  0  0  0  0  0  0  0  0  0  0
    2.9521   -1.1572    3.3610 C   0  0  0  0  0  0  0  0  0  0  0  0
    2.0325   -0.2867    2.6963 C   0  0  0  0  0  0  0  0  0  0  0  0
    0.7470   -0.6265    2.8830 C   0  0  0  0  0  0  0  0  0  0  0  0
    0.5843   -1.8870    4.0824 S   0  0  0  0  0  0  0  0  0  0  0  0
    2.3213   -2.0250    4.2186 C   0  0  0  0  0  0  0  0  0  0  0  0
    4.6153   -5.4910   -4.4722 H   0  0  0  0  0  0  0  0  0  0  0  0
    4.7867   -3.8542   -5.0745 H   0  0  0  0  0  0  0  0  0  0  0  0
    3.3671   -4.2769   -4.1093 H   0  0  0  0  0  0  0  0  0  0  0  0
    4.9389   -4.7343   -2.1248 H   0  0  0  0  0  0  0  0  0  0  0  0
    6.2605   -4.1766   -3.1140 H   0  0  0  0  0  0  0  0  0  0  0  0
    3.3425   -3.1661   -1.4907 H   0  0  0  0  0  0  0  0  0  0  0  0
    4.2842   -0.4169   -2.2128 H   0  0  0  0  0  0  0  0  0  0  0  0
    2.6771   -1.0797   -1.9610 H   0  0  0  0  0  0  0  0  0  0  0  0
    4.3782    0.2731   -0.0147 H   0  0  0  0  0  0  0  0  0  0  0  0
    2.7001   -0.2907    0.1223 H   0  0  0  0  0  0  0  0  0  0  0  0
    3.3366   -2.3290    1.0568 H   0  0  0  0  0  0  0  0  0  0  0  0
    5.0659   -3.6561    0.1297 H   0  0  0  0  0  0  0  0  0  0  0  0
    7.0601   -3.0709    1.2392 H   0  0  0  0  0  0  0  0  0  0  0  0
    8.0520   -1.7707    0.5845 H   0  0  0  0  0  0  0  0  0  0  0  0
    6.9670   -0.9638    2.6332 H   0  0  0  0  0  0  0  0  0  0  0  0
    6.3972   -0.0802    1.2311 H   0  0  0  0  0  0  0  0  0  0  0  0
    2.3829    0.5264    2.0474 H   0  0  0  0  0  0  0  0  0  0  0  0
   -0.1202   -0.1949    2.3926 H   0  0  0  0  0  0  0  0  0  0  0  0
    2.7726   -2.7268    4.9056 H   0  0  0  0  0  0  0  0  0  0  0  0
  1  2  1  0
  1 20  1  0
  1 21  1  0
  1 22  1  0
  2  3  1  0
  2 23  1  0
  2 24  1  0
  3  4  1  0
  4  8  1  0
  4  5  1  0
  4 25  1  1
  5  6  1  0
  5 26  1  0
  5 27  1  0
  6  7  1  0
  6 28  1  0
  6 29  1  0
  7 12  1  0
  7  8  1  0
  7 30  1  1
  8  9  1  0
  8 31  1  1
  9 10  1  0
 10 11  1  0
 10 32  1  0
 10 33  1  0
 11 12  1  0
 11 34  1  0
 11 35  1  0
 12 13  1  0
 13 14  2  0
 13 15  1  0
 15 19  2  0
 15 16  1  0
 16 17  2  0
 16 36  1  0
 17 18  1  0
 17 37  1  0
 18 19  1  0
 19 38  1  0
M  END
>  <i_m_ct_stereo_status>  (175) 
1

>  <s_m_source_file>  (175) 
/var/tmp/pbs.5076255.sched01/tmp403565pz/80s7duc8s0.sdf

>  <i_m_source_file_index>  (175) 
8

>  <i_lp_mmshare_version>  (175) 
48012

>  <i_f3d_flags>  (175) 
0

>  <s_epik_input>  (175) 
W0NIM11bQ0gyXU9bQ0BIXShbQ0gyXVtDSDJdMSlbQ0BIXShbQ0BIXTEyKU9bQ0gyXVtDSDJdTjJDKD1PKWMzW2NIXVtjSF1zW2NIXTM=

>  <s_epik_cmdline>  (175) 
J2VwaWtfcHl0aG9uJywgJy1waHQnLCAnMi4wJywgJy1waCcsICc3LjAnLCAnLXRuJywgJzgnLCAnLW1hJywgJzIwMCcsICctaW1hZScsICc8aW5maWxlLm1hZT4nLCAnLW9tYWUnLCAnPG91dGZpbGUubWFlPic=

>  <r_lp_tautomer_probability>  (175) 
1

>  <r_epik_Ionization_Penalty>  (175) 
2.82177e-10

>  <r_epik_Ionization_Penalty_Charging>  (175) 
0

>  <r_epik_Ionization_Penalty_Neutral>  (175) 
2.82177e-10

>  <r_epik_State_Penalty>  (175) 
-0

>  <r_epik_Charging_Adjusted_Penalty>  (175) 
0

>  <i_epik_Tot_Q>  (175) 
0

>  <i_epik_Tot_abs_Q>  (175) 
0

>  <s_lp_Force_Field>  (175) 
OPLS3e

>  <r_lp_Energy>  (175) 
39.367

>  <b_lp_Chiralities_Consistent>  (175) 
1

>  <s_lp_Variant>  (175) 
63:0-1

>  <s_i_glide_gridfile>  (175) 
pfpi4k_grid

>  <i_i_glide_lignum>  (175) 
8

>  <i_i_glide_rotatable_bonds>  (175) 
4

>  <r_i_docking_score>  (175) 
-2.33706

>  <r_i_glide_ligand_efficiency>  (175) 
-0.123003

>  <r_i_glide_ligand_efficiency_sa>  (175) 
-0.328222

>  <r_i_glide_ligand_efficiency_ln>  (175) 
-0.592495

>  <r_i_glide_gscore>  (175) 
-2.33706

>  <r_i_glide_lipo>  (175) 
-0.132007

>  <r_i_glide_hbond>  (175) 
-0.00260228

>  <r_i_glide_metal>  (175) 
-0

>  <r_i_glide_rewards>  (175) 
-1.65807

>  <r_i_glide_evdw>  (175) 
-16.9006

>  <r_i_glide_ecoul>  (175) 
-2.56199

>  <r_i_glide_erotb>  (175) 
0.68495

>  <r_i_glide_esite>  (175) 
0

>  <r_i_glide_emodel>  (175) 
-19.6825

>  <r_i_glide_energy>  (175) 
-19.4626

>  <r_i_glide_einternal>  (175) 
4.43038

>  <r_i_glide_intrahb_reward>  (175) 
-0

>  <i_i_glide_confnum>  (175) 
5

>  <i_i_glide_posenum>  (175) 
19

>  <r_i_glide_eff_state_penalty>  (175) 
0

>  <ligand_id>  (175) 
63

>  <original_smiles>  (175) 
CCOC1CCC2C1OCCN2C(=O)c1ccsc1

>  <smiles>  (175) 
[H]c1sc([H])c(C(=O)N2C([H])([H])C([H])([H])OC3([H])C([H])(OC([H])([H])C([H])([H])[H])C([H])([H])C([H])([H])C23[H])c1[H]

$$$$
64:3:0
     RDKit          3D

 79 86  0  0  1  0  0  0  0  0999 V2000
    2.3122   -0.9453    4.3606 C   0  0  0  0  0  0  0  0  0  0  0  0
    2.7259   -2.2070    4.1801 C   0  0  0  0  0  0  0  0  0  0  0  0
    3.4704   -3.0002    5.2711 C   0  0  0  0  0  0  0  0  0  0  0  0
    4.3726   -4.2341    4.8382 C   0  0  1  0  0  0  0  0  0  0  0  0
    4.8364   -4.8633    6.0283 O   0  0  0  0  0  0  0  0  0  0  0  0
    5.9188   -4.4452    6.7027 C   0  0  0  0  0  0  0  0  0  0  0  0
    6.2321   -5.3481    7.8903 C   0  0  0  0  0  0  0  0  0  0  0  0
    6.6005   -3.4545    6.4450 O   0  0  0  0  0  0  0  0  0  0  0  0
    3.8825   -5.2658    3.7109 C   0  0  2  0  0  0  0  0  0  0  0  0
    4.7058   -5.0785    2.5486 C   0  0  0  0  0  0  0  0  0  0  0  0
    5.0152   -4.3157    1.4576 C   0  0  0  0  0  0  0  0  0  0  0  0
    6.1330   -4.8481    0.5553 C   0  0  0  0  0  0  0  0  0  0  0  0
    4.4302   -2.8941    1.0829 C   0  0  1  0  0  0  0  0  0  0  0  0
    4.6369   -2.4632   -0.3719 C   0  0  0  0  0  0  0  0  0  0  0  0
    4.4076   -3.2278   -1.5684 C   0  0  0  0  0  0  0  0  0  0  0  0
    4.7089   -2.4289   -2.6141 C   0  0  0  0  0  0  0  0  0  0  0  0
    5.0195   -1.1762   -2.1847 O   0  0  0  0  0  0  0  0  0  0  0  0
    4.9575   -1.2233   -0.8205 C   0  0  0  0  0  0  0  0  0  0  0  0
    2.9421   -2.5633    1.4945 C   0  0  0  0  0  0  0  0  0  0  0  0
    2.5296   -2.9983    2.9144 C   0  0  2  0  0  0  0  0  0  0  0  0
    1.7544   -4.1877    3.0993 O   0  0  0  0  0  0  0  0  0  0  0  0
    2.3257   -5.4239    3.5857 C   0  0  2  0  0  0  0  0  0  0  0  0
    1.6925   -5.6877    5.0215 C   0  0  1  0  0  0  0  0  0  0  0  0
    0.4067   -5.0991    5.1125 O   0  0  0  0  0  0  0  0  0  0  0  0
    1.6996   -7.1393    5.6247 C   0  0  2  0  0  0  0  0  0  0  0  0
    0.8710   -7.2181    6.9299 C   0  0  0  0  0  0  0  0  0  0  0  0
    3.1348   -7.5223    6.0319 C   0  0  0  0  0  0  0  0  0  0  0  0
    3.8697   -7.9533    4.7621 C   0  0  2  0  0  0  0  0  0  0  0  0
    4.8069   -6.9013    4.4109 O   0  0  0  0  0  0  0  0  0  0  0  0
    4.8900   -6.4453    3.0600 C   0  0  1  0  0  0  0  0  0  0  0  0
    2.6956   -8.3995    3.8269 C   0  0  2  0  0  0  0  0  0  0  0  0
    2.5687   -7.7387    2.5760 O   0  0  0  0  0  0  0  0  0  0  0  0
    1.8143   -6.5434    2.5618 C   0  0  2  0  0  0  0  0  0  0  0  0
    1.9907   -6.1282    1.0848 C   0  0  0  0  0  0  0  0  0  0  0  0
    0.3351   -6.9456    2.7368 C   0  0  0  0  0  0  0  0  0  0  0  0
    0.1338   -8.1320    3.6845 C   0  0  0  0  0  0  0  0  0  0  0  0
   -1.1907   -7.9545    4.4593 C   0  0  0  0  0  0  0  0  0  0  0  0
   -0.0298   -9.4684    2.9125 C   0  0  0  0  0  0  0  0  0  0  0  0
    1.3715   -8.2740    4.6224 C   0  0  2  0  0  0  0  0  0  0  0  0
    1.7841   -0.4055    3.5862 H   0  0  0  0  0  0  0  0  0  0  0  0
    2.5054   -0.4223    5.2872 H   0  0  0  0  0  0  0  0  0  0  0  0
    4.1414   -2.2742    5.7335 H   0  0  0  0  0  0  0  0  0  0  0  0
    2.7815   -3.2278    6.0819 H   0  0  0  0  0  0  0  0  0  0  0  0
    5.2656   -3.7770    4.4016 H   0  0  0  0  0  0  0  0  0  0  0  0
    5.3618   -5.4279    8.5416 H   0  0  0  0  0  0  0  0  0  0  0  0
    7.0652   -4.9540    8.4720 H   0  0  0  0  0  0  0  0  0  0  0  0
    6.4921   -6.3495    7.5447 H   0  0  0  0  0  0  0  0  0  0  0  0
    6.9227   -4.0968    0.4213 H   0  0  0  0  0  0  0  0  0  0  0  0
    5.7683   -5.1614   -0.4176 H   0  0  0  0  0  0  0  0  0  0  0  0
    6.5887   -5.7503    0.9748 H   0  0  0  0  0  0  0  0  0  0  0  0
    5.0697   -2.1957    1.6347 H   0  0  0  0  0  0  0  0  0  0  0  0
    4.0911   -4.2552   -1.6656 H   0  0  0  0  0  0  0  0  0  0  0  0
    4.7165   -2.5729   -3.6787 H   0  0  0  0  0  0  0  0  0  0  0  0
    5.1556   -0.2719   -0.3490 H   0  0  0  0  0  0  0  0  0  0  0  0
    2.7842   -1.4880    1.3931 H   0  0  0  0  0  0  0  0  0  0  0  0
    2.2634   -3.0098    0.7706 H   0  0  0  0  0  0  0  0  0  0  0  0
    3.5547   -3.0974    3.0463 H   0  0  0  0  0  0  0  0  0  0  0  0
    2.2206   -5.1346    5.7732 H   0  0  0  0  0  0  0  0  0  0  0  0
    0.5111   -4.1858    4.9106 H   0  0  0  0  0  0  0  0  0  0  0  0
    0.8997   -8.2190    7.3680 H   0  0  0  0  0  0  0  0  0  0  0  0
   -0.1745   -6.9700    6.7847 H   0  0  0  0  0  0  0  0  0  0  0  0
    1.2548   -6.5270    7.6813 H   0  0  0  0  0  0  0  0  0  0  0  0
    3.6583   -6.7690    6.6079 H   0  0  0  0  0  0  0  0  0  0  0  0
    3.1035   -8.3887    6.6956 H   0  0  0  0  0  0  0  0  0  0  0  0
    4.4580   -8.8363    5.0206 H   0  0  0  0  0  0  0  0  0  0  0  0
    4.6790   -7.2423    2.3383 H   0  0  0  0  0  0  0  0  0  0  0  0
    2.8426   -9.4585    3.5944 H   0  0  0  0  0  0  0  0  0  0  0  0
    1.4183   -5.2544    0.7953 H   0  0  0  0  0  0  0  0  0  0  0  0
    1.6204   -6.9503    0.4810 H   0  0  0  0  0  0  0  0  0  0  0  0
    3.0225   -5.9738    0.7727 H   0  0  0  0  0  0  0  0  0  0  0  0
   -0.2744   -6.1018    3.0024 H   0  0  0  0  0  0  0  0  0  0  0  0
   -0.0733   -7.2656    1.7808 H   0  0  0  0  0  0  0  0  0  0  0  0
   -1.3141   -8.6859    5.2622 H   0  0  0  0  0  0  0  0  0  0  0  0
   -2.0502   -8.0576    3.7948 H   0  0  0  0  0  0  0  0  0  0  0  0
   -1.2799   -6.9620    4.8979 H   0  0  0  0  0  0  0  0  0  0  0  0
   -0.1314  -10.3250    3.5839 H   0  0  0  0  0  0  0  0  0  0  0  0
    0.8129   -9.6734    2.2531 H   0  0  0  0  0  0  0  0  0  0  0  0
   -0.9180   -9.4647    2.2807 H   0  0  0  0  0  0  0  0  0  0  0  0
    1.2651   -9.1890    5.2125 H   0  0  0  0  0  0  0  0  0  0  0  0
  1  2  2  0
  1 40  1  0
  1 41  1  0
  2 20  1  0
  2  3  1  0
  3  4  1  0
  3 42  1  0
  3 43  1  0
  4  5  1  0
  4  9  1  0
  4 44  1  6
  5  6  1  0
  6  7  1  0
  6  8  2  0
  7 45  1  0
  7 46  1  0
  7 47  1  0
  9 22  1  0
  9 30  1  0
  9 10  1  6
 10 30  1  0
 10 11  2  3
 11 12  1  0
 11 13  1  0
 12 48  1  0
 12 49  1  0
 12 50  1  0
 13 14  1  0
 13 19  1  0
 13 51  1  1
 14 18  2  0
 14 15  1  0
 15 16  2  0
 15 52  1  0
 16 17  1  0
 16 53  1  0
 17 18  1  0
 18 54  1  0
 19 20  1  0
 19 55  1  0
 19 56  1  0
 20 21  1  0
 20 57  1  1
 22 21  1  6
 22 33  1  0
 22 23  1  0
 23 24  1  0
 23 25  1  0
 23 58  1  1
 24 59  1  0
 25 39  1  0
 25 26  1  1
 25 27  1  0
 26 60  1  0
 26 61  1  0
 26 62  1  0
 27 28  1  0
 27 63  1  0
 27 64  1  0
 28 29  1  0
 28 31  1  0
 28 65  1  1
 29 30  1  0
 30 66  1  6
 31 39  1  0
 31 32  1  0
 31 67  1  6
 32 33  1  0
 33 34  1  6
 33 35  1  0
 34 68  1  0
 34 69  1  0
 34 70  1  0
 35 36  1  0
 35 71  1  0
 35 72  1  0
 36 37  1  0
 36 38  1  0
 36 39  1  0
 37 73  1  0
 37 74  1  0
 37 75  1  0
 38 76  1  0
 38 77  1  0
 38 78  1  0
 39 79  1  1
M  END
>  <i_m_ct_stereo_status>  (176) 
1

>  <s_m_source_file>  (176) 
/var/tmp/pbs.5076255.sched01/tmp403565pz/80s7duc8s0.sdf

>  <i_m_source_file_index>  (176) 
12

>  <i_lp_mmshare_version>  (176) 
48012

>  <i_f3d_flags>  (176) 
0

>  <s_epik_input>  (176) 
W0NIM11DKD1PKU9bQ0BASF0xW0NIMl1DKD1bQ0gyXSlbQ0BASF0oTzIpW0NIMl1bQ0BIXShjM1tjSF1bY0hdb1tjSF0zKUMoXFtDSDNdKT1DXDRbQ0hdNU9bQ0BIXShbQ0BASF02T1tDQEBdNyhbQ0BAXTI4QzE0NSlbQ0gzXSlbQ0gyXVtDQEBdKFtDSDNdKShbQ0BASF04W09IXSlbQ0BIXTZDKFtDSDJdNykoW0NIM10pW0NIM10=

>  <s_epik_cmdline>  (176) 
J2VwaWtfcHl0aG9uJywgJy1waHQnLCAnMi4wJywgJy1waCcsICc3LjAnLCAnLXRuJywgJzgnLCAnLW1hJywgJzIwMCcsICctaW1hZScsICc8aW5maWxlLm1hZT4nLCAnLW9tYWUnLCAnPG91dGZpbGUubWFlPic=

>  <r_lp_tautomer_probability>  (176) 
1

>  <r_epik_Ionization_Penalty>  (176) 
7.13112e-08

>  <r_epik_Ionization_Penalty_Charging>  (176) 
0

>  <r_epik_Ionization_Penalty_Neutral>  (176) 
7.13112e-08

>  <r_epik_State_Penalty>  (176) 
-0

>  <r_epik_Charging_Adjusted_Penalty>  (176) 
0

>  <i_epik_Tot_Q>  (176) 
0

>  <i_epik_Tot_abs_Q>  (176) 
0

>  <s_epik_Chemistry_Notes>  (176) 
This compound has an ester and may undergo hydrolysis at high or low pH.

>  <s_lp_Force_Field>  (176) 
OPLS3e

>  <r_lp_Energy>  (176) 
177.384

>  <b_lp_Chiralities_Consistent>  (176) 
1

>  <s_lp_Variant>  (176) 
64:0-4

>  <s_i_glide_gridfile>  (176) 
pfpi4k_grid

>  <i_i_glide_lignum>  (176) 
12

>  <i_i_glide_rotatable_bonds>  (176) 
4

>  <r_i_docking_score>  (176) 
-1.9496

>  <r_i_glide_ligand_efficiency>  (176) 
-0.0499898

>  <r_i_glide_ligand_efficiency_sa>  (176) 
-0.169526

>  <r_i_glide_ligand_efficiency_ln>  (176) 
-0.41805

>  <r_i_glide_gscore>  (176) 
-1.9496

>  <r_i_glide_lipo>  (176) 
-0.31142

>  <r_i_glide_hbond>  (176) 
0

>  <r_i_glide_metal>  (176) 
-0

>  <r_i_glide_rewards>  (176) 
0

>  <r_i_glide_evdw>  (176) 
-33.5283

>  <r_i_glide_ecoul>  (176) 
-0.701203

>  <r_i_glide_erotb>  (176) 
0.143415

>  <r_i_glide_esite>  (176) 
0

>  <r_i_glide_emodel>  (176) 
-37.3585

>  <r_i_glide_energy>  (176) 
-34.2296

>  <r_i_glide_einternal>  (176) 
0.62878

>  <r_i_glide_intrahb_reward>  (176) 
-0

>  <i_i_glide_confnum>  (176) 
2

>  <i_i_glide_posenum>  (176) 
32

>  <r_i_glide_eff_state_penalty>  (176) 
0

>  <ligand_id>  (176) 
64

>  <original_smiles>  (176) 
C=C1CC(OC(C)=O)C23C4=C(C)C(c5ccoc5)CC1OC21C(O)C2(C)CC(OC43)C3OC1(C)CC(C)(C)C32

>  <smiles>  (176) 
[H]OC1([H])C23OC4([H])C(=C([H])[H])C([H])([H])C([H])(OC(=O)C([H])([H])[H])C25C(=C(C([H])([H])[H])C([H])(c2c([H])oc([H])c2[H])C4([H])[H])C5([H])OC2([H])C([H])([H])C1(C([H])([H])[H])C1([H])C2([H])OC3(C([H])([H])[H])C([H])([H])C1(C([H])([H])[H])C([H])([H])[H]

$$$$
64:3:1
     RDKit          3D

 79 86  0  0  1  0  0  0  0  0999 V2000
    3.6957  -12.3866    3.0072 C   0  0  0  0  0  0  0  0  0  0  0  0
    3.9794  -11.1467    3.4243 C   0  0  0  0  0  0  0  0  0  0  0  0
    4.8913  -10.8828    4.6206 C   0  0  0  0  0  0  0  0  0  0  0  0
    4.6624   -9.5169    5.4095 C   0  0  1  0  0  0  0  0  0  0  0  0
    5.6463   -9.4891    6.4397 O   0  0  0  0  0  0  0  0  0  0  0  0
    5.4488   -9.9109    7.7111 C   0  0  0  0  0  0  0  0  0  0  0  0
    4.1006  -10.5854    8.0224 C   0  0  0  0  0  0  0  0  0  0  0  0
    6.2974   -9.7896    8.5870 O   0  0  0  0  0  0  0  0  0  0  0  0
    4.4302   -8.1208    4.6296 C   0  0  2  0  0  0  0  0  0  0  0  0
    3.0843   -7.6544    4.8413 C   0  0  0  0  0  0  0  0  0  0  0  0
    1.7626   -7.8271    4.6356 C   0  0  0  0  0  0  0  0  0  0  0  0
    0.8326   -6.8644    5.3638 C   0  0  0  0  0  0  0  0  0  0  0  0
    1.1093   -8.9370    3.7548 C   0  0  1  0  0  0  0  0  0  0  0  0
   -0.2416   -8.6000    3.2184 C   0  0  0  0  0  0  0  0  0  0  0  0
   -0.8168   -7.3873    2.7492 C   0  0  0  0  0  0  0  0  0  0  0  0
   -2.1274   -7.6769    2.5131 C   0  0  0  0  0  0  0  0  0  0  0  0
   -2.3284   -9.0211    2.5572 O   0  0  0  0  0  0  0  0  0  0  0  0
   -1.2016   -9.5443    3.0365 C   0  0  0  0  0  0  0  0  0  0  0  0
    1.9254   -9.5875    2.5474 C   0  0  0  0  0  0  0  0  0  0  0  0
    3.4043   -9.9079    2.7995 C   0  0  2  0  0  0  0  0  0  0  0  0
    4.3819   -8.9613    2.3475 O   0  0  0  0  0  0  0  0  0  0  0  0
    5.0872   -8.0631    3.2227 C   0  0  2  0  0  0  0  0  0  0  0  0
    6.6018   -8.5329    3.2880 C   0  0  1  0  0  0  0  0  0  0  0  0
    6.9480   -9.2027    2.0911 O   0  0  0  0  0  0  0  0  0  0  0  0
    7.7134   -7.5500    3.7726 C   0  0  2  0  0  0  0  0  0  0  0  0
    9.1136   -8.1477    3.6016 C   0  0  0  0  0  0  0  0  0  0  0  0
    7.5926   -7.2720    5.2717 C   0  0  0  0  0  0  0  0  0  0  0  0
    6.4753   -6.2668    5.4340 C   0  0  2  0  0  0  0  0  0  0  0  0
    5.3495   -6.9152    6.0444 O   0  0  0  0  0  0  0  0  0  0  0  0
    4.0786   -6.7340    5.4469 C   0  0  1  0  0  0  0  0  0  0  0  0
    6.4290   -5.5485    4.0575 C   0  0  2  0  0  0  0  0  0  0  0  0
    5.2045   -5.5684    3.3344 O   0  0  0  0  0  0  0  0  0  0  0  0
    4.9690   -6.6610    2.4728 C   0  0  2  0  0  0  0  0  0  0  0  0
    3.5540   -6.3133    1.9604 C   0  0  0  0  0  0  0  0  0  0  0  0
    5.9347   -6.4773    1.2809 C   0  0  0  0  0  0  0  0  0  0  0  0
    7.3172   -5.9015    1.6598 C   0  0  0  0  0  0  0  0  0  0  0  0
    8.4039   -6.5001    0.7530 C   0  0  0  0  0  0  0  0  0  0  0  0
    7.3532   -4.3826    1.3401 C   0  0  0  0  0  0  0  0  0  0  0  0
    7.5713   -6.1222    3.1881 C   0  0  2  0  0  0  0  0  0  0  0  0
    3.0451  -12.5726    2.1586 H   0  0  0  0  0  0  0  0  0  0  0  0
    4.1285  -13.2564    3.4859 H   0  0  0  0  0  0  0  0  0  0  0  0
    4.6160  -11.6679    5.3171 H   0  0  0  0  0  0  0  0  0  0  0  0
    5.9201  -11.1320    4.3461 H   0  0  0  0  0  0  0  0  0  0  0  0
    3.6999   -9.6833    5.9012 H   0  0  0  0  0  0  0  0  0  0  0  0
    3.2667   -9.9129    7.8078 H   0  0  0  0  0  0  0  0  0  0  0  0
    4.0579  -10.8968    9.0633 H   0  0  0  0  0  0  0  0  0  0  0  0
    3.9813  -11.4862    7.4236 H   0  0  0  0  0  0  0  0  0  0  0  0
    0.0678   -7.4315    5.9035 H   0  0  0  0  0  0  0  0  0  0  0  0
    0.3708   -6.1773    4.6481 H   0  0  0  0  0  0  0  0  0  0  0  0
    1.3964   -6.2769    6.0961 H   0  0  0  0  0  0  0  0  0  0  0  0
    0.9358   -9.7811    4.4522 H   0  0  0  0  0  0  0  0  0  0  0  0
   -0.3382   -6.4196    2.6650 H   0  0  0  0  0  0  0  0  0  0  0  0
   -2.9577   -7.0920    2.0974 H   0  0  0  0  0  0  0  0  0  0  0  0
   -1.2112  -10.6145    3.2259 H   0  0  0  0  0  0  0  0  0  0  0  0
    1.4177  -10.5070    2.2335 H   0  0  0  0  0  0  0  0  0  0  0  0
    1.8388   -8.9258    1.6868 H   0  0  0  0  0  0  0  0  0  0  0  0
    3.1290   -9.7788    3.7947 H   0  0  0  0  0  0  0  0  0  0  0  0
    6.7306   -9.3301    3.9861 H   0  0  0  0  0  0  0  0  0  0  0  0
    6.2991   -9.8764    1.9453 H   0  0  0  0  0  0  0  0  0  0  0  0
    9.8975   -7.4485    3.9047 H   0  0  0  0  0  0  0  0  0  0  0  0
    9.2808   -8.3940    2.5622 H   0  0  0  0  0  0  0  0  0  0  0  0
    9.2293   -9.0699    4.1715 H   0  0  0  0  0  0  0  0  0  0  0  0
    7.4990   -8.1683    5.8709 H   0  0  0  0  0  0  0  0  0  0  0  0
    8.5157   -6.8038    5.6158 H   0  0  0  0  0  0  0  0  0  0  0  0
    6.8008   -5.5614    6.1873 H   0  0  0  0  0  0  0  0  0  0  0  0
    3.9228   -5.7172    5.1337 H   0  0  0  0  0  0  0  0  0  0  0  0
    6.5920   -4.5183    4.3247 H   0  0  0  0  0  0  0  0  0  0  0  0
    3.2287   -7.0132    1.1914 H   0  0  0  0  0  0  0  0  0  0  0  0
    3.5480   -5.3096    1.5147 H   0  0  0  0  0  0  0  0  0  0  0  0
    2.8087   -6.2754    2.7515 H   0  0  0  0  0  0  0  0  0  0  0  0
    6.0128   -7.4218    0.7505 H   0  0  0  0  0  0  0  0  0  0  0  0
    5.4891   -5.8100    0.5408 H   0  0  0  0  0  0  0  0  0  0  0  0
    9.4083   -6.2292    1.0850 H   0  0  0  0  0  0  0  0  0  0  0  0
    8.2686   -6.1902   -0.2856 H   0  0  0  0  0  0  0  0  0  0  0  0
    8.3544   -7.5832    0.7496 H   0  0  0  0  0  0  0  0  0  0  0  0
    8.3095   -3.9545    1.6423 H   0  0  0  0  0  0  0  0  0  0  0  0
    6.5704   -3.8229    1.8645 H   0  0  0  0  0  0  0  0  0  0  0  0
    7.2394   -4.1716    0.2709 H   0  0  0  0  0  0  0  0  0  0  0  0
    8.4720   -5.5745    3.4477 H   0  0  0  0  0  0  0  0  0  0  0  0
  1  2  2  0
  1 40  1  0
  1 41  1  0
  2 20  1  0
  2  3  1  0
  3  4  1  0
  3 42  1  0
  3 43  1  0
  4  5  1  0
  4  9  1  0
  4 44  1  1
  5  6  1  0
  6  7  1  0
  6  8  2  0
  7 45  1  0
  7 46  1  0
  7 47  1  0
  9 22  1  0
  9 30  1  0
  9 10  1  6
 10 30  1  0
 10 11  2  3
 11 12  1  0
 11 13  1  0
 12 48  1  0
 12 49  1  0
 12 50  1  0
 13 14  1  0
 13 19  1  0
 13 51  1  1
 14 18  2  0
 14 15  1  0
 15 16  2  0
 15 52  1  0
 16 17  1  0
 16 53  1  0
 17 18  1  0
 18 54  1  0
 19 20  1  0
 19 55  1  0
 19 56  1  0
 20 21  1  0
 20 57  1  1
 22 21  1  6
 22 33  1  0
 22 23  1  0
 23 24  1  0
 23 25  1  0
 23 58  1  1
 24 59  1  0
 25 39  1  0
 25 26  1  1
 25 27  1  0
 26 60  1  0
 26 61  1  0
 26 62  1  0
 27 28  1  0
 27 63  1  0
 27 64  1  0
 28 29  1  0
 28 31  1  0
 28 65  1  1
 29 30  1  0
 30 66  1  6
 31 39  1  0
 31 32  1  0
 31 67  1  1
 32 33  1  0
 33 34  1  6
 33 35  1  0
 34 68  1  0
 34 69  1  0
 34 70  1  0
 35 36  1  0
 35 71  1  0
 35 72  1  0
 36 37  1  0
 36 38  1  0
 36 39  1  0
 37 73  1  0
 37 74  1  0
 37 75  1  0
 38 76  1  0
 38 77  1  0
 38 78  1  0
 39 79  1  1
M  END
>  <i_m_ct_stereo_status>  (177) 
1

>  <s_m_source_file>  (177) 
/var/tmp/pbs.5076255.sched01/tmp403565pz/80s7duc8s0.sdf

>  <i_m_source_file_index>  (177) 
12

>  <i_lp_mmshare_version>  (177) 
48012

>  <i_f3d_flags>  (177) 
0

>  <s_epik_input>  (177) 
W0NIM11DKD1PKU9bQ0BASF0xW0NIMl1DKD1bQ0gyXSlbQ0BASF0oTzIpW0NIMl1bQ0BIXShjM1tjSF1bY0hdb1tjSF0zKUMoXFtDSDNdKT1DXDRbQ0hdNU9bQ0BIXShbQ0BASF02T1tDQEBdNyhbQ0BAXTI4QzE0NSlbQ0gzXSlbQ0gyXVtDQEBdKFtDSDNdKShbQ0BASF04W09IXSlbQ0BIXTZDKFtDSDJdNykoW0NIM10pW0NIM10=

>  <s_epik_cmdline>  (177) 
J2VwaWtfcHl0aG9uJywgJy1waHQnLCAnMi4wJywgJy1waCcsICc3LjAnLCAnLXRuJywgJzgnLCAnLW1hJywgJzIwMCcsICctaW1hZScsICc8aW5maWxlLm1hZT4nLCAnLW9tYWUnLCAnPG91dGZpbGUubWFlPic=

>  <r_lp_tautomer_probability>  (177) 
1

>  <r_epik_Ionization_Penalty>  (177) 
7.13112e-08

>  <r_epik_Ionization_Penalty_Charging>  (177) 
0

>  <r_epik_Ionization_Penalty_Neutral>  (177) 
7.13112e-08

>  <r_epik_State_Penalty>  (177) 
-0

>  <r_epik_Charging_Adjusted_Penalty>  (177) 
0

>  <i_epik_Tot_Q>  (177) 
0

>  <i_epik_Tot_abs_Q>  (177) 
0

>  <s_epik_Chemistry_Notes>  (177) 
This compound has an ester and may undergo hydrolysis at high or low pH.

>  <s_lp_Force_Field>  (177) 
OPLS3e

>  <r_lp_Energy>  (177) 
177.384

>  <b_lp_Chiralities_Consistent>  (177) 
1

>  <s_lp_Variant>  (177) 
64:0-4

>  <s_i_glide_gridfile>  (177) 
pfpi4k_grid

>  <i_i_glide_lignum>  (177) 
12

>  <i_i_glide_rotatable_bonds>  (177) 
4

>  <r_i_docking_score>  (177) 
-0.932312

>  <r_i_glide_ligand_efficiency>  (177) 
-0.0239054

>  <r_i_glide_ligand_efficiency_sa>  (177) 
-0.0810684

>  <r_i_glide_ligand_efficiency_ln>  (177) 
-0.199914

>  <r_i_glide_gscore>  (177) 
-0.932312

>  <r_i_glide_lipo>  (177) 
-0.388329

>  <r_i_glide_hbond>  (177) 
0

>  <r_i_glide_metal>  (177) 
-0

>  <r_i_glide_rewards>  (177) 
0

>  <r_i_glide_evdw>  (177) 
-10.9688

>  <r_i_glide_ecoul>  (177) 
-0.903865

>  <r_i_glide_erotb>  (177) 
0.143415

>  <r_i_glide_esite>  (177) 
-0.00337706

>  <r_i_glide_emodel>  (177) 
-9.67371

>  <r_i_glide_energy>  (177) 
-11.8727

>  <r_i_glide_einternal>  (177) 
5.82298

>  <r_i_glide_intrahb_reward>  (177) 
-0

>  <i_i_glide_confnum>  (177) 
4

>  <i_i_glide_posenum>  (177) 
5

>  <r_i_glide_eff_state_penalty>  (177) 
0

>  <ligand_id>  (177) 
64

>  <original_smiles>  (177) 
C=C1CC(OC(C)=O)C23C4=C(C)C(c5ccoc5)CC1OC21C(O)C2(C)CC(OC43)C3OC1(C)CC(C)(C)C32

>  <smiles>  (177) 
[H]OC1([H])C23OC4([H])C(=C([H])[H])C([H])([H])C([H])(OC(=O)C([H])([H])[H])C25C(=C(C([H])([H])[H])C([H])(c2c([H])oc([H])c2[H])C4([H])[H])C5([H])OC2([H])C([H])([H])C1(C([H])([H])[H])C1([H])C2([H])OC3(C([H])([H])[H])C([H])([H])C1(C([H])([H])[H])C([H])([H])[H]

$$$$
64:4:0
     RDKit          3D

 79 86  0  0  1  0  0  0  0  0999 V2000
    5.8905   -3.9528    0.0907 C   0  0  0  0  0  0  0  0  0  0  0  0
    5.1558   -4.9276    0.6573 C   0  0  0  0  0  0  0  0  0  0  0  0
    5.8638   -6.0676    1.3756 C   0  0  0  0  0  0  0  0  0  0  0  0
    5.4231   -6.3692    2.8453 C   0  0  1  0  0  0  0  0  0  0  0  0
    6.4377   -5.9100    3.7510 O   0  0  0  0  0  0  0  0  0  0  0  0
    7.5968   -6.5787    4.0066 C   0  0  0  0  0  0  0  0  0  0  0  0
    7.8260   -7.8860    3.2464 C   0  0  0  0  0  0  0  0  0  0  0  0
    8.4449   -6.1617    4.8003 O   0  0  0  0  0  0  0  0  0  0  0  0
    4.0067   -5.8505    3.1700 C   0  0  1  0  0  0  0  0  0  0  0  0
    4.3518   -4.4101    3.6345 C   0  0  0  0  0  0  0  0  0  0  0  0
    4.0133   -3.2559    3.0128 C   0  0  0  0  0  0  0  0  0  0  0  0
    5.0321   -2.1347    3.0347 C   0  0  0  0  0  0  0  0  0  0  0  0
    2.7710   -3.0304    2.1574 C   0  0  1  0  0  0  0  0  0  0  0  0
    2.2576   -1.5896    2.1312 C   0  0  0  0  0  0  0  0  0  0  0  0
    1.0895   -1.1139    2.8003 C   0  0  0  0  0  0  0  0  0  0  0  0
    0.9623    0.2043    2.4867 C   0  0  0  0  0  0  0  0  0  0  0  0
    1.9786    0.6023    1.6857 O   0  0  0  0  0  0  0  0  0  0  0  0
    2.7523   -0.4934    1.4836 C   0  0  0  0  0  0  0  0  0  0  0  0
    2.8868   -3.6231    0.7270 C   0  0  0  0  0  0  0  0  0  0  0  0
    3.6273   -4.9730    0.5055 C   0  0  2  0  0  0  0  0  0  0  0  0
    2.9488   -6.1542    0.9738 O   0  0  0  0  0  0  0  0  0  0  0  0
    2.8594   -6.5724    2.3507 C   0  0  2  0  0  0  0  0  0  0  0  0
    1.3627   -6.2982    2.9265 C   0  0  1  0  0  0  0  0  0  0  0  0
    0.4136   -6.2708    1.8721 O   0  0  0  0  0  0  0  0  0  0  0  0
    0.7800   -7.1159    4.1851 C   0  0  2  0  0  0  0  0  0  0  0  0
   -0.7465   -6.9005    4.3609 C   0  0  0  0  0  0  0  0  0  0  0  0
    1.3840   -6.7192    5.5613 C   0  0  0  0  0  0  0  0  0  0  0  0
    2.8134   -7.2927    5.5978 C   0  0  2  0  0  0  0  0  0  0  0  0
    3.8662   -6.3155    5.3495 O   0  0  0  0  0  0  0  0  0  0  0  0
    3.4689   -5.2909    4.4480 C   0  0  2  0  0  0  0  0  0  0  0  0
    2.6747   -8.5514    4.6751 C   0  0  2  0  0  0  0  0  0  0  0  0
    3.5549   -8.6163    3.5538 O   0  0  0  0  0  0  0  0  0  0  0  0
    3.0639   -8.1762    2.2834 C   0  0  2  0  0  0  0  0  0  0  0  0
    4.1352   -8.7497    1.2953 C   0  0  0  0  0  0  0  0  0  0  0  0
    1.7973   -8.9739    1.8585 C   0  0  0  0  0  0  0  0  0  0  0  0
    0.9380   -9.5059    3.0057 C   0  0  0  0  0  0  0  0  0  0  0  0
   -0.5406   -9.5641    2.5611 C   0  0  0  0  0  0  0  0  0  0  0  0
    1.3404  -10.9649    3.3555 C   0  0  0  0  0  0  0  0  0  0  0  0
    1.1870   -8.6105    4.2363 C   0  0  2  0  0  0  0  0  0  0  0  0
    5.4406   -3.1502   -0.4723 H   0  0  0  0  0  0  0  0  0  0  0  0
    6.9661   -3.9452    0.1743 H   0  0  0  0  0  0  0  0  0  0  0  0
    5.7941   -6.9303    0.7238 H   0  0  0  0  0  0  0  0  0  0  0  0
    6.9272   -5.8343    1.3532 H   0  0  0  0  0  0  0  0  0  0  0  0
    5.3955   -7.4217    3.0434 H   0  0  0  0  0  0  0  0  0  0  0  0
    7.8273   -7.7102    2.1701 H   0  0  0  0  0  0  0  0  0  0  0  0
    7.0427   -8.6052    3.4903 H   0  0  0  0  0  0  0  0  0  0  0  0
    8.7889   -8.3328    3.5014 H   0  0  0  0  0  0  0  0  0  0  0  0
    5.2586   -1.7984    2.0193 H   0  0  0  0  0  0  0  0  0  0  0  0
    5.9631   -2.4881    3.4778 H   0  0  0  0  0  0  0  0  0  0  0  0
    4.6706   -1.2905    3.6270 H   0  0  0  0  0  0  0  0  0  0  0  0
    1.9700   -3.5493    2.6525 H   0  0  0  0  0  0  0  0  0  0  0  0
    0.4010   -1.6809    3.4002 H   0  0  0  0  0  0  0  0  0  0  0  0
    0.2375    0.9652    2.7310 H   0  0  0  0  0  0  0  0  0  0  0  0
    3.5877   -0.3005    0.8246 H   0  0  0  0  0  0  0  0  0  0  0  0
    1.8853   -3.7262    0.3195 H   0  0  0  0  0  0  0  0  0  0  0  0
    3.3498   -2.8803    0.0859 H   0  0  0  0  0  0  0  0  0  0  0  0
    3.5393   -5.1237   -0.5697 H   0  0  0  0  0  0  0  0  0  0  0  0
    1.2400   -5.2738    3.2156 H   0  0  0  0  0  0  0  0  0  0  0  0
    0.3637   -7.1497    1.5135 H   0  0  0  0  0  0  0  0  0  0  0  0
   -1.1478   -7.5068    5.1743 H   0  0  0  0  0  0  0  0  0  0  0  0
   -1.3406   -7.1432    3.4846 H   0  0  0  0  0  0  0  0  0  0  0  0
   -0.9583   -5.8591    4.6030 H   0  0  0  0  0  0  0  0  0  0  0  0
    1.2559   -5.6809    5.8646 H   0  0  0  0  0  0  0  0  0  0  0  0
    0.8293   -7.2429    6.3440 H   0  0  0  0  0  0  0  0  0  0  0  0
    2.9963   -7.6501    6.6109 H   0  0  0  0  0  0  0  0  0  0  0  0
    2.5493   -4.7631    4.6618 H   0  0  0  0  0  0  0  0  0  0  0  0
    2.9067   -9.4332    5.2741 H   0  0  0  0  0  0  0  0  0  0  0  0
    4.0614   -8.3145    0.3004 H   0  0  0  0  0  0  0  0  0  0  0  0
    4.0395   -9.8278    1.1561 H   0  0  0  0  0  0  0  0  0  0  0  0
    5.1638   -8.7092    1.6331 H   0  0  0  0  0  0  0  0  0  0  0  0
    1.2260   -8.3932    1.1455 H   0  0  0  0  0  0  0  0  0  0  0  0
    2.0209   -9.8443    1.2542 H   0  0  0  0  0  0  0  0  0  0  0  0
   -1.2191   -9.7514    3.3951 H   0  0  0  0  0  0  0  0  0  0  0  0
   -0.7009  -10.3646    1.8365 H   0  0  0  0  0  0  0  0  0  0  0  0
   -0.8580   -8.6533    2.0595 H   0  0  0  0  0  0  0  0  0  0  0  0
    0.7927  -11.3459    4.2212 H   0  0  0  0  0  0  0  0  0  0  0  0
    2.4038  -11.0680    3.5717 H   0  0  0  0  0  0  0  0  0  0  0  0
    1.1247  -11.6503    2.5363 H   0  0  0  0  0  0  0  0  0  0  0  0
    0.6399   -9.0771    5.0617 H   0  0  0  0  0  0  0  0  0  0  0  0
  1  2  2  0
  1 40  1  0
  1 41  1  0
  2 20  1  0
  2  3  1  0
  3  4  1  0
  3 42  1  0
  3 43  1  0
  4  5  1  0
  4  9  1  0
  4 44  1  6
  5  6  1  0
  6  7  1  0
  6  8  2  0
  7 45  1  0
  7 46  1  0
  7 47  1  0
  9 22  1  0
  9 30  1  0
  9 10  1  6
 10 30  1  0
 10 11  2  3
 11 12  1  0
 11 13  1  0
 12 48  1  0
 12 49  1  0
 12 50  1  0
 13 14  1  0
 13 19  1  0
 13 51  1  1
 14 18  2  0
 14 15  1  0
 15 16  2  0
 15 52  1  0
 16 17  1  0
 16 53  1  0
 17 18  1  0
 18 54  1  0
 19 20  1  0
 19 55  1  0
 19 56  1  0
 20 21  1  0
 20 57  1  6
 22 21  1  6
 22 33  1  0
 22 23  1  0
 23 24  1  0
 23 25  1  0
 23 58  1  1
 24 59  1  0
 25 39  1  0
 25 26  1  1
 25 27  1  0
 26 60  1  0
 26 61  1  0
 26 62  1  0
 27 28  1  0
 27 63  1  0
 27 64  1  0
 28 29  1  0
 28 31  1  0
 28 65  1  1
 29 30  1  0
 30 66  1  6
 31 39  1  0
 31 32  1  0
 31 67  1  1
 32 33  1  0
 33 34  1  6
 33 35  1  0
 34 68  1  0
 34 69  1  0
 34 70  1  0
 35 36  1  0
 35 71  1  0
 35 72  1  0
 36 37  1  0
 36 38  1  0
 36 39  1  0
 37 73  1  0
 37 74  1  0
 37 75  1  0
 38 76  1  0
 38 77  1  0
 38 78  1  0
 39 79  1  1
M  END
>  <i_m_ct_stereo_status>  (178) 
1

>  <s_m_source_file>  (178) 
/var/tmp/pbs.5076255.sched01/tmp403565pz/80s7duc8s0.sdf

>  <i_m_source_file_index>  (178) 
13

>  <i_lp_mmshare_version>  (178) 
48012

>  <i_f3d_flags>  (178) 
0

>  <s_epik_input>  (178) 
W0NIM11DKD1PKU9bQ0BASF0xW0NIMl1DKD1bQ0gyXSlbQ0BASF0oTzIpW0NIMl1bQ0BIXShjM1tjSF1bY0hdb1tjSF0zKUMoXFtDSDNdKT1DXDRbQ0hdNU9bQ0BIXShbQ0BASF02T1tDQEBdNyhbQ0BAXTI4QzE0NSlbQ0gzXSlbQ0gyXVtDQEBdKFtDSDNdKShbQ0BASF04W09IXSlbQ0BIXTZDKFtDSDJdNykoW0NIM10pW0NIM10=

>  <s_epik_cmdline>  (178) 
J2VwaWtfcHl0aG9uJywgJy1waHQnLCAnMi4wJywgJy1waCcsICc3LjAnLCAnLXRuJywgJzgnLCAnLW1hJywgJzIwMCcsICctaW1hZScsICc8aW5maWxlLm1hZT4nLCAnLW9tYWUnLCAnPG91dGZpbGUubWFlPic=

>  <r_lp_tautomer_probability>  (178) 
1

>  <r_epik_Ionization_Penalty>  (178) 
7.13112e-08

>  <r_epik_Ionization_Penalty_Charging>  (178) 
0

>  <r_epik_Ionization_Penalty_Neutral>  (178) 
7.13112e-08

>  <r_epik_State_Penalty>  (178) 
-0

>  <r_epik_Charging_Adjusted_Penalty>  (178) 
0

>  <i_epik_Tot_Q>  (178) 
0

>  <i_epik_Tot_abs_Q>  (178) 
0

>  <s_epik_Chemistry_Notes>  (178) 
This compound has an ester and may undergo hydrolysis at high or low pH.

>  <s_lp_Force_Field>  (178) 
OPLS3e

>  <r_lp_Energy>  (178) 
167.449

>  <b_lp_Chiralities_Consistent>  (178) 
1

>  <s_lp_Variant>  (178) 
64:0-5

>  <s_i_glide_gridfile>  (178) 
pfpi4k_grid

>  <i_i_glide_lignum>  (178) 
13

>  <i_i_glide_rotatable_bonds>  (178) 
4

>  <r_i_docking_score>  (178) 
-2.85235

>  <r_i_glide_ligand_efficiency>  (178) 
-0.0731372

>  <r_i_glide_ligand_efficiency_sa>  (178) 
-0.248024

>  <r_i_glide_ligand_efficiency_ln>  (178) 
-0.611625

>  <r_i_glide_gscore>  (178) 
-2.85235

>  <r_i_glide_lipo>  (178) 
-0.57662

>  <r_i_glide_hbond>  (178) 
0

>  <r_i_glide_metal>  (178) 
-0

>  <r_i_glide_rewards>  (178) 
-0.0133017

>  <r_i_glide_evdw>  (178) 
-35.5026

>  <r_i_glide_ecoul>  (178) 
-4.20476

>  <r_i_glide_erotb>  (178) 
0.143415

>  <r_i_glide_esite>  (178) 
0

>  <r_i_glide_emodel>  (178) 
-44.1293

>  <r_i_glide_energy>  (178) 
-39.7073

>  <r_i_glide_einternal>  (178) 
5.25977

>  <r_i_glide_intrahb_reward>  (178) 
-0

>  <i_i_glide_confnum>  (178) 
1

>  <i_i_glide_posenum>  (178) 
21

>  <r_i_glide_eff_state_penalty>  (178) 
0

>  <ligand_id>  (178) 
64

>  <original_smiles>  (178) 
C=C1CC(OC(C)=O)C23C4=C(C)C(c5ccoc5)CC1OC21C(O)C2(C)CC(OC43)C3OC1(C)CC(C)(C)C32

>  <smiles>  (178) 
[H]OC1([H])C23OC4([H])C(=C([H])[H])C([H])([H])C([H])(OC(=O)C([H])([H])[H])C25C(=C(C([H])([H])[H])C([H])(c2c([H])oc([H])c2[H])C4([H])[H])C5([H])OC2([H])C([H])([H])C1(C([H])([H])[H])C1([H])C2([H])OC3(C([H])([H])[H])C([H])([H])C1(C([H])([H])[H])C([H])([H])[H]

$$$$
64:4:1
     RDKit          3D

 79 86  0  0  1  0  0  0  0  0999 V2000
    5.8793   -3.9148    0.5216 C   0  0  0  0  0  0  0  0  0  0  0  0
    5.1315   -4.9116    1.0287 C   0  0  0  0  0  0  0  0  0  0  0  0
    5.8202   -6.0732    1.7466 C   0  0  0  0  0  0  0  0  0  0  0  0
    5.3151   -6.4134    3.1861 C   0  0  1  0  0  0  0  0  0  0  0  0
    6.2754   -5.9006    4.1268 O   0  0  0  0  0  0  0  0  0  0  0  0
    7.2492   -6.6632    4.6679 C   0  0  0  0  0  0  0  0  0  0  0  0
    8.1371   -5.8691    5.6229 C   0  0  0  0  0  0  0  0  0  0  0  0
    7.4486   -7.8579    4.4458 O   0  0  0  0  0  0  0  0  0  0  0  0
    3.8691   -5.9175    3.4469 C   0  0  1  0  0  0  0  0  0  0  0  0
    4.1790   -4.4831    3.9627 C   0  0  0  0  0  0  0  0  0  0  0  0
    3.8532   -3.3146    3.3605 C   0  0  0  0  0  0  0  0  0  0  0  0
    4.8578   -2.1796    3.4579 C   0  0  0  0  0  0  0  0  0  0  0  0
    2.6406   -3.0670    2.4557 C   0  0  1  0  0  0  0  0  0  0  0  0
    2.1367   -1.6170    2.4334 C   0  0  0  0  0  0  0  0  0  0  0  0
    2.6285   -0.4989    1.6836 C   0  0  0  0  0  0  0  0  0  0  0  0
    1.8191    0.5574    1.9691 C   0  0  0  0  0  0  0  0  0  0  0  0
    0.8517    0.1913    2.8435 O   0  0  0  0  0  0  0  0  0  0  0  0
    1.0686   -1.1186    3.1150 C   0  0  0  0  0  0  0  0  0  0  0  0
    2.8390   -3.6190    1.0169 C   0  0  0  0  0  0  0  0  0  0  0  0
    3.6074   -4.9574    0.7943 C   0  0  2  0  0  0  0  0  0  0  0  0
    2.9120   -6.1531    1.1894 O   0  0  0  0  0  0  0  0  0  0  0  0
    2.7626   -6.6125    2.5466 C   0  0  2  0  0  0  0  0  0  0  0  0
    1.2340   -6.3582    3.0531 C   0  0  1  0  0  0  0  0  0  0  0  0
    0.3311   -6.3052    1.9572 O   0  0  0  0  0  0  0  0  0  0  0  0
    0.5932   -7.2118    4.2587 C   0  0  2  0  0  0  0  0  0  0  0  0
   -0.9416   -7.0116    4.3596 C   0  0  0  0  0  0  0  0  0  0  0  0
    1.1218   -6.8416    5.6730 C   0  0  0  0  0  0  0  0  0  0  0  0
    2.5531   -7.4063    5.7702 C   0  0  2  0  0  0  0  0  0  0  0  0
    3.6090   -6.4178    5.5993 O   0  0  0  0  0  0  0  0  0  0  0  0
    3.2558   -5.3799    4.6997 C   0  0  2  0  0  0  0  0  0  0  0  0
    2.4722   -8.6385    4.8052 C   0  0  2  0  0  0  0  0  0  0  0  0
    3.4100   -8.6693    3.7293 O   0  0  0  0  0  0  0  0  0  0  0  0
    2.9748   -8.2071    2.4468 C   0  0  2  0  0  0  0  0  0  0  0  0
    4.0927   -8.7423    1.4934 C   0  0  0  0  0  0  0  0  0  0  0  0
    1.7320   -8.9938    1.9378 C   0  0  0  0  0  0  0  0  0  0  0  0
    0.8267   -9.5648    3.0270 C   0  0  0  0  0  0  0  0  0  0  0  0
   -0.6270   -9.6197    2.5064 C   0  0  0  0  0  0  0  0  0  0  0  0
    1.2218  -11.0293    3.3582 C   0  0  0  0  0  0  0  0  0  0  0  0
    1.0070   -8.7020    4.2924 C   0  0  2  0  0  0  0  0  0  0  0  0
    5.4442   -3.1043   -0.0448 H   0  0  0  0  0  0  0  0  0  0  0  0
    6.9504   -3.8959    0.6517 H   0  0  0  0  0  0  0  0  0  0  0  0
    5.7884   -6.9122    1.0603 H   0  0  0  0  0  0  0  0  0  0  0  0
    6.8865   -5.8559    1.7994 H   0  0  0  0  0  0  0  0  0  0  0  0
    5.3385   -7.4772    3.3591 H   0  0  0  0  0  0  0  0  0  0  0  0
    7.5437   -5.4269    6.4235 H   0  0  0  0  0  0  0  0  0  0  0  0
    8.6449   -5.0664    5.0885 H   0  0  0  0  0  0  0  0  0  0  0  0
    8.8947   -6.5118    6.0710 H   0  0  0  0  0  0  0  0  0  0  0  0
    5.1279   -1.8086    2.4655 H   0  0  0  0  0  0  0  0  0  0  0  0
    5.7818   -2.5200    3.9348 H   0  0  0  0  0  0  0  0  0  0  0  0
    4.4647   -1.3454    4.0453 H   0  0  0  0  0  0  0  0  0  0  0  0
    1.8074   -3.5916    2.8936 H   0  0  0  0  0  0  0  0  0  0  0  0
    3.4531   -0.4645    0.9904 H   0  0  0  0  0  0  0  0  0  0  0  0
    1.7709    1.5870    1.6450 H   0  0  0  0  0  0  0  0  0  0  0  0
    0.3377   -1.5398    3.7943 H   0  0  0  0  0  0  0  0  0  0  0  0
    1.8627   -3.7117    0.5523 H   0  0  0  0  0  0  0  0  0  0  0  0
    3.3248   -2.8549    0.4171 H   0  0  0  0  0  0  0  0  0  0  0  0
    3.5683   -5.0806   -0.2898 H   0  0  0  0  0  0  0  0  0  0  0  0
    1.0841   -5.3448    3.3654 H   0  0  0  0  0  0  0  0  0  0  0  0
    0.2995   -7.1722    1.5732 H   0  0  0  0  0  0  0  0  0  0  0  0
   -1.3758   -7.6427    5.1349 H   0  0  0  0  0  0  0  0  0  0  0  0
   -1.4945   -7.2279    3.4503 H   0  0  0  0  0  0  0  0  0  0  0  0
   -1.1655   -5.9808    4.6261 H   0  0  0  0  0  0  0  0  0  0  0  0
    0.9697   -5.8110    5.9949 H   0  0  0  0  0  0  0  0  0  0  0  0
    0.5307   -7.3859    6.4139 H   0  0  0  0  0  0  0  0  0  0  0  0
    2.6830   -7.7931    6.7815 H   0  0  0  0  0  0  0  0  0  0  0  0
    2.3176   -4.8589    4.8758 H   0  0  0  0  0  0  0  0  0  0  0  0
    2.6800   -9.5351    5.3887 H   0  0  0  0  0  0  0  0  0  0  0  0
    4.0605   -8.2799    0.5063 H   0  0  0  0  0  0  0  0  0  0  0  0
    4.0146   -9.8164    1.3207 H   0  0  0  0  0  0  0  0  0  0  0  0
    5.1043   -8.7042    1.8810 H   0  0  0  0  0  0  0  0  0  0  0  0
    1.1899   -8.4002    1.2109 H   0  0  0  0  0  0  0  0  0  0  0  0
    1.9940   -9.8438    1.3217 H   0  0  0  0  0  0  0  0  0  0  0  0
   -1.3473   -9.8350    3.2969 H   0  0  0  0  0  0  0  0  0  0  0  0
   -0.7481  -10.3997    1.7535 H   0  0  0  0  0  0  0  0  0  0  0  0
   -0.9281   -8.6985    2.0152 H   0  0  0  0  0  0  0  0  0  0  0  0
    0.6358  -11.4376    4.1855 H   0  0  0  0  0  0  0  0  0  0  0  0
    2.2738  -11.1284    3.6236 H   0  0  0  0  0  0  0  0  0  0  0  0
    1.0539  -11.6928    2.5110 H   0  0  0  0  0  0  0  0  0  0  0  0
    0.4209   -9.1917    5.0772 H   0  0  0  0  0  0  0  0  0  0  0  0
  1  2  2  0
  1 40  1  0
  1 41  1  0
  2 20  1  0
  2  3  1  0
  3  4  1  0
  3 42  1  0
  3 43  1  0
  4  5  1  0
  4  9  1  0
  4 44  1  6
  5  6  1  0
  6  7  1  0
  6  8  2  0
  7 45  1  0
  7 46  1  0
  7 47  1  0
  9 22  1  0
  9 30  1  0
  9 10  1  6
 10 30  1  0
 10 11  2  3
 11 12  1  0
 11 13  1  0
 12 48  1  0
 12 49  1  0
 12 50  1  0
 13 14  1  0
 13 19  1  0
 13 51  1  1
 14 18  2  0
 14 15  1  0
 15 16  2  0
 15 52  1  0
 16 17  1  0
 16 53  1  0
 17 18  1  0
 18 54  1  0
 19 20  1  0
 19 55  1  0
 19 56  1  0
 20 21  1  0
 20 57  1  6
 22 21  1  6
 22 33  1  0
 22 23  1  0
 23 24  1  0
 23 25  1  0
 23 58  1  1
 24 59  1  0
 25 39  1  0
 25 26  1  1
 25 27  1  0
 26 60  1  0
 26 61  1  0
 26 62  1  0
 27 28  1  0
 27 63  1  0
 27 64  1  0
 28 29  1  0
 28 31  1  0
 28 65  1  1
 29 30  1  0
 30 66  1  6
 31 39  1  0
 31 32  1  0
 31 67  1  1
 32 33  1  0
 33 34  1  6
 33 35  1  0
 34 68  1  0
 34 69  1  0
 34 70  1  0
 35 36  1  0
 35 71  1  0
 35 72  1  0
 36 37  1  0
 36 38  1  0
 36 39  1  0
 37 73  1  0
 37 74  1  0
 37 75  1  0
 38 76  1  0
 38 77  1  0
 38 78  1  0
 39 79  1  1
M  END
>  <i_m_ct_stereo_status>  (179) 
1

>  <s_m_source_file>  (179) 
/var/tmp/pbs.5076255.sched01/tmp403565pz/80s7duc8s0.sdf

>  <i_m_source_file_index>  (179) 
13

>  <i_lp_mmshare_version>  (179) 
48012

>  <i_f3d_flags>  (179) 
0

>  <s_epik_input>  (179) 
W0NIM11DKD1PKU9bQ0BASF0xW0NIMl1DKD1bQ0gyXSlbQ0BASF0oTzIpW0NIMl1bQ0BIXShjM1tjSF1bY0hdb1tjSF0zKUMoXFtDSDNdKT1DXDRbQ0hdNU9bQ0BIXShbQ0BASF02T1tDQEBdNyhbQ0BAXTI4QzE0NSlbQ0gzXSlbQ0gyXVtDQEBdKFtDSDNdKShbQ0BASF04W09IXSlbQ0BIXTZDKFtDSDJdNykoW0NIM10pW0NIM10=

>  <s_epik_cmdline>  (179) 
J2VwaWtfcHl0aG9uJywgJy1waHQnLCAnMi4wJywgJy1waCcsICc3LjAnLCAnLXRuJywgJzgnLCAnLW1hJywgJzIwMCcsICctaW1hZScsICc8aW5maWxlLm1hZT4nLCAnLW9tYWUnLCAnPG91dGZpbGUubWFlPic=

>  <r_lp_tautomer_probability>  (179) 
1

>  <r_epik_Ionization_Penalty>  (179) 
7.13112e-08

>  <r_epik_Ionization_Penalty_Charging>  (179) 
0

>  <r_epik_Ionization_Penalty_Neutral>  (179) 
7.13112e-08

>  <r_epik_State_Penalty>  (179) 
-0

>  <r_epik_Charging_Adjusted_Penalty>  (179) 
0

>  <i_epik_Tot_Q>  (179) 
0

>  <i_epik_Tot_abs_Q>  (179) 
0

>  <s_epik_Chemistry_Notes>  (179) 
This compound has an ester and may undergo hydrolysis at high or low pH.

>  <s_lp_Force_Field>  (179) 
OPLS3e

>  <r_lp_Energy>  (179) 
167.449

>  <b_lp_Chiralities_Consistent>  (179) 
1

>  <s_lp_Variant>  (179) 
64:0-5

>  <s_i_glide_gridfile>  (179) 
pfpi4k_grid

>  <i_i_glide_lignum>  (179) 
13

>  <i_i_glide_rotatable_bonds>  (179) 
4

>  <r_i_docking_score>  (179) 
-2.81719

>  <r_i_glide_ligand_efficiency>  (179) 
-0.0722357

>  <r_i_glide_ligand_efficiency_sa>  (179) 
-0.244967

>  <r_i_glide_ligand_efficiency_ln>  (179) 
-0.604086

>  <r_i_glide_gscore>  (179) 
-2.81719

>  <r_i_glide_lipo>  (179) 
-0.591

>  <r_i_glide_hbond>  (179) 
0

>  <r_i_glide_metal>  (179) 
-0

>  <r_i_glide_rewards>  (179) 
-0.00340263

>  <r_i_glide_evdw>  (179) 
-34.5055

>  <r_i_glide_ecoul>  (179) 
-4.27286

>  <r_i_glide_erotb>  (179) 
0.143415

>  <r_i_glide_esite>  (179) 
0

>  <r_i_glide_emodel>  (179) 
-45.7379

>  <r_i_glide_energy>  (179) 
-38.7784

>  <r_i_glide_einternal>  (179) 
0.158207

>  <r_i_glide_intrahb_reward>  (179) 
-0

>  <i_i_glide_confnum>  (179) 
2

>  <i_i_glide_posenum>  (179) 
22

>  <r_i_glide_eff_state_penalty>  (179) 
0

>  <ligand_id>  (179) 
64

>  <original_smiles>  (179) 
C=C1CC(OC(C)=O)C23C4=C(C)C(c5ccoc5)CC1OC21C(O)C2(C)CC(OC43)C3OC1(C)CC(C)(C)C32

>  <smiles>  (179) 
[H]OC1([H])C23OC4([H])C(=C([H])[H])C([H])([H])C([H])(OC(=O)C([H])([H])[H])C25C(=C(C([H])([H])[H])C([H])(c2c([H])oc([H])c2[H])C4([H])[H])C5([H])OC2([H])C([H])([H])C1(C([H])([H])[H])C1([H])C2([H])OC3(C([H])([H])[H])C([H])([H])C1(C([H])([H])[H])C([H])([H])[H]

$$$$
64:4:2
     RDKit          3D

 79 86  0  0  1  0  0  0  0  0999 V2000
    5.9196   -3.9779    0.5826 C   0  0  0  0  0  0  0  0  0  0  0  0
    5.1516   -4.9587    1.0896 C   0  0  0  0  0  0  0  0  0  0  0  0
    5.8125   -6.1187    1.8356 C   0  0  0  0  0  0  0  0  0  0  0  0
    5.2812   -6.4308    3.2725 C   0  0  1  0  0  0  0  0  0  0  0  0
    6.2314   -5.9176    4.2220 O   0  0  0  0  0  0  0  0  0  0  0  0
    7.2170   -6.6743    4.7504 C   0  0  0  0  0  0  0  0  0  0  0  0
    8.1060   -5.8774    5.7018 C   0  0  0  0  0  0  0  0  0  0  0  0
    7.4274   -7.8646    4.5165 O   0  0  0  0  0  0  0  0  0  0  0  0
    3.8390   -5.9119    3.5031 C   0  0  1  0  0  0  0  0  0  0  0  0
    4.1611   -4.4760    4.0032 C   0  0  0  0  0  0  0  0  0  0  0  0
    3.8650   -3.3123    3.3727 C   0  0  0  0  0  0  0  0  0  0  0  0
    4.8746   -2.1877    3.4776 C   0  0  0  0  0  0  0  0  0  0  0  0
    2.6741   -3.0598    2.4374 C   0  0  1  0  0  0  0  0  0  0  0  0
    2.1710   -1.6124    2.3915 C   0  0  0  0  0  0  0  0  0  0  0  0
    1.0193   -1.1127    3.0808 C   0  0  0  0  0  0  0  0  0  0  0  0
    0.8882    0.1979    2.7393 C   0  0  0  0  0  0  0  0  0  0  0  0
    1.8823    0.5702    1.8984 O   0  0  0  0  0  0  0  0  0  0  0  0
    2.6452   -0.5336    1.7009 C   0  0  0  0  0  0  0  0  0  0  0  0
    2.8829   -3.6365    1.0115 C   0  0  0  0  0  0  0  0  0  0  0  0
    3.6331   -4.9905    0.8286 C   0  0  2  0  0  0  0  0  0  0  0  0
    2.9161   -6.1699    1.2332 O   0  0  0  0  0  0  0  0  0  0  0  0
    2.7385   -6.6078    2.5949 C   0  0  2  0  0  0  0  0  0  0  0  0
    1.2066   -6.3253    3.0716 C   0  0  1  0  0  0  0  0  0  0  0  0
    0.3242   -6.2792    1.9596 O   0  0  0  0  0  0  0  0  0  0  0  0
    0.5373   -7.1578    4.2773 C   0  0  2  0  0  0  0  0  0  0  0  0
   -0.9937   -6.9402    4.3506 C   0  0  0  0  0  0  0  0  0  0  0  0
    1.0453   -6.7739    5.6950 C   0  0  0  0  0  0  0  0  0  0  0  0
    2.4676   -7.3527    5.8229 C   0  0  2  0  0  0  0  0  0  0  0  0
    3.5356   -6.3773    5.6518 O   0  0  0  0  0  0  0  0  0  0  0  0
    3.2123   -5.3445    4.7366 C   0  0  2  0  0  0  0  0  0  0  0  0
    2.3859   -8.5994    4.8756 C   0  0  2  0  0  0  0  0  0  0  0  0
    3.3396   -8.6582    3.8156 O   0  0  0  0  0  0  0  0  0  0  0  0
    2.9296   -8.2066    2.5210 C   0  0  2  0  0  0  0  0  0  0  0  0
    4.0561   -8.7671    1.5942 C   0  0  0  0  0  0  0  0  0  0  0  0
    1.6852   -8.9845    2.0019 C   0  0  0  0  0  0  0  0  0  0  0  0
    0.7579   -9.5306    3.0823 C   0  0  0  0  0  0  0  0  0  0  0  0
   -0.6862   -9.5738    2.5346 C   0  0  0  0  0  0  0  0  0  0  0  0
    1.1300  -10.9951    3.4417 C   0  0  0  0  0  0  0  0  0  0  0  0
    0.9293   -8.6532    4.3387 C   0  0  2  0  0  0  0  0  0  0  0  0
    5.5035   -3.1700   -0.0015 H   0  0  0  0  0  0  0  0  0  0  0  0
    6.9882   -3.9687    0.7311 H   0  0  0  0  0  0  0  0  0  0  0  0
    5.7817   -6.9667    1.1606 H   0  0  0  0  0  0  0  0  0  0  0  0
    6.8799   -5.9122    1.9021 H   0  0  0  0  0  0  0  0  0  0  0  0
    5.2880   -7.4909    3.4661 H   0  0  0  0  0  0  0  0  0  0  0  0
    7.5171   -5.4397    6.5085 H   0  0  0  0  0  0  0  0  0  0  0  0
    8.6058   -5.0735    5.1628 H   0  0  0  0  0  0  0  0  0  0  0  0
    8.8731   -6.5143    6.1417 H   0  0  0  0  0  0  0  0  0  0  0  0
    5.1647   -1.8319    2.4846 H   0  0  0  0  0  0  0  0  0  0  0  0
    5.7859   -2.5318    3.9768 H   0  0  0  0  0  0  0  0  0  0  0  0
    4.4756   -1.3429    4.0471 H   0  0  0  0  0  0  0  0  0  0  0  0
    1.8330   -3.5708    2.8679 H   0  0  0  0  0  0  0  0  0  0  0  0
    0.3442   -1.6579    3.7172 H   0  0  0  0  0  0  0  0  0  0  0  0
    0.1743    0.9712    2.9861 H   0  0  0  0  0  0  0  0  0  0  0  0
    3.4602   -0.3591    1.0105 H   0  0  0  0  0  0  0  0  0  0  0  0
    1.9094   -3.7273    0.5420 H   0  0  0  0  0  0  0  0  0  0  0  0
    3.3844   -2.8880    0.4062 H   0  0  0  0  0  0  0  0  0  0  0  0
    3.6096   -5.1327   -0.2531 H   0  0  0  0  0  0  0  0  0  0  0  0
    1.0642   -5.3034    3.3634 H   0  0  0  0  0  0  0  0  0  0  0  0
    0.3222   -7.1425    1.5632 H   0  0  0  0  0  0  0  0  0  0  0  0
   -1.4491   -7.5578    5.1237 H   0  0  0  0  0  0  0  0  0  0  0  0
   -1.5352   -7.1598    3.4353 H   0  0  0  0  0  0  0  0  0  0  0  0
   -1.2056   -5.9040    4.6038 H   0  0  0  0  0  0  0  0  0  0  0  0
    0.8993   -5.7375    6.0024 H   0  0  0  0  0  0  0  0  0  0  0  0
    0.4366   -7.3045    6.4321 H   0  0  0  0  0  0  0  0  0  0  0  0
    2.5757   -7.7255    6.8421 H   0  0  0  0  0  0  0  0  0  0  0  0
    2.2725   -4.8112    4.8897 H   0  0  0  0  0  0  0  0  0  0  0  0
    2.5703   -9.4891    5.4771 H   0  0  0  0  0  0  0  0  0  0  0  0
    4.0449   -8.3183    0.6002 H   0  0  0  0  0  0  0  0  0  0  0  0
    3.9684   -9.8422    1.4352 H   0  0  0  0  0  0  0  0  0  0  0  0
    5.0617   -8.7350    1.9979 H   0  0  0  0  0  0  0  0  0  0  0  0
    1.1613   -8.4007    1.2542 H   0  0  0  0  0  0  0  0  0  0  0  0
    1.9493   -9.8474    1.4071 H   0  0  0  0  0  0  0  0  0  0  0  0
   -1.4256   -9.7716    3.3113 H   0  0  0  0  0  0  0  0  0  0  0  0
   -0.8009  -10.3622    1.7896 H   0  0  0  0  0  0  0  0  0  0  0  0
   -0.9667   -8.6551    2.0266 H   0  0  0  0  0  0  0  0  0  0  0  0
    0.5244  -11.3843    4.2647 H   0  0  0  0  0  0  0  0  0  0  0  0
    2.1751  -11.1029    3.7295 H   0  0  0  0  0  0  0  0  0  0  0  0
    0.9716  -11.6705    2.6021 H   0  0  0  0  0  0  0  0  0  0  0  0
    0.3245   -9.1243    5.1219 H   0  0  0  0  0  0  0  0  0  0  0  0
  1  2  2  0
  1 40  1  0
  1 41  1  0
  2 20  1  0
  2  3  1  0
  3  4  1  0
  3 42  1  0
  3 43  1  0
  4  5  1  0
  4  9  1  0
  4 44  1  6
  5  6  1  0
  6  7  1  0
  6  8  2  0
  7 45  1  0
  7 46  1  0
  7 47  1  0
  9 22  1  0
  9 30  1  0
  9 10  1  6
 10 30  1  0
 10 11  2  3
 11 12  1  0
 11 13  1  0
 12 48  1  0
 12 49  1  0
 12 50  1  0
 13 14  1  0
 13 19  1  0
 13 51  1  1
 14 18  2  0
 14 15  1  0
 15 16  2  0
 15 52  1  0
 16 17  1  0
 16 53  1  0
 17 18  1  0
 18 54  1  0
 19 20  1  0
 19 55  1  0
 19 56  1  0
 20 21  1  0
 20 57  1  6
 22 21  1  6
 22 33  1  0
 22 23  1  0
 23 24  1  0
 23 25  1  0
 23 58  1  1
 24 59  1  0
 25 39  1  0
 25 26  1  1
 25 27  1  0
 26 60  1  0
 26 61  1  0
 26 62  1  0
 27 28  1  0
 27 63  1  0
 27 64  1  0
 28 29  1  0
 28 31  1  0
 28 65  1  1
 29 30  1  0
 30 66  1  6
 31 39  1  0
 31 32  1  0
 31 67  1  1
 32 33  1  0
 33 34  1  6
 33 35  1  0
 34 68  1  0
 34 69  1  0
 34 70  1  0
 35 36  1  0
 35 71  1  0
 35 72  1  0
 36 37  1  0
 36 38  1  0
 36 39  1  0
 37 73  1  0
 37 74  1  0
 37 75  1  0
 38 76  1  0
 38 77  1  0
 38 78  1  0
 39 79  1  1
M  END
>  <i_m_ct_stereo_status>  (180) 
1

>  <s_m_source_file>  (180) 
/var/tmp/pbs.5076255.sched01/tmp403565pz/80s7duc8s0.sdf

>  <i_m_source_file_index>  (180) 
13

>  <i_lp_mmshare_version>  (180) 
48012

>  <i_f3d_flags>  (180) 
0

>  <s_epik_input>  (180) 
W0NIM11DKD1PKU9bQ0BASF0xW0NIMl1DKD1bQ0gyXSlbQ0BASF0oTzIpW0NIMl1bQ0BIXShjM1tjSF1bY0hdb1tjSF0zKUMoXFtDSDNdKT1DXDRbQ0hdNU9bQ0BIXShbQ0BASF02T1tDQEBdNyhbQ0BAXTI4QzE0NSlbQ0gzXSlbQ0gyXVtDQEBdKFtDSDNdKShbQ0BASF04W09IXSlbQ0BIXTZDKFtDSDJdNykoW0NIM10pW0NIM10=

>  <s_epik_cmdline>  (180) 
J2VwaWtfcHl0aG9uJywgJy1waHQnLCAnMi4wJywgJy1waCcsICc3LjAnLCAnLXRuJywgJzgnLCAnLW1hJywgJzIwMCcsICctaW1hZScsICc8aW5maWxlLm1hZT4nLCAnLW9tYWUnLCAnPG91dGZpbGUubWFlPic=

>  <r_lp_tautomer_probability>  (180) 
1

>  <r_epik_Ionization_Penalty>  (180) 
7.13112e-08

>  <r_epik_Ionization_Penalty_Charging>  (180) 
0

>  <r_epik_Ionization_Penalty_Neutral>  (180) 
7.13112e-08

>  <r_epik_State_Penalty>  (180) 
-0

>  <r_epik_Charging_Adjusted_Penalty>  (180) 
0

>  <i_epik_Tot_Q>  (180) 
0

>  <i_epik_Tot_abs_Q>  (180) 
0

>  <s_epik_Chemistry_Notes>  (180) 
This compound has an ester and may undergo hydrolysis at high or low pH.

>  <s_lp_Force_Field>  (180) 
OPLS3e

>  <r_lp_Energy>  (180) 
167.449

>  <b_lp_Chiralities_Consistent>  (180) 
1

>  <s_lp_Variant>  (180) 
64:0-5

>  <s_i_glide_gridfile>  (180) 
pfpi4k_grid

>  <i_i_glide_lignum>  (180) 
13

>  <i_i_glide_rotatable_bonds>  (180) 
4

>  <r_i_docking_score>  (180) 
-2.80562

>  <r_i_glide_ligand_efficiency>  (180) 
-0.0719389

>  <r_i_glide_ligand_efficiency_sa>  (180) 
-0.24396

>  <r_i_glide_ligand_efficiency_ln>  (180) 
-0.601604

>  <r_i_glide_gscore>  (180) 
-2.80562

>  <r_i_glide_lipo>  (180) 
-0.589365

>  <r_i_glide_hbond>  (180) 
0

>  <r_i_glide_metal>  (180) 
-0

>  <r_i_glide_rewards>  (180) 
-0.00241913

>  <r_i_glide_evdw>  (180) 
-34.4176

>  <r_i_glide_ecoul>  (180) 
-4.24246

>  <r_i_glide_erotb>  (180) 
0.143415

>  <r_i_glide_esite>  (180) 
0

>  <r_i_glide_emodel>  (180) 
-45.5922

>  <r_i_glide_energy>  (180) 
-38.6601

>  <r_i_glide_einternal>  (180) 
0.124599

>  <r_i_glide_intrahb_reward>  (180) 
-0

>  <i_i_glide_confnum>  (180) 
1

>  <i_i_glide_posenum>  (180) 
27

>  <r_i_glide_eff_state_penalty>  (180) 
0

>  <ligand_id>  (180) 
64

>  <original_smiles>  (180) 
C=C1CC(OC(C)=O)C23C4=C(C)C(c5ccoc5)CC1OC21C(O)C2(C)CC(OC43)C3OC1(C)CC(C)(C)C32

>  <smiles>  (180) 
[H]OC1([H])C23OC4([H])C(=C([H])[H])C([H])([H])C([H])(OC(=O)C([H])([H])[H])C25C(=C(C([H])([H])[H])C([H])(c2c([H])oc([H])c2[H])C4([H])[H])C5([H])OC2([H])C([H])([H])C1(C([H])([H])[H])C1([H])C2([H])OC3(C([H])([H])[H])C([H])([H])C1(C([H])([H])[H])C([H])([H])[H]

$$$$
67:0:0
     RDKit          3D

 38 43  0  0  1  0  0  0  0  0999 V2000
    3.9015   -1.1106   -4.1964 C   0  0  0  0  0  0  0  0  0  0  0  0
    3.9289   -2.4450   -3.7295 O   0  0  0  0  0  0  0  0  0  0  0  0
    3.3288   -2.6783   -2.4476 C   0  0  0  0  0  0  0  0  0  0  0  0
    4.3335   -2.4457   -1.2961 C   0  0  2  0  0  0  0  0  0  0  0  0
    5.0047   -1.0474   -1.3106 C   0  0  0  0  0  0  0  0  0  0  0  0
    5.8930   -1.1671   -0.0920 C   0  0  2  0  0  0  0  0  0  0  0  0
    6.9231   -2.2829   -0.4323 C   0  0  2  0  0  0  0  0  0  0  0  0
    6.8471   -3.0647   -1.7665 C   0  0  0  0  0  0  0  0  0  0  0  0
    5.4904   -3.5264   -1.2315 C   0  0  1  0  0  0  0  0  0  0  0  0
    6.2544   -3.5270    0.1165 C   0  0  2  0  0  0  0  0  0  0  0  0
    5.5010   -3.1200    1.3879 C   0  0  2  0  0  0  0  0  0  0  0  0
    4.3073   -4.0180    1.7441 C   0  0  2  0  0  0  0  0  0  0  0  0
    4.5300   -5.3702    1.4077 O   0  0  0  0  0  0  0  0  0  0  0  0
    3.5319   -5.7463    0.5189 C   0  0  0  0  0  0  0  0  0  0  0  0
    2.8458   -4.6410    0.0336 O   0  0  0  0  0  0  0  0  0  0  0  0
    3.1617   -3.5476    0.8612 C   0  0  2  0  0  0  0  0  0  0  0  0
    3.6821   -2.2975    0.1153 C   0  0  1  0  0  0  0  0  0  0  0  0
    4.8925   -1.7837    0.9451 C   0  0  2  0  0  0  0  0  0  0  0  0
    4.3378   -1.1049   -5.2071 H   0  0  0  0  0  0  0  0  0  0  0  0
    4.4273   -0.4165   -3.6459 H   0  0  0  0  0  0  0  0  0  0  0  0
    2.8489   -0.7715   -4.3277 H   0  0  0  0  0  0  0  0  0  0  0  0
    2.4299   -2.0628   -2.3321 H   0  0  0  0  0  0  0  0  0  0  0  0
    2.9644   -3.6927   -2.4025 H   0  0  0  0  0  0  0  0  0  0  0  0
    5.6231   -0.8103   -2.1604 H   0  0  0  0  0  0  0  0  0  0  0  0
    4.2745   -0.2415   -1.2096 H   0  0  0  0  0  0  0  0  0  0  0  0
    6.3359   -0.2205    0.2072 H   0  0  0  0  0  0  0  0  0  0  0  0
    7.9294   -2.1404   -0.0734 H   0  0  0  0  0  0  0  0  0  0  0  0
    6.8027   -2.5181   -2.7130 H   0  0  0  0  0  0  0  0  0  0  0  0
    7.6019   -3.8632   -1.8538 H   0  0  0  0  0  0  0  0  0  0  0  0
    5.2207   -4.5225   -1.5574 H   0  0  0  0  0  0  0  0  0  0  0  0
    6.9473   -4.3829    0.2174 H   0  0  0  0  0  0  0  0  0  0  0  0
    6.1946   -2.9914    2.2190 H   0  0  0  0  0  0  0  0  0  0  0  0
    4.0428   -3.8998    2.7933 H   0  0  0  0  0  0  0  0  0  0  0  0
    3.9976   -6.2561   -0.3277 H   0  0  0  0  0  0  0  0  0  0  0  0
    2.8416   -6.4319    1.0219 H   0  0  0  0  0  0  0  0  0  0  0  0
    2.3012   -3.2956    1.4862 H   0  0  0  0  0  0  0  0  0  0  0  0
    2.8869   -1.5500    0.0645 H   0  0  0  0  0  0  0  0  0  0  0  0
    4.5925   -1.1276    1.7633 H   0  0  0  0  0  0  0  0  0  0  0  0
  1  2  1  0
  1 19  1  0
  1 20  1  0
  1 21  1  0
  2  3  1  0
  4  3  1  6
  3 22  1  0
  3 23  1  0
  4  9  1  0
  4 17  1  0
  4  5  1  0
  5  6  1  0
  5 24  1  0
  5 25  1  0
  6 18  1  0
  6  7  1  0
  6 26  1  1
  7 10  1  0
  7  8  1  0
  7 27  1  1
  8  9  1  0
  8 28  1  0
  8 29  1  0
  9 10  1  0
  9 30  1  6
 10 11  1  0
 10 31  1  1
 11 18  1  0
 11 12  1  0
 11 32  1  1
 12 16  1  0
 12 13  1  0
 12 33  1  1
 13 14  1  0
 14 15  1  0
 14 34  1  0
 14 35  1  0
 15 16  1  0
 16 17  1  0
 16 36  1  1
 17 18  1  0
 17 37  1  6
 18 38  1  1
M  END
>  <i_m_ct_stereo_status>  (181) 
1

>  <s_m_source_file>  (181) 
/var/tmp/pbs.5076255.sched01/tmp403565pz/80s7duc8s0.sdf

>  <i_m_source_file_index>  (181) 
20

>  <i_lp_mmshare_version>  (181) 
48012

>  <i_f3d_flags>  (181) 
0

>  <s_epik_input>  (181) 
W0NIM11PW0NIMl1bQ0BAXTEyW0NAQEhdM1tDQEhdNFtDQEBIXShbQ0gyXTMpW0NAQEhdKFtDSDJdMSlbQ0BASF01W0NASF00W0NASF02W0NAQEhdKFtDQEhdMjUpT1tDSDJdTzY=

>  <s_epik_cmdline>  (181) 
J2VwaWtfcHl0aG9uJywgJy1waHQnLCAnMi4wJywgJy1waCcsICc3LjAnLCAnLXRuJywgJzgnLCAnLW1hJywgJzIwMCcsICctaW1hZScsICc8aW5maWxlLm1hZT4nLCAnLW9tYWUnLCAnPG91dGZpbGUubWFlPic=

>  <r_lp_tautomer_probability>  (181) 
1

>  <r_epik_Ionization_Penalty>  (181) 
2.9684e-11

>  <r_epik_Ionization_Penalty_Charging>  (181) 
0

>  <r_epik_Ionization_Penalty_Neutral>  (181) 
2.9684e-11

>  <r_epik_State_Penalty>  (181) 
-0

>  <r_epik_Charging_Adjusted_Penalty>  (181) 
0

>  <i_epik_Tot_Q>  (181) 
0

>  <i_epik_Tot_abs_Q>  (181) 
0

>  <s_epik_Chemistry_Notes>  (181) 
This compound contains an acetal/aminal-like group ( X-CH(R)-Y where X, Y are N, S, or O) that may be acid/base labile, releasing an aldehyde.

>  <s_lp_Force_Field>  (181) 
OPLS3e

>  <r_lp_Energy>  (181) 
57.0227

>  <b_lp_Chiralities_Consistent>  (181) 
1

>  <s_lp_Variant>  (181) 
67:0-1

>  <s_i_glide_gridfile>  (181) 
pfpi4k_grid

>  <i_i_glide_lignum>  (181) 
20

>  <i_i_glide_rotatable_bonds>  (181) 
2

>  <r_i_docking_score>  (181) 
-3.25952

>  <r_i_glide_ligand_efficiency>  (181) 
-0.181085

>  <r_i_glide_ligand_efficiency_sa>  (181) 
-0.474576

>  <r_i_glide_ligand_efficiency_ln>  (181) 
-0.837843

>  <r_i_glide_gscore>  (181) 
-3.25952

>  <r_i_glide_lipo>  (181) 
-0.325243

>  <r_i_glide_hbond>  (181) 
-0.00803802

>  <r_i_glide_metal>  (181) 
-0

>  <r_i_glide_rewards>  (181) 
-1.71602

>  <r_i_glide_evdw>  (181) 
-19.2787

>  <r_i_glide_ecoul>  (181) 
-1.63275

>  <r_i_glide_erotb>  (181) 
0

>  <r_i_glide_esite>  (181) 
-0.00137731

>  <r_i_glide_emodel>  (181) 
-23.384

>  <r_i_glide_energy>  (181) 
-20.9114

>  <r_i_glide_einternal>  (181) 
1.16071

>  <r_i_glide_intrahb_reward>  (181) 
-0

>  <i_i_glide_confnum>  (181) 
2

>  <i_i_glide_posenum>  (181) 
38

>  <r_i_glide_eff_state_penalty>  (181) 
0

>  <ligand_id>  (181) 
67

>  <original_smiles>  (181) 
COCC12CC3C4CC1C4C1C4OCOC4C2C31

>  <smiles>  (181) 
[H]C([H])([H])OC([H])([H])C12C([H])([H])C3([H])C4([H])C([H])([H])C1([H])C4([H])C1([H])C4([H])OC([H])([H])OC4([H])C2([H])C31[H]

$$$$
67:0:1
     RDKit          3D

 38 43  0  0  1  0  0  0  0  0999 V2000
    1.5539   -4.8180    3.2738 C   0  0  0  0  0  0  0  0  0  0  0  0
    2.2139   -4.6474    2.0322 O   0  0  0  0  0  0  0  0  0  0  0  0
    2.5679   -3.2953    1.7817 C   0  0  0  0  0  0  0  0  0  0  0  0
    3.3217   -3.2005    0.4429 C   0  0  2  0  0  0  0  0  0  0  0  0
    2.4666   -3.6632   -0.7637 C   0  0  0  0  0  0  0  0  0  0  0  0
    3.5029   -3.4518   -1.8708 C   0  0  2  0  0  0  0  0  0  0  0  0
    4.6806   -4.4172   -1.5812 C   0  0  2  0  0  0  0  0  0  0  0  0
    4.6614   -5.3408   -0.3396 C   0  0  0  0  0  0  0  0  0  0  0  0
    4.6755   -4.0025    0.4225 C   0  0  1  0  0  0  0  0  0  0  0  0
    5.6386   -3.5908   -0.7437 C   0  0  2  0  0  0  0  0  0  0  0  0
    5.5599   -2.1707   -1.2605 C   0  0  2  0  0  0  0  0  0  0  0  0
    5.9044   -1.1006   -0.2211 C   0  0  2  0  0  0  0  0  0  0  0  0
    6.9118   -1.5080    0.6724 O   0  0  0  0  0  0  0  0  0  0  0  0
    6.3591   -1.4504    1.9455 C   0  0  0  0  0  0  0  0  0  0  0  0
    4.9814   -1.2984    1.9055 O   0  0  0  0  0  0  0  0  0  0  0  0
    4.6475   -0.8932    0.5992 C   0  0  2  0  0  0  0  0  0  0  0  0
    3.5615   -1.7536   -0.0690 C   0  0  1  0  0  0  0  0  0  0  0  0
    4.0480   -2.0337   -1.5124 C   0  0  2  0  0  0  0  0  0  0  0  0
    1.3073   -5.8703    3.4146 H   0  0  0  0  0  0  0  0  0  0  0  0
    0.6258   -4.2471    3.3089 H   0  0  0  0  0  0  0  0  0  0  0  0
    2.1861   -4.5084    4.1066 H   0  0  0  0  0  0  0  0  0  0  0  0
    1.6747   -2.6713    1.7447 H   0  0  0  0  0  0  0  0  0  0  0  0
    3.1893   -2.9177    2.5927 H   0  0  0  0  0  0  0  0  0  0  0  0
    2.1158   -4.6922   -0.7034 H   0  0  0  0  0  0  0  0  0  0  0  0
    1.5818   -3.0609   -0.9338 H   0  0  0  0  0  0  0  0  0  0  0  0
    3.1067   -3.5474   -2.8843 H   0  0  0  0  0  0  0  0  0  0  0  0
    5.1439   -4.8499   -2.4683 H   0  0  0  0  0  0  0  0  0  0  0  0
    3.7724   -5.9579   -0.2159 H   0  0  0  0  0  0  0  0  0  0  0  0
    5.5615   -5.9397   -0.2176 H   0  0  0  0  0  0  0  0  0  0  0  0
    5.1918   -4.0725    1.3840 H   0  0  0  0  0  0  0  0  0  0  0  0
    6.6437   -4.0106   -0.6567 H   0  0  0  0  0  0  0  0  0  0  0  0
    6.1454   -2.0630   -2.1753 H   0  0  0  0  0  0  0  0  0  0  0  0
    6.1913   -0.1737   -0.7061 H   0  0  0  0  0  0  0  0  0  0  0  0
    6.5658   -2.3939    2.4452 H   0  0  0  0  0  0  0  0  0  0  0  0
    6.8124   -0.6398    2.5128 H   0  0  0  0  0  0  0  0  0  0  0  0
    4.3777    0.1643    0.5926 H   0  0  0  0  0  0  0  0  0  0  0  0
    2.6331   -1.1952   -0.0450 H   0  0  0  0  0  0  0  0  0  0  0  0
    3.7871   -1.2316   -2.2054 H   0  0  0  0  0  0  0  0  0  0  0  0
  1  2  1  0
  1 19  1  0
  1 20  1  0
  1 21  1  0
  2  3  1  0
  4  3  1  1
  3 22  1  0
  3 23  1  0
  4  9  1  0
  4 17  1  0
  4  5  1  0
  5  6  1  0
  5 24  1  0
  5 25  1  0
  6 18  1  0
  6  7  1  0
  6 26  1  6
  7 10  1  0
  7  8  1  0
  7 27  1  6
  8  9  1  0
  8 28  1  0
  8 29  1  0
  9 10  1  0
  9 30  1  1
 10 11  1  0
 10 31  1  1
 11 18  1  0
 11 12  1  0
 11 32  1  6
 12 16  1  0
 12 13  1  0
 12 33  1  6
 13 14  1  0
 14 15  1  0
 14 34  1  0
 14 35  1  0
 15 16  1  0
 16 17  1  0
 16 36  1  1
 17 18  1  0
 17 37  1  6
 18 38  1  6
M  END
>  <i_m_ct_stereo_status>  (182) 
1

>  <s_m_source_file>  (182) 
/var/tmp/pbs.5076255.sched01/tmp403565pz/80s7duc8s0.sdf

>  <i_m_source_file_index>  (182) 
20

>  <i_lp_mmshare_version>  (182) 
48012

>  <i_f3d_flags>  (182) 
0

>  <s_epik_input>  (182) 
W0NIM11PW0NIMl1bQ0BAXTEyW0NAQEhdM1tDQEhdNFtDQEBIXShbQ0gyXTMpW0NAQEhdKFtDSDJdMSlbQ0BASF01W0NASF00W0NASF02W0NAQEhdKFtDQEhdMjUpT1tDSDJdTzY=

>  <s_epik_cmdline>  (182) 
J2VwaWtfcHl0aG9uJywgJy1waHQnLCAnMi4wJywgJy1waCcsICc3LjAnLCAnLXRuJywgJzgnLCAnLW1hJywgJzIwMCcsICctaW1hZScsICc8aW5maWxlLm1hZT4nLCAnLW9tYWUnLCAnPG91dGZpbGUubWFlPic=

>  <r_lp_tautomer_probability>  (182) 
1

>  <r_epik_Ionization_Penalty>  (182) 
2.9684e-11

>  <r_epik_Ionization_Penalty_Charging>  (182) 
0

>  <r_epik_Ionization_Penalty_Neutral>  (182) 
2.9684e-11

>  <r_epik_State_Penalty>  (182) 
-0

>  <r_epik_Charging_Adjusted_Penalty>  (182) 
0

>  <i_epik_Tot_Q>  (182) 
0

>  <i_epik_Tot_abs_Q>  (182) 
0

>  <s_epik_Chemistry_Notes>  (182) 
This compound contains an acetal/aminal-like group ( X-CH(R)-Y where X, Y are N, S, or O) that may be acid/base labile, releasing an aldehyde.

>  <s_lp_Force_Field>  (182) 
OPLS3e

>  <r_lp_Energy>  (182) 
57.0227

>  <b_lp_Chiralities_Consistent>  (182) 
1

>  <s_lp_Variant>  (182) 
67:0-1

>  <s_i_glide_gridfile>  (182) 
pfpi4k_grid

>  <i_i_glide_lignum>  (182) 
20

>  <i_i_glide_rotatable_bonds>  (182) 
2

>  <r_i_docking_score>  (182) 
-2.90907

>  <r_i_glide_ligand_efficiency>  (182) 
-0.161615

>  <r_i_glide_ligand_efficiency_sa>  (182) 
-0.42355

>  <r_i_glide_ligand_efficiency_ln>  (182) 
-0.74776

>  <r_i_glide_gscore>  (182) 
-2.90907

>  <r_i_glide_lipo>  (182) 
-0.180729

>  <r_i_glide_hbond>  (182) 
0

>  <r_i_glide_metal>  (182) 
-0

>  <r_i_glide_rewards>  (182) 
-1.88565

>  <r_i_glide_evdw>  (182) 
-13.8684

>  <r_i_glide_ecoul>  (182) 
-0.995125

>  <r_i_glide_erotb>  (182) 
0

>  <r_i_glide_esite>  (182) 
0

>  <r_i_glide_emodel>  (182) 
-18.1733

>  <r_i_glide_energy>  (182) 
-14.8636

>  <r_i_glide_einternal>  (182) 
0.0284773

>  <r_i_glide_intrahb_reward>  (182) 
-0

>  <i_i_glide_confnum>  (182) 
1

>  <i_i_glide_posenum>  (182) 
16

>  <r_i_glide_eff_state_penalty>  (182) 
0

>  <ligand_id>  (182) 
67

>  <original_smiles>  (182) 
COCC12CC3C4CC1C4C1C4OCOC4C2C31

>  <smiles>  (182) 
[H]C([H])([H])OC([H])([H])C12C([H])([H])C3([H])C4([H])C([H])([H])C1([H])C4([H])C1([H])C4([H])OC([H])([H])OC4([H])C2([H])C31[H]

$$$$
67:0:2
     RDKit          3D

 38 43  0  0  1  0  0  0  0  0999 V2000
    3.0073   -6.2187    2.1556 C   0  0  0  0  0  0  0  0  0  0  0  0
    2.0034   -5.2436    1.9403 O   0  0  0  0  0  0  0  0  0  0  0  0
    2.4250   -3.8757    1.9829 C   0  0  0  0  0  0  0  0  0  0  0  0
    3.2201   -3.4461    0.7104 C   0  0  2  0  0  0  0  0  0  0  0  0
    2.5209   -3.8061   -0.6130 C   0  0  0  0  0  0  0  0  0  0  0  0
    3.5599   -3.2539   -1.5960 C   0  0  2  0  0  0  0  0  0  0  0  0
    4.8841   -4.0364   -1.4017 C   0  0  2  0  0  0  0  0  0  0  0  0
    4.9645   -5.1597   -0.3777 C   0  0  0  0  0  0  0  0  0  0  0  0
    4.6868   -4.0077    0.6318 C   0  0  1  0  0  0  0  0  0  0  0  0
    5.6221   -3.2412   -0.3509 C   0  0  2  0  0  0  0  0  0  0  0  0
    5.3367   -1.7912   -0.6239 C   0  0  2  0  0  0  0  0  0  0  0  0
    5.4436   -0.8726    0.6019 C   0  0  2  0  0  0  0  0  0  0  0  0
    6.4462   -1.2945    1.5113 O   0  0  0  0  0  0  0  0  0  0  0  0
    5.8221   -1.5006    2.7279 C   0  0  0  0  0  0  0  0  0  0  0  0
    4.4629   -1.5682    2.5944 O   0  0  0  0  0  0  0  0  0  0  0  0
    4.1344   -1.0036    1.3380 C   0  0  2  0  0  0  0  0  0  0  0  0
    3.2186   -1.9003    0.4752 C   0  0  1  0  0  0  0  0  0  0  0  0
    3.8356   -1.8477   -0.9657 C   0  0  2  0  0  0  0  0  0  0  0  0
    2.6048   -7.2066    2.0626 H   0  0  0  0  0  0  0  0  0  0  0  0
    3.4837   -6.0710    3.1238 H   0  0  0  0  0  0  0  0  0  0  0  0
    3.7622   -6.1829    1.4015 H   0  0  0  0  0  0  0  0  0  0  0  0
    1.5420   -3.2350    2.0838 H   0  0  0  0  0  0  0  0  0  0  0  0
    2.9946   -3.6906    2.8905 H   0  0  0  0  0  0  0  0  0  0  0  0
    2.3096   -4.8757   -0.7087 H   0  0  0  0  0  0  0  0  0  0  0  0
    1.5502   -3.2992   -0.7238 H   0  0  0  0  0  0  0  0  0  0  0  0
    3.2048   -3.2496   -2.6344 H   0  0  0  0  0  0  0  0  0  0  0  0
    5.4571   -4.2422   -2.3201 H   0  0  0  0  0  0  0  0  0  0  0  0
    4.1760   -5.8967   -0.5654 H   0  0  0  0  0  0  0  0  0  0  0  0
    5.9340   -5.6274   -0.2483 H   0  0  0  0  0  0  0  0  0  0  0  0
    5.1739   -4.1598    1.6000 H   0  0  0  0  0  0  0  0  0  0  0  0
    6.6910   -3.5068   -0.2303 H   0  0  0  0  0  0  0  0  0  0  0  0
    5.9339   -1.4282   -1.4662 H   0  0  0  0  0  0  0  0  0  0  0  0
    5.6166    0.1426    0.2977 H   0  0  0  0  0  0  0  0  0  0  0  0
    6.1639   -2.4746    3.0990 H   0  0  0  0  0  0  0  0  0  0  0  0
    6.1269   -0.7204    3.4373 H   0  0  0  0  0  0  0  0  0  0  0  0
    3.6972   -0.0169    1.4811 H   0  0  0  0  0  0  0  0  0  0  0  0
    2.2340   -1.5220    0.5027 H   0  0  0  0  0  0  0  0  0  0  0  0
    3.4712   -1.0030   -1.5499 H   0  0  0  0  0  0  0  0  0  0  0  0
  1  2  1  0
  1 19  1  0
  1 20  1  0
  1 21  1  0
  2  3  1  0
  4  3  1  1
  3 22  1  0
  3 23  1  0
  4  9  1  0
  4 17  1  0
  4  5  1  0
  5  6  1  0
  5 24  1  0
  5 25  1  0
  6 18  1  0
  6  7  1  0
  6 26  1  6
  7 10  1  0
  7  8  1  0
  7 27  1  6
  8  9  1  0
  8 28  1  0
  8 29  1  0
  9 10  1  0
  9 30  1  1
 10 11  1  0
 10 31  1  1
 11 18  1  0
 11 12  1  0
 11 32  1  6
 12 16  1  0
 12 13  1  0
 12 33  1  6
 13 14  1  0
 14 15  1  0
 14 34  1  0
 14 35  1  0
 15 16  1  0
 16 17  1  0
 16 36  1  1
 17 18  1  0
 17 37  1  6
 18 38  1  6
M  END
>  <i_m_ct_stereo_status>  (183) 
1

>  <s_m_source_file>  (183) 
/var/tmp/pbs.5076255.sched01/tmp403565pz/80s7duc8s0.sdf

>  <i_m_source_file_index>  (183) 
20

>  <i_lp_mmshare_version>  (183) 
48012

>  <i_f3d_flags>  (183) 
0

>  <s_epik_input>  (183) 
W0NIM11PW0NIMl1bQ0BAXTEyW0NAQEhdM1tDQEhdNFtDQEBIXShbQ0gyXTMpW0NAQEhdKFtDSDJdMSlbQ0BASF01W0NASF00W0NASF02W0NAQEhdKFtDQEhdMjUpT1tDSDJdTzY=

>  <s_epik_cmdline>  (183) 
J2VwaWtfcHl0aG9uJywgJy1waHQnLCAnMi4wJywgJy1waCcsICc3LjAnLCAnLXRuJywgJzgnLCAnLW1hJywgJzIwMCcsICctaW1hZScsICc8aW5maWxlLm1hZT4nLCAnLW9tYWUnLCAnPG91dGZpbGUubWFlPic=

>  <r_lp_tautomer_probability>  (183) 
1

>  <r_epik_Ionization_Penalty>  (183) 
2.9684e-11

>  <r_epik_Ionization_Penalty_Charging>  (183) 
0

>  <r_epik_Ionization_Penalty_Neutral>  (183) 
2.9684e-11

>  <r_epik_State_Penalty>  (183) 
-0

>  <r_epik_Charging_Adjusted_Penalty>  (183) 
0

>  <i_epik_Tot_Q>  (183) 
0

>  <i_epik_Tot_abs_Q>  (183) 
0

>  <s_epik_Chemistry_Notes>  (183) 
This compound contains an acetal/aminal-like group ( X-CH(R)-Y where X, Y are N, S, or O) that may be acid/base labile, releasing an aldehyde.

>  <s_lp_Force_Field>  (183) 
OPLS3e

>  <r_lp_Energy>  (183) 
57.0227

>  <b_lp_Chiralities_Consistent>  (183) 
1

>  <s_lp_Variant>  (183) 
67:0-1

>  <s_i_glide_gridfile>  (183) 
pfpi4k_grid

>  <i_i_glide_lignum>  (183) 
20

>  <i_i_glide_rotatable_bonds>  (183) 
2

>  <r_i_docking_score>  (183) 
-2.89646

>  <r_i_glide_ligand_efficiency>  (183) 
-0.160914

>  <r_i_glide_ligand_efficiency_sa>  (183) 
-0.421715

>  <r_i_glide_ligand_efficiency_ln>  (183) 
-0.74452

>  <r_i_glide_gscore>  (183) 
-2.89646

>  <r_i_glide_lipo>  (183) 
-0.262093

>  <r_i_glide_hbond>  (183) 
0

>  <r_i_glide_metal>  (183) 
-0

>  <r_i_glide_rewards>  (183) 
-1.83564

>  <r_i_glide_evdw>  (183) 
-13.6076

>  <r_i_glide_ecoul>  (183) 
-0.788985

>  <r_i_glide_erotb>  (183) 
0

>  <r_i_glide_esite>  (183) 
0

>  <r_i_glide_emodel>  (183) 
-16.4391

>  <r_i_glide_energy>  (183) 
-14.3966

>  <r_i_glide_einternal>  (183) 
1.28758

>  <r_i_glide_intrahb_reward>  (183) 
-0

>  <i_i_glide_confnum>  (183) 
2

>  <i_i_glide_posenum>  (183) 
13

>  <r_i_glide_eff_state_penalty>  (183) 
0

>  <ligand_id>  (183) 
67

>  <original_smiles>  (183) 
COCC12CC3C4CC1C4C1C4OCOC4C2C31

>  <smiles>  (183) 
[H]C([H])([H])OC([H])([H])C12C([H])([H])C3([H])C4([H])C([H])([H])C1([H])C4([H])C1([H])C4([H])OC([H])([H])OC4([H])C2([H])C31[H]

$$$$
68:0:0
     RDKit          3D

 75 81  0  0  1  0  0  0  0  0999 V2000
    5.6282   -8.8255    6.2426 C   0  0  0  0  0  0  0  0  0  0  0  0
    4.7005   -8.2781    5.1383 C   0  0  2  0  0  0  0  0  0  0  0  0
    3.2785   -8.1702    5.6790 C   0  0  0  0  0  0  0  0  0  0  0  0
    2.9435   -7.3783    6.5578 O   0  0  0  0  0  0  0  0  0  0  0  0
    2.3323   -9.1564    4.9825 C   0  0  1  0  0  0  0  0  0  0  0  0
    1.3932   -9.8390    6.0010 C   0  0  0  0  0  0  0  0  0  0  0  0
    0.2669   -8.9695    6.0577 O   0  0  0  0  0  0  0  0  0  0  0  0
    0.1510   -8.1995    4.9763 C   0  0  0  0  0  0  0  0  0  0  0  0
   -0.7205   -7.3545    4.7620 O   0  0  0  0  0  0  0  0  0  0  0  0
    1.2992   -8.5232    4.0251 C   0  0  1  0  0  0  0  0  0  0  0  0
    1.6728   -7.4178    2.9870 C   0  0  0  0  0  0  0  0  0  0  0  0
    3.1635   -7.0330    2.7663 C   0  0  1  0  0  0  0  0  0  0  0  0
    4.1256   -8.2515    2.5956 C   0  0  1  0  0  0  0  0  0  0  0  0
    5.2346   -7.6933    1.6764 C   0  0  2  0  0  0  0  0  0  0  0  0
    6.2712   -6.7184    2.2936 C   0  0  0  0  0  0  0  0  0  0  0  0
    5.6844   -5.3857    2.8207 C   0  0  0  0  0  0  0  0  0  0  0  0
    4.3976   -4.8708    2.1083 C   0  0  1  0  0  0  0  0  0  0  0  0
    4.5707   -3.6112    1.1712 C   0  0  1  0  0  0  0  0  0  0  0  0
    4.1130   -2.3564    1.9790 C   0  0  0  0  0  0  0  0  0  0  0  0
    5.9639   -3.2919    0.5960 C   0  0  0  0  0  0  0  0  0  0  0  0
    5.7032   -2.4156   -0.6561 C   0  0  0  0  0  0  0  0  0  0  0  0
    4.2100   -2.5962   -1.0375 C   0  0  1  0  0  0  0  0  0  0  0  0
    3.9097   -2.7360   -2.5627 C   0  0  2  0  0  0  0  0  0  0  0  0
    4.6136   -3.8396   -3.1278 O   0  0  0  0  0  0  0  0  0  0  0  0
    4.2130   -1.4455   -3.3532 C   0  0  0  0  0  0  0  0  0  0  0  0
    4.0804   -1.4900   -4.5998 O   0  0  0  0  0  0  0  0  0  0  0  0
    4.6084   -0.4387   -2.7201 O   0  0  0  0  0  0  0  0  0  0  0  0
    3.8182   -3.7946   -0.1635 C   0  0  2  0  0  0  0  0  0  0  0  0
    2.3567   -4.1404    0.0676 C   0  0  0  0  0  0  0  0  0  0  0  0
    2.2297   -5.4944    0.8110 C   0  0  0  0  0  0  0  0  0  0  0  0
    3.4984   -6.0390    1.5708 C   0  0  2  0  0  0  0  0  0  0  0  0
    4.4030   -6.9136    0.6748 C   0  0  0  0  0  0  0  0  0  0  0  0
    4.5248   -9.1387    3.8505 C   0  0  1  0  0  0  0  0  0  0  0  0
    5.7778   -9.9906    3.5016 C   0  0  0  0  0  0  0  0  0  0  0  0
    3.3115  -10.0691    4.2122 C   0  0  1  0  0  0  0  0  0  0  0  0
    3.7142  -11.1443    5.0552 O   0  0  0  0  0  0  0  0  0  0  0  0
    5.6289   -8.1637    7.1091 H   0  0  0  0  0  0  0  0  0  0  0  0
    6.6605   -8.9030    5.9048 H   0  0  0  0  0  0  0  0  0  0  0  0
    5.3167   -9.8072    6.5966 H   0  0  0  0  0  0  0  0  0  0  0  0
    5.0607   -7.2884    4.8870 H   0  0  0  0  0  0  0  0  0  0  0  0
    1.0765  -10.8250    5.6602 H   0  0  0  0  0  0  0  0  0  0  0  0
    1.8566   -9.9624    6.9795 H   0  0  0  0  0  0  0  0  0  0  0  0
    0.8938   -9.3435    3.4306 H   0  0  0  0  0  0  0  0  0  0  0  0
    1.2472   -7.7339    2.0326 H   0  0  0  0  0  0  0  0  0  0  0  0
    1.1368   -6.5078    3.2583 H   0  0  0  0  0  0  0  0  0  0  0  0
    3.4240   -6.4986    3.6730 H   0  0  0  0  0  0  0  0  0  0  0  0
    3.6040   -8.9511    1.9396 H   0  0  0  0  0  0  0  0  0  0  0  0
    5.7646   -8.5056    1.1761 H   0  0  0  0  0  0  0  0  0  0  0  0
    6.8360   -7.1946    3.0955 H   0  0  0  0  0  0  0  0  0  0  0  0
    7.0097   -6.4858    1.5237 H   0  0  0  0  0  0  0  0  0  0  0  0
    5.4540   -5.5092    3.8787 H   0  0  0  0  0  0  0  0  0  0  0  0
    6.4656   -4.6305    2.8154 H   0  0  0  0  0  0  0  0  0  0  0  0
    3.7978   -4.4851    2.9315 H   0  0  0  0  0  0  0  0  0  0  0  0
    4.2131   -1.4223    1.4296 H   0  0  0  0  0  0  0  0  0  0  0  0
    4.7150   -2.2385    2.8811 H   0  0  0  0  0  0  0  0  0  0  0  0
    3.0740   -2.4184    2.3014 H   0  0  0  0  0  0  0  0  0  0  0  0
    6.6126   -2.7867    1.3145 H   0  0  0  0  0  0  0  0  0  0  0  0
    6.4621   -4.2140    0.2941 H   0  0  0  0  0  0  0  0  0  0  0  0
    5.9039   -1.3656   -0.4418 H   0  0  0  0  0  0  0  0  0  0  0  0
    6.3752   -2.7127   -1.4612 H   0  0  0  0  0  0  0  0  0  0  0  0
    3.6517   -1.7297   -0.6796 H   0  0  0  0  0  0  0  0  0  0  0  0
    2.8437   -2.9313   -2.6919 H   0  0  0  0  0  0  0  0  0  0  0  0
    4.2536   -4.6322   -2.7514 H   0  0  0  0  0  0  0  0  0  0  0  0
    4.2313   -4.6434   -0.6983 H   0  0  0  0  0  0  0  0  0  0  0  0
    1.8869   -3.3505    0.6542 H   0  0  0  0  0  0  0  0  0  0  0  0
    1.8180   -4.1744   -0.8815 H   0  0  0  0  0  0  0  0  0  0  0  0
    1.3949   -5.3636    1.4947 H   0  0  0  0  0  0  0  0  0  0  0  0
    1.9083   -6.2456    0.0894 H   0  0  0  0  0  0  0  0  0  0  0  0
    5.0509   -6.3796   -0.0103 H   0  0  0  0  0  0  0  0  0  0  0  0
    3.8276   -7.6124    0.0756 H   0  0  0  0  0  0  0  0  0  0  0  0
    5.6088  -10.5870    2.6053 H   0  0  0  0  0  0  0  0  0  0  0  0
    6.0560  -10.6835    4.2956 H   0  0  0  0  0  0  0  0  0  0  0  0
    6.6569   -9.3756    3.3263 H   0  0  0  0  0  0  0  0  0  0  0  0
    2.8474  -10.5063    3.3195 H   0  0  0  0  0  0  0  0  0  0  0  0
    2.9524  -11.6464    5.3104 H   0  0  0  0  0  0  0  0  0  0  0  0
  1  2  1  0
  1 37  1  0
  1 38  1  0
  1 39  1  0
  2 33  1  0
  2  3  1  0
  2 40  1  6
  3  4  2  0
  3  5  1  0
  5 10  1  0
  5 35  1  0
  5  6  1  1
  6  7  1  0
  6 41  1  0
  6 42  1  0
  7  8  1  0
  8  9  2  0
  8 10  1  0
 10 11  1  0
 10 43  1  6
 11 12  1  0
 11 44  1  0
 11 45  1  0
 12 31  1  0
 12 13  1  0
 12 46  1  1
 13 14  1  0
 13 33  1  0
 13 47  1  6
 14 32  1  0
 14 15  1  0
 14 48  1  6
 15 16  1  0
 15 49  1  0
 15 50  1  0
 16 17  1  0
 16 51  1  0
 16 52  1  0
 17 31  1  0
 17 18  1  0
 17 53  1  1
 18 28  1  0
 18 19  1  1
 18 20  1  0
 19 54  1  0
 19 55  1  0
 19 56  1  0
 20 21  1  0
 20 57  1  0
 20 58  1  0
 21 22  1  0
 21 59  1  0
 21 60  1  0
 22 23  1  0
 22 28  1  0
 22 61  1  1
 23 24  1  0
 23 25  1  0
 23 62  1  1
 24 63  1  0
 25 26  2  0
 25 27  1  0
 28 29  1  0
 28 64  1  6
 29 30  1  0
 29 65  1  0
 29 66  1  0
 31 30  1  6
 30 67  1  0
 30 68  1  0
 31 32  1  0
 32 69  1  0
 32 70  1  0
 33 34  1  6
 33 35  1  0
 34 71  1  0
 34 72  1  0
 34 73  1  0
 35 36  1  0
 35 74  1  6
 36 75  1  0
M  CHG  1  27  -1
M  END
>  <i_m_ct_stereo_status>  (184) 
1

>  <s_m_source_file>  (184) 
/var/tmp/pbs.5076255.sched01/tmp403565pz/80s7duc8s0.sdf

>  <i_m_source_file_index>  (184) 
21

>  <i_lp_mmshare_version>  (184) 
48012

>  <i_f3d_flags>  (184) 
0

>  <s_epik_input>  (184) 
Tz1DMVtDQEBIXShbQ0gzXSlbQ0BAXShbQ0gzXSkoW0NASF0yW09IXSlbQ0BASF0zW0NAQEhdKFtDSDJdNClbQ0gyXVtDSDJdW0NAQEhdKFtDQF01KFtDSDNdKVtDQEBIXShbQ0gyXVtDSDJdNilbQ0BASF0oW0NIMl1bQ0gyXTUpW0NASF0oW09IXSlDKD1PKVtPSF0pW0NAXTQ2W0NASF0zW0NIMl1bQ0BASF0oW0NAXTEyNylDKD1PKU9bQ0gyXTc=

>  <s_epik_cmdline>  (184) 
J2VwaWtfcHl0aG9uJywgJy1waHQnLCAnMi4wJywgJy1waCcsICc3LjAnLCAnLXRuJywgJzgnLCAnLW1hJywgJzIwMCcsICctaW1hZScsICc8aW5maWxlLm1hZT4nLCAnLW9tYWUnLCAnPG91dGZpbGUubWFlPic=

>  <r_lp_tautomer_probability>  (184) 
0.99995

>  <r_epik_Ionization_Penalty>  (184) 
0.000565603

>  <r_epik_Ionization_Penalty_Charging>  (184) 
0.000508004

>  <r_epik_Ionization_Penalty_Neutral>  (184) 
5.75991e-05

>  <r_epik_State_Penalty>  (184) 
0.000316393

>  <r_epik_Charging_Adjusted_Penalty>  (184) 
0.000824397

>  <i_epik_Tot_Q>  (184) 
-1

>  <i_epik_Tot_abs_Q>  (184) 
1

>  <s_epik_Chemistry_Notes>  (184) 
This compound has an ester and may undergo hydrolysis at high or low pH.

>  <s_lp_Force_Field>  (184) 
OPLS3e

>  <r_lp_Energy>  (184) 
86.9456

>  <b_lp_Chiralities_Consistent>  (184) 
1

>  <s_lp_Variant>  (184) 
68:0-1

>  <s_i_glide_gridfile>  (184) 
pfpi4k_grid

>  <i_i_glide_lignum>  (184) 
21

>  <i_i_glide_rotatable_bonds>  (184) 
4

>  <r_i_docking_score>  (184) 
-3.2391

>  <r_i_glide_ligand_efficiency>  (184) 
-0.089975

>  <r_i_glide_ligand_efficiency_sa>  (184) 
-0.297091

>  <r_i_glide_ligand_efficiency_ln>  (184) 
-0.706684

>  <r_i_glide_gscore>  (184) 
-3.2391

>  <r_i_glide_lipo>  (184) 
-0.370966

>  <r_i_glide_hbond>  (184) 
-0.16

>  <r_i_glide_metal>  (184) 
-0

>  <r_i_glide_rewards>  (184) 
-0.170096

>  <r_i_glide_evdw>  (184) 
-26.8027

>  <r_i_glide_ecoul>  (184) 
-8.29888

>  <r_i_glide_erotb>  (184) 
0.0817818

>  <r_i_glide_esite>  (184) 
-0.034855

>  <r_i_glide_emodel>  (184) 
-42.4704

>  <r_i_glide_energy>  (184) 
-35.1016

>  <r_i_glide_einternal>  (184) 
2.58545

>  <r_i_glide_intrahb_reward>  (184) 
-0

>  <i_i_glide_confnum>  (184) 
5

>  <i_i_glide_posenum>  (184) 
11

>  <r_i_glide_eff_state_penalty>  (184) 
0

>  <ligand_id>  (184) 
68

>  <original_smiles>  (184) 
CC1C(=O)C23COC(=O)C2CC2C(C4CCC5C6(C)CCC(C(O)C(=O)O)C6CCC25C4)C1(C)C3O

>  <smiles>  (184) 
[H]OC([H])(C(=O)[O-])C1([H])C([H])([H])C([H])([H])C2(C([H])([H])[H])C1([H])C([H])([H])C([H])([H])C13C([H])([H])C([H])(C([H])([H])C([H])([H])C21[H])C1([H])C3([H])C([H])([H])C2([H])C(=O)OC([H])([H])C23C(=O)C([H])(C([H])([H])[H])C1(C([H])([H])[H])C3([H])O[H]

$$$$
68:0:1
     RDKit          3D

 75 81  0  0  1  0  0  0  0  0999 V2000
    5.3888   -9.0326    6.0008 C   0  0  0  0  0  0  0  0  0  0  0  0
    4.5095   -8.4432    4.8812 C   0  0  2  0  0  0  0  0  0  0  0  0
    3.0686   -8.3349    5.3695 C   0  0  0  0  0  0  0  0  0  0  0  0
    2.7068   -7.5649    6.2596 O   0  0  0  0  0  0  0  0  0  0  0  0
    2.1390   -9.2940    4.6106 C   0  0  1  0  0  0  0  0  0  0  0  0
    1.1559   -9.9894    5.5766 C   0  0  0  0  0  0  0  0  0  0  0  0
    0.0508   -9.0927    5.6254 O   0  0  0  0  0  0  0  0  0  0  0  0
   -0.0297   -8.3055    4.5525 C   0  0  0  0  0  0  0  0  0  0  0  0
   -0.8924   -7.4516    4.3258 O   0  0  0  0  0  0  0  0  0  0  0  0
    1.1472   -8.6257    3.6342 C   0  0  1  0  0  0  0  0  0  0  0  0
    1.5682   -7.4969    2.6406 C   0  0  0  0  0  0  0  0  0  0  0  0
    3.0712   -7.1193    2.4872 C   0  0  1  0  0  0  0  0  0  0  0  0
    4.0300   -8.3419    2.3197 C   0  0  1  0  0  0  0  0  0  0  0  0
    5.1796   -7.7671    1.4616 C   0  0  2  0  0  0  0  0  0  0  0  0
    6.1999   -6.8225    2.1434 C   0  0  0  0  0  0  0  0  0  0  0  0
    5.6043   -5.4962    2.6837 C   0  0  0  0  0  0  0  0  0  0  0  0
    4.3493   -4.9495    1.9377 C   0  0  1  0  0  0  0  0  0  0  0  0
    4.5709   -3.6704    1.0416 C   0  0  1  0  0  0  0  0  0  0  0  0
    4.0940   -2.4351    1.8660 C   0  0  0  0  0  0  0  0  0  0  0  0
    5.9866   -3.3479    0.5243 C   0  0  0  0  0  0  0  0  0  0  0  0
    5.7791   -2.4318   -0.7119 C   0  0  0  0  0  0  0  0  0  0  0  0
    4.2965   -2.5964   -1.1473 C   0  0  1  0  0  0  0  0  0  0  0  0
    4.0334   -2.6963   -2.6827 C   0  0  2  0  0  0  0  0  0  0  0  0
    4.8326   -3.7067   -3.2830 O   0  0  0  0  0  0  0  0  0  0  0  0
    4.2308   -1.3605   -3.4142 C   0  0  0  0  0  0  0  0  0  0  0  0
    4.1803   -1.3825   -4.6686 O   0  0  0  0  0  0  0  0  0  0  0  0
    4.4826   -0.3374   -2.7330 O   0  0  0  0  0  0  0  0  0  0  0  0
    3.8650   -3.8132   -0.3239 C   0  0  2  0  0  0  0  0  0  0  0  0
    2.3913   -4.1432   -0.1567 C   0  0  0  0  0  0  0  0  0  0  0  0
    2.2265   -5.5147    0.5436 C   0  0  0  0  0  0  0  0  0  0  0  0
    3.4631   -6.0914    1.3345 C   0  0  2  0  0  0  0  0  0  0  0  0
    4.4024   -6.9409    0.4538 C   0  0  0  0  0  0  0  0  0  0  0  0
    4.3736   -9.2664    3.5661 C   0  0  1  0  0  0  0  0  0  0  0  0
    5.6275  -10.1217    3.2364 C   0  0  0  0  0  0  0  0  0  0  0  0
    3.1404  -10.1957    3.8556 C   0  0  1  0  0  0  0  0  0  0  0  0
    3.4844  -11.3362    4.6338 O   0  0  0  0  0  0  0  0  0  0  0  0
    5.3645   -8.3934    6.8842 H   0  0  0  0  0  0  0  0  0  0  0  0
    6.4304   -9.1105    5.6973 H   0  0  0  0  0  0  0  0  0  0  0  0
    5.0564  -10.0200    6.3172 H   0  0  0  0  0  0  0  0  0  0  0  0
    4.8865   -7.4502    4.6684 H   0  0  0  0  0  0  0  0  0  0  0  0
    0.8352  -10.9591    5.1951 H   0  0  0  0  0  0  0  0  0  0  0  0
    1.5812  -10.1524    6.5665 H   0  0  0  0  0  0  0  0  0  0  0  0
    0.7537   -9.4226    3.0044 H   0  0  0  0  0  0  0  0  0  0  0  0
    1.1768   -7.7821    1.6615 H   0  0  0  0  0  0  0  0  0  0  0  0
    1.0307   -6.5881    2.9164 H   0  0  0  0  0  0  0  0  0  0  0  0
    3.3022   -6.6118    3.4181 H   0  0  0  0  0  0  0  0  0  0  0  0
    3.5243   -9.0162    1.6232 H   0  0  0  0  0  0  0  0  0  0  0  0
    5.7133   -8.5723    0.9543 H   0  0  0  0  0  0  0  0  0  0  0  0
    6.7309   -7.3303    2.9503 H   0  0  0  0  0  0  0  0  0  0  0  0
    6.9650   -6.5787    1.4042 H   0  0  0  0  0  0  0  0  0  0  0  0
    5.3330   -5.6488    3.7271 H   0  0  0  0  0  0  0  0  0  0  0  0
    6.3915   -4.7465    2.7303 H   0  0  0  0  0  0  0  0  0  0  0  0
    3.7226   -4.5818    2.7494 H   0  0  0  0  0  0  0  0  0  0  0  0
    4.2230   -1.4869    1.3482 H   0  0  0  0  0  0  0  0  0  0  0  0
    4.6621   -2.3481    2.7930 H   0  0  0  0  0  0  0  0  0  0  0  0
    3.0434   -2.4967    2.1473 H   0  0  0  0  0  0  0  0  0  0  0  0
    6.6141   -2.8718    1.2799 H   0  0  0  0  0  0  0  0  0  0  0  0
    6.4851   -4.2667    0.2140 H   0  0  0  0  0  0  0  0  0  0  0  0
    5.9785   -1.3891   -0.4615 H   0  0  0  0  0  0  0  0  0  0  0  0
    6.4815   -2.7123   -1.4967 H   0  0  0  0  0  0  0  0  0  0  0  0
    3.7289   -1.7419   -0.7739 H   0  0  0  0  0  0  0  0  0  0  0  0
    2.9916   -2.9722   -2.8481 H   0  0  0  0  0  0  0  0  0  0  0  0
    4.5358   -4.5429   -2.9556 H   0  0  0  0  0  0  0  0  0  0  0  0
    4.2900   -4.6455   -0.8761 H   0  0  0  0  0  0  0  0  0  0  0  0
    1.9106   -3.3578    0.4284 H   0  0  0  0  0  0  0  0  0  0  0  0
    1.8828   -4.1479   -1.1214 H   0  0  0  0  0  0  0  0  0  0  0  0
    1.3721   -5.3965    1.2013 H   0  0  0  0  0  0  0  0  0  0  0  0
    1.9221   -6.2421   -0.2103 H   0  0  0  0  0  0  0  0  0  0  0  0
    5.0824   -6.3874   -0.1862 H   0  0  0  0  0  0  0  0  0  0  0  0
    3.8449   -7.6077   -0.1833 H   0  0  0  0  0  0  0  0  0  0  0  0
    5.4817  -10.6927    2.3164 H   0  0  0  0  0  0  0  0  0  0  0  0
    5.8708  -10.8426    4.0179 H   0  0  0  0  0  0  0  0  0  0  0  0
    6.5209   -9.5134    3.1080 H   0  0  0  0  0  0  0  0  0  0  0  0
    2.7120  -10.5896    2.9310 H   0  0  0  0  0  0  0  0  0  0  0  0
    3.3839  -11.1391    5.5535 H   0  0  0  0  0  0  0  0  0  0  0  0
  1  2  1  0
  1 37  1  0
  1 38  1  0
  1 39  1  0
  2 33  1  0
  2  3  1  0
  2 40  1  6
  3  4  2  0
  3  5  1  0
  5 10  1  0
  5 35  1  0
  5  6  1  1
  6  7  1  0
  6 41  1  0
  6 42  1  0
  7  8  1  0
  8  9  2  0
  8 10  1  0
 10 11  1  0
 10 43  1  6
 11 12  1  0
 11 44  1  0
 11 45  1  0
 12 31  1  0
 12 13  1  0
 12 46  1  1
 13 14  1  0
 13 33  1  0
 13 47  1  6
 14 32  1  0
 14 15  1  0
 14 48  1  6
 15 16  1  0
 15 49  1  0
 15 50  1  0
 16 17  1  0
 16 51  1  0
 16 52  1  0
 17 31  1  0
 17 18  1  0
 17 53  1  1
 18 28  1  0
 18 19  1  1
 18 20  1  0
 19 54  1  0
 19 55  1  0
 19 56  1  0
 20 21  1  0
 20 57  1  0
 20 58  1  0
 21 22  1  0
 21 59  1  0
 21 60  1  0
 22 23  1  0
 22 28  1  0
 22 61  1  1
 23 24  1  0
 23 25  1  0
 23 62  1  1
 24 63  1  0
 25 26  2  0
 25 27  1  0
 28 29  1  0
 28 64  1  6
 29 30  1  0
 29 65  1  0
 29 66  1  0
 31 30  1  6
 30 67  1  0
 30 68  1  0
 31 32  1  0
 32 69  1  0
 32 70  1  0
 33 34  1  6
 33 35  1  0
 34 71  1  0
 34 72  1  0
 34 73  1  0
 35 36  1  0
 35 74  1  6
 36 75  1  0
M  CHG  1  27  -1
M  END
>  <i_m_ct_stereo_status>  (185) 
1

>  <s_m_source_file>  (185) 
/var/tmp/pbs.5076255.sched01/tmp403565pz/80s7duc8s0.sdf

>  <i_m_source_file_index>  (185) 
21

>  <i_lp_mmshare_version>  (185) 
48012

>  <i_f3d_flags>  (185) 
0

>  <s_epik_input>  (185) 
Tz1DMVtDQEBIXShbQ0gzXSlbQ0BAXShbQ0gzXSkoW0NASF0yW09IXSlbQ0BASF0zW0NAQEhdKFtDSDJdNClbQ0gyXVtDSDJdW0NAQEhdKFtDQF01KFtDSDNdKVtDQEBIXShbQ0gyXVtDSDJdNilbQ0BASF0oW0NIMl1bQ0gyXTUpW0NASF0oW09IXSlDKD1PKVtPSF0pW0NAXTQ2W0NASF0zW0NIMl1bQ0BASF0oW0NAXTEyNylDKD1PKU9bQ0gyXTc=

>  <s_epik_cmdline>  (185) 
J2VwaWtfcHl0aG9uJywgJy1waHQnLCAnMi4wJywgJy1waCcsICc3LjAnLCAnLXRuJywgJzgnLCAnLW1hJywgJzIwMCcsICctaW1hZScsICc8aW5maWxlLm1hZT4nLCAnLW9tYWUnLCAnPG91dGZpbGUubWFlPic=

>  <r_lp_tautomer_probability>  (185) 
0.99995

>  <r_epik_Ionization_Penalty>  (185) 
0.000565603

>  <r_epik_Ionization_Penalty_Charging>  (185) 
0.000508004

>  <r_epik_Ionization_Penalty_Neutral>  (185) 
5.75991e-05

>  <r_epik_State_Penalty>  (185) 
0.000316393

>  <r_epik_Charging_Adjusted_Penalty>  (185) 
0.000824397

>  <i_epik_Tot_Q>  (185) 
-1

>  <i_epik_Tot_abs_Q>  (185) 
1

>  <s_epik_Chemistry_Notes>  (185) 
This compound has an ester and may undergo hydrolysis at high or low pH.

>  <s_lp_Force_Field>  (185) 
OPLS3e

>  <r_lp_Energy>  (185) 
86.9456

>  <b_lp_Chiralities_Consistent>  (185) 
1

>  <s_lp_Variant>  (185) 
68:0-1

>  <s_i_glide_gridfile>  (185) 
pfpi4k_grid

>  <i_i_glide_lignum>  (185) 
21

>  <i_i_glide_rotatable_bonds>  (185) 
4

>  <r_i_docking_score>  (185) 
-3.13739

>  <r_i_glide_ligand_efficiency>  (185) 
-0.0871498

>  <r_i_glide_ligand_efficiency_sa>  (185) 
-0.287762

>  <r_i_glide_ligand_efficiency_ln>  (185) 
-0.684494

>  <r_i_glide_gscore>  (185) 
-3.13739

>  <r_i_glide_lipo>  (185) 
-0.455706

>  <r_i_glide_hbond>  (185) 
-0.16

>  <r_i_glide_metal>  (185) 
-0

>  <r_i_glide_rewards>  (185) 
-0.189102

>  <r_i_glide_evdw>  (185) 
-27.5305

>  <r_i_glide_ecoul>  (185) 
-6.64055

>  <r_i_glide_erotb>  (185) 
0.0817818

>  <r_i_glide_esite>  (185) 
-0.0417604

>  <r_i_glide_emodel>  (185) 
-40.5854

>  <r_i_glide_energy>  (185) 
-34.171

>  <r_i_glide_einternal>  (185) 
3.2549

>  <r_i_glide_intrahb_reward>  (185) 
-0

>  <i_i_glide_confnum>  (185) 
2

>  <i_i_glide_posenum>  (185) 
7

>  <r_i_glide_eff_state_penalty>  (185) 
0

>  <ligand_id>  (185) 
68

>  <original_smiles>  (185) 
CC1C(=O)C23COC(=O)C2CC2C(C4CCC5C6(C)CCC(C(O)C(=O)O)C6CCC25C4)C1(C)C3O

>  <smiles>  (185) 
[H]OC([H])(C(=O)[O-])C1([H])C([H])([H])C([H])([H])C2(C([H])([H])[H])C1([H])C([H])([H])C([H])([H])C13C([H])([H])C([H])(C([H])([H])C([H])([H])C21[H])C1([H])C3([H])C([H])([H])C2([H])C(=O)OC([H])([H])C23C(=O)C([H])(C([H])([H])[H])C1(C([H])([H])[H])C3([H])O[H]

$$$$
69:0:0
     RDKit          3D

 38 40  0  0  1  0  0  0  0  0999 V2000
   -2.1059    3.1808    5.6556 C   0  0  0  0  0  0  0  0  0  0  0  0
   -0.7501    3.2601    4.9402 C   0  0  0  0  0  0  0  0  0  0  0  0
   -1.0440    4.0323    3.6387 C   0  0  0  0  0  0  0  0  0  0  0  0
    0.5998    3.5475    5.6804 C   0  0  2  0  0  0  0  0  0  0  0  0
    1.7625    3.5268    4.6885 C   0  0  0  0  0  0  0  0  0  0  0  0
    1.2879    2.2494    4.0114 C   0  0  0  0  0  0  0  0  0  0  0  0
    1.8976    1.5814    3.0039 C   0  0  0  0  0  0  0  0  0  0  0  0
    1.4589    0.2356    2.4133 C   0  0  2  0  0  0  0  0  0  0  0  0
    0.4715   -0.3778    3.1975 O   0  0  0  0  0  0  0  0  0  0  0  0
    0.7410   -1.1964    4.2144 C   0  0  0  0  0  0  0  0  0  0  0  0
    0.1430   -1.1854    5.2986 O   0  0  0  0  0  0  0  0  0  0  0  0
    1.8210   -2.2391    3.9660 C   0  0  0  0  0  0  0  0  0  0  0  0
    2.8456   -1.8181    2.9140 C   0  0  0  0  0  0  0  0  0  0  0  0
    2.6777   -0.6872    2.1800 C   0  0  0  0  0  0  0  0  0  0  0  0
    3.6401   -0.2972    1.0692 C   0  0  0  0  0  0  0  0  0  0  0  0
    3.3743   -1.0820   -0.0862 O   0  0  0  0  0  0  0  0  0  0  0  0
    0.0120    1.9413    4.7705 C   0  0  1  0  0  0  0  0  0  0  0  0
    0.4386    2.1086    6.2277 C   0  0  0  0  0  0  0  0  0  0  0  0
   -2.5069    4.1467    5.8819 H   0  0  0  0  0  0  0  0  0  0  0  0
   -2.1120    2.6102    6.5823 H   0  0  0  0  0  0  0  0  0  0  0  0
   -2.8151    2.6613    5.0114 H   0  0  0  0  0  0  0  0  0  0  0  0
   -0.1870    4.0623    2.9642 H   0  0  0  0  0  0  0  0  0  0  0  0
   -1.3321    5.0620    3.8346 H   0  0  0  0  0  0  0  0  0  0  0  0
   -1.8353    3.5422    3.0656 H   0  0  0  0  0  0  0  0  0  0  0  0
    0.5755    4.3514    6.4349 H   0  0  0  0  0  0  0  0  0  0  0  0
    1.8087    4.3812    4.0144 H   0  0  0  0  0  0  0  0  0  0  0  0
    2.7417    3.3862    5.1465 H   0  0  0  0  0  0  0  0  0  0  0  0
    2.7661    2.0098    2.5794 H   0  0  0  0  0  0  0  0  0  0  0  0
    0.9738    0.3829    1.4381 H   0  0  0  0  0  0  0  0  0  0  0  0
    2.3368   -2.4403    4.8969 H   0  0  0  0  0  0  0  0  0  0  0  0
    1.3243   -3.1511    3.6461 H   0  0  0  0  0  0  0  0  0  0  0  0
    3.7116   -2.4735    2.7360 H   0  0  0  0  0  0  0  0  0  0  0  0
    3.5710    0.7724    0.8497 H   0  0  0  0  0  0  0  0  0  0  0  0
    4.6376   -0.4800    1.4546 H   0  0  0  0  0  0  0  0  0  0  0  0
    2.4867   -1.0512   -0.3343 H   0  0  0  0  0  0  0  0  0  0  0  0
   -0.6875    1.1515    4.4907 H   0  0  0  0  0  0  0  0  0  0  0  0
    1.3929    1.6206    6.4697 H   0  0  0  0  0  0  0  0  0  0  0  0
   -0.2854    1.8959    6.9982 H   0  0  0  0  0  0  0  0  0  0  0  0
  1  2  1  0
  1 19  1  0
  1 20  1  0
  1 21  1  0
  2 17  1  0
  2  3  1  0
  2  4  1  0
  3 22  1  0
  3 23  1  0
  3 24  1  0
  4 18  1  0
  4  5  1  0
  4 25  1  1
  5  6  1  0
  5 26  1  0
  5 27  1  0
  6  7  2  3
  6 17  1  0
  7  8  1  0
  7 28  1  0
  8 14  1  0
  8  9  1  0
  8 29  1  6
  9 10  1  0
 10 11  2  0
 10 12  1  0
 12 13  1  0
 12 30  1  0
 12 31  1  0
 13 14  2  0
 13 32  1  0
 14 15  1  0
 15 16  1  0
 15 33  1  0
 15 34  1  0
 16 35  1  0
 17 18  1  0
 17 36  1  1
 18 37  1  0
 18 38  1  0
M  END
>  <i_m_ct_stereo_status>  (186) 
1

>  <s_m_source_file>  (186) 
/var/tmp/pbs.5076255.sched01/tmp403565pz/80s7duc8s0.sdf

>  <i_m_source_file_index>  (186) 
22

>  <i_lp_mmshare_version>  (186) 
48012

>  <i_f3d_flags>  (186) 
0

>  <s_epik_input>  (186) 
W0NIM11DKFtDSDNdKShbQ0BIXTEyKVtDQEhdKFtDSDJdMilDKFxbQ0gyXTEpPVtDSF0vW0NAQEhdM09DKD1PKVtDSDJdW0NIXT1DM1tDSDJdW09IXQ==

>  <s_epik_cmdline>  (186) 
J2VwaWtfcHl0aG9uJywgJy1waHQnLCAnMi4wJywgJy1waCcsICc3LjAnLCAnLXRuJywgJzgnLCAnLW1hJywgJzIwMCcsICctaW1hZScsICc8aW5maWxlLm1hZT4nLCAnLW9tYWUnLCAnPG91dGZpbGUubWFlPic=

>  <r_lp_tautomer_probability>  (186) 
1

>  <r_epik_Ionization_Penalty>  (186) 
2.16403e-05

>  <r_epik_Ionization_Penalty_Charging>  (186) 
0

>  <r_epik_Ionization_Penalty_Neutral>  (186) 
2.16403e-05

>  <r_epik_State_Penalty>  (186) 
-0

>  <r_epik_Charging_Adjusted_Penalty>  (186) 
0

>  <i_epik_Tot_Q>  (186) 
0

>  <i_epik_Tot_abs_Q>  (186) 
0

>  <s_epik_Chemistry_Notes>  (186) 
This compound has an ester and may undergo hydrolysis at high or low pH.

>  <s_lp_Force_Field>  (186) 
OPLS3e

>  <r_lp_Energy>  (186) 
37.1677

>  <b_lp_Chiralities_Consistent>  (186) 
1

>  <s_lp_Variant>  (186) 
69:0-1

>  <s_i_glide_gridfile>  (186) 
pfpi4k_grid

>  <i_i_glide_lignum>  (186) 
22

>  <i_i_glide_rotatable_bonds>  (186) 
3

>  <r_i_docking_score>  (186) 
-2.67439

>  <r_i_glide_ligand_efficiency>  (186) 
-0.148577

>  <r_i_glide_ligand_efficiency_sa>  (186) 
-0.389382

>  <r_i_glide_ligand_efficiency_ln>  (186) 
-0.687438

>  <r_i_glide_gscore>  (186) 
-2.67439

>  <r_i_glide_lipo>  (186) 
-0.0186533

>  <r_i_glide_hbond>  (186) 
-0.16

>  <r_i_glide_metal>  (186) 
-0

>  <r_i_glide_rewards>  (186) 
-1.71602

>  <r_i_glide_evdw>  (186) 
-13.8023

>  <r_i_glide_ecoul>  (186) 
-4.33944

>  <r_i_glide_erotb>  (186) 
0.566518

>  <r_i_glide_esite>  (186) 
-0.00520614

>  <r_i_glide_emodel>  (186) 
-17.0178

>  <r_i_glide_energy>  (186) 
-18.1418

>  <r_i_glide_einternal>  (186) 
6.45097

>  <r_i_glide_intrahb_reward>  (186) 
-0

>  <i_i_glide_confnum>  (186) 
3

>  <i_i_glide_posenum>  (186) 
5

>  <r_i_glide_eff_state_penalty>  (186) 
0

>  <ligand_id>  (186) 
69

>  <original_smiles>  (186) 
CC1(C)C2CC(=CC3OC(=O)CC=C3CO)C1C2

>  <smiles>  (186) 
[H]OC([H])([H])C1=C([H])C([H])([H])C(=O)OC1([H])C([H])=C1C([H])([H])C2([H])C([H])([H])C1([H])C2(C([H])([H])[H])C([H])([H])[H]

$$$$
72:0:0
     RDKit          3D

 69 74  0  0  1  0  0  0  0  0999 V2000
    4.3289  -10.2947    8.2724 C   0  0  0  0  0  0  0  0  0  0  0  0
    4.4432   -8.8021    8.6720 C   0  0  0  0  0  0  0  0  0  0  0  0
    5.2742   -8.4698    9.5086 O   0  0  0  0  0  0  0  0  0  0  0  0
    3.5904   -7.8833    8.1211 O   0  0  0  0  0  0  0  0  0  0  0  0
    2.7397   -8.2730    7.0915 C   0  0  2  0  0  0  0  0  0  0  0  0
    3.4786   -8.5534    5.9424 O   0  0  0  0  0  0  0  0  0  0  0  0
    2.7484   -9.2492    4.9785 C   0  0  2  0  0  0  0  0  0  0  0  0
    3.5874   -9.4754    3.8586 O   0  0  0  0  0  0  0  0  0  0  0  0
    3.2799   -8.5564    2.8599 C   0  0  1  0  0  0  0  0  0  0  0  0
    2.3800   -9.1090    1.9151 O   0  0  0  0  0  0  0  0  0  0  0  0
    1.3438   -9.9032    2.4910 C   0  0  0  0  0  0  0  0  0  0  0  0
    0.5959   -9.1567    3.6202 C   0  0  2  0  0  0  0  0  0  0  0  0
   -0.5764   -8.2692    3.0925 C   0  0  1  0  0  0  0  0  0  0  0  0
   -1.7272   -9.0852    2.4858 C   0  0  0  0  0  0  0  0  0  0  0  0
   -1.1766   -7.4010    4.2166 C   0  0  0  0  0  0  0  0  0  0  0  0
   -0.1528   -6.6765    5.0914 C   0  0  0  0  0  0  0  0  0  0  0  0
    0.8557   -7.6866    5.6442 C   0  0  2  0  0  0  0  0  0  0  0  0
    1.7694   -7.1261    6.7576 C   0  0  1  0  0  0  0  0  0  0  0  0
    0.9745   -6.7765    8.0391 C   0  0  0  0  0  0  0  0  0  0  0  0
    1.6231   -8.3338    4.4596 C   0  0  1  0  0  0  0  0  0  0  0  0
    2.4554   -7.4469    3.5328 C   0  0  1  0  0  0  0  0  0  0  0  0
    3.2781   -6.5198    4.2286 O   0  0  0  0  0  0  0  0  0  0  0  0
    3.9538   -5.6839    3.2092 O   0  0  0  0  0  0  0  0  0  0  0  0
    5.3334   -5.9747    3.2915 C   0  0  2  0  0  0  0  0  0  0  0  0
    5.8999   -5.5085    4.6602 C   0  0  0  0  0  0  0  0  0  0  0  0
    6.0706   -5.2506    2.1758 C   0  0  0  0  0  0  0  0  0  0  0  0
    5.8859   -4.0667    1.8896 O   0  0  0  0  0  0  0  0  0  0  0  0
    7.0836   -6.1440    1.5012 C   0  0  1  0  0  0  0  0  0  0  0  0
    8.4736   -5.5024    1.3306 C   0  0  0  0  0  0  0  0  0  0  0  0
    7.0536   -7.3839    2.4016 C   0  0  0  0  0  0  0  0  0  0  0  0
    5.6249   -7.4661    3.0162 C   0  0  2  0  0  0  0  0  0  0  0  0
    4.5597   -8.1170    2.0554 C   0  0  1  0  0  0  0  0  0  0  0  0
    5.1113   -9.3406    1.2956 C   0  0  0  0  0  0  0  0  0  0  0  0
    4.4998  -10.4406    7.2084 H   0  0  0  0  0  0  0  0  0  0  0  0
    3.3470  -10.6820    8.5368 H   0  0  0  0  0  0  0  0  0  0  0  0
    5.0687  -10.9220    8.7847 H   0  0  0  0  0  0  0  0  0  0  0  0
    2.1337   -9.1190    7.4089 H   0  0  0  0  0  0  0  0  0  0  0  0
    2.3993  -10.1955    5.3765 H   0  0  0  0  0  0  0  0  0  0  0  0
    0.6793  -10.2321    1.6957 H   0  0  0  0  0  0  0  0  0  0  0  0
    1.7651  -10.8326    2.8927 H   0  0  0  0  0  0  0  0  0  0  0  0
    0.1456   -9.9147    4.2655 H   0  0  0  0  0  0  0  0  0  0  0  0
   -0.1979   -7.6216    2.3001 H   0  0  0  0  0  0  0  0  0  0  0  0
   -2.1202   -9.8144    3.1944 H   0  0  0  0  0  0  0  0  0  0  0  0
   -1.4164   -9.6364    1.6016 H   0  0  0  0  0  0  0  0  0  0  0  0
   -2.5626   -8.4453    2.1867 H   0  0  0  0  0  0  0  0  0  0  0  0
   -1.8381   -6.6597    3.7740 H   0  0  0  0  0  0  0  0  0  0  0  0
   -1.8018   -8.0308    4.8538 H   0  0  0  0  0  0  0  0  0  0  0  0
    0.3713   -5.9212    4.5111 H   0  0  0  0  0  0  0  0  0  0  0  0
   -0.6721   -6.1581    5.8974 H   0  0  0  0  0  0  0  0  0  0  0  0
    0.2743   -8.4856    6.1088 H   0  0  0  0  0  0  0  0  0  0  0  0
    2.3406   -6.2562    6.4264 H   0  0  0  0  0  0  0  0  0  0  0  0
    0.3726   -7.6176    8.3957 H   0  0  0  0  0  0  0  0  0  0  0  0
    0.3035   -5.9352    7.8720 H   0  0  0  0  0  0  0  0  0  0  0  0
    1.6357   -6.4858    8.8562 H   0  0  0  0  0  0  0  0  0  0  0  0
    1.8823   -6.9150    2.7946 H   0  0  0  0  0  0  0  0  0  0  0  0
    6.9810   -5.6368    4.6941 H   0  0  0  0  0  0  0  0  0  0  0  0
    5.4923   -6.0732    5.5025 H   0  0  0  0  0  0  0  0  0  0  0  0
    5.7094   -4.4529    4.8387 H   0  0  0  0  0  0  0  0  0  0  0  0
    6.6830   -6.3866    0.5169 H   0  0  0  0  0  0  0  0  0  0  0  0
    8.4264   -4.6301    0.6818 H   0  0  0  0  0  0  0  0  0  0  0  0
    9.1619   -6.2091    0.8748 H   0  0  0  0  0  0  0  0  0  0  0  0
    8.9006   -5.1853    2.2842 H   0  0  0  0  0  0  0  0  0  0  0  0
    7.3799   -8.2835    1.8869 H   0  0  0  0  0  0  0  0  0  0  0  0
    7.7773   -7.2467    3.2092 H   0  0  0  0  0  0  0  0  0  0  0  0
    5.6598   -8.0380    3.9495 H   0  0  0  0  0  0  0  0  0  0  0  0
    4.2471   -7.3853    1.3124 H   0  0  0  0  0  0  0  0  0  0  0  0
    5.5314  -10.0791    1.9744 H   0  0  0  0  0  0  0  0  0  0  0  0
    5.8771   -9.0661    0.5732 H   0  0  0  0  0  0  0  0  0  0  0  0
    4.3368   -9.8432    0.7177 H   0  0  0  0  0  0  0  0  0  0  0  0
  1  2  1  0
  1 34  1  0
  1 35  1  0
  1 36  1  0
  2  3  2  0
  2  4  1  0
  4  5  1  0
  5 18  1  0
  5  6  1  0
  5 37  1  1
  6  7  1  0
 20  7  1  1
  7  8  1  0
  7 38  1  1
  9  8  1  1
  9 21  1  0
  9 32  1  0
  9 10  1  0
 10 11  1  0
 11 12  1  0
 11 39  1  0
 11 40  1  0
 12 20  1  0
 12 13  1  0
 12 41  1  1
 13 14  1  0
 13 15  1  0
 13 42  1  6
 14 43  1  0
 14 44  1  0
 14 45  1  0
 15 16  1  0
 15 46  1  0
 15 47  1  0
 16 17  1  0
 16 48  1  0
 16 49  1  0
 17 18  1  0
 17 20  1  0
 17 50  1  1
 18 19  1  0
 18 51  1  6
 19 52  1  0
 19 53  1  0
 19 54  1  0
 20 21  1  0
 21 22  1  0
 21 55  1  6
 22 23  1  0
 23 24  1  0
 24 31  1  0
 24 25  1  1
 24 26  1  0
 25 56  1  0
 25 57  1  0
 25 58  1  0
 26 27  2  0
 26 28  1  0
 28 29  1  0
 28 30  1  0
 28 59  1  6
 29 60  1  0
 29 61  1  0
 29 62  1  0
 30 31  1  0
 30 63  1  0
 30 64  1  0
 31 32  1  0
 31 65  1  1
 32 33  1  0
 32 66  1  6
 33 67  1  0
 33 68  1  0
 33 69  1  0
M  END
>  <i_m_ct_stereo_status>  (187) 
1

>  <s_m_source_file>  (187) 
/var/tmp/pbs.5076255.sched01/tmp403565pz/80s7duc8s0.sdf

>  <i_m_source_file_index>  (187) 
26

>  <i_lp_mmshare_version>  (187) 
48012

>  <i_f3d_flags>  (187) 
0

>  <s_epik_input>  (187) 
TzFbQ0gyXVtDQEBIXTJbQ0BASF0oW0NIM10pW0NIMl1bQ0gyXVtDQEBIXTNbQ0BASF0oW0NIM10pW0NASF0oT0MoPU8pW0NIM10pT1tDQEhdKE80KVtDQEBdMjNbQ0BIXShbQ0BdMTQ1KU9PW0NAQF02KFtDSDNdKVtDQEBIXShbQ0BIXTVbQ0gzXSlbQ0gyXVtDQEBIXShDNj1PKVtDSDNd

>  <s_epik_cmdline>  (187) 
J2VwaWtfcHl0aG9uJywgJy1waHQnLCAnMi4wJywgJy1waCcsICc3LjAnLCAnLXRuJywgJzgnLCAnLW1hJywgJzIwMCcsICctaW1hZScsICc8aW5maWxlLm1hZT4nLCAnLW9tYWUnLCAnPG91dGZpbGUubWFlPic=

>  <r_lp_tautomer_probability>  (187) 
1

>  <r_epik_Ionization_Penalty>  (187) 
4.47969e-12

>  <r_epik_Ionization_Penalty_Charging>  (187) 
0

>  <r_epik_Ionization_Penalty_Neutral>  (187) 
4.47969e-12

>  <r_epik_State_Penalty>  (187) 
-0

>  <r_epik_Charging_Adjusted_Penalty>  (187) 
0

>  <i_epik_Tot_Q>  (187) 
0

>  <i_epik_Tot_abs_Q>  (187) 
0

>  <s_epik_Chemistry_Notes>  (187) 
This compound has an ester and may undergo hydrolysis at high or low pH. This compound contains an acetal/aminal-like group ( X-CH(R)-Y where X, Y are N, S, or O) that may be acid/base labile, releasing an aldehyde.

>  <s_lp_Force_Field>  (187) 
OPLS3e

>  <r_lp_Energy>  (187) 
50.9249

>  <b_lp_Chiralities_Consistent>  (187) 
1

>  <s_lp_Variant>  (187) 
72:0-1

>  <s_i_glide_gridfile>  (187) 
pfpi4k_grid

>  <i_i_glide_lignum>  (187) 
26

>  <i_i_glide_rotatable_bonds>  (187) 
2

>  <r_i_docking_score>  (187) 
-2.33502

>  <r_i_glide_ligand_efficiency>  (187) 
-0.0707581

>  <r_i_glide_ligand_efficiency_sa>  (187) 
-0.226959

>  <r_i_glide_ligand_efficiency_ln>  (187) 
-0.519296

>  <r_i_glide_gscore>  (187) 
-2.33502

>  <r_i_glide_lipo>  (187) 
-0.469622

>  <r_i_glide_hbond>  (187) 
0

>  <r_i_glide_metal>  (187) 
-0

>  <r_i_glide_rewards>  (187) 
-0.297276

>  <r_i_glide_evdw>  (187) 
-29.5713

>  <r_i_glide_ecoul>  (187) 
-1.0106

>  <r_i_glide_erotb>  (187) 
0.0934187

>  <r_i_glide_esite>  (187) 
-0.0313841

>  <r_i_glide_emodel>  (187) 
-31.6871

>  <r_i_glide_energy>  (187) 
-30.5819

>  <r_i_glide_einternal>  (187) 
6.75169

>  <r_i_glide_intrahb_reward>  (187) 
-0

>  <i_i_glide_confnum>  (187) 
3

>  <i_i_glide_posenum>  (187) 
4

>  <r_i_glide_eff_state_penalty>  (187) 
0

>  <ligand_id>  (187) 
72

>  <original_smiles>  (187) 
CC(=O)OC1OC2OC34OCC5C(C)CCC(C1C)C25C3OOC1(C)C(=O)C(C)CC1C4C

>  <smiles>  (187) 
[H]C([H])([H])C(=O)OC1([H])OC2([H])OC34OC([H])([H])C5([H])C([H])(C([H])([H])[H])C([H])([H])C([H])([H])C([H])(C1([H])C([H])([H])[H])C25C3([H])OOC1(C([H])([H])[H])C(=O)C([H])(C([H])([H])[H])C([H])([H])C1([H])C4([H])C([H])([H])[H]

$$$$
72:0:1
     RDKit          3D

 69 74  0  0  1  0  0  0  0  0999 V2000
    5.4673   -7.9959    9.6431 C   0  0  0  0  0  0  0  0  0  0  0  0
    4.5870   -8.6407    8.5772 C   0  0  0  0  0  0  0  0  0  0  0  0
    4.7622   -9.8110    8.2367 O   0  0  0  0  0  0  0  0  0  0  0  0
    3.6510   -7.7819    8.1090 O   0  0  0  0  0  0  0  0  0  0  0  0
    2.8000   -8.2683    7.1087 C   0  0  2  0  0  0  0  0  0  0  0  0
    3.5179   -8.5741    5.9480 O   0  0  0  0  0  0  0  0  0  0  0  0
    2.7776   -9.2436    4.9712 C   0  0  2  0  0  0  0  0  0  0  0  0
    3.6039   -9.4532    3.8503 O   0  0  0  0  0  0  0  0  0  0  0  0
    3.2804   -8.5443    2.8321 C   0  0  1  0  0  0  0  0  0  0  0  0
    2.3868   -9.1186    1.9055 O   0  0  0  0  0  0  0  0  0  0  0  0
    1.3452   -9.9045    2.4890 C   0  0  0  0  0  0  0  0  0  0  0  0
    0.6043   -9.1488    3.6186 C   0  0  2  0  0  0  0  0  0  0  0  0
   -0.5800   -8.2651    3.0924 C   0  0  1  0  0  0  0  0  0  0  0  0
   -1.7310   -9.0933    2.4889 C   0  0  0  0  0  0  0  0  0  0  0  0
   -1.1730   -7.3834    4.2074 C   0  0  0  0  0  0  0  0  0  0  0  0
   -0.1353   -6.6552    5.0715 C   0  0  0  0  0  0  0  0  0  0  0  0
    0.8757   -7.6772    5.6363 C   0  0  2  0  0  0  0  0  0  0  0  0
    1.7932   -7.1387    6.7510 C   0  0  1  0  0  0  0  0  0  0  0  0
    0.9965   -6.7373    8.0178 C   0  0  0  0  0  0  0  0  0  0  0  0
    1.6352   -8.3188    4.4487 C   0  0  1  0  0  0  0  0  0  0  0  0
    2.4536   -7.4316    3.5043 C   0  0  1  0  0  0  0  0  0  0  0  0
    3.2575   -6.4891    4.2059 O   0  0  0  0  0  0  0  0  0  0  0  0
    3.9512   -5.6315    3.1742 O   0  0  0  0  0  0  0  0  0  0  0  0
    5.3342   -5.9441    3.2494 C   0  0  2  0  0  0  0  0  0  0  0  0
    5.9063   -5.4651    4.6002 C   0  0  0  0  0  0  0  0  0  0  0  0
    6.0614   -5.2216    2.1159 C   0  0  0  0  0  0  0  0  0  0  0  0
    5.8729   -4.0340    1.8104 O   0  0  0  0  0  0  0  0  0  0  0  0
    7.0743   -6.1188    1.4406 C   0  0  1  0  0  0  0  0  0  0  0  0
    8.4563   -5.4810    1.2600 C   0  0  0  0  0  0  0  0  0  0  0  0
    7.0575   -7.3591    2.3563 C   0  0  0  0  0  0  0  0  0  0  0  0
    5.6248   -7.4394    2.9804 C   0  0  2  0  0  0  0  0  0  0  0  0
    4.5610   -8.1034    2.0302 C   0  0  1  0  0  0  0  0  0  0  0  0
    5.1078   -9.3332    1.2785 C   0  0  0  0  0  0  0  0  0  0  0  0
    4.8551   -7.6217   10.4656 H   0  0  0  0  0  0  0  0  0  0  0  0
    6.0270   -7.1587    9.2236 H   0  0  0  0  0  0  0  0  0  0  0  0
    6.1765   -8.7153   10.0448 H   0  0  0  0  0  0  0  0  0  0  0  0
    2.2912   -9.1588    7.4754 H   0  0  0  0  0  0  0  0  0  0  0  0
    2.4144  -10.1996    5.3578 H   0  0  0  0  0  0  0  0  0  0  0  0
    0.6733  -10.2335    1.7039 H   0  0  0  0  0  0  0  0  0  0  0  0
    1.7681  -10.8270    2.8892 H   0  0  0  0  0  0  0  0  0  0  0  0
    0.1596   -9.9007    4.2698 H   0  0  0  0  0  0  0  0  0  0  0  0
   -0.2062   -7.6260    2.2977 H   0  0  0  0  0  0  0  0  0  0  0  0
   -2.1194   -9.8176    3.2030 H   0  0  0  0  0  0  0  0  0  0  0  0
   -1.4204   -9.6496    1.6072 H   0  0  0  0  0  0  0  0  0  0  0  0
   -2.5711   -8.4622    2.1865 H   0  0  0  0  0  0  0  0  0  0  0  0
   -1.8479   -6.6509    3.7592 H   0  0  0  0  0  0  0  0  0  0  0  0
   -1.7915   -7.9980    4.8573 H   0  0  0  0  0  0  0  0  0  0  0  0
    0.3778   -5.8903    4.4890 H   0  0  0  0  0  0  0  0  0  0  0  0
   -0.6564   -6.1323    5.8665 H   0  0  0  0  0  0  0  0  0  0  0  0
    0.2864   -8.4649    6.1033 H   0  0  0  0  0  0  0  0  0  0  0  0
    2.3615   -6.2746    6.4127 H   0  0  0  0  0  0  0  0  0  0  0  0
    0.3867   -7.5577    8.3924 H   0  0  0  0  0  0  0  0  0  0  0  0
    0.3354   -5.8917    7.8186 H   0  0  0  0  0  0  0  0  0  0  0  0
    1.6570   -6.4153    8.8272 H   0  0  0  0  0  0  0  0  0  0  0  0
    1.8565   -6.9087    2.7611 H   0  0  0  0  0  0  0  0  0  0  0  0
    6.9913   -5.5857    4.6352 H   0  0  0  0  0  0  0  0  0  0  0  0
    5.4985   -6.0192    5.4435 H   0  0  0  0  0  0  0  0  0  0  0  0
    5.7060   -4.4030    4.7700 H   0  0  0  0  0  0  0  0  0  0  0  0
    6.6626   -6.3877    0.4711 H   0  0  0  0  0  0  0  0  0  0  0  0
    8.4030   -4.6164    0.6008 H   0  0  0  0  0  0  0  0  0  0  0  0
    9.1482   -6.1916    0.8080 H   0  0  0  0  0  0  0  0  0  0  0  0
    8.8867   -5.1531    2.2058 H   0  0  0  0  0  0  0  0  0  0  0  0
    7.3805   -8.2613    1.8477 H   0  0  0  0  0  0  0  0  0  0  0  0
    7.7760   -7.2145    3.1627 H   0  0  0  0  0  0  0  0  0  0  0  0
    5.6701   -7.9988    3.9087 H   0  0  0  0  0  0  0  0  0  0  0  0
    4.2359   -7.3859    1.2812 H   0  0  0  0  0  0  0  0  0  0  0  0
    5.5304  -10.0677    1.9623 H   0  0  0  0  0  0  0  0  0  0  0  0
    5.8750   -9.0549    0.5523 H   0  0  0  0  0  0  0  0  0  0  0  0
    4.3307   -9.8236    0.6975 H   0  0  0  0  0  0  0  0  0  0  0  0
  1  2  1  0
  1 34  1  0
  1 35  1  0
  1 36  1  0
  2  3  2  0
  2  4  1  0
  4  5  1  0
  5 18  1  0
  5  6  1  0
  5 37  1  1
  6  7  1  0
 20  7  1  1
  7  8  1  0
  7 38  1  1
  9  8  1  1
  9 21  1  0
  9 32  1  0
  9 10  1  0
 10 11  1  0
 11 12  1  0
 11 39  1  0
 11 40  1  0
 12 20  1  0
 12 13  1  0
 12 41  1  1
 13 14  1  0
 13 15  1  0
 13 42  1  6
 14 43  1  0
 14 44  1  0
 14 45  1  0
 15 16  1  0
 15 46  1  0
 15 47  1  0
 16 17  1  0
 16 48  1  0
 16 49  1  0
 17 18  1  0
 17 20  1  0
 17 50  1  1
 18 19  1  0
 18 51  1  6
 19 52  1  0
 19 53  1  0
 19 54  1  0
 20 21  1  0
 21 22  1  0
 21 55  1  6
 22 23  1  0
 23 24  1  0
 24 31  1  0
 24 25  1  1
 24 26  1  0
 25 56  1  0
 25 57  1  0
 25 58  1  0
 26 27  2  0
 26 28  1  0
 28 29  1  0
 28 30  1  0
 28 59  1  6
 29 60  1  0
 29 61  1  0
 29 62  1  0
 30 31  1  0
 30 63  1  0
 30 64  1  0
 31 32  1  0
 31 65  1  1
 32 33  1  0
 32 66  1  6
 33 67  1  0
 33 68  1  0
 33 69  1  0
M  END
>  <i_m_ct_stereo_status>  (188) 
1

>  <s_m_source_file>  (188) 
/var/tmp/pbs.5076255.sched01/tmp403565pz/80s7duc8s0.sdf

>  <i_m_source_file_index>  (188) 
26

>  <i_lp_mmshare_version>  (188) 
48012

>  <i_f3d_flags>  (188) 
0

>  <s_epik_input>  (188) 
TzFbQ0gyXVtDQEBIXTJbQ0BASF0oW0NIM10pW0NIMl1bQ0gyXVtDQEBIXTNbQ0BASF0oW0NIM10pW0NASF0oT0MoPU8pW0NIM10pT1tDQEhdKE80KVtDQEBdMjNbQ0BIXShbQ0BdMTQ1KU9PW0NAQF02KFtDSDNdKVtDQEBIXShbQ0BIXTVbQ0gzXSlbQ0gyXVtDQEBIXShDNj1PKVtDSDNd

>  <s_epik_cmdline>  (188) 
J2VwaWtfcHl0aG9uJywgJy1waHQnLCAnMi4wJywgJy1waCcsICc3LjAnLCAnLXRuJywgJzgnLCAnLW1hJywgJzIwMCcsICctaW1hZScsICc8aW5maWxlLm1hZT4nLCAnLW9tYWUnLCAnPG91dGZpbGUubWFlPic=

>  <r_lp_tautomer_probability>  (188) 
1

>  <r_epik_Ionization_Penalty>  (188) 
4.47969e-12

>  <r_epik_Ionization_Penalty_Charging>  (188) 
0

>  <r_epik_Ionization_Penalty_Neutral>  (188) 
4.47969e-12

>  <r_epik_State_Penalty>  (188) 
-0

>  <r_epik_Charging_Adjusted_Penalty>  (188) 
0

>  <i_epik_Tot_Q>  (188) 
0

>  <i_epik_Tot_abs_Q>  (188) 
0

>  <s_epik_Chemistry_Notes>  (188) 
This compound has an ester and may undergo hydrolysis at high or low pH. This compound contains an acetal/aminal-like group ( X-CH(R)-Y where X, Y are N, S, or O) that may be acid/base labile, releasing an aldehyde.

>  <s_lp_Force_Field>  (188) 
OPLS3e

>  <r_lp_Energy>  (188) 
50.9249

>  <b_lp_Chiralities_Consistent>  (188) 
1

>  <s_lp_Variant>  (188) 
72:0-1

>  <s_i_glide_gridfile>  (188) 
pfpi4k_grid

>  <i_i_glide_lignum>  (188) 
26

>  <i_i_glide_rotatable_bonds>  (188) 
2

>  <r_i_docking_score>  (188) 
-2.21173

>  <r_i_glide_ligand_efficiency>  (188) 
-0.067022

>  <r_i_glide_ligand_efficiency_sa>  (188) 
-0.214975

>  <r_i_glide_ligand_efficiency_ln>  (188) 
-0.491877

>  <r_i_glide_gscore>  (188) 
-2.21173

>  <r_i_glide_lipo>  (188) 
-0.476459

>  <r_i_glide_hbond>  (188) 
0

>  <r_i_glide_metal>  (188) 
-0

>  <r_i_glide_rewards>  (188) 
-0.30035

>  <r_i_glide_evdw>  (188) 
-29.4596

>  <r_i_glide_ecoul>  (188) 
-0.172904

>  <r_i_glide_erotb>  (188) 
0.0934187

>  <r_i_glide_esite>  (188) 
-0.0294197

>  <r_i_glide_emodel>  (188) 
-33.8798

>  <r_i_glide_energy>  (188) 
-29.6325

>  <r_i_glide_einternal>  (188) 
0.0201144

>  <r_i_glide_intrahb_reward>  (188) 
-0

>  <i_i_glide_confnum>  (188) 
3

>  <i_i_glide_posenum>  (188) 
23

>  <r_i_glide_eff_state_penalty>  (188) 
0

>  <ligand_id>  (188) 
72

>  <original_smiles>  (188) 
CC(=O)OC1OC2OC34OCC5C(C)CCC(C1C)C25C3OOC1(C)C(=O)C(C)CC1C4C

>  <smiles>  (188) 
[H]C([H])([H])C(=O)OC1([H])OC2([H])OC34OC([H])([H])C5([H])C([H])(C([H])([H])[H])C([H])([H])C([H])([H])C([H])(C1([H])C([H])([H])[H])C25C3([H])OOC1(C([H])([H])[H])C(=O)C([H])(C([H])([H])[H])C([H])([H])C1([H])C4([H])C([H])([H])[H]

$$$$
72:0:2
     RDKit          3D

 69 74  0  0  1  0  0  0  0  0999 V2000
    8.1547    0.9533    6.5494 C   0  0  0  0  0  0  0  0  0  0  0  0
    6.8557    0.1706    6.4490 C   0  0  0  0  0  0  0  0  0  0  0  0
    6.6602   -0.8462    7.1198 O   0  0  0  0  0  0  0  0  0  0  0  0
    6.0019    0.7541    5.5897 O   0  0  0  0  0  0  0  0  0  0  0  0
    4.6787    0.3106    5.6261 C   0  0  2  0  0  0  0  0  0  0  0  0
    4.4917   -0.8414    4.8663 O   0  0  0  0  0  0  0  0  0  0  0  0
    3.2236   -1.4230    5.0026 C   0  0  2  0  0  0  0  0  0  0  0  0
    3.1267   -2.5347    4.1486 O   0  0  0  0  0  0  0  0  0  0  0  0
    2.3306   -2.2261    3.0387 C   0  0  1  0  0  0  0  0  0  0  0  0
    1.0024   -2.6472    3.2491 O   0  0  0  0  0  0  0  0  0  0  0  0
    0.4676   -2.3794    4.5401 C   0  0  0  0  0  0  0  0  0  0  0  0
    0.7044   -0.9121    4.9760 C   0  0  2  0  0  0  0  0  0  0  0  0
   -0.4355    0.0553    4.5172 C   0  0  1  0  0  0  0  0  0  0  0  0
   -1.7918   -0.2586    5.1840 C   0  0  0  0  0  0  0  0  0  0  0  0
   -0.0936    1.5331    4.8078 C   0  0  0  0  0  0  0  0  0  0  0  0
    1.3340    1.9425    4.4163 C   0  0  0  0  0  0  0  0  0  0  0  0
    2.3476    0.9755    5.0631 C   0  0  2  0  0  0  0  0  0  0  0  0
    3.8122    1.4416    4.9986 C   0  0  1  0  0  0  0  0  0  0  0  0
    4.0478    2.7448    5.8012 C   0  0  0  0  0  0  0  0  0  0  0  0
    2.1148   -0.4404    4.4924 C   0  0  1  0  0  0  0  0  0  0  0  0
    2.2417   -0.6891    2.9846 C   0  0  1  0  0  0  0  0  0  0  0  0
    3.4158   -0.0843    2.4509 O   0  0  0  0  0  0  0  0  0  0  0  0
    3.3863   -0.3218    0.9493 O   0  0  0  0  0  0  0  0  0  0  0  0
    4.4475   -1.2166    0.6720 C   0  0  2  0  0  0  0  0  0  0  0  0
    5.7963   -0.5377    0.9444 C   0  0  0  0  0  0  0  0  0  0  0  0
    4.3813   -1.6225   -0.8009 C   0  0  0  0  0  0  0  0  0  0  0  0
    4.2490   -0.8268   -1.7469 O   0  0  0  0  0  0  0  0  0  0  0  0
    4.6172   -3.0998   -0.9844 C   0  0  1  0  0  0  0  0  0  0  0  0
    5.6366   -3.4251   -2.0759 C   0  0  0  0  0  0  0  0  0  0  0  0
    5.0435   -3.5297    0.4352 C   0  0  0  0  0  0  0  0  0  0  0  0
    4.3308   -2.5570    1.4320 C   0  0  2  0  0  0  0  0  0  0  0  0
    2.8433   -2.9545    1.7379 C   0  0  1  0  0  0  0  0  0  0  0  0
    2.6423   -4.4768    1.9272 C   0  0  0  0  0  0  0  0  0  0  0  0
    7.9492    1.9926    6.8070 H   0  0  0  0  0  0  0  0  0  0  0  0
    8.6677    0.9424    5.5900 H   0  0  0  0  0  0  0  0  0  0  0  0
    8.8182    0.5361    7.3074 H   0  0  0  0  0  0  0  0  0  0  0  0
    4.3790    0.1231    6.6560 H   0  0  0  0  0  0  0  0  0  0  0  0
    3.0631   -1.7345    6.0376 H   0  0  0  0  0  0  0  0  0  0  0  0
   -0.5843   -2.6441    4.5348 H   0  0  0  0  0  0  0  0  0  0  0  0
    0.9283   -3.0517    5.2625 H   0  0  0  0  0  0  0  0  0  0  0  0
    0.6922   -0.8990    6.0651 H   0  0  0  0  0  0  0  0  0  0  0  0
   -0.5844   -0.0540    3.4462 H   0  0  0  0  0  0  0  0  0  0  0  0
   -1.7281   -0.2170    6.2702 H   0  0  0  0  0  0  0  0  0  0  0  0
   -2.1959   -1.2301    4.9026 H   0  0  0  0  0  0  0  0  0  0  0  0
   -2.5400    0.4749    4.8776 H   0  0  0  0  0  0  0  0  0  0  0  0
   -0.7963    2.1783    4.2711 H   0  0  0  0  0  0  0  0  0  0  0  0
   -0.2374    1.7475    5.8642 H   0  0  0  0  0  0  0  0  0  0  0  0
    1.4414    1.9448    3.3306 H   0  0  0  0  0  0  0  0  0  0  0  0
    1.4964    2.9657    4.7371 H   0  0  0  0  0  0  0  0  0  0  0  0
    2.1044    0.9422    6.1237 H   0  0  0  0  0  0  0  0  0  0  0  0
    4.1400    1.5944    3.9754 H   0  0  0  0  0  0  0  0  0  0  0  0
    3.7197    2.6508    6.8377 H   0  0  0  0  0  0  0  0  0  0  0  0
    3.5129    3.5841    5.3518 H   0  0  0  0  0  0  0  0  0  0  0  0
    5.0989    3.0360    5.8130 H   0  0  0  0  0  0  0  0  0  0  0  0
    1.3768   -0.3735    2.4082 H   0  0  0  0  0  0  0  0  0  0  0  0
    6.6350   -1.1508    0.6143 H   0  0  0  0  0  0  0  0  0  0  0  0
    5.9398   -0.3203    2.0037 H   0  0  0  0  0  0  0  0  0  0  0  0
    5.8742    0.4182    0.4270 H   0  0  0  0  0  0  0  0  0  0  0  0
    3.6595   -3.5639   -1.2229 H   0  0  0  0  0  0  0  0  0  0  0  0
    5.2841   -3.1033   -3.0548 H   0  0  0  0  0  0  0  0  0  0  0  0
    5.7802   -4.4955   -2.1269 H   0  0  0  0  0  0  0  0  0  0  0  0
    6.6086   -2.9602   -1.9015 H   0  0  0  0  0  0  0  0  0  0  0  0
    4.8701   -4.5836    0.6311 H   0  0  0  0  0  0  0  0  0  0  0  0
    6.1215   -3.3958    0.5423 H   0  0  0  0  0  0  0  0  0  0  0  0
    4.8879   -2.5251    2.3637 H   0  0  0  0  0  0  0  0  0  0  0  0
    2.2058   -2.6350    0.9228 H   0  0  0  0  0  0  0  0  0  0  0  0
    3.3282   -4.8753    2.6728 H   0  0  0  0  0  0  0  0  0  0  0  0
    2.8005   -5.0132    0.9917 H   0  0  0  0  0  0  0  0  0  0  0  0
    1.6298   -4.7255    2.2372 H   0  0  0  0  0  0  0  0  0  0  0  0
  1  2  1  0
  1 34  1  0
  1 35  1  0
  1 36  1  0
  2  3  2  0
  2  4  1  0
  4  5  1  0
  5 18  1  0
  5  6  1  0
  5 37  1  1
  6  7  1  0
 20  7  1  1
  7  8  1  0
  7 38  1  1
  9  8  1  1
  9 21  1  0
  9 32  1  0
  9 10  1  0
 10 11  1  0
 11 12  1  0
 11 39  1  0
 11 40  1  0
 12 20  1  0
 12 13  1  0
 12 41  1  1
 13 14  1  0
 13 15  1  0
 13 42  1  6
 14 43  1  0
 14 44  1  0
 14 45  1  0
 15 16  1  0
 15 46  1  0
 15 47  1  0
 16 17  1  0
 16 48  1  0
 16 49  1  0
 17 18  1  0
 17 20  1  0
 17 50  1  1
 18 19  1  0
 18 51  1  6
 19 52  1  0
 19 53  1  0
 19 54  1  0
 20 21  1  0
 21 22  1  0
 21 55  1  6
 22 23  1  0
 23 24  1  0
 24 31  1  0
 24 25  1  6
 24 26  1  0
 25 56  1  0
 25 57  1  0
 25 58  1  0
 26 27  2  0
 26 28  1  0
 28 29  1  0
 28 30  1  0
 28 59  1  6
 29 60  1  0
 29 61  1  0
 29 62  1  0
 30 31  1  0
 30 63  1  0
 30 64  1  0
 31 32  1  0
 31 65  1  1
 32 33  1  0
 32 66  1  6
 33 67  1  0
 33 68  1  0
 33 69  1  0
M  END
>  <i_m_ct_stereo_status>  (189) 
1

>  <s_m_source_file>  (189) 
/var/tmp/pbs.5076255.sched01/tmp403565pz/80s7duc8s0.sdf

>  <i_m_source_file_index>  (189) 
26

>  <i_lp_mmshare_version>  (189) 
48012

>  <i_f3d_flags>  (189) 
0

>  <s_epik_input>  (189) 
TzFbQ0gyXVtDQEBIXTJbQ0BASF0oW0NIM10pW0NIMl1bQ0gyXVtDQEBIXTNbQ0BASF0oW0NIM10pW0NASF0oT0MoPU8pW0NIM10pT1tDQEhdKE80KVtDQEBdMjNbQ0BIXShbQ0BdMTQ1KU9PW0NAQF02KFtDSDNdKVtDQEBIXShbQ0BIXTVbQ0gzXSlbQ0gyXVtDQEBIXShDNj1PKVtDSDNd

>  <s_epik_cmdline>  (189) 
J2VwaWtfcHl0aG9uJywgJy1waHQnLCAnMi4wJywgJy1waCcsICc3LjAnLCAnLXRuJywgJzgnLCAnLW1hJywgJzIwMCcsICctaW1hZScsICc8aW5maWxlLm1hZT4nLCAnLW9tYWUnLCAnPG91dGZpbGUubWFlPic=

>  <r_lp_tautomer_probability>  (189) 
1

>  <r_epik_Ionization_Penalty>  (189) 
4.47969e-12

>  <r_epik_Ionization_Penalty_Charging>  (189) 
0

>  <r_epik_Ionization_Penalty_Neutral>  (189) 
4.47969e-12

>  <r_epik_State_Penalty>  (189) 
-0

>  <r_epik_Charging_Adjusted_Penalty>  (189) 
0

>  <i_epik_Tot_Q>  (189) 
0

>  <i_epik_Tot_abs_Q>  (189) 
0

>  <s_epik_Chemistry_Notes>  (189) 
This compound has an ester and may undergo hydrolysis at high or low pH. This compound contains an acetal/aminal-like group ( X-CH(R)-Y where X, Y are N, S, or O) that may be acid/base labile, releasing an aldehyde.

>  <s_lp_Force_Field>  (189) 
OPLS3e

>  <r_lp_Energy>  (189) 
50.9249

>  <b_lp_Chiralities_Consistent>  (189) 
1

>  <s_lp_Variant>  (189) 
72:0-1

>  <s_i_glide_gridfile>  (189) 
pfpi4k_grid

>  <i_i_glide_lignum>  (189) 
26

>  <i_i_glide_rotatable_bonds>  (189) 
2

>  <r_i_docking_score>  (189) 
-2.20267

>  <r_i_glide_ligand_efficiency>  (189) 
-0.0667477

>  <r_i_glide_ligand_efficiency_sa>  (189) 
-0.214096

>  <r_i_glide_ligand_efficiency_ln>  (189) 
-0.489863

>  <r_i_glide_gscore>  (189) 
-2.20267

>  <r_i_glide_lipo>  (189) 
-0.47969

>  <r_i_glide_hbond>  (189) 
0

>  <r_i_glide_metal>  (189) 
-0

>  <r_i_glide_rewards>  (189) 
-0.423068

>  <r_i_glide_evdw>  (189) 
-30.9998

>  <r_i_glide_ecoul>  (189) 
1.31434

>  <r_i_glide_erotb>  (189) 
0.0934187

>  <r_i_glide_esite>  (189) 
-0.0404941

>  <r_i_glide_emodel>  (189) 
-32.6483

>  <r_i_glide_energy>  (189) 
-29.6855

>  <r_i_glide_einternal>  (189) 
2.14572

>  <r_i_glide_intrahb_reward>  (189) 
-0

>  <i_i_glide_confnum>  (189) 
1

>  <i_i_glide_posenum>  (189) 
5

>  <r_i_glide_eff_state_penalty>  (189) 
0

>  <ligand_id>  (189) 
72

>  <original_smiles>  (189) 
CC(=O)OC1OC2OC34OCC5C(C)CCC(C1C)C25C3OOC1(C)C(=O)C(C)CC1C4C

>  <smiles>  (189) 
[H]C([H])([H])C(=O)OC1([H])OC2([H])OC34OC([H])([H])C5([H])C([H])(C([H])([H])[H])C([H])([H])C([H])([H])C([H])(C1([H])C([H])([H])[H])C25C3([H])OOC1(C([H])([H])[H])C(=O)C([H])(C([H])([H])[H])C([H])([H])C1([H])C4([H])C([H])([H])[H]

$$$$
73:0:0
     RDKit          3D

 91 99  0  0  1  0  0  0  0  0999 V2000
    6.4474   -5.3392    2.3557 C   0  0  0  0  0  0  0  0  0  0  0  0
    5.2596   -4.4867    2.8479 C   0  0  0  0  0  0  0  0  0  0  0  0
    5.4099   -3.5321    3.7651 C   0  0  0  0  0  0  0  0  0  0  0  0
    4.7668   -3.8600    5.1178 C   0  0  0  0  0  0  0  0  0  0  0  0
    4.5534   -5.3825    5.4348 C   0  0  2  0  0  0  0  0  0  0  0  0
    5.9441   -6.0233    5.6226 C   0  0  0  0  0  0  0  0  0  0  0  0
    3.7044   -6.2634    4.4751 C   0  0  0  0  0  0  0  0  0  0  0  0
    3.4963   -6.1690    3.1160 C   0  0  0  0  0  0  0  0  0  0  0  0
    2.6896   -7.1536    2.2886 C   0  0  0  0  0  0  0  0  0  0  0  0
    3.8514   -4.8760    2.3846 C   0  0  1  0  0  0  0  0  0  0  0  0
    2.7612   -4.1229    2.8762 O   0  0  0  0  0  0  0  0  0  0  0  0
    2.6402   -2.7190    2.8172 C   0  0  0  0  0  0  0  0  0  0  0  0
    3.8695   -2.0346    2.2658 C   0  0  1  0  0  0  0  0  0  0  0  0
    5.0062   -2.1813    3.2733 C   0  0  0  0  0  0  0  0  0  0  0  0
    5.4557   -1.1332    3.7294 O   0  0  0  0  0  0  0  0  0  0  0  0
    4.0450   -2.3740    0.7958 C   0  0  1  0  0  0  0  0  0  0  0  0
    2.9051   -1.8606    0.1326 O   0  0  0  0  0  0  0  0  0  0  0  0
    4.1502   -1.4441   -0.3869 C   0  0  2  0  0  0  0  0  0  0  0  0
    4.5418   -2.2014   -1.6110 C   0  0  1  0  0  0  0  0  0  0  0  0
    5.9297   -2.0002   -1.8302 O   0  0  0  0  0  0  0  0  0  0  0  0
    4.2264   -3.6651   -1.2009 C   0  0  1  0  0  0  0  0  0  0  0  0
    5.0166   -4.5376   -1.9591 O   0  0  0  0  0  0  0  0  0  0  0  0
    4.4677   -3.7528    0.3288 C   0  0  2  0  0  0  0  0  0  0  0  0
    3.8142   -4.8827    0.9731 O   0  0  0  0  0  0  0  0  0  0  0  0
    2.8280   -6.9034    5.5974 C   0  0  1  0  0  0  0  0  0  0  0  0
    1.3540   -6.7498    5.1617 C   0  0  0  0  0  0  0  0  0  0  0  0
    3.1215   -8.4037    5.8663 C   0  0  0  0  0  0  0  0  0  0  0  0
    2.2074   -9.1314    6.9281 C   0  0  0  0  0  0  0  0  0  0  0  0
    2.4547   -8.6468    8.3728 C   0  0  2  0  0  0  0  0  0  0  0  0
    2.7795   -9.6922    9.4559 C   0  0  2  0  0  0  0  0  0  0  0  0
    1.4442  -10.0969   10.0689 C   0  0  0  0  0  0  0  0  0  0  0  0
    0.6703   -8.8123    9.9250 C   0  0  0  0  0  0  0  0  0  0  0  0
   -0.4445   -8.6517   10.4270 O   0  0  0  0  0  0  0  0  0  0  0  0
    1.4408   -7.7502    9.1270 C   0  0  2  0  0  0  0  0  0  0  0  0
    0.3991   -6.9092    8.3650 C   0  0  0  0  0  0  0  0  0  0  0  0
    2.3586   -6.8541   10.0208 C   0  0  2  0  0  0  0  0  0  0  0  0
    2.9892   -5.6325    9.2071 C   0  0  1  0  0  0  0  0  0  0  0  0
    3.5194   -4.7012   10.1324 O   0  0  0  0  0  0  0  0  0  0  0  0
    3.9930   -5.7597    7.9887 C   0  0  1  0  0  0  0  0  0  0  0  0
    5.0517   -6.6618    8.2313 O   0  0  0  0  0  0  0  0  0  0  0  0
    3.4750   -5.7528    6.4914 C   0  0  1  0  0  0  0  0  0  0  0  0
    3.2626   -7.7440   10.9924 C   0  0  0  0  0  0  0  0  0  0  0  0
    4.6301   -7.1473   11.3974 C   0  0  0  0  0  0  0  0  0  0  0  0
    2.5628   -7.9762   12.3647 C   0  0  0  0  0  0  0  0  0  0  0  0
    3.6264   -9.0287   10.4229 O   0  0  0  0  0  0  0  0  0  0  0  0
    6.6494   -5.2596    1.2866 H   0  0  0  0  0  0  0  0  0  0  0  0
    6.2917   -6.3919    2.5846 H   0  0  0  0  0  0  0  0  0  0  0  0
    7.3797   -5.0736    2.8562 H   0  0  0  0  0  0  0  0  0  0  0  0
    5.4331   -3.4234    5.8674 H   0  0  0  0  0  0  0  0  0  0  0  0
    3.8234   -3.3265    5.2517 H   0  0  0  0  0  0  0  0  0  0  0  0
    6.4776   -5.5658    6.4598 H   0  0  0  0  0  0  0  0  0  0  0  0
    6.6061   -5.8972    4.7765 H   0  0  0  0  0  0  0  0  0  0  0  0
    5.8828   -7.0929    5.8108 H   0  0  0  0  0  0  0  0  0  0  0  0
    3.2335   -7.4365    1.3895 H   0  0  0  0  0  0  0  0  0  0  0  0
    1.7452   -6.7101    1.9745 H   0  0  0  0  0  0  0  0  0  0  0  0
    2.4873   -8.0777    2.8287 H   0  0  0  0  0  0  0  0  0  0  0  0
    1.7541   -2.4395    2.2471 H   0  0  0  0  0  0  0  0  0  0  0  0
    2.4388   -2.3751    3.8317 H   0  0  0  0  0  0  0  0  0  0  0  0
    3.6414   -0.9694    2.2796 H   0  0  0  0  0  0  0  0  0  0  0  0
    4.3545   -0.3785   -0.2952 H   0  0  0  0  0  0  0  0  0  0  0  0
    3.9704   -1.8889   -2.4916 H   0  0  0  0  0  0  0  0  0  0  0  0
    6.2200   -2.6846   -2.4212 H   0  0  0  0  0  0  0  0  0  0  0  0
    3.1837   -3.8775   -1.4165 H   0  0  0  0  0  0  0  0  0  0  0  0
    4.4353   -5.2541   -2.2163 H   0  0  0  0  0  0  0  0  0  0  0  0
    5.5477   -3.7623    0.4467 H   0  0  0  0  0  0  0  0  0  0  0  0
    0.6367   -7.1575    5.8594 H   0  0  0  0  0  0  0  0  0  0  0  0
    1.1086   -7.2901    4.2561 H   0  0  0  0  0  0  0  0  0  0  0  0
    1.0812   -5.7084    4.9975 H   0  0  0  0  0  0  0  0  0  0  0  0
    3.0444   -8.9583    4.9316 H   0  0  0  0  0  0  0  0  0  0  0  0
    4.1608   -8.5274    6.1690 H   0  0  0  0  0  0  0  0  0  0  0  0
    1.1505   -9.1060    6.6667 H   0  0  0  0  0  0  0  0  0  0  0  0
    2.4679  -10.1915    6.8865 H   0  0  0  0  0  0  0  0  0  0  0  0
    3.4000   -8.1764    8.2799 H   0  0  0  0  0  0  0  0  0  0  0  0
    3.3015  -10.5606    9.0605 H   0  0  0  0  0  0  0  0  0  0  0  0
    0.9652  -10.8752    9.4791 H   0  0  0  0  0  0  0  0  0  0  0  0
    1.5129  -10.4276   11.1031 H   0  0  0  0  0  0  0  0  0  0  0  0
    0.8335   -6.1805    7.6897 H   0  0  0  0  0  0  0  0  0  0  0  0
   -0.2200   -6.3354    9.0572 H   0  0  0  0  0  0  0  0  0  0  0  0
   -0.2785   -7.5452    7.7966 H   0  0  0  0  0  0  0  0  0  0  0  0
    1.6701   -6.3374   10.6913 H   0  0  0  0  0  0  0  0  0  0  0  0
    2.1653   -5.0361    8.8232 H   0  0  0  0  0  0  0  0  0  0  0  0
    3.8101   -3.9433    9.6485 H   0  0  0  0  0  0  0  0  0  0  0  0
    4.5478   -4.8209    8.0360 H   0  0  0  0  0  0  0  0  0  0  0  0
    4.7059   -7.5437    8.2040 H   0  0  0  0  0  0  0  0  0  0  0  0
    2.7367   -4.9552    6.4335 H   0  0  0  0  0  0  0  0  0  0  0  0
    4.5329   -6.1995   11.9249 H   0  0  0  0  0  0  0  0  0  0  0  0
    5.2934   -6.9902   10.5579 H   0  0  0  0  0  0  0  0  0  0  0  0
    5.1623   -7.8257   12.0652 H   0  0  0  0  0  0  0  0  0  0  0  0
    2.4014   -7.0318   12.8855 H   0  0  0  0  0  0  0  0  0  0  0  0
    3.1732   -8.6001   13.0185 H   0  0  0  0  0  0  0  0  0  0  0  0
    1.5916   -8.4565   12.3083 H   0  0  0  0  0  0  0  0  0  0  0  0
  1  2  1  0
  1 46  1  0
  1 47  1  0
  1 48  1  0
  2 10  1  0
  2  3  2  0
  3 14  1  0
  3  4  1  0
  4  5  1  0
  4 49  1  0
  4 50  1  0
  5 41  1  0
  5  6  1  1
  5  7  1  0
  6 51  1  0
  6 52  1  0
  6 53  1  0
  7  8  2  0
  7 25  1  0
  8  9  1  0
  8 10  1  0
  9 54  1  0
  9 55  1  0
  9 56  1  0
 10 24  1  6
 10 11  1  0
 11 12  1  0
 12 13  1  0
 12 57  1  0
 12 58  1  0
 13 14  1  0
 13 16  1  0
 13 59  1  6
 14 15  2  0
 16 18  1  0
 16 23  1  0
 16 17  1  6
 17 18  1  0
 18 19  1  0
 18 60  1  1
 19 20  1  0
 19 21  1  0
 19 61  1  6
 20 62  1  0
 21 22  1  0
 21 23  1  0
 21 63  1  1
 22 64  1  0
 23 24  1  0
 23 65  1  6
 25 41  1  0
 25 26  1  6
 25 27  1  0
 26 66  1  0
 26 67  1  0
 26 68  1  0
 27 28  1  0
 27 69  1  0
 27 70  1  0
 28 29  1  0
 28 71  1  0
 28 72  1  0
 29 34  1  0
 29 30  1  0
 29 73  1  6
 30 45  1  0
 30 31  1  0
 30 74  1  6
 31 32  1  0
 31 75  1  0
 31 76  1  0
 32 33  2  0
 32 34  1  0
 34 35  1  6
 34 36  1  0
 35 77  1  0
 35 78  1  0
 35 79  1  0
 36 37  1  0
 36 42  1  0
 36 80  1  1
 37 38  1  0
 37 39  1  0
 37 81  1  6
 38 82  1  0
 39 40  1  0
 39 41  1  0
 39 83  1  6
 40 84  1  0
 41 85  1  1
 42 43  1  0
 42 44  1  0
 42 45  1  0
 43 86  1  0
 43 87  1  0
 43 88  1  0
 44 89  1  0
 44 90  1  0
 44 91  1  0
M  END
>  <i_m_ct_stereo_status>  (190) 
1

>  <s_m_source_file>  (190) 
/var/tmp/pbs.5076255.sched01/tmp403565pz/80s7duc8s0.sdf

>  <i_m_source_file_index>  (190) 
27

>  <i_lp_mmshare_version>  (190) 
48012

>  <i_f3d_flags>  (190) 
1

>  <s_epik_input>  (190) 
TzFbQ0BIXTJbQ0BIXShbT0hdKVtDQEhdKFtPSF0pW0NAQEhdKE8zKVtDQF0yM1tDQEBIXShbQ0gyXU80KUMoPU8pQyg9QyhbQ0BdMTQ1KVtDSDNdKVtDSDJdW0NAXTYoW0NIM10pQyg9QzVbQ0gzXSlbQ0BdNyhbQ0gzXSlbQ0BIXTZbQ0BIXShbT0hdKVtDQEhdKFtPSF0pW0NASF04W0NAQF05KFtDSDNdKVtDQEhdKFtDSDJdW0NIMl03KVtDQEhdKFtDSDJdQzk9TylPQzgoW0NIM10pW0NIM10=

>  <s_epik_cmdline>  (190) 
J2VwaWtfcHl0aG9uJywgJy1waHQnLCAnMi4wJywgJy1waCcsICc3LjAnLCAnLXRuJywgJzgnLCAnLW1hJywgJzIwMCcsICctaW1hZScsICc8aW5maWxlLm1hZT4nLCAnLW9tYWUnLCAnPG91dGZpbGUubWFlPic=

>  <r_lp_tautomer_probability>  (190) 
1

>  <r_epik_Ionization_Penalty>  (190) 
4.66552e-06

>  <r_epik_Ionization_Penalty_Charging>  (190) 
0

>  <r_epik_Ionization_Penalty_Neutral>  (190) 
4.66552e-06

>  <r_epik_State_Penalty>  (190) 
-0

>  <r_epik_Charging_Adjusted_Penalty>  (190) 
0

>  <i_epik_Tot_Q>  (190) 
0

>  <i_epik_Tot_abs_Q>  (190) 
0

>  <s_lp_Force_Field>  (190) 
OPLS3e

>  <r_lp_Energy>  (190) 
181.769

>  <b_lp_Chiralities_Consistent>  (190) 
1

>  <s_lp_Variant>  (190) 
73:0-1

>  <s_i_glide_gridfile>  (190) 
pfpi4k_grid

>  <i_i_glide_lignum>  (190) 
27

>  <i_i_glide_rotatable_bonds>  (190) 
4

>  <r_i_docking_score>  (190) 
-2.20398

>  <r_i_glide_ligand_efficiency>  (190) 
-0.0489774

>  <r_i_glide_ligand_efficiency_sa>  (190) 
-0.174207

>  <r_i_glide_ligand_efficiency_ln>  (190) 
-0.458526

>  <r_i_glide_gscore>  (190) 
-2.20398

>  <r_i_glide_lipo>  (190) 
-0.114987

>  <r_i_glide_hbond>  (190) 
-0.148827

>  <r_i_glide_metal>  (190) 
-0

>  <r_i_glide_rewards>  (190) 
-0.0843815

>  <r_i_glide_evdw>  (190) 
-13.5347

>  <r_i_glide_ecoul>  (190) 
-7.65236

>  <r_i_glide_erotb>  (190) 
0

>  <r_i_glide_esite>  (190) 
-0.031196

>  <r_i_glide_emodel>  (190) 
-20.9949

>  <r_i_glide_energy>  (190) 
-21.1871

>  <r_i_glide_einternal>  (190) 
2.15549

>  <r_i_glide_intrahb_reward>  (190) 
-0

>  <i_i_glide_confnum>  (190) 
2

>  <i_i_glide_posenum>  (190) 
30

>  <r_i_glide_eff_state_penalty>  (190) 
0

>  <ligand_id>  (190) 
73

>  <original_smiles>  (190) 
CC1=C2CC3(C)C(=C(C)C14OCC(C2=O)C12OC1C(O)C(O)C2O4)C1(C)CCC2C4CC(=O)C2(C)C(C(O)C(O)C13)C(C)(C)O4

>  <smiles>  (190) 
[H]OC1([H])C([H])(O[H])C2([H])OC23C1([H])OC12OC([H])([H])C3([H])C(=O)C(=C1C([H])([H])[H])C([H])([H])C1(C([H])([H])[H])C(=C2C([H])([H])[H])C2(C([H])([H])[H])C([H])([H])C([H])([H])C3([H])C4([H])OC(C([H])([H])[H])(C([H])([H])[H])C([H])(C([H])(O[H])C([H])(O[H])C12[H])C3(C([H])([H])[H])C(=O)C4([H])[H]

$$$$
73:0:1
     RDKit          3D

 91 99  0  0  1  0  0  0  0  0999 V2000
    6.0188   -0.9687    1.9914 C   0  0  0  0  0  0  0  0  0  0  0  0
    4.7173   -1.6989    2.2800 C   0  0  0  0  0  0  0  0  0  0  0  0
    3.6781   -1.0112    2.7351 C   0  0  0  0  0  0  0  0  0  0  0  0
    3.2123   -1.3611    4.1291 C   0  0  0  0  0  0  0  0  0  0  0  0
    4.2987   -1.9185    5.0788 C   0  0  2  0  0  0  0  0  0  0  0  0
    5.3375   -0.8141    5.3268 C   0  0  0  0  0  0  0  0  0  0  0  0
    5.0649   -3.2158    4.6930 C   0  0  0  0  0  0  0  0  0  0  0  0
    5.3434   -3.7741    3.4494 C   0  0  0  0  0  0  0  0  0  0  0  0
    6.1802   -5.0197    3.1958 C   0  0  0  0  0  0  0  0  0  0  0  0
    4.6745   -3.2334    2.1844 C   0  0  1  0  0  0  0  0  0  0  0  0
    3.4409   -3.8490    2.4681 O   0  0  0  0  0  0  0  0  0  0  0  0
    2.2226   -3.5517    1.8453 C   0  0  0  0  0  0  0  0  0  0  0  0
    2.3394   -2.3675    0.9252 C   0  0  1  0  0  0  0  0  0  0  0  0
    2.5724   -1.0802    1.7512 C   0  0  0  0  0  0  0  0  0  0  0  0
    1.7337   -0.1829    1.6743 O   0  0  0  0  0  0  0  0  0  0  0  0
    3.1339   -2.7682   -0.3125 C   0  0  1  0  0  0  0  0  0  0  0  0
    2.4403   -3.8536   -0.9970 O   0  0  0  0  0  0  0  0  0  0  0  0
    2.8088   -2.7215   -1.7977 C   0  0  2  0  0  0  0  0  0  0  0  0
    4.0204   -2.8768   -2.6176 C   0  0  1  0  0  0  0  0  0  0  0  0
    4.4143   -1.5860   -3.0598 O   0  0  0  0  0  0  0  0  0  0  0  0
    5.0516   -3.4625   -1.5904 C   0  0  1  0  0  0  0  0  0  0  0  0
    6.3761   -3.0989   -1.9642 O   0  0  0  0  0  0  0  0  0  0  0  0
    4.6354   -2.8934   -0.1952 C   0  0  2  0  0  0  0  0  0  0  0  0
    5.1455   -3.6611    0.9273 O   0  0  0  0  0  0  0  0  0  0  0  0
    4.8771   -3.9414    6.0810 C   0  0  1  0  0  0  0  0  0  0  0  0
    4.3572   -5.3525    5.7775 C   0  0  0  0  0  0  0  0  0  0  0  0
    6.2044   -4.0430    6.8776 C   0  0  0  0  0  0  0  0  0  0  0  0
    6.1146   -4.8164    8.2582 C   0  0  0  0  0  0  0  0  0  0  0  0
    5.2849   -4.0590    9.3262 C   0  0  2  0  0  0  0  0  0  0  0  0
    5.9355   -3.8023   10.7115 C   0  0  2  0  0  0  0  0  0  0  0  0
    5.5524   -4.9973   11.5870 C   0  0  0  0  0  0  0  0  0  0  0  0
    4.2136   -5.3557   10.9999 C   0  0  0  0  0  0  0  0  0  0  0  0
    3.4731   -6.1919   11.4980 O   0  0  0  0  0  0  0  0  0  0  0  0
    3.8687   -4.5334    9.7574 C   0  0  2  0  0  0  0  0  0  0  0  0
    3.0197   -5.4303    8.8416 C   0  0  0  0  0  0  0  0  0  0  0  0
    3.1525   -3.1829   10.0771 C   0  0  2  0  0  0  0  0  0  0  0  0
    2.6287   -2.4538    8.7565 C   0  0  1  0  0  0  0  0  0  0  0  0
    1.7223   -1.4260    9.1252 O   0  0  0  0  0  0  0  0  0  0  0  0
    3.5241   -1.8855    7.5827 C   0  0  1  0  0  0  0  0  0  0  0  0
    4.6105   -1.1196    8.0614 O   0  0  0  0  0  0  0  0  0  0  0  0
    3.8562   -2.7451    6.3143 C   0  0  1  0  0  0  0  0  0  0  0  0
    3.9263   -2.3728   11.2089 C   0  0  0  0  0  0  0  0  0  0  0  0
    3.7928   -0.8264   11.1663 C   0  0  0  0  0  0  0  0  0  0  0  0
    3.3807   -2.7059   12.6298 C   0  0  0  0  0  0  0  0  0  0  0  0
    5.3584   -2.5744   11.2027 O   0  0  0  0  0  0  0  0  0  0  0  0
    6.4318   -1.0601    0.9877 H   0  0  0  0  0  0  0  0  0  0  0  0
    6.7577   -1.3048    2.6857 H   0  0  0  0  0  0  0  0  0  0  0  0
    5.8747    0.0983    2.1918 H   0  0  0  0  0  0  0  0  0  0  0  0
    2.8153   -0.4258    4.5361 H   0  0  0  0  0  0  0  0  0  0  0  0
    2.3534   -2.0280    4.1135 H   0  0  0  0  0  0  0  0  0  0  0  0
    4.8662    0.0509    5.8087 H   0  0  0  0  0  0  0  0  0  0  0  0
    5.7805   -0.3977    4.4348 H   0  0  0  0  0  0  0  0  0  0  0  0
    6.1693   -1.1372    5.9553 H   0  0  0  0  0  0  0  0  0  0  0  0
    6.9422   -4.8299    2.4397 H   0  0  0  0  0  0  0  0  0  0  0  0
    5.5560   -5.8449    2.8434 H   0  0  0  0  0  0  0  0  0  0  0  0
    6.7148   -5.3362    4.0979 H   0  0  0  0  0  0  0  0  0  0  0  0
    1.8579   -4.4348    1.3152 H   0  0  0  0  0  0  0  0  0  0  0  0
    1.4932   -3.3646    2.6349 H   0  0  0  0  0  0  0  0  0  0  0  0
    1.3437   -2.2674    0.5591 H   0  0  0  0  0  0  0  0  0  0  0  0
    1.9403   -2.2217   -2.2314 H   0  0  0  0  0  0  0  0  0  0  0  0
    3.8447   -3.5338   -3.4705 H   0  0  0  0  0  0  0  0  0  0  0  0
    3.6562   -1.1355   -3.3765 H   0  0  0  0  0  0  0  0  0  0  0  0
    4.9372   -4.5468   -1.5704 H   0  0  0  0  0  0  0  0  0  0  0  0
    6.5897   -3.5875   -2.7357 H   0  0  0  0  0  0  0  0  0  0  0  0
    4.9920   -1.8733   -0.2303 H   0  0  0  0  0  0  0  0  0  0  0  0
    4.1911   -5.9496    6.6656 H   0  0  0  0  0  0  0  0  0  0  0  0
    5.0402   -5.9731    5.2221 H   0  0  0  0  0  0  0  0  0  0  0  0
    3.4168   -5.3311    5.2327 H   0  0  0  0  0  0  0  0  0  0  0  0
    6.9746   -4.5279    6.2832 H   0  0  0  0  0  0  0  0  0  0  0  0
    6.6052   -3.0469    7.0908 H   0  0  0  0  0  0  0  0  0  0  0  0
    5.7726   -5.8459    8.1424 H   0  0  0  0  0  0  0  0  0  0  0  0
    7.1364   -4.9106    8.6350 H   0  0  0  0  0  0  0  0  0  0  0  0
    5.2874   -3.0732    8.9333 H   0  0  0  0  0  0  0  0  0  0  0  0
    7.0175   -3.6898   10.6438 H   0  0  0  0  0  0  0  0  0  0  0  0
    6.2413   -5.8254   11.4419 H   0  0  0  0  0  0  0  0  0  0  0  0
    5.5064   -4.7530   12.6432 H   0  0  0  0  0  0  0  0  0  0  0  0
    2.7926   -4.9911    7.8806 H   0  0  0  0  0  0  0  0  0  0  0  0
    2.0589   -5.6411    9.3087 H   0  0  0  0  0  0  0  0  0  0  0  0
    3.4880   -6.4019    8.6805 H   0  0  0  0  0  0  0  0  0  0  0  0
    2.2164   -3.4773   10.5513 H   0  0  0  0  0  0  0  0  0  0  0  0
    1.9292   -3.1260    8.2677 H   0  0  0  0  0  0  0  0  0  0  0  0
    2.2373   -0.7505    9.5288 H   0  0  0  0  0  0  0  0  0  0  0  0
    2.9143   -1.0861    7.1749 H   0  0  0  0  0  0  0  0  0  0  0  0
    4.9946   -0.6735    7.3309 H   0  0  0  0  0  0  0  0  0  0  0  0
    2.9131   -3.2042    6.0049 H   0  0  0  0  0  0  0  0  0  0  0  0
    2.7627   -0.4851   11.2671 H   0  0  0  0  0  0  0  0  0  0  0  0
    4.2116   -0.3888   10.2642 H   0  0  0  0  0  0  0  0  0  0  0  0
    4.3522   -0.3683   11.9825 H   0  0  0  0  0  0  0  0  0  0  0  0
    2.3292   -2.4300   12.7224 H   0  0  0  0  0  0  0  0  0  0  0  0
    3.9238   -2.1664   13.4047 H   0  0  0  0  0  0  0  0  0  0  0  0
    3.4355   -3.7590   12.8979 H   0  0  0  0  0  0  0  0  0  0  0  0
  1  2  1  0
  1 46  1  0
  1 47  1  0
  1 48  1  0
  2 10  1  0
  2  3  2  0
  3 14  1  0
  3  4  1  0
  4  5  1  0
  4 49  1  0
  4 50  1  0
  5 41  1  0
  5  6  1  1
  5  7  1  0
  6 51  1  0
  6 52  1  0
  6 53  1  0
  7  8  2  0
  7 25  1  0
  8  9  1  0
  8 10  1  0
  9 54  1  0
  9 55  1  0
  9 56  1  0
 10 24  1  6
 10 11  1  0
 11 12  1  0
 12 13  1  0
 12 57  1  0
 12 58  1  0
 13 14  1  0
 13 16  1  0
 13 59  1  6
 14 15  2  0
 16 18  1  0
 16 23  1  0
 16 17  1  1
 17 18  1  0
 18 19  1  0
 18 60  1  1
 19 20  1  0
 19 21  1  0
 19 61  1  6
 20 62  1  0
 21 22  1  0
 21 23  1  0
 21 63  1  1
 22 64  1  0
 23 24  1  0
 23 65  1  1
 25 41  1  0
 25 26  1  6
 25 27  1  0
 26 66  1  0
 26 67  1  0
 26 68  1  0
 27 28  1  0
 27 69  1  0
 27 70  1  0
 28 29  1  0
 28 71  1  0
 28 72  1  0
 29 34  1  0
 29 30  1  0
 29 73  1  6
 30 45  1  0
 30 31  1  0
 30 74  1  6
 31 32  1  0
 31 75  1  0
 31 76  1  0
 32 33  2  0
 32 34  1  0
 34 35  1  6
 34 36  1  0
 35 77  1  0
 35 78  1  0
 35 79  1  0
 36 37  1  0
 36 42  1  0
 36 80  1  1
 37 38  1  0
 37 39  1  0
 37 81  1  6
 38 82  1  0
 39 40  1  0
 39 41  1  0
 39 83  1  6
 40 84  1  0
 41 85  1  6
 42 43  1  0
 42 44  1  0
 42 45  1  0
 43 86  1  0
 43 87  1  0
 43 88  1  0
 44 89  1  0
 44 90  1  0
 44 91  1  0
M  END
>  <i_m_ct_stereo_status>  (191) 
1

>  <s_m_source_file>  (191) 
/var/tmp/pbs.5076255.sched01/tmp403565pz/80s7duc8s0.sdf

>  <i_m_source_file_index>  (191) 
27

>  <i_lp_mmshare_version>  (191) 
48012

>  <i_f3d_flags>  (191) 
1

>  <s_epik_input>  (191) 
TzFbQ0BIXTJbQ0BIXShbT0hdKVtDQEhdKFtPSF0pW0NAQEhdKE8zKVtDQF0yM1tDQEBIXShbQ0gyXU80KUMoPU8pQyg9QyhbQ0BdMTQ1KVtDSDNdKVtDSDJdW0NAXTYoW0NIM10pQyg9QzVbQ0gzXSlbQ0BdNyhbQ0gzXSlbQ0BIXTZbQ0BIXShbT0hdKVtDQEhdKFtPSF0pW0NASF04W0NAQF05KFtDSDNdKVtDQEhdKFtDSDJdW0NIMl03KVtDQEhdKFtDSDJdQzk9TylPQzgoW0NIM10pW0NIM10=

>  <s_epik_cmdline>  (191) 
J2VwaWtfcHl0aG9uJywgJy1waHQnLCAnMi4wJywgJy1waCcsICc3LjAnLCAnLXRuJywgJzgnLCAnLW1hJywgJzIwMCcsICctaW1hZScsICc8aW5maWxlLm1hZT4nLCAnLW9tYWUnLCAnPG91dGZpbGUubWFlPic=

>  <r_lp_tautomer_probability>  (191) 
1

>  <r_epik_Ionization_Penalty>  (191) 
4.66552e-06

>  <r_epik_Ionization_Penalty_Charging>  (191) 
0

>  <r_epik_Ionization_Penalty_Neutral>  (191) 
4.66552e-06

>  <r_epik_State_Penalty>  (191) 
-0

>  <r_epik_Charging_Adjusted_Penalty>  (191) 
0

>  <i_epik_Tot_Q>  (191) 
0

>  <i_epik_Tot_abs_Q>  (191) 
0

>  <s_lp_Force_Field>  (191) 
OPLS3e

>  <r_lp_Energy>  (191) 
181.769

>  <b_lp_Chiralities_Consistent>  (191) 
1

>  <s_lp_Variant>  (191) 
73:0-1

>  <s_i_glide_gridfile>  (191) 
pfpi4k_grid

>  <i_i_glide_lignum>  (191) 
27

>  <i_i_glide_rotatable_bonds>  (191) 
4

>  <r_i_docking_score>  (191) 
-1.93304

>  <r_i_glide_ligand_efficiency>  (191) 
-0.0429564

>  <r_i_glide_ligand_efficiency_sa>  (191) 
-0.152791

>  <r_i_glide_ligand_efficiency_ln>  (191) 
-0.402158

>  <r_i_glide_gscore>  (191) 
-1.93304

>  <r_i_glide_lipo>  (191) 
-0.336912

>  <r_i_glide_hbond>  (191) 
0

>  <r_i_glide_metal>  (191) 
-0

>  <r_i_glide_rewards>  (191) 
-0.038624

>  <r_i_glide_evdw>  (191) 
-19.5543

>  <r_i_glide_ecoul>  (191) 
-3.52927

>  <r_i_glide_erotb>  (191) 
0

>  <r_i_glide_esite>  (191) 
-0.0503967

>  <r_i_glide_emodel>  (191) 
-23.3163

>  <r_i_glide_energy>  (191) 
-23.0836

>  <r_i_glide_einternal>  (191) 
1.26382

>  <r_i_glide_intrahb_reward>  (191) 
-0

>  <i_i_glide_confnum>  (191) 
1

>  <i_i_glide_posenum>  (191) 
20

>  <r_i_glide_eff_state_penalty>  (191) 
0

>  <ligand_id>  (191) 
73

>  <original_smiles>  (191) 
CC1=C2CC3(C)C(=C(C)C14OCC(C2=O)C12OC1C(O)C(O)C2O4)C1(C)CCC2C4CC(=O)C2(C)C(C(O)C(O)C13)C(C)(C)O4

>  <smiles>  (191) 
[H]OC1([H])C([H])(O[H])C2([H])OC23C1([H])OC12OC([H])([H])C3([H])C(=O)C(=C1C([H])([H])[H])C([H])([H])C1(C([H])([H])[H])C(=C2C([H])([H])[H])C2(C([H])([H])[H])C([H])([H])C([H])([H])C3([H])C4([H])OC(C([H])([H])[H])(C([H])([H])[H])C([H])(C([H])(O[H])C([H])(O[H])C12[H])C3(C([H])([H])[H])C(=O)C4([H])[H]

$$$$
73:0:2
     RDKit          3D

 91 99  0  0  1  0  0  0  0  0999 V2000
    6.0478   -1.0473    1.9029 C   0  0  0  0  0  0  0  0  0  0  0  0
    4.8453   -1.9608    2.1098 C   0  0  0  0  0  0  0  0  0  0  0  0
    3.7358   -1.4604    2.6451 C   0  0  0  0  0  0  0  0  0  0  0  0
    3.3310   -2.0442    3.9937 C   0  0  0  0  0  0  0  0  0  0  0  0
    4.5049   -2.6144    4.8477 C   0  0  2  0  0  0  0  0  0  0  0  0
    5.4026   -1.4351    5.2459 C   0  0  0  0  0  0  0  0  0  0  0  0
    5.3797   -3.7621    4.2689 C   0  0  0  0  0  0  0  0  0  0  0  0
    5.7085   -4.0878    2.9672 C   0  0  0  0  0  0  0  0  0  0  0  0
    6.6720   -5.1912    2.5409 C   0  0  0  0  0  0  0  0  0  0  0  0
    4.9519   -3.4607    1.8019 C   0  0  1  0  0  0  0  0  0  0  0  0
    3.7974   -4.2407    1.9907 O   0  0  0  0  0  0  0  0  0  0  0  0
    2.5420   -3.9929    1.4226 C   0  0  0  0  0  0  0  0  0  0  0  0
    2.4959   -2.6835    0.6761 C   0  0  1  0  0  0  0  0  0  0  0  0
    2.6177   -1.5147    1.6866 C   0  0  0  0  0  0  0  0  0  0  0  0
    1.6846   -0.7215    1.7675 O   0  0  0  0  0  0  0  0  0  0  0  0
    3.3270   -2.8052   -0.5930 C   0  0  1  0  0  0  0  0  0  0  0  0
    2.7202   -3.8251   -1.4108 O   0  0  0  0  0  0  0  0  0  0  0  0
    2.9410   -2.5749   -2.0336 C   0  0  2  0  0  0  0  0  0  0  0  0
    4.1692   -2.5164   -2.8917 C   0  0  1  0  0  0  0  0  0  0  0  0
    4.4072   -1.1487   -3.1620 O   0  0  0  0  0  0  0  0  0  0  0  0
    5.2677   -3.1361   -1.9688 C   0  0  1  0  0  0  0  0  0  0  0  0
    6.5641   -2.6506   -2.2791 O   0  0  0  0  0  0  0  0  0  0  0  0
    4.8338   -2.8011   -0.5157 C   0  0  2  0  0  0  0  0  0  0  0  0
    5.4459   -3.6541    0.4920 O   0  0  0  0  0  0  0  0  0  0  0  0
    5.3255   -4.6581    5.5507 C   0  0  1  0  0  0  0  0  0  0  0  0
    4.9428   -6.0797    5.0732 C   0  0  0  0  0  0  0  0  0  0  0  0
    6.6630   -4.7351    6.3328 C   0  0  0  0  0  0  0  0  0  0  0  0
    6.6901   -5.6916    7.5866 C   0  0  0  0  0  0  0  0  0  0  0  0
    5.8089   -5.1917    8.7591 C   0  0  2  0  0  0  0  0  0  0  0  0
    6.4536   -5.0512   10.1550 C   0  0  2  0  0  0  0  0  0  0  0  0
    6.2227   -6.3823   10.8642 C   0  0  0  0  0  0  0  0  0  0  0  0
    4.9124   -6.8094   10.2475 C   0  0  0  0  0  0  0  0  0  0  0  0
    4.2796   -7.7818   10.6321 O   0  0  0  0  0  0  0  0  0  0  0  0
    4.4622   -5.8604    9.1269 C   0  0  2  0  0  0  0  0  0  0  0  0
    3.6909   -6.7186    8.1031 C   0  0  0  0  0  0  0  0  0  0  0  0
    3.6065   -4.6592    9.6339 C   0  0  2  0  0  0  0  0  0  0  0  0
    2.9812   -3.8096    8.4345 C   0  0  1  0  0  0  0  0  0  0  0  0
    1.9694   -2.9638    8.9467 O   0  0  0  0  0  0  0  0  0  0  0  0
    3.7981   -2.9989    7.3491 C   0  0  1  0  0  0  0  0  0  0  0  0
    4.8125   -2.1964    7.9083 O   0  0  0  0  0  0  0  0  0  0  0  0
    4.1682   -3.6440    5.9586 C   0  0  1  0  0  0  0  0  0  0  0  0
    4.3129   -3.9229   10.8656 C   0  0  0  0  0  0  0  0  0  0  0  0
    4.0177   -2.4137   11.0301 C   0  0  0  0  0  0  0  0  0  0  0  0
    3.8418   -4.5123   12.2258 C   0  0  0  0  0  0  0  0  0  0  0  0
    5.7609   -3.9644   10.8058 O   0  0  0  0  0  0  0  0  0  0  0  0
    6.4265   -0.9493    0.8882 H   0  0  0  0  0  0  0  0  0  0  0  0
    6.8766   -1.4105    2.4820 H   0  0  0  0  0  0  0  0  0  0  0  0
    5.8131   -0.0429    2.2642 H   0  0  0  0  0  0  0  0  0  0  0  0
    2.8582   -1.2227    4.5322 H   0  0  0  0  0  0  0  0  0  0  0  0
    2.5525   -2.7907    3.8923 H   0  0  0  0  0  0  0  0  0  0  0  0
    4.8547   -0.7146    5.8507 H   0  0  0  0  0  0  0  0  0  0  0  0
    5.7952   -0.8571    4.4174 H   0  0  0  0  0  0  0  0  0  0  0  0
    6.2581   -1.7554    5.8389 H   0  0  0  0  0  0  0  0  0  0  0  0
    7.3967   -4.8110    1.8189 H   0  0  0  0  0  0  0  0  0  0  0  0
    6.1382   -6.0260    2.0802 H   0  0  0  0  0  0  0  0  0  0  0  0
    7.2535   -5.5568    3.3869 H   0  0  0  0  0  0  0  0  0  0  0  0
    2.2543   -4.8279    0.7829 H   0  0  0  0  0  0  0  0  0  0  0  0
    1.8181   -3.9995    2.2354 H   0  0  0  0  0  0  0  0  0  0  0  0
    1.4983   -2.6450    0.2907 H   0  0  0  0  0  0  0  0  0  0  0  0
    2.0406   -2.0612   -2.3312 H   0  0  0  0  0  0  0  0  0  0  0  0
    4.0200   -3.0669   -3.8219 H   0  0  0  0  0  0  0  0  0  0  0  0
    3.5920   -0.7405   -3.4169 H   0  0  0  0  0  0  0  0  0  0  0  0
    5.2493   -4.2232   -2.0908 H   0  0  0  0  0  0  0  0  0  0  0  0
    6.8754   -3.0703   -3.0680 H   0  0  0  0  0  0  0  0  0  0  0  0
    5.0945   -1.7531   -0.4093 H   0  0  0  0  0  0  0  0  0  0  0  0
    4.8644   -6.8016    5.8684 H   0  0  0  0  0  0  0  0  0  0  0  0
    5.6806   -6.5363    4.4274 H   0  0  0  0  0  0  0  0  0  0  0  0
    3.9960   -6.0852    4.5401 H   0  0  0  0  0  0  0  0  0  0  0  0
    7.4700   -5.0446    5.6645 H   0  0  0  0  0  0  0  0  0  0  0  0
    6.9609   -3.7354    6.6647 H   0  0  0  0  0  0  0  0  0  0  0  0
    6.4602   -6.7277    7.3315 H   0  0  0  0  0  0  0  0  0  0  0  0
    7.7234   -5.7244    7.9394 H   0  0  0  0  0  0  0  0  0  0  0  0
    5.6919   -4.1699    8.5017 H   0  0  0  0  0  0  0  0  0  0  0  0
    7.5172   -4.8098   10.1030 H   0  0  0  0  0  0  0  0  0  0  0  0
    6.9918   -7.1067   10.6036 H   0  0  0  0  0  0  0  0  0  0  0  0
    6.1741   -6.2933   11.9485 H   0  0  0  0  0  0  0  0  0  0  0  0
    3.3982   -6.1764    7.2133 H   0  0  0  0  0  0  0  0  0  0  0  0
    2.7672   -7.0926    8.5422 H   0  0  0  0  0  0  0  0  0  0  0  0
    4.2576   -7.5998    7.8064 H   0  0  0  0  0  0  0  0  0  0  0  0
    2.7169   -5.1123   10.0707 H   0  0  0  0  0  0  0  0  0  0  0  0
    2.3526   -4.4809    7.8563 H   0  0  0  0  0  0  0  0  0  0  0  0
    1.6484   -2.4329    8.2325 H   0  0  0  0  0  0  0  0  0  0  0  0
    3.1023   -2.2136    7.0524 H   0  0  0  0  0  0  0  0  0  0  0  0
    5.4989   -2.7585    8.2384 H   0  0  0  0  0  0  0  0  0  0  0  0
    3.2780   -4.1514    5.6060 H   0  0  0  0  0  0  0  0  0  0  0  0
    2.9566   -2.2058   11.1750 H   0  0  0  0  0  0  0  0  0  0  0  0
    4.3592   -1.8135   10.1957 H   0  0  0  0  0  0  0  0  0  0  0  0
    4.5363   -2.0099   11.9030 H   0  0  0  0  0  0  0  0  0  0  0  0
    2.7691   -4.3659   12.3651 H   0  0  0  0  0  0  0  0  0  0  0  0
    4.3397   -4.0248   13.0657 H   0  0  0  0  0  0  0  0  0  0  0  0
    4.0139   -5.5763   12.3482 H   0  0  0  0  0  0  0  0  0  0  0  0
  1  2  1  0
  1 46  1  0
  1 47  1  0
  1 48  1  0
  2 10  1  0
  2  3  2  0
  3 14  1  0
  3  4  1  0
  4  5  1  0
  4 49  1  0
  4 50  1  0
  5 41  1  0
  5  6  1  1
  5  7  1  0
  6 51  1  0
  6 52  1  0
  6 53  1  0
  7  8  2  0
  7 25  1  0
  8  9  1  0
  8 10  1  0
  9 54  1  0
  9 55  1  0
  9 56  1  0
 10 24  1  6
 10 11  1  0
 11 12  1  0
 12 13  1  0
 12 57  1  0
 12 58  1  0
 13 14  1  0
 13 16  1  0
 13 59  1  6
 14 15  2  0
 16 18  1  0
 16 23  1  0
 16 17  1  6
 17 18  1  0
 18 19  1  0
 18 60  1  1
 19 20  1  0
 19 21  1  0
 19 61  1  6
 20 62  1  0
 21 22  1  0
 21 23  1  0
 21 63  1  1
 22 64  1  0
 23 24  1  0
 23 65  1  1
 25 41  1  0
 25 26  1  6
 25 27  1  0
 26 66  1  0
 26 67  1  0
 26 68  1  0
 27 28  1  0
 27 69  1  0
 27 70  1  0
 28 29  1  0
 28 71  1  0
 28 72  1  0
 29 34  1  0
 29 30  1  0
 29 73  1  6
 30 45  1  0
 30 31  1  0
 30 74  1  6
 31 32  1  0
 31 75  1  0
 31 76  1  0
 32 33  2  0
 32 34  1  0
 34 35  1  6
 34 36  1  0
 35 77  1  0
 35 78  1  0
 35 79  1  0
 36 37  1  0
 36 42  1  0
 36 80  1  1
 37 38  1  0
 37 39  1  0
 37 81  1  6
 38 82  1  0
 39 40  1  0
 39 41  1  0
 39 83  1  6
 40 84  1  0
 41 85  1  6
 42 43  1  0
 42 44  1  0
 42 45  1  0
 43 86  1  0
 43 87  1  0
 43 88  1  0
 44 89  1  0
 44 90  1  0
 44 91  1  0
M  END
>  <i_m_ct_stereo_status>  (192) 
1

>  <s_m_source_file>  (192) 
/var/tmp/pbs.5076255.sched01/tmp403565pz/80s7duc8s0.sdf

>  <i_m_source_file_index>  (192) 
27

>  <i_lp_mmshare_version>  (192) 
48012

>  <i_f3d_flags>  (192) 
1

>  <s_epik_input>  (192) 
TzFbQ0BIXTJbQ0BIXShbT0hdKVtDQEhdKFtPSF0pW0NAQEhdKE8zKVtDQF0yM1tDQEBIXShbQ0gyXU80KUMoPU8pQyg9QyhbQ0BdMTQ1KVtDSDNdKVtDSDJdW0NAXTYoW0NIM10pQyg9QzVbQ0gzXSlbQ0BdNyhbQ0gzXSlbQ0BIXTZbQ0BIXShbT0hdKVtDQEhdKFtPSF0pW0NASF04W0NAQF05KFtDSDNdKVtDQEhdKFtDSDJdW0NIMl03KVtDQEhdKFtDSDJdQzk9TylPQzgoW0NIM10pW0NIM10=

>  <s_epik_cmdline>  (192) 
J2VwaWtfcHl0aG9uJywgJy1waHQnLCAnMi4wJywgJy1waCcsICc3LjAnLCAnLXRuJywgJzgnLCAnLW1hJywgJzIwMCcsICctaW1hZScsICc8aW5maWxlLm1hZT4nLCAnLW9tYWUnLCAnPG91dGZpbGUubWFlPic=

>  <r_lp_tautomer_probability>  (192) 
1

>  <r_epik_Ionization_Penalty>  (192) 
4.66552e-06

>  <r_epik_Ionization_Penalty_Charging>  (192) 
0

>  <r_epik_Ionization_Penalty_Neutral>  (192) 
4.66552e-06

>  <r_epik_State_Penalty>  (192) 
-0

>  <r_epik_Charging_Adjusted_Penalty>  (192) 
0

>  <i_epik_Tot_Q>  (192) 
0

>  <i_epik_Tot_abs_Q>  (192) 
0

>  <s_lp_Force_Field>  (192) 
OPLS3e

>  <r_lp_Energy>  (192) 
181.769

>  <b_lp_Chiralities_Consistent>  (192) 
1

>  <s_lp_Variant>  (192) 
73:0-1

>  <s_i_glide_gridfile>  (192) 
pfpi4k_grid

>  <i_i_glide_lignum>  (192) 
27

>  <i_i_glide_rotatable_bonds>  (192) 
4

>  <r_i_docking_score>  (192) 
-1.83653

>  <r_i_glide_ligand_efficiency>  (192) 
-0.0408117

>  <r_i_glide_ligand_efficiency_sa>  (192) 
-0.145163

>  <r_i_glide_ligand_efficiency_ln>  (192) 
-0.38208

>  <r_i_glide_gscore>  (192) 
-1.83653

>  <r_i_glide_lipo>  (192) 
-0.514978

>  <r_i_glide_hbond>  (192) 
0

>  <r_i_glide_metal>  (192) 
-0

>  <r_i_glide_rewards>  (192) 
-0.0472604

>  <r_i_glide_evdw>  (192) 
-17.0637

>  <r_i_glide_ecoul>  (192) 
-2.49422

>  <r_i_glide_erotb>  (192) 
0

>  <r_i_glide_esite>  (192) 
-0.0469739

>  <r_i_glide_emodel>  (192) 
-19.6552

>  <r_i_glide_energy>  (192) 
-19.5579

>  <r_i_glide_einternal>  (192) 
1.4954

>  <r_i_glide_intrahb_reward>  (192) 
-0

>  <i_i_glide_confnum>  (192) 
1

>  <i_i_glide_posenum>  (192) 
8

>  <r_i_glide_eff_state_penalty>  (192) 
0

>  <ligand_id>  (192) 
73

>  <original_smiles>  (192) 
CC1=C2CC3(C)C(=C(C)C14OCC(C2=O)C12OC1C(O)C(O)C2O4)C1(C)CCC2C4CC(=O)C2(C)C(C(O)C(O)C13)C(C)(C)O4

>  <smiles>  (192) 
[H]OC1([H])C([H])(O[H])C2([H])OC23C1([H])OC12OC([H])([H])C3([H])C(=O)C(=C1C([H])([H])[H])C([H])([H])C1(C([H])([H])[H])C(=C2C([H])([H])[H])C2(C([H])([H])[H])C([H])([H])C([H])([H])C3([H])C4([H])OC(C([H])([H])[H])(C([H])([H])[H])C([H])(C([H])(O[H])C([H])(O[H])C12[H])C3(C([H])([H])[H])C(=O)C4([H])[H]

$$$$
74:1:0
     RDKit          3D

 58 62  0  0  1  0  0  0  0  0999 V2000
    1.6995    6.6511    5.8025 C   0  0  0  0  0  0  0  0  0  0  0  0
    1.0321    5.4168    6.0181 O   0  0  0  0  0  0  0  0  0  0  0  0
    1.1808    4.4646    4.9679 C   0  0  2  0  0  0  0  0  0  0  0  0
    0.1984    4.7885    3.8345 C   0  0  0  0  0  0  0  0  0  0  0  0
   -1.2184    4.2683    4.0232 C   0  0  2  0  0  0  0  0  0  0  0  0
   -1.7393    4.3633    5.3773 O   0  0  0  0  0  0  0  0  0  0  0  0
   -2.2804    3.0074    5.2657 C   0  0  0  0  0  0  0  0  0  0  0  0
   -1.5443    2.7884    3.9512 C   0  0  1  0  0  0  0  0  0  0  0  0
   -2.4160    2.5631    2.8662 O   0  0  0  0  0  0  0  0  0  0  0  0
   -0.3826    1.7399    3.8791 C   0  0  2  0  0  0  0  0  0  0  0  0
   -1.0218    0.3128    3.7175 C   0  0  0  0  0  0  0  0  0  0  0  0
   -0.1627   -0.9087    4.0769 C   0  0  0  0  0  0  0  0  0  0  0  0
    1.2653   -0.5529    4.4657 C   0  0  1  0  0  0  0  0  0  0  0  0
    2.1478    0.0499    3.3219 C   0  0  1  0  0  0  0  0  0  0  0  0
    3.4666   -0.7991    3.2560 C   0  0  0  0  0  0  0  0  0  0  0  0
    1.6540   -0.0867    1.8261 C   0  0  0  0  0  0  0  0  0  0  0  0
    0.7949    0.9152    1.2905 O   0  0  0  0  0  0  0  0  0  0  0  0
    2.2979    1.5190    3.9092 C   0  0  2  0  0  0  0  0  0  0  0  0
    2.6016    2.4818    2.9281 O   0  0  0  0  0  0  0  0  0  0  0  0
    3.4260    1.4680    4.9792 C   0  0  1  0  0  0  0  0  0  0  0  0
    3.9106    2.7225    5.3958 O   0  0  0  0  0  0  0  0  0  0  0  0
    2.7187    0.6964    6.1053 C   0  0  0  0  0  0  0  0  0  0  0  0
    1.2566    0.5403    5.5796 C   0  0  2  0  0  0  0  0  0  0  0  0
    0.2995    0.2787    6.7634 C   0  0  0  0  0  0  0  0  0  0  0  0
    0.9658    1.8108    4.7332 C   0  0  2  0  0  0  0  0  0  0  0  0
    0.9859    3.0926    5.6504 C   0  0  0  0  0  0  0  0  0  0  0  0
    1.5203    7.2951    6.6610 H   0  0  0  0  0  0  0  0  0  0  0  0
    1.3369    7.1767    4.9203 H   0  0  0  0  0  0  0  0  0  0  0  0
    2.7757    6.5069    5.7058 H   0  0  0  0  0  0  0  0  0  0  0  0
    2.1954    4.5343    4.5734 H   0  0  0  0  0  0  0  0  0  0  0  0
    0.1730    5.8599    3.6358 H   0  0  0  0  0  0  0  0  0  0  0  0
    0.5957    4.3713    2.9056 H   0  0  0  0  0  0  0  0  0  0  0  0
   -1.8897    4.7803    3.3375 H   0  0  0  0  0  0  0  0  0  0  0  0
   -1.9614    2.3505    6.0598 H   0  0  0  0  0  0  0  0  0  0  0  0
   -3.3635    3.0112    5.1497 H   0  0  0  0  0  0  0  0  0  0  0  0
   -2.7719    1.6764    2.9262 H   0  0  0  0  0  0  0  0  0  0  0  0
    0.0129    2.0870    2.9172 H   0  0  0  0  0  0  0  0  0  0  0  0
   -1.9298    0.2513    4.3267 H   0  0  0  0  0  0  0  0  0  0  0  0
   -1.3628    0.1949    2.7010 H   0  0  0  0  0  0  0  0  0  0  0  0
   -0.6340   -1.4363    4.9012 H   0  0  0  0  0  0  0  0  0  0  0  0
   -0.1376   -1.6505    3.2869 H   0  0  0  0  0  0  0  0  0  0  0  0
    1.7156   -1.4652    4.8618 H   0  0  0  0  0  0  0  0  0  0  0  0
    4.2479   -0.3013    2.6825 H   0  0  0  0  0  0  0  0  0  0  0  0
    3.2969   -1.7660    2.7786 H   0  0  0  0  0  0  0  0  0  0  0  0
    3.8917   -1.0507    4.2234 H   0  0  0  0  0  0  0  0  0  0  0  0
    2.5079   -0.0565    1.1638 H   0  0  0  0  0  0  0  0  0  0  0  0
    1.2144   -1.0620    1.6459 H   0  0  0  0  0  0  0  0  0  0  0  0
    0.3799    0.5839    0.4539 H   0  0  0  0  0  0  0  0  0  0  0  0
    1.8861    2.4674    2.2927 H   0  0  0  0  0  0  0  0  0  0  0  0
    4.3454    0.9837    4.6563 H   0  0  0  0  0  0  0  0  0  0  0  0
    4.1616    3.1904    4.5996 H   0  0  0  0  0  0  0  0  0  0  0  0
    3.1896   -0.2701    6.2853 H   0  0  0  0  0  0  0  0  0  0  0  0
    2.7791    1.2366    7.0518 H   0  0  0  0  0  0  0  0  0  0  0  0
    0.4262    1.0341    7.5414 H   0  0  0  0  0  0  0  0  0  0  0  0
    0.4941   -0.6941    7.2199 H   0  0  0  0  0  0  0  0  0  0  0  0
   -0.7479    0.3104    6.4655 H   0  0  0  0  0  0  0  0  0  0  0  0
    1.7398    3.0374    6.4209 H   0  0  0  0  0  0  0  0  0  0  0  0
    0.0931    3.1046    6.2623 H   0  0  0  0  0  0  0  0  0  0  0  0
  1  2  1  0
  1 27  1  0
  1 28  1  0
  1 29  1  0
  2  3  1  0
  3 26  1  0
  3  4  1  0
  3 30  1  6
  4  5  1  0
  4 31  1  0
  4 32  1  0
  5  8  1  0
  5  6  1  0
  5 33  1  6
  6  7  1  0
  7  8  1  0
  7 34  1  0
  7 35  1  0
  8  9  1  6
  8 10  1  0
  9 36  1  0
 10 25  1  0
 10 11  1  0
 10 37  1  6
 11 12  1  0
 11 38  1  0
 11 39  1  0
 12 13  1  0
 12 40  1  0
 12 41  1  0
 13 23  1  0
 13 14  1  0
 13 42  1  1
 14 15  1  6
 14 16  1  0
 14 18  1  0
 15 43  1  0
 15 44  1  0
 15 45  1  0
 16 17  1  0
 16 46  1  0
 16 47  1  0
 17 48  1  0
 18 25  1  0
 18 19  1  6
 18 20  1  0
 19 49  1  0
 20 21  1  0
 20 22  1  0
 20 50  1  6
 21 51  1  0
 22 23  1  0
 22 52  1  0
 22 53  1  0
 23 24  1  1
 23 25  1  0
 24 54  1  0
 24 55  1  0
 24 56  1  0
 25 26  1  1
 26 57  1  0
 26 58  1  0
M  END
>  <i_m_ct_stereo_status>  (193) 
1

>  <s_m_source_file>  (193) 
/var/tmp/pbs.5076255.sched01/tmp403565pz/80s7duc8s0.sdf

>  <i_m_source_file_index>  (193) 
29

>  <i_lp_mmshare_version>  (193) 
48012

>  <i_f3d_flags>  (193) 
0

>  <s_epik_input>  (193) 
W0NIM11PW0NIXShbQ0gyXTEpW0NIMl1bQ0BIXShPW0NIMl0yKVtDQEBdMihbT0hdKVtDQEBIXShbQ0BdMTM0KVtDSDJdW0NIMl1bQ0BASF01W0NAQF00KFtDSDNdKVtDSDJdW0NASF0oW09IXSlbQ0BAXTMoW09IXSlbQ0BdNShbQ0gzXSlbQ0gyXVtPSF0=

>  <s_epik_cmdline>  (193) 
J2VwaWtfcHl0aG9uJywgJy1waHQnLCAnMi4wJywgJy1waCcsICc3LjAnLCAnLXRuJywgJzgnLCAnLW1hJywgJzIwMCcsICctaW1hZScsICc8aW5maWxlLm1hZT4nLCAnLW9tYWUnLCAnPG91dGZpbGUubWFlPic=

>  <r_lp_tautomer_probability>  (193) 
1

>  <r_epik_Ionization_Penalty>  (193) 
1.91697e-06

>  <r_epik_Ionization_Penalty_Charging>  (193) 
0

>  <r_epik_Ionization_Penalty_Neutral>  (193) 
1.91697e-06

>  <r_epik_State_Penalty>  (193) 
-0

>  <r_epik_Charging_Adjusted_Penalty>  (193) 
0

>  <i_epik_Tot_Q>  (193) 
0

>  <i_epik_Tot_abs_Q>  (193) 
0

>  <s_lp_Force_Field>  (193) 
OPLS3e

>  <r_lp_Energy>  (193) 
91.5486

>  <b_lp_Chiralities_Consistent>  (193) 
1

>  <s_lp_Variant>  (193) 
74:0-2

>  <s_i_glide_gridfile>  (193) 
pfpi4k_grid

>  <i_i_glide_lignum>  (193) 
29

>  <i_i_glide_rotatable_bonds>  (193) 
6

>  <r_i_docking_score>  (193) 
-3.13065

>  <r_i_glide_ligand_efficiency>  (193) 
-0.12041

>  <r_i_glide_ligand_efficiency_sa>  (193) 
-0.356713

>  <r_i_glide_ligand_efficiency_ln>  (193) 
-0.735222

>  <r_i_glide_gscore>  (193) 
-3.13065

>  <r_i_glide_lipo>  (193) 
-0.00518483

>  <r_i_glide_hbond>  (193) 
0

>  <r_i_glide_metal>  (193) 
-0

>  <r_i_glide_rewards>  (193) 
-1.39683

>  <r_i_glide_evdw>  (193) 
-14.5267

>  <r_i_glide_ecoul>  (193) 
-7.6282

>  <r_i_glide_erotb>  (193) 
0.141936

>  <r_i_glide_esite>  (193) 
0

>  <r_i_glide_emodel>  (193) 
-28.8502

>  <r_i_glide_energy>  (193) 
-22.1549

>  <r_i_glide_einternal>  (193) 
5.61236

>  <r_i_glide_intrahb_reward>  (193) 
-0.5

>  <i_i_glide_confnum>  (193) 
2

>  <i_i_glide_posenum>  (193) 
27

>  <r_i_glide_eff_state_penalty>  (193) 
0

>  <ligand_id>  (193) 
74

>  <original_smiles>  (193) 
COC1CC2OCC2(O)C2CCC3C(C)(CO)C4(O)C(O)CC3(C)C24C1

>  <smiles>  (193) 
[H]OC([H])([H])C1(C([H])([H])[H])C2([H])C([H])([H])C([H])([H])C3([H])C4(O[H])C([H])([H])OC4([H])C([H])([H])C([H])(OC([H])([H])[H])C([H])([H])C34C1(O[H])C([H])(O[H])C([H])([H])C24C([H])([H])[H]

$$$$
74:1:1
     RDKit          3D

 58 62  0  0  1  0  0  0  0  0999 V2000
    1.7820    6.8181    5.8008 C   0  0  0  0  0  0  0  0  0  0  0  0
    1.1780    5.5531    6.0136 O   0  0  0  0  0  0  0  0  0  0  0  0
    1.3998    4.6076    4.9646 C   0  0  2  0  0  0  0  0  0  0  0  0
    0.4601    4.8994    3.7825 C   0  0  0  0  0  0  0  0  0  0  0  0
   -0.9422    4.3345    3.9242 C   0  0  2  0  0  0  0  0  0  0  0  0
   -1.5282    4.4186    5.2466 O   0  0  0  0  0  0  0  0  0  0  0  0
   -2.0116    3.0527    5.1187 C   0  0  0  0  0  0  0  0  0  0  0  0
   -1.2003    2.8372    3.8539 C   0  0  1  0  0  0  0  0  0  0  0  0
   -2.0049    2.5362    2.7513 O   0  0  0  0  0  0  0  0  0  0  0  0
   -0.0001    1.8349    3.8033 C   0  0  2  0  0  0  0  0  0  0  0  0
   -0.6055    0.3795    3.6446 C   0  0  0  0  0  0  0  0  0  0  0  0
    0.2826   -0.8172    4.0017 C   0  0  0  0  0  0  0  0  0  0  0  0
    1.6811   -0.4130    4.4529 C   0  0  1  0  0  0  0  0  0  0  0  0
    2.5905    0.2219    3.3527 C   0  0  1  0  0  0  0  0  0  0  0  0
    3.9382   -0.5722    3.3481 C   0  0  0  0  0  0  0  0  0  0  0  0
    2.1657    0.0481    1.8333 C   0  0  0  0  0  0  0  0  0  0  0  0
    1.2136    0.9058    1.2653 O   0  0  0  0  0  0  0  0  0  0  0  0
    2.6742    1.6975    3.9407 C   0  0  2  0  0  0  0  0  0  0  0  0
    2.9985    2.7049    3.0122 O   0  0  0  0  0  0  0  0  0  0  0  0
    3.7487    1.6822    5.0684 C   0  0  1  0  0  0  0  0  0  0  0  0
    4.1684    2.9523    5.5189 O   0  0  0  0  0  0  0  0  0  0  0  0
    3.0225    0.8865    6.1624 C   0  0  0  0  0  0  0  0  0  0  0  0
    1.5930    0.6783    5.5735 C   0  0  2  0  0  0  0  0  0  0  0  0
    0.5970    0.3838    6.7195 C   0  0  0  0  0  0  0  0  0  0  0  0
    1.2991    1.9466    4.7242 C   0  0  2  0  0  0  0  0  0  0  0  0
    1.2280    3.2232    5.6389 C   0  0  0  0  0  0  0  0  0  0  0  0
    1.5470    7.4518    6.6529 H   0  0  0  0  0  0  0  0  0  0  0  0
    1.4115    7.3260    4.9113 H   0  0  0  0  0  0  0  0  0  0  0  0
    2.8663    6.7317    5.7265 H   0  0  0  0  0  0  0  0  0  0  0  0
    2.4248    4.7165    4.6114 H   0  0  0  0  0  0  0  0  0  0  0  0
    0.4019    5.9651    3.5747 H   0  0  0  0  0  0  0  0  0  0  0  0
    0.9118    4.4799    2.8819 H   0  0  0  0  0  0  0  0  0  0  0  0
   -1.6082    4.8022    3.1925 H   0  0  0  0  0  0  0  0  0  0  0  0
   -1.7046    2.3860    5.9171 H   0  0  0  0  0  0  0  0  0  0  0  0
   -3.0887    3.0013    4.9350 H   0  0  0  0  0  0  0  0  0  0  0  0
   -1.4811    2.7632    1.9816 H   0  0  0  0  0  0  0  0  0  0  0  0
    0.4344    2.1896    2.8683 H   0  0  0  0  0  0  0  0  0  0  0  0
   -1.5361    0.2853    4.2027 H   0  0  0  0  0  0  0  0  0  0  0  0
   -0.9115    0.2420    2.6125 H   0  0  0  0  0  0  0  0  0  0  0  0
   -0.1913   -1.3649    4.8119 H   0  0  0  0  0  0  0  0  0  0  0  0
    0.3411   -1.5412    3.1934 H   0  0  0  0  0  0  0  0  0  0  0  0
    2.1541   -1.3045    4.8767 H   0  0  0  0  0  0  0  0  0  0  0  0
    4.7310   -0.0512    2.8079 H   0  0  0  0  0  0  0  0  0  0  0  0
    3.8257   -1.5446    2.8664 H   0  0  0  0  0  0  0  0  0  0  0  0
    4.3349   -0.8115    4.3341 H   0  0  0  0  0  0  0  0  0  0  0  0
    3.0637    0.1711    1.2278 H   0  0  0  0  0  0  0  0  0  0  0  0
    1.8540   -0.9858    1.6259 H   0  0  0  0  0  0  0  0  0  0  0  0
    0.8213    0.4483    0.4760 H   0  0  0  0  0  0  0  0  0  0  0  0
    3.8952    2.5434    2.6607 H   0  0  0  0  0  0  0  0  0  0  0  0
    4.6993    1.2343    4.7874 H   0  0  0  0  0  0  0  0  0  0  0  0
    4.3738    3.4693    4.7432 H   0  0  0  0  0  0  0  0  0  0  0  0
    3.5226   -0.0597    6.3662 H   0  0  0  0  0  0  0  0  0  0  0  0
    3.0271    1.4316    7.1079 H   0  0  0  0  0  0  0  0  0  0  0  0
    0.6657    1.1442    7.5010 H   0  0  0  0  0  0  0  0  0  0  0  0
    0.8091   -0.5819    7.1862 H   0  0  0  0  0  0  0  0  0  0  0  0
   -0.4379    0.3781    6.3793 H   0  0  0  0  0  0  0  0  0  0  0  0
    1.9497    3.1944    6.4409 H   0  0  0  0  0  0  0  0  0  0  0  0
    0.3063    3.2033    6.2140 H   0  0  0  0  0  0  0  0  0  0  0  0
  1  2  1  0
  1 27  1  0
  1 28  1  0
  1 29  1  0
  2  3  1  0
  3 26  1  0
  3  4  1  0
  3 30  1  6
  4  5  1  0
  4 31  1  0
  4 32  1  0
  5  8  1  0
  5  6  1  0
  5 33  1  6
  6  7  1  0
  7  8  1  0
  7 34  1  0
  7 35  1  0
  8  9  1  6
  8 10  1  0
  9 36  1  0
 10 25  1  0
 10 11  1  0
 10 37  1  6
 11 12  1  0
 11 38  1  0
 11 39  1  0
 12 13  1  0
 12 40  1  0
 12 41  1  0
 13 23  1  0
 13 14  1  0
 13 42  1  1
 14 15  1  6
 14 16  1  0
 14 18  1  0
 15 43  1  0
 15 44  1  0
 15 45  1  0
 16 17  1  0
 16 46  1  0
 16 47  1  0
 17 48  1  0
 18 25  1  0
 18 19  1  6
 18 20  1  0
 19 49  1  0
 20 21  1  0
 20 22  1  0
 20 50  1  6
 21 51  1  0
 22 23  1  0
 22 52  1  0
 22 53  1  0
 23 24  1  1
 23 25  1  0
 24 54  1  0
 24 55  1  0
 24 56  1  0
 25 26  1  1
 26 57  1  0
 26 58  1  0
M  END
>  <i_m_ct_stereo_status>  (194) 
1

>  <s_m_source_file>  (194) 
/var/tmp/pbs.5076255.sched01/tmp403565pz/80s7duc8s0.sdf

>  <i_m_source_file_index>  (194) 
29

>  <i_lp_mmshare_version>  (194) 
48012

>  <i_f3d_flags>  (194) 
0

>  <s_epik_input>  (194) 
W0NIM11PW0NIXShbQ0gyXTEpW0NIMl1bQ0BIXShPW0NIMl0yKVtDQEBdMihbT0hdKVtDQEBIXShbQ0BdMTM0KVtDSDJdW0NIMl1bQ0BASF01W0NAQF00KFtDSDNdKVtDSDJdW0NASF0oW09IXSlbQ0BAXTMoW09IXSlbQ0BdNShbQ0gzXSlbQ0gyXVtPSF0=

>  <s_epik_cmdline>  (194) 
J2VwaWtfcHl0aG9uJywgJy1waHQnLCAnMi4wJywgJy1waCcsICc3LjAnLCAnLXRuJywgJzgnLCAnLW1hJywgJzIwMCcsICctaW1hZScsICc8aW5maWxlLm1hZT4nLCAnLW9tYWUnLCAnPG91dGZpbGUubWFlPic=

>  <r_lp_tautomer_probability>  (194) 
1

>  <r_epik_Ionization_Penalty>  (194) 
1.91697e-06

>  <r_epik_Ionization_Penalty_Charging>  (194) 
0

>  <r_epik_Ionization_Penalty_Neutral>  (194) 
1.91697e-06

>  <r_epik_State_Penalty>  (194) 
-0

>  <r_epik_Charging_Adjusted_Penalty>  (194) 
0

>  <i_epik_Tot_Q>  (194) 
0

>  <i_epik_Tot_abs_Q>  (194) 
0

>  <s_lp_Force_Field>  (194) 
OPLS3e

>  <r_lp_Energy>  (194) 
91.5486

>  <b_lp_Chiralities_Consistent>  (194) 
1

>  <s_lp_Variant>  (194) 
74:0-2

>  <s_i_glide_gridfile>  (194) 
pfpi4k_grid

>  <i_i_glide_lignum>  (194) 
29

>  <i_i_glide_rotatable_bonds>  (194) 
6

>  <r_i_docking_score>  (194) 
-2.88257

>  <r_i_glide_ligand_efficiency>  (194) 
-0.110868

>  <r_i_glide_ligand_efficiency_sa>  (194) 
-0.328446

>  <r_i_glide_ligand_efficiency_ln>  (194) 
-0.676962

>  <r_i_glide_gscore>  (194) 
-2.88257

>  <r_i_glide_lipo>  (194) 
-0.0195164

>  <r_i_glide_hbond>  (194) 
0

>  <r_i_glide_metal>  (194) 
-0

>  <r_i_glide_rewards>  (194) 
-0.896833

>  <r_i_glide_evdw>  (194) 
-13.8547

>  <r_i_glide_ecoul>  (194) 
-9.43612

>  <r_i_glide_erotb>  (194) 
0.141936

>  <r_i_glide_esite>  (194) 
0

>  <r_i_glide_emodel>  (194) 
-24.0569

>  <r_i_glide_energy>  (194) 
-23.2909

>  <r_i_glide_einternal>  (194) 
6.16126

>  <r_i_glide_intrahb_reward>  (194) 
-0

>  <i_i_glide_confnum>  (194) 
2

>  <i_i_glide_posenum>  (194) 
19

>  <r_i_glide_eff_state_penalty>  (194) 
0

>  <ligand_id>  (194) 
74

>  <original_smiles>  (194) 
COC1CC2OCC2(O)C2CCC3C(C)(CO)C4(O)C(O)CC3(C)C24C1

>  <smiles>  (194) 
[H]OC([H])([H])C1(C([H])([H])[H])C2([H])C([H])([H])C([H])([H])C3([H])C4(O[H])C([H])([H])OC4([H])C([H])([H])C([H])(OC([H])([H])[H])C([H])([H])C34C1(O[H])C([H])(O[H])C([H])([H])C24C([H])([H])[H]

$$$$
74:1:2
     RDKit          3D

 58 62  0  0  1  0  0  0  0  0999 V2000
    0.1076    6.1783    3.7086 C   0  0  0  0  0  0  0  0  0  0  0  0
   -0.3712    5.1174    4.5144 O   0  0  0  0  0  0  0  0  0  0  0  0
    0.1566    3.8459    4.1596 C   0  0  2  0  0  0  0  0  0  0  0  0
   -0.9656    3.0409    3.4977 C   0  0  0  0  0  0  0  0  0  0  0  0
   -1.9182    2.3249    4.4550 C   0  0  2  0  0  0  0  0  0  0  0  0
   -2.3077    3.0587    5.6446 O   0  0  0  0  0  0  0  0  0  0  0  0
   -2.0708    1.8798    6.4525 C   0  0  0  0  0  0  0  0  0  0  0  0
   -1.4309    1.1376    5.2817 C   0  0  1  0  0  0  0  0  0  0  0  0
   -2.1425   -0.0475    4.9413 O   0  0  0  0  0  0  0  0  0  0  0  0
    0.0798    0.7160    5.3016 C   0  0  2  0  0  0  0  0  0  0  0  0
    0.2343   -0.5619    6.1926 C   0  0  0  0  0  0  0  0  0  0  0  0
    1.6114   -0.9083    6.7685 C   0  0  0  0  0  0  0  0  0  0  0  0
    2.6937    0.0755    6.3438 C   0  0  1  0  0  0  0  0  0  0  0  0
    3.0555    0.0604    4.8197 C   0  0  1  0  0  0  0  0  0  0  0  0
    4.6058   -0.1186    4.7044 C   0  0  0  0  0  0  0  0  0  0  0  0
    2.5785   -1.1709    3.9496 C   0  0  0  0  0  0  0  0  0  0  0  0
    1.3430   -1.1602    3.2988 O   0  0  0  0  0  0  0  0  0  0  0  0
    2.4864    1.4969    4.4363 C   0  0  2  0  0  0  0  0  0  0  0  0
    2.1794    1.5995    3.0536 O   0  0  0  0  0  0  0  0  0  0  0  0
    3.5621    2.5385    4.8521 C   0  0  1  0  0  0  0  0  0  0  0  0
    3.3874    3.8467    4.3350 O   0  0  0  0  0  0  0  0  0  0  0  0
    3.4594    2.4813    6.3866 C   0  0  0  0  0  0  0  0  0  0  0  0
    2.2364    1.5371    6.6241 C   0  0  2  0  0  0  0  0  0  0  0  0
    1.6596    1.7963    8.0353 C   0  0  0  0  0  0  0  0  0  0  0  0
    1.2742    1.7874    5.4253 C   0  0  2  0  0  0  0  0  0  0  0  0
    0.7329    3.2591    5.4639 C   0  0  0  0  0  0  0  0  0  0  0  0
   -0.3112    7.1059    4.0929 H   0  0  0  0  0  0  0  0  0  0  0  0
   -0.1937    6.0573    2.6667 H   0  0  0  0  0  0  0  0  0  0  0  0
    1.1922    6.2731    3.7606 H   0  0  0  0  0  0  0  0  0  0  0  0
    0.9472    3.9620    3.4155 H   0  0  0  0  0  0  0  0  0  0  0  0
   -1.5123    3.6888    2.8116 H   0  0  0  0  0  0  0  0  0  0  0  0
   -0.5060    2.2872    2.8544 H   0  0  0  0  0  0  0  0  0  0  0  0
   -2.8141    2.0277    3.9089 H   0  0  0  0  0  0  0  0  0  0  0  0
   -1.3903    2.0465    7.2817 H   0  0  0  0  0  0  0  0  0  0  0  0
   -3.0010    1.4388    6.8037 H   0  0  0  0  0  0  0  0  0  0  0  0
   -2.7709    0.1780    4.2681 H   0  0  0  0  0  0  0  0  0  0  0  0
    0.1884    0.4473    4.2825 H   0  0  0  0  0  0  0  0  0  0  0  0
   -0.4628   -0.5217    7.0318 H   0  0  0  0  0  0  0  0  0  0  0  0
   -0.0945   -1.4248    5.6145 H   0  0  0  0  0  0  0  0  0  0  0  0
    1.5504   -0.8946    7.8540 H   0  0  0  0  0  0  0  0  0  0  0  0
    1.8967   -1.9299    6.5368 H   0  0  0  0  0  0  0  0  0  0  0  0
    3.5775   -0.1474    6.9391 H   0  0  0  0  0  0  0  0  0  0  0  0
    4.9715    0.1235    3.7076 H   0  0  0  0  0  0  0  0  0  0  0  0
    4.8903   -1.1489    4.9054 H   0  0  0  0  0  0  0  0  0  0  0  0
    5.1793    0.4699    5.4122 H   0  0  0  0  0  0  0  0  0  0  0  0
    3.2742   -1.2726    3.1084 H   0  0  0  0  0  0  0  0  0  0  0  0
    2.6720   -2.1215    4.4849 H   0  0  0  0  0  0  0  0  0  0  0  0
    1.2313   -0.2940    2.8957 H   0  0  0  0  0  0  0  0  0  0  0  0
    2.0104    2.5006    2.8601 H   0  0  0  0  0  0  0  0  0  0  0  0
    4.5502    2.2977    4.5067 H   0  0  0  0  0  0  0  0  0  0  0  0
    2.5085    4.1239    4.4838 H   0  0  0  0  0  0  0  0  0  0  0  0
    4.3714    2.0835    6.8410 H   0  0  0  0  0  0  0  0  0  0  0  0
    3.3354    3.4777    6.8189 H   0  0  0  0  0  0  0  0  0  0  0  0
    1.4625    2.8589    8.1933 H   0  0  0  0  0  0  0  0  0  0  0  0
    2.3590    1.4813    8.8136 H   0  0  0  0  0  0  0  0  0  0  0  0
    0.7174    1.2756    8.2021 H   0  0  0  0  0  0  0  0  0  0  0  0
    1.4696    3.9734    5.8168 H   0  0  0  0  0  0  0  0  0  0  0  0
    0.0101    3.3605    6.2642 H   0  0  0  0  0  0  0  0  0  0  0  0
  1  2  1  0
  1 27  1  0
  1 28  1  0
  1 29  1  0
  2  3  1  0
  3 26  1  0
  3  4  1  0
  3 30  1  6
  4  5  1  0
  4 31  1  0
  4 32  1  0
  5  8  1  0
  5  6  1  0
  5 33  1  6
  6  7  1  0
  7  8  1  0
  7 34  1  0
  7 35  1  0
  8  9  1  6
  8 10  1  0
  9 36  1  0
 10 25  1  0
 10 11  1  0
 10 37  1  6
 11 12  1  0
 11 38  1  0
 11 39  1  0
 12 13  1  0
 12 40  1  0
 12 41  1  0
 13 23  1  0
 13 14  1  0
 13 42  1  1
 14 15  1  1
 14 16  1  0
 14 18  1  0
 15 43  1  0
 15 44  1  0
 15 45  1  0
 16 17  1  0
 16 46  1  0
 16 47  1  0
 17 48  1  0
 18 25  1  0
 18 19  1  6
 18 20  1  0
 19 49  1  0
 20 21  1  0
 20 22  1  0
 20 50  1  1
 21 51  1  0
 22 23  1  0
 22 52  1  0
 22 53  1  0
 23 24  1  1
 23 25  1  0
 24 54  1  0
 24 55  1  0
 24 56  1  0
 25 26  1  1
 26 57  1  0
 26 58  1  0
M  END
>  <i_m_ct_stereo_status>  (195) 
1

>  <s_m_source_file>  (195) 
/var/tmp/pbs.5076255.sched01/tmp403565pz/80s7duc8s0.sdf

>  <i_m_source_file_index>  (195) 
29

>  <i_lp_mmshare_version>  (195) 
48012

>  <i_f3d_flags>  (195) 
0

>  <s_epik_input>  (195) 
W0NIM11PW0NIXShbQ0gyXTEpW0NIMl1bQ0BIXShPW0NIMl0yKVtDQEBdMihbT0hdKVtDQEBIXShbQ0BdMTM0KVtDSDJdW0NIMl1bQ0BASF01W0NAQF00KFtDSDNdKVtDSDJdW0NASF0oW09IXSlbQ0BAXTMoW09IXSlbQ0BdNShbQ0gzXSlbQ0gyXVtPSF0=

>  <s_epik_cmdline>  (195) 
J2VwaWtfcHl0aG9uJywgJy1waHQnLCAnMi4wJywgJy1waCcsICc3LjAnLCAnLXRuJywgJzgnLCAnLW1hJywgJzIwMCcsICctaW1hZScsICc8aW5maWxlLm1hZT4nLCAnLW9tYWUnLCAnPG91dGZpbGUubWFlPic=

>  <r_lp_tautomer_probability>  (195) 
1

>  <r_epik_Ionization_Penalty>  (195) 
1.91697e-06

>  <r_epik_Ionization_Penalty_Charging>  (195) 
0

>  <r_epik_Ionization_Penalty_Neutral>  (195) 
1.91697e-06

>  <r_epik_State_Penalty>  (195) 
-0

>  <r_epik_Charging_Adjusted_Penalty>  (195) 
0

>  <i_epik_Tot_Q>  (195) 
0

>  <i_epik_Tot_abs_Q>  (195) 
0

>  <s_lp_Force_Field>  (195) 
OPLS3e

>  <r_lp_Energy>  (195) 
91.5486

>  <b_lp_Chiralities_Consistent>  (195) 
1

>  <s_lp_Variant>  (195) 
74:0-2

>  <s_i_glide_gridfile>  (195) 
pfpi4k_grid

>  <i_i_glide_lignum>  (195) 
29

>  <i_i_glide_rotatable_bonds>  (195) 
6

>  <r_i_docking_score>  (195) 
-2.72482

>  <r_i_glide_ligand_efficiency>  (195) 
-0.104801

>  <r_i_glide_ligand_efficiency_sa>  (195) 
-0.310471

>  <r_i_glide_ligand_efficiency_ln>  (195) 
-0.639914

>  <r_i_glide_gscore>  (195) 
-2.72482

>  <r_i_glide_lipo>  (195) 
-0.0373116

>  <r_i_glide_hbond>  (195) 
0

>  <r_i_glide_metal>  (195) 
-0

>  <r_i_glide_rewards>  (195) 
-1.39683

>  <r_i_glide_evdw>  (195) 
-16.202

>  <r_i_glide_ecoul>  (195) 
-4.15004

>  <r_i_glide_erotb>  (195) 
0.141936

>  <r_i_glide_esite>  (195) 
0

>  <r_i_glide_emodel>  (195) 
-26.2664

>  <r_i_glide_energy>  (195) 
-20.3521

>  <r_i_glide_einternal>  (195) 
5.95102

>  <r_i_glide_intrahb_reward>  (195) 
-0.5

>  <i_i_glide_confnum>  (195) 
2

>  <i_i_glide_posenum>  (195) 
4

>  <r_i_glide_eff_state_penalty>  (195) 
0

>  <ligand_id>  (195) 
74

>  <original_smiles>  (195) 
COC1CC2OCC2(O)C2CCC3C(C)(CO)C4(O)C(O)CC3(C)C24C1

>  <smiles>  (195) 
[H]OC([H])([H])C1(C([H])([H])[H])C2([H])C([H])([H])C([H])([H])C3([H])C4(O[H])C([H])([H])OC4([H])C([H])([H])C([H])(OC([H])([H])[H])C([H])([H])C34C1(O[H])C([H])(O[H])C([H])([H])C24C([H])([H])[H]

$$$$
75:0:0
     RDKit          3D

 32 37  0  0  1  0  0  0  0  0999 V2000
    3.2245   -3.6068    1.1510 C   0  0  0  0  0  0  0  0  0  0  0  0
    3.2900   -4.1556   -0.2866 C   0  0  2  0  0  0  0  0  0  0  0  0
    4.6152   -4.9164   -0.3212 C   0  0  0  0  0  0  0  0  0  0  0  0
    5.5518   -4.0768    0.5250 C   0  0  2  0  0  0  0  0  0  0  0  0
    4.6817   -3.4218    1.6233 C   0  0  1  0  0  0  0  0  0  0  0  0
    5.1979   -1.9824    1.7934 C   0  0  2  0  0  0  0  0  0  0  0  0
    4.5699   -0.7656    1.0773 C   0  0  0  0  0  0  0  0  0  0  0  0
    5.6331   -0.8640   -0.0169 C   0  0  2  0  0  0  0  0  0  0  0  0
    5.5588   -1.9031   -1.1338 C   0  0  2  0  0  0  0  0  0  0  0  0
    4.1818   -2.0511   -1.7611 C   0  0  1  0  0  0  0  0  0  0  0  0
    3.7927   -3.1267   -2.7242 C   0  0  0  0  0  0  0  0  0  0  0  0
    3.1419   -3.0660   -1.3463 C   0  0  1  0  0  0  0  0  0  0  0  0
    6.2672   -2.9385   -0.2035 C   0  0  1  0  0  0  0  0  0  0  0  0
    6.3795   -1.8477    0.8405 C   0  0  2  0  0  0  0  0  0  0  0  0
    2.7659   -4.3720    1.7794 H   0  0  0  0  0  0  0  0  0  0  0  0
    2.5884   -2.7279    1.2524 H   0  0  0  0  0  0  0  0  0  0  0  0
    2.4712   -4.8555   -0.4579 H   0  0  0  0  0  0  0  0  0  0  0  0
    4.4745   -5.8833    0.1658 H   0  0  0  0  0  0  0  0  0  0  0  0
    5.0128   -5.1396   -1.3087 H   0  0  0  0  0  0  0  0  0  0  0  0
    6.3000   -4.7249    0.9833 H   0  0  0  0  0  0  0  0  0  0  0  0
    4.8097   -3.9686    2.5612 H   0  0  0  0  0  0  0  0  0  0  0  0
    5.4772   -1.7168    2.8149 H   0  0  0  0  0  0  0  0  0  0  0  0
    3.5603   -0.8857    0.6864 H   0  0  0  0  0  0  0  0  0  0  0  0
    4.6529    0.1609    1.6471 H   0  0  0  0  0  0  0  0  0  0  0  0
    6.2252    0.0299   -0.2049 H   0  0  0  0  0  0  0  0  0  0  0  0
    6.2766   -1.6231   -1.9044 H   0  0  0  0  0  0  0  0  0  0  0  0
    3.7590   -1.0769   -1.9852 H   0  0  0  0  0  0  0  0  0  0  0  0
    3.1791   -2.8240   -3.5724 H   0  0  0  0  0  0  0  0  0  0  0  0
    4.5422   -3.8765   -2.9514 H   0  0  0  0  0  0  0  0  0  0  0  0
    2.1330   -2.6596   -1.3489 H   0  0  0  0  0  0  0  0  0  0  0  0
    7.2396   -3.2184   -0.6181 H   0  0  0  0  0  0  0  0  0  0  0  0
    7.3586   -1.5365    1.2087 H   0  0  0  0  0  0  0  0  0  0  0  0
  1  5  1  0
  1  2  1  0
  1 15  1  0
  1 16  1  0
  2 12  1  0
  2  3  1  0
  2 17  1  1
  3  4  1  0
  3 18  1  0
  3 19  1  0
  4 13  1  0
  4  5  1  0
  4 20  1  1
  5  6  1  0
  5 21  1  1
  6 14  1  0
  6  7  1  0
  6 22  1  1
  7  8  1  0
  7 23  1  0
  7 24  1  0
  8 14  1  0
  8  9  1  0
  8 25  1  6
  9 10  1  0
  9 13  1  0
  9 26  1  6
 10 12  1  0
 10 11  1  0
 10 27  1  6
 11 12  1  0
 11 28  1  0
 11 29  1  0
 12 30  1  6
 13 14  1  0
 13 31  1  6
 14 32  1  1
M  END
>  <i_m_ct_stereo_status>  (196) 
1

>  <s_m_source_file>  (196) 
/var/tmp/pbs.5076255.sched01/tmp403565pz/80s7duc8s0.sdf

>  <i_m_source_file_index>  (196) 
30

>  <i_lp_mmshare_version>  (196) 
48012

>  <i_f3d_flags>  (196) 
0

>  <s_epik_input>  (196) 
W0NIMl0xW0NAQEhdKFtDQEBIXTIzKVtDQEhdKFtDSDJdNClbQ0BIXShbQ0gyXTUpW0NAQEhdM1tDQEhdNVtDQEBIXTJbQ0BASF0oW0NIMl02KVtDQEBIXTZbQ0BASF0xNA==

>  <s_epik_cmdline>  (196) 
J2VwaWtfcHl0aG9uJywgJy1waHQnLCAnMi4wJywgJy1waCcsICc3LjAnLCAnLXRuJywgJzgnLCAnLW1hJywgJzIwMCcsICctaW1hZScsICc8aW5maWxlLm1hZT4nLCAnLW9tYWUnLCAnPG91dGZpbGUubWFlPic=

>  <r_lp_tautomer_probability>  (196) 
1

>  <r_epik_Ionization_Penalty>  (196) 
0

>  <r_epik_Ionization_Penalty_Charging>  (196) 
0

>  <r_epik_Ionization_Penalty_Neutral>  (196) 
0

>  <r_epik_State_Penalty>  (196) 
-0

>  <r_epik_Charging_Adjusted_Penalty>  (196) 
0

>  <i_epik_Tot_Q>  (196) 
0

>  <i_epik_Tot_abs_Q>  (196) 
0

>  <s_lp_Force_Field>  (196) 
OPLS3e

>  <r_lp_Energy>  (196) 
50.088

>  <b_lp_Chiralities_Consistent>  (196) 
1

>  <s_lp_Variant>  (196) 
75:0-1

>  <s_i_glide_gridfile>  (196) 
pfpi4k_grid

>  <i_i_glide_lignum>  (196) 
30

>  <i_i_glide_rotatable_bonds>  (196) 
0

>  <r_i_docking_score>  (196) 
-3.4488

>  <r_i_glide_ligand_efficiency>  (196) 
-0.246343

>  <r_i_glide_ligand_efficiency_sa>  (196) 
-0.593721

>  <r_i_glide_ligand_efficiency_ln>  (196) 
-0.947717

>  <r_i_glide_gscore>  (196) 
-3.4488

>  <r_i_glide_lipo>  (196) 
-0.398977

>  <r_i_glide_hbond>  (196) 
0

>  <r_i_glide_metal>  (196) 
-0

>  <r_i_glide_rewards>  (196) 
-2.13891

>  <r_i_glide_evdw>  (196) 
-18.3375

>  <r_i_glide_ecoul>  (196) 
0.0397984

>  <r_i_glide_erotb>  (196) 
0

>  <r_i_glide_esite>  (196) 
0

>  <r_i_glide_emodel>  (196) 
-22.0175

>  <r_i_glide_energy>  (196) 
-18.2977

>  <r_i_glide_einternal>  (196) 
0

>  <r_i_glide_intrahb_reward>  (196) 
-0

>  <i_i_glide_confnum>  (196) 
2

>  <i_i_glide_posenum>  (196) 
38

>  <r_i_glide_eff_state_penalty>  (196) 
0

>  <ligand_id>  (196) 
75

>  <original_smiles>  (196) 
C1C2CC3C1C1CC4C(C5CC25)C3C14

>  <smiles>  (196) 
[H]C1([H])C2([H])C([H])([H])C3([H])C1([H])C1([H])C([H])([H])C4([H])C([H])(C5([H])C([H])([H])C25[H])C3([H])C14[H]

$$$$
75:0:1
     RDKit          3D

 32 37  0  0  1  0  0  0  0  0999 V2000
    3.5517   -1.9772    1.0322 C   0  0  0  0  0  0  0  0  0  0  0  0
    4.7670   -2.8101    1.4797 C   0  0  2  0  0  0  0  0  0  0  0  0
    5.9668   -1.9600    1.0811 C   0  0  0  0  0  0  0  0  0  0  0  0
    5.5491   -1.3169   -0.2261 C   0  0  2  0  0  0  0  0  0  0  0  0
    4.0255   -1.1145   -0.1485 C   0  0  1  0  0  0  0  0  0  0  0  0
    3.4596   -1.4618   -1.5488 C   0  0  2  0  0  0  0  0  0  0  0  0
    2.8910   -2.8448   -1.9320 C   0  0  0  0  0  0  0  0  0  0  0  0
    4.2351   -3.2413   -2.5170 C   0  0  2  0  0  0  0  0  0  0  0  0
    5.4239   -3.6275   -1.6494 C   0  0  2  0  0  0  0  0  0  0  0  0
    5.1060   -4.6048   -0.5250 C   0  0  1  0  0  0  0  0  0  0  0  0
    6.0290   -5.0009    0.5793 C   0  0  0  0  0  0  0  0  0  0  0  0
    4.7570   -4.2121    0.8889 C   0  0  1  0  0  0  0  0  0  0  0  0
    5.8103   -2.1345   -1.4934 C   0  0  1  0  0  0  0  0  0  0  0  0
    4.6563   -1.7981   -2.4103 C   0  0  2  0  0  0  0  0  0  0  0  0
    3.2997   -1.3029    1.8432 H   0  0  0  0  0  0  0  0  0  0  0  0
    2.6460   -2.5650    0.8502 H   0  0  0  0  0  0  0  0  0  0  0  0
    4.7544   -2.9441    2.5686 H   0  0  0  0  0  0  0  0  0  0  0  0
    6.0915   -1.1713    1.8177 H   0  0  0  0  0  0  0  0  0  0  0  0
    6.9292   -2.4662    1.0236 H   0  0  0  0  0  0  0  0  0  0  0  0
    6.0308   -0.3453   -0.3197 H   0  0  0  0  0  0  0  0  0  0  0  0
    3.8122   -0.0678    0.0898 H   0  0  0  0  0  0  0  0  0  0  0  0
    2.8569   -0.6920   -2.0226 H   0  0  0  0  0  0  0  0  0  0  0  0
    2.6120   -3.4960   -1.1128 H   0  0  0  0  0  0  0  0  0  0  0  0
    2.0973   -2.7936   -2.6939 H   0  0  0  0  0  0  0  0  0  0  0  0
    4.2520   -3.5679   -3.5575 H   0  0  0  0  0  0  0  0  0  0  0  0
    6.1483   -4.0387   -2.3393 H   0  0  0  0  0  0  0  0  0  0  0  0
    4.5002   -5.4206   -0.8956 H   0  0  0  0  0  0  0  0  0  0  0  0
    6.0199   -6.0599    0.8243 H   0  0  0  0  0  0  0  0  0  0  0  0
    6.9933   -4.5186    0.5620 H   0  0  0  0  0  0  0  0  0  0  0  0
    3.9551   -4.8078    1.2981 H   0  0  0  0  0  0  0  0  0  0  0  0
    6.7699   -1.9677   -1.9780 H   0  0  0  0  0  0  0  0  0  0  0  0
    4.8211   -1.2697   -3.3488 H   0  0  0  0  0  0  0  0  0  0  0  0
  1  5  1  0
  1  2  1  0
  1 15  1  0
  1 16  1  0
  2 12  1  0
  2  3  1  0
  2 17  1  1
  3  4  1  0
  3 18  1  0
  3 19  1  0
  4 13  1  0
  4  5  1  0
  4 20  1  6
  5  6  1  0
  5 21  1  1
  6 14  1  0
  6  7  1  0
  6 22  1  6
  7  8  1  0
  7 23  1  0
  7 24  1  0
  8 14  1  0
  8  9  1  0
  8 25  1  6
  9 10  1  0
  9 13  1  0
  9 26  1  6
 10 12  1  0
 10 11  1  0
 10 27  1  6
 11 12  1  0
 11 28  1  0
 11 29  1  0
 12 30  1  1
 13 14  1  0
 13 31  1  6
 14 32  1  6
M  END
>  <i_m_ct_stereo_status>  (197) 
1

>  <s_m_source_file>  (197) 
/var/tmp/pbs.5076255.sched01/tmp403565pz/80s7duc8s0.sdf

>  <i_m_source_file_index>  (197) 
30

>  <i_lp_mmshare_version>  (197) 
48012

>  <i_f3d_flags>  (197) 
0

>  <s_epik_input>  (197) 
W0NIMl0xW0NAQEhdKFtDQEBIXTIzKVtDQEhdKFtDSDJdNClbQ0BIXShbQ0gyXTUpW0NAQEhdM1tDQEhdNVtDQEBIXTJbQ0BASF0oW0NIMl02KVtDQEBIXTZbQ0BASF0xNA==

>  <s_epik_cmdline>  (197) 
J2VwaWtfcHl0aG9uJywgJy1waHQnLCAnMi4wJywgJy1waCcsICc3LjAnLCAnLXRuJywgJzgnLCAnLW1hJywgJzIwMCcsICctaW1hZScsICc8aW5maWxlLm1hZT4nLCAnLW9tYWUnLCAnPG91dGZpbGUubWFlPic=

>  <r_lp_tautomer_probability>  (197) 
1

>  <r_epik_Ionization_Penalty>  (197) 
0

>  <r_epik_Ionization_Penalty_Charging>  (197) 
0

>  <r_epik_Ionization_Penalty_Neutral>  (197) 
0

>  <r_epik_State_Penalty>  (197) 
-0

>  <r_epik_Charging_Adjusted_Penalty>  (197) 
0

>  <i_epik_Tot_Q>  (197) 
0

>  <i_epik_Tot_abs_Q>  (197) 
0

>  <s_lp_Force_Field>  (197) 
OPLS3e

>  <r_lp_Energy>  (197) 
50.088

>  <b_lp_Chiralities_Consistent>  (197) 
1

>  <s_lp_Variant>  (197) 
75:0-1

>  <s_i_glide_gridfile>  (197) 
pfpi4k_grid

>  <i_i_glide_lignum>  (197) 
30

>  <i_i_glide_rotatable_bonds>  (197) 
0

>  <r_i_docking_score>  (197) 
-3.42548

>  <r_i_glide_ligand_efficiency>  (197) 
-0.244677

>  <r_i_glide_ligand_efficiency_sa>  (197) 
-0.589706

>  <r_i_glide_ligand_efficiency_ln>  (197) 
-0.941309

>  <r_i_glide_gscore>  (197) 
-3.42548

>  <r_i_glide_lipo>  (197) 
-0.399549

>  <r_i_glide_hbond>  (197) 
0

>  <r_i_glide_metal>  (197) 
-0

>  <r_i_glide_rewards>  (197) 
-2.13891

>  <r_i_glide_evdw>  (197) 
-18.6387

>  <r_i_glide_ecoul>  (197) 
0.29948

>  <r_i_glide_erotb>  (197) 
0

>  <r_i_glide_esite>  (197) 
0

>  <r_i_glide_emodel>  (197) 
-21.9927

>  <r_i_glide_energy>  (197) 
-18.3392

>  <r_i_glide_einternal>  (197) 
0

>  <r_i_glide_intrahb_reward>  (197) 
-0

>  <i_i_glide_confnum>  (197) 
1

>  <i_i_glide_posenum>  (197) 
2

>  <r_i_glide_eff_state_penalty>  (197) 
0

>  <ligand_id>  (197) 
75

>  <original_smiles>  (197) 
C1C2CC3C1C1CC4C(C5CC25)C3C14

>  <smiles>  (197) 
[H]C1([H])C2([H])C([H])([H])C3([H])C1([H])C1([H])C([H])([H])C4([H])C([H])(C5([H])C([H])([H])C25[H])C3([H])C14[H]

$$$$
75:0:2
     RDKit          3D

 32 37  0  0  1  0  0  0  0  0999 V2000
    3.4904   -1.2750    0.8348 C   0  0  0  0  0  0  0  0  0  0  0  0
    4.1165   -2.1146    1.9601 C   0  0  2  0  0  0  0  0  0  0  0  0
    5.5867   -1.7078    1.9368 C   0  0  0  0  0  0  0  0  0  0  0  0
    5.9026   -1.5040    0.4655 C   0  0  2  0  0  0  0  0  0  0  0  0
    4.5993   -1.0010   -0.1950 C   0  0  1  0  0  0  0  0  0  0  0  0
    4.4983   -1.6976   -1.5638 C   0  0  2  0  0  0  0  0  0  0  0  0
    3.6830   -2.9892   -1.8048 C   0  0  0  0  0  0  0  0  0  0  0  0
    4.9511   -3.8276   -1.6238 C   0  0  2  0  0  0  0  0  0  0  0  0
    5.5512   -4.1140   -0.2500 C   0  0  2  0  0  0  0  0  0  0  0  0
    4.5401   -4.5374    0.8028 C   0  0  1  0  0  0  0  0  0  0  0  0
    4.8292   -4.6844    2.2626 C   0  0  0  0  0  0  0  0  0  0  0  0
    3.8627   -3.6075    1.7837 C   0  0  1  0  0  0  0  0  0  0  0  0
    6.3188   -2.7550   -0.3073 C   0  0  1  0  0  0  0  0  0  0  0  0
    5.7534   -2.5525   -1.6967 C   0  0  2  0  0  0  0  0  0  0  0  0
    3.1860   -0.3168    1.2595 H   0  0  0  0  0  0  0  0  0  0  0  0
    2.5878   -1.7145    0.4258 H   0  0  0  0  0  0  0  0  0  0  0  0
    3.6783   -1.8449    2.9213 H   0  0  0  0  0  0  0  0  0  0  0  0
    5.6893   -0.7473    2.4437 H   0  0  0  0  0  0  0  0  0  0  0  0
    6.2719   -2.3822    2.4383 H   0  0  0  0  0  0  0  0  0  0  0  0
    6.6835   -0.7514    0.3692 H   0  0  0  0  0  0  0  0  0  0  0  0
    4.6486    0.0806   -0.3351 H   0  0  0  0  0  0  0  0  0  0  0  0
    4.3792   -1.0230   -2.4169 H   0  0  0  0  0  0  0  0  0  0  0  0
    2.9210   -3.2354   -1.0662 H   0  0  0  0  0  0  0  0  0  0  0  0
    3.2766   -3.0726   -2.8174 H   0  0  0  0  0  0  0  0  0  0  0  0
    5.2024   -4.5197   -2.4317 H   0  0  0  0  0  0  0  0  0  0  0  0
    6.2940   -4.9035   -0.3702 H   0  0  0  0  0  0  0  0  0  0  0  0
    3.8777   -5.2958    0.3998 H   0  0  0  0  0  0  0  0  0  0  0  0
    4.3982   -5.5638    2.7462 H   0  0  0  0  0  0  0  0  0  0  0  0
    5.8373   -4.4418    2.5759 H   0  0  0  0  0  0  0  0  0  0  0  0
    2.8085   -3.8444    1.9273 H   0  0  0  0  0  0  0  0  0  0  0  0
    7.4000   -2.9364   -0.3304 H   0  0  0  0  0  0  0  0  0  0  0  0
    6.4157   -2.4417   -2.5557 H   0  0  0  0  0  0  0  0  0  0  0  0
  1  5  1  0
  1  2  1  0
  1 15  1  0
  1 16  1  0
  2 12  1  0
  2  3  1  0
  2 17  1  1
  3  4  1  0
  3 18  1  0
  3 19  1  0
  4 13  1  0
  4  5  1  0
  4 20  1  1
  5  6  1  0
  5 21  1  6
  6 14  1  0
  6  7  1  0
  6 22  1  6
  7  8  1  0
  7 23  1  0
  7 24  1  0
  8 14  1  0
  8  9  1  0
  8 25  1  6
  9 10  1  0
  9 13  1  0
  9 26  1  6
 10 12  1  0
 10 11  1  0
 10 27  1  6
 11 12  1  0
 11 28  1  0
 11 29  1  0
 12 30  1  1
 13 14  1  0
 13 31  1  6
 14 32  1  6
M  END
>  <i_m_ct_stereo_status>  (198) 
1

>  <s_m_source_file>  (198) 
/var/tmp/pbs.5076255.sched01/tmp403565pz/80s7duc8s0.sdf

>  <i_m_source_file_index>  (198) 
30

>  <i_lp_mmshare_version>  (198) 
48012

>  <i_f3d_flags>  (198) 
0

>  <s_epik_input>  (198) 
W0NIMl0xW0NAQEhdKFtDQEBIXTIzKVtDQEhdKFtDSDJdNClbQ0BIXShbQ0gyXTUpW0NAQEhdM1tDQEhdNVtDQEBIXTJbQ0BASF0oW0NIMl02KVtDQEBIXTZbQ0BASF0xNA==

>  <s_epik_cmdline>  (198) 
J2VwaWtfcHl0aG9uJywgJy1waHQnLCAnMi4wJywgJy1waCcsICc3LjAnLCAnLXRuJywgJzgnLCAnLW1hJywgJzIwMCcsICctaW1hZScsICc8aW5maWxlLm1hZT4nLCAnLW9tYWUnLCAnPG91dGZpbGUubWFlPic=

>  <r_lp_tautomer_probability>  (198) 
1

>  <r_epik_Ionization_Penalty>  (198) 
0

>  <r_epik_Ionization_Penalty_Charging>  (198) 
0

>  <r_epik_Ionization_Penalty_Neutral>  (198) 
0

>  <r_epik_State_Penalty>  (198) 
-0

>  <r_epik_Charging_Adjusted_Penalty>  (198) 
0

>  <i_epik_Tot_Q>  (198) 
0

>  <i_epik_Tot_abs_Q>  (198) 
0

>  <s_lp_Force_Field>  (198) 
OPLS3e

>  <r_lp_Energy>  (198) 
50.088

>  <b_lp_Chiralities_Consistent>  (198) 
1

>  <s_lp_Variant>  (198) 
75:0-1

>  <s_i_glide_gridfile>  (198) 
pfpi4k_grid

>  <i_i_glide_lignum>  (198) 
30

>  <i_i_glide_rotatable_bonds>  (198) 
0

>  <r_i_docking_score>  (198) 
-3.41767

>  <r_i_glide_ligand_efficiency>  (198) 
-0.244119

>  <r_i_glide_ligand_efficiency_sa>  (198) 
-0.588361

>  <r_i_glide_ligand_efficiency_ln>  (198) 
-0.939162

>  <r_i_glide_gscore>  (198) 
-3.41767

>  <r_i_glide_lipo>  (198) 
-0.332221

>  <r_i_glide_hbond>  (198) 
0

>  <r_i_glide_metal>  (198) 
-0

>  <r_i_glide_rewards>  (198) 
-2.13891

>  <r_i_glide_evdw>  (198) 
-17.7419

>  <r_i_glide_ecoul>  (198) 
-0.396238

>  <r_i_glide_erotb>  (198) 
0

>  <r_i_glide_esite>  (198) 
0

>  <r_i_glide_emodel>  (198) 
-21.822

>  <r_i_glide_energy>  (198) 
-18.1381

>  <r_i_glide_einternal>  (198) 
0

>  <r_i_glide_intrahb_reward>  (198) 
-0

>  <i_i_glide_confnum>  (198) 
2

>  <i_i_glide_posenum>  (198) 
7

>  <r_i_glide_eff_state_penalty>  (198) 
0

>  <ligand_id>  (198) 
75

>  <original_smiles>  (198) 
C1C2CC3C1C1CC4C(C5CC25)C3C14

>  <smiles>  (198) 
[H]C1([H])C2([H])C([H])([H])C3([H])C1([H])C1([H])C([H])([H])C4([H])C([H])(C5([H])C([H])([H])C25[H])C3([H])C14[H]

$$$$
76:0:0
     RDKit          3D

 36 38  0  0  1  0  0  0  0  0999 V2000
   -8.8194  -11.3533  -10.4638 C   0  0  0  0  0  0  0  0  0  0  0  0
   -8.3345  -10.3169   -9.5075 N   0  0  1  0  0  0  0  0  0  0  0  0
   -8.3163   -8.9544  -10.0946 C   0  0  0  0  0  0  0  0  0  0  0  0
   -7.6268   -7.9623   -9.1416 C   0  0  0  0  0  0  0  0  0  0  0  0
   -8.3635   -7.9265   -7.7727 C   0  0  2  0  0  0  0  0  0  0  0  0
   -8.4432   -9.3985   -7.2310 C   0  0  0  0  0  0  0  0  0  0  0  0
   -9.0879  -10.3533   -8.2331 C   0  0  0  0  0  0  0  0  0  0  0  0
   -9.7075   -7.5004   -7.9915 O   0  0  0  0  0  0  0  0  0  0  0  0
   -9.9294   -6.1100   -8.2443 C   0  0  0  0  0  0  0  0  0  0  0  0
   -9.4831   -5.2909   -7.0275 C   0  0  0  0  0  0  0  0  0  0  0  0
   -8.1477   -5.7552   -6.4523 C   0  0  0  0  0  0  0  0  0  0  0  0
   -7.4415   -4.9213   -5.5531 C   0  0  0  0  0  0  0  0  0  0  0  0
   -6.2286   -5.3505   -4.9825 C   0  0  0  0  0  0  0  0  0  0  0  0
   -5.7093   -6.6273   -5.3054 C   0  0  0  0  0  0  0  0  0  0  0  0
   -6.3923   -7.4438   -6.2176 C   0  0  0  0  0  0  0  0  0  0  0  0
   -7.6212   -7.0278   -6.7954 C   0  0  0  0  0  0  0  0  0  0  0  0
   -9.8530  -11.1532  -10.7478 H   0  0  0  0  0  0  0  0  0  0  0  0
   -8.7808  -12.3563  -10.0208 H   0  0  0  0  0  0  0  0  0  0  0  0
   -8.2124  -11.3734  -11.3723 H   0  0  0  0  0  0  0  0  0  0  0  0
   -7.7858   -8.9547  -11.0483 H   0  0  0  0  0  0  0  0  0  0  0  0
   -9.3280   -8.6343  -10.3087 H   0  0  0  0  0  0  0  0  0  0  0  0
   -6.5874   -8.2559   -9.0022 H   0  0  0  0  0  0  0  0  0  0  0  0
   -7.5750   -6.9825   -9.6188 H   0  0  0  0  0  0  0  0  0  0  0  0
   -7.4575   -9.8146   -7.0092 H   0  0  0  0  0  0  0  0  0  0  0  0
   -8.9806   -9.4712   -6.2757 H   0  0  0  0  0  0  0  0  0  0  0  0
  -10.1426  -10.1101   -8.3777 H   0  0  0  0  0  0  0  0  0  0  0  0
   -9.0567  -11.3662   -7.7986 H   0  0  0  0  0  0  0  0  0  0  0  0
   -9.3957   -5.7753   -9.1337 H   0  0  0  0  0  0  0  0  0  0  0  0
  -10.9905   -5.9393   -8.4504 H   0  0  0  0  0  0  0  0  0  0  0  0
   -9.4177   -4.2358   -7.3062 H   0  0  0  0  0  0  0  0  0  0  0  0
  -10.2410   -5.3575   -6.2447 H   0  0  0  0  0  0  0  0  0  0  0  0
   -7.8324   -3.9440   -5.2960 H   0  0  0  0  0  0  0  0  0  0  0  0
   -5.6845   -4.7119   -4.3023 H   0  0  0  0  0  0  0  0  0  0  0  0
   -4.7821   -6.9764   -4.8769 H   0  0  0  0  0  0  0  0  0  0  0  0
   -5.9354   -8.3897   -6.4604 H   0  0  0  0  0  0  0  0  0  0  0  0
   -7.3826  -10.5524   -9.2857 H   0  0  0  0  0  0  0  0  0  0  0  0
  1  2  1  0
  1 17  1  0
  1 18  1  0
  1 19  1  0
  2  7  1  0
  2  3  1  0
  2 36  1  1
  3  4  1  0
  3 20  1  0
  3 21  1  0
  4  5  1  0
  4 22  1  0
  4 23  1  0
  5 16  1  0
  5  6  1  0
  5  8  1  6
  6  7  1  0
  6 24  1  0
  6 25  1  0
  7 26  1  0
  7 27  1  0
  8  9  1  0
  9 10  1  0
  9 28  1  0
  9 29  1  0
 10 11  1  0
 10 30  1  0
 10 31  1  0
 11 16  2  0
 11 12  1  0
 12 13  2  0
 12 32  1  0
 13 14  1  0
 13 33  1  0
 14 15  2  0
 14 34  1  0
 15 16  1  0
 15 35  1  0
M  CHG  1   2   1
M  END
>  <i_m_ct_stereo_status>  (199) 
1

>  <s_m_source_file>  (199) 
/var/tmp/pbs.5076255.sched01/tmp403565pz/80s7duc8s0.sdf

>  <i_m_source_file_index>  (199) 
31

>  <i_lp_mmshare_version>  (199) 
48012

>  <i_f3d_flags>  (199) 
0

>  <s_epik_input>  (199) 
W0NIMl0xW0NIMl1OKFtDSDNdKVtDSDJdW0NIMl1DMTJjM2MoW0NIMl1bQ0gyXU8yKVtjSF1bY0hdW2NIXVtjSF0z

>  <s_epik_cmdline>  (199) 
J2VwaWtfcHl0aG9uJywgJy1waHQnLCAnMi4wJywgJy1waCcsICc3LjAnLCAnLXRuJywgJzgnLCAnLW1hJywgJzIwMCcsICctaW1hZScsICc8aW5maWxlLm1hZT4nLCAnLW9tYWUnLCAnPG91dGZpbGUubWFlPic=

>  <r_epik_Ionization_Penalty>  (199) 
0.0106909

>  <r_epik_Ionization_Penalty_Charging>  (199) 
0.0106909

>  <r_epik_Ionization_Penalty_Neutral>  (199) 
1.33926e-13

>  <r_epik_State_Penalty>  (199) 
0.00818902

>  <r_epik_Charging_Adjusted_Penalty>  (199) 
0.0188799

>  <i_epik_Tot_Q>  (199) 
1

>  <i_epik_Tot_abs_Q>  (199) 
1

>  <s_lp_Force_Field>  (199) 
OPLS3e

>  <r_lp_Energy>  (199) 
33.5447

>  <b_lp_Chiralities_Consistent>  (199) 
1

>  <s_lp_Variant>  (199) 
76:0-1

>  <s_i_glide_gridfile>  (199) 
pfpi4k_grid

>  <i_i_glide_lignum>  (199) 
31

>  <i_i_glide_rotatable_bonds>  (199) 
0

>  <r_i_docking_score>  (199) 
-5.72911

>  <r_i_glide_ligand_efficiency>  (199) 
-0.358069

>  <r_i_glide_ligand_efficiency_sa>  (199) 
-0.902278

>  <r_i_glide_ligand_efficiency_ln>  (199) 
-1.51862

>  <r_i_glide_gscore>  (199) 
-5.72911

>  <r_i_glide_lipo>  (199) 
-2.38156

>  <r_i_glide_hbond>  (199) 
0

>  <r_i_glide_metal>  (199) 
-0

>  <r_i_glide_rewards>  (199) 
-2.42622

>  <r_i_glide_evdw>  (199) 
-18.761

>  <r_i_glide_ecoul>  (199) 
0.111413

>  <r_i_glide_erotb>  (199) 
0

>  <r_i_glide_esite>  (199) 
0

>  <r_i_glide_emodel>  (199) 
-25.8102

>  <r_i_glide_energy>  (199) 
-18.6496

>  <r_i_glide_einternal>  (199) 
0

>  <r_i_glide_intrahb_reward>  (199) 
-0

>  <i_i_glide_confnum>  (199) 
4

>  <i_i_glide_posenum>  (199) 
6

>  <r_i_glide_eff_state_penalty>  (199) 
0

>  <ligand_id>  (199) 
76

>  <original_smiles>  (199) 
CN1CCC2(CC1)OCCc1ccccc12

>  <smiles>  (199) 
[H]c1c([H])c([H])c2c(c1[H])C([H])([H])C([H])([H])OC21C([H])([H])C([H])([H])[N+]([H])(C([H])([H])[H])C([H])([H])C1([H])[H]

$$$$
76:0:1
     RDKit          3D

 36 38  0  0  1  0  0  0  0  0999 V2000
    3.9507   -7.3849    1.5452 C   0  0  0  0  0  0  0  0  0  0  0  0
    3.8376   -6.2663    0.5975 N   0  0  1  0  0  0  0  0  0  0  0  0
    2.7943   -5.2818    1.0033 C   0  0  0  0  0  0  0  0  0  0  0  0
    2.6194   -4.1974   -0.0566 C   0  0  0  0  0  0  0  0  0  0  0  0
    3.9637   -3.5102   -0.4359 C   0  0  2  0  0  0  0  0  0  0  0  0
    5.0244   -4.5750   -0.7910 C   0  0  0  0  0  0  0  0  0  0  0  0
    5.1413   -5.6054    0.3483 C   0  0  0  0  0  0  0  0  0  0  0  0
    4.3979   -2.8127    0.7492 O   0  0  0  0  0  0  0  0  0  0  0  0
    5.4909   -1.9137    0.5961 C   0  0  0  0  0  0  0  0  0  0  0  0
    5.0788   -0.7811   -0.3528 C   0  0  0  0  0  0  0  0  0  0  0  0
    4.3505   -1.2750   -1.5999 C   0  0  0  0  0  0  0  0  0  0  0  0
    4.2130   -0.4334   -2.7277 C   0  0  0  0  0  0  0  0  0  0  0  0
    3.5242   -0.8693   -3.8760 C   0  0  0  0  0  0  0  0  0  0  0  0
    2.9627   -2.1625   -3.8857 C   0  0  0  0  0  0  0  0  0  0  0  0
    3.0911   -3.0031   -2.7767 C   0  0  0  0  0  0  0  0  0  0  0  0
    3.7900   -2.5688   -1.6167 C   0  0  0  0  0  0  0  0  0  0  0  0
    4.2336   -7.0032    2.5368 H   0  0  0  0  0  0  0  0  0  0  0  0
    4.7103   -8.1077    1.2349 H   0  0  0  0  0  0  0  0  0  0  0  0
    3.0029   -7.9207    1.6502 H   0  0  0  0  0  0  0  0  0  0  0  0
    1.8497   -5.8040    1.1471 H   0  0  0  0  0  0  0  0  0  0  0  0
    3.0590   -4.8358    1.9683 H   0  0  0  0  0  0  0  0  0  0  0  0
    2.1567   -4.6874   -0.9160 H   0  0  0  0  0  0  0  0  0  0  0  0
    1.8919   -3.4551    0.2658 H   0  0  0  0  0  0  0  0  0  0  0  0
    4.7056   -5.0879   -1.7007 H   0  0  0  0  0  0  0  0  0  0  0  0
    6.0000   -4.1663   -1.0276 H   0  0  0  0  0  0  0  0  0  0  0  0
    5.4854   -5.1186    1.2669 H   0  0  0  0  0  0  0  0  0  0  0  0
    5.8969   -6.3387    0.0819 H   0  0  0  0  0  0  0  0  0  0  0  0
    5.7573   -1.5039    1.5770 H   0  0  0  0  0  0  0  0  0  0  0  0
    6.3699   -2.4328    0.2168 H   0  0  0  0  0  0  0  0  0  0  0  0
    4.4344   -0.0659    0.1629 H   0  0  0  0  0  0  0  0  0  0  0  0
    5.9763   -0.2536   -0.6506 H   0  0  0  0  0  0  0  0  0  0  0  0
    4.6306    0.5627   -2.7205 H   0  0  0  0  0  0  0  0  0  0  0  0
    3.4024   -0.2178   -4.7347 H   0  0  0  0  0  0  0  0  0  0  0  0
    2.4040   -2.5305   -4.7141 H   0  0  0  0  0  0  0  0  0  0  0  0
    2.6268   -3.9691   -2.8512 H   0  0  0  0  0  0  0  0  0  0  0  0
    3.5520   -6.6450   -0.3080 H   0  0  0  0  0  0  0  0  0  0  0  0
  1  2  1  0
  1 17  1  0
  1 18  1  0
  1 19  1  0
  2  7  1  0
  2  3  1  0
  2 36  1  6
  3  4  1  0
  3 20  1  0
  3 21  1  0
  4  5  1  0
  4 22  1  0
  4 23  1  0
  5 16  1  0
  5  6  1  0
  5  8  1  1
  6  7  1  0
  6 24  1  0
  6 25  1  0
  7 26  1  0
  7 27  1  0
  8  9  1  0
  9 10  1  0
  9 28  1  0
  9 29  1  0
 10 11  1  0
 10 30  1  0
 10 31  1  0
 11 16  2  0
 11 12  1  0
 12 13  2  0
 12 32  1  0
 13 14  1  0
 13 33  1  0
 14 15  2  0
 14 34  1  0
 15 16  1  0
 15 35  1  0
M  CHG  1   2   1
M  END
>  <i_m_ct_stereo_status>  (200) 
1

>  <s_m_source_file>  (200) 
/var/tmp/pbs.5076255.sched01/tmp403565pz/80s7duc8s0.sdf

>  <i_m_source_file_index>  (200) 
31

>  <i_lp_mmshare_version>  (200) 
48012

>  <i_f3d_flags>  (200) 
0

>  <s_epik_input>  (200) 
W0NIMl0xW0NIMl1OKFtDSDNdKVtDSDJdW0NIMl1DMTJjM2MoW0NIMl1bQ0gyXU8yKVtjSF1bY0hdW2NIXVtjSF0z

>  <s_epik_cmdline>  (200) 
J2VwaWtfcHl0aG9uJywgJy1waHQnLCAnMi4wJywgJy1waCcsICc3LjAnLCAnLXRuJywgJzgnLCAnLW1hJywgJzIwMCcsICctaW1hZScsICc8aW5maWxlLm1hZT4nLCAnLW9tYWUnLCAnPG91dGZpbGUubWFlPic=

>  <r_epik_Ionization_Penalty>  (200) 
0.0106909

>  <r_epik_Ionization_Penalty_Charging>  (200) 
0.0106909

>  <r_epik_Ionization_Penalty_Neutral>  (200) 
1.33926e-13

>  <r_epik_State_Penalty>  (200) 
0.00818902

>  <r_epik_Charging_Adjusted_Penalty>  (200) 
0.0188799

>  <i_epik_Tot_Q>  (200) 
1

>  <i_epik_Tot_abs_Q>  (200) 
1

>  <s_lp_Force_Field>  (200) 
OPLS3e

>  <r_lp_Energy>  (200) 
33.5447

>  <b_lp_Chiralities_Consistent>  (200) 
1

>  <s_lp_Variant>  (200) 
76:0-1

>  <s_i_glide_gridfile>  (200) 
pfpi4k_grid

>  <i_i_glide_lignum>  (200) 
31

>  <i_i_glide_rotatable_bonds>  (200) 
0

>  <r_i_docking_score>  (200) 
-4.0785

>  <r_i_glide_ligand_efficiency>  (200) 
-0.254906

>  <r_i_glide_ligand_efficiency_sa>  (200) 
-0.642323

>  <r_i_glide_ligand_efficiency_ln>  (200) 
-1.08109

>  <r_i_glide_gscore>  (200) 
-4.0785

>  <r_i_glide_lipo>  (200) 
-0.770169

>  <r_i_glide_hbond>  (200) 
0

>  <r_i_glide_metal>  (200) 
-0

>  <r_i_glide_rewards>  (200) 
-1.92058

>  <r_i_glide_evdw>  (200) 
-18.291

>  <r_i_glide_ecoul>  (200) 
-3.15464

>  <r_i_glide_erotb>  (200) 
0

>  <r_i_glide_esite>  (200) 
0

>  <r_i_glide_emodel>  (200) 
-26.4151

>  <r_i_glide_energy>  (200) 
-21.4456

>  <r_i_glide_einternal>  (200) 
0

>  <r_i_glide_intrahb_reward>  (200) 
-0

>  <i_i_glide_confnum>  (200) 
1

>  <i_i_glide_posenum>  (200) 
8

>  <r_i_glide_eff_state_penalty>  (200) 
0

>  <ligand_id>  (200) 
76

>  <original_smiles>  (200) 
CN1CCC2(CC1)OCCc1ccccc12

>  <smiles>  (200) 
[H]c1c([H])c([H])c2c(c1[H])C([H])([H])C([H])([H])OC21C([H])([H])C([H])([H])[N+]([H])(C([H])([H])[H])C([H])([H])C1([H])[H]

$$$$
76:1:0
     RDKit          3D

 35 37  0  0  1  0  0  0  0  0999 V2000
   -9.8001  -12.0441   -9.9785 C   0  0  0  0  0  0  0  0  0  0  0  0
   -9.1698  -11.0449   -9.1236 N   0  0  0  0  0  0  0  0  0  0  0  0
   -7.9449  -10.5687   -9.7674 C   0  0  0  0  0  0  0  0  0  0  0  0
   -7.3245   -9.4661   -8.9131 C   0  0  0  0  0  0  0  0  0  0  0  0
   -6.9933   -9.9493   -7.4725 C   0  0  0  0  0  0  0  0  0  0  0  0
   -8.2868  -10.5711   -6.8863 C   0  0  0  0  0  0  0  0  0  0  0  0
   -8.8689  -11.6396   -7.8236 C   0  0  0  0  0  0  0  0  0  0  0  0
   -5.9926  -10.9615   -7.6014 O   0  0  0  0  0  0  0  0  0  0  0  0
   -5.3915  -11.3989   -6.3863 C   0  0  0  0  0  0  0  0  0  0  0  0
   -4.6084  -10.2343   -5.7620 C   0  0  0  0  0  0  0  0  0  0  0  0
   -5.3851   -8.9245   -5.7788 C   0  0  0  0  0  0  0  0  0  0  0  0
   -4.9639   -7.8494   -4.9663 C   0  0  0  0  0  0  0  0  0  0  0  0
   -5.6688   -6.6295   -4.9783 C   0  0  0  0  0  0  0  0  0  0  0  0
   -6.7996   -6.4757   -5.8012 C   0  0  0  0  0  0  0  0  0  0  0  0
   -7.2291   -7.5516   -6.6091 C   0  0  0  0  0  0  0  0  0  0  0  0
   -6.5214   -8.7775   -6.6080 C   0  0  0  0  0  0  0  0  0  0  0  0
  -10.0168  -11.6241  -10.9585 H   0  0  0  0  0  0  0  0  0  0  0  0
  -10.7409  -12.3761   -9.5441 H   0  0  0  0  0  0  0  0  0  0  0  0
   -9.1550  -12.9107  -10.1102 H   0  0  0  0  0  0  0  0  0  0  0  0
   -7.2434  -11.3879   -9.9274 H   0  0  0  0  0  0  0  0  0  0  0  0
   -8.1981  -10.1549  -10.7439 H   0  0  0  0  0  0  0  0  0  0  0  0
   -6.4332   -9.0529   -9.3963 H   0  0  0  0  0  0  0  0  0  0  0  0
   -8.0424   -8.6447   -8.9018 H   0  0  0  0  0  0  0  0  0  0  0  0
   -8.1102  -11.0093   -5.9020 H   0  0  0  0  0  0  0  0  0  0  0  0
   -9.0424   -9.7961   -6.7395 H   0  0  0  0  0  0  0  0  0  0  0  0
   -9.7782  -12.0528   -7.3827 H   0  0  0  0  0  0  0  0  0  0  0  0
   -8.1708  -12.4639   -7.9431 H   0  0  0  0  0  0  0  0  0  0  0  0
   -6.1497  -11.7751   -5.7010 H   0  0  0  0  0  0  0  0  0  0  0  0
   -4.7175  -12.2359   -6.5906 H   0  0  0  0  0  0  0  0  0  0  0  0
   -4.3322  -10.4861   -4.7374 H   0  0  0  0  0  0  0  0  0  0  0  0
   -3.6769  -10.0895   -6.3085 H   0  0  0  0  0  0  0  0  0  0  0  0
   -4.1065   -7.9690   -4.3251 H   0  0  0  0  0  0  0  0  0  0  0  0
   -5.3597   -5.8051   -4.3473 H   0  0  0  0  0  0  0  0  0  0  0  0
   -7.3472   -5.5463   -5.8187 H   0  0  0  0  0  0  0  0  0  0  0  0
   -8.1142   -7.4093   -7.2098 H   0  0  0  0  0  0  0  0  0  0  0  0
  1  2  1  0
  1 17  1  0
  1 18  1  0
  1 19  1  0
  2  7  1  0
  2  3  1  0
  3  4  1  0
  3 20  1  0
  3 21  1  0
  4  5  1  0
  4 22  1  0
  4 23  1  0
  5 16  1  0
  5  6  1  0
  5  8  1  0
  6  7  1  0
  6 24  1  0
  6 25  1  0
  7 26  1  0
  7 27  1  0
  8  9  1  0
  9 10  1  0
  9 28  1  0
  9 29  1  0
 10 11  1  0
 10 30  1  0
 10 31  1  0
 11 16  2  0
 11 12  1  0
 12 13  2  0
 12 32  1  0
 13 14  1  0
 13 33  1  0
 14 15  2  0
 14 34  1  0
 15 16  1  0
 15 35  1  0
M  END
>  <i_m_ct_stereo_status>  (201) 
1

>  <s_m_source_file>  (201) 
/var/tmp/pbs.5076255.sched01/tmp403565pz/80s7duc8s0.sdf

>  <i_m_source_file_index>  (201) 
32

>  <i_lp_mmshare_version>  (201) 
48012

>  <i_f3d_flags>  (201) 
0

>  <s_epik_input>  (201) 
W0NIMl0xW0NIMl1OKFtDSDNdKVtDSDJdW0NIMl1DMTJjM2MoW0NIMl1bQ0gyXU8yKVtjSF1bY0hdW2NIXVtjSF0z

>  <s_epik_cmdline>  (201) 
J2VwaWtfcHl0aG9uJywgJy1waHQnLCAnMi4wJywgJy1waCcsICc3LjAnLCAnLXRuJywgJzgnLCAnLW1hJywgJzIwMCcsICctaW1hZScsICc8aW5maWxlLm1hZT4nLCAnLW9tYWUnLCAnPG91dGZpbGUubWFlPic=

>  <r_epik_Ionization_Penalty>  (201) 
2.38413

>  <r_epik_Ionization_Penalty_Charging>  (201) 
0

>  <r_epik_Ionization_Penalty_Neutral>  (201) 
2.38413

>  <r_epik_State_Penalty>  (201) 
2.54084

>  <r_epik_Charging_Adjusted_Penalty>  (201) 
2.54084

>  <i_epik_Tot_Q>  (201) 
0

>  <i_epik_Tot_abs_Q>  (201) 
0

>  <s_lp_Force_Field>  (201) 
OPLS3e

>  <r_lp_Energy>  (201) 
23.0938

>  <b_lp_Chiralities_Consistent>  (201) 
1

>  <s_lp_Variant>  (201) 
76:0-2

>  <s_i_glide_gridfile>  (201) 
pfpi4k_grid

>  <i_i_glide_lignum>  (201) 
32

>  <i_i_glide_rotatable_bonds>  (201) 
0

>  <r_i_docking_score>  (201) 
-5.29024

>  <r_i_glide_ligand_efficiency>  (201) 
-0.33064

>  <r_i_glide_ligand_efficiency_sa>  (201) 
-0.83316

>  <r_i_glide_ligand_efficiency_ln>  (201) 
-1.40228

>  <r_i_glide_gscore>  (201) 
-5.29024

>  <r_i_glide_lipo>  (201) 
-2.22576

>  <r_i_glide_hbond>  (201) 
0

>  <r_i_glide_metal>  (201) 
-0

>  <r_i_glide_rewards>  (201) 
-1.92745

>  <r_i_glide_evdw>  (201) 
-19.9162

>  <r_i_glide_ecoul>  (201) 
-0.941444

>  <r_i_glide_erotb>  (201) 
0

>  <r_i_glide_esite>  (201) 
0

>  <r_i_glide_emodel>  (201) 
-27.3222

>  <r_i_glide_energy>  (201) 
-20.8576

>  <r_i_glide_einternal>  (201) 
0

>  <r_i_glide_intrahb_reward>  (201) 
-0

>  <i_i_glide_confnum>  (201) 
2

>  <i_i_glide_posenum>  (201) 
7

>  <r_i_glide_eff_state_penalty>  (201) 
0

>  <ligand_id>  (201) 
76

>  <original_smiles>  (201) 
CN1CCC2(CC1)OCCc1ccccc12

>  <smiles>  (201) 
[H]c1c([H])c([H])c2c(c1[H])C([H])([H])C([H])([H])OC21C([H])([H])C([H])([H])N(C([H])([H])[H])C([H])([H])C1([H])[H]

$$$$
76:1:1
     RDKit          3D

 35 37  0  0  1  0  0  0  0  0999 V2000
    3.9506   -7.3084    1.6064 C   0  0  0  0  0  0  0  0  0  0  0  0
    3.8095   -6.2578    0.6105 N   0  0  0  0  0  0  0  0  0  0  0  0
    5.1117   -5.6093    0.4066 C   0  0  0  0  0  0  0  0  0  0  0  0
    4.9983   -4.5933   -0.7322 C   0  0  0  0  0  0  0  0  0  0  0  0
    3.9657   -3.4951   -0.3949 C   0  0  0  0  0  0  0  0  0  0  0  0
    2.6266   -4.2002   -0.0107 C   0  0  0  0  0  0  0  0  0  0  0  0
    2.8239   -5.2844    1.0612 C   0  0  0  0  0  0  0  0  0  0  0  0
    4.3944   -2.7911    0.7701 O   0  0  0  0  0  0  0  0  0  0  0  0
    5.4995   -1.9053    0.5955 C   0  0  0  0  0  0  0  0  0  0  0  0
    5.0868   -0.7825   -0.3597 C   0  0  0  0  0  0  0  0  0  0  0  0
    4.3602   -1.2775   -1.5959 C   0  0  0  0  0  0  0  0  0  0  0  0
    4.2192   -0.4522   -2.7329 C   0  0  0  0  0  0  0  0  0  0  0  0
    3.5170   -0.8948   -3.8671 C   0  0  0  0  0  0  0  0  0  0  0  0
    2.9520   -2.1806   -3.8697 C   0  0  0  0  0  0  0  0  0  0  0  0
    3.0804   -3.0036   -2.7482 C   0  0  0  0  0  0  0  0  0  0  0  0
    3.7742   -2.5763   -1.6044 C   0  0  0  0  0  0  0  0  0  0  0  0
    4.7174   -8.0202    1.3182 H   0  0  0  0  0  0  0  0  0  0  0  0
    3.0128   -7.8568    1.7064 H   0  0  0  0  0  0  0  0  0  0  0  0
    4.2111   -6.8931    2.5772 H   0  0  0  0  0  0  0  0  0  0  0  0
    5.4401   -5.1338    1.3280 H   0  0  0  0  0  0  0  0  0  0  0  0
    5.8608   -6.3577    0.1424 H   0  0  0  0  0  0  0  0  0  0  0  0
    5.9913   -4.1691   -0.9540 H   0  0  0  0  0  0  0  0  0  0  0  0
    4.6941   -5.1032   -1.6414 H   0  0  0  0  0  0  0  0  0  0  0  0
    1.9025   -3.4610    0.3185 H   0  0  0  0  0  0  0  0  0  0  0  0
    2.1716   -4.7028   -0.8580 H   0  0  0  0  0  0  0  0  0  0  0  0
    1.8753   -5.7985    1.2223 H   0  0  0  0  0  0  0  0  0  0  0  0
    3.1180   -4.8382    2.0103 H   0  0  0  0  0  0  0  0  0  0  0  0
    5.7988   -1.4952    1.5608 H   0  0  0  0  0  0  0  0  0  0  0  0
    6.3642   -2.4482    0.2041 H   0  0  0  0  0  0  0  0  0  0  0  0
    4.4546   -0.0613    0.1574 H   0  0  0  0  0  0  0  0  0  0  0  0
    5.9912   -0.2550   -0.6654 H   0  0  0  0  0  0  0  0  0  0  0  0
    4.6301    0.5467   -2.7188 H   0  0  0  0  0  0  0  0  0  0  0  0
    3.3951   -0.2483   -4.7308 H   0  0  0  0  0  0  0  0  0  0  0  0
    2.3952   -2.5490   -4.7236 H   0  0  0  0  0  0  0  0  0  0  0  0
    2.6073   -3.9724   -2.7994 H   0  0  0  0  0  0  0  0  0  0  0  0
  1  2  1  0
  1 17  1  0
  1 18  1  0
  1 19  1  0
  2  7  1  0
  2  3  1  0
  3  4  1  0
  3 20  1  0
  3 21  1  0
  4  5  1  0
  4 22  1  0
  4 23  1  0
  5 16  1  0
  5  6  1  0
  5  8  1  0
  6  7  1  0
  6 24  1  0
  6 25  1  0
  7 26  1  0
  7 27  1  0
  8  9  1  0
  9 10  1  0
  9 28  1  0
  9 29  1  0
 10 11  1  0
 10 30  1  0
 10 31  1  0
 11 16  2  0
 11 12  1  0
 12 13  2  0
 12 32  1  0
 13 14  1  0
 13 33  1  0
 14 15  2  0
 14 34  1  0
 15 16  1  0
 15 35  1  0
M  END
>  <i_m_ct_stereo_status>  (202) 
1

>  <s_m_source_file>  (202) 
/var/tmp/pbs.5076255.sched01/tmp403565pz/80s7duc8s0.sdf

>  <i_m_source_file_index>  (202) 
32

>  <i_lp_mmshare_version>  (202) 
48012

>  <i_f3d_flags>  (202) 
0

>  <s_epik_input>  (202) 
W0NIMl0xW0NIMl1OKFtDSDNdKVtDSDJdW0NIMl1DMTJjM2MoW0NIMl1bQ0gyXU8yKVtjSF1bY0hdW2NIXVtjSF0z

>  <s_epik_cmdline>  (202) 
J2VwaWtfcHl0aG9uJywgJy1waHQnLCAnMi4wJywgJy1waCcsICc3LjAnLCAnLXRuJywgJzgnLCAnLW1hJywgJzIwMCcsICctaW1hZScsICc8aW5maWxlLm1hZT4nLCAnLW9tYWUnLCAnPG91dGZpbGUubWFlPic=

>  <r_epik_Ionization_Penalty>  (202) 
2.38413

>  <r_epik_Ionization_Penalty_Charging>  (202) 
0

>  <r_epik_Ionization_Penalty_Neutral>  (202) 
2.38413

>  <r_epik_State_Penalty>  (202) 
2.54084

>  <r_epik_Charging_Adjusted_Penalty>  (202) 
2.54084

>  <i_epik_Tot_Q>  (202) 
0

>  <i_epik_Tot_abs_Q>  (202) 
0

>  <s_lp_Force_Field>  (202) 
OPLS3e

>  <r_lp_Energy>  (202) 
23.0938

>  <b_lp_Chiralities_Consistent>  (202) 
1

>  <s_lp_Variant>  (202) 
76:0-2

>  <s_i_glide_gridfile>  (202) 
pfpi4k_grid

>  <i_i_glide_lignum>  (202) 
32

>  <i_i_glide_rotatable_bonds>  (202) 
0

>  <r_i_docking_score>  (202) 
-3.78266

>  <r_i_glide_ligand_efficiency>  (202) 
-0.236416

>  <r_i_glide_ligand_efficiency_sa>  (202) 
-0.595731

>  <r_i_glide_ligand_efficiency_ln>  (202) 
-1.00267

>  <r_i_glide_gscore>  (202) 
-3.78266

>  <r_i_glide_lipo>  (202) 
-0.773909

>  <r_i_glide_hbond>  (202) 
0

>  <r_i_glide_metal>  (202) 
-0

>  <r_i_glide_rewards>  (202) 
-1.92745

>  <r_i_glide_evdw>  (202) 
-18.9021

>  <r_i_glide_ecoul>  (202) 
-0.907942

>  <r_i_glide_erotb>  (202) 
0

>  <r_i_glide_esite>  (202) 
0

>  <r_i_glide_emodel>  (202) 
-24.2999

>  <r_i_glide_energy>  (202) 
-19.81

>  <r_i_glide_einternal>  (202) 
0

>  <r_i_glide_intrahb_reward>  (202) 
-0

>  <i_i_glide_confnum>  (202) 
5

>  <i_i_glide_posenum>  (202) 
19

>  <r_i_glide_eff_state_penalty>  (202) 
0

>  <ligand_id>  (202) 
76

>  <original_smiles>  (202) 
CN1CCC2(CC1)OCCc1ccccc12

>  <smiles>  (202) 
[H]c1c([H])c([H])c2c(c1[H])C([H])([H])C([H])([H])OC21C([H])([H])C([H])([H])N(C([H])([H])[H])C([H])([H])C1([H])[H]

$$$$
76:1:2
     RDKit          3D

 35 37  0  0  1  0  0  0  0  0999 V2000
    2.5170   -6.3188    3.1552 C   0  0  0  0  0  0  0  0  0  0  0  0
    2.6430   -5.4683    1.9753 N   0  0  0  0  0  0  0  0  0  0  0  0
    3.9253   -5.7617    1.3210 C   0  0  0  0  0  0  0  0  0  0  0  0
    4.0481   -4.9286    0.0552 C   0  0  0  0  0  0  0  0  0  0  0  0
    3.9462   -3.4010    0.3282 C   0  0  0  0  0  0  0  0  0  0  0  0
    2.6629   -3.1526    1.1472 C   0  0  0  0  0  0  0  0  0  0  0  0
    2.5934   -4.0644    2.3845 C   0  0  0  0  0  0  0  0  0  0  0  0
    5.0873   -3.0539    1.1246 O   0  0  0  0  0  0  0  0  0  0  0  0
    5.2945   -1.6610    1.3178 C   0  0  0  0  0  0  0  0  0  0  0  0
    5.6240   -1.0176   -0.0337 C   0  0  0  0  0  0  0  0  0  0  0  0
    4.6856   -1.4642   -1.1451 C   0  0  0  0  0  0  0  0  0  0  0  0
    4.6146   -0.7352   -2.3480 C   0  0  0  0  0  0  0  0  0  0  0  0
    3.7801   -1.1528   -3.4042 C   0  0  0  0  0  0  0  0  0  0  0  0
    2.9924   -2.3089   -3.2535 C   0  0  0  0  0  0  0  0  0  0  0  0
    3.0329   -3.0292   -2.0449 C   0  0  0  0  0  0  0  0  0  0  0  0
    3.8943   -2.6271   -0.9921 C   0  0  0  0  0  0  0  0  0  0  0  0
    2.5801   -7.3674    2.8772 H   0  0  0  0  0  0  0  0  0  0  0  0
    1.5573   -6.1577    3.6395 H   0  0  0  0  0  0  0  0  0  0  0  0
    3.3055   -6.1067    3.8741 H   0  0  0  0  0  0  0  0  0  0  0  0
    4.7619   -5.5739    1.9967 H   0  0  0  0  0  0  0  0  0  0  0  0
    3.9480   -6.8204    1.0537 H   0  0  0  0  0  0  0  0  0  0  0  0
    4.9701   -5.1752   -0.4928 H   0  0  0  0  0  0  0  0  0  0  0  0
    3.2333   -5.2539   -0.5957 H   0  0  0  0  0  0  0  0  0  0  0  0
    2.5515   -2.1121    1.4510 H   0  0  0  0  0  0  0  0  0  0  0  0
    1.8187   -3.3669    0.5006 H   0  0  0  0  0  0  0  0  0  0  0  0
    1.6767   -3.8701    2.9352 H   0  0  0  0  0  0  0  0  0  0  0  0
    3.4229   -3.8476    3.0601 H   0  0  0  0  0  0  0  0  0  0  0  0
    4.4177   -1.1837    1.7627 H   0  0  0  0  0  0  0  0  0  0  0  0
    6.1233   -1.5200    2.0199 H   0  0  0  0  0  0  0  0  0  0  0  0
    5.5894    0.0675    0.0740 H   0  0  0  0  0  0  0  0  0  0  0  0
    6.6427   -1.2802   -0.3170 H   0  0  0  0  0  0  0  0  0  0  0  0
    5.2055    0.1562   -2.4571 H   0  0  0  0  0  0  0  0  0  0  0  0
    3.7258   -0.5791   -4.3227 H   0  0  0  0  0  0  0  0  0  0  0  0
    2.3322   -2.6346   -4.0448 H   0  0  0  0  0  0  0  0  0  0  0  0
    2.3784   -3.8837   -1.9495 H   0  0  0  0  0  0  0  0  0  0  0  0
  1  2  1  0
  1 17  1  0
  1 18  1  0
  1 19  1  0
  2  7  1  0
  2  3  1  0
  3  4  1  0
  3 20  1  0
  3 21  1  0
  4  5  1  0
  4 22  1  0
  4 23  1  0
  5 16  1  0
  5  6  1  0
  5  8  1  0
  6  7  1  0
  6 24  1  0
  6 25  1  0
  7 26  1  0
  7 27  1  0
  8  9  1  0
  9 10  1  0
  9 28  1  0
  9 29  1  0
 10 11  1  0
 10 30  1  0
 10 31  1  0
 11 16  2  0
 11 12  1  0
 12 13  2  0
 12 32  1  0
 13 14  1  0
 13 33  1  0
 14 15  2  0
 14 34  1  0
 15 16  1  0
 15 35  1  0
M  END
>  <i_m_ct_stereo_status>  (203) 
1

>  <s_m_source_file>  (203) 
/var/tmp/pbs.5076255.sched01/tmp403565pz/80s7duc8s0.sdf

>  <i_m_source_file_index>  (203) 
32

>  <i_lp_mmshare_version>  (203) 
48012

>  <i_f3d_flags>  (203) 
0

>  <s_epik_input>  (203) 
W0NIMl0xW0NIMl1OKFtDSDNdKVtDSDJdW0NIMl1DMTJjM2MoW0NIMl1bQ0gyXU8yKVtjSF1bY0hdW2NIXVtjSF0z

>  <s_epik_cmdline>  (203) 
J2VwaWtfcHl0aG9uJywgJy1waHQnLCAnMi4wJywgJy1waCcsICc3LjAnLCAnLXRuJywgJzgnLCAnLW1hJywgJzIwMCcsICctaW1hZScsICc8aW5maWxlLm1hZT4nLCAnLW9tYWUnLCAnPG91dGZpbGUubWFlPic=

>  <r_epik_Ionization_Penalty>  (203) 
2.38413

>  <r_epik_Ionization_Penalty_Charging>  (203) 
0

>  <r_epik_Ionization_Penalty_Neutral>  (203) 
2.38413

>  <r_epik_State_Penalty>  (203) 
2.54084

>  <r_epik_Charging_Adjusted_Penalty>  (203) 
2.54084

>  <i_epik_Tot_Q>  (203) 
0

>  <i_epik_Tot_abs_Q>  (203) 
0

>  <s_lp_Force_Field>  (203) 
OPLS3e

>  <r_lp_Energy>  (203) 
23.0938

>  <b_lp_Chiralities_Consistent>  (203) 
1

>  <s_lp_Variant>  (203) 
76:0-2

>  <s_i_glide_gridfile>  (203) 
pfpi4k_grid

>  <i_i_glide_lignum>  (203) 
32

>  <i_i_glide_rotatable_bonds>  (203) 
0

>  <r_i_docking_score>  (203) 
-3.44438

>  <r_i_glide_ligand_efficiency>  (203) 
-0.215274

>  <r_i_glide_ligand_efficiency_sa>  (203) 
-0.542456

>  <r_i_glide_ligand_efficiency_ln>  (203) 
-0.913002

>  <r_i_glide_gscore>  (203) 
-3.44438

>  <r_i_glide_lipo>  (203) 
-0.41852

>  <r_i_glide_hbond>  (203) 
0

>  <r_i_glide_metal>  (203) 
-0

>  <r_i_glide_rewards>  (203) 
-1.92745

>  <r_i_glide_evdw>  (203) 
-17.9662

>  <r_i_glide_ecoul>  (203) 
-1.33399

>  <r_i_glide_erotb>  (203) 
0

>  <r_i_glide_esite>  (203) 
0

>  <r_i_glide_emodel>  (203) 
-23.3848

>  <r_i_glide_energy>  (203) 
-19.3002

>  <r_i_glide_einternal>  (203) 
0

>  <r_i_glide_intrahb_reward>  (203) 
-0

>  <i_i_glide_confnum>  (203) 
2

>  <i_i_glide_posenum>  (203) 
21

>  <r_i_glide_eff_state_penalty>  (203) 
0

>  <ligand_id>  (203) 
76

>  <original_smiles>  (203) 
CN1CCC2(CC1)OCCc1ccccc12

>  <smiles>  (203) 
[H]c1c([H])c([H])c2c(c1[H])C([H])([H])C([H])([H])OC21C([H])([H])C([H])([H])N(C([H])([H])[H])C([H])([H])C1([H])[H]

$$$$
77:0:0
     RDKit          3D

 77 84  0  0  1  0  0  0  0  0999 V2000
    2.8920   -2.8397   -4.2308 C   0  0  0  0  0  0  0  0  0  0  0  0
    3.9143   -2.2897   -3.2786 C   0  0  2  0  0  0  0  0  0  0  0  0
    4.7608   -3.4414   -2.7617 C   0  0  0  0  0  0  0  0  0  0  0  0
    5.6712   -2.9631   -1.6690 C   0  0  0  0  0  0  0  0  0  0  0  0
    4.8443   -2.2549   -0.5435 C   0  0  1  0  0  0  0  0  0  0  0  0
    4.1691   -1.1971   -1.1426 O   0  0  0  0  0  0  0  0  0  0  0  0
    3.2248   -1.5832   -2.1183 C   0  0  0  0  0  0  0  0  0  0  0  0
    3.9665   -3.2161   -0.0071 O   0  0  0  0  0  0  0  0  0  0  0  0
    3.1834   -2.8898    1.1491 C   0  0  2  0  0  0  0  0  0  0  0  0
    3.6435   -1.5908    1.8214 C   0  0  1  0  0  0  0  0  0  0  0  0
    2.9060   -1.5538    3.1507 C   0  0  0  0  0  0  0  0  0  0  0  0
    2.8450   -3.0341    3.5084 C   0  0  0  0  0  0  0  0  0  0  0  0
    3.5807   -3.7772    2.3480 C   0  0  2  0  0  0  0  0  0  0  0  0
    5.0852   -3.4588    2.3218 C   0  0  2  0  0  0  0  0  0  0  0  0
    5.7430   -4.1383    3.3809 O   0  0  0  0  0  0  0  0  0  0  0  0
    5.4567   -5.5653    3.4003 C   0  0  1  0  0  0  0  0  0  0  0  0
    6.7983   -6.2954    3.6674 C   0  0  1  0  0  0  0  0  0  0  0  0
    7.0256   -6.4649    5.1773 C   0  0  0  0  0  0  0  0  0  0  0  0
    5.9125   -7.2213    5.9246 C   0  0  0  0  0  0  0  0  0  0  0  0
    4.4839   -6.9693    5.3902 C   0  0  1  0  0  0  0  0  0  0  0  0
    3.4710   -6.9441    6.5511 C   0  0  0  0  0  0  0  0  0  0  0  0
    4.3865   -5.7062    4.5076 C   0  0  2  0  0  0  0  0  0  0  0  0
    3.1507   -5.6793    3.7776 O   0  0  0  0  0  0  0  0  0  0  0  0
    3.3678   -5.3324    2.4027 C   0  0  1  0  0  0  0  0  0  0  0  0
    2.1635   -5.7989    1.5641 C   0  0  0  0  0  0  0  0  0  0  0  0
    4.6895   -6.0943    2.1599 C   0  0  2  0  0  0  0  0  0  0  0  0
    4.5518   -7.6394    2.0977 C   0  0  0  0  0  0  0  0  0  0  0  0
    5.7730   -8.4327    2.6193 C   0  0  0  0  0  0  0  0  0  0  0  0
    7.0432   -7.5929    2.8418 C   0  0  1  0  0  0  0  0  0  0  0  0
    7.7669   -7.3216    1.5105 C   0  0  0  0  0  0  0  0  0  0  0  0
    5.1312   -1.9317    2.0216 C   0  0  1  0  0  0  0  0  0  0  0  0
    5.7425   -1.6279    0.6210 C   0  0  1  0  0  0  0  0  0  0  0  0
    7.2400   -1.9914    0.4904 C   0  0  0  0  0  0  0  0  0  0  0  0
    2.2253   -3.5726   -3.7857 H   0  0  0  0  0  0  0  0  0  0  0  0
    3.4000   -3.3274   -5.0556 H   0  0  0  0  0  0  0  0  0  0  0  0
    2.2850   -2.0255   -4.6037 H   0  0  0  0  0  0  0  0  0  0  0  0
    4.5526   -1.5660   -3.7793 H   0  0  0  0  0  0  0  0  0  0  0  0
    4.1227   -4.2232   -2.3596 H   0  0  0  0  0  0  0  0  0  0  0  0
    5.3469   -3.8870   -3.5593 H   0  0  0  0  0  0  0  0  0  0  0  0
    6.2033   -3.8188   -1.2428 H   0  0  0  0  0  0  0  0  0  0  0  0
    6.3870   -2.2494   -2.0868 H   0  0  0  0  0  0  0  0  0  0  0  0
    2.6885   -0.7035   -2.4686 H   0  0  0  0  0  0  0  0  0  0  0  0
    2.4625   -2.2504   -1.7000 H   0  0  0  0  0  0  0  0  0  0  0  0
    2.1099   -2.8887    0.9480 H   0  0  0  0  0  0  0  0  0  0  0  0
    3.4553   -0.6808    1.2494 H   0  0  0  0  0  0  0  0  0  0  0  0
    3.4298   -0.9635    3.9049 H   0  0  0  0  0  0  0  0  0  0  0  0
    1.9008   -1.1430    3.0366 H   0  0  0  0  0  0  0  0  0  0  0  0
    3.2910   -3.1914    4.4891 H   0  0  0  0  0  0  0  0  0  0  0  0
    1.8021   -3.3556    3.5715 H   0  0  0  0  0  0  0  0  0  0  0  0
    5.5853   -3.8853    1.4635 H   0  0  0  0  0  0  0  0  0  0  0  0
    7.5963   -5.6250    3.3515 H   0  0  0  0  0  0  0  0  0  0  0  0
    7.9838   -6.9428    5.3813 H   0  0  0  0  0  0  0  0  0  0  0  0
    7.1001   -5.4686    5.6087 H   0  0  0  0  0  0  0  0  0  0  0  0
    6.0999   -8.2905    5.8515 H   0  0  0  0  0  0  0  0  0  0  0  0
    5.9611   -7.0044    6.9936 H   0  0  0  0  0  0  0  0  0  0  0  0
    4.1894   -7.8157    4.7852 H   0  0  0  0  0  0  0  0  0  0  0  0
    3.6818   -6.1444    7.2657 H   0  0  0  0  0  0  0  0  0  0  0  0
    3.5147   -7.8881    7.0989 H   0  0  0  0  0  0  0  0  0  0  0  0
    2.4429   -6.8205    6.1963 H   0  0  0  0  0  0  0  0  0  0  0  0
    4.4646   -4.8523    5.1785 H   0  0  0  0  0  0  0  0  0  0  0  0
    2.3357   -5.6305    0.4989 H   0  0  0  0  0  0  0  0  0  0  0  0
    1.2713   -5.2524    1.8639 H   0  0  0  0  0  0  0  0  0  0  0  0
    1.9455   -6.8579    1.7009 H   0  0  0  0  0  0  0  0  0  0  0  0
    5.1361   -5.8305    1.2044 H   0  0  0  0  0  0  0  0  0  0  0  0
    3.6409   -7.9847    2.5902 H   0  0  0  0  0  0  0  0  0  0  0  0
    4.4136   -7.9125    1.0487 H   0  0  0  0  0  0  0  0  0  0  0  0
    5.5214   -8.9113    3.5619 H   0  0  0  0  0  0  0  0  0  0  0  0
    5.9784   -9.2731    1.9528 H   0  0  0  0  0  0  0  0  0  0  0  0
    7.7418   -8.2268    3.3968 H   0  0  0  0  0  0  0  0  0  0  0  0
    7.1930   -6.6699    0.8533 H   0  0  0  0  0  0  0  0  0  0  0  0
    7.9647   -8.2504    0.9684 H   0  0  0  0  0  0  0  0  0  0  0  0
    8.7311   -6.8434    1.6865 H   0  0  0  0  0  0  0  0  0  0  0  0
    5.5947   -1.3508    2.8125 H   0  0  0  0  0  0  0  0  0  0  0  0
    5.7105   -0.5421    0.4824 H   0  0  0  0  0  0  0  0  0  0  0  0
    7.4338   -3.0564    0.5787 H   0  0  0  0  0  0  0  0  0  0  0  0
    7.8155   -1.4854    1.2638 H   0  0  0  0  0  0  0  0  0  0  0  0
    7.6932   -1.6309   -0.4231 H   0  0  0  0  0  0  0  0  0  0  0  0
  1  2  1  0
  1 34  1  0
  1 35  1  0
  1 36  1  0
  2  7  1  0
  2  3  1  0
  2 37  1  6
  3  4  1  0
  3 38  1  0
  3 39  1  0
  4  5  1  0
  4 40  1  0
  4 41  1  0
  5 32  1  0
  5  6  1  6
  5  8  1  0
  6  7  1  0
  7 42  1  0
  7 43  1  0
  8  9  1  0
  9 13  1  0
  9 10  1  0
  9 44  1  6
 10 31  1  0
 10 11  1  0
 10 45  1  6
 11 12  1  0
 11 46  1  0
 11 47  1  0
 13 12  1  1
 12 48  1  0
 12 49  1  0
 13 24  1  0
 13 14  1  0
 14 15  1  0
 14 31  1  0
 14 50  1  6
 16 15  1  6
 16 22  1  0
 16 26  1  0
 16 17  1  0
 17 29  1  0
 17 18  1  0
 17 51  1  6
 18 19  1  0
 18 52  1  0
 18 53  1  0
 19 20  1  0
 19 54  1  0
 19 55  1  0
 20 21  1  0
 20 22  1  0
 20 56  1  6
 21 57  1  0
 21 58  1  0
 21 59  1  0
 22 23  1  0
 22 60  1  1
 23 24  1  0
 24 25  1  6
 24 26  1  0
 25 61  1  0
 25 62  1  0
 25 63  1  0
 26 27  1  0
 26 64  1  6
 27 28  1  0
 27 65  1  0
 27 66  1  0
 28 29  1  0
 28 67  1  0
 28 68  1  0
 29 30  1  0
 29 69  1  1
 30 70  1  0
 30 71  1  0
 30 72  1  0
 31 32  1  0
 31 73  1  1
 32 33  1  0
 32 74  1  6
 33 75  1  0
 33 76  1  0
 33 77  1  0
M  END
>  <i_m_ct_stereo_status>  (204) 
1

>  <s_m_source_file>  (204) 
/var/tmp/pbs.5076255.sched01/tmp403565pz/80s7duc8s0.sdf

>  <i_m_source_file_index>  (204) 
33

>  <i_lp_mmshare_version>  (204) 
48012

>  <i_f3d_flags>  (204) 
0

>  <s_epik_input>  (204) 
TzFbQ0gyXVtDQEhdKFtDSDNdKVtDSDJdW0NIMl1bQ0BdMTJPW0NASF0zW0NAQF00NVtDQEBIXShbQ0BASF0oW0NASF0yW0NIM10pW0NAQEhdM1tDSDJdW0NIMl00KU9bQ0BAXTY3W0NASF04W0NIMl1bQ0gyXVtDQEBIXShbQ0gzXSlbQ0BASF02T1tDQF01KFtDSDNdKVtDQEBIXTdbQ0gyXVtDSDJdW0NASF04W0NIM10=

>  <s_epik_cmdline>  (204) 
J2VwaWtfcHl0aG9uJywgJy1waHQnLCAnMi4wJywgJy1waCcsICc3LjAnLCAnLXRuJywgJzgnLCAnLW1hJywgJzIwMCcsICctaW1hZScsICc8aW5maWxlLm1hZT4nLCAnLW9tYWUnLCAnPG91dGZpbGUubWFlPic=

>  <r_lp_tautomer_probability>  (204) 
1

>  <r_epik_Ionization_Penalty>  (204) 
1.44701e-11

>  <r_epik_Ionization_Penalty_Charging>  (204) 
0

>  <r_epik_Ionization_Penalty_Neutral>  (204) 
1.44701e-11

>  <r_epik_State_Penalty>  (204) 
-0

>  <r_epik_Charging_Adjusted_Penalty>  (204) 
0

>  <i_epik_Tot_Q>  (204) 
0

>  <i_epik_Tot_abs_Q>  (204) 
0

>  <s_lp_Force_Field>  (204) 
OPLS3e

>  <r_lp_Energy>  (204) 
121.277

>  <b_lp_Chiralities_Consistent>  (204) 
1

>  <s_lp_Variant>  (204) 
77:0-1

>  <s_i_glide_gridfile>  (204) 
pfpi4k_grid

>  <i_i_glide_lignum>  (204) 
33

>  <i_i_glide_rotatable_bonds>  (204) 
0

>  <r_i_docking_score>  (204) 
-2.30259

>  <r_i_glide_ligand_efficiency>  (204) 
-0.0697754

>  <r_i_glide_ligand_efficiency_sa>  (204) 
-0.223807

>  <r_i_glide_ligand_efficiency_ln>  (204) 
-0.512084

>  <r_i_glide_gscore>  (204) 
-2.30259

>  <r_i_glide_lipo>  (204) 
-0.611531

>  <r_i_glide_hbond>  (204) 
0

>  <r_i_glide_metal>  (204) 
-0

>  <r_i_glide_rewards>  (204) 
-0.295519

>  <r_i_glide_evdw>  (204) 
-27.5841

>  <r_i_glide_ecoul>  (204) 
-0.0102177

>  <r_i_glide_erotb>  (204) 
0

>  <r_i_glide_esite>  (204) 
-0.0148023

>  <r_i_glide_emodel>  (204) 
-31.3663

>  <r_i_glide_energy>  (204) 
-27.5943

>  <r_i_glide_einternal>  (204) 
0

>  <r_i_glide_intrahb_reward>  (204) 
-0

>  <i_i_glide_confnum>  (204) 
1

>  <i_i_glide_posenum>  (204) 
2

>  <r_i_glide_eff_state_penalty>  (204) 
0

>  <ligand_id>  (204) 
77

>  <original_smiles>  (204) 
CC1CCC2(OC1)OC1C3CCC14C(OC15C6CCC(C)C1OC4(C)C5CCC6C)C3C2C

>  <smiles>  (204) 
[H]C([H])([H])C1([H])C([H])([H])OC2(OC3([H])C4([H])C([H])([H])C([H])([H])C35C([H])(OC36C7([H])OC5(C([H])([H])[H])C3([H])C([H])([H])C([H])([H])C([H])(C([H])([H])[H])C6([H])C([H])([H])C([H])([H])C7([H])C([H])([H])[H])C4([H])C2([H])C([H])([H])[H])C([H])([H])C1([H])[H]

$$$$
77:0:1
     RDKit          3D

 77 84  0  0  1  0  0  0  0  0999 V2000
    3.7365   -3.3922   -4.2515 C   0  0  0  0  0  0  0  0  0  0  0  0
    4.3575   -2.6390   -3.0887 C   0  0  2  0  0  0  0  0  0  0  0  0
    5.3043   -3.5691   -2.3350 C   0  0  0  0  0  0  0  0  0  0  0  0
    5.8221   -2.8844   -1.0885 C   0  0  0  0  0  0  0  0  0  0  0  0
    4.6399   -2.3715   -0.2097 C   0  0  1  0  0  0  0  0  0  0  0  0
    3.8833   -1.5071   -1.0073 O   0  0  0  0  0  0  0  0  0  0  0  0
    3.2778   -2.1015   -2.1391 C   0  0  0  0  0  0  0  0  0  0  0  0
    3.8895   -3.5177    0.1577 O   0  0  0  0  0  0  0  0  0  0  0  0
    2.8300   -3.3632    1.1104 C   0  0  2  0  0  0  0  0  0  0  0  0
    2.8249   -1.9917    1.7977 C   0  0  1  0  0  0  0  0  0  0  0  0
    1.8207   -2.1186    2.9309 C   0  0  0  0  0  0  0  0  0  0  0  0
    2.0027   -3.5725    3.3411 C   0  0  0  0  0  0  0  0  0  0  0  0
    3.1275   -4.1328    2.4114 C   0  0  2  0  0  0  0  0  0  0  0  0
    4.4918   -3.4820    2.6996 C   0  0  2  0  0  0  0  0  0  0  0  0
    5.0409   -3.9921    3.9095 O   0  0  0  0  0  0  0  0  0  0  0  0
    5.0587   -5.4561    3.9396 C   0  0  1  0  0  0  0  0  0  0  0  0
    6.4263   -5.8872    4.5390 C   0  0  1  0  0  0  0  0  0  0  0  0
    6.3366   -5.9915    6.0699 C   0  0  0  0  0  0  0  0  0  0  0  0
    5.2780   -6.9771    6.5848 C   0  0  0  0  0  0  0  0  0  0  0  0
    3.9824   -7.0378    5.7385 C   0  0  1  0  0  0  0  0  0  0  0  0
    2.7585   -7.2466    6.6454 C   0  0  0  0  0  0  0  0  0  0  0  0
    3.8232   -5.8279    4.7899 C   0  0  2  0  0  0  0  0  0  0  0  0
    2.8057   -6.0837    3.8055 O   0  0  0  0  0  0  0  0  0  0  0  0
    3.2449   -5.6959    2.4937 C   0  0  1  0  0  0  0  0  0  0  0  0
    2.3883   -6.4177    1.4344 C   0  0  0  0  0  0  0  0  0  0  0  0
    4.7191   -6.1472    2.5916 C   0  0  2  0  0  0  0  0  0  0  0  0
    4.9440   -7.6833    2.5732 C   0  0  0  0  0  0  0  0  0  0  0  0
    6.1548   -8.1859    3.3962 C   0  0  0  0  0  0  0  0  0  0  0  0
    7.1310   -7.0914    3.8465 C   0  0  1  0  0  0  0  0  0  0  0  0
    8.0658   -6.6602    2.6967 C   0  0  0  0  0  0  0  0  0  0  0  0
    4.2667   -1.9865    2.3295 C   0  0  1  0  0  0  0  0  0  0  0  0
    5.0893   -1.5561    1.0737 C   0  0  1  0  0  0  0  0  0  0  0  0
    6.6103   -1.5655    1.3204 C   0  0  0  0  0  0  0  0  0  0  0  0
    3.1549   -4.2509   -3.9183 H   0  0  0  0  0  0  0  0  0  0  0  0
    4.5086   -3.7825   -4.9101 H   0  0  0  0  0  0  0  0  0  0  0  0
    3.0577   -2.7444   -4.7932 H   0  0  0  0  0  0  0  0  0  0  0  0
    4.9292   -1.7874   -3.4589 H   0  0  0  0  0  0  0  0  0  0  0  0
    4.8001   -4.4966   -2.0571 H   0  0  0  0  0  0  0  0  0  0  0  0
    6.1485   -3.8474   -2.9618 H   0  0  0  0  0  0  0  0  0  0  0  0
    6.4208   -3.5968   -0.5159 H   0  0  0  0  0  0  0  0  0  0  0  0
    6.4426   -2.0317   -1.3792 H   0  0  0  0  0  0  0  0  0  0  0  0
    2.6713   -1.3527   -2.6449 H   0  0  0  0  0  0  0  0  0  0  0  0
    2.5885   -2.8985   -1.8481 H   0  0  0  0  0  0  0  0  0  0  0  0
    1.8532   -3.6114    0.6712 H   0  0  0  0  0  0  0  0  0  0  0  0
    2.5787   -1.1490    1.1492 H   0  0  0  0  0  0  0  0  0  0  0  0
    2.0229   -1.4243    3.7470 H   0  0  0  0  0  0  0  0  0  0  0  0
    0.8049   -1.9387    2.5758 H   0  0  0  0  0  0  0  0  0  0  0  0
    2.2394   -3.6255    4.4020 H   0  0  0  0  0  0  0  0  0  0  0  0
    1.0708   -4.1185    3.1890 H   0  0  0  0  0  0  0  0  0  0  0  0
    5.2537   -3.7926    1.9937 H   0  0  0  0  0  0  0  0  0  0  0  0
    7.1136   -5.0659    4.3828 H   0  0  0  0  0  0  0  0  0  0  0  0
    7.3087   -6.2386    6.4978 H   0  0  0  0  0  0  0  0  0  0  0  0
    6.0942   -4.9998    6.4490 H   0  0  0  0  0  0  0  0  0  0  0  0
    5.7050   -7.9752    6.6105 H   0  0  0  0  0  0  0  0  0  0  0  0
    5.0394   -6.7430    7.6256 H   0  0  0  0  0  0  0  0  0  0  0  0
    4.0258   -7.9308    5.1242 H   0  0  0  0  0  0  0  0  0  0  0  0
    2.6217   -6.4199    7.3474 H   0  0  0  0  0  0  0  0  0  0  0  0
    2.8828   -8.1557    7.2346 H   0  0  0  0  0  0  0  0  0  0  0  0
    1.8372   -7.3558    6.0668 H   0  0  0  0  0  0  0  0  0  0  0  0
    3.5559   -4.9777    5.4157 H   0  0  0  0  0  0  0  0  0  0  0  0
    2.7599   -6.2222    0.4271 H   0  0  0  0  0  0  0  0  0  0  0  0
    1.3513   -6.0865    1.4837 H   0  0  0  0  0  0  0  0  0  0  0  0
    2.3781   -7.4976    1.5760 H   0  0  0  0  0  0  0  0  0  0  0  0
    5.3070   -5.7891    1.7456 H   0  0  0  0  0  0  0  0  0  0  0  0
    4.0426   -8.2222    2.8796 H   0  0  0  0  0  0  0  0  0  0  0  0
    5.1053   -7.9822    1.5390 H   0  0  0  0  0  0  0  0  0  0  0  0
    5.8052   -8.7053    4.2826 H   0  0  0  0  0  0  0  0  0  0  0  0
    6.6844   -8.9599    2.8373 H   0  0  0  0  0  0  0  0  0  0  0  0
    7.8021   -7.5475    4.5767 H   0  0  0  0  0  0  0  0  0  0  0  0
    7.5297   -6.1556    1.8947 H   0  0  0  0  0  0  0  0  0  0  0  0
    8.5719   -7.5256    2.2590 H   0  0  0  0  0  0  0  0  0  0  0  0
    8.8465   -5.9857    3.0518 H   0  0  0  0  0  0  0  0  0  0  0  0
    4.4064   -1.3142    3.1703 H   0  0  0  0  0  0  0  0  0  0  0  0
    4.8483   -0.5010    0.8761 H   0  0  0  0  0  0  0  0  0  0  0  0
    6.9923   -2.5802    1.4353 H   0  0  0  0  0  0  0  0  0  0  0  0
    6.8595   -1.0235    2.2302 H   0  0  0  0  0  0  0  0  0  0  0  0
    7.1604   -1.0819    0.5107 H   0  0  0  0  0  0  0  0  0  0  0  0
  1  2  1  0
  1 34  1  0
  1 35  1  0
  1 36  1  0
  2  7  1  0
  2  3  1  0
  2 37  1  6
  3  4  1  0
  3 38  1  0
  3 39  1  0
  4  5  1  0
  4 40  1  0
  4 41  1  0
  5 32  1  0
  5  6  1  6
  5  8  1  0
  6  7  1  0
  7 42  1  0
  7 43  1  0
  8  9  1  0
  9 13  1  0
  9 10  1  0
  9 44  1  6
 10 31  1  0
 10 11  1  0
 10 45  1  6
 11 12  1  0
 11 46  1  0
 11 47  1  0
 13 12  1  1
 12 48  1  0
 12 49  1  0
 13 24  1  0
 13 14  1  0
 14 15  1  0
 14 31  1  0
 14 50  1  6
 16 15  1  6
 16 22  1  0
 16 26  1  0
 16 17  1  0
 17 29  1  0
 17 18  1  0
 17 51  1  1
 18 19  1  0
 18 52  1  0
 18 53  1  0
 19 20  1  0
 19 54  1  0
 19 55  1  0
 20 21  1  0
 20 22  1  0
 20 56  1  6
 21 57  1  0
 21 58  1  0
 21 59  1  0
 22 23  1  0
 22 60  1  1
 23 24  1  0
 24 25  1  6
 24 26  1  0
 25 61  1  0
 25 62  1  0
 25 63  1  0
 26 27  1  0
 26 64  1  6
 27 28  1  0
 27 65  1  0
 27 66  1  0
 28 29  1  0
 28 67  1  0
 28 68  1  0
 29 30  1  0
 29 69  1  1
 30 70  1  0
 30 71  1  0
 30 72  1  0
 31 32  1  0
 31 73  1  1
 32 33  1  0
 32 74  1  6
 33 75  1  0
 33 76  1  0
 33 77  1  0
M  END
>  <i_m_ct_stereo_status>  (205) 
1

>  <s_m_source_file>  (205) 
/var/tmp/pbs.5076255.sched01/tmp403565pz/80s7duc8s0.sdf

>  <i_m_source_file_index>  (205) 
33

>  <i_lp_mmshare_version>  (205) 
48012

>  <i_f3d_flags>  (205) 
0

>  <s_epik_input>  (205) 
TzFbQ0gyXVtDQEhdKFtDSDNdKVtDSDJdW0NIMl1bQ0BdMTJPW0NASF0zW0NAQF00NVtDQEBIXShbQ0BASF0oW0NASF0yW0NIM10pW0NAQEhdM1tDSDJdW0NIMl00KU9bQ0BAXTY3W0NASF04W0NIMl1bQ0gyXVtDQEBIXShbQ0gzXSlbQ0BASF02T1tDQF01KFtDSDNdKVtDQEBIXTdbQ0gyXVtDSDJdW0NASF04W0NIM10=

>  <s_epik_cmdline>  (205) 
J2VwaWtfcHl0aG9uJywgJy1waHQnLCAnMi4wJywgJy1waCcsICc3LjAnLCAnLXRuJywgJzgnLCAnLW1hJywgJzIwMCcsICctaW1hZScsICc8aW5maWxlLm1hZT4nLCAnLW9tYWUnLCAnPG91dGZpbGUubWFlPic=

>  <r_lp_tautomer_probability>  (205) 
1

>  <r_epik_Ionization_Penalty>  (205) 
1.44701e-11

>  <r_epik_Ionization_Penalty_Charging>  (205) 
0

>  <r_epik_Ionization_Penalty_Neutral>  (205) 
1.44701e-11

>  <r_epik_State_Penalty>  (205) 
-0

>  <r_epik_Charging_Adjusted_Penalty>  (205) 
0

>  <i_epik_Tot_Q>  (205) 
0

>  <i_epik_Tot_abs_Q>  (205) 
0

>  <s_lp_Force_Field>  (205) 
OPLS3e

>  <r_lp_Energy>  (205) 
121.277

>  <b_lp_Chiralities_Consistent>  (205) 
1

>  <s_lp_Variant>  (205) 
77:0-1

>  <s_i_glide_gridfile>  (205) 
pfpi4k_grid

>  <i_i_glide_lignum>  (205) 
33

>  <i_i_glide_rotatable_bonds>  (205) 
0

>  <r_i_docking_score>  (205) 
-2.19285

>  <r_i_glide_ligand_efficiency>  (205) 
-0.0664501

>  <r_i_glide_ligand_efficiency_sa>  (205) 
-0.213141

>  <r_i_glide_ligand_efficiency_ln>  (205) 
-0.487679

>  <r_i_glide_gscore>  (205) 
-2.19285

>  <r_i_glide_lipo>  (205) 
-0.452259

>  <r_i_glide_hbond>  (205) 
0

>  <r_i_glide_metal>  (205) 
-0

>  <r_i_glide_rewards>  (205) 
-0.295519

>  <r_i_glide_evdw>  (205) 
-28.261

>  <r_i_glide_ecoul>  (205) 
-0.150324

>  <r_i_glide_erotb>  (205) 
0

>  <r_i_glide_esite>  (205) 
-0.00948039

>  <r_i_glide_emodel>  (205) 
-32.0643

>  <r_i_glide_energy>  (205) 
-28.4113

>  <r_i_glide_einternal>  (205) 
0

>  <r_i_glide_intrahb_reward>  (205) 
-0

>  <i_i_glide_confnum>  (205) 
1

>  <i_i_glide_posenum>  (205) 
33

>  <r_i_glide_eff_state_penalty>  (205) 
0

>  <ligand_id>  (205) 
77

>  <original_smiles>  (205) 
CC1CCC2(OC1)OC1C3CCC14C(OC15C6CCC(C)C1OC4(C)C5CCC6C)C3C2C

>  <smiles>  (205) 
[H]C([H])([H])C1([H])C([H])([H])OC2(OC3([H])C4([H])C([H])([H])C([H])([H])C35C([H])(OC36C7([H])OC5(C([H])([H])[H])C3([H])C([H])([H])C([H])([H])C([H])(C([H])([H])[H])C6([H])C([H])([H])C([H])([H])C7([H])C([H])([H])[H])C4([H])C2([H])C([H])([H])[H])C([H])([H])C1([H])[H]

$$$$
77:0:2
     RDKit          3D

 77 84  0  0  1  0  0  0  0  0999 V2000
    3.2787   -0.0078    1.2585 C   0  0  0  0  0  0  0  0  0  0  0  0
    3.6675   -0.6908    2.5667 C   0  0  2  0  0  0  0  0  0  0  0  0
    4.5544   -1.9082    2.2843 C   0  0  0  0  0  0  0  0  0  0  0  0
    4.8464   -2.6478    3.5763 C   0  0  0  0  0  0  0  0  0  0  0  0
    3.5209   -3.0305    4.3018 C   0  0  1  0  0  0  0  0  0  0  0  0
    2.8231   -1.8418    4.5375 O   0  0  0  0  0  0  0  0  0  0  0  0
    2.4302   -1.1307    3.3732 C   0  0  0  0  0  0  0  0  0  0  0  0
    2.8107   -3.8830    3.4394 O   0  0  0  0  0  0  0  0  0  0  0  0
    1.6100   -4.5130    3.9120 C   0  0  2  0  0  0  0  0  0  0  0  0
    1.4272   -4.3726    5.4340 C   0  0  1  0  0  0  0  0  0  0  0  0
    0.2875   -5.3165    5.7830 C   0  0  0  0  0  0  0  0  0  0  0  0
    0.5009   -6.4391    4.7782 C   0  0  0  0  0  0  0  0  0  0  0  0
    1.7778   -6.0448    3.9707 C   0  0  2  0  0  0  0  0  0  0  0  0
    3.0453   -6.0625    4.8470 C   0  0  2  0  0  0  0  0  0  0  0  0
    3.4526   -7.3986    5.1104 O   0  0  0  0  0  0  0  0  0  0  0  0
    3.5672   -8.1964    3.8886 C   0  0  1  0  0  0  0  0  0  0  0  0
    4.8683   -9.0315    4.0159 C   0  0  1  0  0  0  0  0  0  0  0  0
    4.5673  -10.3810    4.6885 C   0  0  0  0  0  0  0  0  0  0  0  0
    3.5093  -11.2476    3.9792 C   0  0  0  0  0  0  0  0  0  0  0  0
    2.3547  -10.4591    3.3215 C   0  0  1  0  0  0  0  0  0  0  0  0
    1.0261  -11.2256    3.4595 C   0  0  0  0  0  0  0  0  0  0  0  0
    2.2474   -9.0071    3.8442 C   0  0  2  0  0  0  0  0  0  0  0  0
    1.4016   -8.2169    2.9904 O   0  0  0  0  0  0  0  0  0  0  0  0
    1.9920   -6.9472    2.7019 C   0  0  1  0  0  0  0  0  0  0  0  0
    1.3425   -6.3592    1.4373 C   0  0  0  0  0  0  0  0  0  0  0  0
    3.4694   -7.3839    2.5659 C   0  0  2  0  0  0  0  0  0  0  0  0
    3.7909   -8.2015    1.2882 C   0  0  0  0  0  0  0  0  0  0  0  0
    4.9089   -9.2538    1.4384 C   0  0  0  0  0  0  0  0  0  0  0  0
    5.7371   -9.1456    2.7263 C   0  0  1  0  0  0  0  0  0  0  0  0
    6.7938   -8.0298    2.6090 C   0  0  0  0  0  0  0  0  0  0  0  0
    2.7761   -4.9461    5.8964 C   0  0  1  0  0  0  0  0  0  0  0  0
    3.7505   -3.7438    5.7270 C   0  0  1  0  0  0  0  0  0  0  0  0
    5.2283   -4.1035    6.0483 C   0  0  0  0  0  0  0  0  0  0  0  0
    2.7351   -0.6973    0.6128 H   0  0  0  0  0  0  0  0  0  0  0  0
    4.1568    0.3263    0.7099 H   0  0  0  0  0  0  0  0  0  0  0  0
    2.6384    0.8512    1.4287 H   0  0  0  0  0  0  0  0  0  0  0  0
    4.2336    0.0077    3.1836 H   0  0  0  0  0  0  0  0  0  0  0  0
    4.0777   -2.5876    1.5730 H   0  0  0  0  0  0  0  0  0  0  0  0
    5.4974   -1.6011    1.8364 H   0  0  0  0  0  0  0  0  0  0  0  0
    5.4131   -3.5561    3.3547 H   0  0  0  0  0  0  0  0  0  0  0  0
    5.4368   -2.0083    4.2368 H   0  0  0  0  0  0  0  0  0  0  0  0
    1.8540   -0.2569    3.6707 H   0  0  0  0  0  0  0  0  0  0  0  0
    1.7612   -1.7306    2.7485 H   0  0  0  0  0  0  0  0  0  0  0  0
    0.7249   -4.1900    3.3581 H   0  0  0  0  0  0  0  0  0  0  0  0
    1.2233   -3.3594    5.7868 H   0  0  0  0  0  0  0  0  0  0  0  0
    0.3355   -5.6619    6.8146 H   0  0  0  0  0  0  0  0  0  0  0  0
   -0.6762   -4.8331    5.6363 H   0  0  0  0  0  0  0  0  0  0  0  0
    0.5914   -7.3851    5.3053 H   0  0  0  0  0  0  0  0  0  0  0  0
   -0.3613   -6.5189    4.1181 H   0  0  0  0  0  0  0  0  0  0  0  0
    3.9159   -5.6884    4.3209 H   0  0  0  0  0  0  0  0  0  0  0  0
    5.5092   -8.5123    4.7262 H   0  0  0  0  0  0  0  0  0  0  0  0
    5.4775  -10.9631    4.8246 H   0  0  0  0  0  0  0  0  0  0  0  0
    4.2029  -10.1696    5.6937 H   0  0  0  0  0  0  0  0  0  0  0  0
    3.9890  -11.8351    3.1964 H   0  0  0  0  0  0  0  0  0  0  0  0
    3.1102  -11.9865    4.6774 H   0  0  0  0  0  0  0  0  0  0  0  0
    2.5394  -10.4167    2.2587 H   0  0  0  0  0  0  0  0  0  0  0  0
    0.7397  -11.3736    4.5024 H   0  0  0  0  0  0  0  0  0  0  0  0
    1.1232  -12.2146    3.0077 H   0  0  0  0  0  0  0  0  0  0  0  0
    0.2056  -10.7143    2.9514 H   0  0  0  0  0  0  0  0  0  0  0  0
    1.8384   -9.0673    4.8508 H   0  0  0  0  0  0  0  0  0  0  0  0
    1.8341   -5.4332    1.1327 H   0  0  0  0  0  0  0  0  0  0  0  0
    0.2888   -6.1523    1.6184 H   0  0  0  0  0  0  0  0  0  0  0  0
    1.3835   -7.0477    0.5948 H   0  0  0  0  0  0  0  0  0  0  0  0
    4.1417   -6.5307    2.5123 H   0  0  0  0  0  0  0  0  0  0  0  0
    2.8961   -8.6774    0.8867 H   0  0  0  0  0  0  0  0  0  0  0  0
    4.1020   -7.4955    0.5139 H   0  0  0  0  0  0  0  0  0  0  0  0
    4.4753  -10.2502    1.4174 H   0  0  0  0  0  0  0  0  0  0  0  0
    5.5551   -9.2375    0.5604 H   0  0  0  0  0  0  0  0  0  0  0  0
    6.3241  -10.0655    2.7932 H   0  0  0  0  0  0  0  0  0  0  0  0
    6.3423   -7.0406    2.5567 H   0  0  0  0  0  0  0  0  0  0  0  0
    7.4072   -8.1586    1.7142 H   0  0  0  0  0  0  0  0  0  0  0  0
    7.4716   -8.0403    3.4632 H   0  0  0  0  0  0  0  0  0  0  0  0
    2.7532   -5.3171    6.9154 H   0  0  0  0  0  0  0  0  0  0  0  0
    3.4797   -2.9999    6.4816 H   0  0  0  0  0  0  0  0  0  0  0  0
    5.6688   -4.7631    5.3055 H   0  0  0  0  0  0  0  0  0  0  0  0
    5.3129   -4.6029    7.0098 H   0  0  0  0  0  0  0  0  0  0  0  0
    5.8482   -3.2085    6.1120 H   0  0  0  0  0  0  0  0  0  0  0  0
  1  2  1  0
  1 34  1  0
  1 35  1  0
  1 36  1  0
  2  7  1  0
  2  3  1  0
  2 37  1  1
  3  4  1  0
  3 38  1  0
  3 39  1  0
  4  5  1  0
  4 40  1  0
  4 41  1  0
  5 32  1  0
  5  6  1  1
  5  8  1  0
  6  7  1  0
  7 42  1  0
  7 43  1  0
  8  9  1  0
  9 13  1  0
  9 10  1  0
  9 44  1  6
 10 31  1  0
 10 11  1  0
 10 45  1  6
 11 12  1  0
 11 46  1  0
 11 47  1  0
 13 12  1  1
 12 48  1  0
 12 49  1  0
 13 24  1  0
 13 14  1  0
 14 15  1  0
 14 31  1  0
 14 50  1  6
 16 15  1  1
 16 22  1  0
 16 26  1  0
 16 17  1  0
 17 29  1  0
 17 18  1  0
 17 51  1  1
 18 19  1  0
 18 52  1  0
 18 53  1  0
 19 20  1  0
 19 54  1  0
 19 55  1  0
 20 21  1  0
 20 22  1  0
 20 56  1  6
 21 57  1  0
 21 58  1  0
 21 59  1  0
 22 23  1  0
 22 60  1  1
 23 24  1  0
 24 25  1  6
 24 26  1  0
 25 61  1  0
 25 62  1  0
 25 63  1  0
 26 27  1  0
 26 64  1  1
 27 28  1  0
 27 65  1  0
 27 66  1  0
 28 29  1  0
 28 67  1  0
 28 68  1  0
 29 30  1  0
 29 69  1  1
 30 70  1  0
 30 71  1  0
 30 72  1  0
 31 32  1  0
 31 73  1  1
 32 33  1  0
 32 74  1  1
 33 75  1  0
 33 76  1  0
 33 77  1  0
M  END
>  <i_m_ct_stereo_status>  (206) 
1

>  <s_m_source_file>  (206) 
/var/tmp/pbs.5076255.sched01/tmp403565pz/80s7duc8s0.sdf

>  <i_m_source_file_index>  (206) 
33

>  <i_lp_mmshare_version>  (206) 
48012

>  <i_f3d_flags>  (206) 
0

>  <s_epik_input>  (206) 
TzFbQ0gyXVtDQEhdKFtDSDNdKVtDSDJdW0NIMl1bQ0BdMTJPW0NASF0zW0NAQF00NVtDQEBIXShbQ0BASF0oW0NASF0yW0NIM10pW0NAQEhdM1tDSDJdW0NIMl00KU9bQ0BAXTY3W0NASF04W0NIMl1bQ0gyXVtDQEBIXShbQ0gzXSlbQ0BASF02T1tDQF01KFtDSDNdKVtDQEBIXTdbQ0gyXVtDSDJdW0NASF04W0NIM10=

>  <s_epik_cmdline>  (206) 
J2VwaWtfcHl0aG9uJywgJy1waHQnLCAnMi4wJywgJy1waCcsICc3LjAnLCAnLXRuJywgJzgnLCAnLW1hJywgJzIwMCcsICctaW1hZScsICc8aW5maWxlLm1hZT4nLCAnLW9tYWUnLCAnPG91dGZpbGUubWFlPic=

>  <r_lp_tautomer_probability>  (206) 
1

>  <r_epik_Ionization_Penalty>  (206) 
1.44701e-11

>  <r_epik_Ionization_Penalty_Charging>  (206) 
0

>  <r_epik_Ionization_Penalty_Neutral>  (206) 
1.44701e-11

>  <r_epik_State_Penalty>  (206) 
-0

>  <r_epik_Charging_Adjusted_Penalty>  (206) 
0

>  <i_epik_Tot_Q>  (206) 
0

>  <i_epik_Tot_abs_Q>  (206) 
0

>  <s_lp_Force_Field>  (206) 
OPLS3e

>  <r_lp_Energy>  (206) 
121.277

>  <b_lp_Chiralities_Consistent>  (206) 
1

>  <s_lp_Variant>  (206) 
77:0-1

>  <s_i_glide_gridfile>  (206) 
pfpi4k_grid

>  <i_i_glide_lignum>  (206) 
33

>  <i_i_glide_rotatable_bonds>  (206) 
0

>  <r_i_docking_score>  (206) 
-2.11064

>  <r_i_glide_ligand_efficiency>  (206) 
-0.0639587

>  <r_i_glide_ligand_efficiency_sa>  (206) 
-0.20515

>  <r_i_glide_ligand_efficiency_ln>  (206) 
-0.469395

>  <r_i_glide_gscore>  (206) 
-2.11064

>  <r_i_glide_lipo>  (206) 
-0.383142

>  <r_i_glide_hbond>  (206) 
0

>  <r_i_glide_metal>  (206) 
-0

>  <r_i_glide_rewards>  (206) 
-0.295519

>  <r_i_glide_evdw>  (206) 
-28.5281

>  <r_i_glide_ecoul>  (206) 
-0.0371553

>  <r_i_glide_erotb>  (206) 
0

>  <r_i_glide_esite>  (206) 
0

>  <r_i_glide_emodel>  (206) 
-32.1174

>  <r_i_glide_energy>  (206) 
-28.5652

>  <r_i_glide_einternal>  (206) 
0

>  <r_i_glide_intrahb_reward>  (206) 
-0

>  <i_i_glide_confnum>  (206) 
1

>  <i_i_glide_posenum>  (206) 
11

>  <r_i_glide_eff_state_penalty>  (206) 
0

>  <ligand_id>  (206) 
77

>  <original_smiles>  (206) 
CC1CCC2(OC1)OC1C3CCC14C(OC15C6CCC(C)C1OC4(C)C5CCC6C)C3C2C

>  <smiles>  (206) 
[H]C([H])([H])C1([H])C([H])([H])OC2(OC3([H])C4([H])C([H])([H])C([H])([H])C35C([H])(OC36C7([H])OC5(C([H])([H])[H])C3([H])C([H])([H])C([H])([H])C([H])(C([H])([H])[H])C6([H])C([H])([H])C([H])([H])C7([H])C([H])([H])[H])C4([H])C2([H])C([H])([H])[H])C([H])([H])C1([H])[H]

$$$$
78:1:0
     RDKit          3D

 32 33  0  0  1  0  0  0  0  0999 V2000
  -10.7109   -6.2988   -8.3403 C   0  0  0  0  0  0  0  0  0  0  0  0
   -9.5799   -7.2522   -8.1958 C   0  0  0  0  0  0  0  0  0  0  0  0
   -9.4609   -8.5661   -8.4741 C   0  0  0  0  0  0  0  0  0  0  0  0
  -10.5402   -9.3705   -9.1143 C   0  0  0  0  0  0  0  0  0  0  0  0
   -8.1547   -9.3657   -8.2100 C   0  0  2  0  0  0  0  0  0  0  0  0
   -8.1199   -9.9506   -6.7971 C   0  0  0  0  0  0  0  0  0  0  0  0
   -8.8418  -10.8755   -6.4139 O   0  0  0  0  0  0  0  0  0  0  0  0
   -7.1785   -9.3312   -6.0630 O   0  0  0  0  0  0  0  0  0  0  0  0
   -6.5540   -8.2451   -6.7258 C   0  0  0  0  0  0  0  0  0  0  0  0
   -5.0898   -8.1608   -6.3293 C   0  0  0  0  0  0  0  0  0  0  0  0
   -5.0573   -7.2884   -5.0905 C   0  0  0  0  0  0  0  0  0  0  0  0
   -6.1334   -6.2334   -5.2951 C   0  0  0  0  0  0  0  0  0  0  0  0
   -7.0978   -6.9043   -6.1879 C   0  0  0  0  0  0  0  0  0  0  0  0
   -6.8436   -8.5722   -8.2247 C   0  0  0  0  0  0  0  0  0  0  0  0
   -5.8818   -9.3763   -8.6658 F   0  0  0  0  0  0  0  0  0  0  0  0
   -6.8534   -7.5133   -9.0228 F   0  0  0  0  0  0  0  0  0  0  0  0
  -10.2604   -5.3734   -8.7392 H   0  0  0  0  0  0  0  0  0  0  0  0
  -11.0659   -6.0361   -7.3273 H   0  0  0  0  0  0  0  0  0  0  0  0
  -11.5289   -6.6358   -8.9922 H   0  0  0  0  0  0  0  0  0  0  0  0
   -8.7752   -6.7074   -7.7874 H   0  0  0  0  0  0  0  0  0  0  0  0
  -10.2434   -9.5657  -10.1758 H   0  0  0  0  0  0  0  0  0  0  0  0
  -11.4942   -8.7977   -9.0947 H   0  0  0  0  0  0  0  0  0  0  0  0
  -10.6846  -10.3327   -8.5567 H   0  0  0  0  0  0  0  0  0  0  0  0
   -8.0715  -10.1938   -8.9369 H   0  0  0  0  0  0  0  0  0  0  0  0
   -4.6602   -9.1590   -6.1548 H   0  0  0  0  0  0  0  0  0  0  0  0
   -4.5357   -7.6952   -7.1554 H   0  0  0  0  0  0  0  0  0  0  0  0
   -5.3557   -7.8890   -4.2176 H   0  0  0  0  0  0  0  0  0  0  0  0
   -4.0781   -6.8146   -4.9121 H   0  0  0  0  0  0  0  0  0  0  0  0
   -6.6171   -5.8647   -4.3919 H   0  0  0  0  0  0  0  0  0  0  0  0
   -5.7269   -5.3742   -5.8291 H   0  0  0  0  0  0  0  0  0  0  0  0
   -7.1391   -6.1552   -6.9709 H   0  0  0  0  0  0  0  0  0  0  0  0
   -8.0674   -6.9978   -5.7414 H   0  0  0  0  0  0  0  0  0  0  0  0
  1  2  1  0
  1 17  1  0
  1 18  1  0
  1 19  1  0
  2  3  2  3
  2 20  1  0
  3  4  1  0
  3  5  1  0
  4 21  1  0
  4 22  1  0
  4 23  1  0
  5 14  1  0
  5  6  1  0
  5 24  1  6
  6  7  2  0
  6  8  1  0
  8  9  1  0
  9 13  1  0
  9 10  1  0
  9 14  1  0
 10 11  1  0
 10 25  1  0
 10 26  1  0
 11 12  1  0
 11 27  1  0
 11 28  1  0
 12 13  1  0
 12 29  1  0
 12 30  1  0
 13 31  1  0
 13 32  1  0
 14 15  1  0
 14 16  1  0
M  END
>  <i_m_ct_stereo_status>  (207) 
1

>  <s_m_source_file>  (207) 
/var/tmp/pbs.5076255.sched01/tmp403565pz/80s7duc8s0.sdf

>  <i_m_source_file_index>  (207) 
35

>  <i_lp_mmshare_version>  (207) 
48012

>  <i_f3d_flags>  (207) 
0

>  <s_epik_input>  (207) 
W0NIM10vW0NIXT1DKC9bQ0gzXSlbQ0BASF0oQzEoRilGKUMoPU8pT0MxMltDSDJdW0NIMl1bQ0gyXVtDSDJdMg==

>  <s_epik_cmdline>  (207) 
J2VwaWtfcHl0aG9uJywgJy1waHQnLCAnMi4wJywgJy1waCcsICc3LjAnLCAnLXRuJywgJzgnLCAnLW1hJywgJzIwMCcsICctaW1hZScsICc8aW5maWxlLm1hZT4nLCAnLW9tYWUnLCAnPG91dGZpbGUubWFlPic=

>  <r_lp_tautomer_probability>  (207) 
1

>  <r_epik_Ionization_Penalty>  (207) 
0

>  <r_epik_Ionization_Penalty_Charging>  (207) 
0

>  <r_epik_Ionization_Penalty_Neutral>  (207) 
0

>  <r_epik_State_Penalty>  (207) 
-0

>  <r_epik_Charging_Adjusted_Penalty>  (207) 
0

>  <i_epik_Tot_Q>  (207) 
0

>  <i_epik_Tot_abs_Q>  (207) 
0

>  <s_epik_Chemistry_Notes>  (207) 
This compound has an ester and may undergo hydrolysis at high or low pH.

>  <s_lp_Force_Field>  (207) 
OPLS3e

>  <r_lp_Energy>  (207) 
12.3431

>  <b_lp_Chiralities_Consistent>  (207) 
1

>  <s_lp_Variant>  (207) 
78:0-2

>  <s_i_glide_gridfile>  (207) 
pfpi4k_grid

>  <i_i_glide_lignum>  (207) 
35

>  <i_i_glide_rotatable_bonds>  (207) 
1

>  <r_i_docking_score>  (207) 
-5.01154

>  <r_i_glide_ligand_efficiency>  (207) 
-0.313221

>  <r_i_glide_ligand_efficiency_sa>  (207) 
-0.789268

>  <r_i_glide_ligand_efficiency_ln>  (207) 
-1.32841

>  <r_i_glide_gscore>  (207) 
-5.01154

>  <r_i_glide_lipo>  (207) 
-1.7105

>  <r_i_glide_hbond>  (207) 
0

>  <r_i_glide_metal>  (207) 
-0

>  <r_i_glide_rewards>  (207) 
-2.39172

>  <r_i_glide_evdw>  (207) 
-20.1543

>  <r_i_glide_ecoul>  (207) 
0.656089

>  <r_i_glide_erotb>  (207) 
0

>  <r_i_glide_esite>  (207) 
-2.39204e-05

>  <r_i_glide_emodel>  (207) 
-23.4593

>  <r_i_glide_energy>  (207) 
-19.4982

>  <r_i_glide_einternal>  (207) 
0.119067

>  <r_i_glide_intrahb_reward>  (207) 
-0

>  <i_i_glide_confnum>  (207) 
3

>  <i_i_glide_posenum>  (207) 
2

>  <r_i_glide_eff_state_penalty>  (207) 
0

>  <ligand_id>  (207) 
78

>  <original_smiles>  (207) 
CC=C(C)C1C(=O)OC2(CCCC2)C1(F)F

>  <smiles>  (207) 
[H]C(=C(C([H])([H])[H])C1([H])C(=O)OC2(C([H])([H])C([H])([H])C([H])([H])C2([H])[H])C1(F)F)C([H])([H])[H]

$$$$
78:1:1
     RDKit          3D

 32 33  0  0  1  0  0  0  0  0999 V2000
   -9.5849   -9.3763  -10.7729 C   0  0  0  0  0  0  0  0  0  0  0  0
   -8.4513   -9.8400   -9.8677 C   0  0  0  0  0  0  0  0  0  0  0  0
   -8.2194   -9.3669   -8.6298 C   0  0  0  0  0  0  0  0  0  0  0  0
   -9.1501   -8.3548   -8.0271 C   0  0  0  0  0  0  0  0  0  0  0  0
   -7.0220   -9.8341   -7.7770 C   0  0  2  0  0  0  0  0  0  0  0  0
   -7.4329  -10.0233   -6.3234 C   0  0  0  0  0  0  0  0  0  0  0  0
   -8.1605  -10.9337   -5.9500 O   0  0  0  0  0  0  0  0  0  0  0  0
   -6.9414   -9.0315   -5.5728 O   0  0  0  0  0  0  0  0  0  0  0  0
   -6.2087   -8.0520   -6.2803 C   0  0  0  0  0  0  0  0  0  0  0  0
   -5.0152   -7.5721   -5.4975 C   0  0  0  0  0  0  0  0  0  0  0  0
   -5.5658   -6.4202   -4.6616 C   0  0  0  0  0  0  0  0  0  0  0  0
   -6.5881   -5.6828   -5.5032 C   0  0  0  0  0  0  0  0  0  0  0  0
   -7.1134   -6.7902   -6.4043 C   0  0  0  0  0  0  0  0  0  0  0  0
   -5.9018   -8.7732   -7.6234 C   0  0  0  0  0  0  0  0  0  0  0  0
   -4.7467   -9.4153   -7.4875 F   0  0  0  0  0  0  0  0  0  0  0  0
   -5.8205   -7.9571   -8.6717 F   0  0  0  0  0  0  0  0  0  0  0  0
  -10.1000  -10.2534  -11.1411 H   0  0  0  0  0  0  0  0  0  0  0  0
   -9.1855   -8.8120  -11.6101 H   0  0  0  0  0  0  0  0  0  0  0  0
  -10.3330   -8.7542  -10.2855 H   0  0  0  0  0  0  0  0  0  0  0  0
   -7.7714  -10.5752  -10.3003 H   0  0  0  0  0  0  0  0  0  0  0  0
   -9.5849   -8.6622   -7.0928 H   0  0  0  0  0  0  0  0  0  0  0  0
   -9.8069   -7.7664   -8.6427 H   0  0  0  0  0  0  0  0  0  0  0  0
   -8.4684   -7.5409   -7.8842 H   0  0  0  0  0  0  0  0  0  0  0  0
   -6.6084  -10.7634   -8.1759 H   0  0  0  0  0  0  0  0  0  0  0  0
   -4.5460   -8.3833   -4.9088 H   0  0  0  0  0  0  0  0  0  0  0  0
   -4.2433   -7.2338   -6.2130 H   0  0  0  0  0  0  0  0  0  0  0  0
   -6.0926   -6.8285   -3.7771 H   0  0  0  0  0  0  0  0  0  0  0  0
   -4.8076   -5.7015   -4.3065 H   0  0  0  0  0  0  0  0  0  0  0  0
   -7.4118   -5.2346   -4.9632 H   0  0  0  0  0  0  0  0  0  0  0  0
   -6.1616   -4.9341   -6.1552 H   0  0  0  0  0  0  0  0  0  0  0  0
   -7.0837   -6.3694   -7.3855 H   0  0  0  0  0  0  0  0  0  0  0  0
   -8.0994   -6.9884   -6.0437 H   0  0  0  0  0  0  0  0  0  0  0  0
  1  2  1  0
  1 17  1  0
  1 18  1  0
  1 19  1  0
  2  3  2  3
  2 20  1  0
  3  4  1  0
  3  5  1  0
  4 21  1  0
  4 22  1  0
  4 23  1  0
  5 14  1  0
  5  6  1  0
  5 24  1  6
  6  7  2  0
  6  8  1  0
  8  9  1  0
  9 13  1  0
  9 10  1  0
  9 14  1  0
 10 11  1  0
 10 25  1  0
 10 26  1  0
 11 12  1  0
 11 27  1  0
 11 28  1  0
 12 13  1  0
 12 29  1  0
 12 30  1  0
 13 31  1  0
 13 32  1  0
 14 15  1  0
 14 16  1  0
M  END
>  <i_m_ct_stereo_status>  (208) 
1

>  <s_m_source_file>  (208) 
/var/tmp/pbs.5076255.sched01/tmp403565pz/80s7duc8s0.sdf

>  <i_m_source_file_index>  (208) 
35

>  <i_lp_mmshare_version>  (208) 
48012

>  <i_f3d_flags>  (208) 
0

>  <s_epik_input>  (208) 
W0NIM10vW0NIXT1DKC9bQ0gzXSlbQ0BASF0oQzEoRilGKUMoPU8pT0MxMltDSDJdW0NIMl1bQ0gyXVtDSDJdMg==

>  <s_epik_cmdline>  (208) 
J2VwaWtfcHl0aG9uJywgJy1waHQnLCAnMi4wJywgJy1waCcsICc3LjAnLCAnLXRuJywgJzgnLCAnLW1hJywgJzIwMCcsICctaW1hZScsICc8aW5maWxlLm1hZT4nLCAnLW9tYWUnLCAnPG91dGZpbGUubWFlPic=

>  <r_lp_tautomer_probability>  (208) 
1

>  <r_epik_Ionization_Penalty>  (208) 
0

>  <r_epik_Ionization_Penalty_Charging>  (208) 
0

>  <r_epik_Ionization_Penalty_Neutral>  (208) 
0

>  <r_epik_State_Penalty>  (208) 
-0

>  <r_epik_Charging_Adjusted_Penalty>  (208) 
0

>  <i_epik_Tot_Q>  (208) 
0

>  <i_epik_Tot_abs_Q>  (208) 
0

>  <s_epik_Chemistry_Notes>  (208) 
This compound has an ester and may undergo hydrolysis at high or low pH.

>  <s_lp_Force_Field>  (208) 
OPLS3e

>  <r_lp_Energy>  (208) 
12.3431

>  <b_lp_Chiralities_Consistent>  (208) 
1

>  <s_lp_Variant>  (208) 
78:0-2

>  <s_i_glide_gridfile>  (208) 
pfpi4k_grid

>  <i_i_glide_lignum>  (208) 
35

>  <i_i_glide_rotatable_bonds>  (208) 
1

>  <r_i_docking_score>  (208) 
-4.87896

>  <r_i_glide_ligand_efficiency>  (208) 
-0.304935

>  <r_i_glide_ligand_efficiency_sa>  (208) 
-0.768388

>  <r_i_glide_ligand_efficiency_ln>  (208) 
-1.29327

>  <r_i_glide_gscore>  (208) 
-4.87896

>  <r_i_glide_lipo>  (208) 
-1.9072

>  <r_i_glide_hbond>  (208) 
0

>  <r_i_glide_metal>  (208) 
-0

>  <r_i_glide_rewards>  (208) 
-2.63115

>  <r_i_glide_evdw>  (208) 
-18.0606

>  <r_i_glide_ecoul>  (208) 
-0.0719647

>  <r_i_glide_erotb>  (208) 
0

>  <r_i_glide_esite>  (208) 
0

>  <r_i_glide_emodel>  (208) 
-15.9502

>  <r_i_glide_energy>  (208) 
-18.1325

>  <r_i_glide_einternal>  (208) 
6.00241

>  <r_i_glide_intrahb_reward>  (208) 
-0

>  <i_i_glide_confnum>  (208) 
3

>  <i_i_glide_posenum>  (208) 
14

>  <r_i_glide_eff_state_penalty>  (208) 
0

>  <ligand_id>  (208) 
78

>  <original_smiles>  (208) 
CC=C(C)C1C(=O)OC2(CCCC2)C1(F)F

>  <smiles>  (208) 
[H]C(=C(C([H])([H])[H])C1([H])C(=O)OC2(C([H])([H])C([H])([H])C([H])([H])C2([H])[H])C1(F)F)C([H])([H])[H]

$$$$
78:1:2
     RDKit          3D

 32 33  0  0  1  0  0  0  0  0999 V2000
   -0.9647    2.0911    9.2614 C   0  0  0  0  0  0  0  0  0  0  0  0
   -0.8213    1.6487    7.8207 C   0  0  0  0  0  0  0  0  0  0  0  0
   -1.5043    2.0952    6.7402 C   0  0  0  0  0  0  0  0  0  0  0  0
   -2.6054    3.1298    6.7953 C   0  0  0  0  0  0  0  0  0  0  0  0
   -1.1904    1.6102    5.3247 C   0  0  2  0  0  0  0  0  0  0  0  0
   -1.3115    0.0962    5.1789 C   0  0  0  0  0  0  0  0  0  0  0  0
   -2.1848   -0.5947    5.6947 O   0  0  0  0  0  0  0  0  0  0  0  0
   -0.3220   -0.3480    4.4208 O   0  0  0  0  0  0  0  0  0  0  0  0
    0.5748    0.6587    3.9756 C   0  0  0  0  0  0  0  0  0  0  0  0
    0.3233    0.8807    2.4775 C   0  0  0  0  0  0  0  0  0  0  0  0
    1.7035    1.1880    1.9144 C   0  0  0  0  0  0  0  0  0  0  0  0
    2.6723    0.3351    2.7258 C   0  0  0  0  0  0  0  0  0  0  0  0
    2.0308    0.1556    4.1019 C   0  0  0  0  0  0  0  0  0  0  0  0
    0.2373    1.9009    4.8462 C   0  0  0  0  0  0  0  0  0  0  0  0
    0.2761    3.0480    4.1609 F   0  0  0  0  0  0  0  0  0  0  0  0
    1.0890    1.9990    5.8715 F   0  0  0  0  0  0  0  0  0  0  0  0
    0.0228    2.3191    9.6660 H   0  0  0  0  0  0  0  0  0  0  0  0
   -1.3838    1.2832    9.8573 H   0  0  0  0  0  0  0  0  0  0  0  0
   -1.5816    2.9771    9.3871 H   0  0  0  0  0  0  0  0  0  0  0  0
   -0.0622    0.8965    7.6717 H   0  0  0  0  0  0  0  0  0  0  0  0
   -2.2557    4.0530    6.3360 H   0  0  0  0  0  0  0  0  0  0  0  0
   -2.9517    3.3515    7.8030 H   0  0  0  0  0  0  0  0  0  0  0  0
   -3.4689    2.7817    6.2309 H   0  0  0  0  0  0  0  0  0  0  0  0
   -1.9071    2.0355    4.6206 H   0  0  0  0  0  0  0  0  0  0  0  0
   -0.0480   -0.0308    2.0055 H   0  0  0  0  0  0  0  0  0  0  0  0
   -0.3941    1.6754    2.2712 H   0  0  0  0  0  0  0  0  0  0  0  0
    1.7605    0.9452    0.8569 H   0  0  0  0  0  0  0  0  0  0  0  0
    1.9251    2.2482    2.0452 H   0  0  0  0  0  0  0  0  0  0  0  0
    2.7887   -0.6428    2.2549 H   0  0  0  0  0  0  0  0  0  0  0  0
    3.6570    0.8023    2.8051 H   0  0  0  0  0  0  0  0  0  0  0  0
    2.6199    0.6870    4.8519 H   0  0  0  0  0  0  0  0  0  0  0  0
    2.0561   -0.8992    4.3871 H   0  0  0  0  0  0  0  0  0  0  0  0
  1  2  1  0
  1 17  1  0
  1 18  1  0
  1 19  1  0
  2  3  2  3
  2 20  1  0
  3  4  1  0
  3  5  1  0
  4 21  1  0
  4 22  1  0
  4 23  1  0
  5 14  1  0
  5  6  1  0
  5 24  1  6
  6  7  2  0
  6  8  1  0
  8  9  1  0
  9 13  1  0
  9 10  1  0
  9 14  1  0
 10 11  1  0
 10 25  1  0
 10 26  1  0
 11 12  1  0
 11 27  1  0
 11 28  1  0
 12 13  1  0
 12 29  1  0
 12 30  1  0
 13 31  1  0
 13 32  1  0
 14 15  1  0
 14 16  1  0
M  END
>  <i_m_ct_stereo_status>  (209) 
1

>  <s_m_source_file>  (209) 
/var/tmp/pbs.5076255.sched01/tmp403565pz/80s7duc8s0.sdf

>  <i_m_source_file_index>  (209) 
35

>  <i_lp_mmshare_version>  (209) 
48012

>  <i_f3d_flags>  (209) 
0

>  <s_epik_input>  (209) 
W0NIM10vW0NIXT1DKC9bQ0gzXSlbQ0BASF0oQzEoRilGKUMoPU8pT0MxMltDSDJdW0NIMl1bQ0gyXVtDSDJdMg==

>  <s_epik_cmdline>  (209) 
J2VwaWtfcHl0aG9uJywgJy1waHQnLCAnMi4wJywgJy1waCcsICc3LjAnLCAnLXRuJywgJzgnLCAnLW1hJywgJzIwMCcsICctaW1hZScsICc8aW5maWxlLm1hZT4nLCAnLW9tYWUnLCAnPG91dGZpbGUubWFlPic=

>  <r_lp_tautomer_probability>  (209) 
1

>  <r_epik_Ionization_Penalty>  (209) 
0

>  <r_epik_Ionization_Penalty_Charging>  (209) 
0

>  <r_epik_Ionization_Penalty_Neutral>  (209) 
0

>  <r_epik_State_Penalty>  (209) 
-0

>  <r_epik_Charging_Adjusted_Penalty>  (209) 
0

>  <i_epik_Tot_Q>  (209) 
0

>  <i_epik_Tot_abs_Q>  (209) 
0

>  <s_epik_Chemistry_Notes>  (209) 
This compound has an ester and may undergo hydrolysis at high or low pH.

>  <s_lp_Force_Field>  (209) 
OPLS3e

>  <r_lp_Energy>  (209) 
12.3431

>  <b_lp_Chiralities_Consistent>  (209) 
1

>  <s_lp_Variant>  (209) 
78:0-2

>  <s_i_glide_gridfile>  (209) 
pfpi4k_grid

>  <i_i_glide_lignum>  (209) 
35

>  <i_i_glide_rotatable_bonds>  (209) 
1

>  <r_i_docking_score>  (209) 
-3.26283

>  <r_i_glide_ligand_efficiency>  (209) 
-0.203927

>  <r_i_glide_ligand_efficiency_sa>  (209) 
-0.513864

>  <r_i_glide_ligand_efficiency_ln>  (209) 
-0.864879

>  <r_i_glide_gscore>  (209) 
-3.26283

>  <r_i_glide_lipo>  (209) 
-0.138701

>  <r_i_glide_hbond>  (209) 
-0.0808054

>  <r_i_glide_metal>  (209) 
-0

>  <r_i_glide_rewards>  (209) 
-1.8392

>  <r_i_glide_evdw>  (209) 
-16.2654

>  <r_i_glide_ecoul>  (209) 
-2.08251

>  <r_i_glide_erotb>  (209) 
0

>  <r_i_glide_esite>  (209) 
-0.0784813

>  <r_i_glide_emodel>  (209) 
-22.2538

>  <r_i_glide_energy>  (209) 
-18.3479

>  <r_i_glide_einternal>  (209) 
0.14185

>  <r_i_glide_intrahb_reward>  (209) 
-0

>  <i_i_glide_confnum>  (209) 
6

>  <i_i_glide_posenum>  (209) 
32

>  <r_i_glide_eff_state_penalty>  (209) 
0

>  <ligand_id>  (209) 
78

>  <original_smiles>  (209) 
CC=C(C)C1C(=O)OC2(CCCC2)C1(F)F

>  <smiles>  (209) 
[H]C(=C(C([H])([H])[H])C1([H])C(=O)OC2(C([H])([H])C([H])([H])C([H])([H])C2([H])[H])C1(F)F)C([H])([H])[H]

$$$$
80:0:0
     RDKit          3D

 70 75  0  0  1  0  0  0  0  0999 V2000
    3.7596    0.7344    7.9748 C   0  0  0  0  0  0  0  0  0  0  0  0
    2.8922    1.3991    7.0606 O   0  0  0  0  0  0  0  0  0  0  0  0
    2.3060    0.5720    6.0478 C   0  0  2  0  0  0  0  0  0  0  0  0
    3.3862    0.0269    5.0247 C   0  0  0  0  0  0  0  0  0  0  0  0
    3.2394    0.1756    3.4506 C   0  0  1  0  0  0  0  0  0  0  0  0
    4.4279   -0.4188    2.9608 O   0  0  0  0  0  0  0  0  0  0  0  0
    1.9904   -0.3855    2.6526 C   0  0  1  0  0  0  0  0  0  0  0  0
    2.2119   -0.0638    1.2739 O   0  0  0  0  0  0  0  0  0  0  0  0
    1.9920   -1.9242    2.7070 C   0  0  0  0  0  0  0  0  0  0  0  0
    1.4692   -2.4693    4.0334 C   0  0  1  0  0  0  0  0  0  0  0  0
    2.4493   -2.9013    4.9401 O   0  0  0  0  0  0  0  0  0  0  0  0
    1.8647   -2.8530    6.2016 C   0  0  0  0  0  0  0  0  0  0  0  0
    0.7559   -1.9997    6.1906 O   0  0  0  0  0  0  0  0  0  0  0  0
    0.5676   -1.5414    4.8626 C   0  0  1  0  0  0  0  0  0  0  0  0
    0.3244    0.0446    4.5546 C   0  0  2  0  0  0  0  0  0  0  0  0
   -1.1607    0.1959    5.0730 C   0  0  1  0  0  0  0  0  0  0  0  0
   -2.1485   -0.8281    5.0706 O   0  0  0  0  0  0  0  0  0  0  0  0
   -0.9932    0.7109    6.4777 C   0  0  0  0  0  0  0  0  0  0  0  0
   -0.0447    1.8788    6.2351 C   0  0  2  0  0  0  0  0  0  0  0  0
   -0.8145    3.1784    5.6644 C   0  0  0  0  0  0  0  0  0  0  0  0
   -2.3701    3.1663    5.8205 C   0  0  0  0  0  0  0  0  0  0  0  0
   -0.4150    4.2843    6.6816 C   0  0  0  0  0  0  0  0  0  0  0  0
   -0.4485    3.5582    4.1337 C   0  0  2  0  0  0  0  0  0  0  0  0
   -1.1445    4.8903    3.7254 C   0  0  0  0  0  0  0  0  0  0  0  0
   -0.8789    2.5530    2.9720 C   0  0  0  0  0  0  0  0  0  0  0  0
    0.1187    1.5060    2.3430 C   0  0  0  0  0  0  0  0  0  0  0  0
    0.5412    0.1681    3.0355 C   0  0  1  0  0  0  0  0  0  0  0  0
    1.0682    3.7236    3.9929 C   0  0  1  0  0  0  0  0  0  0  0  0
    1.6993    5.1138    4.3009 C   0  0  0  0  0  0  0  0  0  0  0  0
    1.8162    2.5768    4.6841 C   0  0  0  0  0  0  0  0  0  0  0  0
    3.0225    2.8057    4.8234 O   0  0  0  0  0  0  0  0  0  0  0  0
    1.1134    1.2784    5.3342 C   0  0  1  0  0  0  0  0  0  0  0  0
    4.1250    1.4556    8.7042 H   0  0  0  0  0  0  0  0  0  0  0  0
    4.6278    0.2978    7.4820 H   0  0  0  0  0  0  0  0  0  0  0  0
    3.2379   -0.0523    8.5181 H   0  0  0  0  0  0  0  0  0  0  0  0
    1.9299   -0.2126    6.6792 H   0  0  0  0  0  0  0  0  0  0  0  0
    4.3143    0.5473    5.2627 H   0  0  0  0  0  0  0  0  0  0  0  0
    3.6475   -0.9913    5.2813 H   0  0  0  0  0  0  0  0  0  0  0  0
    3.3690    1.2028    3.1272 H   0  0  0  0  0  0  0  0  0  0  0  0
    5.1541    0.0570    3.3255 H   0  0  0  0  0  0  0  0  0  0  0  0
    1.5514   -0.4692    0.7127 H   0  0  0  0  0  0  0  0  0  0  0  0
    1.3477   -2.2913    1.9123 H   0  0  0  0  0  0  0  0  0  0  0  0
    2.9681   -2.3649    2.4879 H   0  0  0  0  0  0  0  0  0  0  0  0
    0.9197   -3.3897    3.8087 H   0  0  0  0  0  0  0  0  0  0  0  0
    1.5747   -3.8528    6.5320 H   0  0  0  0  0  0  0  0  0  0  0  0
    2.6266   -2.4546    6.8807 H   0  0  0  0  0  0  0  0  0  0  0  0
   -0.3420   -2.0609    4.5834 H   0  0  0  0  0  0  0  0  0  0  0  0
   -1.6918    0.9162    4.5101 H   0  0  0  0  0  0  0  0  0  0  0  0
   -2.7969   -0.5903    4.4217 H   0  0  0  0  0  0  0  0  0  0  0  0
   -1.9340    0.9461    6.9720 H   0  0  0  0  0  0  0  0  0  0  0  0
   -0.5079   -0.0392    7.1026 H   0  0  0  0  0  0  0  0  0  0  0  0
    0.3851    2.1074    7.2104 H   0  0  0  0  0  0  0  0  0  0  0  0
   -2.7899    4.1413    5.6463 H   0  0  0  0  0  0  0  0  0  0  0  0
   -2.6870    2.9124    6.8321 H   0  0  0  0  0  0  0  0  0  0  0  0
   -2.8830    2.5076    5.1258 H   0  0  0  0  0  0  0  0  0  0  0  0
   -0.8085    5.2689    6.4497 H   0  0  0  0  0  0  0  0  0  0  0  0
    0.6600    4.3623    6.8169 H   0  0  0  0  0  0  0  0  0  0  0  0
   -0.8066    4.0427    7.6711 H   0  0  0  0  0  0  0  0  0  0  0  0
   -0.7753    5.2535    2.7659 H   0  0  0  0  0  0  0  0  0  0  0  0
   -0.9624    5.6961    4.4257 H   0  0  0  0  0  0  0  0  0  0  0  0
   -2.2177    4.7586    3.6072 H   0  0  0  0  0  0  0  0  0  0  0  0
   -1.9035    2.1965    3.0554 H   0  0  0  0  0  0  0  0  0  0  0  0
   -1.0373    3.1747    2.0965 H   0  0  0  0  0  0  0  0  0  0  0  0
   -0.3464    1.2004    1.4069 H   0  0  0  0  0  0  0  0  0  0  0  0
    1.0127    2.0005    1.9781 H   0  0  0  0  0  0  0  0  0  0  0  0
   -0.1567   -0.5509    2.6127 H   0  0  0  0  0  0  0  0  0  0  0  0
    1.2968    3.6706    2.9328 H   0  0  0  0  0  0  0  0  0  0  0  0
    2.7237    5.1453    3.9309 H   0  0  0  0  0  0  0  0  0  0  0  0
    1.7532    5.3655    5.3540 H   0  0  0  0  0  0  0  0  0  0  0  0
    1.2060    5.9366    3.7859 H   0  0  0  0  0  0  0  0  0  0  0  0
  1  2  1  0
  1 33  1  0
  1 34  1  0
  1 35  1  0
  2  3  1  0
  3 32  1  0
  3  4  1  0
  3 36  1  1
  4  5  1  0
  4 37  1  0
  4 38  1  0
  5  6  1  0
  5  7  1  0
  5 39  1  1
  6 40  1  0
  7 27  1  0
  7  8  1  6
  7  9  1  0
  8 41  1  0
  9 10  1  0
  9 42  1  0
  9 43  1  0
 10 14  1  0
 10 11  1  0
 10 44  1  6
 11 12  1  0
 12 13  1  0
 12 45  1  0
 12 46  1  0
 13 14  1  0
 14 15  1  0
 14 47  1  6
 15 27  1  0
 15 32  1  1
 15 16  1  0
 16 17  1  0
 16 18  1  0
 16 48  1  6
 17 49  1  0
 18 19  1  0
 18 50  1  0
 18 51  1  0
 19 32  1  0
 19 20  1  0
 19 52  1  1
 20 21  1  0
 20 22  1  0
 20 23  1  0
 21 53  1  0
 21 54  1  0
 21 55  1  0
 22 56  1  0
 22 57  1  0
 22 58  1  0
 23 24  1  6
 23 25  1  0
 23 28  1  0
 24 59  1  0
 24 60  1  0
 24 61  1  0
 25 26  1  0
 25 62  1  0
 25 63  1  0
 26 27  1  0
 26 64  1  0
 26 65  1  0
 27 66  1  6
 28 29  1  0
 28 30  1  0
 28 67  1  6
 29 68  1  0
 29 69  1  0
 29 70  1  0
 30 31  2  0
 32 30  1  6
M  END
>  <i_m_ct_stereo_status>  (210) 
1

>  <s_m_source_file>  (210) 
/var/tmp/pbs.5076255.sched01/tmp403565pz/80s7duc8s0.sdf

>  <i_m_source_file_index>  (210) 
37

>  <i_lp_mmshare_version>  (210) 
48012

>  <i_f3d_flags>  (210) 
0

>  <s_epik_input>  (210) 
TzFbQ0gyXU9bQ0BASF0yW0NASF0xW0NIMl1bQ0BdKFtPSF0pKFtDQEhdKFtPSF0pW0NIMl1bQ0BIXTNPW0NIM10pW0NAQEhdNFtDSDJdW0NIMl1bQ0BdKFtDSDNdKShbQ0BASF0oW0NIM10pQzU9TylDKFtDSDNdKShbQ0gzXSlbQ0BIXShbQ0BdMzVbQ0BdMjQ2KVtDSDJdW0NAQEhdNltPSF0=

>  <s_epik_cmdline>  (210) 
J2VwaWtfcHl0aG9uJywgJy1waHQnLCAnMi4wJywgJy1waCcsICc3LjAnLCAnLXRuJywgJzgnLCAnLW1hJywgJzIwMCcsICctaW1hZScsICc8aW5maWxlLm1hZT4nLCAnLW9tYWUnLCAnPG91dGZpbGUubWFlPic=

>  <r_lp_tautomer_probability>  (210) 
1

>  <r_epik_Ionization_Penalty>  (210) 
2.41476e-07

>  <r_epik_Ionization_Penalty_Charging>  (210) 
0

>  <r_epik_Ionization_Penalty_Neutral>  (210) 
2.41476e-07

>  <r_epik_State_Penalty>  (210) 
-0

>  <r_epik_Charging_Adjusted_Penalty>  (210) 
0

>  <i_epik_Tot_Q>  (210) 
0

>  <i_epik_Tot_abs_Q>  (210) 
0

>  <s_epik_Chemistry_Notes>  (210) 
This compound contains an acetal/aminal-like group ( X-CH(R)-Y where X, Y are N, S, or O) that may be acid/base labile, releasing an aldehyde.

>  <s_lp_Force_Field>  (210) 
OPLS3e

>  <r_lp_Energy>  (210) 
157.569

>  <b_lp_Chiralities_Consistent>  (210) 
1

>  <s_lp_Variant>  (210) 
80:0-1

>  <s_i_glide_gridfile>  (210) 
pfpi4k_grid

>  <i_i_glide_lignum>  (210) 
37

>  <i_i_glide_rotatable_bonds>  (210) 
4

>  <r_i_docking_score>  (210) 
-2.49013

>  <r_i_glide_ligand_efficiency>  (210) 
-0.0778165

>  <r_i_glide_ligand_efficiency_sa>  (210) 
-0.247052

>  <r_i_glide_ligand_efficiency_ln>  (210) 
-0.557608

>  <r_i_glide_gscore>  (210) 
-2.49013

>  <r_i_glide_lipo>  (210) 
-0.0532597

>  <r_i_glide_hbond>  (210) 
0

>  <r_i_glide_metal>  (210) 
-0

>  <r_i_glide_rewards>  (210) 
-0.337057

>  <r_i_glide_evdw>  (210) 
-20.1029

>  <r_i_glide_ecoul>  (210) 
-7.2557

>  <r_i_glide_erotb>  (210) 
0

>  <r_i_glide_esite>  (210) 
-0.00631272

>  <r_i_glide_emodel>  (210) 
-30.2455

>  <r_i_glide_energy>  (210) 
-27.3586

>  <r_i_glide_einternal>  (210) 
1.73931

>  <r_i_glide_intrahb_reward>  (210) 
-0

>  <i_i_glide_confnum>  (210) 
1

>  <i_i_glide_posenum>  (210) 
9

>  <r_i_glide_eff_state_penalty>  (210) 
0

>  <ligand_id>  (210) 
80

>  <original_smiles>  (210) 
COC1CC(O)C2(O)CC3OCOC3C34C(O)CC5C(C)(C)C(C)(CCC23)C(C)C(=O)C154

>  <smiles>  (210) 
[H]OC1([H])C([H])([H])C([H])(OC([H])([H])[H])C23C(=O)C([H])(C([H])([H])[H])C4(C([H])([H])[H])C([H])([H])C([H])([H])C5([H])C1(O[H])C([H])([H])C1([H])OC([H])([H])OC1([H])C52C([H])(O[H])C([H])([H])C3([H])C4(C([H])([H])[H])C([H])([H])[H]

$$$$
80:0:1
     RDKit          3D

 70 75  0  0  1  0  0  0  0  0999 V2000
    3.4024    0.7979    8.0423 C   0  0  0  0  0  0  0  0  0  0  0  0
    3.6023    1.1533    6.6708 O   0  0  0  0  0  0  0  0  0  0  0  0
    2.9754    0.3398    5.6704 C   0  0  2  0  0  0  0  0  0  0  0  0
    4.0195   -0.0432    4.5460 C   0  0  0  0  0  0  0  0  0  0  0  0
    3.7547    0.1372    2.9939 C   0  0  1  0  0  0  0  0  0  0  0  0
    4.9497   -0.2930    2.3669 O   0  0  0  0  0  0  0  0  0  0  0  0
    2.4957   -0.5346    2.2706 C   0  0  1  0  0  0  0  0  0  0  0  0
    2.6076   -0.1858    0.8817 O   0  0  0  0  0  0  0  0  0  0  0  0
    2.6251   -2.0642    2.2549 C   0  0  0  0  0  0  0  0  0  0  0  0
    2.2757   -2.6845    3.5928 C   0  0  1  0  0  0  0  0  0  0  0  0
    3.3687   -3.0272    4.3866 O   0  0  0  0  0  0  0  0  0  0  0  0
    2.8639   -3.1219    5.6845 C   0  0  0  0  0  0  0  0  0  0  0  0
    1.6659   -2.3901    5.8001 O   0  0  0  0  0  0  0  0  0  0  0  0
    1.3604   -1.8736    4.5198 C   0  0  1  0  0  0  0  0  0  0  0  0
    0.9429   -0.3083    4.2959 C   0  0  2  0  0  0  0  0  0  0  0  0
   -0.5069   -0.3207    4.9300 C   0  0  1  0  0  0  0  0  0  0  0  0
   -1.3498   -1.4502    4.9973 O   0  0  0  0  0  0  0  0  0  0  0  0
   -0.2735    0.1643    6.3385 C   0  0  0  0  0  0  0  0  0  0  0  0
    0.5276    1.4311    6.0666 C   0  0  2  0  0  0  0  0  0  0  0  0
   -0.3856    2.6744    5.6281 C   0  0  0  0  0  0  0  0  0  0  0  0
   -1.9057    2.5059    5.9210 C   0  0  0  0  0  0  0  0  0  0  0  0
    0.0022    3.7747    6.6553 C   0  0  0  0  0  0  0  0  0  0  0  0
   -0.1729    3.1414    4.0938 C   0  0  2  0  0  0  0  0  0  0  0  0
   -1.0267    4.4126    3.8178 C   0  0  0  0  0  0  0  0  0  0  0  0
   -0.6005    2.1493    2.9292 C   0  0  0  0  0  0  0  0  0  0  0  0
    0.4372    1.2076    2.1851 C   0  0  0  0  0  0  0  0  0  0  0  0
    1.0307   -0.1216    2.7782 C   0  0  1  0  0  0  0  0  0  0  0  0
    1.3000    3.4456    3.8417 C   0  0  1  0  0  0  0  0  0  0  0  0
    1.8359    4.8715    4.1675 C   0  0  0  0  0  0  0  0  0  0  0  0
    2.2018    2.3477    4.4293 C   0  0  0  0  0  0  0  0  0  0  0  0
    3.3660    2.6725    4.4999 O   0  0  0  0  0  0  0  0  0  0  0  0
    1.6680    0.9634    5.0780 C   0  0  1  0  0  0  0  0  0  0  0  0
    3.9118    1.5195    8.6736 H   0  0  0  0  0  0  0  0  0  0  0  0
    3.8195   -0.1851    8.2679 H   0  0  0  0  0  0  0  0  0  0  0  0
    2.3548    0.7935    8.3466 H   0  0  0  0  0  0  0  0  0  0  0  0
    2.7609   -0.5495    6.2244 H   0  0  0  0  0  0  0  0  0  0  0  0
    4.9161    0.5491    4.7595 H   0  0  0  0  0  0  0  0  0  0  0  0
    4.4100   -1.0401    4.7381 H   0  0  0  0  0  0  0  0  0  0  0  0
    3.7388    1.1852    2.7064 H   0  0  0  0  0  0  0  0  0  0  0  0
    4.9815   -1.2433    2.4098 H   0  0  0  0  0  0  0  0  0  0  0  0
    1.8685   -0.5519    0.3579 H   0  0  0  0  0  0  0  0  0  0  0  0
    1.9174   -2.4371    1.5089 H   0  0  0  0  0  0  0  0  0  0  0  0
    3.5974   -2.4201    1.8918 H   0  0  0  0  0  0  0  0  0  0  0  0
    1.8037   -3.6492    3.3855 H   0  0  0  0  0  0  0  0  0  0  0  0
    2.7071   -4.1594    5.9716 H   0  0  0  0  0  0  0  0  0  0  0  0
    3.6321   -2.6790    6.3205 H   0  0  0  0  0  0  0  0  0  0  0  0
    0.4927   -2.4584    4.2540 H   0  0  0  0  0  0  0  0  0  0  0  0
   -1.1520    0.3618    4.4417 H   0  0  0  0  0  0  0  0  0  0  0  0
   -0.8376   -2.1867    5.3292 H   0  0  0  0  0  0  0  0  0  0  0  0
   -1.1785    0.2768    6.9333 H   0  0  0  0  0  0  0  0  0  0  0  0
    0.3642   -0.5254    6.8854 H   0  0  0  0  0  0  0  0  0  0  0  0
    0.9917    1.7017    7.0129 H   0  0  0  0  0  0  0  0  0  0  0  0
   -2.4430    3.4450    5.8315 H   0  0  0  0  0  0  0  0  0  0  0  0
   -2.0843    2.1898    6.9506 H   0  0  0  0  0  0  0  0  0  0  0  0
   -2.4094    1.8049    5.2613 H   0  0  0  0  0  0  0  0  0  0  0  0
   -0.4893    4.7314    6.5229 H   0  0  0  0  0  0  0  0  0  0  0  0
    1.0761    3.9375    6.7094 H   0  0  0  0  0  0  0  0  0  0  0  0
   -0.2728    3.4490    7.6639 H   0  0  0  0  0  0  0  0  0  0  0  0
   -0.7756    4.8557    2.8528 H   0  0  0  0  0  0  0  0  0  0  0  0
   -0.8663    5.2065    4.5412 H   0  0  0  0  0  0  0  0  0  0  0  0
   -2.0953    4.1922    3.7879 H   0  0  0  0  0  0  0  0  0  0  0  0
   -1.5788    1.6997    3.0843 H   0  0  0  0  0  0  0  0  0  0  0  0
   -0.8810    2.7964    2.0962 H   0  0  0  0  0  0  0  0  0  0  0  0
   -0.0921    0.8947    1.2892 H   0  0  0  0  0  0  0  0  0  0  0  0
    1.2559    1.7870    1.7598 H   0  0  0  0  0  0  0  0  0  0  0  0
    0.3724   -0.8783    2.3694 H   0  0  0  0  0  0  0  0  0  0  0  0
    1.4472    3.4586    2.7635 H   0  0  0  0  0  0  0  0  0  0  0  0
    2.8194    5.0043    3.7188 H   0  0  0  0  0  0  0  0  0  0  0  0
    1.9575    5.0830    5.2224 H   0  0  0  0  0  0  0  0  0  0  0  0
    1.2309    5.6653    3.7309 H   0  0  0  0  0  0  0  0  0  0  0  0
  1  2  1  0
  1 33  1  0
  1 34  1  0
  1 35  1  0
  2  3  1  0
  3 32  1  0
  3  4  1  0
  3 36  1  1
  4  5  1  0
  4 37  1  0
  4 38  1  0
  5  6  1  0
  5  7  1  0
  5 39  1  1
  6 40  1  0
  7 27  1  0
  7  8  1  6
  7  9  1  0
  8 41  1  0
  9 10  1  0
  9 42  1  0
  9 43  1  0
 10 14  1  0
 10 11  1  0
 10 44  1  6
 11 12  1  0
 12 13  1  0
 12 45  1  0
 12 46  1  0
 13 14  1  0
 14 15  1  0
 14 47  1  6
 15 27  1  0
 15 32  1  1
 15 16  1  0
 16 17  1  0
 16 18  1  0
 16 48  1  6
 17 49  1  0
 18 19  1  0
 18 50  1  0
 18 51  1  0
 19 32  1  0
 19 20  1  0
 19 52  1  1
 20 21  1  0
 20 22  1  0
 20 23  1  0
 21 53  1  0
 21 54  1  0
 21 55  1  0
 22 56  1  0
 22 57  1  0
 22 58  1  0
 23 24  1  6
 23 25  1  0
 23 28  1  0
 24 59  1  0
 24 60  1  0
 24 61  1  0
 25 26  1  0
 25 62  1  0
 25 63  1  0
 26 27  1  0
 26 64  1  0
 26 65  1  0
 27 66  1  6
 28 29  1  0
 28 30  1  0
 28 67  1  6
 29 68  1  0
 29 69  1  0
 29 70  1  0
 30 31  2  0
 32 30  1  6
M  END
>  <i_m_ct_stereo_status>  (211) 
1

>  <s_m_source_file>  (211) 
/var/tmp/pbs.5076255.sched01/tmp403565pz/80s7duc8s0.sdf

>  <i_m_source_file_index>  (211) 
37

>  <i_lp_mmshare_version>  (211) 
48012

>  <i_f3d_flags>  (211) 
0

>  <s_epik_input>  (211) 
TzFbQ0gyXU9bQ0BASF0yW0NASF0xW0NIMl1bQ0BdKFtPSF0pKFtDQEhdKFtPSF0pW0NIMl1bQ0BIXTNPW0NIM10pW0NAQEhdNFtDSDJdW0NIMl1bQ0BdKFtDSDNdKShbQ0BASF0oW0NIM10pQzU9TylDKFtDSDNdKShbQ0gzXSlbQ0BIXShbQ0BdMzVbQ0BdMjQ2KVtDSDJdW0NAQEhdNltPSF0=

>  <s_epik_cmdline>  (211) 
J2VwaWtfcHl0aG9uJywgJy1waHQnLCAnMi4wJywgJy1waCcsICc3LjAnLCAnLXRuJywgJzgnLCAnLW1hJywgJzIwMCcsICctaW1hZScsICc8aW5maWxlLm1hZT4nLCAnLW9tYWUnLCAnPG91dGZpbGUubWFlPic=

>  <r_lp_tautomer_probability>  (211) 
1

>  <r_epik_Ionization_Penalty>  (211) 
2.41476e-07

>  <r_epik_Ionization_Penalty_Charging>  (211) 
0

>  <r_epik_Ionization_Penalty_Neutral>  (211) 
2.41476e-07

>  <r_epik_State_Penalty>  (211) 
-0

>  <r_epik_Charging_Adjusted_Penalty>  (211) 
0

>  <i_epik_Tot_Q>  (211) 
0

>  <i_epik_Tot_abs_Q>  (211) 
0

>  <s_epik_Chemistry_Notes>  (211) 
This compound contains an acetal/aminal-like group ( X-CH(R)-Y where X, Y are N, S, or O) that may be acid/base labile, releasing an aldehyde.

>  <s_lp_Force_Field>  (211) 
OPLS3e

>  <r_lp_Energy>  (211) 
157.569

>  <b_lp_Chiralities_Consistent>  (211) 
1

>  <s_lp_Variant>  (211) 
80:0-1

>  <s_i_glide_gridfile>  (211) 
pfpi4k_grid

>  <i_i_glide_lignum>  (211) 
37

>  <i_i_glide_rotatable_bonds>  (211) 
4

>  <r_i_docking_score>  (211) 
-2.37404

>  <r_i_glide_ligand_efficiency>  (211) 
-0.0741888

>  <r_i_glide_ligand_efficiency_sa>  (211) 
-0.235535

>  <r_i_glide_ligand_efficiency_ln>  (211) 
-0.531613

>  <r_i_glide_gscore>  (211) 
-2.37404

>  <r_i_glide_lipo>  (211) 
-0.0531366

>  <r_i_glide_hbond>  (211) 
0

>  <r_i_glide_metal>  (211) 
-0

>  <r_i_glide_rewards>  (211) 
-0.337057

>  <r_i_glide_evdw>  (211) 
-19.2148

>  <r_i_glide_ecoul>  (211) 
-6.78649

>  <r_i_glide_erotb>  (211) 
0

>  <r_i_glide_esite>  (211) 
-0.0051341

>  <r_i_glide_emodel>  (211) 
-28.0265

>  <r_i_glide_energy>  (211) 
-26.0013

>  <r_i_glide_einternal>  (211) 
2.56416

>  <r_i_glide_intrahb_reward>  (211) 
-0

>  <i_i_glide_confnum>  (211) 
1

>  <i_i_glide_posenum>  (211) 
15

>  <r_i_glide_eff_state_penalty>  (211) 
0

>  <ligand_id>  (211) 
80

>  <original_smiles>  (211) 
COC1CC(O)C2(O)CC3OCOC3C34C(O)CC5C(C)(C)C(C)(CCC23)C(C)C(=O)C154

>  <smiles>  (211) 
[H]OC1([H])C([H])([H])C([H])(OC([H])([H])[H])C23C(=O)C([H])(C([H])([H])[H])C4(C([H])([H])[H])C([H])([H])C([H])([H])C5([H])C1(O[H])C([H])([H])C1([H])OC([H])([H])OC1([H])C52C([H])(O[H])C([H])([H])C3([H])C4(C([H])([H])[H])C([H])([H])[H]

$$$$
80:0:2
     RDKit          3D

 70 75  0  0  1  0  0  0  0  0999 V2000
    3.0202    1.4186    8.3427 C   0  0  0  0  0  0  0  0  0  0  0  0
    3.2380    1.6423    6.9508 O   0  0  0  0  0  0  0  0  0  0  0  0
    2.6191    0.7444    6.0198 C   0  0  2  0  0  0  0  0  0  0  0  0
    3.6772    0.2111    4.9734 C   0  0  0  0  0  0  0  0  0  0  0  0
    3.4613    0.2292    3.3957 C   0  0  1  0  0  0  0  0  0  0  0  0
    4.6293   -0.4069    2.9094 O   0  0  0  0  0  0  0  0  0  0  0  0
    2.2012   -0.4451    2.6989 C   0  0  1  0  0  0  0  0  0  0  0  0
    2.3313   -0.1825    1.2939 O   0  0  0  0  0  0  0  0  0  0  0  0
    2.2684   -1.9801    2.8307 C   0  0  0  0  0  0  0  0  0  0  0  0
    1.8673   -2.4465    4.2264 C   0  0  1  0  0  0  0  0  0  0  0  0
    2.9226   -2.7568    5.0912 O   0  0  0  0  0  0  0  0  0  0  0  0
    2.3718   -2.7041    6.3709 C   0  0  0  0  0  0  0  0  0  0  0  0
    1.2114   -1.9105    6.3816 O   0  0  0  0  0  0  0  0  0  0  0  0
    0.9576   -1.5159    5.0391 C   0  0  1  0  0  0  0  0  0  0  0  0
    0.6114    0.0389    4.6491 C   0  0  2  0  0  0  0  0  0  0  0  0
   -0.8536    0.1440    5.2354 C   0  0  1  0  0  0  0  0  0  0  0  0
   -1.7547   -0.9452    5.3909 O   0  0  0  0  0  0  0  0  0  0  0  0
   -0.6425    0.7727    6.5815 C   0  0  0  0  0  0  0  0  0  0  0  0
    0.2234    1.9668    6.2206 C   0  0  2  0  0  0  0  0  0  0  0  0
   -0.6205    3.1906    5.6043 C   0  0  0  0  0  0  0  0  0  0  0  0
   -2.1565    3.1115    5.8657 C   0  0  0  0  0  0  0  0  0  0  0  0
   -0.2213    4.3781    6.5238 C   0  0  0  0  0  0  0  0  0  0  0  0
   -0.3469    3.4783    4.0433 C   0  0  2  0  0  0  0  0  0  0  0  0
   -1.1456    4.7369    3.5996 C   0  0  0  0  0  0  0  0  0  0  0  0
   -0.7926    2.3859    2.9701 C   0  0  0  0  0  0  0  0  0  0  0  0
    0.2199    1.3360    2.3727 C   0  0  0  0  0  0  0  0  0  0  0  0
    0.7442    0.0580    3.1138 C   0  0  1  0  0  0  0  0  0  0  0  0
    1.1491    3.6933    3.8051 C   0  0  1  0  0  0  0  0  0  0  0  0
    1.7254    5.1252    3.9991 C   0  0  0  0  0  0  0  0  0  0  0  0
    1.9685    2.6317    4.5404 C   0  0  0  0  0  0  0  0  0  0  0  0
    3.1628    2.9153    4.6003 O   0  0  0  0  0  0  0  0  0  0  0  0
    1.3689    1.3539    5.3150 C   0  0  1  0  0  0  0  0  0  0  0  0
    3.5608    2.1762    8.8908 H   0  0  0  0  0  0  0  0  0  0  0  0
    3.4203    0.4647    8.6765 H   0  0  0  0  0  0  0  0  0  0  0  0
    1.9767    1.4894    8.6355 H   0  0  0  0  0  0  0  0  0  0  0  0
    2.3625   -0.0801    6.6528 H   0  0  0  0  0  0  0  0  0  0  0  0
    4.5855    0.7866    5.1542 H   0  0  0  0  0  0  0  0  0  0  0  0
    4.0152   -0.7749    5.2657 H   0  0  0  0  0  0  0  0  0  0  0  0
    3.5423    1.2315    2.9739 H   0  0  0  0  0  0  0  0  0  0  0  0
    5.3562    0.1157    3.2008 H   0  0  0  0  0  0  0  0  0  0  0  0
    1.6585   -0.6252    0.7713 H   0  0  0  0  0  0  0  0  0  0  0  0
    1.5719   -2.4101    2.1131 H   0  0  0  0  0  0  0  0  0  0  0  0
    3.2333   -2.4035    2.5450 H   0  0  0  0  0  0  0  0  0  0  0  0
    1.3682   -3.4156    4.1124 H   0  0  0  0  0  0  0  0  0  0  0  0
    2.1499   -3.7070    6.7478 H   0  0  0  0  0  0  0  0  0  0  0  0
    3.1398   -2.2345    6.9952 H   0  0  0  0  0  0  0  0  0  0  0  0
    0.0745   -2.0992    4.8130 H   0  0  0  0  0  0  0  0  0  0  0  0
   -1.4614    0.7777    4.6439 H   0  0  0  0  0  0  0  0  0  0  0  0
   -2.0001   -1.2215    4.5312 H   0  0  0  0  0  0  0  0  0  0  0  0
   -1.5679    0.9577    7.1291 H   0  0  0  0  0  0  0  0  0  0  0  0
   -0.0456    0.1119    7.2017 H   0  0  0  0  0  0  0  0  0  0  0  0
    0.6735    2.2984    7.1474 H   0  0  0  0  0  0  0  0  0  0  0  0
   -2.6545    4.0566    5.6623 H   0  0  0  0  0  0  0  0  0  0  0  0
   -2.3697    2.9094    6.9132 H   0  0  0  0  0  0  0  0  0  0  0  0
   -2.6682    2.3630    5.2647 H   0  0  0  0  0  0  0  0  0  0  0  0
   -0.6637    5.3387    6.2769 H   0  0  0  0  0  0  0  0  0  0  0  0
    0.8551    4.4923    6.5936 H   0  0  0  0  0  0  0  0  0  0  0  0
   -0.5421    4.1633    7.5421 H   0  0  0  0  0  0  0  0  0  0  0  0
   -0.8750    5.0811    2.6014 H   0  0  0  0  0  0  0  0  0  0  0  0
   -0.9580    5.5826    4.2507 H   0  0  0  0  0  0  0  0  0  0  0  0
   -2.2192    4.5383    3.5722 H   0  0  0  0  0  0  0  0  0  0  0  0
   -1.7963    1.9918    3.1398 H   0  0  0  0  0  0  0  0  0  0  0  0
   -1.0006    2.9415    2.0636 H   0  0  0  0  0  0  0  0  0  0  0  0
   -0.2763    0.9488    1.4835 H   0  0  0  0  0  0  0  0  0  0  0  0
    1.0749    1.8439    1.9319 H   0  0  0  0  0  0  0  0  0  0  0  0
    0.0673   -0.7186    2.7742 H   0  0  0  0  0  0  0  0  0  0  0  0
    1.3244    3.5964    2.7369 H   0  0  0  0  0  0  0  0  0  0  0  0
    2.7282    5.1699    3.5756 H   0  0  0  0  0  0  0  0  0  0  0  0
    1.8242    5.4416    5.0296 H   0  0  0  0  0  0  0  0  0  0  0  0
    1.1704    5.8921    3.4602 H   0  0  0  0  0  0  0  0  0  0  0  0
  1  2  1  0
  1 33  1  0
  1 34  1  0
  1 35  1  0
  2  3  1  0
  3 32  1  0
  3  4  1  0
  3 36  1  1
  4  5  1  0
  4 37  1  0
  4 38  1  0
  5  6  1  0
  5  7  1  0
  5 39  1  6
  6 40  1  0
  7 27  1  0
  7  8  1  6
  7  9  1  0
  8 41  1  0
  9 10  1  0
  9 42  1  0
  9 43  1  0
 10 14  1  0
 10 11  1  0
 10 44  1  6
 11 12  1  0
 12 13  1  0
 12 45  1  0
 12 46  1  0
 13 14  1  0
 14 15  1  0
 14 47  1  6
 15 27  1  0
 15 32  1  1
 15 16  1  0
 16 17  1  0
 16 18  1  0
 16 48  1  6
 17 49  1  0
 18 19  1  0
 18 50  1  0
 18 51  1  0
 19 32  1  0
 19 20  1  0
 19 52  1  1
 20 21  1  0
 20 22  1  0
 20 23  1  0
 21 53  1  0
 21 54  1  0
 21 55  1  0
 22 56  1  0
 22 57  1  0
 22 58  1  0
 23 24  1  6
 23 25  1  0
 23 28  1  0
 24 59  1  0
 24 60  1  0
 24 61  1  0
 25 26  1  0
 25 62  1  0
 25 63  1  0
 26 27  1  0
 26 64  1  0
 26 65  1  0
 27 66  1  6
 28 29  1  0
 28 30  1  0
 28 67  1  6
 29 68  1  0
 29 69  1  0
 29 70  1  0
 30 31  2  0
 32 30  1  6
M  END
>  <i_m_ct_stereo_status>  (212) 
1

>  <s_m_source_file>  (212) 
/var/tmp/pbs.5076255.sched01/tmp403565pz/80s7duc8s0.sdf

>  <i_m_source_file_index>  (212) 
37

>  <i_lp_mmshare_version>  (212) 
48012

>  <i_f3d_flags>  (212) 
0

>  <s_epik_input>  (212) 
TzFbQ0gyXU9bQ0BASF0yW0NASF0xW0NIMl1bQ0BdKFtPSF0pKFtDQEhdKFtPSF0pW0NIMl1bQ0BIXTNPW0NIM10pW0NAQEhdNFtDSDJdW0NIMl1bQ0BdKFtDSDNdKShbQ0BASF0oW0NIM10pQzU9TylDKFtDSDNdKShbQ0gzXSlbQ0BIXShbQ0BdMzVbQ0BdMjQ2KVtDSDJdW0NAQEhdNltPSF0=

>  <s_epik_cmdline>  (212) 
J2VwaWtfcHl0aG9uJywgJy1waHQnLCAnMi4wJywgJy1waCcsICc3LjAnLCAnLXRuJywgJzgnLCAnLW1hJywgJzIwMCcsICctaW1hZScsICc8aW5maWxlLm1hZT4nLCAnLW9tYWUnLCAnPG91dGZpbGUubWFlPic=

>  <r_lp_tautomer_probability>  (212) 
1

>  <r_epik_Ionization_Penalty>  (212) 
2.41476e-07

>  <r_epik_Ionization_Penalty_Charging>  (212) 
0

>  <r_epik_Ionization_Penalty_Neutral>  (212) 
2.41476e-07

>  <r_epik_State_Penalty>  (212) 
-0

>  <r_epik_Charging_Adjusted_Penalty>  (212) 
0

>  <i_epik_Tot_Q>  (212) 
0

>  <i_epik_Tot_abs_Q>  (212) 
0

>  <s_epik_Chemistry_Notes>  (212) 
This compound contains an acetal/aminal-like group ( X-CH(R)-Y where X, Y are N, S, or O) that may be acid/base labile, releasing an aldehyde.

>  <s_lp_Force_Field>  (212) 
OPLS3e

>  <r_lp_Energy>  (212) 
157.569

>  <b_lp_Chiralities_Consistent>  (212) 
1

>  <s_lp_Variant>  (212) 
80:0-1

>  <s_i_glide_gridfile>  (212) 
pfpi4k_grid

>  <i_i_glide_lignum>  (212) 
37

>  <i_i_glide_rotatable_bonds>  (212) 
4

>  <r_i_docking_score>  (212) 
-2.30892

>  <r_i_glide_ligand_efficiency>  (212) 
-0.0721538

>  <r_i_glide_ligand_efficiency_sa>  (212) 
-0.229074

>  <r_i_glide_ligand_efficiency_ln>  (212) 
-0.51703

>  <r_i_glide_gscore>  (212) 
-2.30892

>  <r_i_glide_lipo>  (212) 
-0.0444781

>  <r_i_glide_hbond>  (212) 
0

>  <r_i_glide_metal>  (212) 
-0

>  <r_i_glide_rewards>  (212) 
-0.337057

>  <r_i_glide_evdw>  (212) 
-20.1138

>  <r_i_glide_ecoul>  (212) 
-6.09949

>  <r_i_glide_erotb>  (212) 
0

>  <r_i_glide_esite>  (212) 
-0.006776

>  <r_i_glide_emodel>  (212) 
-27.9686

>  <r_i_glide_energy>  (212) 
-26.2132

>  <r_i_glide_einternal>  (212) 
3.17031

>  <r_i_glide_intrahb_reward>  (212) 
-0

>  <i_i_glide_confnum>  (212) 
1

>  <i_i_glide_posenum>  (212) 
21

>  <r_i_glide_eff_state_penalty>  (212) 
0

>  <ligand_id>  (212) 
80

>  <original_smiles>  (212) 
COC1CC(O)C2(O)CC3OCOC3C34C(O)CC5C(C)(C)C(C)(CCC23)C(C)C(=O)C154

>  <smiles>  (212) 
[H]OC1([H])C([H])([H])C([H])(OC([H])([H])[H])C23C(=O)C([H])(C([H])([H])[H])C4(C([H])([H])[H])C([H])([H])C([H])([H])C5([H])C1(O[H])C([H])([H])C1([H])OC([H])([H])OC1([H])C52C([H])(O[H])C([H])([H])C3([H])C4(C([H])([H])[H])C([H])([H])[H]

$$$$
81:0:0
     RDKit          3D

 59 64  0  0  1  0  0  0  0  0999 V2000
    4.7552   -2.8078   -2.6505 C   0  0  0  0  0  0  0  0  0  0  0  0
    4.5358   -2.5039   -1.1470 C   0  0  2  0  0  0  0  0  0  0  0  0
    5.8657   -2.8898   -0.4189 C   0  0  1  0  0  0  0  0  0  0  0  0
    6.8063   -1.8507   -0.6565 O   0  0  0  0  0  0  0  0  0  0  0  0
    5.8296   -3.1240    1.1118 C   0  0  2  0  0  0  0  0  0  0  0  0
    5.6071   -4.5801    1.5805 C   0  0  1  0  0  0  0  0  0  0  0  0
    5.5019   -4.7083    3.1757 C   0  0  0  0  0  0  0  0  0  0  0  0
    4.9763   -3.4629    4.0446 C   0  0  1  0  0  0  0  0  0  0  0  0
    5.7643   -3.4469    5.2386 O   0  0  0  0  0  0  0  0  0  0  0  0
    5.3382   -2.2039    3.2695 C   0  0  0  0  0  0  0  0  0  0  0  0
    4.7519   -2.3159    1.8648 C   0  0  1  0  0  0  0  0  0  0  0  0
    4.8341   -0.9543    1.4427 O   0  0  0  0  0  0  0  0  0  0  0  0
    3.3099   -3.0219    1.6933 C   0  0  1  0  0  0  0  0  0  0  0  0
    2.5319   -2.2791    0.6179 C   0  0  0  0  0  0  0  0  0  0  0  0
    3.2037   -3.0762   -0.5313 C   0  0  1  0  0  0  0  0  0  0  0  0
    2.1830   -3.2745   -1.6758 C   0  0  0  0  0  0  0  0  0  0  0  0
    3.2993   -4.1646    0.5802 C   0  0  2  0  0  0  0  0  0  0  0  0
    2.1731   -5.0458    0.4367 O   0  0  0  0  0  0  0  0  0  0  0  0
    4.4289   -5.1911    0.7769 C   0  0  1  0  0  0  0  0  0  0  0  0
    4.8799   -5.6563   -0.4661 O   0  0  0  0  0  0  0  0  0  0  0  0
    2.6477   -3.5166    3.0943 C   0  0  2  0  0  0  0  0  0  0  0  0
    2.5632   -4.9468    3.0473 O   0  0  0  0  0  0  0  0  0  0  0  0
    1.1982   -3.1290    3.3632 C   0  0  0  0  0  0  0  0  0  0  0  0
    0.6148   -3.4218    4.5370 C   0  0  0  0  0  0  0  0  0  0  0  0
    1.3248   -4.1144    5.7225 C   0  0  0  0  0  0  0  0  0  0  0  0
    2.8629   -4.1591    5.5366 C   0  0  0  0  0  0  0  0  0  0  0  0
    3.5579   -4.8744    6.2690 O   0  0  0  0  0  0  0  0  0  0  0  0
    3.4657   -3.2670    4.4166 C   0  0  1  0  0  0  0  0  0  0  0  0
    3.1868   -1.8157    4.9733 C   0  0  0  0  0  0  0  0  0  0  0  0
    4.7633   -3.8805   -2.8499 H   0  0  0  0  0  0  0  0  0  0  0  0
    5.7087   -2.4108   -2.9991 H   0  0  0  0  0  0  0  0  0  0  0  0
    3.9983   -2.3457   -3.2862 H   0  0  0  0  0  0  0  0  0  0  0  0
    4.4518   -1.4170   -1.1078 H   0  0  0  0  0  0  0  0  0  0  0  0
    6.3214   -3.7559   -0.8915 H   0  0  0  0  0  0  0  0  0  0  0  0
    6.6508   -1.1908   -0.0158 H   0  0  0  0  0  0  0  0  0  0  0  0
    6.8444   -2.8790    1.4309 H   0  0  0  0  0  0  0  0  0  0  0  0
    6.5051   -5.1553    1.3030 H   0  0  0  0  0  0  0  0  0  0  0  0
    4.9551   -5.6197    3.4515 H   0  0  0  0  0  0  0  0  0  0  0  0
    6.5065   -4.9447    3.5083 H   0  0  0  0  0  0  0  0  0  0  0  0
    5.5023   -4.1957    5.7472 H   0  0  0  0  0  0  0  0  0  0  0  0
    5.1062   -1.2624    3.7584 H   0  0  0  0  0  0  0  0  0  0  0  0
    6.3774   -2.0664    3.1808 H   0  0  0  0  0  0  0  0  0  0  0  0
    4.4083   -0.8889    0.6124 H   0  0  0  0  0  0  0  0  0  0  0  0
    1.4717   -2.4844    0.6985 H   0  0  0  0  0  0  0  0  0  0  0  0
    2.6393   -1.1880    0.5558 H   0  0  0  0  0  0  0  0  0  0  0  0
    1.1860   -3.5220   -1.3038 H   0  0  0  0  0  0  0  0  0  0  0  0
    2.4416   -4.0638   -2.3657 H   0  0  0  0  0  0  0  0  0  0  0  0
    2.0365   -2.3674   -2.2667 H   0  0  0  0  0  0  0  0  0  0  0  0
    2.2881   -5.4812   -0.3791 H   0  0  0  0  0  0  0  0  0  0  0  0
    4.0995   -6.0788    1.3073 H   0  0  0  0  0  0  0  0  0  0  0  0
    4.1462   -5.8571   -1.0207 H   0  0  0  0  0  0  0  0  0  0  0  0
    3.4205   -5.3016    2.9930 H   0  0  0  0  0  0  0  0  0  0  0  0
    0.6414   -2.6256    2.5900 H   0  0  0  0  0  0  0  0  0  0  0  0
   -0.4335   -3.1794    4.6901 H   0  0  0  0  0  0  0  0  0  0  0  0
    1.0955   -3.5615    6.6286 H   0  0  0  0  0  0  0  0  0  0  0  0
    0.9358   -5.1221    5.8408 H   0  0  0  0  0  0  0  0  0  0  0  0
    3.0664   -1.0806    4.1772 H   0  0  0  0  0  0  0  0  0  0  0  0
    3.9877   -1.4867    5.6340 H   0  0  0  0  0  0  0  0  0  0  0  0
    2.2811   -1.7057    5.5693 H   0  0  0  0  0  0  0  0  0  0  0  0
  1  2  1  0
  1 30  1  0
  1 31  1  0
  1 32  1  0
  2 15  1  0
  2  3  1  0
  2 33  1  6
  3  4  1  0
  3  5  1  0
  3 34  1  6
  4 35  1  0
  5 11  1  0
  5  6  1  0
  5 36  1  1
  6 19  1  0
  6  7  1  0
  6 37  1  6
  7  8  1  0
  7 38  1  0
  7 39  1  0
  8 28  1  0
  8  9  1  1
  8 10  1  0
  9 40  1  0
 10 11  1  0
 10 41  1  0
 10 42  1  0
 11 12  1  6
 11 13  1  0
 12 43  1  0
 13 17  1  0
 13 14  1  6
 13 21  1  0
 14 15  1  0
 14 44  1  0
 14 45  1  0
 15 16  1  6
 15 17  1  0
 16 46  1  0
 16 47  1  0
 16 48  1  0
 17 18  1  1
 17 19  1  0
 18 49  1  0
 19 20  1  0
 19 50  1  1
 20 51  1  0
 21 28  1  0
 21 22  1  6
 21 23  1  0
 22 52  1  0
 23 24  2  0
 23 53  1  0
 24 25  1  0
 24 54  1  0
 25 26  1  0
 25 55  1  0
 25 56  1  0
 26 27  2  0
 26 28  1  0
 28 29  1  1
 29 57  1  0
 29 58  1  0
 29 59  1  0
M  END
>  <i_m_ct_stereo_status>  (213) 
1

>  <s_m_source_file>  (213) 
/var/tmp/pbs.5076255.sched01/tmp403565pz/80s7duc8s0.sdf

>  <i_m_source_file_index>  (213) 
38

>  <i_lp_mmshare_version>  (213) 
48012

>  <i_f3d_flags>  (213) 
0

>  <s_epik_input>  (213) 
W09IXVtDQEBIXTFbQ0BASF0oW0NIM10pW0NAQF0oW0NIMl0yKShbQ0gzXSlbQ0BAXTMoW09IXSlbQ0BASF0oW09IXSlbQ0BASF0oW0NAQEhdMVtDQF00KFtDQEBdMjM1KVtPSF0pW0NIMl1bQ0BAXShbT0hdKShbQ0gyXTQpW0NAQF02KFtDSDNdKVtDQEBdNShbT0hdKVtDSF09W0NIXVtDSDJdQzY9Tw==

>  <s_epik_cmdline>  (213) 
J2VwaWtfcHl0aG9uJywgJy1waHQnLCAnMi4wJywgJy1waCcsICc3LjAnLCAnLXRuJywgJzgnLCAnLW1hJywgJzIwMCcsICctaW1hZScsICc8aW5maWxlLm1hZT4nLCAnLW9tYWUnLCAnPG91dGZpbGUubWFlPic=

>  <r_lp_tautomer_probability>  (213) 
1

>  <r_epik_Ionization_Penalty>  (213) 
2.12575e-06

>  <r_epik_Ionization_Penalty_Charging>  (213) 
0

>  <r_epik_Ionization_Penalty_Neutral>  (213) 
2.12575e-06

>  <r_epik_State_Penalty>  (213) 
-0

>  <r_epik_Charging_Adjusted_Penalty>  (213) 
0

>  <i_epik_Tot_Q>  (213) 
0

>  <i_epik_Tot_abs_Q>  (213) 
0

>  <s_lp_Force_Field>  (213) 
OPLS3e

>  <r_lp_Energy>  (213) 
133.08

>  <b_lp_Chiralities_Consistent>  (213) 
1

>  <s_lp_Variant>  (213) 
81:0-1

>  <s_i_glide_gridfile>  (213) 
pfpi4k_grid

>  <i_i_glide_lignum>  (213) 
38

>  <i_i_glide_rotatable_bonds>  (213) 
6

>  <r_i_docking_score>  (213) 
-3.6793

>  <r_i_glide_ligand_efficiency>  (213) 
-0.126872

>  <r_i_glide_ligand_efficiency_sa>  (213) 
-0.389792

>  <r_i_glide_ligand_efficiency_ln>  (213) 
-0.842466

>  <r_i_glide_gscore>  (213) 
-3.6793

>  <r_i_glide_lipo>  (213) 
-0.657459

>  <r_i_glide_hbond>  (213) 
0

>  <r_i_glide_metal>  (213) 
-0

>  <r_i_glide_rewards>  (213) 
-1.13771

>  <r_i_glide_evdw>  (213) 
-11.035

>  <r_i_glide_ecoul>  (213) 
-8.88254

>  <r_i_glide_erotb>  (213) 
0

>  <r_i_glide_esite>  (213) 
0

>  <r_i_glide_emodel>  (213) 
-28.0408

>  <r_i_glide_energy>  (213) 
-19.9175

>  <r_i_glide_einternal>  (213) 
2.03179

>  <r_i_glide_intrahb_reward>  (213) 
-0.5

>  <i_i_glide_confnum>  (213) 
1

>  <i_i_glide_posenum>  (213) 
13

>  <r_i_glide_eff_state_penalty>  (213) 
0

>  <ligand_id>  (213) 
81

>  <original_smiles>  (213) 
CC1C(O)C2C3CC4(O)CC2(O)C2(CC1(C)C2(O)C3O)C1(O)C=CCC(=O)C41C

>  <smiles>  (213) 
[H]OC1([H])C2([H])C3([H])C([H])([H])C4(O[H])C([H])([H])C2(O[H])C2(C([H])([H])C(C([H])([H])[H])(C1([H])C([H])([H])[H])C2(O[H])C3([H])O[H])C1(O[H])C([H])=C([H])C([H])([H])C(=O)C14C([H])([H])[H]

$$$$
81:0:1
     RDKit          3D

 59 64  0  0  1  0  0  0  0  0999 V2000
    4.5291   -0.6022   -2.1652 C   0  0  0  0  0  0  0  0  0  0  0  0
    3.9086   -1.3508   -0.9664 C   0  0  2  0  0  0  0  0  0  0  0  0
    4.6543   -0.9069    0.3315 C   0  0  1  0  0  0  0  0  0  0  0  0
    4.2061    0.3643    0.7363 O   0  0  0  0  0  0  0  0  0  0  0  0
    4.5387   -1.7904    1.5886 C   0  0  2  0  0  0  0  0  0  0  0  0
    5.6724   -2.8164    1.7676 C   0  0  1  0  0  0  0  0  0  0  0  0
    5.4305   -3.7573    3.0476 C   0  0  0  0  0  0  0  0  0  0  0  0
    3.9590   -4.0386    3.5825 C   0  0  1  0  0  0  0  0  0  0  0  0
    4.0324   -4.0374    4.9889 O   0  0  0  0  0  0  0  0  0  0  0  0
    3.1546   -2.8184    3.2308 C   0  0  0  0  0  0  0  0  0  0  0  0
    3.2491   -2.6137    1.7106 C   0  0  1  0  0  0  0  0  0  0  0  0
    2.1102   -1.8038    1.5145 O   0  0  0  0  0  0  0  0  0  0  0  0
    3.3274   -3.9119    0.7463 C   0  0  1  0  0  0  0  0  0  0  0  0
    2.5575   -3.6532   -0.5660 C   0  0  0  0  0  0  0  0  0  0  0  0
    3.7629   -2.9005   -1.1957 C   0  0  1  0  0  0  0  0  0  0  0  0
    3.7724   -3.1621   -2.7250 C   0  0  0  0  0  0  0  0  0  0  0  0
    4.5594   -3.8645   -0.2701 C   0  0  2  0  0  0  0  0  0  0  0  0
    4.9123   -5.0312   -0.9955 O   0  0  0  0  0  0  0  0  0  0  0  0
    5.8963   -3.5552    0.4240 C   0  0  1  0  0  0  0  0  0  0  0  0
    6.7480   -2.8375   -0.4479 O   0  0  0  0  0  0  0  0  0  0  0  0
    3.2458   -5.3241    1.5356 C   0  0  2  0  0  0  0  0  0  0  0  0
    4.4994   -5.9691    1.3490 O   0  0  0  0  0  0  0  0  0  0  0  0
    2.2854   -6.3792    1.0101 C   0  0  0  0  0  0  0  0  0  0  0  0
    2.0937   -7.5254    1.6815 C   0  0  0  0  0  0  0  0  0  0  0  0
    2.7767   -7.8879    3.0169 C   0  0  0  0  0  0  0  0  0  0  0  0
    3.4610   -6.6702    3.6598 C   0  0  0  0  0  0  0  0  0  0  0  0
    4.2405   -6.8153    4.6159 O   0  0  0  0  0  0  0  0  0  0  0  0
    3.1036   -5.2748    3.0920 C   0  0  1  0  0  0  0  0  0  0  0  0
    1.5960   -5.1187    3.5148 C   0  0  0  0  0  0  0  0  0  0  0  0
    5.5427   -0.9447   -2.3646 H   0  0  0  0  0  0  0  0  0  0  0  0
    4.5767    0.4571   -1.9874 H   0  0  0  0  0  0  0  0  0  0  0  0
    3.9326   -0.6504   -3.0757 H   0  0  0  0  0  0  0  0  0  0  0  0
    2.9121   -0.9411   -0.9014 H   0  0  0  0  0  0  0  0  0  0  0  0
    5.7092   -0.7280    0.1227 H   0  0  0  0  0  0  0  0  0  0  0  0
    4.5542    1.0005    0.1263 H   0  0  0  0  0  0  0  0  0  0  0  0
    4.6586   -1.0906    2.4253 H   0  0  0  0  0  0  0  0  0  0  0  0
    6.5906   -2.2696    1.9734 H   0  0  0  0  0  0  0  0  0  0  0  0
    5.9776   -4.6868    2.9404 H   0  0  0  0  0  0  0  0  0  0  0  0
    5.9214   -3.2406    3.8805 H   0  0  0  0  0  0  0  0  0  0  0  0
    4.4649   -4.8396    5.2447 H   0  0  0  0  0  0  0  0  0  0  0  0
    2.1245   -2.8266    3.5760 H   0  0  0  0  0  0  0  0  0  0  0  0
    3.5089   -1.9566    3.8153 H   0  0  0  0  0  0  0  0  0  0  0  0
    2.0763   -1.4793    0.6212 H   0  0  0  0  0  0  0  0  0  0  0  0
    2.3086   -4.5655   -1.1117 H   0  0  0  0  0  0  0  0  0  0  0  0
    1.6551   -3.0579   -0.4969 H   0  0  0  0  0  0  0  0  0  0  0  0
    3.5452   -4.2060   -2.9916 H   0  0  0  0  0  0  0  0  0  0  0  0
    4.7412   -2.9655   -3.1885 H   0  0  0  0  0  0  0  0  0  0  0  0
    3.0016   -2.5842   -3.2432 H   0  0  0  0  0  0  0  0  0  0  0  0
    4.1786   -5.2342   -1.5604 H   0  0  0  0  0  0  0  0  0  0  0  0
    6.4605   -4.4639    0.6577 H   0  0  0  0  0  0  0  0  0  0  0  0
    6.9387   -3.4104   -1.1750 H   0  0  0  0  0  0  0  0  0  0  0  0
    4.6986   -5.9510    0.4202 H   0  0  0  0  0  0  0  0  0  0  0  0
    1.7804   -6.1961    0.0696 H   0  0  0  0  0  0  0  0  0  0  0  0
    1.4353   -8.2976    1.2779 H   0  0  0  0  0  0  0  0  0  0  0  0
    2.0191   -8.2790    3.7018 H   0  0  0  0  0  0  0  0  0  0  0  0
    3.5028   -8.6848    2.8450 H   0  0  0  0  0  0  0  0  0  0  0  0
    1.0352   -4.4809    2.8299 H   0  0  0  0  0  0  0  0  0  0  0  0
    1.5085   -4.7178    4.5220 H   0  0  0  0  0  0  0  0  0  0  0  0
    1.0351   -6.0483    3.5454 H   0  0  0  0  0  0  0  0  0  0  0  0
  1  2  1  0
  1 30  1  0
  1 31  1  0
  1 32  1  0
  2 15  1  0
  2  3  1  0
  2 33  1  1
  3  4  1  0
  3  5  1  0
  3 34  1  6
  4 35  1  0
  5 11  1  0
  5  6  1  0
  5 36  1  1
  6 19  1  0
  6  7  1  0
  6 37  1  1
  7  8  1  0
  7 38  1  0
  7 39  1  0
  8 28  1  0
  8  9  1  1
  8 10  1  0
  9 40  1  0
 10 11  1  0
 10 41  1  0
 10 42  1  0
 11 12  1  6
 11 13  1  0
 12 43  1  0
 13 17  1  0
 13 14  1  6
 13 21  1  0
 14 15  1  0
 14 44  1  0
 14 45  1  0
 15 16  1  6
 15 17  1  0
 16 46  1  0
 16 47  1  0
 16 48  1  0
 17 18  1  6
 17 19  1  0
 18 49  1  0
 19 20  1  0
 19 50  1  1
 20 51  1  0
 21 28  1  0
 21 22  1  1
 21 23  1  0
 22 52  1  0
 23 24  2  0
 23 53  1  0
 24 25  1  0
 24 54  1  0
 25 26  1  0
 25 55  1  0
 25 56  1  0
 26 27  2  0
 26 28  1  0
 28 29  1  6
 29 57  1  0
 29 58  1  0
 29 59  1  0
M  END
>  <i_m_ct_stereo_status>  (214) 
1

>  <s_m_source_file>  (214) 
/var/tmp/pbs.5076255.sched01/tmp403565pz/80s7duc8s0.sdf

>  <i_m_source_file_index>  (214) 
38

>  <i_lp_mmshare_version>  (214) 
48012

>  <i_f3d_flags>  (214) 
0

>  <s_epik_input>  (214) 
W09IXVtDQEBIXTFbQ0BASF0oW0NIM10pW0NAQF0oW0NIMl0yKShbQ0gzXSlbQ0BAXTMoW09IXSlbQ0BASF0oW09IXSlbQ0BASF0oW0NAQEhdMVtDQF00KFtDQEBdMjM1KVtPSF0pW0NIMl1bQ0BAXShbT0hdKShbQ0gyXTQpW0NAQF02KFtDSDNdKVtDQEBdNShbT0hdKVtDSF09W0NIXVtDSDJdQzY9Tw==

>  <s_epik_cmdline>  (214) 
J2VwaWtfcHl0aG9uJywgJy1waHQnLCAnMi4wJywgJy1waCcsICc3LjAnLCAnLXRuJywgJzgnLCAnLW1hJywgJzIwMCcsICctaW1hZScsICc8aW5maWxlLm1hZT4nLCAnLW9tYWUnLCAnPG91dGZpbGUubWFlPic=

>  <r_lp_tautomer_probability>  (214) 
1

>  <r_epik_Ionization_Penalty>  (214) 
2.12575e-06

>  <r_epik_Ionization_Penalty_Charging>  (214) 
0

>  <r_epik_Ionization_Penalty_Neutral>  (214) 
2.12575e-06

>  <r_epik_State_Penalty>  (214) 
-0

>  <r_epik_Charging_Adjusted_Penalty>  (214) 
0

>  <i_epik_Tot_Q>  (214) 
0

>  <i_epik_Tot_abs_Q>  (214) 
0

>  <s_lp_Force_Field>  (214) 
OPLS3e

>  <r_lp_Energy>  (214) 
133.08

>  <b_lp_Chiralities_Consistent>  (214) 
1

>  <s_lp_Variant>  (214) 
81:0-1

>  <s_i_glide_gridfile>  (214) 
pfpi4k_grid

>  <i_i_glide_lignum>  (214) 
38

>  <i_i_glide_rotatable_bonds>  (214) 
6

>  <r_i_docking_score>  (214) 
-3.26867

>  <r_i_glide_ligand_efficiency>  (214) 
-0.112713

>  <r_i_glide_ligand_efficiency_sa>  (214) 
-0.346289

>  <r_i_glide_ligand_efficiency_ln>  (214) 
-0.748442

>  <r_i_glide_gscore>  (214) 
-3.26867

>  <r_i_glide_lipo>  (214) 
-0.264028

>  <r_i_glide_hbond>  (214) 
0

>  <r_i_glide_metal>  (214) 
-0

>  <r_i_glide_rewards>  (214) 
-1.13771

>  <r_i_glide_evdw>  (214) 
-12.622

>  <r_i_glide_ecoul>  (214) 
-8.23887

>  <r_i_glide_erotb>  (214) 
0

>  <r_i_glide_esite>  (214) 
0

>  <r_i_glide_emodel>  (214) 
-29.4917

>  <r_i_glide_energy>  (214) 
-20.8609

>  <r_i_glide_einternal>  (214) 
1.01597

>  <r_i_glide_intrahb_reward>  (214) 
-0.5

>  <i_i_glide_confnum>  (214) 
2

>  <i_i_glide_posenum>  (214) 
1

>  <r_i_glide_eff_state_penalty>  (214) 
0

>  <ligand_id>  (214) 
81

>  <original_smiles>  (214) 
CC1C(O)C2C3CC4(O)CC2(O)C2(CC1(C)C2(O)C3O)C1(O)C=CCC(=O)C41C

>  <smiles>  (214) 
[H]OC1([H])C2([H])C3([H])C([H])([H])C4(O[H])C([H])([H])C2(O[H])C2(C([H])([H])C(C([H])([H])[H])(C1([H])C([H])([H])[H])C2(O[H])C3([H])O[H])C1(O[H])C([H])=C([H])C([H])([H])C(=O)C14C([H])([H])[H]

$$$$
81:0:2
     RDKit          3D

 59 64  0  0  1  0  0  0  0  0999 V2000
    4.7530   -0.9575   -1.6697 C   0  0  0  0  0  0  0  0  0  0  0  0
    4.0547   -1.7362   -0.5246 C   0  0  2  0  0  0  0  0  0  0  0  0
    4.3949   -1.0026    0.8110 C   0  0  1  0  0  0  0  0  0  0  0  0
    3.6149    0.1682    0.8884 O   0  0  0  0  0  0  0  0  0  0  0  0
    4.2303   -1.7712    2.1473 C   0  0  2  0  0  0  0  0  0  0  0  0
    5.4803   -2.5067    2.6726 C   0  0  1  0  0  0  0  0  0  0  0  0
    5.1799   -3.3490    4.0056 C   0  0  0  0  0  0  0  0  0  0  0  0
    3.6992   -3.8714    4.3052 C   0  0  1  0  0  0  0  0  0  0  0  0
    3.4802   -3.7287    5.6947 O   0  0  0  0  0  0  0  0  0  0  0  0
    2.7563   -2.8991    3.6460 C   0  0  0  0  0  0  0  0  0  0  0  0
    3.1202   -2.8263    2.1556 C   0  0  1  0  0  0  0  0  0  0  0  0
    1.9364   -2.2534    1.6381 O   0  0  0  0  0  0  0  0  0  0  0  0
    3.6413   -4.1711    1.3991 C   0  0  1  0  0  0  0  0  0  0  0  0
    3.1072   -4.2057   -0.0435 C   0  0  0  0  0  0  0  0  0  0  0  0
    4.2632   -3.2959   -0.5580 C   0  0  1  0  0  0  0  0  0  0  0  0
    4.6353   -3.7159   -1.9978 C   0  0  0  0  0  0  0  0  0  0  0  0
    5.0268   -3.9782    0.6184 C   0  0  2  0  0  0  0  0  0  0  0  0
    5.7037   -5.1368    0.1264 O   0  0  0  0  0  0  0  0  0  0  0  0
    6.1082   -3.3088    1.5007 C   0  0  1  0  0  0  0  0  0  0  0  0
    6.9615   -2.4938    0.7150 O   0  0  0  0  0  0  0  0  0  0  0  0
    3.6789   -5.4916    2.3445 C   0  0  2  0  0  0  0  0  0  0  0  0
    5.0492   -5.8583    2.4931 O   0  0  0  0  0  0  0  0  0  0  0  0
    3.0717   -6.7829    1.7956 C   0  0  0  0  0  0  0  0  0  0  0  0
    2.9701   -7.8834    2.5743 C   0  0  0  0  0  0  0  0  0  0  0  0
    3.4146   -7.9430    4.0490 C   0  0  0  0  0  0  0  0  0  0  0  0
    3.7045   -6.5464    4.6613 C   0  0  0  0  0  0  0  0  0  0  0  0
    4.2891   -6.4324    5.7359 O   0  0  0  0  0  0  0  0  0  0  0  0
    3.2105   -5.3115    3.8371 C   0  0  1  0  0  0  0  0  0  0  0  0
    1.6475   -5.4547    3.9495 C   0  0  0  0  0  0  0  0  0  0  0  0
    5.8300   -1.1162   -1.6631 H   0  0  0  0  0  0  0  0  0  0  0  0
    4.5857    0.1126   -1.5751 H   0  0  0  0  0  0  0  0  0  0  0  0
    4.3689   -1.2156   -2.6576 H   0  0  0  0  0  0  0  0  0  0  0  0
    2.9980   -1.5728   -0.7218 H   0  0  0  0  0  0  0  0  0  0  0  0
    5.4092   -0.6128    0.7706 H   0  0  0  0  0  0  0  0  0  0  0  0
    2.6959   -0.0536    0.7917 H   0  0  0  0  0  0  0  0  0  0  0  0
    4.0441   -0.9808    2.8753 H   0  0  0  0  0  0  0  0  0  0  0  0
    6.2133   -1.7449    2.9469 H   0  0  0  0  0  0  0  0  0  0  0  0
    5.8901   -4.1704    4.1172 H   0  0  0  0  0  0  0  0  0  0  0  0
    5.4419   -2.6750    4.8200 H   0  0  0  0  0  0  0  0  0  0  0  0
    4.0188   -4.3854    6.1207 H   0  0  0  0  0  0  0  0  0  0  0  0
    1.7024   -3.1044    3.7921 H   0  0  0  0  0  0  0  0  0  0  0  0
    2.8202   -1.9394    4.1570 H   0  0  0  0  0  0  0  0  0  0  0  0
    2.0992   -1.9687    0.7486 H   0  0  0  0  0  0  0  0  0  0  0  0
    3.1534   -5.2017   -0.4800 H   0  0  0  0  0  0  0  0  0  0  0  0
    2.1068   -3.8092   -0.2162 H   0  0  0  0  0  0  0  0  0  0  0  0
    4.6557   -4.7950   -2.1218 H   0  0  0  0  0  0  0  0  0  0  0  0
    5.6186   -3.3629   -2.3033 H   0  0  0  0  0  0  0  0  0  0  0  0
    3.8929   -3.3722   -2.7211 H   0  0  0  0  0  0  0  0  0  0  0  0
    5.1472   -5.4986   -0.5440 H   0  0  0  0  0  0  0  0  0  0  0  0
    6.7798   -4.0503    1.9352 H   0  0  0  0  0  0  0  0  0  0  0  0
    7.6751   -2.1957    1.2625 H   0  0  0  0  0  0  0  0  0  0  0  0
    5.4329   -5.8750    1.6186 H   0  0  0  0  0  0  0  0  0  0  0  0
    2.7347   -6.8158    0.7750 H   0  0  0  0  0  0  0  0  0  0  0  0
    2.5607   -8.7998    2.1686 H   0  0  0  0  0  0  0  0  0  0  0  0
    2.6256   -8.4118    4.6346 H   0  0  0  0  0  0  0  0  0  0  0  0
    4.2957   -8.5769    4.1367 H   0  0  0  0  0  0  0  0  0  0  0  0
    1.1334   -5.0238    3.0917 H   0  0  0  0  0  0  0  0  0  0  0  0
    1.2812   -4.9827    4.8549 H   0  0  0  0  0  0  0  0  0  0  0  0
    1.2785   -6.4780    4.0044 H   0  0  0  0  0  0  0  0  0  0  0  0
  1  2  1  0
  1 30  1  0
  1 31  1  0
  1 32  1  0
  2 15  1  0
  2  3  1  0
  2 33  1  6
  3  4  1  0
  3  5  1  0
  3 34  1  6
  4 35  1  0
  5 11  1  0
  5  6  1  0
  5 36  1  1
  6 19  1  0
  6  7  1  0
  6 37  1  1
  7  8  1  0
  7 38  1  0
  7 39  1  0
  8 28  1  0
  8  9  1  1
  8 10  1  0
  9 40  1  0
 10 11  1  0
 10 41  1  0
 10 42  1  0
 11 12  1  6
 11 13  1  0
 12 43  1  0
 13 17  1  0
 13 14  1  6
 13 21  1  0
 14 15  1  0
 14 44  1  0
 14 45  1  0
 15 16  1  6
 15 17  1  0
 16 46  1  0
 16 47  1  0
 16 48  1  0
 17 18  1  6
 17 19  1  0
 18 49  1  0
 19 20  1  0
 19 50  1  1
 20 51  1  0
 21 28  1  0
 21 22  1  1
 21 23  1  0
 22 52  1  0
 23 24  2  0
 23 53  1  0
 24 25  1  0
 24 54  1  0
 25 26  1  0
 25 55  1  0
 25 56  1  0
 26 27  2  0
 26 28  1  0
 28 29  1  6
 29 57  1  0
 29 58  1  0
 29 59  1  0
M  END
>  <i_m_ct_stereo_status>  (215) 
1

>  <s_m_source_file>  (215) 
/var/tmp/pbs.5076255.sched01/tmp403565pz/80s7duc8s0.sdf

>  <i_m_source_file_index>  (215) 
38

>  <i_lp_mmshare_version>  (215) 
48012

>  <i_f3d_flags>  (215) 
0

>  <s_epik_input>  (215) 
W09IXVtDQEBIXTFbQ0BASF0oW0NIM10pW0NAQF0oW0NIMl0yKShbQ0gzXSlbQ0BAXTMoW09IXSlbQ0BASF0oW09IXSlbQ0BASF0oW0NAQEhdMVtDQF00KFtDQEBdMjM1KVtPSF0pW0NIMl1bQ0BAXShbT0hdKShbQ0gyXTQpW0NAQF02KFtDSDNdKVtDQEBdNShbT0hdKVtDSF09W0NIXVtDSDJdQzY9Tw==

>  <s_epik_cmdline>  (215) 
J2VwaWtfcHl0aG9uJywgJy1waHQnLCAnMi4wJywgJy1waCcsICc3LjAnLCAnLXRuJywgJzgnLCAnLW1hJywgJzIwMCcsICctaW1hZScsICc8aW5maWxlLm1hZT4nLCAnLW9tYWUnLCAnPG91dGZpbGUubWFlPic=

>  <r_lp_tautomer_probability>  (215) 
1

>  <r_epik_Ionization_Penalty>  (215) 
2.12575e-06

>  <r_epik_Ionization_Penalty_Charging>  (215) 
0

>  <r_epik_Ionization_Penalty_Neutral>  (215) 
2.12575e-06

>  <r_epik_State_Penalty>  (215) 
-0

>  <r_epik_Charging_Adjusted_Penalty>  (215) 
0

>  <i_epik_Tot_Q>  (215) 
0

>  <i_epik_Tot_abs_Q>  (215) 
0

>  <s_lp_Force_Field>  (215) 
OPLS3e

>  <r_lp_Energy>  (215) 
133.08

>  <b_lp_Chiralities_Consistent>  (215) 
1

>  <s_lp_Variant>  (215) 
81:0-1

>  <s_i_glide_gridfile>  (215) 
pfpi4k_grid

>  <i_i_glide_lignum>  (215) 
38

>  <i_i_glide_rotatable_bonds>  (215) 
6

>  <r_i_docking_score>  (215) 
-2.68324

>  <r_i_glide_ligand_efficiency>  (215) 
-0.0925257

>  <r_i_glide_ligand_efficiency_sa>  (215) 
-0.284268

>  <r_i_glide_ligand_efficiency_ln>  (215) 
-0.614395

>  <r_i_glide_gscore>  (215) 
-2.68324

>  <r_i_glide_lipo>  (215) 
-0.334225

>  <r_i_glide_hbond>  (215) 
0

>  <r_i_glide_metal>  (215) 
-0

>  <r_i_glide_rewards>  (215) 
-1.13771

>  <r_i_glide_evdw>  (215) 
-17.3031

>  <r_i_glide_ecoul>  (215) 
-2.30771

>  <r_i_glide_erotb>  (215) 
0

>  <r_i_glide_esite>  (215) 
0

>  <r_i_glide_emodel>  (215) 
-27.7774

>  <r_i_glide_energy>  (215) 
-19.6108

>  <r_i_glide_einternal>  (215) 
0.544543

>  <r_i_glide_intrahb_reward>  (215) 
-0.5

>  <i_i_glide_confnum>  (215) 
1

>  <i_i_glide_posenum>  (215) 
27

>  <r_i_glide_eff_state_penalty>  (215) 
0

>  <ligand_id>  (215) 
81

>  <original_smiles>  (215) 
CC1C(O)C2C3CC4(O)CC2(O)C2(CC1(C)C2(O)C3O)C1(O)C=CCC(=O)C41C

>  <smiles>  (215) 
[H]OC1([H])C2([H])C3([H])C([H])([H])C4(O[H])C([H])([H])C2(O[H])C2(C([H])([H])C(C([H])([H])[H])(C1([H])C([H])([H])[H])C2(O[H])C3([H])O[H])C1(O[H])C([H])=C([H])C([H])([H])C(=O)C14C([H])([H])[H]

$$$$
82:0:0
     RDKit          3D

 69 74  0  0  1  0  0  0  0  0999 V2000
   -0.6147    1.3645    9.3919 C   0  0  0  0  0  0  0  0  0  0  0  0
   -0.9349    1.7149    8.1320 C   0  0  0  0  0  0  0  0  0  0  0  0
   -2.2733    2.4258    7.8557 C   0  0  1  0  0  0  0  0  0  0  0  0
   -3.0770    2.8465    9.1127 C   0  0  0  0  0  0  0  0  0  0  0  0
   -2.0744    3.6405    6.9438 C   0  0  0  0  0  0  0  0  0  0  0  0
   -1.5772    3.1662    5.5839 C   0  0  1  0  0  0  0  0  0  0  0  0
   -1.4043    4.2713    4.7229 O   0  0  0  0  0  0  0  0  0  0  0  0
   -0.2294    2.4293    5.7360 C   0  0  1  0  0  0  0  0  0  0  0  0
    0.0193    1.4836    6.9158 C   0  0  1  0  0  0  0  0  0  0  0  0
    1.5388    1.8261    7.3297 C   0  0  1  0  0  0  0  0  0  0  0  0
    2.0780    0.8452    8.1589 O   0  0  0  0  0  0  0  0  0  0  0  0
    2.6488    2.2127    6.2325 C   0  0  0  0  0  0  0  0  0  0  0  0
    2.5319    1.7502    4.7169 C   0  0  1  0  0  0  0  0  0  0  0  0
    3.7914    1.5909    4.0944 O   0  0  0  0  0  0  0  0  0  0  0  0
    1.6073    0.5330    4.7496 C   0  0  2  0  0  0  0  0  0  0  0  0
    2.2377   -0.2949    5.7854 O   0  0  0  0  0  0  0  0  0  0  0  0
    3.4760   -0.9967    5.4955 C   0  0  1  0  0  0  0  0  0  0  0  0
    3.7392   -2.0110    6.4350 O   0  0  0  0  0  0  0  0  0  0  0  0
    4.0373   -1.6185    7.7516 C   0  0  0  0  0  0  0  0  0  0  0  0
    3.5600   -1.6571    4.0386 C   0  0  1  0  0  0  0  0  0  0  0  0
    5.0055   -1.5039    3.5098 C   0  0  0  0  0  0  0  0  0  0  0  0
    3.1954   -3.1638    4.0603 C   0  0  0  0  0  0  0  0  0  0  0  0
    2.7498   -3.5220    2.6394 C   0  0  0  0  0  0  0  0  0  0  0  0
    2.2708   -2.2067    2.0036 C   0  0  0  0  0  0  0  0  0  0  0  0
    2.5494   -1.0768    3.0142 C   0  0  1  0  0  0  0  0  0  0  0  0
    1.3657   -0.6411    3.8377 C   0  0  0  0  0  0  0  0  0  0  0  0
    0.3833   -1.4590    4.3034 C   0  0  0  0  0  0  0  0  0  0  0  0
   -0.3856   -1.1275    5.6235 C   0  0  0  0  0  0  0  0  0  0  0  0
   -0.5899    0.4110    5.8543 C   0  0  2  0  0  0  0  0  0  0  0  0
    0.1418    1.2075    4.8304 C   0  0  1  0  0  0  0  0  0  0  0  0
   -0.4734    1.4122    3.4057 C   0  0  0  0  0  0  0  0  0  0  0  0
    0.2917    0.8591    9.6812 H   0  0  0  0  0  0  0  0  0  0  0  0
   -1.2698    1.5691   10.2277 H   0  0  0  0  0  0  0  0  0  0  0  0
   -2.8948    1.7066    7.3240 H   0  0  0  0  0  0  0  0  0  0  0  0
   -3.3647    1.9945    9.7257 H   0  0  0  0  0  0  0  0  0  0  0  0
   -4.0061    3.3414    8.8258 H   0  0  0  0  0  0  0  0  0  0  0  0
   -2.5195    3.5374    9.7488 H   0  0  0  0  0  0  0  0  0  0  0  0
   -3.0261    4.1365    6.8055 H   0  0  0  0  0  0  0  0  0  0  0  0
   -1.3883    4.3615    7.3968 H   0  0  0  0  0  0  0  0  0  0  0  0
   -2.3697    2.5459    5.1678 H   0  0  0  0  0  0  0  0  0  0  0  0
   -1.0416    3.9481    3.9027 H   0  0  0  0  0  0  0  0  0  0  0  0
    0.5117    3.2092    5.6759 H   0  0  0  0  0  0  0  0  0  0  0  0
    1.4905    2.7194    7.9730 H   0  0  0  0  0  0  0  0  0  0  0  0
    2.1616    0.0643    7.6092 H   0  0  0  0  0  0  0  0  0  0  0  0
    2.7444    3.2988    6.2051 H   0  0  0  0  0  0  0  0  0  0  0  0
    3.6127    1.8786    6.6139 H   0  0  0  0  0  0  0  0  0  0  0  0
    2.0629    2.5496    4.1405 H   0  0  0  0  0  0  0  0  0  0  0  0
    3.9085    2.2650    3.4333 H   0  0  0  0  0  0  0  0  0  0  0  0
    4.2822   -0.2743    5.6207 H   0  0  0  0  0  0  0  0  0  0  0  0
    4.1966   -2.5115    8.3645 H   0  0  0  0  0  0  0  0  0  0  0  0
    3.2212   -1.0845    8.1759 H   0  0  0  0  0  0  0  0  0  0  0  0
    4.9581   -1.0388    7.7828 H   0  0  0  0  0  0  0  0  0  0  0  0
    5.1375   -1.9730    2.5355 H   0  0  0  0  0  0  0  0  0  0  0  0
    5.7179   -1.9689    4.1899 H   0  0  0  0  0  0  0  0  0  0  0  0
    5.2875   -0.4574    3.3967 H   0  0  0  0  0  0  0  0  0  0  0  0
    4.0268   -3.7855    4.3894 H   0  0  0  0  0  0  0  0  0  0  0  0
    2.3751   -3.3562    4.7497 H   0  0  0  0  0  0  0  0  0  0  0  0
    3.5939   -3.9207    2.0725 H   0  0  0  0  0  0  0  0  0  0  0  0
    1.9807   -4.2953    2.6389 H   0  0  0  0  0  0  0  0  0  0  0  0
    2.8415   -2.0386    1.0878 H   0  0  0  0  0  0  0  0  0  0  0  0
    1.2236   -2.2285    1.7119 H   0  0  0  0  0  0  0  0  0  0  0  0
    2.9431   -0.2098    2.4802 H   0  0  0  0  0  0  0  0  0  0  0  0
    0.2703   -2.4668    3.9180 H   0  0  0  0  0  0  0  0  0  0  0  0
   -1.3433   -1.6359    5.5811 H   0  0  0  0  0  0  0  0  0  0  0  0
    0.1648   -1.5733    6.4548 H   0  0  0  0  0  0  0  0  0  0  0  0
   -1.6720    0.5763    5.7712 H   0  0  0  0  0  0  0  0  0  0  0  0
   -0.4035    0.5658    2.7162 H   0  0  0  0  0  0  0  0  0  0  0  0
   -0.0267    2.2730    2.8999 H   0  0  0  0  0  0  0  0  0  0  0  0
   -1.5515    1.5954    3.4540 H   0  0  0  0  0  0  0  0  0  0  0  0
  1  2  2  0
  1 32  1  0
  1 33  1  0
  9  2  1  1
  2  3  1  0
  3  4  1  0
  3  5  1  0
  3 34  1  6
  4 35  1  0
  4 36  1  0
  4 37  1  0
  5  6  1  0
  5 38  1  0
  5 39  1  0
  6  7  1  0
  6  8  1  0
  6 40  1  6
  7 41  1  0
  8 30  1  0
  8  9  1  0
  8 42  1  1
  9 29  1  0
  9 10  1  0
 10 11  1  0
 10 12  1  0
 10 43  1  1
 11 44  1  0
 12 13  1  0
 12 45  1  0
 12 46  1  0
 13 14  1  0
 13 15  1  0
 13 47  1  6
 14 48  1  0
 15 26  1  0
 15 30  1  0
 15 16  1  1
 16 17  1  0
 17 18  1  0
 17 20  1  0
 17 49  1  6
 18 19  1  0
 19 50  1  0
 19 51  1  0
 19 52  1  0
 20 25  1  0
 20 21  1  6
 20 22  1  0
 21 53  1  0
 21 54  1  0
 21 55  1  0
 22 23  1  0
 22 56  1  0
 22 57  1  0
 23 24  1  0
 23 58  1  0
 23 59  1  0
 24 25  1  0
 24 60  1  0
 24 61  1  0
 25 26  1  0
 25 62  1  6
 26 27  2  0
 27 28  1  0
 27 63  1  0
 28 29  1  0
 28 64  1  0
 28 65  1  0
 29 30  1  0
 29 66  1  6
 30 31  1  6
 31 67  1  0
 31 68  1  0
 31 69  1  0
M  END
>  <i_m_ct_stereo_status>  (216) 
1

>  <s_m_source_file>  (216) 
/var/tmp/pbs.5076255.sched01/tmp403565pz/80s7duc8s0.sdf

>  <i_m_source_file_index>  (216) 
39

>  <i_lp_mmshare_version>  (216) 
48012

>  <i_f3d_flags>  (216) 
0

>  <s_epik_input>  (216) 
W0NIMl09QzFbQ0BASF0oW0NIM10pW0NIMl1bQ0BASF0oW09IXSlbQ0BASF0oW0NAXTEyMylbQ0BAXTQoW0NIM10pW0NAXTUoW0NASF0oW09IXSlbQ0gyXVtDQEBIXTJbT0hdKUMoPVtDSF1bQ0gyXVtDQEBIXTM0KVtDQEhdNltDQEBdKFtDSDNdKShbQ0BASF0oTzUpT1tDSDNdKVtDSDJdW0NIMl1bQ0gyXTY=

>  <s_epik_cmdline>  (216) 
J2VwaWtfcHl0aG9uJywgJy1waHQnLCAnMi4wJywgJy1waCcsICc3LjAnLCAnLXRuJywgJzgnLCAnLW1hJywgJzIwMCcsICctaW1hZScsICc8aW5maWxlLm1hZT4nLCAnLW9tYWUnLCAnPG91dGZpbGUubWFlPic=

>  <r_lp_tautomer_probability>  (216) 
1

>  <r_epik_Ionization_Penalty>  (216) 
8.10352e-07

>  <r_epik_Ionization_Penalty_Charging>  (216) 
0

>  <r_epik_Ionization_Penalty_Neutral>  (216) 
8.10352e-07

>  <r_epik_State_Penalty>  (216) 
-0

>  <r_epik_Charging_Adjusted_Penalty>  (216) 
0

>  <i_epik_Tot_Q>  (216) 
0

>  <i_epik_Tot_abs_Q>  (216) 
0

>  <s_epik_Chemistry_Notes>  (216) 
This compound contains an acetal/aminal-like group ( X-CH(R)-Y where X, Y are N, S, or O) that may be acid/base labile, releasing an aldehyde.

>  <s_lp_Force_Field>  (216) 
OPLS3e

>  <r_lp_Energy>  (216) 
181.374

>  <b_lp_Chiralities_Consistent>  (216) 
1

>  <s_lp_Variant>  (216) 
82:0-1

>  <s_i_glide_gridfile>  (216) 
pfpi4k_grid

>  <i_i_glide_lignum>  (216) 
39

>  <i_i_glide_rotatable_bonds>  (216) 
4

>  <r_i_docking_score>  (216) 
-2.69938

>  <r_i_glide_ligand_efficiency>  (216) 
-0.0870766

>  <r_i_glide_ligand_efficiency_sa>  (216) 
-0.273541

>  <r_i_glide_ligand_efficiency_ln>  (216) 
-0.608792

>  <r_i_glide_gscore>  (216) 
-2.69938

>  <r_i_glide_lipo>  (216) 
-0.155363

>  <r_i_glide_hbond>  (216) 
0

>  <r_i_glide_metal>  (216) 
-0

>  <r_i_glide_rewards>  (216) 
-0.973339

>  <r_i_glide_evdw>  (216) 
-16.9691

>  <r_i_glide_ecoul>  (216) 
-4.8148

>  <r_i_glide_erotb>  (216) 
0

>  <r_i_glide_esite>  (216) 
0

>  <r_i_glide_emodel>  (216) 
-29.777

>  <r_i_glide_energy>  (216) 
-21.7839

>  <r_i_glide_einternal>  (216) 
1.81115

>  <r_i_glide_intrahb_reward>  (216) 
-0.5

>  <i_i_glide_confnum>  (216) 
1

>  <i_i_glide_posenum>  (216) 
33

>  <r_i_glide_eff_state_penalty>  (216) 
0

>  <ligand_id>  (216) 
82

>  <original_smiles>  (216) 
C=C1C(C)CC(O)C2C13C(O)CC(O)C14OC(OC)C5(C)CCCC5C1=CCC3C24C

>  <smiles>  (216) 
[H]OC1([H])C([H])([H])C([H])(O[H])C23C(=C([H])[H])C([H])(C([H])([H])[H])C([H])([H])C([H])(O[H])C2([H])C2(C([H])([H])[H])C14OC([H])(OC([H])([H])[H])C1(C([H])([H])[H])C([H])([H])C([H])([H])C([H])([H])C1([H])C4=C([H])C([H])([H])C32[H]

$$$$
82:0:1
     RDKit          3D

 69 74  0  0  1  0  0  0  0  0999 V2000
   -2.0706    2.4876    6.5307 C   0  0  0  0  0  0  0  0  0  0  0  0
   -1.1383    1.9977    5.6796 C   0  0  0  0  0  0  0  0  0  0  0  0
   -1.0339    2.5744    4.2512 C   0  0  1  0  0  0  0  0  0  0  0  0
   -1.9145    3.8079    3.9523 C   0  0  0  0  0  0  0  0  0  0  0  0
    0.4179    2.8925    3.8780 C   0  0  0  0  0  0  0  0  0  0  0  0
    1.2052    1.5943    3.8744 C   0  0  1  0  0  0  0  0  0  0  0  0
    2.5435    1.8616    3.5124 O   0  0  0  0  0  0  0  0  0  0  0  0
    1.1751    0.9147    5.2624 C   0  0  1  0  0  0  0  0  0  0  0  0
   -0.1113    0.8941    6.1030 C   0  0  1  0  0  0  0  0  0  0  0  0
    0.3909    1.1178    7.6130 C   0  0  1  0  0  0  0  0  0  0  0  0
   -0.5996    0.7842    8.5711 O   0  0  0  0  0  0  0  0  0  0  0  0
    1.8355    0.5912    8.1128 C   0  0  0  0  0  0  0  0  0  0  0  0
    2.5009   -0.6916    7.4671 C   0  0  1  0  0  0  0  0  0  0  0  0
    3.3560   -1.3882    8.3486 O   0  0  0  0  0  0  0  0  0  0  0  0
    1.3489   -1.4513    6.7918 C   0  0  2  0  0  0  0  0  0  0  0  0
    0.3899   -1.5351    7.8925 O   0  0  0  0  0  0  0  0  0  0  0  0
    0.6133   -2.4235    8.9991 C   0  0  1  0  0  0  0  0  0  0  0  0
   -0.5750   -2.5939    9.7178 O   0  0  0  0  0  0  0  0  0  0  0  0
   -0.7037   -1.7673   10.8698 C   0  0  0  0  0  0  0  0  0  0  0  0
    1.1754   -3.8682    8.6033 C   0  0  1  0  0  0  0  0  0  0  0  0
    2.1916   -4.3070    9.6829 C   0  0  0  0  0  0  0  0  0  0  0  0
    0.0506   -4.9258    8.5047 C   0  0  0  0  0  0  0  0  0  0  0  0
    0.5886   -6.0323    7.5900 C   0  0  0  0  0  0  0  0  0  0  0  0
    1.6549   -5.3729    6.7039 C   0  0  0  0  0  0  0  0  0  0  0  0
    1.8226   -3.9207    7.1958 C   0  0  1  0  0  0  0  0  0  0  0  0
    1.1060   -2.8765    6.3849 C   0  0  0  0  0  0  0  0  0  0  0  0
   -0.1147   -3.0413    5.7982 C   0  0  0  0  0  0  0  0  0  0  0  0
   -1.0768   -1.8230    5.5914 C   0  0  0  0  0  0  0  0  0  0  0  0
   -0.3368   -0.4879    5.2732 C   0  0  2  0  0  0  0  0  0  0  0  0
    1.1422   -0.6464    5.4114 C   0  0  1  0  0  0  0  0  0  0  0  0
    1.9691   -1.2924    4.2497 C   0  0  0  0  0  0  0  0  0  0  0  0
   -2.2007    2.1286    7.5375 H   0  0  0  0  0  0  0  0  0  0  0  0
   -2.7584    3.2644    6.2368 H   0  0  0  0  0  0  0  0  0  0  0  0
   -1.3877    1.7931    3.5782 H   0  0  0  0  0  0  0  0  0  0  0  0
   -2.9769    3.5768    4.0486 H   0  0  0  0  0  0  0  0  0  0  0  0
   -1.7620    4.1465    2.9239 H   0  0  0  0  0  0  0  0  0  0  0  0
   -1.6711    4.6439    4.6112 H   0  0  0  0  0  0  0  0  0  0  0  0
    0.4636    3.3448    2.8844 H   0  0  0  0  0  0  0  0  0  0  0  0
    0.8539    3.6130    4.5711 H   0  0  0  0  0  0  0  0  0  0  0  0
    0.7794    0.9778    3.0818 H   0  0  0  0  0  0  0  0  0  0  0  0
    2.5523    2.2458    2.6463 H   0  0  0  0  0  0  0  0  0  0  0  0
    2.0011    1.3555    5.8123 H   0  0  0  0  0  0  0  0  0  0  0  0
    0.4717    2.2011    7.7454 H   0  0  0  0  0  0  0  0  0  0  0  0
   -0.3441    1.1609    9.4011 H   0  0  0  0  0  0  0  0  0  0  0  0
    2.5502    1.4060    7.9919 H   0  0  0  0  0  0  0  0  0  0  0  0
    1.7794    0.4523    9.1939 H   0  0  0  0  0  0  0  0  0  0  0  0
    3.1977   -0.3681    6.6934 H   0  0  0  0  0  0  0  0  0  0  0  0
    2.8535   -1.6827    9.0904 H   0  0  0  0  0  0  0  0  0  0  0  0
    1.3210   -1.9292    9.6610 H   0  0  0  0  0  0  0  0  0  0  0  0
   -1.7052   -1.8801   11.2853 H   0  0  0  0  0  0  0  0  0  0  0  0
   -0.5589   -0.7123   10.6381 H   0  0  0  0  0  0  0  0  0  0  0  0
    0.0120   -2.0495   11.6440 H   0  0  0  0  0  0  0  0  0  0  0  0
    2.5875   -5.3017    9.4816 H   0  0  0  0  0  0  0  0  0  0  0  0
    1.7342   -4.3345   10.6718 H   0  0  0  0  0  0  0  0  0  0  0  0
    3.0479   -3.6363    9.7344 H   0  0  0  0  0  0  0  0  0  0  0  0
   -0.2387   -5.3157    9.4806 H   0  0  0  0  0  0  0  0  0  0  0  0
   -0.8485   -4.5012    8.0591 H   0  0  0  0  0  0  0  0  0  0  0  0
    1.0468   -6.8246    8.1839 H   0  0  0  0  0  0  0  0  0  0  0  0
   -0.2018   -6.4945    6.9994 H   0  0  0  0  0  0  0  0  0  0  0  0
    2.5961   -5.9125    6.8306 H   0  0  0  0  0  0  0  0  0  0  0  0
    1.4046   -5.4348    5.6449 H   0  0  0  0  0  0  0  0  0  0  0  0
    2.8828   -3.6647    7.2154 H   0  0  0  0  0  0  0  0  0  0  0  0
   -0.5474   -4.0241    5.6900 H   0  0  0  0  0  0  0  0  0  0  0  0
   -1.7635   -2.0556    4.7833 H   0  0  0  0  0  0  0  0  0  0  0  0
   -1.6928   -1.7186    6.4764 H   0  0  0  0  0  0  0  0  0  0  0  0
   -0.6068   -0.2417    4.2439 H   0  0  0  0  0  0  0  0  0  0  0  0
    1.9139   -2.3764    4.1602 H   0  0  0  0  0  0  0  0  0  0  0  0
    3.0254   -1.0316    4.3282 H   0  0  0  0  0  0  0  0  0  0  0  0
    1.6326   -0.9504    3.2707 H   0  0  0  0  0  0  0  0  0  0  0  0
  1  2  2  0
  1 32  1  0
  1 33  1  0
  9  2  1  6
  2  3  1  0
  3  4  1  0
  3  5  1  0
  3 34  1  6
  4 35  1  0
  4 36  1  0
  4 37  1  0
  5  6  1  0
  5 38  1  0
  5 39  1  0
  6  7  1  0
  6  8  1  0
  6 40  1  6
  7 41  1  0
  8 30  1  0
  8  9  1  0
  8 42  1  1
  9 29  1  0
  9 10  1  0
 10 11  1  0
 10 12  1  0
 10 43  1  6
 11 44  1  0
 12 13  1  0
 12 45  1  0
 12 46  1  0
 13 14  1  0
 13 15  1  0
 13 47  1  6
 14 48  1  0
 15 26  1  0
 15 30  1  0
 15 16  1  1
 16 17  1  0
 17 18  1  0
 17 20  1  0
 17 49  1  1
 18 19  1  0
 19 50  1  0
 19 51  1  0
 19 52  1  0
 20 25  1  0
 20 21  1  1
 20 22  1  0
 21 53  1  0
 21 54  1  0
 21 55  1  0
 22 23  1  0
 22 56  1  0
 22 57  1  0
 23 24  1  0
 23 58  1  0
 23 59  1  0
 24 25  1  0
 24 60  1  0
 24 61  1  0
 25 26  1  0
 25 62  1  1
 26 27  2  0
 27 28  1  0
 27 63  1  0
 28 29  1  0
 28 64  1  0
 28 65  1  0
 29 30  1  0
 29 66  1  6
 30 31  1  6
 31 67  1  0
 31 68  1  0
 31 69  1  0
M  END
>  <i_m_ct_stereo_status>  (217) 
1

>  <s_m_source_file>  (217) 
/var/tmp/pbs.5076255.sched01/tmp403565pz/80s7duc8s0.sdf

>  <i_m_source_file_index>  (217) 
39

>  <i_lp_mmshare_version>  (217) 
48012

>  <i_f3d_flags>  (217) 
0

>  <s_epik_input>  (217) 
W0NIMl09QzFbQ0BASF0oW0NIM10pW0NIMl1bQ0BASF0oW09IXSlbQ0BASF0oW0NAXTEyMylbQ0BAXTQoW0NIM10pW0NAXTUoW0NASF0oW09IXSlbQ0gyXVtDQEBIXTJbT0hdKUMoPVtDSF1bQ0gyXVtDQEBIXTM0KVtDQEhdNltDQEBdKFtDSDNdKShbQ0BASF0oTzUpT1tDSDNdKVtDSDJdW0NIMl1bQ0gyXTY=

>  <s_epik_cmdline>  (217) 
J2VwaWtfcHl0aG9uJywgJy1waHQnLCAnMi4wJywgJy1waCcsICc3LjAnLCAnLXRuJywgJzgnLCAnLW1hJywgJzIwMCcsICctaW1hZScsICc8aW5maWxlLm1hZT4nLCAnLW9tYWUnLCAnPG91dGZpbGUubWFlPic=

>  <r_lp_tautomer_probability>  (217) 
1

>  <r_epik_Ionization_Penalty>  (217) 
8.10352e-07

>  <r_epik_Ionization_Penalty_Charging>  (217) 
0

>  <r_epik_Ionization_Penalty_Neutral>  (217) 
8.10352e-07

>  <r_epik_State_Penalty>  (217) 
-0

>  <r_epik_Charging_Adjusted_Penalty>  (217) 
0

>  <i_epik_Tot_Q>  (217) 
0

>  <i_epik_Tot_abs_Q>  (217) 
0

>  <s_epik_Chemistry_Notes>  (217) 
This compound contains an acetal/aminal-like group ( X-CH(R)-Y where X, Y are N, S, or O) that may be acid/base labile, releasing an aldehyde.

>  <s_lp_Force_Field>  (217) 
OPLS3e

>  <r_lp_Energy>  (217) 
181.374

>  <b_lp_Chiralities_Consistent>  (217) 
1

>  <s_lp_Variant>  (217) 
82:0-1

>  <s_i_glide_gridfile>  (217) 
pfpi4k_grid

>  <i_i_glide_lignum>  (217) 
39

>  <i_i_glide_rotatable_bonds>  (217) 
4

>  <r_i_docking_score>  (217) 
-2.41281

>  <r_i_glide_ligand_efficiency>  (217) 
-0.0778326

>  <r_i_glide_ligand_efficiency_sa>  (217) 
-0.244502

>  <r_i_glide_ligand_efficiency_ln>  (217) 
-0.544163

>  <r_i_glide_gscore>  (217) 
-2.41281

>  <r_i_glide_lipo>  (217) 
-0.0652113

>  <r_i_glide_hbond>  (217) 
-0.16

>  <r_i_glide_metal>  (217) 
-0

>  <r_i_glide_rewards>  (217) 
-0.473339

>  <r_i_glide_evdw>  (217) 
-15.7754

>  <r_i_glide_ecoul>  (217) 
-5.92822

>  <r_i_glide_erotb>  (217) 
0

>  <r_i_glide_esite>  (217) 
-0.03626

>  <r_i_glide_emodel>  (217) 
-24.4233

>  <r_i_glide_energy>  (217) 
-21.7036

>  <r_i_glide_einternal>  (217) 
2.19395

>  <r_i_glide_intrahb_reward>  (217) 
-0

>  <i_i_glide_confnum>  (217) 
1

>  <i_i_glide_posenum>  (217) 
10

>  <r_i_glide_eff_state_penalty>  (217) 
0

>  <ligand_id>  (217) 
82

>  <original_smiles>  (217) 
C=C1C(C)CC(O)C2C13C(O)CC(O)C14OC(OC)C5(C)CCCC5C1=CCC3C24C

>  <smiles>  (217) 
[H]OC1([H])C([H])([H])C([H])(O[H])C23C(=C([H])[H])C([H])(C([H])([H])[H])C([H])([H])C([H])(O[H])C2([H])C2(C([H])([H])[H])C14OC([H])(OC([H])([H])[H])C1(C([H])([H])[H])C([H])([H])C([H])([H])C([H])([H])C1([H])C4=C([H])C([H])([H])C32[H]

$$$$
82:0:2
     RDKit          3D

 69 74  0  0  1  0  0  0  0  0999 V2000
    4.2258   -1.8702    1.4392 C   0  0  0  0  0  0  0  0  0  0  0  0
    4.7487   -3.0792    1.1354 C   0  0  0  0  0  0  0  0  0  0  0  0
    5.7840   -3.1893   -0.0095 C   0  0  1  0  0  0  0  0  0  0  0  0
    6.2818   -1.8455   -0.5820 C   0  0  0  0  0  0  0  0  0  0  0  0
    6.9839   -4.0496    0.4050 C   0  0  0  0  0  0  0  0  0  0  0  0
    6.4945   -5.4681    0.6627 C   0  0  1  0  0  0  0  0  0  0  0  0
    7.6047   -6.2932    0.9859 O   0  0  0  0  0  0  0  0  0  0  0  0
    5.4246   -5.4851    1.7944 C   0  0  1  0  0  0  0  0  0  0  0  0
    4.3500   -4.3774    1.9113 C   0  0  1  0  0  0  0  0  0  0  0  0
    4.2802   -4.1009    3.5114 C   0  0  1  0  0  0  0  0  0  0  0  0
    3.2085   -3.2994    3.9127 O   0  0  0  0  0  0  0  0  0  0  0  0
    4.4946   -5.2897    4.5675 C   0  0  0  0  0  0  0  0  0  0  0  0
    4.1764   -6.8021    4.2104 C   0  0  1  0  0  0  0  0  0  0  0  0
    3.8075   -7.5872    5.3275 O   0  0  0  0  0  0  0  0  0  0  0  0
    3.2224   -6.7544    3.0068 C   0  0  2  0  0  0  0  0  0  0  0  0
    2.1872   -5.8314    3.4916 O   0  0  0  0  0  0  0  0  0  0  0  0
    1.2262   -6.2690    4.4830 C   0  0  1  0  0  0  0  0  0  0  0  0
    0.1096   -5.4231    4.5644 O   0  0  0  0  0  0  0  0  0  0  0  0
    0.3599   -4.0950    4.9839 C   0  0  0  0  0  0  0  0  0  0  0  0
    0.6833   -7.7681    4.2807 C   0  0  1  0  0  0  0  0  0  0  0  0
    0.5168   -8.4207    5.6742 C   0  0  0  0  0  0  0  0  0  0  0  0
   -0.6850   -7.7798    3.5552 C   0  0  0  0  0  0  0  0  0  0  0  0
   -0.8201   -9.1619    2.9092 C   0  0  0  0  0  0  0  0  0  0  0  0
    0.6090   -9.6875    2.7246 C   0  0  0  0  0  0  0  0  0  0  0  0
    1.5671   -8.6571    3.3632 C   0  0  1  0  0  0  0  0  0  0  0  0
    2.2132   -7.6953    2.3992 C   0  0  0  0  0  0  0  0  0  0  0  0
    1.6308   -7.1832    1.2888 C   0  0  0  0  0  0  0  0  0  0  0  0
    2.0502   -5.7794    0.7402 C   0  0  0  0  0  0  0  0  0  0  0  0
    3.5636   -5.4507    0.9535 C   0  0  2  0  0  0  0  0  0  0  0  0
    4.2297   -6.4990    1.7781 C   0  0  1  0  0  0  0  0  0  0  0  0
    4.6753   -7.8415    1.1101 C   0  0  0  0  0  0  0  0  0  0  0  0
    3.4973   -1.6948    2.2064 H   0  0  0  0  0  0  0  0  0  0  0  0
    4.5349   -0.9838    0.9257 H   0  0  0  0  0  0  0  0  0  0  0  0
    5.2708   -3.6955   -0.8317 H   0  0  0  0  0  0  0  0  0  0  0  0
    5.4699   -1.2683   -1.0265 H   0  0  0  0  0  0  0  0  0  0  0  0
    7.0043   -2.0300   -1.3728 H   0  0  0  0  0  0  0  0  0  0  0  0
    6.7675   -1.2305    0.1787 H   0  0  0  0  0  0  0  0  0  0  0  0
    7.7231   -4.0667   -0.3981 H   0  0  0  0  0  0  0  0  0  0  0  0
    7.4771   -3.6262    1.2837 H   0  0  0  0  0  0  0  0  0  0  0  0
    6.1009   -5.8328   -0.2911 H   0  0  0  0  0  0  0  0  0  0  0  0
    7.9725   -6.0154    1.8135 H   0  0  0  0  0  0  0  0  0  0  0  0
    6.0094   -5.5893    2.6971 H   0  0  0  0  0  0  0  0  0  0  0  0
    5.1611   -3.4567    3.6939 H   0  0  0  0  0  0  0  0  0  0  0  0
    3.1261   -2.7133    3.1897 H   0  0  0  0  0  0  0  0  0  0  0  0
    5.5279   -5.2802    4.9150 H   0  0  0  0  0  0  0  0  0  0  0  0
    3.9083   -5.0264    5.4383 H   0  0  0  0  0  0  0  0  0  0  0  0
    5.1026   -7.2965    3.9073 H   0  0  0  0  0  0  0  0  0  0  0  0
    2.9778   -7.2867    5.6658 H   0  0  0  0  0  0  0  0  0  0  0  0
    1.7085   -6.1666    5.4514 H   0  0  0  0  0  0  0  0  0  0  0  0
   -0.5882   -3.5444    4.9949 H   0  0  0  0  0  0  0  0  0  0  0  0
    1.0194   -3.6216    4.2813 H   0  0  0  0  0  0  0  0  0  0  0  0
    0.7374   -4.0897    6.0100 H   0  0  0  0  0  0  0  0  0  0  0  0
    0.0970   -9.4259    5.6017 H   0  0  0  0  0  0  0  0  0  0  0  0
   -0.1543   -7.8416    6.3084 H   0  0  0  0  0  0  0  0  0  0  0  0
    1.4665   -8.5202    6.1978 H   0  0  0  0  0  0  0  0  0  0  0  0
   -1.5171   -7.5727    4.2295 H   0  0  0  0  0  0  0  0  0  0  0  0
   -0.7229   -7.0250    2.7715 H   0  0  0  0  0  0  0  0  0  0  0  0
   -1.3608   -9.8313    3.5750 H   0  0  0  0  0  0  0  0  0  0  0  0
   -1.3806   -9.1317    1.9739 H   0  0  0  0  0  0  0  0  0  0  0  0
    0.6936  -10.6399    3.2512 H   0  0  0  0  0  0  0  0  0  0  0  0
    0.8513   -9.8866    1.6824 H   0  0  0  0  0  0  0  0  0  0  0  0
    2.3465   -9.1804    3.9217 H   0  0  0  0  0  0  0  0  0  0  0  0
    0.7117   -7.6064    0.8968 H   0  0  0  0  0  0  0  0  0  0  0  0
    1.7973   -5.7445   -0.3152 H   0  0  0  0  0  0  0  0  0  0  0  0
    1.4314   -5.0390    1.2443 H   0  0  0  0  0  0  0  0  0  0  0  0
    3.9983   -5.4111   -0.0531 H   0  0  0  0  0  0  0  0  0  0  0  0
    3.8904   -8.5744    0.9187 H   0  0  0  0  0  0  0  0  0  0  0  0
    5.4512   -8.3319    1.7028 H   0  0  0  0  0  0  0  0  0  0  0  0
    5.0742   -7.6585    0.1164 H   0  0  0  0  0  0  0  0  0  0  0  0
  1  2  2  0
  1 32  1  0
  1 33  1  0
  9  2  1  6
  2  3  1  0
  3  4  1  0
  3  5  1  0
  3 34  1  6
  4 35  1  0
  4 36  1  0
  4 37  1  0
  5  6  1  0
  5 38  1  0
  5 39  1  0
  6  7  1  0
  6  8  1  0
  6 40  1  6
  7 41  1  0
  8 30  1  0
  8  9  1  0
  8 42  1  1
  9 29  1  0
  9 10  1  0
 10 11  1  0
 10 12  1  0
 10 43  1  1
 11 44  1  0
 12 13  1  0
 12 45  1  0
 12 46  1  0
 13 14  1  0
 13 15  1  0
 13 47  1  6
 14 48  1  0
 15 26  1  0
 15 30  1  0
 15 16  1  1
 16 17  1  0
 17 18  1  0
 17 20  1  0
 17 49  1  1
 18 19  1  0
 19 50  1  0
 19 51  1  0
 19 52  1  0
 20 25  1  0
 20 21  1  1
 20 22  1  0
 21 53  1  0
 21 54  1  0
 21 55  1  0
 22 23  1  0
 22 56  1  0
 22 57  1  0
 23 24  1  0
 23 58  1  0
 23 59  1  0
 24 25  1  0
 24 60  1  0
 24 61  1  0
 25 26  1  0
 25 62  1  1
 26 27  2  0
 27 28  1  0
 27 63  1  0
 28 29  1  0
 28 64  1  0
 28 65  1  0
 29 30  1  0
 29 66  1  6
 30 31  1  6
 31 67  1  0
 31 68  1  0
 31 69  1  0
M  END
>  <i_m_ct_stereo_status>  (218) 
1

>  <s_m_source_file>  (218) 
/var/tmp/pbs.5076255.sched01/tmp403565pz/80s7duc8s0.sdf

>  <i_m_source_file_index>  (218) 
39

>  <i_lp_mmshare_version>  (218) 
48012

>  <i_f3d_flags>  (218) 
0

>  <s_epik_input>  (218) 
W0NIMl09QzFbQ0BASF0oW0NIM10pW0NIMl1bQ0BASF0oW09IXSlbQ0BASF0oW0NAXTEyMylbQ0BAXTQoW0NIM10pW0NAXTUoW0NASF0oW09IXSlbQ0gyXVtDQEBIXTJbT0hdKUMoPVtDSF1bQ0gyXVtDQEBIXTM0KVtDQEhdNltDQEBdKFtDSDNdKShbQ0BASF0oTzUpT1tDSDNdKVtDSDJdW0NIMl1bQ0gyXTY=

>  <s_epik_cmdline>  (218) 
J2VwaWtfcHl0aG9uJywgJy1waHQnLCAnMi4wJywgJy1waCcsICc3LjAnLCAnLXRuJywgJzgnLCAnLW1hJywgJzIwMCcsICctaW1hZScsICc8aW5maWxlLm1hZT4nLCAnLW9tYWUnLCAnPG91dGZpbGUubWFlPic=

>  <r_lp_tautomer_probability>  (218) 
1

>  <r_epik_Ionization_Penalty>  (218) 
8.10352e-07

>  <r_epik_Ionization_Penalty_Charging>  (218) 
0

>  <r_epik_Ionization_Penalty_Neutral>  (218) 
8.10352e-07

>  <r_epik_State_Penalty>  (218) 
-0

>  <r_epik_Charging_Adjusted_Penalty>  (218) 
0

>  <i_epik_Tot_Q>  (218) 
0

>  <i_epik_Tot_abs_Q>  (218) 
0

>  <s_epik_Chemistry_Notes>  (218) 
This compound contains an acetal/aminal-like group ( X-CH(R)-Y where X, Y are N, S, or O) that may be acid/base labile, releasing an aldehyde.

>  <s_lp_Force_Field>  (218) 
OPLS3e

>  <r_lp_Energy>  (218) 
181.374

>  <b_lp_Chiralities_Consistent>  (218) 
1

>  <s_lp_Variant>  (218) 
82:0-1

>  <s_i_glide_gridfile>  (218) 
pfpi4k_grid

>  <i_i_glide_lignum>  (218) 
39

>  <i_i_glide_rotatable_bonds>  (218) 
4

>  <r_i_docking_score>  (218) 
-2.1844

>  <r_i_glide_ligand_efficiency>  (218) 
-0.0704647

>  <r_i_glide_ligand_efficiency_sa>  (218) 
-0.221356

>  <r_i_glide_ligand_efficiency_ln>  (218) 
-0.49265

>  <r_i_glide_gscore>  (218) 
-2.1844

>  <r_i_glide_lipo>  (218) 
-0.489819

>  <r_i_glide_hbond>  (218) 
0

>  <r_i_glide_metal>  (218) 
-0

>  <r_i_glide_rewards>  (218) 
-0.473339

>  <r_i_glide_evdw>  (218) 
-23.2961

>  <r_i_glide_ecoul>  (218) 
-0.338934

>  <r_i_glide_erotb>  (218) 
0

>  <r_i_glide_esite>  (218) 
-0.00560095

>  <r_i_glide_emodel>  (218) 
-26.3141

>  <r_i_glide_energy>  (218) 
-23.635

>  <r_i_glide_einternal>  (218) 
0.350812

>  <r_i_glide_intrahb_reward>  (218) 
-0

>  <i_i_glide_confnum>  (218) 
1

>  <i_i_glide_posenum>  (218) 
3

>  <r_i_glide_eff_state_penalty>  (218) 
0

>  <ligand_id>  (218) 
82

>  <original_smiles>  (218) 
C=C1C(C)CC(O)C2C13C(O)CC(O)C14OC(OC)C5(C)CCCC5C1=CCC3C24C

>  <smiles>  (218) 
[H]OC1([H])C([H])([H])C([H])(O[H])C23C(=C([H])[H])C([H])(C([H])([H])[H])C([H])([H])C([H])(O[H])C2([H])C2(C([H])([H])[H])C14OC([H])(OC([H])([H])[H])C1(C([H])([H])[H])C([H])([H])C([H])([H])C([H])([H])C1([H])C4=C([H])C([H])([H])C32[H]

$$$$
84:0:0
     RDKit          3D

 49 53  0  0  1  0  0  0  0  0999 V2000
    4.1250   -0.3517   -2.7392 C   0  0  0  0  0  0  0  0  0  0  0  0
    4.1794   -1.4415   -1.6541 C   0  0  2  0  0  0  0  0  0  0  0  0
    3.8078   -0.9095   -0.2608 C   0  0  0  0  0  0  0  0  0  0  0  0
    3.6992   -2.0132    0.7857 C   0  0  0  0  0  0  0  0  0  0  0  0
    5.0052   -2.8220    0.9185 C   0  0  1  0  0  0  0  0  0  0  0  0
    4.8863   -4.0093    1.9432 C   0  0  1  0  0  0  0  0  0  0  0  0
    5.1807   -3.4133    3.3358 C   0  0  0  0  0  0  0  0  0  0  0  0
    3.4891   -4.6865    2.0343 C   0  0  0  0  0  0  0  0  0  0  0  0
    3.4342   -5.8500    3.0500 C   0  0  0  0  0  0  0  0  0  0  0  0
    4.5685   -6.8602    2.8422 C   0  0  0  0  0  0  0  0  0  0  0  0
    4.3760   -8.0578    2.9566 O   0  0  0  0  0  0  0  0  0  0  0  0
    5.9610   -6.2939    2.5533 C   0  0  0  0  0  0  0  0  0  0  0  0
    5.8831   -5.1370    1.5444 C   0  0  2  0  0  0  0  0  0  0  0  0
    7.2527   -4.5723    1.1524 C   0  0  0  0  0  0  0  0  0  0  0  0
    7.1785   -3.5314    0.0115 C   0  0  0  0  0  0  0  0  0  0  0  0
    5.7267   -3.1367   -0.4223 C   0  0  1  0  0  0  0  0  0  0  0  0
    5.0693   -4.0222   -1.5136 C   0  0  2  0  0  0  0  0  0  0  0  0
    5.8403   -3.1718   -2.5420 C   0  0  0  0  0  0  0  0  0  0  0  0
    5.5719   -2.0586   -1.5414 C   0  0  1  0  0  0  0  0  0  0  0  0
    3.6469   -3.8270   -1.5415 O   0  0  0  0  0  0  0  0  0  0  0  0
    3.2267   -2.5730   -2.0898 C   0  0  0  0  0  0  0  0  0  0  0  0
    3.1066    0.0236   -2.8420 H   0  0  0  0  0  0  0  0  0  0  0  0
    4.4277   -0.7020   -3.7215 H   0  0  0  0  0  0  0  0  0  0  0  0
    4.7433    0.5053   -2.4963 H   0  0  0  0  0  0  0  0  0  0  0  0
    4.5368   -0.1676    0.0595 H   0  0  0  0  0  0  0  0  0  0  0  0
    2.8410   -0.4097   -0.2871 H   0  0  0  0  0  0  0  0  0  0  0  0
    3.4378   -1.5590    1.7433 H   0  0  0  0  0  0  0  0  0  0  0  0
    2.8566   -2.6500    0.5162 H   0  0  0  0  0  0  0  0  0  0  0  0
    5.6500   -2.0835    1.3899 H   0  0  0  0  0  0  0  0  0  0  0  0
    5.2859   -4.1482    4.1252 H   0  0  0  0  0  0  0  0  0  0  0  0
    4.4133   -2.7140    3.6531 H   0  0  0  0  0  0  0  0  0  0  0  0
    6.1229   -2.8420    3.3289 H   0  0  0  0  0  0  0  0  0  0  0  0
    2.7209   -3.9646    2.3184 H   0  0  0  0  0  0  0  0  0  0  0  0
    3.2031   -5.0640    1.0543 H   0  0  0  0  0  0  0  0  0  0  0  0
    3.5136   -5.4685    4.0671 H   0  0  0  0  0  0  0  0  0  0  0  0
    2.4756   -6.3653    2.9953 H   0  0  0  0  0  0  0  0  0  0  0  0
    6.4254   -5.9867    3.4885 H   0  0  0  0  0  0  0  0  0  0  0  0
    6.5776   -7.0999    2.1509 H   0  0  0  0  0  0  0  0  0  0  0  0
    5.4962   -5.6053    0.6409 H   0  0  0  0  0  0  0  0  0  0  0  0
    7.7041   -4.1106    2.0236 H   0  0  0  0  0  0  0  0  0  0  0  0
    7.9294   -5.3813    0.8675 H   0  0  0  0  0  0  0  0  0  0  0  0
    7.7392   -2.6404    0.2947 H   0  0  0  0  0  0  0  0  0  0  0  0
    7.7397   -3.9462   -0.8161 H   0  0  0  0  0  0  0  0  0  0  0  0
    5.3801   -5.0626   -1.5104 H   0  0  0  0  0  0  0  0  0  0  0  0
    6.8988   -3.4139   -2.6633 H   0  0  0  0  0  0  0  0  0  0  0  0
    5.3841   -3.0548   -3.5172 H   0  0  0  0  0  0  0  0  0  0  0  0
    6.3705   -1.3344   -1.4800 H   0  0  0  0  0  0  0  0  0  0  0  0
    2.2052   -2.3785   -1.7855 H   0  0  0  0  0  0  0  0  0  0  0  0
    3.1865   -2.6740   -3.1749 H   0  0  0  0  0  0  0  0  0  0  0  0
  2  1  1  6
  1 22  1  0
  1 23  1  0
  1 24  1  0
  2 19  1  0
  2 21  1  0
  2  3  1  0
  3  4  1  0
  3 25  1  0
  3 26  1  0
  4  5  1  0
  4 27  1  0
  4 28  1  0
  5 16  1  0
  5  6  1  0
  5 29  1  1
  6 13  1  0
  6  7  1  1
  6  8  1  0
  7 30  1  0
  7 31  1  0
  7 32  1  0
  8  9  1  0
  8 33  1  0
  8 34  1  0
  9 10  1  0
  9 35  1  0
  9 36  1  0
 10 11  2  0
 10 12  1  0
 12 13  1  0
 12 37  1  0
 12 38  1  0
 13 14  1  0
 13 39  1  6
 14 15  1  0
 14 40  1  0
 14 41  1  0
 16 15  1  1
 15 42  1  0
 15 43  1  0
 16 19  1  0
 16 17  1  0
 17 18  1  0
 17 20  1  0
 17 44  1  1
 18 19  1  0
 18 45  1  0
 18 46  1  0
 19 47  1  1
 20 21  1  0
 21 48  1  0
 21 49  1  0
M  END
>  <i_m_ct_stereo_status>  (219) 
1

>  <s_m_source_file>  (219) 
/var/tmp/pbs.5076255.sched01/tmp_srbpc4z/1203xlsw0nt.sdf

>  <i_m_source_file_index>  (219) 
1

>  <i_lp_mmshare_version>  (219) 
48012

>  <i_f3d_flags>  (219) 
0

>  <s_epik_input>  (219) 
W0NIMl0xT1tDQEhdMltDSDJdW0NASF0zW0NAXTEoW0NIM10pW0NIMl1bQ0gyXVtDQEhdKFtDQEBdMjM0KVtDQF01KFtDSDNdKVtDQEBIXShbQ0gyXVtDSDJdNClbQ0gyXUMoPU8pW0NIMl1bQ0gyXTU=

>  <s_epik_cmdline>  (219) 
J2VwaWtfcHl0aG9uJywgJy1waHQnLCAnMi4wJywgJy1waCcsICc3LjAnLCAnLXRuJywgJzgnLCAnLW1hJywgJzIwMCcsICctaW1hZScsICc8aW5maWxlLm1hZT4nLCAnLW9tYWUnLCAnPG91dGZpbGUubWFlPic=

>  <r_lp_tautomer_probability>  (219) 
1

>  <r_epik_Ionization_Penalty>  (219) 
1.2453e-10

>  <r_epik_Ionization_Penalty_Charging>  (219) 
0

>  <r_epik_Ionization_Penalty_Neutral>  (219) 
1.2453e-10

>  <r_epik_State_Penalty>  (219) 
-0

>  <r_epik_Charging_Adjusted_Penalty>  (219) 
0

>  <i_epik_Tot_Q>  (219) 
0

>  <i_epik_Tot_abs_Q>  (219) 
0

>  <s_lp_Force_Field>  (219) 
OPLS3e

>  <r_lp_Energy>  (219) 
61.293

>  <b_lp_Chiralities_Consistent>  (219) 
1

>  <s_lp_Variant>  (219) 
84:0-1

>  <s_i_glide_gridfile>  (219) 
pfpi4k_grid

>  <i_i_glide_lignum>  (219) 
1

>  <i_i_glide_rotatable_bonds>  (219) 
0

>  <r_i_docking_score>  (219) 
-3.06878

>  <r_i_glide_ligand_efficiency>  (219) 
-0.146132

>  <r_i_glide_ligand_efficiency_sa>  (219) 
-0.403168

>  <r_i_glide_ligand_efficiency_ln>  (219) 
-0.75875

>  <r_i_glide_gscore>  (219) 
-3.06878

>  <r_i_glide_lipo>  (219) 
-0.962177

>  <r_i_glide_hbond>  (219) 
0

>  <r_i_glide_metal>  (219) 
-0

>  <r_i_glide_rewards>  (219) 
-1.44256

>  <r_i_glide_evdw>  (219) 
-17.4897

>  <r_i_glide_ecoul>  (219) 
1.40293

>  <r_i_glide_erotb>  (219) 
0

>  <r_i_glide_esite>  (219) 
0

>  <r_i_glide_emodel>  (219) 
-18.0084

>  <r_i_glide_energy>  (219) 
-16.0868

>  <r_i_glide_einternal>  (219) 
0

>  <r_i_glide_intrahb_reward>  (219) 
-0

>  <i_i_glide_confnum>  (219) 
1

>  <i_i_glide_posenum>  (219) 
13

>  <r_i_glide_eff_state_penalty>  (219) 
0

>  <ligand_id>  (219) 
84

>  <original_smiles>  (219) 
CC12CCC3C4(C)CCC(=O)CC4CCC34C(CC14)OC2

>  <smiles>  (219) 
[H]C([H])([H])C12C([H])([H])OC3([H])C([H])([H])C1([H])C31C([H])([H])C([H])([H])C3([H])C([H])([H])C(=O)C([H])([H])C([H])([H])C3(C([H])([H])[H])C1([H])C([H])([H])C2([H])[H]

$$$$
84:0:1
     RDKit          3D

 49 53  0  0  1  0  0  0  0  0999 V2000
    4.1675   -1.4665   -4.3204 C   0  0  0  0  0  0  0  0  0  0  0  0
    4.1593   -1.7500   -2.8301 C   0  0  2  0  0  0  0  0  0  0  0  0
    4.4401   -0.4912   -2.0639 C   0  0  0  0  0  0  0  0  0  0  0  0
    4.2402   -0.6901   -0.5422 C   0  0  0  0  0  0  0  0  0  0  0  0
    5.1185   -1.7958    0.0557 C   0  0  1  0  0  0  0  0  0  0  0  0
    4.8462   -2.0235    1.5902 C   0  0  1  0  0  0  0  0  0  0  0  0
    5.7965   -1.0626    2.3517 C   0  0  0  0  0  0  0  0  0  0  0  0
    3.3860   -1.7421    2.0723 C   0  0  0  0  0  0  0  0  0  0  0  0
    3.1753   -2.0103    3.5804 C   0  0  0  0  0  0  0  0  0  0  0  0
    3.6793   -3.3882    3.9988 C   0  0  0  0  0  0  0  0  0  0  0  0
    3.0656   -4.0590    4.8172 O   0  0  0  0  0  0  0  0  0  0  0  0
    5.0218   -3.8430    3.4361 C   0  0  0  0  0  0  0  0  0  0  0  0
    5.1235   -3.5093    1.9390 C   0  0  2  0  0  0  0  0  0  0  0  0
    6.4292   -3.9901    1.2863 C   0  0  0  0  0  0  0  0  0  0  0  0
    6.4147   -3.8143   -0.2505 C   0  0  0  0  0  0  0  0  0  0  0  0
    5.2131   -3.0383   -0.8345 C   0  0  1  0  0  0  0  0  0  0  0  0
    3.9659   -3.8805   -1.1832 C   0  0  2  0  0  0  0  0  0  0  0  0
    4.6826   -4.1676   -2.5280 C   0  0  0  0  0  0  0  0  0  0  0  0
    5.1790   -2.7765   -2.3777 C   0  0  1  0  0  0  0  0  0  0  0  0
    2.7630   -3.1166   -1.3448 O   0  0  0  0  0  0  0  0  0  0  0  0
    2.7638   -2.2992   -2.5097 C   0  0  0  0  0  0  0  0  0  0  0  0
    3.3986   -0.7421   -4.6016 H   0  0  0  0  0  0  0  0  0  0  0  0
    3.9642   -2.3829   -4.8413 H   0  0  0  0  0  0  0  0  0  0  0  0
    5.0785   -1.0563   -4.7061 H   0  0  0  0  0  0  0  0  0  0  0  0
    5.4633   -0.1847   -2.2572 H   0  0  0  0  0  0  0  0  0  0  0  0
    3.8135    0.2941   -2.4849 H   0  0  0  0  0  0  0  0  0  0  0  0
    4.4716    0.2453   -0.0249 H   0  0  0  0  0  0  0  0  0  0  0  0
    3.1800   -0.8497   -0.3661 H   0  0  0  0  0  0  0  0  0  0  0  0
    6.0988   -1.3341   -0.0058 H   0  0  0  0  0  0  0  0  0  0  0  0
    5.7805   -1.2045    3.4289 H   0  0  0  0  0  0  0  0  0  0  0  0
    5.5301   -0.0229    2.1629 H   0  0  0  0  0  0  0  0  0  0  0  0
    6.8325   -1.1813    2.0410 H   0  0  0  0  0  0  0  0  0  0  0  0
    3.0903   -0.7155    1.8676 H   0  0  0  0  0  0  0  0  0  0  0  0
    2.6926   -2.3745    1.5148 H   0  0  0  0  0  0  0  0  0  0  0  0
    3.6994   -1.2581    4.1687 H   0  0  0  0  0  0  0  0  0  0  0  0
    2.1220   -1.9074    3.8443 H   0  0  0  0  0  0  0  0  0  0  0  0
    5.8140   -3.3710    4.0072 H   0  0  0  0  0  0  0  0  0  0  0  0
    5.1154   -4.9163    3.5923 H   0  0  0  0  0  0  0  0  0  0  0  0
    4.3367   -4.1103    1.4852 H   0  0  0  0  0  0  0  0  0  0  0  0
    7.2749   -3.4338    1.6774 H   0  0  0  0  0  0  0  0  0  0  0  0
    6.6127   -5.0380    1.5333 H   0  0  0  0  0  0  0  0  0  0  0  0
    7.3528   -3.3846   -0.5884 H   0  0  0  0  0  0  0  0  0  0  0  0
    6.3886   -4.8270   -0.6147 H   0  0  0  0  0  0  0  0  0  0  0  0
    3.8408   -4.7880   -0.5843 H   0  0  0  0  0  0  0  0  0  0  0  0
    5.4154   -4.9751   -2.4519 H   0  0  0  0  0  0  0  0  0  0  0  0
    4.0772   -4.2949   -3.4131 H   0  0  0  0  0  0  0  0  0  0  0  0
    6.1794   -2.6783   -2.7871 H   0  0  0  0  0  0  0  0  0  0  0  0
    2.0983   -1.4672   -2.3699 H   0  0  0  0  0  0  0  0  0  0  0  0
    2.3471   -2.8894   -3.3328 H   0  0  0  0  0  0  0  0  0  0  0  0
  2  1  1  6
  1 22  1  0
  1 23  1  0
  1 24  1  0
  2 19  1  0
  2 21  1  0
  2  3  1  0
  3  4  1  0
  3 25  1  0
  3 26  1  0
  4  5  1  0
  4 27  1  0
  4 28  1  0
  5 16  1  0
  5  6  1  0
  5 29  1  1
  6 13  1  0
  6  7  1  1
  6  8  1  0
  7 30  1  0
  7 31  1  0
  7 32  1  0
  8  9  1  0
  8 33  1  0
  8 34  1  0
  9 10  1  0
  9 35  1  0
  9 36  1  0
 10 11  2  0
 10 12  1  0
 12 13  1  0
 12 37  1  0
 12 38  1  0
 13 14  1  0
 13 39  1  6
 14 15  1  0
 14 40  1  0
 14 41  1  0
 16 15  1  6
 15 42  1  0
 15 43  1  0
 16 19  1  0
 16 17  1  0
 17 18  1  0
 17 20  1  0
 17 44  1  1
 18 19  1  0
 18 45  1  0
 18 46  1  0
 19 47  1  6
 20 21  1  0
 21 48  1  0
 21 49  1  0
M  END
>  <i_m_ct_stereo_status>  (220) 
1

>  <s_m_source_file>  (220) 
/var/tmp/pbs.5076255.sched01/tmp_srbpc4z/1203xlsw0nt.sdf

>  <i_m_source_file_index>  (220) 
1

>  <i_lp_mmshare_version>  (220) 
48012

>  <i_f3d_flags>  (220) 
0

>  <s_epik_input>  (220) 
W0NIMl0xT1tDQEhdMltDSDJdW0NASF0zW0NAXTEoW0NIM10pW0NIMl1bQ0gyXVtDQEhdKFtDQEBdMjM0KVtDQF01KFtDSDNdKVtDQEBIXShbQ0gyXVtDSDJdNClbQ0gyXUMoPU8pW0NIMl1bQ0gyXTU=

>  <s_epik_cmdline>  (220) 
J2VwaWtfcHl0aG9uJywgJy1waHQnLCAnMi4wJywgJy1waCcsICc3LjAnLCAnLXRuJywgJzgnLCAnLW1hJywgJzIwMCcsICctaW1hZScsICc8aW5maWxlLm1hZT4nLCAnLW9tYWUnLCAnPG91dGZpbGUubWFlPic=

>  <r_lp_tautomer_probability>  (220) 
1

>  <r_epik_Ionization_Penalty>  (220) 
1.2453e-10

>  <r_epik_Ionization_Penalty_Charging>  (220) 
0

>  <r_epik_Ionization_Penalty_Neutral>  (220) 
1.2453e-10

>  <r_epik_State_Penalty>  (220) 
-0

>  <r_epik_Charging_Adjusted_Penalty>  (220) 
0

>  <i_epik_Tot_Q>  (220) 
0

>  <i_epik_Tot_abs_Q>  (220) 
0

>  <s_lp_Force_Field>  (220) 
OPLS3e

>  <r_lp_Energy>  (220) 
61.293

>  <b_lp_Chiralities_Consistent>  (220) 
1

>  <s_lp_Variant>  (220) 
84:0-1

>  <s_i_glide_gridfile>  (220) 
pfpi4k_grid

>  <i_i_glide_lignum>  (220) 
1

>  <i_i_glide_rotatable_bonds>  (220) 
0

>  <r_i_docking_score>  (220) 
-2.44238

>  <r_i_glide_ligand_efficiency>  (220) 
-0.116304

>  <r_i_glide_ligand_efficiency_sa>  (220) 
-0.320873

>  <r_i_glide_ligand_efficiency_ln>  (220) 
-0.603873

>  <r_i_glide_gscore>  (220) 
-2.44238

>  <r_i_glide_lipo>  (220) 
-0.571221

>  <r_i_glide_hbond>  (220) 
0

>  <r_i_glide_metal>  (220) 
-0

>  <r_i_glide_rewards>  (220) 
-1.44256

>  <r_i_glide_evdw>  (220) 
-11.482

>  <r_i_glide_ecoul>  (220) 
0.970016

>  <r_i_glide_erotb>  (220) 
0

>  <r_i_glide_esite>  (220) 
0

>  <r_i_glide_emodel>  (220) 
-11.1526

>  <r_i_glide_energy>  (220) 
-10.512

>  <r_i_glide_einternal>  (220) 
0

>  <r_i_glide_intrahb_reward>  (220) 
-0

>  <i_i_glide_confnum>  (220) 
2

>  <i_i_glide_posenum>  (220) 
16

>  <r_i_glide_eff_state_penalty>  (220) 
0

>  <ligand_id>  (220) 
84

>  <original_smiles>  (220) 
CC12CCC3C4(C)CCC(=O)CC4CCC34C(CC14)OC2

>  <smiles>  (220) 
[H]C([H])([H])C12C([H])([H])OC3([H])C([H])([H])C1([H])C31C([H])([H])C([H])([H])C3([H])C([H])([H])C(=O)C([H])([H])C([H])([H])C3(C([H])([H])[H])C1([H])C([H])([H])C2([H])[H]

$$$$
84:0:2
     RDKit          3D

 49 53  0  0  1  0  0  0  0  0999 V2000
    3.6416   -1.5798   -4.0928 C   0  0  0  0  0  0  0  0  0  0  0  0
    3.7175   -2.0286   -2.6277 C   0  0  2  0  0  0  0  0  0  0  0  0
    3.5839   -0.8507   -1.7374 C   0  0  0  0  0  0  0  0  0  0  0  0
    3.4881   -1.1921   -0.2366 C   0  0  0  0  0  0  0  0  0  0  0  0
    4.7238   -1.9762    0.2611 C   0  0  1  0  0  0  0  0  0  0  0  0
    4.6008   -2.4555    1.7650 C   0  0  1  0  0  0  0  0  0  0  0  0
    5.1644   -1.2985    2.6324 C   0  0  0  0  0  0  0  0  0  0  0  0
    3.1513   -2.7818    2.2607 C   0  0  0  0  0  0  0  0  0  0  0  0
    3.0875   -3.2453    3.7358 C   0  0  0  0  0  0  0  0  0  0  0  0
    4.0639   -4.3842    4.0265 C   0  0  0  0  0  0  0  0  0  0  0  0
    3.7598   -5.3165    4.7616 O   0  0  0  0  0  0  0  0  0  0  0  0
    5.4549   -4.2681    3.4079 C   0  0  0  0  0  0  0  0  0  0  0  0
    5.4041   -3.7733    1.9457 C   0  0  2  0  0  0  0  0  0  0  0  0
    6.7717   -3.6853    1.2485 C   0  0  0  0  0  0  0  0  0  0  0  0
    6.6661   -3.3864   -0.2593 C   0  0  0  0  0  0  0  0  0  0  0  0
    5.2366   -3.0381   -0.7544 C   0  0  1  0  0  0  0  0  0  0  0  0
    4.3478   -4.2385   -1.1657 C   0  0  2  0  0  0  0  0  0  0  0  0
    5.0291   -4.1513   -2.5506 C   0  0  0  0  0  0  0  0  0  0  0  0
    5.0395   -2.6733   -2.2687 C   0  0  1  0  0  0  0  0  0  0  0  0
    2.9559   -3.8539   -1.1984 O   0  0  0  0  0  0  0  0  0  0  0  0
    2.5896   -3.0547   -2.3304 C   0  0  0  0  0  0  0  0  0  0  0  0
    2.6552   -1.1608   -4.3137 H   0  0  0  0  0  0  0  0  0  0  0  0
    3.7782   -2.4400   -4.7391 H   0  0  0  0  0  0  0  0  0  0  0  0
    4.3846   -0.8240   -4.3442 H   0  0  0  0  0  0  0  0  0  0  0  0
    4.3925   -0.1365   -1.9083 H   0  0  0  0  0  0  0  0  0  0  0  0
    2.6459   -0.3490   -2.0638 H   0  0  0  0  0  0  0  0  0  0  0  0
    3.3718   -0.2807    0.3524 H   0  0  0  0  0  0  0  0  0  0  0  0
    2.6115   -1.7897   -0.0502 H   0  0  0  0  0  0  0  0  0  0  0  0
    5.4916   -1.2037    0.2481 H   0  0  0  0  0  0  0  0  0  0  0  0
    5.2274   -1.5419    3.6911 H   0  0  0  0  0  0  0  0  0  0  0  0
    4.5345   -0.4104    2.5435 H   0  0  0  0  0  0  0  0  0  0  0  0
    6.1710   -1.0112    2.3212 H   0  0  0  0  0  0  0  0  0  0  0  0
    2.4955   -1.9189    2.1627 H   0  0  0  0  0  0  0  0  0  0  0  0
    2.7177   -3.5681    1.6388 H   0  0  0  0  0  0  0  0  0  0  0  0
    3.3303   -2.4168    4.4022 H   0  0  0  0  0  0  0  0  0  0  0  0
    2.0792   -3.5639    4.0010 H   0  0  0  0  0  0  0  0  0  0  0  0
    6.0345   -3.5949    4.0367 H   0  0  0  0  0  0  0  0  0  0  0  0
    5.9449   -5.2432    3.4611 H   0  0  0  0  0  0  0  0  0  0  0  0
    4.8602   -4.5720    1.4376 H   0  0  0  0  0  0  0  0  0  0  0  0
    7.3669   -2.8893    1.6857 H   0  0  0  0  0  0  0  0  0  0  0  0
    7.3309   -4.6090    1.4070 H   0  0  0  0  0  0  0  0  0  0  0  0
    7.3509   -2.5775   -0.5099 H   0  0  0  0  0  0  0  0  0  0  0  0
    7.0656   -4.2641   -0.7465 H   0  0  0  0  0  0  0  0  0  0  0  0
    4.5497   -5.1875   -0.6531 H   0  0  0  0  0  0  0  0  0  0  0  0
    6.0479   -4.4683   -2.6185 H   0  0  0  0  0  0  0  0  0  0  0  0
    4.4766   -4.4758   -3.4314 H   0  0  0  0  0  0  0  0  0  0  0  0
    5.9218   -2.1659   -2.6807 H   0  0  0  0  0  0  0  0  0  0  0  0
    1.6177   -2.6052   -2.1488 H   0  0  0  0  0  0  0  0  0  0  0  0
    2.4365   -3.7156   -3.1892 H   0  0  0  0  0  0  0  0  0  0  0  0
  2  1  1  6
  1 22  1  0
  1 23  1  0
  1 24  1  0
  2 19  1  0
  2 21  1  0
  2  3  1  0
  3  4  1  0
  3 25  1  0
  3 26  1  0
  4  5  1  0
  4 27  1  0
  4 28  1  0
  5 16  1  0
  5  6  1  0
  5 29  1  1
  6 13  1  0
  6  7  1  1
  6  8  1  0
  7 30  1  0
  7 31  1  0
  7 32  1  0
  8  9  1  0
  8 33  1  0
  8 34  1  0
  9 10  1  0
  9 35  1  0
  9 36  1  0
 10 11  2  0
 10 12  1  0
 12 13  1  0
 12 37  1  0
 12 38  1  0
 13 14  1  0
 13 39  1  6
 14 15  1  0
 14 40  1  0
 14 41  1  0
 16 15  1  6
 15 42  1  0
 15 43  1  0
 16 19  1  0
 16 17  1  0
 17 18  1  0
 17 20  1  0
 17 44  1  1
 18 19  1  0
 18 45  1  0
 18 46  1  0
 19 47  1  6
 20 21  1  0
 21 48  1  0
 21 49  1  0
M  END
>  <i_m_ct_stereo_status>  (221) 
1

>  <s_m_source_file>  (221) 
/var/tmp/pbs.5076255.sched01/tmp_srbpc4z/1203xlsw0nt.sdf

>  <i_m_source_file_index>  (221) 
1

>  <i_lp_mmshare_version>  (221) 
48012

>  <i_f3d_flags>  (221) 
0

>  <s_epik_input>  (221) 
W0NIMl0xT1tDQEhdMltDSDJdW0NASF0zW0NAXTEoW0NIM10pW0NIMl1bQ0gyXVtDQEhdKFtDQEBdMjM0KVtDQF01KFtDSDNdKVtDQEBIXShbQ0gyXVtDSDJdNClbQ0gyXUMoPU8pW0NIMl1bQ0gyXTU=

>  <s_epik_cmdline>  (221) 
J2VwaWtfcHl0aG9uJywgJy1waHQnLCAnMi4wJywgJy1waCcsICc3LjAnLCAnLXRuJywgJzgnLCAnLW1hJywgJzIwMCcsICctaW1hZScsICc8aW5maWxlLm1hZT4nLCAnLW9tYWUnLCAnPG91dGZpbGUubWFlPic=

>  <r_lp_tautomer_probability>  (221) 
1

>  <r_epik_Ionization_Penalty>  (221) 
1.2453e-10

>  <r_epik_Ionization_Penalty_Charging>  (221) 
0

>  <r_epik_Ionization_Penalty_Neutral>  (221) 
1.2453e-10

>  <r_epik_State_Penalty>  (221) 
-0

>  <r_epik_Charging_Adjusted_Penalty>  (221) 
0

>  <i_epik_Tot_Q>  (221) 
0

>  <i_epik_Tot_abs_Q>  (221) 
0

>  <s_lp_Force_Field>  (221) 
OPLS3e

>  <r_lp_Energy>  (221) 
61.293

>  <b_lp_Chiralities_Consistent>  (221) 
1

>  <s_lp_Variant>  (221) 
84:0-1

>  <s_i_glide_gridfile>  (221) 
pfpi4k_grid

>  <i_i_glide_lignum>  (221) 
1

>  <i_i_glide_rotatable_bonds>  (221) 
0

>  <r_i_docking_score>  (221) 
-2.2541

>  <r_i_glide_ligand_efficiency>  (221) 
-0.107338

>  <r_i_glide_ligand_efficiency_sa>  (221) 
-0.296138

>  <r_i_glide_ligand_efficiency_ln>  (221) 
-0.557323

>  <r_i_glide_gscore>  (221) 
-2.2541

>  <r_i_glide_lipo>  (221) 
-0.52385

>  <r_i_glide_hbond>  (221) 
0

>  <r_i_glide_metal>  (221) 
-0

>  <r_i_glide_rewards>  (221) 
-1.44256

>  <r_i_glide_evdw>  (221) 
-8.33968

>  <r_i_glide_ecoul>  (221) 
0.861943

>  <r_i_glide_erotb>  (221) 
0

>  <r_i_glide_esite>  (221) 
0

>  <r_i_glide_emodel>  (221) 
-8.47265

>  <r_i_glide_energy>  (221) 
-7.47773

>  <r_i_glide_einternal>  (221) 
0

>  <r_i_glide_intrahb_reward>  (221) 
-0

>  <i_i_glide_confnum>  (221) 
1

>  <i_i_glide_posenum>  (221) 
1

>  <r_i_glide_eff_state_penalty>  (221) 
0

>  <ligand_id>  (221) 
84

>  <original_smiles>  (221) 
CC12CCC3C4(C)CCC(=O)CC4CCC34C(CC14)OC2

>  <smiles>  (221) 
[H]C([H])([H])C12C([H])([H])OC3([H])C([H])([H])C1([H])C31C([H])([H])C([H])([H])C3([H])C([H])([H])C(=O)C([H])([H])C([H])([H])C3(C([H])([H])[H])C1([H])C([H])([H])C2([H])[H]

$$$$
85:0:0
     RDKit          3D

 45 50  0  0  1  0  0  0  0  0999 V2000
    1.3904   -1.5970    5.6388 C   0  0  0  0  0  0  0  0  0  0  0  0
    1.6399   -0.2811    5.7828 C   0  0  0  0  0  0  0  0  0  0  0  0
    2.6502    0.5096    4.9627 C   0  0  1  0  0  0  0  0  0  0  0  0
    3.3762   -0.2961    3.9037 C   0  0  0  0  0  0  0  0  0  0  0  0
    3.1321    0.1192    2.6581 C   0  0  0  0  0  0  0  0  0  0  0  0
    3.6782   -0.4047    1.3427 C   0  0  0  0  0  0  0  0  0  0  0  0
    2.2084    1.2481    2.7178 C   0  0  0  0  0  0  0  0  0  0  0  0
    1.6291    1.7542    1.7585 O   0  0  0  0  0  0  0  0  0  0  0  0
    2.0121    1.6934    4.1773 C   0  0  1  0  0  0  0  0  0  0  0  0
    0.5721    2.1711    4.6022 C   0  0  1  0  0  0  0  0  0  0  0  0
    0.3711    3.6935    4.2514 C   0  0  1  0  0  0  0  0  0  0  0  0
    1.2459    4.2265    3.2681 O   0  0  0  0  0  0  0  0  0  0  0  0
   -1.1078    3.8713    3.7964 C   0  0  1  0  0  0  0  0  0  0  0  0
   -1.3853    4.9558    2.9289 O   0  0  0  0  0  0  0  0  0  0  0  0
   -1.5449    2.5012    3.2617 C   0  0  0  0  0  0  0  0  0  0  0  0
   -0.7067    1.4726    4.0306 C   0  0  1  0  0  0  0  0  0  0  0  0
   -0.5670    0.2682    3.3096 O   0  0  0  0  0  0  0  0  0  0  0  0
   -1.0861    1.1259    5.4523 C   0  0  1  0  0  0  0  0  0  0  0  0
   -2.2144    0.5630    6.0986 O   0  0  0  0  0  0  0  0  0  0  0  0
   -2.0295    1.9731    6.3041 C   0  0  1  0  0  0  0  0  0  0  0  0
   -0.7955    2.5926    6.9118 C   0  0  1  0  0  0  0  0  0  0  0  0
   -0.8149    2.5289    8.3222 O   0  0  0  0  0  0  0  0  0  0  0  0
    0.1402    1.7030    6.0562 C   0  0  2  0  0  0  0  0  0  0  0  0
    0.9375    0.6074    6.7869 C   0  0  1  0  0  0  0  0  0  0  0  0
    0.1636   -0.1576    7.7043 O   0  0  0  0  0  0  0  0  0  0  0  0
    0.6541   -2.1026    6.2520 H   0  0  0  0  0  0  0  0  0  0  0  0
    1.9060   -2.2051    4.9087 H   0  0  0  0  0  0  0  0  0  0  0  0
    3.3971    0.9018    5.6523 H   0  0  0  0  0  0  0  0  0  0  0  0
    4.0355   -1.1085    4.1591 H   0  0  0  0  0  0  0  0  0  0  0  0
    4.2203    0.3799    0.8139 H   0  0  0  0  0  0  0  0  0  0  0  0
    2.8562   -0.7253    0.7041 H   0  0  0  0  0  0  0  0  0  0  0  0
    4.3527   -1.2504    1.4790 H   0  0  0  0  0  0  0  0  0  0  0  0
    2.7028    2.5324    4.3042 H   0  0  0  0  0  0  0  0  0  0  0  0
    0.5905    4.3095    5.1208 H   0  0  0  0  0  0  0  0  0  0  0  0
    0.8909    4.0990    2.3871 H   0  0  0  0  0  0  0  0  0  0  0  0
   -1.6977    4.0728    4.6849 H   0  0  0  0  0  0  0  0  0  0  0  0
   -0.8366    4.8831    2.1501 H   0  0  0  0  0  0  0  0  0  0  0  0
   -2.6243    2.3395    3.3013 H   0  0  0  0  0  0  0  0  0  0  0  0
   -1.2638    2.4642    2.2058 H   0  0  0  0  0  0  0  0  0  0  0  0
   -0.2597    0.5130    2.4455 H   0  0  0  0  0  0  0  0  0  0  0  0
   -2.7775    2.6309    5.8773 H   0  0  0  0  0  0  0  0  0  0  0  0
   -0.7499    3.6599    6.6814 H   0  0  0  0  0  0  0  0  0  0  0  0
   -0.0500    2.9890    8.6441 H   0  0  0  0  0  0  0  0  0  0  0  0
    1.7065    1.0958    7.3832 H   0  0  0  0  0  0  0  0  0  0  0  0
    0.7620   -0.5303    8.3362 H   0  0  0  0  0  0  0  0  0  0  0  0
  1  2  2  0
  1 26  1  0
  1 27  1  0
  2 24  1  0
  2  3  1  0
  3  9  1  0
  3  4  1  0
  3 28  1  1
  4  5  2  0
  4 29  1  0
  5  6  1  0
  5  7  1  0
  6 30  1  0
  6 31  1  0
  6 32  1  0
  7  8  2  0
  7  9  1  0
  9 10  1  0
  9 33  1  6
 10 16  1  6
 10 23  1  0
 10 11  1  0
 11 12  1  0
 11 13  1  0
 11 34  1  1
 12 35  1  0
 13 14  1  0
 13 15  1  0
 13 36  1  1
 14 37  1  0
 15 16  1  0
 15 38  1  0
 15 39  1  0
 16 17  1  6
 16 18  1  0
 17 40  1  0
 18 20  1  0
 23 18  1  6
 18 19  1  6
 19 20  1  0
 20 21  1  0
 20 41  1  6
 21 22  1  0
 21 23  1  0
 21 42  1  1
 22 43  1  0
 23 24  1  0
 24 25  1  0
 24 44  1  1
 25 45  1  0
M  END
>  <i_m_ct_stereo_status>  (222) 
1

>  <s_m_source_file>  (222) 
/var/tmp/pbs.5076255.sched01/tmp_srbpc4z/1203xlsw0nt.sdf

>  <i_m_source_file_index>  (222) 
2

>  <i_lp_mmshare_version>  (222) 
48012

>  <i_f3d_flags>  (222) 
2

>  <s_epik_input>  (222) 
W0NIXTE9QyhbQ0gzXSlDKD1PKVtDQEBIXTJbQ0BIXTFDKD1bQ0gyXSlbQ0BIXShbT0hdKVtDQEBdMyhbQ0BdMjQ1KUM2KFtDQEhdKE82KVtDQEhdM1tPSF0pW0NAQF01KFtPSF0pW0NIMl1bQ0BIXShbT0hdKVtDQEBIXTRbT0hd

>  <s_epik_cmdline>  (222) 
J2VwaWtfcHl0aG9uJywgJy1waHQnLCAnMi4wJywgJy1waCcsICc3LjAnLCAnLXRuJywgJzgnLCAnLW1hJywgJzIwMCcsICctaW1hZScsICc8aW5maWxlLm1hZT4nLCAnLW9tYWUnLCAnPG91dGZpbGUubWFlPic=

>  <r_lp_tautomer_probability>  (222) 
1

>  <r_epik_Ionization_Penalty>  (222) 
1.27565e-06

>  <r_epik_Ionization_Penalty_Charging>  (222) 
0

>  <r_epik_Ionization_Penalty_Neutral>  (222) 
1.27565e-06

>  <r_epik_State_Penalty>  (222) 
-0

>  <r_epik_Charging_Adjusted_Penalty>  (222) 
0

>  <i_epik_Tot_Q>  (222) 
0

>  <i_epik_Tot_abs_Q>  (222) 
0

>  <s_lp_Force_Field>  (222) 
OPLS3e

>  <r_lp_Energy>  (222) 
62.5409

>  <b_lp_Chiralities_Consistent>  (222) 
0

>  <s_lp_Variant>  (222) 
85:0-1

>  <s_i_glide_gridfile>  (222) 
pfpi4k_grid

>  <i_i_glide_lignum>  (222) 
2

>  <i_i_glide_rotatable_bonds>  (222) 
5

>  <r_i_docking_score>  (222) 
-4.11388

>  <r_i_glide_ligand_efficiency>  (222) 
-0.164555

>  <r_i_glide_ligand_efficiency_sa>  (222) 
-0.481162

>  <r_i_glide_ligand_efficiency_ln>  (222) 
-0.975113

>  <r_i_glide_gscore>  (222) 
-4.11388

>  <r_i_glide_lipo>  (222) 
-0.0281088

>  <r_i_glide_hbond>  (222) 
-0.119941

>  <r_i_glide_metal>  (222) 
-0

>  <r_i_glide_rewards>  (222) 
-1.05398

>  <r_i_glide_evdw>  (222) 
-21.5735

>  <r_i_glide_ecoul>  (222) 
-12.2211

>  <r_i_glide_erotb>  (222) 
0

>  <r_i_glide_esite>  (222) 
0

>  <r_i_glide_emodel>  (222) 
-43.6609

>  <r_i_glide_energy>  (222) 
-33.7946

>  <r_i_glide_einternal>  (222) 
1.43899

>  <r_i_glide_intrahb_reward>  (222) 
-0

>  <i_i_glide_confnum>  (222) 
1

>  <i_i_glide_posenum>  (222) 
1

>  <r_i_glide_eff_state_penalty>  (222) 
0

>  <ligand_id>  (222) 
85

>  <original_smiles>  (222) 
C=C1C2C=C(C)C(=O)C2C23C(O)C(O)CC2(O)C24OC2C(O)C43C1O

>  <smiles>  (222) 
[H]OC1([H])C(=C([H])[H])C2([H])C([H])=C(C([H])([H])[H])C(=O)C2([H])C23C([H])(O[H])C([H])(O[H])C([H])([H])C2(O[H])C24OC2([H])C([H])(O[H])C143

$$$$
85:0:1
     RDKit          3D

 45 50  0  0  1  0  0  0  0  0999 V2000
    5.1878   -4.2119    4.0666 C   0  0  0  0  0  0  0  0  0  0  0  0
    5.6986   -3.8954    2.8663 C   0  0  0  0  0  0  0  0  0  0  0  0
    6.3395   -4.8701    1.8955 C   0  0  1  0  0  0  0  0  0  0  0  0
    6.3072   -6.3142    2.3569 C   0  0  0  0  0  0  0  0  0  0  0  0
    5.5667   -7.0978    1.5708 C   0  0  0  0  0  0  0  0  0  0  0  0
    5.3010   -8.5932    1.6741 C   0  0  0  0  0  0  0  0  0  0  0  0
    5.0176   -6.2806    0.4929 C   0  0  0  0  0  0  0  0  0  0  0  0
    4.1658   -6.6157   -0.2974 O   0  0  0  0  0  0  0  0  0  0  0  0
    5.6446   -4.8870    0.5055 C   0  0  1  0  0  0  0  0  0  0  0  0
    4.6937   -3.6745    0.1561 C   0  0  1  0  0  0  0  0  0  0  0  0
    4.6403   -3.4482   -1.3877 C   0  0  1  0  0  0  0  0  0  0  0  0
    5.0292   -4.5645   -2.1694 O   0  0  0  0  0  0  0  0  0  0  0  0
    3.1892   -3.0297   -1.7561 C   0  0  1  0  0  0  0  0  0  0  0  0
    2.7719   -3.3470   -3.0774 O   0  0  0  0  0  0  0  0  0  0  0  0
    2.3091   -3.6055   -0.6408 C   0  0  0  0  0  0  0  0  0  0  0  0
    3.1899   -3.6733    0.5957 C   0  0  1  0  0  0  0  0  0  0  0  0
    2.7470   -4.6192    1.5365 O   0  0  0  0  0  0  0  0  0  0  0  0
    3.4686   -2.3974    1.3734 C   0  0  1  0  0  0  0  0  0  0  0  0
    2.6972   -1.4383    2.0693 O   0  0  0  0  0  0  0  0  0  0  0  0
    3.3103   -0.9602    0.8339 C   0  0  1  0  0  0  0  0  0  0  0  0
    4.7559   -0.9824    0.4194 C   0  0  1  0  0  0  0  0  0  0  0  0
    5.4225    0.1362    0.9016 O   0  0  0  0  0  0  0  0  0  0  0  0
    4.9250   -2.3811    1.0292 C   0  0  2  0  0  0  0  0  0  0  0  0
    5.7413   -2.4809    2.3188 C   0  0  1  0  0  0  0  0  0  0  0  0
    5.3817   -1.5196    3.2988 O   0  0  0  0  0  0  0  0  0  0  0  0
    4.7938   -3.4531    4.7178 H   0  0  0  0  0  0  0  0  0  0  0  0
    5.1978   -5.2142    4.4358 H   0  0  0  0  0  0  0  0  0  0  0  0
    7.3830   -4.5870    1.7583 H   0  0  0  0  0  0  0  0  0  0  0  0
    6.8644   -6.6554    3.2263 H   0  0  0  0  0  0  0  0  0  0  0  0
    5.6409   -9.1147    0.7774 H   0  0  0  0  0  0  0  0  0  0  0  0
    4.2281   -8.7711    1.7611 H   0  0  0  0  0  0  0  0  0  0  0  0
    5.7920   -9.0571    2.5372 H   0  0  0  0  0  0  0  0  0  0  0  0
    6.4468   -4.9198   -0.2314 H   0  0  0  0  0  0  0  0  0  0  0  0
    5.3610   -2.6913   -1.7134 H   0  0  0  0  0  0  0  0  0  0  0  0
    4.2687   -5.1906   -2.1948 H   0  0  0  0  0  0  0  0  0  0  0  0
    3.1228   -1.9447   -1.6835 H   0  0  0  0  0  0  0  0  0  0  0  0
    2.6010   -4.2794   -3.1307 H   0  0  0  0  0  0  0  0  0  0  0  0
    1.4013   -3.0472   -0.5187 H   0  0  0  0  0  0  0  0  0  0  0  0
    2.0155   -4.6205   -0.9197 H   0  0  0  0  0  0  0  0  0  0  0  0
    2.7838   -5.4565    1.0973 H   0  0  0  0  0  0  0  0  0  0  0  0
    2.6302   -0.6678    0.0448 H   0  0  0  0  0  0  0  0  0  0  0  0
    4.8213   -0.9217   -0.6589 H   0  0  0  0  0  0  0  0  0  0  0  0
    5.3714    0.8086    0.2298 H   0  0  0  0  0  0  0  0  0  0  0  0
    6.7650   -2.2646    2.0334 H   0  0  0  0  0  0  0  0  0  0  0  0
    4.4387   -1.5091    3.3830 H   0  0  0  0  0  0  0  0  0  0  0  0
  1  2  2  0
  1 26  1  0
  1 27  1  0
  2 24  1  0
  2  3  1  0
  3  9  1  0
  3  4  1  0
  3 28  1  6
  4  5  2  0
  4 29  1  0
  5  6  1  0
  5  7  1  0
  6 30  1  0
  6 31  1  0
  6 32  1  0
  7  8  2  0
  7  9  1  0
  9 10  1  0
  9 33  1  6
 10 16  1  1
 10 23  1  0
 10 11  1  0
 11 12  1  0
 11 13  1  0
 11 34  1  1
 12 35  1  0
 13 14  1  0
 13 15  1  0
 13 36  1  6
 14 37  1  0
 15 16  1  0
 15 38  1  0
 15 39  1  0
 16 17  1  1
 16 18  1  0
 17 40  1  0
 18 20  1  0
 23 18  1  1
 18 19  1  1
 19 20  1  0
 20 21  1  0
 20 41  1  6
 21 22  1  0
 21 23  1  0
 21 42  1  6
 22 43  1  0
 23 24  1  0
 24 25  1  0
 24 44  1  6
 25 45  1  0
M  END
>  <i_m_ct_stereo_status>  (223) 
1

>  <s_m_source_file>  (223) 
/var/tmp/pbs.5076255.sched01/tmp_srbpc4z/1203xlsw0nt.sdf

>  <i_m_source_file_index>  (223) 
2

>  <i_lp_mmshare_version>  (223) 
48012

>  <i_f3d_flags>  (223) 
2

>  <s_epik_input>  (223) 
W0NIXTE9QyhbQ0gzXSlDKD1PKVtDQEBIXTJbQ0BIXTFDKD1bQ0gyXSlbQ0BIXShbT0hdKVtDQEBdMyhbQ0BdMjQ1KUM2KFtDQEhdKE82KVtDQEhdM1tPSF0pW0NAQF01KFtPSF0pW0NIMl1bQ0BIXShbT0hdKVtDQEBIXTRbT0hd

>  <s_epik_cmdline>  (223) 
J2VwaWtfcHl0aG9uJywgJy1waHQnLCAnMi4wJywgJy1waCcsICc3LjAnLCAnLXRuJywgJzgnLCAnLW1hJywgJzIwMCcsICctaW1hZScsICc8aW5maWxlLm1hZT4nLCAnLW9tYWUnLCAnPG91dGZpbGUubWFlPic=

>  <r_lp_tautomer_probability>  (223) 
1

>  <r_epik_Ionization_Penalty>  (223) 
1.27565e-06

>  <r_epik_Ionization_Penalty_Charging>  (223) 
0

>  <r_epik_Ionization_Penalty_Neutral>  (223) 
1.27565e-06

>  <r_epik_State_Penalty>  (223) 
-0

>  <r_epik_Charging_Adjusted_Penalty>  (223) 
0

>  <i_epik_Tot_Q>  (223) 
0

>  <i_epik_Tot_abs_Q>  (223) 
0

>  <s_lp_Force_Field>  (223) 
OPLS3e

>  <r_lp_Energy>  (223) 
62.5409

>  <b_lp_Chiralities_Consistent>  (223) 
0

>  <s_lp_Variant>  (223) 
85:0-1

>  <s_i_glide_gridfile>  (223) 
pfpi4k_grid

>  <i_i_glide_lignum>  (223) 
2

>  <i_i_glide_rotatable_bonds>  (223) 
5

>  <r_i_docking_score>  (223) 
-3.92434

>  <r_i_glide_ligand_efficiency>  (223) 
-0.156974

>  <r_i_glide_ligand_efficiency_sa>  (223) 
-0.458994

>  <r_i_glide_ligand_efficiency_ln>  (223) 
-0.930187

>  <r_i_glide_gscore>  (223) 
-3.92434

>  <r_i_glide_lipo>  (223) 
-0.464441

>  <r_i_glide_hbond>  (223) 
0

>  <r_i_glide_metal>  (223) 
-0

>  <r_i_glide_rewards>  (223) 
-1.23887

>  <r_i_glide_evdw>  (223) 
-10.8324

>  <r_i_glide_ecoul>  (223) 
-11.1961

>  <r_i_glide_erotb>  (223) 
0

>  <r_i_glide_esite>  (223) 
0

>  <r_i_glide_emodel>  (223) 
-30.2148

>  <r_i_glide_energy>  (223) 
-22.0285

>  <r_i_glide_einternal>  (223) 
2.7076

>  <r_i_glide_intrahb_reward>  (223) 
-0

>  <i_i_glide_confnum>  (223) 
2

>  <i_i_glide_posenum>  (223) 
16

>  <r_i_glide_eff_state_penalty>  (223) 
0

>  <ligand_id>  (223) 
85

>  <original_smiles>  (223) 
C=C1C2C=C(C)C(=O)C2C23C(O)C(O)CC2(O)C24OC2C(O)C43C1O

>  <smiles>  (223) 
[H]OC1([H])C(=C([H])[H])C2([H])C([H])=C(C([H])([H])[H])C(=O)C2([H])C23C([H])(O[H])C([H])(O[H])C([H])([H])C2(O[H])C24OC2([H])C([H])(O[H])C143

$$$$
85:0:2
     RDKit          3D

 45 50  0  0  1  0  0  0  0  0999 V2000
    5.7676   -5.5494    2.8883 C   0  0  0  0  0  0  0  0  0  0  0  0
    5.8723   -5.4765    1.5572 C   0  0  0  0  0  0  0  0  0  0  0  0
    4.8591   -6.0434    0.5883 C   0  0  1  0  0  0  0  0  0  0  0  0
    3.6692   -6.7180    1.2316 C   0  0  0  0  0  0  0  0  0  0  0  0
    2.5046   -6.1268    0.9572 C   0  0  0  0  0  0  0  0  0  0  0  0
    1.1027   -6.5648    1.3463 C   0  0  0  0  0  0  0  0  0  0  0  0
    2.7700   -4.9899    0.0659 C   0  0  0  0  0  0  0  0  0  0  0  0
    1.9650   -4.2044   -0.3951 O   0  0  0  0  0  0  0  0  0  0  0  0
    4.2448   -4.9704   -0.3288 C   0  0  1  0  0  0  0  0  0  0  0  0
    4.9304   -3.5725   -0.4692 C   0  0  1  0  0  0  0  0  0  0  0  0
    4.6303   -2.9322   -1.8766 C   0  0  1  0  0  0  0  0  0  0  0  0
    3.4660   -3.3660   -2.5512 O   0  0  0  0  0  0  0  0  0  0  0  0
    4.4859   -1.3933   -1.6602 C   0  0  1  0  0  0  0  0  0  0  0  0
    3.6887   -0.7284   -2.6295 O   0  0  0  0  0  0  0  0  0  0  0  0
    4.0468   -1.2182   -0.1948 C   0  0  0  0  0  0  0  0  0  0  0  0
    4.5675   -2.4442    0.5399 C   0  0  1  0  0  0  0  0  0  0  0  0
    3.8651   -2.7442    1.7121 O   0  0  0  0  0  0  0  0  0  0  0  0
    6.0131   -2.4268    0.9288 C   0  0  1  0  0  0  0  0  0  0  0  0
    6.7510   -1.4897    1.6721 O   0  0  0  0  0  0  0  0  0  0  0  0
    7.0406   -1.4696    0.2532 C   0  0  1  0  0  0  0  0  0  0  0  0
    7.4590   -2.6135   -0.6178 C   0  0  1  0  0  0  0  0  0  0  0  0
    8.8299   -2.8917   -0.5897 O   0  0  0  0  0  0  0  0  0  0  0  0
    6.4240   -3.5512    0.0305 C   0  0  2  0  0  0  0  0  0  0  0  0
    6.9830   -4.7737    0.8028 C   0  0  1  0  0  0  0  0  0  0  0  0
    8.0624   -4.4693    1.6433 O   0  0  0  0  0  0  0  0  0  0  0  0
    6.5200   -5.1010    3.5231 H   0  0  0  0  0  0  0  0  0  0  0  0
    4.9438   -6.0607    3.3605 H   0  0  0  0  0  0  0  0  0  0  0  0
    5.3666   -6.7738   -0.0347 H   0  0  0  0  0  0  0  0  0  0  0  0
    3.7698   -7.6225    1.8064 H   0  0  0  0  0  0  0  0  0  0  0  0
    0.4842   -6.7758    0.4738 H   0  0  0  0  0  0  0  0  0  0  0  0
    0.6275   -5.7808    1.9272 H   0  0  0  0  0  0  0  0  0  0  0  0
    1.1019   -7.4646    1.9595 H   0  0  0  0  0  0  0  0  0  0  0  0
    4.2954   -5.4049   -1.3213 H   0  0  0  0  0  0  0  0  0  0  0  0
    5.4313   -3.1419   -2.5985 H   0  0  0  0  0  0  0  0  0  0  0  0
    2.7306   -3.3553   -1.9459 H   0  0  0  0  0  0  0  0  0  0  0  0
    5.4655   -0.9372   -1.7653 H   0  0  0  0  0  0  0  0  0  0  0  0
    2.7711   -0.9057   -2.4399 H   0  0  0  0  0  0  0  0  0  0  0  0
    4.3105   -0.2535    0.2384 H   0  0  0  0  0  0  0  0  0  0  0  0
    2.9606   -1.2768   -0.1700 H   0  0  0  0  0  0  0  0  0  0  0  0
    2.9551   -2.6939    1.4649 H   0  0  0  0  0  0  0  0  0  0  0  0
    6.7424   -0.5264   -0.2318 H   0  0  0  0  0  0  0  0  0  0  0  0
    7.2242   -2.3803   -1.6446 H   0  0  0  0  0  0  0  0  0  0  0  0
    9.2412   -2.6818   -1.4259 H   0  0  0  0  0  0  0  0  0  0  0  0
    7.3681   -5.4861    0.0716 H   0  0  0  0  0  0  0  0  0  0  0  0
    8.3112   -5.2599    2.0951 H   0  0  0  0  0  0  0  0  0  0  0  0
  1  2  2  0
  1 26  1  0
  1 27  1  0
  2 24  1  0
  2  3  1  0
  3  9  1  0
  3  4  1  0
  3 28  1  6
  4  5  2  0
  4 29  1  0
  5  6  1  0
  5  7  1  0
  6 30  1  0
  6 31  1  0
  6 32  1  0
  7  8  2  0
  7  9  1  0
  9 10  1  0
  9 33  1  6
 10 16  1  1
 10 23  1  0
 10 11  1  0
 11 12  1  0
 11 13  1  0
 11 34  1  6
 12 35  1  0
 13 14  1  0
 13 15  1  0
 13 36  1  1
 14 37  1  0
 15 16  1  0
 15 38  1  0
 15 39  1  0
 16 17  1  1
 16 18  1  0
 17 40  1  0
 18 20  1  0
 23 18  1  1
 18 19  1  1
 19 20  1  0
 20 21  1  0
 20 41  1  6
 21 22  1  0
 21 23  1  0
 21 42  1  6
 22 43  1  0
 23 24  1  0
 24 25  1  0
 24 44  1  6
 25 45  1  0
M  END
>  <i_m_ct_stereo_status>  (224) 
1

>  <s_m_source_file>  (224) 
/var/tmp/pbs.5076255.sched01/tmp_srbpc4z/1203xlsw0nt.sdf

>  <i_m_source_file_index>  (224) 
2

>  <i_lp_mmshare_version>  (224) 
48012

>  <i_f3d_flags>  (224) 
2

>  <s_epik_input>  (224) 
W0NIXTE9QyhbQ0gzXSlDKD1PKVtDQEBIXTJbQ0BIXTFDKD1bQ0gyXSlbQ0BIXShbT0hdKVtDQEBdMyhbQ0BdMjQ1KUM2KFtDQEhdKE82KVtDQEhdM1tPSF0pW0NAQF01KFtPSF0pW0NIMl1bQ0BIXShbT0hdKVtDQEBIXTRbT0hd

>  <s_epik_cmdline>  (224) 
J2VwaWtfcHl0aG9uJywgJy1waHQnLCAnMi4wJywgJy1waCcsICc3LjAnLCAnLXRuJywgJzgnLCAnLW1hJywgJzIwMCcsICctaW1hZScsICc8aW5maWxlLm1hZT4nLCAnLW9tYWUnLCAnPG91dGZpbGUubWFlPic=

>  <r_lp_tautomer_probability>  (224) 
1

>  <r_epik_Ionization_Penalty>  (224) 
1.27565e-06

>  <r_epik_Ionization_Penalty_Charging>  (224) 
0

>  <r_epik_Ionization_Penalty_Neutral>  (224) 
1.27565e-06

>  <r_epik_State_Penalty>  (224) 
-0

>  <r_epik_Charging_Adjusted_Penalty>  (224) 
0

>  <i_epik_Tot_Q>  (224) 
0

>  <i_epik_Tot_abs_Q>  (224) 
0

>  <s_lp_Force_Field>  (224) 
OPLS3e

>  <r_lp_Energy>  (224) 
62.5409

>  <b_lp_Chiralities_Consistent>  (224) 
0

>  <s_lp_Variant>  (224) 
85:0-1

>  <s_i_glide_gridfile>  (224) 
pfpi4k_grid

>  <i_i_glide_lignum>  (224) 
2

>  <i_i_glide_rotatable_bonds>  (224) 
5

>  <r_i_docking_score>  (224) 
-3.73481

>  <r_i_glide_ligand_efficiency>  (224) 
-0.149392

>  <r_i_glide_ligand_efficiency_sa>  (224) 
-0.436826

>  <r_i_glide_ligand_efficiency_ln>  (224) 
-0.885261

>  <r_i_glide_gscore>  (224) 
-3.73481

>  <r_i_glide_lipo>  (224) 
-0.620811

>  <r_i_glide_hbond>  (224) 
0

>  <r_i_glide_metal>  (224) 
-0

>  <r_i_glide_rewards>  (224) 
-1.534

>  <r_i_glide_evdw>  (224) 
-19.6854

>  <r_i_glide_ecoul>  (224) 
-3.64942

>  <r_i_glide_erotb>  (224) 
0

>  <r_i_glide_esite>  (224) 
-0.0483202

>  <r_i_glide_emodel>  (224) 
-36.3209

>  <r_i_glide_energy>  (224) 
-23.3348

>  <r_i_glide_einternal>  (224) 
2.53269

>  <r_i_glide_intrahb_reward>  (224) 
-0.5

>  <i_i_glide_confnum>  (224) 
1

>  <i_i_glide_posenum>  (224) 
3

>  <r_i_glide_eff_state_penalty>  (224) 
0

>  <ligand_id>  (224) 
85

>  <original_smiles>  (224) 
C=C1C2C=C(C)C(=O)C2C23C(O)C(O)CC2(O)C24OC2C(O)C43C1O

>  <smiles>  (224) 
[H]OC1([H])C(=C([H])[H])C2([H])C([H])=C(C([H])([H])[H])C(=O)C2([H])C23C([H])(O[H])C([H])(O[H])C([H])([H])C2(O[H])C24OC2([H])C([H])(O[H])C143

$$$$
85:1:0
     RDKit          3D

 45 50  0  0  1  0  0  0  0  0999 V2000
    4.8020   -5.7201    0.0842 C   0  0  0  0  0  0  0  0  0  0  0  0
    5.4601   -4.8793    0.9022 C   0  0  0  0  0  0  0  0  0  0  0  0
    6.0597   -3.5412    0.4971 C   0  0  1  0  0  0  0  0  0  0  0  0
    5.7673   -3.1389   -0.9350 C   0  0  0  0  0  0  0  0  0  0  0  0
    5.0625   -2.0077   -1.0441 C   0  0  0  0  0  0  0  0  0  0  0  0
    4.6146   -1.2782   -2.2929 C   0  0  0  0  0  0  0  0  0  0  0  0
    4.7908   -1.5041    0.3019 C   0  0  0  0  0  0  0  0  0  0  0  0
    4.0959   -0.5397    0.6064 O   0  0  0  0  0  0  0  0  0  0  0  0
    5.5354   -2.3503    1.3506 C   0  0  1  0  0  0  0  0  0  0  0  0
    4.7578   -2.6799    2.6860 C   0  0  1  0  0  0  0  0  0  0  0  0
    4.8872   -1.4964    3.6957 C   0  0  1  0  0  0  0  0  0  0  0  0
    5.2164   -0.2498    3.1221 O   0  0  0  0  0  0  0  0  0  0  0  0
    3.5125   -1.3739    4.4050 C   0  0  1  0  0  0  0  0  0  0  0  0
    3.1834   -0.0809    4.8891 O   0  0  0  0  0  0  0  0  0  0  0  0
    2.5002   -1.9634    3.4096 C   0  0  0  0  0  0  0  0  0  0  0  0
    3.2680   -3.0531    2.6487 C   0  0  1  0  0  0  0  0  0  0  0  0
    2.6272   -3.2948    1.4162 O   0  0  0  0  0  0  0  0  0  0  0  0
    3.4217   -4.4389    3.3468 C   0  0  1  0  0  0  0  0  0  0  0  0
    2.5897   -4.3240    4.5266 O   0  0  0  0  0  0  0  0  0  0  0  0
    3.7770   -4.9819    4.7913 C   0  0  2  0  0  0  0  0  0  0  0  0
    5.1156   -4.3249    4.7755 C   0  0  1  0  0  0  0  0  0  0  0  0
    6.1812   -5.1426    5.1946 O   0  0  0  0  0  0  0  0  0  0  0  0
    4.9399   -4.1109    3.2702 C   0  0  2  0  0  0  0  0  0  0  0  0
    5.6870   -5.1368    2.3794 C   0  0  1  0  0  0  0  0  0  0  0  0
    5.4294   -6.4893    2.7221 O   0  0  0  0  0  0  0  0  0  0  0  0
    4.4195   -6.6677    0.4524 H   0  0  0  0  0  0  0  0  0  0  0  0
    4.6444   -5.5062   -0.9683 H   0  0  0  0  0  0  0  0  0  0  0  0
    7.1410   -3.6148    0.6116 H   0  0  0  0  0  0  0  0  0  0  0  0
    6.1407   -3.7068   -1.7750 H   0  0  0  0  0  0  0  0  0  0  0  0
    5.0335   -0.2735   -2.3199 H   0  0  0  0  0  0  0  0  0  0  0  0
    3.5298   -1.1841   -2.3051 H   0  0  0  0  0  0  0  0  0  0  0  0
    4.9210   -1.7898   -3.2051 H   0  0  0  0  0  0  0  0  0  0  0  0
    6.4153   -1.7597    1.6016 H   0  0  0  0  0  0  0  0  0  0  0  0
    5.6747   -1.6738    4.4252 H   0  0  0  0  0  0  0  0  0  0  0  0
    4.5738   -0.0433    2.4530 H   0  0  0  0  0  0  0  0  0  0  0  0
    3.5026   -2.0176    5.2838 H   0  0  0  0  0  0  0  0  0  0  0  0
    3.2015    0.5383    4.1737 H   0  0  0  0  0  0  0  0  0  0  0  0
    1.5683   -2.2851    3.8788 H   0  0  0  0  0  0  0  0  0  0  0  0
    2.2323   -1.1756    2.6993 H   0  0  0  0  0  0  0  0  0  0  0  0
    3.0951   -3.9935    0.9898 H   0  0  0  0  0  0  0  0  0  0  0  0
    3.7407   -6.0631    4.8932 H   0  0  0  0  0  0  0  0  0  0  0  0
    5.0959   -3.4484    5.4191 H   0  0  0  0  0  0  0  0  0  0  0  0
    6.9475   -4.5821    5.2017 H   0  0  0  0  0  0  0  0  0  0  0  0
    6.7644   -5.0144    2.5249 H   0  0  0  0  0  0  0  0  0  0  0  0
    5.7947   -6.6296    3.5883 H   0  0  0  0  0  0  0  0  0  0  0  0
  1  2  2  0
  1 26  1  0
  1 27  1  0
  2 24  1  0
  2  3  1  0
  3  9  1  0
  3  4  1  0
  3 28  1  6
  4  5  2  0
  4 29  1  0
  5  6  1  0
  5  7  1  0
  6 30  1  0
  6 31  1  0
  6 32  1  0
  7  8  2  0
  7  9  1  0
  9 10  1  0
  9 33  1  1
 10 16  1  6
 10 23  1  0
 10 11  1  0
 11 12  1  0
 11 13  1  0
 11 34  1  1
 12 35  1  0
 13 14  1  0
 13 15  1  0
 13 36  1  1
 14 37  1  0
 15 16  1  0
 15 38  1  0
 15 39  1  0
 16 17  1  6
 16 18  1  0
 17 40  1  0
 18 20  1  0
 23 18  1  1
 18 19  1  6
 19 20  1  0
 20 21  1  0
 20 41  1  6
 21 22  1  0
 21 23  1  0
 21 42  1  1
 22 43  1  0
 23 24  1  0
 24 25  1  0
 24 44  1  6
 25 45  1  0
M  END
>  <i_m_ct_stereo_status>  (225) 
1

>  <s_m_source_file>  (225) 
/var/tmp/pbs.5076255.sched01/tmp_srbpc4z/1203xlsw0nt.sdf

>  <i_m_source_file_index>  (225) 
3

>  <i_lp_mmshare_version>  (225) 
48012

>  <i_f3d_flags>  (225) 
0

>  <s_epik_input>  (225) 
W0NIXTE9QyhbQ0gzXSlDKD1PKVtDQEBIXTJbQ0BIXTFDKD1bQ0gyXSlbQ0BIXShbT0hdKVtDQEBdMyhbQ0BdMjQ1KUM2KFtDQEhdKE82KVtDQEhdM1tPSF0pW0NAQF01KFtPSF0pW0NIMl1bQ0BIXShbT0hdKVtDQEBIXTRbT0hd

>  <s_epik_cmdline>  (225) 
J2VwaWtfcHl0aG9uJywgJy1waHQnLCAnMi4wJywgJy1waCcsICc3LjAnLCAnLXRuJywgJzgnLCAnLW1hJywgJzIwMCcsICctaW1hZScsICc8aW5maWxlLm1hZT4nLCAnLW9tYWUnLCAnPG91dGZpbGUubWFlPic=

>  <r_lp_tautomer_probability>  (225) 
1

>  <r_epik_Ionization_Penalty>  (225) 
1.27565e-06

>  <r_epik_Ionization_Penalty_Charging>  (225) 
0

>  <r_epik_Ionization_Penalty_Neutral>  (225) 
1.27565e-06

>  <r_epik_State_Penalty>  (225) 
-0

>  <r_epik_Charging_Adjusted_Penalty>  (225) 
0

>  <i_epik_Tot_Q>  (225) 
0

>  <i_epik_Tot_abs_Q>  (225) 
0

>  <s_lp_Force_Field>  (225) 
OPLS3e

>  <r_lp_Energy>  (225) 
88.3895

>  <b_lp_Chiralities_Consistent>  (225) 
1

>  <s_lp_Variant>  (225) 
85:0-2

>  <s_i_glide_gridfile>  (225) 
pfpi4k_grid

>  <i_i_glide_lignum>  (225) 
3

>  <i_i_glide_rotatable_bonds>  (225) 
5

>  <r_i_docking_score>  (225) 
-3.53101

>  <r_i_glide_ligand_efficiency>  (225) 
-0.14124

>  <r_i_glide_ligand_efficiency_sa>  (225) 
-0.412989

>  <r_i_glide_ligand_efficiency_ln>  (225) 
-0.836954

>  <r_i_glide_gscore>  (225) 
-3.53101

>  <r_i_glide_lipo>  (225) 
-0.467666

>  <r_i_glide_hbond>  (225) 
0

>  <r_i_glide_metal>  (225) 
-0

>  <r_i_glide_rewards>  (225) 
-2.04216

>  <r_i_glide_evdw>  (225) 
-22.7694

>  <r_i_glide_ecoul>  (225) 
0.78193

>  <r_i_glide_erotb>  (225) 
0

>  <r_i_glide_esite>  (225) 
0

>  <r_i_glide_emodel>  (225) 
-37.1573

>  <r_i_glide_energy>  (225) 
-21.9875

>  <r_i_glide_einternal>  (225) 
0.986224

>  <r_i_glide_intrahb_reward>  (225) 
-1

>  <i_i_glide_confnum>  (225) 
1

>  <i_i_glide_posenum>  (225) 
10

>  <r_i_glide_eff_state_penalty>  (225) 
0

>  <ligand_id>  (225) 
85

>  <original_smiles>  (225) 
C=C1C2C=C(C)C(=O)C2C23C(O)C(O)CC2(O)C24OC2C(O)C43C1O

>  <smiles>  (225) 
[H]OC1([H])C(=C([H])[H])C2([H])C([H])=C(C([H])([H])[H])C(=O)C2([H])C23C([H])(O[H])C([H])(O[H])C([H])([H])C2(O[H])C24OC2([H])C([H])(O[H])C143

$$$$
85:1:1
     RDKit          3D

 45 50  0  0  1  0  0  0  0  0999 V2000
    4.6515   -5.4630    0.0764 C   0  0  0  0  0  0  0  0  0  0  0  0
    5.2899   -4.6380    0.9246 C   0  0  0  0  0  0  0  0  0  0  0  0
    5.9280   -3.3076    0.5498 C   0  0  1  0  0  0  0  0  0  0  0  0
    5.6944   -2.8905   -0.8898 C   0  0  0  0  0  0  0  0  0  0  0  0
    5.0113   -1.7481   -1.0149 C   0  0  0  0  0  0  0  0  0  0  0  0
    4.6095   -1.0114   -2.2762 C   0  0  0  0  0  0  0  0  0  0  0  0
    4.6986   -1.2551    0.3255 C   0  0  0  0  0  0  0  0  0  0  0  0
    3.9749   -0.3056    0.6190 O   0  0  0  0  0  0  0  0  0  0  0  0
    5.3978   -2.1129    1.3966 C   0  0  1  0  0  0  0  0  0  0  0  0
    4.5727   -2.4386    2.7036 C   0  0  1  0  0  0  0  0  0  0  0  0
    4.6801   -1.2637    3.7261 C   0  0  1  0  0  0  0  0  0  0  0  0
    5.0538   -0.0162    3.1786 O   0  0  0  0  0  0  0  0  0  0  0  0
    3.2819   -1.1177    4.3869 C   0  0  1  0  0  0  0  0  0  0  0  0
    2.9609    0.1770    4.8713 O   0  0  0  0  0  0  0  0  0  0  0  0
    2.2956   -1.6789    3.3520 C   0  0  0  0  0  0  0  0  0  0  0  0
    3.0817   -2.7798    2.6159 C   0  0  1  0  0  0  0  0  0  0  0  0
    2.4967   -2.9945    1.3521 O   0  0  0  0  0  0  0  0  0  0  0  0
    3.1814   -4.1747    3.2998 C   0  0  1  0  0  0  0  0  0  0  0  0
    2.3059   -4.0502    4.4495 O   0  0  0  0  0  0  0  0  0  0  0  0
    3.4736   -4.7301    4.7564 C   0  0  2  0  0  0  0  0  0  0  0  0
    4.8162   -4.0883    4.7987 C   0  0  1  0  0  0  0  0  0  0  0  0
    5.8554   -4.8913    5.3010 O   0  0  0  0  0  0  0  0  0  0  0  0
    4.7068   -3.8753    3.2884 C   0  0  2  0  0  0  0  0  0  0  0  0
    5.4607   -4.9133    2.4076 C   0  0  1  0  0  0  0  0  0  0  0  0
    5.1785   -6.2707    2.7106 O   0  0  0  0  0  0  0  0  0  0  0  0
    4.2332   -6.4067    0.4134 H   0  0  0  0  0  0  0  0  0  0  0  0
    4.5355   -5.2357   -0.9804 H   0  0  0  0  0  0  0  0  0  0  0  0
    7.0018   -3.4029    0.7021 H   0  0  0  0  0  0  0  0  0  0  0  0
    6.0829   -3.4635   -1.7201 H   0  0  0  0  0  0  0  0  0  0  0  0
    5.0409   -0.0131   -2.2946 H   0  0  0  0  0  0  0  0  0  0  0  0
    3.5252   -0.8973   -2.3192 H   0  0  0  0  0  0  0  0  0  0  0  0
    4.9349   -1.5240   -3.1796 H   0  0  0  0  0  0  0  0  0  0  0  0
    6.2798   -1.5380    1.6782 H   0  0  0  0  0  0  0  0  0  0  0  0
    5.4414   -1.4614    4.4785 H   0  0  0  0  0  0  0  0  0  0  0  0
    4.4276    0.2261    2.5074 H   0  0  0  0  0  0  0  0  0  0  0  0
    3.2297   -1.7660    5.2598 H   0  0  0  0  0  0  0  0  0  0  0  0
    3.0141    0.8030    4.1646 H   0  0  0  0  0  0  0  0  0  0  0  0
    1.3440   -1.9871    3.7907 H   0  0  0  0  0  0  0  0  0  0  0  0
    2.0593   -0.8719    2.6517 H   0  0  0  0  0  0  0  0  0  0  0  0
    2.3225   -2.1405    0.9840 H   0  0  0  0  0  0  0  0  0  0  0  0
    3.4186   -5.8117    4.8465 H   0  0  0  0  0  0  0  0  0  0  0  0
    4.7593   -3.2124    5.4342 H   0  0  0  0  0  0  0  0  0  0  0  0
    6.6037   -4.3214    5.4047 H   0  0  0  0  0  0  0  0  0  0  0  0
    6.5334   -4.8099    2.5938 H   0  0  0  0  0  0  0  0  0  0  0  0
    4.2521   -6.4242    2.6113 H   0  0  0  0  0  0  0  0  0  0  0  0
  1  2  2  0
  1 26  1  0
  1 27  1  0
  2 24  1  0
  2  3  1  0
  3  9  1  0
  3  4  1  0
  3 28  1  6
  4  5  2  0
  4 29  1  0
  5  6  1  0
  5  7  1  0
  6 30  1  0
  6 31  1  0
  6 32  1  0
  7  8  2  0
  7  9  1  0
  9 10  1  0
  9 33  1  1
 10 16  1  6
 10 23  1  0
 10 11  1  0
 11 12  1  0
 11 13  1  0
 11 34  1  1
 12 35  1  0
 13 14  1  0
 13 15  1  0
 13 36  1  1
 14 37  1  0
 15 16  1  0
 15 38  1  0
 15 39  1  0
 16 17  1  6
 16 18  1  0
 17 40  1  0
 18 20  1  0
 23 18  1  6
 18 19  1  6
 19 20  1  0
 20 21  1  0
 20 41  1  6
 21 22  1  0
 21 23  1  0
 21 42  1  1
 22 43  1  0
 23 24  1  0
 24 25  1  0
 24 44  1  1
 25 45  1  0
M  END
>  <i_m_ct_stereo_status>  (226) 
1

>  <s_m_source_file>  (226) 
/var/tmp/pbs.5076255.sched01/tmp_srbpc4z/1203xlsw0nt.sdf

>  <i_m_source_file_index>  (226) 
3

>  <i_lp_mmshare_version>  (226) 
48012

>  <i_f3d_flags>  (226) 
0

>  <s_epik_input>  (226) 
W0NIXTE9QyhbQ0gzXSlDKD1PKVtDQEBIXTJbQ0BIXTFDKD1bQ0gyXSlbQ0BIXShbT0hdKVtDQEBdMyhbQ0BdMjQ1KUM2KFtDQEhdKE82KVtDQEhdM1tPSF0pW0NAQF01KFtPSF0pW0NIMl1bQ0BIXShbT0hdKVtDQEBIXTRbT0hd

>  <s_epik_cmdline>  (226) 
J2VwaWtfcHl0aG9uJywgJy1waHQnLCAnMi4wJywgJy1waCcsICc3LjAnLCAnLXRuJywgJzgnLCAnLW1hJywgJzIwMCcsICctaW1hZScsICc8aW5maWxlLm1hZT4nLCAnLW9tYWUnLCAnPG91dGZpbGUubWFlPic=

>  <r_lp_tautomer_probability>  (226) 
1

>  <r_epik_Ionization_Penalty>  (226) 
1.27565e-06

>  <r_epik_Ionization_Penalty_Charging>  (226) 
0

>  <r_epik_Ionization_Penalty_Neutral>  (226) 
1.27565e-06

>  <r_epik_State_Penalty>  (226) 
-0

>  <r_epik_Charging_Adjusted_Penalty>  (226) 
0

>  <i_epik_Tot_Q>  (226) 
0

>  <i_epik_Tot_abs_Q>  (226) 
0

>  <s_lp_Force_Field>  (226) 
OPLS3e

>  <r_lp_Energy>  (226) 
88.3895

>  <b_lp_Chiralities_Consistent>  (226) 
1

>  <s_lp_Variant>  (226) 
85:0-2

>  <s_i_glide_gridfile>  (226) 
pfpi4k_grid

>  <i_i_glide_lignum>  (226) 
3

>  <i_i_glide_rotatable_bonds>  (226) 
5

>  <r_i_docking_score>  (226) 
-3.16934

>  <r_i_glide_ligand_efficiency>  (226) 
-0.126774

>  <r_i_glide_ligand_efficiency_sa>  (226) 
-0.370688

>  <r_i_glide_ligand_efficiency_ln>  (226) 
-0.751229

>  <r_i_glide_gscore>  (226) 
-3.16934

>  <r_i_glide_lipo>  (226) 
-0.34907

>  <r_i_glide_hbond>  (226) 
0

>  <r_i_glide_metal>  (226) 
-0

>  <r_i_glide_rewards>  (226) 
-1.5506

>  <r_i_glide_evdw>  (226) 
-22.1838

>  <r_i_glide_ecoul>  (226) 
-1.06988

>  <r_i_glide_erotb>  (226) 
0

>  <r_i_glide_esite>  (226) 
0

>  <r_i_glide_emodel>  (226) 
-33.0677

>  <r_i_glide_energy>  (226) 
-23.2537

>  <r_i_glide_einternal>  (226) 
0.0613533

>  <r_i_glide_intrahb_reward>  (226) 
-0.5

>  <i_i_glide_confnum>  (226) 
1

>  <i_i_glide_posenum>  (226) 
16

>  <r_i_glide_eff_state_penalty>  (226) 
0

>  <ligand_id>  (226) 
85

>  <original_smiles>  (226) 
C=C1C2C=C(C)C(=O)C2C23C(O)C(O)CC2(O)C24OC2C(O)C43C1O

>  <smiles>  (226) 
[H]OC1([H])C(=C([H])[H])C2([H])C([H])=C(C([H])([H])[H])C(=O)C2([H])C23C([H])(O[H])C([H])(O[H])C([H])([H])C2(O[H])C24OC2([H])C([H])(O[H])C143

$$$$
85:1:2
     RDKit          3D

 45 50  0  0  1  0  0  0  0  0999 V2000
    5.0135   -5.7462    0.0873 C   0  0  0  0  0  0  0  0  0  0  0  0
    5.5909   -4.8715    0.9285 C   0  0  0  0  0  0  0  0  0  0  0  0
    6.1320   -3.5019    0.5309 C   0  0  1  0  0  0  0  0  0  0  0  0
    5.8580   -3.1288   -0.9131 C   0  0  0  0  0  0  0  0  0  0  0  0
    5.0939   -2.0371   -1.0515 C   0  0  0  0  0  0  0  0  0  0  0  0
    4.6454   -1.3437   -2.3158 C   0  0  0  0  0  0  0  0  0  0  0  0
    4.7528   -1.5436    0.2804 C   0  0  0  0  0  0  0  0  0  0  0  0
    3.9910   -0.6219    0.5647 O   0  0  0  0  0  0  0  0  0  0  0  0
    5.5133   -2.3395    1.3584 C   0  0  1  0  0  0  0  0  0  0  0  0
    4.7118   -2.7058    2.6718 C   0  0  1  0  0  0  0  0  0  0  0  0
    4.7352   -1.5091    3.6689 C   0  0  1  0  0  0  0  0  0  0  0  0
    5.0002   -0.2487    3.0999 O   0  0  0  0  0  0  0  0  0  0  0  0
    3.3312   -1.4726    4.3341 C   0  0  1  0  0  0  0  0  0  0  0  0
    2.9045   -0.1988    4.7882 O   0  0  0  0  0  0  0  0  0  0  0  0
    2.3900   -2.1284    3.3111 C   0  0  0  0  0  0  0  0  0  0  0  0
    3.2443   -3.1713    2.5859 C   0  0  1  0  0  0  0  0  0  0  0  0
    2.6590   -3.4678    1.3356 O   0  0  0  0  0  0  0  0  0  0  0  0
    3.4624   -4.5337    3.2994 C   0  0  1  0  0  0  0  0  0  0  0  0
    2.5825   -4.4663    4.4485 O   0  0  0  0  0  0  0  0  0  0  0  0
    3.7909   -5.0529    4.7680 C   0  0  2  0  0  0  0  0  0  0  0  0
    5.0916   -4.3282    4.8077 C   0  0  1  0  0  0  0  0  0  0  0  0
    6.1708   -5.0707    5.3308 O   0  0  0  0  0  0  0  0  0  0  0  0
    4.9601   -4.1273    3.2785 C   0  0  2  0  0  0  0  0  0  0  0  0
    5.7846   -5.1081    2.4175 C   0  0  1  0  0  0  0  0  0  0  0  0
    5.6046   -6.4745    2.7592 O   0  0  0  0  0  0  0  0  0  0  0  0
    4.6680   -6.7228    0.4401 H   0  0  0  0  0  0  0  0  0  0  0  0
    4.8800   -5.5463   -0.9826 H   0  0  0  0  0  0  0  0  0  0  0  0
    7.2104   -3.5167    0.6703 H   0  0  0  0  0  0  0  0  0  0  0  0
    6.2857   -3.6733   -1.7399 H   0  0  0  0  0  0  0  0  0  0  0  0
    5.0137   -0.3216   -2.3400 H   0  0  0  0  0  0  0  0  0  0  0  0
    3.5603   -1.3124   -2.3740 H   0  0  0  0  0  0  0  0  0  0  0  0
    5.0074   -1.8397   -3.2134 H   0  0  0  0  0  0  0  0  0  0  0  0
    6.3471   -1.6956    1.6385 H   0  0  0  0  0  0  0  0  0  0  0  0
    5.5124   -1.6394    4.4190 H   0  0  0  0  0  0  0  0  0  0  0  0
    4.3773   -0.1042    2.3871 H   0  0  0  0  0  0  0  0  0  0  0  0
    3.3350   -2.1113    5.2181 H   0  0  0  0  0  0  0  0  0  0  0  0
    2.9392    0.4136    4.0647 H   0  0  0  0  0  0  0  0  0  0  0  0
    1.4619   -2.5053    3.7497 H   0  0  0  0  0  0  0  0  0  0  0  0
    2.0959   -1.3617    2.5797 H   0  0  0  0  0  0  0  0  0  0  0  0
    3.1902   -4.1100    0.9120 H   0  0  0  0  0  0  0  0  0  0  0  0
    3.8229   -6.1225    4.8518 H   0  0  0  0  0  0  0  0  0  0  0  0
    5.0001   -3.4199    5.4037 H   0  0  0  0  0  0  0  0  0  0  0  0
    6.2127   -5.9116    4.8878 H   0  0  0  0  0  0  0  0  0  0  0  0
    6.8528   -4.9165    2.5857 H   0  0  0  0  0  0  0  0  0  0  0  0
    4.7002   -6.7223    2.6158 H   0  0  0  0  0  0  0  0  0  0  0  0
  1  2  2  0
  1 26  1  0
  1 27  1  0
  2 24  1  0
  2  3  1  0
  3  9  1  0
  3  4  1  0
  3 28  1  6
  4  5  2  0
  4 29  1  0
  5  6  1  0
  5  7  1  0
  6 30  1  0
  6 31  1  0
  6 32  1  0
  7  8  2  0
  7  9  1  0
  9 10  1  0
  9 33  1  1
 10 16  1  6
 10 23  1  0
 10 11  1  0
 11 12  1  0
 11 13  1  0
 11 34  1  1
 12 35  1  0
 13 14  1  0
 13 15  1  0
 13 36  1  1
 14 37  1  0
 15 16  1  0
 15 38  1  0
 15 39  1  0
 16 17  1  6
 16 18  1  0
 17 40  1  0
 18 20  1  0
 23 18  1  6
 18 19  1  6
 19 20  1  0
 20 21  1  0
 20 41  1  6
 21 22  1  0
 21 23  1  0
 21 42  1  1
 22 43  1  0
 23 24  1  0
 24 25  1  0
 24 44  1  1
 25 45  1  0
M  END
>  <i_m_ct_stereo_status>  (227) 
1

>  <s_m_source_file>  (227) 
/var/tmp/pbs.5076255.sched01/tmp_srbpc4z/1203xlsw0nt.sdf

>  <i_m_source_file_index>  (227) 
3

>  <i_lp_mmshare_version>  (227) 
48012

>  <i_f3d_flags>  (227) 
0

>  <s_epik_input>  (227) 
W0NIXTE9QyhbQ0gzXSlDKD1PKVtDQEBIXTJbQ0BIXTFDKD1bQ0gyXSlbQ0BIXShbT0hdKVtDQEBdMyhbQ0BdMjQ1KUM2KFtDQEhdKE82KVtDQEhdM1tPSF0pW0NAQF01KFtPSF0pW0NIMl1bQ0BIXShbT0hdKVtDQEBIXTRbT0hd

>  <s_epik_cmdline>  (227) 
J2VwaWtfcHl0aG9uJywgJy1waHQnLCAnMi4wJywgJy1waCcsICc3LjAnLCAnLXRuJywgJzgnLCAnLW1hJywgJzIwMCcsICctaW1hZScsICc8aW5maWxlLm1hZT4nLCAnLW9tYWUnLCAnPG91dGZpbGUubWFlPic=

>  <r_lp_tautomer_probability>  (227) 
1

>  <r_epik_Ionization_Penalty>  (227) 
1.27565e-06

>  <r_epik_Ionization_Penalty_Charging>  (227) 
0

>  <r_epik_Ionization_Penalty_Neutral>  (227) 
1.27565e-06

>  <r_epik_State_Penalty>  (227) 
-0

>  <r_epik_Charging_Adjusted_Penalty>  (227) 
0

>  <i_epik_Tot_Q>  (227) 
0

>  <i_epik_Tot_abs_Q>  (227) 
0

>  <s_lp_Force_Field>  (227) 
OPLS3e

>  <r_lp_Energy>  (227) 
88.3895

>  <b_lp_Chiralities_Consistent>  (227) 
1

>  <s_lp_Variant>  (227) 
85:0-2

>  <s_i_glide_gridfile>  (227) 
pfpi4k_grid

>  <i_i_glide_lignum>  (227) 
3

>  <i_i_glide_rotatable_bonds>  (227) 
5

>  <r_i_docking_score>  (227) 
-3.1356

>  <r_i_glide_ligand_efficiency>  (227) 
-0.125424

>  <r_i_glide_ligand_efficiency_sa>  (227) 
-0.366742

>  <r_i_glide_ligand_efficiency_ln>  (227) 
-0.743231

>  <r_i_glide_gscore>  (227) 
-3.1356

>  <r_i_glide_lipo>  (227) 
-0.478065

>  <r_i_glide_hbond>  (227) 
0

>  <r_i_glide_metal>  (227) 
-0

>  <r_i_glide_rewards>  (227) 
-1.534

>  <r_i_glide_evdw>  (227) 
-22.6127

>  <r_i_glide_ecoul>  (227) 
0.0505254

>  <r_i_glide_erotb>  (227) 
0

>  <r_i_glide_esite>  (227) 
-0.000481346

>  <r_i_glide_emodel>  (227) 
-32.3334

>  <r_i_glide_energy>  (227) 
-22.5622

>  <r_i_glide_einternal>  (227) 
0.318408

>  <r_i_glide_intrahb_reward>  (227) 
-0.5

>  <i_i_glide_confnum>  (227) 
2

>  <i_i_glide_posenum>  (227) 
38

>  <r_i_glide_eff_state_penalty>  (227) 
0

>  <ligand_id>  (227) 
85

>  <original_smiles>  (227) 
C=C1C2C=C(C)C(=O)C2C23C(O)C(O)CC2(O)C24OC2C(O)C43C1O

>  <smiles>  (227) 
[H]OC1([H])C(=C([H])[H])C2([H])C([H])=C(C([H])([H])[H])C(=O)C2([H])C23C([H])(O[H])C([H])(O[H])C([H])([H])C2(O[H])C24OC2([H])C([H])(O[H])C143

$$$$
88:0:0
     RDKit          3D

 52 55  0  0  1  0  0  0  0  0999 V2000
    4.5594   -4.6399    4.6928 C   0  0  0  0  0  0  0  0  0  0  0  0
    4.7425   -3.6172    3.5504 C   0  0  2  0  0  0  0  0  0  0  0  0
    4.0957   -2.2435    3.9685 C   0  0  1  0  0  0  0  0  0  0  0  0
    4.8879   -1.6973    5.0064 O   0  0  0  0  0  0  0  0  0  0  0  0
    3.7723   -1.0954    2.9327 C   0  0  1  0  0  0  0  0  0  0  0  0
    4.8716   -0.2670    2.6343 O   0  0  0  0  0  0  0  0  0  0  0  0
    2.7967   -1.3307    1.7171 C   0  0  1  0  0  0  0  0  0  0  0  0
    2.6183   -0.1935    0.9031 O   0  0  0  0  0  0  0  0  0  0  0  0
    2.6690   -2.6870    0.9470 C   0  0  2  0  0  0  0  0  0  0  0  0
    2.7596   -3.7627    1.9726 C   0  0  0  0  0  0  0  0  0  0  0  0
    4.2579   -4.1857    2.1808 C   0  0  2  0  0  0  0  0  0  0  0  0
    4.0725   -5.7077    1.9666 C   0  0  0  0  0  0  0  0  0  0  0  0
    3.9298   -5.7602    0.4112 C   0  0  0  0  0  0  0  0  0  0  0  0
    4.4293   -4.3716   -0.1372 C   0  0  1  0  0  0  0  0  0  0  0  0
    3.3864   -3.1888   -0.3896 C   0  0  1  0  0  0  0  0  0  0  0  0
    2.2974   -3.6776   -1.3771 C   0  0  0  0  0  0  0  0  0  0  0  0
    4.1999   -2.1150   -1.1387 C   0  0  1  0  0  0  0  0  0  0  0  0
    3.4190   -1.0970   -1.7504 O   0  0  0  0  0  0  0  0  0  0  0  0
    5.3171   -1.5248   -0.2836 C   0  0  0  0  0  0  0  0  0  0  0  0
    5.9522   -2.4928    0.7447 C   0  0  0  0  0  0  0  0  0  0  0  0
    5.3223   -3.9157    1.0023 C   0  0  1  0  0  0  0  0  0  0  0  0
    6.6131   -4.8097    1.1198 C   0  0  0  0  0  0  0  0  0  0  0  0
    3.5110   -4.9126    4.8311 H   0  0  0  0  0  0  0  0  0  0  0  0
    4.9201   -4.2419    5.6411 H   0  0  0  0  0  0  0  0  0  0  0  0
    5.1224   -5.5532    4.5075 H   0  0  0  0  0  0  0  0  0  0  0  0
    5.8174   -3.4513    3.4729 H   0  0  0  0  0  0  0  0  0  0  0  0
    3.1435   -2.4636    4.4541 H   0  0  0  0  0  0  0  0  0  0  0  0
    4.4908   -0.8840    5.2797 H   0  0  0  0  0  0  0  0  0  0  0  0
    3.2071   -0.3884    3.5424 H   0  0  0  0  0  0  0  0  0  0  0  0
    4.5108    0.5135    2.2250 H   0  0  0  0  0  0  0  0  0  0  0  0
    1.8419   -1.3118    2.2407 H   0  0  0  0  0  0  0  0  0  0  0  0
    1.8735   -0.3532    0.3236 H   0  0  0  0  0  0  0  0  0  0  0  0
    1.6261   -2.6544    0.6629 H   0  0  0  0  0  0  0  0  0  0  0  0
    2.2279   -3.5269    2.8870 H   0  0  0  0  0  0  0  0  0  0  0  0
    2.1048   -4.5457    1.5964 H   0  0  0  0  0  0  0  0  0  0  0  0
    4.9072   -6.2989    2.3358 H   0  0  0  0  0  0  0  0  0  0  0  0
    3.2068   -6.1358    2.4771 H   0  0  0  0  0  0  0  0  0  0  0  0
    4.5519   -6.5627    0.0148 H   0  0  0  0  0  0  0  0  0  0  0  0
    2.9122   -5.9880    0.0948 H   0  0  0  0  0  0  0  0  0  0  0  0
    5.0144   -4.5602   -1.0427 H   0  0  0  0  0  0  0  0  0  0  0  0
    2.7747   -3.9800   -2.3042 H   0  0  0  0  0  0  0  0  0  0  0  0
    1.5915   -2.9026   -1.6642 H   0  0  0  0  0  0  0  0  0  0  0  0
    1.7112   -4.5100   -0.9844 H   0  0  0  0  0  0  0  0  0  0  0  0
    4.6933   -2.6102   -1.9759 H   0  0  0  0  0  0  0  0  0  0  0  0
    2.5589   -1.0688   -1.3418 H   0  0  0  0  0  0  0  0  0  0  0  0
    6.0982   -1.1816   -0.9611 H   0  0  0  0  0  0  0  0  0  0  0  0
    4.9900   -0.6112    0.1993 H   0  0  0  0  0  0  0  0  0  0  0  0
    6.9689   -2.5969    0.3605 H   0  0  0  0  0  0  0  0  0  0  0  0
    6.1507   -2.0140    1.6925 H   0  0  0  0  0  0  0  0  0  0  0  0
    7.3001   -4.6402    0.2866 H   0  0  0  0  0  0  0  0  0  0  0  0
    6.4633   -5.8880    1.0752 H   0  0  0  0  0  0  0  0  0  0  0  0
    7.1517   -4.5901    2.0448 H   0  0  0  0  0  0  0  0  0  0  0  0
  1  2  1  0
  1 23  1  0
  1 24  1  0
  1 25  1  0
  2 11  1  0
  2  3  1  0
  2 26  1  6
  3  4  1  0
  3  5  1  0
  3 27  1  1
  4 28  1  0
  5  6  1  0
  5  7  1  0
  5 29  1  1
  6 30  1  0
  7  8  1  0
  7  9  1  0
  7 31  1  1
  8 32  1  0
  9 15  1  0
  9 10  1  0
  9 33  1  6
 10 11  1  0
 10 34  1  0
 10 35  1  0
 11 21  1  0
 11 12  1  1
 12 13  1  0
 12 36  1  0
 12 37  1  0
 13 14  1  0
 13 38  1  0
 13 39  1  0
 14 21  1  0
 14 15  1  0
 14 40  1  6
 15 16  1  6
 15 17  1  0
 16 41  1  0
 16 42  1  0
 16 43  1  0
 17 18  1  0
 17 19  1  0
 17 44  1  6
 18 45  1  0
 19 20  1  0
 19 46  1  0
 19 47  1  0
 20 21  1  0
 20 48  1  0
 20 49  1  0
 21 22  1  1
 22 50  1  0
 22 51  1  0
 22 52  1  0
M  END
>  <i_m_ct_stereo_status>  (228) 
1

>  <s_m_source_file>  (228) 
/var/tmp/pbs.5076255.sched01/tmp_srbpc4z/1203xlsw0nt.sdf

>  <i_m_source_file_index>  (228) 
6

>  <i_lp_mmshare_version>  (228) 
48012

>  <i_f3d_flags>  (228) 
0

>  <s_epik_input>  (228) 
W0NIM11bQ0BASF0xW0NAQEhdKFtPSF0pW0NAQEhdKFtPSF0pW0NAQEhdKFtPSF0pW0NASF0oW0NIMl0yKVtDQF0oW0NIM10pKFtDQEhdKFtDSDJdW0NIMl0zKVtDQEBdNChbQ0BAXTEyMylbQ0gzXSlbQ0BASF0oW09IXSlbQ0gyXVtDSDJdNA==

>  <s_epik_cmdline>  (228) 
J2VwaWtfcHl0aG9uJywgJy1waHQnLCAnMi4wJywgJy1waCcsICc3LjAnLCAnLXRuJywgJzgnLCAnLW1hJywgJzIwMCcsICctaW1hZScsICc8aW5maWxlLm1hZT4nLCAnLW9tYWUnLCAnPG91dGZpbGUubWFlPic=

>  <r_lp_tautomer_probability>  (228) 
1

>  <r_epik_Ionization_Penalty>  (228) 
3.08482e-06

>  <r_epik_Ionization_Penalty_Charging>  (228) 
0

>  <r_epik_Ionization_Penalty_Neutral>  (228) 
3.08482e-06

>  <r_epik_State_Penalty>  (228) 
-0

>  <r_epik_Charging_Adjusted_Penalty>  (228) 
0

>  <i_epik_Tot_Q>  (228) 
0

>  <i_epik_Tot_abs_Q>  (228) 
0

>  <s_lp_Force_Field>  (228) 
OPLS3e

>  <r_lp_Energy>  (228) 
121.849

>  <b_lp_Chiralities_Consistent>  (228) 
1

>  <s_lp_Variant>  (228) 
88:0-1

>  <s_i_glide_gridfile>  (228) 
pfpi4k_grid

>  <i_i_glide_lignum>  (228) 
6

>  <i_i_glide_rotatable_bonds>  (228) 
4

>  <r_i_docking_score>  (228) 
-3.64226

>  <r_i_glide_ligand_efficiency>  (228) 
-0.165557

>  <r_i_glide_ligand_efficiency_sa>  (228) 
-0.463898

>  <r_i_glide_ligand_efficiency_ln>  (228) 
-0.890301

>  <r_i_glide_gscore>  (228) 
-3.64226

>  <r_i_glide_lipo>  (228) 
-0.343493

>  <r_i_glide_hbond>  (228) 
0

>  <r_i_glide_metal>  (228) 
-0

>  <r_i_glide_rewards>  (228) 
-1.29253

>  <r_i_glide_evdw>  (228) 
-17.3555

>  <r_i_glide_ecoul>  (228) 
-7.58971

>  <r_i_glide_erotb>  (228) 
0

>  <r_i_glide_esite>  (228) 
0

>  <r_i_glide_emodel>  (228) 
-29.2396

>  <r_i_glide_energy>  (228) 
-24.9452

>  <r_i_glide_einternal>  (228) 
2.30494

>  <r_i_glide_intrahb_reward>  (228) 
-0

>  <i_i_glide_confnum>  (228) 
2

>  <i_i_glide_posenum>  (228) 
31

>  <r_i_glide_eff_state_penalty>  (228) 
0

>  <ligand_id>  (228) 
88

>  <original_smiles>  (228) 
CC1C(O)C(O)C(O)C2CC13CCC1C2(C)C(O)CCC13C

>  <smiles>  (228) 
[H]OC1([H])C([H])(O[H])C2([H])C([H])([H])C3(C([H])([H])C([H])([H])C4([H])C2(C([H])([H])[H])C([H])(O[H])C([H])([H])C([H])([H])C43C([H])([H])[H])C([H])(C([H])([H])[H])C1([H])O[H]

$$$$
88:0:1
     RDKit          3D

 52 55  0  0  1  0  0  0  0  0999 V2000
    4.5528   -4.6431    4.6964 C   0  0  0  0  0  0  0  0  0  0  0  0
    4.7403   -3.6183    3.5550 C   0  0  2  0  0  0  0  0  0  0  0  0
    4.0915   -2.2393    3.9663 C   0  0  1  0  0  0  0  0  0  0  0  0
    4.8714   -1.6785    5.0072 O   0  0  0  0  0  0  0  0  0  0  0  0
    3.7725   -1.0953    2.9300 C   0  0  1  0  0  0  0  0  0  0  0  0
    4.8739   -0.2728    2.6167 O   0  0  0  0  0  0  0  0  0  0  0  0
    2.7918   -1.3287    1.7187 C   0  0  1  0  0  0  0  0  0  0  0  0
    2.6149   -0.1931    0.9037 O   0  0  0  0  0  0  0  0  0  0  0  0
    2.6642   -2.6858    0.9495 C   0  0  2  0  0  0  0  0  0  0  0  0
    2.7550   -3.7628    1.9739 C   0  0  0  0  0  0  0  0  0  0  0  0
    4.2515   -4.1869    2.1847 C   0  0  2  0  0  0  0  0  0  0  0  0
    4.0661   -5.7096    1.9693 C   0  0  0  0  0  0  0  0  0  0  0  0
    3.9249   -5.7617    0.4127 C   0  0  0  0  0  0  0  0  0  0  0  0
    4.4253   -4.3731   -0.1347 C   0  0  1  0  0  0  0  0  0  0  0  0
    3.3827   -3.1895   -0.3885 C   0  0  1  0  0  0  0  0  0  0  0  0
    2.2951   -3.6782   -1.3758 C   0  0  0  0  0  0  0  0  0  0  0  0
    4.1985   -2.1173   -1.1371 C   0  0  1  0  0  0  0  0  0  0  0  0
    3.4179   -1.1038   -1.7475 O   0  0  0  0  0  0  0  0  0  0  0  0
    5.3147   -1.5271   -0.2806 C   0  0  0  0  0  0  0  0  0  0  0  0
    5.9482   -2.4957    0.7502 C   0  0  0  0  0  0  0  0  0  0  0  0
    5.3170   -3.9173    1.0071 C   0  0  1  0  0  0  0  0  0  0  0  0
    6.6086   -4.8117    1.1242 C   0  0  0  0  0  0  0  0  0  0  0  0
    3.5047   -4.9145    4.8305 H   0  0  0  0  0  0  0  0  0  0  0  0
    4.9134   -4.2573    5.6499 H   0  0  0  0  0  0  0  0  0  0  0  0
    5.1115   -5.5598    4.5091 H   0  0  0  0  0  0  0  0  0  0  0  0
    5.8160   -3.4582    3.4765 H   0  0  0  0  0  0  0  0  0  0  0  0
    3.1419   -2.4647    4.4507 H   0  0  0  0  0  0  0  0  0  0  0  0
    4.9462   -2.3197    5.6970 H   0  0  0  0  0  0  0  0  0  0  0  0
    3.2164   -0.3882    3.5487 H   0  0  0  0  0  0  0  0  0  0  0  0
    4.5085    0.5322    2.2671 H   0  0  0  0  0  0  0  0  0  0  0  0
    1.8399   -1.3080    2.2463 H   0  0  0  0  0  0  0  0  0  0  0  0
    1.8723   -0.3539    0.3233 H   0  0  0  0  0  0  0  0  0  0  0  0
    1.6229   -2.6443    0.6610 H   0  0  0  0  0  0  0  0  0  0  0  0
    2.2211   -3.5263    2.8880 H   0  0  0  0  0  0  0  0  0  0  0  0
    2.0983   -4.5442    1.5967 H   0  0  0  0  0  0  0  0  0  0  0  0
    4.8996   -6.3029    2.3369 H   0  0  0  0  0  0  0  0  0  0  0  0
    3.1997   -6.1385    2.4767 H   0  0  0  0  0  0  0  0  0  0  0  0
    4.5463   -6.5652    0.0159 H   0  0  0  0  0  0  0  0  0  0  0  0
    2.9071   -5.9896    0.0947 H   0  0  0  0  0  0  0  0  0  0  0  0
    5.0105   -4.5613   -1.0390 H   0  0  0  0  0  0  0  0  0  0  0  0
    2.7710   -3.9842   -2.3029 H   0  0  0  0  0  0  0  0  0  0  0  0
    1.5908   -2.9024   -1.6671 H   0  0  0  0  0  0  0  0  0  0  0  0
    1.7058   -4.5081   -0.9846 H   0  0  0  0  0  0  0  0  0  0  0  0
    4.6913   -2.6096   -1.9742 H   0  0  0  0  0  0  0  0  0  0  0  0
    2.5572   -1.0676   -1.3351 H   0  0  0  0  0  0  0  0  0  0  0  0
    6.0992   -1.1859   -0.9571 H   0  0  0  0  0  0  0  0  0  0  0  0
    4.9901   -0.6109    0.1976 H   0  0  0  0  0  0  0  0  0  0  0  0
    6.9633   -2.6006    0.3648 H   0  0  0  0  0  0  0  0  0  0  0  0
    6.1525   -2.0199    1.6974 H   0  0  0  0  0  0  0  0  0  0  0  0
    7.2968   -4.6424    0.2929 H   0  0  0  0  0  0  0  0  0  0  0  0
    6.4591   -5.8912    1.0795 H   0  0  0  0  0  0  0  0  0  0  0  0
    7.1473   -4.5941    2.0497 H   0  0  0  0  0  0  0  0  0  0  0  0
  1  2  1  0
  1 23  1  0
  1 24  1  0
  1 25  1  0
  2 11  1  0
  2  3  1  0
  2 26  1  6
  3  4  1  0
  3  5  1  0
  3 27  1  1
  4 28  1  0
  5  6  1  0
  5  7  1  0
  5 29  1  1
  6 30  1  0
  7  8  1  0
  7  9  1  0
  7 31  1  1
  8 32  1  0
  9 15  1  0
  9 10  1  0
  9 33  1  6
 10 11  1  0
 10 34  1  0
 10 35  1  0
 11 21  1  0
 11 12  1  1
 12 13  1  0
 12 36  1  0
 12 37  1  0
 13 14  1  0
 13 38  1  0
 13 39  1  0
 14 21  1  0
 14 15  1  0
 14 40  1  6
 15 16  1  6
 15 17  1  0
 16 41  1  0
 16 42  1  0
 16 43  1  0
 17 18  1  0
 17 19  1  0
 17 44  1  6
 18 45  1  0
 19 20  1  0
 19 46  1  0
 19 47  1  0
 20 21  1  0
 20 48  1  0
 20 49  1  0
 21 22  1  1
 22 50  1  0
 22 51  1  0
 22 52  1  0
M  END
>  <i_m_ct_stereo_status>  (229) 
1

>  <s_m_source_file>  (229) 
/var/tmp/pbs.5076255.sched01/tmp_srbpc4z/1203xlsw0nt.sdf

>  <i_m_source_file_index>  (229) 
6

>  <i_lp_mmshare_version>  (229) 
48012

>  <i_f3d_flags>  (229) 
0

>  <s_epik_input>  (229) 
W0NIM11bQ0BASF0xW0NAQEhdKFtPSF0pW0NAQEhdKFtPSF0pW0NAQEhdKFtPSF0pW0NASF0oW0NIMl0yKVtDQF0oW0NIM10pKFtDQEhdKFtDSDJdW0NIMl0zKVtDQEBdNChbQ0BAXTEyMylbQ0gzXSlbQ0BASF0oW09IXSlbQ0gyXVtDSDJdNA==

>  <s_epik_cmdline>  (229) 
J2VwaWtfcHl0aG9uJywgJy1waHQnLCAnMi4wJywgJy1waCcsICc3LjAnLCAnLXRuJywgJzgnLCAnLW1hJywgJzIwMCcsICctaW1hZScsICc8aW5maWxlLm1hZT4nLCAnLW9tYWUnLCAnPG91dGZpbGUubWFlPic=

>  <r_lp_tautomer_probability>  (229) 
1

>  <r_epik_Ionization_Penalty>  (229) 
3.08482e-06

>  <r_epik_Ionization_Penalty_Charging>  (229) 
0

>  <r_epik_Ionization_Penalty_Neutral>  (229) 
3.08482e-06

>  <r_epik_State_Penalty>  (229) 
-0

>  <r_epik_Charging_Adjusted_Penalty>  (229) 
0

>  <i_epik_Tot_Q>  (229) 
0

>  <i_epik_Tot_abs_Q>  (229) 
0

>  <s_lp_Force_Field>  (229) 
OPLS3e

>  <r_lp_Energy>  (229) 
121.849

>  <b_lp_Chiralities_Consistent>  (229) 
1

>  <s_lp_Variant>  (229) 
88:0-1

>  <s_i_glide_gridfile>  (229) 
pfpi4k_grid

>  <i_i_glide_lignum>  (229) 
6

>  <i_i_glide_rotatable_bonds>  (229) 
4

>  <r_i_docking_score>  (229) 
-3.61774

>  <r_i_glide_ligand_efficiency>  (229) 
-0.164443

>  <r_i_glide_ligand_efficiency_sa>  (229) 
-0.460776

>  <r_i_glide_ligand_efficiency_ln>  (229) 
-0.884309

>  <r_i_glide_gscore>  (229) 
-3.61774

>  <r_i_glide_lipo>  (229) 
-0.341868

>  <r_i_glide_hbond>  (229) 
0

>  <r_i_glide_metal>  (229) 
-0

>  <r_i_glide_rewards>  (229) 
-1.29253

>  <r_i_glide_evdw>  (229) 
-17.3045

>  <r_i_glide_ecoul>  (229) 
-7.45413

>  <r_i_glide_erotb>  (229) 
0

>  <r_i_glide_esite>  (229) 
0

>  <r_i_glide_emodel>  (229) 
-29.0257

>  <r_i_glide_energy>  (229) 
-24.7586

>  <r_i_glide_einternal>  (229) 
2.29838

>  <r_i_glide_intrahb_reward>  (229) 
-0

>  <i_i_glide_confnum>  (229) 
2

>  <i_i_glide_posenum>  (229) 
20

>  <r_i_glide_eff_state_penalty>  (229) 
0

>  <ligand_id>  (229) 
88

>  <original_smiles>  (229) 
CC1C(O)C(O)C(O)C2CC13CCC1C2(C)C(O)CCC13C

>  <smiles>  (229) 
[H]OC1([H])C([H])(O[H])C2([H])C([H])([H])C3(C([H])([H])C([H])([H])C4([H])C2(C([H])([H])[H])C([H])(O[H])C([H])([H])C([H])([H])C43C([H])([H])[H])C([H])(C([H])([H])[H])C1([H])O[H]

$$$$
88:0:2
     RDKit          3D

 52 55  0  0  1  0  0  0  0  0999 V2000
    4.1098   -5.1031    4.6111 C   0  0  0  0  0  0  0  0  0  0  0  0
    4.5266   -3.9852    3.6322 C   0  0  2  0  0  0  0  0  0  0  0  0
    3.8516   -2.6321    4.0740 C   0  0  1  0  0  0  0  0  0  0  0  0
    4.4752   -2.2210    5.2726 O   0  0  0  0  0  0  0  0  0  0  0  0
    3.7536   -1.3768    3.1282 C   0  0  1  0  0  0  0  0  0  0  0  0
    4.9195   -0.5892    3.1155 O   0  0  0  0  0  0  0  0  0  0  0  0
    2.9966   -1.4448    1.7413 C   0  0  1  0  0  0  0  0  0  0  0  0
    3.0039   -0.2429    1.0111 O   0  0  0  0  0  0  0  0  0  0  0  0
    2.9507   -2.7115    0.8203 C   0  0  2  0  0  0  0  0  0  0  0  0
    2.8415   -3.8784    1.7328 C   0  0  0  0  0  0  0  0  0  0  0  0
    4.2655   -4.3885    2.1475 C   0  0  2  0  0  0  0  0  0  0  0  0
    4.0745   -5.8704    1.7426 C   0  0  0  0  0  0  0  0  0  0  0  0
    4.2035   -5.7608    0.1882 C   0  0  0  0  0  0  0  0  0  0  0  0
    4.8340   -4.3562   -0.1147 C   0  0  1  0  0  0  0  0  0  0  0  0
    3.8866   -3.1152   -0.4155 C   0  0  1  0  0  0  0  0  0  0  0  0
    2.9800   -3.4579   -1.6206 C   0  0  0  0  0  0  0  0  0  0  0  0
    4.8695   -2.0265   -0.8982 C   0  0  1  0  0  0  0  0  0  0  0  0
    4.2312   -0.9341   -1.5149 O   0  0  0  0  0  0  0  0  0  0  0  0
    5.8213   -1.5565    0.1949 C   0  0  0  0  0  0  0  0  0  0  0  0
    6.2335   -2.6499    1.2043 C   0  0  0  0  0  0  0  0  0  0  0  0
    5.5241   -4.0567    1.1993 C   0  0  1  0  0  0  0  0  0  0  0  0
    6.7436   -5.0230    1.4356 C   0  0  0  0  0  0  0  0  0  0  0  0
    3.0457   -5.3316    4.5357 H   0  0  0  0  0  0  0  0  0  0  0  0
    4.3084   -4.8182    5.6426 H   0  0  0  0  0  0  0  0  0  0  0  0
    4.6651   -6.0233    4.4317 H   0  0  0  0  0  0  0  0  0  0  0  0
    5.6057   -3.8727    3.7550 H   0  0  0  0  0  0  0  0  0  0  0  0
    2.8253   -2.8562    4.3712 H   0  0  0  0  0  0  0  0  0  0  0  0
    5.3563   -1.9476    5.0497 H   0  0  0  0  0  0  0  0  0  0  0  0
    3.1147   -0.7083    3.7104 H   0  0  0  0  0  0  0  0  0  0  0  0
    4.6661    0.2528    2.7552 H   0  0  0  0  0  0  0  0  0  0  0  0
    1.9681   -1.4213    2.1033 H   0  0  0  0  0  0  0  0  0  0  0  0
    2.2088   -0.2366    0.4774 H   0  0  0  0  0  0  0  0  0  0  0  0
    1.9581   -2.6208    0.3811 H   0  0  0  0  0  0  0  0  0  0  0  0
    2.1691   -3.7077    2.5622 H   0  0  0  0  0  0  0  0  0  0  0  0
    2.2371   -4.5867    1.1721 H   0  0  0  0  0  0  0  0  0  0  0  0
    4.8100   -6.5340    2.1899 H   0  0  0  0  0  0  0  0  0  0  0  0
    3.1189   -6.3002    2.0544 H   0  0  0  0  0  0  0  0  0  0  0  0
    4.8547   -6.5529   -0.1781 H   0  0  0  0  0  0  0  0  0  0  0  0
    3.2464   -5.8993   -0.3148 H   0  0  0  0  0  0  0  0  0  0  0  0
    5.5629   -4.4819   -0.9234 H   0  0  0  0  0  0  0  0  0  0  0  0
    3.5764   -3.7793   -2.4761 H   0  0  0  0  0  0  0  0  0  0  0  0
    2.3919   -2.6036   -1.9448 H   0  0  0  0  0  0  0  0  0  0  0  0
    2.2650   -4.2476   -1.3909 H   0  0  0  0  0  0  0  0  0  0  0  0
    5.4937   -2.4509   -1.6893 H   0  0  0  0  0  0  0  0  0  0  0  0
    3.5183   -0.6655   -0.9556 H   0  0  0  0  0  0  0  0  0  0  0  0
    6.7206   -1.1746   -0.2829 H   0  0  0  0  0  0  0  0  0  0  0  0
    5.4365   -0.6871    0.7146 H   0  0  0  0  0  0  0  0  0  0  0  0
    7.2999   -2.7630    1.0013 H   0  0  0  0  0  0  0  0  0  0  0  0
    6.2609   -2.2807    2.2156 H   0  0  0  0  0  0  0  0  0  0  0  0
    7.5737   -4.8084    0.7569 H   0  0  0  0  0  0  0  0  0  0  0  0
    6.5731   -6.0817    1.2521 H   0  0  0  0  0  0  0  0  0  0  0  0
    7.1184   -4.9305    2.4562 H   0  0  0  0  0  0  0  0  0  0  0  0
  1  2  1  0
  1 23  1  0
  1 24  1  0
  1 25  1  0
  2 11  1  0
  2  3  1  0
  2 26  1  6
  3  4  1  0
  3  5  1  0
  3 27  1  1
  4 28  1  0
  5  6  1  0
  5  7  1  0
  5 29  1  1
  6 30  1  0
  7  8  1  0
  7  9  1  0
  7 31  1  1
  8 32  1  0
  9 15  1  0
  9 10  1  0
  9 33  1  6
 10 11  1  0
 10 34  1  0
 10 35  1  0
 11 21  1  0
 11 12  1  1
 12 13  1  0
 12 36  1  0
 12 37  1  0
 13 14  1  0
 13 38  1  0
 13 39  1  0
 14 21  1  0
 14 15  1  0
 14 40  1  6
 15 16  1  6
 15 17  1  0
 16 41  1  0
 16 42  1  0
 16 43  1  0
 17 18  1  0
 17 19  1  0
 17 44  1  6
 18 45  1  0
 19 20  1  0
 19 46  1  0
 19 47  1  0
 20 21  1  0
 20 48  1  0
 20 49  1  0
 21 22  1  1
 22 50  1  0
 22 51  1  0
 22 52  1  0
M  END
>  <i_m_ct_stereo_status>  (230) 
1

>  <s_m_source_file>  (230) 
/var/tmp/pbs.5076255.sched01/tmp_srbpc4z/1203xlsw0nt.sdf

>  <i_m_source_file_index>  (230) 
6

>  <i_lp_mmshare_version>  (230) 
48012

>  <i_f3d_flags>  (230) 
0

>  <s_epik_input>  (230) 
W0NIM11bQ0BASF0xW0NAQEhdKFtPSF0pW0NAQEhdKFtPSF0pW0NAQEhdKFtPSF0pW0NASF0oW0NIMl0yKVtDQF0oW0NIM10pKFtDQEhdKFtDSDJdW0NIMl0zKVtDQEBdNChbQ0BAXTEyMylbQ0gzXSlbQ0BASF0oW09IXSlbQ0gyXVtDSDJdNA==

>  <s_epik_cmdline>  (230) 
J2VwaWtfcHl0aG9uJywgJy1waHQnLCAnMi4wJywgJy1waCcsICc3LjAnLCAnLXRuJywgJzgnLCAnLW1hJywgJzIwMCcsICctaW1hZScsICc8aW5maWxlLm1hZT4nLCAnLW9tYWUnLCAnPG91dGZpbGUubWFlPic=

>  <r_lp_tautomer_probability>  (230) 
1

>  <r_epik_Ionization_Penalty>  (230) 
3.08482e-06

>  <r_epik_Ionization_Penalty_Charging>  (230) 
0

>  <r_epik_Ionization_Penalty_Neutral>  (230) 
3.08482e-06

>  <r_epik_State_Penalty>  (230) 
-0

>  <r_epik_Charging_Adjusted_Penalty>  (230) 
0

>  <i_epik_Tot_Q>  (230) 
0

>  <i_epik_Tot_abs_Q>  (230) 
0

>  <s_lp_Force_Field>  (230) 
OPLS3e

>  <r_lp_Energy>  (230) 
121.849

>  <b_lp_Chiralities_Consistent>  (230) 
1

>  <s_lp_Variant>  (230) 
88:0-1

>  <s_i_glide_gridfile>  (230) 
pfpi4k_grid

>  <i_i_glide_lignum>  (230) 
6

>  <i_i_glide_rotatable_bonds>  (230) 
4

>  <r_i_docking_score>  (230) 
-3.34275

>  <r_i_glide_ligand_efficiency>  (230) 
-0.151943

>  <r_i_glide_ligand_efficiency_sa>  (230) 
-0.425751

>  <r_i_glide_ligand_efficiency_ln>  (230) 
-0.81709

>  <r_i_glide_gscore>  (230) 
-3.34275

>  <r_i_glide_lipo>  (230) 
-0.527394

>  <r_i_glide_hbond>  (230) 
0

>  <r_i_glide_metal>  (230) 
-0

>  <r_i_glide_rewards>  (230) 
-1.29253

>  <r_i_glide_evdw>  (230) 
-21.7208

>  <r_i_glide_ecoul>  (230) 
-2.91188

>  <r_i_glide_erotb>  (230) 
0

>  <r_i_glide_esite>  (230) 
0

>  <r_i_glide_emodel>  (230) 
-29.111

>  <r_i_glide_energy>  (230) 
-24.6327

>  <r_i_glide_einternal>  (230) 
1.27329

>  <r_i_glide_intrahb_reward>  (230) 
-0

>  <i_i_glide_confnum>  (230) 
2

>  <i_i_glide_posenum>  (230) 
40

>  <r_i_glide_eff_state_penalty>  (230) 
0

>  <ligand_id>  (230) 
88

>  <original_smiles>  (230) 
CC1C(O)C(O)C(O)C2CC13CCC1C2(C)C(O)CCC13C

>  <smiles>  (230) 
[H]OC1([H])C([H])(O[H])C2([H])C([H])([H])C3(C([H])([H])C([H])([H])C4([H])C2(C([H])([H])[H])C([H])(O[H])C([H])([H])C([H])([H])C43C([H])([H])[H])C([H])(C([H])([H])[H])C1([H])O[H]

$$$$
89:0:0
     RDKit          3D

 74 78  0  0  1  0  0  0  0  0999 V2000
    0.9514   -0.1317    6.7404 C   0  0  0  0  0  0  0  0  0  0  0  0
    0.2233   -0.0679    5.3675 C   0  0  1  0  0  0  0  0  0  0  0  0
   -1.1864    0.5500    5.5684 C   0  0  0  0  0  0  0  0  0  0  0  0
   -1.5608    1.4838    4.8251 O   0  0  0  0  0  0  0  0  0  0  0  0
   -1.8913    0.0696    6.4801 O   0  0  0  0  0  0  0  0  0  0  0  0
    1.0208    0.7661    4.3383 C   0  0  0  0  0  0  0  0  0  0  0  0
    2.3648    0.1339    3.9640 C   0  0  0  0  0  0  0  0  0  0  0  0
    2.2761   -1.3469    3.4988 C   0  0  2  0  0  0  0  0  0  0  0  0
    1.6505   -1.4055    2.0793 C   0  0  0  0  0  0  0  0  0  0  0  0
    1.4057   -2.1743    4.4685 C   0  0  0  0  0  0  0  0  0  0  0  0
    1.8037   -3.3694    5.0013 C   0  0  0  0  0  0  0  0  0  0  0  0
    1.0586   -4.0677    6.1305 C   0  0  0  0  0  0  0  0  0  0  0  0
    0.6952   -5.4601    5.6715 C   0  0  0  0  0  0  0  0  0  0  0  0
   -0.4898   -5.7481    5.5042 O   0  0  0  0  0  0  0  0  0  0  0  0
    1.8903   -6.4082    5.3772 C   0  0  1  0  0  0  0  0  0  0  0  0
    1.4470   -7.9276    5.1179 C   0  0  2  0  0  0  0  0  0  0  0  0
    0.4520   -8.4024    6.2278 C   0  0  0  0  0  0  0  0  0  0  0  0
    2.6295   -8.9494    5.2055 C   0  0  0  0  0  0  0  0  0  0  0  0
    2.2812  -10.4069    4.8172 C   0  0  0  0  0  0  0  0  0  0  0  0
    1.5600  -10.4925    3.4620 C   0  0  1  0  0  0  0  0  0  0  0  0
    1.0486  -11.7996    3.2928 O   0  0  0  0  0  0  0  0  0  0  0  0
    0.3892   -9.4974    3.3588 C   0  0  0  0  0  0  0  0  0  0  0  0
    0.7803   -8.0407    3.7143 C   0  0  2  0  0  0  0  0  0  0  0  0
    1.6450   -7.3812    2.6203 C   0  0  0  0  0  0  0  0  0  0  0  0
    2.0425   -5.9156    2.9214 C   0  0  0  0  0  0  0  0  0  0  0  0
    2.8025   -5.7015    4.2723 C   0  0  2  0  0  0  0  0  0  0  0  0
    4.2032   -6.3775    4.1705 C   0  0  0  0  0  0  0  0  0  0  0  0
    3.0861   -4.1349    4.5903 C   0  0  2  0  0  0  0  0  0  0  0  0
    4.0658   -4.0008    5.7964 C   0  0  0  0  0  0  0  0  0  0  0  0
    3.7627   -3.4077    3.3803 C   0  0  0  0  0  0  0  0  0  0  0  0
    3.7270   -1.8861    3.4923 C   0  0  1  0  0  0  0  0  0  0  0  0
    4.4859   -1.3212    2.4409 O   0  0  0  0  0  0  0  0  0  0  0  0
    0.0646   -1.4954    4.8016 C   0  0  0  0  0  0  0  0  0  0  0  0
    1.9310   -0.6017    6.6516 H   0  0  0  0  0  0  0  0  0  0  0  0
    0.3908   -0.7230    7.4691 H   0  0  0  0  0  0  0  0  0  0  0  0
    1.1042    0.8628    7.1618 H   0  0  0  0  0  0  0  0  0  0  0  0
    0.4392    0.8956    3.4232 H   0  0  0  0  0  0  0  0  0  0  0  0
    1.1895    1.7668    4.7305 H   0  0  0  0  0  0  0  0  0  0  0  0
    2.8155    0.7437    3.1813 H   0  0  0  0  0  0  0  0  0  0  0  0
    3.0320    0.2237    4.8210 H   0  0  0  0  0  0  0  0  0  0  0  0
    2.2435   -0.8768    1.3347 H   0  0  0  0  0  0  0  0  0  0  0  0
    0.6606   -0.9484    2.0545 H   0  0  0  0  0  0  0  0  0  0  0  0
    1.5347   -2.4353    1.7436 H   0  0  0  0  0  0  0  0  0  0  0  0
    1.7065   -4.1447    7.0031 H   0  0  0  0  0  0  0  0  0  0  0  0
    0.1688   -3.5543    6.4809 H   0  0  0  0  0  0  0  0  0  0  0  0
    2.4578   -6.4236    6.3069 H   0  0  0  0  0  0  0  0  0  0  0  0
    0.3414   -9.4824    6.2959 H   0  0  0  0  0  0  0  0  0  0  0  0
   -0.5648   -8.0610    6.0471 H   0  0  0  0  0  0  0  0  0  0  0  0
    0.7696   -8.0655    7.2162 H   0  0  0  0  0  0  0  0  0  0  0  0
    3.4241   -8.7010    4.5212 H   0  0  0  0  0  0  0  0  0  0  0  0
    3.0725   -8.9334    6.2041 H   0  0  0  0  0  0  0  0  0  0  0  0
    3.2054  -10.9863    4.7560 H   0  0  0  0  0  0  0  0  0  0  0  0
    1.6989  -10.9003    5.5966 H   0  0  0  0  0  0  0  0  0  0  0  0
    2.2711  -10.2937    2.6594 H   0  0  0  0  0  0  0  0  0  0  0  0
    1.7587  -12.4304    3.2877 H   0  0  0  0  0  0  0  0  0  0  0  0
   -0.0303   -9.5340    2.3524 H   0  0  0  0  0  0  0  0  0  0  0  0
   -0.4168   -9.8243    4.0183 H   0  0  0  0  0  0  0  0  0  0  0  0
   -0.1587   -7.4893    3.7217 H   0  0  0  0  0  0  0  0  0  0  0  0
    2.5370   -7.9821    2.4492 H   0  0  0  0  0  0  0  0  0  0  0  0
    1.0997   -7.4097    1.6758 H   0  0  0  0  0  0  0  0  0  0  0  0
    2.6466   -5.5922    2.0755 H   0  0  0  0  0  0  0  0  0  0  0  0
    1.1405   -5.3051    2.9058 H   0  0  0  0  0  0  0  0  0  0  0  0
    4.9969   -5.7075    3.8491 H   0  0  0  0  0  0  0  0  0  0  0  0
    4.2485   -7.1682    3.4289 H   0  0  0  0  0  0  0  0  0  0  0  0
    4.5192   -6.7799    5.1346 H   0  0  0  0  0  0  0  0  0  0  0  0
    5.0998   -4.2156    5.5268 H   0  0  0  0  0  0  0  0  0  0  0  0
    3.8089   -4.6623    6.6231 H   0  0  0  0  0  0  0  0  0  0  0  0
    4.0662   -2.9866    6.1983 H   0  0  0  0  0  0  0  0  0  0  0  0
    4.8041   -3.7072    3.2676 H   0  0  0  0  0  0  0  0  0  0  0  0
    3.2908   -3.6552    2.4354 H   0  0  0  0  0  0  0  0  0  0  0  0
    4.2248   -1.6017    4.4205 H   0  0  0  0  0  0  0  0  0  0  0  0
    4.4028   -0.3807    2.4913 H   0  0  0  0  0  0  0  0  0  0  0  0
   -0.5696   -2.0834    5.4557 H   0  0  0  0  0  0  0  0  0  0  0  0
   -0.5117   -1.4351    3.8786 H   0  0  0  0  0  0  0  0  0  0  0  0
  2  1  1  1
  1 34  1  0
  1 35  1  0
  1 36  1  0
  2 33  1  0
  2  3  1  0
  2  6  1  0
  3  4  2  0
  3  5  1  0
  6  7  1  0
  6 37  1  0
  6 38  1  0
  7  8  1  0
  7 39  1  0
  7 40  1  0
  8 31  1  0
  8  9  1  6
  8 10  1  0
  9 41  1  0
  9 42  1  0
  9 43  1  0
 10 11  2  0
 10 33  1  0
 11 28  1  0
 11 12  1  0
 12 13  1  0
 12 44  1  0
 12 45  1  0
 13 14  2  0
 13 15  1  0
 15 26  1  0
 15 16  1  0
 15 46  1  1
 16 23  1  0
 16 17  1  1
 16 18  1  0
 17 47  1  0
 17 48  1  0
 17 49  1  0
 18 19  1  0
 18 50  1  0
 18 51  1  0
 19 20  1  0
 19 52  1  0
 19 53  1  0
 20 21  1  0
 20 22  1  0
 20 54  1  6
 21 55  1  0
 22 23  1  0
 22 56  1  0
 22 57  1  0
 23 24  1  0
 23 58  1  1
 24 25  1  0
 24 59  1  0
 24 60  1  0
 25 26  1  0
 25 61  1  0
 25 62  1  0
 26 27  1  6
 26 28  1  0
 27 63  1  0
 27 64  1  0
 27 65  1  0
 28 29  1  1
 28 30  1  0
 29 66  1  0
 29 67  1  0
 29 68  1  0
 30 31  1  0
 30 69  1  0
 30 70  1  0
 31 32  1  0
 31 71  1  1
 32 72  1  0
 33 73  1  0
 33 74  1  0
M  CHG  1   5  -1
M  END
>  <i_m_ct_stereo_status>  (231) 
1

>  <s_m_source_file>  (231) 
/var/tmp/pbs.5076255.sched01/tmp_srbpc4z/1203xlsw0nt.sdf

>  <i_m_source_file_index>  (231) 
7

>  <i_lp_mmshare_version>  (231) 
48012

>  <i_f3d_flags>  (231) 
0

>  <s_epik_input>  (231) 
Tz1DKFtPSF0pW0NAXShbQ0gzXSkoW0NIMl1bQ0gyXTEpW0NIMl1DKFtDQEBdMTJbQ0gzXSk9QzNbQ0BdKFtDSDNdKShbQ0gyXVtDQEhdMltPSF0pW0NAQF00KFtDSDNdKVtDQEBIXShDKD1PKVtDSDJdMylbQ0BAXTUoW0NIM10pW0NAQEhdKFtDSDJdW0NIMl00KVtDSDJdW0NASF0oW09IXSlbQ0gyXVtDSDJdNQ==

>  <s_epik_cmdline>  (231) 
J2VwaWtfcHl0aG9uJywgJy1waHQnLCAnMi4wJywgJy1waCcsICc3LjAnLCAnLXRuJywgJzgnLCAnLW1hJywgJzIwMCcsICctaW1hZScsICc8aW5maWxlLm1hZT4nLCAnLW9tYWUnLCAnPG91dGZpbGUubWFlPic=

>  <r_epik_Ionization_Penalty>  (231) 
0.00365024

>  <r_epik_Ionization_Penalty_Charging>  (231) 
0.00364668

>  <r_epik_Ionization_Penalty_Neutral>  (231) 
3.56191e-06

>  <r_epik_State_Penalty>  (231) 
0.00259461

>  <r_epik_Charging_Adjusted_Penalty>  (231) 
0.00624129

>  <i_epik_Tot_Q>  (231) 
-1

>  <i_epik_Tot_abs_Q>  (231) 
1

>  <s_lp_Force_Field>  (231) 
OPLS3e

>  <r_lp_Energy>  (231) 
86.2622

>  <b_lp_Chiralities_Consistent>  (231) 
1

>  <s_lp_Variant>  (231) 
89:0-1

>  <s_i_glide_gridfile>  (231) 
pfpi4k_grid

>  <i_i_glide_lignum>  (231) 
7

>  <i_i_glide_rotatable_bonds>  (231) 
3

>  <r_i_docking_score>  (231) 
-3.01037

>  <r_i_glide_ligand_efficiency>  (231) 
-0.0912233

>  <r_i_glide_ligand_efficiency_sa>  (231) 
-0.292602

>  <r_i_glide_ligand_efficiency_ln>  (231) 
-0.66949

>  <r_i_glide_gscore>  (231) 
-3.01037

>  <r_i_glide_lipo>  (231) 
-0.100728

>  <r_i_glide_hbond>  (231) 
-0.337737

>  <r_i_glide_metal>  (231) 
-0

>  <r_i_glide_rewards>  (231) 
-0.28894

>  <r_i_glide_evdw>  (231) 
-25.7177

>  <r_i_glide_ecoul>  (231) 
-6.38808

>  <r_i_glide_erotb>  (231) 
0

>  <r_i_glide_esite>  (231) 
-0.0388658

>  <r_i_glide_emodel>  (231) 
-39.3188

>  <r_i_glide_energy>  (231) 
-32.1058

>  <r_i_glide_einternal>  (231) 
1.70832

>  <r_i_glide_intrahb_reward>  (231) 
-0

>  <i_i_glide_confnum>  (231) 
2

>  <i_i_glide_posenum>  (231) 
18

>  <r_i_glide_eff_state_penalty>  (231) 
0

>  <ligand_id>  (231) 
89

>  <original_smiles>  (231) 
CC1(C(=O)O)CCC2(C)C(=C3CC(=O)C4C5(C)CCC(O)CC5CCC4(C)C3(C)CC2O)C1

>  <smiles>  (231) 
[H]OC1([H])C([H])([H])C([H])([H])C2(C([H])([H])[H])C3([H])C(=O)C([H])([H])C4=C5C([H])([H])C(C(=O)[O-])(C([H])([H])[H])C([H])([H])C([H])([H])C5(C([H])([H])[H])C([H])(O[H])C([H])([H])C4(C([H])([H])[H])C3(C([H])([H])[H])C([H])([H])C([H])([H])C2([H])C1([H])[H]

$$$$
89:0:1
     RDKit          3D

 74 78  0  0  1  0  0  0  0  0999 V2000
    0.8708    0.2042    6.9205 C   0  0  0  0  0  0  0  0  0  0  0  0
    0.0682    0.2821    5.5938 C   0  0  1  0  0  0  0  0  0  0  0  0
   -1.3340    0.8783    5.9092 C   0  0  0  0  0  0  0  0  0  0  0  0
   -2.1634    0.1453    6.4796 O   0  0  0  0  0  0  0  0  0  0  0  0
   -1.5679    2.0702    5.6078 O   0  0  0  0  0  0  0  0  0  0  0  0
    0.7822    1.1643    4.5488 C   0  0  0  0  0  0  0  0  0  0  0  0
    2.1123    0.5727    4.0660 C   0  0  0  0  0  0  0  0  0  0  0  0
    2.0295   -0.8943    3.5617 C   0  0  2  0  0  0  0  0  0  0  0  0
    1.3223   -0.9184    2.1857 C   0  0  0  0  0  0  0  0  0  0  0  0
    1.2390   -1.7694    4.5566 C   0  0  0  0  0  0  0  0  0  0  0  0
    1.6893   -2.9685    5.0328 C   0  0  0  0  0  0  0  0  0  0  0  0
    1.0319   -3.7127    6.1887 C   0  0  0  0  0  0  0  0  0  0  0  0
    0.6659   -5.1004    5.7177 C   0  0  0  0  0  0  0  0  0  0  0  0
   -0.5171   -5.4159    5.6446 O   0  0  0  0  0  0  0  0  0  0  0  0
    1.8569   -6.0142    5.3131 C   0  0  1  0  0  0  0  0  0  0  0  0
    1.4250   -7.5318    5.0335 C   0  0  2  0  0  0  0  0  0  0  0  0
    0.5113   -8.0584    6.1847 C   0  0  0  0  0  0  0  0  0  0  0  0
    2.6279   -8.5321    5.0190 C   0  0  0  0  0  0  0  0  0  0  0  0
    2.2835   -9.9812    4.6117 C   0  0  0  0  0  0  0  0  0  0  0  0
    1.4841  -10.0406    3.3040 C   0  0  1  0  0  0  0  0  0  0  0  0
    0.9979  -11.3587    3.1652 O   0  0  0  0  0  0  0  0  0  0  0  0
    0.2855   -9.0727    3.3007 C   0  0  0  0  0  0  0  0  0  0  0  0
    0.6688   -7.6185    3.6747 C   0  0  2  0  0  0  0  0  0  0  0  0
    1.4507   -6.9119    2.5496 C   0  0  0  0  0  0  0  0  0  0  0  0
    1.8445   -5.4486    2.8697 C   0  0  0  0  0  0  0  0  0  0  0  0
    2.6820   -5.2571    4.1763 C   0  0  2  0  0  0  0  0  0  0  0  0
    4.0870   -5.8994    3.9664 C   0  0  0  0  0  0  0  0  0  0  0  0
    2.9564   -3.6959    4.5202 C   0  0  2  0  0  0  0  0  0  0  0  0
    4.0055   -3.5788    5.6680 C   0  0  0  0  0  0  0  0  0  0  0  0
    3.5405   -2.9218    3.2911 C   0  0  0  0  0  0  0  0  0  0  0  0
    3.4883   -1.4031    3.4512 C   0  0  1  0  0  0  0  0  0  0  0  0
    4.1914   -0.7744    2.3961 O   0  0  0  0  0  0  0  0  0  0  0  0
   -0.0917   -1.1299    4.9923 C   0  0  0  0  0  0  0  0  0  0  0  0
    1.8525   -0.2433    6.7579 H   0  0  0  0  0  0  0  0  0  0  0  0
    0.3662   -0.4184    7.6636 H   0  0  0  0  0  0  0  0  0  0  0  0
    1.0353    1.1927    7.3549 H   0  0  0  0  0  0  0  0  0  0  0  0
    0.1208    1.3210    3.6940 H   0  0  0  0  0  0  0  0  0  0  0  0
    0.9757    2.1538    4.9595 H   0  0  0  0  0  0  0  0  0  0  0  0
    2.5138    1.2116    3.2793 H   0  0  0  0  0  0  0  0  0  0  0  0
    2.8320    0.6465    4.8822 H   0  0  0  0  0  0  0  0  0  0  0  0
    1.8518   -0.3498    1.4199 H   0  0  0  0  0  0  0  0  0  0  0  0
    0.3249   -0.4816    2.2405 H   0  0  0  0  0  0  0  0  0  0  0  0
    1.1943   -1.9371    1.8215 H   0  0  0  0  0  0  0  0  0  0  0  0
    1.7327   -3.8004    7.0162 H   0  0  0  0  0  0  0  0  0  0  0  0
    0.1564   -3.2324    6.6134 H   0  0  0  0  0  0  0  0  0  0  0  0
    2.4831   -6.0436    6.2026 H   0  0  0  0  0  0  0  0  0  0  0  0
    0.4200   -9.1403    6.2300 H   0  0  0  0  0  0  0  0  0  0  0  0
   -0.5181   -7.7344    6.0625 H   0  0  0  0  0  0  0  0  0  0  0  0
    0.8689   -7.7399    7.1647 H   0  0  0  0  0  0  0  0  0  0  0  0
    3.3698   -8.2486    4.2922 H   0  0  0  0  0  0  0  0  0  0  0  0
    3.1297   -8.5351    5.9877 H   0  0  0  0  0  0  0  0  0  0  0  0
    3.2107  -10.5409    4.4763 H   0  0  0  0  0  0  0  0  0  0  0  0
    1.7567  -10.5101    5.4074 H   0  0  0  0  0  0  0  0  0  0  0  0
    2.1381   -9.8040    2.4618 H   0  0  0  0  0  0  0  0  0  0  0  0
    1.7258  -11.9651    3.1446 H   0  0  0  0  0  0  0  0  0  0  0  0
   -0.1976   -9.0916    2.3226 H   0  0  0  0  0  0  0  0  0  0  0  0
   -0.4695   -9.4386    3.9988 H   0  0  0  0  0  0  0  0  0  0  0  0
   -0.2786   -7.0862    3.7582 H   0  0  0  0  0  0  0  0  0  0  0  0
    2.3410   -7.4890    2.3054 H   0  0  0  0  0  0  0  0  0  0  0  0
    0.8482   -6.9203    1.6411 H   0  0  0  0  0  0  0  0  0  0  0  0
    2.3915   -5.0928    1.9987 H   0  0  0  0  0  0  0  0  0  0  0  0
    0.9346   -4.8510    2.9304 H   0  0  0  0  0  0  0  0  0  0  0  0
    4.8443   -5.2036    3.6175 H   0  0  0  0  0  0  0  0  0  0  0  0
    4.0985   -6.6681    3.2003 H   0  0  0  0  0  0  0  0  0  0  0  0
    4.4700   -6.3250    4.8955 H   0  0  0  0  0  0  0  0  0  0  0  0
    5.0249   -3.7644    5.3274 H   0  0  0  0  0  0  0  0  0  0  0  0
    3.8146   -4.2691    6.4898 H   0  0  0  0  0  0  0  0  0  0  0  0
    4.0122   -2.5768    6.0993 H   0  0  0  0  0  0  0  0  0  0  0  0
    4.5793   -3.1950    3.1090 H   0  0  0  0  0  0  0  0  0  0  0  0
    3.0116   -3.1535    2.3724 H   0  0  0  0  0  0  0  0  0  0  0  0
    4.0296   -1.1454    4.3604 H   0  0  0  0  0  0  0  0  0  0  0  0
    3.7056   -0.9002    1.5933 H   0  0  0  0  0  0  0  0  0  0  0  0
   -0.6584   -1.7606    5.6657 H   0  0  0  0  0  0  0  0  0  0  0  0
   -0.7273   -1.0569    4.1108 H   0  0  0  0  0  0  0  0  0  0  0  0
  2  1  1  1
  1 34  1  0
  1 35  1  0
  1 36  1  0
  2 33  1  0
  2  3  1  0
  2  6  1  0
  3  4  2  0
  3  5  1  0
  6  7  1  0
  6 37  1  0
  6 38  1  0
  7  8  1  0
  7 39  1  0
  7 40  1  0
  8 31  1  0
  8  9  1  6
  8 10  1  0
  9 41  1  0
  9 42  1  0
  9 43  1  0
 10 11  2  0
 10 33  1  0
 11 28  1  0
 11 12  1  0
 12 13  1  0
 12 44  1  0
 12 45  1  0
 13 14  2  0
 13 15  1  0
 15 26  1  0
 15 16  1  0
 15 46  1  1
 16 23  1  0
 16 17  1  1
 16 18  1  0
 17 47  1  0
 17 48  1  0
 17 49  1  0
 18 19  1  0
 18 50  1  0
 18 51  1  0
 19 20  1  0
 19 52  1  0
 19 53  1  0
 20 21  1  0
 20 22  1  0
 20 54  1  6
 21 55  1  0
 22 23  1  0
 22 56  1  0
 22 57  1  0
 23 24  1  0
 23 58  1  1
 24 25  1  0
 24 59  1  0
 24 60  1  0
 25 26  1  0
 25 61  1  0
 25 62  1  0
 26 27  1  6
 26 28  1  0
 27 63  1  0
 27 64  1  0
 27 65  1  0
 28 29  1  1
 28 30  1  0
 29 66  1  0
 29 67  1  0
 29 68  1  0
 30 31  1  0
 30 69  1  0
 30 70  1  0
 31 32  1  0
 31 71  1  1
 32 72  1  0
 33 73  1  0
 33 74  1  0
M  CHG  1   5  -1
M  END
>  <i_m_ct_stereo_status>  (232) 
1

>  <s_m_source_file>  (232) 
/var/tmp/pbs.5076255.sched01/tmp_srbpc4z/1203xlsw0nt.sdf

>  <i_m_source_file_index>  (232) 
7

>  <i_lp_mmshare_version>  (232) 
48012

>  <i_f3d_flags>  (232) 
0

>  <s_epik_input>  (232) 
Tz1DKFtPSF0pW0NAXShbQ0gzXSkoW0NIMl1bQ0gyXTEpW0NIMl1DKFtDQEBdMTJbQ0gzXSk9QzNbQ0BdKFtDSDNdKShbQ0gyXVtDQEhdMltPSF0pW0NAQF00KFtDSDNdKVtDQEBIXShDKD1PKVtDSDJdMylbQ0BAXTUoW0NIM10pW0NAQEhdKFtDSDJdW0NIMl00KVtDSDJdW0NASF0oW09IXSlbQ0gyXVtDSDJdNQ==

>  <s_epik_cmdline>  (232) 
J2VwaWtfcHl0aG9uJywgJy1waHQnLCAnMi4wJywgJy1waCcsICc3LjAnLCAnLXRuJywgJzgnLCAnLW1hJywgJzIwMCcsICctaW1hZScsICc8aW5maWxlLm1hZT4nLCAnLW9tYWUnLCAnPG91dGZpbGUubWFlPic=

>  <r_epik_Ionization_Penalty>  (232) 
0.00365024

>  <r_epik_Ionization_Penalty_Charging>  (232) 
0.00364668

>  <r_epik_Ionization_Penalty_Neutral>  (232) 
3.56191e-06

>  <r_epik_State_Penalty>  (232) 
0.00259461

>  <r_epik_Charging_Adjusted_Penalty>  (232) 
0.00624129

>  <i_epik_Tot_Q>  (232) 
-1

>  <i_epik_Tot_abs_Q>  (232) 
1

>  <s_lp_Force_Field>  (232) 
OPLS3e

>  <r_lp_Energy>  (232) 
86.2622

>  <b_lp_Chiralities_Consistent>  (232) 
1

>  <s_lp_Variant>  (232) 
89:0-1

>  <s_i_glide_gridfile>  (232) 
pfpi4k_grid

>  <i_i_glide_lignum>  (232) 
7

>  <i_i_glide_rotatable_bonds>  (232) 
3

>  <r_i_docking_score>  (232) 
-2.864

>  <r_i_glide_ligand_efficiency>  (232) 
-0.0867879

>  <r_i_glide_ligand_efficiency_sa>  (232) 
-0.278375

>  <r_i_glide_ligand_efficiency_ln>  (232) 
-0.636939

>  <r_i_glide_gscore>  (232) 
-2.864

>  <r_i_glide_lipo>  (232) 
-0.0676404

>  <r_i_glide_hbond>  (232) 
-0.2

>  <r_i_glide_metal>  (232) 
-0

>  <r_i_glide_rewards>  (232) 
-0.28894

>  <r_i_glide_evdw>  (232) 
-25.3714

>  <r_i_glide_ecoul>  (232) 
-6.63181

>  <r_i_glide_erotb>  (232) 
0

>  <r_i_glide_esite>  (232) 
-0.0440774

>  <r_i_glide_emodel>  (232) 
-38.9258

>  <r_i_glide_energy>  (232) 
-32.0032

>  <r_i_glide_einternal>  (232) 
1.40199

>  <r_i_glide_intrahb_reward>  (232) 
-0

>  <i_i_glide_confnum>  (232) 
1

>  <i_i_glide_posenum>  (232) 
24

>  <r_i_glide_eff_state_penalty>  (232) 
0

>  <ligand_id>  (232) 
89

>  <original_smiles>  (232) 
CC1(C(=O)O)CCC2(C)C(=C3CC(=O)C4C5(C)CCC(O)CC5CCC4(C)C3(C)CC2O)C1

>  <smiles>  (232) 
[H]OC1([H])C([H])([H])C([H])([H])C2(C([H])([H])[H])C3([H])C(=O)C([H])([H])C4=C5C([H])([H])C(C(=O)[O-])(C([H])([H])[H])C([H])([H])C([H])([H])C5(C([H])([H])[H])C([H])(O[H])C([H])([H])C4(C([H])([H])[H])C3(C([H])([H])[H])C([H])([H])C([H])([H])C2([H])C1([H])[H]

$$$$
89:0:2
     RDKit          3D

 74 78  0  0  1  0  0  0  0  0999 V2000
    5.5227   -0.7936    6.2596 C   0  0  0  0  0  0  0  0  0  0  0  0
    4.4299   -0.0744    5.4209 C   0  0  1  0  0  0  0  0  0  0  0  0
    3.8169    1.0354    6.3127 C   0  0  0  0  0  0  0  0  0  0  0  0
    4.6174    1.8542    6.8135 O   0  0  0  0  0  0  0  0  0  0  0  0
    2.5728    1.0625    6.4751 O   0  0  0  0  0  0  0  0  0  0  0  0
    5.0138    0.6112    4.1833 C   0  0  0  0  0  0  0  0  0  0  0  0
    5.5434   -0.3626    3.1223 C   0  0  0  0  0  0  0  0  0  0  0  0
    4.5620   -1.4946    2.7136 C   0  0  2  0  0  0  0  0  0  0  0  0
    3.4937   -0.8749    1.7799 C   0  0  0  0  0  0  0  0  0  0  0  0
    3.8895   -2.1099    3.9587 C   0  0  0  0  0  0  0  0  0  0  0  0
    3.8012   -3.4470    4.1900 C   0  0  0  0  0  0  0  0  0  0  0  0
    3.3353   -4.0313    5.5214 C   0  0  0  0  0  0  0  0  0  0  0  0
    2.1567   -4.9250    5.2438 C   0  0  0  0  0  0  0  0  0  0  0  0
    1.0379   -4.5959    5.6394 O   0  0  0  0  0  0  0  0  0  0  0  0
    2.4583   -6.1807    4.3812 C   0  0  1  0  0  0  0  0  0  0  0  0
    1.2367   -7.2210    4.3308 C   0  0  2  0  0  0  0  0  0  0  0  0
    0.6719   -7.4892    5.7626 C   0  0  0  0  0  0  0  0  0  0  0  0
    1.6377   -8.6334    3.7842 C   0  0  0  0  0  0  0  0  0  0  0  0
    0.4637   -9.6048    3.5525 C   0  0  0  0  0  0  0  0  0  0  0  0
   -0.6484   -8.9567    2.7130 C   0  0  1  0  0  0  0  0  0  0  0  0
   -1.7446   -9.8106    2.6780 O   0  0  0  0  0  0  0  0  0  0  0  0
   -1.0887   -7.5906    3.2607 C   0  0  0  0  0  0  0  0  0  0  0  0
    0.1163   -6.6436    3.4349 C   0  0  2  0  0  0  0  0  0  0  0  0
    0.6896   -6.2333    2.0758 C   0  0  0  0  0  0  0  0  0  0  0  0
    1.8301   -5.1738    2.1765 C   0  0  0  0  0  0  0  0  0  0  0  0
    3.0649   -5.6701    2.9910 C   0  0  2  0  0  0  0  0  0  0  0  0
    3.7334   -6.8252    2.1894 C   0  0  0  0  0  0  0  0  0  0  0  0
    4.2104   -4.5412    3.1763 C   0  0  2  0  0  0  0  0  0  0  0  0
    5.4992   -5.1914    3.7615 C   0  0  0  0  0  0  0  0  0  0  0  0
    4.5984   -3.8706    1.8123 C   0  0  0  0  0  0  0  0  0  0  0  0
    5.3932   -2.5764    1.9777 C   0  0  1  0  0  0  0  0  0  0  0  0
    5.8786   -2.1079    0.7341 O   0  0  0  0  0  0  0  0  0  0  0  0
    3.3556   -1.0549    4.9325 C   0  0  0  0  0  0  0  0  0  0  0  0
    5.9822   -1.5908    5.6821 H   0  0  0  0  0  0  0  0  0  0  0  0
    5.0873   -1.2379    7.1553 H   0  0  0  0  0  0  0  0  0  0  0  0
    6.3133   -0.1064    6.5669 H   0  0  0  0  0  0  0  0  0  0  0  0
    4.2697    1.2799    3.7423 H   0  0  0  0  0  0  0  0  0  0  0  0
    5.8364    1.2438    4.5082 H   0  0  0  0  0  0  0  0  0  0  0  0
    5.8748    0.1457    2.2222 H   0  0  0  0  0  0  0  0  0  0  0  0
    6.4730   -0.7418    3.5206 H   0  0  0  0  0  0  0  0  0  0  0  0
    3.9306   -0.4608    0.8716 H   0  0  0  0  0  0  0  0  0  0  0  0
    2.9845   -0.0423    2.2669 H   0  0  0  0  0  0  0  0  0  0  0  0
    2.7318   -1.6011    1.5027 H   0  0  0  0  0  0  0  0  0  0  0  0
    4.1348   -4.6205    5.9647 H   0  0  0  0  0  0  0  0  0  0  0  0
    3.0699   -3.3074    6.2815 H   0  0  0  0  0  0  0  0  0  0  0  0
    3.2564   -6.7006    4.9089 H   0  0  0  0  0  0  0  0  0  0  0  0
    0.0550   -8.3800    5.8226 H   0  0  0  0  0  0  0  0  0  0  0  0
    0.0153   -6.6974    6.1165 H   0  0  0  0  0  0  0  0  0  0  0  0
    1.4820   -7.6185    6.4766 H   0  0  0  0  0  0  0  0  0  0  0  0
    2.0806   -8.5689    2.8032 H   0  0  0  0  0  0  0  0  0  0  0  0
    2.3800   -9.0929    4.4305 H   0  0  0  0  0  0  0  0  0  0  0  0
    0.8187  -10.4815    3.0153 H   0  0  0  0  0  0  0  0  0  0  0  0
    0.0679   -9.9893    4.4898 H   0  0  0  0  0  0  0  0  0  0  0  0
   -0.3052   -8.8265    1.6956 H   0  0  0  0  0  0  0  0  0  0  0  0
   -1.8768  -10.1413    3.5650 H   0  0  0  0  0  0  0  0  0  0  0  0
   -1.8157   -7.1536    2.5803 H   0  0  0  0  0  0  0  0  0  0  0  0
   -1.6044   -7.7062    4.2114 H   0  0  0  0  0  0  0  0  0  0  0  0
   -0.2889   -5.7474    3.9028 H   0  0  0  0  0  0  0  0  0  0  0  0
    1.0125   -7.0847    1.4804 H   0  0  0  0  0  0  0  0  0  0  0  0
   -0.1631   -5.8812    1.5143 H   0  0  0  0  0  0  0  0  0  0  0  0
    2.1141   -4.9182    1.1582 H   0  0  0  0  0  0  0  0  0  0  0  0
    1.4479   -4.2520    2.6223 H   0  0  0  0  0  0  0  0  0  0  0  0
    4.5445   -6.5020    1.5449 H   0  0  0  0  0  0  0  0  0  0  0  0
    3.0644   -7.3148    1.4909 H   0  0  0  0  0  0  0  0  0  0  0  0
    4.1482   -7.5781    2.8597 H   0  0  0  0  0  0  0  0  0  0  0  0
    6.0607   -5.7457    3.0113 H   0  0  0  0  0  0  0  0  0  0  0  0
    5.2895   -5.8784    4.5808 H   0  0  0  0  0  0  0  0  0  0  0  0
    6.1805   -4.4398    4.1563 H   0  0  0  0  0  0  0  0  0  0  0  0
    5.1962   -4.5453    1.2014 H   0  0  0  0  0  0  0  0  0  0  0  0
    3.7278   -3.6182    1.2142 H   0  0  0  0  0  0  0  0  0  0  0  0
    6.2718   -2.8147    2.5640 H   0  0  0  0  0  0  0  0  0  0  0  0
    5.1422   -1.8111    0.2248 H   0  0  0  0  0  0  0  0  0  0  0  0
    2.8375   -1.4726    5.7855 H   0  0  0  0  0  0  0  0  0  0  0  0
    2.5923   -0.4995    4.3881 H   0  0  0  0  0  0  0  0  0  0  0  0
  2  1  1  1
  1 34  1  0
  1 35  1  0
  1 36  1  0
  2 33  1  0
  2  3  1  0
  2  6  1  0
  3  4  2  0
  3  5  1  0
  6  7  1  0
  6 37  1  0
  6 38  1  0
  7  8  1  0
  7 39  1  0
  7 40  1  0
  8 31  1  0
  8  9  1  6
  8 10  1  0
  9 41  1  0
  9 42  1  0
  9 43  1  0
 10 11  2  0
 10 33  1  0
 11 28  1  0
 11 12  1  0
 12 13  1  0
 12 44  1  0
 12 45  1  0
 13 14  2  0
 13 15  1  0
 15 26  1  0
 15 16  1  0
 15 46  1  1
 16 23  1  0
 16 17  1  1
 16 18  1  0
 17 47  1  0
 17 48  1  0
 17 49  1  0
 18 19  1  0
 18 50  1  0
 18 51  1  0
 19 20  1  0
 19 52  1  0
 19 53  1  0
 20 21  1  0
 20 22  1  0
 20 54  1  6
 21 55  1  0
 22 23  1  0
 22 56  1  0
 22 57  1  0
 23 24  1  0
 23 58  1  1
 24 25  1  0
 24 59  1  0
 24 60  1  0
 25 26  1  0
 25 61  1  0
 25 62  1  0
 26 27  1  6
 26 28  1  0
 27 63  1  0
 27 64  1  0
 27 65  1  0
 28 29  1  1
 28 30  1  0
 29 66  1  0
 29 67  1  0
 29 68  1  0
 30 31  1  0
 30 69  1  0
 30 70  1  0
 31 32  1  0
 31 71  1  1
 32 72  1  0
 33 73  1  0
 33 74  1  0
M  CHG  1   5  -1
M  END
>  <i_m_ct_stereo_status>  (233) 
1

>  <s_m_source_file>  (233) 
/var/tmp/pbs.5076255.sched01/tmp_srbpc4z/1203xlsw0nt.sdf

>  <i_m_source_file_index>  (233) 
7

>  <i_lp_mmshare_version>  (233) 
48012

>  <i_f3d_flags>  (233) 
0

>  <s_epik_input>  (233) 
Tz1DKFtPSF0pW0NAXShbQ0gzXSkoW0NIMl1bQ0gyXTEpW0NIMl1DKFtDQEBdMTJbQ0gzXSk9QzNbQ0BdKFtDSDNdKShbQ0gyXVtDQEhdMltPSF0pW0NAQF00KFtDSDNdKVtDQEBIXShDKD1PKVtDSDJdMylbQ0BAXTUoW0NIM10pW0NAQEhdKFtDSDJdW0NIMl00KVtDSDJdW0NASF0oW09IXSlbQ0gyXVtDSDJdNQ==

>  <s_epik_cmdline>  (233) 
J2VwaWtfcHl0aG9uJywgJy1waHQnLCAnMi4wJywgJy1waCcsICc3LjAnLCAnLXRuJywgJzgnLCAnLW1hJywgJzIwMCcsICctaW1hZScsICc8aW5maWxlLm1hZT4nLCAnLW9tYWUnLCAnPG91dGZpbGUubWFlPic=

>  <r_epik_Ionization_Penalty>  (233) 
0.00365024

>  <r_epik_Ionization_Penalty_Charging>  (233) 
0.00364668

>  <r_epik_Ionization_Penalty_Neutral>  (233) 
3.56191e-06

>  <r_epik_State_Penalty>  (233) 
0.00259461

>  <r_epik_Charging_Adjusted_Penalty>  (233) 
0.00624129

>  <i_epik_Tot_Q>  (233) 
-1

>  <i_epik_Tot_abs_Q>  (233) 
1

>  <s_lp_Force_Field>  (233) 
OPLS3e

>  <r_lp_Energy>  (233) 
86.2622

>  <b_lp_Chiralities_Consistent>  (233) 
1

>  <s_lp_Variant>  (233) 
89:0-1

>  <s_i_glide_gridfile>  (233) 
pfpi4k_grid

>  <i_i_glide_lignum>  (233) 
7

>  <i_i_glide_rotatable_bonds>  (233) 
3

>  <r_i_docking_score>  (233) 
-2.1624

>  <r_i_glide_ligand_efficiency>  (233) 
-0.0655273

>  <r_i_glide_ligand_efficiency_sa>  (233) 
-0.210181

>  <r_i_glide_ligand_efficiency_ln>  (233) 
-0.480907

>  <r_i_glide_gscore>  (233) 
-2.1624

>  <r_i_glide_lipo>  (233) 
-0.378874

>  <r_i_glide_hbond>  (233) 
-0.16

>  <r_i_glide_metal>  (233) 
-0

>  <r_i_glide_rewards>  (233) 
-0.28894

>  <r_i_glide_evdw>  (233) 
-19.8673

>  <r_i_glide_ecoul>  (233) 
-2.27482

>  <r_i_glide_erotb>  (233) 
0

>  <r_i_glide_esite>  (233) 
0

>  <r_i_glide_emodel>  (233) 
-26.8271

>  <r_i_glide_energy>  (233) 
-22.1421

>  <r_i_glide_einternal>  (233) 
1.19306

>  <r_i_glide_intrahb_reward>  (233) 
-0

>  <i_i_glide_confnum>  (233) 
1

>  <i_i_glide_posenum>  (233) 
7

>  <r_i_glide_eff_state_penalty>  (233) 
0

>  <ligand_id>  (233) 
89

>  <original_smiles>  (233) 
CC1(C(=O)O)CCC2(C)C(=C3CC(=O)C4C5(C)CCC(O)CC5CCC4(C)C3(C)CC2O)C1

>  <smiles>  (233) 
[H]OC1([H])C([H])([H])C([H])([H])C2(C([H])([H])[H])C3([H])C(=O)C([H])([H])C4=C5C([H])([H])C(C(=O)[O-])(C([H])([H])[H])C([H])([H])C([H])([H])C5(C([H])([H])[H])C([H])(O[H])C([H])([H])C4(C([H])([H])[H])C3(C([H])([H])[H])C([H])([H])C([H])([H])C2([H])C1([H])[H]

$$$$
90:0:0
     RDKit          3D

 66 72  0  0  1  0  0  0  0  0999 V2000
   -1.3166   -2.2574    5.9798 C   0  0  0  0  0  0  0  0  0  0  0  0
   -1.8673   -0.9334    5.9739 O   0  0  0  0  0  0  0  0  0  0  0  0
   -0.9842    0.1158    5.8457 C   0  0  0  0  0  0  0  0  0  0  0  0
   -1.5208    1.4291    5.9452 C   0  0  0  0  0  0  0  0  0  0  0  0
   -0.7215    2.6161    5.8666 C   0  0  0  0  0  0  0  0  0  0  0  0
    0.6663    2.4924    5.6347 C   0  0  0  0  0  0  0  0  0  0  0  0
    1.1026    1.1842    5.4829 C   0  0  0  0  0  0  0  0  0  0  0  0
    0.4142   -0.0293    5.6260 C   0  0  0  0  0  0  0  0  0  0  0  0
    1.2469   -1.1398    5.5584 O   0  0  0  0  0  0  0  0  0  0  0  0
    2.4732   -0.5108    5.9118 C   0  0  1  0  0  0  0  0  0  0  0  0
    3.9307   -0.9573    6.0895 C   0  0  2  0  0  0  0  0  0  0  0  0
    3.8878   -2.3303    6.4462 O   0  0  0  0  0  0  0  0  0  0  0  0
    5.1110   -2.9844    6.7348 C   0  0  0  0  0  0  0  0  0  0  0  0
    4.4345   -0.0138    7.2328 C   0  0  0  0  0  0  0  0  0  0  0  0
    3.9931    1.4847    6.9257 C   0  0  0  0  0  0  0  0  0  0  0  0
    3.6232    1.6251    5.4074 C   0  0  2  0  0  0  0  0  0  0  0  0
    4.8755    0.9887    4.7365 C   0  0  0  0  0  0  0  0  0  0  0  0
    4.7815   -0.5764    4.8439 C   0  0  2  0  0  0  0  0  0  0  0  0
    4.2300   -1.2435    3.5759 C   0  0  0  0  0  0  0  0  0  0  0  0
    3.3293   -0.3404    2.7053 C   0  0  1  0  0  0  0  0  0  0  0  0
    2.6345   -1.1796    1.6012 C   0  0  0  0  0  0  0  0  0  0  0  0
    3.5974   -1.8430    0.7801 O   0  0  0  0  0  0  0  0  0  0  0  0
    3.4883   -3.1628    0.5237 C   0  0  0  0  0  0  0  0  0  0  0  0
    4.6080   -3.6921   -0.3662 C   0  0  0  0  0  0  0  0  0  0  0  0
    2.6104   -3.9134    0.9465 O   0  0  0  0  0  0  0  0  0  0  0  0
    2.3118    0.5553    3.4925 C   0  0  2  0  0  0  0  0  0  0  0  0
    2.1125    1.9448    2.8487 C   0  0  0  0  0  0  0  0  0  0  0  0
    3.0205    3.0025    3.3837 N   0  0  1  0  0  0  0  0  0  0  0  0
    2.7475    4.3190    2.7803 C   0  0  0  0  0  0  0  0  0  0  0  0
    3.1550    3.0160    4.8875 C   0  0  1  0  0  0  0  0  0  0  0  0
    1.8328    3.5007    5.5708 C   0  0  0  0  0  0  0  0  0  0  0  0
    2.4381    0.7421    5.0574 C   0  0  2  0  0  0  0  0  0  0  0  0
   -2.0681   -3.0458    6.1191 H   0  0  0  0  0  0  0  0  0  0  0  0
   -0.6060   -2.3642    6.8095 H   0  0  0  0  0  0  0  0  0  0  0  0
   -0.8107   -2.4754    5.0297 H   0  0  0  0  0  0  0  0  0  0  0  0
   -2.5739    1.5373    6.0968 H   0  0  0  0  0  0  0  0  0  0  0  0
   -1.1847    3.6010    5.9827 H   0  0  0  0  0  0  0  0  0  0  0  0
    2.2226   -0.2749    6.9554 H   0  0  0  0  0  0  0  0  0  0  0  0
    4.8952   -4.0053    7.0550 H   0  0  0  0  0  0  0  0  0  0  0  0
    5.6523   -2.4961    7.5453 H   0  0  0  0  0  0  0  0  0  0  0  0
    5.7497   -3.0518    5.8537 H   0  0  0  0  0  0  0  0  0  0  0  0
    4.0254   -0.3273    8.2009 H   0  0  0  0  0  0  0  0  0  0  0  0
    5.5220   -0.0893    7.3213 H   0  0  0  0  0  0  0  0  0  0  0  0
    3.1370    1.7590    7.5584 H   0  0  0  0  0  0  0  0  0  0  0  0
    4.8151    2.1600    7.1992 H   0  0  0  0  0  0  0  0  0  0  0  0
    5.0089    1.2943    3.7059 H   0  0  0  0  0  0  0  0  0  0  0  0
    5.7865    1.3366    5.2378 H   0  0  0  0  0  0  0  0  0  0  0  0
    5.7904   -0.9533    4.9851 H   0  0  0  0  0  0  0  0  0  0  0  0
    5.0801   -1.5267    2.9568 H   0  0  0  0  0  0  0  0  0  0  0  0
    3.7216   -2.1832    3.8103 H   0  0  0  0  0  0  0  0  0  0  0  0
    3.9868    0.3305    2.1523 H   0  0  0  0  0  0  0  0  0  0  0  0
    1.9159   -1.8651    2.0612 H   0  0  0  0  0  0  0  0  0  0  0  0
    2.0630   -0.5193    0.9503 H   0  0  0  0  0  0  0  0  0  0  0  0
    5.3351   -2.9122   -0.5913 H   0  0  0  0  0  0  0  0  0  0  0  0
    4.1994   -4.0714   -1.3037 H   0  0  0  0  0  0  0  0  0  0  0  0
    5.1258   -4.5145    0.1284 H   0  0  0  0  0  0  0  0  0  0  0  0
    1.3756    0.0413    3.3013 H   0  0  0  0  0  0  0  0  0  0  0  0
    2.2349    1.8643    1.7711 H   0  0  0  0  0  0  0  0  0  0  0  0
    1.0752    2.2476    2.9909 H   0  0  0  0  0  0  0  0  0  0  0  0
    1.7308    4.6490    2.9494 H   0  0  0  0  0  0  0  0  0  0  0  0
    2.8770    4.2534    1.7119 H   0  0  0  0  0  0  0  0  0  0  0  0
    3.4307    5.0624    3.1586 H   0  0  0  0  0  0  0  0  0  0  0  0
    3.9186    3.7464    5.1285 H   0  0  0  0  0  0  0  0  0  0  0  0
    1.4570    4.4280    5.1405 H   0  0  0  0  0  0  0  0  0  0  0  0
    2.0524    3.7215    6.6068 H   0  0  0  0  0  0  0  0  0  0  0  0
    3.9460    2.7488    3.0351 H   0  0  0  0  0  0  0  0  0  0  0  0
  1  2  1  0
  1 33  1  0
  1 34  1  0
  1 35  1  0
  2  3  1  0
  3  8  2  0
  3  4  1  0
  4  5  2  0
  4 36  1  0
  5  6  1  0
  5 37  1  0
  6 31  1  0
  6  7  2  0
 32  7  1  1
  7  8  1  0
  8  9  1  0
  9 10  1  0
 10 32  1  0
 10 11  1  0
 10 38  1  1
 11 18  1  0
 11 12  1  1
 11 14  1  0
 12 13  1  0
 13 39  1  0
 13 40  1  0
 13 41  1  0
 14 15  1  0
 14 42  1  0
 14 43  1  0
 16 15  1  1
 15 44  1  0
 15 45  1  0
 16 30  1  0
 16 32  1  0
 16 17  1  0
 17 18  1  0
 17 46  1  0
 17 47  1  0
 18 19  1  0
 18 48  1  1
 19 20  1  0
 19 49  1  0
 19 50  1  0
 20 21  1  0
 20 26  1  0
 20 51  1  6
 21 22  1  0
 21 52  1  0
 21 53  1  0
 22 23  1  0
 23 24  1  0
 23 25  2  0
 24 54  1  0
 24 55  1  0
 24 56  1  0
 26 27  1  0
 26 32  1  0
 26 57  1  1
 27 28  1  0
 27 58  1  0
 27 59  1  0
 28 29  1  0
 28 30  1  0
 28 66  1  6
 29 60  1  0
 29 61  1  0
 29 62  1  0
 30 31  1  0
 30 63  1  6
 31 64  1  0
 31 65  1  0
M  CHG  1  28   1
M  END
>  <i_m_ct_stereo_status>  (234) 
1

>  <s_m_source_file>  (234) 
/var/tmp/pbs.5076255.sched01/tmp_srbpc4z/1203xlsw0nt.sdf

>  <i_m_source_file_index>  (234) 
8

>  <i_lp_mmshare_version>  (234) 
48012

>  <i_f3d_flags>  (234) 
0

>  <s_epik_input>  (234) 
W0NAXTEyM1tDQF00NWM2YzdbY0hdW2NIXWMoT1tDSDNdKWM2T1tDQEhdNFtDQF0oT1tDSDNdKShbQ0gyXVtDSDJdMSlbQ0BIXShbQ0gyXTIpW0NIMl1bQ0BASF0oW0NIMl1PQyg9TylbQ0gzXSlbQ0hdNVtDSDJdTihbQ0gzXSlbQ0BIXTNbQ0gyXTc=

>  <s_epik_cmdline>  (234) 
J2VwaWtfcHl0aG9uJywgJy1waHQnLCAnMi4wJywgJy1waCcsICc3LjAnLCAnLXRuJywgJzgnLCAnLW1hJywgJzIwMCcsICctaW1hZScsICc8aW5maWxlLm1hZT4nLCAnLW9tYWUnLCAnPG91dGZpbGUubWFlPic=

>  <r_lp_tautomer_probability>  (234) 
1

>  <r_epik_Ionization_Penalty>  (234) 
0.00900581

>  <r_epik_Ionization_Penalty_Charging>  (234) 
0.00900581

>  <r_epik_Ionization_Penalty_Neutral>  (234) 
1.868e-12

>  <r_epik_State_Penalty>  (234) 
0.00681689

>  <r_epik_Charging_Adjusted_Penalty>  (234) 
0.0158227

>  <i_epik_Tot_Q>  (234) 
1

>  <i_epik_Tot_abs_Q>  (234) 
1

>  <s_epik_Chemistry_Notes>  (234) 
This compound has an ester and may undergo hydrolysis at high or low pH.

>  <s_lp_Force_Field>  (234) 
OPLS3e

>  <r_lp_Energy>  (234) 
139.774

>  <b_lp_Chiralities_Consistent>  (234) 
1

>  <s_lp_Variant>  (234) 
90:0-1

>  <s_i_glide_gridfile>  (234) 
pfpi4k_grid

>  <i_i_glide_lignum>  (234) 
8

>  <i_i_glide_rotatable_bonds>  (234) 
5

>  <r_i_docking_score>  (234) 
-2.30231

>  <r_i_glide_ligand_efficiency>  (234) 
-0.0719472

>  <r_i_glide_ligand_efficiency_sa>  (234) 
-0.228418

>  <r_i_glide_ligand_efficiency_ln>  (234) 
-0.51555

>  <r_i_glide_gscore>  (234) 
-2.30231

>  <r_i_glide_lipo>  (234) 
-0.122253

>  <r_i_glide_hbond>  (234) 
-0.0828307

>  <r_i_glide_metal>  (234) 
-0

>  <r_i_glide_rewards>  (234) 
-0.405328

>  <r_i_glide_evdw>  (234) 
-19.1155

>  <r_i_glide_ecoul>  (234) 
-6.03305

>  <r_i_glide_erotb>  (234) 
0.20576

>  <r_i_glide_esite>  (234) 
-0.0369282

>  <r_i_glide_emodel>  (234) 
-27.3461

>  <r_i_glide_energy>  (234) 
-25.1485

>  <r_i_glide_einternal>  (234) 
6.69664

>  <r_i_glide_intrahb_reward>  (234) 
-0

>  <i_i_glide_confnum>  (234) 
3

>  <i_i_glide_posenum>  (234) 
26

>  <r_i_glide_eff_state_penalty>  (234) 
0

>  <ligand_id>  (234) 
90

>  <original_smiles>  (234) 
COc1ccc2c3c1OC1C4(OC)CCC56CC4CC(COC(C)=O)C(CN(C)C5C2)C316

>  <smiles>  (234) 
[H]c1c([H])c2c3c(c1OC([H])([H])[H])OC1([H])C4(OC([H])([H])[H])C([H])([H])C([H])([H])C56C([H])([H])C4([H])C([H])([H])C([H])(C([H])([H])OC(=O)C([H])([H])[H])C([H])(C315)C([H])([H])[N+]([H])(C([H])([H])[H])C6([H])C2([H])[H]

$$$$
90:0:1
     RDKit          3D

 66 72  0  0  1  0  0  0  0  0999 V2000
   -2.2741   -1.0518    5.1639 C   0  0  0  0  0  0  0  0  0  0  0  0
   -2.4069    0.0382    6.0792 O   0  0  0  0  0  0  0  0  0  0  0  0
   -1.4959    1.0539    5.9288 C   0  0  0  0  0  0  0  0  0  0  0  0
   -1.9298    2.4120    5.9908 C   0  0  0  0  0  0  0  0  0  0  0  0
   -1.0209    3.5073    5.8829 C   0  0  0  0  0  0  0  0  0  0  0  0
    0.3481    3.2479    5.6669 C   0  0  0  0  0  0  0  0  0  0  0  0
    0.6769    1.9015    5.5697 C   0  0  0  0  0  0  0  0  0  0  0  0
   -0.1223    0.7824    5.7561 C   0  0  0  0  0  0  0  0  0  0  0  0
    0.6160   -0.3973    5.7795 O   0  0  0  0  0  0  0  0  0  0  0  0
    1.9155    0.1351    6.0493 C   0  0  1  0  0  0  0  0  0  0  0  0
    3.3451   -0.4065    6.2551 C   0  0  2  0  0  0  0  0  0  0  0  0
    3.2124   -1.7693    6.6486 O   0  0  0  0  0  0  0  0  0  0  0  0
    4.3929   -2.4856    6.9694 C   0  0  0  0  0  0  0  0  0  0  0  0
    3.9200    0.5358    7.3724 C   0  0  0  0  0  0  0  0  0  0  0  0
    3.5980    2.0456    7.0164 C   0  0  0  0  0  0  0  0  0  0  0  0
    3.2350    2.1758    5.4940 C   0  0  2  0  0  0  0  0  0  0  0  0
    4.4436    1.4381    4.8406 C   0  0  0  0  0  0  0  0  0  0  0  0
    4.2431   -0.1148    5.0029 C   0  0  2  0  0  0  0  0  0  0  0  0
    3.6692   -0.7682    3.7376 C   0  0  0  0  0  0  0  0  0  0  0  0
    2.8271    0.1617    2.8379 C   0  0  1  0  0  0  0  0  0  0  0  0
    2.0945   -0.6588    1.7499 C   0  0  0  0  0  0  0  0  0  0  0  0
    3.0235   -1.3208    0.8941 O   0  0  0  0  0  0  0  0  0  0  0  0
    3.1848   -2.6578    0.9567 C   0  0  0  0  0  0  0  0  0  0  0  0
    4.2008   -3.1857   -0.0469 C   0  0  0  0  0  0  0  0  0  0  0  0
    2.6141   -3.4209    1.7349 O   0  0  0  0  0  0  0  0  0  0  0  0
    1.8546    1.1316    3.5918 C   0  0  2  0  0  0  0  0  0  0  0  0
    1.7598    2.5220    2.9031 C   0  0  0  0  0  0  0  0  0  0  0  0
    2.7419    3.5200    3.4314 N   0  0  1  0  0  0  0  0  0  0  0  0
    2.5804    4.8405    2.7729 C   0  0  0  0  0  0  0  0  0  0  0  0
    2.8667    3.5892    4.9324 C   0  0  1  0  0  0  0  0  0  0  0  0
    1.5702    4.1782    5.5992 C   0  0  0  0  0  0  0  0  0  0  0  0
    1.9829    1.3568    5.1553 C   0  0  2  0  0  0  0  0  0  0  0  0
   -2.9934   -1.8277    5.4085 H   0  0  0  0  0  0  0  0  0  0  0  0
   -1.3054   -1.5464    5.1744 H   0  0  0  0  0  0  0  0  0  0  0  0
   -2.4623   -0.7190    4.1420 H   0  0  0  0  0  0  0  0  0  0  0  0
   -2.9780    2.6214    6.1214 H   0  0  0  0  0  0  0  0  0  0  0  0
   -1.3769    4.5276    5.9630 H   0  0  0  0  0  0  0  0  0  0  0  0
    1.6890    0.4040    7.0896 H   0  0  0  0  0  0  0  0  0  0  0  0
    4.1132   -3.4806    7.3182 H   0  0  0  0  0  0  0  0  0  0  0  0
    4.9570   -2.0056    7.7684 H   0  0  0  0  0  0  0  0  0  0  0  0
    5.0331   -2.6167    6.0977 H   0  0  0  0  0  0  0  0  0  0  0  0
    3.5008    0.2877    8.3498 H   0  0  0  0  0  0  0  0  0  0  0  0
    4.9970    0.3856    7.4676 H   0  0  0  0  0  0  0  0  0  0  0  0
    2.7755    2.4065    7.6370 H   0  0  0  0  0  0  0  0  0  0  0  0
    4.4600    2.6665    7.2664 H   0  0  0  0  0  0  0  0  0  0  0  0
    4.6042    1.7124    3.8070 H   0  0  0  0  0  0  0  0  0  0  0  0
    5.3772    1.7392    5.3200 H   0  0  0  0  0  0  0  0  0  0  0  0
    5.2282   -0.5494    5.1693 H   0  0  0  0  0  0  0  0  0  0  0  0
    4.5072   -1.1245    3.1396 H   0  0  0  0  0  0  0  0  0  0  0  0
    3.1030   -1.6635    3.9985 H   0  0  0  0  0  0  0  0  0  0  0  0
    3.5237    0.7822    2.2751 H   0  0  0  0  0  0  0  0  0  0  0  0
    1.3854   -1.3551    2.2030 H   0  0  0  0  0  0  0  0  0  0  0  0
    1.4992    0.0139    1.1333 H   0  0  0  0  0  0  0  0  0  0  0  0
    4.6554   -2.3708   -0.6099 H   0  0  0  0  0  0  0  0  0  0  0  0
    3.7181   -3.8671   -0.7487 H   0  0  0  0  0  0  0  0  0  0  0  0
    4.9897   -3.7326    0.4707 H   0  0  0  0  0  0  0  0  0  0  0  0
    0.8844    0.6708    3.4159 H   0  0  0  0  0  0  0  0  0  0  0  0
    1.9013    2.4181    1.8272 H   0  0  0  0  0  0  0  0  0  0  0  0
    0.7493    2.9217    3.0116 H   0  0  0  0  0  0  0  0  0  0  0  0
    1.5830    5.2558    2.9270 H   0  0  0  0  0  0  0  0  0  0  0  0
    2.7143    4.7284    1.6981 H   0  0  0  0  0  0  0  0  0  0  0  0
    3.3181    5.5565    3.1366 H   0  0  0  0  0  0  0  0  0  0  0  0
    3.6927    4.2660    5.1474 H   0  0  0  0  0  0  0  0  0  0  0  0
    1.2702    5.1189    5.1361 H   0  0  0  0  0  0  0  0  0  0  0  0
    1.8054    4.4414    6.6295 H   0  0  0  0  0  0  0  0  0  0  0  0
    3.6443    3.1842    3.1108 H   0  0  0  0  0  0  0  0  0  0  0  0
  1  2  1  0
  1 33  1  0
  1 34  1  0
  1 35  1  0
  2  3  1  0
  3  8  2  0
  3  4  1  0
  4  5  2  0
  4 36  1  0
  5  6  1  0
  5 37  1  0
  6 31  1  0
  6  7  2  0
 32  7  1  1
  7  8  1  0
  8  9  1  0
  9 10  1  0
 10 32  1  0
 10 11  1  0
 10 38  1  1
 11 18  1  0
 11 12  1  1
 11 14  1  0
 12 13  1  0
 13 39  1  0
 13 40  1  0
 13 41  1  0
 14 15  1  0
 14 42  1  0
 14 43  1  0
 16 15  1  1
 15 44  1  0
 15 45  1  0
 16 30  1  0
 16 32  1  0
 16 17  1  0
 17 18  1  0
 17 46  1  0
 17 47  1  0
 18 19  1  0
 18 48  1  1
 19 20  1  0
 19 49  1  0
 19 50  1  0
 20 21  1  0
 20 26  1  0
 20 51  1  6
 21 22  1  0
 21 52  1  0
 21 53  1  0
 22 23  1  0
 23 24  1  0
 23 25  2  0
 24 54  1  0
 24 55  1  0
 24 56  1  0
 26 27  1  0
 26 32  1  0
 26 57  1  1
 27 28  1  0
 27 58  1  0
 27 59  1  0
 28 29  1  0
 28 30  1  0
 28 66  1  6
 29 60  1  0
 29 61  1  0
 29 62  1  0
 30 31  1  0
 30 63  1  6
 31 64  1  0
 31 65  1  0
M  CHG  1  28   1
M  END
>  <i_m_ct_stereo_status>  (235) 
1

>  <s_m_source_file>  (235) 
/var/tmp/pbs.5076255.sched01/tmp_srbpc4z/1203xlsw0nt.sdf

>  <i_m_source_file_index>  (235) 
8

>  <i_lp_mmshare_version>  (235) 
48012

>  <i_f3d_flags>  (235) 
0

>  <s_epik_input>  (235) 
W0NAXTEyM1tDQF00NWM2YzdbY0hdW2NIXWMoT1tDSDNdKWM2T1tDQEhdNFtDQF0oT1tDSDNdKShbQ0gyXVtDSDJdMSlbQ0BIXShbQ0gyXTIpW0NIMl1bQ0BASF0oW0NIMl1PQyg9TylbQ0gzXSlbQ0hdNVtDSDJdTihbQ0gzXSlbQ0BIXTNbQ0gyXTc=

>  <s_epik_cmdline>  (235) 
J2VwaWtfcHl0aG9uJywgJy1waHQnLCAnMi4wJywgJy1waCcsICc3LjAnLCAnLXRuJywgJzgnLCAnLW1hJywgJzIwMCcsICctaW1hZScsICc8aW5maWxlLm1hZT4nLCAnLW9tYWUnLCAnPG91dGZpbGUubWFlPic=

>  <r_lp_tautomer_probability>  (235) 
1

>  <r_epik_Ionization_Penalty>  (235) 
0.00900581

>  <r_epik_Ionization_Penalty_Charging>  (235) 
0.00900581

>  <r_epik_Ionization_Penalty_Neutral>  (235) 
1.868e-12

>  <r_epik_State_Penalty>  (235) 
0.00681689

>  <r_epik_Charging_Adjusted_Penalty>  (235) 
0.0158227

>  <i_epik_Tot_Q>  (235) 
1

>  <i_epik_Tot_abs_Q>  (235) 
1

>  <s_epik_Chemistry_Notes>  (235) 
This compound has an ester and may undergo hydrolysis at high or low pH.

>  <s_lp_Force_Field>  (235) 
OPLS3e

>  <r_lp_Energy>  (235) 
139.774

>  <b_lp_Chiralities_Consistent>  (235) 
1

>  <s_lp_Variant>  (235) 
90:0-1

>  <s_i_glide_gridfile>  (235) 
pfpi4k_grid

>  <i_i_glide_lignum>  (235) 
8

>  <i_i_glide_rotatable_bonds>  (235) 
5

>  <r_i_docking_score>  (235) 
-2.258

>  <r_i_glide_ligand_efficiency>  (235) 
-0.0705626

>  <r_i_glide_ligand_efficiency_sa>  (235) 
-0.224022

>  <r_i_glide_ligand_efficiency_ln>  (235) 
-0.505629

>  <r_i_glide_gscore>  (235) 
-2.258

>  <r_i_glide_lipo>  (235) 
-0.0721603

>  <r_i_glide_hbond>  (235) 
-0.16

>  <r_i_glide_metal>  (235) 
-0

>  <r_i_glide_rewards>  (235) 
-0.405328

>  <r_i_glide_evdw>  (235) 
-19.3808

>  <r_i_glide_ecoul>  (235) 
-5.39242

>  <r_i_glide_erotb>  (235) 
0.20576

>  <r_i_glide_esite>  (235) 
-0.0483732

>  <r_i_glide_emodel>  (235) 
-27.5521

>  <r_i_glide_energy>  (235) 
-24.7732

>  <r_i_glide_einternal>  (235) 
5.73136

>  <r_i_glide_intrahb_reward>  (235) 
-0

>  <i_i_glide_confnum>  (235) 
3

>  <i_i_glide_posenum>  (235) 
10

>  <r_i_glide_eff_state_penalty>  (235) 
0

>  <ligand_id>  (235) 
90

>  <original_smiles>  (235) 
COc1ccc2c3c1OC1C4(OC)CCC56CC4CC(COC(C)=O)C(CN(C)C5C2)C316

>  <smiles>  (235) 
[H]c1c([H])c2c3c(c1OC([H])([H])[H])OC1([H])C4(OC([H])([H])[H])C([H])([H])C([H])([H])C56C([H])([H])C4([H])C([H])([H])C([H])(C([H])([H])OC(=O)C([H])([H])[H])C([H])(C315)C([H])([H])[N+]([H])(C([H])([H])[H])C6([H])C2([H])[H]

$$$$
90:0:2
     RDKit          3D

 66 72  0  0  1  0  0  0  0  0999 V2000
    6.6859   -5.6092    1.7201 C   0  0  0  0  0  0  0  0  0  0  0  0
    5.9455   -6.0621    2.8420 O   0  0  0  0  0  0  0  0  0  0  0  0
    4.9693   -7.0125    2.6413 C   0  0  0  0  0  0  0  0  0  0  0  0
    4.6314   -7.5698    1.3661 C   0  0  0  0  0  0  0  0  0  0  0  0
    3.6575   -8.6039    1.2275 C   0  0  0  0  0  0  0  0  0  0  0  0
    2.9212   -9.0249    2.3467 C   0  0  0  0  0  0  0  0  0  0  0  0
    3.2542   -8.3823    3.5305 C   0  0  0  0  0  0  0  0  0  0  0  0
    4.2699   -7.4677    3.7797 C   0  0  0  0  0  0  0  0  0  0  0  0
    4.4211   -7.2166    5.1431 O   0  0  0  0  0  0  0  0  0  0  0  0
    3.7605   -8.3788    5.6768 C   0  0  1  0  0  0  0  0  0  0  0  0
    3.4421   -8.9835    7.0630 C   0  0  2  0  0  0  0  0  0  0  0  0
    4.3800   -8.4277    7.9813 O   0  0  0  0  0  0  0  0  0  0  0  0
    4.3643   -8.9018    9.3178 C   0  0  0  0  0  0  0  0  0  0  0  0
    3.6141  -10.5239    6.8275 C   0  0  0  0  0  0  0  0  0  0  0  0
    2.8591  -10.9526    5.5054 C   0  0  0  0  0  0  0  0  0  0  0  0
    1.8204   -9.8504    5.0980 C   0  0  2  0  0  0  0  0  0  0  0  0
    1.0240   -9.6529    6.4209 C   0  0  0  0  0  0  0  0  0  0  0  0
    1.9189   -8.8195    7.4189 C   0  0  2  0  0  0  0  0  0  0  0  0
    1.5240   -7.3386    7.4507 C   0  0  0  0  0  0  0  0  0  0  0  0
    0.8493   -6.8140    6.1636 C   0  0  1  0  0  0  0  0  0  0  0  0
    0.7118   -5.2701    6.1856 C   0  0  0  0  0  0  0  0  0  0  0  0
    0.3874   -4.7929    7.4882 O   0  0  0  0  0  0  0  0  0  0  0  0
   -0.5901   -3.9012    7.6929 C   0  0  0  0  0  0  0  0  0  0  0  0
   -0.6731   -3.4435    9.1453 C   0  0  0  0  0  0  0  0  0  0  0  0
   -1.3687   -3.4570    6.8500 O   0  0  0  0  0  0  0  0  0  0  0  0
    1.4866   -7.3208    4.8206 C   0  0  2  0  0  0  0  0  0  0  0  0
    0.4189   -7.6027    3.7309 C   0  0  0  0  0  0  0  0  0  0  0  0
   -0.0842   -9.0157    3.7205 N   0  0  1  0  0  0  0  0  0  0  0  0
   -1.0773   -9.2243    2.6410 C   0  0  0  0  0  0  0  0  0  0  0  0
    0.9756  -10.0793    3.8085 C   0  0  1  0  0  0  0  0  0  0  0  0
    1.8753  -10.1393    2.5249 C   0  0  0  0  0  0  0  0  0  0  0  0
    2.5269   -8.5155    4.8073 C   0  0  2  0  0  0  0  0  0  0  0  0
    7.4150   -4.8745    2.0555 H   0  0  0  0  0  0  0  0  0  0  0  0
    6.0491   -5.1221    0.9817 H   0  0  0  0  0  0  0  0  0  0  0  0
    7.2360   -6.4210    1.2444 H   0  0  0  0  0  0  0  0  0  0  0  0
    5.1227   -7.2338    0.4721 H   0  0  0  0  0  0  0  0  0  0  0  0
    3.4690   -9.0683    0.2689 H   0  0  0  0  0  0  0  0  0  0  0  0
    4.5463   -9.0815    5.3700 H   0  0  0  0  0  0  0  0  0  0  0  0
    5.1872   -8.4323    9.8584 H   0  0  0  0  0  0  0  0  0  0  0  0
    4.5102   -9.9805    9.3785 H   0  0  0  0  0  0  0  0  0  0  0  0
    3.4429   -8.6287    9.8314 H   0  0  0  0  0  0  0  0  0  0  0  0
    4.6657  -10.8089    6.7588 H   0  0  0  0  0  0  0  0  0  0  0  0
    3.2219  -11.0629    7.6892 H   0  0  0  0  0  0  0  0  0  0  0  0
    3.5774  -11.1217    4.6995 H   0  0  0  0  0  0  0  0  0  0  0  0
    2.3638  -11.9110    5.6648 H   0  0  0  0  0  0  0  0  0  0  0  0
    0.0318   -9.2302    6.2942 H   0  0  0  0  0  0  0  0  0  0  0  0
    0.7641  -10.6198    6.8375 H   0  0  0  0  0  0  0  0  0  0  0  0
    1.7502   -9.2251    8.4169 H   0  0  0  0  0  0  0  0  0  0  0  0
    0.8093   -7.2135    8.2620 H   0  0  0  0  0  0  0  0  0  0  0  0
    2.3822   -6.7201    7.7166 H   0  0  0  0  0  0  0  0  0  0  0  0
   -0.1803   -7.1694    6.1945 H   0  0  0  0  0  0  0  0  0  0  0  0
    1.6506   -4.7948    5.8994 H   0  0  0  0  0  0  0  0  0  0  0  0
   -0.0298   -4.9742    5.4415 H   0  0  0  0  0  0  0  0  0  0  0  0
    0.1241   -3.8832    9.7455 H   0  0  0  0  0  0  0  0  0  0  0  0
   -1.6324   -3.7273    9.5811 H   0  0  0  0  0  0  0  0  0  0  0  0
   -0.5688   -2.3599    9.1987 H   0  0  0  0  0  0  0  0  0  0  0  0
    2.0250   -6.4452    4.4630 H   0  0  0  0  0  0  0  0  0  0  0  0
   -0.4211   -6.9221    3.8593 H   0  0  0  0  0  0  0  0  0  0  0  0
    0.8363   -7.3577    2.7502 H   0  0  0  0  0  0  0  0  0  0  0  0
   -0.6180   -8.9924    1.6805 H   0  0  0  0  0  0  0  0  0  0  0  0
   -1.9256   -8.5500    2.7612 H   0  0  0  0  0  0  0  0  0  0  0  0
   -1.4425  -10.2505    2.6204 H   0  0  0  0  0  0  0  0  0  0  0  0
    0.4488  -11.0289    3.9006 H   0  0  0  0  0  0  0  0  0  0  0  0
    1.2588  -10.1910    1.6318 H   0  0  0  0  0  0  0  0  0  0  0  0
    2.4313  -11.0750    2.5383 H   0  0  0  0  0  0  0  0  0  0  0  0
   -0.6192   -9.1434    4.5729 H   0  0  0  0  0  0  0  0  0  0  0  0
  1  2  1  0
  1 33  1  0
  1 34  1  0
  1 35  1  0
  2  3  1  0
  3  8  2  0
  3  4  1  0
  4  5  2  0
  4 36  1  0
  5  6  1  0
  5 37  1  0
  6 31  1  0
  6  7  2  0
 32  7  1  6
  7  8  1  0
  8  9  1  0
  9 10  1  0
 10 32  1  0
 10 11  1  0
 10 38  1  6
 11 18  1  0
 11 12  1  1
 11 14  1  0
 12 13  1  0
 13 39  1  0
 13 40  1  0
 13 41  1  0
 14 15  1  0
 14 42  1  0
 14 43  1  0
 16 15  1  1
 15 44  1  0
 15 45  1  0
 16 30  1  0
 16 32  1  0
 16 17  1  0
 17 18  1  0
 17 46  1  0
 17 47  1  0
 18 19  1  0
 18 48  1  1
 19 20  1  0
 19 49  1  0
 19 50  1  0
 20 21  1  0
 20 26  1  0
 20 51  1  1
 21 22  1  0
 21 52  1  0
 21 53  1  0
 22 23  1  0
 23 24  1  0
 23 25  2  0
 24 54  1  0
 24 55  1  0
 24 56  1  0
 26 27  1  0
 26 32  1  0
 26 57  1  6
 27 28  1  0
 27 58  1  0
 27 59  1  0
 28 29  1  0
 28 30  1  0
 28 66  1  1
 29 60  1  0
 29 61  1  0
 29 62  1  0
 30 31  1  0
 30 63  1  1
 31 64  1  0
 31 65  1  0
M  CHG  1  28   1
M  END
>  <i_m_ct_stereo_status>  (236) 
1

>  <s_m_source_file>  (236) 
/var/tmp/pbs.5076255.sched01/tmp_srbpc4z/1203xlsw0nt.sdf

>  <i_m_source_file_index>  (236) 
8

>  <i_lp_mmshare_version>  (236) 
48012

>  <i_f3d_flags>  (236) 
0

>  <s_epik_input>  (236) 
W0NAXTEyM1tDQF00NWM2YzdbY0hdW2NIXWMoT1tDSDNdKWM2T1tDQEhdNFtDQF0oT1tDSDNdKShbQ0gyXVtDSDJdMSlbQ0BIXShbQ0gyXTIpW0NIMl1bQ0BASF0oW0NIMl1PQyg9TylbQ0gzXSlbQ0hdNVtDSDJdTihbQ0gzXSlbQ0BIXTNbQ0gyXTc=

>  <s_epik_cmdline>  (236) 
J2VwaWtfcHl0aG9uJywgJy1waHQnLCAnMi4wJywgJy1waCcsICc3LjAnLCAnLXRuJywgJzgnLCAnLW1hJywgJzIwMCcsICctaW1hZScsICc8aW5maWxlLm1hZT4nLCAnLW9tYWUnLCAnPG91dGZpbGUubWFlPic=

>  <r_lp_tautomer_probability>  (236) 
1

>  <r_epik_Ionization_Penalty>  (236) 
0.00900581

>  <r_epik_Ionization_Penalty_Charging>  (236) 
0.00900581

>  <r_epik_Ionization_Penalty_Neutral>  (236) 
1.868e-12

>  <r_epik_State_Penalty>  (236) 
0.00681689

>  <r_epik_Charging_Adjusted_Penalty>  (236) 
0.0158227

>  <i_epik_Tot_Q>  (236) 
1

>  <i_epik_Tot_abs_Q>  (236) 
1

>  <s_epik_Chemistry_Notes>  (236) 
This compound has an ester and may undergo hydrolysis at high or low pH.

>  <s_lp_Force_Field>  (236) 
OPLS3e

>  <r_lp_Energy>  (236) 
139.774

>  <b_lp_Chiralities_Consistent>  (236) 
1

>  <s_lp_Variant>  (236) 
90:0-1

>  <s_i_glide_gridfile>  (236) 
pfpi4k_grid

>  <i_i_glide_lignum>  (236) 
8

>  <i_i_glide_rotatable_bonds>  (236) 
5

>  <r_i_docking_score>  (236) 
-2.18362

>  <r_i_glide_ligand_efficiency>  (236) 
-0.0682383

>  <r_i_glide_ligand_efficiency_sa>  (236) 
-0.216643

>  <r_i_glide_ligand_efficiency_ln>  (236) 
-0.488973

>  <r_i_glide_gscore>  (236) 
-2.18362

>  <r_i_glide_lipo>  (236) 
-0.339908

>  <r_i_glide_hbond>  (236) 
0

>  <r_i_glide_metal>  (236) 
-0

>  <r_i_glide_rewards>  (236) 
-0.405328

>  <r_i_glide_evdw>  (236) 
-19.0024

>  <r_i_glide_ecoul>  (236) 
-4.05902

>  <r_i_glide_erotb>  (236) 
0.20576

>  <r_i_glide_esite>  (236) 
-0.0851757

>  <r_i_glide_emodel>  (236) 
-27.2348

>  <r_i_glide_energy>  (236) 
-23.0614

>  <r_i_glide_einternal>  (236) 
2.76952

>  <r_i_glide_intrahb_reward>  (236) 
-0

>  <i_i_glide_confnum>  (236) 
3

>  <i_i_glide_posenum>  (236) 
39

>  <r_i_glide_eff_state_penalty>  (236) 
0

>  <ligand_id>  (236) 
90

>  <original_smiles>  (236) 
COc1ccc2c3c1OC1C4(OC)CCC56CC4CC(COC(C)=O)C(CN(C)C5C2)C316

>  <smiles>  (236) 
[H]c1c([H])c2c3c(c1OC([H])([H])[H])OC1([H])C4(OC([H])([H])[H])C([H])([H])C([H])([H])C56C([H])([H])C4([H])C([H])([H])C([H])(C([H])([H])OC(=O)C([H])([H])[H])C([H])(C315)C([H])([H])[N+]([H])(C([H])([H])[H])C6([H])C2([H])[H]

$$$$
90:1:0
     RDKit          3D

 65 71  0  0  1  0  0  0  0  0999 V2000
   -1.8324   -9.0607    2.2638 C   0  0  0  0  0  0  0  0  0  0  0  0
   -0.8958   -8.0098    2.1066 O   0  0  0  0  0  0  0  0  0  0  0  0
    0.4048   -8.2493    2.4869 C   0  0  0  0  0  0  0  0  0  0  0  0
    0.8911   -9.5040    2.9768 C   0  0  0  0  0  0  0  0  0  0  0  0
    2.2661   -9.6981    3.3273 C   0  0  0  0  0  0  0  0  0  0  0  0
    3.1706   -8.6183    3.2744 C   0  0  0  0  0  0  0  0  0  0  0  0
    2.5951   -7.4207    2.8475 C   0  0  0  0  0  0  0  0  0  0  0  0
    1.3123   -7.1510    2.3658 C   0  0  0  0  0  0  0  0  0  0  0  0
    1.1790   -5.9044    1.8147 O   0  0  0  0  0  0  0  0  0  0  0  0
    2.5684   -5.5770    1.5943 C   0  0  1  0  0  0  0  0  0  0  0  0
    3.4176   -4.4116    1.0303 C   0  0  2  0  0  0  0  0  0  0  0  0
    2.6598   -3.4549    0.2816 O   0  0  0  0  0  0  0  0  0  0  0  0
    2.2185   -3.8365   -1.0161 C   0  0  0  0  0  0  0  0  0  0  0  0
    4.5588   -5.1559    0.2362 C   0  0  0  0  0  0  0  0  0  0  0  0
    5.1650   -6.3106    1.1294 C   0  0  0  0  0  0  0  0  0  0  0  0
    4.7962   -6.0710    2.6345 C   0  0  2  0  0  0  0  0  0  0  0  0
    5.2856   -4.6069    2.8120 C   0  0  0  0  0  0  0  0  0  0  0  0
    4.2306   -3.6641    2.1573 C   0  0  2  0  0  0  0  0  0  0  0  0
    3.3914   -2.9691    3.2312 C   0  0  0  0  0  0  0  0  0  0  0  0
    2.5109   -3.8739    4.1349 C   0  0  1  0  0  0  0  0  0  0  0  0
    1.0078   -3.6364    3.8745 C   0  0  0  0  0  0  0  0  0  0  0  0
    0.6683   -2.2575    3.9928 O   0  0  0  0  0  0  0  0  0  0  0  0
   -0.1927   -1.8166    4.9150 C   0  0  0  0  0  0  0  0  0  0  0  0
   -0.4123   -0.3114    4.8441 C   0  0  0  0  0  0  0  0  0  0  0  0
   -0.7878   -2.5022    5.7484 O   0  0  0  0  0  0  0  0  0  0  0  0
    2.9066   -5.3974    4.2027 C   0  0  2  0  0  0  0  0  0  0  0  0
    3.9499   -5.6972    5.3190 C   0  0  0  0  0  0  0  0  0  0  0  0
    4.9769   -6.7220    5.0538 N   0  0  0  0  0  0  0  0  0  0  0  0
    6.1599   -6.5085    5.8878 C   0  0  0  0  0  0  0  0  0  0  0  0
    5.3184   -7.1093    3.6671 C   0  0  1  0  0  0  0  0  0  0  0  0
    4.6810   -8.5265    3.4982 C   0  0  0  0  0  0  0  0  0  0  0  0
    3.2782   -6.1005    2.8321 C   0  0  2  0  0  0  0  0  0  0  0  0
   -2.7969   -8.7217    1.8947 H   0  0  0  0  0  0  0  0  0  0  0  0
   -1.9584   -9.3382    3.3094 H   0  0  0  0  0  0  0  0  0  0  0  0
   -1.5561   -9.9408    1.6861 H   0  0  0  0  0  0  0  0  0  0  0  0
    0.2396  -10.3501    3.0756 H   0  0  0  0  0  0  0  0  0  0  0  0
    2.6117  -10.6698    3.6357 H   0  0  0  0  0  0  0  0  0  0  0  0
    2.6719   -6.2822    0.7589 H   0  0  0  0  0  0  0  0  0  0  0  0
    1.5782   -3.0594   -1.4318 H   0  0  0  0  0  0  0  0  0  0  0  0
    1.6524   -4.7679   -1.0135 H   0  0  0  0  0  0  0  0  0  0  0  0
    3.0644   -3.9191   -1.6989 H   0  0  0  0  0  0  0  0  0  0  0  0
    4.2066   -5.6012   -0.6981 H   0  0  0  0  0  0  0  0  0  0  0  0
    5.3321   -4.4417   -0.0613 H   0  0  0  0  0  0  0  0  0  0  0  0
    4.7870   -7.2767    0.7950 H   0  0  0  0  0  0  0  0  0  0  0  0
    6.2466   -6.3439    0.9892 H   0  0  0  0  0  0  0  0  0  0  0  0
    5.4554   -4.3146    3.8501 H   0  0  0  0  0  0  0  0  0  0  0  0
    6.2615   -4.4623    2.3588 H   0  0  0  0  0  0  0  0  0  0  0  0
    4.7924   -2.8592    1.6654 H   0  0  0  0  0  0  0  0  0  0  0  0
    4.0727   -2.4140    3.8795 H   0  0  0  0  0  0  0  0  0  0  0  0
    2.7974   -2.1958    2.7476 H   0  0  0  0  0  0  0  0  0  0  0  0
    2.6408   -3.4938    5.1514 H   0  0  0  0  0  0  0  0  0  0  0  0
    0.7446   -3.9192    2.8647 H   0  0  0  0  0  0  0  0  0  0  0  0
    0.4110   -4.2643    4.5376 H   0  0  0  0  0  0  0  0  0  0  0  0
    0.0296    0.1117    3.9403 H   0  0  0  0  0  0  0  0  0  0  0  0
    0.0419    0.1693    5.7104 H   0  0  0  0  0  0  0  0  0  0  0  0
   -1.4795   -0.0893    4.8418 H   0  0  0  0  0  0  0  0  0  0  0  0
    1.9977   -5.8759    4.5645 H   0  0  0  0  0  0  0  0  0  0  0  0
    4.4284   -4.7778    5.6484 H   0  0  0  0  0  0  0  0  0  0  0  0
    3.4084   -6.0367    6.2099 H   0  0  0  0  0  0  0  0  0  0  0  0
    6.8399   -7.3623    5.8353 H   0  0  0  0  0  0  0  0  0  0  0  0
    5.8772   -6.3766    6.9340 H   0  0  0  0  0  0  0  0  0  0  0  0
    6.7071   -5.6189    5.5708 H   0  0  0  0  0  0  0  0  0  0  0  0
    6.3976   -7.2062    3.5781 H   0  0  0  0  0  0  0  0  0  0  0  0
    4.9330   -9.1610    4.3552 H   0  0  0  0  0  0  0  0  0  0  0  0
    5.1536   -9.0209    2.6395 H   0  0  0  0  0  0  0  0  0  0  0  0
  1  2  1  0
  1 33  1  0
  1 34  1  0
  1 35  1  0
  2  3  1  0
  3  8  2  0
  3  4  1  0
  4  5  2  0
  4 36  1  0
  5  6  1  0
  5 37  1  0
  6 31  1  0
  6  7  2  0
 32  7  1  1
  7  8  1  0
  8  9  1  0
  9 10  1  0
 10 32  1  0
 10 11  1  0
 10 38  1  6
 11 18  1  0
 11 12  1  6
 11 14  1  0
 12 13  1  0
 13 39  1  0
 13 40  1  0
 13 41  1  0
 14 15  1  0
 14 42  1  0
 14 43  1  0
 16 15  1  6
 15 44  1  0
 15 45  1  0
 16 30  1  0
 16 32  1  0
 16 17  1  0
 17 18  1  0
 17 46  1  0
 17 47  1  0
 18 19  1  0
 18 48  1  6
 19 20  1  0
 19 49  1  0
 19 50  1  0
 20 21  1  0
 20 26  1  0
 20 51  1  1
 21 22  1  0
 21 52  1  0
 21 53  1  0
 22 23  1  0
 23 24  1  0
 23 25  2  0
 24 54  1  0
 24 55  1  0
 24 56  1  0
 26 27  1  0
 26 32  1  0
 26 57  1  1
 27 28  1  0
 27 58  1  0
 27 59  1  0
 28 29  1  0
 28 30  1  0
 29 60  1  0
 29 61  1  0
 29 62  1  0
 30 31  1  0
 30 63  1  1
 31 64  1  0
 31 65  1  0
M  END
>  <i_m_ct_stereo_status>  (237) 
1

>  <s_m_source_file>  (237) 
/var/tmp/pbs.5076255.sched01/tmp_srbpc4z/1203xlsw0nt.sdf

>  <i_m_source_file_index>  (237) 
9

>  <i_lp_mmshare_version>  (237) 
48012

>  <i_f3d_flags>  (237) 
0

>  <s_epik_input>  (237) 
W0NAXTEyM1tDQF00NWM2YzdbY0hdW2NIXWMoT1tDSDNdKWM2T1tDQEhdNFtDQF0oT1tDSDNdKShbQ0gyXVtDSDJdMSlbQ0BIXShbQ0gyXTIpW0NIMl1bQ0BASF0oW0NIMl1PQyg9TylbQ0gzXSlbQ0hdNVtDSDJdTihbQ0gzXSlbQ0BIXTNbQ0gyXTc=

>  <s_epik_cmdline>  (237) 
J2VwaWtfcHl0aG9uJywgJy1waHQnLCAnMi4wJywgJy1waCcsICc3LjAnLCAnLXRuJywgJzgnLCAnLW1hJywgJzIwMCcsICctaW1hZScsICc8aW5maWxlLm1hZT4nLCAnLW9tYWUnLCAnPG91dGZpbGUubWFlPic=

>  <r_lp_tautomer_probability>  (237) 
1

>  <r_epik_Ionization_Penalty>  (237) 
2.48491

>  <r_epik_Ionization_Penalty_Charging>  (237) 
0

>  <r_epik_Ionization_Penalty_Neutral>  (237) 
2.48491

>  <r_epik_State_Penalty>  (237) 
2.64881

>  <r_epik_Charging_Adjusted_Penalty>  (237) 
2.64881

>  <i_epik_Tot_Q>  (237) 
0

>  <i_epik_Tot_abs_Q>  (237) 
0

>  <s_epik_Chemistry_Notes>  (237) 
This compound has an ester and may undergo hydrolysis at high or low pH.

>  <s_lp_Force_Field>  (237) 
OPLS3e

>  <r_lp_Energy>  (237) 
145.429

>  <b_lp_Chiralities_Consistent>  (237) 
1

>  <s_lp_Variant>  (237) 
90:0-2

>  <s_i_glide_gridfile>  (237) 
pfpi4k_grid

>  <i_i_glide_lignum>  (237) 
9

>  <i_i_glide_rotatable_bonds>  (237) 
5

>  <r_i_docking_score>  (237) 
-2.48684

>  <r_i_glide_ligand_efficiency>  (237) 
-0.0777138

>  <r_i_glide_ligand_efficiency_sa>  (237) 
-0.246726

>  <r_i_glide_ligand_efficiency_ln>  (237) 
-0.556872

>  <r_i_glide_gscore>  (237) 
-2.48684

>  <r_i_glide_lipo>  (237) 
-0.455512

>  <r_i_glide_hbond>  (237) 
-0.112073

>  <r_i_glide_metal>  (237) 
-0

>  <r_i_glide_rewards>  (237) 
-0.412201

>  <r_i_glide_evdw>  (237) 
-25.4108

>  <r_i_glide_ecoul>  (237) 
-2.88036

>  <r_i_glide_erotb>  (237) 
0.206617

>  <r_i_glide_esite>  (237) 
-0.0110777

>  <r_i_glide_emodel>  (237) 
-32.0496

>  <r_i_glide_energy>  (237) 
-28.2912

>  <r_i_glide_einternal>  (237) 
1.48704

>  <r_i_glide_intrahb_reward>  (237) 
-0

>  <i_i_glide_confnum>  (237) 
2

>  <i_i_glide_posenum>  (237) 
5

>  <r_i_glide_eff_state_penalty>  (237) 
0

>  <ligand_id>  (237) 
90

>  <original_smiles>  (237) 
COc1ccc2c3c1OC1C4(OC)CCC56CC4CC(COC(C)=O)C(CN(C)C5C2)C316

>  <smiles>  (237) 
[H]c1c([H])c2c3c(c1OC([H])([H])[H])OC1([H])C4(OC([H])([H])[H])C([H])([H])C([H])([H])C56C([H])([H])C4([H])C([H])([H])C([H])(C([H])([H])OC(=O)C([H])([H])[H])C([H])(C([H])([H])N(C([H])([H])[H])C5([H])C2([H])[H])C316

$$$$
90:1:1
     RDKit          3D

 65 71  0  0  1  0  0  0  0  0999 V2000
   -1.9879   -9.1993    2.2416 C   0  0  0  0  0  0  0  0  0  0  0  0
   -1.0149   -8.1829    2.0854 O   0  0  0  0  0  0  0  0  0  0  0  0
    0.2797   -8.4459    2.4814 C   0  0  0  0  0  0  0  0  0  0  0  0
    0.7237   -9.7249    2.9789 C   0  0  0  0  0  0  0  0  0  0  0  0
    2.0822   -9.9493    3.3407 C   0  0  0  0  0  0  0  0  0  0  0  0
    3.0122   -8.8995    3.2776 C   0  0  0  0  0  0  0  0  0  0  0  0
    2.4954   -7.6856    2.8338 C   0  0  0  0  0  0  0  0  0  0  0  0
    1.2110   -7.4205    2.3688 C   0  0  0  0  0  0  0  0  0  0  0  0
    1.1292   -6.1289    1.8122 O   0  0  0  0  0  0  0  0  0  0  0  0
    2.5319   -5.8633    1.5835 C   0  0  1  0  0  0  0  0  0  0  0  0
    3.4278   -4.7168    1.0143 C   0  0  2  0  0  0  0  0  0  0  0  0
    2.6357   -3.8433    0.2063 O   0  0  0  0  0  0  0  0  0  0  0  0
    3.3305   -2.9486   -0.6579 C   0  0  0  0  0  0  0  0  0  0  0  0
    4.5396   -5.5185    0.2310 C   0  0  0  0  0  0  0  0  0  0  0  0
    5.1026   -6.6842    1.1385 C   0  0  0  0  0  0  0  0  0  0  0  0
    4.7382   -6.4235    2.6399 C   0  0  2  0  0  0  0  0  0  0  0  0
    5.2605   -4.9637    2.8243 C   0  0  0  0  0  0  0  0  0  0  0  0
    4.2562   -3.9799    2.1389 C   0  0  2  0  0  0  0  0  0  0  0  0
    3.4188   -3.2595    3.2071 C   0  0  0  0  0  0  0  0  0  0  0  0
    2.4969   -4.1455    4.0814 C   0  0  1  0  0  0  0  0  0  0  0  0
    1.0138   -3.8629    3.7297 C   0  0  0  0  0  0  0  0  0  0  0  0
    0.5224   -2.7240    4.4396 O   0  0  0  0  0  0  0  0  0  0  0  0
   -0.0297   -2.8018    5.6788 C   0  0  0  0  0  0  0  0  0  0  0  0
    0.0082   -4.1763    6.3622 C   0  0  0  0  0  0  0  0  0  0  0  0
   -0.5550   -1.8431    6.2440 O   0  0  0  0  0  0  0  0  0  0  0  0
    2.8491   -5.6761    4.1741 C   0  0  2  0  0  0  0  0  0  0  0  0
    3.8576   -5.9995    5.3199 C   0  0  0  0  0  0  0  0  0  0  0  0
    4.8739   -7.0464    5.0692 N   0  0  0  0  0  0  0  0  0  0  0  0
    6.0490   -6.8651    5.9161 C   0  0  0  0  0  0  0  0  0  0  0  0
    5.2023   -7.4730    3.6953 C   0  0  1  0  0  0  0  0  0  0  0  0
    4.5316   -8.8791    3.5200 C   0  0  0  0  0  0  0  0  0  0  0  0
    3.2123   -6.3994    2.8266 C   0  0  2  0  0  0  0  0  0  0  0  0
   -2.9401   -8.8429    1.8561 H   0  0  0  0  0  0  0  0  0  0  0  0
   -2.1332   -9.4526    3.2914 H   0  0  0  0  0  0  0  0  0  0  0  0
   -1.7337  -10.1014    1.6852 H   0  0  0  0  0  0  0  0  0  0  0  0
    0.0427  -10.5470    3.0780 H   0  0  0  0  0  0  0  0  0  0  0  0
    2.3940  -10.9318    3.6625 H   0  0  0  0  0  0  0  0  0  0  0  0
    2.6033   -6.5636    0.7414 H   0  0  0  0  0  0  0  0  0  0  0  0
    2.6111   -2.3201   -1.1798 H   0  0  0  0  0  0  0  0  0  0  0  0
    3.8951   -3.4884   -1.4186 H   0  0  0  0  0  0  0  0  0  0  0  0
    4.0077   -2.2816   -0.1242 H   0  0  0  0  0  0  0  0  0  0  0  0
    4.1549   -5.9309   -0.7021 H   0  0  0  0  0  0  0  0  0  0  0  0
    5.3504   -4.8471   -0.0627 H   0  0  0  0  0  0  0  0  0  0  0  0
    4.6982   -7.6430    0.8106 H   0  0  0  0  0  0  0  0  0  0  0  0
    6.1840   -6.7513    1.0108 H   0  0  0  0  0  0  0  0  0  0  0  0
    5.4353   -4.6755    3.8589 H   0  0  0  0  0  0  0  0  0  0  0  0
    6.2470   -4.8577    2.3745 H   0  0  0  0  0  0  0  0  0  0  0  0
    4.8692   -3.2032    1.6745 H   0  0  0  0  0  0  0  0  0  0  0  0
    4.1021   -2.7152    3.8619 H   0  0  0  0  0  0  0  0  0  0  0  0
    2.8336   -2.4764    2.7243 H   0  0  0  0  0  0  0  0  0  0  0  0
    2.6295   -3.7761    5.0993 H   0  0  0  0  0  0  0  0  0  0  0  0
    0.9350   -3.6562    2.6631 H   0  0  0  0  0  0  0  0  0  0  0  0
    0.3659   -4.7163    3.9510 H   0  0  0  0  0  0  0  0  0  0  0  0
    0.7027   -4.8706    5.8970 H   0  0  0  0  0  0  0  0  0  0  0  0
   -0.9868   -4.6169    6.3223 H   0  0  0  0  0  0  0  0  0  0  0  0
    0.2805   -4.0607    7.4127 H   0  0  0  0  0  0  0  0  0  0  0  0
    1.9241   -6.1232    4.5391 H   0  0  0  0  0  0  0  0  0  0  0  0
    4.3688   -5.0907    5.6309 H   0  0  0  0  0  0  0  0  0  0  0  0
    3.3020   -6.3124    6.2056 H   0  0  0  0  0  0  0  0  0  0  0  0
    6.7012   -7.7404    5.8762 H   0  0  0  0  0  0  0  0  0  0  0  0
    5.7583   -6.7158    6.9561 H   0  0  0  0  0  0  0  0  0  0  0  0
    6.6241   -5.9960    5.5947 H   0  0  0  0  0  0  0  0  0  0  0  0
    6.2843   -7.5939    3.6098 H   0  0  0  0  0  0  0  0  0  0  0  0
    4.7464   -9.4990    4.3925 H   0  0  0  0  0  0  0  0  0  0  0  0
    4.9993   -9.3862    2.6736 H   0  0  0  0  0  0  0  0  0  0  0  0
  1  2  1  0
  1 33  1  0
  1 34  1  0
  1 35  1  0
  2  3  1  0
  3  8  2  0
  3  4  1  0
  4  5  2  0
  4 36  1  0
  5  6  1  0
  5 37  1  0
  6 31  1  0
  6  7  2  0
 32  7  1  1
  7  8  1  0
  8  9  1  0
  9 10  1  0
 10 32  1  0
 10 11  1  0
 10 38  1  6
 11 18  1  0
 11 12  1  6
 11 14  1  0
 12 13  1  0
 13 39  1  0
 13 40  1  0
 13 41  1  0
 14 15  1  0
 14 42  1  0
 14 43  1  0
 16 15  1  6
 15 44  1  0
 15 45  1  0
 16 30  1  0
 16 32  1  0
 16 17  1  0
 17 18  1  0
 17 46  1  0
 17 47  1  0
 18 19  1  0
 18 48  1  6
 19 20  1  0
 19 49  1  0
 19 50  1  0
 20 21  1  0
 20 26  1  0
 20 51  1  1
 21 22  1  0
 21 52  1  0
 21 53  1  0
 22 23  1  0
 23 24  1  0
 23 25  2  0
 24 54  1  0
 24 55  1  0
 24 56  1  0
 26 27  1  0
 26 32  1  0
 26 57  1  1
 27 28  1  0
 27 58  1  0
 27 59  1  0
 28 29  1  0
 28 30  1  0
 29 60  1  0
 29 61  1  0
 29 62  1  0
 30 31  1  0
 30 63  1  1
 31 64  1  0
 31 65  1  0
M  END
>  <i_m_ct_stereo_status>  (238) 
1

>  <s_m_source_file>  (238) 
/var/tmp/pbs.5076255.sched01/tmp_srbpc4z/1203xlsw0nt.sdf

>  <i_m_source_file_index>  (238) 
9

>  <i_lp_mmshare_version>  (238) 
48012

>  <i_f3d_flags>  (238) 
0

>  <s_epik_input>  (238) 
W0NAXTEyM1tDQF00NWM2YzdbY0hdW2NIXWMoT1tDSDNdKWM2T1tDQEhdNFtDQF0oT1tDSDNdKShbQ0gyXVtDSDJdMSlbQ0BIXShbQ0gyXTIpW0NIMl1bQ0BASF0oW0NIMl1PQyg9TylbQ0gzXSlbQ0hdNVtDSDJdTihbQ0gzXSlbQ0BIXTNbQ0gyXTc=

>  <s_epik_cmdline>  (238) 
J2VwaWtfcHl0aG9uJywgJy1waHQnLCAnMi4wJywgJy1waCcsICc3LjAnLCAnLXRuJywgJzgnLCAnLW1hJywgJzIwMCcsICctaW1hZScsICc8aW5maWxlLm1hZT4nLCAnLW9tYWUnLCAnPG91dGZpbGUubWFlPic=

>  <r_lp_tautomer_probability>  (238) 
1

>  <r_epik_Ionization_Penalty>  (238) 
2.48491

>  <r_epik_Ionization_Penalty_Charging>  (238) 
0

>  <r_epik_Ionization_Penalty_Neutral>  (238) 
2.48491

>  <r_epik_State_Penalty>  (238) 
2.64881

>  <r_epik_Charging_Adjusted_Penalty>  (238) 
2.64881

>  <i_epik_Tot_Q>  (238) 
0

>  <i_epik_Tot_abs_Q>  (238) 
0

>  <s_epik_Chemistry_Notes>  (238) 
This compound has an ester and may undergo hydrolysis at high or low pH.

>  <s_lp_Force_Field>  (238) 
OPLS3e

>  <r_lp_Energy>  (238) 
145.429

>  <b_lp_Chiralities_Consistent>  (238) 
1

>  <s_lp_Variant>  (238) 
90:0-2

>  <s_i_glide_gridfile>  (238) 
pfpi4k_grid

>  <i_i_glide_lignum>  (238) 
9

>  <i_i_glide_rotatable_bonds>  (238) 
5

>  <r_i_docking_score>  (238) 
-2.38066

>  <r_i_glide_ligand_efficiency>  (238) 
-0.0743958

>  <r_i_glide_ligand_efficiency_sa>  (238) 
-0.236192

>  <r_i_glide_ligand_efficiency_ln>  (238) 
-0.533096

>  <r_i_glide_gscore>  (238) 
-2.38066

>  <r_i_glide_lipo>  (238) 
-0.45535

>  <r_i_glide_hbond>  (238) 
-0.0842576

>  <r_i_glide_metal>  (238) 
-0

>  <r_i_glide_rewards>  (238) 
-0.412201

>  <r_i_glide_evdw>  (238) 
-24.7194

>  <r_i_glide_ecoul>  (238) 
-2.57379

>  <r_i_glide_erotb>  (238) 
0.206617

>  <r_i_glide_esite>  (238) 
-0.013433

>  <r_i_glide_emodel>  (238) 
-27.8317

>  <r_i_glide_energy>  (238) 
-27.2932

>  <r_i_glide_einternal>  (238) 
7.25898

>  <r_i_glide_intrahb_reward>  (238) 
-0

>  <i_i_glide_confnum>  (238) 
2

>  <i_i_glide_posenum>  (238) 
12

>  <r_i_glide_eff_state_penalty>  (238) 
0

>  <ligand_id>  (238) 
90

>  <original_smiles>  (238) 
COc1ccc2c3c1OC1C4(OC)CCC56CC4CC(COC(C)=O)C(CN(C)C5C2)C316

>  <smiles>  (238) 
[H]c1c([H])c2c3c(c1OC([H])([H])[H])OC1([H])C4(OC([H])([H])[H])C([H])([H])C([H])([H])C56C([H])([H])C4([H])C([H])([H])C([H])(C([H])([H])OC(=O)C([H])([H])[H])C([H])(C([H])([H])N(C([H])([H])[H])C5([H])C2([H])[H])C316

$$$$
90:1:2
     RDKit          3D

 65 71  0  0  1  0  0  0  0  0999 V2000
   -1.9952   -8.5181    3.4408 C   0  0  0  0  0  0  0  0  0  0  0  0
   -1.0113   -7.5739    3.0519 O   0  0  0  0  0  0  0  0  0  0  0  0
    0.3038   -7.8544    3.3519 C   0  0  0  0  0  0  0  0  0  0  0  0
    0.7442   -9.0254    4.0474 C   0  0  0  0  0  0  0  0  0  0  0  0
    2.1265   -9.2767    4.3006 C   0  0  0  0  0  0  0  0  0  0  0  0
    3.0949   -8.3215    3.9295 C   0  0  0  0  0  0  0  0  0  0  0  0
    2.5793   -7.1879    3.3132 C   0  0  0  0  0  0  0  0  0  0  0  0
    1.2707   -6.9142    2.9303 C   0  0  0  0  0  0  0  0  0  0  0  0
    1.1776   -5.7720    2.1375 O   0  0  0  0  0  0  0  0  0  0  0  0
    2.5541   -5.6405    1.7188 C   0  0  1  0  0  0  0  0  0  0  0  0
    3.4278   -4.6911    0.8387 C   0  0  2  0  0  0  0  0  0  0  0  0
    2.5870   -3.9413   -0.0402 O   0  0  0  0  0  0  0  0  0  0  0  0
    3.2216   -3.2023   -1.0808 C   0  0  0  0  0  0  0  0  0  0  0  0
    4.3914   -5.7056    0.1134 C   0  0  0  0  0  0  0  0  0  0  0  0
    5.0048   -6.7141    1.1642 C   0  0  0  0  0  0  0  0  0  0  0  0
    4.8395   -6.1418    2.6133 C   0  0  2  0  0  0  0  0  0  0  0  0
    5.4542   -4.7204    2.4423 C   0  0  0  0  0  0  0  0  0  0  0  0
    4.4191   -3.8186    1.7006 C   0  0  2  0  0  0  0  0  0  0  0  0
    3.7471   -2.8481    2.6820 C   0  0  0  0  0  0  0  0  0  0  0  0
    2.9076   -3.4715    3.8288 C   0  0  1  0  0  0  0  0  0  0  0  0
    1.4050   -3.1516    3.6533 C   0  0  0  0  0  0  0  0  0  0  0  0
    1.1838   -1.7449    3.7262 O   0  0  0  0  0  0  0  0  0  0  0  0
    0.1767   -1.2349    4.4586 C   0  0  0  0  0  0  0  0  0  0  0  0
    0.1006    0.2852    4.3810 C   0  0  0  0  0  0  0  0  0  0  0  0
   -0.6314   -1.8740    5.1336 O   0  0  0  0  0  0  0  0  0  0  0  0
    3.1955   -4.9808    4.1739 C   0  0  2  0  0  0  0  0  0  0  0  0
    4.3289   -5.1484    5.2334 C   0  0  0  0  0  0  0  0  0  0  0  0
    5.2453   -6.2991    5.0870 N   0  0  0  0  0  0  0  0  0  0  0  0
    6.5255   -6.0400    5.7370 C   0  0  0  0  0  0  0  0  0  0  0  0
    5.3864   -6.9959    3.7927 C   0  0  1  0  0  0  0  0  0  0  0  0
    4.6315   -8.3569    3.9836 C   0  0  0  0  0  0  0  0  0  0  0  0
    3.3513   -5.9758    2.9647 C   0  0  2  0  0  0  0  0  0  0  0  0
   -2.9656   -8.1386    3.1363 H   0  0  0  0  0  0  0  0  0  0  0  0
   -2.0303   -8.6546    4.5214 H   0  0  0  0  0  0  0  0  0  0  0  0
   -1.8445   -9.4835    2.9569 H   0  0  0  0  0  0  0  0  0  0  0  0
    0.0422   -9.7684    4.3865 H   0  0  0  0  0  0  0  0  0  0  0  0
    2.4300  -10.1976    4.7768 H   0  0  0  0  0  0  0  0  0  0  0  0
    2.4939   -6.4981    1.0347 H   0  0  0  0  0  0  0  0  0  0  0  0
    2.4657   -2.6540   -1.6443 H   0  0  0  0  0  0  0  0  0  0  0  0
    3.7330   -3.8569   -1.7862 H   0  0  0  0  0  0  0  0  0  0  0  0
    3.9346   -2.4640   -0.7119 H   0  0  0  0  0  0  0  0  0  0  0  0
    3.8677   -6.2647   -0.6609 H   0  0  0  0  0  0  0  0  0  0  0  0
    5.1881   -5.1671   -0.4051 H   0  0  0  0  0  0  0  0  0  0  0  0
    4.5161   -7.6858    1.0791 H   0  0  0  0  0  0  0  0  0  0  0  0
    6.0549   -6.8810    0.9295 H   0  0  0  0  0  0  0  0  0  0  0  0
    5.7687   -4.2509    3.3687 H   0  0  0  0  0  0  0  0  0  0  0  0
    6.3786   -4.7741    1.8683 H   0  0  0  0  0  0  0  0  0  0  0  0
    5.0130   -3.1948    1.0332 H   0  0  0  0  0  0  0  0  0  0  0  0
    4.5318   -2.2384    3.1302 H   0  0  0  0  0  0  0  0  0  0  0  0
    3.1453   -2.1399    2.1115 H   0  0  0  0  0  0  0  0  0  0  0  0
    3.1752   -2.9152    4.7289 H   0  0  0  0  0  0  0  0  0  0  0  0
    1.0466   -3.4912    2.6841 H   0  0  0  0  0  0  0  0  0  0  0  0
    0.8313   -3.6806    4.4153 H   0  0  0  0  0  0  0  0  0  0  0  0
    0.7456    0.6743    3.5919 H   0  0  0  0  0  0  0  0  0  0  0  0
    0.4087    0.7238    5.3303 H   0  0  0  0  0  0  0  0  0  0  0  0
   -0.9229    0.5986    4.1730 H   0  0  0  0  0  0  0  0  0  0  0  0
    2.3032   -5.2847    4.7205 H   0  0  0  0  0  0  0  0  0  0  0  0
    4.9156   -4.2314    5.3001 H   0  0  0  0  0  0  0  0  0  0  0  0
    3.8713   -5.2432    6.2164 H   0  0  0  0  0  0  0  0  0  0  0  0
    7.1273   -6.9491    5.8007 H   0  0  0  0  0  0  0  0  0  0  0  0
    6.3763   -5.6714    6.7530 H   0  0  0  0  0  0  0  0  0  0  0  0
    7.0981   -5.2917    5.1863 H   0  0  0  0  0  0  0  0  0  0  0  0
    6.4410   -7.2120    3.6147 H   0  0  0  0  0  0  0  0  0  0  0  0
    4.9286   -8.8140    4.9285 H   0  0  0  0  0  0  0  0  0  0  0  0
    4.9601   -9.0477    3.2086 H   0  0  0  0  0  0  0  0  0  0  0  0
  1  2  1  0
  1 33  1  0
  1 34  1  0
  1 35  1  0
  2  3  1  0
  3  8  2  0
  3  4  1  0
  4  5  2  0
  4 36  1  0
  5  6  1  0
  5 37  1  0
  6 31  1  0
  6  7  2  0
 32  7  1  1
  7  8  1  0
  8  9  1  0
  9 10  1  0
 10 32  1  0
 10 11  1  0
 10 38  1  6
 11 18  1  0
 11 12  1  6
 11 14  1  0
 12 13  1  0
 13 39  1  0
 13 40  1  0
 13 41  1  0
 14 15  1  0
 14 42  1  0
 14 43  1  0
 16 15  1  6
 15 44  1  0
 15 45  1  0
 16 30  1  0
 16 32  1  0
 16 17  1  0
 17 18  1  0
 17 46  1  0
 17 47  1  0
 18 19  1  0
 18 48  1  6
 19 20  1  0
 19 49  1  0
 19 50  1  0
 20 21  1  0
 20 26  1  0
 20 51  1  1
 21 22  1  0
 21 52  1  0
 21 53  1  0
 22 23  1  0
 23 24  1  0
 23 25  2  0
 24 54  1  0
 24 55  1  0
 24 56  1  0
 26 27  1  0
 26 32  1  0
 26 57  1  1
 27 28  1  0
 27 58  1  0
 27 59  1  0
 28 29  1  0
 28 30  1  0
 29 60  1  0
 29 61  1  0
 29 62  1  0
 30 31  1  0
 30 63  1  6
 31 64  1  0
 31 65  1  0
M  END
>  <i_m_ct_stereo_status>  (239) 
1

>  <s_m_source_file>  (239) 
/var/tmp/pbs.5076255.sched01/tmp_srbpc4z/1203xlsw0nt.sdf

>  <i_m_source_file_index>  (239) 
9

>  <i_lp_mmshare_version>  (239) 
48012

>  <i_f3d_flags>  (239) 
0

>  <s_epik_input>  (239) 
W0NAXTEyM1tDQF00NWM2YzdbY0hdW2NIXWMoT1tDSDNdKWM2T1tDQEhdNFtDQF0oT1tDSDNdKShbQ0gyXVtDSDJdMSlbQ0BIXShbQ0gyXTIpW0NIMl1bQ0BASF0oW0NIMl1PQyg9TylbQ0gzXSlbQ0hdNVtDSDJdTihbQ0gzXSlbQ0BIXTNbQ0gyXTc=

>  <s_epik_cmdline>  (239) 
J2VwaWtfcHl0aG9uJywgJy1waHQnLCAnMi4wJywgJy1waCcsICc3LjAnLCAnLXRuJywgJzgnLCAnLW1hJywgJzIwMCcsICctaW1hZScsICc8aW5maWxlLm1hZT4nLCAnLW9tYWUnLCAnPG91dGZpbGUubWFlPic=

>  <r_lp_tautomer_probability>  (239) 
1

>  <r_epik_Ionization_Penalty>  (239) 
2.48491

>  <r_epik_Ionization_Penalty_Charging>  (239) 
0

>  <r_epik_Ionization_Penalty_Neutral>  (239) 
2.48491

>  <r_epik_State_Penalty>  (239) 
2.64881

>  <r_epik_Charging_Adjusted_Penalty>  (239) 
2.64881

>  <i_epik_Tot_Q>  (239) 
0

>  <i_epik_Tot_abs_Q>  (239) 
0

>  <s_epik_Chemistry_Notes>  (239) 
This compound has an ester and may undergo hydrolysis at high or low pH.

>  <s_lp_Force_Field>  (239) 
OPLS3e

>  <r_lp_Energy>  (239) 
145.429

>  <b_lp_Chiralities_Consistent>  (239) 
1

>  <s_lp_Variant>  (239) 
90:0-2

>  <s_i_glide_gridfile>  (239) 
pfpi4k_grid

>  <i_i_glide_lignum>  (239) 
9

>  <i_i_glide_rotatable_bonds>  (239) 
5

>  <r_i_docking_score>  (239) 
-2.05141

>  <r_i_glide_ligand_efficiency>  (239) 
-0.0641065

>  <r_i_glide_ligand_efficiency_sa>  (239) 
-0.203525

>  <r_i_glide_ligand_efficiency_ln>  (239) 
-0.459366

>  <r_i_glide_gscore>  (239) 
-2.05141

>  <r_i_glide_lipo>  (239) 
-0.234384

>  <r_i_glide_hbond>  (239) 
-0.0619441

>  <r_i_glide_metal>  (239) 
-0

>  <r_i_glide_rewards>  (239) 
-0.412201

>  <r_i_glide_evdw>  (239) 
-22.2067

>  <r_i_glide_ecoul>  (239) 
-2.85506

>  <r_i_glide_erotb>  (239) 
0.206617

>  <r_i_glide_esite>  (239) 
-0.010903

>  <r_i_glide_emodel>  (239) 
-28.1538

>  <r_i_glide_energy>  (239) 
-25.0617

>  <r_i_glide_einternal>  (239) 
1.43268

>  <r_i_glide_intrahb_reward>  (239) 
-0

>  <i_i_glide_confnum>  (239) 
2

>  <i_i_glide_posenum>  (239) 
16

>  <r_i_glide_eff_state_penalty>  (239) 
0

>  <ligand_id>  (239) 
90

>  <original_smiles>  (239) 
COc1ccc2c3c1OC1C4(OC)CCC56CC4CC(COC(C)=O)C(CN(C)C5C2)C316

>  <smiles>  (239) 
[H]c1c([H])c2c3c(c1OC([H])([H])[H])OC1([H])C4(OC([H])([H])[H])C([H])([H])C([H])([H])C56C([H])([H])C4([H])C([H])([H])C([H])(C([H])([H])OC(=O)C([H])([H])[H])C([H])(C([H])([H])N(C([H])([H])[H])C5([H])C2([H])[H])C316

$$$$
91:0:0
     RDKit          3D

 26 31  0  0  1  0  0  0  0  0999 V2000
    4.1435   -1.4844   -3.5751 C   0  0  0  0  0  0  0  0  0  0  0  0
    4.4624   -2.9428   -3.2412 C   0  0  1  0  0  0  0  0  0  0  0  0
    5.8717   -3.1909   -2.7200 C   0  0  0  0  0  0  0  0  0  0  0  0
    6.1745   -2.6611   -1.3083 C   0  0  1  0  0  0  0  0  0  0  0  0
    5.3286   -1.5746   -0.5674 C   0  0  1  0  0  0  0  0  0  0  0  0
    3.8352   -1.4250   -0.9290 C   0  0  1  0  0  0  0  0  0  0  0  0
    3.2613   -1.4431   -2.3442 C   0  0  2  0  0  0  0  0  0  0  0  0
    3.2347   -2.9586   -2.2870 C   0  0  2  0  0  0  0  0  0  0  0  0
    3.2564   -2.8413   -0.7371 C   0  0  1  0  0  0  0  0  0  0  0  0
    4.2445   -3.6099    0.1383 C   0  0  1  0  0  0  0  0  0  0  0  0
    5.7159   -3.6612   -0.2730 C   0  0  1  0  0  0  0  0  0  0  0  0
    5.2259   -2.5551    0.5543 C   0  0  1  0  0  0  0  0  0  0  0  0
    3.5755   -1.3710   -4.4924 H   0  0  0  0  0  0  0  0  0  0  0  0
    4.9928   -0.7946   -3.5170 H   0  0  0  0  0  0  0  0  0  0  0  0
    4.2427   -3.5692   -4.1059 H   0  0  0  0  0  0  0  0  0  0  0  0
    6.0662   -4.2560   -2.7443 H   0  0  0  0  0  0  0  0  0  0  0  0
    6.5944   -2.7654   -3.4239 H   0  0  0  0  0  0  0  0  0  0  0  0
    7.2412   -2.4620   -1.1835 H   0  0  0  0  0  0  0  0  0  0  0  0
    5.8629   -0.6602   -0.3461 H   0  0  0  0  0  0  0  0  0  0  0  0
    3.3244   -0.7066   -0.2802 H   0  0  0  0  0  0  0  0  0  0  0  0
    2.2700   -1.0171   -2.4561 H   0  0  0  0  0  0  0  0  0  0  0  0
    2.3256   -3.3771   -2.7168 H   0  0  0  0  0  0  0  0  0  0  0  0
    2.2437   -2.8044   -0.3422 H   0  0  0  0  0  0  0  0  0  0  0  0
    3.8627   -4.2856    0.9118 H   0  0  0  0  0  0  0  0  0  0  0  0
    6.4365   -4.3627    0.1582 H   0  0  0  0  0  0  0  0  0  0  0  0
    5.5954   -2.3913    1.5668 H   0  0  0  0  0  0  0  0  0  0  0  0
  1  7  1  0
  1  2  1  0
  1 13  1  0
  1 14  1  0
  2  8  1  0
  2  3  1  0
  2 15  1  6
  3  4  1  0
  3 16  1  0
  3 17  1  0
  4 11  1  0
  4  5  1  0
  4 18  1  6
  5 12  1  0
  5  6  1  0
  5 19  1  1
  6  9  1  0
  6  7  1  0
  6 20  1  1
  7  8  1  0
  7 21  1  6
  8  9  1  0
  8 22  1  1
  9 10  1  0
  9 23  1  1
 10 12  1  0
 10 11  1  0
 10 24  1  1
 11 12  1  0
 11 25  1  1
 12 26  1  1
M  END
>  <i_m_ct_stereo_status>  (240) 
1

>  <s_m_source_file>  (240) 
/var/tmp/pbs.5076255.sched01/tmp_srbpc4z/1203xlsw0nt.sdf

>  <i_m_source_file_index>  (240) 
10

>  <i_lp_mmshare_version>  (240) 
48012

>  <i_f3d_flags>  (240) 
0

>  <s_epik_input>  (240) 
W0NASF0xMltDQEBIXTNbQ0BIXShbQ0gyXTEpW0NAQEhdNFtDQEBIXTVbQ0BIXShbQ0gyXTIpW0NAQEhdNltDQEhdKFtDQEhdMzQpW0NASF01Ng==

>  <s_epik_cmdline>  (240) 
J2VwaWtfcHl0aG9uJywgJy1waHQnLCAnMi4wJywgJy1waCcsICc3LjAnLCAnLXRuJywgJzgnLCAnLW1hJywgJzIwMCcsICctaW1hZScsICc8aW5maWxlLm1hZT4nLCAnLW9tYWUnLCAnPG91dGZpbGUubWFlPic=

>  <r_lp_tautomer_probability>  (240) 
1

>  <r_epik_Ionization_Penalty>  (240) 
0

>  <r_epik_Ionization_Penalty_Charging>  (240) 
0

>  <r_epik_Ionization_Penalty_Neutral>  (240) 
0

>  <r_epik_State_Penalty>  (240) 
-0

>  <r_epik_Charging_Adjusted_Penalty>  (240) 
0

>  <i_epik_Tot_Q>  (240) 
0

>  <i_epik_Tot_abs_Q>  (240) 
0

>  <s_lp_Force_Field>  (240) 
OPLS3e

>  <r_lp_Energy>  (240) 
65.9867

>  <b_lp_Chiralities_Consistent>  (240) 
1

>  <s_lp_Variant>  (240) 
91:0-1

>  <s_i_glide_gridfile>  (240) 
pfpi4k_grid

>  <i_i_glide_lignum>  (240) 
10

>  <i_i_glide_rotatable_bonds>  (240) 
0

>  <r_i_docking_score>  (240) 
-3.8307

>  <r_i_glide_ligand_efficiency>  (240) 
-0.319225

>  <r_i_glide_ligand_efficiency_sa>  (240) 
-0.730843

>  <r_i_glide_ligand_efficiency_ln>  (240) 
-1.09923

>  <r_i_glide_gscore>  (240) 
-3.8307

>  <r_i_glide_lipo>  (240) 
-0.701889

>  <r_i_glide_hbond>  (240) 
0

>  <r_i_glide_metal>  (240) 
-0

>  <r_i_glide_rewards>  (240) 
-2.25

>  <r_i_glide_evdw>  (240) 
-17.2658

>  <r_i_glide_ecoul>  (240) 
-0.103498

>  <r_i_glide_erotb>  (240) 
0

>  <r_i_glide_esite>  (240) 
0

>  <r_i_glide_emodel>  (240) 
-21.5672

>  <r_i_glide_energy>  (240) 
-17.3693

>  <r_i_glide_einternal>  (240) 
0

>  <r_i_glide_intrahb_reward>  (240) 
-0

>  <i_i_glide_confnum>  (240) 
1

>  <i_i_glide_posenum>  (240) 
39

>  <r_i_glide_eff_state_penalty>  (240) 
0

>  <ligand_id>  (240) 
91

>  <original_smiles>  (240) 
C1C2CC3C4C5C1C2C5C1C3C41

>  <smiles>  (240) 
[H]C1([H])C2([H])C([H])([H])C3([H])C4([H])C5([H])C1([H])C2([H])C5([H])C1([H])C3([H])C41[H]

$$$$
91:0:1
     RDKit          3D

 26 31  0  0  1  0  0  0  0  0999 V2000
    5.0709   -4.1847   -0.4382 C   0  0  0  0  0  0  0  0  0  0  0  0
    5.8754   -3.4687   -1.5290 C   0  0  1  0  0  0  0  0  0  0  0  0
    5.3368   -3.6556   -2.9481 C   0  0  0  0  0  0  0  0  0  0  0  0
    4.0183   -2.9472   -3.2747 C   0  0  1  0  0  0  0  0  0  0  0  0
    3.0230   -2.4223   -2.1873 C   0  0  1  0  0  0  0  0  0  0  0  0
    3.5579   -2.0375   -0.7784 C   0  0  1  0  0  0  0  0  0  0  0  0
    4.5774   -2.8291    0.0268 C   0  0  2  0  0  0  0  0  0  0  0  0
    5.6900   -2.1456   -0.7481 C   0  0  2  0  0  0  0  0  0  0  0  0
    4.6750   -1.0297   -1.0794 C   0  0  1  0  0  0  0  0  0  0  0  0
    4.4539   -0.5228   -2.5132 C   0  0  1  0  0  0  0  0  0  0  0  0
    4.2907   -1.5139   -3.6634 C   0  0  1  0  0  0  0  0  0  0  0  0
    3.1330   -1.0998   -2.8767 C   0  0  1  0  0  0  0  0  0  0  0  0
    5.7112   -4.6546    0.2972 H   0  0  0  0  0  0  0  0  0  0  0  0
    4.2790   -4.8517   -0.7958 H   0  0  0  0  0  0  0  0  0  0  0  0
    6.9265   -3.7638   -1.4536 H   0  0  0  0  0  0  0  0  0  0  0  0
    6.1069   -3.3694   -3.6638 H   0  0  0  0  0  0  0  0  0  0  0  0
    5.1892   -4.7170   -3.1336 H   0  0  0  0  0  0  0  0  0  0  0  0
    3.4609   -3.4608   -4.0642 H   0  0  0  0  0  0  0  0  0  0  0  0
    2.0381   -2.8736   -2.2285 H   0  0  0  0  0  0  0  0  0  0  0  0
    2.7900   -1.5778   -0.1442 H   0  0  0  0  0  0  0  0  0  0  0  0
    4.6348   -2.5874    1.0860 H   0  0  0  0  0  0  0  0  0  0  0  0
    6.5164   -1.8677   -0.0972 H   0  0  0  0  0  0  0  0  0  0  0  0
    4.7132   -0.2438   -0.3289 H   0  0  0  0  0  0  0  0  0  0  0  0
    4.6127    0.5420   -2.7245 H   0  0  0  0  0  0  0  0  0  0  0  0
    4.3147   -1.2403   -4.7230 H   0  0  0  0  0  0  0  0  0  0  0  0
    2.3191   -0.5362   -3.3250 H   0  0  0  0  0  0  0  0  0  0  0  0
  1  7  1  0
  1  2  1  0
  1 13  1  0
  1 14  1  0
  2  8  1  0
  2  3  1  0
  2 15  1  6
  3  4  1  0
  3 16  1  0
  3 17  1  0
  4 11  1  0
  4  5  1  0
  4 18  1  6
  5 12  1  0
  5  6  1  0
  5 19  1  1
  6  9  1  0
  6  7  1  0
  6 20  1  1
  7  8  1  0
  7 21  1  1
  8  9  1  0
  8 22  1  1
  9 10  1  0
  9 23  1  1
 10 12  1  0
 10 11  1  0
 10 24  1  6
 11 12  1  0
 11 25  1  6
 12 26  1  6
M  END
>  <i_m_ct_stereo_status>  (241) 
1

>  <s_m_source_file>  (241) 
/var/tmp/pbs.5076255.sched01/tmp_srbpc4z/1203xlsw0nt.sdf

>  <i_m_source_file_index>  (241) 
10

>  <i_lp_mmshare_version>  (241) 
48012

>  <i_f3d_flags>  (241) 
0

>  <s_epik_input>  (241) 
W0NASF0xMltDQEBIXTNbQ0BIXShbQ0gyXTEpW0NAQEhdNFtDQEBIXTVbQ0BIXShbQ0gyXTIpW0NAQEhdNltDQEhdKFtDQEhdMzQpW0NASF01Ng==

>  <s_epik_cmdline>  (241) 
J2VwaWtfcHl0aG9uJywgJy1waHQnLCAnMi4wJywgJy1waCcsICc3LjAnLCAnLXRuJywgJzgnLCAnLW1hJywgJzIwMCcsICctaW1hZScsICc8aW5maWxlLm1hZT4nLCAnLW9tYWUnLCAnPG91dGZpbGUubWFlPic=

>  <r_lp_tautomer_probability>  (241) 
1

>  <r_epik_Ionization_Penalty>  (241) 
0

>  <r_epik_Ionization_Penalty_Charging>  (241) 
0

>  <r_epik_Ionization_Penalty_Neutral>  (241) 
0

>  <r_epik_State_Penalty>  (241) 
-0

>  <r_epik_Charging_Adjusted_Penalty>  (241) 
0

>  <i_epik_Tot_Q>  (241) 
0

>  <i_epik_Tot_abs_Q>  (241) 
0

>  <s_lp_Force_Field>  (241) 
OPLS3e

>  <r_lp_Energy>  (241) 
65.9867

>  <b_lp_Chiralities_Consistent>  (241) 
1

>  <s_lp_Variant>  (241) 
91:0-1

>  <s_i_glide_gridfile>  (241) 
pfpi4k_grid

>  <i_i_glide_lignum>  (241) 
10

>  <i_i_glide_rotatable_bonds>  (241) 
0

>  <r_i_docking_score>  (241) 
-3.79209

>  <r_i_glide_ligand_efficiency>  (241) 
-0.316008

>  <r_i_glide_ligand_efficiency_sa>  (241) 
-0.723477

>  <r_i_glide_ligand_efficiency_ln>  (241) 
-1.08815

>  <r_i_glide_gscore>  (241) 
-3.79209

>  <r_i_glide_lipo>  (241) 
-0.653843

>  <r_i_glide_hbond>  (241) 
0

>  <r_i_glide_metal>  (241) 
-0

>  <r_i_glide_rewards>  (241) 
-2.25

>  <r_i_glide_evdw>  (241) 
-16.7771

>  <r_i_glide_ecoul>  (241) 
-0.329289

>  <r_i_glide_erotb>  (241) 
0

>  <r_i_glide_esite>  (241) 
0

>  <r_i_glide_emodel>  (241) 
-21.2568

>  <r_i_glide_energy>  (241) 
-17.1064

>  <r_i_glide_einternal>  (241) 
0

>  <r_i_glide_intrahb_reward>  (241) 
-0

>  <i_i_glide_confnum>  (241) 
1

>  <i_i_glide_posenum>  (241) 
2

>  <r_i_glide_eff_state_penalty>  (241) 
0

>  <ligand_id>  (241) 
91

>  <original_smiles>  (241) 
C1C2CC3C4C5C1C2C5C1C3C41

>  <smiles>  (241) 
[H]C1([H])C2([H])C([H])([H])C3([H])C4([H])C5([H])C1([H])C2([H])C5([H])C1([H])C3([H])C41[H]

$$$$
91:0:2
     RDKit          3D

 26 31  0  0  1  0  0  0  0  0999 V2000
    3.8143   -1.6212   -4.0563 C   0  0  0  0  0  0  0  0  0  0  0  0
    3.6494   -3.0664   -3.5793 C   0  0  1  0  0  0  0  0  0  0  0  0
    4.9366   -3.8537   -3.4102 C   0  0  0  0  0  0  0  0  0  0  0  0
    5.8205   -3.4307   -2.2318 C   0  0  1  0  0  0  0  0  0  0  0  0
    5.7293   -2.0683   -1.4861 C   0  0  1  0  0  0  0  0  0  0  0  0
    4.3832   -1.3128   -1.4694 C   0  0  1  0  0  0  0  0  0  0  0  0
    3.4367   -1.1568   -2.6609 C   0  0  2  0  0  0  0  0  0  0  0  0
    2.8690   -2.5393   -2.3498 C   0  0  2  0  0  0  0  0  0  0  0  0
    3.4031   -2.3569   -0.8929 C   0  0  1  0  0  0  0  0  0  0  0  0
    4.2274   -3.4234   -0.1884 C   0  0  1  0  0  0  0  0  0  0  0  0
    5.3590   -4.1054   -0.9567 C   0  0  1  0  0  0  0  0  0  0  0  0
    5.6045   -2.8545   -0.2269 C   0  0  1  0  0  0  0  0  0  0  0  0
    3.0798   -1.3269   -4.7924 H   0  0  0  0  0  0  0  0  0  0  0  0
    4.8365   -1.3429   -4.3410 H   0  0  0  0  0  0  0  0  0  0  0  0
    2.9475   -3.5802   -4.2443 H   0  0  0  0  0  0  0  0  0  0  0  0
    4.6975   -4.9081   -3.3184 H   0  0  0  0  0  0  0  0  0  0  0  0
    5.5167   -3.8228   -4.3319 H   0  0  0  0  0  0  0  0  0  0  0  0
    6.8668   -3.6591   -2.4255 H   0  0  0  0  0  0  0  0  0  0  0  0
    6.6255   -1.4658   -1.5892 H   0  0  0  0  0  0  0  0  0  0  0  0
    4.4061   -0.4188   -0.8394 H   0  0  0  0  0  0  0  0  0  0  0  0
    2.6662   -0.3806   -2.5880 H   0  0  0  0  0  0  0  0  0  0  0  0
    1.7776   -2.5776   -2.4480 H   0  0  0  0  0  0  0  0  0  0  0  0
    2.6402   -1.8924   -0.2667 H   0  0  0  0  0  0  0  0  0  0  0  0
    3.8671   -3.8386    0.7553 H   0  0  0  0  0  0  0  0  0  0  0  0
    5.8481   -5.0190   -0.6062 H   0  0  0  0  0  0  0  0  0  0  0  0
    6.2968   -2.8001    0.6116 H   0  0  0  0  0  0  0  0  0  0  0  0
  1  7  1  0
  1  2  1  0
  1 13  1  0
  1 14  1  0
  2  8  1  0
  2  3  1  0
  2 15  1  6
  3  4  1  0
  3 16  1  0
  3 17  1  0
  4 11  1  0
  4  5  1  0
  4 18  1  6
  5 12  1  0
  5  6  1  0
  5 19  1  1
  6  9  1  0
  6  7  1  0
  6 20  1  1
  7  8  1  0
  7 21  1  6
  8  9  1  0
  8 22  1  1
  9 10  1  0
  9 23  1  1
 10 12  1  0
 10 11  1  0
 10 24  1  1
 11 12  1  0
 11 25  1  1
 12 26  1  1
M  END
>  <i_m_ct_stereo_status>  (242) 
1

>  <s_m_source_file>  (242) 
/var/tmp/pbs.5076255.sched01/tmp_srbpc4z/1203xlsw0nt.sdf

>  <i_m_source_file_index>  (242) 
10

>  <i_lp_mmshare_version>  (242) 
48012

>  <i_f3d_flags>  (242) 
0

>  <s_epik_input>  (242) 
W0NASF0xMltDQEBIXTNbQ0BIXShbQ0gyXTEpW0NAQEhdNFtDQEBIXTVbQ0BIXShbQ0gyXTIpW0NAQEhdNltDQEhdKFtDQEhdMzQpW0NASF01Ng==

>  <s_epik_cmdline>  (242) 
J2VwaWtfcHl0aG9uJywgJy1waHQnLCAnMi4wJywgJy1waCcsICc3LjAnLCAnLXRuJywgJzgnLCAnLW1hJywgJzIwMCcsICctaW1hZScsICc8aW5maWxlLm1hZT4nLCAnLW9tYWUnLCAnPG91dGZpbGUubWFlPic=

>  <r_lp_tautomer_probability>  (242) 
1

>  <r_epik_Ionization_Penalty>  (242) 
0

>  <r_epik_Ionization_Penalty_Charging>  (242) 
0

>  <r_epik_Ionization_Penalty_Neutral>  (242) 
0

>  <r_epik_State_Penalty>  (242) 
-0

>  <r_epik_Charging_Adjusted_Penalty>  (242) 
0

>  <i_epik_Tot_Q>  (242) 
0

>  <i_epik_Tot_abs_Q>  (242) 
0

>  <s_lp_Force_Field>  (242) 
OPLS3e

>  <r_lp_Energy>  (242) 
65.9867

>  <b_lp_Chiralities_Consistent>  (242) 
1

>  <s_lp_Variant>  (242) 
91:0-1

>  <s_i_glide_gridfile>  (242) 
pfpi4k_grid

>  <i_i_glide_lignum>  (242) 
10

>  <i_i_glide_rotatable_bonds>  (242) 
0

>  <r_i_docking_score>  (242) 
-3.7684

>  <r_i_glide_ligand_efficiency>  (242) 
-0.314033

>  <r_i_glide_ligand_efficiency_sa>  (242) 
-0.718956

>  <r_i_glide_ligand_efficiency_ln>  (242) 
-1.08135

>  <r_i_glide_gscore>  (242) 
-3.7684

>  <r_i_glide_lipo>  (242) 
-0.575917

>  <r_i_glide_hbond>  (242) 
0

>  <r_i_glide_metal>  (242) 
-0

>  <r_i_glide_rewards>  (242) 
-2.25

>  <r_i_glide_evdw>  (242) 
-19.171

>  <r_i_glide_ecoul>  (242) 
0.107136

>  <r_i_glide_erotb>  (242) 
0

>  <r_i_glide_esite>  (242) 
0

>  <r_i_glide_emodel>  (242) 
-23.1676

>  <r_i_glide_energy>  (242) 
-19.0639

>  <r_i_glide_einternal>  (242) 
0

>  <r_i_glide_intrahb_reward>  (242) 
-0

>  <i_i_glide_confnum>  (242) 
2

>  <i_i_glide_posenum>  (242) 
30

>  <r_i_glide_eff_state_penalty>  (242) 
0

>  <ligand_id>  (242) 
91

>  <original_smiles>  (242) 
C1C2CC3C4C5C1C2C5C1C3C41

>  <smiles>  (242) 
[H]C1([H])C2([H])C([H])([H])C3([H])C4([H])C5([H])C1([H])C2([H])C5([H])C1([H])C3([H])C41[H]

$$$$
92:0:0
     RDKit          3D

 77 82  0  0  1  0  0  0  0  0999 V2000
   -0.1395   -8.7461    8.4746 C   0  0  0  0  0  0  0  0  0  0  0  0
    0.2317   -7.2582    8.4175 C   0  0  2  0  0  0  0  0  0  0  0  0
    1.0354   -6.9333    7.1453 C   0  0  0  0  0  0  0  0  0  0  0  0
    1.3385   -5.4089    7.0248 C   0  0  1  0  0  0  0  0  0  0  0  0
    2.1127   -4.9203    8.2906 C   0  0  1  0  0  0  0  0  0  0  0  0
    3.5362   -5.5147    8.4594 C   0  0  0  0  0  0  0  0  0  0  0  0
    2.1904   -3.3908    8.1991 C   0  0  0  0  0  0  0  0  0  0  0  0
    2.9682   -2.9308    6.9624 C   0  0  0  0  0  0  0  0  0  0  0  0
    2.3893   -3.4130    5.5991 C   0  0  2  0  0  0  0  0  0  0  0  0
    1.8550   -4.9144    5.6066 C   0  0  2  0  0  0  0  0  0  0  0  0
    0.6011   -5.0027    4.6804 C   0  0  0  0  0  0  0  0  0  0  0  0
    2.9373   -5.8703    5.0566 C   0  0  0  0  0  0  0  0  0  0  0  0
    3.5403   -5.4391    3.7105 C   0  0  0  0  0  0  0  0  0  0  0  0
    4.2310   -4.0571    3.7445 C   0  0  1  0  0  0  0  0  0  0  0  0
    5.5008   -4.2050    4.6181 C   0  0  0  0  0  0  0  0  0  0  0  0
    4.6387   -3.6873    2.2902 C   0  0  0  0  0  0  0  0  0  0  0  0
    4.0235   -2.7060    1.5763 C   0  0  0  0  0  0  0  0  0  0  0  0
    2.9328   -2.0134    2.0471 O   0  0  0  0  0  0  0  0  0  0  0  0
    2.2919   -2.5234    3.2018 C   0  0  0  0  0  0  0  0  0  0  0  0
    3.2597   -2.9537    4.3322 C   0  0  1  0  0  0  0  0  0  0  0  0
    4.0663   -1.6548    4.6609 C   0  0  0  0  0  0  0  0  0  0  0  0
    4.4986   -2.3434    0.2548 C   0  0  0  0  0  0  0  0  0  0  0  0
    3.8166   -1.6186   -0.6403 C   0  0  0  0  0  0  0  0  0  0  0  0
    4.4918   -1.5250   -1.9852 C   0  0  0  0  0  0  0  0  0  0  0  0
    5.5826   -2.5692   -1.7751 C   0  0  0  0  0  0  0  0  0  0  0  0
    6.2078   -3.1122   -2.6845 O   0  0  0  0  0  0  0  0  0  0  0  0
    5.8226   -2.8187   -0.2838 C   0  0  1  0  0  0  0  0  0  0  0  0
    6.9638   -1.9183    0.2204 C   0  0  0  0  0  0  0  0  0  0  0  0
    5.9800   -4.2889    0.1280 C   0  0  0  0  0  0  0  0  0  0  0  0
    5.8199   -4.4637    1.6625 C   0  0  0  0  0  0  0  0  0  0  0  0
    1.2976   -5.2878    9.5595 C   0  0  0  0  0  0  0  0  0  0  0  0
    1.0027   -6.7919    9.6639 C   0  0  1  0  0  0  0  0  0  0  0  0
    0.2181   -7.0012   10.8196 O   0  0  0  0  0  0  0  0  0  0  0  0
    0.7309   -9.3974    8.5699 H   0  0  0  0  0  0  0  0  0  0  0  0
   -0.6817   -9.0525    7.5780 H   0  0  0  0  0  0  0  0  0  0  0  0
   -0.7931   -8.9396    9.3256 H   0  0  0  0  0  0  0  0  0  0  0  0
   -0.7006   -6.6954    8.3746 H   0  0  0  0  0  0  0  0  0  0  0  0
    1.9621   -7.5061    7.1629 H   0  0  0  0  0  0  0  0  0  0  0  0
    0.4796   -7.3096    6.2887 H   0  0  0  0  0  0  0  0  0  0  0  0
    0.3589   -4.9391    7.1173 H   0  0  0  0  0  0  0  0  0  0  0  0
    3.9697   -5.2117    9.4152 H   0  0  0  0  0  0  0  0  0  0  0  0
    4.2315   -5.1900    7.6920 H   0  0  0  0  0  0  0  0  0  0  0  0
    3.5409   -6.6029    8.4339 H   0  0  0  0  0  0  0  0  0  0  0  0
    1.1846   -2.9679    8.1602 H   0  0  0  0  0  0  0  0  0  0  0  0
    2.6466   -2.9771    9.1035 H   0  0  0  0  0  0  0  0  0  0  0  0
    2.9298   -1.8415    6.9933 H   0  0  0  0  0  0  0  0  0  0  0  0
    4.0182   -3.1808    7.0711 H   0  0  0  0  0  0  0  0  0  0  0  0
    1.4903   -2.7985    5.5565 H   0  0  0  0  0  0  0  0  0  0  0  0
    0.8307   -5.0385    3.6235 H   0  0  0  0  0  0  0  0  0  0  0  0
   -0.0748   -4.1618    4.8393 H   0  0  0  0  0  0  0  0  0  0  0  0
    0.0052   -5.8957    4.8480 H   0  0  0  0  0  0  0  0  0  0  0  0
    3.7418   -5.9953    5.7750 H   0  0  0  0  0  0  0  0  0  0  0  0
    2.5226   -6.8669    4.9242 H   0  0  0  0  0  0  0  0  0  0  0  0
    4.2613   -6.2048    3.4187 H   0  0  0  0  0  0  0  0  0  0  0  0
    2.7885   -5.4588    2.9235 H   0  0  0  0  0  0  0  0  0  0  0  0
    5.2796   -4.3035    5.6773 H   0  0  0  0  0  0  0  0  0  0  0  0
    6.1574   -3.3428    4.5142 H   0  0  0  0  0  0  0  0  0  0  0  0
    6.0912   -5.0815    4.3423 H   0  0  0  0  0  0  0  0  0  0  0  0
    1.6114   -1.7536    3.5651 H   0  0  0  0  0  0  0  0  0  0  0  0
    1.6738   -3.3426    2.8566 H   0  0  0  0  0  0  0  0  0  0  0  0
    4.6492   -1.3052    3.8076 H   0  0  0  0  0  0  0  0  0  0  0  0
    4.7874   -1.7785    5.4693 H   0  0  0  0  0  0  0  0  0  0  0  0
    3.4050   -0.8357    4.9421 H   0  0  0  0  0  0  0  0  0  0  0  0
    2.8489   -1.1770   -0.4636 H   0  0  0  0  0  0  0  0  0  0  0  0
    3.8295   -1.7794   -2.8157 H   0  0  0  0  0  0  0  0  0  0  0  0
    4.9209   -0.5336   -2.1507 H   0  0  0  0  0  0  0  0  0  0  0  0
    6.7977   -0.8875   -0.0858 H   0  0  0  0  0  0  0  0  0  0  0  0
    7.9271   -2.2403   -0.1731 H   0  0  0  0  0  0  0  0  0  0  0  0
    7.0252   -1.9016    1.3074 H   0  0  0  0  0  0  0  0  0  0  0  0
    5.2250   -4.8937   -0.3771 H   0  0  0  0  0  0  0  0  0  0  0  0
    6.9454   -4.6705   -0.2013 H   0  0  0  0  0  0  0  0  0  0  0  0
    6.7394   -4.1142    2.1247 H   0  0  0  0  0  0  0  0  0  0  0  0
    5.7375   -5.5253    1.8827 H   0  0  0  0  0  0  0  0  0  0  0  0
    1.8166   -4.9483   10.4578 H   0  0  0  0  0  0  0  0  0  0  0  0
    0.3482   -4.7533    9.5545 H   0  0  0  0  0  0  0  0  0  0  0  0
    1.9225   -7.3666    9.7745 H   0  0  0  0  0  0  0  0  0  0  0  0
    0.7709   -6.8646   11.5768 H   0  0  0  0  0  0  0  0  0  0  0  0
  1  2  1  0
  1 34  1  0
  1 35  1  0
  1 36  1  0
  2 32  1  0
  2  3  1  0
  2 37  1  6
  3  4  1  0
  3 38  1  0
  3 39  1  0
  4 10  1  0
  4  5  1  0
  4 40  1  1
  5  6  1  1
  5  7  1  0
  5 31  1  0
  6 41  1  0
  6 42  1  0
  6 43  1  0
  7  8  1  0
  7 44  1  0
  7 45  1  0
  8  9  1  0
  8 46  1  0
  8 47  1  0
  9 20  1  0
  9 10  1  0
  9 48  1  6
 10 11  1  6
 10 12  1  0
 11 49  1  0
 11 50  1  0
 11 51  1  0
 12 13  1  0
 12 52  1  0
 12 53  1  0
 13 14  1  0
 13 54  1  0
 13 55  1  0
 14 20  1  0
 14 15  1  1
 14 16  1  0
 15 56  1  0
 15 57  1  0
 15 58  1  0
 16 30  1  0
 16 17  2  0
 17 18  1  0
 17 22  1  0
 18 19  1  0
 19 20  1  0
 19 59  1  0
 19 60  1  0
 20 21  1  1
 21 61  1  0
 21 62  1  0
 21 63  1  0
 22 27  1  0
 22 23  2  0
 23 24  1  0
 23 64  1  0
 24 25  1  0
 24 65  1  0
 24 66  1  0
 25 26  2  0
 25 27  1  0
 27 28  1  1
 27 29  1  0
 28 67  1  0
 28 68  1  0
 28 69  1  0
 29 30  1  0
 29 70  1  0
 29 71  1  0
 30 72  1  0
 30 73  1  0
 31 32  1  0
 31 74  1  0
 31 75  1  0
 32 33  1  0
 32 76  1  1
 33 77  1  0
M  END
>  <i_m_ct_stereo_status>  (243) 
1

>  <s_m_source_file>  (243) 
/var/tmp/pbs.5076255.sched01/tmp_srbpc4z/1203xlsw0nt.sdf

>  <i_m_source_file_index>  (243) 
11

>  <i_lp_mmshare_version>  (243) 
48012

>  <i_f3d_flags>  (243) 
0

>  <s_epik_input>  (243) 
W0NIMl0xW0NAQEhdKFtPSF0pW0NASF0oW0NIM10pW0NIMl1bQ0BASF0oW0NAXTEyW0NIM10pW0NAQF0zKFtDSDNdKVtDQEBIXShbQ0gyXVtDSDJdMilbQ0BAXTQoW0NIM10pW0NAQF0oW0NIM10pKFtDSDJdW0NIMl0zKUM1PUMoT1tDSDJdNClDPTZbQ0BAXShbQ0gzXSkoW0NIMl1bQ0gyXTUpQyg9TylbQ0gyXVtDSF02

>  <s_epik_cmdline>  (243) 
J2VwaWtfcHl0aG9uJywgJy1waHQnLCAnMi4wJywgJy1waCcsICc3LjAnLCAnLXRuJywgJzgnLCAnLW1hJywgJzIwMCcsICctaW1hZScsICc8aW5maWxlLm1hZT4nLCAnLW9tYWUnLCAnPG91dGZpbGUubWFlPic=

>  <r_lp_tautomer_probability>  (243) 
1

>  <r_epik_Ionization_Penalty>  (243) 
1.9188e-06

>  <r_epik_Ionization_Penalty_Charging>  (243) 
0

>  <r_epik_Ionization_Penalty_Neutral>  (243) 
1.9188e-06

>  <r_epik_State_Penalty>  (243) 
-0

>  <r_epik_Charging_Adjusted_Penalty>  (243) 
0

>  <i_epik_Tot_Q>  (243) 
0

>  <i_epik_Tot_abs_Q>  (243) 
0

>  <s_lp_Force_Field>  (243) 
OPLS3e

>  <r_lp_Energy>  (243) 
78.5855

>  <b_lp_Chiralities_Consistent>  (243) 
1

>  <s_lp_Variant>  (243) 
92:0-1

>  <s_i_glide_gridfile>  (243) 
pfpi4k_grid

>  <i_i_glide_lignum>  (243) 
11

>  <i_i_glide_rotatable_bonds>  (243) 
1

>  <r_i_docking_score>  (243) 
-2.23031

>  <r_i_glide_ligand_efficiency>  (243) 
-0.0675851

>  <r_i_glide_ligand_efficiency_sa>  (243) 
-0.216782

>  <r_i_glide_ligand_efficiency_ln>  (243) 
-0.496009

>  <r_i_glide_gscore>  (243) 
-2.23031

>  <r_i_glide_lipo>  (243) 
-0.174282

>  <r_i_glide_hbond>  (243) 
-0.170811

>  <r_i_glide_metal>  (243) 
-0

>  <r_i_glide_rewards>  (243) 
-0.322714

>  <r_i_glide_evdw>  (243) 
-24.4325

>  <r_i_glide_ecoul>  (243) 
-2.20722

>  <r_i_glide_erotb>  (243) 
0

>  <r_i_glide_esite>  (243) 
-0.00979125

>  <r_i_glide_emodel>  (243) 
-29.5176

>  <r_i_glide_energy>  (243) 
-26.6398

>  <r_i_glide_einternal>  (243) 
0.33672

>  <r_i_glide_intrahb_reward>  (243) 
-0

>  <i_i_glide_confnum>  (243) 
2

>  <i_i_glide_posenum>  (243) 
25

>  <r_i_glide_eff_state_penalty>  (243) 
0

>  <ligand_id>  (243) 
92

>  <original_smiles>  (243) 
CC1CC2C(C)(CCC3C2(C)CCC2(C)C4=C(OCC32C)C2=CCC(=O)C2(C)CC4)CC1O

>  <smiles>  (243) 
[H]OC1([H])C([H])([H])C2(C([H])([H])[H])C([H])([H])C([H])([H])C3([H])C(C([H])([H])[H])(C([H])([H])C([H])([H])C4(C([H])([H])[H])C5=C(OC([H])([H])C34C([H])([H])[H])C3=C([H])C([H])([H])C(=O)C3(C([H])([H])[H])C([H])([H])C5([H])[H])C2([H])C([H])([H])C1([H])C([H])([H])[H]

$$$$
92:0:1
     RDKit          3D

 77 82  0  0  1  0  0  0  0  0999 V2000
   -0.1320   -9.7834    7.0289 C   0  0  0  0  0  0  0  0  0  0  0  0
    0.7816   -8.5767    7.2513 C   0  0  2  0  0  0  0  0  0  0  0  0
    1.2845   -8.0152    5.9110 C   0  0  0  0  0  0  0  0  0  0  0  0
    2.1268   -6.7183    6.0997 C   0  0  1  0  0  0  0  0  0  0  0  0
    3.3388   -7.0046    7.0467 C   0  0  1  0  0  0  0  0  0  0  0  0
    4.3958   -7.9890    6.4773 C   0  0  0  0  0  0  0  0  0  0  0  0
    3.9934   -5.6501    7.3468 C   0  0  0  0  0  0  0  0  0  0  0  0
    4.5297   -4.9811    6.0796 C   0  0  0  0  0  0  0  0  0  0  0  0
    3.4647   -4.7081    4.9754 C   0  0  2  0  0  0  0  0  0  0  0  0
    2.3962   -5.8726    4.7826 C   0  0  2  0  0  0  0  0  0  0  0  0
    1.0131   -5.2324    4.4351 C   0  0  0  0  0  0  0  0  0  0  0  0
    2.8226   -6.7976    3.6166 C   0  0  0  0  0  0  0  0  0  0  0  0
    3.1689   -6.0621    2.3126 C   0  0  0  0  0  0  0  0  0  0  0  0
    4.3366   -5.0566    2.4465 C   0  0  1  0  0  0  0  0  0  0  0  0
    5.6401   -5.8734    2.6630 C   0  0  0  0  0  0  0  0  0  0  0  0
    4.4560   -4.2717    1.1137 C   0  0  0  0  0  0  0  0  0  0  0  0
    4.1186   -2.9565    0.9918 C   0  0  0  0  0  0  0  0  0  0  0  0
    3.5550   -2.2341    2.0169 O   0  0  0  0  0  0  0  0  0  0  0  0
    3.0921   -2.9591    3.1400 C   0  0  0  0  0  0  0  0  0  0  0  0
    4.0698   -4.0520    3.6428 C   0  0  1  0  0  0  0  0  0  0  0  0
    5.3734   -3.2679    3.9715 C   0  0  0  0  0  0  0  0  0  0  0  0
    4.3486   -2.2421   -0.2499 C   0  0  0  0  0  0  0  0  0  0  0  0
    3.8055   -1.0686   -0.5851 C   0  0  0  0  0  0  0  0  0  0  0  0
    4.0652   -0.6639   -2.0186 C   0  0  0  0  0  0  0  0  0  0  0  0
    4.6200   -1.9765   -2.5363 C   0  0  0  0  0  0  0  0  0  0  0  0
    4.5728   -2.3340   -3.7173 O   0  0  0  0  0  0  0  0  0  0  0  0
    5.1733   -2.8085   -1.3745 C   0  0  1  0  0  0  0  0  0  0  0  0
    6.6623   -2.5484   -1.1425 C   0  0  0  0  0  0  0  0  0  0  0  0
    4.8431   -4.2818   -1.4566 C   0  0  0  0  0  0  0  0  0  0  0  0
    5.0310   -5.0246   -0.1038 C   0  0  0  0  0  0  0  0  0  0  0  0
    2.8089   -7.6005    8.3826 C   0  0  0  0  0  0  0  0  0  0  0  0
    1.9770   -8.8812    8.1748 C   0  0  1  0  0  0  0  0  0  0  0  0
    1.5300   -9.3582    9.4265 O   0  0  0  0  0  0  0  0  0  0  0  0
    0.3846  -10.6291    6.5673 H   0  0  0  0  0  0  0  0  0  0  0  0
   -0.9823   -9.5190    6.4021 H   0  0  0  0  0  0  0  0  0  0  0  0
   -0.5360  -10.1024    7.9810 H   0  0  0  0  0  0  0  0  0  0  0  0
    0.1711   -7.8135    7.7352 H   0  0  0  0  0  0  0  0  0  0  0  0
    1.8741   -8.7853    5.4118 H   0  0  0  0  0  0  0  0  0  0  0  0
    0.4223   -7.8536    5.2702 H   0  0  0  0  0  0  0  0  0  0  0  0
    1.4815   -6.0682    6.6949 H   0  0  0  0  0  0  0  0  0  0  0  0
    5.1517   -8.2187    7.2308 H   0  0  0  0  0  0  0  0  0  0  0  0
    4.9295   -7.6003    5.6171 H   0  0  0  0  0  0  0  0  0  0  0  0
    3.9600   -8.9341    6.1619 H   0  0  0  0  0  0  0  0  0  0  0  0
    3.2688   -4.9828    7.8179 H   0  0  0  0  0  0  0  0  0  0  0  0
    4.7988   -5.7695    8.0749 H   0  0  0  0  0  0  0  0  0  0  0  0
    4.9398   -4.0283    6.4143 H   0  0  0  0  0  0  0  0  0  0  0  0
    5.3791   -5.5358    5.6979 H   0  0  0  0  0  0  0  0  0  0  0  0
    2.9116   -3.9006    5.4531 H   0  0  0  0  0  0  0  0  0  0  0  0
    0.9193   -4.9110    3.4066 H   0  0  0  0  0  0  0  0  0  0  0  0
    0.7991   -4.3717    5.0687 H   0  0  0  0  0  0  0  0  0  0  0  0
    0.1800   -5.9147    4.5726 H   0  0  0  0  0  0  0  0  0  0  0  0
    3.6714   -7.4127    3.9042 H   0  0  0  0  0  0  0  0  0  0  0  0
    2.0270   -7.5064    3.3955 H   0  0  0  0  0  0  0  0  0  0  0  0
    3.4131   -6.8198    1.5668 H   0  0  0  0  0  0  0  0  0  0  0  0
    2.2916   -5.5592    1.9123 H   0  0  0  0  0  0  0  0  0  0  0  0
    5.6945   -6.3086    3.6573 H   0  0  0  0  0  0  0  0  0  0  0  0
    6.5398   -5.2685    2.5234 H   0  0  0  0  0  0  0  0  0  0  0  0
    5.7210   -6.7089    1.9638 H   0  0  0  0  0  0  0  0  0  0  0  0
    2.9022   -2.2362    3.9340 H   0  0  0  0  0  0  0  0  0  0  0  0
    2.1302   -3.3663    2.8527 H   0  0  0  0  0  0  0  0  0  0  0  0
    5.8022   -2.7954    3.0878 H   0  0  0  0  0  0  0  0  0  0  0  0
    6.1571   -3.9055    4.3792 H   0  0  0  0  0  0  0  0  0  0  0  0
    5.1987   -2.4725    4.6958 H   0  0  0  0  0  0  0  0  0  0  0  0
    3.1404   -0.5072    0.0560 H   0  0  0  0  0  0  0  0  0  0  0  0
    3.1540   -0.3837   -2.5539 H   0  0  0  0  0  0  0  0  0  0  0  0
    4.7932    0.1454   -2.0860 H   0  0  0  0  0  0  0  0  0  0  0  0
    6.8275   -1.4785   -1.0711 H   0  0  0  0  0  0  0  0  0  0  0  0
    7.2595   -2.9564   -1.9567 H   0  0  0  0  0  0  0  0  0  0  0  0
    7.0063   -2.9910   -0.2069 H   0  0  0  0  0  0  0  0  0  0  0  0
    3.7932   -4.3200   -1.7323 H   0  0  0  0  0  0  0  0  0  0  0  0
    5.4053   -4.7556   -2.2602 H   0  0  0  0  0  0  0  0  0  0  0  0
    6.0942   -5.1811    0.0665 H   0  0  0  0  0  0  0  0  0  0  0  0
    4.5765   -6.0090   -0.1895 H   0  0  0  0  0  0  0  0  0  0  0  0
    3.6392   -7.8048    9.0626 H   0  0  0  0  0  0  0  0  0  0  0  0
    2.1892   -6.8643    8.8961 H   0  0  0  0  0  0  0  0  0  0  0  0
    2.5959   -9.6727    7.7536 H   0  0  0  0  0  0  0  0  0  0  0  0
    1.4105  -10.2971    9.3404 H   0  0  0  0  0  0  0  0  0  0  0  0
  1  2  1  0
  1 34  1  0
  1 35  1  0
  1 36  1  0
  2 32  1  0
  2  3  1  0
  2 37  1  1
  3  4  1  0
  3 38  1  0
  3 39  1  0
  4 10  1  0
  4  5  1  0
  4 40  1  1
  5  6  1  6
  5  7  1  0
  5 31  1  0
  6 41  1  0
  6 42  1  0
  6 43  1  0
  7  8  1  0
  7 44  1  0
  7 45  1  0
  8  9  1  0
  8 46  1  0
  8 47  1  0
  9 20  1  0
  9 10  1  0
  9 48  1  1
 10 11  1  6
 10 12  1  0
 11 49  1  0
 11 50  1  0
 11 51  1  0
 12 13  1  0
 12 52  1  0
 12 53  1  0
 13 14  1  0
 13 54  1  0
 13 55  1  0
 14 20  1  0
 14 15  1  1
 14 16  1  0
 15 56  1  0
 15 57  1  0
 15 58  1  0
 16 30  1  0
 16 17  2  0
 17 18  1  0
 17 22  1  0
 18 19  1  0
 19 20  1  0
 19 59  1  0
 19 60  1  0
 20 21  1  1
 21 61  1  0
 21 62  1  0
 21 63  1  0
 22 27  1  0
 22 23  2  0
 23 24  1  0
 23 64  1  0
 24 25  1  0
 24 65  1  0
 24 66  1  0
 25 26  2  0
 25 27  1  0
 27 28  1  1
 27 29  1  0
 28 67  1  0
 28 68  1  0
 28 69  1  0
 29 30  1  0
 29 70  1  0
 29 71  1  0
 30 72  1  0
 30 73  1  0
 31 32  1  0
 31 74  1  0
 31 75  1  0
 32 33  1  0
 32 76  1  6
 33 77  1  0
M  END
>  <i_m_ct_stereo_status>  (244) 
1

>  <s_m_source_file>  (244) 
/var/tmp/pbs.5076255.sched01/tmp_srbpc4z/1203xlsw0nt.sdf

>  <i_m_source_file_index>  (244) 
11

>  <i_lp_mmshare_version>  (244) 
48012

>  <i_f3d_flags>  (244) 
0

>  <s_epik_input>  (244) 
W0NIMl0xW0NAQEhdKFtPSF0pW0NASF0oW0NIM10pW0NIMl1bQ0BASF0oW0NAXTEyW0NIM10pW0NAQF0zKFtDSDNdKVtDQEBIXShbQ0gyXVtDSDJdMilbQ0BAXTQoW0NIM10pW0NAQF0oW0NIM10pKFtDSDJdW0NIMl0zKUM1PUMoT1tDSDJdNClDPTZbQ0BAXShbQ0gzXSkoW0NIMl1bQ0gyXTUpQyg9TylbQ0gyXVtDSF02

>  <s_epik_cmdline>  (244) 
J2VwaWtfcHl0aG9uJywgJy1waHQnLCAnMi4wJywgJy1waCcsICc3LjAnLCAnLXRuJywgJzgnLCAnLW1hJywgJzIwMCcsICctaW1hZScsICc8aW5maWxlLm1hZT4nLCAnLW9tYWUnLCAnPG91dGZpbGUubWFlPic=

>  <r_lp_tautomer_probability>  (244) 
1

>  <r_epik_Ionization_Penalty>  (244) 
1.9188e-06

>  <r_epik_Ionization_Penalty_Charging>  (244) 
0

>  <r_epik_Ionization_Penalty_Neutral>  (244) 
1.9188e-06

>  <r_epik_State_Penalty>  (244) 
-0

>  <r_epik_Charging_Adjusted_Penalty>  (244) 
0

>  <i_epik_Tot_Q>  (244) 
0

>  <i_epik_Tot_abs_Q>  (244) 
0

>  <s_lp_Force_Field>  (244) 
OPLS3e

>  <r_lp_Energy>  (244) 
78.5855

>  <b_lp_Chiralities_Consistent>  (244) 
1

>  <s_lp_Variant>  (244) 
92:0-1

>  <s_i_glide_gridfile>  (244) 
pfpi4k_grid

>  <i_i_glide_lignum>  (244) 
11

>  <i_i_glide_rotatable_bonds>  (244) 
1

>  <r_i_docking_score>  (244) 
-2.05049

>  <r_i_glide_ligand_efficiency>  (244) 
-0.0621361

>  <r_i_glide_ligand_efficiency_sa>  (244) 
-0.199304

>  <r_i_glide_ligand_efficiency_ln>  (244) 
-0.456018

>  <r_i_glide_gscore>  (244) 
-2.05049

>  <r_i_glide_lipo>  (244) 
-0.0936381

>  <r_i_glide_hbond>  (244) 
0

>  <r_i_glide_metal>  (244) 
-0

>  <r_i_glide_rewards>  (244) 
-0.361355

>  <r_i_glide_evdw>  (244) 
-22.1265

>  <r_i_glide_ecoul>  (244) 
-3.26115

>  <r_i_glide_erotb>  (244) 
0

>  <r_i_glide_esite>  (244) 
0

>  <r_i_glide_emodel>  (244) 
-27.4087

>  <r_i_glide_energy>  (244) 
-25.3876

>  <r_i_glide_einternal>  (244) 
0.700443

>  <r_i_glide_intrahb_reward>  (244) 
-0

>  <i_i_glide_confnum>  (244) 
1

>  <i_i_glide_posenum>  (244) 
11

>  <r_i_glide_eff_state_penalty>  (244) 
0

>  <ligand_id>  (244) 
92

>  <original_smiles>  (244) 
CC1CC2C(C)(CCC3C2(C)CCC2(C)C4=C(OCC32C)C2=CCC(=O)C2(C)CC4)CC1O

>  <smiles>  (244) 
[H]OC1([H])C([H])([H])C2(C([H])([H])[H])C([H])([H])C([H])([H])C3([H])C(C([H])([H])[H])(C([H])([H])C([H])([H])C4(C([H])([H])[H])C5=C(OC([H])([H])C34C([H])([H])[H])C3=C([H])C([H])([H])C(=O)C3(C([H])([H])[H])C([H])([H])C5([H])[H])C2([H])C([H])([H])C1([H])C([H])([H])[H]

$$$$
93:0:0
     RDKit          3D

 63 68  0  0  1  0  0  0  0  0999 V2000
    3.6256   -3.5929   -3.9249 C   0  0  0  0  0  0  0  0  0  0  0  0
    3.6444   -2.4108   -2.9415 C   0  0  1  0  0  0  0  0  0  0  0  0
    2.8587   -1.2327   -3.5448 C   0  0  0  0  0  0  0  0  0  0  0  0
    3.7898   -0.3015   -4.7282 Cl  0  0  0  0  0  0  0  0  0  0  0  0
    3.0451   -2.7924   -1.5683 C   0  0  0  0  0  0  0  0  0  0  0  0
    3.9852   -3.7250   -0.7815 C   0  0  1  0  0  0  0  0  0  0  0  0
    5.3663   -3.0654   -0.6887 C   0  0  2  0  0  0  0  0  0  0  0  0
    5.7690   -3.0320   -2.0415 O   0  0  0  0  0  0  0  0  0  0  0  0
    4.9692   -1.9555   -2.7085 O   0  0  0  0  0  0  0  0  0  0  0  0
    6.3553   -3.8479    0.2021 C   0  0  1  0  0  0  0  0  0  0  0  0
    7.4530   -2.9994    0.4719 O   0  0  0  0  0  0  0  0  0  0  0  0
    5.7636   -4.4322    1.5387 C   0  0  1  0  0  0  0  0  0  0  0  0
    6.8831   -5.3452    2.1184 C   0  0  0  0  0  0  0  0  0  0  0  0
    5.3924   -3.2743    2.5412 C   0  0  1  0  0  0  0  0  0  0  0  0
    4.1766   -2.3960    2.1359 C   0  0  0  0  0  0  0  0  0  0  0  0
    2.9984   -3.1770    1.5318 C   0  0  0  0  0  0  0  0  0  0  0  0
    3.4470   -4.2764    0.5578 C   0  0  2  0  0  0  0  0  0  0  0  0
    4.4611   -5.2713    1.2323 C   0  0  1  0  0  0  0  0  0  0  0  0
    4.7724   -6.4161    0.2125 C   0  0  0  0  0  0  0  0  0  0  0  0
    3.8755   -6.0996    2.4529 C   0  0  2  0  0  0  0  0  0  0  0  0
    2.4686   -6.7199    2.3766 C   0  0  0  0  0  0  0  0  0  0  0  0
    2.1471   -6.2525    3.7763 C   0  0  1  0  0  0  0  0  0  0  0  0
    0.8079   -5.5799    3.9879 C   0  0  0  0  0  0  0  0  0  0  0  0
    3.0211   -6.5854    4.9394 C   0  0  1  0  0  0  0  0  0  0  0  0
    3.5595   -7.8671    4.8387 O   0  0  0  0  0  0  0  0  0  0  0  0
    3.5448   -5.6087    3.8836 C   0  0  1  0  0  0  0  0  0  0  0  0
    3.9430   -4.2627    4.4590 C   0  0  0  0  0  0  0  0  0  0  0  0
    5.2929   -3.6889    4.0164 C   0  0  0  0  0  0  0  0  0  0  0  0
    2.6124   -3.9885   -4.0079 H   0  0  0  0  0  0  0  0  0  0  0  0
    4.2772   -4.4134   -3.6282 H   0  0  0  0  0  0  0  0  0  0  0  0
    3.9251   -3.2911   -4.9202 H   0  0  0  0  0  0  0  0  0  0  0  0
    1.9979   -1.6149   -4.0855 H   0  0  0  0  0  0  0  0  0  0  0  0
    2.5513   -0.5201   -2.7834 H   0  0  0  0  0  0  0  0  0  0  0  0
    2.9090   -1.8734   -0.9982 H   0  0  0  0  0  0  0  0  0  0  0  0
    2.0644   -3.2537   -1.7043 H   0  0  0  0  0  0  0  0  0  0  0  0
    4.1136   -4.5823   -1.4304 H   0  0  0  0  0  0  0  0  0  0  0  0
    5.3199   -2.0274   -0.3844 H   0  0  0  0  0  0  0  0  0  0  0  0
    6.7699   -4.6517   -0.3911 H   0  0  0  0  0  0  0  0  0  0  0  0
    8.1021   -3.5035    0.9256 H   0  0  0  0  0  0  0  0  0  0  0  0
    6.5513   -5.9329    2.9692 H   0  0  0  0  0  0  0  0  0  0  0  0
    7.7427   -4.7668    2.4449 H   0  0  0  0  0  0  0  0  0  0  0  0
    7.2618   -6.0529    1.3822 H   0  0  0  0  0  0  0  0  0  0  0  0
    6.2227   -2.5759    2.5458 H   0  0  0  0  0  0  0  0  0  0  0  0
    3.8147   -1.8456    3.0043 H   0  0  0  0  0  0  0  0  0  0  0  0
    4.4893   -1.6065    1.4591 H   0  0  0  0  0  0  0  0  0  0  0  0
    2.4241   -3.6485    2.3187 H   0  0  0  0  0  0  0  0  0  0  0  0
    2.2922   -2.4937    1.0598 H   0  0  0  0  0  0  0  0  0  0  0  0
    2.5590   -4.8289    0.2674 H   0  0  0  0  0  0  0  0  0  0  0  0
    3.8503   -6.9002   -0.1020 H   0  0  0  0  0  0  0  0  0  0  0  0
    5.4026   -7.1924    0.6466 H   0  0  0  0  0  0  0  0  0  0  0  0
    5.2806   -6.1154   -0.6947 H   0  0  0  0  0  0  0  0  0  0  0  0
    4.5521   -6.9366    2.6057 H   0  0  0  0  0  0  0  0  0  0  0  0
    1.8156   -6.3089    1.6097 H   0  0  0  0  0  0  0  0  0  0  0  0
    2.5155   -7.8028    2.2626 H   0  0  0  0  0  0  0  0  0  0  0  0
    0.8112   -5.0261    4.9254 H   0  0  0  0  0  0  0  0  0  0  0  0
    0.0322   -6.3481    4.0434 H   0  0  0  0  0  0  0  0  0  0  0  0
    0.5839   -4.8986    3.1654 H   0  0  0  0  0  0  0  0  0  0  0  0
    2.7341   -6.2803    5.9370 H   0  0  0  0  0  0  0  0  0  0  0  0
    3.6533   -8.0575    3.9207 H   0  0  0  0  0  0  0  0  0  0  0  0
    3.1315   -3.5426    4.3479 H   0  0  0  0  0  0  0  0  0  0  0  0
    4.0463   -4.4076    5.5352 H   0  0  0  0  0  0  0  0  0  0  0  0
    6.1087   -4.3308    4.3434 H   0  0  0  0  0  0  0  0  0  0  0  0
    5.4465   -2.7849    4.5999 H   0  0  0  0  0  0  0  0  0  0  0  0
  2  1  1  6
  1 29  1  0
  1 30  1  0
  1 31  1  0
  2  9  1  0
  2  3  1  0
  2  5  1  0
  3  4  1  0
  3 32  1  0
  3 33  1  0
  5  6  1  0
  5 34  1  0
  5 35  1  0
  6 17  1  0
  6  7  1  0
  6 36  1  6
  7  8  1  0
  7 10  1  0
  7 37  1  1
  8  9  1  0
 10 11  1  0
 10 12  1  0
 10 38  1  6
 11 39  1  0
 12 18  1  0
 12 13  1  1
 12 14  1  0
 13 40  1  0
 13 41  1  0
 13 42  1  0
 14 28  1  0
 14 15  1  0
 14 43  1  1
 15 16  1  0
 15 44  1  0
 15 45  1  0
 16 17  1  0
 16 46  1  0
 16 47  1  0
 17 18  1  0
 17 48  1  6
 18 19  1  6
 18 20  1  0
 19 49  1  0
 19 50  1  0
 19 51  1  0
 20 26  1  0
 20 21  1  0
 20 52  1  1
 21 22  1  0
 21 53  1  0
 21 54  1  0
 22 26  1  0
 22 23  1  1
 22 24  1  0
 23 55  1  0
 23 56  1  0
 23 57  1  0
 24 25  1  0
 24 26  1  0
 24 58  1  1
 25 59  1  0
 26 27  1  1
 27 28  1  0
 27 60  1  0
 27 61  1  0
 28 62  1  0
 28 63  1  0
M  END
>  <i_m_ct_stereo_status>  (245) 
1

>  <s_m_source_file>  (245) 
/var/tmp/pbs.5076255.sched01/tmp_srbpc4z/1203xlsw0nt.sdf

>  <i_m_source_file_index>  (245) 
12

>  <i_lp_mmshare_version>  (245) 
48012

>  <i_f3d_flags>  (245) 
0

>  <s_epik_input>  (245) 
Q2xbQ0gyXVtDQF0oW0NIM10pKFtDSDJdMSlPT1tDQEhdKFtDQEhdMltPSF0pW0NASF0xW0NAQEhdM1tDSDJdW0NIMl1bQ0BASF0oW0NIMl1bQ0gyXTQpW0NAQF0yKFtDSDNdKVtDQEBdMyhbQ0gzXSlbQ0BASF0oW0NAQF00NTYpW0NIMl1bQ0BAXTUoW0NIM10pW0NASF02W09IXQ==

>  <s_epik_cmdline>  (245) 
J2VwaWtfcHl0aG9uJywgJy1waHQnLCAnMi4wJywgJy1waCcsICc3LjAnLCAnLXRuJywgJzgnLCAnLW1hJywgJzIwMCcsICctaW1hZScsICc8aW5maWxlLm1hZT4nLCAnLW9tYWUnLCAnPG91dGZpbGUubWFlPic=

>  <r_lp_tautomer_probability>  (245) 
1

>  <r_epik_Ionization_Penalty>  (245) 
2.69312e-06

>  <r_epik_Ionization_Penalty_Charging>  (245) 
0

>  <r_epik_Ionization_Penalty_Neutral>  (245) 
2.69312e-06

>  <r_epik_State_Penalty>  (245) 
-0

>  <r_epik_Charging_Adjusted_Penalty>  (245) 
0

>  <i_epik_Tot_Q>  (245) 
0

>  <i_epik_Tot_abs_Q>  (245) 
0

>  <s_lp_Force_Field>  (245) 
OPLS3e

>  <r_lp_Energy>  (245) 
70.7143

>  <b_lp_Chiralities_Consistent>  (245) 
1

>  <s_lp_Variant>  (245) 
93:0-1

>  <s_i_glide_gridfile>  (245) 
pfpi4k_grid

>  <i_i_glide_lignum>  (245) 
12

>  <i_i_glide_rotatable_bonds>  (245) 
3

>  <r_i_docking_score>  (245) 
-3.17172

>  <r_i_glide_ligand_efficiency>  (245) 
-0.113276

>  <r_i_glide_ligand_efficiency_sa>  (245) 
-0.343971

>  <r_i_glide_ligand_efficiency_ln>  (245) 
-0.732125

>  <r_i_glide_gscore>  (245) 
-3.17172

>  <r_i_glide_lipo>  (245) 
-0.987749

>  <r_i_glide_hbond>  (245) 
0

>  <r_i_glide_metal>  (245) 
-0

>  <r_i_glide_rewards>  (245) 
-0.606993

>  <r_i_glide_evdw>  (245) 
-23.7407

>  <r_i_glide_ecoul>  (245) 
-2.59959

>  <r_i_glide_erotb>  (245) 
0

>  <r_i_glide_esite>  (245) 
0

>  <r_i_glide_emodel>  (245) 
-29.4053

>  <r_i_glide_energy>  (245) 
-26.3403

>  <r_i_glide_einternal>  (245) 
2.7371

>  <r_i_glide_intrahb_reward>  (245) 
-0

>  <i_i_glide_confnum>  (245) 
1

>  <i_i_glide_posenum>  (245) 
35

>  <r_i_glide_eff_state_penalty>  (245) 
0

>  <ligand_id>  (245) 
93

>  <original_smiles>  (245) 
CC1(CCl)CC2C(OO1)C(O)C1(C)C3CCC2C1(C)C1CC2(C)C(O)C12CC3

>  <smiles>  (245) 
[H]OC1([H])C2([H])OOC(C([H])([H])[H])(C([H])([H])Cl)C([H])([H])C2([H])C2([H])C([H])([H])C([H])([H])C3([H])C([H])([H])C([H])([H])C45C([H])(O[H])C4(C([H])([H])[H])C([H])([H])C5([H])C2(C([H])([H])[H])C13C([H])([H])[H]

$$$$
93:0:1
     RDKit          3D

 63 68  0  0  1  0  0  0  0  0999 V2000
    3.1184   -3.3693   -4.1234 C   0  0  0  0  0  0  0  0  0  0  0  0
    3.5189   -1.9841   -3.6334 C   0  0  1  0  0  0  0  0  0  0  0  0
    3.0567   -0.9011   -4.6299 C   0  0  0  0  0  0  0  0  0  0  0  0
    3.7984    0.6701   -4.3203 Cl  0  0  0  0  0  0  0  0  0  0  0  0
    2.9970   -1.7884   -2.2289 C   0  0  0  0  0  0  0  0  0  0  0  0
    3.7739   -2.6687   -1.2315 C   0  0  1  0  0  0  0  0  0  0  0  0
    5.2686   -2.4181   -1.3787 C   0  0  2  0  0  0  0  0  0  0  0  0
    5.4707   -2.9355   -2.6651 O   0  0  0  0  0  0  0  0  0  0  0  0
    4.9250   -1.8830   -3.5837 O   0  0  0  0  0  0  0  0  0  0  0  0
    6.1355   -3.1426   -0.3559 C   0  0  1  0  0  0  0  0  0  0  0  0
    7.4091   -2.5235   -0.4074 O   0  0  0  0  0  0  0  0  0  0  0  0
    5.5611   -3.1458    1.1047 C   0  0  1  0  0  0  0  0  0  0  0  0
    6.4740   -4.1161    1.8735 C   0  0  0  0  0  0  0  0  0  0  0  0
    5.5623   -1.6991    1.7320 C   0  0  1  0  0  0  0  0  0  0  0  0
    4.5681   -0.6812    1.1184 C   0  0  0  0  0  0  0  0  0  0  0  0
    3.1934   -1.2814    0.8220 C   0  0  0  0  0  0  0  0  0  0  0  0
    3.2776   -2.6780    0.2155 C   0  0  2  0  0  0  0  0  0  0  0  0
    4.0908   -3.6722    1.1205 C   0  0  1  0  0  0  0  0  0  0  0  0
    4.0253   -5.0934    0.4741 C   0  0  0  0  0  0  0  0  0  0  0  0
    3.4879   -3.9748    2.5713 C   0  0  2  0  0  0  0  0  0  0  0  0
    2.0050   -4.2286    2.7204 C   0  0  0  0  0  0  0  0  0  0  0  0
    1.9013   -3.3415    3.9385 C   0  0  1  0  0  0  0  0  0  0  0  0
    0.7760   -2.3404    3.8984 C   0  0  0  0  0  0  0  0  0  0  0  0
    2.7583   -3.4899    5.1418 C   0  0  1  0  0  0  0  0  0  0  0  0
    2.9500   -4.8353    5.3895 O   0  0  0  0  0  0  0  0  0  0  0  0
    3.3985   -3.0545    3.8142 C   0  0  1  0  0  0  0  0  0  0  0  0
    4.0757   -1.7132    3.8775 C   0  0  0  0  0  0  0  0  0  0  0  0
    5.4601   -1.6509    3.2509 C   0  0  0  0  0  0  0  0  0  0  0  0
    2.0358   -3.4894   -4.1652 H   0  0  0  0  0  0  0  0  0  0  0  0
    3.5962   -4.2198   -3.6359 H   0  0  0  0  0  0  0  0  0  0  0  0
    3.4925   -3.4292   -5.1049 H   0  0  0  0  0  0  0  0  0  0  0  0
    3.4599   -1.1188   -5.6087 H   0  0  0  0  0  0  0  0  0  0  0  0
    1.9623   -0.8247   -4.7050 H   0  0  0  0  0  0  0  0  0  0  0  0
    3.0842   -0.7322   -1.9753 H   0  0  0  0  0  0  0  0  0  0  0  0
    1.9550   -2.1056   -2.3098 H   0  0  0  0  0  0  0  0  0  0  0  0
    3.6183   -3.6778   -1.5895 H   0  0  0  0  0  0  0  0  0  0  0  0
    5.5213   -1.3589   -1.4409 H   0  0  0  0  0  0  0  0  0  0  0  0
    6.2730   -4.1603   -0.7149 H   0  0  0  0  0  0  0  0  0  0  0  0
    7.9414   -2.9752   -1.0426 H   0  0  0  0  0  0  0  0  0  0  0  0
    6.1179   -4.3249    2.8796 H   0  0  0  0  0  0  0  0  0  0  0  0
    7.4726   -3.7020    1.9294 H   0  0  0  0  0  0  0  0  0  0  0  0
    6.5858   -5.0809    1.3811 H   0  0  0  0  0  0  0  0  0  0  0  0
    6.5510   -1.2797    1.5722 H   0  0  0  0  0  0  0  0  0  0  0  0
    4.4044    0.1369    1.8188 H   0  0  0  0  0  0  0  0  0  0  0  0
    4.9882   -0.1997    0.2345 H   0  0  0  0  0  0  0  0  0  0  0  0
    2.6034   -1.3702    1.7231 H   0  0  0  0  0  0  0  0  0  0  0  0
    2.6262   -0.6011    0.1921 H   0  0  0  0  0  0  0  0  0  0  0  0
    2.2636   -3.0236    0.0743 H   0  0  0  0  0  0  0  0  0  0  0  0
    2.9902   -5.3967    0.3366 H   0  0  0  0  0  0  0  0  0  0  0  0
    4.5008   -5.8443    1.1050 H   0  0  0  0  0  0  0  0  0  0  0  0
    4.4942   -5.2154   -0.4975 H   0  0  0  0  0  0  0  0  0  0  0  0
    3.9445   -4.8884    2.9327 H   0  0  0  0  0  0  0  0  0  0  0  0
    1.5407   -3.8613    1.8255 H   0  0  0  0  0  0  0  0  0  0  0  0
    1.7796   -5.2815    2.8746 H   0  0  0  0  0  0  0  0  0  0  0  0
    0.9810   -1.5517    4.6199 H   0  0  0  0  0  0  0  0  0  0  0  0
   -0.1591   -2.8311    4.1873 H   0  0  0  0  0  0  0  0  0  0  0  0
    0.6669   -1.9077    2.8998 H   0  0  0  0  0  0  0  0  0  0  0  0
    2.6198   -2.8496    6.0207 H   0  0  0  0  0  0  0  0  0  0  0  0
    3.1442   -5.2058    4.5427 H   0  0  0  0  0  0  0  0  0  0  0  0
    3.4016   -0.8961    3.5844 H   0  0  0  0  0  0  0  0  0  0  0  0
    4.2711   -1.5621    4.9407 H   0  0  0  0  0  0  0  0  0  0  0  0
    6.0997   -2.4093    3.7088 H   0  0  0  0  0  0  0  0  0  0  0  0
    5.8994   -0.7133    3.5682 H   0  0  0  0  0  0  0  0  0  0  0  0
  2  1  1  6
  1 29  1  0
  1 30  1  0
  1 31  1  0
  2  9  1  0
  2  3  1  0
  2  5  1  0
  3  4  1  0
  3 32  1  0
  3 33  1  0
  5  6  1  0
  5 34  1  0
  5 35  1  0
  6 17  1  0
  6  7  1  0
  6 36  1  6
  7  8  1  0
  7 10  1  0
  7 37  1  6
  8  9  1  0
 10 11  1  0
 10 12  1  0
 10 38  1  6
 11 39  1  0
 12 18  1  0
 12 13  1  1
 12 14  1  0
 13 40  1  0
 13 41  1  0
 13 42  1  0
 14 28  1  0
 14 15  1  0
 14 43  1  1
 15 16  1  0
 15 44  1  0
 15 45  1  0
 16 17  1  0
 16 46  1  0
 16 47  1  0
 17 18  1  0
 17 48  1  6
 18 19  1  6
 18 20  1  0
 19 49  1  0
 19 50  1  0
 19 51  1  0
 20 26  1  0
 20 21  1  0
 20 52  1  1
 21 22  1  0
 21 53  1  0
 21 54  1  0
 22 26  1  0
 22 23  1  1
 22 24  1  0
 23 55  1  0
 23 56  1  0
 23 57  1  0
 24 25  1  0
 24 26  1  0
 24 58  1  1
 25 59  1  0
 26 27  1  1
 27 28  1  0
 27 60  1  0
 27 61  1  0
 28 62  1  0
 28 63  1  0
M  END
>  <i_m_ct_stereo_status>  (246) 
1

>  <s_m_source_file>  (246) 
/var/tmp/pbs.5076255.sched01/tmp_srbpc4z/1203xlsw0nt.sdf

>  <i_m_source_file_index>  (246) 
12

>  <i_lp_mmshare_version>  (246) 
48012

>  <i_f3d_flags>  (246) 
0

>  <s_epik_input>  (246) 
Q2xbQ0gyXVtDQF0oW0NIM10pKFtDSDJdMSlPT1tDQEhdKFtDQEhdMltPSF0pW0NASF0xW0NAQEhdM1tDSDJdW0NIMl1bQ0BASF0oW0NIMl1bQ0gyXTQpW0NAQF0yKFtDSDNdKVtDQEBdMyhbQ0gzXSlbQ0BASF0oW0NAQF00NTYpW0NIMl1bQ0BAXTUoW0NIM10pW0NASF02W09IXQ==

>  <s_epik_cmdline>  (246) 
J2VwaWtfcHl0aG9uJywgJy1waHQnLCAnMi4wJywgJy1waCcsICc3LjAnLCAnLXRuJywgJzgnLCAnLW1hJywgJzIwMCcsICctaW1hZScsICc8aW5maWxlLm1hZT4nLCAnLW9tYWUnLCAnPG91dGZpbGUubWFlPic=

>  <r_lp_tautomer_probability>  (246) 
1

>  <r_epik_Ionization_Penalty>  (246) 
2.69312e-06

>  <r_epik_Ionization_Penalty_Charging>  (246) 
0

>  <r_epik_Ionization_Penalty_Neutral>  (246) 
2.69312e-06

>  <r_epik_State_Penalty>  (246) 
-0

>  <r_epik_Charging_Adjusted_Penalty>  (246) 
0

>  <i_epik_Tot_Q>  (246) 
0

>  <i_epik_Tot_abs_Q>  (246) 
0

>  <s_lp_Force_Field>  (246) 
OPLS3e

>  <r_lp_Energy>  (246) 
70.7143

>  <b_lp_Chiralities_Consistent>  (246) 
1

>  <s_lp_Variant>  (246) 
93:0-1

>  <s_i_glide_gridfile>  (246) 
pfpi4k_grid

>  <i_i_glide_lignum>  (246) 
12

>  <i_i_glide_rotatable_bonds>  (246) 
3

>  <r_i_docking_score>  (246) 
-2.85393

>  <r_i_glide_ligand_efficiency>  (246) 
-0.101926

>  <r_i_glide_ligand_efficiency_sa>  (246) 
-0.309507

>  <r_i_glide_ligand_efficiency_ln>  (246) 
-0.65877

>  <r_i_glide_gscore>  (246) 
-2.85393

>  <r_i_glide_lipo>  (246) 
-0.846227

>  <r_i_glide_hbond>  (246) 
0

>  <r_i_glide_metal>  (246) 
-0

>  <r_i_glide_rewards>  (246) 
-0.606993

>  <r_i_glide_evdw>  (246) 
-20.1904

>  <r_i_glide_ecoul>  (246) 
-2.60791

>  <r_i_glide_erotb>  (246) 
0

>  <r_i_glide_esite>  (246) 
0

>  <r_i_glide_emodel>  (246) 
-25.574

>  <r_i_glide_energy>  (246) 
-22.7983

>  <r_i_glide_einternal>  (246) 
1.93512

>  <r_i_glide_intrahb_reward>  (246) 
-0

>  <i_i_glide_confnum>  (246) 
2

>  <i_i_glide_posenum>  (246) 
17

>  <r_i_glide_eff_state_penalty>  (246) 
0

>  <ligand_id>  (246) 
93

>  <original_smiles>  (246) 
CC1(CCl)CC2C(OO1)C(O)C1(C)C3CCC2C1(C)C1CC2(C)C(O)C12CC3

>  <smiles>  (246) 
[H]OC1([H])C2([H])OOC(C([H])([H])[H])(C([H])([H])Cl)C([H])([H])C2([H])C2([H])C([H])([H])C([H])([H])C3([H])C([H])([H])C([H])([H])C45C([H])(O[H])C4(C([H])([H])[H])C([H])([H])C5([H])C2(C([H])([H])[H])C13C([H])([H])[H]

$$$$
93:0:2
     RDKit          3D

 63 68  0  0  1  0  0  0  0  0999 V2000
    3.1506   -2.9556   -3.7564 C   0  0  0  0  0  0  0  0  0  0  0  0
    3.9957   -1.8127   -3.1926 C   0  0  1  0  0  0  0  0  0  0  0  0
    4.1227   -0.6443   -4.1929 C   0  0  0  0  0  0  0  0  0  0  0  0
    2.6143    0.1003   -4.7359 Cl  0  0  0  0  0  0  0  0  0  0  0  0
    3.5176   -1.2902   -1.8265 C   0  0  0  0  0  0  0  0  0  0  0  0
    3.7317   -2.3212   -0.6972 C   0  0  1  0  0  0  0  0  0  0  0  0
    5.2128   -2.6931   -0.6615 C   0  0  2  0  0  0  0  0  0  0  0  0
    5.3633   -3.3481   -1.8974 O   0  0  0  0  0  0  0  0  0  0  0  0
    5.3363   -2.2807   -2.9856 O   0  0  0  0  0  0  0  0  0  0  0  0
    5.6036   -3.5975    0.5150 C   0  0  1  0  0  0  0  0  0  0  0  0
    7.0181   -3.5810    0.6300 O   0  0  0  0  0  0  0  0  0  0  0  0
    4.9345   -3.2412    1.9055 C   0  0  1  0  0  0  0  0  0  0  0  0
    5.3012   -4.4156    2.8552 C   0  0  0  0  0  0  0  0  0  0  0  0
    5.4826   -1.8672    2.4568 C   0  0  1  0  0  0  0  0  0  0  0  0
    5.0344   -0.5969    1.6819 C   0  0  0  0  0  0  0  0  0  0  0  0
    3.5697   -0.6210    1.2273 C   0  0  0  0  0  0  0  0  0  0  0  0
    3.1441   -1.9941    0.6971 C   0  0  2  0  0  0  0  0  0  0  0  0
    3.3833   -3.1343    1.7456 C   0  0  1  0  0  0  0  0  0  0  0  0
    2.8397   -4.4792    1.1550 C   0  0  0  0  0  0  0  0  0  0  0  0
    2.5483   -2.9870    3.0949 C   0  0  2  0  0  0  0  0  0  0  0  0
    1.0680   -2.5742    3.0615 C   0  0  0  0  0  0  0  0  0  0  0  0
    1.2693   -1.6111    4.1986 C   0  0  1  0  0  0  0  0  0  0  0  0
    0.6486   -0.2451    4.0546 C   0  0  0  0  0  0  0  0  0  0  0  0
    1.8496   -2.0590    5.5046 C   0  0  1  0  0  0  0  0  0  0  0  0
    1.4366   -3.3504    5.8564 O   0  0  0  0  0  0  0  0  0  0  0  0
    2.7560   -1.9862    4.2544 C   0  0  1  0  0  0  0  0  0  0  0  0
    3.9504   -1.0914    4.4234 C   0  0  0  0  0  0  0  0  0  0  0  0
    5.3019   -1.6420    3.9655 C   0  0  0  0  0  0  0  0  0  0  0  0
    2.0999   -2.6709   -3.8341 H   0  0  0  0  0  0  0  0  0  0  0  0
    3.1767   -3.8538   -3.1452 H   0  0  0  0  0  0  0  0  0  0  0  0
    3.4803   -3.2489   -4.7516 H   0  0  0  0  0  0  0  0  0  0  0  0
    4.6361    0.1731   -3.7017 H   0  0  0  0  0  0  0  0  0  0  0  0
    4.6349   -0.9764   -5.1009 H   0  0  0  0  0  0  0  0  0  0  0  0
    4.0566   -0.3776   -1.5912 H   0  0  0  0  0  0  0  0  0  0  0  0
    2.4698   -1.0598   -1.9402 H   0  0  0  0  0  0  0  0  0  0  0  0
    3.1986   -3.2025   -1.0343 H   0  0  0  0  0  0  0  0  0  0  0  0
    5.8569   -1.8214   -0.7024 H   0  0  0  0  0  0  0  0  0  0  0  0
    5.3602   -4.6198    0.2216 H   0  0  0  0  0  0  0  0  0  0  0  0
    7.2525   -4.2447    1.2524 H   0  0  0  0  0  0  0  0  0  0  0  0
    4.7782   -4.3638    3.8077 H   0  0  0  0  0  0  0  0  0  0  0  0
    6.3669   -4.4427    3.0672 H   0  0  0  0  0  0  0  0  0  0  0  0
    5.0628   -5.3840    2.4148 H   0  0  0  0  0  0  0  0  0  0  0  0
    6.5660   -1.8824    2.3509 H   0  0  0  0  0  0  0  0  0  0  0  0
    5.1798    0.2763    2.3138 H   0  0  0  0  0  0  0  0  0  0  0  0
    5.6889   -0.4109    0.8338 H   0  0  0  0  0  0  0  0  0  0  0  0
    2.9157   -0.3642    2.0517 H   0  0  0  0  0  0  0  0  0  0  0  0
    3.3805    0.1608    0.4910 H   0  0  0  0  0  0  0  0  0  0  0  0
    2.0844   -1.9446    0.5173 H   0  0  0  0  0  0  0  0  0  0  0  0
    1.8118   -4.3456    0.8719 H   0  0  0  0  0  0  0  0  0  0  0  0
    2.8728   -5.2957    1.8813 H   0  0  0  0  0  0  0  0  0  0  0  0
    3.3165   -4.8609    0.2518 H   0  0  0  0  0  0  0  0  0  0  0  0
    2.5657   -3.9731    3.5570 H   0  0  0  0  0  0  0  0  0  0  0  0
    0.7401   -2.0753    2.1488 H   0  0  0  0  0  0  0  0  0  0  0  0
    0.4108   -3.4247    3.2808 H   0  0  0  0  0  0  0  0  0  0  0  0
    1.0998    0.4435    4.7672 H   0  0  0  0  0  0  0  0  0  0  0  0
   -0.4270   -0.3050    4.2622 H   0  0  0  0  0  0  0  0  0  0  0  0
    0.7829    0.1368    3.0382 H   0  0  0  0  0  0  0  0  0  0  0  0
    1.9266   -1.3485    6.3206 H   0  0  0  0  0  0  0  0  0  0  0  0
    1.5338   -3.8617    5.0742 H   0  0  0  0  0  0  0  0  0  0  0  0
    3.7437   -0.1039    4.0120 H   0  0  0  0  0  0  0  0  0  0  0  0
    4.0670   -0.9366    5.4967 H   0  0  0  0  0  0  0  0  0  0  0  0
    5.6019   -2.4994    4.5651 H   0  0  0  0  0  0  0  0  0  0  0  0
    6.0038   -0.8643    4.2501 H   0  0  0  0  0  0  0  0  0  0  0  0
  2  1  1  6
  1 29  1  0
  1 30  1  0
  1 31  1  0
  2  9  1  0
  2  3  1  0
  2  5  1  0
  3  4  1  0
  3 32  1  0
  3 33  1  0
  5  6  1  0
  5 34  1  0
  5 35  1  0
  6 17  1  0
  6  7  1  0
  6 36  1  6
  7  8  1  0
  7 10  1  0
  7 37  1  6
  8  9  1  0
 10 11  1  0
 10 12  1  0
 10 38  1  6
 11 39  1  0
 12 18  1  0
 12 13  1  1
 12 14  1  0
 13 40  1  0
 13 41  1  0
 13 42  1  0
 14 28  1  0
 14 15  1  0
 14 43  1  1
 15 16  1  0
 15 44  1  0
 15 45  1  0
 16 17  1  0
 16 46  1  0
 16 47  1  0
 17 18  1  0
 17 48  1  6
 18 19  1  6
 18 20  1  0
 19 49  1  0
 19 50  1  0
 19 51  1  0
 20 26  1  0
 20 21  1  0
 20 52  1  1
 21 22  1  0
 21 53  1  0
 21 54  1  0
 22 26  1  0
 22 23  1  1
 22 24  1  0
 23 55  1  0
 23 56  1  0
 23 57  1  0
 24 25  1  0
 24 26  1  0
 24 58  1  1
 25 59  1  0
 26 27  1  1
 27 28  1  0
 27 60  1  0
 27 61  1  0
 28 62  1  0
 28 63  1  0
M  END
>  <i_m_ct_stereo_status>  (247) 
1

>  <s_m_source_file>  (247) 
/var/tmp/pbs.5076255.sched01/tmp_srbpc4z/1203xlsw0nt.sdf

>  <i_m_source_file_index>  (247) 
12

>  <i_lp_mmshare_version>  (247) 
48012

>  <i_f3d_flags>  (247) 
0

>  <s_epik_input>  (247) 
Q2xbQ0gyXVtDQF0oW0NIM10pKFtDSDJdMSlPT1tDQEhdKFtDQEhdMltPSF0pW0NASF0xW0NAQEhdM1tDSDJdW0NIMl1bQ0BASF0oW0NIMl1bQ0gyXTQpW0NAQF0yKFtDSDNdKVtDQEBdMyhbQ0gzXSlbQ0BASF0oW0NAQF00NTYpW0NIMl1bQ0BAXTUoW0NIM10pW0NASF02W09IXQ==

>  <s_epik_cmdline>  (247) 
J2VwaWtfcHl0aG9uJywgJy1waHQnLCAnMi4wJywgJy1waCcsICc3LjAnLCAnLXRuJywgJzgnLCAnLW1hJywgJzIwMCcsICctaW1hZScsICc8aW5maWxlLm1hZT4nLCAnLW9tYWUnLCAnPG91dGZpbGUubWFlPic=

>  <r_lp_tautomer_probability>  (247) 
1

>  <r_epik_Ionization_Penalty>  (247) 
2.69312e-06

>  <r_epik_Ionization_Penalty_Charging>  (247) 
0

>  <r_epik_Ionization_Penalty_Neutral>  (247) 
2.69312e-06

>  <r_epik_State_Penalty>  (247) 
-0

>  <r_epik_Charging_Adjusted_Penalty>  (247) 
0

>  <i_epik_Tot_Q>  (247) 
0

>  <i_epik_Tot_abs_Q>  (247) 
0

>  <s_lp_Force_Field>  (247) 
OPLS3e

>  <r_lp_Energy>  (247) 
70.7143

>  <b_lp_Chiralities_Consistent>  (247) 
1

>  <s_lp_Variant>  (247) 
93:0-1

>  <s_i_glide_gridfile>  (247) 
pfpi4k_grid

>  <i_i_glide_lignum>  (247) 
12

>  <i_i_glide_rotatable_bonds>  (247) 
3

>  <r_i_docking_score>  (247) 
-2.59126

>  <r_i_glide_ligand_efficiency>  (247) 
-0.092545

>  <r_i_glide_ligand_efficiency_sa>  (247) 
-0.281021

>  <r_i_glide_ligand_efficiency_ln>  (247) 
-0.598139

>  <r_i_glide_gscore>  (247) 
-2.59126

>  <r_i_glide_lipo>  (247) 
-0.917393

>  <r_i_glide_hbond>  (247) 
0

>  <r_i_glide_metal>  (247) 
-0

>  <r_i_glide_rewards>  (247) 
-0.606993

>  <r_i_glide_evdw>  (247) 
-20.9343

>  <r_i_glide_ecoul>  (247) 
-0.13439

>  <r_i_glide_erotb>  (247) 
0

>  <r_i_glide_esite>  (247) 
0

>  <r_i_glide_emodel>  (247) 
-24.1425

>  <r_i_glide_energy>  (247) 
-21.0687

>  <r_i_glide_einternal>  (247) 
0.666071

>  <r_i_glide_intrahb_reward>  (247) 
-0

>  <i_i_glide_confnum>  (247) 
2

>  <i_i_glide_posenum>  (247) 
11

>  <r_i_glide_eff_state_penalty>  (247) 
0

>  <ligand_id>  (247) 
93

>  <original_smiles>  (247) 
CC1(CCl)CC2C(OO1)C(O)C1(C)C3CCC2C1(C)C1CC2(C)C(O)C12CC3

>  <smiles>  (247) 
[H]OC1([H])C2([H])OOC(C([H])([H])[H])(C([H])([H])Cl)C([H])([H])C2([H])C2([H])C([H])([H])C([H])([H])C3([H])C([H])([H])C([H])([H])C45C([H])(O[H])C4(C([H])([H])[H])C([H])([H])C5([H])C2(C([H])([H])[H])C13C([H])([H])[H]

$$$$
94:0:0
     RDKit          3D

 26 31  0  0  1  0  0  0  0  0999 V2000
    5.3136   -2.8847   -0.0041 C   0  0  0  0  0  0  0  0  0  0  0  0
    4.9265   -1.3901   -0.5138 C   0  0  2  0  0  0  0  0  0  0  0  0
    4.7713   -0.7447   -2.1165 C   0  0  2  0  0  0  0  0  0  0  0  0
    3.6054   -0.6707   -3.2669 C   0  0  0  0  0  0  0  0  0  0  0  0
    2.8426   -2.0449   -3.5287 C   0  0  2  0  0  0  0  0  0  0  0  0
    2.5142   -3.1205   -2.4337 C   0  0  2  0  0  0  0  0  0  0  0  0
    3.2087   -3.1730   -1.0685 C   0  0  1  0  0  0  0  0  0  0  0  0
    4.5420   -3.8521   -1.0695 C   0  0  1  0  0  0  0  0  0  0  0  0
    4.8428   -3.4702   -2.5678 C   0  0  2  0  0  0  0  0  0  0  0  0
    5.2067   -2.0647   -2.2721 C   0  0  1  0  0  0  0  0  0  0  0  0
    3.8703   -1.8915   -1.1565 C   0  0  2  0  0  0  0  0  0  0  0  0
    3.5985   -3.3699   -3.4254 C   0  0  2  0  0  0  0  0  0  0  0  0
    4.9549   -3.0514    1.0098 H   0  0  0  0  0  0  0  0  0  0  0  0
    6.3953   -3.0471    0.0076 H   0  0  0  0  0  0  0  0  0  0  0  0
    4.6227   -0.6953    0.2698 H   0  0  0  0  0  0  0  0  0  0  0  0
    5.5645   -0.0315   -2.3021 H   0  0  0  0  0  0  0  0  0  0  0  0
    2.8813    0.1151   -3.0481 H   0  0  0  0  0  0  0  0  0  0  0  0
    4.0670   -0.3791   -4.2076 H   0  0  0  0  0  0  0  0  0  0  0  0
    2.0918   -1.9719   -4.3125 H   0  0  0  0  0  0  0  0  0  0  0  0
    1.6302   -3.7340   -2.5442 H   0  0  0  0  0  0  0  0  0  0  0  0
    2.5584   -3.2799   -0.1976 H   0  0  0  0  0  0  0  0  0  0  0  0
    4.5179   -4.9221   -0.8500 H   0  0  0  0  0  0  0  0  0  0  0  0
    5.6383   -4.0464   -3.0502 H   0  0  0  0  0  0  0  0  0  0  0  0
    6.2954   -2.0405   -2.0540 H   0  0  0  0  0  0  0  0  0  0  0  0
    3.0505   -1.1331   -1.0245 H   0  0  0  0  0  0  0  0  0  0  0  0
    3.4140   -4.1402   -4.1637 H   0  0  0  0  0  0  0  0  0  0  0  0
  1  8  1  0
  1  2  1  0
  1 13  1  0
  1 14  1  0
  2 11  1  0
  2  3  1  0
  2 15  1  1
  3 10  1  0
  3  4  1  0
  3 16  1  1
  4  5  1  0
  4 17  1  0
  4 18  1  0
  5 12  1  0
  5  6  1  0
  5 19  1  6
  6 12  1  0
  6  7  1  0
  6 20  1  1
  7 11  1  0
  7  8  1  0
  7 21  1  1
  8  9  1  0
  8 22  1  6
  9 10  1  0
  9 12  1  0
  9 23  1  6
 10 11  1  0
 10 24  1  1
 11 25  1  6
 12 26  1  6
M  END
>  <i_m_ct_stereo_status>  (248) 
1

>  <s_m_source_file>  (248) 
/var/tmp/pbs.5076255.sched01/tmp_srbpc4z/1203xlsw0nt.sdf

>  <i_m_source_file_index>  (248) 
13

>  <i_lp_mmshare_version>  (248) 
48012

>  <i_f3d_flags>  (248) 
0

>  <s_epik_input>  (248) 
W0NIMl0xW0NAQEhdKFtDQEhdMjMpW0NAQEhdMltDQEhdKFtDQEBIXTQ1KVtDQEhdKFtDSDJdNilbQ0BASF0zW0NASF01W0NAQEhdMVtDQEBIXTQ2

>  <s_epik_cmdline>  (248) 
J2VwaWtfcHl0aG9uJywgJy1waHQnLCAnMi4wJywgJy1waCcsICc3LjAnLCAnLXRuJywgJzgnLCAnLW1hJywgJzIwMCcsICctaW1hZScsICc8aW5maWxlLm1hZT4nLCAnLW9tYWUnLCAnPG91dGZpbGUubWFlPic=

>  <r_lp_tautomer_probability>  (248) 
1

>  <r_epik_Ionization_Penalty>  (248) 
0

>  <r_epik_Ionization_Penalty_Charging>  (248) 
0

>  <r_epik_Ionization_Penalty_Neutral>  (248) 
0

>  <r_epik_State_Penalty>  (248) 
-0

>  <r_epik_Charging_Adjusted_Penalty>  (248) 
0

>  <i_epik_Tot_Q>  (248) 
0

>  <i_epik_Tot_abs_Q>  (248) 
0

>  <s_lp_Force_Field>  (248) 
OPLS3e

>  <r_lp_Energy>  (248) 
294.352

>  <b_lp_Chiralities_Consistent>  (248) 
1

>  <s_lp_Variant>  (248) 
94:0-1

>  <s_i_glide_gridfile>  (248) 
pfpi4k_grid

>  <i_i_glide_lignum>  (248) 
13

>  <i_i_glide_rotatable_bonds>  (248) 
0

>  <r_i_docking_score>  (248) 
-4.02744

>  <r_i_glide_ligand_efficiency>  (248) 
-0.33562

>  <r_i_glide_ligand_efficiency_sa>  (248) 
-0.768378

>  <r_i_glide_ligand_efficiency_ln>  (248) 
-1.15568

>  <r_i_glide_gscore>  (248) 
-4.02744

>  <r_i_glide_lipo>  (248) 
-0.702214

>  <r_i_glide_hbond>  (248) 
0

>  <r_i_glide_metal>  (248) 
-0

>  <r_i_glide_rewards>  (248) 
-2.25

>  <r_i_glide_evdw>  (248) 
-19.5218

>  <r_i_glide_ecoul>  (248) 
-0.660912

>  <r_i_glide_erotb>  (248) 
0

>  <r_i_glide_esite>  (248) 
0

>  <r_i_glide_emodel>  (248) 
-24.9056

>  <r_i_glide_energy>  (248) 
-20.1827

>  <r_i_glide_einternal>  (248) 
0

>  <r_i_glide_intrahb_reward>  (248) 
-0

>  <i_i_glide_confnum>  (248) 
1

>  <i_i_glide_posenum>  (248) 
1

>  <r_i_glide_eff_state_penalty>  (248) 
0

>  <ligand_id>  (248) 
94

>  <original_smiles>  (248) 
C1C2C3CC4C5C6C1C(C3C26)C45

>  <smiles>  (248) 
[H]C1([H])C2([H])C3([H])C([H])([H])C4([H])C5([H])C6([H])C1([H])C([H])(C3([H])C26[H])C45[H]

$$$$
94:0:1
     RDKit          3D

 26 31  0  0  1  0  0  0  0  0999 V2000
    2.8680   -3.4406   -3.6649 C   0  0  0  0  0  0  0  0  0  0  0  0
    2.4062   -3.3563   -2.1256 C   0  0  2  0  0  0  0  0  0  0  0  0
    3.3217   -3.3943   -0.6593 C   0  0  2  0  0  0  0  0  0  0  0  0
    4.1067   -2.3010    0.2698 C   0  0  0  0  0  0  0  0  0  0  0  0
    5.0593   -1.3110   -0.5548 C   0  0  2  0  0  0  0  0  0  0  0  0
    4.7846   -0.7776   -2.0033 C   0  0  2  0  0  0  0  0  0  0  0  0
    3.7444   -1.3806   -2.9507 C   0  0  1  0  0  0  0  0  0  0  0  0
    4.2207   -2.5606   -3.7129 C   0  0  1  0  0  0  0  0  0  0  0  0
    5.2590   -2.9876   -2.6017 C   0  0  2  0  0  0  0  0  0  0  0  0
    4.2760   -3.5828   -1.6819 C   0  0  1  0  0  0  0  0  0  0  0  0
    3.1605   -2.2682   -1.9812 C   0  0  2  0  0  0  0  0  0  0  0  0
    5.7943   -1.8371   -1.7918 C   0  0  2  0  0  0  0  0  0  0  0  0
    2.1045   -3.0140   -4.3178 H   0  0  0  0  0  0  0  0  0  0  0  0
    3.0446   -4.4532   -4.0186 H   0  0  0  0  0  0  0  0  0  0  0  0
    1.3574   -3.1284   -1.9746 H   0  0  0  0  0  0  0  0  0  0  0  0
    3.0900   -4.3161   -0.1373 H   0  0  0  0  0  0  0  0  0  0  0  0
    3.4108   -1.7194    0.8855 H   0  0  0  0  0  0  0  0  0  0  0  0
    4.7453   -2.8406    0.9701 H   0  0  0  0  0  0  0  0  0  0  0  0
    5.6051   -0.6178    0.0774 H   0  0  0  0  0  0  0  0  0  0  0  0
    5.1991    0.1548   -2.3287 H   0  0  0  0  0  0  0  0  0  0  0  0
    3.0542   -0.6810   -3.4275 H   0  0  0  0  0  0  0  0  0  0  0  0
    4.6061   -2.3333   -4.6968 H   0  0  0  0  0  0  0  0  0  0  0  0
    6.0433   -3.6879   -2.9068 H   0  0  0  0  0  0  0  0  0  0  0  0
    4.2169   -4.6456   -1.9545 H   0  0  0  0  0  0  0  0  0  0  0  0
    2.6338   -1.5562   -1.3186 H   0  0  0  0  0  0  0  0  0  0  0  0
    6.8324   -1.6009   -1.9174 H   0  0  0  0  0  0  0  0  0  0  0  0
  1  8  1  0
  1  2  1  0
  1 13  1  0
  1 14  1  0
  2 11  1  0
  2  3  1  0
  2 15  1  1
  3 10  1  0
  3  4  1  0
  3 16  1  1
  4  5  1  0
  4 17  1  0
  4 18  1  0
  5 12  1  0
  5  6  1  0
  5 19  1  1
  6 12  1  0
  6  7  1  0
  6 20  1  1
  7 11  1  0
  7  8  1  0
  7 21  1  6
  8  9  1  0
  8 22  1  6
  9 10  1  0
  9 12  1  0
  9 23  1  6
 10 11  1  0
 10 24  1  6
 11 25  1  1
 12 26  1  1
M  END
>  <i_m_ct_stereo_status>  (249) 
1

>  <s_m_source_file>  (249) 
/var/tmp/pbs.5076255.sched01/tmp_srbpc4z/1203xlsw0nt.sdf

>  <i_m_source_file_index>  (249) 
13

>  <i_lp_mmshare_version>  (249) 
48012

>  <i_f3d_flags>  (249) 
0

>  <s_epik_input>  (249) 
W0NIMl0xW0NAQEhdKFtDQEhdMjMpW0NAQEhdMltDQEhdKFtDQEBIXTQ1KVtDQEhdKFtDSDJdNilbQ0BASF0zW0NASF01W0NAQEhdMVtDQEBIXTQ2

>  <s_epik_cmdline>  (249) 
J2VwaWtfcHl0aG9uJywgJy1waHQnLCAnMi4wJywgJy1waCcsICc3LjAnLCAnLXRuJywgJzgnLCAnLW1hJywgJzIwMCcsICctaW1hZScsICc8aW5maWxlLm1hZT4nLCAnLW9tYWUnLCAnPG91dGZpbGUubWFlPic=

>  <r_lp_tautomer_probability>  (249) 
1

>  <r_epik_Ionization_Penalty>  (249) 
0

>  <r_epik_Ionization_Penalty_Charging>  (249) 
0

>  <r_epik_Ionization_Penalty_Neutral>  (249) 
0

>  <r_epik_State_Penalty>  (249) 
-0

>  <r_epik_Charging_Adjusted_Penalty>  (249) 
0

>  <i_epik_Tot_Q>  (249) 
0

>  <i_epik_Tot_abs_Q>  (249) 
0

>  <s_lp_Force_Field>  (249) 
OPLS3e

>  <r_lp_Energy>  (249) 
294.352

>  <b_lp_Chiralities_Consistent>  (249) 
1

>  <s_lp_Variant>  (249) 
94:0-1

>  <s_i_glide_gridfile>  (249) 
pfpi4k_grid

>  <i_i_glide_lignum>  (249) 
13

>  <i_i_glide_rotatable_bonds>  (249) 
0

>  <r_i_docking_score>  (249) 
-3.54471

>  <r_i_glide_ligand_efficiency>  (249) 
-0.295392

>  <r_i_glide_ligand_efficiency_sa>  (249) 
-0.676279

>  <r_i_glide_ligand_efficiency_ln>  (249) 
-1.01716

>  <r_i_glide_gscore>  (249) 
-3.54471

>  <r_i_glide_lipo>  (249) 
-0.764613

>  <r_i_glide_hbond>  (249) 
0

>  <r_i_glide_metal>  (249) 
-0

>  <r_i_glide_rewards>  (249) 
-2.25

>  <r_i_glide_evdw>  (249) 
-14.3046

>  <r_i_glide_ecoul>  (249) 
1.23423

>  <r_i_glide_erotb>  (249) 
0

>  <r_i_glide_esite>  (249) 
0

>  <r_i_glide_emodel>  (249) 
-17.1558

>  <r_i_glide_energy>  (249) 
-13.0703

>  <r_i_glide_einternal>  (249) 
0

>  <r_i_glide_intrahb_reward>  (249) 
-0

>  <i_i_glide_confnum>  (249) 
1

>  <i_i_glide_posenum>  (249) 
6

>  <r_i_glide_eff_state_penalty>  (249) 
0

>  <ligand_id>  (249) 
94

>  <original_smiles>  (249) 
C1C2C3CC4C5C6C1C(C3C26)C45

>  <smiles>  (249) 
[H]C1([H])C2([H])C3([H])C([H])([H])C4([H])C5([H])C6([H])C1([H])C([H])(C3([H])C26[H])C45[H]

$$$$
94:0:2
     RDKit          3D

 26 31  0  0  1  0  0  0  0  0999 V2000
    4.6648   -3.2469   -3.0135 C   0  0  0  0  0  0  0  0  0  0  0  0
    3.3212   -3.0464   -2.1369 C   0  0  2  0  0  0  0  0  0  0  0  0
    3.0220   -3.3275   -0.4411 C   0  0  2  0  0  0  0  0  0  0  0  0
    3.2057   -2.4714    0.9373 C   0  0  0  0  0  0  0  0  0  0  0  0
    4.6218   -1.7290    1.0937 C   0  0  2  0  0  0  0  0  0  0  0  0
    5.4558   -1.1067   -0.0815 C   0  0  2  0  0  0  0  0  0  0  0  0
    5.2014   -1.4450   -1.5560 C   0  0  1  0  0  0  0  0  0  0  0  0
    5.8469   -2.7162   -2.0228 C   0  0  1  0  0  0  0  0  0  0  0  0
    5.7858   -3.3872   -0.5965 C   0  0  2  0  0  0  0  0  0  0  0  0
    4.3467   -3.7265   -0.6770 C   0  0  1  0  0  0  0  0  0  0  0  0
    3.9590   -2.1634   -1.3605 C   0  0  2  0  0  0  0  0  0  0  0  0
    5.8891   -2.3811    0.5333 C   0  0  2  0  0  0  0  0  0  0  0  0
    4.6184   -2.6463   -3.9230 H   0  0  0  0  0  0  0  0  0  0  0  0
    4.8036   -4.2857   -3.3234 H   0  0  0  0  0  0  0  0  0  0  0  0
    2.4757   -2.5958   -2.6538 H   0  0  0  0  0  0  0  0  0  0  0  0
    2.3541   -4.1768   -0.3391 H   0  0  0  0  0  0  0  0  0  0  0  0
    2.3934   -1.7500    1.0590 H   0  0  0  0  0  0  0  0  0  0  0  0
    3.1152   -3.1531    1.7824 H   0  0  0  0  0  0  0  0  0  0  0  0
    4.7166   -1.1998    2.0332 H   0  0  0  0  0  0  0  0  0  0  0  0
    6.0867   -0.2488    0.1185 H   0  0  0  0  0  0  0  0  0  0  0  0
    5.1267   -0.6051   -2.2426 H   0  0  0  0  0  0  0  0  0  0  0  0
    6.8444   -2.6176   -2.4475 H   0  0  0  0  0  0  0  0  0  0  0  0
    6.4406   -4.2506   -0.4539 H   0  0  0  0  0  0  0  0  0  0  0  0
    4.2578   -4.7265   -1.1338 H   0  0  0  0  0  0  0  0  0  0  0  0
    3.1965   -1.3786   -1.1330 H   0  0  0  0  0  0  0  0  0  0  0  0
    6.7902   -2.3661    1.1354 H   0  0  0  0  0  0  0  0  0  0  0  0
  1  8  1  0
  1  2  1  0
  1 13  1  0
  1 14  1  0
  2 11  1  0
  2  3  1  0
  2 15  1  6
  3 10  1  0
  3  4  1  0
  3 16  1  6
  4  5  1  0
  4 17  1  0
  4 18  1  0
  5 12  1  0
  5  6  1  0
  5 19  1  1
  6 12  1  0
  6  7  1  0
  6 20  1  6
  7 11  1  0
  7  8  1  0
  7 21  1  6
  8  9  1  0
  8 22  1  6
  9 10  1  0
  9 12  1  0
  9 23  1  6
 10 11  1  0
 10 24  1  6
 11 25  1  1
 12 26  1  1
M  END
>  <i_m_ct_stereo_status>  (250) 
1

>  <s_m_source_file>  (250) 
/var/tmp/pbs.5076255.sched01/tmp_srbpc4z/1203xlsw0nt.sdf

>  <i_m_source_file_index>  (250) 
13

>  <i_lp_mmshare_version>  (250) 
48012

>  <i_f3d_flags>  (250) 
0

>  <s_epik_input>  (250) 
W0NIMl0xW0NAQEhdKFtDQEhdMjMpW0NAQEhdMltDQEhdKFtDQEBIXTQ1KVtDQEhdKFtDSDJdNilbQ0BASF0zW0NASF01W0NAQEhdMVtDQEBIXTQ2

>  <s_epik_cmdline>  (250) 
J2VwaWtfcHl0aG9uJywgJy1waHQnLCAnMi4wJywgJy1waCcsICc3LjAnLCAnLXRuJywgJzgnLCAnLW1hJywgJzIwMCcsICctaW1hZScsICc8aW5maWxlLm1hZT4nLCAnLW9tYWUnLCAnPG91dGZpbGUubWFlPic=

>  <r_lp_tautomer_probability>  (250) 
1

>  <r_epik_Ionization_Penalty>  (250) 
0

>  <r_epik_Ionization_Penalty_Charging>  (250) 
0

>  <r_epik_Ionization_Penalty_Neutral>  (250) 
0

>  <r_epik_State_Penalty>  (250) 
-0

>  <r_epik_Charging_Adjusted_Penalty>  (250) 
0

>  <i_epik_Tot_Q>  (250) 
0

>  <i_epik_Tot_abs_Q>  (250) 
0

>  <s_lp_Force_Field>  (250) 
OPLS3e

>  <r_lp_Energy>  (250) 
294.352

>  <b_lp_Chiralities_Consistent>  (250) 
1

>  <s_lp_Variant>  (250) 
94:0-1

>  <s_i_glide_gridfile>  (250) 
pfpi4k_grid

>  <i_i_glide_lignum>  (250) 
13

>  <i_i_glide_rotatable_bonds>  (250) 
0

>  <r_i_docking_score>  (250) 
-3.46607

>  <r_i_glide_ligand_efficiency>  (250) 
-0.288839

>  <r_i_glide_ligand_efficiency_sa>  (250) 
-0.661276

>  <r_i_glide_ligand_efficiency_ln>  (250) 
-0.994593

>  <r_i_glide_gscore>  (250) 
-3.46607

>  <r_i_glide_lipo>  (250) 
-0.34458

>  <r_i_glide_hbond>  (250) 
0

>  <r_i_glide_metal>  (250) 
-0

>  <r_i_glide_rewards>  (250) 
-2.25

>  <r_i_glide_evdw>  (250) 
-18.7592

>  <r_i_glide_ecoul>  (250) 
0.443177

>  <r_i_glide_erotb>  (250) 
0

>  <r_i_glide_esite>  (250) 
0

>  <r_i_glide_emodel>  (250) 
-22.3751

>  <r_i_glide_energy>  (250) 
-18.3161

>  <r_i_glide_einternal>  (250) 
0

>  <r_i_glide_intrahb_reward>  (250) 
-0

>  <i_i_glide_confnum>  (250) 
1

>  <i_i_glide_posenum>  (250) 
19

>  <r_i_glide_eff_state_penalty>  (250) 
0

>  <ligand_id>  (250) 
94

>  <original_smiles>  (250) 
C1C2C3CC4C5C6C1C(C3C26)C45

>  <smiles>  (250) 
[H]C1([H])C2([H])C3([H])C([H])([H])C4([H])C5([H])C6([H])C1([H])C([H])(C3([H])C26[H])C45[H]

$$$$
97:0:0
     RDKit          3D

 55 61  0  0  1  0  0  0  0  0999 V2000
    3.3507   -3.4131   -3.3924 C   0  0  0  0  0  0  0  0  0  0  0  0
    3.1878   -2.3879   -2.2495 C   0  0  2  0  0  0  0  0  0  0  0  0
    4.2443   -1.2286   -2.2797 C   0  0  0  0  0  0  0  0  0  0  0  0
    5.1788   -1.3989   -1.0292 C   0  0  1  0  0  0  0  0  0  0  0  0
    4.8157   -0.5305    0.0326 O   0  0  0  0  0  0  0  0  0  0  0  0
    4.9013   -2.8355   -0.7064 C   0  0  2  0  0  0  0  0  0  0  0  0
    3.4174   -2.9340   -0.8522 C   0  0  2  0  0  0  0  0  0  0  0  0
    3.5558   -4.3067   -0.1880 C   0  0  2  0  0  0  0  0  0  0  0  0
    2.3833   -4.8478    0.6496 C   0  0  1  0  0  0  0  0  0  0  0  0
    1.3426   -5.6603   -0.1420 C   0  0  0  0  0  0  0  0  0  0  0  0
    0.8126   -6.6733    0.8259 C   0  0  2  0  0  0  0  0  0  0  0  0
    0.3997   -6.2504    2.1479 O   0  0  0  0  0  0  0  0  0  0  0  0
    1.7453   -6.7547    1.9850 C   0  0  1  0  0  0  0  0  0  0  0  0
    2.0811   -8.0063    2.7958 C   0  0  2  0  0  0  0  0  0  0  0  0
    3.3030   -8.7794    2.2568 C   0  0  0  0  0  0  0  0  0  0  0  0
    0.8915   -8.9511    2.9255 C   0  0  2  0  0  0  0  0  0  0  0  0
    0.0395   -9.0378    4.1667 C   0  0  0  0  0  0  0  0  0  0  0  0
    1.0401  -10.0191    3.8713 O   0  0  0  0  0  0  0  0  0  0  0  0
    2.8364   -5.7065    1.8497 C   0  0  2  0  0  0  0  0  0  0  0  0
    3.0772   -4.9065    3.1521 C   0  0  0  0  0  0  0  0  0  0  0  0
    3.9098   -3.6333    3.0744 C   0  0  2  0  0  0  0  0  0  0  0  0
    3.3514   -2.5896    2.2392 O   0  0  0  0  0  0  0  0  0  0  0  0
    4.6646   -3.0605    1.8903 C   0  0  2  0  0  0  0  0  0  0  0  0
    4.8278   -3.7306    0.5365 C   0  0  2  0  0  0  0  0  0  0  0  0
    6.0076   -4.6884    0.6917 C   0  0  0  0  0  0  0  0  0  0  0  0
    4.3329   -3.8903   -3.3838 H   0  0  0  0  0  0  0  0  0  0  0  0
    3.2006   -2.9506   -4.3697 H   0  0  0  0  0  0  0  0  0  0  0  0
    2.5872   -4.1840   -3.3149 H   0  0  0  0  0  0  0  0  0  0  0  0
    2.1888   -1.9671   -2.3245 H   0  0  0  0  0  0  0  0  0  0  0  0
    4.8347   -1.2867   -3.1982 H   0  0  0  0  0  0  0  0  0  0  0  0
    3.7520   -0.2566   -2.2968 H   0  0  0  0  0  0  0  0  0  0  0  0
    6.2162   -1.2327   -1.2702 H   0  0  0  0  0  0  0  0  0  0  0  0
    4.8881    0.3625   -0.2572 H   0  0  0  0  0  0  0  0  0  0  0  0
    5.3937   -3.4561   -1.4578 H   0  0  0  0  0  0  0  0  0  0  0  0
    2.9180   -2.2755   -0.1378 H   0  0  0  0  0  0  0  0  0  0  0  0
    3.9191   -5.0317   -0.9189 H   0  0  0  0  0  0  0  0  0  0  0  0
    1.8194   -4.0133    1.0760 H   0  0  0  0  0  0  0  0  0  0  0  0
    0.6074   -5.0906   -0.7110 H   0  0  0  0  0  0  0  0  0  0  0  0
    1.8174   -6.2562   -0.8865 H   0  0  0  0  0  0  0  0  0  0  0  0
    0.3615   -7.5814    0.4385 H   0  0  0  0  0  0  0  0  0  0  0  0
    2.3251   -7.6704    3.8065 H   0  0  0  0  0  0  0  0  0  0  0  0
    3.1608   -9.0881    1.2190 H   0  0  0  0  0  0  0  0  0  0  0  0
    3.4785   -9.6822    2.8422 H   0  0  0  0  0  0  0  0  0  0  0  0
    4.2202   -8.1964    2.3232 H   0  0  0  0  0  0  0  0  0  0  0  0
    0.4491   -9.2881    1.9893 H   0  0  0  0  0  0  0  0  0  0  0  0
    0.2713   -8.4067    5.0214 H   0  0  0  0  0  0  0  0  0  0  0  0
   -0.9854   -9.3869    4.0697 H   0  0  0  0  0  0  0  0  0  0  0  0
    3.7594   -6.2053    1.5528 H   0  0  0  0  0  0  0  0  0  0  0  0
    2.1197   -4.6352    3.6055 H   0  0  0  0  0  0  0  0  0  0  0  0
    3.5694   -5.5574    3.8747 H   0  0  0  0  0  0  0  0  0  0  0  0
    4.2196   -3.2474    4.0389 H   0  0  0  0  0  0  0  0  0  0  0  0
    5.4592   -2.3600    2.1321 H   0  0  0  0  0  0  0  0  0  0  0  0
    5.8687   -5.3698    1.5314 H   0  0  0  0  0  0  0  0  0  0  0  0
    6.9453   -4.1552    0.8477 H   0  0  0  0  0  0  0  0  0  0  0  0
    6.1198   -5.3031   -0.2001 H   0  0  0  0  0  0  0  0  0  0  0  0
  1  2  1  0
  1 26  1  0
  1 27  1  0
  1 28  1  0
  2  7  1  0
  2  3  1  0
  2 29  1  1
  3  4  1  0
  3 30  1  0
  3 31  1  0
  4  5  1  0
  4  6  1  0
  4 32  1  6
  5 33  1  0
  6 24  1  0
  6  7  1  0
  6 34  1  6
  7  8  1  0
  7 35  1  1
  8 24  1  0
  8  9  1  0
  8 36  1  6
  9 19  1  0
  9 10  1  0
  9 37  1  1
 10 11  1  0
 10 38  1  0
 10 39  1  0
 11 13  1  0
 11 12  1  0
 11 40  1  6
 13 12  1  1
 13 14  1  0
 13 19  1  0
 14 15  1  0
 14 16  1  0
 14 41  1  1
 15 42  1  0
 15 43  1  0
 15 44  1  0
 16 18  1  0
 16 17  1  0
 16 45  1  6
 17 18  1  0
 17 46  1  0
 17 47  1  0
 19 20  1  0
 19 48  1  6
 20 21  1  0
 20 49  1  0
 20 50  1  0
 21 23  1  0
 21 22  1  0
 21 51  1  1
 22 23  1  0
 23 24  1  0
 23 52  1  1
 24 25  1  1
 25 53  1  0
 25 54  1  0
 25 55  1  0
M  END
>  <i_m_ct_stereo_status>  (251) 
1

>  <s_m_source_file>  (251) 
/var/tmp/pbs.5076255.sched01/tmp_srbpc4z/1203xlsw0nt.sdf

>  <i_m_source_file_index>  (251) 
16

>  <i_lp_mmshare_version>  (251) 
48012

>  <i_f3d_flags>  (251) 
0

>  <s_epik_input>  (251) 
W0NAQEhdMTJbQ0gyXVtDQEhdKE8zKVtDQEhdM1tDQF00KFtDSDNdKVtDQEhdKFtDQEhdKFtPSF0pW0NIMl1bQ0BIXTVbQ0gzXSlbQ0BASF01W0NAQEhdNFtDQEhdMVtDSDJdW0NASF0oTzYpW0NAQF0yNltDQEhdKFtDSDNdKVtDQEBIXTdbQ0gyXU83

>  <s_epik_cmdline>  (251) 
J2VwaWtfcHl0aG9uJywgJy1waHQnLCAnMi4wJywgJy1waCcsICc3LjAnLCAnLXRuJywgJzgnLCAnLW1hJywgJzIwMCcsICctaW1hZScsICc8aW5maWxlLm1hZT4nLCAnLW9tYWUnLCAnPG91dGZpbGUubWFlPic=

>  <r_lp_tautomer_probability>  (251) 
1

>  <r_epik_Ionization_Penalty>  (251) 
1.63011e-06

>  <r_epik_Ionization_Penalty_Charging>  (251) 
0

>  <r_epik_Ionization_Penalty_Neutral>  (251) 
1.63011e-06

>  <r_epik_State_Penalty>  (251) 
-0

>  <r_epik_Charging_Adjusted_Penalty>  (251) 
0

>  <i_epik_Tot_Q>  (251) 
0

>  <i_epik_Tot_abs_Q>  (251) 
0

>  <s_lp_Force_Field>  (251) 
OPLS3e

>  <r_lp_Energy>  (251) 
68.8566

>  <b_lp_Chiralities_Consistent>  (251) 
1

>  <s_lp_Variant>  (251) 
97:0-1

>  <s_i_glide_gridfile>  (251) 
pfpi4k_grid

>  <i_i_glide_lignum>  (251) 
16

>  <i_i_glide_rotatable_bonds>  (251) 
3

>  <r_i_docking_score>  (251) 
-2.42117

>  <r_i_glide_ligand_efficiency>  (251) 
-0.0968467

>  <r_i_glide_ligand_efficiency_sa>  (251) 
-0.283182

>  <r_i_glide_ligand_efficiency_ln>  (251) 
-0.57389

>  <r_i_glide_gscore>  (251) 
-2.42117

>  <r_i_glide_lipo>  (251) 
-0.291816

>  <r_i_glide_hbond>  (251) 
-0.170815

>  <r_i_glide_metal>  (251) 
-0

>  <r_i_glide_rewards>  (251) 
-1.04686

>  <r_i_glide_evdw>  (251) 
-17.6703

>  <r_i_glide_ecoul>  (251) 
-2.29961

>  <r_i_glide_erotb>  (251) 
0.316781

>  <r_i_glide_esite>  (251) 
0

>  <r_i_glide_emodel>  (251) 
-21.8544

>  <r_i_glide_energy>  (251) 
-19.9699

>  <r_i_glide_einternal>  (251) 
0.36486

>  <r_i_glide_intrahb_reward>  (251) 
-0

>  <i_i_glide_confnum>  (251) 
2

>  <i_i_glide_posenum>  (251) 
23

>  <r_i_glide_eff_state_penalty>  (251) 
0

>  <ligand_id>  (251) 
97

>  <original_smiles>  (251) 
CC1CC(O)C2C1C1C3CC4OC4(C(C)C4CO4)C3CC3OC3C21C

>  <smiles>  (251) 
[H]OC1([H])C([H])([H])C([H])(C([H])([H])[H])C2([H])C1([H])C1(C([H])([H])[H])C3([H])OC3([H])C([H])([H])C3([H])C([H])(C([H])([H])C4([H])OC43C([H])(C([H])([H])[H])C3([H])OC3([H])[H])C21[H]

$$$$
97:0:1
     RDKit          3D

 55 61  0  0  1  0  0  0  0  0999 V2000
    3.3795   -3.3874   -3.4159 C   0  0  0  0  0  0  0  0  0  0  0  0
    3.2227   -2.3821   -2.2569 C   0  0  2  0  0  0  0  0  0  0  0  0
    4.3070   -1.2442   -2.2566 C   0  0  0  0  0  0  0  0  0  0  0  0
    5.2314   -1.4663   -1.0116 C   0  0  1  0  0  0  0  0  0  0  0  0
    4.8585   -0.6274    0.0596 O   0  0  0  0  0  0  0  0  0  0  0  0
    4.9254   -2.9025   -0.7233 C   0  0  2  0  0  0  0  0  0  0  0  0
    3.4376   -2.9651   -0.8737 C   0  0  2  0  0  0  0  0  0  0  0  0
    3.5510   -4.3536   -0.2443 C   0  0  2  0  0  0  0  0  0  0  0  0
    2.3688   -4.8908    0.5693 C   0  0  1  0  0  0  0  0  0  0  0  0
    1.3050   -5.6623   -0.2390 C   0  0  0  0  0  0  0  0  0  0  0  0
    0.7499   -6.6761    0.7085 C   0  0  2  0  0  0  0  0  0  0  0  0
    0.3481   -6.2588    2.0320 O   0  0  0  0  0  0  0  0  0  0  0  0
    1.6799   -6.8067    1.8694 C   0  0  1  0  0  0  0  0  0  0  0  0
    1.9803   -8.0918    2.6463 C   0  0  2  0  0  0  0  0  0  0  0  0
    3.0892   -8.9460    1.9995 C   0  0  0  0  0  0  0  0  0  0  0  0
    0.7409   -8.9447    2.8848 C   0  0  2  0  0  0  0  0  0  0  0  0
    0.0662   -9.0357    4.2283 C   0  0  0  0  0  0  0  0  0  0  0  0
    0.9133  -10.0798    3.7431 O   0  0  0  0  0  0  0  0  0  0  0  0
    2.7981   -5.7862    1.7536 C   0  0  2  0  0  0  0  0  0  0  0  0
    3.0481   -5.0154    3.0770 C   0  0  0  0  0  0  0  0  0  0  0  0
    3.9013   -3.7488    3.0359 C   0  0  2  0  0  0  0  0  0  0  0  0
    3.3827   -2.6730    2.2239 O   0  0  0  0  0  0  0  0  0  0  0  0
    4.6753   -3.1705    1.8682 C   0  0  2  0  0  0  0  0  0  0  0  0
    4.8298   -3.8214    0.5040 C   0  0  2  0  0  0  0  0  0  0  0  0
    5.9898   -4.8097    0.6399 C   0  0  0  0  0  0  0  0  0  0  0  0
    4.3542   -3.8765   -3.4183 H   0  0  0  0  0  0  0  0  0  0  0  0
    3.2421   -2.9049   -4.3832 H   0  0  0  0  0  0  0  0  0  0  0  0
    2.6143   -4.1578   -3.3570 H   0  0  0  0  0  0  0  0  0  0  0  0
    2.2236   -1.9480   -2.3270 H   0  0  0  0  0  0  0  0  0  0  0  0
    4.9020   -1.2952   -3.1685 H   0  0  0  0  0  0  0  0  0  0  0  0
    3.8446   -0.2562   -2.2486 H   0  0  0  0  0  0  0  0  0  0  0  0
    6.2792   -1.3104   -1.2365 H   0  0  0  0  0  0  0  0  0  0  0  0
    3.9405   -0.7617    0.2420 H   0  0  0  0  0  0  0  0  0  0  0  0
    5.4198   -3.5066   -1.4875 H   0  0  0  0  0  0  0  0  0  0  0  0
    2.9399   -2.3226   -0.1479 H   0  0  0  0  0  0  0  0  0  0  0  0
    3.8989   -5.0607   -0.9916 H   0  0  0  0  0  0  0  0  0  0  0  0
    1.8274   -4.0508    1.0152 H   0  0  0  0  0  0  0  0  0  0  0  0
    0.5503   -5.0578   -0.7475 H   0  0  0  0  0  0  0  0  0  0  0  0
    1.7451   -6.2182   -1.0305 H   0  0  0  0  0  0  0  0  0  0  0  0
    0.2779   -7.5638    0.3140 H   0  0  0  0  0  0  0  0  0  0  0  0
    2.3383   -7.7943    3.6342 H   0  0  0  0  0  0  0  0  0  0  0  0
    2.8282   -9.2447    0.9827 H   0  0  0  0  0  0  0  0  0  0  0  0
    3.2588   -9.8612    2.5678 H   0  0  0  0  0  0  0  0  0  0  0  0
    4.0450   -8.4261    1.9708 H   0  0  0  0  0  0  0  0  0  0  0  0
    0.1393   -9.1776    2.0070 H   0  0  0  0  0  0  0  0  0  0  0  0
    0.4757   -8.4859    5.0727 H   0  0  0  0  0  0  0  0  0  0  0  0
   -0.9887   -9.2875    4.2703 H   0  0  0  0  0  0  0  0  0  0  0  0
    3.7059   -6.3121    1.4643 H   0  0  0  0  0  0  0  0  0  0  0  0
    2.0942   -4.7435    3.5329 H   0  0  0  0  0  0  0  0  0  0  0  0
    3.5279   -5.6923    3.7853 H   0  0  0  0  0  0  0  0  0  0  0  0
    4.2112   -3.3993    4.0158 H   0  0  0  0  0  0  0  0  0  0  0  0
    5.4885   -2.4984    2.1339 H   0  0  0  0  0  0  0  0  0  0  0  0
    5.8372   -5.5091    1.4628 H   0  0  0  0  0  0  0  0  0  0  0  0
    6.9404   -4.3015    0.8126 H   0  0  0  0  0  0  0  0  0  0  0  0
    6.0984   -5.4069   -0.2651 H   0  0  0  0  0  0  0  0  0  0  0  0
  1  2  1  0
  1 26  1  0
  1 27  1  0
  1 28  1  0
  2  7  1  0
  2  3  1  0
  2 29  1  1
  3  4  1  0
  3 30  1  0
  3 31  1  0
  4  5  1  0
  4  6  1  0
  4 32  1  6
  5 33  1  0
  6 24  1  0
  6  7  1  0
  6 34  1  6
  7  8  1  0
  7 35  1  1
  8 24  1  0
  8  9  1  0
  8 36  1  6
  9 19  1  0
  9 10  1  0
  9 37  1  1
 10 11  1  0
 10 38  1  0
 10 39  1  0
 11 13  1  0
 11 12  1  0
 11 40  1  6
 13 12  1  1
 13 14  1  0
 13 19  1  0
 14 15  1  0
 14 16  1  0
 14 41  1  1
 15 42  1  0
 15 43  1  0
 15 44  1  0
 16 18  1  0
 16 17  1  0
 16 45  1  6
 17 18  1  0
 17 46  1  0
 17 47  1  0
 19 20  1  0
 19 48  1  6
 20 21  1  0
 20 49  1  0
 20 50  1  0
 21 23  1  0
 21 22  1  0
 21 51  1  1
 22 23  1  0
 23 24  1  0
 23 52  1  1
 24 25  1  1
 25 53  1  0
 25 54  1  0
 25 55  1  0
M  END
>  <i_m_ct_stereo_status>  (252) 
1

>  <s_m_source_file>  (252) 
/var/tmp/pbs.5076255.sched01/tmp_srbpc4z/1203xlsw0nt.sdf

>  <i_m_source_file_index>  (252) 
16

>  <i_lp_mmshare_version>  (252) 
48012

>  <i_f3d_flags>  (252) 
0

>  <s_epik_input>  (252) 
W0NAQEhdMTJbQ0gyXVtDQEhdKE8zKVtDQEhdM1tDQF00KFtDSDNdKVtDQEhdKFtDQEhdKFtPSF0pW0NIMl1bQ0BIXTVbQ0gzXSlbQ0BASF01W0NAQEhdNFtDQEhdMVtDSDJdW0NASF0oTzYpW0NAQF0yNltDQEhdKFtDSDNdKVtDQEBIXTdbQ0gyXU83

>  <s_epik_cmdline>  (252) 
J2VwaWtfcHl0aG9uJywgJy1waHQnLCAnMi4wJywgJy1waCcsICc3LjAnLCAnLXRuJywgJzgnLCAnLW1hJywgJzIwMCcsICctaW1hZScsICc8aW5maWxlLm1hZT4nLCAnLW9tYWUnLCAnPG91dGZpbGUubWFlPic=

>  <r_lp_tautomer_probability>  (252) 
1

>  <r_epik_Ionization_Penalty>  (252) 
1.63011e-06

>  <r_epik_Ionization_Penalty_Charging>  (252) 
0

>  <r_epik_Ionization_Penalty_Neutral>  (252) 
1.63011e-06

>  <r_epik_State_Penalty>  (252) 
-0

>  <r_epik_Charging_Adjusted_Penalty>  (252) 
0

>  <i_epik_Tot_Q>  (252) 
0

>  <i_epik_Tot_abs_Q>  (252) 
0

>  <s_lp_Force_Field>  (252) 
OPLS3e

>  <r_lp_Energy>  (252) 
68.8566

>  <b_lp_Chiralities_Consistent>  (252) 
1

>  <s_lp_Variant>  (252) 
97:0-1

>  <s_i_glide_gridfile>  (252) 
pfpi4k_grid

>  <i_i_glide_lignum>  (252) 
16

>  <i_i_glide_rotatable_bonds>  (252) 
3

>  <r_i_docking_score>  (252) 
-2.20915

>  <r_i_glide_ligand_efficiency>  (252) 
-0.0883662

>  <r_i_glide_ligand_efficiency_sa>  (252) 
-0.258384

>  <r_i_glide_ligand_efficiency_ln>  (252) 
-0.523636

>  <r_i_glide_gscore>  (252) 
-2.20915

>  <r_i_glide_lipo>  (252) 
-0.318736

>  <r_i_glide_hbond>  (252) 
-0.20986

>  <r_i_glide_metal>  (252) 
-0

>  <r_i_glide_rewards>  (252) 
-1.04686

>  <r_i_glide_evdw>  (252) 
-17.2143

>  <r_i_glide_ecoul>  (252) 
-0.598426

>  <r_i_glide_erotb>  (252) 
0.316781

>  <r_i_glide_esite>  (252) 
0

>  <r_i_glide_emodel>  (252) 
-19.58

>  <r_i_glide_energy>  (252) 
-17.8127

>  <r_i_glide_einternal>  (252) 
0.404473

>  <r_i_glide_intrahb_reward>  (252) 
-0

>  <i_i_glide_confnum>  (252) 
2

>  <i_i_glide_posenum>  (252) 
1

>  <r_i_glide_eff_state_penalty>  (252) 
0

>  <ligand_id>  (252) 
97

>  <original_smiles>  (252) 
CC1CC(O)C2C1C1C3CC4OC4(C(C)C4CO4)C3CC3OC3C21C

>  <smiles>  (252) 
[H]OC1([H])C([H])([H])C([H])(C([H])([H])[H])C2([H])C1([H])C1(C([H])([H])[H])C3([H])OC3([H])C([H])([H])C3([H])C([H])(C([H])([H])C4([H])OC43C([H])(C([H])([H])[H])C3([H])OC3([H])[H])C21[H]

$$$$
97:0:2
     RDKit          3D

 55 61  0  0  1  0  0  0  0  0999 V2000
    3.4776   -3.4120   -3.1087 C   0  0  0  0  0  0  0  0  0  0  0  0
    3.3095   -2.4281   -1.9409 C   0  0  2  0  0  0  0  0  0  0  0  0
    4.3993   -1.2962   -1.9031 C   0  0  0  0  0  0  0  0  0  0  0  0
    5.2959   -1.5319   -0.6421 C   0  0  1  0  0  0  0  0  0  0  0  0
    4.8926   -0.6553    0.3918 O   0  0  0  0  0  0  0  0  0  0  0  0
    4.9688   -2.9737   -0.3732 C   0  0  2  0  0  0  0  0  0  0  0  0
    3.4896   -3.0383   -0.5618 C   0  0  2  0  0  0  0  0  0  0  0  0
    3.5774   -4.4372    0.0531 C   0  0  2  0  0  0  0  0  0  0  0  0
    2.3808   -4.9828    0.8554 C   0  0  1  0  0  0  0  0  0  0  0  0
    1.3489   -5.7369    0.0101 C   0  0  0  0  0  0  0  0  0  0  0  0
    0.7536   -6.7651    0.9229 C   0  0  2  0  0  0  0  0  0  0  0  0
    0.3136   -6.3489    2.2369 O   0  0  0  0  0  0  0  0  0  0  0  0
    1.6494   -6.9057    2.1045 C   0  0  1  0  0  0  0  0  0  0  0  0
    1.9275   -8.2060    2.8587 C   0  0  2  0  0  0  0  0  0  0  0  0
    2.9720   -9.0886    2.1284 C   0  0  0  0  0  0  0  0  0  0  0  0
    0.6701   -9.0150    3.2185 C   0  0  2  0  0  0  0  0  0  0  0  0
    0.6916  -10.3677    3.8964 C   0  0  0  0  0  0  0  0  0  0  0  0
    0.4212  -10.2327    2.4950 O   0  0  0  0  0  0  0  0  0  0  0  0
    2.7813   -5.8968    2.0315 C   0  0  2  0  0  0  0  0  0  0  0  0
    3.0088   -5.1342    3.3591 C   0  0  0  0  0  0  0  0  0  0  0  0
    3.8677   -3.8762    3.3476 C   0  0  2  0  0  0  0  0  0  0  0  0
    3.3693   -2.7860    2.5326 O   0  0  0  0  0  0  0  0  0  0  0  0
    4.6748   -3.2873    2.1979 C   0  0  2  0  0  0  0  0  0  0  0  0
    4.8438   -3.9154    0.8278 C   0  0  2  0  0  0  0  0  0  0  0  0
    6.0021   -4.9106    0.9806 C   0  0  0  0  0  0  0  0  0  0  0  0
    4.4396   -3.9224   -3.0962 H   0  0  0  0  0  0  0  0  0  0  0  0
    3.3663   -2.9143   -4.0737 H   0  0  0  0  0  0  0  0  0  0  0  0
    2.6821   -4.1436   -3.0722 H   0  0  0  0  0  0  0  0  0  0  0  0
    2.3137   -1.9949   -2.0289 H   0  0  0  0  0  0  0  0  0  0  0  0
    5.0118   -1.3395   -2.8066 H   0  0  0  0  0  0  0  0  0  0  0  0
    3.9410   -0.3050   -1.8963 H   0  0  0  0  0  0  0  0  0  0  0  0
    6.3502   -1.3851   -0.8351 H   0  0  0  0  0  0  0  0  0  0  0  0
    3.9937   -0.8311    0.6001 H   0  0  0  0  0  0  0  0  0  0  0  0
    5.4676   -3.5753   -1.1296 H   0  0  0  0  0  0  0  0  0  0  0  0
    2.9843   -2.4119    0.1640 H   0  0  0  0  0  0  0  0  0  0  0  0
    3.9197   -5.1401   -0.7086 H   0  0  0  0  0  0  0  0  0  0  0  0
    1.8215   -4.1536    1.2771 H   0  0  0  0  0  0  0  0  0  0  0  0
    0.6332   -5.1382   -0.5493 H   0  0  0  0  0  0  0  0  0  0  0  0
    1.8493   -6.2527   -0.7592 H   0  0  0  0  0  0  0  0  0  0  0  0
    0.2970   -7.6476    0.5143 H   0  0  0  0  0  0  0  0  0  0  0  0
    2.3396   -7.9168    3.8282 H   0  0  0  0  0  0  0  0  0  0  0  0
    2.5975   -9.3825    1.1463 H   0  0  0  0  0  0  0  0  0  0  0  0
    3.1877  -10.0175    2.6575 H   0  0  0  0  0  0  0  0  0  0  0  0
    3.9346   -8.5990    1.9928 H   0  0  0  0  0  0  0  0  0  0  0  0
   -0.2289   -8.4355    3.4153 H   0  0  0  0  0  0  0  0  0  0  0  0
    1.6512  -10.7990    4.1659 H   0  0  0  0  0  0  0  0  0  0  0  0
   -0.1608  -10.6793    4.4930 H   0  0  0  0  0  0  0  0  0  0  0  0
    3.6939   -6.4318    1.7516 H   0  0  0  0  0  0  0  0  0  0  0  0
    2.0450   -4.8591    3.7985 H   0  0  0  0  0  0  0  0  0  0  0  0
    3.4721   -5.8178    4.0726 H   0  0  0  0  0  0  0  0  0  0  0  0
    4.1630   -3.5336    4.3299 H   0  0  0  0  0  0  0  0  0  0  0  0
    5.4752   -2.6221    2.4882 H   0  0  0  0  0  0  0  0  0  0  0  0
    5.8263   -5.6181    1.7923 H   0  0  0  0  0  0  0  0  0  0  0  0
    6.9476   -4.4063    1.1799 H   0  0  0  0  0  0  0  0  0  0  0  0
    6.1268   -5.4984    0.0725 H   0  0  0  0  0  0  0  0  0  0  0  0
  1  2  1  0
  1 26  1  0
  1 27  1  0
  1 28  1  0
  2  7  1  0
  2  3  1  0
  2 29  1  1
  3  4  1  0
  3 30  1  0
  3 31  1  0
  4  5  1  0
  4  6  1  0
  4 32  1  6
  5 33  1  0
  6 24  1  0
  6  7  1  0
  6 34  1  6
  7  8  1  0
  7 35  1  1
  8 24  1  0
  8  9  1  0
  8 36  1  6
  9 19  1  0
  9 10  1  0
  9 37  1  1
 10 11  1  0
 10 38  1  0
 10 39  1  0
 11 13  1  0
 11 12  1  0
 11 40  1  6
 13 12  1  1
 13 14  1  0
 13 19  1  0
 14 15  1  0
 14 16  1  0
 14 41  1  1
 15 42  1  0
 15 43  1  0
 15 44  1  0
 16 18  1  0
 16 17  1  0
 16 45  1  1
 17 18  1  0
 17 46  1  0
 17 47  1  0
 19 20  1  0
 19 48  1  6
 20 21  1  0
 20 49  1  0
 20 50  1  0
 21 23  1  0
 21 22  1  0
 21 51  1  1
 22 23  1  0
 23 24  1  0
 23 52  1  1
 24 25  1  1
 25 53  1  0
 25 54  1  0
 25 55  1  0
M  END
>  <i_m_ct_stereo_status>  (253) 
1

>  <s_m_source_file>  (253) 
/var/tmp/pbs.5076255.sched01/tmp_srbpc4z/1203xlsw0nt.sdf

>  <i_m_source_file_index>  (253) 
16

>  <i_lp_mmshare_version>  (253) 
48012

>  <i_f3d_flags>  (253) 
0

>  <s_epik_input>  (253) 
W0NAQEhdMTJbQ0gyXVtDQEhdKE8zKVtDQEhdM1tDQF00KFtDSDNdKVtDQEhdKFtDQEhdKFtPSF0pW0NIMl1bQ0BIXTVbQ0gzXSlbQ0BASF01W0NAQEhdNFtDQEhdMVtDSDJdW0NASF0oTzYpW0NAQF0yNltDQEhdKFtDSDNdKVtDQEBIXTdbQ0gyXU83

>  <s_epik_cmdline>  (253) 
J2VwaWtfcHl0aG9uJywgJy1waHQnLCAnMi4wJywgJy1waCcsICc3LjAnLCAnLXRuJywgJzgnLCAnLW1hJywgJzIwMCcsICctaW1hZScsICc8aW5maWxlLm1hZT4nLCAnLW9tYWUnLCAnPG91dGZpbGUubWFlPic=

>  <r_lp_tautomer_probability>  (253) 
1

>  <r_epik_Ionization_Penalty>  (253) 
1.63011e-06

>  <r_epik_Ionization_Penalty_Charging>  (253) 
0

>  <r_epik_Ionization_Penalty_Neutral>  (253) 
1.63011e-06

>  <r_epik_State_Penalty>  (253) 
-0

>  <r_epik_Charging_Adjusted_Penalty>  (253) 
0

>  <i_epik_Tot_Q>  (253) 
0

>  <i_epik_Tot_abs_Q>  (253) 
0

>  <s_lp_Force_Field>  (253) 
OPLS3e

>  <r_lp_Energy>  (253) 
68.8566

>  <b_lp_Chiralities_Consistent>  (253) 
1

>  <s_lp_Variant>  (253) 
97:0-1

>  <s_i_glide_gridfile>  (253) 
pfpi4k_grid

>  <i_i_glide_lignum>  (253) 
16

>  <i_i_glide_rotatable_bonds>  (253) 
3

>  <r_i_docking_score>  (253) 
-2.04701

>  <r_i_glide_ligand_efficiency>  (253) 
-0.0818804

>  <r_i_glide_ligand_efficiency_sa>  (253) 
-0.23942

>  <r_i_glide_ligand_efficiency_ln>  (253) 
-0.485203

>  <r_i_glide_gscore>  (253) 
-2.04701

>  <r_i_glide_lipo>  (253) 
-0.203849

>  <r_i_glide_hbond>  (253) 
-0.153047

>  <r_i_glide_metal>  (253) 
-0

>  <r_i_glide_rewards>  (253) 
-1.04686

>  <r_i_glide_evdw>  (253) 
-18.7094

>  <r_i_glide_ecoul>  (253) 
-0.163779

>  <r_i_glide_erotb>  (253) 
0.316781

>  <r_i_glide_esite>  (253) 
0

>  <r_i_glide_emodel>  (253) 
-17.7768

>  <r_i_glide_energy>  (253) 
-18.8731

>  <r_i_glide_einternal>  (253) 
5.07125

>  <r_i_glide_intrahb_reward>  (253) 
-0

>  <i_i_glide_confnum>  (253) 
2

>  <i_i_glide_posenum>  (253) 
32

>  <r_i_glide_eff_state_penalty>  (253) 
0

>  <ligand_id>  (253) 
97

>  <original_smiles>  (253) 
CC1CC(O)C2C1C1C3CC4OC4(C(C)C4CO4)C3CC3OC3C21C

>  <smiles>  (253) 
[H]OC1([H])C([H])([H])C([H])(C([H])([H])[H])C2([H])C1([H])C1(C([H])([H])[H])C3([H])OC3([H])C([H])([H])C3([H])C([H])(C([H])([H])C4([H])OC43C([H])(C([H])([H])[H])C3([H])OC3([H])[H])C21[H]

$$$$
100:0:0
     RDKit          3D

 60 65  0  0  1  0  0  0  0  0999 V2000
    8.4461   -2.6610   -1.5102 C   0  0  0  0  0  0  0  0  0  0  0  0
    7.0727   -2.3038   -1.4543 O   0  0  0  0  0  0  0  0  0  0  0  0
    6.2219   -3.0863   -0.7033 C   0  0  0  0  0  0  0  0  0  0  0  0
    4.8585   -2.7475   -0.7363 C   0  0  0  0  0  0  0  0  0  0  0  0
    3.8954   -3.4756   -0.0074 C   0  0  0  0  0  0  0  0  0  0  0  0
    4.2487   -4.5816    0.7961 C   0  0  0  0  0  0  0  0  0  0  0  0
    5.6852   -4.9252    0.8234 C   0  0  0  0  0  0  0  0  0  0  0  0
    6.6327   -4.1830    0.0877 C   0  0  0  0  0  0  0  0  0  0  0  0
    6.1309   -6.1177    1.6802 C   0  0  1  0  0  0  0  0  0  0  0  0
    7.3542   -7.0001    1.9181 C   0  0  0  0  0  0  0  0  0  0  0  0
    7.2414   -8.2625    2.4931 C   0  0  0  0  0  0  0  0  0  0  0  0
    5.9737   -9.1821    2.8974 C   0  0  1  0  0  0  0  0  0  0  0  0
    6.3841  -10.1302    4.0557 C   0  0  2  0  0  0  0  0  0  0  0  0
    5.3726  -11.2433    4.3617 C   0  0  0  0  0  0  0  0  0  0  0  0
    6.6194   -9.3966    5.2381 O   0  0  0  0  0  0  0  0  0  0  0  0
    4.5152   -8.5127    3.1511 C   0  0  2  0  0  0  0  0  0  0  0  0
    3.0690   -9.0217    2.8570 C   0  0  0  0  0  0  0  0  0  0  0  0
    2.2095   -7.7644    2.7187 N   0  0  2  0  0  0  0  0  0  0  0  0
    0.8352   -8.0278    2.2211 C   0  0  0  0  0  0  0  0  0  0  0  0
   -0.0160   -8.7942    3.2214 C   0  0  0  0  0  0  0  0  0  0  0  0
   -0.1525  -10.2954    3.1161 C   0  0  0  0  0  0  0  0  0  0  0  0
   -1.3304   -9.4174    2.7928 C   0  0  0  0  0  0  0  0  0  0  0  0
    3.0461   -6.9081    1.8425 C   0  0  1  0  0  0  0  0  0  0  0  0
    3.0179   -5.3118    1.5770 C   0  0  0  0  0  0  0  0  0  0  0  0
    4.3634   -7.2154    2.4347 C   0  0  1  0  0  0  0  0  0  0  0  0
    4.7724   -6.2108    3.4894 C   0  0  0  0  0  0  0  0  0  0  0  0
    5.8481   -5.6230    3.0618 C   0  0  0  0  0  0  0  0  0  0  0  0
    5.1862   -7.1556    1.1812 C   0  0  0  0  0  0  0  0  0  0  0  0
    8.9683   -1.9645   -2.1679 H   0  0  0  0  0  0  0  0  0  0  0  0
    8.5975   -3.6613   -1.9169 H   0  0  0  0  0  0  0  0  0  0  0  0
    8.9202   -2.5939   -0.5308 H   0  0  0  0  0  0  0  0  0  0  0  0
    4.5360   -1.9073   -1.3319 H   0  0  0  0  0  0  0  0  0  0  0  0
    2.8622   -3.1614   -0.0728 H   0  0  0  0  0  0  0  0  0  0  0  0
    7.6693   -4.4714    0.1465 H   0  0  0  0  0  0  0  0  0  0  0  0
    8.3232   -6.5945    1.6757 H   0  0  0  0  0  0  0  0  0  0  0  0
    8.1825   -8.7687    2.6326 H   0  0  0  0  0  0  0  0  0  0  0  0
    5.8547   -9.8485    2.0402 H   0  0  0  0  0  0  0  0  0  0  0  0
    7.3243  -10.6140    3.7872 H   0  0  0  0  0  0  0  0  0  0  0  0
    5.1360  -11.8154    3.4643 H   0  0  0  0  0  0  0  0  0  0  0  0
    4.4430  -10.8465    4.7680 H   0  0  0  0  0  0  0  0  0  0  0  0
    5.7720  -11.9424    5.0975 H   0  0  0  0  0  0  0  0  0  0  0  0
    6.8318  -10.0066    5.9299 H   0  0  0  0  0  0  0  0  0  0  0  0
    4.4747   -8.3573    4.2319 H   0  0  0  0  0  0  0  0  0  0  0  0
    3.0525   -9.5884    1.9229 H   0  0  0  0  0  0  0  0  0  0  0  0
    2.6975   -9.6730    3.6491 H   0  0  0  0  0  0  0  0  0  0  0  0
    0.3279   -7.0849    2.0187 H   0  0  0  0  0  0  0  0  0  0  0  0
    0.8733   -8.5794    1.2804 H   0  0  0  0  0  0  0  0  0  0  0  0
   -0.0239   -8.3723    4.2293 H   0  0  0  0  0  0  0  0  0  0  0  0
    0.3503  -10.7944    2.2890 H   0  0  0  0  0  0  0  0  0  0  0  0
   -0.1755  -10.8561    4.0503 H   0  0  0  0  0  0  0  0  0  0  0  0
   -2.1517   -9.4366    3.5061 H   0  0  0  0  0  0  0  0  0  0  0  0
   -1.6299   -9.3507    1.7476 H   0  0  0  0  0  0  0  0  0  0  0  0
    2.8857   -7.3901    0.8790 H   0  0  0  0  0  0  0  0  0  0  0  0
    2.8672   -4.7690    2.5127 H   0  0  0  0  0  0  0  0  0  0  0  0
    2.1138   -5.1078    1.0057 H   0  0  0  0  0  0  0  0  0  0  0  0
    4.2909   -6.0580    4.4441 H   0  0  0  0  0  0  0  0  0  0  0  0
    6.4234   -4.8719    3.5743 H   0  0  0  0  0  0  0  0  0  0  0  0
    4.7130   -6.8916    0.2314 H   0  0  0  0  0  0  0  0  0  0  0  0
    5.5613   -8.1020    0.7944 H   0  0  0  0  0  0  0  0  0  0  0  0
    2.1598   -7.3338    3.6330 H   0  0  0  0  0  0  0  0  0  0  0  0
  1  2  1  0
  1 29  1  0
  1 30  1  0
  1 31  1  0
  2  3  1  0
  3  8  2  0
  3  4  1  0
  4  5  2  0
  4 32  1  0
  5  6  1  0
  5 33  1  0
  6 24  1  0
  6  7  2  0
  7  8  1  0
  7  9  1  0
  8 34  1  0
  9 27  1  1
  9 28  1  0
  9 10  1  0
 10 11  2  0
 10 35  1  0
 11 12  1  0
 11 36  1  0
 12 13  1  0
 12 16  1  0
 12 37  1  6
 13 14  1  0
 13 15  1  0
 13 38  1  6
 14 39  1  0
 14 40  1  0
 14 41  1  0
 15 42  1  0
 16 25  1  0
 16 17  1  0
 16 43  1  1
 17 18  1  0
 17 44  1  0
 17 45  1  0
 18 19  1  0
 18 23  1  0
 18 60  1  1
 19 20  1  0
 19 46  1  0
 19 47  1  0
 20 22  1  0
 20 21  1  0
 20 48  1  0
 21 22  1  0
 21 49  1  0
 21 50  1  0
 22 51  1  0
 22 52  1  0
 23 24  1  0
 23 25  1  0
 23 53  1  6
 24 54  1  0
 24 55  1  0
 25 26  1  1
 25 28  1  0
 26 27  2  0
 26 56  1  0
 27 57  1  0
 28 58  1  0
 28 59  1  0
M  CHG  1  18   1
M  END
>  <i_m_ct_stereo_status>  (254) 
1

>  <s_m_source_file>  (254) 
/var/tmp/pbs.5076255.sched01/tmp_srbpc4z/1203xlsw0nt.sdf

>  <i_m_source_file_index>  (254) 
19

>  <i_lp_mmshare_version>  (254) 
48012

>  <i_f3d_flags>  (254) 
0

>  <s_epik_input>  (254) 
W0NIM11PYyhbY0hdMSlbY0hdW2NIXWMoYzFbQ0BAXTIzNClbQ0gyXVtDQEhdNUMoW0NIMl00KShbQ0hdPVtDSF0zKVtDQEhdKFtDQEBIXShbQ0hdPVtDSF0yKVtDQEhdKFtDSDNdKVtPSF0pW0NIMl1ONVtDSDJdW0NIXTZbQ0gyXVtDSDJdNg==

>  <s_epik_cmdline>  (254) 
J2VwaWtfcHl0aG9uJywgJy1waHQnLCAnMi4wJywgJy1waCcsICc3LjAnLCAnLXRuJywgJzgnLCAnLW1hJywgJzIwMCcsICctaW1hZScsICc8aW5maWxlLm1hZT4nLCAnLW9tYWUnLCAnPG91dGZpbGUubWFlPic=

>  <r_lp_tautomer_probability>  (254) 
1

>  <r_epik_Ionization_Penalty>  (254) 
0.00118392

>  <r_epik_Ionization_Penalty_Charging>  (254) 
0.00118383

>  <r_epik_Ionization_Penalty_Neutral>  (254) 
8.72951e-08

>  <r_epik_State_Penalty>  (254) 
0.000780534

>  <r_epik_Charging_Adjusted_Penalty>  (254) 
0.00196437

>  <i_epik_Tot_Q>  (254) 
1

>  <i_epik_Tot_abs_Q>  (254) 
1

>  <s_lp_Force_Field>  (254) 
OPLS3e

>  <r_lp_Energy>  (254) 
179.477

>  <b_lp_Chiralities_Consistent>  (254) 
1

>  <s_lp_Variant>  (254) 
100:0-1

>  <s_i_glide_gridfile>  (254) 
pfpi4k_grid

>  <i_i_glide_lignum>  (254) 
19

>  <i_i_glide_rotatable_bonds>  (254) 
5

>  <r_i_docking_score>  (254) 
-2.88376

>  <r_i_glide_ligand_efficiency>  (254) 
-0.102991

>  <r_i_glide_ligand_efficiency_sa>  (254) 
-0.312743

>  <r_i_glide_ligand_efficiency_ln>  (254) 
-0.665656

>  <r_i_glide_gscore>  (254) 
-2.88376

>  <r_i_glide_lipo>  (254) 
-0.546557

>  <r_i_glide_hbond>  (254) 
-0.16

>  <r_i_glide_metal>  (254) 
-0

>  <r_i_glide_rewards>  (254) 
-0.828224

>  <r_i_glide_evdw>  (254) 
-23.8485

>  <r_i_glide_ecoul>  (254) 
-3.69092

>  <r_i_glide_erotb>  (254) 
0.405774

>  <r_i_glide_esite>  (254) 
-0.00868896

>  <r_i_glide_emodel>  (254) 
-34.1168

>  <r_i_glide_energy>  (254) 
-27.5394

>  <r_i_glide_einternal>  (254) 
0.410554

>  <r_i_glide_intrahb_reward>  (254) 
-0

>  <i_i_glide_confnum>  (254) 
1

>  <i_i_glide_posenum>  (254) 
18

>  <r_i_glide_eff_state_penalty>  (254) 
0

>  <ligand_id>  (254) 
100

>  <original_smiles>  (254) 
COc1ccc2c(c1)C13C=CC(C(C)O)C4CN(CC5CC5)C(C2)C4(C=C1)C3

>  <smiles>  (254) 
[H]OC([H])(C([H])([H])[H])C1([H])C([H])=C([H])C23C([H])=C([H])C4(C2([H])[H])C1([H])C([H])([H])[N+]([H])(C([H])([H])C1([H])C([H])([H])C1([H])[H])C4([H])C([H])([H])c1c([H])c([H])c(OC([H])([H])[H])c([H])c13

$$$$
100:0:1
     RDKit          3D

 60 65  0  0  1  0  0  0  0  0999 V2000
    8.3957   -2.7116   -1.1117 C   0  0  0  0  0  0  0  0  0  0  0  0
    7.0508   -2.2660   -0.9954 O   0  0  0  0  0  0  0  0  0  0  0  0
    6.1538   -3.0585   -0.3082 C   0  0  0  0  0  0  0  0  0  0  0  0
    4.8213   -2.6085   -0.2572 C   0  0  0  0  0  0  0  0  0  0  0  0
    3.8151   -3.3343    0.4095 C   0  0  0  0  0  0  0  0  0  0  0  0
    4.0872   -4.5529    1.0706 C   0  0  0  0  0  0  0  0  0  0  0  0
    5.4901   -5.0125    1.0154 C   0  0  0  0  0  0  0  0  0  0  0  0
    6.4838   -4.2693    0.3422 C   0  0  0  0  0  0  0  0  0  0  0  0
    5.8504   -6.3298    1.7146 C   0  0  1  0  0  0  0  0  0  0  0  0
    6.9966   -7.3330    1.8143 C   0  0  0  0  0  0  0  0  0  0  0  0
    6.7859   -8.6384    2.2439 C   0  0  0  0  0  0  0  0  0  0  0  0
    5.4550   -9.4954    2.5719 C   0  0  1  0  0  0  0  0  0  0  0  0
    5.8072  -10.6026    3.6012 C   0  0  2  0  0  0  0  0  0  0  0  0
    4.7073  -11.6516    3.8171 C   0  0  0  0  0  0  0  0  0  0  0  0
    6.1426  -10.0334    4.8484 O   0  0  0  0  0  0  0  0  0  0  0  0
    4.0679   -8.7421    2.9440 C   0  0  2  0  0  0  0  0  0  0  0  0
    2.5805   -9.0988    2.6325 C   0  0  0  0  0  0  0  0  0  0  0  0
    1.8258   -7.7695    2.6729 N   0  0  2  0  0  0  0  0  0  0  0  0
    0.4197   -7.8495    2.2007 C   0  0  0  0  0  0  0  0  0  0  0  0
   -0.4682   -8.6990    3.1005 C   0  0  0  0  0  0  0  0  0  0  0  0
   -1.9760   -8.6149    2.9931 C   0  0  0  0  0  0  0  0  0  0  0  0
   -1.2782   -8.0556    4.2039 C   0  0  0  0  0  0  0  0  0  0  0  0
    2.7141   -6.8807    1.8820 C   0  0  1  0  0  0  0  0  0  0  0  0
    2.8139   -5.2661    1.7981 C   0  0  0  0  0  0  0  0  0  0  0  0
    4.0141   -7.3618    2.3898 C   0  0  1  0  0  0  0  0  0  0  0  0
    4.5282   -6.5234    3.5414 C   0  0  0  0  0  0  0  0  0  0  0  0
    5.6398   -5.9776    3.1532 C   0  0  0  0  0  0  0  0  0  0  0  0
    4.8118   -7.2211    1.1256 C   0  0  0  0  0  0  0  0  0  0  0  0
    8.9674   -1.9852   -1.6911 H   0  0  0  0  0  0  0  0  0  0  0  0
    8.4640   -3.6644   -1.6385 H   0  0  0  0  0  0  0  0  0  0  0  0
    8.8810   -2.7948   -0.1382 H   0  0  0  0  0  0  0  0  0  0  0  0
    4.5606   -1.6797   -0.7419 H   0  0  0  0  0  0  0  0  0  0  0  0
    2.8103   -2.9305    0.4105 H   0  0  0  0  0  0  0  0  0  0  0  0
    7.4936   -4.6478    0.3377 H   0  0  0  0  0  0  0  0  0  0  0  0
    7.9931   -6.9792    1.5989 H   0  0  0  0  0  0  0  0  0  0  0  0
    7.6798   -9.2337    2.3163 H   0  0  0  0  0  0  0  0  0  0  0  0
    5.2635  -10.0460    1.6485 H   0  0  0  0  0  0  0  0  0  0  0  0
    6.6922  -11.1329    3.2460 H   0  0  0  0  0  0  0  0  0  0  0  0
    4.3971  -12.0940    2.8705 H   0  0  0  0  0  0  0  0  0  0  0  0
    3.8280  -11.2254    4.2981 H   0  0  0  0  0  0  0  0  0  0  0  0
    5.0598  -12.4638    4.4539 H   0  0  0  0  0  0  0  0  0  0  0  0
    6.3220  -10.7357    5.4580 H   0  0  0  0  0  0  0  0  0  0  0  0
    4.0609   -8.7132    4.0358 H   0  0  0  0  0  0  0  0  0  0  0  0
    2.4975   -9.5465    1.6398 H   0  0  0  0  0  0  0  0  0  0  0  0
    2.1845   -9.8087    3.3578 H   0  0  0  0  0  0  0  0  0  0  0  0
   -0.0063   -6.8494    2.1370 H   0  0  0  0  0  0  0  0  0  0  0  0
    0.3811   -8.2502    1.1919 H   0  0  0  0  0  0  0  0  0  0  0  0
   -0.1045   -9.7121    3.2827 H   0  0  0  0  0  0  0  0  0  0  0  0
   -2.4125   -7.9148    2.2847 H   0  0  0  0  0  0  0  0  0  0  0  0
   -2.5462   -9.5266    3.1521 H   0  0  0  0  0  0  0  0  0  0  0  0
   -1.3653   -8.6176    5.1329 H   0  0  0  0  0  0  0  0  0  0  0  0
   -1.2188   -6.9731    4.3072 H   0  0  0  0  0  0  0  0  0  0  0  0
    2.4919   -7.2302    0.8762 H   0  0  0  0  0  0  0  0  0  0  0  0
    2.7277   -4.8260    2.7934 H   0  0  0  0  0  0  0  0  0  0  0  0
    1.9191   -4.9244    1.2805 H   0  0  0  0  0  0  0  0  0  0  0  0
    4.0759   -6.4461    4.5189 H   0  0  0  0  0  0  0  0  0  0  0  0
    6.2892   -5.3385    3.7306 H   0  0  0  0  0  0  0  0  0  0  0  0
    4.3418   -6.8093    0.2280 H   0  0  0  0  0  0  0  0  0  0  0  0
    5.1000   -8.1405    0.6150 H   0  0  0  0  0  0  0  0  0  0  0  0
    1.8278   -7.4506    3.6318 H   0  0  0  0  0  0  0  0  0  0  0  0
  1  2  1  0
  1 29  1  0
  1 30  1  0
  1 31  1  0
  2  3  1  0
  3  8  2  0
  3  4  1  0
  4  5  2  0
  4 32  1  0
  5  6  1  0
  5 33  1  0
  6 24  1  0
  6  7  2  0
  7  8  1  0
  7  9  1  0
  8 34  1  0
  9 27  1  1
  9 28  1  0
  9 10  1  0
 10 11  2  0
 10 35  1  0
 11 12  1  0
 11 36  1  0
 12 13  1  0
 12 16  1  0
 12 37  1  6
 13 14  1  0
 13 15  1  0
 13 38  1  6
 14 39  1  0
 14 40  1  0
 14 41  1  0
 15 42  1  0
 16 25  1  0
 16 17  1  0
 16 43  1  1
 17 18  1  0
 17 44  1  0
 17 45  1  0
 18 19  1  0
 18 23  1  0
 18 60  1  1
 19 20  1  0
 19 46  1  0
 19 47  1  0
 20 22  1  0
 20 21  1  0
 20 48  1  0
 21 22  1  0
 21 49  1  0
 21 50  1  0
 22 51  1  0
 22 52  1  0
 23 24  1  0
 23 25  1  0
 23 53  1  6
 24 54  1  0
 24 55  1  0
 25 26  1  1
 25 28  1  0
 26 27  2  0
 26 56  1  0
 27 57  1  0
 28 58  1  0
 28 59  1  0
M  CHG  1  18   1
M  END
>  <i_m_ct_stereo_status>  (255) 
1

>  <s_m_source_file>  (255) 
/var/tmp/pbs.5076255.sched01/tmp_srbpc4z/1203xlsw0nt.sdf

>  <i_m_source_file_index>  (255) 
19

>  <i_lp_mmshare_version>  (255) 
48012

>  <i_f3d_flags>  (255) 
0

>  <s_epik_input>  (255) 
W0NIM11PYyhbY0hdMSlbY0hdW2NIXWMoYzFbQ0BAXTIzNClbQ0gyXVtDQEhdNUMoW0NIMl00KShbQ0hdPVtDSF0zKVtDQEhdKFtDQEBIXShbQ0hdPVtDSF0yKVtDQEhdKFtDSDNdKVtPSF0pW0NIMl1ONVtDSDJdW0NIXTZbQ0gyXVtDSDJdNg==

>  <s_epik_cmdline>  (255) 
J2VwaWtfcHl0aG9uJywgJy1waHQnLCAnMi4wJywgJy1waCcsICc3LjAnLCAnLXRuJywgJzgnLCAnLW1hJywgJzIwMCcsICctaW1hZScsICc8aW5maWxlLm1hZT4nLCAnLW9tYWUnLCAnPG91dGZpbGUubWFlPic=

>  <r_lp_tautomer_probability>  (255) 
1

>  <r_epik_Ionization_Penalty>  (255) 
0.00118392

>  <r_epik_Ionization_Penalty_Charging>  (255) 
0.00118383

>  <r_epik_Ionization_Penalty_Neutral>  (255) 
8.72951e-08

>  <r_epik_State_Penalty>  (255) 
0.000780534

>  <r_epik_Charging_Adjusted_Penalty>  (255) 
0.00196437

>  <i_epik_Tot_Q>  (255) 
1

>  <i_epik_Tot_abs_Q>  (255) 
1

>  <s_lp_Force_Field>  (255) 
OPLS3e

>  <r_lp_Energy>  (255) 
179.477

>  <b_lp_Chiralities_Consistent>  (255) 
1

>  <s_lp_Variant>  (255) 
100:0-1

>  <s_i_glide_gridfile>  (255) 
pfpi4k_grid

>  <i_i_glide_lignum>  (255) 
19

>  <i_i_glide_rotatable_bonds>  (255) 
5

>  <r_i_docking_score>  (255) 
-2.87475

>  <r_i_glide_ligand_efficiency>  (255) 
-0.10267

>  <r_i_glide_ligand_efficiency_sa>  (255) 
-0.311765

>  <r_i_glide_ligand_efficiency_ln>  (255) 
-0.663576

>  <r_i_glide_gscore>  (255) 
-2.87475

>  <r_i_glide_lipo>  (255) 
-0.554291

>  <r_i_glide_hbond>  (255) 
-0.16

>  <r_i_glide_metal>  (255) 
-0

>  <r_i_glide_rewards>  (255) 
-0.828224

>  <r_i_glide_evdw>  (255) 
-25.0325

>  <r_i_glide_ecoul>  (255) 
-3.14748

>  <r_i_glide_erotb>  (255) 
0.405774

>  <r_i_glide_esite>  (255) 
-0.0142587

>  <r_i_glide_emodel>  (255) 
-34.6622

>  <r_i_glide_energy>  (255) 
-28.18

>  <r_i_glide_einternal>  (255) 
0.531753

>  <r_i_glide_intrahb_reward>  (255) 
-0

>  <i_i_glide_confnum>  (255) 
2

>  <i_i_glide_posenum>  (255) 
26

>  <r_i_glide_eff_state_penalty>  (255) 
0

>  <ligand_id>  (255) 
100

>  <original_smiles>  (255) 
COc1ccc2c(c1)C13C=CC(C(C)O)C4CN(CC5CC5)C(C2)C4(C=C1)C3

>  <smiles>  (255) 
[H]OC([H])(C([H])([H])[H])C1([H])C([H])=C([H])C23C([H])=C([H])C4(C2([H])[H])C1([H])C([H])([H])[N+]([H])(C([H])([H])C1([H])C([H])([H])C1([H])[H])C4([H])C([H])([H])c1c([H])c([H])c(OC([H])([H])[H])c([H])c13

$$$$
100:0:2
     RDKit          3D

 60 65  0  0  1  0  0  0  0  0999 V2000
    5.0578   -2.8243   -1.5407 C   0  0  0  0  0  0  0  0  0  0  0  0
    5.6753   -3.9126   -0.8411 O   0  0  0  0  0  0  0  0  0  0  0  0
    4.8537   -4.7260   -0.0735 C   0  0  0  0  0  0  0  0  0  0  0  0
    3.4663   -4.5127    0.1118 C   0  0  0  0  0  0  0  0  0  0  0  0
    2.6902   -5.3611    0.9158 C   0  0  0  0  0  0  0  0  0  0  0  0
    3.2416   -6.4670    1.5824 C   0  0  0  0  0  0  0  0  0  0  0  0
    4.6780   -6.7076    1.3826 C   0  0  0  0  0  0  0  0  0  0  0  0
    5.4572   -5.8370    0.5696 C   0  0  0  0  0  0  0  0  0  0  0  0
    5.2894   -7.9234    2.0996 C   0  0  1  0  0  0  0  0  0  0  0  0
    6.5660   -8.7488    2.1406 C   0  0  0  0  0  0  0  0  0  0  0  0
    6.5727  -10.0529    2.6356 C   0  0  0  0  0  0  0  0  0  0  0  0
    5.4103  -11.0611    3.1254 C   0  0  1  0  0  0  0  0  0  0  0  0
    6.0131  -12.0461    4.1591 C   0  0  2  0  0  0  0  0  0  0  0  0
    5.0785  -13.1915    4.5770 C   0  0  0  0  0  0  0  0  0  0  0  0
    6.4571  -11.3588    5.3085 O   0  0  0  0  0  0  0  0  0  0  0  0
    3.9722  -10.4925    3.5994 C   0  0  2  0  0  0  0  0  0  0  0  0
    2.5222  -11.0586    3.4418 C   0  0  0  0  0  0  0  0  0  0  0  0
    1.6078   -9.8487    3.4726 N   0  0  2  0  0  0  0  0  0  0  0  0
    0.2109  -10.1658    3.1110 C   0  0  0  0  0  0  0  0  0  0  0  0
   -0.7353   -9.0102    3.3675 C   0  0  0  0  0  0  0  0  0  0  0  0
   -2.1219   -8.9770    2.7602 C   0  0  0  0  0  0  0  0  0  0  0  0
   -1.0738   -8.0373    2.2632 C   0  0  0  0  0  0  0  0  0  0  0  0
    2.2968   -8.9030    2.5685 C   0  0  1  0  0  0  0  0  0  0  0  0
    2.1738   -7.2984    2.4561 C   0  0  0  0  0  0  0  0  0  0  0  0
    3.6826   -9.1708    2.9883 C   0  0  1  0  0  0  0  0  0  0  0  0
    4.1674   -8.2118    4.0502 C   0  0  0  0  0  0  0  0  0  0  0  0
    5.1475   -7.5342    3.5362 C   0  0  0  0  0  0  0  0  0  0  0  0
    4.3392   -8.9867    1.6456 C   0  0  0  0  0  0  0  0  0  0  0  0
    5.7572   -2.2315   -2.1335 H   0  0  0  0  0  0  0  0  0  0  0  0
    4.5864   -2.1334   -0.8410 H   0  0  0  0  0  0  0  0  0  0  0  0
    4.2916   -3.1911   -2.2253 H   0  0  0  0  0  0  0  0  0  0  0  0
    2.9026   -3.7005   -0.3286 H   0  0  0  0  0  0  0  0  0  0  0  0
    1.6447   -5.1207    1.0115 H   0  0  0  0  0  0  0  0  0  0  0  0
    6.5139   -6.0170    0.4472 H   0  0  0  0  0  0  0  0  0  0  0  0
    7.4695   -8.2685    1.8016 H   0  0  0  0  0  0  0  0  0  0  0  0
    7.5368  -10.5363    2.6328 H   0  0  0  0  0  0  0  0  0  0  0  0
    5.2295  -11.6829    2.2481 H   0  0  0  0  0  0  0  0  0  0  0  0
    6.9044  -12.4992    3.7180 H   0  0  0  0  0  0  0  0  0  0  0  0
    4.7043  -13.7286    3.7057 H   0  0  0  0  0  0  0  0  0  0  0  0
    4.2224  -12.8342    5.1496 H   0  0  0  0  0  0  0  0  0  0  0  0
    5.6033  -13.9093    5.2072 H   0  0  0  0  0  0  0  0  0  0  0  0
    5.7063  -11.0250    5.7722 H   0  0  0  0  0  0  0  0  0  0  0  0
    4.0591  -10.3959    4.6818 H   0  0  0  0  0  0  0  0  0  0  0  0
    2.4417  -11.5656    2.4870 H   0  0  0  0  0  0  0  0  0  0  0  0
    2.2777  -11.7741    4.2305 H   0  0  0  0  0  0  0  0  0  0  0  0
    0.0868  -10.5114    2.0856 H   0  0  0  0  0  0  0  0  0  0  0  0
   -0.1210  -10.9864    3.7461 H   0  0  0  0  0  0  0  0  0  0  0  0
   -0.7053   -8.6282    4.3876 H   0  0  0  0  0  0  0  0  0  0  0  0
   -2.4231   -9.7752    2.0837 H   0  0  0  0  0  0  0  0  0  0  0  0
   -2.9165   -8.4893    3.3183 H   0  0  0  0  0  0  0  0  0  0  0  0
   -1.1375   -6.9945    2.5577 H   0  0  0  0  0  0  0  0  0  0  0  0
   -0.6361   -8.2383    1.2867 H   0  0  0  0  0  0  0  0  0  0  0  0
    2.0447   -9.3263    1.5958 H   0  0  0  0  0  0  0  0  0  0  0  0
    2.0862   -6.8281    3.4375 H   0  0  0  0  0  0  0  0  0  0  0  0
    1.2456   -7.0719    1.9599 H   0  0  0  0  0  0  0  0  0  0  0  0
    3.7925   -8.1391    5.0609 H   0  0  0  0  0  0  0  0  0  0  0  0
    5.7337   -6.7746    4.0253 H   0  0  0  0  0  0  0  0  0  0  0  0
    3.7409   -8.6881    0.7847 H   0  0  0  0  0  0  0  0  0  0  0  0
    4.7167   -9.8765    1.1463 H   0  0  0  0  0  0  0  0  0  0  0  0
    1.6330   -9.4958    4.4218 H   0  0  0  0  0  0  0  0  0  0  0  0
  1  2  1  0
  1 29  1  0
  1 30  1  0
  1 31  1  0
  2  3  1  0
  3  8  2  0
  3  4  1  0
  4  5  2  0
  4 32  1  0
  5  6  1  0
  5 33  1  0
  6 24  1  0
  6  7  2  0
  7  8  1  0
  7  9  1  0
  8 34  1  0
  9 27  1  1
  9 28  1  0
  9 10  1  0
 10 11  2  0
 10 35  1  0
 11 12  1  0
 11 36  1  0
 12 13  1  0
 12 16  1  0
 12 37  1  6
 13 14  1  0
 13 15  1  0
 13 38  1  6
 14 39  1  0
 14 40  1  0
 14 41  1  0
 15 42  1  0
 16 25  1  0
 16 17  1  0
 16 43  1  1
 17 18  1  0
 17 44  1  0
 17 45  1  0
 18 19  1  0
 18 23  1  0
 18 60  1  1
 19 20  1  0
 19 46  1  0
 19 47  1  0
 20 22  1  0
 20 21  1  0
 20 48  1  0
 21 22  1  0
 21 49  1  0
 21 50  1  0
 22 51  1  0
 22 52  1  0
 23 24  1  0
 23 25  1  0
 23 53  1  6
 24 54  1  0
 24 55  1  0
 25 26  1  1
 25 28  1  0
 26 27  2  0
 26 56  1  0
 27 57  1  0
 28 58  1  0
 28 59  1  0
M  CHG  1  18   1
M  END
>  <i_m_ct_stereo_status>  (256) 
1

>  <s_m_source_file>  (256) 
/var/tmp/pbs.5076255.sched01/tmp_srbpc4z/1203xlsw0nt.sdf

>  <i_m_source_file_index>  (256) 
19

>  <i_lp_mmshare_version>  (256) 
48012

>  <i_f3d_flags>  (256) 
0

>  <s_epik_input>  (256) 
W0NIM11PYyhbY0hdMSlbY0hdW2NIXWMoYzFbQ0BAXTIzNClbQ0gyXVtDQEhdNUMoW0NIMl00KShbQ0hdPVtDSF0zKVtDQEhdKFtDQEBIXShbQ0hdPVtDSF0yKVtDQEhdKFtDSDNdKVtPSF0pW0NIMl1ONVtDSDJdW0NIXTZbQ0gyXVtDSDJdNg==

>  <s_epik_cmdline>  (256) 
J2VwaWtfcHl0aG9uJywgJy1waHQnLCAnMi4wJywgJy1waCcsICc3LjAnLCAnLXRuJywgJzgnLCAnLW1hJywgJzIwMCcsICctaW1hZScsICc8aW5maWxlLm1hZT4nLCAnLW9tYWUnLCAnPG91dGZpbGUubWFlPic=

>  <r_lp_tautomer_probability>  (256) 
1

>  <r_epik_Ionization_Penalty>  (256) 
0.00118392

>  <r_epik_Ionization_Penalty_Charging>  (256) 
0.00118383

>  <r_epik_Ionization_Penalty_Neutral>  (256) 
8.72951e-08

>  <r_epik_State_Penalty>  (256) 
0.000780534

>  <r_epik_Charging_Adjusted_Penalty>  (256) 
0.00196437

>  <i_epik_Tot_Q>  (256) 
1

>  <i_epik_Tot_abs_Q>  (256) 
1

>  <s_lp_Force_Field>  (256) 
OPLS3e

>  <r_lp_Energy>  (256) 
179.477

>  <b_lp_Chiralities_Consistent>  (256) 
1

>  <s_lp_Variant>  (256) 
100:0-1

>  <s_i_glide_gridfile>  (256) 
pfpi4k_grid

>  <i_i_glide_lignum>  (256) 
19

>  <i_i_glide_rotatable_bonds>  (256) 
5

>  <r_i_docking_score>  (256) 
-2.56908

>  <r_i_glide_ligand_efficiency>  (256) 
-0.0917527

>  <r_i_glide_ligand_efficiency_sa>  (256) 
-0.278615

>  <r_i_glide_ligand_efficiency_ln>  (256) 
-0.593018

>  <r_i_glide_gscore>  (256) 
-2.56908

>  <r_i_glide_lipo>  (256) 
-0.394073

>  <r_i_glide_hbond>  (256) 
0

>  <r_i_glide_metal>  (256) 
-0

>  <r_i_glide_rewards>  (256) 
-0.828224

>  <r_i_glide_evdw>  (256) 
-25.9004

>  <r_i_glide_ecoul>  (256) 
-3.05022

>  <r_i_glide_erotb>  (256) 
0.405774

>  <r_i_glide_esite>  (256) 
0

>  <r_i_glide_emodel>  (256) 
-32.1085

>  <r_i_glide_energy>  (256) 
-28.9506

>  <r_i_glide_einternal>  (256) 
4.67239

>  <r_i_glide_intrahb_reward>  (256) 
-0

>  <i_i_glide_confnum>  (256) 
2

>  <i_i_glide_posenum>  (256) 
1

>  <r_i_glide_eff_state_penalty>  (256) 
0

>  <ligand_id>  (256) 
100

>  <original_smiles>  (256) 
COc1ccc2c(c1)C13C=CC(C(C)O)C4CN(CC5CC5)C(C2)C4(C=C1)C3

>  <smiles>  (256) 
[H]OC([H])(C([H])([H])[H])C1([H])C([H])=C([H])C23C([H])=C([H])C4(C2([H])[H])C1([H])C([H])([H])[N+]([H])(C([H])([H])C1([H])C([H])([H])C1([H])[H])C4([H])C([H])([H])c1c([H])c([H])c(OC([H])([H])[H])c([H])c13

$$$$
102:0:0
     RDKit          3D

 57 62  0  0  1  0  0  0  0  0999 V2000
    3.2761   -7.0072    6.8276 C   0  0  0  0  0  0  0  0  0  0  0  0
    3.6740   -7.3444    5.3971 C   0  0  0  0  0  0  0  0  0  0  0  0
    4.7546   -7.8891    5.1885 O   0  0  0  0  0  0  0  0  0  0  0  0
    2.7216   -7.0186    4.4766 O   0  0  0  0  0  0  0  0  0  0  0  0
    2.9452   -7.2239    3.0772 C   0  0  2  0  0  0  0  0  0  0  0  0
    3.2187   -8.6844    2.6975 C   0  0  2  0  0  0  0  0  0  0  0  0
    4.6165   -9.0736    2.1929 C   0  0  0  0  0  0  0  0  0  0  0  0
    5.4069   -7.9239    1.5131 C   0  0  0  0  0  0  0  0  0  0  0  0
    5.2059   -6.5895    2.2621 C   0  0  1  0  0  0  0  0  0  0  0  0
    6.0107   -5.3247    2.0229 C   0  0  1  0  0  0  0  0  0  0  0  0
    6.5102   -5.0355    0.5961 C   0  0  0  0  0  0  0  0  0  0  0  0
    5.6017   -4.1408   -0.2483 C   0  0  0  0  0  0  0  0  0  0  0  0
    5.2673   -2.8156    0.4629 C   0  0  2  0  0  0  0  0  0  0  0  0
    4.9863   -2.8832    1.9829 C   0  0  1  0  0  0  0  0  0  0  0  0
    3.6516   -2.1479    2.1907 C   0  0  1  0  0  0  0  0  0  0  0  0
    3.6257   -1.4371    3.4101 O   0  0  0  0  0  0  0  0  0  0  0  0
    3.5466   -1.1838    1.0096 C   0  0  0  0  0  0  0  0  0  0  0  0
    4.1356   -1.9590   -0.1714 C   0  0  1  0  0  0  0  0  0  0  0  0
    4.6323   -1.0568   -1.3120 C   0  0  0  0  0  0  0  0  0  0  0  0
    3.0757   -2.7420   -0.6793 O   0  0  0  0  0  0  0  0  0  0  0  0
    5.0970   -4.2607    2.6935 C   0  0  1  0  0  0  0  0  0  0  0  0
    3.8338   -4.8770    2.9846 O   0  0  0  0  0  0  0  0  0  0  0  0
    3.7548   -6.1473    2.3512 C   0  0  2  0  0  0  0  0  0  0  0  0
    2.9962   -5.8953    1.0161 C   0  0  0  0  0  0  0  0  0  0  0  0
    1.5512   -6.3476    1.2429 C   0  0  0  0  0  0  0  0  0  0  0  0
    1.6689   -7.4287    2.2853 C   0  0  1  0  0  0  0  0  0  0  0  0
    2.2140   -8.6289    1.6697 O   0  0  0  0  0  0  0  0  0  0  0  0
    2.8467   -6.0110    6.9125 H   0  0  0  0  0  0  0  0  0  0  0  0
    4.1595   -7.0438    7.4696 H   0  0  0  0  0  0  0  0  0  0  0  0
    2.5621   -7.7403    7.2034 H   0  0  0  0  0  0  0  0  0  0  0  0
    2.8622   -9.3535    3.4835 H   0  0  0  0  0  0  0  0  0  0  0  0
    5.1822   -9.3834    3.0626 H   0  0  0  0  0  0  0  0  0  0  0  0
    4.5732   -9.9549    1.5585 H   0  0  0  0  0  0  0  0  0  0  0  0
    6.4706   -8.1768    1.5175 H   0  0  0  0  0  0  0  0  0  0  0  0
    5.1102   -7.8547    0.4662 H   0  0  0  0  0  0  0  0  0  0  0  0
    5.5240   -6.8149    3.2729 H   0  0  0  0  0  0  0  0  0  0  0  0
    6.9204   -5.4142    2.6168 H   0  0  0  0  0  0  0  0  0  0  0  0
    7.4983   -4.5727    0.6575 H   0  0  0  0  0  0  0  0  0  0  0  0
    6.6742   -5.9713    0.0770 H   0  0  0  0  0  0  0  0  0  0  0  0
    6.1191   -3.9194   -1.1768 H   0  0  0  0  0  0  0  0  0  0  0  0
    4.7223   -4.6945   -0.5536 H   0  0  0  0  0  0  0  0  0  0  0  0
    6.1854   -2.2304    0.3846 H   0  0  0  0  0  0  0  0  0  0  0  0
    5.7651   -2.2689    2.4389 H   0  0  0  0  0  0  0  0  0  0  0  0
    2.8120   -2.8462    2.1464 H   0  0  0  0  0  0  0  0  0  0  0  0
    2.7795   -1.0200    3.4887 H   0  0  0  0  0  0  0  0  0  0  0  0
    2.5185   -0.8556    0.8464 H   0  0  0  0  0  0  0  0  0  0  0  0
    4.1461   -0.2956    1.2084 H   0  0  0  0  0  0  0  0  0  0  0  0
    5.4074   -0.3735   -0.9666 H   0  0  0  0  0  0  0  0  0  0  0  0
    3.8180   -0.4639   -1.7248 H   0  0  0  0  0  0  0  0  0  0  0  0
    5.0508   -1.6504   -2.1274 H   0  0  0  0  0  0  0  0  0  0  0  0
    2.3784   -2.1514   -0.9471 H   0  0  0  0  0  0  0  0  0  0  0  0
    5.4920   -4.0689    3.6895 H   0  0  0  0  0  0  0  0  0  0  0  0
    3.0074   -4.8498    0.7099 H   0  0  0  0  0  0  0  0  0  0  0  0
    3.4201   -6.4849    0.2048 H   0  0  0  0  0  0  0  0  0  0  0  0
    0.9961   -5.5092    1.6620 H   0  0  0  0  0  0  0  0  0  0  0  0
    1.0569   -6.6728    0.3227 H   0  0  0  0  0  0  0  0  0  0  0  0
    0.7787   -7.6416    2.8776 H   0  0  0  0  0  0  0  0  0  0  0  0
  1  2  1  0
  1 28  1  0
  1 29  1  0
  1 30  1  0
  2  3  2  0
  2  4  1  0
  5  4  1  1
  5 23  1  0
  5 26  1  0
  5  6  1  0
  6 27  1  0
  6  7  1  0
  6 31  1  1
  7  8  1  0
  7 32  1  0
  7 33  1  0
  8  9  1  0
  8 34  1  0
  8 35  1  0
  9 23  1  0
  9 10  1  0
  9 36  1  1
 10 21  1  0
 10 11  1  0
 10 37  1  1
 11 12  1  0
 11 38  1  0
 11 39  1  0
 12 13  1  0
 12 40  1  0
 12 41  1  0
 13 18  1  0
 13 14  1  0
 13 42  1  1
 14 15  1  0
 14 21  1  0
 14 43  1  1
 15 16  1  0
 15 17  1  0
 15 44  1  1
 16 45  1  0
 17 18  1  0
 17 46  1  0
 17 47  1  0
 18 19  1  0
 18 20  1  6
 19 48  1  0
 19 49  1  0
 19 50  1  0
 20 51  1  0
 21 22  1  0
 21 52  1  1
 23 22  1  1
 23 24  1  0
 24 25  1  0
 24 53  1  0
 24 54  1  0
 25 26  1  0
 25 55  1  0
 25 56  1  0
 26 27  1  0
 26 57  1  1
M  END
>  <i_m_ct_stereo_status>  (257) 
1

>  <s_m_source_file>  (257) 
/var/tmp/pbs.5076255.sched01/tmp_srbpc4z/1203xlsw0nt.sdf

>  <i_m_source_file_index>  (257) 
21

>  <i_lp_mmshare_version>  (257) 
48012

>  <i_f3d_flags>  (257) 
0

>  <s_epik_input>  (257) 
W0NIM11DKD1PKU9bQ0BAXTEoW0NAXTIzNClbQ0BASF0oT1tDQEBIXTFbQ0gyXVtDSDJdNClbQ0gyXVtDSDJdW0NASF0yW0NAQEhdNVtDQEhdKE8zKVtDQEhdNltDQEBIXShbQ0gyXVtDSDJdNSlbQ0BAXShbQ0gzXSkoW09IXSlbQ0gyXVtDQEBIXTZbT0hd

>  <s_epik_cmdline>  (257) 
J2VwaWtfcHl0aG9uJywgJy1waHQnLCAnMi4wJywgJy1waCcsICc3LjAnLCAnLXRuJywgJzgnLCAnLW1hJywgJzIwMCcsICctaW1hZScsICc8aW5maWxlLm1hZT4nLCAnLW9tYWUnLCAnPG91dGZpbGUubWFlPic=

>  <r_lp_tautomer_probability>  (257) 
1

>  <r_epik_Ionization_Penalty>  (257) 
2.94174e-06

>  <r_epik_Ionization_Penalty_Charging>  (257) 
0

>  <r_epik_Ionization_Penalty_Neutral>  (257) 
2.94174e-06

>  <r_epik_State_Penalty>  (257) 
-0

>  <r_epik_Charging_Adjusted_Penalty>  (257) 
0

>  <i_epik_Tot_Q>  (257) 
0

>  <i_epik_Tot_abs_Q>  (257) 
0

>  <s_epik_Chemistry_Notes>  (257) 
This compound has an ester and may undergo hydrolysis at high or low pH.

>  <s_lp_Force_Field>  (257) 
OPLS3e

>  <r_lp_Energy>  (257) 
35.2563

>  <b_lp_Chiralities_Consistent>  (257) 
1

>  <s_lp_Variant>  (257) 
102:0-1

>  <s_i_glide_gridfile>  (257) 
pfpi4k_grid

>  <i_i_glide_lignum>  (257) 
21

>  <i_i_glide_rotatable_bonds>  (257) 
4

>  <r_i_docking_score>  (257) 
-2.71138

>  <r_i_glide_ligand_efficiency>  (257) 
-0.100421

>  <r_i_glide_ligand_efficiency_sa>  (257) 
-0.301264

>  <r_i_glide_ligand_efficiency_ln>  (257) 
-0.631164

>  <r_i_glide_gscore>  (257) 
-2.71138

>  <r_i_glide_lipo>  (257) 
-0.413505

>  <r_i_glide_hbond>  (257) 
-0.16

>  <r_i_glide_metal>  (257) 
-0

>  <r_i_glide_rewards>  (257) 
-0.828687

>  <r_i_glide_evdw>  (257) 
-24.85

>  <r_i_glide_ecoul>  (257) 
-1.34658

>  <r_i_glide_erotb>  (257) 
0.135301

>  <r_i_glide_esite>  (257) 
0

>  <r_i_glide_emodel>  (257) 
-29.5679

>  <r_i_glide_energy>  (257) 
-26.1966

>  <r_i_glide_einternal>  (257) 
1.7925

>  <r_i_glide_intrahb_reward>  (257) 
-0

>  <i_i_glide_confnum>  (257) 
2

>  <i_i_glide_posenum>  (257) 
29

>  <r_i_glide_eff_state_penalty>  (257) 
0

>  <ligand_id>  (257) 
102

>  <original_smiles>  (257) 
CC(=O)OC12C3CCC4C5CCC6C(C(O)CC6(C)O)C5OC41CCC2O3

>  <smiles>  (257) 
[H]OC1([H])C([H])([H])C(O[H])(C([H])([H])[H])C2([H])C([H])([H])C([H])([H])C3([H])C([H])(OC45C([H])([H])C([H])([H])C6([H])OC([H])(C([H])([H])C([H])([H])C34[H])C65OC(=O)C([H])([H])[H])C12[H]

$$$$
102:0:1
     RDKit          3D

 57 62  0  0  1  0  0  0  0  0999 V2000
    1.7638   -6.1880    6.4094 C   0  0  0  0  0  0  0  0  0  0  0  0
    1.7064   -6.2090    4.8851 C   0  0  0  0  0  0  0  0  0  0  0  0
    0.9127   -5.4937    4.2704 O   0  0  0  0  0  0  0  0  0  0  0  0
    2.5947   -7.0763    4.3513 O   0  0  0  0  0  0  0  0  0  0  0  0
    2.7940   -7.2048    2.9386 C   0  0  2  0  0  0  0  0  0  0  0  0
    3.1254   -8.6626    2.6011 C   0  0  2  0  0  0  0  0  0  0  0  0
    4.5462   -9.0424    2.1451 C   0  0  0  0  0  0  0  0  0  0  0  0
    5.3550   -7.8888    1.5083 C   0  0  0  0  0  0  0  0  0  0  0  0
    5.1097   -6.5773    2.2752 C   0  0  1  0  0  0  0  0  0  0  0  0
    5.9341   -5.3127    2.0494 C   0  0  1  0  0  0  0  0  0  0  0  0
    6.4611   -5.0216    0.6208 C   0  0  0  0  0  0  0  0  0  0  0  0
    5.5889   -4.1063   -0.2446 C   0  0  0  0  0  0  0  0  0  0  0  0
    5.2275   -2.7856    0.4601 C   0  0  2  0  0  0  0  0  0  0  0  0
    4.9149   -2.8644    1.9771 C   0  0  1  0  0  0  0  0  0  0  0  0
    3.5736   -2.1336    2.1582 C   0  0  1  0  0  0  0  0  0  0  0  0
    3.4640   -1.4740    3.4075 O   0  0  0  0  0  0  0  0  0  0  0  0
    3.4908   -1.1594    0.9817 C   0  0  0  0  0  0  0  0  0  0  0  0
    4.1097   -1.9262   -0.1960 C   0  0  1  0  0  0  0  0  0  0  0  0
    4.6298   -1.0184   -1.3204 C   0  0  0  0  0  0  0  0  0  0  0  0
    3.0733   -2.7076   -0.7578 O   0  0  0  0  0  0  0  0  0  0  0  0
    5.0004   -4.2498    2.6794 C   0  0  1  0  0  0  0  0  0  0  0  0
    3.7226   -4.8693    2.9142 O   0  0  0  0  0  0  0  0  0  0  0  0
    3.6526   -6.1301    2.2719 C   0  0  2  0  0  0  0  0  0  0  0  0
    2.9562   -5.8785    0.9071 C   0  0  0  0  0  0  0  0  0  0  0  0
    1.5022   -6.3398    1.0667 C   0  0  0  0  0  0  0  0  0  0  0  0
    1.5707   -7.4512    2.0821 C   0  0  1  0  0  0  0  0  0  0  0  0
    2.1716   -8.6424    1.5172 O   0  0  0  0  0  0  0  0  0  0  0  0
    1.7645   -7.2056    6.8084 H   0  0  0  0  0  0  0  0  0  0  0  0
    0.9069   -5.6520    6.8265 H   0  0  0  0  0  0  0  0  0  0  0  0
    2.6757   -5.6874    6.7430 H   0  0  0  0  0  0  0  0  0  0  0  0
    2.7580   -9.3335    3.3797 H   0  0  0  0  0  0  0  0  0  0  0  0
    5.0941   -9.3686    3.0324 H   0  0  0  0  0  0  0  0  0  0  0  0
    4.5266   -9.9078    1.4869 H   0  0  0  0  0  0  0  0  0  0  0  0
    6.4161   -8.1403    1.5249 H   0  0  0  0  0  0  0  0  0  0  0  0
    5.0818   -7.7857    0.4596 H   0  0  0  0  0  0  0  0  0  0  0  0
    5.3293   -6.8237    3.3161 H   0  0  0  0  0  0  0  0  0  0  0  0
    6.8296   -5.4079    2.6694 H   0  0  0  0  0  0  0  0  0  0  0  0
    7.4387   -4.5519    0.7125 H   0  0  0  0  0  0  0  0  0  0  0  0
    6.6542   -5.9479    0.0852 H   0  0  0  0  0  0  0  0  0  0  0  0
    6.1365   -3.8758   -1.1619 H   0  0  0  0  0  0  0  0  0  0  0  0
    4.7204   -4.6533   -0.5897 H   0  0  0  0  0  0  0  0  0  0  0  0
    6.1423   -2.1947    0.4041 H   0  0  0  0  0  0  0  0  0  0  0  0
    5.6865   -2.2532    2.4504 H   0  0  0  0  0  0  0  0  0  0  0  0
    2.7433   -2.8331    2.0646 H   0  0  0  0  0  0  0  0  0  0  0  0
    4.1294   -0.8075    3.4565 H   0  0  0  0  0  0  0  0  0  0  0  0
    2.4647   -0.8405    0.7969 H   0  0  0  0  0  0  0  0  0  0  0  0
    4.0744   -0.2631    1.1930 H   0  0  0  0  0  0  0  0  0  0  0  0
    5.3865   -0.3244   -0.9506 H   0  0  0  0  0  0  0  0  0  0  0  0
    3.8256   -0.4185   -1.7499 H   0  0  0  0  0  0  0  0  0  0  0  0
    5.0751   -1.5931   -2.1341 H   0  0  0  0  0  0  0  0  0  0  0  0
    2.3671   -2.1217   -1.0116 H   0  0  0  0  0  0  0  0  0  0  0  0
    5.3677   -4.0603    3.6896 H   0  0  0  0  0  0  0  0  0  0  0  0
    2.9771   -4.8320    0.6204 H   0  0  0  0  0  0  0  0  0  0  0  0
    3.4247   -6.4560    0.1116 H   0  0  0  0  0  0  0  0  0  0  0  0
    0.9407   -5.5054    1.4900 H   0  0  0  0  0  0  0  0  0  0  0  0
    1.0418   -6.6412    0.1269 H   0  0  0  0  0  0  0  0  0  0  0  0
    0.6499   -7.6761    2.6242 H   0  0  0  0  0  0  0  0  0  0  0  0
  1  2  1  0
  1 28  1  0
  1 29  1  0
  1 30  1  0
  2  3  2  0
  2  4  1  0
  5  4  1  1
  5 23  1  0
  5 26  1  0
  5  6  1  0
  6 27  1  0
  6  7  1  0
  6 31  1  1
  7  8  1  0
  7 32  1  0
  7 33  1  0
  8  9  1  0
  8 34  1  0
  8 35  1  0
  9 23  1  0
  9 10  1  0
  9 36  1  1
 10 21  1  0
 10 11  1  0
 10 37  1  1
 11 12  1  0
 11 38  1  0
 11 39  1  0
 12 13  1  0
 12 40  1  0
 12 41  1  0
 13 18  1  0
 13 14  1  0
 13 42  1  1
 14 15  1  0
 14 21  1  0
 14 43  1  1
 15 16  1  0
 15 17  1  0
 15 44  1  6
 16 45  1  0
 17 18  1  0
 17 46  1  0
 17 47  1  0
 18 19  1  0
 18 20  1  6
 19 48  1  0
 19 49  1  0
 19 50  1  0
 20 51  1  0
 21 22  1  0
 21 52  1  1
 23 22  1  1
 23 24  1  0
 24 25  1  0
 24 53  1  0
 24 54  1  0
 25 26  1  0
 25 55  1  0
 25 56  1  0
 26 27  1  0
 26 57  1  1
M  END
>  <i_m_ct_stereo_status>  (258) 
1

>  <s_m_source_file>  (258) 
/var/tmp/pbs.5076255.sched01/tmp_srbpc4z/1203xlsw0nt.sdf

>  <i_m_source_file_index>  (258) 
21

>  <i_lp_mmshare_version>  (258) 
48012

>  <i_f3d_flags>  (258) 
0

>  <s_epik_input>  (258) 
W0NIM11DKD1PKU9bQ0BAXTEoW0NAXTIzNClbQ0BASF0oT1tDQEBIXTFbQ0gyXVtDSDJdNClbQ0gyXVtDSDJdW0NASF0yW0NAQEhdNVtDQEhdKE8zKVtDQEhdNltDQEBIXShbQ0gyXVtDSDJdNSlbQ0BAXShbQ0gzXSkoW09IXSlbQ0gyXVtDQEBIXTZbT0hd

>  <s_epik_cmdline>  (258) 
J2VwaWtfcHl0aG9uJywgJy1waHQnLCAnMi4wJywgJy1waCcsICc3LjAnLCAnLXRuJywgJzgnLCAnLW1hJywgJzIwMCcsICctaW1hZScsICc8aW5maWxlLm1hZT4nLCAnLW9tYWUnLCAnPG91dGZpbGUubWFlPic=

>  <r_lp_tautomer_probability>  (258) 
1

>  <r_epik_Ionization_Penalty>  (258) 
2.94174e-06

>  <r_epik_Ionization_Penalty_Charging>  (258) 
0

>  <r_epik_Ionization_Penalty_Neutral>  (258) 
2.94174e-06

>  <r_epik_State_Penalty>  (258) 
-0

>  <r_epik_Charging_Adjusted_Penalty>  (258) 
0

>  <i_epik_Tot_Q>  (258) 
0

>  <i_epik_Tot_abs_Q>  (258) 
0

>  <s_epik_Chemistry_Notes>  (258) 
This compound has an ester and may undergo hydrolysis at high or low pH.

>  <s_lp_Force_Field>  (258) 
OPLS3e

>  <r_lp_Energy>  (258) 
35.2563

>  <b_lp_Chiralities_Consistent>  (258) 
1

>  <s_lp_Variant>  (258) 
102:0-1

>  <s_i_glide_gridfile>  (258) 
pfpi4k_grid

>  <i_i_glide_lignum>  (258) 
21

>  <i_i_glide_rotatable_bonds>  (258) 
4

>  <r_i_docking_score>  (258) 
-2.59193

>  <r_i_glide_ligand_efficiency>  (258) 
-0.0959973

>  <r_i_glide_ligand_efficiency_sa>  (258) 
-0.287992

>  <r_i_glide_ligand_efficiency_ln>  (258) 
-0.603358

>  <r_i_glide_gscore>  (258) 
-2.59193

>  <r_i_glide_lipo>  (258) 
-0.402516

>  <r_i_glide_hbond>  (258) 
-0.16

>  <r_i_glide_metal>  (258) 
-0

>  <r_i_glide_rewards>  (258) 
-0.828687

>  <r_i_glide_evdw>  (258) 
-25.7689

>  <r_i_glide_ecoul>  (258) 
-0.307195

>  <r_i_glide_erotb>  (258) 
0.135301

>  <r_i_glide_esite>  (258) 
-0.00150073

>  <r_i_glide_emodel>  (258) 
-30.2781

>  <r_i_glide_energy>  (258) 
-26.0761

>  <r_i_glide_einternal>  (258) 
0.184311

>  <r_i_glide_intrahb_reward>  (258) 
-0

>  <i_i_glide_confnum>  (258) 
3

>  <i_i_glide_posenum>  (258) 
20

>  <r_i_glide_eff_state_penalty>  (258) 
0

>  <ligand_id>  (258) 
102

>  <original_smiles>  (258) 
CC(=O)OC12C3CCC4C5CCC6C(C(O)CC6(C)O)C5OC41CCC2O3

>  <smiles>  (258) 
[H]OC1([H])C([H])([H])C(O[H])(C([H])([H])[H])C2([H])C([H])([H])C([H])([H])C3([H])C([H])(OC45C([H])([H])C([H])([H])C6([H])OC([H])(C([H])([H])C([H])([H])C34[H])C65OC(=O)C([H])([H])[H])C12[H]

$$$$
102:0:2
     RDKit          3D

 57 62  0  0  1  0  0  0  0  0999 V2000
    0.7951   -6.9161    6.6048 C   0  0  0  0  0  0  0  0  0  0  0  0
    0.9029   -6.8675    5.0850 C   0  0  0  0  0  0  0  0  0  0  0  0
    0.1411   -6.1674    4.4159 O   0  0  0  0  0  0  0  0  0  0  0  0
    1.8962   -7.6573    4.6174 O   0  0  0  0  0  0  0  0  0  0  0  0
    2.2492   -7.7128    3.2323 C   0  0  2  0  0  0  0  0  0  0  0  0
    2.6962   -9.1340    2.8706 C   0  0  2  0  0  0  0  0  0  0  0  0
    4.1782   -9.4193    2.5593 C   0  0  0  0  0  0  0  0  0  0  0  0
    4.9865   -8.2017    2.0544 C   0  0  0  0  0  0  0  0  0  0  0  0
    4.5896   -6.9400    2.8421 C   0  0  1  0  0  0  0  0  0  0  0  0
    5.3629   -5.6277    2.7521 C   0  0  1  0  0  0  0  0  0  0  0  0
    6.0202   -5.2534    1.3997 C   0  0  0  0  0  0  0  0  0  0  0  0
    5.1989   -4.3456    0.4798 C   0  0  0  0  0  0  0  0  0  0  0  0
    4.6916   -3.0762    1.1934 C   0  0  2  0  0  0  0  0  0  0  0  0
    4.2155   -3.2390    2.6595 C   0  0  1  0  0  0  0  0  0  0  0  0
    2.8243   -2.5840    2.7165 C   0  0  1  0  0  0  0  0  0  0  0  0
    2.5806   -1.9506    3.9560 O   0  0  0  0  0  0  0  0  0  0  0  0
    2.8174   -1.5690    1.5728 C   0  0  0  0  0  0  0  0  0  0  0  0
    3.6079   -2.2487    0.4488 C   0  0  1  0  0  0  0  0  0  0  0  0
    4.1917   -1.2495   -0.5644 C   0  0  0  0  0  0  0  0  0  0  0  0
    2.6840   -3.0563   -0.2584 O   0  0  0  0  0  0  0  0  0  0  0  0
    4.3086   -4.6432    3.3192 C   0  0  1  0  0  0  0  0  0  0  0  0
    3.0498   -5.3343    3.3974 O   0  0  0  0  0  0  0  0  0  0  0  0
    3.1163   -6.5683    2.7007 C   0  0  2  0  0  0  0  0  0  0  0  0
    2.5494   -6.2888    1.2824 C   0  0  0  0  0  0  0  0  0  0  0  0
    1.1133   -6.8278    1.2658 C   0  0  0  0  0  0  0  0  0  0  0  0
    1.1364   -7.9775    2.2379 C   0  0  1  0  0  0  0  0  0  0  0  0
    1.8646   -9.1078    1.6883 O   0  0  0  0  0  0  0  0  0  0  0  0
    0.8172   -7.9498    6.9587 H   0  0  0  0  0  0  0  0  0  0  0  0
   -0.1341   -6.4517    6.9455 H   0  0  0  0  0  0  0  0  0  0  0  0
    1.6327   -6.3802    7.0571 H   0  0  0  0  0  0  0  0  0  0  0  0
    2.2853   -9.8605    3.5725 H   0  0  0  0  0  0  0  0  0  0  0  0
    4.6459   -9.7555    3.4860 H   0  0  0  0  0  0  0  0  0  0  0  0
    4.2770  -10.2521    1.8677 H   0  0  0  0  0  0  0  0  0  0  0  0
    6.0522   -8.4015    2.1805 H   0  0  0  0  0  0  0  0  0  0  0  0
    4.8291   -8.0683    0.9852 H   0  0  0  0  0  0  0  0  0  0  0  0
    4.7122   -7.2241    3.8893 H   0  0  0  0  0  0  0  0  0  0  0  0
    6.1900   -5.7015    3.4613 H   0  0  0  0  0  0  0  0  0  0  0  0
    6.9587   -4.7409    1.6146 H   0  0  0  0  0  0  0  0  0  0  0  0
    6.3207   -6.1476    0.8574 H   0  0  0  0  0  0  0  0  0  0  0  0
    5.8256   -4.0479   -0.3610 H   0  0  0  0  0  0  0  0  0  0  0  0
    4.4003   -4.9181    0.0246 H   0  0  0  0  0  0  0  0  0  0  0  0
    5.5718   -2.4356    1.2655 H   0  0  0  0  0  0  0  0  0  0  0  0
    4.8904   -2.6063    3.2410 H   0  0  0  0  0  0  0  0  0  0  0  0
    2.0414   -3.3191    2.5245 H   0  0  0  0  0  0  0  0  0  0  0  0
    1.7255   -1.5483    3.9162 H   0  0  0  0  0  0  0  0  0  0  0  0
    1.8041   -1.2930    1.2799 H   0  0  0  0  0  0  0  0  0  0  0  0
    3.3214   -0.6565    1.8895 H   0  0  0  0  0  0  0  0  0  0  0  0
    4.8672   -0.5362   -0.0913 H   0  0  0  0  0  0  0  0  0  0  0  0
    3.3989   -0.6690   -1.0439 H   0  0  0  0  0  0  0  0  0  0  0  0
    4.7462   -1.7647   -1.3506 H   0  0  0  0  0  0  0  0  0  0  0  0
    2.0823   -2.4587   -0.6979 H   0  0  0  0  0  0  0  0  0  0  0  0
    4.5565   -4.4788    4.3685 H   0  0  0  0  0  0  0  0  0  0  0  0
    2.5522   -5.2306    1.0388 H   0  0  0  0  0  0  0  0  0  0  0  0
    3.1288   -6.8096    0.5209 H   0  0  0  0  0  0  0  0  0  0  0  0
    0.4475   -6.0526    1.6462 H   0  0  0  0  0  0  0  0  0  0  0  0
    0.7745   -7.1118    0.2707 H   0  0  0  0  0  0  0  0  0  0  0  0
    0.1779   -8.2804    2.6631 H   0  0  0  0  0  0  0  0  0  0  0  0
  1  2  1  0
  1 28  1  0
  1 29  1  0
  1 30  1  0
  2  3  2  0
  2  4  1  0
  5  4  1  1
  5 23  1  0
  5 26  1  0
  5  6  1  0
  6 27  1  0
  6  7  1  0
  6 31  1  1
  7  8  1  0
  7 32  1  0
  7 33  1  0
  8  9  1  0
  8 34  1  0
  8 35  1  0
  9 23  1  0
  9 10  1  0
  9 36  1  1
 10 21  1  0
 10 11  1  0
 10 37  1  1
 11 12  1  0
 11 38  1  0
 11 39  1  0
 12 13  1  0
 12 40  1  0
 12 41  1  0
 13 18  1  0
 13 14  1  0
 13 42  1  1
 14 15  1  0
 14 21  1  0
 14 43  1  1
 15 16  1  0
 15 17  1  0
 15 44  1  6
 16 45  1  0
 17 18  1  0
 17 46  1  0
 17 47  1  0
 18 19  1  0
 18 20  1  6
 19 48  1  0
 19 49  1  0
 19 50  1  0
 20 51  1  0
 21 22  1  0
 21 52  1  1
 23 22  1  1
 23 24  1  0
 24 25  1  0
 24 53  1  0
 24 54  1  0
 25 26  1  0
 25 55  1  0
 25 56  1  0
 26 27  1  0
 26 57  1  1
M  END
>  <i_m_ct_stereo_status>  (259) 
1

>  <s_m_source_file>  (259) 
/var/tmp/pbs.5076255.sched01/tmp_srbpc4z/1203xlsw0nt.sdf

>  <i_m_source_file_index>  (259) 
21

>  <i_lp_mmshare_version>  (259) 
48012

>  <i_f3d_flags>  (259) 
0

>  <s_epik_input>  (259) 
W0NIM11DKD1PKU9bQ0BAXTEoW0NAXTIzNClbQ0BASF0oT1tDQEBIXTFbQ0gyXVtDSDJdNClbQ0gyXVtDSDJdW0NASF0yW0NAQEhdNVtDQEhdKE8zKVtDQEhdNltDQEBIXShbQ0gyXVtDSDJdNSlbQ0BAXShbQ0gzXSkoW09IXSlbQ0gyXVtDQEBIXTZbT0hd

>  <s_epik_cmdline>  (259) 
J2VwaWtfcHl0aG9uJywgJy1waHQnLCAnMi4wJywgJy1waCcsICc3LjAnLCAnLXRuJywgJzgnLCAnLW1hJywgJzIwMCcsICctaW1hZScsICc8aW5maWxlLm1hZT4nLCAnLW9tYWUnLCAnPG91dGZpbGUubWFlPic=

>  <r_lp_tautomer_probability>  (259) 
1

>  <r_epik_Ionization_Penalty>  (259) 
2.94174e-06

>  <r_epik_Ionization_Penalty_Charging>  (259) 
0

>  <r_epik_Ionization_Penalty_Neutral>  (259) 
2.94174e-06

>  <r_epik_State_Penalty>  (259) 
-0

>  <r_epik_Charging_Adjusted_Penalty>  (259) 
0

>  <i_epik_Tot_Q>  (259) 
0

>  <i_epik_Tot_abs_Q>  (259) 
0

>  <s_epik_Chemistry_Notes>  (259) 
This compound has an ester and may undergo hydrolysis at high or low pH.

>  <s_lp_Force_Field>  (259) 
OPLS3e

>  <r_lp_Energy>  (259) 
35.2563

>  <b_lp_Chiralities_Consistent>  (259) 
1

>  <s_lp_Variant>  (259) 
102:0-1

>  <s_i_glide_gridfile>  (259) 
pfpi4k_grid

>  <i_i_glide_lignum>  (259) 
21

>  <i_i_glide_rotatable_bonds>  (259) 
4

>  <r_i_docking_score>  (259) 
-2.50835

>  <r_i_glide_ligand_efficiency>  (259) 
-0.0929017

>  <r_i_glide_ligand_efficiency_sa>  (259) 
-0.278705

>  <r_i_glide_ligand_efficiency_ln>  (259) 
-0.583901

>  <r_i_glide_gscore>  (259) 
-2.50835

>  <r_i_glide_lipo>  (259) 
-0.183628

>  <r_i_glide_hbond>  (259) 
-0.16

>  <r_i_glide_metal>  (259) 
-0

>  <r_i_glide_rewards>  (259) 
-0.828687

>  <r_i_glide_evdw>  (259) 
-25.0541

>  <r_i_glide_ecoul>  (259) 
-1.40396

>  <r_i_glide_erotb>  (259) 
0.135301

>  <r_i_glide_esite>  (259) 
-0.00803034

>  <r_i_glide_emodel>  (259) 
-30.3937

>  <r_i_glide_energy>  (259) 
-26.4581

>  <r_i_glide_einternal>  (259) 
0.489499

>  <r_i_glide_intrahb_reward>  (259) 
-0

>  <i_i_glide_confnum>  (259) 
1

>  <i_i_glide_posenum>  (259) 
9

>  <r_i_glide_eff_state_penalty>  (259) 
0

>  <ligand_id>  (259) 
102

>  <original_smiles>  (259) 
CC(=O)OC12C3CCC4C5CCC6C(C(O)CC6(C)O)C5OC41CCC2O3

>  <smiles>  (259) 
[H]OC1([H])C([H])([H])C(O[H])(C([H])([H])[H])C2([H])C([H])([H])C([H])([H])C3([H])C([H])(OC45C([H])([H])C([H])([H])C6([H])OC([H])(C([H])([H])C([H])([H])C34[H])C65OC(=O)C([H])([H])[H])C12[H]

$$$$
103:0:0
     RDKit          3D

 65 71  0  0  1  0  0  0  0  0999 V2000
    3.8998   -0.6518    1.0307 C   0  0  0  0  0  0  0  0  0  0  0  0
    2.7205   -1.4528    1.5981 C   0  0  0  0  0  0  0  0  0  0  0  0
    2.7211   -2.9041    1.1166 C   0  0  0  0  0  0  0  0  0  0  0  0
    2.6951   -3.9929    1.9082 C   0  0  0  0  0  0  0  0  0  0  0  0
    2.5113   -4.0459    3.4248 C   0  0  2  0  0  0  0  0  0  0  0  0
    3.7677   -3.8557    4.2964 C   0  0  0  0  0  0  0  0  0  0  0  0
    4.8837   -2.9367    3.7663 C   0  0  0  0  0  0  0  0  0  0  0  0
    3.6034   -3.6211    5.8002 C   0  0  0  0  0  0  0  0  0  0  0  0
    3.8069   -5.3088    3.8968 C   0  0  0  0  0  0  0  0  0  0  0  0
    4.5786   -5.8256    2.9209 C   0  0  0  0  0  0  0  0  0  0  0  0
    3.7230   -6.4309    1.8119 C   0  0  1  0  0  0  0  0  0  0  0  0
    4.5275   -6.7041    0.5251 C   0  0  0  0  0  0  0  0  0  0  0  0
    3.0207   -7.6677    2.4098 C   0  0  1  0  0  0  0  0  0  0  0  0
    3.7360   -9.0158    2.6464 C   0  0  0  0  0  0  0  0  0  0  0  0
    2.7747   -9.9078    3.3995 C   0  0  0  0  0  0  0  0  0  0  0  0
    3.0046  -11.1247    3.7777 N   0  0  0  0  0  0  0  0  0  0  0  0
    4.2017  -11.9648    3.5802 C   0  0  0  0  0  0  0  0  0  0  0  0
    1.8668  -11.6015    4.5734 C   0  0  2  0  0  0  0  0  0  0  0  0
    0.6903  -11.8401    3.6149 C   0  0  0  0  0  0  0  0  0  0  0  0
    0.3632  -10.3888    3.1667 C   0  0  0  0  0  0  0  0  0  0  0  0
    1.3945   -9.5278    3.9411 C   0  0  1  0  0  0  0  0  0  0  0  0
    1.4452  -10.3054    5.2636 C   0  0  0  0  0  0  0  0  0  0  0  0
    1.1126   -7.9877    3.9820 C   0  0  1  0  0  0  0  0  0  0  0  0
    0.3227   -7.5236    5.2166 C   0  0  0  0  0  0  0  0  0  0  0  0
    2.4082   -7.1484    3.7620 C   0  0  2  0  0  0  0  0  0  0  0  0
    2.2344   -5.5527    3.8896 C   0  0  1  0  0  0  0  0  0  0  0  0
    1.5786   -5.6890    2.5963 O   0  0  0  0  0  0  0  0  0  0  0  0
    2.4729   -5.4370    1.5422 C   0  0  1  0  0  0  0  0  0  0  0  0
    1.8432   -5.6248    0.2967 O   0  0  0  0  0  0  0  0  0  0  0  0
    3.8761    0.3846    1.3712 H   0  0  0  0  0  0  0  0  0  0  0  0
    3.8804   -0.6362   -0.0592 H   0  0  0  0  0  0  0  0  0  0  0  0
    4.8521   -1.0816    1.3384 H   0  0  0  0  0  0  0  0  0  0  0  0
    2.7029   -1.3766    2.6831 H   0  0  0  0  0  0  0  0  0  0  0  0
    1.7891   -0.9919    1.2779 H   0  0  0  0  0  0  0  0  0  0  0  0
    2.6895   -3.0324    0.0427 H   0  0  0  0  0  0  0  0  0  0  0  0
    1.7121   -3.3947    3.7617 H   0  0  0  0  0  0  0  0  0  0  0  0
    4.6221   -1.8853    3.8952 H   0  0  0  0  0  0  0  0  0  0  0  0
    5.0922   -3.0763    2.7104 H   0  0  0  0  0  0  0  0  0  0  0  0
    5.8128   -3.0848    4.3128 H   0  0  0  0  0  0  0  0  0  0  0  0
    3.2530   -2.6028    5.9953 H   0  0  0  0  0  0  0  0  0  0  0  0
    4.5489   -3.7320    6.3296 H   0  0  0  0  0  0  0  0  0  0  0  0
    2.8799   -4.2987    6.2467 H   0  0  0  0  0  0  0  0  0  0  0  0
    5.5324   -5.3920    2.6326 H   0  0  0  0  0  0  0  0  0  0  0  0
    3.9154   -7.1731   -0.2356 H   0  0  0  0  0  0  0  0  0  0  0  0
    5.3429   -7.3985    0.7216 H   0  0  0  0  0  0  0  0  0  0  0  0
    4.9525   -5.8027    0.0832 H   0  0  0  0  0  0  0  0  0  0  0  0
    2.2272   -7.8996    1.6965 H   0  0  0  0  0  0  0  0  0  0  0  0
    4.0272   -9.4931    1.7117 H   0  0  0  0  0  0  0  0  0  0  0  0
    4.0140  -12.9400    4.0280 H   0  0  0  0  0  0  0  0  0  0  0  0
    5.0455  -11.4955    4.0800 H   0  0  0  0  0  0  0  0  0  0  0  0
    4.3876  -12.0809    2.5156 H   0  0  0  0  0  0  0  0  0  0  0  0
    2.1556  -12.4223    5.2257 H   0  0  0  0  0  0  0  0  0  0  0  0
    0.9680  -12.4676    2.7669 H   0  0  0  0  0  0  0  0  0  0  0  0
   -0.1399  -12.3124    4.1376 H   0  0  0  0  0  0  0  0  0  0  0  0
    0.4400  -10.2661    2.0826 H   0  0  0  0  0  0  0  0  0  0  0  0
   -0.6533  -10.1314    3.4648 H   0  0  0  0  0  0  0  0  0  0  0  0
    0.4843  -10.3890    5.7799 H   0  0  0  0  0  0  0  0  0  0  0  0
    2.2006   -9.9394    5.9637 H   0  0  0  0  0  0  0  0  0  0  0  0
    0.4500   -7.7886    3.1354 H   0  0  0  0  0  0  0  0  0  0  0  0
    0.9218   -7.5920    6.1240 H   0  0  0  0  0  0  0  0  0  0  0  0
   -0.5822   -8.1128    5.3599 H   0  0  0  0  0  0  0  0  0  0  0  0
    0.0101   -6.4836    5.1106 H   0  0  0  0  0  0  0  0  0  0  0  0
    3.0836   -7.4704    4.5716 H   0  0  0  0  0  0  0  0  0  0  0  0
    2.5051   -5.5981   -0.3826 H   0  0  0  0  0  0  0  0  0  0  0  0
    4.6347   -8.8658    3.2400 H   0  0  0  0  0  0  0  0  0  0  0  0
  1  2  1  0
  1 30  1  0
  1 31  1  0
  1 32  1  0
  2  3  1  0
  2 33  1  0
  2 34  1  0
  3  4  2  3
  3 35  1  0
  4 28  1  0
  4  5  1  0
  5 26  1  0
  5  6  1  0
  5 36  1  1
  6  7  1  0
  6  8  1  0
  6  9  1  0
  7 37  1  0
  7 38  1  0
  7 39  1  0
  8 40  1  0
  8 41  1  0
  8 42  1  0
  9 26  1  0
  9 10  2  0
 10 11  1  0
 10 43  1  0
 11 28  1  0
 11 12  1  6
 11 13  1  0
 12 44  1  0
 12 45  1  0
 12 46  1  0
 13 25  1  0
 13 14  1  0
 13 47  1  6
 14 15  1  0
 14 48  1  0
 14 65  1  0
 15 21  1  0
 15 16  2  0
 16 17  1  0
 16 18  1  0
 17 49  1  0
 17 50  1  0
 17 51  1  0
 18 22  1  0
 18 19  1  0
 18 52  1  1
 19 20  1  0
 19 53  1  0
 19 54  1  0
 21 20  1  6
 20 55  1  0
 20 56  1  0
 21 22  1  0
 21 23  1  0
 22 57  1  0
 22 58  1  0
 23 24  1  0
 23 25  1  0
 23 59  1  6
 24 60  1  0
 24 61  1  0
 24 62  1  0
 25 26  1  0
 25 63  1  1
 26 27  1  1
 27 28  1  0
 28 29  1  6
 29 64  1  0
M  CHG  1  16   1
M  END
>  <i_m_ct_stereo_status>  (260) 
1

>  <s_m_source_file>  (260) 
/var/tmp/pbs.5076255.sched01/tmp_srbpc4z/1203xlsw0nt.sdf

>  <i_m_source_file_index>  (260) 
22

>  <i_lp_mmshare_version>  (260) 
48012

>  <i_f3d_flags>  (260) 
2

>  <s_epik_input>  (260) 
W0NIM11DMShbQ0gzXSlDKD1bQ0hdMilDKE8zKShbQ0BIXTRbQ0BASF01W0NIM10pW0NAQEhdMVxDKD1bQ0hdXFtDSDJdW0NIM10pW0NAQF0zKFtPSF0pW0NAXTIoW0NIM10pW0NASF00W0NIXT1DKFtDQEBdNTY3KU4oW0NIM10pW0NAQEhdKFtDSDJdNylbQ0gyXVtDSDJdNg==

>  <s_epik_cmdline>  (260) 
J2VwaWtfcHl0aG9uJywgJy1waHQnLCAnMi4wJywgJy1waCcsICc3LjAnLCAnLXRuJywgJzgnLCAnLW1hJywgJzIwMCcsICctaW1hZScsICc8aW5maWxlLm1hZT4nLCAnLW9tYWUnLCAnPG91dGZpbGUubWFlPic=

>  <r_lp_tautomer_probability>  (260) 
1

>  <r_epik_Ionization_Penalty>  (260) 
3.46207e-05

>  <r_epik_Ionization_Penalty_Charging>  (260) 
0

>  <r_epik_Ionization_Penalty_Neutral>  (260) 
3.46207e-05

>  <r_epik_State_Penalty>  (260) 
-0

>  <r_epik_Charging_Adjusted_Penalty>  (260) 
0

>  <i_epik_Tot_Q>  (260) 
1

>  <i_epik_Tot_abs_Q>  (260) 
1

>  <s_epik_Chemistry_Notes>  (260) 
This compound has an imine and may undergo hydrolysis.

>  <s_lp_Force_Field>  (260) 
OPLS3e

>  <r_lp_Energy>  (260) 
218.782

>  <b_lp_Chiralities_Consistent>  (260) 
0

>  <s_lp_Variant>  (260) 
103:0-1

>  <s_i_glide_gridfile>  (260) 
pfpi4k_grid

>  <i_i_glide_lignum>  (260) 
22

>  <i_i_glide_rotatable_bonds>  (260) 
2

>  <r_i_docking_score>  (260) 
-2.84936

>  <r_i_glide_ligand_efficiency>  (260) 
-0.0982536

>  <r_i_glide_ligand_efficiency_sa>  (260) 
-0.301866

>  <r_i_glide_ligand_efficiency_ln>  (260) 
-0.65243

>  <r_i_glide_gscore>  (260) 
-2.84936

>  <r_i_glide_lipo>  (260) 
-0.228171

>  <r_i_glide_hbond>  (260) 
0

>  <r_i_glide_metal>  (260) 
-0

>  <r_i_glide_rewards>  (260) 
-0.718844

>  <r_i_glide_evdw>  (260) 
-20.3977

>  <r_i_glide_ecoul>  (260) 
-6.39189

>  <r_i_glide_erotb>  (260) 
0.12555

>  <r_i_glide_esite>  (260) 
-0.0492209

>  <r_i_glide_emodel>  (260) 
-32.3533

>  <r_i_glide_energy>  (260) 
-26.7896

>  <r_i_glide_einternal>  (260) 
1.47481

>  <r_i_glide_intrahb_reward>  (260) 
-0

>  <i_i_glide_confnum>  (260) 
2

>  <i_i_glide_posenum>  (260) 
38

>  <r_i_glide_eff_state_penalty>  (260) 
0

>  <ligand_id>  (260) 
103

>  <original_smiles>  (260) 
CCC=C1C2C(C)(C)C3=CC4(C)C5C=C6N(C)C7CCC6(C7)C(C)C5C32OC14O

>  <smiles>  (260) 
[H]OC12OC34C(=C([H])C1(C([H])([H])[H])C1([H])C([H])([H])C5=[N+](C([H])([H])[H])C6([H])C([H])([H])C([H])([H])C5(C6([H])[H])C([H])(C([H])([H])[H])C31[H])C(C([H])([H])[H])(C([H])([H])[H])C4([H])C2=C([H])C([H])([H])C([H])([H])[H]

$$$$
103:0:1
     RDKit          3D

 65 71  0  0  1  0  0  0  0  0999 V2000
    5.4514   -0.2210    0.5686 C   0  0  0  0  0  0  0  0  0  0  0  0
    4.0231   -0.6205    0.9558 C   0  0  0  0  0  0  0  0  0  0  0  0
    3.7276   -2.0474    0.5146 C   0  0  0  0  0  0  0  0  0  0  0  0
    3.3455   -3.0490    1.3238 C   0  0  0  0  0  0  0  0  0  0  0  0
    2.9281   -2.9474    2.7976 C   0  0  2  0  0  0  0  0  0  0  0  0
    4.0458   -3.0053    3.8383 C   0  0  0  0  0  0  0  0  0  0  0  0
    5.4105   -2.4293    3.4762 C   0  0  0  0  0  0  0  0  0  0  0  0
    3.7307   -2.6428    5.2902 C   0  0  0  0  0  0  0  0  0  0  0  0
    3.8010   -4.4584    3.5043 C   0  0  0  0  0  0  0  0  0  0  0  0
    4.5546   -5.2115    2.6673 C   0  0  0  0  0  0  0  0  0  0  0  0
    3.7368   -5.6675    1.4554 C   0  0  1  0  0  0  0  0  0  0  0  0
    4.5925   -6.2082    0.3032 C   0  0  0  0  0  0  0  0  0  0  0  0
    2.6536   -6.6479    1.9650 C   0  0  1  0  0  0  0  0  0  0  0  0
    2.9569   -8.1053    2.3400 C   0  0  0  0  0  0  0  0  0  0  0  0
    1.7052   -8.6881    2.9619 C   0  0  0  0  0  0  0  0  0  0  0  0
    1.5666   -9.8865    3.3954 N   0  0  0  0  0  0  0  0  0  0  0  0
    2.5228  -11.0116    3.4190 C   0  0  0  0  0  0  0  0  0  0  0  0
    0.2444  -10.0174    4.0100 C   0  0  2  0  0  0  0  0  0  0  0  0
   -0.7868   -9.9876    2.8663 C   0  0  0  0  0  0  0  0  0  0  0  0
   -0.6952   -8.5338    2.3725 C   0  0  0  0  0  0  0  0  0  0  0  0
    0.4093   -7.9328    3.2775 C   0  0  1  0  0  0  0  0  0  0  0  0
    0.0671   -8.6200    4.6066 C   0  0  0  0  0  0  0  0  0  0  0  0
    0.5371   -6.3812    3.2359 C   0  0  1  0  0  0  0  0  0  0  0  0
   -0.2516   -5.6820    4.3471 C   0  0  0  0  0  0  0  0  0  0  0  0
    2.0141   -5.9119    3.1917 C   0  0  2  0  0  0  0  0  0  0  0  0
    2.2560   -4.3240    3.2743 C   0  0  1  0  0  0  0  0  0  0  0  0
    1.8206   -4.3966    1.9037 O   0  0  0  0  0  0  0  0  0  0  0  0
    2.8432   -4.4212    0.9715 C   0  0  1  0  0  0  0  0  0  0  0  0
    2.3130   -4.5352   -0.3348 O   0  0  0  0  0  0  0  0  0  0  0  0
    5.6460    0.8074    0.8553 H   0  0  0  0  0  0  0  0  0  0  0  0
    5.6021   -0.3026   -0.5071 H   0  0  0  0  0  0  0  0  0  0  0  0
    6.2070   -0.8294    1.0632 H   0  0  0  0  0  0  0  0  0  0  0  0
    3.8687   -0.4582    2.0255 H   0  0  0  0  0  0  0  0  0  0  0  0
    3.3059    0.0466    0.4779 H   0  0  0  0  0  0  0  0  0  0  0  0
    3.8175   -2.2325   -0.5493 H   0  0  0  0  0  0  0  0  0  0  0  0
    2.2641   -2.1155    2.9782 H   0  0  0  0  0  0  0  0  0  0  0  0
    5.4133   -1.3379    3.5228 H   0  0  0  0  0  0  0  0  0  0  0  0
    5.7362   -2.6932    2.4695 H   0  0  0  0  0  0  0  0  0  0  0  0
    6.1787   -2.7781    4.1831 H   0  0  0  0  0  0  0  0  0  0  0  0
    3.6250   -1.5605    5.4122 H   0  0  0  0  0  0  0  0  0  0  0  0
    4.5367   -2.9565    5.9603 H   0  0  0  0  0  0  0  0  0  0  0  0
    2.8040   -3.0984    5.6417 H   0  0  0  0  0  0  0  0  0  0  0  0
    5.6022   -5.0313    2.5032 H   0  0  0  0  0  0  0  0  0  0  0  0
    3.9783   -6.5758   -0.5216 H   0  0  0  0  0  0  0  0  0  0  0  0
    5.1750   -7.0633    0.6348 H   0  0  0  0  0  0  0  0  0  0  0  0
    5.2808   -5.4600   -0.1032 H   0  0  0  0  0  0  0  0  0  0  0  0
    1.9329   -6.7189    1.1417 H   0  0  0  0  0  0  0  0  0  0  0  0
    3.2462   -8.7007    1.4721 H   0  0  0  0  0  0  0  0  0  0  0  0
    2.0354  -11.8801    3.8572 H   0  0  0  0  0  0  0  0  0  0  0  0
    3.3794  -10.7312    4.0297 H   0  0  0  0  0  0  0  0  0  0  0  0
    2.8305  -11.2414    2.4006 H   0  0  0  0  0  0  0  0  0  0  0  0
    0.2185  -10.8474    4.7108 H   0  0  0  0  0  0  0  0  0  0  0  0
   -0.5533  -10.6963    2.0736 H   0  0  0  0  0  0  0  0  0  0  0  0
   -1.7860  -10.1761    3.2414 H   0  0  0  0  0  0  0  0  0  0  0  0
   -0.4509   -8.4740    1.3129 H   0  0  0  0  0  0  0  0  0  0  0  0
   -1.6573   -8.0442    2.5206 H   0  0  0  0  0  0  0  0  0  0  0  0
   -0.9522   -8.4386    4.9699 H   0  0  0  0  0  0  0  0  0  0  0  0
    0.7807   -8.4088    5.4043 H   0  0  0  0  0  0  0  0  0  0  0  0
    0.0638   -6.0813    2.2938 H   0  0  0  0  0  0  0  0  0  0  0  0
    0.1623   -5.8500    5.3401 H   0  0  0  0  0  0  0  0  0  0  0  0
   -1.2916   -6.0178    4.3596 H   0  0  0  0  0  0  0  0  0  0  0  0
   -0.2188   -4.6066    4.1857 H   0  0  0  0  0  0  0  0  0  0  0  0
    2.4535   -6.3393    4.1031 H   0  0  0  0  0  0  0  0  0  0  0  0
    2.9665   -4.9102   -0.9234 H   0  0  0  0  0  0  0  0  0  0  0  0
    3.7694   -8.1419    3.0659 H   0  0  0  0  0  0  0  0  0  0  0  0
  1  2  1  0
  1 30  1  0
  1 31  1  0
  1 32  1  0
  2  3  1  0
  2 33  1  0
  2 34  1  0
  3  4  2  3
  3 35  1  0
  4 28  1  0
  4  5  1  0
  5 26  1  0
  5  6  1  0
  5 36  1  6
  6  7  1  0
  6  8  1  0
  6  9  1  0
  7 37  1  0
  7 38  1  0
  7 39  1  0
  8 40  1  0
  8 41  1  0
  8 42  1  0
  9 26  1  0
  9 10  2  0
 10 11  1  0
 10 43  1  0
 11 28  1  0
 11 12  1  6
 11 13  1  0
 12 44  1  0
 12 45  1  0
 12 46  1  0
 13 25  1  0
 13 14  1  0
 13 47  1  6
 14 15  1  0
 14 48  1  0
 14 65  1  0
 15 21  1  0
 15 16  2  0
 16 17  1  0
 16 18  1  0
 17 49  1  0
 17 50  1  0
 17 51  1  0
 18 22  1  0
 18 19  1  0
 18 52  1  1
 19 20  1  0
 19 53  1  0
 19 54  1  0
 21 20  1  6
 20 55  1  0
 20 56  1  0
 21 22  1  0
 21 23  1  0
 22 57  1  0
 22 58  1  0
 23 24  1  0
 23 25  1  0
 23 59  1  6
 24 60  1  0
 24 61  1  0
 24 62  1  0
 25 26  1  0
 25 63  1  1
 26 27  1  1
 27 28  1  0
 28 29  1  6
 29 64  1  0
M  CHG  1  16   1
M  END
>  <i_m_ct_stereo_status>  (261) 
1

>  <s_m_source_file>  (261) 
/var/tmp/pbs.5076255.sched01/tmp_srbpc4z/1203xlsw0nt.sdf

>  <i_m_source_file_index>  (261) 
22

>  <i_lp_mmshare_version>  (261) 
48012

>  <i_f3d_flags>  (261) 
2

>  <s_epik_input>  (261) 
W0NIM11DMShbQ0gzXSlDKD1bQ0hdMilDKE8zKShbQ0BIXTRbQ0BASF01W0NIM10pW0NAQEhdMVxDKD1bQ0hdXFtDSDJdW0NIM10pW0NAQF0zKFtPSF0pW0NAXTIoW0NIM10pW0NASF00W0NIXT1DKFtDQEBdNTY3KU4oW0NIM10pW0NAQEhdKFtDSDJdNylbQ0gyXVtDSDJdNg==

>  <s_epik_cmdline>  (261) 
J2VwaWtfcHl0aG9uJywgJy1waHQnLCAnMi4wJywgJy1waCcsICc3LjAnLCAnLXRuJywgJzgnLCAnLW1hJywgJzIwMCcsICctaW1hZScsICc8aW5maWxlLm1hZT4nLCAnLW9tYWUnLCAnPG91dGZpbGUubWFlPic=

>  <r_lp_tautomer_probability>  (261) 
1

>  <r_epik_Ionization_Penalty>  (261) 
3.46207e-05

>  <r_epik_Ionization_Penalty_Charging>  (261) 
0

>  <r_epik_Ionization_Penalty_Neutral>  (261) 
3.46207e-05

>  <r_epik_State_Penalty>  (261) 
-0

>  <r_epik_Charging_Adjusted_Penalty>  (261) 
0

>  <i_epik_Tot_Q>  (261) 
1

>  <i_epik_Tot_abs_Q>  (261) 
1

>  <s_epik_Chemistry_Notes>  (261) 
This compound has an imine and may undergo hydrolysis.

>  <s_lp_Force_Field>  (261) 
OPLS3e

>  <r_lp_Energy>  (261) 
218.782

>  <b_lp_Chiralities_Consistent>  (261) 
0

>  <s_lp_Variant>  (261) 
103:0-1

>  <s_i_glide_gridfile>  (261) 
pfpi4k_grid

>  <i_i_glide_lignum>  (261) 
22

>  <i_i_glide_rotatable_bonds>  (261) 
2

>  <r_i_docking_score>  (261) 
-2.41859

>  <r_i_glide_ligand_efficiency>  (261) 
-0.0833998

>  <r_i_glide_ligand_efficiency_sa>  (261) 
-0.256231

>  <r_i_glide_ligand_efficiency_ln>  (261) 
-0.553797

>  <r_i_glide_gscore>  (261) 
-2.41859

>  <r_i_glide_lipo>  (261) 
-0.408467

>  <r_i_glide_hbond>  (261) 
-0.000948924

>  <r_i_glide_metal>  (261) 
-0

>  <r_i_glide_rewards>  (261) 
-0.76177

>  <r_i_glide_evdw>  (261) 
-14.7388

>  <r_i_glide_ecoul>  (261) 
-4.08033

>  <r_i_glide_erotb>  (261) 
0.12555

>  <r_i_glide_esite>  (261) 
-0.0239706

>  <r_i_glide_emodel>  (261) 
-22.8769

>  <r_i_glide_energy>  (261) 
-18.8191

>  <r_i_glide_einternal>  (261) 
1.47769

>  <r_i_glide_intrahb_reward>  (261) 
-0

>  <i_i_glide_confnum>  (261) 
2

>  <i_i_glide_posenum>  (261) 
29

>  <r_i_glide_eff_state_penalty>  (261) 
0

>  <ligand_id>  (261) 
103

>  <original_smiles>  (261) 
CCC=C1C2C(C)(C)C3=CC4(C)C5C=C6N(C)C7CCC6(C7)C(C)C5C32OC14O

>  <smiles>  (261) 
[H]OC12OC34C(=C([H])C1(C([H])([H])[H])C1([H])C([H])([H])C5=[N+](C([H])([H])[H])C6([H])C([H])([H])C([H])([H])C5(C6([H])[H])C([H])(C([H])([H])[H])C31[H])C(C([H])([H])[H])(C([H])([H])[H])C4([H])C2=C([H])C([H])([H])C([H])([H])[H]

$$$$
103:0:2
     RDKit          3D

 65 71  0  0  1  0  0  0  0  0999 V2000
   -1.7695   -8.7677    2.7384 C   0  0  0  0  0  0  0  0  0  0  0  0
   -1.7465   -7.7739    3.9192 C   0  0  0  0  0  0  0  0  0  0  0  0
   -0.5476   -6.8300    3.9721 C   0  0  0  0  0  0  0  0  0  0  0  0
    0.7548   -7.1639    3.8998 C   0  0  0  0  0  0  0  0  0  0  0  0
    1.3830   -8.5331    3.6426 C   0  0  2  0  0  0  0  0  0  0  0  0
    1.5277   -9.4652    4.8684 C   0  0  0  0  0  0  0  0  0  0  0  0
    0.4849   -9.3705    6.0087 C   0  0  0  0  0  0  0  0  0  0  0  0
    1.8331  -10.9433    4.6119 C   0  0  0  0  0  0  0  0  0  0  0  0
    2.7390   -8.5633    4.9722 C   0  0  0  0  0  0  0  0  0  0  0  0
    2.8506   -7.4988    5.7913 C   0  0  0  0  0  0  0  0  0  0  0  0
    2.9926   -6.2090    4.9966 C   0  0  1  0  0  0  0  0  0  0  0  0
    2.7922   -4.9468    5.8603 C   0  0  0  0  0  0  0  0  0  0  0  0
    4.3529   -6.2761    4.2714 C   0  0  1  0  0  0  0  0  0  0  0  0
    5.6972   -6.0507    4.9882 C   0  0  0  0  0  0  0  0  0  0  0  0
    6.8017   -6.3612    3.9931 C   0  0  0  0  0  0  0  0  0  0  0  0
    8.0628   -6.2861    4.2067 N   0  0  0  0  0  0  0  0  0  0  0  0
    8.7901   -5.8827    5.4297 C   0  0  0  0  0  0  0  0  0  0  0  0
    8.7897   -6.7816    3.0263 C   0  0  2  0  0  0  0  0  0  0  0  0
    8.6449   -5.7332    1.9060 C   0  0  0  0  0  0  0  0  0  0  0  0
    7.1264   -5.8325    1.5924 C   0  0  0  0  0  0  0  0  0  0  0  0
    6.6208   -6.9224    2.5755 C   0  0  1  0  0  0  0  0  0  0  0  0
    7.8281   -7.8697    2.5539 C   0  0  0  0  0  0  0  0  0  0  0  0
    5.2035   -7.5135    2.2741 C   0  0  1  0  0  0  0  0  0  0  0  0
    5.2046   -8.7907    1.4148 C   0  0  0  0  0  0  0  0  0  0  0  0
    4.3655   -7.6838    3.5748 C   0  0  2  0  0  0  0  0  0  0  0  0
    2.9494   -8.3962    3.4081 C   0  0  1  0  0  0  0  0  0  0  0  0
    2.5821   -7.1107    2.8167 O   0  0  0  0  0  0  0  0  0  0  0  0
    1.9594   -6.2744    3.7561 C   0  0  1  0  0  0  0  0  0  0  0  0
    1.6645   -5.0053    3.2205 O   0  0  0  0  0  0  0  0  0  0  0  0
   -2.6884   -9.3539    2.7305 H   0  0  0  0  0  0  0  0  0  0  0  0
   -0.9618   -9.4975    2.7843 H   0  0  0  0  0  0  0  0  0  0  0  0
   -1.7189   -8.2514    1.7796 H   0  0  0  0  0  0  0  0  0  0  0  0
   -2.6407   -7.1535    3.8780 H   0  0  0  0  0  0  0  0  0  0  0  0
   -1.8257   -8.3124    4.8601 H   0  0  0  0  0  0  0  0  0  0  0  0
   -0.7898   -5.7816    4.0861 H   0  0  0  0  0  0  0  0  0  0  0  0
    0.9804   -9.0251    2.7564 H   0  0  0  0  0  0  0  0  0  0  0  0
   -0.4472   -9.8545    5.7164 H   0  0  0  0  0  0  0  0  0  0  0  0
    0.2105   -8.3514    6.2715 H   0  0  0  0  0  0  0  0  0  0  0  0
    0.8056   -9.8731    6.9195 H   0  0  0  0  0  0  0  0  0  0  0  0
    0.9416  -11.4657    4.2436 H   0  0  0  0  0  0  0  0  0  0  0  0
    2.1381  -11.4538    5.5230 H   0  0  0  0  0  0  0  0  0  0  0  0
    2.6097  -11.0761    3.8647 H   0  0  0  0  0  0  0  0  0  0  0  0
    2.3338   -7.4550    6.7446 H   0  0  0  0  0  0  0  0  0  0  0  0
    2.9543   -4.0394    5.2827 H   0  0  0  0  0  0  0  0  0  0  0  0
    3.5120   -4.9307    6.6786 H   0  0  0  0  0  0  0  0  0  0  0  0
    1.7942   -4.8990    6.2937 H   0  0  0  0  0  0  0  0  0  0  0  0
    4.3069   -5.4849    3.5198 H   0  0  0  0  0  0  0  0  0  0  0  0
    5.7994   -5.0234    5.3359 H   0  0  0  0  0  0  0  0  0  0  0  0
    9.8588   -5.9173    5.2229 H   0  0  0  0  0  0  0  0  0  0  0  0
    8.5414   -6.5739    6.2314 H   0  0  0  0  0  0  0  0  0  0  0  0
    8.4892   -4.8720    5.6863 H   0  0  0  0  0  0  0  0  0  0  0  0
    9.7952   -7.1025    3.2874 H   0  0  0  0  0  0  0  0  0  0  0  0
    8.9370   -4.7367    2.2455 H   0  0  0  0  0  0  0  0  0  0  0  0
    9.2473   -5.9924    1.0358 H   0  0  0  0  0  0  0  0  0  0  0  0
    6.6138   -4.8785    1.7308 H   0  0  0  0  0  0  0  0  0  0  0  0
    6.9834   -6.1493    0.5559 H   0  0  0  0  0  0  0  0  0  0  0  0
    8.0758   -8.2479    1.5584 H   0  0  0  0  0  0  0  0  0  0  0  0
    7.7457   -8.7045    3.2570 H   0  0  0  0  0  0  0  0  0  0  0  0
    4.6953   -6.7673    1.6570 H   0  0  0  0  0  0  0  0  0  0  0  0
    5.6008   -9.6455    1.9606 H   0  0  0  0  0  0  0  0  0  0  0  0
    5.7939   -8.6659    0.5109 H   0  0  0  0  0  0  0  0  0  0  0  0
    4.1931   -9.0517    1.0936 H   0  0  0  0  0  0  0  0  0  0  0  0
    4.9735   -8.3545    4.2010 H   0  0  0  0  0  0  0  0  0  0  0  0
    2.4763   -4.6447    2.8919 H   0  0  0  0  0  0  0  0  0  0  0  0
    5.7837   -6.7143    5.8464 H   0  0  0  0  0  0  0  0  0  0  0  0
  1  2  1  0
  1 30  1  0
  1 31  1  0
  1 32  1  0
  2  3  1  0
  2 33  1  0
  2 34  1  0
  3  4  2  3
  3 35  1  0
  4 28  1  0
  4  5  1  0
  5 26  1  0
  5  6  1  0
  5 36  1  6
  6  7  1  0
  6  8  1  0
  6  9  1  0
  7 37  1  0
  7 38  1  0
  7 39  1  0
  8 40  1  0
  8 41  1  0
  8 42  1  0
  9 26  1  0
  9 10  2  0
 10 11  1  0
 10 43  1  0
 11 28  1  0
 11 12  1  1
 11 13  1  0
 12 44  1  0
 12 45  1  0
 12 46  1  0
 13 25  1  0
 13 14  1  0
 13 47  1  6
 14 15  1  0
 14 48  1  0
 14 65  1  0
 15 21  1  0
 15 16  2  0
 16 17  1  0
 16 18  1  0
 17 49  1  0
 17 50  1  0
 17 51  1  0
 18 22  1  0
 18 19  1  0
 18 52  1  1
 19 20  1  0
 19 53  1  0
 19 54  1  0
 21 20  1  6
 20 55  1  0
 20 56  1  0
 21 22  1  0
 21 23  1  0
 22 57  1  0
 22 58  1  0
 23 24  1  0
 23 25  1  0
 23 59  1  6
 24 60  1  0
 24 61  1  0
 24 62  1  0
 25 26  1  0
 25 63  1  1
 26 27  1  6
 27 28  1  0
 28 29  1  6
 29 64  1  0
M  CHG  1  16   1
M  END
>  <i_m_ct_stereo_status>  (262) 
1

>  <s_m_source_file>  (262) 
/var/tmp/pbs.5076255.sched01/tmp_srbpc4z/1203xlsw0nt.sdf

>  <i_m_source_file_index>  (262) 
22

>  <i_lp_mmshare_version>  (262) 
48012

>  <i_f3d_flags>  (262) 
2

>  <s_epik_input>  (262) 
W0NIM11DMShbQ0gzXSlDKD1bQ0hdMilDKE8zKShbQ0BIXTRbQ0BASF01W0NIM10pW0NAQEhdMVxDKD1bQ0hdXFtDSDJdW0NIM10pW0NAQF0zKFtPSF0pW0NAXTIoW0NIM10pW0NASF00W0NIXT1DKFtDQEBdNTY3KU4oW0NIM10pW0NAQEhdKFtDSDJdNylbQ0gyXVtDSDJdNg==

>  <s_epik_cmdline>  (262) 
J2VwaWtfcHl0aG9uJywgJy1waHQnLCAnMi4wJywgJy1waCcsICc3LjAnLCAnLXRuJywgJzgnLCAnLW1hJywgJzIwMCcsICctaW1hZScsICc8aW5maWxlLm1hZT4nLCAnLW9tYWUnLCAnPG91dGZpbGUubWFlPic=

>  <r_lp_tautomer_probability>  (262) 
1

>  <r_epik_Ionization_Penalty>  (262) 
3.46207e-05

>  <r_epik_Ionization_Penalty_Charging>  (262) 
0

>  <r_epik_Ionization_Penalty_Neutral>  (262) 
3.46207e-05

>  <r_epik_State_Penalty>  (262) 
-0

>  <r_epik_Charging_Adjusted_Penalty>  (262) 
0

>  <i_epik_Tot_Q>  (262) 
1

>  <i_epik_Tot_abs_Q>  (262) 
1

>  <s_epik_Chemistry_Notes>  (262) 
This compound has an imine and may undergo hydrolysis.

>  <s_lp_Force_Field>  (262) 
OPLS3e

>  <r_lp_Energy>  (262) 
218.782

>  <b_lp_Chiralities_Consistent>  (262) 
0

>  <s_lp_Variant>  (262) 
103:0-1

>  <s_i_glide_gridfile>  (262) 
pfpi4k_grid

>  <i_i_glide_lignum>  (262) 
22

>  <i_i_glide_rotatable_bonds>  (262) 
2

>  <r_i_docking_score>  (262) 
-2.05728

>  <r_i_glide_ligand_efficiency>  (262) 
-0.0709406

>  <r_i_glide_ligand_efficiency_sa>  (262) 
-0.217952

>  <r_i_glide_ligand_efficiency_ln>  (262) 
-0.471064

>  <r_i_glide_gscore>  (262) 
-2.05728

>  <r_i_glide_lipo>  (262) 
-0.174732

>  <r_i_glide_hbond>  (262) 
0

>  <r_i_glide_metal>  (262) 
-0

>  <r_i_glide_rewards>  (262) 
-0.756859

>  <r_i_glide_evdw>  (262) 
-19.6081

>  <r_i_glide_ecoul>  (262) 
-1.78388

>  <r_i_glide_erotb>  (262) 
0.12555

>  <r_i_glide_esite>  (262) 
-0.00324583

>  <r_i_glide_emodel>  (262) 
-24.0793

>  <r_i_glide_energy>  (262) 
-21.392

>  <r_i_glide_einternal>  (262) 
2.44243

>  <r_i_glide_intrahb_reward>  (262) 
-0

>  <i_i_glide_confnum>  (262) 
2

>  <i_i_glide_posenum>  (262) 
2

>  <r_i_glide_eff_state_penalty>  (262) 
0

>  <ligand_id>  (262) 
103

>  <original_smiles>  (262) 
CCC=C1C2C(C)(C)C3=CC4(C)C5C=C6N(C)C7CCC6(C7)C(C)C5C32OC14O

>  <smiles>  (262) 
[H]OC12OC34C(=C([H])C1(C([H])([H])[H])C1([H])C([H])([H])C5=[N+](C([H])([H])[H])C6([H])C([H])([H])C([H])([H])C5(C6([H])[H])C([H])(C([H])([H])[H])C31[H])C(C([H])([H])[H])(C([H])([H])[H])C4([H])C2=C([H])C([H])([H])C([H])([H])[H]

$$$$
106:0:0
     RDKit          3D

 50 53  0  0  1  0  0  0  0  0999 V2000
    5.8256   -2.8485   -1.9105 C   0  0  0  0  0  0  0  0  0  0  0  0
    4.3525   -2.3915   -1.9246 C   0  0  2  0  0  0  0  0  0  0  0  0
    4.1692   -1.0563   -1.1961 C   0  0  0  0  0  0  0  0  0  0  0  0
    4.5716   -1.1408    0.2895 C   0  0  1  0  0  0  0  0  0  0  0  0
    4.2476    0.1147    0.8583 O   0  0  0  0  0  0  0  0  0  0  0  0
    4.0309   -2.4142    1.0412 C   0  0  2  0  0  0  0  0  0  0  0  0
    3.0641   -3.2977    0.1996 C   0  0  2  0  0  0  0  0  0  0  0  0
    2.9702   -4.7124    0.8209 C   0  0  0  0  0  0  0  0  0  0  0  0
    2.8418   -4.6964    2.3250 C   0  0  0  0  0  0  0  0  0  0  0  0
    3.0891   -3.6283    3.0998 C   0  0  0  0  0  0  0  0  0  0  0  0
    2.7258   -3.6473    4.5765 C   0  0  0  0  0  0  0  0  0  0  0  0
    1.5710   -2.6648    4.8219 C   0  0  1  0  0  0  0  0  0  0  0  0
    1.2985   -2.5644    6.2040 O   0  0  0  0  0  0  0  0  0  0  0  0
    1.8585   -1.2649    4.2429 C   0  0  0  0  0  0  0  0  0  0  0  0
    2.3675   -1.3088    2.7825 C   0  0  0  0  0  0  0  0  0  0  0  0
    3.5776   -2.2724    2.5528 C   0  0  2  0  0  0  0  0  0  0  0  0
    4.8183   -1.8063    3.3643 C   0  0  0  0  0  0  0  0  0  0  0  0
    3.4000   -3.4416   -1.3174 C   0  0  1  0  0  0  0  0  0  0  0  0
    2.1277   -3.4282   -2.2102 C   0  0  0  0  0  0  0  0  0  0  0  0
    2.5873   -3.0589   -3.6161 C   0  0  0  0  0  0  0  0  0  0  0  0
    3.8443   -2.2675   -3.3618 C   0  0  0  0  0  0  0  0  0  0  0  0
    4.3843   -1.5826   -4.2314 O   0  0  0  0  0  0  0  0  0  0  0  0
    6.1444   -3.1815   -0.9258 H   0  0  0  0  0  0  0  0  0  0  0  0
    6.4921   -2.0447   -2.2117 H   0  0  0  0  0  0  0  0  0  0  0  0
    5.9947   -3.6796   -2.5940 H   0  0  0  0  0  0  0  0  0  0  0  0
    4.7283   -0.2604   -1.7001 H   0  0  0  0  0  0  0  0  0  0  0  0
    3.1154   -0.7713   -1.2602 H   0  0  0  0  0  0  0  0  0  0  0  0
    5.6652   -1.1916    0.3409 H   0  0  0  0  0  0  0  0  0  0  0  0
    4.6173    0.7987    0.3148 H   0  0  0  0  0  0  0  0  0  0  0  0
    4.9200   -3.0415    1.0986 H   0  0  0  0  0  0  0  0  0  0  0  0
    2.0851   -2.8145    0.2761 H   0  0  0  0  0  0  0  0  0  0  0  0
    2.1062   -5.2304    0.4058 H   0  0  0  0  0  0  0  0  0  0  0  0
    3.8490   -5.3160    0.5784 H   0  0  0  0  0  0  0  0  0  0  0  0
    2.4842   -5.6134    2.7662 H   0  0  0  0  0  0  0  0  0  0  0  0
    2.4244   -4.6524    4.8769 H   0  0  0  0  0  0  0  0  0  0  0  0
    3.5955   -3.3998    5.1842 H   0  0  0  0  0  0  0  0  0  0  0  0
    0.6765   -3.0589    4.3355 H   0  0  0  0  0  0  0  0  0  0  0  0
    2.0800   -2.2618    6.6428 H   0  0  0  0  0  0  0  0  0  0  0  0
    0.9457   -0.6672    4.2809 H   0  0  0  0  0  0  0  0  0  0  0  0
    2.5837   -0.7393    4.8646 H   0  0  0  0  0  0  0  0  0  0  0  0
    1.5432   -1.6151    2.1381 H   0  0  0  0  0  0  0  0  0  0  0  0
    2.5934   -0.2869    2.5038 H   0  0  0  0  0  0  0  0  0  0  0  0
    5.2379   -0.8787    2.9822 H   0  0  0  0  0  0  0  0  0  0  0  0
    5.6101   -2.5567    3.3317 H   0  0  0  0  0  0  0  0  0  0  0  0
    4.6033   -1.6203    4.4157 H   0  0  0  0  0  0  0  0  0  0  0  0
    3.9076   -4.3971   -1.4744 H   0  0  0  0  0  0  0  0  0  0  0  0
    1.5690   -4.3632   -2.1802 H   0  0  0  0  0  0  0  0  0  0  0  0
    1.4294   -2.6640   -1.9196 H   0  0  0  0  0  0  0  0  0  0  0  0
    2.8185   -3.9371   -4.2146 H   0  0  0  0  0  0  0  0  0  0  0  0
    1.8522   -2.4598   -4.1462 H   0  0  0  0  0  0  0  0  0  0  0  0
  2  1  1  6
  1 23  1  0
  1 24  1  0
  1 25  1  0
  2 18  1  0
  2 21  1  0
  2  3  1  0
  3  4  1  0
  3 26  1  0
  3 27  1  0
  4  5  1  0
  4  6  1  0
  4 28  1  6
  5 29  1  0
  6 16  1  0
  6  7  1  0
  6 30  1  1
  7  8  1  0
  7 18  1  0
  7 31  1  6
  8  9  1  0
  8 32  1  0
  8 33  1  0
  9 10  2  0
  9 34  1  0
 10 16  1  0
 10 11  1  0
 11 12  1  0
 11 35  1  0
 11 36  1  0
 12 13  1  0
 12 14  1  0
 12 37  1  6
 13 38  1  0
 14 15  1  0
 14 39  1  0
 14 40  1  0
 15 16  1  0
 15 41  1  0
 15 42  1  0
 16 17  1  1
 17 43  1  0
 17 44  1  0
 17 45  1  0
 18 19  1  0
 18 46  1  1
 19 20  1  0
 19 47  1  0
 19 48  1  0
 20 21  1  0
 20 49  1  0
 20 50  1  0
 21 22  2  0
M  END
>  <i_m_ct_stereo_status>  (263) 
1

>  <s_m_source_file>  (263) 
/var/tmp/pbs.5076255.sched01/tmp_srbpc4z/1203xlsw0nt.sdf

>  <i_m_source_file_index>  (263) 
26

>  <i_lp_mmshare_version>  (263) 
48012

>  <i_f3d_flags>  (263) 
0

>  <s_epik_input>  (263) 
Tz1DMVtDSDJdW0NIMl1bQ0BASF0oW0NAQF0xMltDSDNdKVtDQEBIXTNbQ0BASF0oW0NAQEhdKFtDSDJdMilbT0hdKVtDQF00KFtDSDNdKUMoPVtDSF1bQ0gyXTMpW0NIMl1bQ0BASF0oW09IXSlbQ0gyXVtDSDJdNA==

>  <s_epik_cmdline>  (263) 
J2VwaWtfcHl0aG9uJywgJy1waHQnLCAnMi4wJywgJy1waCcsICc3LjAnLCAnLXRuJywgJzgnLCAnLW1hJywgJzIwMCcsICctaW1hZScsICc8aW5maWxlLm1hZT4nLCAnLW9tYWUnLCAnPG91dGZpbGUubWFlPic=

>  <r_lp_tautomer_probability>  (263) 
1

>  <r_epik_Ionization_Penalty>  (263) 
1.69197e-06

>  <r_epik_Ionization_Penalty_Charging>  (263) 
0

>  <r_epik_Ionization_Penalty_Neutral>  (263) 
1.69197e-06

>  <r_epik_State_Penalty>  (263) 
-0

>  <r_epik_Charging_Adjusted_Penalty>  (263) 
0

>  <i_epik_Tot_Q>  (263) 
0

>  <i_epik_Tot_abs_Q>  (263) 
0

>  <s_lp_Force_Field>  (263) 
OPLS3e

>  <r_lp_Energy>  (263) 
27.2943

>  <b_lp_Chiralities_Consistent>  (263) 
1

>  <s_lp_Variant>  (263) 
106:0-1

>  <s_i_glide_gridfile>  (263) 
pfpi4k_grid

>  <i_i_glide_lignum>  (263) 
26

>  <i_i_glide_rotatable_bonds>  (263) 
2

>  <r_i_docking_score>  (263) 
-4.829

>  <r_i_glide_ligand_efficiency>  (263) 
-0.2195

>  <r_i_glide_ligand_efficiency_sa>  (263) 
-0.615047

>  <r_i_glide_ligand_efficiency_ln>  (263) 
-1.18038

>  <r_i_glide_gscore>  (263) 
-4.829

>  <r_i_glide_lipo>  (263) 
-0.648658

>  <r_i_glide_hbond>  (263) 
-0.551065

>  <r_i_glide_metal>  (263) 
-0

>  <r_i_glide_rewards>  (263) 
-1.57188

>  <r_i_glide_evdw>  (263) 
-25.4111

>  <r_i_glide_ecoul>  (263) 
-5.24557

>  <r_i_glide_erotb>  (263) 
0

>  <r_i_glide_esite>  (263) 
0

>  <r_i_glide_emodel>  (263) 
-40.1703

>  <r_i_glide_energy>  (263) 
-30.6567

>  <r_i_glide_einternal>  (263) 
0.391749

>  <r_i_glide_intrahb_reward>  (263) 
-0

>  <i_i_glide_confnum>  (263) 
1

>  <i_i_glide_posenum>  (263) 
6

>  <r_i_glide_eff_state_penalty>  (263) 
0

>  <ligand_id>  (263) 
106

>  <original_smiles>  (263) 
CC12CC(O)C3C(CC=C4CC(O)CCC43C)C1CCC2=O

>  <smiles>  (263) 
[H]OC1([H])C([H])([H])C2=C([H])C([H])([H])C3([H])C4([H])C([H])([H])C([H])([H])C(=O)C4(C([H])([H])[H])C([H])([H])C([H])(O[H])C3([H])C2(C([H])([H])[H])C([H])([H])C1([H])[H]

$$$$
106:0:1
     RDKit          3D

 50 53  0  0  1  0  0  0  0  0999 V2000
    4.1800   -4.3846    4.3140 C   0  0  0  0  0  0  0  0  0  0  0  0
    2.7928   -3.9882    3.7656 C   0  0  2  0  0  0  0  0  0  0  0  0
    2.3215   -4.9504    2.6689 C   0  0  0  0  0  0  0  0  0  0  0  0
    3.2747   -4.9480    1.4594 C   0  0  1  0  0  0  0  0  0  0  0  0
    2.6494   -5.7600    0.4872 O   0  0  0  0  0  0  0  0  0  0  0  0
    3.7280   -3.5197    0.9802 C   0  0  2  0  0  0  0  0  0  0  0  0
    3.0252   -2.3386    1.7150 C   0  0  2  0  0  0  0  0  0  0  0  0
    3.8481   -1.0442    1.5241 C   0  0  0  0  0  0  0  0  0  0  0  0
    4.3410   -0.8578    0.1122 C   0  0  0  0  0  0  0  0  0  0  0  0
    4.3590   -1.8174   -0.8320 C   0  0  0  0  0  0  0  0  0  0  0  0
    4.6599   -1.4626   -2.2782 C   0  0  0  0  0  0  0  0  0  0  0  0
    3.3883   -1.6515   -3.1167 C   0  0  1  0  0  0  0  0  0  0  0  0
    3.6862   -1.4553   -4.4844 O   0  0  0  0  0  0  0  0  0  0  0  0
    2.7539   -3.0415   -2.9108 C   0  0  0  0  0  0  0  0  0  0  0  0
    2.6058   -3.4149   -1.4155 C   0  0  0  0  0  0  0  0  0  0  0  0
    3.9133   -3.2679   -0.5751 C   0  0  2  0  0  0  0  0  0  0  0  0
    5.0152   -4.2367   -1.0845 C   0  0  0  0  0  0  0  0  0  0  0  0
    2.7526   -2.5346    3.2432 C   0  0  1  0  0  0  0  0  0  0  0  0
    1.3790   -1.9626    3.6705 C   0  0  0  0  0  0  0  0  0  0  0  0
    1.0091   -2.6580    4.9801 C   0  0  0  0  0  0  0  0  0  0  0  0
    1.7810   -3.9621    4.9154 C   0  0  0  0  0  0  0  0  0  0  0  0
    1.6160   -4.8822    5.7121 O   0  0  0  0  0  0  0  0  0  0  0  0
    4.9768   -4.1825    3.6016 H   0  0  0  0  0  0  0  0  0  0  0  0
    4.2188   -5.4470    4.5537 H   0  0  0  0  0  0  0  0  0  0  0  0
    4.4239   -3.8384    5.2250 H   0  0  0  0  0  0  0  0  0  0  0  0
    2.2175   -5.9667    3.0612 H   0  0  0  0  0  0  0  0  0  0  0  0
    1.3247   -4.6548    2.3413 H   0  0  0  0  0  0  0  0  0  0  0  0
    4.1856   -5.4849    1.7459 H   0  0  0  0  0  0  0  0  0  0  0  0
    3.2360   -5.8475   -0.2492 H   0  0  0  0  0  0  0  0  0  0  0  0
    4.7443   -3.4551    1.3704 H   0  0  0  0  0  0  0  0  0  0  0  0
    2.0634   -2.2010    1.2141 H   0  0  0  0  0  0  0  0  0  0  0  0
    3.2300   -0.1836    1.7802 H   0  0  0  0  0  0  0  0  0  0  0  0
    4.7234   -1.0199    2.1763 H   0  0  0  0  0  0  0  0  0  0  0  0
    4.6394    0.1454   -0.1418 H   0  0  0  0  0  0  0  0  0  0  0  0
    4.9971   -0.4269   -2.3538 H   0  0  0  0  0  0  0  0  0  0  0  0
    5.4724   -2.0774   -2.6606 H   0  0  0  0  0  0  0  0  0  0  0  0
    2.6649   -0.8875   -2.8203 H   0  0  0  0  0  0  0  0  0  0  0  0
    2.8666   -1.4575   -4.9657 H   0  0  0  0  0  0  0  0  0  0  0  0
    1.7672   -3.0574   -3.3782 H   0  0  0  0  0  0  0  0  0  0  0  0
    3.3367   -3.8050   -3.4267 H   0  0  0  0  0  0  0  0  0  0  0  0
    1.8444   -2.7749   -0.9806 H   0  0  0  0  0  0  0  0  0  0  0  0
    2.1774   -4.4049   -1.3803 H   0  0  0  0  0  0  0  0  0  0  0  0
    4.7787   -5.2778   -0.8834 H   0  0  0  0  0  0  0  0  0  0  0  0
    5.9750   -4.0239   -0.6129 H   0  0  0  0  0  0  0  0  0  0  0  0
    5.1687   -4.1793   -2.1609 H   0  0  0  0  0  0  0  0  0  0  0  0
    3.5100   -1.9923    3.8143 H   0  0  0  0  0  0  0  0  0  0  0  0
    1.4011   -0.8771    3.7776 H   0  0  0  0  0  0  0  0  0  0  0  0
    0.6142   -2.2043    2.9297 H   0  0  0  0  0  0  0  0  0  0  0  0
    1.3572   -2.0936    5.8439 H   0  0  0  0  0  0  0  0  0  0  0  0
   -0.0619   -2.8289    5.0875 H   0  0  0  0  0  0  0  0  0  0  0  0
  2  1  1  1
  1 23  1  0
  1 24  1  0
  1 25  1  0
  2 18  1  0
  2 21  1  0
  2  3  1  0
  3  4  1  0
  3 26  1  0
  3 27  1  0
  4  5  1  0
  4  6  1  0
  4 28  1  1
  5 29  1  0
  6 16  1  0
  6  7  1  0
  6 30  1  1
  7  8  1  0
  7 18  1  0
  7 31  1  6
  8  9  1  0
  8 32  1  0
  8 33  1  0
  9 10  2  0
  9 34  1  0
 10 16  1  0
 10 11  1  0
 11 12  1  0
 11 35  1  0
 11 36  1  0
 12 13  1  0
 12 14  1  0
 12 37  1  1
 13 38  1  0
 14 15  1  0
 14 39  1  0
 14 40  1  0
 15 16  1  0
 15 41  1  0
 15 42  1  0
 16 17  1  6
 17 43  1  0
 17 44  1  0
 17 45  1  0
 18 19  1  0
 18 46  1  1
 19 20  1  0
 19 47  1  0
 19 48  1  0
 20 21  1  0
 20 49  1  0
 20 50  1  0
 21 22  2  0
M  END
>  <i_m_ct_stereo_status>  (264) 
1

>  <s_m_source_file>  (264) 
/var/tmp/pbs.5076255.sched01/tmp_srbpc4z/1203xlsw0nt.sdf

>  <i_m_source_file_index>  (264) 
26

>  <i_lp_mmshare_version>  (264) 
48012

>  <i_f3d_flags>  (264) 
0

>  <s_epik_input>  (264) 
Tz1DMVtDSDJdW0NIMl1bQ0BASF0oW0NAQF0xMltDSDNdKVtDQEBIXTNbQ0BASF0oW0NAQEhdKFtDSDJdMilbT0hdKVtDQF00KFtDSDNdKUMoPVtDSF1bQ0gyXTMpW0NIMl1bQ0BASF0oW09IXSlbQ0gyXVtDSDJdNA==

>  <s_epik_cmdline>  (264) 
J2VwaWtfcHl0aG9uJywgJy1waHQnLCAnMi4wJywgJy1waCcsICc3LjAnLCAnLXRuJywgJzgnLCAnLW1hJywgJzIwMCcsICctaW1hZScsICc8aW5maWxlLm1hZT4nLCAnLW9tYWUnLCAnPG91dGZpbGUubWFlPic=

>  <r_lp_tautomer_probability>  (264) 
1

>  <r_epik_Ionization_Penalty>  (264) 
1.69197e-06

>  <r_epik_Ionization_Penalty_Charging>  (264) 
0

>  <r_epik_Ionization_Penalty_Neutral>  (264) 
1.69197e-06

>  <r_epik_State_Penalty>  (264) 
-0

>  <r_epik_Charging_Adjusted_Penalty>  (264) 
0

>  <i_epik_Tot_Q>  (264) 
0

>  <i_epik_Tot_abs_Q>  (264) 
0

>  <s_lp_Force_Field>  (264) 
OPLS3e

>  <r_lp_Energy>  (264) 
27.2943

>  <b_lp_Chiralities_Consistent>  (264) 
1

>  <s_lp_Variant>  (264) 
106:0-1

>  <s_i_glide_gridfile>  (264) 
pfpi4k_grid

>  <i_i_glide_lignum>  (264) 
26

>  <i_i_glide_rotatable_bonds>  (264) 
2

>  <r_i_docking_score>  (264) 
-4.55984

>  <r_i_glide_ligand_efficiency>  (264) 
-0.207265

>  <r_i_glide_ligand_efficiency_sa>  (264) 
-0.580766

>  <r_i_glide_ligand_efficiency_ln>  (264) 
-1.11459

>  <r_i_glide_gscore>  (264) 
-4.55984

>  <r_i_glide_lipo>  (264) 
-0.24437

>  <r_i_glide_hbond>  (264) 
-0.583953

>  <r_i_glide_metal>  (264) 
-0

>  <r_i_glide_rewards>  (264) 
-1.33634

>  <r_i_glide_evdw>  (264) 
-25.6961

>  <r_i_glide_ecoul>  (264) 
-7.40245

>  <r_i_glide_erotb>  (264) 
0

>  <r_i_glide_esite>  (264) 
0

>  <r_i_glide_emodel>  (264) 
-41.9093

>  <r_i_glide_energy>  (264) 
-33.0986

>  <r_i_glide_einternal>  (264) 
0.69444

>  <r_i_glide_intrahb_reward>  (264) 
-0

>  <i_i_glide_confnum>  (264) 
1

>  <i_i_glide_posenum>  (264) 
33

>  <r_i_glide_eff_state_penalty>  (264) 
0

>  <ligand_id>  (264) 
106

>  <original_smiles>  (264) 
CC12CC(O)C3C(CC=C4CC(O)CCC43C)C1CCC2=O

>  <smiles>  (264) 
[H]OC1([H])C([H])([H])C2=C([H])C([H])([H])C3([H])C4([H])C([H])([H])C([H])([H])C(=O)C4(C([H])([H])[H])C([H])([H])C([H])(O[H])C3([H])C2(C([H])([H])[H])C([H])([H])C1([H])[H]

$$$$
106:0:2
     RDKit          3D

 50 53  0  0  1  0  0  0  0  0999 V2000
    3.8435   -4.5220    4.4313 C   0  0  0  0  0  0  0  0  0  0  0  0
    2.4969   -4.0920    3.8148 C   0  0  2  0  0  0  0  0  0  0  0  0
    2.0787   -5.0203    2.6711 C   0  0  0  0  0  0  0  0  0  0  0  0
    3.0939   -4.9981    1.5124 C   0  0  1  0  0  0  0  0  0  0  0  0
    2.5005   -5.7666    0.4874 O   0  0  0  0  0  0  0  0  0  0  0  0
    3.5979   -3.5643    1.1012 C   0  0  2  0  0  0  0  0  0  0  0  0
    2.8713   -2.3919    1.8211 C   0  0  2  0  0  0  0  0  0  0  0  0
    3.7222   -1.1037    1.7122 C   0  0  0  0  0  0  0  0  0  0  0  0
    4.2984   -0.8832    0.3348 C   0  0  0  0  0  0  0  0  0  0  0  0
    4.3574   -1.8218   -0.6267 C   0  0  0  0  0  0  0  0  0  0  0  0
    4.7466   -1.4389   -2.0446 C   0  0  0  0  0  0  0  0  0  0  0  0
    3.5253   -1.5935   -2.9640 C   0  0  1  0  0  0  0  0  0  0  0  0
    3.9021   -1.3743   -4.3082 O   0  0  0  0  0  0  0  0  0  0  0  0
    2.8626   -2.9775   -2.8295 C   0  0  0  0  0  0  0  0  0  0  0  0
    2.6195   -3.3813   -1.3549 C   0  0  0  0  0  0  0  0  0  0  0  0
    3.8781   -3.2733   -0.4352 C   0  0  2  0  0  0  0  0  0  0  0  0
    4.9932   -4.2510   -0.9039 C   0  0  0  0  0  0  0  0  0  0  0  0
    2.5082   -2.6238    3.3274 C   0  0  1  0  0  0  0  0  0  0  0  0
    1.1197   -2.0393    3.6896 C   0  0  0  0  0  0  0  0  0  0  0  0
    0.6650   -2.7627    4.9574 C   0  0  0  0  0  0  0  0  0  0  0  0
    1.4186   -4.0773    4.9037 C   0  0  0  0  0  0  0  0  0  0  0  0
    1.1870   -5.0167    5.6598 O   0  0  0  0  0  0  0  0  0  0  0  0
    4.6832   -4.3156    3.7717 H   0  0  0  0  0  0  0  0  0  0  0  0
    3.8532   -5.5902    4.6444 H   0  0  0  0  0  0  0  0  0  0  0  0
    4.0420   -4.0029    5.3688 H   0  0  0  0  0  0  0  0  0  0  0  0
    1.9409   -6.0453    3.0308 H   0  0  0  0  0  0  0  0  0  0  0  0
    1.1012   -4.7042    2.3028 H   0  0  0  0  0  0  0  0  0  0  0  0
    3.9788   -5.5591    1.8291 H   0  0  0  0  0  0  0  0  0  0  0  0
    3.1228   -5.8507   -0.2209 H   0  0  0  0  0  0  0  0  0  0  0  0
    4.5906   -3.5270    1.5503 H   0  0  0  0  0  0  0  0  0  0  0  0
    1.9402   -2.2277    1.2701 H   0  0  0  0  0  0  0  0  0  0  0  0
    3.1009   -0.2414    1.9577 H   0  0  0  0  0  0  0  0  0  0  0  0
    4.5591   -1.1132    2.4139 H   0  0  0  0  0  0  0  0  0  0  0  0
    4.6219    0.1251    0.1285 H   0  0  0  0  0  0  0  0  0  0  0  0
    5.1007   -0.4077   -2.0738 H   0  0  0  0  0  0  0  0  0  0  0  0
    5.5735   -2.0576   -2.3905 H   0  0  0  0  0  0  0  0  0  0  0  0
    2.7862   -0.8366   -2.6919 H   0  0  0  0  0  0  0  0  0  0  0  0
    3.9204   -0.4374   -4.4566 H   0  0  0  0  0  0  0  0  0  0  0  0
    1.9047   -2.9641   -3.3537 H   0  0  0  0  0  0  0  0  0  0  0  0
    3.4653   -3.7349   -3.3329 H   0  0  0  0  0  0  0  0  0  0  0  0
    1.8407   -2.7407   -0.9496 H   0  0  0  0  0  0  0  0  0  0  0  0
    2.1797   -4.3668   -1.3757 H   0  0  0  0  0  0  0  0  0  0  0  0
    4.7280   -5.2926   -0.7437 H   0  0  0  0  0  0  0  0  0  0  0  0
    5.9272   -4.0679   -0.3732 H   0  0  0  0  0  0  0  0  0  0  0  0
    5.2100   -4.1703   -1.9676 H   0  0  0  0  0  0  0  0  0  0  0  0
    3.2405   -2.1082    3.9533 H   0  0  0  0  0  0  0  0  0  0  0  0
    1.1517   -0.9573    3.8255 H   0  0  0  0  0  0  0  0  0  0  0  0
    0.3944   -2.2511    2.9022 H   0  0  0  0  0  0  0  0  0  0  0  0
    0.9690   -2.2264    5.8545 H   0  0  0  0  0  0  0  0  0  0  0  0
   -0.4128   -2.9178    4.9961 H   0  0  0  0  0  0  0  0  0  0  0  0
  2  1  1  1
  1 23  1  0
  1 24  1  0
  1 25  1  0
  2 18  1  0
  2 21  1  0
  2  3  1  0
  3  4  1  0
  3 26  1  0
  3 27  1  0
  4  5  1  0
  4  6  1  0
  4 28  1  1
  5 29  1  0
  6 16  1  0
  6  7  1  0
  6 30  1  1
  7  8  1  0
  7 18  1  0
  7 31  1  6
  8  9  1  0
  8 32  1  0
  8 33  1  0
  9 10  2  0
  9 34  1  0
 10 16  1  0
 10 11  1  0
 11 12  1  0
 11 35  1  0
 11 36  1  0
 12 13  1  0
 12 14  1  0
 12 37  1  1
 13 38  1  0
 14 15  1  0
 14 39  1  0
 14 40  1  0
 15 16  1  0
 15 41  1  0
 15 42  1  0
 16 17  1  6
 17 43  1  0
 17 44  1  0
 17 45  1  0
 18 19  1  0
 18 46  1  1
 19 20  1  0
 19 47  1  0
 19 48  1  0
 20 21  1  0
 20 49  1  0
 20 50  1  0
 21 22  2  0
M  END
>  <i_m_ct_stereo_status>  (265) 
1

>  <s_m_source_file>  (265) 
/var/tmp/pbs.5076255.sched01/tmp_srbpc4z/1203xlsw0nt.sdf

>  <i_m_source_file_index>  (265) 
26

>  <i_lp_mmshare_version>  (265) 
48012

>  <i_f3d_flags>  (265) 
0

>  <s_epik_input>  (265) 
Tz1DMVtDSDJdW0NIMl1bQ0BASF0oW0NAQF0xMltDSDNdKVtDQEBIXTNbQ0BASF0oW0NAQEhdKFtDSDJdMilbT0hdKVtDQF00KFtDSDNdKUMoPVtDSF1bQ0gyXTMpW0NIMl1bQ0BASF0oW09IXSlbQ0gyXVtDSDJdNA==

>  <s_epik_cmdline>  (265) 
J2VwaWtfcHl0aG9uJywgJy1waHQnLCAnMi4wJywgJy1waCcsICc3LjAnLCAnLXRuJywgJzgnLCAnLW1hJywgJzIwMCcsICctaW1hZScsICc8aW5maWxlLm1hZT4nLCAnLW9tYWUnLCAnPG91dGZpbGUubWFlPic=

>  <r_lp_tautomer_probability>  (265) 
1

>  <r_epik_Ionization_Penalty>  (265) 
1.69197e-06

>  <r_epik_Ionization_Penalty_Charging>  (265) 
0

>  <r_epik_Ionization_Penalty_Neutral>  (265) 
1.69197e-06

>  <r_epik_State_Penalty>  (265) 
-0

>  <r_epik_Charging_Adjusted_Penalty>  (265) 
0

>  <i_epik_Tot_Q>  (265) 
0

>  <i_epik_Tot_abs_Q>  (265) 
0

>  <s_lp_Force_Field>  (265) 
OPLS3e

>  <r_lp_Energy>  (265) 
27.2943

>  <b_lp_Chiralities_Consistent>  (265) 
1

>  <s_lp_Variant>  (265) 
106:0-1

>  <s_i_glide_gridfile>  (265) 
pfpi4k_grid

>  <i_i_glide_lignum>  (265) 
26

>  <i_i_glide_rotatable_bonds>  (265) 
2

>  <r_i_docking_score>  (265) 
-3.98865

>  <r_i_glide_ligand_efficiency>  (265) 
-0.181302

>  <r_i_glide_ligand_efficiency_sa>  (265) 
-0.508016

>  <r_i_glide_ligand_efficiency_ln>  (265) 
-0.974971

>  <r_i_glide_gscore>  (265) 
-3.98865

>  <r_i_glide_lipo>  (265) 
-0.198467

>  <r_i_glide_hbond>  (265) 
-0.271602

>  <r_i_glide_metal>  (265) 
-0

>  <r_i_glide_rewards>  (265) 
-1.33859

>  <r_i_glide_evdw>  (265) 
-26.4751

>  <r_i_glide_ecoul>  (265) 
-5.70822

>  <r_i_glide_erotb>  (265) 
0

>  <r_i_glide_esite>  (265) 
0

>  <r_i_glide_emodel>  (265) 
-39.4859

>  <r_i_glide_energy>  (265) 
-32.1833

>  <r_i_glide_einternal>  (265) 
1.05608

>  <r_i_glide_intrahb_reward>  (265) 
-0

>  <i_i_glide_confnum>  (265) 
1

>  <i_i_glide_posenum>  (265) 
31

>  <r_i_glide_eff_state_penalty>  (265) 
0

>  <ligand_id>  (265) 
106

>  <original_smiles>  (265) 
CC12CC(O)C3C(CC=C4CC(O)CCC43C)C1CCC2=O

>  <smiles>  (265) 
[H]OC1([H])C([H])([H])C2=C([H])C([H])([H])C3([H])C4([H])C([H])([H])C([H])([H])C(=O)C4(C([H])([H])[H])C([H])([H])C([H])(O[H])C3([H])C2(C([H])([H])[H])C([H])([H])C1([H])[H]

$$$$
107:0:0
     RDKit          3D

 75 81  0  0  1  0  0  0  0  0999 V2000
    8.6532   -7.7235    3.4031 C   0  0  0  0  0  0  0  0  0  0  0  0
    7.8319   -8.4156    4.3295 O   0  0  0  0  0  0  0  0  0  0  0  0
    7.0140   -9.3713    3.7372 C   0  0  0  0  0  0  0  0  0  0  0  0
    5.9384   -8.8095    3.0466 O   0  0  0  0  0  0  0  0  0  0  0  0
    4.9367   -8.1356    3.8162 C   0  0  2  0  0  0  0  0  0  0  0  0
    4.2180   -9.1320    4.7265 C   0  0  0  0  0  0  0  0  0  0  0  0
    2.9481   -9.5292    4.5717 C   0  0  0  0  0  0  0  0  0  0  0  0
    2.3172  -10.6953    5.2967 C   0  0  1  0  0  0  0  0  0  0  0  0
    1.6172  -10.2419    6.4312 O   0  0  0  0  0  0  0  0  0  0  0  0
    1.3399  -11.2981    4.2697 C   0  0  0  0  0  0  0  0  0  0  0  0
    1.4728  -10.4437    2.9906 C   0  0  0  0  0  0  0  0  0  0  0  0
    2.0445   -9.0844    3.4460 C   0  0  1  0  0  0  0  0  0  0  0  0
    0.8733   -8.2481    4.0253 C   0  0  0  0  0  0  0  0  0  0  0  0
    2.8169   -8.2547    2.3577 C   0  0  2  0  0  0  0  0  0  0  0  0
    3.5041   -9.0472    1.2351 C   0  0  0  0  0  0  0  0  0  0  0  0
    4.5197   -8.0844    0.6076 C   0  0  0  0  0  0  0  0  0  0  0  0
    4.6658   -6.8691    1.5603 C   0  0  1  0  0  0  0  0  0  0  0  0
    4.1160   -5.5585    0.9100 C   0  0  1  0  0  0  0  0  0  0  0  0
    2.8423   -5.0380    1.5598 C   0  0  2  0  0  0  0  0  0  0  0  0
    2.7291   -3.5860    1.0619 C   0  0  0  0  0  0  0  0  0  0  0  0
    4.1331   -3.0953    0.6049 C   0  0  1  0  0  0  0  0  0  0  0  0
    4.0757   -2.6564   -0.8834 C   0  0  0  0  0  0  0  0  0  0  0  0
    4.7240   -1.9788    1.5124 C   0  0  1  0  0  0  0  0  0  0  0  0
    3.7925   -0.8288    1.9003 C   0  0  0  0  0  0  0  0  0  0  0  0
    3.2750    0.1506    0.8916 C   0  0  0  0  0  0  0  0  0  0  0  0
    2.5335    1.0622    1.6826 O   0  0  0  0  0  0  0  0  0  0  0  0
    2.5534    0.7310    2.9858 C   0  0  0  0  0  0  0  0  0  0  0  0
    1.9884    1.3332    3.8935 O   0  0  0  0  0  0  0  0  0  0  0  0
    3.3723   -0.4725    3.1163 C   0  0  0  0  0  0  0  0  0  0  0  0
    5.3067   -2.7352    2.7052 C   0  0  0  0  0  0  0  0  0  0  0  0
    5.8826   -4.0178    2.1128 C   0  0  0  0  0  0  0  0  0  0  0  0
    5.0591   -4.3312    0.8402 C   0  0  1  0  0  0  0  0  0  0  0  0
    5.9852   -4.5272   -0.2101 O   0  0  0  0  0  0  0  0  0  0  0  0
    2.9273   -5.0501    2.9756 O   0  0  0  0  0  0  0  0  0  0  0  0
    3.4029   -6.0988    3.6840 C   0  0  0  0  0  0  0  0  0  0  0  0
    3.4105   -6.0795    4.9116 O   0  0  0  0  0  0  0  0  0  0  0  0
    3.9521   -7.3189    2.8827 C   0  0  2  0  0  0  0  0  0  0  0  0
    9.2624   -6.9872    3.9295 H   0  0  0  0  0  0  0  0  0  0  0  0
    8.0548   -7.2007    2.6569 H   0  0  0  0  0  0  0  0  0  0  0  0
    9.3289   -8.4123    2.8942 H   0  0  0  0  0  0  0  0  0  0  0  0
    7.5865   -9.9736    3.0292 H   0  0  0  0  0  0  0  0  0  0  0  0
    6.6718  -10.0614    4.5071 H   0  0  0  0  0  0  0  0  0  0  0  0
    5.4701   -7.4377    4.4665 H   0  0  0  0  0  0  0  0  0  0  0  0
    4.8008   -9.5795    5.5184 H   0  0  0  0  0  0  0  0  0  0  0  0
    3.0689  -11.4190    5.6118 H   0  0  0  0  0  0  0  0  0  0  0  0
    1.4162  -11.0138    6.9725 H   0  0  0  0  0  0  0  0  0  0  0  0
    1.5888  -12.3348    4.0614 H   0  0  0  0  0  0  0  0  0  0  0  0
    0.3124  -11.2917    4.6355 H   0  0  0  0  0  0  0  0  0  0  0  0
    2.1849  -10.9604    2.3548 H   0  0  0  0  0  0  0  0  0  0  0  0
    0.5397  -10.3578    2.4364 H   0  0  0  0  0  0  0  0  0  0  0  0
    0.2671   -7.8046    3.2356 H   0  0  0  0  0  0  0  0  0  0  0  0
    1.2231   -7.4513    4.6803 H   0  0  0  0  0  0  0  0  0  0  0  0
    0.2013   -8.8569    4.6322 H   0  0  0  0  0  0  0  0  0  0  0  0
    2.0695   -7.6520    1.8465 H   0  0  0  0  0  0  0  0  0  0  0  0
    4.0420   -9.9079    1.6357 H   0  0  0  0  0  0  0  0  0  0  0  0
    2.7955   -9.4348    0.5023 H   0  0  0  0  0  0  0  0  0  0  0  0
    5.4762   -8.5979    0.4981 H   0  0  0  0  0  0  0  0  0  0  0  0
    4.2229   -7.8019   -0.3997 H   0  0  0  0  0  0  0  0  0  0  0  0
    5.7336   -6.7290    1.7372 H   0  0  0  0  0  0  0  0  0  0  0  0
    3.8319   -5.7648   -0.1223 H   0  0  0  0  0  0  0  0  0  0  0  0
    1.9666   -5.6095    1.2521 H   0  0  0  0  0  0  0  0  0  0  0  0
    2.0558   -3.5626    0.2044 H   0  0  0  0  0  0  0  0  0  0  0  0
    2.2686   -2.9495    1.8181 H   0  0  0  0  0  0  0  0  0  0  0  0
    5.0290   -2.2538   -1.2279 H   0  0  0  0  0  0  0  0  0  0  0  0
    3.3228   -1.8902   -1.0549 H   0  0  0  0  0  0  0  0  0  0  0  0
    3.8160   -3.4910   -1.5369 H   0  0  0  0  0  0  0  0  0  0  0  0
    5.5669   -1.5246    0.9891 H   0  0  0  0  0  0  0  0  0  0  0  0
    2.6256   -0.3275    0.1602 H   0  0  0  0  0  0  0  0  0  0  0  0
    4.1035    0.6489    0.3869 H   0  0  0  0  0  0  0  0  0  0  0  0
    3.5874   -0.9475    4.0606 H   0  0  0  0  0  0  0  0  0  0  0  0
    6.0567   -2.1458    3.2292 H   0  0  0  0  0  0  0  0  0  0  0  0
    4.5266   -2.9926    3.4217 H   0  0  0  0  0  0  0  0  0  0  0  0
    6.9275   -3.8500    1.8474 H   0  0  0  0  0  0  0  0  0  0  0  0
    5.8848   -4.8158    2.8517 H   0  0  0  0  0  0  0  0  0  0  0  0
    5.4956   -4.7192   -0.9977 H   0  0  0  0  0  0  0  0  0  0  0  0
  1  2  1  0
  1 38  1  0
  1 39  1  0
  1 40  1  0
  2  3  1  0
  3  4  1  0
  3 41  1  0
  3 42  1  0
  4  5  1  0
  5 37  1  0
  5  6  1  0
  5 43  1  1
  6  7  2  0
  6 44  1  0
  7 12  1  0
  7  8  1  0
  8  9  1  0
  8 10  1  0
  8 45  1  1
  9 46  1  0
 10 11  1  0
 10 47  1  0
 10 48  1  0
 11 12  1  0
 11 49  1  0
 11 50  1  0
 12 13  1  1
 12 14  1  0
 13 51  1  0
 13 52  1  0
 13 53  1  0
 14 37  1  0
 14 15  1  0
 14 54  1  6
 15 16  1  0
 15 55  1  0
 15 56  1  0
 16 17  1  0
 16 57  1  0
 16 58  1  0
 17 37  1  0
 17 18  1  0
 17 59  1  1
 18 32  1  0
 18 19  1  0
 18 60  1  6
 19 20  1  0
 19 34  1  0
 19 61  1  1
 20 21  1  0
 20 62  1  0
 20 63  1  0
 21 32  1  0
 21 22  1  6
 21 23  1  0
 22 64  1  0
 22 65  1  0
 22 66  1  0
 23 30  1  0
 23 67  1  6
 23 24  1  0
 24 29  2  0
 24 25  1  0
 25 26  1  0
 25 68  1  0
 25 69  1  0
 26 27  1  0
 27 29  1  0
 27 28  2  0
 29 70  1  0
 30 31  1  0
 30 71  1  0
 30 72  1  0
 31 32  1  0
 31 73  1  0
 31 74  1  0
 32 33  1  6
 33 75  1  0
 34 35  1  0
 35 36  2  0
 37 35  1  1
M  END
>  <i_m_ct_stereo_status>  (266) 
1

>  <s_m_source_file>  (266) 
/var/tmp/pbs.5076255.sched01/tmp_srbpc4z/1203xlsw0nt.sdf

>  <i_m_source_file_index>  (266) 
27

>  <i_lp_mmshare_version>  (266) 
48012

>  <i_f3d_flags>  (266) 
0

>  <s_epik_input>  (266) 
W0NIM11PW0NIMl1PW0NAQEhdMVtDSF09QyhbQ0BASF0oW09IXSlbQ0gyXVtDSDJdMilbQ0BAXTIoW0NIM10pW0NAQEhdKFtDQEBdMTM0KVtDSDJdW0NIMl1bQ0BIXTNbQ0BIXTVbQ0BASF0oT0M0PU8pW0NIMl1bQ0BdNihbQ0gzXSlbQ0BAXTUoW09IXSlbQ0gyXVtDSDJdW0NAQEhdNmM3W2NIXW9jKFtPSF0pW2NIXTc=

>  <s_epik_cmdline>  (266) 
J2VwaWtfcHl0aG9uJywgJy1waHQnLCAnMi4wJywgJy1waCcsICc3LjAnLCAnLXRuJywgJzgnLCAnLW1hJywgJzIwMCcsICctaW1hZScsICc8aW5maWxlLm1hZT4nLCAnLW9tYWUnLCAnPG91dGZpbGUubWFlPic=

>  <r_lp_tautomer_probability>  (266) 
1

>  <r_epik_Ionization_Penalty>  (266) 
1.34564e-07

>  <r_epik_Ionization_Penalty_Charging>  (266) 
0

>  <r_epik_Ionization_Penalty_Neutral>  (266) 
1.34564e-07

>  <r_epik_State_Penalty>  (266) 
-0

>  <r_epik_Charging_Adjusted_Penalty>  (266) 
0

>  <i_epik_Tot_Q>  (266) 
0

>  <i_epik_Tot_abs_Q>  (266) 
0

>  <s_epik_Chemistry_Notes>  (266) 
This compound has an ester and may undergo hydrolysis at high or low pH. This compound contains an acetal/aminal-like group ( X-CH(R)-Y where X, Y are N, S, or O) that may be acid/base labile, releasing an aldehyde.

>  <s_lp_Force_Field>  (266) 
OPLS3e

>  <r_lp_Energy>  (266) 
53.1544

>  <b_lp_Chiralities_Consistent>  (266) 
1

>  <s_lp_Variant>  (266) 
107:0-1

>  <s_i_glide_gridfile>  (266) 
pfpi4k_grid

>  <i_i_glide_lignum>  (266) 
27

>  <i_i_glide_rotatable_bonds>  (266) 
6

>  <r_i_docking_score>  (266) 
-2.85641

>  <r_i_glide_ligand_efficiency>  (266) 
-0.0772002

>  <r_i_glide_ligand_efficiency_sa>  (266) 
-0.257248

>  <r_i_glide_ligand_efficiency_ln>  (266) 
-0.619488

>  <r_i_glide_gscore>  (266) 
-2.85641

>  <r_i_glide_lipo>  (266) 
-0.52662

>  <r_i_glide_hbond>  (266) 
-0.142321

>  <r_i_glide_metal>  (266) 
-0

>  <r_i_glide_rewards>  (266) 
-0.0382252

>  <r_i_glide_evdw>  (266) 
-22.541

>  <r_i_glide_ecoul>  (266) 
-8.35735

>  <r_i_glide_erotb>  (266) 
0.232388

>  <r_i_glide_esite>  (266) 
-0.000976336

>  <r_i_glide_emodel>  (266) 
-36.3984

>  <r_i_glide_energy>  (266) 
-30.8983

>  <r_i_glide_einternal>  (266) 
0.889707

>  <r_i_glide_intrahb_reward>  (266) 
-0

>  <i_i_glide_confnum>  (266) 
2

>  <i_i_glide_posenum>  (266) 
1

>  <r_i_glide_eff_state_penalty>  (266) 
0

>  <ligand_id>  (266) 
107

>  <original_smiles>  (266) 
COCOC1C=C2C(O)CCC2(C)C2CCC3C4C(CC5(C)C(c6coc(O)c6)CCC45O)OC(=O)C132

>  <smiles>  (266) 
[H]OC1([H])C2=C([H])C([H])(OC([H])([H])OC([H])([H])[H])C34C(=O)OC5([H])C([H])([H])C6(C([H])([H])[H])C([H])(C7=C([H])C(=O)OC7([H])[H])C([H])([H])C([H])([H])C6(O[H])C5([H])C3([H])C([H])([H])C([H])([H])C4([H])C2(C([H])([H])[H])C([H])([H])C1([H])[H]

$$$$
107:0:1
     RDKit          3D

 75 81  0  0  1  0  0  0  0  0999 V2000
    8.4802   -7.1053    3.4999 C   0  0  0  0  0  0  0  0  0  0  0  0
    7.8164   -7.9952    4.3829 O   0  0  0  0  0  0  0  0  0  0  0  0
    7.0955   -8.9909    3.7309 C   0  0  0  0  0  0  0  0  0  0  0  0
    5.9745   -8.4978    3.0622 O   0  0  0  0  0  0  0  0  0  0  0  0
    4.9427   -7.9020    3.8570 C   0  0  2  0  0  0  0  0  0  0  0  0
    4.2737   -8.9617    4.7301 C   0  0  0  0  0  0  0  0  0  0  0  0
    3.0187   -9.4040    4.5643 C   0  0  0  0  0  0  0  0  0  0  0  0
    2.4327  -10.6195    5.2464 C   0  0  1  0  0  0  0  0  0  0  0  0
    1.6978  -10.2294    6.3843 O   0  0  0  0  0  0  0  0  0  0  0  0
    1.4859  -11.2284    4.1921 C   0  0  0  0  0  0  0  0  0  0  0  0
    1.5767  -10.3151    2.9500 C   0  0  0  0  0  0  0  0  0  0  0  0
    2.0962   -8.9526    3.4576 C   0  0  1  0  0  0  0  0  0  0  0  0
    0.8955   -8.1827    4.0654 C   0  0  0  0  0  0  0  0  0  0  0  0
    2.8298   -8.0540    2.3994 C   0  0  2  0  0  0  0  0  0  0  0  0
    3.5475   -8.7763    1.2494 C   0  0  0  0  0  0  0  0  0  0  0  0
    4.5181   -7.7525    0.6518 C   0  0  0  0  0  0  0  0  0  0  0  0
    4.6201   -6.5673    1.6445 C   0  0  1  0  0  0  0  0  0  0  0  0
    4.0198   -5.2585    1.0420 C   0  0  1  0  0  0  0  0  0  0  0  0
    2.7299   -4.8196    1.7112 C   0  0  2  0  0  0  0  0  0  0  0  0
    2.5639   -3.3604    1.2650 C   0  0  0  0  0  0  0  0  0  0  0  0
    3.9422   -2.7842    0.8238 C   0  0  1  0  0  0  0  0  0  0  0  0
    3.8602   -2.2900   -0.6442 C   0  0  0  0  0  0  0  0  0  0  0  0
    4.4853   -1.6711    1.7721 C   0  0  1  0  0  0  0  0  0  0  0  0
    3.5348   -0.5540    2.2252 C   0  0  0  0  0  0  0  0  0  0  0  0
    3.8448    0.3257    3.4055 C   0  0  0  0  0  0  0  0  0  0  0  0
    2.7014    1.1653    3.4887 O   0  0  0  0  0  0  0  0  0  0  0  0
    1.8073    0.8912    2.5158 C   0  0  0  0  0  0  0  0  0  0  0  0
    0.7240    1.4423    2.3489 O   0  0  0  0  0  0  0  0  0  0  0  0
    2.3515   -0.2012    1.7161 C   0  0  0  0  0  0  0  0  0  0  0  0
    5.0863   -2.4522    2.9381 C   0  0  0  0  0  0  0  0  0  0  0  0
    5.7200   -3.6889    2.2995 C   0  0  0  0  0  0  0  0  0  0  0  0
    4.9173   -3.9927    1.0118 C   0  0  1  0  0  0  0  0  0  0  0  0
    5.8524   -4.1334   -0.0449 O   0  0  0  0  0  0  0  0  0  0  0  0
    2.8209   -4.8739    3.1270 O   0  0  0  0  0  0  0  0  0  0  0  0
    3.3356   -5.9242    3.7975 C   0  0  0  0  0  0  0  0  0  0  0  0
    3.3453   -5.9488    5.0267 O   0  0  0  0  0  0  0  0  0  0  0  0
    3.9270   -7.0906    2.9535 C   0  0  2  0  0  0  0  0  0  0  0  0
    9.0135   -6.3471    4.0751 H   0  0  0  0  0  0  0  0  0  0  0  0
    7.7707   -6.5945    2.8500 H   0  0  0  0  0  0  0  0  0  0  0  0
    9.2040   -7.6337    2.8818 H   0  0  0  0  0  0  0  0  0  0  0  0
    7.7300   -9.4914    2.9995 H   0  0  0  0  0  0  0  0  0  0  0  0
    6.8108   -9.7515    4.4559 H   0  0  0  0  0  0  0  0  0  0  0  0
    5.4421   -7.2043    4.5314 H   0  0  0  0  0  0  0  0  0  0  0  0
    4.8846   -9.4138    5.4955 H   0  0  0  0  0  0  0  0  0  0  0  0
    3.2159  -11.3207    5.5424 H   0  0  0  0  0  0  0  0  0  0  0  0
    1.4842  -11.0185    6.8937 H   0  0  0  0  0  0  0  0  0  0  0  0
    1.7688  -12.2525    3.9465 H   0  0  0  0  0  0  0  0  0  0  0  0
    0.4590  -11.2703    4.5615 H   0  0  0  0  0  0  0  0  0  0  0  0
    2.2973  -10.7747    2.2804 H   0  0  0  0  0  0  0  0  0  0  0  0
    0.6352  -10.2426    2.4043 H   0  0  0  0  0  0  0  0  0  0  0  0
    0.2684   -7.7345    3.2922 H   0  0  0  0  0  0  0  0  0  0  0  0
    1.2141   -7.3952    4.7489 H   0  0  0  0  0  0  0  0  0  0  0  0
    0.2483   -8.8389    4.6515 H   0  0  0  0  0  0  0  0  0  0  0  0
    2.0600   -7.4616    1.9101 H   0  0  0  0  0  0  0  0  0  0  0  0
    4.1210   -9.6288    1.6142 H   0  0  0  0  0  0  0  0  0  0  0  0
    2.8530   -9.1652    0.5077 H   0  0  0  0  0  0  0  0  0  0  0  0
    5.4922   -8.2207    0.5298 H   0  0  0  0  0  0  0  0  0  0  0  0
    4.2150   -7.4474   -0.3480 H   0  0  0  0  0  0  0  0  0  0  0  0
    5.6824   -6.3899    1.8253 H   0  0  0  0  0  0  0  0  0  0  0  0
    3.7418   -5.4411    0.0030 H   0  0  0  0  0  0  0  0  0  0  0  0
    1.8752   -5.4094    1.3847 H   0  0  0  0  0  0  0  0  0  0  0  0
    1.8863   -3.3190    0.4120 H   0  0  0  0  0  0  0  0  0  0  0  0
    2.0796   -2.7966    2.0604 H   0  0  0  0  0  0  0  0  0  0  0  0
    4.7963   -1.8420   -0.9761 H   0  0  0  0  0  0  0  0  0  0  0  0
    3.0841   -1.5370   -0.7734 H   0  0  0  0  0  0  0  0  0  0  0  0
    3.6260   -3.1062   -1.3291 H   0  0  0  0  0  0  0  0  0  0  0  0
    5.3132   -1.1703    1.2667 H   0  0  0  0  0  0  0  0  0  0  0  0
    4.7492    0.9104    3.2497 H   0  0  0  0  0  0  0  0  0  0  0  0
    3.9579   -0.2626    4.3156 H   0  0  0  0  0  0  0  0  0  0  0  0
    1.8301   -0.6378    0.8884 H   0  0  0  0  0  0  0  0  0  0  0  0
    5.8110   -1.8562    3.4909 H   0  0  0  0  0  0  0  0  0  0  0  0
    4.3085   -2.7545    3.6404 H   0  0  0  0  0  0  0  0  0  0  0  0
    6.7554   -3.4672    2.0388 H   0  0  0  0  0  0  0  0  0  0  0  0
    5.7609   -4.5129    3.0089 H   0  0  0  0  0  0  0  0  0  0  0  0
    5.3729   -4.3406   -0.8340 H   0  0  0  0  0  0  0  0  0  0  0  0
  1  2  1  0
  1 38  1  0
  1 39  1  0
  1 40  1  0
  2  3  1  0
  3  4  1  0
  3 41  1  0
  3 42  1  0
  4  5  1  0
  5 37  1  0
  5  6  1  0
  5 43  1  1
  6  7  2  0
  6 44  1  0
  7 12  1  0
  7  8  1  0
  8  9  1  0
  8 10  1  0
  8 45  1  1
  9 46  1  0
 10 11  1  0
 10 47  1  0
 10 48  1  0
 11 12  1  0
 11 49  1  0
 11 50  1  0
 12 13  1  1
 12 14  1  0
 13 51  1  0
 13 52  1  0
 13 53  1  0
 14 37  1  0
 14 15  1  0
 14 54  1  6
 15 16  1  0
 15 55  1  0
 15 56  1  0
 16 17  1  0
 16 57  1  0
 16 58  1  0
 17 37  1  0
 17 18  1  0
 17 59  1  1
 18 32  1  0
 18 19  1  0
 18 60  1  6
 19 20  1  0
 19 34  1  0
 19 61  1  6
 20 21  1  0
 20 62  1  0
 20 63  1  0
 21 32  1  0
 21 22  1  6
 21 23  1  0
 22 64  1  0
 22 65  1  0
 22 66  1  0
 23 30  1  0
 23 67  1  6
 23 24  1  0
 24 29  2  0
 24 25  1  0
 25 26  1  0
 25 68  1  0
 25 69  1  0
 26 27  1  0
 27 29  1  0
 27 28  2  0
 29 70  1  0
 30 31  1  0
 30 71  1  0
 30 72  1  0
 31 32  1  0
 31 73  1  0
 31 74  1  0
 32 33  1  6
 33 75  1  0
 34 35  1  0
 35 36  2  0
 37 35  1  1
M  END
>  <i_m_ct_stereo_status>  (267) 
1

>  <s_m_source_file>  (267) 
/var/tmp/pbs.5076255.sched01/tmp_srbpc4z/1203xlsw0nt.sdf

>  <i_m_source_file_index>  (267) 
27

>  <i_lp_mmshare_version>  (267) 
48012

>  <i_f3d_flags>  (267) 
0

>  <s_epik_input>  (267) 
W0NIM11PW0NIMl1PW0NAQEhdMVtDSF09QyhbQ0BASF0oW09IXSlbQ0gyXVtDSDJdMilbQ0BAXTIoW0NIM10pW0NAQEhdKFtDQEBdMTM0KVtDSDJdW0NIMl1bQ0BIXTNbQ0BIXTVbQ0BASF0oT0M0PU8pW0NIMl1bQ0BdNihbQ0gzXSlbQ0BAXTUoW09IXSlbQ0gyXVtDSDJdW0NAQEhdNmM3W2NIXW9jKFtPSF0pW2NIXTc=

>  <s_epik_cmdline>  (267) 
J2VwaWtfcHl0aG9uJywgJy1waHQnLCAnMi4wJywgJy1waCcsICc3LjAnLCAnLXRuJywgJzgnLCAnLW1hJywgJzIwMCcsICctaW1hZScsICc8aW5maWxlLm1hZT4nLCAnLW9tYWUnLCAnPG91dGZpbGUubWFlPic=

>  <r_lp_tautomer_probability>  (267) 
1

>  <r_epik_Ionization_Penalty>  (267) 
1.34564e-07

>  <r_epik_Ionization_Penalty_Charging>  (267) 
0

>  <r_epik_Ionization_Penalty_Neutral>  (267) 
1.34564e-07

>  <r_epik_State_Penalty>  (267) 
-0

>  <r_epik_Charging_Adjusted_Penalty>  (267) 
0

>  <i_epik_Tot_Q>  (267) 
0

>  <i_epik_Tot_abs_Q>  (267) 
0

>  <s_epik_Chemistry_Notes>  (267) 
This compound has an ester and may undergo hydrolysis at high or low pH. This compound contains an acetal/aminal-like group ( X-CH(R)-Y where X, Y are N, S, or O) that may be acid/base labile, releasing an aldehyde.

>  <s_lp_Force_Field>  (267) 
OPLS3e

>  <r_lp_Energy>  (267) 
53.1544

>  <b_lp_Chiralities_Consistent>  (267) 
1

>  <s_lp_Variant>  (267) 
107:0-1

>  <s_i_glide_gridfile>  (267) 
pfpi4k_grid

>  <i_i_glide_lignum>  (267) 
27

>  <i_i_glide_rotatable_bonds>  (267) 
6

>  <r_i_docking_score>  (267) 
-2.68531

>  <r_i_glide_ligand_efficiency>  (267) 
-0.0725758

>  <r_i_glide_ligand_efficiency_sa>  (267) 
-0.241839

>  <r_i_glide_ligand_efficiency_ln>  (267) 
-0.58238

>  <r_i_glide_gscore>  (267) 
-2.68531

>  <r_i_glide_lipo>  (267) 
-0.468448

>  <r_i_glide_hbond>  (267) 
-0.158414

>  <r_i_glide_metal>  (267) 
-0

>  <r_i_glide_rewards>  (267) 
-0.0358645

>  <r_i_glide_evdw>  (267) 
-23.1081

>  <r_i_glide_ecoul>  (267) 
-7.23595

>  <r_i_glide_erotb>  (267) 
0.232388

>  <r_i_glide_esite>  (267) 
-0.0141689

>  <r_i_glide_emodel>  (267) 
-35.0663

>  <r_i_glide_energy>  (267) 
-30.3441

>  <r_i_glide_einternal>  (267) 
1.64347

>  <r_i_glide_intrahb_reward>  (267) 
-0

>  <i_i_glide_confnum>  (267) 
3

>  <i_i_glide_posenum>  (267) 
32

>  <r_i_glide_eff_state_penalty>  (267) 
0

>  <ligand_id>  (267) 
107

>  <original_smiles>  (267) 
COCOC1C=C2C(O)CCC2(C)C2CCC3C4C(CC5(C)C(c6coc(O)c6)CCC45O)OC(=O)C132

>  <smiles>  (267) 
[H]OC1([H])C2=C([H])C([H])(OC([H])([H])OC([H])([H])[H])C34C(=O)OC5([H])C([H])([H])C6(C([H])([H])[H])C([H])(C7=C([H])C(=O)OC7([H])[H])C([H])([H])C([H])([H])C6(O[H])C5([H])C3([H])C([H])([H])C([H])([H])C4([H])C2(C([H])([H])[H])C([H])([H])C1([H])[H]

$$$$
107:0:2
     RDKit          3D

 75 81  0  0  1  0  0  0  0  0999 V2000
    8.5631   -7.5184    3.4798 C   0  0  0  0  0  0  0  0  0  0  0  0
    7.8264   -8.3063    4.4010 O   0  0  0  0  0  0  0  0  0  0  0  0
    7.0365   -9.2763    3.7936 C   0  0  0  0  0  0  0  0  0  0  0  0
    5.9541   -8.7328    3.0990 O   0  0  0  0  0  0  0  0  0  0  0  0
    4.9423   -8.0757    3.8654 C   0  0  2  0  0  0  0  0  0  0  0  0
    4.2175   -9.0943    4.7471 C   0  0  0  0  0  0  0  0  0  0  0  0
    2.9554   -9.4967    4.5673 C   0  0  0  0  0  0  0  0  0  0  0  0
    2.3220  -10.6805    5.2628 C   0  0  1  0  0  0  0  0  0  0  0  0
    1.6015  -10.2499    6.3908 O   0  0  0  0  0  0  0  0  0  0  0  0
    1.3649  -11.2707    4.2103 C   0  0  0  0  0  0  0  0  0  0  0  0
    1.5071  -10.3923    2.9477 C   0  0  0  0  0  0  0  0  0  0  0  0
    2.0620   -9.0381    3.4366 C   0  0  1  0  0  0  0  0  0  0  0  0
    0.8769   -8.2203    4.0134 C   0  0  0  0  0  0  0  0  0  0  0  0
    2.8449   -8.1846    2.3738 C   0  0  2  0  0  0  0  0  0  0  0  0
    3.5532   -8.9529    1.2494 C   0  0  0  0  0  0  0  0  0  0  0  0
    4.5690   -7.9711    0.6515 C   0  0  0  0  0  0  0  0  0  0  0  0
    4.6928   -6.7737    1.6284 C   0  0  1  0  0  0  0  0  0  0  0  0
    4.1458   -5.4560    0.9904 C   0  0  1  0  0  0  0  0  0  0  0  0
    2.8586   -4.9600    1.6295 C   0  0  2  0  0  0  0  0  0  0  0  0
    2.7403   -3.5034    1.1557 C   0  0  0  0  0  0  0  0  0  0  0  0
    4.1457   -2.9844    0.7280 C   0  0  1  0  0  0  0  0  0  0  0  0
    4.1096   -2.5186   -0.7518 C   0  0  0  0  0  0  0  0  0  0  0  0
    4.7140   -1.8747    1.6635 C   0  0  1  0  0  0  0  0  0  0  0  0
    3.7896   -0.7286    2.0816 C   0  0  0  0  0  0  0  0  0  0  0  0
    4.0390    0.0783    3.3260 C   0  0  0  0  0  0  0  0  0  0  0  0
    2.9478    0.9842    3.3462 O   0  0  0  0  0  0  0  0  0  0  0  0
    2.1354    0.8136    2.2838 C   0  0  0  0  0  0  0  0  0  0  0  0
    1.1146    1.4474    2.0482 O   0  0  0  0  0  0  0  0  0  0  0  0
    2.6866   -0.2751    1.4833 C   0  0  0  0  0  0  0  0  0  0  0  0
    5.2734   -2.6537    2.8516 C   0  0  0  0  0  0  0  0  0  0  0  0
    5.8711   -3.9238    2.2524 C   0  0  0  0  0  0  0  0  0  0  0  0
    5.0778   -4.2202    0.9562 C   0  0  1  0  0  0  0  0  0  0  0  0
    6.0291   -4.3952   -0.0762 O   0  0  0  0  0  0  0  0  0  0  0  0
    2.9211   -4.9938    3.0468 O   0  0  0  0  0  0  0  0  0  0  0  0
    3.3941   -6.0505    3.7455 C   0  0  0  0  0  0  0  0  0  0  0  0
    3.3855   -6.0474    4.9738 O   0  0  0  0  0  0  0  0  0  0  0  0
    3.9648   -7.2523    2.9324 C   0  0  2  0  0  0  0  0  0  0  0  0
    9.1637   -6.7847    4.0201 H   0  0  0  0  0  0  0  0  0  0  0  0
    7.8977   -6.9782    2.8073 H   0  0  0  0  0  0  0  0  0  0  0  0
    9.2374   -8.1359    2.8849 H   0  0  0  0  0  0  0  0  0  0  0  0
    7.6332   -9.8541    3.0829 H   0  0  0  0  0  0  0  0  0  0  0  0
    6.7016   -9.9813    4.5550 H   0  0  0  0  0  0  0  0  0  0  0  0
    5.4603   -7.3837    4.5357 H   0  0  0  0  0  0  0  0  0  0  0  0
    4.7955   -9.5498    5.5405 H   0  0  0  0  0  0  0  0  0  0  0  0
    3.0764  -11.4020    5.5742 H   0  0  0  0  0  0  0  0  0  0  0  0
    1.4174  -11.0289    6.9345 H   0  0  0  0  0  0  0  0  0  0  0  0
    1.6258  -12.2987    3.9824 H   0  0  0  0  0  0  0  0  0  0  0  0
    0.3331  -11.2783    4.5625 H   0  0  0  0  0  0  0  0  0  0  0  0
    2.2285  -10.8904    2.3074 H   0  0  0  0  0  0  0  0  0  0  0  0
    0.5806  -10.3018    2.3841 H   0  0  0  0  0  0  0  0  0  0  0  0
    0.2793   -7.7690    3.2227 H   0  0  0  0  0  0  0  0  0  0  0  0
    1.2110   -7.4325    4.6862 H   0  0  0  0  0  0  0  0  0  0  0  0
    0.2017   -8.8450    4.5993 H   0  0  0  0  0  0  0  0  0  0  0  0
    2.0998   -7.5778    1.8631 H   0  0  0  0  0  0  0  0  0  0  0  0
    4.0935   -9.8176    1.6424 H   0  0  0  0  0  0  0  0  0  0  0  0
    2.8576   -9.3329    0.5004 H   0  0  0  0  0  0  0  0  0  0  0  0
    5.5310   -8.4776    0.5496 H   0  0  0  0  0  0  0  0  0  0  0  0
    4.2820   -7.6759   -0.3562 H   0  0  0  0  0  0  0  0  0  0  0  0
    5.7547   -6.6294    1.8243 H   0  0  0  0  0  0  0  0  0  0  0  0
    3.8823   -5.6409   -0.0512 H   0  0  0  0  0  0  0  0  0  0  0  0
    1.9902   -5.5308    1.2997 H   0  0  0  0  0  0  0  0  0  0  0  0
    2.0803   -3.4665    0.2888 H   0  0  0  0  0  0  0  0  0  0  0  0
    2.2643   -2.8982    1.9264 H   0  0  0  0  0  0  0  0  0  0  0  0
    5.0672   -2.1101   -1.0747 H   0  0  0  0  0  0  0  0  0  0  0  0
    3.3608   -1.7473   -0.9190 H   0  0  0  0  0  0  0  0  0  0  0  0
    3.8669   -3.3449   -1.4215 H   0  0  0  0  0  0  0  0  0  0  0  0
    5.5658   -1.4074    1.1649 H   0  0  0  0  0  0  0  0  0  0  0  0
    4.9899    0.6056    3.2780 H   0  0  0  0  0  0  0  0  0  0  0  0
    4.0291   -0.5510    4.2154 H   0  0  0  0  0  0  0  0  0  0  0  0
    2.2296   -0.6259    0.5748 H   0  0  0  0  0  0  0  0  0  0  0  0
    6.0147   -2.0688    3.3874 H   0  0  0  0  0  0  0  0  0  0  0  0
    4.4784   -2.9129    3.5508 H   0  0  0  0  0  0  0  0  0  0  0  0
    6.9189   -3.7368    2.0082 H   0  0  0  0  0  0  0  0  0  0  0  0
    5.8732   -4.7339    2.9800 H   0  0  0  0  0  0  0  0  0  0  0  0
    6.4962   -5.2015    0.0936 H   0  0  0  0  0  0  0  0  0  0  0  0
  1  2  1  0
  1 38  1  0
  1 39  1  0
  1 40  1  0
  2  3  1  0
  3  4  1  0
  3 41  1  0
  3 42  1  0
  4  5  1  0
  5 37  1  0
  5  6  1  0
  5 43  1  1
  6  7  2  0
  6 44  1  0
  7 12  1  0
  7  8  1  0
  8  9  1  0
  8 10  1  0
  8 45  1  1
  9 46  1  0
 10 11  1  0
 10 47  1  0
 10 48  1  0
 11 12  1  0
 11 49  1  0
 11 50  1  0
 12 13  1  1
 12 14  1  0
 13 51  1  0
 13 52  1  0
 13 53  1  0
 14 37  1  0
 14 15  1  0
 14 54  1  6
 15 16  1  0
 15 55  1  0
 15 56  1  0
 16 17  1  0
 16 57  1  0
 16 58  1  0
 17 37  1  0
 17 18  1  0
 17 59  1  1
 18 32  1  0
 18 19  1  0
 18 60  1  6
 19 20  1  0
 19 34  1  0
 19 61  1  6
 20 21  1  0
 20 62  1  0
 20 63  1  0
 21 32  1  0
 21 22  1  6
 21 23  1  0
 22 64  1  0
 22 65  1  0
 22 66  1  0
 23 30  1  0
 23 67  1  6
 23 24  1  0
 24 29  2  0
 24 25  1  0
 25 26  1  0
 25 68  1  0
 25 69  1  0
 26 27  1  0
 27 29  1  0
 27 28  2  0
 29 70  1  0
 30 31  1  0
 30 71  1  0
 30 72  1  0
 31 32  1  0
 31 73  1  0
 31 74  1  0
 32 33  1  6
 33 75  1  0
 34 35  1  0
 35 36  2  0
 37 35  1  1
M  END
>  <i_m_ct_stereo_status>  (268) 
1

>  <s_m_source_file>  (268) 
/var/tmp/pbs.5076255.sched01/tmp_srbpc4z/1203xlsw0nt.sdf

>  <i_m_source_file_index>  (268) 
27

>  <i_lp_mmshare_version>  (268) 
48012

>  <i_f3d_flags>  (268) 
0

>  <s_epik_input>  (268) 
W0NIM11PW0NIMl1PW0NAQEhdMVtDSF09QyhbQ0BASF0oW09IXSlbQ0gyXVtDSDJdMilbQ0BAXTIoW0NIM10pW0NAQEhdKFtDQEBdMTM0KVtDSDJdW0NIMl1bQ0BIXTNbQ0BIXTVbQ0BASF0oT0M0PU8pW0NIMl1bQ0BdNihbQ0gzXSlbQ0BAXTUoW09IXSlbQ0gyXVtDSDJdW0NAQEhdNmM3W2NIXW9jKFtPSF0pW2NIXTc=

>  <s_epik_cmdline>  (268) 
J2VwaWtfcHl0aG9uJywgJy1waHQnLCAnMi4wJywgJy1waCcsICc3LjAnLCAnLXRuJywgJzgnLCAnLW1hJywgJzIwMCcsICctaW1hZScsICc8aW5maWxlLm1hZT4nLCAnLW9tYWUnLCAnPG91dGZpbGUubWFlPic=

>  <r_lp_tautomer_probability>  (268) 
1

>  <r_epik_Ionization_Penalty>  (268) 
1.34564e-07

>  <r_epik_Ionization_Penalty_Charging>  (268) 
0

>  <r_epik_Ionization_Penalty_Neutral>  (268) 
1.34564e-07

>  <r_epik_State_Penalty>  (268) 
-0

>  <r_epik_Charging_Adjusted_Penalty>  (268) 
0

>  <i_epik_Tot_Q>  (268) 
0

>  <i_epik_Tot_abs_Q>  (268) 
0

>  <s_epik_Chemistry_Notes>  (268) 
This compound has an ester and may undergo hydrolysis at high or low pH. This compound contains an acetal/aminal-like group ( X-CH(R)-Y where X, Y are N, S, or O) that may be acid/base labile, releasing an aldehyde.

>  <s_lp_Force_Field>  (268) 
OPLS3e

>  <r_lp_Energy>  (268) 
53.1544

>  <b_lp_Chiralities_Consistent>  (268) 
1

>  <s_lp_Variant>  (268) 
107:0-1

>  <s_i_glide_gridfile>  (268) 
pfpi4k_grid

>  <i_i_glide_lignum>  (268) 
27

>  <i_i_glide_rotatable_bonds>  (268) 
6

>  <r_i_docking_score>  (268) 
-2.59748

>  <r_i_glide_ligand_efficiency>  (268) 
-0.0702021

>  <r_i_glide_ligand_efficiency_sa>  (268) 
-0.233929

>  <r_i_glide_ligand_efficiency_ln>  (268) 
-0.563332

>  <r_i_glide_gscore>  (268) 
-2.59748

>  <r_i_glide_lipo>  (268) 
-0.521438

>  <r_i_glide_hbond>  (268) 
-0.144109

>  <r_i_glide_metal>  (268) 
-0

>  <r_i_glide_rewards>  (268) 
-0.0348462

>  <r_i_glide_evdw>  (268) 
-22.7801

>  <r_i_glide_ecoul>  (268) 
-6.52564

>  <r_i_glide_erotb>  (268) 
0.232388

>  <r_i_glide_esite>  (268) 
-0.0116238

>  <r_i_glide_emodel>  (268) 
-33.5759

>  <r_i_glide_energy>  (268) 
-29.3057

>  <r_i_glide_einternal>  (268) 
2.05136

>  <r_i_glide_intrahb_reward>  (268) 
-0

>  <i_i_glide_confnum>  (268) 
3

>  <i_i_glide_posenum>  (268) 
38

>  <r_i_glide_eff_state_penalty>  (268) 
0

>  <ligand_id>  (268) 
107

>  <original_smiles>  (268) 
COCOC1C=C2C(O)CCC2(C)C2CCC3C4C(CC5(C)C(c6coc(O)c6)CCC45O)OC(=O)C132

>  <smiles>  (268) 
[H]OC1([H])C2=C([H])C([H])(OC([H])([H])OC([H])([H])[H])C34C(=O)OC5([H])C([H])([H])C6(C([H])([H])[H])C([H])(C7=C([H])C(=O)OC7([H])[H])C([H])([H])C([H])([H])C6(O[H])C5([H])C3([H])C([H])([H])C([H])([H])C4([H])C2(C([H])([H])[H])C([H])([H])C1([H])[H]

$$$$
110:0:0
     RDKit          3D

 77 84  0  0  1  0  0  0  0  0999 V2000
   -0.6662   -9.5025    7.2493 C   0  0  0  0  0  0  0  0  0  0  0  0
    0.5168   -9.0365    7.8772 O   0  0  0  0  0  0  0  0  0  0  0  0
    1.7575   -9.1437    7.3145 C   0  0  0  0  0  0  0  0  0  0  0  0
    2.7991   -8.8546    7.9191 O   0  0  0  0  0  0  0  0  0  0  0  0
    1.8074   -9.6552    5.8585 C   0  0  2  0  0  0  0  0  0  0  0  0
    3.0150  -10.6958    5.5873 C   0  0  0  0  0  0  0  0  0  0  0  0
    4.5469  -10.4683    5.1859 C   0  0  0  0  0  0  0  0  0  0  0  0
    5.0764  -10.3893    3.6884 C   0  0  0  0  0  0  0  0  0  0  0  0
    5.6164   -9.0706    3.0510 C   0  0  0  0  0  0  0  0  0  0  0  0
    6.9582   -8.6256    3.0711 C   0  0  0  0  0  0  0  0  0  0  0  0
    7.3070   -7.3969    2.4506 C   0  0  0  0  0  0  0  0  0  0  0  0
    6.3413   -6.5457    1.8441 C   0  0  0  0  0  0  0  0  0  0  0  0
    6.5965   -5.3138    1.2939 O   0  0  0  0  0  0  0  0  0  0  0  0
    7.9547   -4.9199    1.1660 C   0  0  0  0  0  0  0  0  0  0  0  0
    4.9857   -6.9637    1.8334 C   0  0  0  0  0  0  0  0  0  0  0  0
    4.7281   -8.2002    2.3561 C   0  0  0  0  0  0  0  0  0  0  0  0
    3.2677   -8.2800    2.2584 C   0  0  1  0  0  0  0  0  0  0  0  0
    2.7564   -9.5832    1.6288 C   0  0  0  0  0  0  0  0  0  0  0  0
    1.9069  -10.2184    2.7115 C   0  0  0  0  0  0  0  0  0  0  0  0
    1.4821   -8.9499    3.4589 C   0  0  1  0  0  0  0  0  0  0  0  0
    0.4179   -8.5304    2.5265 O   0  0  0  0  0  0  0  0  0  0  0  0
   -0.8855   -9.1461    2.5378 C   0  0  0  0  0  0  0  0  0  0  0  0
    0.9650   -8.7709    4.7868 C   0  0  2  0  0  0  0  0  0  0  0  0
    0.9795   -7.1327    4.5115 C   0  0  1  0  0  0  0  0  0  0  0  0
    1.4290   -6.4589    5.7746 N   0  0  2  0  0  0  0  0  0  0  0  0
    0.8428   -5.1069    6.0841 C   0  0  0  0  0  0  0  0  0  0  0  0
   -0.6063   -5.1763    6.5390 C   0  0  0  0  0  0  0  0  0  0  0  0
   -1.3339   -3.8908    6.8811 C   0  0  0  0  0  0  0  0  0  0  0  0
   -0.9703   -4.8609    7.9713 C   0  0  0  0  0  0  0  0  0  0  0  0
    2.9265   -6.4741    5.8361 C   0  0  0  0  0  0  0  0  0  0  0  0
    3.5501   -7.4939    4.8295 C   0  0  0  0  0  0  0  0  0  0  0  0
    2.6599   -7.9052    3.5428 C   0  0  1  0  0  0  0  0  0  0  0  0
    1.9610   -6.6260    3.2466 C   0  0  2  0  0  0  0  0  0  0  0  0
    2.4748   -5.3089    3.4680 O   0  0  0  0  0  0  0  0  0  0  0  0
    1.7210   -4.3001    2.8136 C   0  0  0  0  0  0  0  0  0  0  0  0
    2.6415   -6.9798    1.8017 C   0  0  1  0  0  0  0  0  0  0  0  0
    3.8617   -6.2387    1.4682 O   0  0  0  0  0  0  0  0  0  0  0  0
   -1.4863   -9.4457    7.9696 H   0  0  0  0  0  0  0  0  0  0  0  0
   -0.5356  -10.5443    6.9718 H   0  0  0  0  0  0  0  0  0  0  0  0
   -0.8948   -8.9271    6.3742 H   0  0  0  0  0  0  0  0  0  0  0  0
    1.0894  -10.4737    5.9130 H   0  0  0  0  0  0  0  0  0  0  0  0
    3.1357  -11.1498    6.5719 H   0  0  0  0  0  0  0  0  0  0  0  0
    2.6391  -11.5810    5.0824 H   0  0  0  0  0  0  0  0  0  0  0  0
    5.0836   -9.7952    5.8583 H   0  0  0  0  0  0  0  0  0  0  0  0
    4.9739  -11.4186    5.5289 H   0  0  0  0  0  0  0  0  0  0  0  0
    5.9937  -10.9666    3.7614 H   0  0  0  0  0  0  0  0  0  0  0  0
    4.5278  -11.0274    2.9996 H   0  0  0  0  0  0  0  0  0  0  0  0
    7.7336   -9.2170    3.5562 H   0  0  0  0  0  0  0  0  0  0  0  0
    8.3469   -7.1003    2.4833 H   0  0  0  0  0  0  0  0  0  0  0  0
    7.9870   -3.9320    0.7097 H   0  0  0  0  0  0  0  0  0  0  0  0
    8.5081   -5.6036    0.5209 H   0  0  0  0  0  0  0  0  0  0  0  0
    8.4578   -4.8475    2.1307 H   0  0  0  0  0  0  0  0  0  0  0  0
    2.1150   -9.3720    0.7772 H   0  0  0  0  0  0  0  0  0  0  0  0
    3.5391  -10.2476    1.2556 H   0  0  0  0  0  0  0  0  0  0  0  0
    1.0809  -10.8015    2.3201 H   0  0  0  0  0  0  0  0  0  0  0  0
    2.5026  -10.9346    3.2262 H   0  0  0  0  0  0  0  0  0  0  0  0
   -1.3823   -8.9860    1.5846 H   0  0  0  0  0  0  0  0  0  0  0  0
   -1.5468   -8.7076    3.2801 H   0  0  0  0  0  0  0  0  0  0  0  0
   -0.8950  -10.2195    2.7119 H   0  0  0  0  0  0  0  0  0  0  0  0
   -0.0310   -9.1608    4.8647 H   0  0  0  0  0  0  0  0  0  0  0  0
   -0.0451   -6.8095    4.3109 H   0  0  0  0  0  0  0  0  0  0  0  0
    1.4400   -4.6370    6.8672 H   0  0  0  0  0  0  0  0  0  0  0  0
    0.9102   -4.4312    5.2365 H   0  0  0  0  0  0  0  0  0  0  0  0
   -1.2222   -5.8989    6.0080 H   0  0  0  0  0  0  0  0  0  0  0  0
   -0.7908   -2.9473    6.8400 H   0  0  0  0  0  0  0  0  0  0  0  0
   -2.3891   -3.8268    6.6292 H   0  0  0  0  0  0  0  0  0  0  0  0
   -1.7749   -5.4503    8.4025 H   0  0  0  0  0  0  0  0  0  0  0  0
   -0.1676   -4.5813    8.6539 H   0  0  0  0  0  0  0  0  0  0  0  0
    3.3209   -5.4800    5.6361 H   0  0  0  0  0  0  0  0  0  0  0  0
    3.2463   -6.6634    6.8565 H   0  0  0  0  0  0  0  0  0  0  0  0
    4.4966   -7.0281    4.5418 H   0  0  0  0  0  0  0  0  0  0  0  0
    3.8231   -8.2996    5.4499 H   0  0  0  0  0  0  0  0  0  0  0  0
    2.1091   -3.3251    3.1095 H   0  0  0  0  0  0  0  0  0  0  0  0
    0.6645   -4.3431    3.0855 H   0  0  0  0  0  0  0  0  0  0  0  0
    1.8060   -4.3887    1.7305 H   0  0  0  0  0  0  0  0  0  0  0  0
    1.9218   -7.0660    0.9793 H   0  0  0  0  0  0  0  0  0  0  0  0
    1.1307   -7.0502    6.5350 H   0  0  0  0  0  0  0  0  0  0  0  0
  1  2  1  0
  1 38  1  0
  1 39  1  0
  1 40  1  0
  2  3  1  0
  3  4  2  0
  3  5  1  0
  5 23  1  0
  5  6  1  0
  5 41  1  1
  6  7  1  0
  6 42  1  0
  6 43  1  0
  7  8  1  0
  7 44  1  0
  7 45  1  0
  8  9  1  0
  8 46  1  0
  8 47  1  0
  9 16  2  0
  9 10  1  0
 10 11  2  0
 10 48  1  0
 11 12  1  0
 11 49  1  0
 12 13  1  0
 12 15  2  0
 13 14  1  0
 14 50  1  0
 14 51  1  0
 14 52  1  0
 15 37  1  0
 15 16  1  0
 16 17  1  0
 17 32  1  0
 17 36  1  0
 17 18  1  6
 18 19  1  0
 18 53  1  0
 18 54  1  0
 19 20  1  0
 19 55  1  0
 19 56  1  0
 20 32  1  0
 20 21  1  6
 20 23  1  0
 21 22  1  0
 22 57  1  0
 22 58  1  0
 22 59  1  0
 23 24  1  0
 23 60  1  6
 24 33  1  0
 24 25  1  0
 24 61  1  6
 25 26  1  0
 25 30  1  0
 25 77  1  1
 26 27  1  0
 26 62  1  0
 26 63  1  0
 27 29  1  0
 27 28  1  0
 27 64  1  0
 28 29  1  0
 28 65  1  0
 28 66  1  0
 29 67  1  0
 29 68  1  0
 30 31  1  0
 30 69  1  0
 30 70  1  0
 32 31  1  1
 31 71  1  0
 31 72  1  0
 32 33  1  0
 33 34  1  1
 33 36  1  0
 34 35  1  0
 35 73  1  0
 35 74  1  0
 35 75  1  0
 36 37  1  0
 36 76  1  6
M  CHG  1  25   1
M  END
>  <i_m_ct_stereo_status>  (269) 
1

>  <s_m_source_file>  (269) 
/var/tmp/pbs.5076255.sched01/tmp_srbpc4z/1203xlsw0nt.sdf

>  <i_m_source_file_index>  (269) 
30

>  <i_lp_mmshare_version>  (269) 
48012

>  <i_f3d_flags>  (269) 
0

>  <s_epik_input>  (269) 
W0NIM11PQyg9TylbQ0BASF0xW0NIMl1bQ0gyXVtDSDJdYyhbY0hdW2NIXWMyT1tDSDNdKWMzYzJPW0NAQEhdNEM1KE9bQ0gzXSlbQ0BASF0oW0NASF0xW0NAQF0oW0NAQF01NltDQF0zNDcpKFtDSDJdW0NIMl03KU9bQ0gzXSlOKFtDSDJdW0NIMl02KVtDSDJdW0NIXThbQ0gyXVtDSDJdOA==

>  <s_epik_cmdline>  (269) 
J2VwaWtfcHl0aG9uJywgJy1waHQnLCAnMi4wJywgJy1waCcsICc3LjAnLCAnLXRuJywgJzgnLCAnLW1hJywgJzIwMCcsICctaW1hZScsICc8aW5maWxlLm1hZT4nLCAnLW9tYWUnLCAnPG91dGZpbGUubWFlPic=

>  <r_lp_tautomer_probability>  (269) 
1

>  <r_epik_Ionization_Penalty>  (269) 
0.324987

>  <r_epik_Ionization_Penalty_Charging>  (269) 
0.324987

>  <r_epik_Ionization_Penalty_Neutral>  (269) 
5.24917e-14

>  <r_epik_State_Penalty>  (269) 
0.319754

>  <r_epik_Charging_Adjusted_Penalty>  (269) 
0.644741

>  <i_epik_Tot_Q>  (269) 
1

>  <i_epik_Tot_abs_Q>  (269) 
1

>  <s_epik_Chemistry_Notes>  (269) 
This compound has an ester and may undergo hydrolysis at high or low pH.

>  <s_lp_Force_Field>  (269) 
OPLS3e

>  <r_lp_Energy>  (269) 
296.216

>  <b_lp_Chiralities_Consistent>  (269) 
1

>  <s_lp_Variant>  (269) 
110:0-1

>  <s_i_glide_gridfile>  (269) 
pfpi4k_grid

>  <i_i_glide_lignum>  (269) 
30

>  <i_i_glide_rotatable_bonds>  (269) 
7

>  <r_i_docking_score>  (269) 
-2.25861

>  <r_i_glide_ligand_efficiency>  (269) 
-0.0610435

>  <r_i_glide_ligand_efficiency_sa>  (269) 
-0.203411

>  <r_i_glide_ligand_efficiency_ln>  (269) 
-0.48984

>  <r_i_glide_gscore>  (269) 
-2.25861

>  <r_i_glide_lipo>  (269) 
-0.55692

>  <r_i_glide_hbond>  (269) 
0

>  <r_i_glide_metal>  (269) 
-0

>  <r_i_glide_rewards>  (269) 
0

>  <r_i_glide_evdw>  (269) 
-27.1475

>  <r_i_glide_ecoul>  (269) 
-3.41977

>  <r_i_glide_erotb>  (269) 
0.235714

>  <r_i_glide_esite>  (269) 
-0.0670637

>  <r_i_glide_emodel>  (269) 
-31.3213

>  <r_i_glide_energy>  (269) 
-30.5673

>  <r_i_glide_einternal>  (269) 
6.305

>  <r_i_glide_intrahb_reward>  (269) 
-0

>  <i_i_glide_confnum>  (269) 
6

>  <i_i_glide_posenum>  (269) 
23

>  <r_i_glide_eff_state_penalty>  (269) 
0

>  <ligand_id>  (269) 
110

>  <original_smiles>  (269) 
COC(=O)C1CCCc2ccc(OC)c3c2C24CCC5(OC)C1C1N(CC6CC6)CCC52C1(OC)C4O3

>  <smiles>  (269) 
[H]c1c([H])c2c3c(c1OC([H])([H])[H])OC1([H])C4(OC([H])([H])[H])C56C([H])([H])C([H])([H])[N+]([H])(C([H])([H])C7([H])C([H])([H])C7([H])[H])C4([H])C([H])(C([H])(C(=O)OC([H])([H])[H])C([H])([H])C([H])([H])C2([H])[H])C5(OC([H])([H])[H])C([H])([H])C([H])([H])C316

$$$$
110:0:1
     RDKit          3D

 77 84  0  0  1  0  0  0  0  0999 V2000
    4.9161   -8.2780    9.0605 C   0  0  0  0  0  0  0  0  0  0  0  0
    5.0724   -8.7266    7.7276 O   0  0  0  0  0  0  0  0  0  0  0  0
    5.6721   -7.9280    6.8330 C   0  0  0  0  0  0  0  0  0  0  0  0
    6.0623   -6.7823    7.0445 O   0  0  0  0  0  0  0  0  0  0  0  0
    5.8150   -8.6021    5.4628 C   0  0  2  0  0  0  0  0  0  0  0  0
    7.0865   -8.0552    4.6086 C   0  0  0  0  0  0  0  0  0  0  0  0
    7.2405   -6.7791    3.6498 C   0  0  0  0  0  0  0  0  0  0  0  0
    6.9732   -6.7889    2.0834 C   0  0  0  0  0  0  0  0  0  0  0  0
    5.8000   -6.0013    1.4134 C   0  0  0  0  0  0  0  0  0  0  0  0
    5.8008   -4.6733    0.9435 C   0  0  0  0  0  0  0  0  0  0  0  0
    4.6243   -4.1112    0.3646 C   0  0  0  0  0  0  0  0  0  0  0  0
    3.3988   -4.8433    0.3096 C   0  0  0  0  0  0  0  0  0  0  0  0
    2.2139   -4.3364   -0.1725 O   0  0  0  0  0  0  0  0  0  0  0  0
    2.2926   -3.3418   -1.1802 C   0  0  0  0  0  0  0  0  0  0  0  0
    3.3340   -6.1600    0.8310 C   0  0  0  0  0  0  0  0  0  0  0  0
    4.5495   -6.6708    1.2508 C   0  0  0  0  0  0  0  0  0  0  0  0
    4.1503   -7.9975    1.7279 C   0  0  1  0  0  0  0  0  0  0  0  0
    5.0456   -9.1227    1.2116 C   0  0  0  0  0  0  0  0  0  0  0  0
    5.6195   -9.7628    2.4612 C   0  0  0  0  0  0  0  0  0  0  0  0
    4.5163   -9.3945    3.4728 C   0  0  1  0  0  0  0  0  0  0  0  0
    3.5851  -10.4521    3.0866 O   0  0  0  0  0  0  0  0  0  0  0  0
    3.7364  -11.8094    3.5299 C   0  0  0  0  0  0  0  0  0  0  0  0
    4.4693   -9.3418    4.9148 C   0  0  2  0  0  0  0  0  0  0  0  0
    2.8994   -8.8192    4.8231 C   0  0  1  0  0  0  0  0  0  0  0  0
    2.7517   -7.7564    5.8465 N   0  0  2  0  0  0  0  0  0  0  0  0
    1.4442   -7.6273    6.5533 C   0  0  0  0  0  0  0  0  0  0  0  0
    1.1203   -8.8146    7.4373 C   0  0  0  0  0  0  0  0  0  0  0  0
   -0.1865   -9.5715    7.2645 C   0  0  0  0  0  0  0  0  0  0  0  0
    0.0019   -8.6716    8.4453 C   0  0  0  0  0  0  0  0  0  0  0  0
    3.2441   -6.4754    5.3120 C   0  0  0  0  0  0  0  0  0  0  0  0
    4.1302   -6.6373    4.0425 C   0  0  0  0  0  0  0  0  0  0  0  0
    3.9218   -7.9737    3.1839 C   0  0  1  0  0  0  0  0  0  0  0  0
    2.4601   -8.2105    3.3361 C   0  0  2  0  0  0  0  0  0  0  0  0
    1.4316   -7.2190    3.4595 O   0  0  0  0  0  0  0  0  0  0  0  0
    0.1184   -7.7511    3.3293 C   0  0  0  0  0  0  0  0  0  0  0  0
    2.6403   -8.2169    1.7327 C   0  0  1  0  0  0  0  0  0  0  0  0
    2.2417   -6.9669    1.0674 O   0  0  0  0  0  0  0  0  0  0  0  0
    4.3786   -9.0285    9.6356 H   0  0  0  0  0  0  0  0  0  0  0  0
    4.3438   -7.3521    9.0893 H   0  0  0  0  0  0  0  0  0  0  0  0
    5.8820   -8.1132    9.5390 H   0  0  0  0  0  0  0  0  0  0  0  0
    6.3211   -9.5054    5.8070 H   0  0  0  0  0  0  0  0  0  0  0  0
    7.7866   -7.7886    5.4032 H   0  0  0  0  0  0  0  0  0  0  0  0
    7.6490   -8.8852    4.1934 H   0  0  0  0  0  0  0  0  0  0  0  0
    6.9564   -5.8349    4.1130 H   0  0  0  0  0  0  0  0  0  0  0  0
    8.3225   -6.6466    3.6866 H   0  0  0  0  0  0  0  0  0  0  0  0
    7.8062   -6.1919    1.7382 H   0  0  0  0  0  0  0  0  0  0  0  0
    7.2428   -7.7184    1.5917 H   0  0  0  0  0  0  0  0  0  0  0  0
    6.6912   -4.0403    1.0239 H   0  0  0  0  0  0  0  0  0  0  0  0
    4.6403   -3.0935    0.0238 H   0  0  0  0  0  0  0  0  0  0  0  0
    1.2816   -3.0778   -1.4774 H   0  0  0  0  0  0  0  0  0  0  0  0
    2.7888   -3.7298   -2.0682 H   0  0  0  0  0  0  0  0  0  0  0  0
    2.7781   -2.4221   -0.8517 H   0  0  0  0  0  0  0  0  0  0  0  0
    4.4243   -9.8366    0.6807 H   0  0  0  0  0  0  0  0  0  0  0  0
    5.8145   -8.8410    0.4967 H   0  0  0  0  0  0  0  0  0  0  0  0
    5.7942  -10.8212    2.3181 H   0  0  0  0  0  0  0  0  0  0  0  0
    6.5869   -9.3513    2.6107 H   0  0  0  0  0  0  0  0  0  0  0  0
    3.2038  -12.4692    2.8484 H   0  0  0  0  0  0  0  0  0  0  0  0
    3.2932  -11.9749    4.5108 H   0  0  0  0  0  0  0  0  0  0  0  0
    4.7610  -12.1725    3.5667 H   0  0  0  0  0  0  0  0  0  0  0  0
    4.4672  -10.3207    5.3844 H   0  0  0  0  0  0  0  0  0  0  0  0
    2.2420   -9.6556    5.0617 H   0  0  0  0  0  0  0  0  0  0  0  0
    1.4830   -6.7312    7.1797 H   0  0  0  0  0  0  0  0  0  0  0  0
    0.5727   -7.4321    5.8997 H   0  0  0  0  0  0  0  0  0  0  0  0
    1.9791   -9.4041    7.7865 H   0  0  0  0  0  0  0  0  0  0  0  0
   -0.8984   -9.2587    6.4979 H   0  0  0  0  0  0  0  0  0  0  0  0
   -0.1801  -10.6434    7.4494 H   0  0  0  0  0  0  0  0  0  0  0  0
    0.1570   -9.1381    9.4158 H   0  0  0  0  0  0  0  0  0  0  0  0
   -0.5811   -7.7471    8.4648 H   0  0  0  0  0  0  0  0  0  0  0  0
    2.4130   -5.8197    5.0601 H   0  0  0  0  0  0  0  0  0  0  0  0
    3.7777   -5.9235    6.0771 H   0  0  0  0  0  0  0  0  0  0  0  0
    3.9256   -5.7396    3.4528 H   0  0  0  0  0  0  0  0  0  0  0  0
    5.1063   -6.5141    4.4095 H   0  0  0  0  0  0  0  0  0  0  0  0
   -0.5723   -6.9486    3.6036 H   0  0  0  0  0  0  0  0  0  0  0  0
   -0.0569   -8.5915    4.0030 H   0  0  0  0  0  0  0  0  0  0  0  0
   -0.1109   -8.1022    2.3176 H   0  0  0  0  0  0  0  0  0  0  0  0
    2.3155   -9.1550    1.2619 H   0  0  0  0  0  0  0  0  0  0  0  0
    3.4179   -8.0173    6.5726 H   0  0  0  0  0  0  0  0  0  0  0  0
  1  2  1  0
  1 38  1  0
  1 39  1  0
  1 40  1  0
  2  3  1  0
  3  4  2  0
  3  5  1  0
  5 23  1  0
  5  6  1  0
  5 41  1  1
  6  7  1  0
  6 42  1  0
  6 43  1  0
  7  8  1  0
  7 44  1  0
  7 45  1  0
  8  9  1  0
  8 46  1  0
  8 47  1  0
  9 16  2  0
  9 10  1  0
 10 11  2  0
 10 48  1  0
 11 12  1  0
 11 49  1  0
 12 13  1  0
 12 15  2  0
 13 14  1  0
 14 50  1  0
 14 51  1  0
 14 52  1  0
 15 37  1  0
 15 16  1  0
 16 17  1  0
 17 32  1  0
 17 36  1  0
 17 18  1  1
 18 19  1  0
 18 53  1  0
 18 54  1  0
 19 20  1  0
 19 55  1  0
 19 56  1  0
 20 32  1  0
 20 21  1  6
 20 23  1  0
 21 22  1  0
 22 57  1  0
 22 58  1  0
 22 59  1  0
 23 24  1  0
 23 60  1  1
 24 33  1  0
 24 25  1  0
 24 61  1  1
 25 26  1  0
 25 30  1  0
 25 77  1  1
 26 27  1  0
 26 62  1  0
 26 63  1  0
 27 29  1  0
 27 28  1  0
 27 64  1  0
 28 29  1  0
 28 65  1  0
 28 66  1  0
 29 67  1  0
 29 68  1  0
 30 31  1  0
 30 69  1  0
 30 70  1  0
 32 31  1  1
 31 71  1  0
 31 72  1  0
 32 33  1  0
 33 34  1  6
 33 36  1  0
 34 35  1  0
 35 73  1  0
 35 74  1  0
 35 75  1  0
 36 37  1  0
 36 76  1  6
M  CHG  1  25   1
M  END
>  <i_m_ct_stereo_status>  (270) 
1

>  <s_m_source_file>  (270) 
/var/tmp/pbs.5076255.sched01/tmp_srbpc4z/1203xlsw0nt.sdf

>  <i_m_source_file_index>  (270) 
30

>  <i_lp_mmshare_version>  (270) 
48012

>  <i_f3d_flags>  (270) 
0

>  <s_epik_input>  (270) 
W0NIM11PQyg9TylbQ0BASF0xW0NIMl1bQ0gyXVtDSDJdYyhbY0hdW2NIXWMyT1tDSDNdKWMzYzJPW0NAQEhdNEM1KE9bQ0gzXSlbQ0BASF0oW0NASF0xW0NAQF0oW0NAQF01NltDQF0zNDcpKFtDSDJdW0NIMl03KU9bQ0gzXSlOKFtDSDJdW0NIMl02KVtDSDJdW0NIXThbQ0gyXVtDSDJdOA==

>  <s_epik_cmdline>  (270) 
J2VwaWtfcHl0aG9uJywgJy1waHQnLCAnMi4wJywgJy1waCcsICc3LjAnLCAnLXRuJywgJzgnLCAnLW1hJywgJzIwMCcsICctaW1hZScsICc8aW5maWxlLm1hZT4nLCAnLW9tYWUnLCAnPG91dGZpbGUubWFlPic=

>  <r_lp_tautomer_probability>  (270) 
1

>  <r_epik_Ionization_Penalty>  (270) 
0.324987

>  <r_epik_Ionization_Penalty_Charging>  (270) 
0.324987

>  <r_epik_Ionization_Penalty_Neutral>  (270) 
5.24917e-14

>  <r_epik_State_Penalty>  (270) 
0.319754

>  <r_epik_Charging_Adjusted_Penalty>  (270) 
0.644741

>  <i_epik_Tot_Q>  (270) 
1

>  <i_epik_Tot_abs_Q>  (270) 
1

>  <s_epik_Chemistry_Notes>  (270) 
This compound has an ester and may undergo hydrolysis at high or low pH.

>  <s_lp_Force_Field>  (270) 
OPLS3e

>  <r_lp_Energy>  (270) 
296.216

>  <b_lp_Chiralities_Consistent>  (270) 
1

>  <s_lp_Variant>  (270) 
110:0-1

>  <s_i_glide_gridfile>  (270) 
pfpi4k_grid

>  <i_i_glide_lignum>  (270) 
30

>  <i_i_glide_rotatable_bonds>  (270) 
7

>  <r_i_docking_score>  (270) 
-1.69341

>  <r_i_glide_ligand_efficiency>  (270) 
-0.0457679

>  <r_i_glide_ligand_efficiency_sa>  (270) 
-0.152509

>  <r_i_glide_ligand_efficiency_ln>  (270) 
-0.367261

>  <r_i_glide_gscore>  (270) 
-1.69341

>  <r_i_glide_lipo>  (270) 
-0.351697

>  <r_i_glide_hbond>  (270) 
0

>  <r_i_glide_metal>  (270) 
-0

>  <r_i_glide_rewards>  (270) 
0

>  <r_i_glide_evdw>  (270) 
-23.9345

>  <r_i_glide_ecoul>  (270) 
-2.52328

>  <r_i_glide_erotb>  (270) 
0.235714

>  <r_i_glide_esite>  (270) 
-0.00221226

>  <r_i_glide_emodel>  (270) 
-28.243

>  <r_i_glide_energy>  (270) 
-26.4578

>  <r_i_glide_einternal>  (270) 
2.89822

>  <r_i_glide_intrahb_reward>  (270) 
-0

>  <i_i_glide_confnum>  (270) 
6

>  <i_i_glide_posenum>  (270) 
9

>  <r_i_glide_eff_state_penalty>  (270) 
0

>  <ligand_id>  (270) 
110

>  <original_smiles>  (270) 
COC(=O)C1CCCc2ccc(OC)c3c2C24CCC5(OC)C1C1N(CC6CC6)CCC52C1(OC)C4O3

>  <smiles>  (270) 
[H]c1c([H])c2c3c(c1OC([H])([H])[H])OC1([H])C4(OC([H])([H])[H])C56C([H])([H])C([H])([H])[N+]([H])(C([H])([H])C7([H])C([H])([H])C7([H])[H])C4([H])C([H])(C([H])(C(=O)OC([H])([H])[H])C([H])([H])C([H])([H])C2([H])[H])C5(OC([H])([H])[H])C([H])([H])C([H])([H])C316

$$$$
110:0:2
     RDKit          3D

 77 84  0  0  1  0  0  0  0  0999 V2000
    3.5335   -9.5666    9.5868 C   0  0  0  0  0  0  0  0  0  0  0  0
    3.5109   -9.9243    8.2168 O   0  0  0  0  0  0  0  0  0  0  0  0
    4.3915   -9.3718    7.3714 C   0  0  0  0  0  0  0  0  0  0  0  0
    5.2014   -8.4923    7.6594 O   0  0  0  0  0  0  0  0  0  0  0  0
    4.2618   -9.9324    5.9493 C   0  0  2  0  0  0  0  0  0  0  0  0
    5.6458   -9.8572    5.0973 C   0  0  0  0  0  0  0  0  0  0  0  0
    6.2870   -8.6644    4.2366 C   0  0  0  0  0  0  0  0  0  0  0  0
    6.0431   -8.4476    2.6835 C   0  0  0  0  0  0  0  0  0  0  0  0
    5.2527   -7.2246    2.1150 C   0  0  0  0  0  0  0  0  0  0  0  0
    5.7621   -5.9659    1.7470 C   0  0  0  0  0  0  0  0  0  0  0  0
    4.9002   -4.9428    1.2545 C   0  0  0  0  0  0  0  0  0  0  0  0
    3.4796   -5.1460    1.1636 C   0  0  0  0  0  0  0  0  0  0  0  0
    2.5979   -4.1690    0.7583 O   0  0  0  0  0  0  0  0  0  0  0  0
    3.1064   -2.9047    0.3758 C   0  0  0  0  0  0  0  0  0  0  0  0
    2.9260   -6.3818    1.5379 C   0  0  0  0  0  0  0  0  0  0  0  0
    3.8430   -7.3556    1.9118 C   0  0  0  0  0  0  0  0  0  0  0  0
    2.9527   -8.4589    2.2999 C   0  0  1  0  0  0  0  0  0  0  0  0
    3.3352   -9.8125    1.6914 C   0  0  0  0  0  0  0  0  0  0  0  0
    3.6083  -10.7157    2.8921 C   0  0  0  0  0  0  0  0  0  0  0  0
    2.7362  -10.0096    3.9525 C   0  0  1  0  0  0  0  0  0  0  0  0
    1.4676  -10.5876    3.4957 O   0  0  0  0  0  0  0  0  0  0  0  0
    0.9771  -11.8320    4.0119 C   0  0  0  0  0  0  0  0  0  0  0  0
    2.7334  -10.0480    5.4012 C   0  0  2  0  0  0  0  0  0  0  0  0
    1.5007   -8.9442    5.3828 C   0  0  1  0  0  0  0  0  0  0  0  0
    1.7692   -7.9931    6.4886 N   0  0  2  0  0  0  0  0  0  0  0  0
    0.5840   -7.4474    7.2004 C   0  0  0  0  0  0  0  0  0  0  0  0
    0.9090   -6.6713    8.4567 C   0  0  0  0  0  0  0  0  0  0  0  0
   -0.1356   -5.7321    9.0441 C   0  0  0  0  0  0  0  0  0  0  0  0
    1.0876   -5.1617    8.3874 C   0  0  0  0  0  0  0  0  0  0  0  0
    2.7251   -6.9641    6.0288 C   0  0  0  0  0  0  0  0  0  0  0  0
    3.4703   -7.3666    4.7240 C   0  0  0  0  0  0  0  0  0  0  0  0
    2.7570   -8.4489    3.7699 C   0  0  1  0  0  0  0  0  0  0  0  0
    1.3202   -8.1117    3.9482 C   0  0  2  0  0  0  0  0  0  0  0  0
    0.7738   -6.8081    4.1666 O   0  0  0  0  0  0  0  0  0  0  0  0
   -0.6505   -6.8165    4.1739 C   0  0  0  0  0  0  0  0  0  0  0  0
    1.4791   -8.0658    2.3330 C   0  0  1  0  0  0  0  0  0  0  0  0
    1.5899   -6.7439    1.7065 O   0  0  0  0  0  0  0  0  0  0  0  0
    2.7259  -10.0761   10.1112 H   0  0  0  0  0  0  0  0  0  0  0  0
    3.3943   -8.4925    9.7038 H   0  0  0  0  0  0  0  0  0  0  0  0
    4.4763   -9.8523   10.0547 H   0  0  0  0  0  0  0  0  0  0  0  0
    4.3783  -10.9893    6.2130 H   0  0  0  0  0  0  0  0  0  0  0  0
    6.3942   -9.9499    5.8865 H   0  0  0  0  0  0  0  0  0  0  0  0
    5.8401  -10.8056    4.6064 H   0  0  0  0  0  0  0  0  0  0  0  0
    6.3856   -7.7260    4.7760 H   0  0  0  0  0  0  0  0  0  0  0  0
    7.3337   -8.9634    4.2494 H   0  0  0  0  0  0  0  0  0  0  0  0
    7.0399   -8.1774    2.3447 H   0  0  0  0  0  0  0  0  0  0  0  0
    5.9155   -9.3602    2.1175 H   0  0  0  0  0  0  0  0  0  0  0  0
    6.8231   -5.7537    1.8406 H   0  0  0  0  0  0  0  0  0  0  0  0
    5.3374   -4.0016    0.9872 H   0  0  0  0  0  0  0  0  0  0  0  0
    2.2730   -2.2706    0.0901 H   0  0  0  0  0  0  0  0  0  0  0  0
    3.7731   -2.9813   -0.4832 H   0  0  0  0  0  0  0  0  0  0  0  0
    3.6216   -2.4114    1.1999 H   0  0  0  0  0  0  0  0  0  0  0  0
    2.4900  -10.2253    1.1409 H   0  0  0  0  0  0  0  0  0  0  0  0
    4.1465   -9.7849    0.9677 H   0  0  0  0  0  0  0  0  0  0  0  0
    3.3366  -11.7506    2.7064 H   0  0  0  0  0  0  0  0  0  0  0  0
    4.6646  -10.7167    3.0345 H   0  0  0  0  0  0  0  0  0  0  0  0
    0.2665  -12.2864    3.3198 H   0  0  0  0  0  0  0  0  0  0  0  0
    0.4227  -11.6870    4.9408 H   0  0  0  0  0  0  0  0  0  0  0  0
    1.7653  -12.5564    4.2102 H   0  0  0  0  0  0  0  0  0  0  0  0
    2.3758  -10.9767    5.8276 H   0  0  0  0  0  0  0  0  0  0  0  0
    0.5737   -9.4750    5.6008 H   0  0  0  0  0  0  0  0  0  0  0  0
    0.0436   -6.7228    6.5983 H   0  0  0  0  0  0  0  0  0  0  0  0
   -0.1102   -8.2447    7.4606 H   0  0  0  0  0  0  0  0  0  0  0  0
    1.5002   -7.2144    9.1949 H   0  0  0  0  0  0  0  0  0  0  0  0
   -1.0812   -5.5815    8.5195 H   0  0  0  0  0  0  0  0  0  0  0  0
   -0.1887   -5.6256   10.1244 H   0  0  0  0  0  0  0  0  0  0  0  0
    1.8575   -4.7313    9.0230 H   0  0  0  0  0  0  0  0  0  0  0  0
    0.9531   -4.6678    7.4233 H   0  0  0  0  0  0  0  0  0  0  0  0
    2.2154   -6.0204    5.8443 H   0  0  0  0  0  0  0  0  0  0  0  0
    3.4308   -6.7296    6.8255 H   0  0  0  0  0  0  0  0  0  0  0  0
    3.6273   -6.4229    4.2041 H   0  0  0  0  0  0  0  0  0  0  0  0
    4.4191   -7.6497    5.0742 H   0  0  0  0  0  0  0  0  0  0  0  0
   -0.9729   -5.8290    4.5015 H   0  0  0  0  0  0  0  0  0  0  0  0
   -1.0544   -7.5403    4.8829 H   0  0  0  0  0  0  0  0  0  0  0  0
   -1.0852   -7.0394    3.2013 H   0  0  0  0  0  0  0  0  0  0  0  0
    0.8203   -8.7581    1.7985 H   0  0  0  0  0  0  0  0  0  0  0  0
    2.2542   -8.5611    7.1816 H   0  0  0  0  0  0  0  0  0  0  0  0
  1  2  1  0
  1 38  1  0
  1 39  1  0
  1 40  1  0
  2  3  1  0
  3  4  2  0
  3  5  1  0
  5 23  1  0
  5  6  1  0
  5 41  1  1
  6  7  1  0
  6 42  1  0
  6 43  1  0
  7  8  1  0
  7 44  1  0
  7 45  1  0
  8  9  1  0
  8 46  1  0
  8 47  1  0
  9 16  2  0
  9 10  1  0
 10 11  2  0
 10 48  1  0
 11 12  1  0
 11 49  1  0
 12 13  1  0
 12 15  2  0
 13 14  1  0
 14 50  1  0
 14 51  1  0
 14 52  1  0
 15 37  1  0
 15 16  1  0
 16 17  1  0
 17 32  1  0
 17 36  1  0
 17 18  1  6
 18 19  1  0
 18 53  1  0
 18 54  1  0
 19 20  1  0
 19 55  1  0
 19 56  1  0
 20 32  1  0
 20 21  1  6
 20 23  1  0
 21 22  1  0
 22 57  1  0
 22 58  1  0
 22 59  1  0
 23 24  1  0
 23 60  1  6
 24 33  1  0
 24 25  1  0
 24 61  1  1
 25 26  1  0
 25 30  1  0
 25 77  1  1
 26 27  1  0
 26 62  1  0
 26 63  1  0
 27 29  1  0
 27 28  1  0
 27 64  1  0
 28 29  1  0
 28 65  1  0
 28 66  1  0
 29 67  1  0
 29 68  1  0
 30 31  1  0
 30 69  1  0
 30 70  1  0
 32 31  1  1
 31 71  1  0
 31 72  1  0
 32 33  1  0
 33 34  1  1
 33 36  1  0
 34 35  1  0
 35 73  1  0
 35 74  1  0
 35 75  1  0
 36 37  1  0
 36 76  1  6
M  CHG  1  25   1
M  END
>  <i_m_ct_stereo_status>  (271) 
1

>  <s_m_source_file>  (271) 
/var/tmp/pbs.5076255.sched01/tmp_srbpc4z/1203xlsw0nt.sdf

>  <i_m_source_file_index>  (271) 
30

>  <i_lp_mmshare_version>  (271) 
48012

>  <i_f3d_flags>  (271) 
0

>  <s_epik_input>  (271) 
W0NIM11PQyg9TylbQ0BASF0xW0NIMl1bQ0gyXVtDSDJdYyhbY0hdW2NIXWMyT1tDSDNdKWMzYzJPW0NAQEhdNEM1KE9bQ0gzXSlbQ0BASF0oW0NASF0xW0NAQF0oW0NAQF01NltDQF0zNDcpKFtDSDJdW0NIMl03KU9bQ0gzXSlOKFtDSDJdW0NIMl02KVtDSDJdW0NIXThbQ0gyXVtDSDJdOA==

>  <s_epik_cmdline>  (271) 
J2VwaWtfcHl0aG9uJywgJy1waHQnLCAnMi4wJywgJy1waCcsICc3LjAnLCAnLXRuJywgJzgnLCAnLW1hJywgJzIwMCcsICctaW1hZScsICc8aW5maWxlLm1hZT4nLCAnLW9tYWUnLCAnPG91dGZpbGUubWFlPic=

>  <r_lp_tautomer_probability>  (271) 
1

>  <r_epik_Ionization_Penalty>  (271) 
0.324987

>  <r_epik_Ionization_Penalty_Charging>  (271) 
0.324987

>  <r_epik_Ionization_Penalty_Neutral>  (271) 
5.24917e-14

>  <r_epik_State_Penalty>  (271) 
0.319754

>  <r_epik_Charging_Adjusted_Penalty>  (271) 
0.644741

>  <i_epik_Tot_Q>  (271) 
1

>  <i_epik_Tot_abs_Q>  (271) 
1

>  <s_epik_Chemistry_Notes>  (271) 
This compound has an ester and may undergo hydrolysis at high or low pH.

>  <s_lp_Force_Field>  (271) 
OPLS3e

>  <r_lp_Energy>  (271) 
296.216

>  <b_lp_Chiralities_Consistent>  (271) 
1

>  <s_lp_Variant>  (271) 
110:0-1

>  <s_i_glide_gridfile>  (271) 
pfpi4k_grid

>  <i_i_glide_lignum>  (271) 
30

>  <i_i_glide_rotatable_bonds>  (271) 
7

>  <r_i_docking_score>  (271) 
-1.58481

>  <r_i_glide_ligand_efficiency>  (271) 
-0.0428326

>  <r_i_glide_ligand_efficiency_sa>  (271) 
-0.142728

>  <r_i_glide_ligand_efficiency_ln>  (271) 
-0.343707

>  <r_i_glide_gscore>  (271) 
-1.58481

>  <r_i_glide_lipo>  (271) 
-0.216858

>  <r_i_glide_hbond>  (271) 
0

>  <r_i_glide_metal>  (271) 
-0

>  <r_i_glide_rewards>  (271) 
0

>  <r_i_glide_evdw>  (271) 
-23.7156

>  <r_i_glide_ecoul>  (271) 
-2.63628

>  <r_i_glide_erotb>  (271) 
0.235714

>  <r_i_glide_esite>  (271) 
-0.0224384

>  <r_i_glide_emodel>  (271) 
-28.763

>  <r_i_glide_energy>  (271) 
-26.3519

>  <r_i_glide_einternal>  (271) 
0.854096

>  <r_i_glide_intrahb_reward>  (271) 
-0

>  <i_i_glide_confnum>  (271) 
6

>  <i_i_glide_posenum>  (271) 
12

>  <r_i_glide_eff_state_penalty>  (271) 
0

>  <ligand_id>  (271) 
110

>  <original_smiles>  (271) 
COC(=O)C1CCCc2ccc(OC)c3c2C24CCC5(OC)C1C1N(CC6CC6)CCC52C1(OC)C4O3

>  <smiles>  (271) 
[H]c1c([H])c2c3c(c1OC([H])([H])[H])OC1([H])C4(OC([H])([H])[H])C56C([H])([H])C([H])([H])[N+]([H])(C([H])([H])C7([H])C([H])([H])C7([H])[H])C4([H])C([H])(C([H])(C(=O)OC([H])([H])[H])C([H])([H])C([H])([H])C2([H])[H])C5(OC([H])([H])[H])C([H])([H])C([H])([H])C316

$$$$
110:1:0
     RDKit          3D

 76 83  0  0  1  0  0  0  0  0999 V2000
    2.6713  -10.2650    8.5539 C   0  0  0  0  0  0  0  0  0  0  0  0
    3.3886   -9.0215    8.6691 O   0  0  0  0  0  0  0  0  0  0  0  0
    4.0749   -8.4514    7.6228 C   0  0  0  0  0  0  0  0  0  0  0  0
    4.6831   -7.3899    7.7248 O   0  0  0  0  0  0  0  0  0  0  0  0
    4.1152   -9.2364    6.2865 C   0  0  2  0  0  0  0  0  0  0  0  0
    5.5406   -9.1429    5.5303 C   0  0  0  0  0  0  0  0  0  0  0  0
    6.1184   -8.0609    4.5073 C   0  0  0  0  0  0  0  0  0  0  0  0
    5.9557   -8.1427    2.9261 C   0  0  0  0  0  0  0  0  0  0  0  0
    5.0564   -7.1662    2.1169 C   0  0  0  0  0  0  0  0  0  0  0  0
    5.4516   -5.9340    1.5506 C   0  0  0  0  0  0  0  0  0  0  0  0
    4.5401   -5.1246    0.8435 C   0  0  0  0  0  0  0  0  0  0  0  0
    3.1565   -5.4895    0.7114 C   0  0  0  0  0  0  0  0  0  0  0  0
    2.1922   -4.7262    0.0848 O   0  0  0  0  0  0  0  0  0  0  0  0
    2.6237   -3.5678   -0.6149 C   0  0  0  0  0  0  0  0  0  0  0  0
    2.7167   -6.6988    1.2842 C   0  0  0  0  0  0  0  0  0  0  0  0
    3.6870   -7.4833    1.8610 C   0  0  0  0  0  0  0  0  0  0  0  0
    2.8930   -8.6022    2.3931 C   0  0  1  0  0  0  0  0  0  0  0  0
    3.4557   -9.9982    2.0606 C   0  0  0  0  0  0  0  0  0  0  0  0
    3.7582  -10.6251    3.4075 C   0  0  0  0  0  0  0  0  0  0  0  0
    2.7309   -9.8708    4.2513 C   0  0  1  0  0  0  0  0  0  0  0  0
    1.5594  -10.6780    3.8535 O   0  0  0  0  0  0  0  0  0  0  0  0
    1.2184  -11.8970    4.5431 C   0  0  0  0  0  0  0  0  0  0  0  0
    2.6657   -9.6599    5.6699 C   0  0  2  0  0  0  0  0  0  0  0  0
    1.3262   -8.6996    5.4371 C   0  0  1  0  0  0  0  0  0  0  0  0
    1.4495   -7.5810    6.3719 N   0  0  0  0  0  0  0  0  0  0  0  0
    0.2419   -7.0743    7.0219 C   0  0  0  0  0  0  0  0  0  0  0  0
    0.4905   -5.9933    8.0514 C   0  0  0  0  0  0  0  0  0  0  0  0
   -0.6671   -5.1541    8.5620 C   0  0  0  0  0  0  0  0  0  0  0  0
    0.3488   -4.5436    7.6301 C   0  0  0  0  0  0  0  0  0  0  0  0
    2.2659   -6.5307    5.7718 C   0  0  0  0  0  0  0  0  0  0  0  0
    3.1359   -7.0427    4.5875 C   0  0  0  0  0  0  0  0  0  0  0  0
    2.6001   -8.3640    3.8103 C   0  0  1  0  0  0  0  0  0  0  0  0
    1.1218   -8.1601    3.8586 C   0  0  2  0  0  0  0  0  0  0  0  0
    0.4432   -6.8982    3.8253 O   0  0  0  0  0  0  0  0  0  0  0  0
   -0.9649   -7.0365    3.9304 C   0  0  0  0  0  0  0  0  0  0  0  0
    1.3946   -8.3711    2.2611 C   0  0  1  0  0  0  0  0  0  0  0  0
    1.4197   -7.1589    1.4314 O   0  0  0  0  0  0  0  0  0  0  0  0
    2.2855  -10.5932    9.5293 H   0  0  0  0  0  0  0  0  0  0  0  0
    3.3530  -11.0350    8.2012 H   0  0  0  0  0  0  0  0  0  0  0  0
    1.8835  -10.1538    7.8559 H   0  0  0  0  0  0  0  0  0  0  0  0
    4.3594  -10.2154    6.6845 H   0  0  0  0  0  0  0  0  0  0  0  0
    6.2283   -9.0101    6.3701 H   0  0  0  0  0  0  0  0  0  0  0  0
    5.8761  -10.1333    5.2384 H   0  0  0  0  0  0  0  0  0  0  0  0
    6.0732   -7.0316    4.8738 H   0  0  0  0  0  0  0  0  0  0  0  0
    7.1938   -8.2255    4.6299 H   0  0  0  0  0  0  0  0  0  0  0  0
    6.9399   -7.8327    2.5859 H   0  0  0  0  0  0  0  0  0  0  0  0
    5.9490   -9.1634    2.5475 H   0  0  0  0  0  0  0  0  0  0  0  0
    6.4918   -5.5996    1.6679 H   0  0  0  0  0  0  0  0  0  0  0  0
    4.8958   -4.2026    0.4295 H   0  0  0  0  0  0  0  0  0  0  0  0
    1.7547   -3.0867   -1.0595 H   0  0  0  0  0  0  0  0  0  0  0  0
    3.3057   -3.8175   -1.4255 H   0  0  0  0  0  0  0  0  0  0  0  0
    3.0923   -2.8405    0.0447 H   0  0  0  0  0  0  0  0  0  0  0  0
    2.6876  -10.6045    1.5914 H   0  0  0  0  0  0  0  0  0  0  0  0
    4.3152  -10.0064    1.3826 H   0  0  0  0  0  0  0  0  0  0  0  0
    3.6345  -11.7098    3.4166 H   0  0  0  0  0  0  0  0  0  0  0  0
    4.7899  -10.4677    3.6270 H   0  0  0  0  0  0  0  0  0  0  0  0
    0.5698  -12.5263    3.9351 H   0  0  0  0  0  0  0  0  0  0  0  0
    0.6410  -11.6986    5.4431 H   0  0  0  0  0  0  0  0  0  0  0  0
    2.0744  -12.5020    4.8352 H   0  0  0  0  0  0  0  0  0  0  0  0
    2.4344  -10.5646    6.1755 H   0  0  0  0  0  0  0  0  0  0  0  0
    0.4538   -9.2975    5.7149 H   0  0  0  0  0  0  0  0  0  0  0  0
   -0.4321   -6.6136    6.3004 H   0  0  0  0  0  0  0  0  0  0  0  0
   -0.2781   -7.9000    7.5049 H   0  0  0  0  0  0  0  0  0  0  0  0
    1.2768   -6.2248    8.7672 H   0  0  0  0  0  0  0  0  0  0  0  0
   -1.6576   -5.3612    8.1586 H   0  0  0  0  0  0  0  0  0  0  0  0
   -0.6386   -4.8360    9.6034 H   0  0  0  0  0  0  0  0  0  0  0  0
    1.0657   -3.8342    8.0444 H   0  0  0  0  0  0  0  0  0  0  0  0
    0.0432   -4.3461    6.6029 H   0  0  0  0  0  0  0  0  0  0  0  0
    1.6274   -5.7270    5.4118 H   0  0  0  0  0  0  0  0  0  0  0  0
    2.8773   -6.0624    6.5311 H   0  0  0  0  0  0  0  0  0  0  0  0
    3.2034   -6.1764    3.9251 H   0  0  0  0  0  0  0  0  0  0  0  0
    4.0855   -7.1234    5.0258 H   0  0  0  0  0  0  0  0  0  0  0  0
   -1.3817   -6.0395    4.0652 H   0  0  0  0  0  0  0  0  0  0  0  0
   -1.2675   -7.6376    4.7859 H   0  0  0  0  0  0  0  0  0  0  0  0
   -1.4041   -7.4917    3.0407 H   0  0  0  0  0  0  0  0  0  0  0  0
    0.8408   -9.1937    1.8031 H   0  0  0  0  0  0  0  0  0  0  0  0
  1  2  1  0
  1 38  1  0
  1 39  1  0
  1 40  1  0
  2  3  1  0
  3  4  2  0
  3  5  1  0
  5 23  1  0
  5  6  1  0
  5 41  1  1
  6  7  1  0
  6 42  1  0
  6 43  1  0
  7  8  1  0
  7 44  1  0
  7 45  1  0
  8  9  1  0
  8 46  1  0
  8 47  1  0
  9 16  2  0
  9 10  1  0
 10 11  2  0
 10 48  1  0
 11 12  1  0
 11 49  1  0
 12 13  1  0
 12 15  2  0
 13 14  1  0
 14 50  1  0
 14 51  1  0
 14 52  1  0
 15 37  1  0
 15 16  1  0
 16 17  1  0
 17 32  1  0
 17 36  1  0
 17 18  1  1
 18 19  1  0
 18 53  1  0
 18 54  1  0
 19 20  1  0
 19 55  1  0
 19 56  1  0
 20 32  1  0
 20 21  1  6
 20 23  1  0
 21 22  1  0
 22 57  1  0
 22 58  1  0
 22 59  1  0
 23 24  1  0
 23 60  1  1
 24 33  1  0
 24 25  1  0
 24 61  1  1
 25 26  1  0
 25 30  1  0
 26 27  1  0
 26 62  1  0
 26 63  1  0
 27 29  1  0
 27 28  1  0
 27 64  1  0
 28 29  1  0
 28 65  1  0
 28 66  1  0
 29 67  1  0
 29 68  1  0
 30 31  1  0
 30 69  1  0
 30 70  1  0
 32 31  1  1
 31 71  1  0
 31 72  1  0
 32 33  1  0
 33 34  1  6
 33 36  1  0
 34 35  1  0
 35 73  1  0
 35 74  1  0
 35 75  1  0
 36 37  1  0
 36 76  1  6
M  END
>  <i_m_ct_stereo_status>  (272) 
1

>  <s_m_source_file>  (272) 
/var/tmp/pbs.5076255.sched01/tmp_srbpc4z/1203xlsw0nt.sdf

>  <i_m_source_file_index>  (272) 
31

>  <i_lp_mmshare_version>  (272) 
48012

>  <i_f3d_flags>  (272) 
0

>  <s_epik_input>  (272) 
W0NIM11PQyg9TylbQ0BASF0xW0NIMl1bQ0gyXVtDSDJdYyhbY0hdW2NIXWMyT1tDSDNdKWMzYzJPW0NAQEhdNEM1KE9bQ0gzXSlbQ0BASF0oW0NASF0xW0NAQF0oW0NAQF01NltDQF0zNDcpKFtDSDJdW0NIMl03KU9bQ0gzXSlOKFtDSDJdW0NIMl02KVtDSDJdW0NIXThbQ0gyXVtDSDJdOA==

>  <s_epik_cmdline>  (272) 
J2VwaWtfcHl0aG9uJywgJy1waHQnLCAnMi4wJywgJy1waCcsICc3LjAnLCAnLXRuJywgJzgnLCAnLW1hJywgJzIwMCcsICctaW1hZScsICc8aW5maWxlLm1hZT4nLCAnLW9tYWUnLCAnPG91dGZpbGUubWFlPic=

>  <r_lp_tautomer_probability>  (272) 
1

>  <r_epik_Ionization_Penalty>  (272) 
0.510897

>  <r_epik_Ionization_Penalty_Charging>  (272) 
0

>  <r_epik_Ionization_Penalty_Neutral>  (272) 
0.510897

>  <r_epik_State_Penalty>  (272) 
0.518135

>  <r_epik_Charging_Adjusted_Penalty>  (272) 
0.518135

>  <i_epik_Tot_Q>  (272) 
0

>  <i_epik_Tot_abs_Q>  (272) 
0

>  <s_epik_Chemistry_Notes>  (272) 
This compound has an ester and may undergo hydrolysis at high or low pH.

>  <s_lp_Force_Field>  (272) 
OPLS3e

>  <r_lp_Energy>  (272) 
298.188

>  <b_lp_Chiralities_Consistent>  (272) 
1

>  <s_lp_Variant>  (272) 
110:0-2

>  <s_i_glide_gridfile>  (272) 
pfpi4k_grid

>  <i_i_glide_lignum>  (272) 
31

>  <i_i_glide_rotatable_bonds>  (272) 
7

>  <r_i_docking_score>  (272) 
-1.75982

>  <r_i_glide_ligand_efficiency>  (272) 
-0.0475627

>  <r_i_glide_ligand_efficiency_sa>  (272) 
-0.15849

>  <r_i_glide_ligand_efficiency_ln>  (272) 
-0.381664

>  <r_i_glide_gscore>  (272) 
-1.75982

>  <r_i_glide_lipo>  (272) 
-0.210306

>  <r_i_glide_hbond>  (272) 
-0.0105365

>  <r_i_glide_metal>  (272) 
-0

>  <r_i_glide_rewards>  (272) 
0

>  <r_i_glide_evdw>  (272) 
-24.4415

>  <r_i_glide_ecoul>  (272) 
-3.68009

>  <r_i_glide_erotb>  (272) 
0.23657

>  <r_i_glide_esite>  (272) 
-0.00146015

>  <r_i_glide_emodel>  (272) 
-27.0059

>  <r_i_glide_energy>  (272) 
-28.1216

>  <r_i_glide_einternal>  (272) 
6.15547

>  <r_i_glide_intrahb_reward>  (272) 
-0

>  <i_i_glide_confnum>  (272) 
6

>  <i_i_glide_posenum>  (272) 
23

>  <r_i_glide_eff_state_penalty>  (272) 
0

>  <ligand_id>  (272) 
110

>  <original_smiles>  (272) 
COC(=O)C1CCCc2ccc(OC)c3c2C24CCC5(OC)C1C1N(CC6CC6)CCC52C1(OC)C4O3

>  <smiles>  (272) 
[H]c1c([H])c2c3c(c1OC([H])([H])[H])OC1([H])C4(OC([H])([H])[H])C5([H])N(C([H])([H])C6([H])C([H])([H])C6([H])[H])C([H])([H])C([H])([H])C46C(OC([H])([H])[H])(C([H])([H])C([H])([H])C316)C5([H])C([H])(C(=O)OC([H])([H])[H])C([H])([H])C([H])([H])C2([H])[H]

$$$$
110:1:1
     RDKit          3D

 76 83  0  0  1  0  0  0  0  0999 V2000
    4.9130   -9.2021    9.1849 C   0  0  0  0  0  0  0  0  0  0  0  0
    4.6069   -9.6412    7.8729 O   0  0  0  0  0  0  0  0  0  0  0  0
    5.2801   -9.1242    6.8302 C   0  0  0  0  0  0  0  0  0  0  0  0
    6.1775   -8.2857    6.9056 O   0  0  0  0  0  0  0  0  0  0  0  0
    4.8367   -9.7236    5.4841 C   0  0  2  0  0  0  0  0  0  0  0  0
    6.0412   -9.8396    4.4091 C   0  0  0  0  0  0  0  0  0  0  0  0
    6.6398   -8.7651    3.3737 C   0  0  0  0  0  0  0  0  0  0  0  0
    6.1316   -8.5850    1.8812 C   0  0  0  0  0  0  0  0  0  0  0  0
    5.3935   -7.3104    1.3942 C   0  0  0  0  0  0  0  0  0  0  0  0
    5.9467   -6.1217    0.8810 C   0  0  0  0  0  0  0  0  0  0  0  0
    5.1316   -5.0336    0.4765 C   0  0  0  0  0  0  0  0  0  0  0  0
    3.7005   -5.0689    0.6347 C   0  0  0  0  0  0  0  0  0  0  0  0
    2.8698   -4.0246    0.3228 O   0  0  0  0  0  0  0  0  0  0  0  0
    3.4392   -2.8561   -0.2475 C   0  0  0  0  0  0  0  0  0  0  0  0
    3.0908   -6.2317    1.1715 C   0  0  0  0  0  0  0  0  0  0  0  0
    3.9573   -7.2816    1.4341 C   0  0  0  0  0  0  0  0  0  0  0  0
    3.0401   -8.2670    2.0330 C   0  0  1  0  0  0  0  0  0  0  0  0
    3.1643   -9.6711    1.4488 C   0  0  0  0  0  0  0  0  0  0  0  0
    3.5633  -10.5545    2.6306 C   0  0  0  0  0  0  0  0  0  0  0  0
    2.9731   -9.7166    3.7819 C   0  0  1  0  0  0  0  0  0  0  0  0
    1.5870  -10.1776    3.6021 O   0  0  0  0  0  0  0  0  0  0  0  0
    1.1276  -11.4048    4.1910 C   0  0  0  0  0  0  0  0  0  0  0  0
    3.2302   -9.6911    5.1958 C   0  0  2  0  0  0  0  0  0  0  0  0
    2.1703   -8.4475    5.3465 C   0  0  1  0  0  0  0  0  0  0  0  0
    2.7491   -7.5226    6.3268 N   0  0  0  0  0  0  0  0  0  0  0  0
    1.8597   -6.8940    7.3007 C   0  0  0  0  0  0  0  0  0  0  0  0
    1.3397   -7.8369    8.3550 C   0  0  0  0  0  0  0  0  0  0  0  0
    0.1675   -8.7646    8.1090 C   0  0  0  0  0  0  0  0  0  0  0  0
    0.0094   -7.5819    9.0290 C   0  0  0  0  0  0  0  0  0  0  0  0
    3.6350   -6.6028    5.6385 C   0  0  0  0  0  0  0  0  0  0  0  0
    4.1025   -7.1290    4.2509 C   0  0  0  0  0  0  0  0  0  0  0  0
    3.1193   -8.1706    3.5079 C   0  0  1  0  0  0  0  0  0  0  0  0
    1.7791   -7.6651    3.9167 C   0  0  2  0  0  0  0  0  0  0  0  0
    1.4401   -6.2919    4.1495 O   0  0  0  0  0  0  0  0  0  0  0  0
    0.0633   -6.1030    4.4483 C   0  0  0  0  0  0  0  0  0  0  0  0
    1.6511   -7.6993    2.3014 C   0  0  1  0  0  0  0  0  0  0  0  0
    1.7832   -6.4328    1.5718 O   0  0  0  0  0  0  0  0  0  0  0  0
    4.2704   -9.7176    9.9000 H   0  0  0  0  0  0  0  0  0  0  0  0
    4.7484   -8.1314    9.2869 H   0  0  0  0  0  0  0  0  0  0  0  0
    5.9505   -9.4247    9.4403 H   0  0  0  0  0  0  0  0  0  0  0  0
    4.8784  -10.7705    5.7924 H   0  0  0  0  0  0  0  0  0  0  0  0
    6.9035   -9.9787    5.0644 H   0  0  0  0  0  0  0  0  0  0  0  0
    6.0419  -10.8229    3.9549 H   0  0  0  0  0  0  0  0  0  0  0  0
    6.9279   -7.8242    3.8255 H   0  0  0  0  0  0  0  0  0  0  0  0
    7.6344   -9.1816    3.2215 H   0  0  0  0  0  0  0  0  0  0  0  0
    7.0758   -8.4541    1.3492 H   0  0  0  0  0  0  0  0  0  0  0  0
    5.8088   -9.4961    1.4063 H   0  0  0  0  0  0  0  0  0  0  0  0
    7.0219   -6.0335    0.7806 H   0  0  0  0  0  0  0  0  0  0  0  0
    5.6093   -4.1633    0.0757 H   0  0  0  0  0  0  0  0  0  0  0  0
    2.6569   -2.1321   -0.4356 H   0  0  0  0  0  0  0  0  0  0  0  0
    3.9205   -3.0757   -1.1969 H   0  0  0  0  0  0  0  0  0  0  0  0
    4.1528   -2.3921    0.4290 H   0  0  0  0  0  0  0  0  0  0  0  0
    2.1844  -10.0033    1.0884 H   0  0  0  0  0  0  0  0  0  0  0  0
    3.8271   -9.7688    0.5930 H   0  0  0  0  0  0  0  0  0  0  0  0
    3.1712  -11.5567    2.5451 H   0  0  0  0  0  0  0  0  0  0  0  0
    4.6209  -10.6650    2.6029 H   0  0  0  0  0  0  0  0  0  0  0  0
    0.2406  -11.7476    3.6553 H   0  0  0  0  0  0  0  0  0  0  0  0
    0.8175  -11.2679    5.2298 H   0  0  0  0  0  0  0  0  0  0  0  0
    1.8658  -12.2065    4.1570 H   0  0  0  0  0  0  0  0  0  0  0  0
    2.8357  -10.5465    5.7392 H   0  0  0  0  0  0  0  0  0  0  0  0
    1.2579   -8.8877    5.7444 H   0  0  0  0  0  0  0  0  0  0  0  0
    2.4134   -6.1059    7.8198 H   0  0  0  0  0  0  0  0  0  0  0  0
    1.0231   -6.3895    6.8255 H   0  0  0  0  0  0  0  0  0  0  0  0
    2.1243   -8.2242    9.0138 H   0  0  0  0  0  0  0  0  0  0  0  0
   -0.3363   -8.7199    7.1442 H   0  0  0  0  0  0  0  0  0  0  0  0
    0.2592   -9.7593    8.5359 H   0  0  0  0  0  0  0  0  0  0  0  0
   -0.0731   -7.7872   10.0882 H   0  0  0  0  0  0  0  0  0  0  0  0
   -0.5847   -6.7419    8.6584 H   0  0  0  0  0  0  0  0  0  0  0  0
    3.1504   -5.6328    5.5289 H   0  0  0  0  0  0  0  0  0  0  0  0
    4.5101   -6.3991    6.2645 H   0  0  0  0  0  0  0  0  0  0  0  0
    4.2515   -6.2234    3.6568 H   0  0  0  0  0  0  0  0  0  0  0  0
    5.0669   -7.4942    4.4502 H   0  0  0  0  0  0  0  0  0  0  0  0
   -0.0741   -5.0712    4.7828 H   0  0  0  0  0  0  0  0  0  0  0  0
   -0.2881   -6.7624    5.2445 H   0  0  0  0  0  0  0  0  0  0  0  0
   -0.5752   -6.2819    3.5841 H   0  0  0  0  0  0  0  0  0  0  0  0
    0.8352   -8.3327    1.9257 H   0  0  0  0  0  0  0  0  0  0  0  0
  1  2  1  0
  1 38  1  0
  1 39  1  0
  1 40  1  0
  2  3  1  0
  3  4  2  0
  3  5  1  0
  5 23  1  0
  5  6  1  0
  5 41  1  1
  6  7  1  0
  6 42  1  0
  6 43  1  0
  7  8  1  0
  7 44  1  0
  7 45  1  0
  8  9  1  0
  8 46  1  0
  8 47  1  0
  9 16  2  0
  9 10  1  0
 10 11  2  0
 10 48  1  0
 11 12  1  0
 11 49  1  0
 12 13  1  0
 12 15  2  0
 13 14  1  0
 14 50  1  0
 14 51  1  0
 14 52  1  0
 15 37  1  0
 15 16  1  0
 16 17  1  0
 17 32  1  0
 17 36  1  0
 17 18  1  1
 18 19  1  0
 18 53  1  0
 18 54  1  0
 19 20  1  0
 19 55  1  0
 19 56  1  0
 20 32  1  0
 20 21  1  1
 20 23  1  0
 21 22  1  0
 22 57  1  0
 22 58  1  0
 22 59  1  0
 23 24  1  0
 23 60  1  1
 24 33  1  0
 24 25  1  0
 24 61  1  1
 25 26  1  0
 25 30  1  0
 26 27  1  0
 26 62  1  0
 26 63  1  0
 27 29  1  0
 27 28  1  0
 27 64  1  0
 28 29  1  0
 28 65  1  0
 28 66  1  0
 29 67  1  0
 29 68  1  0
 30 31  1  0
 30 69  1  0
 30 70  1  0
 32 31  1  6
 31 71  1  0
 31 72  1  0
 32 33  1  0
 33 34  1  1
 33 36  1  0
 34 35  1  0
 35 73  1  0
 35 74  1  0
 35 75  1  0
 36 37  1  0
 36 76  1  1
M  END
>  <i_m_ct_stereo_status>  (273) 
1

>  <s_m_source_file>  (273) 
/var/tmp/pbs.5076255.sched01/tmp_srbpc4z/1203xlsw0nt.sdf

>  <i_m_source_file_index>  (273) 
31

>  <i_lp_mmshare_version>  (273) 
48012

>  <i_f3d_flags>  (273) 
0

>  <s_epik_input>  (273) 
W0NIM11PQyg9TylbQ0BASF0xW0NIMl1bQ0gyXVtDSDJdYyhbY0hdW2NIXWMyT1tDSDNdKWMzYzJPW0NAQEhdNEM1KE9bQ0gzXSlbQ0BASF0oW0NASF0xW0NAQF0oW0NAQF01NltDQF0zNDcpKFtDSDJdW0NIMl03KU9bQ0gzXSlOKFtDSDJdW0NIMl02KVtDSDJdW0NIXThbQ0gyXVtDSDJdOA==

>  <s_epik_cmdline>  (273) 
J2VwaWtfcHl0aG9uJywgJy1waHQnLCAnMi4wJywgJy1waCcsICc3LjAnLCAnLXRuJywgJzgnLCAnLW1hJywgJzIwMCcsICctaW1hZScsICc8aW5maWxlLm1hZT4nLCAnLW9tYWUnLCAnPG91dGZpbGUubWFlPic=

>  <r_lp_tautomer_probability>  (273) 
1

>  <r_epik_Ionization_Penalty>  (273) 
0.510897

>  <r_epik_Ionization_Penalty_Charging>  (273) 
0

>  <r_epik_Ionization_Penalty_Neutral>  (273) 
0.510897

>  <r_epik_State_Penalty>  (273) 
0.518135

>  <r_epik_Charging_Adjusted_Penalty>  (273) 
0.518135

>  <i_epik_Tot_Q>  (273) 
0

>  <i_epik_Tot_abs_Q>  (273) 
0

>  <s_epik_Chemistry_Notes>  (273) 
This compound has an ester and may undergo hydrolysis at high or low pH.

>  <s_lp_Force_Field>  (273) 
OPLS3e

>  <r_lp_Energy>  (273) 
298.188

>  <b_lp_Chiralities_Consistent>  (273) 
1

>  <s_lp_Variant>  (273) 
110:0-2

>  <s_i_glide_gridfile>  (273) 
pfpi4k_grid

>  <i_i_glide_lignum>  (273) 
31

>  <i_i_glide_rotatable_bonds>  (273) 
7

>  <r_i_docking_score>  (273) 
-1.7406

>  <r_i_glide_ligand_efficiency>  (273) 
-0.0470431

>  <r_i_glide_ligand_efficiency_sa>  (273) 
-0.156758

>  <r_i_glide_ligand_efficiency_ln>  (273) 
-0.377495

>  <r_i_glide_gscore>  (273) 
-1.7406

>  <r_i_glide_lipo>  (273) 
-0.609559

>  <r_i_glide_hbond>  (273) 
0

>  <r_i_glide_metal>  (273) 
-0

>  <r_i_glide_rewards>  (273) 
0

>  <r_i_glide_evdw>  (273) 
-25.3086

>  <r_i_glide_ecoul>  (273) 
-0.681188

>  <r_i_glide_erotb>  (273) 
0.23657

>  <r_i_glide_esite>  (273) 
0

>  <r_i_glide_emodel>  (273) 
-28.0084

>  <r_i_glide_energy>  (273) 
-25.9898

>  <r_i_glide_einternal>  (273) 
2.10874

>  <r_i_glide_intrahb_reward>  (273) 
-0

>  <i_i_glide_confnum>  (273) 
3

>  <i_i_glide_posenum>  (273) 
12

>  <r_i_glide_eff_state_penalty>  (273) 
0

>  <ligand_id>  (273) 
110

>  <original_smiles>  (273) 
COC(=O)C1CCCc2ccc(OC)c3c2C24CCC5(OC)C1C1N(CC6CC6)CCC52C1(OC)C4O3

>  <smiles>  (273) 
[H]c1c([H])c2c3c(c1OC([H])([H])[H])OC1([H])C4(OC([H])([H])[H])C5([H])N(C([H])([H])C6([H])C([H])([H])C6([H])[H])C([H])([H])C([H])([H])C46C(OC([H])([H])[H])(C([H])([H])C([H])([H])C316)C5([H])C([H])(C(=O)OC([H])([H])[H])C([H])([H])C([H])([H])C2([H])[H]

$$$$
110:1:2
     RDKit          3D

 76 83  0  0  1  0  0  0  0  0999 V2000
    3.4246   -8.2357    9.8111 C   0  0  0  0  0  0  0  0  0  0  0  0
    3.4879   -8.8745    8.5477 O   0  0  0  0  0  0  0  0  0  0  0  0
    4.2724   -8.3582    7.5854 C   0  0  0  0  0  0  0  0  0  0  0  0
    4.9747   -7.3547    7.7013 O   0  0  0  0  0  0  0  0  0  0  0  0
    4.2382   -9.1848    6.2870 C   0  0  2  0  0  0  0  0  0  0  0  0
    5.6337   -9.1341    5.4626 C   0  0  0  0  0  0  0  0  0  0  0  0
    6.1958   -8.0652    4.3969 C   0  0  0  0  0  0  0  0  0  0  0  0
    5.9728   -8.1697    2.8278 C   0  0  0  0  0  0  0  0  0  0  0  0
    5.1017   -7.1669    2.0363 C   0  0  0  0  0  0  0  0  0  0  0  0
    5.4883   -5.9501    1.4379 C   0  0  0  0  0  0  0  0  0  0  0  0
    4.5628   -5.1225    0.7534 C   0  0  0  0  0  0  0  0  0  0  0  0
    3.1692   -5.4660    0.6823 C   0  0  0  0  0  0  0  0  0  0  0  0
    2.2142   -4.6846    0.0808 O   0  0  0  0  0  0  0  0  0  0  0  0
    2.6322   -3.5523   -0.6682 C   0  0  0  0  0  0  0  0  0  0  0  0
    2.7102   -6.6700    1.2825 C   0  0  0  0  0  0  0  0  0  0  0  0
    3.7055   -7.4619    1.8327 C   0  0  0  0  0  0  0  0  0  0  0  0
    2.9087   -8.5673    2.4045 C   0  0  1  0  0  0  0  0  0  0  0  0
    3.4390   -9.9572    2.0753 C   0  0  0  0  0  0  0  0  0  0  0  0
    3.7683  -10.5967    3.4233 C   0  0  0  0  0  0  0  0  0  0  0  0
    2.7903   -9.8002    4.3129 C   0  0  1  0  0  0  0  0  0  0  0  0
    1.5972  -10.5837    3.9522 O   0  0  0  0  0  0  0  0  0  0  0  0
    1.2709  -11.7973    4.6445 C   0  0  0  0  0  0  0  0  0  0  0  0
    2.7438   -9.5617    5.7305 C   0  0  2  0  0  0  0  0  0  0  0  0
    1.4374   -8.5871    5.5092 C   0  0  1  0  0  0  0  0  0  0  0  0
    1.6162   -7.4572    6.4215 N   0  0  0  0  0  0  0  0  0  0  0  0
    0.4316   -6.9247    7.0829 C   0  0  0  0  0  0  0  0  0  0  0  0
    0.7340   -5.9476    8.2014 C   0  0  0  0  0  0  0  0  0  0  0  0
    0.3973   -6.2589    9.6402 C   0  0  0  0  0  0  0  0  0  0  0  0
   -0.3875   -5.2075    8.8944 C   0  0  0  0  0  0  0  0  0  0  0  0
    2.4303   -6.4475    5.7635 C   0  0  0  0  0  0  0  0  0  0  0  0
    3.2504   -6.9944    4.5724 C   0  0  0  0  0  0  0  0  0  0  0  0
    2.6643   -8.3026    3.8389 C   0  0  1  0  0  0  0  0  0  0  0  0
    1.1954   -8.0788    3.9316 C   0  0  2  0  0  0  0  0  0  0  0  0
    0.5529   -6.7984    3.8922 O   0  0  0  0  0  0  0  0  0  0  0  0
   -0.8582   -6.9093    3.9640 C   0  0  0  0  0  0  0  0  0  0  0  0
    1.4067   -8.3020    2.3442 C   0  0  1  0  0  0  0  0  0  0  0  0
    1.4216   -7.1132    1.4835 O   0  0  0  0  0  0  0  0  0  0  0  0
    2.7230   -8.7701   10.4541 H   0  0  0  0  0  0  0  0  0  0  0  0
    3.0868   -7.2070    9.7142 H   0  0  0  0  0  0  0  0  0  0  0  0
    4.4017   -8.2385   10.2981 H   0  0  0  0  0  0  0  0  0  0  0  0
    4.4374  -10.1525    6.7530 H   0  0  0  0  0  0  0  0  0  0  0  0
    6.3609   -9.0014    6.2665 H   0  0  0  0  0  0  0  0  0  0  0  0
    5.9331  -10.1323    5.1692 H   0  0  0  0  0  0  0  0  0  0  0  0
    6.1871   -7.0414    4.7473 H   0  0  0  0  0  0  0  0  0  0  0  0
    7.2638   -8.2556    4.4804 H   0  0  0  0  0  0  0  0  0  0  0  0
    6.9567   -7.8780    2.4483 H   0  0  0  0  0  0  0  0  0  0  0  0
    5.9457   -9.1760    2.4488 H   0  0  0  0  0  0  0  0  0  0  0  0
    6.5179   -5.6285    1.5103 H   0  0  0  0  0  0  0  0  0  0  0  0
    4.9144   -4.2131    0.3143 H   0  0  0  0  0  0  0  0  0  0  0  0
    1.7547   -3.0632   -1.0863 H   0  0  0  0  0  0  0  0  0  0  0  0
    3.2720   -3.8453   -1.4968 H   0  0  0  0  0  0  0  0  0  0  0  0
    3.1426   -2.8257   -0.0410 H   0  0  0  0  0  0  0  0  0  0  0  0
    2.6399  -10.5568    1.6211 H   0  0  0  0  0  0  0  0  0  0  0  0
    4.2614   -9.9842    1.3660 H   0  0  0  0  0  0  0  0  0  0  0  0
    3.6159  -11.6650    3.4226 H   0  0  0  0  0  0  0  0  0  0  0  0
    4.8088  -10.4559    3.5924 H   0  0  0  0  0  0  0  0  0  0  0  0
    0.5876  -12.3996    4.0398 H   0  0  0  0  0  0  0  0  0  0  0  0
    0.7296  -11.5834    5.5674 H   0  0  0  0  0  0  0  0  0  0  0  0
    2.1383  -12.4192    4.8774 H   0  0  0  0  0  0  0  0  0  0  0  0
    2.4437  -10.4258    6.3198 H   0  0  0  0  0  0  0  0  0  0  0  0
    0.5591   -9.1597    5.8252 H   0  0  0  0  0  0  0  0  0  0  0  0
   -0.2013   -6.3996    6.3794 H   0  0  0  0  0  0  0  0  0  0  0  0
   -0.1567   -7.7530    7.5009 H   0  0  0  0  0  0  0  0  0  0  0  0
    1.6195   -5.3257    8.0398 H   0  0  0  0  0  0  0  0  0  0  0  0
   -0.0594   -7.2275    9.8363 H   0  0  0  0  0  0  0  0  0  0  0  0
    1.1136   -5.9195   10.3822 H   0  0  0  0  0  0  0  0  0  0  0  0
   -0.2018   -4.1732    9.1461 H   0  0  0  0  0  0  0  0  0  0  0  0
   -1.4048   -5.4439    8.5750 H   0  0  0  0  0  0  0  0  0  0  0  0
    1.8017   -5.6203    5.4290 H   0  0  0  0  0  0  0  0  0  0  0  0
    3.1193   -5.9936    6.4865 H   0  0  0  0  0  0  0  0  0  0  0  0
    3.3187   -6.1432    3.8903 H   0  0  0  0  0  0  0  0  0  0  0  0
    4.2122   -7.0941    4.9810 H   0  0  0  0  0  0  0  0  0  0  0  0
   -1.2554   -5.9045    4.0977 H   0  0  0  0  0  0  0  0  0  0  0  0
   -1.1871   -7.5040    4.8203 H   0  0  0  0  0  0  0  0  0  0  0  0
   -1.2899   -7.3463    3.0634 H   0  0  0  0  0  0  0  0  0  0  0  0
    0.8296   -9.1354    1.9179 H   0  0  0  0  0  0  0  0  0  0  0  0
  1  2  1  0
  1 38  1  0
  1 39  1  0
  1 40  1  0
  2  3  1  0
  3  4  2  0
  3  5  1  0
  5 23  1  0
  5  6  1  0
  5 41  1  1
  6  7  1  0
  6 42  1  0
  6 43  1  0
  7  8  1  0
  7 44  1  0
  7 45  1  0
  8  9  1  0
  8 46  1  0
  8 47  1  0
  9 16  2  0
  9 10  1  0
 10 11  2  0
 10 48  1  0
 11 12  1  0
 11 49  1  0
 12 13  1  0
 12 15  2  0
 13 14  1  0
 14 50  1  0
 14 51  1  0
 14 52  1  0
 15 37  1  0
 15 16  1  0
 16 17  1  0
 17 32  1  0
 17 36  1  0
 17 18  1  1
 18 19  1  0
 18 53  1  0
 18 54  1  0
 19 20  1  0
 19 55  1  0
 19 56  1  0
 20 32  1  0
 20 21  1  6
 20 23  1  0
 21 22  1  0
 22 57  1  0
 22 58  1  0
 22 59  1  0
 23 24  1  0
 23 60  1  1
 24 33  1  0
 24 25  1  0
 24 61  1  1
 25 26  1  0
 25 30  1  0
 26 27  1  0
 26 62  1  0
 26 63  1  0
 27 29  1  0
 27 28  1  0
 27 64  1  0
 28 29  1  0
 28 65  1  0
 28 66  1  0
 29 67  1  0
 29 68  1  0
 30 31  1  0
 30 69  1  0
 30 70  1  0
 32 31  1  1
 31 71  1  0
 31 72  1  0
 32 33  1  0
 33 34  1  6
 33 36  1  0
 34 35  1  0
 35 73  1  0
 35 74  1  0
 35 75  1  0
 36 37  1  0
 36 76  1  6
M  END
>  <i_m_ct_stereo_status>  (274) 
1

>  <s_m_source_file>  (274) 
/var/tmp/pbs.5076255.sched01/tmp_srbpc4z/1203xlsw0nt.sdf

>  <i_m_source_file_index>  (274) 
31

>  <i_lp_mmshare_version>  (274) 
48012

>  <i_f3d_flags>  (274) 
0

>  <s_epik_input>  (274) 
W0NIM11PQyg9TylbQ0BASF0xW0NIMl1bQ0gyXVtDSDJdYyhbY0hdW2NIXWMyT1tDSDNdKWMzYzJPW0NAQEhdNEM1KE9bQ0gzXSlbQ0BASF0oW0NASF0xW0NAQF0oW0NAQF01NltDQF0zNDcpKFtDSDJdW0NIMl03KU9bQ0gzXSlOKFtDSDJdW0NIMl02KVtDSDJdW0NIXThbQ0gyXVtDSDJdOA==

>  <s_epik_cmdline>  (274) 
J2VwaWtfcHl0aG9uJywgJy1waHQnLCAnMi4wJywgJy1waCcsICc3LjAnLCAnLXRuJywgJzgnLCAnLW1hJywgJzIwMCcsICctaW1hZScsICc8aW5maWxlLm1hZT4nLCAnLW9tYWUnLCAnPG91dGZpbGUubWFlPic=

>  <r_lp_tautomer_probability>  (274) 
1

>  <r_epik_Ionization_Penalty>  (274) 
0.510897

>  <r_epik_Ionization_Penalty_Charging>  (274) 
0

>  <r_epik_Ionization_Penalty_Neutral>  (274) 
0.510897

>  <r_epik_State_Penalty>  (274) 
0.518135

>  <r_epik_Charging_Adjusted_Penalty>  (274) 
0.518135

>  <i_epik_Tot_Q>  (274) 
0

>  <i_epik_Tot_abs_Q>  (274) 
0

>  <s_epik_Chemistry_Notes>  (274) 
This compound has an ester and may undergo hydrolysis at high or low pH.

>  <s_lp_Force_Field>  (274) 
OPLS3e

>  <r_lp_Energy>  (274) 
298.188

>  <b_lp_Chiralities_Consistent>  (274) 
1

>  <s_lp_Variant>  (274) 
110:0-2

>  <s_i_glide_gridfile>  (274) 
pfpi4k_grid

>  <i_i_glide_lignum>  (274) 
31

>  <i_i_glide_rotatable_bonds>  (274) 
7

>  <r_i_docking_score>  (274) 
-1.45582

>  <r_i_glide_ligand_efficiency>  (274) 
-0.0393466

>  <r_i_glide_ligand_efficiency_sa>  (274) 
-0.131111

>  <r_i_glide_ligand_efficiency_ln>  (274) 
-0.315734

>  <r_i_glide_gscore>  (274) 
-1.45582

>  <r_i_glide_lipo>  (274) 
-0.205123

>  <r_i_glide_hbond>  (274) 
-0.0078247

>  <r_i_glide_metal>  (274) 
-0

>  <r_i_glide_rewards>  (274) 
0

>  <r_i_glide_evdw>  (274) 
-24.1072

>  <r_i_glide_ecoul>  (274) 
-1.82708

>  <r_i_glide_erotb>  (274) 
0.23657

>  <r_i_glide_esite>  (274) 
-2.36137e-05

>  <r_i_glide_emodel>  (274) 
-28.1778

>  <r_i_glide_energy>  (274) 
-25.9343

>  <r_i_glide_einternal>  (274) 
0.521083

>  <r_i_glide_intrahb_reward>  (274) 
-0

>  <i_i_glide_confnum>  (274) 
6

>  <i_i_glide_posenum>  (274) 
1

>  <r_i_glide_eff_state_penalty>  (274) 
0

>  <ligand_id>  (274) 
110

>  <original_smiles>  (274) 
COC(=O)C1CCCc2ccc(OC)c3c2C24CCC5(OC)C1C1N(CC6CC6)CCC52C1(OC)C4O3

>  <smiles>  (274) 
[H]c1c([H])c2c3c(c1OC([H])([H])[H])OC1([H])C4(OC([H])([H])[H])C5([H])N(C([H])([H])C6([H])C([H])([H])C6([H])[H])C([H])([H])C([H])([H])C46C(OC([H])([H])[H])(C([H])([H])C([H])([H])C316)C5([H])C([H])(C(=O)OC([H])([H])[H])C([H])([H])C([H])([H])C2([H])[H]

$$$$
111:0:0
     RDKit          3D

 50 55  0  0  1  0  0  0  0  0999 V2000
    5.3148   -8.1155    1.0651 C   0  0  0  0  0  0  0  0  0  0  0  0
    4.5116   -7.6661    2.2955 C   0  0  0  0  0  0  0  0  0  0  0  0
    3.8760   -6.2683    2.1927 C   0  0  1  0  0  0  0  0  0  0  0  0
    2.6056   -6.3014    1.2011 C   0  0  1  0  0  0  0  0  0  0  0  0
    1.2699   -6.8505    1.7981 C   0  0  0  0  0  0  0  0  0  0  0  0
    0.1954   -6.2530    1.7922 O   0  0  0  0  0  0  0  0  0  0  0  0
    1.4377   -8.1014    2.2441 O   0  0  0  0  0  0  0  0  0  0  0  0
    0.3482   -8.8199    2.7988 C   0  0  0  0  0  0  0  0  0  0  0  0
    2.3666   -5.2449    0.1824 N   0  0  0  0  0  0  0  0  0  0  0  0
    2.7027   -4.0053    0.2015 C   0  0  0  0  0  0  0  0  0  0  0  0
    3.0525   -3.3240   -1.1236 C   0  0  0  0  0  0  0  0  0  0  0  0
    4.5848   -3.4524   -1.4531 C   0  0  0  0  0  0  0  0  0  0  0  0
    5.7171   -2.8384   -0.5310 C   0  0  0  0  0  0  0  0  0  0  0  0
    5.6354   -3.0155    0.9670 N   0  0  1  0  0  0  0  0  0  0  0  0
    5.1646   -1.7593    1.5742 C   0  0  0  0  0  0  0  0  0  0  0  0
    3.6593   -1.8004    1.3266 C   0  0  0  0  0  0  0  0  0  0  0  0
    3.2986   -3.3181    1.4133 C   0  0  1  0  0  0  0  0  0  0  0  0
    2.4266   -3.4629    2.6746 C   0  0  2  0  0  0  0  0  0  0  0  0
    2.9617   -3.0699    4.0447 C   0  0  0  0  0  0  0  0  0  0  0  0
    2.6629   -4.5083    3.7230 C   0  0  2  0  0  0  0  0  0  0  0  0
    3.7827   -5.4729    3.4624 C   0  0  2  0  0  0  0  0  0  0  0  0
    4.8269   -5.0672    2.4487 C   0  0  2  0  0  0  0  0  0  0  0  0
    4.6589   -4.0427    1.3717 C   0  0  2  0  0  0  0  0  0  0  0  0
    5.6317   -9.1535    1.1830 H   0  0  0  0  0  0  0  0  0  0  0  0
    6.2125   -7.5087    0.9407 H   0  0  0  0  0  0  0  0  0  0  0  0
    4.7381   -8.0717    0.1408 H   0  0  0  0  0  0  0  0  0  0  0  0
    3.7588   -8.4196    2.5187 H   0  0  0  0  0  0  0  0  0  0  0  0
    5.1765   -7.6960    3.1577 H   0  0  0  0  0  0  0  0  0  0  0  0
    2.8947   -7.0999    0.5123 H   0  0  0  0  0  0  0  0  0  0  0  0
    0.6866   -9.8010    3.1370 H   0  0  0  0  0  0  0  0  0  0  0  0
   -0.4505   -8.9776    2.0693 H   0  0  0  0  0  0  0  0  0  0  0  0
   -0.0635   -8.2952    3.6644 H   0  0  0  0  0  0  0  0  0  0  0  0
    2.5018   -3.8489   -1.9077 H   0  0  0  0  0  0  0  0  0  0  0  0
    2.6642   -2.3081   -1.1915 H   0  0  0  0  0  0  0  0  0  0  0  0
    4.8012   -4.5161   -1.6043 H   0  0  0  0  0  0  0  0  0  0  0  0
    4.7267   -3.0268   -2.4493 H   0  0  0  0  0  0  0  0  0  0  0  0
    6.6488   -3.2931   -0.8449 H   0  0  0  0  0  0  0  0  0  0  0  0
    5.8300   -1.7918   -0.7976 H   0  0  0  0  0  0  0  0  0  0  0  0
    5.3745   -1.7723    2.6369 H   0  0  0  0  0  0  0  0  0  0  0  0
    5.6322   -0.8602    1.1726 H   0  0  0  0  0  0  0  0  0  0  0  0
    3.1405   -1.1805    2.0697 H   0  0  0  0  0  0  0  0  0  0  0  0
    3.4353   -1.3120    0.3815 H   0  0  0  0  0  0  0  0  0  0  0  0
    1.3945   -3.1749    2.5167 H   0  0  0  0  0  0  0  0  0  0  0  0
    4.0043   -2.7848    4.1330 H   0  0  0  0  0  0  0  0  0  0  0  0
    2.2707   -2.5630    4.7176 H   0  0  0  0  0  0  0  0  0  0  0  0
    1.7796   -4.9074    4.2083 H   0  0  0  0  0  0  0  0  0  0  0  0
    4.1562   -5.9669    4.3593 H   0  0  0  0  0  0  0  0  0  0  0  0
    5.8587   -5.3362    2.6800 H   0  0  0  0  0  0  0  0  0  0  0  0
    4.8390   -4.7592    0.5647 H   0  0  0  0  0  0  0  0  0  0  0  0
    6.5569   -3.2290    1.3203 H   0  0  0  0  0  0  0  0  0  0  0  0
  1  2  1  0
  1 24  1  0
  1 25  1  0
  1 26  1  0
  3  2  1  1
  2 27  1  0
  2 28  1  0
  3 21  1  0
  3 22  1  0
  3  4  1  0
  4  5  1  0
  4  9  1  0
  4 29  1  6
  5  6  2  0
  5  7  1  0
  7  8  1  0
  8 30  1  0
  8 31  1  0
  8 32  1  0
  9 10  2  0
 10 17  1  0
 10 11  1  0
 11 12  1  0
 11 33  1  0
 11 34  1  0
 12 13  1  0
 12 35  1  0
 12 36  1  0
 13 14  1  0
 13 37  1  0
 13 38  1  0
 14 23  1  0
 14 15  1  0
 14 50  1  1
 15 16  1  0
 15 39  1  0
 15 40  1  0
 17 16  1  6
 16 41  1  0
 16 42  1  0
 17 23  1  0
 17 18  1  0
 18 20  1  0
 18 19  1  0
 18 43  1  6
 19 20  1  0
 19 44  1  0
 19 45  1  0
 20 21  1  0
 20 46  1  1
 21 22  1  0
 21 47  1  1
 22 23  1  0
 22 48  1  1
 23 49  1  6
M  CHG  1  14   1
M  END
>  <i_m_ct_stereo_status>  (275) 
1

>  <s_m_source_file>  (275) 
/var/tmp/pbs.5076255.sched01/tmp_srbpc4z/1203xlsw0nt.sdf

>  <i_m_source_file_index>  (275) 
32

>  <i_lp_mmshare_version>  (275) 
48012

>  <i_f3d_flags>  (275) 
0

>  <s_epik_input>  (275) 
W0NIM11PQyg9TylbQ0BASF0oTj1DMVtDQEBdMjM0KVtDQF01KFtDSDJdW0NIM10pW0NASF0oW0NAQEhdNltDQEhdM1tDSDJdNilbQ0BASF01W0NAQEhdNE4oW0NIMl1bQ0gyXTIpW0NIMl1bQ0gyXVtDSDJdMQ==

>  <s_epik_cmdline>  (275) 
J2VwaWtfcHl0aG9uJywgJy1waHQnLCAnMi4wJywgJy1waCcsICc3LjAnLCAnLXRuJywgJzgnLCAnLW1hJywgJzIwMCcsICctaW1hZScsICc8aW5maWxlLm1hZT4nLCAnLW9tYWUnLCAnPG91dGZpbGUubWFlPic=

>  <r_lp_tautomer_probability>  (275) 
0.999992

>  <r_epik_Ionization_Penalty>  (275) 
0.0115069

>  <r_epik_Ionization_Penalty_Charging>  (275) 
0.011496

>  <r_epik_Ionization_Penalty_Neutral>  (275) 
1.09561e-05

>  <r_epik_State_Penalty>  (275) 
0.00885738

>  <r_epik_Charging_Adjusted_Penalty>  (275) 
0.0203533

>  <i_epik_Tot_Q>  (275) 
1

>  <i_epik_Tot_abs_Q>  (275) 
1

>  <s_epik_Chemistry_Notes>  (275) 
This compound has an ester and may undergo hydrolysis at high or low pH. This compound has an imine and may undergo hydrolysis.

>  <s_lp_Force_Field>  (275) 
OPLS3e

>  <r_lp_Energy>  (275) 
100.921

>  <b_lp_Chiralities_Consistent>  (275) 
1

>  <s_lp_Variant>  (275) 
111:0-1

>  <s_i_glide_gridfile>  (275) 
pfpi4k_grid

>  <i_i_glide_lignum>  (275) 
32

>  <i_i_glide_rotatable_bonds>  (275) 
3

>  <r_i_docking_score>  (275) 
-3.41273

>  <r_i_glide_ligand_efficiency>  (275) 
-0.148379

>  <r_i_glide_ligand_efficiency_sa>  (275) 
-0.421971

>  <r_i_glide_ligand_efficiency_ln>  (275) 
-0.825228

>  <r_i_glide_gscore>  (275) 
-3.41273

>  <r_i_glide_lipo>  (275) 
-0.267849

>  <r_i_glide_hbond>  (275) 
-0.274239

>  <r_i_glide_metal>  (275) 
-0

>  <r_i_glide_rewards>  (275) 
-1.25843

>  <r_i_glide_evdw>  (275) 
-17.3736

>  <r_i_glide_ecoul>  (275) 
-5.65593

>  <r_i_glide_erotb>  (275) 
0.186967

>  <r_i_glide_esite>  (275) 
-0.0821056

>  <r_i_glide_emodel>  (275) 
-27.7188

>  <r_i_glide_energy>  (275) 
-23.0295

>  <r_i_glide_einternal>  (275) 
0.0896579

>  <r_i_glide_intrahb_reward>  (275) 
-0

>  <i_i_glide_confnum>  (275) 
3

>  <i_i_glide_posenum>  (275) 
9

>  <r_i_glide_eff_state_penalty>  (275) 
0

>  <ligand_id>  (275) 
111

>  <original_smiles>  (275) 
CCC12C(C(=O)OC)N=C3CCCN4CCC35C3CC3C1C2C45

>  <smiles>  (275) 
[H]C([H])([H])OC(=O)C1([H])N=C2C([H])([H])C([H])([H])C([H])([H])[N+]3([H])C([H])([H])C([H])([H])C24C2([H])C([H])([H])C2([H])C2([H])C([H])(C12C([H])([H])C([H])([H])[H])C43[H]

$$$$
111:0:1
     RDKit          3D

 50 55  0  0  1  0  0  0  0  0999 V2000
    4.4830   -7.8348    2.4365 C   0  0  0  0  0  0  0  0  0  0  0  0
    5.0356   -6.8646    1.3776 C   0  0  0  0  0  0  0  0  0  0  0  0
    4.3530   -5.4849    1.3002 C   0  0  1  0  0  0  0  0  0  0  0  0
    2.8740   -5.6182    0.6730 C   0  0  1  0  0  0  0  0  0  0  0  0
    1.7721   -6.1178    1.6417 C   0  0  0  0  0  0  0  0  0  0  0  0
    1.8049   -6.0243    2.8653 O   0  0  0  0  0  0  0  0  0  0  0  0
    0.7746   -6.7141    0.9530 O   0  0  0  0  0  0  0  0  0  0  0  0
   -0.2209   -7.4458    1.6598 C   0  0  0  0  0  0  0  0  0  0  0  0
    2.3022   -4.6623   -0.3166 N   0  0  0  0  0  0  0  0  0  0  0  0
    2.6519   -3.4618   -0.5905 C   0  0  0  0  0  0  0  0  0  0  0  0
    2.6384   -3.0001   -2.0571 C   0  0  0  0  0  0  0  0  0  0  0  0
    4.0313   -3.1852   -2.7730 C   0  0  0  0  0  0  0  0  0  0  0  0
    5.3536   -2.4699   -2.2731 C   0  0  0  0  0  0  0  0  0  0  0  0
    5.6828   -2.4445   -0.7945 N   0  0  1  0  0  0  0  0  0  0  0  0
    5.3563   -1.1128   -0.2497 C   0  0  0  0  0  0  0  0  0  0  0  0
    3.8402   -1.1572   -0.0800 C   0  0  0  0  0  0  0  0  0  0  0  0
    3.5503   -2.6464    0.3038 C   0  0  1  0  0  0  0  0  0  0  0  0
    3.0501   -2.6038    1.7548 C   0  0  2  0  0  0  0  0  0  0  0  0
    3.9223   -2.0390    2.8615 C   0  0  0  0  0  0  0  0  0  0  0  0
    3.5880   -3.4998    2.8287 C   0  0  2  0  0  0  0  0  0  0  0  0
    4.6104   -4.5119    2.4178 C   0  0  2  0  0  0  0  0  0  0  0  0
    5.3306   -4.2857    1.1031 C   0  0  2  0  0  0  0  0  0  0  0  0
    4.8595   -3.3972   -0.0151 C   0  0  2  0  0  0  0  0  0  0  0  0
    5.1385   -8.6994    2.5382 H   0  0  0  0  0  0  0  0  0  0  0  0
    3.5012   -8.2253    2.1704 H   0  0  0  0  0  0  0  0  0  0  0  0
    4.4112   -7.3670    3.4185 H   0  0  0  0  0  0  0  0  0  0  0  0
    6.0924   -6.7117    1.6056 H   0  0  0  0  0  0  0  0  0  0  0  0
    5.0098   -7.3385    0.3952 H   0  0  0  0  0  0  0  0  0  0  0  0
    3.0377   -6.4827    0.0335 H   0  0  0  0  0  0  0  0  0  0  0  0
   -0.9649   -7.8485    0.9699 H   0  0  0  0  0  0  0  0  0  0  0  0
   -0.7404   -6.8216    2.3885 H   0  0  0  0  0  0  0  0  0  0  0  0
    0.2255   -8.2875    2.1911 H   0  0  0  0  0  0  0  0  0  0  0  0
    1.9252   -3.6304   -2.5875 H   0  0  0  0  0  0  0  0  0  0  0  0
    2.2320   -2.0007   -2.1846 H   0  0  0  0  0  0  0  0  0  0  0  0
    4.2335   -4.2542   -2.8368 H   0  0  0  0  0  0  0  0  0  0  0  0
    3.8967   -2.8889   -3.8162 H   0  0  0  0  0  0  0  0  0  0  0  0
    6.1879   -2.9789   -2.7580 H   0  0  0  0  0  0  0  0  0  0  0  0
    5.3742   -1.4615   -2.6908 H   0  0  0  0  0  0  0  0  0  0  0  0
    5.8492   -0.9872    0.7168 H   0  0  0  0  0  0  0  0  0  0  0  0
    5.6791   -0.2783   -0.8767 H   0  0  0  0  0  0  0  0  0  0  0  0
    3.5269   -0.4406    0.6823 H   0  0  0  0  0  0  0  0  0  0  0  0
    3.3699   -0.8074   -0.9949 H   0  0  0  0  0  0  0  0  0  0  0  0
    1.9965   -2.3367    1.8344 H   0  0  0  0  0  0  0  0  0  0  0  0
    4.9505   -1.7638    2.6370 H   0  0  0  0  0  0  0  0  0  0  0  0
    3.4285   -1.4427    3.6260 H   0  0  0  0  0  0  0  0  0  0  0  0
    2.8798   -3.8115    3.5934 H   0  0  0  0  0  0  0  0  0  0  0  0
    5.2215   -4.8956    3.2324 H   0  0  0  0  0  0  0  0  0  0  0  0
    6.3938   -4.5107    1.0847 H   0  0  0  0  0  0  0  0  0  0  0  0
    4.8237   -4.2180   -0.7359 H   0  0  0  0  0  0  0  0  0  0  0  0
    6.6633   -2.6444   -0.6656 H   0  0  0  0  0  0  0  0  0  0  0  0
  1  2  1  0
  1 24  1  0
  1 25  1  0
  1 26  1  0
  3  2  1  1
  2 27  1  0
  2 28  1  0
  3 21  1  0
  3 22  1  0
  3  4  1  0
  4  5  1  0
  4  9  1  0
  4 29  1  6
  5  6  2  0
  5  7  1  0
  7  8  1  0
  8 30  1  0
  8 31  1  0
  8 32  1  0
  9 10  2  0
 10 17  1  0
 10 11  1  0
 11 12  1  0
 11 33  1  0
 11 34  1  0
 12 13  1  0
 12 35  1  0
 12 36  1  0
 13 14  1  0
 13 37  1  0
 13 38  1  0
 14 23  1  0
 14 15  1  0
 14 50  1  6
 15 16  1  0
 15 39  1  0
 15 40  1  0
 17 16  1  6
 16 41  1  0
 16 42  1  0
 17 23  1  0
 17 18  1  0
 18 20  1  0
 18 19  1  0
 18 43  1  6
 19 20  1  0
 19 44  1  0
 19 45  1  0
 20 21  1  0
 20 46  1  1
 21 22  1  0
 21 47  1  1
 22 23  1  0
 22 48  1  1
 23 49  1  6
M  CHG  1  14   1
M  END
>  <i_m_ct_stereo_status>  (276) 
1

>  <s_m_source_file>  (276) 
/var/tmp/pbs.5076255.sched01/tmp_srbpc4z/1203xlsw0nt.sdf

>  <i_m_source_file_index>  (276) 
32

>  <i_lp_mmshare_version>  (276) 
48012

>  <i_f3d_flags>  (276) 
0

>  <s_epik_input>  (276) 
W0NIM11PQyg9TylbQ0BASF0oTj1DMVtDQEBdMjM0KVtDQF01KFtDSDJdW0NIM10pW0NASF0oW0NAQEhdNltDQEhdM1tDSDJdNilbQ0BASF01W0NAQEhdNE4oW0NIMl1bQ0gyXTIpW0NIMl1bQ0gyXVtDSDJdMQ==

>  <s_epik_cmdline>  (276) 
J2VwaWtfcHl0aG9uJywgJy1waHQnLCAnMi4wJywgJy1waCcsICc3LjAnLCAnLXRuJywgJzgnLCAnLW1hJywgJzIwMCcsICctaW1hZScsICc8aW5maWxlLm1hZT4nLCAnLW9tYWUnLCAnPG91dGZpbGUubWFlPic=

>  <r_lp_tautomer_probability>  (276) 
0.999992

>  <r_epik_Ionization_Penalty>  (276) 
0.0115069

>  <r_epik_Ionization_Penalty_Charging>  (276) 
0.011496

>  <r_epik_Ionization_Penalty_Neutral>  (276) 
1.09561e-05

>  <r_epik_State_Penalty>  (276) 
0.00885738

>  <r_epik_Charging_Adjusted_Penalty>  (276) 
0.0203533

>  <i_epik_Tot_Q>  (276) 
1

>  <i_epik_Tot_abs_Q>  (276) 
1

>  <s_epik_Chemistry_Notes>  (276) 
This compound has an ester and may undergo hydrolysis at high or low pH. This compound has an imine and may undergo hydrolysis.

>  <s_lp_Force_Field>  (276) 
OPLS3e

>  <r_lp_Energy>  (276) 
100.921

>  <b_lp_Chiralities_Consistent>  (276) 
1

>  <s_lp_Variant>  (276) 
111:0-1

>  <s_i_glide_gridfile>  (276) 
pfpi4k_grid

>  <i_i_glide_lignum>  (276) 
32

>  <i_i_glide_rotatable_bonds>  (276) 
3

>  <r_i_docking_score>  (276) 
-2.95381

>  <r_i_glide_ligand_efficiency>  (276) 
-0.128427

>  <r_i_glide_ligand_efficiency_sa>  (276) 
-0.365228

>  <r_i_glide_ligand_efficiency_ln>  (276) 
-0.714258

>  <r_i_glide_gscore>  (276) 
-2.95381

>  <r_i_glide_lipo>  (276) 
-0.287477

>  <r_i_glide_hbond>  (276) 
-0.0755774

>  <r_i_glide_metal>  (276) 
-0

>  <r_i_glide_rewards>  (276) 
-1.25843

>  <r_i_glide_evdw>  (276) 
-21.0059

>  <r_i_glide_ecoul>  (276) 
-2.54348

>  <r_i_glide_erotb>  (276) 
0.186967

>  <r_i_glide_esite>  (276) 
-0.0874768

>  <r_i_glide_emodel>  (276) 
-27.6744

>  <r_i_glide_energy>  (276) 
-23.5493

>  <r_i_glide_einternal>  (276) 
0.888987

>  <r_i_glide_intrahb_reward>  (276) 
-0

>  <i_i_glide_confnum>  (276) 
5

>  <i_i_glide_posenum>  (276) 
27

>  <r_i_glide_eff_state_penalty>  (276) 
0

>  <ligand_id>  (276) 
111

>  <original_smiles>  (276) 
CCC12C(C(=O)OC)N=C3CCCN4CCC35C3CC3C1C2C45

>  <smiles>  (276) 
[H]C([H])([H])OC(=O)C1([H])N=C2C([H])([H])C([H])([H])C([H])([H])[N+]3([H])C([H])([H])C([H])([H])C24C2([H])C([H])([H])C2([H])C2([H])C([H])(C12C([H])([H])C([H])([H])[H])C43[H]

$$$$
111:0:2
     RDKit          3D

 50 55  0  0  1  0  0  0  0  0999 V2000
    5.4891   -7.4641    1.1453 C   0  0  0  0  0  0  0  0  0  0  0  0
    4.7195   -6.8650    2.3358 C   0  0  0  0  0  0  0  0  0  0  0  0
    4.0544   -5.5105    2.0585 C   0  0  1  0  0  0  0  0  0  0  0  0
    2.7194   -5.7437    1.1883 C   0  0  1  0  0  0  0  0  0  0  0  0
    1.4704   -6.2662    1.9648 C   0  0  0  0  0  0  0  0  0  0  0  0
    1.2358   -6.0833    3.1526 O   0  0  0  0  0  0  0  0  0  0  0  0
    0.6689   -6.9701    1.1348 O   0  0  0  0  0  0  0  0  0  0  0  0
   -0.4267   -7.6998    1.6758 C   0  0  0  0  0  0  0  0  0  0  0  0
    2.3441   -4.8661    0.0564 N   0  0  0  0  0  0  0  0  0  0  0  0
    2.6570   -3.6342   -0.1582 C   0  0  0  0  0  0  0  0  0  0  0  0
    2.8902   -3.1862   -1.6081 C   0  0  0  0  0  0  0  0  0  0  0  0
    4.3981   -3.3218   -2.0331 C   0  0  0  0  0  0  0  0  0  0  0  0
    5.5711   -2.5374   -1.3155 C   0  0  0  0  0  0  0  0  0  0  0  0
    5.6101   -2.4702    0.1926 N   0  0  1  0  0  0  0  0  0  0  0  0
    5.1427   -1.1407    0.6235 C   0  0  0  0  0  0  0  0  0  0  0  0
    3.6255   -1.2534    0.5090 C   0  0  0  0  0  0  0  0  0  0  0  0
    3.3247   -2.7456    0.8677 C   0  0  1  0  0  0  0  0  0  0  0  0
    2.5567   -2.6954    2.2024 C   0  0  2  0  0  0  0  0  0  0  0  0
    3.1842   -2.0639    3.4356 C   0  0  0  0  0  0  0  0  0  0  0  0
    2.9161   -3.5398    3.3843 C   0  0  2  0  0  0  0  0  0  0  0  0
    4.0373   -4.5172    3.1901 C   0  0  2  0  0  0  0  0  0  0  0  0
    4.9842   -4.2692    2.0420 C   0  0  2  0  0  0  0  0  0  0  0  0
    4.7012   -3.4369    0.8321 C   0  0  2  0  0  0  0  0  0  0  0  0
    5.8539   -8.4639    1.3905 H   0  0  0  0  0  0  0  0  0  0  0  0
    6.3588   -6.8567    0.8900 H   0  0  0  0  0  0  0  0  0  0  0  0
    4.8742   -7.5637    0.2515 H   0  0  0  0  0  0  0  0  0  0  0  0
    3.9693   -7.5706    2.6968 H   0  0  0  0  0  0  0  0  0  0  0  0
    5.4334   -6.7515    3.1525 H   0  0  0  0  0  0  0  0  0  0  0  0
    3.0031   -6.6253    0.6162 H   0  0  0  0  0  0  0  0  0  0  0  0
   -0.9766   -8.2175    0.8901 H   0  0  0  0  0  0  0  0  0  0  0  0
   -1.1312   -7.0470    2.1941 H   0  0  0  0  0  0  0  0  0  0  0  0
   -0.0810   -8.4547    2.3860 H   0  0  0  0  0  0  0  0  0  0  0  0
    2.3054   -3.8546   -2.2433 H   0  0  0  0  0  0  0  0  0  0  0  0
    2.4695   -2.2031   -1.8216 H   0  0  0  0  0  0  0  0  0  0  0  0
    4.6392   -4.3883   -2.0275 H   0  0  0  0  0  0  0  0  0  0  0  0
    4.4483   -3.0614   -3.0929 H   0  0  0  0  0  0  0  0  0  0  0  0
    6.4917   -3.0198   -1.6251 H   0  0  0  0  0  0  0  0  0  0  0  0
    5.6305   -1.5472   -1.7581 H   0  0  0  0  0  0  0  0  0  0  0  0
    5.4317   -0.9745    1.6557 H   0  0  0  0  0  0  0  0  0  0  0  0
    5.5447   -0.3078    0.0511 H   0  0  0  0  0  0  0  0  0  0  0  0
    3.1415   -0.5334    1.1789 H   0  0  0  0  0  0  0  0  0  0  0  0
    3.3135   -0.9356   -0.4842 H   0  0  0  0  0  0  0  0  0  0  0  0
    1.5041   -2.4639    2.0860 H   0  0  0  0  0  0  0  0  0  0  0  0
    4.2213   -1.7511    3.4017 H   0  0  0  0  0  0  0  0  0  0  0  0
    2.5292   -1.4749    4.0784 H   0  0  0  0  0  0  0  0  0  0  0  0
    2.0942   -3.8548    4.0174 H   0  0  0  0  0  0  0  0  0  0  0  0
    4.4933   -4.8556    4.1196 H   0  0  0  0  0  0  0  0  0  0  0  0
    6.0394   -4.4704    2.2317 H   0  0  0  0  0  0  0  0  0  0  0  0
    4.8383   -4.2720    0.1401 H   0  0  0  0  0  0  0  0  0  0  0  0
    6.5562   -2.6047    0.5049 H   0  0  0  0  0  0  0  0  0  0  0  0
  1  2  1  0
  1 24  1  0
  1 25  1  0
  1 26  1  0
  3  2  1  1
  2 27  1  0
  2 28  1  0
  3 21  1  0
  3 22  1  0
  3  4  1  0
  4  5  1  0
  4  9  1  0
  4 29  1  6
  5  6  2  0
  5  7  1  0
  7  8  1  0
  8 30  1  0
  8 31  1  0
  8 32  1  0
  9 10  2  0
 10 17  1  0
 10 11  1  0
 11 12  1  0
 11 33  1  0
 11 34  1  0
 12 13  1  0
 12 35  1  0
 12 36  1  0
 13 14  1  0
 13 37  1  0
 13 38  1  0
 14 23  1  0
 14 15  1  0
 14 50  1  1
 15 16  1  0
 15 39  1  0
 15 40  1  0
 17 16  1  6
 16 41  1  0
 16 42  1  0
 17 23  1  0
 17 18  1  0
 18 20  1  0
 18 19  1  0
 18 43  1  6
 19 20  1  0
 19 44  1  0
 19 45  1  0
 20 21  1  0
 20 46  1  1
 21 22  1  0
 21 47  1  1
 22 23  1  0
 22 48  1  1
 23 49  1  6
M  CHG  1  14   1
M  END
>  <i_m_ct_stereo_status>  (277) 
1

>  <s_m_source_file>  (277) 
/var/tmp/pbs.5076255.sched01/tmp_srbpc4z/1203xlsw0nt.sdf

>  <i_m_source_file_index>  (277) 
32

>  <i_lp_mmshare_version>  (277) 
48012

>  <i_f3d_flags>  (277) 
0

>  <s_epik_input>  (277) 
W0NIM11PQyg9TylbQ0BASF0oTj1DMVtDQEBdMjM0KVtDQF01KFtDSDJdW0NIM10pW0NASF0oW0NAQEhdNltDQEhdM1tDSDJdNilbQ0BASF01W0NAQEhdNE4oW0NIMl1bQ0gyXTIpW0NIMl1bQ0gyXVtDSDJdMQ==

>  <s_epik_cmdline>  (277) 
J2VwaWtfcHl0aG9uJywgJy1waHQnLCAnMi4wJywgJy1waCcsICc3LjAnLCAnLXRuJywgJzgnLCAnLW1hJywgJzIwMCcsICctaW1hZScsICc8aW5maWxlLm1hZT4nLCAnLW9tYWUnLCAnPG91dGZpbGUubWFlPic=

>  <r_lp_tautomer_probability>  (277) 
0.999992

>  <r_epik_Ionization_Penalty>  (277) 
0.0115069

>  <r_epik_Ionization_Penalty_Charging>  (277) 
0.011496

>  <r_epik_Ionization_Penalty_Neutral>  (277) 
1.09561e-05

>  <r_epik_State_Penalty>  (277) 
0.00885738

>  <r_epik_Charging_Adjusted_Penalty>  (277) 
0.0203533

>  <i_epik_Tot_Q>  (277) 
1

>  <i_epik_Tot_abs_Q>  (277) 
1

>  <s_epik_Chemistry_Notes>  (277) 
This compound has an ester and may undergo hydrolysis at high or low pH. This compound has an imine and may undergo hydrolysis.

>  <s_lp_Force_Field>  (277) 
OPLS3e

>  <r_lp_Energy>  (277) 
100.921

>  <b_lp_Chiralities_Consistent>  (277) 
1

>  <s_lp_Variant>  (277) 
111:0-1

>  <s_i_glide_gridfile>  (277) 
pfpi4k_grid

>  <i_i_glide_lignum>  (277) 
32

>  <i_i_glide_rotatable_bonds>  (277) 
3

>  <r_i_docking_score>  (277) 
-2.91838

>  <r_i_glide_ligand_efficiency>  (277) 
-0.126886

>  <r_i_glide_ligand_efficiency_sa>  (277) 
-0.360847

>  <r_i_glide_ligand_efficiency_ln>  (277) 
-0.705691

>  <r_i_glide_gscore>  (277) 
-2.91838

>  <r_i_glide_lipo>  (277) 
-0.314029

>  <r_i_glide_hbond>  (277) 
0

>  <r_i_glide_metal>  (277) 
-0

>  <r_i_glide_rewards>  (277) 
-1.25843

>  <r_i_glide_evdw>  (277) 
-19.9241

>  <r_i_glide_ecoul>  (277) 
-3.05043

>  <r_i_glide_erotb>  (277) 
0.186967

>  <r_i_glide_esite>  (277) 
-0.0791174

>  <r_i_glide_emodel>  (277) 
-27.2631

>  <r_i_glide_energy>  (277) 
-22.9745

>  <r_i_glide_einternal>  (277) 
0.514582

>  <r_i_glide_intrahb_reward>  (277) 
-0

>  <i_i_glide_confnum>  (277) 
5

>  <i_i_glide_posenum>  (277) 
3

>  <r_i_glide_eff_state_penalty>  (277) 
0

>  <ligand_id>  (277) 
111

>  <original_smiles>  (277) 
CCC12C(C(=O)OC)N=C3CCCN4CCC35C3CC3C1C2C45

>  <smiles>  (277) 
[H]C([H])([H])OC(=O)C1([H])N=C2C([H])([H])C([H])([H])C([H])([H])[N+]3([H])C([H])([H])C([H])([H])C24C2([H])C([H])([H])C2([H])C2([H])C([H])(C12C([H])([H])C([H])([H])[H])C43[H]

$$$$
111:1:0
     RDKit          3D

 49 54  0  0  1  0  0  0  0  0999 V2000
    5.3640   -7.4584    2.2679 C   0  0  0  0  0  0  0  0  0  0  0  0
    5.5057   -6.5475    1.0288 C   0  0  0  0  0  0  0  0  0  0  0  0
    4.7162   -5.2220    1.0174 C   0  0  1  0  0  0  0  0  0  0  0  0
    3.1512   -5.4420    0.6920 C   0  0  1  0  0  0  0  0  0  0  0  0
    2.2201   -5.7947    1.8592 C   0  0  0  0  0  0  0  0  0  0  0  0
    1.0023   -5.8553    1.7382 O   0  0  0  0  0  0  0  0  0  0  0  0
    2.8851   -6.0683    2.9644 O   0  0  0  0  0  0  0  0  0  0  0  0
    2.2342   -6.6537    4.0739 C   0  0  0  0  0  0  0  0  0  0  0  0
    2.3980   -4.6461   -0.3104 N   0  0  0  0  0  0  0  0  0  0  0  0
    2.6344   -3.4626   -0.7281 C   0  0  0  0  0  0  0  0  0  0  0  0
    2.3577   -3.1013   -2.1857 C   0  0  0  0  0  0  0  0  0  0  0  0
    3.6157   -3.2030   -3.1211 C   0  0  0  0  0  0  0  0  0  0  0  0
    5.0197   -2.5258   -2.8446 C   0  0  0  0  0  0  0  0  0  0  0  0
    5.5466   -2.2875   -1.4748 N   0  0  0  0  0  0  0  0  0  0  0  0
    5.1447   -0.9452   -1.0589 C   0  0  0  0  0  0  0  0  0  0  0  0
    3.6947   -1.0718   -0.6251 C   0  0  0  0  0  0  0  0  0  0  0  0
    3.6040   -2.5145   -0.0616 C   0  0  1  0  0  0  0  0  0  0  0  0
    3.3382   -2.3680    1.4437 C   0  0  2  0  0  0  0  0  0  0  0  0
    4.3499   -1.6695    2.3399 C   0  0  0  0  0  0  0  0  0  0  0  0
    4.1002   -3.1465    2.4894 C   0  0  2  0  0  0  0  0  0  0  0  0
    5.1115   -4.1395    1.9860 C   0  0  2  0  0  0  0  0  0  0  0  0
    5.5669   -4.0132    0.5538 C   0  0  2  0  0  0  0  0  0  0  0  0
    4.9031   -3.1916   -0.5198 C   0  0  2  0  0  0  0  0  0  0  0  0
    6.1737   -8.1989    2.3026 H   0  0  0  0  0  0  0  0  0  0  0  0
    4.4037   -7.9836    2.2774 H   0  0  0  0  0  0  0  0  0  0  0  0
    5.4407   -6.8811    3.1873 H   0  0  0  0  0  0  0  0  0  0  0  0
    6.5667   -6.3052    0.9284 H   0  0  0  0  0  0  0  0  0  0  0  0
    5.2427   -7.1071    0.1349 H   0  0  0  0  0  0  0  0  0  0  0  0
    3.2234   -6.3956    0.1789 H   0  0  0  0  0  0  0  0  0  0  0  0
    3.0132   -7.0042    4.7473 H   0  0  0  0  0  0  0  0  0  0  0  0
    1.6528   -7.5250    3.7803 H   0  0  0  0  0  0  0  0  0  0  0  0
    1.5940   -5.9500    4.6039 H   0  0  0  0  0  0  0  0  0  0  0  0
    1.6385   -3.8250   -2.5508 H   0  0  0  0  0  0  0  0  0  0  0  0
    1.8176   -2.1697   -2.2969 H   0  0  0  0  0  0  0  0  0  0  0  0
    3.8275   -4.2508   -3.2366 H   0  0  0  0  0  0  0  0  0  0  0  0
    3.3062   -2.8863   -4.1160 H   0  0  0  0  0  0  0  0  0  0  0  0
    5.7809   -3.1678   -3.3120 H   0  0  0  0  0  0  0  0  0  0  0  0
    5.0322   -1.5869   -3.3963 H   0  0  0  0  0  0  0  0  0  0  0  0
    5.7370   -0.6401   -0.1999 H   0  0  0  0  0  0  0  0  0  0  0  0
    5.2878   -0.1885   -1.8405 H   0  0  0  0  0  0  0  0  0  0  0  0
    3.4676   -0.3150    0.1308 H   0  0  0  0  0  0  0  0  0  0  0  0
    3.0491   -0.8292   -1.4597 H   0  0  0  0  0  0  0  0  0  0  0  0
    2.3013   -2.1424    1.6787 H   0  0  0  0  0  0  0  0  0  0  0  0
    5.2977   -1.3592    1.9082 H   0  0  0  0  0  0  0  0  0  0  0  0
    3.9387   -1.0309    3.1160 H   0  0  0  0  0  0  0  0  0  0  0  0
    3.5192   -3.4320    3.3626 H   0  0  0  0  0  0  0  0  0  0  0  0
    5.8844   -4.4124    2.7089 H   0  0  0  0  0  0  0  0  0  0  0  0
    6.6309   -4.1519    0.3754 H   0  0  0  0  0  0  0  0  0  0  0  0
    4.7670   -4.0576   -1.1734 H   0  0  0  0  0  0  0  0  0  0  0  0
  1  2  1  0
  1 24  1  0
  1 25  1  0
  1 26  1  0
  3  2  1  1
  2 27  1  0
  2 28  1  0
  3 21  1  0
  3 22  1  0
  3  4  1  0
  4  5  1  0
  4  9  1  0
  4 29  1  6
  5  6  2  0
  5  7  1  0
  7  8  1  0
  8 30  1  0
  8 31  1  0
  8 32  1  0
  9 10  2  0
 10 17  1  0
 10 11  1  0
 11 12  1  0
 11 33  1  0
 11 34  1  0
 12 13  1  0
 12 35  1  0
 12 36  1  0
 13 14  1  0
 13 37  1  0
 13 38  1  0
 14 23  1  0
 14 15  1  0
 15 16  1  0
 15 39  1  0
 15 40  1  0
 17 16  1  6
 16 41  1  0
 16 42  1  0
 17 23  1  0
 17 18  1  0
 18 20  1  0
 18 19  1  0
 18 43  1  6
 19 20  1  0
 19 44  1  0
 19 45  1  0
 20 21  1  0
 20 46  1  1
 21 22  1  0
 21 47  1  1
 22 23  1  0
 22 48  1  1
 23 49  1  6
M  END
>  <i_m_ct_stereo_status>  (278) 
1

>  <s_m_source_file>  (278) 
/var/tmp/pbs.5076255.sched01/tmp_srbpc4z/1203xlsw0nt.sdf

>  <i_m_source_file_index>  (278) 
33

>  <i_lp_mmshare_version>  (278) 
48012

>  <i_f3d_flags>  (278) 
0

>  <s_epik_input>  (278) 
W0NIM11PQyg9TylbQ0BASF0oTj1DMVtDQEBdMjM0KVtDQF01KFtDSDJdW0NIM10pW0NASF0oW0NAQEhdNltDQEhdM1tDSDJdNilbQ0BASF01W0NAQEhdNE4oW0NIMl1bQ0gyXTIpW0NIMl1bQ0gyXVtDSDJdMQ==

>  <s_epik_cmdline>  (278) 
J2VwaWtfcHl0aG9uJywgJy1waHQnLCAnMi4wJywgJy1waCcsICc3LjAnLCAnLXRuJywgJzgnLCAnLW1hJywgJzIwMCcsICctaW1hZScsICc8aW5maWxlLm1hZT4nLCAnLW9tYWUnLCAnPG91dGZpbGUubWFlPic=

>  <r_lp_tautomer_probability>  (278) 
0.999992

>  <r_epik_Ionization_Penalty>  (278) 
2.48423

>  <r_epik_Ionization_Penalty_Charging>  (278) 
0

>  <r_epik_Ionization_Penalty_Neutral>  (278) 
2.48423

>  <r_epik_State_Penalty>  (278) 
2.49517

>  <r_epik_Charging_Adjusted_Penalty>  (278) 
2.49517

>  <i_epik_Tot_Q>  (278) 
0

>  <i_epik_Tot_abs_Q>  (278) 
0

>  <s_epik_Chemistry_Notes>  (278) 
This compound has an ester and may undergo hydrolysis at high or low pH. This compound has an imine and may undergo hydrolysis.

>  <s_lp_Force_Field>  (278) 
OPLS3e

>  <r_lp_Energy>  (278) 
91.2185

>  <b_lp_Chiralities_Consistent>  (278) 
1

>  <s_lp_Variant>  (278) 
111:0-2

>  <s_i_glide_gridfile>  (278) 
pfpi4k_grid

>  <i_i_glide_lignum>  (278) 
33

>  <i_i_glide_rotatable_bonds>  (278) 
3

>  <r_i_docking_score>  (278) 
-3.30767

>  <r_i_glide_ligand_efficiency>  (278) 
-0.143812

>  <r_i_glide_ligand_efficiency_sa>  (278) 
-0.408982

>  <r_i_glide_ligand_efficiency_ln>  (278) 
-0.799825

>  <r_i_glide_gscore>  (278) 
-3.30767

>  <r_i_glide_lipo>  (278) 
-0.570452

>  <r_i_glide_hbond>  (278) 
-0.130326

>  <r_i_glide_metal>  (278) 
-0

>  <r_i_glide_rewards>  (278) 
-1.2653

>  <r_i_glide_evdw>  (278) 
-18.8354

>  <r_i_glide_ecoul>  (278) 
-3.64763

>  <r_i_glide_erotb>  (278) 
0.188023

>  <r_i_glide_esite>  (278) 
-0.0406997

>  <r_i_glide_emodel>  (278) 
-25.5744

>  <r_i_glide_energy>  (278) 
-22.483

>  <r_i_glide_einternal>  (278) 
1.73943

>  <r_i_glide_intrahb_reward>  (278) 
-0

>  <i_i_glide_confnum>  (278) 
3

>  <i_i_glide_posenum>  (278) 
31

>  <r_i_glide_eff_state_penalty>  (278) 
0

>  <ligand_id>  (278) 
111

>  <original_smiles>  (278) 
CCC12C(C(=O)OC)N=C3CCCN4CCC35C3CC3C1C2C45

>  <smiles>  (278) 
[H]C([H])([H])OC(=O)C1([H])N=C2C([H])([H])C([H])([H])C([H])([H])N3C([H])([H])C([H])([H])C24C3([H])C2([H])C([H])(C3([H])C([H])([H])C34[H])C12C([H])([H])C([H])([H])[H]

$$$$
111:1:1
     RDKit          3D

 49 54  0  0  1  0  0  0  0  0999 V2000
    4.9433   -7.5231    2.4046 C   0  0  0  0  0  0  0  0  0  0  0  0
    5.3155   -6.6318    1.2090 C   0  0  0  0  0  0  0  0  0  0  0  0
    4.5814   -5.2875    1.1294 C   0  0  1  0  0  0  0  0  0  0  0  0
    3.0484   -5.5043    0.6827 C   0  0  1  0  0  0  0  0  0  0  0  0
    2.0707   -5.9375    1.7986 C   0  0  0  0  0  0  0  0  0  0  0  0
    2.2553   -5.7756    3.0018 O   0  0  0  0  0  0  0  0  0  0  0  0
    1.0043   -6.5701    1.2646 O   0  0  0  0  0  0  0  0  0  0  0  0
    0.1074   -7.2572    2.1239 C   0  0  0  0  0  0  0  0  0  0  0  0
    2.3627   -4.6466   -0.3201 N   0  0  0  0  0  0  0  0  0  0  0  0
    2.6554   -3.4575   -0.6988 C   0  0  0  0  0  0  0  0  0  0  0  0
    2.4754   -3.0727   -2.1726 C   0  0  0  0  0  0  0  0  0  0  0  0
    3.7942   -3.1924   -3.0179 C   0  0  0  0  0  0  0  0  0  0  0  0
    5.1913   -2.5545   -2.6349 C   0  0  0  0  0  0  0  0  0  0  0  0
    5.6364   -2.3455   -1.2303 N   0  0  0  0  0  0  0  0  0  0  0  0
    5.2484   -1.0000   -0.8212 C   0  0  0  0  0  0  0  0  0  0  0  0
    3.7687   -1.0902   -0.4828 C   0  0  0  0  0  0  0  0  0  0  0  0
    3.5950   -2.5398    0.0418 C   0  0  1  0  0  0  0  0  0  0  0  0
    3.2485   -2.4065    1.5312 C   0  0  2  0  0  0  0  0  0  0  0  0
    4.2198   -1.7424    2.4935 C   0  0  0  0  0  0  0  0  0  0  0  0
    3.9271   -3.2119    2.6026 C   0  0  2  0  0  0  0  0  0  0  0  0
    4.9289   -4.2324    2.1521 C   0  0  2  0  0  0  0  0  0  0  0  0
    5.4922   -4.0849    0.7573 C   0  0  2  0  0  0  0  0  0  0  0  0
    4.9104   -3.2450   -0.3353 C   0  0  2  0  0  0  0  0  0  0  0  0
    5.6288   -8.3687    2.4734 H   0  0  0  0  0  0  0  0  0  0  0  0
    3.9415   -7.9429    2.3123 H   0  0  0  0  0  0  0  0  0  0  0  0
    5.0035   -6.9797    3.3483 H   0  0  0  0  0  0  0  0  0  0  0  0
    6.3892   -6.4371    1.2730 H   0  0  0  0  0  0  0  0  0  0  0  0
    5.1665   -7.1765    0.2786 H   0  0  0  0  0  0  0  0  0  0  0  0
    3.1640   -6.4142    0.0942 H   0  0  0  0  0  0  0  0  0  0  0  0
   -0.7347   -7.6602    1.5570 H   0  0  0  0  0  0  0  0  0  0  0  0
   -0.2889   -6.6025    2.9038 H   0  0  0  0  0  0  0  0  0  0  0  0
    0.6136   -8.0955    2.6081 H   0  0  0  0  0  0  0  0  0  0  0  0
    1.7637   -3.7697   -2.6044 H   0  0  0  0  0  0  0  0  0  0  0  0
    1.9805   -2.1144   -2.3139 H   0  0  0  0  0  0  0  0  0  0  0  0
    3.9888   -4.2514   -3.1316 H   0  0  0  0  0  0  0  0  0  0  0  0
    3.5576   -2.8662   -4.0307 H   0  0  0  0  0  0  0  0  0  0  0  0
    5.9484   -3.2345   -3.0443 H   0  0  0  0  0  0  0  0  0  0  0  0
    5.3172   -1.6291   -3.1924 H   0  0  0  0  0  0  0  0  0  0  0  0
    5.8107   -0.7122    0.0682 H   0  0  0  0  0  0  0  0  0  0  0  0
    5.4497   -0.2593   -1.5937 H   0  0  0  0  0  0  0  0  0  0  0  0
    3.5100   -0.3326    0.2620 H   0  0  0  0  0  0  0  0  0  0  0  0
    3.1908   -0.8133   -1.3570 H   0  0  0  0  0  0  0  0  0  0  0  0
    2.2008   -2.1583    1.7086 H   0  0  0  0  0  0  0  0  0  0  0  0
    5.2058   -1.4543    2.1258 H   0  0  0  0  0  0  0  0  0  0  0  0
    3.7970   -1.0998    3.2595 H   0  0  0  0  0  0  0  0  0  0  0  0
    3.3111   -3.4808    3.4623 H   0  0  0  0  0  0  0  0  0  0  0  0
    5.6435   -4.5358    2.9169 H   0  0  0  0  0  0  0  0  0  0  0  0
    6.5550   -4.2760    0.6423 H   0  0  0  0  0  0  0  0  0  0  0  0
    4.7956   -4.0917   -1.0137 H   0  0  0  0  0  0  0  0  0  0  0  0
  1  2  1  0
  1 24  1  0
  1 25  1  0
  1 26  1  0
  3  2  1  1
  2 27  1  0
  2 28  1  0
  3 21  1  0
  3 22  1  0
  3  4  1  0
  4  5  1  0
  4  9  1  0
  4 29  1  6
  5  6  2  0
  5  7  1  0
  7  8  1  0
  8 30  1  0
  8 31  1  0
  8 32  1  0
  9 10  2  0
 10 17  1  0
 10 11  1  0
 11 12  1  0
 11 33  1  0
 11 34  1  0
 12 13  1  0
 12 35  1  0
 12 36  1  0
 13 14  1  0
 13 37  1  0
 13 38  1  0
 14 23  1  0
 14 15  1  0
 15 16  1  0
 15 39  1  0
 15 40  1  0
 17 16  1  6
 16 41  1  0
 16 42  1  0
 17 23  1  0
 17 18  1  0
 18 20  1  0
 18 19  1  0
 18 43  1  6
 19 20  1  0
 19 44  1  0
 19 45  1  0
 20 21  1  0
 20 46  1  1
 21 22  1  0
 21 47  1  1
 22 23  1  0
 22 48  1  1
 23 49  1  6
M  END
>  <i_m_ct_stereo_status>  (279) 
1

>  <s_m_source_file>  (279) 
/var/tmp/pbs.5076255.sched01/tmp_srbpc4z/1203xlsw0nt.sdf

>  <i_m_source_file_index>  (279) 
33

>  <i_lp_mmshare_version>  (279) 
48012

>  <i_f3d_flags>  (279) 
0

>  <s_epik_input>  (279) 
W0NIM11PQyg9TylbQ0BASF0oTj1DMVtDQEBdMjM0KVtDQF01KFtDSDJdW0NIM10pW0NASF0oW0NAQEhdNltDQEhdM1tDSDJdNilbQ0BASF01W0NAQEhdNE4oW0NIMl1bQ0gyXTIpW0NIMl1bQ0gyXVtDSDJdMQ==

>  <s_epik_cmdline>  (279) 
J2VwaWtfcHl0aG9uJywgJy1waHQnLCAnMi4wJywgJy1waCcsICc3LjAnLCAnLXRuJywgJzgnLCAnLW1hJywgJzIwMCcsICctaW1hZScsICc8aW5maWxlLm1hZT4nLCAnLW9tYWUnLCAnPG91dGZpbGUubWFlPic=

>  <r_lp_tautomer_probability>  (279) 
0.999992

>  <r_epik_Ionization_Penalty>  (279) 
2.48423

>  <r_epik_Ionization_Penalty_Charging>  (279) 
0

>  <r_epik_Ionization_Penalty_Neutral>  (279) 
2.48423

>  <r_epik_State_Penalty>  (279) 
2.49517

>  <r_epik_Charging_Adjusted_Penalty>  (279) 
2.49517

>  <i_epik_Tot_Q>  (279) 
0

>  <i_epik_Tot_abs_Q>  (279) 
0

>  <s_epik_Chemistry_Notes>  (279) 
This compound has an ester and may undergo hydrolysis at high or low pH. This compound has an imine and may undergo hydrolysis.

>  <s_lp_Force_Field>  (279) 
OPLS3e

>  <r_lp_Energy>  (279) 
91.2185

>  <b_lp_Chiralities_Consistent>  (279) 
1

>  <s_lp_Variant>  (279) 
111:0-2

>  <s_i_glide_gridfile>  (279) 
pfpi4k_grid

>  <i_i_glide_lignum>  (279) 
33

>  <i_i_glide_rotatable_bonds>  (279) 
3

>  <r_i_docking_score>  (279) 
-3.0234

>  <r_i_glide_ligand_efficiency>  (279) 
-0.131452

>  <r_i_glide_ligand_efficiency_sa>  (279) 
-0.373832

>  <r_i_glide_ligand_efficiency_ln>  (279) 
-0.731084

>  <r_i_glide_gscore>  (279) 
-3.0234

>  <r_i_glide_lipo>  (279) 
-0.500511

>  <r_i_glide_hbond>  (279) 
-0.065558

>  <r_i_glide_metal>  (279) 
-0

>  <r_i_glide_rewards>  (279) 
-1.2653

>  <r_i_glide_evdw>  (279) 
-21.1862

>  <r_i_glide_ecoul>  (279) 
-1.83224

>  <r_i_glide_erotb>  (279) 
0.188023

>  <r_i_glide_esite>  (279) 
-0.0458984

>  <r_i_glide_emodel>  (279) 
-26.8206

>  <r_i_glide_energy>  (279) 
-23.0184

>  <r_i_glide_einternal>  (279) 
0.962914

>  <r_i_glide_intrahb_reward>  (279) 
-0

>  <i_i_glide_confnum>  (279) 
3

>  <i_i_glide_posenum>  (279) 
10

>  <r_i_glide_eff_state_penalty>  (279) 
0

>  <ligand_id>  (279) 
111

>  <original_smiles>  (279) 
CCC12C(C(=O)OC)N=C3CCCN4CCC35C3CC3C1C2C45

>  <smiles>  (279) 
[H]C([H])([H])OC(=O)C1([H])N=C2C([H])([H])C([H])([H])C([H])([H])N3C([H])([H])C([H])([H])C24C3([H])C2([H])C([H])(C3([H])C([H])([H])C34[H])C12C([H])([H])C([H])([H])[H]

$$$$
111:1:2
     RDKit          3D

 49 54  0  0  1  0  0  0  0  0999 V2000
    5.6471   -7.2162    0.9257 C   0  0  0  0  0  0  0  0  0  0  0  0
    4.9119   -6.5890    2.1237 C   0  0  0  0  0  0  0  0  0  0  0  0
    4.2135   -5.2629    1.8126 C   0  0  1  0  0  0  0  0  0  0  0  0
    2.8424   -5.5577    1.0492 C   0  0  1  0  0  0  0  0  0  0  0  0
    1.6585   -6.0508    1.9172 C   0  0  0  0  0  0  0  0  0  0  0  0
    1.5499   -5.8768    3.1390 O   0  0  0  0  0  0  0  0  0  0  0  0
    0.7509   -6.7047    1.1609 O   0  0  0  0  0  0  0  0  0  0  0  0
   -0.2930   -7.4344    1.7963 C   0  0  0  0  0  0  0  0  0  0  0  0
    2.3846   -4.7244   -0.1036 N   0  0  0  0  0  0  0  0  0  0  0  0
    2.6831   -3.5132   -0.3937 C   0  0  0  0  0  0  0  0  0  0  0  0
    2.8058   -3.1104   -1.8658 C   0  0  0  0  0  0  0  0  0  0  0  0
    4.2904   -3.1948   -2.3775 C   0  0  0  0  0  0  0  0  0  0  0  0
    5.5438   -2.4973   -1.6887 C   0  0  0  0  0  0  0  0  0  0  0  0
    5.6376   -2.2853   -0.2209 N   0  0  0  0  0  0  0  0  0  0  0  0
    5.1193   -0.9547    0.0845 C   0  0  0  0  0  0  0  0  0  0  0  0
    3.6044   -1.1072    0.0756 C   0  0  0  0  0  0  0  0  0  0  0  0
    3.3771   -2.5658    0.5486 C   0  0  1  0  0  0  0  0  0  0  0  0
    2.6914   -2.4651    1.9208 C   0  0  2  0  0  0  0  0  0  0  0  0
    3.3842   -1.7692    3.0749 C   0  0  0  0  0  0  0  0  0  0  0  0
    3.1332   -3.2433    3.1120 C   0  0  2  0  0  0  0  0  0  0  0  0
    4.2538   -4.2163    2.9081 C   0  0  2  0  0  0  0  0  0  0  0  0
    5.1254   -4.0199    1.6956 C   0  0  2  0  0  0  0  0  0  0  0  0
    4.7647   -3.2157    0.4872 C   0  0  2  0  0  0  0  0  0  0  0  0
    6.0595   -8.1899    1.1996 H   0  0  0  0  0  0  0  0  0  0  0  0
    6.4851   -6.5888    0.6062 H   0  0  0  0  0  0  0  0  0  0  0  0
    4.9928   -7.3713    0.0661 H   0  0  0  0  0  0  0  0  0  0  0  0
    4.1819   -7.2944    2.5306 H   0  0  0  0  0  0  0  0  0  0  0  0
    5.6552   -6.4354    2.9057 H   0  0  0  0  0  0  0  0  0  0  0  0
    3.1026   -6.4680    0.5089 H   0  0  0  0  0  0  0  0  0  0  0  0
   -0.9514   -7.8763    1.0520 H   0  0  0  0  0  0  0  0  0  0  0  0
   -0.8941   -6.7930    2.4410 H   0  0  0  0  0  0  0  0  0  0  0  0
    0.1130   -8.2441    2.4054 H   0  0  0  0  0  0  0  0  0  0  0  0
    2.2257   -3.8354   -2.4403 H   0  0  0  0  0  0  0  0  0  0  0  0
    2.3011   -2.1758   -2.0880 H   0  0  0  0  0  0  0  0  0  0  0  0
    4.5278   -4.2557   -2.4311 H   0  0  0  0  0  0  0  0  0  0  0  0
    4.2831   -2.8741   -3.4194 H   0  0  0  0  0  0  0  0  0  0  0  0
    6.3988   -3.1325   -1.9233 H   0  0  0  0  0  0  0  0  0  0  0  0
    5.7509   -1.5607   -2.2105 H   0  0  0  0  0  0  0  0  0  0  0  0
    5.4449   -0.6640    1.0853 H   0  0  0  0  0  0  0  0  0  0  0  0
    5.4746   -0.1881   -0.6025 H   0  0  0  0  0  0  0  0  0  0  0  0
    3.1469   -0.3659    0.7358 H   0  0  0  0  0  0  0  0  0  0  0  0
    3.2290   -0.8424   -0.9033 H   0  0  0  0  0  0  0  0  0  0  0  0
    1.6258   -2.2522    1.8523 H   0  0  0  0  0  0  0  0  0  0  0  0
    4.4110   -1.4355    2.9491 H   0  0  0  0  0  0  0  0  0  0  0  0
    2.7646   -1.1413    3.7265 H   0  0  0  0  0  0  0  0  0  0  0  0
    2.3514   -3.5390    3.8133 H   0  0  0  0  0  0  0  0  0  0  0  0
    4.7802   -4.5005    3.8133 H   0  0  0  0  0  0  0  0  0  0  0  0
    6.1903   -4.1943    1.8224 H   0  0  0  0  0  0  0  0  0  0  0  0
    4.8531   -4.0572   -0.2004 H   0  0  0  0  0  0  0  0  0  0  0  0
  1  2  1  0
  1 24  1  0
  1 25  1  0
  1 26  1  0
  3  2  1  1
  2 27  1  0
  2 28  1  0
  3 21  1  0
  3 22  1  0
  3  4  1  0
  4  5  1  0
  4  9  1  0
  4 29  1  6
  5  6  2  0
  5  7  1  0
  7  8  1  0
  8 30  1  0
  8 31  1  0
  8 32  1  0
  9 10  2  0
 10 17  1  0
 10 11  1  0
 11 12  1  0
 11 33  1  0
 11 34  1  0
 12 13  1  0
 12 35  1  0
 12 36  1  0
 13 14  1  0
 13 37  1  0
 13 38  1  0
 14 23  1  0
 14 15  1  0
 15 16  1  0
 15 39  1  0
 15 40  1  0
 17 16  1  6
 16 41  1  0
 16 42  1  0
 17 23  1  0
 17 18  1  0
 18 20  1  0
 18 19  1  0
 18 43  1  6
 19 20  1  0
 19 44  1  0
 19 45  1  0
 20 21  1  0
 20 46  1  1
 21 22  1  0
 21 47  1  1
 22 23  1  0
 22 48  1  1
 23 49  1  6
M  END
>  <i_m_ct_stereo_status>  (280) 
1

>  <s_m_source_file>  (280) 
/var/tmp/pbs.5076255.sched01/tmp_srbpc4z/1203xlsw0nt.sdf

>  <i_m_source_file_index>  (280) 
33

>  <i_lp_mmshare_version>  (280) 
48012

>  <i_f3d_flags>  (280) 
0

>  <s_epik_input>  (280) 
W0NIM11PQyg9TylbQ0BASF0oTj1DMVtDQEBdMjM0KVtDQF01KFtDSDJdW0NIM10pW0NASF0oW0NAQEhdNltDQEhdM1tDSDJdNilbQ0BASF01W0NAQEhdNE4oW0NIMl1bQ0gyXTIpW0NIMl1bQ0gyXVtDSDJdMQ==

>  <s_epik_cmdline>  (280) 
J2VwaWtfcHl0aG9uJywgJy1waHQnLCAnMi4wJywgJy1waCcsICc3LjAnLCAnLXRuJywgJzgnLCAnLW1hJywgJzIwMCcsICctaW1hZScsICc8aW5maWxlLm1hZT4nLCAnLW9tYWUnLCAnPG91dGZpbGUubWFlPic=

>  <r_lp_tautomer_probability>  (280) 
0.999992

>  <r_epik_Ionization_Penalty>  (280) 
2.48423

>  <r_epik_Ionization_Penalty_Charging>  (280) 
0

>  <r_epik_Ionization_Penalty_Neutral>  (280) 
2.48423

>  <r_epik_State_Penalty>  (280) 
2.49517

>  <r_epik_Charging_Adjusted_Penalty>  (280) 
2.49517

>  <i_epik_Tot_Q>  (280) 
0

>  <i_epik_Tot_abs_Q>  (280) 
0

>  <s_epik_Chemistry_Notes>  (280) 
This compound has an ester and may undergo hydrolysis at high or low pH. This compound has an imine and may undergo hydrolysis.

>  <s_lp_Force_Field>  (280) 
OPLS3e

>  <r_lp_Energy>  (280) 
91.2185

>  <b_lp_Chiralities_Consistent>  (280) 
1

>  <s_lp_Variant>  (280) 
111:0-2

>  <s_i_glide_gridfile>  (280) 
pfpi4k_grid

>  <i_i_glide_lignum>  (280) 
33

>  <i_i_glide_rotatable_bonds>  (280) 
3

>  <r_i_docking_score>  (280) 
-2.71828

>  <r_i_glide_ligand_efficiency>  (280) 
-0.118186

>  <r_i_glide_ligand_efficiency_sa>  (280) 
-0.336105

>  <r_i_glide_ligand_efficiency_ln>  (280) 
-0.657304

>  <r_i_glide_gscore>  (280) 
-2.71828

>  <r_i_glide_lipo>  (280) 
-0.226109

>  <r_i_glide_hbond>  (280) 
-0.0703237

>  <r_i_glide_metal>  (280) 
-0

>  <r_i_glide_rewards>  (280) 
-1.2653

>  <r_i_glide_evdw>  (280) 
-20.4624

>  <r_i_glide_ecoul>  (280) 
-1.67051

>  <r_i_glide_erotb>  (280) 
0.188023

>  <r_i_glide_esite>  (280) 
-0.0708657

>  <r_i_glide_emodel>  (280) 
-25.5852

>  <r_i_glide_energy>  (280) 
-22.1329

>  <r_i_glide_einternal>  (280) 
0.636768

>  <r_i_glide_intrahb_reward>  (280) 
-0

>  <i_i_glide_confnum>  (280) 
6

>  <i_i_glide_posenum>  (280) 
27

>  <r_i_glide_eff_state_penalty>  (280) 
0

>  <ligand_id>  (280) 
111

>  <original_smiles>  (280) 
CCC12C(C(=O)OC)N=C3CCCN4CCC35C3CC3C1C2C45

>  <smiles>  (280) 
[H]C([H])([H])OC(=O)C1([H])N=C2C([H])([H])C([H])([H])C([H])([H])N3C([H])([H])C([H])([H])C24C3([H])C2([H])C([H])(C3([H])C([H])([H])C34[H])C12C([H])([H])C([H])([H])[H]

$$$$
112:0:0
     RDKit          3D

 76 81  0  0  1  0  0  0  0  0999 V2000
   -2.4530    3.2460    7.8971 C   0  0  0  0  0  0  0  0  0  0  0  0
   -1.8794    3.3327    6.4678 C   0  0  2  0  0  0  0  0  0  0  0  0
   -1.7125    1.9480    5.7890 C   0  0  0  0  0  0  0  0  0  0  0  0
   -0.2762    1.3579    5.8455 C   0  0  1  0  0  0  0  0  0  0  0  0
    0.0161    0.9127    7.3034 C   0  0  0  0  0  0  0  0  0  0  0  0
   -0.0628    0.1965    4.8447 C   0  0  0  0  0  0  0  0  0  0  0  0
    0.8835    0.6907    3.7037 C   0  0  2  0  0  0  0  0  0  0  0  0
   -0.0515    1.2933    2.6129 C   0  0  0  0  0  0  0  0  0  0  0  0
    1.7100   -0.5089    3.0877 C   0  0  1  0  0  0  0  0  0  0  0  0
    2.3448   -0.2629    1.6946 C   0  0  0  0  0  0  0  0  0  0  0  0
    2.9991   -1.5341    1.1235 C   0  0  1  0  0  0  0  0  0  0  0  0
    3.4447   -1.1942   -0.1679 O   0  0  0  0  0  0  0  0  0  0  0  0
    4.1229   -2.1200    2.0319 C   0  0  1  0  0  0  0  0  0  0  0  0
    3.5149   -2.3246    3.4446 C   0  0  1  0  0  0  0  0  0  0  0  0
    4.5128   -2.9340    4.4461 C   0  0  0  0  0  0  0  0  0  0  0  0
    5.2853   -4.0866    3.8630 C   0  0  0  0  0  0  0  0  0  0  0  0
    5.4543   -4.3047    2.5524 C   0  0  0  0  0  0  0  0  0  0  0  0
    6.2057   -5.5461    2.0833 C   0  0  0  0  0  0  0  0  0  0  0  0
    5.2806   -6.3835    1.2124 C   0  0  0  0  0  0  0  0  0  0  0  0
    5.1597   -7.5962    1.3666 O   0  0  0  0  0  0  0  0  0  0  0  0
    4.5425   -5.6383    0.1067 C   0  0  0  0  0  0  0  0  0  0  0  0
    3.9057   -4.3256    0.6193 C   0  0  0  0  0  0  0  0  0  0  0  0
    4.8591   -3.4072    1.4473 C   0  0  1  0  0  0  0  0  0  0  0  0
    6.0286   -2.9119    0.5508 C   0  0  0  0  0  0  0  0  0  0  0  0
    2.8084   -1.0593    4.0313 C   0  0  1  0  0  0  0  0  0  0  0  0
    3.7269    0.1044    4.4784 C   0  0  0  0  0  0  0  0  0  0  0  0
    2.9074    1.1579    5.2433 C   0  0  1  0  0  0  0  0  0  0  0  0
    3.7745    2.1283    5.7974 O   0  0  0  0  0  0  0  0  0  0  0  0
    1.7467    1.7986    4.4162 C   0  0  1  0  0  0  0  0  0  0  0  0
    2.3213    2.8657    3.4408 C   0  0  0  0  0  0  0  0  0  0  0  0
    0.7227    2.4068    5.3805 C   0  0  0  0  0  0  0  0  0  0  0  0
    0.5527    3.7219    5.6244 C   0  0  0  0  0  0  0  0  0  0  0  0
   -0.5995    4.1982    6.4043 C   0  0  0  0  0  0  0  0  0  0  0  0
   -0.5830    5.2906    6.9676 O   0  0  0  0  0  0  0  0  0  0  0  0
   -2.7474    4.2282    8.2680 H   0  0  0  0  0  0  0  0  0  0  0  0
   -1.7322    2.8406    8.6051 H   0  0  0  0  0  0  0  0  0  0  0  0
   -3.3446    2.6193    7.9378 H   0  0  0  0  0  0  0  0  0  0  0  0
   -2.6391    3.8589    5.8885 H   0  0  0  0  0  0  0  0  0  0  0  0
   -2.4282    1.2376    6.2050 H   0  0  0  0  0  0  0  0  0  0  0  0
   -2.0180    2.0601    4.7494 H   0  0  0  0  0  0  0  0  0  0  0  0
   -0.8145    0.3450    7.7224 H   0  0  0  0  0  0  0  0  0  0  0  0
    0.1854    1.7713    7.9550 H   0  0  0  0  0  0  0  0  0  0  0  0
    0.8987    0.2846    7.3930 H   0  0  0  0  0  0  0  0  0  0  0  0
    0.3870   -0.6373    5.3772 H   0  0  0  0  0  0  0  0  0  0  0  0
   -1.0062   -0.1954    4.4643 H   0  0  0  0  0  0  0  0  0  0  0  0
    0.4917    1.7341    1.7778 H   0  0  0  0  0  0  0  0  0  0  0  0
   -0.6845    2.0903    2.9986 H   0  0  0  0  0  0  0  0  0  0  0  0
   -0.7106    0.5351    2.1891 H   0  0  0  0  0  0  0  0  0  0  0  0
    0.9883   -1.3112    2.9312 H   0  0  0  0  0  0  0  0  0  0  0  0
    1.5894    0.0657    0.9836 H   0  0  0  0  0  0  0  0  0  0  0  0
    3.0842    0.5333    1.7177 H   0  0  0  0  0  0  0  0  0  0  0  0
    2.2125   -2.2791    0.9981 H   0  0  0  0  0  0  0  0  0  0  0  0
    2.6665   -1.0508   -0.6988 H   0  0  0  0  0  0  0  0  0  0  0  0
    4.8843   -1.3463    2.1475 H   0  0  0  0  0  0  0  0  0  0  0  0
    2.7322   -3.0736    3.3226 H   0  0  0  0  0  0  0  0  0  0  0  0
    5.2561   -2.2162    4.7864 H   0  0  0  0  0  0  0  0  0  0  0  0
    3.9759   -3.2947    5.3248 H   0  0  0  0  0  0  0  0  0  0  0  0
    5.7394   -4.7565    4.5813 H   0  0  0  0  0  0  0  0  0  0  0  0
    7.0937   -5.2798    1.5145 H   0  0  0  0  0  0  0  0  0  0  0  0
    6.5372   -6.1392    2.9347 H   0  0  0  0  0  0  0  0  0  0  0  0
    5.2522   -5.4361   -0.6947 H   0  0  0  0  0  0  0  0  0  0  0  0
    3.7778   -6.2914   -0.3118 H   0  0  0  0  0  0  0  0  0  0  0  0
    3.5070   -3.8027   -0.2510 H   0  0  0  0  0  0  0  0  0  0  0  0
    3.0466   -4.5915    1.2377 H   0  0  0  0  0  0  0  0  0  0  0  0
    5.6854   -2.2795   -0.2664 H   0  0  0  0  0  0  0  0  0  0  0  0
    6.5863   -3.7244    0.0861 H   0  0  0  0  0  0  0  0  0  0  0  0
    6.7450   -2.3273    1.1313 H   0  0  0  0  0  0  0  0  0  0  0  0
    2.3265   -1.4202    4.9366 H   0  0  0  0  0  0  0  0  0  0  0  0
    4.5019   -0.2541    5.1560 H   0  0  0  0  0  0  0  0  0  0  0  0
    4.2453    0.5549    3.6303 H   0  0  0  0  0  0  0  0  0  0  0  0
    2.4985    0.6367    6.1004 H   0  0  0  0  0  0  0  0  0  0  0  0
    4.1497    2.6302    5.0885 H   0  0  0  0  0  0  0  0  0  0  0  0
    3.0015    2.4314    2.7159 H   0  0  0  0  0  0  0  0  0  0  0  0
    2.8850    3.6393    3.9608 H   0  0  0  0  0  0  0  0  0  0  0  0
    1.5435    3.3919    2.8858 H   0  0  0  0  0  0  0  0  0  0  0  0
    1.2232    4.4703    5.2344 H   0  0  0  0  0  0  0  0  0  0  0  0
  1  2  1  0
  1 35  1  0
  1 36  1  0
  1 37  1  0
  2 33  1  0
  2  3  1  0
  2 38  1  6
  3  4  1  0
  3 39  1  0
  3 40  1  0
  4 31  1  0
  4  5  1  1
  4  6  1  0
  5 41  1  0
  5 42  1  0
  5 43  1  0
  6  7  1  0
  6 44  1  0
  6 45  1  0
  7 29  1  0
  7  8  1  6
  7  9  1  0
  8 46  1  0
  8 47  1  0
  8 48  1  0
  9 25  1  0
  9 10  1  0
  9 49  1  6
 10 11  1  0
 10 50  1  0
 10 51  1  0
 11 12  1  0
 11 13  1  0
 11 52  1  6
 12 53  1  0
 13 23  1  0
 13 14  1  0
 13 54  1  1
 14 15  1  0
 14 25  1  0
 14 55  1  6
 15 16  1  0
 15 56  1  0
 15 57  1  0
 16 17  2  0
 16 58  1  0
 17 23  1  0
 17 18  1  0
 18 19  1  0
 18 59  1  0
 18 60  1  0
 19 20  2  0
 19 21  1  0
 21 22  1  0
 21 61  1  0
 21 62  1  0
 22 23  1  0
 22 63  1  0
 22 64  1  0
 23 24  1  6
 24 65  1  0
 24 66  1  0
 24 67  1  0
 25 26  1  0
 25 68  1  1
 26 27  1  0
 26 69  1  0
 26 70  1  0
 27 28  1  0
 27 29  1  0
 27 71  1  1
 28 72  1  0
 29 30  1  6
 29 31  1  0
 30 73  1  0
 30 74  1  0
 30 75  1  0
 31 32  2  0
 32 33  1  0
 32 76  1  0
 33 34  2  0
M  END
>  <i_m_ct_stereo_status>  (281) 
1

>  <s_m_source_file>  (281) 
/var/tmp/pbs.5076255.sched01/tmp_srbpc4z/1203xlsw0nt.sdf

>  <i_m_source_file_index>  (281) 
34

>  <i_lp_mmshare_version>  (281) 
48012

>  <i_f3d_flags>  (281) 
0

>  <s_epik_input>  (281) 
W0NIM11bQ0BIXShbQ0gyXTEpQyg9TylbQ0hdPUMoW0NAQF0xMltDSDNdKVtDQF0zKFtDSDNdKVtDQEBdKFtDSDJdMikoW0NIM10pW0NAQEhdNFtDQEhdKFtDSDJdW0NASF0zW09IXSlbQ0BIXTVbQ0BIXShbQ0BASF0oW0NIMl00KVtPSF0pW0NAQF02KFtDSDNdKUMoPVtDSF1bQ0gyXTUpW0NIMl1DKD1PKVtDSDJdW0NIMl02

>  <s_epik_cmdline>  (281) 
J2VwaWtfcHl0aG9uJywgJy1waHQnLCAnMi4wJywgJy1waCcsICc3LjAnLCAnLXRuJywgJzgnLCAnLW1hJywgJzIwMCcsICctaW1hZScsICc8aW5maWxlLm1hZT4nLCAnLW9tYWUnLCAnPG91dGZpbGUubWFlPic=

>  <r_lp_tautomer_probability>  (281) 
1

>  <r_epik_Ionization_Penalty>  (281) 
1.80593e-06

>  <r_epik_Ionization_Penalty_Charging>  (281) 
0

>  <r_epik_Ionization_Penalty_Neutral>  (281) 
1.80593e-06

>  <r_epik_State_Penalty>  (281) 
-0

>  <r_epik_Charging_Adjusted_Penalty>  (281) 
0

>  <i_epik_Tot_Q>  (281) 
0

>  <i_epik_Tot_abs_Q>  (281) 
0

>  <s_lp_Force_Field>  (281) 
OPLS3e

>  <r_lp_Energy>  (281) 
66.9808

>  <b_lp_Chiralities_Consistent>  (281) 
1

>  <s_lp_Variant>  (281) 
112:0-1

>  <s_i_glide_gridfile>  (281) 
pfpi4k_grid

>  <i_i_glide_lignum>  (281) 
34

>  <i_i_glide_rotatable_bonds>  (281) 
2

>  <r_i_docking_score>  (281) 
-3.08245

>  <r_i_glide_ligand_efficiency>  (281) 
-0.0906604

>  <r_i_glide_ligand_efficiency_sa>  (281) 
-0.293705

>  <r_i_glide_ligand_efficiency_ln>  (281) 
-0.681001

>  <r_i_glide_gscore>  (281) 
-3.08245

>  <r_i_glide_lipo>  (281) 
-0.392159

>  <r_i_glide_hbond>  (281) 
-0.155995

>  <r_i_glide_metal>  (281) 
-0

>  <r_i_glide_rewards>  (281) 
-0.354988

>  <r_i_glide_evdw>  (281) 
-30.7222

>  <r_i_glide_ecoul>  (281) 
-4.24759

>  <r_i_glide_erotb>  (281) 
0

>  <r_i_glide_esite>  (281) 
-0.00606333

>  <r_i_glide_emodel>  (281) 
-41.4324

>  <r_i_glide_energy>  (281) 
-34.9698

>  <r_i_glide_einternal>  (281) 
0.378954

>  <r_i_glide_intrahb_reward>  (281) 
-0

>  <i_i_glide_confnum>  (281) 
2

>  <i_i_glide_posenum>  (281) 
22

>  <r_i_glide_eff_state_penalty>  (281) 
0

>  <ligand_id>  (281) 
112

>  <original_smiles>  (281) 
CC1CC2(C)CC3(C)C4CC(O)C5C(CC=C6CC(=O)CCC65C)C4CC(O)C3(C)C2=CC1=O

>  <smiles>  (281) 
[H]OC1([H])C([H])([H])C2([H])C([H])(C([H])([H])C([H])(O[H])C3(C([H])([H])[H])C4=C([H])C(=O)C([H])(C([H])([H])[H])C([H])([H])C4(C([H])([H])[H])C([H])([H])C23C([H])([H])[H])C2([H])C([H])([H])C([H])=C3C([H])([H])C(=O)C([H])([H])C([H])([H])C3(C([H])([H])[H])C12[H]

$$$$
112:0:1
     RDKit          3D

 76 81  0  0  1  0  0  0  0  0999 V2000
   -2.5700    3.2791    7.2508 C   0  0  0  0  0  0  0  0  0  0  0  0
   -1.8574    3.3798    5.8873 C   0  0  2  0  0  0  0  0  0  0  0  0
   -1.6522    2.0121    5.1915 C   0  0  0  0  0  0  0  0  0  0  0  0
   -0.2444    1.3888    5.3765 C   0  0  1  0  0  0  0  0  0  0  0  0
   -0.1144    0.9047    6.8448 C   0  0  0  0  0  0  0  0  0  0  0  0
    0.0371    0.2425    4.3765 C   0  0  0  0  0  0  0  0  0  0  0  0
    1.1048    0.7343    3.3484 C   0  0  2  0  0  0  0  0  0  0  0  0
    0.2934    1.3762    2.1867 C   0  0  0  0  0  0  0  0  0  0  0  0
    1.9604   -0.4707    2.7864 C   0  0  1  0  0  0  0  0  0  0  0  0
    2.7348   -0.2106    1.4673 C   0  0  0  0  0  0  0  0  0  0  0  0
    3.4181   -1.4786    0.9209 C   0  0  1  0  0  0  0  0  0  0  0  0
    4.0350   -1.1265   -0.3031 O   0  0  0  0  0  0  0  0  0  0  0  0
    4.4268   -2.1111    1.9323 C   0  0  1  0  0  0  0  0  0  0  0  0
    3.6798   -2.3302    3.2741 C   0  0  1  0  0  0  0  0  0  0  0  0
    4.5596   -2.9860    4.3574 C   0  0  0  0  0  0  0  0  0  0  0  0
    5.3603   -4.1460    3.8288 C   0  0  0  0  0  0  0  0  0  0  0  0
    5.6550   -4.3368    2.5387 C   0  0  0  0  0  0  0  0  0  0  0  0
    6.4224   -5.5844    2.1204 C   0  0  0  0  0  0  0  0  0  0  0  0
    5.5596   -6.3830    1.1579 C   0  0  0  0  0  0  0  0  0  0  0  0
    5.3938   -7.5925    1.2847 O   0  0  0  0  0  0  0  0  0  0  0  0
    4.9516   -5.5980   -0.0007 C   0  0  0  0  0  0  0  0  0  0  0  0
    4.2963   -4.2793    0.4656 C   0  0  0  0  0  0  0  0  0  0  0  0
    5.1890   -3.4037    1.3994 C   0  0  1  0  0  0  0  0  0  0  0  0
    6.4512   -2.9222    0.6281 C   0  0  0  0  0  0  0  0  0  0  0  0
    2.9462   -1.0641    3.8209 C   0  0  1  0  0  0  0  0  0  0  0  0
    3.8413    0.0679    4.3843 C   0  0  0  0  0  0  0  0  0  0  0  0
    2.9696    1.1237    5.0889 C   0  0  1  0  0  0  0  0  0  0  0  0
    3.7974    2.0647    5.7469 O   0  0  0  0  0  0  0  0  0  0  0  0
    1.9129    1.8089    4.1669 C   0  0  1  0  0  0  0  0  0  0  0  0
    2.5983    2.8833    3.2809 C   0  0  0  0  0  0  0  0  0  0  0  0
    0.8167    2.4205    5.0404 C   0  0  0  0  0  0  0  0  0  0  0  0
    0.6538    3.7353    5.2935 C   0  0  0  0  0  0  0  0  0  0  0  0
   -0.5632    4.2198    5.9650 C   0  0  0  0  0  0  0  0  0  0  0  0
   -0.5770    5.3040    6.5475 O   0  0  0  0  0  0  0  0  0  0  0  0
   -2.8770    4.2572    7.6198 H   0  0  0  0  0  0  0  0  0  0  0  0
   -1.9353    2.8402    8.0166 H   0  0  0  0  0  0  0  0  0  0  0  0
   -3.4746    2.6776    7.1828 H   0  0  0  0  0  0  0  0  0  0  0  0
   -2.5406    3.9408    5.2496 H   0  0  0  0  0  0  0  0  0  0  0  0
   -2.4135    1.3101    5.5268 H   0  0  0  0  0  0  0  0  0  0  0  0
   -1.8564    2.1548    4.1316 H   0  0  0  0  0  0  0  0  0  0  0  0
   -0.9974    0.3468    7.1605 H   0  0  0  0  0  0  0  0  0  0  0  0
    0.0055    1.7453    7.5311 H   0  0  0  0  0  0  0  0  0  0  0  0
    0.7414    0.2528    7.0082 H   0  0  0  0  0  0  0  0  0  0  0  0
    0.4088   -0.6159    4.9314 H   0  0  0  0  0  0  0  0  0  0  0  0
   -0.8765   -0.1117    3.8949 H   0  0  0  0  0  0  0  0  0  0  0  0
    0.9252    1.8224    1.4196 H   0  0  0  0  0  0  0  0  0  0  0  0
   -0.3579    2.1833    2.5240 H   0  0  0  0  0  0  0  0  0  0  0  0
   -0.3344    0.6374    1.6839 H   0  0  0  0  0  0  0  0  0  0  0  0
    1.2353   -1.2476    2.5412 H   0  0  0  0  0  0  0  0  0  0  0  0
    2.0569    0.1445    0.6948 H   0  0  0  0  0  0  0  0  0  0  0  0
    3.4816    0.5688    1.5903 H   0  0  0  0  0  0  0  0  0  0  0  0
    2.6271   -2.1972    0.7005 H   0  0  0  0  0  0  0  0  0  0  0  0
    4.5594   -0.3518   -0.1722 H   0  0  0  0  0  0  0  0  0  0  0  0
    5.1926   -1.3629    2.1419 H   0  0  0  0  0  0  0  0  0  0  0  0
    2.8967   -3.0580    3.0602 H   0  0  0  0  0  0  0  0  0  0  0  0
    5.2881   -2.2969    4.7824 H   0  0  0  0  0  0  0  0  0  0  0  0
    3.9296   -3.3528    5.1709 H   0  0  0  0  0  0  0  0  0  0  0  0
    5.7231   -4.8425    4.5748 H   0  0  0  0  0  0  0  0  0  0  0  0
    7.3665   -5.3328    1.6444 H   0  0  0  0  0  0  0  0  0  0  0  0
    6.6571   -6.2010    2.9868 H   0  0  0  0  0  0  0  0  0  0  0  0
    5.7499   -5.3882   -0.7111 H   0  0  0  0  0  0  0  0  0  0  0  0
    4.2261   -6.2206   -0.5248 H   0  0  0  0  0  0  0  0  0  0  0  0
    4.0043   -3.7305   -0.4325 H   0  0  0  0  0  0  0  0  0  0  0  0
    3.3716   -4.5324    0.9878 H   0  0  0  0  0  0  0  0  0  0  0  0
    6.2062   -2.2718   -0.2100 H   0  0  0  0  0  0  0  0  0  0  0  0
    7.0352   -3.7416    0.2070 H   0  0  0  0  0  0  0  0  0  0  0  0
    7.1205   -2.3600    1.2816 H   0  0  0  0  0  0  0  0  0  0  0  0
    2.3720   -1.4329    4.6678 H   0  0  0  0  0  0  0  0  0  0  0  0
    4.5371   -0.3226    5.1296 H   0  0  0  0  0  0  0  0  0  0  0  0
    4.4500    0.5282    3.6034 H   0  0  0  0  0  0  0  0  0  0  0  0
    2.4655    0.5906    5.8870 H   0  0  0  0  0  0  0  0  0  0  0  0
    4.2058    2.6049    5.0869 H   0  0  0  0  0  0  0  0  0  0  0  0
    3.3289    2.4358    2.6194 H   0  0  0  0  0  0  0  0  0  0  0  0
    3.1292    3.6324    3.8681 H   0  0  0  0  0  0  0  0  0  0  0  0
    1.8915    3.4385    2.6634 H   0  0  0  0  0  0  0  0  0  0  0  0
    1.3792    4.4709    4.9822 H   0  0  0  0  0  0  0  0  0  0  0  0
  1  2  1  0
  1 35  1  0
  1 36  1  0
  1 37  1  0
  2 33  1  0
  2  3  1  0
  2 38  1  6
  3  4  1  0
  3 39  1  0
  3 40  1  0
  4 31  1  0
  4  5  1  1
  4  6  1  0
  5 41  1  0
  5 42  1  0
  5 43  1  0
  6  7  1  0
  6 44  1  0
  6 45  1  0
  7 29  1  0
  7  8  1  6
  7  9  1  0
  8 46  1  0
  8 47  1  0
  8 48  1  0
  9 25  1  0
  9 10  1  0
  9 49  1  6
 10 11  1  0
 10 50  1  0
 10 51  1  0
 11 12  1  0
 11 13  1  0
 11 52  1  6
 12 53  1  0
 13 23  1  0
 13 14  1  0
 13 54  1  1
 14 15  1  0
 14 25  1  0
 14 55  1  6
 15 16  1  0
 15 56  1  0
 15 57  1  0
 16 17  2  0
 16 58  1  0
 17 23  1  0
 17 18  1  0
 18 19  1  0
 18 59  1  0
 18 60  1  0
 19 20  2  0
 19 21  1  0
 21 22  1  0
 21 61  1  0
 21 62  1  0
 22 23  1  0
 22 63  1  0
 22 64  1  0
 23 24  1  6
 24 65  1  0
 24 66  1  0
 24 67  1  0
 25 26  1  0
 25 68  1  1
 26 27  1  0
 26 69  1  0
 26 70  1  0
 27 28  1  0
 27 29  1  0
 27 71  1  1
 28 72  1  0
 29 30  1  6
 29 31  1  0
 30 73  1  0
 30 74  1  0
 30 75  1  0
 31 32  2  0
 32 33  1  0
 32 76  1  0
 33 34  2  0
M  END
>  <i_m_ct_stereo_status>  (282) 
1

>  <s_m_source_file>  (282) 
/var/tmp/pbs.5076255.sched01/tmp_srbpc4z/1203xlsw0nt.sdf

>  <i_m_source_file_index>  (282) 
34

>  <i_lp_mmshare_version>  (282) 
48012

>  <i_f3d_flags>  (282) 
0

>  <s_epik_input>  (282) 
W0NIM11bQ0BIXShbQ0gyXTEpQyg9TylbQ0hdPUMoW0NAQF0xMltDSDNdKVtDQF0zKFtDSDNdKVtDQEBdKFtDSDJdMikoW0NIM10pW0NAQEhdNFtDQEhdKFtDSDJdW0NASF0zW09IXSlbQ0BIXTVbQ0BIXShbQ0BASF0oW0NIMl00KVtPSF0pW0NAQF02KFtDSDNdKUMoPVtDSF1bQ0gyXTUpW0NIMl1DKD1PKVtDSDJdW0NIMl02

>  <s_epik_cmdline>  (282) 
J2VwaWtfcHl0aG9uJywgJy1waHQnLCAnMi4wJywgJy1waCcsICc3LjAnLCAnLXRuJywgJzgnLCAnLW1hJywgJzIwMCcsICctaW1hZScsICc8aW5maWxlLm1hZT4nLCAnLW9tYWUnLCAnPG91dGZpbGUubWFlPic=

>  <r_lp_tautomer_probability>  (282) 
1

>  <r_epik_Ionization_Penalty>  (282) 
1.80593e-06

>  <r_epik_Ionization_Penalty_Charging>  (282) 
0

>  <r_epik_Ionization_Penalty_Neutral>  (282) 
1.80593e-06

>  <r_epik_State_Penalty>  (282) 
-0

>  <r_epik_Charging_Adjusted_Penalty>  (282) 
0

>  <i_epik_Tot_Q>  (282) 
0

>  <i_epik_Tot_abs_Q>  (282) 
0

>  <s_lp_Force_Field>  (282) 
OPLS3e

>  <r_lp_Energy>  (282) 
66.9808

>  <b_lp_Chiralities_Consistent>  (282) 
1

>  <s_lp_Variant>  (282) 
112:0-1

>  <s_i_glide_gridfile>  (282) 
pfpi4k_grid

>  <i_i_glide_lignum>  (282) 
34

>  <i_i_glide_rotatable_bonds>  (282) 
2

>  <r_i_docking_score>  (282) 
-2.65931

>  <r_i_glide_ligand_efficiency>  (282) 
-0.0782149

>  <r_i_glide_ligand_efficiency_sa>  (282) 
-0.253386

>  <r_i_glide_ligand_efficiency_ln>  (282) 
-0.587515

>  <r_i_glide_gscore>  (282) 
-2.65931

>  <r_i_glide_lipo>  (282) 
-0.44727

>  <r_i_glide_hbond>  (282) 
0

>  <r_i_glide_metal>  (282) 
-0

>  <r_i_glide_rewards>  (282) 
-0.350958

>  <r_i_glide_evdw>  (282) 
-31.3193

>  <r_i_glide_ecoul>  (282) 
-1.88091

>  <r_i_glide_erotb>  (282) 
0

>  <r_i_glide_esite>  (282) 
-0.012978

>  <r_i_glide_emodel>  (282) 
-38.8269

>  <r_i_glide_energy>  (282) 
-33.2002

>  <r_i_glide_einternal>  (282) 
0.172603

>  <r_i_glide_intrahb_reward>  (282) 
-0

>  <i_i_glide_confnum>  (282) 
2

>  <i_i_glide_posenum>  (282) 
40

>  <r_i_glide_eff_state_penalty>  (282) 
0

>  <ligand_id>  (282) 
112

>  <original_smiles>  (282) 
CC1CC2(C)CC3(C)C4CC(O)C5C(CC=C6CC(=O)CCC65C)C4CC(O)C3(C)C2=CC1=O

>  <smiles>  (282) 
[H]OC1([H])C([H])([H])C2([H])C([H])(C([H])([H])C([H])(O[H])C3(C([H])([H])[H])C4=C([H])C(=O)C([H])(C([H])([H])[H])C([H])([H])C4(C([H])([H])[H])C([H])([H])C23C([H])([H])[H])C2([H])C([H])([H])C([H])=C3C([H])([H])C(=O)C([H])([H])C([H])([H])C3(C([H])([H])[H])C12[H]

$$$$
112:0:2
     RDKit          3D

 76 81  0  0  1  0  0  0  0  0999 V2000
    1.4612  -10.9211    3.2803 C   0  0  0  0  0  0  0  0  0  0  0  0
    1.4772  -10.0261    4.5333 C   0  0  2  0  0  0  0  0  0  0  0  0
    0.4967   -8.8267    4.4413 C   0  0  0  0  0  0  0  0  0  0  0  0
    1.1372   -7.4791    4.0049 C   0  0  1  0  0  0  0  0  0  0  0  0
    1.4899   -7.5605    2.4938 C   0  0  0  0  0  0  0  0  0  0  0  0
    0.2334   -6.2579    4.3042 C   0  0  0  0  0  0  0  0  0  0  0  0
    0.8681   -5.4371    5.4708 C   0  0  2  0  0  0  0  0  0  0  0  0
    0.2739   -6.0368    6.7772 C   0  0  0  0  0  0  0  0  0  0  0  0
    0.4854   -3.9058    5.3764 C   0  0  1  0  0  0  0  0  0  0  0  0
    0.6477   -3.0667    6.6714 C   0  0  0  0  0  0  0  0  0  0  0  0
    0.1091   -1.6350    6.5142 C   0  0  1  0  0  0  0  0  0  0  0  0
    0.2323   -1.0171    7.7803 O   0  0  0  0  0  0  0  0  0  0  0  0
    0.7938   -0.8359    5.3587 C   0  0  1  0  0  0  0  0  0  0  0  0
    0.6702   -1.6858    4.0663 C   0  0  1  0  0  0  0  0  0  0  0  0
    1.2786   -0.9950    2.8289 C   0  0  0  0  0  0  0  0  0  0  0  0
    0.8962    0.4575    2.7265 C   0  0  0  0  0  0  0  0  0  0  0  0
    0.4691    1.2045    3.7550 C   0  0  0  0  0  0  0  0  0  0  0  0
    0.0376    2.6474    3.5180 C   0  0  0  0  0  0  0  0  0  0  0  0
   -1.4165    2.8184    3.9403 C   0  0  0  0  0  0  0  0  0  0  0  0
   -2.2432    3.4101    3.2487 O   0  0  0  0  0  0  0  0  0  0  0  0
   -1.7771    2.2714    5.3154 C   0  0  0  0  0  0  0  0  0  0  0  0
   -1.2160    0.8469    5.5373 C   0  0  0  0  0  0  0  0  0  0  0  0
    0.2975    0.6691    5.1928 C   0  0  1  0  0  0  0  0  0  0  0  0
    1.1637    1.5525    6.1348 C   0  0  0  0  0  0  0  0  0  0  0  0
    1.1732   -3.1589    4.2104 C   0  0  1  0  0  0  0  0  0  0  0  0
    2.7044   -3.3648    4.3120 C   0  0  0  0  0  0  0  0  0  0  0  0
    3.0447   -4.8616    4.2074 C   0  0  1  0  0  0  0  0  0  0  0  0
    4.4479   -5.0236    4.1443 O   0  0  0  0  0  0  0  0  0  0  0  0
    2.4032   -5.7518    5.3205 C   0  0  1  0  0  0  0  0  0  0  0  0
    3.2027   -5.5934    6.6451 C   0  0  0  0  0  0  0  0  0  0  0  0
    2.3761   -7.2108    4.8460 C   0  0  0  0  0  0  0  0  0  0  0  0
    3.1807   -8.2048    5.2800 C   0  0  0  0  0  0  0  0  0  0  0  0
    2.9118   -9.6090    4.9158 C   0  0  0  0  0  0  0  0  0  0  0  0
    3.7986  -10.4592    4.9358 O   0  0  0  0  0  0  0  0  0  0  0  0
    2.0069  -11.8505    3.4480 H   0  0  0  0  0  0  0  0  0  0  0  0
    1.9170  -10.4331    2.4208 H   0  0  0  0  0  0  0  0  0  0  0  0
    0.4448  -11.1998    3.0030 H   0  0  0  0  0  0  0  0  0  0  0  0
    1.1178  -10.6595    5.3466 H   0  0  0  0  0  0  0  0  0  0  0  0
   -0.3390   -9.0791    3.7860 H   0  0  0  0  0  0  0  0  0  0  0  0
    0.0420   -8.7135    5.4242 H   0  0  0  0  0  0  0  0  0  0  0  0
    0.6655   -7.9786    1.9133 H   0  0  0  0  0  0  0  0  0  0  0  0
    2.3605   -8.1957    2.3250 H   0  0  0  0  0  0  0  0  0  0  0  0
    1.7258   -6.5973    2.0491 H   0  0  0  0  0  0  0  0  0  0  0  0
    0.1807   -5.6485    3.4079 H   0  0  0  0  0  0  0  0  0  0  0  0
   -0.7961   -6.5515    4.5092 H   0  0  0  0  0  0  0  0  0  0  0  0
    0.6909   -5.5915    7.6796 H   0  0  0  0  0  0  0  0  0  0  0  0
    0.4592   -7.1066    6.8661 H   0  0  0  0  0  0  0  0  0  0  0  0
   -0.8052   -5.8838    6.8219 H   0  0  0  0  0  0  0  0  0  0  0  0
   -0.5834   -3.8878    5.1730 H   0  0  0  0  0  0  0  0  0  0  0  0
    0.0990   -3.5202    7.4945 H   0  0  0  0  0  0  0  0  0  0  0  0
    1.6884   -3.0242    6.9857 H   0  0  0  0  0  0  0  0  0  0  0  0
   -0.9564   -1.7166    6.3037 H   0  0  0  0  0  0  0  0  0  0  0  0
    1.1525   -0.8778    7.9605 H   0  0  0  0  0  0  0  0  0  0  0  0
    1.8647   -0.7930    5.5695 H   0  0  0  0  0  0  0  0  0  0  0  0
   -0.3981   -1.7566    3.8643 H   0  0  0  0  0  0  0  0  0  0  0  0
    2.3668   -1.0220    2.8232 H   0  0  0  0  0  0  0  0  0  0  0  0
    0.9369   -1.4947    1.9200 H   0  0  0  0  0  0  0  0  0  0  0  0
    0.9888    0.8968    1.7405 H   0  0  0  0  0  0  0  0  0  0  0  0
    0.6599    3.3406    4.0788 H   0  0  0  0  0  0  0  0  0  0  0  0
    0.1463    2.9123    2.4698 H   0  0  0  0  0  0  0  0  0  0  0  0
   -1.3764    2.9616    6.0568 H   0  0  0  0  0  0  0  0  0  0  0  0
   -2.8592    2.2877    5.4331 H   0  0  0  0  0  0  0  0  0  0  0  0
   -1.4128    0.5882    6.5769 H   0  0  0  0  0  0  0  0  0  0  0  0
   -1.8028    0.1573    4.9272 H   0  0  0  0  0  0  0  0  0  0  0  0
    1.0893    1.2526    7.1788 H   0  0  0  0  0  0  0  0  0  0  0  0
    0.8875    2.6060    6.1076 H   0  0  0  0  0  0  0  0  0  0  0  0
    2.2191    1.4991    5.8582 H   0  0  0  0  0  0  0  0  0  0  0  0
    0.8755   -3.6326    3.2777 H   0  0  0  0  0  0  0  0  0  0  0  0
    3.2204   -2.8593    3.4944 H   0  0  0  0  0  0  0  0  0  0  0  0
    3.1071   -2.9410    5.2331 H   0  0  0  0  0  0  0  0  0  0  0  0
    2.6788   -5.1719    3.2348 H   0  0  0  0  0  0  0  0  0  0  0  0
    4.6276   -5.9355    3.9687 H   0  0  0  0  0  0  0  0  0  0  0  0
    3.1749   -4.5756    7.0191 H   0  0  0  0  0  0  0  0  0  0  0  0
    4.2566   -5.8399    6.5208 H   0  0  0  0  0  0  0  0  0  0  0  0
    2.8374   -6.2472    7.4373 H   0  0  0  0  0  0  0  0  0  0  0  0
    4.0174   -8.0176    5.9345 H   0  0  0  0  0  0  0  0  0  0  0  0
  1  2  1  0
  1 35  1  0
  1 36  1  0
  1 37  1  0
  2 33  1  0
  2  3  1  0
  2 38  1  1
  3  4  1  0
  3 39  1  0
  3 40  1  0
  4 31  1  0
  4  5  1  6
  4  6  1  0
  5 41  1  0
  5 42  1  0
  5 43  1  0
  6  7  1  0
  6 44  1  0
  6 45  1  0
  7 29  1  0
  7  8  1  1
  7  9  1  0
  8 46  1  0
  8 47  1  0
  8 48  1  0
  9 25  1  0
  9 10  1  0
  9 49  1  6
 10 11  1  0
 10 50  1  0
 10 51  1  0
 11 12  1  0
 11 13  1  0
 11 52  1  6
 12 53  1  0
 13 23  1  0
 13 14  1  0
 13 54  1  1
 14 15  1  0
 14 25  1  0
 14 55  1  6
 15 16  1  0
 15 56  1  0
 15 57  1  0
 16 17  2  0
 16 58  1  0
 17 23  1  0
 17 18  1  0
 18 19  1  0
 18 59  1  0
 18 60  1  0
 19 20  2  0
 19 21  1  0
 21 22  1  0
 21 61  1  0
 21 62  1  0
 22 23  1  0
 22 63  1  0
 22 64  1  0
 23 24  1  1
 24 65  1  0
 24 66  1  0
 24 67  1  0
 25 26  1  0
 25 68  1  6
 26 27  1  0
 26 69  1  0
 26 70  1  0
 27 28  1  0
 27 29  1  0
 27 71  1  6
 28 72  1  0
 29 30  1  1
 29 31  1  0
 30 73  1  0
 30 74  1  0
 30 75  1  0
 31 32  2  0
 32 33  1  0
 32 76  1  0
 33 34  2  0
M  END
>  <i_m_ct_stereo_status>  (283) 
1

>  <s_m_source_file>  (283) 
/var/tmp/pbs.5076255.sched01/tmp_srbpc4z/1203xlsw0nt.sdf

>  <i_m_source_file_index>  (283) 
34

>  <i_lp_mmshare_version>  (283) 
48012

>  <i_f3d_flags>  (283) 
0

>  <s_epik_input>  (283) 
W0NIM11bQ0BIXShbQ0gyXTEpQyg9TylbQ0hdPUMoW0NAQF0xMltDSDNdKVtDQF0zKFtDSDNdKVtDQEBdKFtDSDJdMikoW0NIM10pW0NAQEhdNFtDQEhdKFtDSDJdW0NASF0zW09IXSlbQ0BIXTVbQ0BIXShbQ0BASF0oW0NIMl00KVtPSF0pW0NAQF02KFtDSDNdKUMoPVtDSF1bQ0gyXTUpW0NIMl1DKD1PKVtDSDJdW0NIMl02

>  <s_epik_cmdline>  (283) 
J2VwaWtfcHl0aG9uJywgJy1waHQnLCAnMi4wJywgJy1waCcsICc3LjAnLCAnLXRuJywgJzgnLCAnLW1hJywgJzIwMCcsICctaW1hZScsICc8aW5maWxlLm1hZT4nLCAnLW9tYWUnLCAnPG91dGZpbGUubWFlPic=

>  <r_lp_tautomer_probability>  (283) 
1

>  <r_epik_Ionization_Penalty>  (283) 
1.80593e-06

>  <r_epik_Ionization_Penalty_Charging>  (283) 
0

>  <r_epik_Ionization_Penalty_Neutral>  (283) 
1.80593e-06

>  <r_epik_State_Penalty>  (283) 
-0

>  <r_epik_Charging_Adjusted_Penalty>  (283) 
0

>  <i_epik_Tot_Q>  (283) 
0

>  <i_epik_Tot_abs_Q>  (283) 
0

>  <s_lp_Force_Field>  (283) 
OPLS3e

>  <r_lp_Energy>  (283) 
66.9808

>  <b_lp_Chiralities_Consistent>  (283) 
1

>  <s_lp_Variant>  (283) 
112:0-1

>  <s_i_glide_gridfile>  (283) 
pfpi4k_grid

>  <i_i_glide_lignum>  (283) 
34

>  <i_i_glide_rotatable_bonds>  (283) 
2

>  <r_i_docking_score>  (283) 
-2.39022

>  <r_i_glide_ligand_efficiency>  (283) 
-0.0703006

>  <r_i_glide_ligand_efficiency_sa>  (283) 
-0.227747

>  <r_i_glide_ligand_efficiency_ln>  (283) 
-0.528067

>  <r_i_glide_gscore>  (283) 
-2.39022

>  <r_i_glide_lipo>  (283) 
-0.190625

>  <r_i_glide_hbond>  (283) 
0

>  <r_i_glide_metal>  (283) 
-0

>  <r_i_glide_rewards>  (283) 
-0.227372

>  <r_i_glide_evdw>  (283) 
-30.4668

>  <r_i_glide_ecoul>  (283) 
-2.6331

>  <r_i_glide_erotb>  (283) 
0

>  <r_i_glide_esite>  (283) 
-0.0539169

>  <r_i_glide_emodel>  (283) 
-38.0508

>  <r_i_glide_energy>  (283) 
-33.0999

>  <r_i_glide_einternal>  (283) 
0.338134

>  <r_i_glide_intrahb_reward>  (283) 
-0

>  <i_i_glide_confnum>  (283) 
2

>  <i_i_glide_posenum>  (283) 
34

>  <r_i_glide_eff_state_penalty>  (283) 
0

>  <ligand_id>  (283) 
112

>  <original_smiles>  (283) 
CC1CC2(C)CC3(C)C4CC(O)C5C(CC=C6CC(=O)CCC65C)C4CC(O)C3(C)C2=CC1=O

>  <smiles>  (283) 
[H]OC1([H])C([H])([H])C2([H])C([H])(C([H])([H])C([H])(O[H])C3(C([H])([H])[H])C4=C([H])C(=O)C([H])(C([H])([H])[H])C([H])([H])C4(C([H])([H])[H])C([H])([H])C23C([H])([H])[H])C2([H])C([H])([H])C([H])=C3C([H])([H])C(=O)C([H])([H])C([H])([H])C3(C([H])([H])[H])C12[H]

$$$$
115:0:0
     RDKit          3D

 64 69  0  0  1  0  0  0  0  0999 V2000
    4.6857    0.1739    6.2864 C   0  0  0  0  0  0  0  0  0  0  0  0
    3.5660    0.0301    5.2374 C   0  0  2  0  0  0  0  0  0  0  0  0
    4.1987   -0.0198    3.8270 C   0  0  0  0  0  0  0  0  0  0  0  0
    3.1530   -0.1757    2.7207 C   0  0  0  0  0  0  0  0  0  0  0  0
    1.7078   -0.0486    3.2650 C   0  0  1  0  0  0  0  0  0  0  0  0
    0.9129   -0.3978    2.1418 O   0  0  0  0  0  0  0  0  0  0  0  0
    1.4567   -1.1938    4.3758 C   0  0  2  0  0  0  0  0  0  0  0  0
    1.3687   -2.5868    3.6473 C   0  0  0  0  0  0  0  0  0  0  0  0
    0.0740   -1.1049    5.1126 C   0  0  0  0  0  0  0  0  0  0  0  0
   -0.1276    0.0963    6.0185 C   0  0  2  0  0  0  0  0  0  0  0  0
   -1.4127    0.7573    5.9848 O   0  0  0  0  0  0  0  0  0  0  0  0
   -0.2834    1.4728    5.4619 C   0  0  1  0  0  0  0  0  0  0  0  0
    0.2930    2.6216    6.2576 C   0  0  0  0  0  0  0  0  0  0  0  0
    1.6000    3.2201    5.6414 C   0  0  2  0  0  0  0  0  0  0  0  0
    2.5625    3.4943    6.8443 C   0  0  0  0  0  0  0  0  0  0  0  0
    1.3192    4.6415    5.0000 C   0  0  1  0  0  0  0  0  0  0  0  0
    2.4929    5.4046    4.7689 O   0  0  0  0  0  0  0  0  0  0  0  0
    0.4614    4.7950    3.7271 C   0  0  0  0  0  0  0  0  0  0  0  0
   -0.9579    4.1893    3.7646 C   0  0  1  0  0  0  0  0  0  0  0  0
   -1.7794    4.9423    2.8879 O   0  0  0  0  0  0  0  0  0  0  0  0
   -1.0518    2.7211    3.3050 C   0  0  0  0  0  0  0  0  0  0  0  0
   -0.1576    1.6419    3.9739 C   0  0  1  0  0  0  0  0  0  0  0  0
    1.3488    1.4916    3.5605 C   0  0  2  0  0  0  0  0  0  0  0  0
    1.5446    2.1400    2.2991 O   0  0  0  0  0  0  0  0  0  0  0  0
    2.2999    2.1469    4.6764 C   0  0  1  0  0  0  0  0  0  0  0  0
    3.4084    2.7940    4.0829 O   0  0  0  0  0  0  0  0  0  0  0  0
    2.7260    1.1446    5.5604 O   0  0  0  0  0  0  0  0  0  0  0  0
    2.6279   -1.1879    5.4548 C   0  0  1  0  0  0  0  0  0  0  0  0
    3.4054   -2.5218    5.6670 C   0  0  0  0  0  0  0  0  0  0  0  0
    2.5822   -3.5004    6.2721 O   0  0  0  0  0  0  0  0  0  0  0  0
    5.4696   -0.5751    6.1707 H   0  0  0  0  0  0  0  0  0  0  0  0
    4.2957    0.1105    7.3043 H   0  0  0  0  0  0  0  0  0  0  0  0
    5.1627    1.1507    6.1807 H   0  0  0  0  0  0  0  0  0  0  0  0
    4.8423    0.8420    3.6494 H   0  0  0  0  0  0  0  0  0  0  0  0
    4.8787   -0.8719    3.7719 H   0  0  0  0  0  0  0  0  0  0  0  0
    3.3672    0.5297    1.9176 H   0  0  0  0  0  0  0  0  0  0  0  0
    3.2954   -1.1457    2.2523 H   0  0  0  0  0  0  0  0  0  0  0  0
    1.1372    0.1921    1.4366 H   0  0  0  0  0  0  0  0  0  0  0  0
    1.0827   -3.3994    4.3118 H   0  0  0  0  0  0  0  0  0  0  0  0
    2.2992   -2.8672    3.1556 H   0  0  0  0  0  0  0  0  0  0  0  0
    0.5981   -2.6184    2.8800 H   0  0  0  0  0  0  0  0  0  0  0  0
   -0.7475   -1.1705    4.3990 H   0  0  0  0  0  0  0  0  0  0  0  0
   -0.0495   -1.9820    5.7468 H   0  0  0  0  0  0  0  0  0  0  0  0
    0.2966    0.0010    7.0151 H   0  0  0  0  0  0  0  0  0  0  0  0
   -0.4633    3.3853    6.4213 H   0  0  0  0  0  0  0  0  0  0  0  0
    0.4975    2.2536    7.2637 H   0  0  0  0  0  0  0  0  0  0  0  0
    3.5498    3.8293    6.5157 H   0  0  0  0  0  0  0  0  0  0  0  0
    2.7262    2.6117    7.4655 H   0  0  0  0  0  0  0  0  0  0  0  0
    2.1632    4.2675    7.5049 H   0  0  0  0  0  0  0  0  0  0  0  0
    0.7922    5.2133    5.7681 H   0  0  0  0  0  0  0  0  0  0  0  0
    2.9665    5.0060    4.0514 H   0  0  0  0  0  0  0  0  0  0  0  0
    0.3462    5.8717    3.5714 H   0  0  0  0  0  0  0  0  0  0  0  0
    1.0228    4.4702    2.8580 H   0  0  0  0  0  0  0  0  0  0  0  0
   -1.3908    4.3074    4.7563 H   0  0  0  0  0  0  0  0  0  0  0  0
   -1.3648    4.8953    2.0264 H   0  0  0  0  0  0  0  0  0  0  0  0
   -2.0894    2.4160    3.4511 H   0  0  0  0  0  0  0  0  0  0  0  0
   -0.9180    2.6647    2.2230 H   0  0  0  0  0  0  0  0  0  0  0  0
   -0.6594    0.7785    3.5527 H   0  0  0  0  0  0  0  0  0  0  0  0
    1.0465    2.9473    2.2688 H   0  0  0  0  0  0  0  0  0  0  0  0
    3.6779    2.2748    3.3298 H   0  0  0  0  0  0  0  0  0  0  0  0
    2.1948   -1.0147    6.4409 H   0  0  0  0  0  0  0  0  0  0  0  0
    3.8762   -2.8951    4.7563 H   0  0  0  0  0  0  0  0  0  0  0  0
    4.2110   -2.4009    6.3914 H   0  0  0  0  0  0  0  0  0  0  0  0
    1.9485   -3.8069    5.6408 H   0  0  0  0  0  0  0  0  0  0  0  0
  2  1  1  1
  1 31  1  0
  1 32  1  0
  1 33  1  0
  2 27  1  0
  2 28  1  0
  2  3  1  0
  3  4  1  0
  3 34  1  0
  3 35  1  0
  4  5  1  0
  4 36  1  0
  4 37  1  0
  5 23  1  0
  5  6  1  6
  5  7  1  0
  6 38  1  0
  7  8  1  6
  7  9  1  0
  7 28  1  0
  8 39  1  0
  8 40  1  0
  8 41  1  0
  9 10  1  0
  9 42  1  0
  9 43  1  0
 10 12  1  0
 10 11  1  0
 10 44  1  1
 12 11  1  6
 12 22  1  0
 12 13  1  0
 13 14  1  0
 13 45  1  0
 13 46  1  0
 14 25  1  0
 14 15  1  1
 14 16  1  0
 15 47  1  0
 15 48  1  0
 15 49  1  0
 16 17  1  0
 16 18  1  0
 16 50  1  1
 17 51  1  0
 18 19  1  0
 18 52  1  0
 18 53  1  0
 19 20  1  0
 19 21  1  0
 19 54  1  1
 20 55  1  0
 21 22  1  0
 21 56  1  0
 21 57  1  0
 22 23  1  0
 22 58  1  6
 23 24  1  6
 23 25  1  0
 24 59  1  0
 25 26  1  6
 25 27  1  0
 26 60  1  0
 28 29  1  0
 28 61  1  1
 29 30  1  0
 29 62  1  0
 29 63  1  0
 30 64  1  0
M  END
>  <i_m_ct_stereo_status>  (284) 
1

>  <s_m_source_file>  (284) 
/var/tmp/pbs.5076255.sched01/tmp_srbpc4z/1203xlsw0nt.sdf

>  <i_m_source_file_index>  (284) 
37

>  <i_lp_mmshare_version>  (284) 
48012

>  <i_f3d_flags>  (284) 
0

>  <s_epik_input>  (284) 
W09IXVtDSDJdW0NASF0xW0NAQF0oW0NIM10pKFtDSDJdW0NIMl0yKU9bQ0BdMyhbT0hdKVtDQEBdKFtDSDJdNCkoW0NIM10pW0NAQEhdKFtPSF0pW0NIMl1bQ0BASF0oW09IXSlbQ0gyXVtDQEhdNVtDQF0zKFtPSF0pW0NAXTIoW09IXSlbQ0BdMShbQ0gzXSlbQ0gyXVtDQEhdKE82KVtDQEBdNDU2

>  <s_epik_cmdline>  (284) 
J2VwaWtfcHl0aG9uJywgJy1waHQnLCAnMi4wJywgJy1waCcsICc3LjAnLCAnLXRuJywgJzgnLCAnLW1hJywgJzIwMCcsICctaW1hZScsICc8aW5maWxlLm1hZT4nLCAnLW9tYWUnLCAnPG91dGZpbGUubWFlPic=

>  <r_lp_tautomer_probability>  (284) 
1

>  <r_epik_Ionization_Penalty>  (284) 
1.87833e-06

>  <r_epik_Ionization_Penalty_Charging>  (284) 
0

>  <r_epik_Ionization_Penalty_Neutral>  (284) 
1.87833e-06

>  <r_epik_State_Penalty>  (284) 
-0

>  <r_epik_Charging_Adjusted_Penalty>  (284) 
0

>  <i_epik_Tot_Q>  (284) 
0

>  <i_epik_Tot_abs_Q>  (284) 
0

>  <s_lp_Force_Field>  (284) 
OPLS3e

>  <r_lp_Energy>  (284) 
105.093

>  <b_lp_Chiralities_Consistent>  (284) 
1

>  <s_lp_Variant>  (284) 
115:0-1

>  <s_i_glide_gridfile>  (284) 
pfpi4k_grid

>  <i_i_glide_lignum>  (284) 
37

>  <i_i_glide_rotatable_bonds>  (284) 
7

>  <r_i_docking_score>  (284) 
-3.06434

>  <r_i_glide_ligand_efficiency>  (284) 
-0.102145

>  <r_i_glide_ligand_efficiency_sa>  (284) 
-0.317388

>  <r_i_glide_ligand_efficiency_ln>  (284) 
-0.696252

>  <r_i_glide_gscore>  (284) 
-3.06434

>  <r_i_glide_lipo>  (284) 
-0.0555242

>  <r_i_glide_hbond>  (284) 
-0.310685

>  <r_i_glide_metal>  (284) 
-0

>  <r_i_glide_rewards>  (284) 
-0.501133

>  <r_i_glide_evdw>  (284) 
-17.1186

>  <r_i_glide_ecoul>  (284) 
-9.64706

>  <r_i_glide_erotb>  (284) 
0.109106

>  <r_i_glide_esite>  (284) 
-0.00311686

>  <r_i_glide_emodel>  (284) 
-32.4919

>  <r_i_glide_energy>  (284) 
-26.7657

>  <r_i_glide_einternal>  (284) 
0.6348

>  <r_i_glide_intrahb_reward>  (284) 
-0

>  <i_i_glide_confnum>  (284) 
1

>  <i_i_glide_posenum>  (284) 
1

>  <r_i_glide_eff_state_penalty>  (284) 
0

>  <ligand_id>  (284) 
115

>  <original_smiles>  (284) 
CC12CCC3(O)C(C)(CC4OC45CC4(C)C(O)CC(O)CC5C3(O)C4(O)O1)C2CO

>  <smiles>  (284) 
[H]OC([H])([H])C1([H])C2(C([H])([H])[H])OC3(O[H])C4(O[H])C5([H])C([H])([H])C([H])(O[H])C([H])([H])C([H])(O[H])C3(C([H])([H])[H])C([H])([H])C53OC3([H])C([H])([H])C1(C([H])([H])[H])C4(O[H])C([H])([H])C2([H])[H]

$$$$
115:0:1
     RDKit          3D

 64 69  0  0  1  0  0  0  0  0999 V2000
    4.6808    0.2019    6.3325 C   0  0  0  0  0  0  0  0  0  0  0  0
    3.5745    0.0524    5.2701 C   0  0  2  0  0  0  0  0  0  0  0  0
    4.2233    0.0140    3.8658 C   0  0  0  0  0  0  0  0  0  0  0  0
    3.1912   -0.1426    2.7485 C   0  0  0  0  0  0  0  0  0  0  0  0
    1.7376   -0.0326    3.2783 C   0  0  1  0  0  0  0  0  0  0  0  0
    0.9575   -0.3842    2.1432 O   0  0  0  0  0  0  0  0  0  0  0  0
    1.4848   -1.1837    4.3845 C   0  0  2  0  0  0  0  0  0  0  0  0
    1.4200   -2.5726    3.6537 C   0  0  0  0  0  0  0  0  0  0  0  0
    0.0938   -1.1089    5.1007 C   0  0  0  0  0  0  0  0  0  0  0  0
   -0.1299    0.0908    6.0086 C   0  0  2  0  0  0  0  0  0  0  0  0
   -1.4164    0.7417    5.9675 O   0  0  0  0  0  0  0  0  0  0  0  0
   -0.2867    1.4641    5.4614 C   0  0  1  0  0  0  0  0  0  0  0  0
    0.2733    2.6172    6.2661 C   0  0  0  0  0  0  0  0  0  0  0  0
    1.5803    3.2267    5.6673 C   0  0  2  0  0  0  0  0  0  0  0  0
    2.5274    3.5022    6.8819 C   0  0  0  0  0  0  0  0  0  0  0  0
    1.2936    4.6513    5.0304 C   0  0  1  0  0  0  0  0  0  0  0  0
    2.4643    5.4261    4.8266 O   0  0  0  0  0  0  0  0  0  0  0  0
    0.4535    4.8027    3.7448 C   0  0  0  0  0  0  0  0  0  0  0  0
   -0.9599    4.1852    3.7690 C   0  0  1  0  0  0  0  0  0  0  0  0
   -1.7714    4.9413    2.8773 O   0  0  0  0  0  0  0  0  0  0  0  0
   -1.0423    2.7204    3.3037 C   0  0  0  0  0  0  0  0  0  0  0  0
   -0.1464    1.6446    3.9719 C   0  0  1  0  0  0  0  0  0  0  0  0
    1.3625    1.5027    3.5748 C   0  0  2  0  0  0  0  0  0  0  0  0
    1.5633    2.1433    2.3131 O   0  0  0  0  0  0  0  0  0  0  0  0
    2.3009    2.1614    4.7014 C   0  0  1  0  0  0  0  0  0  0  0  0
    3.4048    2.8055    4.1169 O   0  0  0  0  0  0  0  0  0  0  0  0
    2.7238    1.1586    5.5869 O   0  0  0  0  0  0  0  0  0  0  0  0
    2.6449   -1.1762    5.4763 C   0  0  1  0  0  0  0  0  0  0  0  0
    3.4330   -2.5062    5.6946 C   0  0  0  0  0  0  0  0  0  0  0  0
    2.6287   -3.4868    6.3238 O   0  0  0  0  0  0  0  0  0  0  0  0
    5.4719   -0.5395    6.2206 H   0  0  0  0  0  0  0  0  0  0  0  0
    4.2797    0.1281    7.3456 H   0  0  0  0  0  0  0  0  0  0  0  0
    5.1508    1.1828    6.2367 H   0  0  0  0  0  0  0  0  0  0  0  0
    4.8644    0.8802    3.6935 H   0  0  0  0  0  0  0  0  0  0  0  0
    4.9114   -0.8326    3.8148 H   0  0  0  0  0  0  0  0  0  0  0  0
    3.4085    0.5700    1.9540 H   0  0  0  0  0  0  0  0  0  0  0  0
    3.3469   -1.1076    2.2763 H   0  0  0  0  0  0  0  0  0  0  0  0
    1.1813    0.2243    1.4521 H   0  0  0  0  0  0  0  0  0  0  0  0
    1.1667   -3.3848    4.3330 H   0  0  0  0  0  0  0  0  0  0  0  0
    2.3519   -2.8351    3.1563 H   0  0  0  0  0  0  0  0  0  0  0  0
    0.6417   -2.6164    2.8899 H   0  0  0  0  0  0  0  0  0  0  0  0
   -0.7179   -1.1755    4.3778 H   0  0  0  0  0  0  0  0  0  0  0  0
   -0.0292   -1.9876    5.7274 H   0  0  0  0  0  0  0  0  0  0  0  0
    0.2880   -0.0099    7.0127 H   0  0  0  0  0  0  0  0  0  0  0  0
   -0.4920    3.3704    6.4264 H   0  0  0  0  0  0  0  0  0  0  0  0
    0.4680    2.2442    7.2719 H   0  0  0  0  0  0  0  0  0  0  0  0
    3.5158    3.8478    6.5637 H   0  0  0  0  0  0  0  0  0  0  0  0
    2.6909    2.6180    7.4992 H   0  0  0  0  0  0  0  0  0  0  0  0
    2.1144    4.2692    7.5417 H   0  0  0  0  0  0  0  0  0  0  0  0
    0.7482    5.2135    5.7951 H   0  0  0  0  0  0  0  0  0  0  0  0
    2.2241    6.2315    4.3913 H   0  0  0  0  0  0  0  0  0  0  0  0
    0.3262    5.8785    3.5945 H   0  0  0  0  0  0  0  0  0  0  0  0
    1.0245    4.4839    2.8824 H   0  0  0  0  0  0  0  0  0  0  0  0
   -1.4121    4.3008    4.7527 H   0  0  0  0  0  0  0  0  0  0  0  0
   -1.3385    4.8953    2.0241 H   0  0  0  0  0  0  0  0  0  0  0  0
   -2.0806    2.4074    3.4381 H   0  0  0  0  0  0  0  0  0  0  0  0
   -0.8973    2.6709    2.2208 H   0  0  0  0  0  0  0  0  0  0  0  0
   -0.6398    0.7796    3.5426 H   0  0  0  0  0  0  0  0  0  0  0  0
    1.0808    2.9609    2.2880 H   0  0  0  0  0  0  0  0  0  0  0  0
    3.6597    2.3168    3.3417 H   0  0  0  0  0  0  0  0  0  0  0  0
    2.1985   -1.0095    6.4570 H   0  0  0  0  0  0  0  0  0  0  0  0
    3.8811   -2.8858    4.7780 H   0  0  0  0  0  0  0  0  0  0  0  0
    4.2618   -2.3632    6.3886 H   0  0  0  0  0  0  0  0  0  0  0  0
    3.0935   -4.3115    6.3323 H   0  0  0  0  0  0  0  0  0  0  0  0
  2  1  1  1
  1 31  1  0
  1 32  1  0
  1 33  1  0
  2 27  1  0
  2 28  1  0
  2  3  1  0
  3  4  1  0
  3 34  1  0
  3 35  1  0
  4  5  1  0
  4 36  1  0
  4 37  1  0
  5 23  1  0
  5  6  1  6
  5  7  1  0
  6 38  1  0
  7  8  1  6
  7  9  1  0
  7 28  1  0
  8 39  1  0
  8 40  1  0
  8 41  1  0
  9 10  1  0
  9 42  1  0
  9 43  1  0
 10 12  1  0
 10 11  1  0
 10 44  1  1
 12 11  1  6
 12 22  1  0
 12 13  1  0
 13 14  1  0
 13 45  1  0
 13 46  1  0
 14 25  1  0
 14 15  1  1
 14 16  1  0
 15 47  1  0
 15 48  1  0
 15 49  1  0
 16 17  1  0
 16 18  1  0
 16 50  1  1
 17 51  1  0
 18 19  1  0
 18 52  1  0
 18 53  1  0
 19 20  1  0
 19 21  1  0
 19 54  1  1
 20 55  1  0
 21 22  1  0
 21 56  1  0
 21 57  1  0
 22 23  1  0
 22 58  1  6
 23 24  1  6
 23 25  1  0
 24 59  1  0
 25 26  1  6
 25 27  1  0
 26 60  1  0
 28 29  1  0
 28 61  1  1
 29 30  1  0
 29 62  1  0
 29 63  1  0
 30 64  1  0
M  END
>  <i_m_ct_stereo_status>  (285) 
1

>  <s_m_source_file>  (285) 
/var/tmp/pbs.5076255.sched01/tmp_srbpc4z/1203xlsw0nt.sdf

>  <i_m_source_file_index>  (285) 
37

>  <i_lp_mmshare_version>  (285) 
48012

>  <i_f3d_flags>  (285) 
0

>  <s_epik_input>  (285) 
W09IXVtDSDJdW0NASF0xW0NAQF0oW0NIM10pKFtDSDJdW0NIMl0yKU9bQ0BdMyhbT0hdKVtDQEBdKFtDSDJdNCkoW0NIM10pW0NAQEhdKFtPSF0pW0NIMl1bQ0BASF0oW09IXSlbQ0gyXVtDQEhdNVtDQF0zKFtPSF0pW0NAXTIoW09IXSlbQ0BdMShbQ0gzXSlbQ0gyXVtDQEhdKE82KVtDQEBdNDU2

>  <s_epik_cmdline>  (285) 
J2VwaWtfcHl0aG9uJywgJy1waHQnLCAnMi4wJywgJy1waCcsICc3LjAnLCAnLXRuJywgJzgnLCAnLW1hJywgJzIwMCcsICctaW1hZScsICc8aW5maWxlLm1hZT4nLCAnLW9tYWUnLCAnPG91dGZpbGUubWFlPic=

>  <r_lp_tautomer_probability>  (285) 
1

>  <r_epik_Ionization_Penalty>  (285) 
1.87833e-06

>  <r_epik_Ionization_Penalty_Charging>  (285) 
0

>  <r_epik_Ionization_Penalty_Neutral>  (285) 
1.87833e-06

>  <r_epik_State_Penalty>  (285) 
-0

>  <r_epik_Charging_Adjusted_Penalty>  (285) 
0

>  <i_epik_Tot_Q>  (285) 
0

>  <i_epik_Tot_abs_Q>  (285) 
0

>  <s_lp_Force_Field>  (285) 
OPLS3e

>  <r_lp_Energy>  (285) 
105.093

>  <b_lp_Chiralities_Consistent>  (285) 
1

>  <s_lp_Variant>  (285) 
115:0-1

>  <s_i_glide_gridfile>  (285) 
pfpi4k_grid

>  <i_i_glide_lignum>  (285) 
37

>  <i_i_glide_rotatable_bonds>  (285) 
7

>  <r_i_docking_score>  (285) 
-2.99291

>  <r_i_glide_ligand_efficiency>  (285) 
-0.0997636

>  <r_i_glide_ligand_efficiency_sa>  (285) 
-0.309989

>  <r_i_glide_ligand_efficiency_ln>  (285) 
-0.680021

>  <r_i_glide_gscore>  (285) 
-2.99291

>  <r_i_glide_lipo>  (285) 
-0.0555394

>  <r_i_glide_hbond>  (285) 
-0.311446

>  <r_i_glide_metal>  (285) 
-0

>  <r_i_glide_rewards>  (285) 
-0.501133

>  <r_i_glide_evdw>  (285) 
-17.2921

>  <r_i_glide_ecoul>  (285) 
-9.10815

>  <r_i_glide_erotb>  (285) 
0.109106

>  <r_i_glide_esite>  (285) 
-0.00306791

>  <r_i_glide_emodel>  (285) 
-31.6119

>  <r_i_glide_energy>  (285) 
-26.4002

>  <r_i_glide_einternal>  (285) 
1.37681

>  <r_i_glide_intrahb_reward>  (285) 
-0

>  <i_i_glide_confnum>  (285) 
1

>  <i_i_glide_posenum>  (285) 
19

>  <r_i_glide_eff_state_penalty>  (285) 
0

>  <ligand_id>  (285) 
115

>  <original_smiles>  (285) 
CC12CCC3(O)C(C)(CC4OC45CC4(C)C(O)CC(O)CC5C3(O)C4(O)O1)C2CO

>  <smiles>  (285) 
[H]OC([H])([H])C1([H])C2(C([H])([H])[H])OC3(O[H])C4(O[H])C5([H])C([H])([H])C([H])(O[H])C([H])([H])C([H])(O[H])C3(C([H])([H])[H])C([H])([H])C53OC3([H])C([H])([H])C1(C([H])([H])[H])C4(O[H])C([H])([H])C2([H])[H]

$$$$
115:0:2
     RDKit          3D

 64 69  0  0  1  0  0  0  0  0999 V2000
    3.5385    0.1762    7.4454 C   0  0  0  0  0  0  0  0  0  0  0  0
    3.0174    0.2147    5.9963 C   0  0  2  0  0  0  0  0  0  0  0  0
    4.0102    1.0106    5.1207 C   0  0  0  0  0  0  0  0  0  0  0  0
    3.5691    1.0887    3.6608 C   0  0  0  0  0  0  0  0  0  0  0  0
    2.1453    0.5316    3.4364 C   0  0  1  0  0  0  0  0  0  0  0  0
    2.0306    0.5729    2.0140 O   0  0  0  0  0  0  0  0  0  0  0  0
    2.1194   -1.0217    3.9013 C   0  0  2  0  0  0  0  0  0  0  0  0
    2.9311   -1.8715    2.8580 C   0  0  0  0  0  0  0  0  0  0  0  0
    0.7061   -1.6986    3.8784 C   0  0  0  0  0  0  0  0  0  0  0  0
   -0.3087   -1.1716    4.8863 C   0  0  2  0  0  0  0  0  0  0  0  0
   -1.6702   -0.9742    4.4599 O   0  0  0  0  0  0  0  0  0  0  0  0
   -0.8981    0.1910    4.7512 C   0  0  1  0  0  0  0  0  0  0  0  0
   -1.2099    0.9562    6.0127 C   0  0  0  0  0  0  0  0  0  0  0  0
   -0.2154    2.1213    6.3027 C   0  0  2  0  0  0  0  0  0  0  0  0
    0.0620    2.0735    7.8402 C   0  0  0  0  0  0  0  0  0  0  0  0
   -0.9027    3.5215    6.0351 C   0  0  1  0  0  0  0  0  0  0  0  0
   -0.2179    4.6106    6.6287 O   0  0  0  0  0  0  0  0  0  0  0  0
   -1.2663    3.9871    4.6088 C   0  0  0  0  0  0  0  0  0  0  0  0
   -2.1725    3.0505    3.7888 C   0  0  1  0  0  0  0  0  0  0  0  0
   -2.9052    3.8496    2.8797 O   0  0  0  0  0  0  0  0  0  0  0  0
   -1.4228    2.0118    2.9412 C   0  0  0  0  0  0  0  0  0  0  0  0
   -0.4003    1.0603    3.6212 C   0  0  1  0  0  0  0  0  0  0  0  0
    1.0405    1.5700    3.9718 C   0  0  2  0  0  0  0  0  0  0  0  0
    1.2776    2.7713    3.2460 O   0  0  0  0  0  0  0  0  0  0  0  0
    1.1696    1.8721    5.5417 C   0  0  1  0  0  0  0  0  0  0  0  0
    1.9844    3.0053    5.7632 O   0  0  0  0  0  0  0  0  0  0  0  0
    1.7047    0.7482    6.1816 O   0  0  0  0  0  0  0  0  0  0  0  0
    2.7418   -1.1753    5.3651 C   0  0  1  0  0  0  0  0  0  0  0  0
    3.9379   -2.1632    5.5347 C   0  0  0  0  0  0  0  0  0  0  0  0
    3.5225   -3.5039    5.3633 O   0  0  0  0  0  0  0  0  0  0  0  0
    4.5720   -0.1679    7.5091 H   0  0  0  0  0  0  0  0  0  0  0  0
    2.9234   -0.4657    8.0771 H   0  0  0  0  0  0  0  0  0  0  0  0
    3.5123    1.1795    7.8725 H   0  0  0  0  0  0  0  0  0  0  0  0
    4.2053    2.0053    5.5222 H   0  0  0  0  0  0  0  0  0  0  0  0
    4.9877    0.5229    5.1534 H   0  0  0  0  0  0  0  0  0  0  0  0
    3.6500    2.1110    3.3069 H   0  0  0  0  0  0  0  0  0  0  0  0
    4.2864    0.5382    3.0563 H   0  0  0  0  0  0  0  0  0  0  0  0
    1.1956    0.2039    1.7618 H   0  0  0  0  0  0  0  0  0  0  0  0
    2.8733   -2.9443    3.0394 H   0  0  0  0  0  0  0  0  0  0  0  0
    3.9856   -1.6053    2.8221 H   0  0  0  0  0  0  0  0  0  0  0  0
    2.5540   -1.7665    1.8388 H   0  0  0  0  0  0  0  0  0  0  0  0
    0.2811   -1.6622    2.8808 H   0  0  0  0  0  0  0  0  0  0  0  0
    0.8058   -2.7628    4.0840 H   0  0  0  0  0  0  0  0  0  0  0  0
   -0.2180   -1.5963    5.8888 H   0  0  0  0  0  0  0  0  0  0  0  0
   -2.2414    1.2973    5.9969 H   0  0  0  0  0  0  0  0  0  0  0  0
   -1.1874    0.2398    6.8336 H   0  0  0  0  0  0  0  0  0  0  0  0
    0.8257    2.7965    8.1431 H   0  0  0  0  0  0  0  0  0  0  0  0
    0.4106    1.0962    8.1756 H   0  0  0  0  0  0  0  0  0  0  0  0
   -0.8410    2.2965    8.4126 H   0  0  0  0  0  0  0  0  0  0  0  0
   -1.8541    3.4917    6.5736 H   0  0  0  0  0  0  0  0  0  0  0  0
    0.6589    4.6263    6.2676 H   0  0  0  0  0  0  0  0  0  0  0  0
   -1.8049    4.9219    4.7434 H   0  0  0  0  0  0  0  0  0  0  0  0
   -0.3910    4.2871    4.0389 H   0  0  0  0  0  0  0  0  0  0  0  0
   -2.9129    2.5696    4.4257 H   0  0  0  0  0  0  0  0  0  0  0  0
   -3.3427    3.2745    2.2664 H   0  0  0  0  0  0  0  0  0  0  0  0
   -2.1779    1.3917    2.4547 H   0  0  0  0  0  0  0  0  0  0  0  0
   -0.9337    2.5258    2.1080 H   0  0  0  0  0  0  0  0  0  0  0  0
   -0.2885    0.3820    2.7855 H   0  0  0  0  0  0  0  0  0  0  0  0
    1.0351    2.6441    2.3352 H   0  0  0  0  0  0  0  0  0  0  0  0
    2.6762    2.9700    5.1232 H   0  0  0  0  0  0  0  0  0  0  0  0
    1.9945   -1.6185    6.0232 H   0  0  0  0  0  0  0  0  0  0  0  0
    4.7876   -1.9197    4.8951 H   0  0  0  0  0  0  0  0  0  0  0  0
    4.3229   -2.1492    6.5551 H   0  0  0  0  0  0  0  0  0  0  0  0
    3.3111   -3.6532    4.4538 H   0  0  0  0  0  0  0  0  0  0  0  0
  2  1  1  1
  1 31  1  0
  1 32  1  0
  1 33  1  0
  2 27  1  0
  2 28  1  0
  2  3  1  0
  3  4  1  0
  3 34  1  0
  3 35  1  0
  4  5  1  0
  4 36  1  0
  4 37  1  0
  5 23  1  0
  5  6  1  6
  5  7  1  0
  6 38  1  0
  7  8  1  6
  7  9  1  0
  7 28  1  0
  8 39  1  0
  8 40  1  0
  8 41  1  0
  9 10  1  0
  9 42  1  0
  9 43  1  0
 10 12  1  0
 10 11  1  0
 10 44  1  1
 12 11  1  6
 12 22  1  0
 12 13  1  0
 13 14  1  0
 13 45  1  0
 13 46  1  0
 14 25  1  0
 14 15  1  1
 14 16  1  0
 15 47  1  0
 15 48  1  0
 15 49  1  0
 16 17  1  0
 16 18  1  0
 16 50  1  1
 17 51  1  0
 18 19  1  0
 18 52  1  0
 18 53  1  0
 19 20  1  0
 19 21  1  0
 19 54  1  1
 20 55  1  0
 21 22  1  0
 21 56  1  0
 21 57  1  0
 22 23  1  0
 22 58  1  6
 23 24  1  6
 23 25  1  0
 24 59  1  0
 25 26  1  6
 25 27  1  0
 26 60  1  0
 28 29  1  0
 28 61  1  1
 29 30  1  0
 29 62  1  0
 29 63  1  0
 30 64  1  0
M  END
>  <i_m_ct_stereo_status>  (286) 
1

>  <s_m_source_file>  (286) 
/var/tmp/pbs.5076255.sched01/tmp_srbpc4z/1203xlsw0nt.sdf

>  <i_m_source_file_index>  (286) 
37

>  <i_lp_mmshare_version>  (286) 
48012

>  <i_f3d_flags>  (286) 
0

>  <s_epik_input>  (286) 
W09IXVtDSDJdW0NASF0xW0NAQF0oW0NIM10pKFtDSDJdW0NIMl0yKU9bQ0BdMyhbT0hdKVtDQEBdKFtDSDJdNCkoW0NIM10pW0NAQEhdKFtPSF0pW0NIMl1bQ0BASF0oW09IXSlbQ0gyXVtDQEhdNVtDQF0zKFtPSF0pW0NAXTIoW09IXSlbQ0BdMShbQ0gzXSlbQ0gyXVtDQEhdKE82KVtDQEBdNDU2

>  <s_epik_cmdline>  (286) 
J2VwaWtfcHl0aG9uJywgJy1waHQnLCAnMi4wJywgJy1waCcsICc3LjAnLCAnLXRuJywgJzgnLCAnLW1hJywgJzIwMCcsICctaW1hZScsICc8aW5maWxlLm1hZT4nLCAnLW9tYWUnLCAnPG91dGZpbGUubWFlPic=

>  <r_lp_tautomer_probability>  (286) 
1

>  <r_epik_Ionization_Penalty>  (286) 
1.87833e-06

>  <r_epik_Ionization_Penalty_Charging>  (286) 
0

>  <r_epik_Ionization_Penalty_Neutral>  (286) 
1.87833e-06

>  <r_epik_State_Penalty>  (286) 
-0

>  <r_epik_Charging_Adjusted_Penalty>  (286) 
0

>  <i_epik_Tot_Q>  (286) 
0

>  <i_epik_Tot_abs_Q>  (286) 
0

>  <s_lp_Force_Field>  (286) 
OPLS3e

>  <r_lp_Energy>  (286) 
105.093

>  <b_lp_Chiralities_Consistent>  (286) 
1

>  <s_lp_Variant>  (286) 
115:0-1

>  <s_i_glide_gridfile>  (286) 
pfpi4k_grid

>  <i_i_glide_lignum>  (286) 
37

>  <i_i_glide_rotatable_bonds>  (286) 
7

>  <r_i_docking_score>  (286) 
-2.49251

>  <r_i_glide_ligand_efficiency>  (286) 
-0.0830836

>  <r_i_glide_ligand_efficiency_sa>  (286) 
-0.25816

>  <r_i_glide_ligand_efficiency_ln>  (286) 
-0.566325

>  <r_i_glide_gscore>  (286) 
-2.49251

>  <r_i_glide_lipo>  (286) 
0

>  <r_i_glide_hbond>  (286) 
-0.0105633

>  <r_i_glide_metal>  (286) 
-0

>  <r_i_glide_rewards>  (286) 
-1.00113

>  <r_i_glide_evdw>  (286) 
-19.0479

>  <r_i_glide_ecoul>  (286) 
-4.25016

>  <r_i_glide_erotb>  (286) 
0.109106

>  <r_i_glide_esite>  (286) 
0

>  <r_i_glide_emodel>  (286) 
-32.8146

>  <r_i_glide_energy>  (286) 
-23.298

>  <r_i_glide_einternal>  (286) 
0.794678

>  <r_i_glide_intrahb_reward>  (286) 
-0.5

>  <i_i_glide_confnum>  (286) 
1

>  <i_i_glide_posenum>  (286) 
33

>  <r_i_glide_eff_state_penalty>  (286) 
0

>  <ligand_id>  (286) 
115

>  <original_smiles>  (286) 
CC12CCC3(O)C(C)(CC4OC45CC4(C)C(O)CC(O)CC5C3(O)C4(O)O1)C2CO

>  <smiles>  (286) 
[H]OC([H])([H])C1([H])C2(C([H])([H])[H])OC3(O[H])C4(O[H])C5([H])C([H])([H])C([H])(O[H])C([H])([H])C([H])(O[H])C3(C([H])([H])[H])C([H])([H])C53OC3([H])C([H])([H])C1(C([H])([H])[H])C4(O[H])C([H])([H])C2([H])[H]

$$$$
116:0:0
     RDKit          3D

 63 66  0  0  1  0  0  0  0  0999 V2000
   -2.7825    3.0700    7.2247 C   0  0  0  0  0  0  0  0  0  0  0  0
   -1.8689    2.3972    6.1853 C   0  0  2  0  0  0  0  0  0  0  0  0
   -1.5760    0.9424    6.5839 C   0  0  0  0  0  0  0  0  0  0  0  0
   -0.6493    0.3617    5.5566 C   0  0  0  0  0  0  0  0  0  0  0  0
    0.5650    0.8834    5.2834 C   0  0  0  0  0  0  0  0  0  0  0  0
    0.8361    1.0751    3.7979 C   0  0  1  0  0  0  0  0  0  0  0  0
    0.1192    2.3614    3.2486 C   0  0  0  0  0  0  0  0  0  0  0  0
   -0.4690    3.5323    4.1612 C   0  0  2  0  0  0  0  0  0  0  0  0
   -1.8469    3.9053    3.5326 C   0  0  0  0  0  0  0  0  0  0  0  0
    0.4155    4.8033    3.9456 C   0  0  1  0  0  0  0  0  0  0  0  0
   -0.1792    6.0132    4.3841 O   0  0  0  0  0  0  0  0  0  0  0  0
    1.7726    4.6806    4.6141 C   0  0  0  0  0  0  0  0  0  0  0  0
    1.6482    4.3386    6.1073 C   0  0  0  0  0  0  0  0  0  0  0  0
    0.7287    3.1240    6.5048 C   0  0  1  0  0  0  0  0  0  0  0  0
    0.4641    3.4101    8.0146 C   0  0  0  0  0  0  0  0  0  0  0  0
   -0.6413    3.2974    5.7283 C   0  0  2  0  0  0  0  0  0  0  0  0
    1.4035    1.6748    6.3055 C   0  0  1  0  0  0  0  0  0  0  0  0
    1.5197    0.8341    7.6243 C   0  0  0  0  0  0  0  0  0  0  0  0
    2.9144    1.7242    5.8888 C   0  0  0  0  0  0  0  0  0  0  0  0
    3.6138    0.4276    5.4112 C   0  0  0  0  0  0  0  0  0  0  0  0
    3.0952   -0.2496    4.1171 C   0  0  1  0  0  0  0  0  0  0  0  0
    2.4901   -1.6356    4.4231 C   0  0  0  0  0  0  0  0  0  0  0  0
    2.2250    0.6558    3.1928 C   0  0  1  0  0  0  0  0  0  0  0  0
    2.0477   -0.0015    1.8022 C   0  0  0  0  0  0  0  0  0  0  0  0
    2.9937    1.7996    2.8811 O   0  0  0  0  0  0  0  0  0  0  0  0
   -2.3150    3.2107    8.1968 H   0  0  0  0  0  0  0  0  0  0  0  0
   -3.6907    2.4844    7.3819 H   0  0  0  0  0  0  0  0  0  0  0  0
   -3.0844    4.0477    6.8642 H   0  0  0  0  0  0  0  0  0  0  0  0
   -2.5209    2.2825    5.3272 H   0  0  0  0  0  0  0  0  0  0  0  0
   -1.2403    0.8721    7.6095 H   0  0  0  0  0  0  0  0  0  0  0  0
   -2.5046    0.3753    6.5404 H   0  0  0  0  0  0  0  0  0  0  0  0
   -1.2116   -0.1009    4.7570 H   0  0  0  0  0  0  0  0  0  0  0  0
    0.2302    0.2830    3.3580 H   0  0  0  0  0  0  0  0  0  0  0  0
    0.7452    2.8066    2.4771 H   0  0  0  0  0  0  0  0  0  0  0  0
   -0.7052    1.9758    2.6422 H   0  0  0  0  0  0  0  0  0  0  0  0
   -2.3985    4.5792    4.1836 H   0  0  0  0  0  0  0  0  0  0  0  0
   -2.4979    3.0448    3.3560 H   0  0  0  0  0  0  0  0  0  0  0  0
   -1.7304    4.3976    2.5626 H   0  0  0  0  0  0  0  0  0  0  0  0
    0.5777    4.9552    2.8814 H   0  0  0  0  0  0  0  0  0  0  0  0
    0.2151    6.7203    3.8882 H   0  0  0  0  0  0  0  0  0  0  0  0
    2.3430    3.9606    4.0509 H   0  0  0  0  0  0  0  0  0  0  0  0
    2.3293    5.6100    4.4993 H   0  0  0  0  0  0  0  0  0  0  0  0
    2.6422    4.2318    6.5441 H   0  0  0  0  0  0  0  0  0  0  0  0
    1.2594    5.2423    6.5797 H   0  0  0  0  0  0  0  0  0  0  0  0
   -0.1972    2.6896    8.4914 H   0  0  0  0  0  0  0  0  0  0  0  0
   -0.0194    4.3791    8.1542 H   0  0  0  0  0  0  0  0  0  0  0  0
    1.3886    3.4408    8.5951 H   0  0  0  0  0  0  0  0  0  0  0  0
   -0.9702    4.2805    6.0550 H   0  0  0  0  0  0  0  0  0  0  0  0
    2.2675    1.2421    8.3034 H   0  0  0  0  0  0  0  0  0  0  0  0
    1.8188   -0.1909    7.4088 H   0  0  0  0  0  0  0  0  0  0  0  0
    0.6325    0.7360    8.2300 H   0  0  0  0  0  0  0  0  0  0  0  0
    3.1164    2.4643    5.1399 H   0  0  0  0  0  0  0  0  0  0  0  0
    3.5003    2.1003    6.7279 H   0  0  0  0  0  0  0  0  0  0  0  0
    4.6487    0.7107    5.2181 H   0  0  0  0  0  0  0  0  0  0  0  0
    3.6904   -0.2953    6.2224 H   0  0  0  0  0  0  0  0  0  0  0  0
    3.9920   -0.4822    3.5432 H   0  0  0  0  0  0  0  0  0  0  0  0
    1.5919   -1.5725    5.0340 H   0  0  0  0  0  0  0  0  0  0  0  0
    3.2063   -2.2562    4.9660 H   0  0  0  0  0  0  0  0  0  0  0  0
    2.2404   -2.1834    3.5145 H   0  0  0  0  0  0  0  0  0  0  0  0
    1.4486   -0.9128    1.8331 H   0  0  0  0  0  0  0  0  0  0  0  0
    3.0028   -0.2721    1.3513 H   0  0  0  0  0  0  0  0  0  0  0  0
    1.5455    0.6714    1.1047 H   0  0  0  0  0  0  0  0  0  0  0  0
    3.7904    1.5581    2.4454 H   0  0  0  0  0  0  0  0  0  0  0  0
  1  2  1  0
  1 26  1  0
  1 27  1  0
  1 28  1  0
  2 16  1  0
  2  3  1  0
  2 29  1  6
  3  4  1  0
  3 30  1  0
  3 31  1  0
  4  5  2  0
  4 32  1  0
  5 17  1  0
  5  6  1  0
  6 23  1  0
  6  7  1  0
  6 33  1  6
  7  8  1  0
  7 34  1  0
  7 35  1  0
  8 16  1  0
  8  9  1  6
  8 10  1  0
  9 36  1  0
  9 37  1  0
  9 38  1  0
 10 11  1  0
 10 12  1  0
 10 39  1  6
 11 40  1  0
 12 13  1  0
 12 41  1  0
 12 42  1  0
 13 14  1  0
 13 43  1  0
 13 44  1  0
 14 15  1  1
 14 16  1  0
 14 17  1  0
 15 45  1  0
 15 46  1  0
 15 47  1  0
 16 48  1  1
 17 18  1  1
 17 19  1  0
 18 49  1  0
 18 50  1  0
 18 51  1  0
 19 20  1  0
 19 52  1  0
 19 53  1  0
 20 21  1  0
 20 54  1  0
 20 55  1  0
 21 22  1  0
 21 23  1  0
 21 56  1  6
 22 57  1  0
 22 58  1  0
 22 59  1  0
 23 24  1  0
 23 25  1  6
 24 60  1  0
 24 61  1  0
 24 62  1  0
 25 63  1  0
M  END
>  <i_m_ct_stereo_status>  (287) 
1

>  <s_m_source_file>  (287) 
/var/tmp/pbs.5076255.sched01/tmp_srbpc4z/1203xlsw0nt.sdf

>  <i_m_source_file_index>  (287) 
38

>  <i_lp_mmshare_version>  (287) 
48012

>  <i_f3d_flags>  (287) 
0

>  <s_epik_input>  (287) 
W0NIMl0xW0NIMl1bQ0BASF0oW0NIM10pW0NAXShbQ0gzXSkoW09IXSlbQ0BIXShbQ0gyXTIpQyg9W0NIXVtDSDJdW0NASF0zW0NIM10pW0NAXTEoW0NIM10pW0NAXShbQ0gzXSkoW0NASF0zW0NAXTI0W0NIM10pW0NIMl1bQ0gyXVtDQEBIXTRbT0hd

>  <s_epik_cmdline>  (287) 
J2VwaWtfcHl0aG9uJywgJy1waHQnLCAnMi4wJywgJy1waCcsICc3LjAnLCAnLXRuJywgJzgnLCAnLW1hJywgJzIwMCcsICctaW1hZScsICc8aW5maWxlLm1hZT4nLCAnLW9tYWUnLCAnPG91dGZpbGUubWFlPic=

>  <r_lp_tautomer_probability>  (287) 
1

>  <r_epik_Ionization_Penalty>  (287) 
4.36695e-06

>  <r_epik_Ionization_Penalty_Charging>  (287) 
0

>  <r_epik_Ionization_Penalty_Neutral>  (287) 
4.36695e-06

>  <r_epik_State_Penalty>  (287) 
-0

>  <r_epik_Charging_Adjusted_Penalty>  (287) 
0

>  <i_epik_Tot_Q>  (287) 
0

>  <i_epik_Tot_abs_Q>  (287) 
0

>  <s_lp_Force_Field>  (287) 
OPLS3e

>  <r_lp_Energy>  (287) 
122.135

>  <b_lp_Chiralities_Consistent>  (287) 
1

>  <s_lp_Variant>  (287) 
116:0-1

>  <s_i_glide_gridfile>  (287) 
pfpi4k_grid

>  <i_i_glide_lignum>  (287) 
38

>  <i_i_glide_rotatable_bonds>  (287) 
2

>  <r_i_docking_score>  (287) 
-3.12912

>  <r_i_glide_ligand_efficiency>  (287) 
-0.125165

>  <r_i_glide_ligand_efficiency_sa>  (287) 
-0.365984

>  <r_i_glide_ligand_efficiency_ln>  (287) 
-0.741695

>  <r_i_glide_gscore>  (287) 
-3.12912

>  <r_i_glide_lipo>  (287) 
-0.193047

>  <r_i_glide_hbond>  (287) 
-0.19437

>  <r_i_glide_metal>  (287) 
-0

>  <r_i_glide_rewards>  (287) 
-1.04627

>  <r_i_glide_evdw>  (287) 
-20.3849

>  <r_i_glide_ecoul>  (287) 
-4.50788

>  <r_i_glide_erotb>  (287) 
0

>  <r_i_glide_esite>  (287) 
0

>  <r_i_glide_emodel>  (287) 
-29.6503

>  <r_i_glide_energy>  (287) 
-24.8928

>  <r_i_glide_einternal>  (287) 
0.671808

>  <r_i_glide_intrahb_reward>  (287) 
-0

>  <i_i_glide_confnum>  (287) 
2

>  <i_i_glide_posenum>  (287) 
21

>  <r_i_glide_eff_state_penalty>  (287) 
0

>  <ligand_id>  (287) 
116

>  <original_smiles>  (287) 
CC1CC=C2C3CC4(C)C(O)CCC(C)(C14)C2(C)CCC(C)C3(C)O

>  <smiles>  (287) 
[H]OC1([H])C([H])([H])C([H])([H])C2(C([H])([H])[H])C3([H])C([H])(C([H])([H])[H])C([H])([H])C([H])=C4C([H])(C([H])([H])C13C([H])([H])[H])C(O[H])(C([H])([H])[H])C([H])(C([H])([H])[H])C([H])([H])C([H])([H])C42C([H])([H])[H]

$$$$
116:0:1
     RDKit          3D

 63 66  0  0  1  0  0  0  0  0999 V2000
   -2.8578    2.9357    7.1378 C   0  0  0  0  0  0  0  0  0  0  0  0
   -1.9407    2.2632    6.0997 C   0  0  2  0  0  0  0  0  0  0  0  0
   -1.6798    0.7940    6.4740 C   0  0  0  0  0  0  0  0  0  0  0  0
   -0.7568    0.2095    5.4440 C   0  0  0  0  0  0  0  0  0  0  0  0
    0.4736    0.7123    5.1945 C   0  0  0  0  0  0  0  0  0  0  0  0
    0.7658    0.9336    3.7172 C   0  0  1  0  0  0  0  0  0  0  0  0
    0.0822    2.2430    3.1833 C   0  0  0  0  0  0  0  0  0  0  0  0
   -0.4965    3.4092    4.1103 C   0  0  2  0  0  0  0  0  0  0  0  0
   -1.8586    3.8336    3.4797 C   0  0  0  0  0  0  0  0  0  0  0  0
    0.4168    4.6669    3.9383 C   0  0  1  0  0  0  0  0  0  0  0  0
   -0.1768    5.8753    4.3886 O   0  0  0  0  0  0  0  0  0  0  0  0
    1.7630    4.5047    4.6225 C   0  0  0  0  0  0  0  0  0  0  0  0
    1.6198    4.1282    6.1080 C   0  0  0  0  0  0  0  0  0  0  0  0
    0.6686    2.9264    6.4688 C   0  0  1  0  0  0  0  0  0  0  0  0
    0.3883    3.1875    7.9803 C   0  0  0  0  0  0  0  0  0  0  0  0
   -0.6897    3.1469    5.6760 C   0  0  2  0  0  0  0  0  0  0  0  0
    1.3150    1.4662    6.2422 C   0  0  1  0  0  0  0  0  0  0  0  0
    1.3962    0.5954    7.5447 C   0  0  0  0  0  0  0  0  0  0  0  0
    2.8335    1.4947    5.8507 C   0  0  0  0  0  0  0  0  0  0  0  0
    3.5102    0.1941    5.3536 C   0  0  0  0  0  0  0  0  0  0  0  0
    2.9901   -0.4451    4.0385 C   0  0  1  0  0  0  0  0  0  0  0  0
    2.3550   -1.8258    4.3050 C   0  0  0  0  0  0  0  0  0  0  0  0
    2.1515    0.4973    3.1210 C   0  0  1  0  0  0  0  0  0  0  0  0
    1.9852   -0.1237    1.7133 C   0  0  0  0  0  0  0  0  0  0  0  0
    2.9583    1.6147    2.8329 O   0  0  0  0  0  0  0  0  0  0  0  0
   -2.3961    3.0491    8.1173 H   0  0  0  0  0  0  0  0  0  0  0  0
   -3.7731    2.3579    7.2774 H   0  0  0  0  0  0  0  0  0  0  0  0
   -3.1480    3.9238    6.7904 H   0  0  0  0  0  0  0  0  0  0  0  0
   -2.5804    2.1773    5.2285 H   0  0  0  0  0  0  0  0  0  0  0  0
   -1.3553    0.6953    7.4988 H   0  0  0  0  0  0  0  0  0  0  0  0
   -2.6159    0.2380    6.4209 H   0  0  0  0  0  0  0  0  0  0  0  0
   -1.3175   -0.2194    4.6256 H   0  0  0  0  0  0  0  0  0  0  0  0
    0.1514    0.1649    3.2522 H   0  0  0  0  0  0  0  0  0  0  0  0
    0.7239    2.6950    2.4287 H   0  0  0  0  0  0  0  0  0  0  0  0
   -0.7441    1.8902    2.5624 H   0  0  0  0  0  0  0  0  0  0  0  0
   -2.3959    4.5260    4.1289 H   0  0  0  0  0  0  0  0  0  0  0  0
   -2.5251    2.9925    3.2826 H   0  0  0  0  0  0  0  0  0  0  0  0
   -1.7129    4.3326    2.5182 H   0  0  0  0  0  0  0  0  0  0  0  0
    0.6008    4.8391    2.8804 H   0  0  0  0  0  0  0  0  0  0  0  0
    0.2381    6.5922    3.9229 H   0  0  0  0  0  0  0  0  0  0  0  0
    2.3310    3.7850    4.0554 H   0  0  0  0  0  0  0  0  0  0  0  0
    2.3414    5.4221    4.5367 H   0  0  0  0  0  0  0  0  0  0  0  0
    2.6056    3.9938    6.5544 H   0  0  0  0  0  0  0  0  0  0  0  0
    1.2424    5.0307    6.5916 H   0  0  0  0  0  0  0  0  0  0  0  0
   -0.2923    2.4699    8.4307 H   0  0  0  0  0  0  0  0  0  0  0  0
   -0.0764    4.1629    8.1341 H   0  0  0  0  0  0  0  0  0  0  0  0
    1.3058    3.1831    8.5708 H   0  0  0  0  0  0  0  0  0  0  0  0
   -1.0018    4.1322    6.0215 H   0  0  0  0  0  0  0  0  0  0  0  0
    2.1425    0.9728    8.2439 H   0  0  0  0  0  0  0  0  0  0  0  0
    1.6759   -0.4313    7.3127 H   0  0  0  0  0  0  0  0  0  0  0  0
    0.5021    0.5041    8.1405 H   0  0  0  0  0  0  0  0  0  0  0  0
    3.0606    2.2457    5.1193 H   0  0  0  0  0  0  0  0  0  0  0  0
    3.4161    1.8394    6.7056 H   0  0  0  0  0  0  0  0  0  0  0  0
    4.5539    0.4574    5.1769 H   0  0  0  0  0  0  0  0  0  0  0  0
    3.5609   -0.5491    6.1486 H   0  0  0  0  0  0  0  0  0  0  0  0
    3.8913   -0.6775    3.4677 H   0  0  0  0  0  0  0  0  0  0  0  0
    1.4508   -1.7559    4.9058 H   0  0  0  0  0  0  0  0  0  0  0  0
    3.0535   -2.4686    4.8429 H   0  0  0  0  0  0  0  0  0  0  0  0
    2.1077   -2.3464    3.3806 H   0  0  0  0  0  0  0  0  0  0  0  0
    1.3712   -1.0242    1.7230 H   0  0  0  0  0  0  0  0  0  0  0  0
    2.9475   -0.3995    1.2778 H   0  0  0  0  0  0  0  0  0  0  0  0
    1.5057    0.5706    1.0203 H   0  0  0  0  0  0  0  0  0  0  0  0
    2.4842    2.1763    2.2385 H   0  0  0  0  0  0  0  0  0  0  0  0
  1  2  1  0
  1 26  1  0
  1 27  1  0
  1 28  1  0
  2 16  1  0
  2  3  1  0
  2 29  1  6
  3  4  1  0
  3 30  1  0
  3 31  1  0
  4  5  2  0
  4 32  1  0
  5 17  1  0
  5  6  1  0
  6 23  1  0
  6  7  1  0
  6 33  1  6
  7  8  1  0
  7 34  1  0
  7 35  1  0
  8 16  1  0
  8  9  1  6
  8 10  1  0
  9 36  1  0
  9 37  1  0
  9 38  1  0
 10 11  1  0
 10 12  1  0
 10 39  1  6
 11 40  1  0
 12 13  1  0
 12 41  1  0
 12 42  1  0
 13 14  1  0
 13 43  1  0
 13 44  1  0
 14 15  1  1
 14 16  1  0
 14 17  1  0
 15 45  1  0
 15 46  1  0
 15 47  1  0
 16 48  1  1
 17 18  1  1
 17 19  1  0
 18 49  1  0
 18 50  1  0
 18 51  1  0
 19 20  1  0
 19 52  1  0
 19 53  1  0
 20 21  1  0
 20 54  1  0
 20 55  1  0
 21 22  1  0
 21 23  1  0
 21 56  1  6
 22 57  1  0
 22 58  1  0
 22 59  1  0
 23 24  1  0
 23 25  1  6
 24 60  1  0
 24 61  1  0
 24 62  1  0
 25 63  1  0
M  END
>  <i_m_ct_stereo_status>  (288) 
1

>  <s_m_source_file>  (288) 
/var/tmp/pbs.5076255.sched01/tmp_srbpc4z/1203xlsw0nt.sdf

>  <i_m_source_file_index>  (288) 
38

>  <i_lp_mmshare_version>  (288) 
48012

>  <i_f3d_flags>  (288) 
0

>  <s_epik_input>  (288) 
W0NIMl0xW0NIMl1bQ0BASF0oW0NIM10pW0NAXShbQ0gzXSkoW09IXSlbQ0BIXShbQ0gyXTIpQyg9W0NIXVtDSDJdW0NASF0zW0NIM10pW0NAXTEoW0NIM10pW0NAXShbQ0gzXSkoW0NASF0zW0NAXTI0W0NIM10pW0NIMl1bQ0gyXVtDQEBIXTRbT0hd

>  <s_epik_cmdline>  (288) 
J2VwaWtfcHl0aG9uJywgJy1waHQnLCAnMi4wJywgJy1waCcsICc3LjAnLCAnLXRuJywgJzgnLCAnLW1hJywgJzIwMCcsICctaW1hZScsICc8aW5maWxlLm1hZT4nLCAnLW9tYWUnLCAnPG91dGZpbGUubWFlPic=

>  <r_lp_tautomer_probability>  (288) 
1

>  <r_epik_Ionization_Penalty>  (288) 
4.36695e-06

>  <r_epik_Ionization_Penalty_Charging>  (288) 
0

>  <r_epik_Ionization_Penalty_Neutral>  (288) 
4.36695e-06

>  <r_epik_State_Penalty>  (288) 
-0

>  <r_epik_Charging_Adjusted_Penalty>  (288) 
0

>  <i_epik_Tot_Q>  (288) 
0

>  <i_epik_Tot_abs_Q>  (288) 
0

>  <s_lp_Force_Field>  (288) 
OPLS3e

>  <r_lp_Energy>  (288) 
122.135

>  <b_lp_Chiralities_Consistent>  (288) 
1

>  <s_lp_Variant>  (288) 
116:0-1

>  <s_i_glide_gridfile>  (288) 
pfpi4k_grid

>  <i_i_glide_lignum>  (288) 
38

>  <i_i_glide_rotatable_bonds>  (288) 
2

>  <r_i_docking_score>  (288) 
-2.7262

>  <r_i_glide_ligand_efficiency>  (288) 
-0.109048

>  <r_i_glide_ligand_efficiency_sa>  (288) 
-0.318859

>  <r_i_glide_ligand_efficiency_ln>  (288) 
-0.646192

>  <r_i_glide_gscore>  (288) 
-2.7262

>  <r_i_glide_lipo>  (288) 
-0.196888

>  <r_i_glide_hbond>  (288) 
-0.00755404

>  <r_i_glide_metal>  (288) 
-0

>  <r_i_glide_rewards>  (288) 
-1.04627

>  <r_i_glide_evdw>  (288) 
-21.1363

>  <r_i_glide_ecoul>  (288) 
-2.79116

>  <r_i_glide_erotb>  (288) 
0

>  <r_i_glide_esite>  (288) 
0

>  <r_i_glide_emodel>  (288) 
-28.0053

>  <r_i_glide_energy>  (288) 
-23.9274

>  <r_i_glide_einternal>  (288) 
0.720428

>  <r_i_glide_intrahb_reward>  (288) 
-0

>  <i_i_glide_confnum>  (288) 
2

>  <i_i_glide_posenum>  (288) 
7

>  <r_i_glide_eff_state_penalty>  (288) 
0

>  <ligand_id>  (288) 
116

>  <original_smiles>  (288) 
CC1CC=C2C3CC4(C)C(O)CCC(C)(C14)C2(C)CCC(C)C3(C)O

>  <smiles>  (288) 
[H]OC1([H])C([H])([H])C([H])([H])C2(C([H])([H])[H])C3([H])C([H])(C([H])([H])[H])C([H])([H])C([H])=C4C([H])(C([H])([H])C13C([H])([H])[H])C(O[H])(C([H])([H])[H])C([H])(C([H])([H])[H])C([H])([H])C([H])([H])C42C([H])([H])[H]

$$$$
116:0:2
     RDKit          3D

 63 66  0  0  1  0  0  0  0  0999 V2000
   -1.8048    3.4388    3.6796 C   0  0  0  0  0  0  0  0  0  0  0  0
   -0.5714    2.5589    3.3853 C   0  0  2  0  0  0  0  0  0  0  0  0
   -0.9786    1.2602    2.6627 C   0  0  0  0  0  0  0  0  0  0  0  0
    0.2702    0.4591    2.4331 C   0  0  0  0  0  0  0  0  0  0  0  0
    1.0713    0.0367    3.4369 C   0  0  0  0  0  0  0  0  0  0  0  0
    2.5525    0.3157    3.2124 C   0  0  1  0  0  0  0  0  0  0  0  0
    2.9030    1.8182    3.5055 C   0  0  0  0  0  0  0  0  0  0  0  0
    1.9680    2.8349    4.3059 C   0  0  2  0  0  0  0  0  0  0  0  0
    2.0204    4.1902    3.5325 C   0  0  0  0  0  0  0  0  0  0  0  0
    2.6590    3.1459    5.6699 C   0  0  1  0  0  0  0  0  0  0  0  0
    2.1171    4.2797    6.3244 O   0  0  0  0  0  0  0  0  0  0  0  0
    2.5880    1.9786    6.6388 C   0  0  0  0  0  0  0  0  0  0  0  0
    1.1439    1.4868    6.8551 C   0  0  0  0  0  0  0  0  0  0  0  0
    0.2734    1.1966    5.5788 C   0  0  1  0  0  0  0  0  0  0  0  0
   -1.1717    1.2452    6.1593 C   0  0  0  0  0  0  0  0  0  0  0  0
    0.4446    2.4378    4.5996 C   0  0  2  0  0  0  0  0  0  0  0  0
    0.5731   -0.2219    4.8739 C   0  0  1  0  0  0  0  0  0  0  0  0
   -0.6712   -1.1761    4.8122 C   0  0  0  0  0  0  0  0  0  0  0  0
    1.5664   -1.1350    5.6731 C   0  0  0  0  0  0  0  0  0  0  0  0
    2.1419   -2.4013    4.9923 C   0  0  0  0  0  0  0  0  0  0  0  0
    3.0299   -2.2222    3.7323 C   0  0  1  0  0  0  0  0  0  0  0  0
    2.3517   -2.8294    2.4848 C   0  0  0  0  0  0  0  0  0  0  0  0
    3.6231   -0.7933    3.5261 C   0  0  1  0  0  0  0  0  0  0  0  0
    4.7359   -0.8165    2.4498 C   0  0  0  0  0  0  0  0  0  0  0  0
    4.3768   -0.4782    4.6791 O   0  0  0  0  0  0  0  0  0  0  0  0
   -2.4795    2.9970    4.4112 H   0  0  0  0  0  0  0  0  0  0  0  0
   -2.3772    3.5983    2.7662 H   0  0  0  0  0  0  0  0  0  0  0  0
   -1.5042    4.4210    4.0466 H   0  0  0  0  0  0  0  0  0  0  0  0
   -0.0586    3.1057    2.6030 H   0  0  0  0  0  0  0  0  0  0  0  0
   -1.7800    0.7482    3.1712 H   0  0  0  0  0  0  0  0  0  0  0  0
   -1.3918    1.5010    1.6815 H   0  0  0  0  0  0  0  0  0  0  0  0
    0.7087    0.7030    1.4743 H   0  0  0  0  0  0  0  0  0  0  0  0
    2.6153    0.2843    2.1255 H   0  0  0  0  0  0  0  0  0  0  0  0
    3.9124    1.8696    3.9117 H   0  0  0  0  0  0  0  0  0  0  0  0
    3.0463    2.2508    2.5141 H   0  0  0  0  0  0  0  0  0  0  0  0
    1.2918    4.9045    3.9177 H   0  0  0  0  0  0  0  0  0  0  0  0
    1.8170    4.0825    2.4664 H   0  0  0  0  0  0  0  0  0  0  0  0
    3.0046    4.6570    3.5999 H   0  0  0  0  0  0  0  0  0  0  0  0
    3.7109    3.3881    5.5013 H   0  0  0  0  0  0  0  0  0  0  0  0
    2.2277    5.0283    5.7597 H   0  0  0  0  0  0  0  0  0  0  0  0
    3.2552    1.2131    6.2722 H   0  0  0  0  0  0  0  0  0  0  0  0
    3.0172    2.2699    7.5960 H   0  0  0  0  0  0  0  0  0  0  0  0
    1.1419    0.6384    7.5372 H   0  0  0  0  0  0  0  0  0  0  0  0
    0.6651    2.2793    7.4337 H   0  0  0  0  0  0  0  0  0  0  0  0
   -1.9467    1.0954    5.4144 H   0  0  0  0  0  0  0  0  0  0  0  0
   -1.3845    2.2155    6.6092 H   0  0  0  0  0  0  0  0  0  0  0  0
   -1.3145    0.5010    6.9419 H   0  0  0  0  0  0  0  0  0  0  0  0
    0.1196    3.2723    5.2224 H   0  0  0  0  0  0  0  0  0  0  0  0
   -0.9423   -1.5638    5.7931 H   0  0  0  0  0  0  0  0  0  0  0  0
   -0.4707   -2.0383    4.1777 H   0  0  0  0  0  0  0  0  0  0  0  0
   -1.5912   -0.7667    4.4249 H   0  0  0  0  0  0  0  0  0  0  0  0
    2.4050   -0.5946    6.0628 H   0  0  0  0  0  0  0  0  0  0  0  0
    1.0784   -1.4722    6.5886 H   0  0  0  0  0  0  0  0  0  0  0  0
    2.7657   -2.8839    5.7458 H   0  0  0  0  0  0  0  0  0  0  0  0
    1.3562   -3.1328    4.8047 H   0  0  0  0  0  0  0  0  0  0  0  0
    3.8902   -2.8739    3.9013 H   0  0  0  0  0  0  0  0  0  0  0  0
    1.4416   -2.3003    2.2079 H   0  0  0  0  0  0  0  0  0  0  0  0
    2.0800   -3.8694    2.6666 H   0  0  0  0  0  0  0  0  0  0  0  0
    3.0131   -2.8323    1.6201 H   0  0  0  0  0  0  0  0  0  0  0  0
    4.3527   -1.0388    1.4533 H   0  0  0  0  0  0  0  0  0  0  0  0
    5.4983   -1.5631    2.6808 H   0  0  0  0  0  0  0  0  0  0  0  0
    5.2423    0.1458    2.3899 H   0  0  0  0  0  0  0  0  0  0  0  0
    3.7782   -0.4363    5.4084 H   0  0  0  0  0  0  0  0  0  0  0  0
  1  2  1  0
  1 26  1  0
  1 27  1  0
  1 28  1  0
  2 16  1  0
  2  3  1  0
  2 29  1  6
  3  4  1  0
  3 30  1  0
  3 31  1  0
  4  5  2  0
  4 32  1  0
  5 17  1  0
  5  6  1  0
  6 23  1  0
  6  7  1  0
  6 33  1  6
  7  8  1  0
  7 34  1  0
  7 35  1  0
  8 16  1  0
  8  9  1  6
  8 10  1  0
  9 36  1  0
  9 37  1  0
  9 38  1  0
 10 11  1  0
 10 12  1  0
 10 39  1  6
 11 40  1  0
 12 13  1  0
 12 41  1  0
 12 42  1  0
 13 14  1  0
 13 43  1  0
 13 44  1  0
 14 15  1  1
 14 16  1  0
 14 17  1  0
 15 45  1  0
 15 46  1  0
 15 47  1  0
 16 48  1  1
 17 18  1  6
 17 19  1  0
 18 49  1  0
 18 50  1  0
 18 51  1  0
 19 20  1  0
 19 52  1  0
 19 53  1  0
 20 21  1  0
 20 54  1  0
 20 55  1  0
 21 22  1  0
 21 23  1  0
 21 56  1  1
 22 57  1  0
 22 58  1  0
 22 59  1  0
 23 24  1  0
 23 25  1  1
 24 60  1  0
 24 61  1  0
 24 62  1  0
 25 63  1  0
M  END
>  <i_m_ct_stereo_status>  (289) 
1

>  <s_m_source_file>  (289) 
/var/tmp/pbs.5076255.sched01/tmp_srbpc4z/1203xlsw0nt.sdf

>  <i_m_source_file_index>  (289) 
38

>  <i_lp_mmshare_version>  (289) 
48012

>  <i_f3d_flags>  (289) 
0

>  <s_epik_input>  (289) 
W0NIMl0xW0NIMl1bQ0BASF0oW0NIM10pW0NAXShbQ0gzXSkoW09IXSlbQ0BIXShbQ0gyXTIpQyg9W0NIXVtDSDJdW0NASF0zW0NIM10pW0NAXTEoW0NIM10pW0NAXShbQ0gzXSkoW0NASF0zW0NAXTI0W0NIM10pW0NIMl1bQ0gyXVtDQEBIXTRbT0hd

>  <s_epik_cmdline>  (289) 
J2VwaWtfcHl0aG9uJywgJy1waHQnLCAnMi4wJywgJy1waCcsICc3LjAnLCAnLXRuJywgJzgnLCAnLW1hJywgJzIwMCcsICctaW1hZScsICc8aW5maWxlLm1hZT4nLCAnLW9tYWUnLCAnPG91dGZpbGUubWFlPic=

>  <r_lp_tautomer_probability>  (289) 
1

>  <r_epik_Ionization_Penalty>  (289) 
4.36695e-06

>  <r_epik_Ionization_Penalty_Charging>  (289) 
0

>  <r_epik_Ionization_Penalty_Neutral>  (289) 
4.36695e-06

>  <r_epik_State_Penalty>  (289) 
-0

>  <r_epik_Charging_Adjusted_Penalty>  (289) 
0

>  <i_epik_Tot_Q>  (289) 
0

>  <i_epik_Tot_abs_Q>  (289) 
0

>  <s_lp_Force_Field>  (289) 
OPLS3e

>  <r_lp_Energy>  (289) 
122.135

>  <b_lp_Chiralities_Consistent>  (289) 
1

>  <s_lp_Variant>  (289) 
116:0-1

>  <s_i_glide_gridfile>  (289) 
pfpi4k_grid

>  <i_i_glide_lignum>  (289) 
38

>  <i_i_glide_rotatable_bonds>  (289) 
2

>  <r_i_docking_score>  (289) 
-2.41307

>  <r_i_glide_ligand_efficiency>  (289) 
-0.0965229

>  <r_i_glide_ligand_efficiency_sa>  (289) 
-0.282235

>  <r_i_glide_ligand_efficiency_ln>  (289) 
-0.57197

>  <r_i_glide_gscore>  (289) 
-2.41307

>  <r_i_glide_lipo>  (289) 
-0.0975809

>  <r_i_glide_hbond>  (289) 
0

>  <r_i_glide_metal>  (289) 
-0

>  <r_i_glide_rewards>  (289) 
-1.04627

>  <r_i_glide_evdw>  (289) 
-23.2907

>  <r_i_glide_ecoul>  (289) 
-0.697883

>  <r_i_glide_erotb>  (289) 
0

>  <r_i_glide_esite>  (289) 
0

>  <r_i_glide_emodel>  (289) 
-27.8871

>  <r_i_glide_energy>  (289) 
-23.9886

>  <r_i_glide_einternal>  (289) 
0.335858

>  <r_i_glide_intrahb_reward>  (289) 
-0

>  <i_i_glide_confnum>  (289) 
2

>  <i_i_glide_posenum>  (289) 
3

>  <r_i_glide_eff_state_penalty>  (289) 
0

>  <ligand_id>  (289) 
116

>  <original_smiles>  (289) 
CC1CC=C2C3CC4(C)C(O)CCC(C)(C14)C2(C)CCC(C)C3(C)O

>  <smiles>  (289) 
[H]OC1([H])C([H])([H])C([H])([H])C2(C([H])([H])[H])C3([H])C([H])(C([H])([H])[H])C([H])([H])C([H])=C4C([H])(C([H])([H])C13C([H])([H])[H])C(O[H])(C([H])([H])[H])C([H])(C([H])([H])[H])C([H])([H])C([H])([H])C42C([H])([H])[H]

$$$$
117:0:0
     RDKit          3D

 63 69  0  0  1  0  0  0  0  0999 V2000
   -0.0510   -8.1069    2.8737 C   0  0  0  0  0  0  0  0  0  0  0  0
    1.2432   -7.3502    2.6061 C   0  0  1  0  0  0  0  0  0  0  0  0
    2.2050   -8.2648    2.1346 O   0  0  0  0  0  0  0  0  0  0  0  0
    0.9995   -6.2453    1.6914 O   0  0  0  0  0  0  0  0  0  0  0  0
    1.4041   -5.2837    2.7132 C   0  0  1  0  0  0  0  0  0  0  0  0
    1.7654   -6.3941    3.6886 C   0  0  2  0  0  0  0  0  0  0  0  0
    3.1884   -6.4741    4.2254 C   0  0  0  0  0  0  0  0  0  0  0  0
    3.6193   -5.2379    5.0484 C   0  0  0  0  0  0  0  0  0  0  0  0
    2.8161   -3.9291    4.8231 C   0  0  1  0  0  0  0  0  0  0  0  0
    3.2039   -3.0392    5.8524 O   0  0  0  0  0  0  0  0  0  0  0  0
    2.8958   -3.2371    3.4112 C   0  0  1  0  0  0  0  0  0  0  0  0
    1.8937   -2.0533    3.4461 C   0  0  0  0  0  0  0  0  0  0  0  0
    4.3570   -2.6191    3.2666 C   0  0  0  0  0  0  0  0  0  0  0  0
    4.7839   -1.9493    1.9320 C   0  0  1  0  0  0  0  0  0  0  0  0
    5.8178   -0.8143    2.0328 C   0  0  0  0  0  0  0  0  0  0  0  0
    6.4216   -0.6853    0.6267 C   0  0  0  0  0  0  0  0  0  0  0  0
    5.7759   -1.7803   -0.2342 C   0  0  2  0  0  0  0  0  0  0  0  0
    6.7185   -2.2549   -1.1800 O   0  0  0  0  0  0  0  0  0  0  0  0
    4.6162   -1.2001   -1.0798 C   0  0  0  0  0  0  0  0  0  0  0  0
    3.8155   -2.2627   -1.5583 O   0  0  0  0  0  0  0  0  0  0  0  0
    3.1728   -2.9663   -0.5103 C   0  0  0  0  0  0  0  0  0  0  0  0
    4.1998   -3.7798    0.3377 C   0  0  2  0  0  0  0  0  0  0  0  0
    4.5382   -5.0022   -0.4939 C   0  0  1  0  0  0  0  0  0  0  0  0
    5.0658   -6.1934    0.1083 O   0  0  0  0  0  0  0  0  0  0  0  0
    3.7301   -5.8475    0.4774 C   0  0  1  0  0  0  0  0  0  0  0  0
    3.6581   -4.6975    1.4520 C   0  0  2  0  0  0  0  0  0  0  0  0
    2.4277   -4.2173    2.2377 C   0  0  1  0  0  0  0  0  0  0  0  0
    5.3344   -2.8574    0.7967 C   0  0  2  0  0  0  0  0  0  0  0  0
    6.5807   -3.6818    1.2606 C   0  0  0  0  0  0  0  0  0  0  0  0
   -0.3774   -8.6449    1.9822 H   0  0  0  0  0  0  0  0  0  0  0  0
   -0.8580   -7.4286    3.1675 H   0  0  0  0  0  0  0  0  0  0  0  0
    0.0812   -8.8348    3.6817 H   0  0  0  0  0  0  0  0  0  0  0  0
    1.7523   -8.8500    1.5350 H   0  0  0  0  0  0  0  0  0  0  0  0
    0.5342   -4.7923    3.1387 H   0  0  0  0  0  0  0  0  0  0  0  0
    1.0416   -6.3696    4.5177 H   0  0  0  0  0  0  0  0  0  0  0  0
    3.2988   -7.3682    4.8427 H   0  0  0  0  0  0  0  0  0  0  0  0
    3.9011   -6.6293    3.4111 H   0  0  0  0  0  0  0  0  0  0  0  0
    3.5048   -5.5087    6.0985 H   0  0  0  0  0  0  0  0  0  0  0  0
    4.6899   -5.0761    4.9180 H   0  0  0  0  0  0  0  0  0  0  0  0
    1.7737   -4.1341    5.0593 H   0  0  0  0  0  0  0  0  0  0  0  0
    4.1198   -2.8601    5.7580 H   0  0  0  0  0  0  0  0  0  0  0  0
    1.8485   -1.5229    2.4937 H   0  0  0  0  0  0  0  0  0  0  0  0
    2.1588   -1.3223    4.2046 H   0  0  0  0  0  0  0  0  0  0  0  0
    0.8842   -2.4014    3.6685 H   0  0  0  0  0  0  0  0  0  0  0  0
    4.4519   -1.8386    4.0154 H   0  0  0  0  0  0  0  0  0  0  0  0
    5.1142   -3.3426    3.5656 H   0  0  0  0  0  0  0  0  0  0  0  0
    3.8903   -1.4319    1.5825 H   0  0  0  0  0  0  0  0  0  0  0  0
    5.3521    0.1191    2.3533 H   0  0  0  0  0  0  0  0  0  0  0  0
    6.6060   -1.0556    2.7480 H   0  0  0  0  0  0  0  0  0  0  0  0
    6.2664    0.3014    0.1998 H   0  0  0  0  0  0  0  0  0  0  0  0
    7.5001   -0.8487    0.6838 H   0  0  0  0  0  0  0  0  0  0  0  0
    6.3238   -2.9677   -1.6405 H   0  0  0  0  0  0  0  0  0  0  0  0
    4.0020   -0.5132   -0.4944 H   0  0  0  0  0  0  0  0  0  0  0  0
    4.9879   -0.6077   -1.9166 H   0  0  0  0  0  0  0  0  0  0  0  0
    2.6223   -2.2351    0.0775 H   0  0  0  0  0  0  0  0  0  0  0  0
    2.4169   -3.6182   -0.9556 H   0  0  0  0  0  0  0  0  0  0  0  0
    4.4009   -5.0012   -1.5696 H   0  0  0  0  0  0  0  0  0  0  0  0
    2.8529   -6.3274    0.0420 H   0  0  0  0  0  0  0  0  0  0  0  0
    4.4252   -4.9014    2.2144 H   0  0  0  0  0  0  0  0  0  0  0  0
    1.8191   -3.6048    1.5623 H   0  0  0  0  0  0  0  0  0  0  0  0
    6.9588   -4.3006    0.4502 H   0  0  0  0  0  0  0  0  0  0  0  0
    6.3797   -4.3441    2.0962 H   0  0  0  0  0  0  0  0  0  0  0  0
    7.3982   -3.0329    1.5674 H   0  0  0  0  0  0  0  0  0  0  0  0
  1  2  1  0
  1 30  1  0
  1 31  1  0
  1 32  1  0
  2  6  1  0
  2  3  1  6
  2  4  1  0
  3 33  1  0
  4  5  1  0
  5 27  1  0
  5  6  1  0
  5 34  1  1
  6  7  1  0
  6 35  1  1
  7  8  1  0
  7 36  1  0
  7 37  1  0
  8  9  1  0
  8 38  1  0
  8 39  1  0
  9 10  1  0
  9 11  1  0
  9 40  1  1
 10 41  1  0
 11 27  1  0
 11 12  1  1
 11 13  1  0
 12 42  1  0
 12 43  1  0
 12 44  1  0
 13 14  1  0
 13 45  1  0
 13 46  1  0
 14 28  1  0
 14 15  1  0
 14 47  1  6
 15 16  1  0
 15 48  1  0
 15 49  1  0
 16 17  1  0
 16 50  1  0
 16 51  1  0
 17 28  1  0
 17 18  1  6
 17 19  1  0
 18 52  1  0
 19 20  1  0
 19 53  1  0
 19 54  1  0
 20 21  1  0
 22 21  1  6
 21 55  1  0
 21 56  1  0
 22 26  1  0
 22 23  1  0
 22 28  1  0
 23 25  1  0
 23 24  1  0
 23 57  1  6
 24 25  1  0
 25 26  1  0
 25 58  1  6
 26 27  1  0
 26 59  1  1
 27 60  1  6
 28 29  1  1
 29 61  1  0
 29 62  1  0
 29 63  1  0
M  END
>  <i_m_ct_stereo_status>  (290) 
1

>  <s_m_source_file>  (290) 
/var/tmp/pbs.5076255.sched01/tmp_srbpc4z/1203xlsw0nt.sdf

>  <i_m_source_file_index>  (290) 
39

>  <i_lp_mmshare_version>  (290) 
48012

>  <i_f3d_flags>  (290) 
0

>  <s_epik_input>  (290) 
W0NAXTEyM1tDQEBIXTRbQ0BASF0oTzQpW0NAQEhdMltDQEhdNVtDQEBIXTZbQ0BASF0oW0NAXShPNikoW0NIM10pW09IXSlbQ0gyXVtDSDJdW0NAQEhdKFtPSF0pW0NAQF01KFtDSDNdKVtDSDJdW0NAQEhdN1tDQF0zKFtDSDNdKVtDQF0oW09IXSkoW0NIMl1bQ0gyXTcpW0NIMl1PW0NIMl0x

>  <s_epik_cmdline>  (290) 
J2VwaWtfcHl0aG9uJywgJy1waHQnLCAnMi4wJywgJy1waCcsICc3LjAnLCAnLXRuJywgJzgnLCAnLW1hJywgJzIwMCcsICctaW1hZScsICc8aW5maWxlLm1hZT4nLCAnLW9tYWUnLCAnPG91dGZpbGUubWFlPic=

>  <r_lp_tautomer_probability>  (290) 
1

>  <r_epik_Ionization_Penalty>  (290) 
1.33869e-06

>  <r_epik_Ionization_Penalty_Charging>  (290) 
0

>  <r_epik_Ionization_Penalty_Neutral>  (290) 
1.33869e-06

>  <r_epik_State_Penalty>  (290) 
-0

>  <r_epik_Charging_Adjusted_Penalty>  (290) 
0

>  <i_epik_Tot_Q>  (290) 
0

>  <i_epik_Tot_abs_Q>  (290) 
0

>  <s_lp_Force_Field>  (290) 
OPLS3e

>  <r_lp_Energy>  (290) 
73.0784

>  <b_lp_Chiralities_Consistent>  (290) 
1

>  <s_lp_Variant>  (290) 
117:0-1

>  <s_i_glide_gridfile>  (290) 
pfpi4k_grid

>  <i_i_glide_lignum>  (290) 
39

>  <i_i_glide_rotatable_bonds>  (290) 
3

>  <r_i_docking_score>  (290) 
-3.18621

>  <r_i_glide_ligand_efficiency>  (290) 
-0.109869

>  <r_i_glide_ligand_efficiency_sa>  (290) 
-0.337554

>  <r_i_glide_ligand_efficiency_ln>  (290) 
-0.729562

>  <r_i_glide_gscore>  (290) 
-3.18621

>  <r_i_glide_lipo>  (290) 
-0.358162

>  <r_i_glide_hbond>  (290) 
-0.109649

>  <r_i_glide_metal>  (290) 
-0

>  <r_i_glide_rewards>  (290) 
-0.637415

>  <r_i_glide_evdw>  (290) 
-20.1586

>  <r_i_glide_ecoul>  (290) 
-6.98188

>  <r_i_glide_erotb>  (290) 
0

>  <r_i_glide_esite>  (290) 
-0.0257766

>  <r_i_glide_emodel>  (290) 
-31.4096

>  <r_i_glide_energy>  (290) 
-27.1405

>  <r_i_glide_einternal>  (290) 
1.23915

>  <r_i_glide_intrahb_reward>  (290) 
-0

>  <i_i_glide_confnum>  (290) 
2

>  <i_i_glide_posenum>  (290) 
30

>  <r_i_glide_eff_state_penalty>  (290) 
0

>  <ligand_id>  (290) 
117

>  <original_smiles>  (290) 
CC1(O)OC2C1CCC(O)C1(C)CC3CCC4(O)COCC5(C6OC6C5C21)C34C

>  <smiles>  (290) 
[H]OC1([H])C([H])([H])C([H])([H])C2([H])C([H])(OC2(O[H])C([H])([H])[H])C2([H])C3([H])C4([H])OC4([H])C34C([H])([H])OC([H])([H])C3(O[H])C([H])([H])C([H])([H])C([H])(C([H])([H])C12C([H])([H])[H])C34C([H])([H])[H]

$$$$
117:0:1
     RDKit          3D

 63 69  0  0  1  0  0  0  0  0999 V2000
    0.0533   -8.0925    2.8186 C   0  0  0  0  0  0  0  0  0  0  0  0
    1.3496   -7.3359    2.5455 C   0  0  1  0  0  0  0  0  0  0  0  0
    2.3041   -8.2452    2.0549 O   0  0  0  0  0  0  0  0  0  0  0  0
    1.0842   -6.2283    1.6334 O   0  0  0  0  0  0  0  0  0  0  0  0
    1.5041   -5.2686    2.6431 C   0  0  1  0  0  0  0  0  0  0  0  0
    1.8679   -6.3733    3.6202 C   0  0  2  0  0  0  0  0  0  0  0  0
    3.3006   -6.4588    4.1428 C   0  0  0  0  0  0  0  0  0  0  0  0
    3.7445   -5.2231    4.9583 C   0  0  0  0  0  0  0  0  0  0  0  0
    2.9397   -3.9120    4.7415 C   0  0  1  0  0  0  0  0  0  0  0  0
    3.3376   -3.0227    5.7688 O   0  0  0  0  0  0  0  0  0  0  0  0
    3.0077   -3.2198    3.3242 C   0  0  1  0  0  0  0  0  0  0  0  0
    2.0054   -2.0394    3.3642 C   0  0  0  0  0  0  0  0  0  0  0  0
    4.4672   -2.6087    3.1639 C   0  0  0  0  0  0  0  0  0  0  0  0
    4.8747   -1.9378    1.8221 C   0  0  1  0  0  0  0  0  0  0  0  0
    5.9092   -0.8050    1.9141 C   0  0  0  0  0  0  0  0  0  0  0  0
    6.5137   -0.6862    0.5066 C   0  0  0  0  0  0  0  0  0  0  0  0
    5.8481   -1.7765   -0.3543 C   0  0  2  0  0  0  0  0  0  0  0  0
    6.7824   -2.2583   -1.3085 O   0  0  0  0  0  0  0  0  0  0  0  0
    4.6820   -1.1951   -1.1856 C   0  0  0  0  0  0  0  0  0  0  0  0
    3.8649   -2.2529   -1.6598 O   0  0  0  0  0  0  0  0  0  0  0  0
    3.2358   -2.9559   -0.6016 C   0  0  0  0  0  0  0  0  0  0  0  0
    4.2696   -3.7659    0.2292 C   0  0  2  0  0  0  0  0  0  0  0  0
    4.5917   -5.0055   -0.5819 C   0  0  1  0  0  0  0  0  0  0  0  0
    5.1329   -6.1876    0.0253 O   0  0  0  0  0  0  0  0  0  0  0  0
    3.7968   -5.8397    0.3999 C   0  0  1  0  0  0  0  0  0  0  0  0
    3.7311   -4.6823    1.3560 C   0  0  2  0  0  0  0  0  0  0  0  0
    2.5123   -4.1981    2.1538 C   0  0  1  0  0  0  0  0  0  0  0  0
    5.4148   -2.8545    0.6830 C   0  0  2  0  0  0  0  0  0  0  0  0
    6.6608   -3.6792    1.1345 C   0  0  0  0  0  0  0  0  0  0  0  0
   -0.2773   -8.6333    1.9312 H   0  0  0  0  0  0  0  0  0  0  0  0
   -0.7477   -7.4149    3.1147 H   0  0  0  0  0  0  0  0  0  0  0  0
    0.1854   -8.8161    3.6286 H   0  0  0  0  0  0  0  0  0  0  0  0
    2.2574   -9.0197    2.6086 H   0  0  0  0  0  0  0  0  0  0  0  0
    0.6245   -4.7625    3.0653 H   0  0  0  0  0  0  0  0  0  0  0  0
    1.1566   -6.3522    4.4529 H   0  0  0  0  0  0  0  0  0  0  0  0
    3.4157   -7.3534    4.7600 H   0  0  0  0  0  0  0  0  0  0  0  0
    3.9991   -6.6118    3.3193 H   0  0  0  0  0  0  0  0  0  0  0  0
    3.6402   -5.4941    6.0111 H   0  0  0  0  0  0  0  0  0  0  0  0
    4.8120   -5.0655    4.8151 H   0  0  0  0  0  0  0  0  0  0  0  0
    1.8996   -4.1137    4.9879 H   0  0  0  0  0  0  0  0  0  0  0  0
    4.2608   -2.8479    5.6700 H   0  0  0  0  0  0  0  0  0  0  0  0
    1.9527   -1.5133    2.4123 H   0  0  0  0  0  0  0  0  0  0  0  0
    2.2788   -1.3020    4.1212 H   0  0  0  0  0  0  0  0  0  0  0  0
    0.9985   -2.3854    3.5989 H   0  0  0  0  0  0  0  0  0  0  0  0
    4.5721   -1.8266    3.9098 H   0  0  0  0  0  0  0  0  0  0  0  0
    5.2273   -3.3315    3.4558 H   0  0  0  0  0  0  0  0  0  0  0  0
    3.9821   -1.4249    1.4801 H   0  0  0  0  0  0  0  0  0  0  0  0
    5.4563    0.1386    2.2280 H   0  0  0  0  0  0  0  0  0  0  0  0
    6.6957   -1.0518    2.6257 H   0  0  0  0  0  0  0  0  0  0  0  0
    6.3614    0.3106    0.1095 H   0  0  0  0  0  0  0  0  0  0  0  0
    7.5891   -0.8523    0.5505 H   0  0  0  0  0  0  0  0  0  0  0  0
    6.3829   -2.9869   -1.7565 H   0  0  0  0  0  0  0  0  0  0  0  0
    4.0777   -0.5068   -0.5953 H   0  0  0  0  0  0  0  0  0  0  0  0
    5.0442   -0.6086   -2.0340 H   0  0  0  0  0  0  0  0  0  0  0  0
    2.6774   -2.2279   -0.0088 H   0  0  0  0  0  0  0  0  0  0  0  0
    2.4747   -3.6109   -1.0400 H   0  0  0  0  0  0  0  0  0  0  0  0
    4.4899   -5.0066   -1.6738 H   0  0  0  0  0  0  0  0  0  0  0  0
    2.9180   -6.3660    0.0173 H   0  0  0  0  0  0  0  0  0  0  0  0
    4.5116   -4.8986    2.1051 H   0  0  0  0  0  0  0  0  0  0  0  0
    1.8959   -3.5918    1.4909 H   0  0  0  0  0  0  0  0  0  0  0  0
    7.0337   -4.3061    0.3226 H   0  0  0  0  0  0  0  0  0  0  0  0
    6.4722   -4.3390    1.9767 H   0  0  0  0  0  0  0  0  0  0  0  0
    7.4818   -3.0321    1.4245 H   0  0  0  0  0  0  0  0  0  0  0  0
  1  2  1  0
  1 30  1  0
  1 31  1  0
  1 32  1  0
  2  6  1  0
  2  3  1  6
  2  4  1  0
  3 33  1  0
  4  5  1  0
  5 27  1  0
  5  6  1  0
  5 34  1  1
  6  7  1  0
  6 35  1  1
  7  8  1  0
  7 36  1  0
  7 37  1  0
  8  9  1  0
  8 38  1  0
  8 39  1  0
  9 10  1  0
  9 11  1  0
  9 40  1  1
 10 41  1  0
 11 27  1  0
 11 12  1  1
 11 13  1  0
 12 42  1  0
 12 43  1  0
 12 44  1  0
 13 14  1  0
 13 45  1  0
 13 46  1  0
 14 28  1  0
 14 15  1  0
 14 47  1  6
 15 16  1  0
 15 48  1  0
 15 49  1  0
 16 17  1  0
 16 50  1  0
 16 51  1  0
 17 28  1  0
 17 18  1  6
 17 19  1  0
 18 52  1  0
 19 20  1  0
 19 53  1  0
 19 54  1  0
 20 21  1  0
 22 21  1  6
 21 55  1  0
 21 56  1  0
 22 26  1  0
 22 23  1  0
 22 28  1  0
 23 25  1  0
 23 24  1  0
 23 57  1  6
 24 25  1  0
 25 26  1  0
 25 58  1  6
 26 27  1  0
 26 59  1  1
 27 60  1  6
 28 29  1  1
 29 61  1  0
 29 62  1  0
 29 63  1  0
M  END
>  <i_m_ct_stereo_status>  (291) 
1

>  <s_m_source_file>  (291) 
/var/tmp/pbs.5076255.sched01/tmp_srbpc4z/1203xlsw0nt.sdf

>  <i_m_source_file_index>  (291) 
39

>  <i_lp_mmshare_version>  (291) 
48012

>  <i_f3d_flags>  (291) 
0

>  <s_epik_input>  (291) 
W0NAXTEyM1tDQEBIXTRbQ0BASF0oTzQpW0NAQEhdMltDQEhdNVtDQEBIXTZbQ0BASF0oW0NAXShPNikoW0NIM10pW09IXSlbQ0gyXVtDSDJdW0NAQEhdKFtPSF0pW0NAQF01KFtDSDNdKVtDSDJdW0NAQEhdN1tDQF0zKFtDSDNdKVtDQF0oW09IXSkoW0NIMl1bQ0gyXTcpW0NIMl1PW0NIMl0x

>  <s_epik_cmdline>  (291) 
J2VwaWtfcHl0aG9uJywgJy1waHQnLCAnMi4wJywgJy1waCcsICc3LjAnLCAnLXRuJywgJzgnLCAnLW1hJywgJzIwMCcsICctaW1hZScsICc8aW5maWxlLm1hZT4nLCAnLW9tYWUnLCAnPG91dGZpbGUubWFlPic=

>  <r_lp_tautomer_probability>  (291) 
1

>  <r_epik_Ionization_Penalty>  (291) 
1.33869e-06

>  <r_epik_Ionization_Penalty_Charging>  (291) 
0

>  <r_epik_Ionization_Penalty_Neutral>  (291) 
1.33869e-06

>  <r_epik_State_Penalty>  (291) 
-0

>  <r_epik_Charging_Adjusted_Penalty>  (291) 
0

>  <i_epik_Tot_Q>  (291) 
0

>  <i_epik_Tot_abs_Q>  (291) 
0

>  <s_lp_Force_Field>  (291) 
OPLS3e

>  <r_lp_Energy>  (291) 
73.0784

>  <b_lp_Chiralities_Consistent>  (291) 
1

>  <s_lp_Variant>  (291) 
117:0-1

>  <s_i_glide_gridfile>  (291) 
pfpi4k_grid

>  <i_i_glide_lignum>  (291) 
39

>  <i_i_glide_rotatable_bonds>  (291) 
3

>  <r_i_docking_score>  (291) 
-3.11332

>  <r_i_glide_ligand_efficiency>  (291) 
-0.107356

>  <r_i_glide_ligand_efficiency_sa>  (291) 
-0.329831

>  <r_i_glide_ligand_efficiency_ln>  (291) 
-0.712871

>  <r_i_glide_gscore>  (291) 
-3.11332

>  <r_i_glide_lipo>  (291) 
-0.355403

>  <r_i_glide_hbond>  (291) 
-0.107932

>  <r_i_glide_metal>  (291) 
-0

>  <r_i_glide_rewards>  (291) 
-0.637415

>  <r_i_glide_evdw>  (291) 
-19.6878

>  <r_i_glide_ecoul>  (291) 
-6.69017

>  <r_i_glide_erotb>  (291) 
0

>  <r_i_glide_esite>  (291) 
-0.0246495

>  <r_i_glide_emodel>  (291) 
-30.6599

>  <r_i_glide_energy>  (291) 
-26.378

>  <r_i_glide_einternal>  (291) 
1.04312

>  <r_i_glide_intrahb_reward>  (291) 
-0

>  <i_i_glide_confnum>  (291) 
2

>  <i_i_glide_posenum>  (291) 
1

>  <r_i_glide_eff_state_penalty>  (291) 
0

>  <ligand_id>  (291) 
117

>  <original_smiles>  (291) 
CC1(O)OC2C1CCC(O)C1(C)CC3CCC4(O)COCC5(C6OC6C5C21)C34C

>  <smiles>  (291) 
[H]OC1([H])C([H])([H])C([H])([H])C2([H])C([H])(OC2(O[H])C([H])([H])[H])C2([H])C3([H])C4([H])OC4([H])C34C([H])([H])OC([H])([H])C3(O[H])C([H])([H])C([H])([H])C([H])(C([H])([H])C12C([H])([H])[H])C34C([H])([H])[H]

$$$$
117:0:2
     RDKit          3D

 63 69  0  0  1  0  0  0  0  0999 V2000
    3.9297   -1.2732   -4.3912 C   0  0  0  0  0  0  0  0  0  0  0  0
    3.9106   -1.8501   -2.9768 C   0  0  1  0  0  0  0  0  0  0  0  0
    2.6134   -1.6180   -2.5434 O   0  0  0  0  0  0  0  0  0  0  0  0
    4.3108   -3.2338   -2.9648 O   0  0  0  0  0  0  0  0  0  0  0  0
    5.4627   -2.9305   -2.1373 C   0  0  1  0  0  0  0  0  0  0  0  0
    5.0454   -1.4839   -2.0311 C   0  0  2  0  0  0  0  0  0  0  0  0
    4.7855   -0.8708   -0.6659 C   0  0  0  0  0  0  0  0  0  0  0  0
    6.0343   -0.8377    0.2418 C   0  0  0  0  0  0  0  0  0  0  0  0
    7.1455   -1.8595   -0.1152 C   0  0  1  0  0  0  0  0  0  0  0  0
    8.3069   -1.4393    0.5602 O   0  0  0  0  0  0  0  0  0  0  0  0
    6.8390   -3.3938    0.0580 C   0  0  1  0  0  0  0  0  0  0  0  0
    8.1232   -4.1195   -0.4006 C   0  0  0  0  0  0  0  0  0  0  0  0
    6.6826   -3.6910    1.5939 C   0  0  0  0  0  0  0  0  0  0  0  0
    6.3001   -5.1106    2.0967 C   0  0  1  0  0  0  0  0  0  0  0  0
    6.8232   -5.5725    3.4661 C   0  0  0  0  0  0  0  0  0  0  0  0
    5.9375   -6.7432    3.8906 C   0  0  0  0  0  0  0  0  0  0  0  0
    4.8527   -6.8600    2.8144 C   0  0  2  0  0  0  0  0  0  0  0  0
    3.6339   -7.2173    3.4455 O   0  0  0  0  0  0  0  0  0  0  0  0
    5.2158   -8.0021    1.8392 C   0  0  0  0  0  0  0  0  0  0  0  0
    4.4424   -7.8731    0.6610 O   0  0  0  0  0  0  0  0  0  0  0  0
    4.7342   -6.6694   -0.0154 C   0  0  0  0  0  0  0  0  0  0  0  0
    4.2624   -5.4235    0.7305 C   0  0  2  0  0  0  0  0  0  0  0  0
    2.7980   -5.3488    0.5100 C   0  0  1  0  0  0  0  0  0  0  0  0
    2.0964   -4.1267    0.7452 O   0  0  0  0  0  0  0  0  0  0  0  0
    2.9835   -4.1401   -0.3854 C   0  0  1  0  0  0  0  0  0  0  0  0
    4.4037   -4.0550    0.0060 C   0  0  2  0  0  0  0  0  0  0  0  0
    5.6199   -3.8422   -0.8938 C   0  0  1  0  0  0  0  0  0  0  0  0
    4.7895   -5.4484    2.1600 C   0  0  2  0  0  0  0  0  0  0  0  0
    4.0343   -4.4525    3.0889 C   0  0  0  0  0  0  0  0  0  0  0  0
    3.1521   -1.7571   -4.9592 H   0  0  0  0  0  0  0  0  0  0  0  0
    4.8961   -1.4145   -4.8698 H   0  0  0  0  0  0  0  0  0  0  0  0
    3.7377   -0.2029   -4.3829 H   0  0  0  0  0  0  0  0  0  0  0  0
    2.5038   -1.8934   -1.6436 H   0  0  0  0  0  0  0  0  0  0  0  0
    6.3818   -2.9778   -2.7522 H   0  0  0  0  0  0  0  0  0  0  0  0
    5.7745   -0.8712   -2.5717 H   0  0  0  0  0  0  0  0  0  0  0  0
    4.4095    0.1413   -0.8081 H   0  0  0  0  0  0  0  0  0  0  0  0
    3.9709   -1.3921   -0.1517 H   0  0  0  0  0  0  0  0  0  0  0  0
    6.4618    0.1606    0.1271 H   0  0  0  0  0  0  0  0  0  0  0  0
    5.7316   -0.8894    1.2825 H   0  0  0  0  0  0  0  0  0  0  0  0
    7.4566   -1.7398   -1.1463 H   0  0  0  0  0  0  0  0  0  0  0  0
    8.1794   -0.5566    0.8845 H   0  0  0  0  0  0  0  0  0  0  0  0
    8.0271   -5.1893   -0.3164 H   0  0  0  0  0  0  0  0  0  0  0  0
    9.0152   -3.7534    0.1375 H   0  0  0  0  0  0  0  0  0  0  0  0
    8.3157   -3.9141   -1.4514 H   0  0  0  0  0  0  0  0  0  0  0  0
    7.6994   -3.5828    1.9606 H   0  0  0  0  0  0  0  0  0  0  0  0
    6.1134   -2.9194    2.1102 H   0  0  0  0  0  0  0  0  0  0  0  0
    6.7888   -5.7884    1.4175 H   0  0  0  0  0  0  0  0  0  0  0  0
    7.8750   -5.8426    3.4115 H   0  0  0  0  0  0  0  0  0  0  0  0
    6.6625   -4.8294    4.2448 H   0  0  0  0  0  0  0  0  0  0  0  0
    6.5004   -7.6629    4.0409 H   0  0  0  0  0  0  0  0  0  0  0  0
    5.4919   -6.4752    4.8421 H   0  0  0  0  0  0  0  0  0  0  0  0
    3.7065   -8.1108    3.7254 H   0  0  0  0  0  0  0  0  0  0  0  0
    6.2729   -7.9821    1.5714 H   0  0  0  0  0  0  0  0  0  0  0  0
    5.0348   -8.9818    2.2827 H   0  0  0  0  0  0  0  0  0  0  0  0
    5.8002   -6.6035   -0.1771 H   0  0  0  0  0  0  0  0  0  0  0  0
    4.2694   -6.7420   -1.0008 H   0  0  0  0  0  0  0  0  0  0  0  0
    2.2140   -6.2363    0.2383 H   0  0  0  0  0  0  0  0  0  0  0  0
    2.6410   -4.2666   -1.4141 H   0  0  0  0  0  0  0  0  0  0  0  0
    4.4114   -3.2348    0.7376 H   0  0  0  0  0  0  0  0  0  0  0  0
    5.8273   -4.8112   -1.3383 H   0  0  0  0  0  0  0  0  0  0  0  0
    2.9769   -4.7123    3.1471 H   0  0  0  0  0  0  0  0  0  0  0  0
    4.0871   -3.4221    2.7619 H   0  0  0  0  0  0  0  0  0  0  0  0
    4.4165   -4.4792    4.1068 H   0  0  0  0  0  0  0  0  0  0  0  0
  1  2  1  0
  1 30  1  0
  1 31  1  0
  1 32  1  0
  2  6  1  0
  2  3  1  1
  2  4  1  0
  3 33  1  0
  4  5  1  0
  5 27  1  0
  5  6  1  0
  5 34  1  6
  6  7  1  0
  6 35  1  6
  7  8  1  0
  7 36  1  0
  7 37  1  0
  8  9  1  0
  8 38  1  0
  8 39  1  0
  9 10  1  0
  9 11  1  0
  9 40  1  6
 10 41  1  0
 11 27  1  0
 11 12  1  6
 11 13  1  0
 12 42  1  0
 12 43  1  0
 12 44  1  0
 13 14  1  0
 13 45  1  0
 13 46  1  0
 14 28  1  0
 14 15  1  0
 14 47  1  6
 15 16  1  0
 15 48  1  0
 15 49  1  0
 16 17  1  0
 16 50  1  0
 16 51  1  0
 17 28  1  0
 17 18  1  1
 17 19  1  0
 18 52  1  0
 19 20  1  0
 19 53  1  0
 19 54  1  0
 20 21  1  0
 22 21  1  6
 21 55  1  0
 21 56  1  0
 22 26  1  0
 22 23  1  0
 22 28  1  0
 23 25  1  0
 23 24  1  0
 23 57  1  6
 24 25  1  0
 25 26  1  0
 25 58  1  6
 26 27  1  0
 26 59  1  1
 27 60  1  6
 28 29  1  1
 29 61  1  0
 29 62  1  0
 29 63  1  0
M  END
>  <i_m_ct_stereo_status>  (292) 
1

>  <s_m_source_file>  (292) 
/var/tmp/pbs.5076255.sched01/tmp_srbpc4z/1203xlsw0nt.sdf

>  <i_m_source_file_index>  (292) 
39

>  <i_lp_mmshare_version>  (292) 
48012

>  <i_f3d_flags>  (292) 
0

>  <s_epik_input>  (292) 
W0NAXTEyM1tDQEBIXTRbQ0BASF0oTzQpW0NAQEhdMltDQEhdNVtDQEBIXTZbQ0BASF0oW0NAXShPNikoW0NIM10pW09IXSlbQ0gyXVtDSDJdW0NAQEhdKFtPSF0pW0NAQF01KFtDSDNdKVtDSDJdW0NAQEhdN1tDQF0zKFtDSDNdKVtDQF0oW09IXSkoW0NIMl1bQ0gyXTcpW0NIMl1PW0NIMl0x

>  <s_epik_cmdline>  (292) 
J2VwaWtfcHl0aG9uJywgJy1waHQnLCAnMi4wJywgJy1waCcsICc3LjAnLCAnLXRuJywgJzgnLCAnLW1hJywgJzIwMCcsICctaW1hZScsICc8aW5maWxlLm1hZT4nLCAnLW9tYWUnLCAnPG91dGZpbGUubWFlPic=

>  <r_lp_tautomer_probability>  (292) 
1

>  <r_epik_Ionization_Penalty>  (292) 
1.33869e-06

>  <r_epik_Ionization_Penalty_Charging>  (292) 
0

>  <r_epik_Ionization_Penalty_Neutral>  (292) 
1.33869e-06

>  <r_epik_State_Penalty>  (292) 
-0

>  <r_epik_Charging_Adjusted_Penalty>  (292) 
0

>  <i_epik_Tot_Q>  (292) 
0

>  <i_epik_Tot_abs_Q>  (292) 
0

>  <s_lp_Force_Field>  (292) 
OPLS3e

>  <r_lp_Energy>  (292) 
73.0784

>  <b_lp_Chiralities_Consistent>  (292) 
1

>  <s_lp_Variant>  (292) 
117:0-1

>  <s_i_glide_gridfile>  (292) 
pfpi4k_grid

>  <i_i_glide_lignum>  (292) 
39

>  <i_i_glide_rotatable_bonds>  (292) 
3

>  <r_i_docking_score>  (292) 
-2.40423

>  <r_i_glide_ligand_efficiency>  (292) 
-0.0829044

>  <r_i_glide_ligand_efficiency_sa>  (292) 
-0.254709

>  <r_i_glide_ligand_efficiency_ln>  (292) 
-0.550507

>  <r_i_glide_gscore>  (292) 
-2.40423

>  <r_i_glide_lipo>  (292) 
-0.728078

>  <r_i_glide_hbond>  (292) 
-0.316969

>  <r_i_glide_metal>  (292) 
-0

>  <r_i_glide_rewards>  (292) 
-0.706417

>  <r_i_glide_evdw>  (292) 
-7.40594

>  <r_i_glide_ecoul>  (292) 
-1.88312

>  <r_i_glide_erotb>  (292) 
0

>  <r_i_glide_esite>  (292) 
0

>  <r_i_glide_emodel>  (292) 
-11.1536

>  <r_i_glide_energy>  (292) 
-9.28905

>  <r_i_glide_einternal>  (292) 
1.04174

>  <r_i_glide_intrahb_reward>  (292) 
-0

>  <i_i_glide_confnum>  (292) 
2

>  <i_i_glide_posenum>  (292) 
17

>  <r_i_glide_eff_state_penalty>  (292) 
0

>  <ligand_id>  (292) 
117

>  <original_smiles>  (292) 
CC1(O)OC2C1CCC(O)C1(C)CC3CCC4(O)COCC5(C6OC6C5C21)C34C

>  <smiles>  (292) 
[H]OC1([H])C([H])([H])C([H])([H])C2([H])C([H])(OC2(O[H])C([H])([H])[H])C2([H])C3([H])C4([H])OC4([H])C34C([H])([H])OC([H])([H])C3(O[H])C([H])([H])C([H])([H])C([H])(C([H])([H])C12C([H])([H])[H])C34C([H])([H])[H]

$$$$
118:0:0
     RDKit          3D

 88 93  0  0  1  0  0  0  0  0999 V2000
   -2.4609    1.3487    6.8776 C   0  0  0  0  0  0  0  0  0  0  0  0
   -1.8293    2.6144    6.2511 C   0  0  0  0  0  0  0  0  0  0  0  0
   -2.9213    3.3338    5.4250 C   0  0  0  0  0  0  0  0  0  0  0  0
   -1.3694    3.6172    7.3547 C   0  0  1  0  0  0  0  0  0  0  0  0
   -2.3917    3.8538    8.3056 O   0  0  0  0  0  0  0  0  0  0  0  0
   -0.1079    3.1661    8.1015 C   0  0  0  0  0  0  0  0  0  0  0  0
    1.0436    2.8674    7.1274 C   0  0  0  0  0  0  0  0  0  0  0  0
    0.7100    1.8242    6.0220 C   0  0  1  0  0  0  0  0  0  0  0  0
    0.5705    0.4381    6.7111 C   0  0  0  0  0  0  0  0  0  0  0  0
   -0.6068    2.3035    5.3126 C   0  0  1  0  0  0  0  0  0  0  0  0
   -0.9466    1.4582    4.0624 C   0  0  0  0  0  0  0  0  0  0  0  0
    0.1690    1.4953    3.0030 C   0  0  0  0  0  0  0  0  0  0  0  0
    1.6123    1.2367    3.5080 C   0  0  1  0  0  0  0  0  0  0  0  0
    2.4029    2.0073    2.6068 O   0  0  0  0  0  0  0  0  0  0  0  0
    1.8778    1.8568    4.9436 C   0  0  2  0  0  0  0  0  0  0  0  0
    3.3071    1.5296    5.5032 C   0  0  0  0  0  0  0  0  0  0  0  0
    4.0759    0.4264    4.7821 C   0  0  0  0  0  0  0  0  0  0  0  0
    3.5056   -0.3659    3.8500 C   0  0  0  0  0  0  0  0  0  0  0  0
    4.3011   -1.2768    3.0045 C   0  0  0  0  0  0  0  0  0  0  0  0
    5.4626   -1.5697    3.1406 O   0  0  0  0  0  0  0  0  0  0  0  0
    3.4631   -1.7962    1.8528 C   0  0  1  0  0  0  0  0  0  0  0  0
    3.2851   -3.3367    2.0218 C   0  0  2  0  0  0  0  0  0  0  0  0
    2.8231   -4.0177    0.7124 C   0  0  0  0  0  0  0  0  0  0  0  0
    2.5280   -5.5235    0.9200 C   0  0  1  0  0  0  0  0  0  0  0  0
    1.5963   -5.8499   -0.1037 O   0  0  0  0  0  0  0  0  0  0  0  0
    3.7853   -6.3940    0.7146 C   0  0  0  0  0  0  0  0  0  0  0  0
    3.6907   -7.5426    1.7305 C   0  0  1  0  0  0  0  0  0  0  0  0
    5.0150   -8.3060    1.9269 C   0  0  0  0  0  0  0  0  0  0  0  0
    5.1887   -9.2259    0.8676 O   0  0  0  0  0  0  0  0  0  0  0  0
    3.0876   -6.8815    2.9898 C   0  0  0  0  0  0  0  0  0  0  0  0
    2.4954   -7.9441    3.9608 C   0  0  0  0  0  0  0  0  0  0  0  0
    4.1903   -6.1406    3.8122 C   0  0  0  0  0  0  0  0  0  0  0  0
    1.9958   -5.9162    2.3558 C   0  0  2  0  0  0  0  0  0  0  0  0
    0.7852   -6.6711    2.1897 O   0  0  0  0  0  0  0  0  0  0  0  0
    1.6849   -4.7131    3.2336 C   0  0  0  0  0  0  0  0  0  0  0  0
    0.7935   -4.8256    4.1289 O   0  0  0  0  0  0  0  0  0  0  0  0
    2.4476   -3.6050    3.1318 O   0  0  0  0  0  0  0  0  0  0  0  0
    2.2235   -0.8450    1.9066 C   0  0  0  0  0  0  0  0  0  0  0  0
    2.0808   -0.2610    3.3630 C   0  0  2  0  0  0  0  0  0  0  0  0
    1.1634   -1.2087    4.1789 C   0  0  0  0  0  0  0  0  0  0  0  0
   -3.4478    1.5805    7.2746 H   0  0  0  0  0  0  0  0  0  0  0  0
   -1.8948    0.9736    7.7238 H   0  0  0  0  0  0  0  0  0  0  0  0
   -2.5748    0.5427    6.1551 H   0  0  0  0  0  0  0  0  0  0  0  0
   -2.5104    4.1745    4.8704 H   0  0  0  0  0  0  0  0  0  0  0  0
   -3.7131    3.7188    6.0654 H   0  0  0  0  0  0  0  0  0  0  0  0
   -3.3762    2.6773    4.6877 H   0  0  0  0  0  0  0  0  0  0  0  0
   -1.1460    4.5779    6.8860 H   0  0  0  0  0  0  0  0  0  0  0  0
   -2.0644    4.4393    8.9768 H   0  0  0  0  0  0  0  0  0  0  0  0
    0.2065    3.9610    8.7796 H   0  0  0  0  0  0  0  0  0  0  0  0
   -0.3239    2.3150    8.7481 H   0  0  0  0  0  0  0  0  0  0  0  0
    1.3261    3.8120    6.6605 H   0  0  0  0  0  0  0  0  0  0  0  0
    1.9059    2.5502    7.7122 H   0  0  0  0  0  0  0  0  0  0  0  0
   -0.1120   -0.2258    6.1907 H   0  0  0  0  0  0  0  0  0  0  0  0
    0.1851    0.4923    7.7203 H   0  0  0  0  0  0  0  0  0  0  0  0
    1.5276   -0.0651    6.8269 H   0  0  0  0  0  0  0  0  0  0  0  0
   -0.3520    3.2816    4.9037 H   0  0  0  0  0  0  0  0  0  0  0  0
   -1.2314    0.4590    4.3542 H   0  0  0  0  0  0  0  0  0  0  0  0
   -1.8387    1.8322    3.5685 H   0  0  0  0  0  0  0  0  0  0  0  0
   -0.0816    0.8356    2.1733 H   0  0  0  0  0  0  0  0  0  0  0  0
    0.1282    2.4977    2.5726 H   0  0  0  0  0  0  0  0  0  0  0  0
    3.3167    1.9051    2.8434 H   0  0  0  0  0  0  0  0  0  0  0  0
    1.9366    2.9260    4.7089 H   0  0  0  0  0  0  0  0  0  0  0  0
    3.9092    2.4419    5.4324 H   0  0  0  0  0  0  0  0  0  0  0  0
    3.2802    1.2679    6.5610 H   0  0  0  0  0  0  0  0  0  0  0  0
    5.1321    0.3618    5.0301 H   0  0  0  0  0  0  0  0  0  0  0  0
    4.0434   -1.6194    0.9387 H   0  0  0  0  0  0  0  0  0  0  0  0
    4.2502   -3.7915    2.2653 H   0  0  0  0  0  0  0  0  0  0  0  0
    1.9462   -3.5110    0.3103 H   0  0  0  0  0  0  0  0  0  0  0  0
    3.5785   -3.8999   -0.0735 H   0  0  0  0  0  0  0  0  0  0  0  0
    2.0860   -5.8174   -0.9172 H   0  0  0  0  0  0  0  0  0  0  0  0
    3.8958   -6.7538   -0.3090 H   0  0  0  0  0  0  0  0  0  0  0  0
    4.6715   -5.7952    0.9284 H   0  0  0  0  0  0  0  0  0  0  0  0
    2.9349   -8.2430    1.3666 H   0  0  0  0  0  0  0  0  0  0  0  0
    5.8563   -7.6170    1.9335 H   0  0  0  0  0  0  0  0  0  0  0  0
    5.0351   -8.8498    2.8668 H   0  0  0  0  0  0  0  0  0  0  0  0
    4.6215   -9.9831    0.9976 H   0  0  0  0  0  0  0  0  0  0  0  0
    1.9559   -7.4884    4.7937 H   0  0  0  0  0  0  0  0  0  0  0  0
    3.2867   -8.5580    4.3990 H   0  0  0  0  0  0  0  0  0  0  0  0
    1.8195   -8.6396    3.4591 H   0  0  0  0  0  0  0  0  0  0  0  0
    3.7933   -5.5436    4.6320 H   0  0  0  0  0  0  0  0  0  0  0  0
    4.8188   -5.5002    3.2052 H   0  0  0  0  0  0  0  0  0  0  0  0
    4.8747   -6.8454    4.2822 H   0  0  0  0  0  0  0  0  0  0  0  0
    0.9525   -7.5029    1.7638 H   0  0  0  0  0  0  0  0  0  0  0  0
    2.4513   -0.0570    1.1848 H   0  0  0  0  0  0  0  0  0  0  0  0
    1.3190   -1.3198    1.5291 H   0  0  0  0  0  0  0  0  0  0  0  0
    0.1419   -0.8760    4.1764 H   0  0  0  0  0  0  0  0  0  0  0  0
    1.5570   -1.3603    5.1926 H   0  0  0  0  0  0  0  0  0  0  0  0
    0.9882   -2.1520    3.7283 H   0  0  0  0  0  0  0  0  0  0  0  0
  1  2  1  0
  1 41  1  0
  1 42  1  0
  1 43  1  0
  2 10  1  0
  2  3  1  0
  2  4  1  0
  3 44  1  0
  3 45  1  0
  3 46  1  0
  4  5  1  0
  4  6  1  0
  4 47  1  6
  5 48  1  0
  6  7  1  0
  6 49  1  0
  6 50  1  0
  7  8  1  0
  7 51  1  0
  7 52  1  0
  8 15  1  0
  8  9  1  1
  8 10  1  0
  9 53  1  0
  9 54  1  0
  9 55  1  0
 10 11  1  0
 10 56  1  6
 11 12  1  0
 11 57  1  0
 11 58  1  0
 12 13  1  0
 12 59  1  0
 12 60  1  0
 13 39  1  0
 13 14  1  6
 13 15  1  0
 14 61  1  0
 15 16  1  0
 15 62  1  6
 16 17  1  0
 16 63  1  0
 16 64  1  0
 17 18  2  0
 17 65  1  0
 18 39  1  0
 18 19  1  0
 19 20  2  0
 19 21  1  0
 21 22  1  0
 21 38  1  0
 21 66  1  6
 22 37  1  0
 22 23  1  0
 22 67  1  1
 23 24  1  0
 23 68  1  0
 23 69  1  0
 24 33  1  0
 24 25  1  6
 24 26  1  0
 25 70  1  0
 26 27  1  0
 26 71  1  0
 26 72  1  0
 27 28  1  0
 27 30  1  0
 27 73  1  6
 28 29  1  0
 28 74  1  0
 28 75  1  0
 29 76  1  0
 30 31  1  0
 30 32  1  0
 30 33  1  0
 31 77  1  0
 31 78  1  0
 31 79  1  0
 32 80  1  0
 32 81  1  0
 32 82  1  0
 33 34  1  6
 33 35  1  0
 34 83  1  0
 35 36  2  0
 35 37  1  0
 38 39  1  0
 38 84  1  0
 38 85  1  0
 39 40  1  1
 40 86  1  0
 40 87  1  0
 40 88  1  0
M  END
>  <i_m_ct_stereo_status>  (293) 
1

>  <s_m_source_file>  (293) 
/var/tmp/pbs.5076255.sched01/tmp_srbpc4z/1203xlsw0nt.sdf

>  <i_m_source_file_index>  (293) 
40

>  <i_lp_mmshare_version>  (293) 
48012

>  <i_f3d_flags>  (293) 
0

>  <s_epik_input>  (293) 
W0NIMl0xW0NIMl1bQ0BIXShbT0hdKUMoW0NIM10pKFtDSDNdKVtDQEBIXShbQ0BdMTJbQ0gzXSlbQ0gyXVtDSDJdW0NAQF0zKFtPSF0pW0NAQEhdMltDSDJdW0NIXT1DNFtDQF0zKFtDSDNdKVtDSDJdW0NAQEhdKEM0PU8pW0NASF0oW0NIMl01KU9DKD1PKVtDQEBdKFtPSF0pKFtDQEBdNTZbT0hdKUMoW0NIM10pKFtDSDNdKVtDQEBIXShbQ0gyXTYpW0NIMl1bT0hd

>  <s_epik_cmdline>  (293) 
J2VwaWtfcHl0aG9uJywgJy1waHQnLCAnMi4wJywgJy1waCcsICc3LjAnLCAnLXRuJywgJzgnLCAnLW1hJywgJzIwMCcsICctaW1hZScsICc8aW5maWxlLm1hZT4nLCAnLW9tYWUnLCAnPG91dGZpbGUubWFlPic=

>  <r_lp_tautomer_probability>  (293) 
1

>  <r_epik_Ionization_Penalty>  (293) 
3.22337e-06

>  <r_epik_Ionization_Penalty_Charging>  (293) 
0

>  <r_epik_Ionization_Penalty_Neutral>  (293) 
3.22337e-06

>  <r_epik_State_Penalty>  (293) 
-0

>  <r_epik_Charging_Adjusted_Penalty>  (293) 
0

>  <i_epik_Tot_Q>  (293) 
0

>  <i_epik_Tot_abs_Q>  (293) 
0

>  <s_epik_Chemistry_Notes>  (293) 
This compound has an ester and may undergo hydrolysis at high or low pH.

>  <s_lp_Force_Field>  (293) 
OPLS3e

>  <r_lp_Energy>  (293) 
89.978

>  <b_lp_Chiralities_Consistent>  (293) 
1

>  <s_lp_Variant>  (293) 
118:0-1

>  <s_i_glide_gridfile>  (293) 
pfpi4k_grid

>  <i_i_glide_lignum>  (293) 
40

>  <i_i_glide_rotatable_bonds>  (293) 
7

>  <r_i_docking_score>  (293) 
-3.18002

>  <r_i_glide_ligand_efficiency>  (293) 
-0.0795006

>  <r_i_glide_ligand_efficiency_sa>  (293) 
-0.271888

>  <r_i_glide_ligand_efficiency_ln>  (293) 
-0.678206

>  <r_i_glide_gscore>  (293) 
-3.18002

>  <r_i_glide_lipo>  (293) 
-0.235512

>  <r_i_glide_hbond>  (293) 
-0.0584565

>  <r_i_glide_metal>  (293) 
-0

>  <r_i_glide_rewards>  (293) 
-0.0306282

>  <r_i_glide_evdw>  (293) 
-26.3513

>  <r_i_glide_ecoul>  (293) 
-10.5348

>  <r_i_glide_erotb>  (293) 
0.0519541

>  <r_i_glide_esite>  (293) 
-0.00960051

>  <r_i_glide_emodel>  (293) 
-41.6559

>  <r_i_glide_energy>  (293) 
-36.8861

>  <r_i_glide_einternal>  (293) 
4.032

>  <r_i_glide_intrahb_reward>  (293) 
-0

>  <i_i_glide_confnum>  (293) 
3

>  <i_i_glide_posenum>  (293) 
12

>  <r_i_glide_eff_state_penalty>  (293) 
0

>  <ligand_id>  (293) 
118

>  <original_smiles>  (293) 
CC1(C)C(O)CCC2(C)C1CCC1(O)C2CC=C2C(=O)C(C3CC4(O)CC(CO)C(C)(C)C4(O)C(=O)O3)CC21C

>  <smiles>  (293) 
[H]OC([H])([H])C1([H])C([H])([H])C2(O[H])C([H])([H])C([H])(C3([H])C(=O)C4=C([H])C([H])([H])C5([H])C(O[H])(C([H])([H])C([H])([H])C6([H])C(C([H])([H])[H])(C([H])([H])[H])C([H])(O[H])C([H])([H])C([H])([H])C56C([H])([H])[H])C4(C([H])([H])[H])C3([H])[H])OC(=O)C2(O[H])C1(C([H])([H])[H])C([H])([H])[H]

$$$$
118:0:1
     RDKit          3D

 88 93  0  0  1  0  0  0  0  0999 V2000
   -2.1051    1.7142    7.0129 C   0  0  0  0  0  0  0  0  0  0  0  0
   -1.4959    2.9428    6.2907 C   0  0  0  0  0  0  0  0  0  0  0  0
   -2.6304    3.6433    5.5120 C   0  0  0  0  0  0  0  0  0  0  0  0
   -0.9436    3.9784    7.3149 C   0  0  1  0  0  0  0  0  0  0  0  0
   -1.8915    4.2940    8.3215 O   0  0  0  0  0  0  0  0  0  0  0  0
    0.3679    3.5409    7.9804 C   0  0  0  0  0  0  0  0  0  0  0  0
    1.4414    3.1847    6.9358 C   0  0  0  0  0  0  0  0  0  0  0  0
    1.0089    2.1054    5.9007 C   0  0  1  0  0  0  0  0  0  0  0  0
    0.9056    0.7489    6.6532 C   0  0  0  0  0  0  0  0  0  0  0  0
   -0.3510    2.5771    5.2758 C   0  0  1  0  0  0  0  0  0  0  0  0
   -0.7964    1.6888    4.0891 C   0  0  0  0  0  0  0  0  0  0  0  0
    0.2378    1.6627    2.9445 C   0  0  0  0  0  0  0  0  0  0  0  0
    1.7125    1.3933    3.3574 C   0  0  1  0  0  0  0  0  0  0  0  0
    2.4561    2.0984    2.3730 O   0  0  0  0  0  0  0  0  0  0  0  0
    2.0945    2.0721    4.7356 C   0  0  2  0  0  0  0  0  0  0  0  0
    3.5569    1.7435    5.2045 C   0  0  0  0  0  0  0  0  0  0  0  0
    4.2551    0.5987    4.4725 C   0  0  0  0  0  0  0  0  0  0  0  0
    3.6158   -0.2159    3.6256 C   0  0  0  0  0  0  0  0  0  0  0  0
    4.3250   -1.1687    2.7514 C   0  0  0  0  0  0  0  0  0  0  0  0
    5.5061   -1.4796    2.8188 O   0  0  0  0  0  0  0  0  0  0  0  0
    3.4066   -1.7262    1.6895 C   0  0  1  0  0  0  0  0  0  0  0  0
    3.2105   -3.2579    1.9265 C   0  0  2  0  0  0  0  0  0  0  0  0
    2.7171   -3.9998    0.6680 C   0  0  0  0  0  0  0  0  0  0  0  0
    2.3980   -5.4922    0.9637 C   0  0  1  0  0  0  0  0  0  0  0  0
    1.4369   -5.9024   -0.0161 O   0  0  0  0  0  0  0  0  0  0  0  0
    3.6476   -6.3692    0.7679 C   0  0  0  0  0  0  0  0  0  0  0  0
    3.5655   -7.4695    1.8306 C   0  0  1  0  0  0  0  0  0  0  0  0
    4.8903   -8.2421    2.0058 C   0  0  0  0  0  0  0  0  0  0  0  0
    5.1152   -9.0554    0.8714 O   0  0  0  0  0  0  0  0  0  0  0  0
    3.0098   -6.7458    3.0803 C   0  0  0  0  0  0  0  0  0  0  0  0
    2.4494   -7.7574    4.1196 C   0  0  0  0  0  0  0  0  0  0  0  0
    4.1508   -5.9800    3.8264 C   0  0  0  0  0  0  0  0  0  0  0  0
    1.9097   -5.8062    2.4335 C   0  0  2  0  0  0  0  0  0  0  0  0
    0.6820   -6.5539    2.3504 O   0  0  0  0  0  0  0  0  0  0  0  0
    1.6338   -4.5582    3.2587 C   0  0  0  0  0  0  0  0  0  0  0  0
    0.7900   -4.6153    4.1944 O   0  0  0  0  0  0  0  0  0  0  0  0
    2.3950   -3.4712    3.0416 O   0  0  0  0  0  0  0  0  0  0  0  0
    2.1837   -0.7532    1.7947 C   0  0  0  0  0  0  0  0  0  0  0  0
    2.1578   -0.1075    3.2317 C   0  0  2  0  0  0  0  0  0  0  0  0
    1.2935   -0.9933    4.1625 C   0  0  0  0  0  0  0  0  0  0  0  0
   -3.0683    1.9578    7.4658 H   0  0  0  0  0  0  0  0  0  0  0  0
   -1.4777    1.3565    7.8231 H   0  0  0  0  0  0  0  0  0  0  0  0
   -2.2723    0.8833    6.3292 H   0  0  0  0  0  0  0  0  0  0  0  0
   -2.2445    4.4454    4.8817 H   0  0  0  0  0  0  0  0  0  0  0  0
   -3.3625    4.0788    6.1875 H   0  0  0  0  0  0  0  0  0  0  0  0
   -3.1949    2.9634    4.8747 H   0  0  0  0  0  0  0  0  0  0  0  0
   -0.7422    4.9132    6.7896 H   0  0  0  0  0  0  0  0  0  0  0  0
   -1.9692    3.5638    8.9182 H   0  0  0  0  0  0  0  0  0  0  0  0
    0.7427    4.3584    8.5977 H   0  0  0  0  0  0  0  0  0  0  0  0
    0.1987    2.7178    8.6752 H   0  0  0  0  0  0  0  0  0  0  0  0
    1.7027    4.1039    6.4107 H   0  0  0  0  0  0  0  0  0  0  0  0
    2.3429    2.8756    7.4656 H   0  0  0  0  0  0  0  0  0  0  0  0
    0.1777    0.0744    6.2118 H   0  0  0  0  0  0  0  0  0  0  0  0
    0.5974    0.8458    7.6861 H   0  0  0  0  0  0  0  0  0  0  0  0
    1.8625    0.2334    6.7185 H   0  0  0  0  0  0  0  0  0  0  0  0
   -0.1103    3.5310    4.8085 H   0  0  0  0  0  0  0  0  0  0  0  0
   -1.0658    0.7039    4.4374 H   0  0  0  0  0  0  0  0  0  0  0  0
   -1.7170    2.0607    3.6472 H   0  0  0  0  0  0  0  0  0  0  0  0
   -0.0823    0.9736    2.1637 H   0  0  0  0  0  0  0  0  0  0  0  0
    0.1695    2.6499    2.4778 H   0  0  0  0  0  0  0  0  0  0  0  0
    2.0065    2.9115    2.1782 H   0  0  0  0  0  0  0  0  0  0  0  0
    2.1553    3.1343    4.4582 H   0  0  0  0  0  0  0  0  0  0  0  0
    4.1664    2.6364    5.0467 H   0  0  0  0  0  0  0  0  0  0  0  0
    3.6094    1.5265    6.2711 H   0  0  0  0  0  0  0  0  0  0  0  0
    5.3257    0.5259    4.6451 H   0  0  0  0  0  0  0  0  0  0  0  0
    3.9128   -1.5929    0.7250 H   0  0  0  0  0  0  0  0  0  0  0  0
    4.1672   -3.7123    2.1833 H   0  0  0  0  0  0  0  0  0  0  0  0
    1.8667   -3.4756    0.2620 H   0  0  0  0  0  0  0  0  0  0  0  0
    3.4428   -3.9267   -0.1440 H   0  0  0  0  0  0  0  0  0  0  0  0
    1.8872   -5.8121   -0.8491 H   0  0  0  0  0  0  0  0  0  0  0  0
    3.7449   -6.7559   -0.2446 H   0  0  0  0  0  0  0  0  0  0  0  0
    4.5376   -5.7661    0.9304 H   0  0  0  0  0  0  0  0  0  0  0  0
    2.7990   -8.1825    1.5195 H   0  0  0  0  0  0  0  0  0  0  0  0
    5.7277   -7.5514    2.1196 H   0  0  0  0  0  0  0  0  0  0  0  0
    4.8671   -8.8739    2.8964 H   0  0  0  0  0  0  0  0  0  0  0  0
    4.6198   -9.8645    0.9569 H   0  0  0  0  0  0  0  0  0  0  0  0
    1.9444   -7.2561    4.9477 H   0  0  0  0  0  0  0  0  0  0  0  0
    3.2508   -8.3580    4.5583 H   0  0  0  0  0  0  0  0  0  0  0  0
    1.7492   -8.4671    3.6761 H   0  0  0  0  0  0  0  0  0  0  0  0
    3.7889   -5.3391    4.6294 H   0  0  0  0  0  0  0  0  0  0  0  0
    4.7650   -5.3751    3.1691 H   0  0  0  0  0  0  0  0  0  0  0  0
    4.8467   -6.6691    4.3056 H   0  0  0  0  0  0  0  0  0  0  0  0
    0.8332   -7.4025    1.9575 H   0  0  0  0  0  0  0  0  0  0  0  0
    2.3662    0.0041    1.0271 H   0  0  0  0  0  0  0  0  0  0  0  0
    1.2443   -1.2244    1.5072 H   0  0  0  0  0  0  0  0  0  0  0  0
    0.2710   -0.6664    4.2083 H   0  0  0  0  0  0  0  0  0  0  0  0
    1.7571   -1.1165    5.1506 H   0  0  0  0  0  0  0  0  0  0  0  0
    1.0547   -1.9429    3.7978 H   0  0  0  0  0  0  0  0  0  0  0  0
  1  2  1  0
  1 41  1  0
  1 42  1  0
  1 43  1  0
  2 10  1  0
  2  3  1  0
  2  4  1  0
  3 44  1  0
  3 45  1  0
  3 46  1  0
  4  5  1  0
  4  6  1  0
  4 47  1  6
  5 48  1  0
  6  7  1  0
  6 49  1  0
  6 50  1  0
  7  8  1  0
  7 51  1  0
  7 52  1  0
  8 15  1  0
  8  9  1  1
  8 10  1  0
  9 53  1  0
  9 54  1  0
  9 55  1  0
 10 11  1  0
 10 56  1  6
 11 12  1  0
 11 57  1  0
 11 58  1  0
 12 13  1  0
 12 59  1  0
 12 60  1  0
 13 39  1  0
 13 14  1  6
 13 15  1  0
 14 61  1  0
 15 16  1  0
 15 62  1  6
 16 17  1  0
 16 63  1  0
 16 64  1  0
 17 18  2  0
 17 65  1  0
 18 39  1  0
 18 19  1  0
 19 20  2  0
 19 21  1  0
 21 22  1  0
 21 38  1  0
 21 66  1  6
 22 37  1  0
 22 23  1  0
 22 67  1  1
 23 24  1  0
 23 68  1  0
 23 69  1  0
 24 33  1  0
 24 25  1  6
 24 26  1  0
 25 70  1  0
 26 27  1  0
 26 71  1  0
 26 72  1  0
 27 28  1  0
 27 30  1  0
 27 73  1  6
 28 29  1  0
 28 74  1  0
 28 75  1  0
 29 76  1  0
 30 31  1  0
 30 32  1  0
 30 33  1  0
 31 77  1  0
 31 78  1  0
 31 79  1  0
 32 80  1  0
 32 81  1  0
 32 82  1  0
 33 34  1  6
 33 35  1  0
 34 83  1  0
 35 36  2  0
 35 37  1  0
 38 39  1  0
 38 84  1  0
 38 85  1  0
 39 40  1  1
 40 86  1  0
 40 87  1  0
 40 88  1  0
M  END
>  <i_m_ct_stereo_status>  (294) 
1

>  <s_m_source_file>  (294) 
/var/tmp/pbs.5076255.sched01/tmp_srbpc4z/1203xlsw0nt.sdf

>  <i_m_source_file_index>  (294) 
40

>  <i_lp_mmshare_version>  (294) 
48012

>  <i_f3d_flags>  (294) 
0

>  <s_epik_input>  (294) 
W0NIMl0xW0NIMl1bQ0BIXShbT0hdKUMoW0NIM10pKFtDSDNdKVtDQEBIXShbQ0BdMTJbQ0gzXSlbQ0gyXVtDSDJdW0NAQF0zKFtPSF0pW0NAQEhdMltDSDJdW0NIXT1DNFtDQF0zKFtDSDNdKVtDSDJdW0NAQEhdKEM0PU8pW0NASF0oW0NIMl01KU9DKD1PKVtDQEBdKFtPSF0pKFtDQEBdNTZbT0hdKUMoW0NIM10pKFtDSDNdKVtDQEBIXShbQ0gyXTYpW0NIMl1bT0hd

>  <s_epik_cmdline>  (294) 
J2VwaWtfcHl0aG9uJywgJy1waHQnLCAnMi4wJywgJy1waCcsICc3LjAnLCAnLXRuJywgJzgnLCAnLW1hJywgJzIwMCcsICctaW1hZScsICc8aW5maWxlLm1hZT4nLCAnLW9tYWUnLCAnPG91dGZpbGUubWFlPic=

>  <r_lp_tautomer_probability>  (294) 
1

>  <r_epik_Ionization_Penalty>  (294) 
3.22337e-06

>  <r_epik_Ionization_Penalty_Charging>  (294) 
0

>  <r_epik_Ionization_Penalty_Neutral>  (294) 
3.22337e-06

>  <r_epik_State_Penalty>  (294) 
-0

>  <r_epik_Charging_Adjusted_Penalty>  (294) 
0

>  <i_epik_Tot_Q>  (294) 
0

>  <i_epik_Tot_abs_Q>  (294) 
0

>  <s_epik_Chemistry_Notes>  (294) 
This compound has an ester and may undergo hydrolysis at high or low pH.

>  <s_lp_Force_Field>  (294) 
OPLS3e

>  <r_lp_Energy>  (294) 
89.978

>  <b_lp_Chiralities_Consistent>  (294) 
1

>  <s_lp_Variant>  (294) 
118:0-1

>  <s_i_glide_gridfile>  (294) 
pfpi4k_grid

>  <i_i_glide_lignum>  (294) 
40

>  <i_i_glide_rotatable_bonds>  (294) 
7

>  <r_i_docking_score>  (294) 
-2.90964

>  <r_i_glide_ligand_efficiency>  (294) 
-0.0727409

>  <r_i_glide_ligand_efficiency_sa>  (294) 
-0.24877

>  <r_i_glide_ligand_efficiency_ln>  (294) 
-0.62054

>  <r_i_glide_gscore>  (294) 
-2.90964

>  <r_i_glide_lipo>  (294) 
-0.17231

>  <r_i_glide_hbond>  (294) 
-0.0180784

>  <r_i_glide_metal>  (294) 
-0

>  <r_i_glide_rewards>  (294) 
-0.0423706

>  <r_i_glide_evdw>  (294) 
-26.5952

>  <r_i_glide_ecoul>  (294) 
-9.26753

>  <r_i_glide_erotb>  (294) 
0.0519541

>  <r_i_glide_esite>  (294) 
-0.00894175

>  <r_i_glide_emodel>  (294) 
-39.415

>  <r_i_glide_energy>  (294) 
-35.8627

>  <r_i_glide_einternal>  (294) 
3.75617

>  <r_i_glide_intrahb_reward>  (294) 
-0

>  <i_i_glide_confnum>  (294) 
3

>  <i_i_glide_posenum>  (294) 
29

>  <r_i_glide_eff_state_penalty>  (294) 
0

>  <ligand_id>  (294) 
118

>  <original_smiles>  (294) 
CC1(C)C(O)CCC2(C)C1CCC1(O)C2CC=C2C(=O)C(C3CC4(O)CC(CO)C(C)(C)C4(O)C(=O)O3)CC21C

>  <smiles>  (294) 
[H]OC([H])([H])C1([H])C([H])([H])C2(O[H])C([H])([H])C([H])(C3([H])C(=O)C4=C([H])C([H])([H])C5([H])C(O[H])(C([H])([H])C([H])([H])C6([H])C(C([H])([H])[H])(C([H])([H])[H])C([H])(O[H])C([H])([H])C([H])([H])C56C([H])([H])[H])C4(C([H])([H])[H])C3([H])[H])OC(=O)C2(O[H])C1(C([H])([H])[H])C([H])([H])[H]

$$$$
118:0:2
     RDKit          3D

 88 93  0  0  1  0  0  0  0  0999 V2000
    4.0201   -7.2860    0.9164 C   0  0  0  0  0  0  0  0  0  0  0  0
    3.4423   -8.1771    2.0466 C   0  0  0  0  0  0  0  0  0  0  0  0
    2.3916   -9.1266    1.4287 C   0  0  0  0  0  0  0  0  0  0  0  0
    4.5467   -9.0869    2.6700 C   0  0  1  0  0  0  0  0  0  0  0  0
    5.2838   -9.7983    1.6838 O   0  0  0  0  0  0  0  0  0  0  0  0
    5.5281   -8.3136    3.5636 C   0  0  0  0  0  0  0  0  0  0  0  0
    4.7982   -7.5178    4.6629 C   0  0  0  0  0  0  0  0  0  0  0  0
    3.7152   -6.5237    4.1440 C   0  0  1  0  0  0  0  0  0  0  0  0
    4.4462   -5.3623    3.4190 C   0  0  0  0  0  0  0  0  0  0  0  0
    2.7585   -7.3476    3.2040 C   0  0  1  0  0  0  0  0  0  0  0  0
    1.5250   -6.5200    2.7705 C   0  0  0  0  0  0  0  0  0  0  0  0
    0.6809   -6.0473    3.9719 C   0  0  0  0  0  0  0  0  0  0  0  0
    1.4502   -5.3642    5.1316 C   0  0  1  0  0  0  0  0  0  0  0  0
    0.6570   -5.6932    6.2658 O   0  0  0  0  0  0  0  0  0  0  0  0
    2.8617   -6.0203    5.3876 C   0  0  2  0  0  0  0  0  0  0  0  0
    3.6898   -5.3019    6.5089 C   0  0  0  0  0  0  0  0  0  0  0  0
    3.1927   -3.9197    6.9283 C   0  0  0  0  0  0  0  0  0  0  0  0
    2.2263   -3.2561    6.2667 C   0  0  0  0  0  0  0  0  0  0  0  0
    1.5864   -2.0428    6.7856 C   0  0  0  0  0  0  0  0  0  0  0  0
    1.9480   -1.3787    7.7545 O   0  0  0  0  0  0  0  0  0  0  0  0
    0.3446   -1.7068    5.9964 C   0  0  1  0  0  0  0  0  0  0  0  0
    0.5816   -0.3704    5.2393 C   0  0  2  0  0  0  0  0  0  0  0  0
   -0.7385    0.1480    4.5694 C   0  0  0  0  0  0  0  0  0  0  0  0
   -0.4899    1.4242    3.7409 C   0  0  1  0  0  0  0  0  0  0  0  0
   -1.5200    1.4484    2.7615 O   0  0  0  0  0  0  0  0  0  0  0  0
   -0.6594    2.7117    4.5861 C   0  0  0  0  0  0  0  0  0  0  0  0
    0.3850    3.6999    4.0584 C   0  0  1  0  0  0  0  0  0  0  0  0
    0.6146    4.9052    4.9992 C   0  0  0  0  0  0  0  0  0  0  0  0
   -0.1866    5.9912    4.5928 O   0  0  0  0  0  0  0  0  0  0  0  0
    1.6185    2.8222    3.7430 C   0  0  0  0  0  0  0  0  0  0  0  0
    2.6008    3.5666    2.7948 C   0  0  0  0  0  0  0  0  0  0  0  0
    2.4356    2.5238    5.0336 C   0  0  0  0  0  0  0  0  0  0  0  0
    0.9359    1.5511    3.1082 C   0  0  2  0  0  0  0  0  0  0  0  0
    0.7915    1.7759    1.6976 O   0  0  0  0  0  0  0  0  0  0  0  0
    1.8136    0.2631    3.2271 C   0  0  0  0  0  0  0  0  0  0  0  0
    2.6460    0.0185    2.3689 O   0  0  0  0  0  0  0  0  0  0  0  0
    1.6702   -0.4829    4.3646 O   0  0  0  0  0  0  0  0  0  0  0  0
    0.1066   -3.0237    5.1978 C   0  0  0  0  0  0  0  0  0  0  0  0
    1.4753   -3.7831    5.0502 C   0  0  2  0  0  0  0  0  0  0  0  0
    2.1372   -3.2675    3.7435 C   0  0  0  0  0  0  0  0  0  0  0  0
    4.2177   -7.8677    0.0132 H   0  0  0  0  0  0  0  0  0  0  0  0
    4.9677   -6.8359    1.1807 H   0  0  0  0  0  0  0  0  0  0  0  0
    3.3436   -6.4797    0.6325 H   0  0  0  0  0  0  0  0  0  0  0  0
    1.8598   -9.6969    2.1861 H   0  0  0  0  0  0  0  0  0  0  0  0
    2.8368   -9.8447    0.7384 H   0  0  0  0  0  0  0  0  0  0  0  0
    1.6353   -8.5834    0.8696 H   0  0  0  0  0  0  0  0  0  0  0  0
    4.0645   -9.8416    3.2980 H   0  0  0  0  0  0  0  0  0  0  0  0
    4.7643  -10.5321    1.3633 H   0  0  0  0  0  0  0  0  0  0  0  0
    6.2008   -9.0262    4.0396 H   0  0  0  0  0  0  0  0  0  0  0  0
    6.1783   -7.6716    2.9671 H   0  0  0  0  0  0  0  0  0  0  0  0
    4.3341   -8.2437    5.3308 H   0  0  0  0  0  0  0  0  0  0  0  0
    5.5460   -6.9981    5.2603 H   0  0  0  0  0  0  0  0  0  0  0  0
    3.8553   -4.9132    2.6280 H   0  0  0  0  0  0  0  0  0  0  0  0
    5.3664   -5.6655    2.9322 H   0  0  0  0  0  0  0  0  0  0  0  0
    4.7624   -4.5748    4.0997 H   0  0  0  0  0  0  0  0  0  0  0  0
    2.3438   -8.1152    3.8508 H   0  0  0  0  0  0  0  0  0  0  0  0
    1.8181   -5.7124    2.1190 H   0  0  0  0  0  0  0  0  0  0  0  0
    0.8549   -7.1209    2.1587 H   0  0  0  0  0  0  0  0  0  0  0  0
   -0.1404   -5.4205    3.6403 H   0  0  0  0  0  0  0  0  0  0  0  0
    0.1952   -6.9431    4.3565 H   0  0  0  0  0  0  0  0  0  0  0  0
    1.0857   -5.3487    7.0307 H   0  0  0  0  0  0  0  0  0  0  0  0
    2.5798   -6.9732    5.8621 H   0  0  0  0  0  0  0  0  0  0  0  0
    3.6755   -5.9276    7.3974 H   0  0  0  0  0  0  0  0  0  0  0  0
    4.7373   -5.1877    6.2376 H   0  0  0  0  0  0  0  0  0  0  0  0
    3.6260   -3.5215    7.8425 H   0  0  0  0  0  0  0  0  0  0  0  0
   -0.4689   -1.5562    6.7110 H   0  0  0  0  0  0  0  0  0  0  0  0
    0.8494    0.4086    5.9728 H   0  0  0  0  0  0  0  0  0  0  0  0
   -1.1691   -0.6344    3.9358 H   0  0  0  0  0  0  0  0  0  0  0  0
   -1.4975    0.3379    5.3217 H   0  0  0  0  0  0  0  0  0  0  0  0
   -2.3320    1.1609    3.1642 H   0  0  0  0  0  0  0  0  0  0  0  0
   -1.6715    3.1236    4.5373 H   0  0  0  0  0  0  0  0  0  0  0  0
   -0.4540    2.4775    5.6294 H   0  0  0  0  0  0  0  0  0  0  0  0
    0.0240    4.0716    3.0977 H   0  0  0  0  0  0  0  0  0  0  0  0
    0.3781    4.6391    6.0303 H   0  0  0  0  0  0  0  0  0  0  0  0
    1.6529    5.2422    4.9895 H   0  0  0  0  0  0  0  0  0  0  0  0
    0.1922    6.3453    3.7939 H   0  0  0  0  0  0  0  0  0  0  0  0
    3.4021    2.9032    2.4776 H   0  0  0  0  0  0  0  0  0  0  0  0
    3.0709    4.4172    3.2898 H   0  0  0  0  0  0  0  0  0  0  0  0
    2.1188    3.9680    1.9046 H   0  0  0  0  0  0  0  0  0  0  0  0
    3.2280    1.7928    4.8778 H   0  0  0  0  0  0  0  0  0  0  0  0
    1.8192    2.1832    5.8589 H   0  0  0  0  0  0  0  0  0  0  0  0
    2.9443    3.4108    5.4013 H   0  0  0  0  0  0  0  0  0  0  0  0
    0.4407    2.6567    1.5192 H   0  0  0  0  0  0  0  0  0  0  0  0
   -0.6029   -3.6027    5.7982 H   0  0  0  0  0  0  0  0  0  0  0  0
   -0.3976   -2.8581    4.2428 H   0  0  0  0  0  0  0  0  0  0  0  0
    1.9472   -3.9366    2.9107 H   0  0  0  0  0  0  0  0  0  0  0  0
    3.2209   -3.1287    3.8887 H   0  0  0  0  0  0  0  0  0  0  0  0
    1.6982   -2.3958    3.3668 H   0  0  0  0  0  0  0  0  0  0  0  0
  1  2  1  0
  1 41  1  0
  1 42  1  0
  1 43  1  0
  2 10  1  0
  2  3  1  0
  2  4  1  0
  3 44  1  0
  3 45  1  0
  3 46  1  0
  4  5  1  0
  4  6  1  0
  4 47  1  1
  5 48  1  0
  6  7  1  0
  6 49  1  0
  6 50  1  0
  7  8  1  0
  7 51  1  0
  7 52  1  0
  8 15  1  0
  8  9  1  6
  8 10  1  0
  9 53  1  0
  9 54  1  0
  9 55  1  0
 10 11  1  0
 10 56  1  1
 11 12  1  0
 11 57  1  0
 11 58  1  0
 12 13  1  0
 12 59  1  0
 12 60  1  0
 13 39  1  0
 13 14  1  1
 13 15  1  0
 14 61  1  0
 15 16  1  0
 15 62  1  1
 16 17  1  0
 16 63  1  0
 16 64  1  0
 17 18  2  0
 17 65  1  0
 18 39  1  0
 18 19  1  0
 19 20  2  0
 19 21  1  0
 21 22  1  0
 21 38  1  0
 21 66  1  1
 22 37  1  0
 22 23  1  0
 22 67  1  1
 23 24  1  0
 23 68  1  0
 23 69  1  0
 24 33  1  0
 24 25  1  6
 24 26  1  0
 25 70  1  0
 26 27  1  0
 26 71  1  0
 26 72  1  0
 27 28  1  0
 27 30  1  0
 27 73  1  6
 28 29  1  0
 28 74  1  0
 28 75  1  0
 29 76  1  0
 30 31  1  0
 30 32  1  0
 30 33  1  0
 31 77  1  0
 31 78  1  0
 31 79  1  0
 32 80  1  0
 32 81  1  0
 32 82  1  0
 33 34  1  6
 33 35  1  0
 34 83  1  0
 35 36  2  0
 35 37  1  0
 38 39  1  0
 38 84  1  0
 38 85  1  0
 39 40  1  6
 40 86  1  0
 40 87  1  0
 40 88  1  0
M  END
>  <i_m_ct_stereo_status>  (295) 
1

>  <s_m_source_file>  (295) 
/var/tmp/pbs.5076255.sched01/tmp_srbpc4z/1203xlsw0nt.sdf

>  <i_m_source_file_index>  (295) 
40

>  <i_lp_mmshare_version>  (295) 
48012

>  <i_f3d_flags>  (295) 
0

>  <s_epik_input>  (295) 
W0NIMl0xW0NIMl1bQ0BIXShbT0hdKUMoW0NIM10pKFtDSDNdKVtDQEBIXShbQ0BdMTJbQ0gzXSlbQ0gyXVtDSDJdW0NAQF0zKFtPSF0pW0NAQEhdMltDSDJdW0NIXT1DNFtDQF0zKFtDSDNdKVtDSDJdW0NAQEhdKEM0PU8pW0NASF0oW0NIMl01KU9DKD1PKVtDQEBdKFtPSF0pKFtDQEBdNTZbT0hdKUMoW0NIM10pKFtDSDNdKVtDQEBIXShbQ0gyXTYpW0NIMl1bT0hd

>  <s_epik_cmdline>  (295) 
J2VwaWtfcHl0aG9uJywgJy1waHQnLCAnMi4wJywgJy1waCcsICc3LjAnLCAnLXRuJywgJzgnLCAnLW1hJywgJzIwMCcsICctaW1hZScsICc8aW5maWxlLm1hZT4nLCAnLW9tYWUnLCAnPG91dGZpbGUubWFlPic=

>  <r_lp_tautomer_probability>  (295) 
1

>  <r_epik_Ionization_Penalty>  (295) 
3.22337e-06

>  <r_epik_Ionization_Penalty_Charging>  (295) 
0

>  <r_epik_Ionization_Penalty_Neutral>  (295) 
3.22337e-06

>  <r_epik_State_Penalty>  (295) 
-0

>  <r_epik_Charging_Adjusted_Penalty>  (295) 
0

>  <i_epik_Tot_Q>  (295) 
0

>  <i_epik_Tot_abs_Q>  (295) 
0

>  <s_epik_Chemistry_Notes>  (295) 
This compound has an ester and may undergo hydrolysis at high or low pH.

>  <s_lp_Force_Field>  (295) 
OPLS3e

>  <r_lp_Energy>  (295) 
89.978

>  <b_lp_Chiralities_Consistent>  (295) 
1

>  <s_lp_Variant>  (295) 
118:0-1

>  <s_i_glide_gridfile>  (295) 
pfpi4k_grid

>  <i_i_glide_lignum>  (295) 
40

>  <i_i_glide_rotatable_bonds>  (295) 
7

>  <r_i_docking_score>  (295) 
-2.87084

>  <r_i_glide_ligand_efficiency>  (295) 
-0.0717711

>  <r_i_glide_ligand_efficiency_sa>  (295) 
-0.245454

>  <r_i_glide_ligand_efficiency_ln>  (295) 
-0.612266

>  <r_i_glide_gscore>  (295) 
-2.87084

>  <r_i_glide_lipo>  (295) 
-0.155754

>  <r_i_glide_hbond>  (295) 
-0.148687

>  <r_i_glide_metal>  (295) 
-0

>  <r_i_glide_rewards>  (295) 
0

>  <r_i_glide_evdw>  (295) 
-23.2234

>  <r_i_glide_ecoul>  (295) 
-9.64376

>  <r_i_glide_erotb>  (295) 
0.0519541

>  <r_i_glide_esite>  (295) 
-0.0106213

>  <r_i_glide_emodel>  (295) 
-36.4751

>  <r_i_glide_energy>  (295) 
-32.8672

>  <r_i_glide_einternal>  (295) 
5.05745

>  <r_i_glide_intrahb_reward>  (295) 
-0

>  <i_i_glide_confnum>  (295) 
3

>  <i_i_glide_posenum>  (295) 
2

>  <r_i_glide_eff_state_penalty>  (295) 
0

>  <ligand_id>  (295) 
118

>  <original_smiles>  (295) 
CC1(C)C(O)CCC2(C)C1CCC1(O)C2CC=C2C(=O)C(C3CC4(O)CC(CO)C(C)(C)C4(O)C(=O)O3)CC21C

>  <smiles>  (295) 
[H]OC([H])([H])C1([H])C([H])([H])C2(O[H])C([H])([H])C([H])(C3([H])C(=O)C4=C([H])C([H])([H])C5([H])C(O[H])(C([H])([H])C([H])([H])C6([H])C(C([H])([H])[H])(C([H])([H])[H])C([H])(O[H])C([H])([H])C([H])([H])C56C([H])([H])[H])C4(C([H])([H])[H])C3([H])[H])OC(=O)C2(O[H])C1(C([H])([H])[H])C([H])([H])[H]

$$$$
