1:0:0
     RDKit          3D

 83 90  0  0  1  0  0  0  0  0999 V2000
   -1.5772    2.2503    6.8225 C   0  0  0  0  0  0  0  0  0  0  0  0
   -1.4990    2.5542    5.5204 C   0  0  0  0  0  0  0  0  0  0  0  0
   -2.4965    3.3391    4.7218 C   0  0  0  0  0  0  0  0  0  0  0  0
   -2.1097    3.1994    3.3723 O   0  0  0  0  0  0  0  0  0  0  0  0
   -0.7363    2.9982    3.3213 C   0  0  1  0  0  0  0  0  0  0  0  0
   -0.0544    4.2355    3.3377 O   0  0  0  0  0  0  0  0  0  0  0  0
   -0.4031    2.1430    4.5716 C   0  0  1  0  0  0  0  0  0  0  0  0
    0.8738    2.5058    5.1142 O   0  0  0  0  0  0  0  0  0  0  0  0
    2.0068    1.8486    4.5463 C   0  0  1  0  0  0  0  0  0  0  0  0
    3.2827    2.4782    5.1569 C   0  0  0  0  0  0  0  0  0  0  0  0
    4.0772    1.2144    5.3821 C   0  0  1  0  0  0  0  0  0  0  0  0
    5.2834    1.0728    6.2477 C   0  0  2  0  0  0  0  0  0  0  0  0
    6.7027    1.2460    6.0212 O   0  0  0  0  0  0  0  0  0  0  0  0
    6.8298   -0.1117    6.5891 C   0  0  0  0  0  0  0  0  0  0  0  0
    5.4856   -0.3992    5.9319 C   0  0  1  0  0  0  0  0  0  0  0  0
    4.1325   -1.1081    6.2653 C   0  0  2  0  0  0  0  0  0  0  0  0
    4.2673   -1.5614    7.7451 C   0  0  0  0  0  0  0  0  0  0  0  0
    5.1012   -2.8377    7.7177 C   0  0  0  0  0  0  0  0  0  0  0  0
    4.8878   -3.4633    6.3310 C   0  0  1  0  0  0  0  0  0  0  0  0
    4.5297   -4.9580    6.4160 C   0  0  2  0  0  0  0  0  0  0  0  0
    4.4042   -5.6371    5.0410 C   0  0  0  0  0  0  0  0  0  0  0  0
    3.0804   -5.4342    4.2980 C   0  0  0  0  0  0  0  0  0  0  0  0
    2.0546   -4.4669    4.9416 C   0  0  1  0  0  0  0  0  0  0  0  0
    1.0516   -5.1171    5.7354 O   0  0  0  0  0  0  0  0  0  0  0  0
    1.3394   -6.0942    6.7458 C   0  0  0  0  0  0  0  0  0  0  0  0
    0.7000   -5.6117    8.0575 C   0  0  0  0  0  0  0  0  0  0  0  0
    0.6919   -7.4088    6.3014 C   0  0  0  0  0  0  0  0  0  0  0  0
    2.7119   -6.3854    6.9750 O   0  0  0  0  0  0  0  0  0  0  0  0
    3.4231   -5.1146    7.2977 O   0  0  0  0  0  0  0  0  0  0  0  0
    2.4576   -3.0222    5.4423 C   0  0  1  0  0  0  0  0  0  0  0  0
    1.7401   -2.7728    6.6346 O   0  0  0  0  0  0  0  0  0  0  0  0
    3.9491   -2.5113    5.5063 C   0  0  1  0  0  0  0  0  0  0  0  0
    4.4504   -2.4086    4.0377 C   0  0  0  0  0  0  0  0  0  0  0  0
    3.1086    0.1430    5.9893 C   0  0  1  0  0  0  0  0  0  0  0  0
    2.4738    0.6106    7.3441 C   0  0  0  0  0  0  0  0  0  0  0  0
    1.9982    0.3074    4.8804 C   0  0  1  0  0  0  0  0  0  0  0  0
    0.5339   -0.1326    5.1655 C   0  0  0  0  0  0  0  0  0  0  0  0
   -0.4507    0.6082    4.2455 C   0  0  1  0  0  0  0  0  0  0  0  0
   -1.7354    0.0216    4.4227 O   0  0  0  0  0  0  0  0  0  0  0  0
   -0.7885    1.6817    7.3022 H   0  0  0  0  0  0  0  0  0  0  0  0
   -2.4136    2.5585    7.4360 H   0  0  0  0  0  0  0  0  0  0  0  0
   -3.4976    2.9478    4.8293 H   0  0  0  0  0  0  0  0  0  0  0  0
   -2.4623    4.3834    5.0084 H   0  0  0  0  0  0  0  0  0  0  0  0
   -0.4944    2.5265    2.3657 H   0  0  0  0  0  0  0  0  0  0  0  0
    0.1310    4.4499    2.4083 H   0  0  0  0  0  0  0  0  0  0  0  0
    2.0055    1.9909    3.4626 H   0  0  0  0  0  0  0  0  0  0  0  0
    3.7663    3.1680    4.4618 H   0  0  0  0  0  0  0  0  0  0  0  0
    3.0788    3.0211    6.0803 H   0  0  0  0  0  0  0  0  0  0  0  0
    4.3504    0.9349    4.3602 H   0  0  0  0  0  0  0  0  0  0  0  0
    5.0732    1.3008    7.2933 H   0  0  0  0  0  0  0  0  0  0  0  0
    7.6569   -0.6633    6.1459 H   0  0  0  0  0  0  0  0  0  0  0  0
    6.8579   -0.1384    7.6757 H   0  0  0  0  0  0  0  0  0  0  0  0
    5.7615   -0.5170    4.8924 H   0  0  0  0  0  0  0  0  0  0  0  0
    4.7324   -0.8177    8.3937 H   0  0  0  0  0  0  0  0  0  0  0  0
    3.3084   -1.7909    8.2062 H   0  0  0  0  0  0  0  0  0  0  0  0
    6.1586   -2.6011    7.8475 H   0  0  0  0  0  0  0  0  0  0  0  0
    4.8350   -3.4978    8.5466 H   0  0  0  0  0  0  0  0  0  0  0  0
    5.8723   -3.4339    5.8636 H   0  0  0  0  0  0  0  0  0  0  0  0
    5.3624   -5.4595    6.9067 H   0  0  0  0  0  0  0  0  0  0  0  0
    5.2145   -5.2770    4.4052 H   0  0  0  0  0  0  0  0  0  0  0  0
    4.5770   -6.7108    5.1351 H   0  0  0  0  0  0  0  0  0  0  0  0
    3.2841   -5.1439    3.2684 H   0  0  0  0  0  0  0  0  0  0  0  0
    2.5984   -6.4067    4.1753 H   0  0  0  0  0  0  0  0  0  0  0  0
    1.4260   -4.2388    4.0842 H   0  0  0  0  0  0  0  0  0  0  0  0
    1.1313   -4.6739    8.4069 H   0  0  0  0  0  0  0  0  0  0  0  0
    0.8333   -6.3450    8.8534 H   0  0  0  0  0  0  0  0  0  0  0  0
   -0.3718   -5.4510    7.9301 H   0  0  0  0  0  0  0  0  0  0  0  0
    1.1383   -7.7887    5.3861 H   0  0  0  0  0  0  0  0  0  0  0  0
   -0.3717   -7.2753    6.1157 H   0  0  0  0  0  0  0  0  0  0  0  0
    0.8082   -8.1775    7.0638 H   0  0  0  0  0  0  0  0  0  0  0  0
    2.0119   -2.3756    4.6972 H   0  0  0  0  0  0  0  0  0  0  0  0
    2.0826   -3.3598    7.2936 H   0  0  0  0  0  0  0  0  0  0  0  0
    4.0955   -3.2095    3.4059 H   0  0  0  0  0  0  0  0  0  0  0  0
    5.5350   -2.4321    3.9535 H   0  0  0  0  0  0  0  0  0  0  0  0
    4.1070   -1.4925    3.5630 H   0  0  0  0  0  0  0  0  0  0  0  0
    1.8153   -0.1580    7.7473 H   0  0  0  0  0  0  0  0  0  0  0  0
    1.8680    1.5091    7.2459 H   0  0  0  0  0  0  0  0  0  0  0  0
    3.1977    0.8334    8.1234 H   0  0  0  0  0  0  0  0  0  0  0  0
    2.3252   -0.2029    3.9708 H   0  0  0  0  0  0  0  0  0  0  0  0
    0.3769   -1.1938    5.0364 H   0  0  0  0  0  0  0  0  0  0  0  0
    0.2526    0.0721    6.1955 H   0  0  0  0  0  0  0  0  0  0  0  0
   -0.1614    0.4192    3.2029 H   0  0  0  0  0  0  0  0  0  0  0  0
   -2.3657    0.4528    3.8544 H   0  0  0  0  0  0  0  0  0  0  0  0
  1  2  2  0
  1 40  1  0
  1 41  1  0
  2  7  1  0
  2  3  1  0
  3  4  1  0
  3 42  1  0
  3 43  1  0
  4  5  1  0
  5  6  1  0
  5  7  1  0
  5 44  1  6
  6 45  1  0
  7 38  1  0
  7  8  1  1
  8  9  1  0
  9 36  1  0
  9 10  1  0
  9 46  1  6
 10 11  1  0
 10 47  1  0
 10 48  1  0
 11 34  1  0
 11 12  1  0
 11 49  1  6
 12 15  1  0
 12 13  1  0
 12 50  1  1
 13 14  1  0
 14 15  1  0
 14 51  1  0
 14 52  1  0
 15 16  1  0
 15 53  1  6
 16 32  1  0
 16 17  1  1
 16 34  1  0
 17 18  1  0
 17 54  1  0
 17 55  1  0
 18 19  1  0
 18 56  1  0
 18 57  1  0
 19 32  1  0
 19 20  1  0
 19 58  1  6
 20 29  1  0
 20 21  1  0
 20 59  1  1
 21 22  1  0
 21 60  1  0
 21 61  1  0
 22 23  1  0
 22 62  1  0
 22 63  1  0
 23 24  1  0
 23 30  1  0
 23 64  1  6
 24 25  1  0
 25 26  1  0
 25 27  1  0
 25 28  1  0
 26 65  1  0
 26 66  1  0
 26 67  1  0
 27 68  1  0
 27 69  1  0
 27 70  1  0
 28 29  1  0
 30 31  1  0
 30 32  1  0
 30 71  1  6
 31 72  1  0
 32 33  1  6
 33 73  1  0
 33 74  1  0
 33 75  1  0
 34 35  1  1
 34 36  1  0
 35 76  1  0
 35 77  1  0
 35 78  1  0
 36 37  1  0
 36 79  1  6
 37 38  1  0
 37 80  1  0
 37 81  1  0
 38 39  1  0
 38 82  1  6
 39 83  1  0
M  END
>  <i_m_ct_stereo_status>  (1) 
1

>  <s_m_source_file>  (1) 
/var/tmp/pbs.5076255.sched01/tmp5ffkvrn0/0o5bi62ha.sdf

>  <i_m_source_file_index>  (1) 
4

>  <i_lp_mmshare_version>  (1) 
48012

>  <i_f3d_flags>  (1) 
0

>  <s_epik_input>  (1) 
W09IXVtDQEBIXTFPW0NIMl1DKD1bQ0gyXSlbQ0BdMTJPW0NAQEhdM1tDQEhdKFtDSDJdW0NASF0yW09IXSlbQ0BAXTQoW0NIM10pW0NAXTUoW0NASF02W0NASF0oW0NAQEhdNFtDSDJdMylPW0NIMl02KVtDQEBdNyhbQ0gzXSlbQ0BASF0oW0NIMl1bQ0gyXTUpW0NAQEhdOFtDSDJdW0NIMl1bQ0BIXShbQ0BIXTdbT0hdKU9DKFtDSDNdKShbQ0gzXSlPTzg=

>  <s_epik_cmdline>  (1) 
J2VwaWtfcHl0aG9uJywgJy1waHQnLCAnMi4wJywgJy1waCcsICc3LjAnLCAnLXRuJywgJzgnLCAnLW1hJywgJzIwMCcsICctaW1hZScsICc8aW5maWxlLm1hZT4nLCAnLW9tYWUnLCAnPG91dGZpbGUubWFlPic=

>  <r_lp_tautomer_probability>  (1) 
1

>  <r_epik_Ionization_Penalty>  (1) 
1.27703e-06

>  <r_epik_Ionization_Penalty_Charging>  (1) 
0

>  <r_epik_Ionization_Penalty_Neutral>  (1) 
1.27703e-06

>  <r_epik_State_Penalty>  (1) 
-0

>  <r_epik_Charging_Adjusted_Penalty>  (1) 
0

>  <i_epik_Tot_Q>  (1) 
0

>  <i_epik_Tot_abs_Q>  (1) 
0

>  <s_epik_Chemistry_Notes>  (1) 
This compound contains an acetal/aminal-like group ( X-CH(R)-Y where X, Y are N, S, or O) that may be acid/base labile, releasing an aldehyde.

>  <s_lp_Force_Field>  (1) 
OPLS3e

>  <r_lp_Energy>  (1) 
148.491

>  <b_lp_Chiralities_Consistent>  (1) 
1

>  <s_lp_Variant>  (1) 
1:0-1

>  <s_i_glide_gridfile>  (1) 
pfpi4k_grid

>  <i_i_glide_lignum>  (1) 
4

>  <i_i_glide_rotatable_bonds>  (1) 
3

>  <r_i_docking_score>  (1) 
-3.25157

>  <r_i_glide_ligand_efficiency>  (1) 
-0.0833737

>  <r_i_glide_ligand_efficiency_sa>  (1) 
-0.282738

>  <r_i_glide_ligand_efficiency_ln>  (1) 
-0.69723

>  <r_i_glide_gscore>  (1) 
-3.25157

>  <r_i_glide_lipo>  (1) 
-0.181495

>  <r_i_glide_hbond>  (1) 
0

>  <r_i_glide_metal>  (1) 
-0

>  <r_i_glide_rewards>  (1) 
-0.5

>  <r_i_glide_evdw>  (1) 
-22.7816

>  <r_i_glide_ecoul>  (1) 
-9.01757

>  <r_i_glide_erotb>  (1) 
0

>  <r_i_glide_esite>  (1) 
-0.0783643

>  <r_i_glide_emodel>  (1) 
-43.187

>  <r_i_glide_energy>  (1) 
-31.7991

>  <r_i_glide_einternal>  (1) 
1.13171

>  <r_i_glide_intrahb_reward>  (1) 
-0.5

>  <i_i_glide_confnum>  (1) 
2

>  <i_i_glide_posenum>  (1) 
7

>  <r_i_glide_eff_state_penalty>  (1) 
0

>  <ligand_id>  (1) 
1

>  <original_smiles>  (1) 
C=C1COC(O)C12OC1CC3C4OCC4C4(CCC5C6CCC(OC(C)(C)OO6)C(O)C54C)C3(C)C1CC2O

>  <smiles>  (1) 
[H]OC1([H])OC([H])([H])C(=C([H])[H])C12OC1([H])C([H])([H])C3([H])C4([H])OC([H])([H])C4([H])C4(C([H])([H])C([H])([H])C5([H])C6([H])OOC(C([H])([H])[H])(C([H])([H])[H])OC([H])(C([H])([H])C6([H])[H])C([H])(O[H])C54C([H])([H])[H])C3(C([H])([H])[H])C1([H])C([H])([H])C2([H])O[H]

$$$$
1:0:1
     RDKit          3D

 83 90  0  0  1  0  0  0  0  0999 V2000
    7.1242   -1.9235    0.5870 C   0  0  0  0  0  0  0  0  0  0  0  0
    6.2754   -2.5930   -0.2177 C   0  0  0  0  0  0  0  0  0  0  0  0
    6.5452   -3.0523   -1.5973 C   0  0  0  0  0  0  0  0  0  0  0  0
    5.3265   -3.4992   -2.1216 O   0  0  0  0  0  0  0  0  0  0  0  0
    4.4834   -3.8495   -1.0920 C   0  0  1  0  0  0  0  0  0  0  0  0
    4.6902   -5.1905   -0.7252 O   0  0  0  0  0  0  0  0  0  0  0  0
    4.8291   -2.9098    0.0781 C   0  0  1  0  0  0  0  0  0  0  0  0
    4.7319   -3.5942    1.3409 O   0  0  0  0  0  0  0  0  0  0  0  0
    3.4324   -3.6009    1.9361 C   0  0  1  0  0  0  0  0  0  0  0  0
    3.5058   -4.4928    3.1970 C   0  0  0  0  0  0  0  0  0  0  0  0
    2.6832   -3.6301    4.1218 C   0  0  1  0  0  0  0  0  0  0  0  0
    2.6118   -3.7443    5.6073 C   0  0  2  0  0  0  0  0  0  0  0  0
    1.7836   -4.5141    6.5016 O   0  0  0  0  0  0  0  0  0  0  0  0
    1.5194   -3.2267    7.1662 C   0  0  0  0  0  0  0  0  0  0  0  0
    1.6168   -2.6142    5.7777 C   0  0  1  0  0  0  0  0  0  0  0  0
    2.2311   -1.3738    5.0600 C   0  0  2  0  0  0  0  0  0  0  0  0
    3.0270   -0.6277    6.1630 C   0  0  0  0  0  0  0  0  0  0  0  0
    1.9900    0.1560    6.9647 C   0  0  0  0  0  0  0  0  0  0  0  0
    0.8104    0.4119    6.0149 C   0  0  1  0  0  0  0  0  0  0  0  0
    0.3725    1.8850    6.0140 C   0  0  2  0  0  0  0  0  0  0  0  0
   -0.8678    2.1597    5.1482 C   0  0  0  0  0  0  0  0  0  0  0  0
   -0.6242    2.3031    3.6396 C   0  0  0  0  0  0  0  0  0  0  0  0
    0.8154    2.0285    3.1349 C   0  0  1  0  0  0  0  0  0  0  0  0
    1.6503    3.1844    2.9888 O   0  0  0  0  0  0  0  0  0  0  0  0
    1.7386    4.2223    3.9661 C   0  0  0  0  0  0  0  0  0  0  0  0
    3.2344    4.4157    4.2475 C   0  0  0  0  0  0  0  0  0  0  0  0
    1.1601    5.5148    3.3924 C   0  0  0  0  0  0  0  0  0  0  0  0
    1.0585    4.0079    5.1900 O   0  0  0  0  0  0  0  0  0  0  0  0
    1.5034    2.7076    5.7706 O   0  0  0  0  0  0  0  0  0  0  0  0
    1.6217    0.7332    3.5385 C   0  0  1  0  0  0  0  0  0  0  0  0
    2.9747    1.1158    3.6921 O   0  0  0  0  0  0  0  0  0  0  0  0
    1.1341   -0.2784    4.6484 C   0  0  1  0  0  0  0  0  0  0  0  0
   -0.1400   -0.9643    4.0919 C   0  0  0  0  0  0  0  0  0  0  0  0
    3.1302   -2.1411    3.9230 C   0  0  1  0  0  0  0  0  0  0  0  0
    4.6502   -1.9361    4.2329 C   0  0  0  0  0  0  0  0  0  0  0  0
    2.9693   -2.1513    2.3575 C   0  0  1  0  0  0  0  0  0  0  0  0
    3.7481   -1.1218    1.4842 C   0  0  0  0  0  0  0  0  0  0  0  0
    3.9067   -1.6529    0.0512 C   0  0  1  0  0  0  0  0  0  0  0  0
    4.4924   -0.6716   -0.7690 O   0  0  0  0  0  0  0  0  0  0  0  0
    6.7919   -1.5953    1.5659 H   0  0  0  0  0  0  0  0  0  0  0  0
    8.1383   -1.6885    0.2963 H   0  0  0  0  0  0  0  0  0  0  0  0
    6.9371   -2.2891   -2.2360 H   0  0  0  0  0  0  0  0  0  0  0  0
    7.2698   -3.8480   -1.5593 H   0  0  0  0  0  0  0  0  0  0  0  0
    3.4727   -3.7745   -1.4793 H   0  0  0  0  0  0  0  0  0  0  0  0
    4.1853   -5.7156   -1.3287 H   0  0  0  0  0  0  0  0  0  0  0  0
    2.7107   -4.0166    1.2246 H   0  0  0  0  0  0  0  0  0  0  0  0
    3.0726   -5.4769    3.0223 H   0  0  0  0  0  0  0  0  0  0  0  0
    4.5281   -4.6329    3.5449 H   0  0  0  0  0  0  0  0  0  0  0  0
    1.6726   -3.7665    3.7262 H   0  0  0  0  0  0  0  0  0  0  0  0
    3.5775   -3.5780    6.0849 H   0  0  0  0  0  0  0  0  0  0  0  0
    0.5182   -3.1679    7.5887 H   0  0  0  0  0  0  0  0  0  0  0  0
    2.2823   -2.9119    7.8814 H   0  0  0  0  0  0  0  0  0  0  0  0
    0.6650   -2.9167    5.3485 H   0  0  0  0  0  0  0  0  0  0  0  0
    3.5959   -1.2891    6.8224 H   0  0  0  0  0  0  0  0  0  0  0  0
    3.7401    0.0858    5.7552 H   0  0  0  0  0  0  0  0  0  0  0  0
    1.6462   -0.4330    7.8172 H   0  0  0  0  0  0  0  0  0  0  0  0
    2.4273    1.0666    7.3806 H   0  0  0  0  0  0  0  0  0  0  0  0
   -0.0195   -0.1298    6.4617 H   0  0  0  0  0  0  0  0  0  0  0  0
    0.0638    2.1236    7.0265 H   0  0  0  0  0  0  0  0  0  0  0  0
   -1.5795    1.3481    5.2996 H   0  0  0  0  0  0  0  0  0  0  0  0
   -1.3789    3.0622    5.4876 H   0  0  0  0  0  0  0  0  0  0  0  0
   -1.3460    1.6857    3.0972 H   0  0  0  0  0  0  0  0  0  0  0  0
   -0.9083    3.3116    3.3262 H   0  0  0  0  0  0  0  0  0  0  0  0
    0.6213    1.8579    2.0780 H   0  0  0  0  0  0  0  0  0  0  0  0
    3.6938    3.5120    4.6539 H   0  0  0  0  0  0  0  0  0  0  0  0
    3.4120    5.2276    4.9577 H   0  0  0  0  0  0  0  0  0  0  0  0
    3.7670    4.6618    3.3252 H   0  0  0  0  0  0  0  0  0  0  0  0
    0.0978    5.4263    3.1809 H   0  0  0  0  0  0  0  0  0  0  0  0
    1.6641    5.7715    2.4669 H   0  0  0  0  0  0  0  0  0  0  0  0
    1.2928    6.3537    4.0756 H   0  0  0  0  0  0  0  0  0  0  0  0
    1.5956    0.1395    2.6302 H   0  0  0  0  0  0  0  0  0  0  0  0
    3.1948    1.6955    2.9739 H   0  0  0  0  0  0  0  0  0  0  0  0
   -0.7760   -0.2894    3.5385 H   0  0  0  0  0  0  0  0  0  0  0  0
   -0.7718   -1.3975    4.8656 H   0  0  0  0  0  0  0  0  0  0  0  0
    0.1223   -1.7573    3.3986 H   0  0  0  0  0  0  0  0  0  0  0  0
    4.9319   -0.8933    4.1010 H   0  0  0  0  0  0  0  0  0  0  0  0
    5.3030   -2.5137    3.5814 H   0  0  0  0  0  0  0  0  0  0  0  0
    4.9418   -2.2065    5.2440 H   0  0  0  0  0  0  0  0  0  0  0  0
    1.9129   -2.0806    2.0995 H   0  0  0  0  0  0  0  0  0  0  0  0
    3.2423   -0.1747    1.4271 H   0  0  0  0  0  0  0  0  0  0  0  0
    4.7262   -0.8960    1.9085 H   0  0  0  0  0  0  0  0  0  0  0  0
    2.9193   -1.8703   -0.3637 H   0  0  0  0  0  0  0  0  0  0  0  0
    4.0465    0.1405   -0.6416 H   0  0  0  0  0  0  0  0  0  0  0  0
  1  2  2  0
  1 40  1  0
  1 41  1  0
  2  7  1  0
  2  3  1  0
  3  4  1  0
  3 42  1  0
  3 43  1  0
  4  5  1  0
  5  6  1  0
  5  7  1  0
  5 44  1  6
  6 45  1  0
  7 38  1  0
  7  8  1  1
  8  9  1  0
  9 36  1  0
  9 10  1  0
  9 46  1  6
 10 11  1  0
 10 47  1  0
 10 48  1  0
 11 34  1  0
 11 12  1  0
 11 49  1  6
 12 15  1  0
 12 13  1  0
 12 50  1  1
 13 14  1  0
 14 15  1  0
 14 51  1  0
 14 52  1  0
 15 16  1  0
 15 53  1  6
 16 32  1  0
 16 17  1  1
 16 34  1  0
 17 18  1  0
 17 54  1  0
 17 55  1  0
 18 19  1  0
 18 56  1  0
 18 57  1  0
 19 32  1  0
 19 20  1  0
 19 58  1  1
 20 29  1  0
 20 21  1  0
 20 59  1  1
 21 22  1  0
 21 60  1  0
 21 61  1  0
 22 23  1  0
 22 62  1  0
 22 63  1  0
 23 24  1  0
 23 30  1  0
 23 64  1  6
 24 25  1  0
 25 26  1  0
 25 27  1  0
 25 28  1  0
 26 65  1  0
 26 66  1  0
 26 67  1  0
 27 68  1  0
 27 69  1  0
 27 70  1  0
 28 29  1  0
 30 31  1  0
 30 32  1  0
 30 71  1  6
 31 72  1  0
 32 33  1  6
 33 73  1  0
 33 74  1  0
 33 75  1  0
 34 35  1  6
 34 36  1  0
 35 76  1  0
 35 77  1  0
 35 78  1  0
 36 37  1  0
 36 79  1  1
 37 38  1  0
 37 80  1  0
 37 81  1  0
 38 39  1  0
 38 82  1  6
 39 83  1  0
M  END
>  <i_m_ct_stereo_status>  (2) 
1

>  <s_m_source_file>  (2) 
/var/tmp/pbs.5076255.sched01/tmp5ffkvrn0/0o5bi62ha.sdf

>  <i_m_source_file_index>  (2) 
4

>  <i_lp_mmshare_version>  (2) 
48012

>  <i_f3d_flags>  (2) 
0

>  <s_epik_input>  (2) 
W09IXVtDQEBIXTFPW0NIMl1DKD1bQ0gyXSlbQ0BdMTJPW0NAQEhdM1tDQEhdKFtDSDJdW0NASF0yW09IXSlbQ0BAXTQoW0NIM10pW0NAXTUoW0NASF02W0NASF0oW0NAQEhdNFtDSDJdMylPW0NIMl02KVtDQEBdNyhbQ0gzXSlbQ0BASF0oW0NIMl1bQ0gyXTUpW0NAQEhdOFtDSDJdW0NIMl1bQ0BIXShbQ0BIXTdbT0hdKU9DKFtDSDNdKShbQ0gzXSlPTzg=

>  <s_epik_cmdline>  (2) 
J2VwaWtfcHl0aG9uJywgJy1waHQnLCAnMi4wJywgJy1waCcsICc3LjAnLCAnLXRuJywgJzgnLCAnLW1hJywgJzIwMCcsICctaW1hZScsICc8aW5maWxlLm1hZT4nLCAnLW9tYWUnLCAnPG91dGZpbGUubWFlPic=

>  <r_lp_tautomer_probability>  (2) 
1

>  <r_epik_Ionization_Penalty>  (2) 
1.27703e-06

>  <r_epik_Ionization_Penalty_Charging>  (2) 
0

>  <r_epik_Ionization_Penalty_Neutral>  (2) 
1.27703e-06

>  <r_epik_State_Penalty>  (2) 
-0

>  <r_epik_Charging_Adjusted_Penalty>  (2) 
0

>  <i_epik_Tot_Q>  (2) 
0

>  <i_epik_Tot_abs_Q>  (2) 
0

>  <s_epik_Chemistry_Notes>  (2) 
This compound contains an acetal/aminal-like group ( X-CH(R)-Y where X, Y are N, S, or O) that may be acid/base labile, releasing an aldehyde.

>  <s_lp_Force_Field>  (2) 
OPLS3e

>  <r_lp_Energy>  (2) 
148.491

>  <b_lp_Chiralities_Consistent>  (2) 
1

>  <s_lp_Variant>  (2) 
1:0-1

>  <s_i_glide_gridfile>  (2) 
pfpi4k_grid

>  <i_i_glide_lignum>  (2) 
4

>  <i_i_glide_rotatable_bonds>  (2) 
3

>  <r_i_docking_score>  (2) 
-2.64958

>  <r_i_glide_ligand_efficiency>  (2) 
-0.067938

>  <r_i_glide_ligand_efficiency_sa>  (2) 
-0.230392

>  <r_i_glide_ligand_efficiency_ln>  (2) 
-0.568146

>  <r_i_glide_gscore>  (2) 
-2.64958

>  <r_i_glide_lipo>  (2) 
-0.0943434

>  <r_i_glide_hbond>  (2) 
0

>  <r_i_glide_metal>  (2) 
-0

>  <r_i_glide_rewards>  (2) 
0

>  <r_i_glide_evdw>  (2) 
-32.3297

>  <r_i_glide_ecoul>  (2) 
-5.91508

>  <r_i_glide_erotb>  (2) 
0

>  <r_i_glide_esite>  (2) 
-0.0514926

>  <r_i_glide_emodel>  (2) 
-43.1195

>  <r_i_glide_energy>  (2) 
-38.2448

>  <r_i_glide_einternal>  (2) 
1.13914

>  <r_i_glide_intrahb_reward>  (2) 
-0

>  <i_i_glide_confnum>  (2) 
2

>  <i_i_glide_posenum>  (2) 
2

>  <r_i_glide_eff_state_penalty>  (2) 
0

>  <ligand_id>  (2) 
1

>  <original_smiles>  (2) 
C=C1COC(O)C12OC1CC3C4OCC4C4(CCC5C6CCC(OC(C)(C)OO6)C(O)C54C)C3(C)C1CC2O

>  <smiles>  (2) 
[H]OC1([H])OC([H])([H])C(=C([H])[H])C12OC1([H])C([H])([H])C3([H])C4([H])OC([H])([H])C4([H])C4(C([H])([H])C([H])([H])C5([H])C6([H])OOC(C([H])([H])[H])(C([H])([H])[H])OC([H])(C([H])([H])C6([H])[H])C([H])(O[H])C54C([H])([H])[H])C3(C([H])([H])[H])C1([H])C([H])([H])C2([H])O[H]

$$$$
1:0:2
     RDKit          3D

 83 90  0  0  1  0  0  0  0  0999 V2000
    7.3896   -1.8632    0.4853 C   0  0  0  0  0  0  0  0  0  0  0  0
    6.5561   -2.5758   -0.2914 C   0  0  0  0  0  0  0  0  0  0  0  0
    6.8418   -3.0670   -1.6639 C   0  0  0  0  0  0  0  0  0  0  0  0
    5.6226   -3.5543   -2.1522 O   0  0  0  0  0  0  0  0  0  0  0  0
    4.7878   -3.9176   -1.1225 C   0  0  1  0  0  0  0  0  0  0  0  0
    5.0231   -5.2464   -0.7290 O   0  0  0  0  0  0  0  0  0  0  0  0
    5.1230   -2.9458    0.0284 C   0  0  1  0  0  0  0  0  0  0  0  0
    5.0831   -3.6244    1.2910 O   0  0  0  0  0  0  0  0  0  0  0  0
    3.8005   -3.6799    1.9256 C   0  0  1  0  0  0  0  0  0  0  0  0
    3.9273   -4.5458    3.2040 C   0  0  0  0  0  0  0  0  0  0  0  0
    3.0803   -3.7051    4.1298 C   0  0  1  0  0  0  0  0  0  0  0  0
    3.0371   -3.7949    5.6163 C   0  0  2  0  0  0  0  0  0  0  0  0
    2.2604   -4.5886    6.5377 O   0  0  0  0  0  0  0  0  0  0  0  0
    1.9474   -3.3024    7.1837 C   0  0  0  0  0  0  0  0  0  0  0  0
    1.9930   -2.7080    5.7843 C   0  0  1  0  0  0  0  0  0  0  0  0
    2.5433   -1.4545    5.0354 C   0  0  2  0  0  0  0  0  0  0  0  0
    3.3220   -0.6591    6.1158 C   0  0  0  0  0  0  0  0  0  0  0  0
    2.2656    0.0944    6.9199 C   0  0  0  0  0  0  0  0  0  0  0  0
    1.0597    0.2803    5.9846 C   0  0  1  0  0  0  0  0  0  0  0  0
    0.5596    1.7337    5.9658 C   0  0  2  0  0  0  0  0  0  0  0  0
   -0.7040    1.9415    5.1148 C   0  0  0  0  0  0  0  0  0  0  0  0
   -0.4921    2.0697    3.6008 C   0  0  0  0  0  0  0  0  0  0  0  0
    0.9498    1.8495    3.0762 C   0  0  1  0  0  0  0  0  0  0  0  0
    1.7260    3.0430    2.9067 O   0  0  0  0  0  0  0  0  0  0  0  0
    1.7895    4.1022    3.8648 C   0  0  0  0  0  0  0  0  0  0  0  0
    3.2793    4.3621    4.1167 C   0  0  0  0  0  0  0  0  0  0  0  0
    1.1501    5.3602    3.2783 C   0  0  0  0  0  0  0  0  0  0  0  0
    1.1484    3.8724    5.1063 O   0  0  0  0  0  0  0  0  0  0  0  0
    1.6557    2.5916    5.6814 O   0  0  0  0  0  0  0  0  0  0  0  0
    1.8180    0.5975    3.4930 C   0  0  1  0  0  0  0  0  0  0  0  0
    3.1482    1.0407    3.6419 O   0  0  0  0  0  0  0  0  0  0  0  0
    1.3904   -0.4174    4.6212 C   0  0  1  0  0  0  0  0  0  0  0  0
    0.1420   -1.1682    4.0894 C   0  0  0  0  0  0  0  0  0  0  0  0
    3.4585   -2.2023    3.8961 C   0  0  1  0  0  0  0  0  0  0  0  0
    4.9724   -1.9257    4.1814 C   0  0  0  0  0  0  0  0  0  0  0  0
    3.2799   -2.2448    2.3309 C   0  0  1  0  0  0  0  0  0  0  0  0
    3.9958   -1.1913    1.4351 C   0  0  0  0  0  0  0  0  0  0  0  0
    4.1459   -1.7318    0.0041 C   0  0  1  0  0  0  0  0  0  0  0  0
    4.6497   -0.7301   -0.8454 O   0  0  0  0  0  0  0  0  0  0  0  0
    7.0584   -1.5331    1.4623 H   0  0  0  0  0  0  0  0  0  0  0  0
    8.3939   -1.5953    0.1815 H   0  0  0  0  0  0  0  0  0  0  0  0
    7.1910   -2.2871   -2.3174 H   0  0  0  0  0  0  0  0  0  0  0  0
    7.5720   -3.8606   -1.6267 H   0  0  0  0  0  0  0  0  0  0  0  0
    3.7719   -3.8803   -1.5026 H   0  0  0  0  0  0  0  0  0  0  0  0
    5.8799   -5.2943   -0.3347 H   0  0  0  0  0  0  0  0  0  0  0  0
    3.0821   -4.1375    1.2383 H   0  0  0  0  0  0  0  0  0  0  0  0
    3.5332   -5.5522    3.0508 H   0  0  0  0  0  0  0  0  0  0  0  0
    4.9594   -4.6366    3.5391 H   0  0  0  0  0  0  0  0  0  0  0  0
    2.0733   -3.8932    3.7504 H   0  0  0  0  0  0  0  0  0  0  0  0
    4.0012   -3.5818    6.0736 H   0  0  0  0  0  0  0  0  0  0  0  0
    0.9493   -3.2811    7.6201 H   0  0  0  0  0  0  0  0  0  0  0  0
    2.7005   -2.9398    7.8822 H   0  0  0  0  0  0  0  0  0  0  0  0
    1.0555   -3.0603    5.3749 H   0  0  0  0  0  0  0  0  0  0  0  0
    3.9269   -1.2841    6.7781 H   0  0  0  0  0  0  0  0  0  0  0  0
    4.0032    0.0754    5.6897 H   0  0  0  0  0  0  0  0  0  0  0  0
    1.9593   -0.4941    7.7866 H   0  0  0  0  0  0  0  0  0  0  0  0
    2.6672    1.0300    7.3172 H   0  0  0  0  0  0  0  0  0  0  0  0
    0.2589   -0.2873    6.4539 H   0  0  0  0  0  0  0  0  0  0  0  0
    0.2590    1.9824    6.9795 H   0  0  0  0  0  0  0  0  0  0  0  0
   -1.3775    1.1027    5.2918 H   0  0  0  0  0  0  0  0  0  0  0  0
   -1.2494    2.8258    5.4486 H   0  0  0  0  0  0  0  0  0  0  0  0
   -1.1937    1.4141    3.0796 H   0  0  0  0  0  0  0  0  0  0  0  0
   -0.8229    3.0600    3.2761 H   0  0  0  0  0  0  0  0  0  0  0  0
    0.7529    1.6523    2.0243 H   0  0  0  0  0  0  0  0  0  0  0  0
    3.7911    3.4914    4.5296 H   0  0  0  0  0  0  0  0  0  0  0  0
    3.4346    5.1933    4.8077 H   0  0  0  0  0  0  0  0  0  0  0  0
    3.7855    4.6135    3.1796 H   0  0  0  0  0  0  0  0  0  0  0  0
    0.0907    5.2200    3.0886 H   0  0  0  0  0  0  0  0  0  0  0  0
    1.6268    5.6186    2.3403 H   0  0  0  0  0  0  0  0  0  0  0  0
    1.2576    6.2162    3.9474 H   0  0  0  0  0  0  0  0  0  0  0  0
    1.8148   -0.0142    2.5979 H   0  0  0  0  0  0  0  0  0  0  0  0
    3.1271    1.8109    4.1963 H   0  0  0  0  0  0  0  0  0  0  0  0
   -0.5315   -0.5304    3.5365 H   0  0  0  0  0  0  0  0  0  0  0  0
   -0.4583   -1.6137    4.8790 H   0  0  0  0  0  0  0  0  0  0  0  0
    0.4203   -1.9619    3.4002 H   0  0  0  0  0  0  0  0  0  0  0  0
    5.2074   -0.8737    4.0270 H   0  0  0  0  0  0  0  0  0  0  0  0
    5.6378   -2.4843    3.5275 H   0  0  0  0  0  0  0  0  0  0  0  0
    5.2929   -2.1655    5.1914 H   0  0  0  0  0  0  0  0  0  0  0  0
    2.2140   -2.2244    2.0939 H   0  0  0  0  0  0  0  0  0  0  0  0
    3.4512   -0.2643    1.3790 H   0  0  0  0  0  0  0  0  0  0  0  0
    4.9705   -0.9202    1.8354 H   0  0  0  0  0  0  0  0  0  0  0  0
    3.1601   -2.0010   -0.3836 H   0  0  0  0  0  0  0  0  0  0  0  0
    4.1268    0.0496   -0.7652 H   0  0  0  0  0  0  0  0  0  0  0  0
  1  2  2  0
  1 40  1  0
  1 41  1  0
  2  7  1  0
  2  3  1  0
  3  4  1  0
  3 42  1  0
  3 43  1  0
  4  5  1  0
  5  6  1  0
  5  7  1  0
  5 44  1  6
  6 45  1  0
  7 38  1  0
  7  8  1  1
  8  9  1  0
  9 36  1  0
  9 10  1  0
  9 46  1  6
 10 11  1  0
 10 47  1  0
 10 48  1  0
 11 34  1  0
 11 12  1  0
 11 49  1  6
 12 15  1  0
 12 13  1  0
 12 50  1  1
 13 14  1  0
 14 15  1  0
 14 51  1  0
 14 52  1  0
 15 16  1  0
 15 53  1  6
 16 32  1  0
 16 17  1  1
 16 34  1  0
 17 18  1  0
 17 54  1  0
 17 55  1  0
 18 19  1  0
 18 56  1  0
 18 57  1  0
 19 32  1  0
 19 20  1  0
 19 58  1  1
 20 29  1  0
 20 21  1  0
 20 59  1  1
 21 22  1  0
 21 60  1  0
 21 61  1  0
 22 23  1  0
 22 62  1  0
 22 63  1  0
 23 24  1  0
 23 30  1  0
 23 64  1  6
 24 25  1  0
 25 26  1  0
 25 27  1  0
 25 28  1  0
 26 65  1  0
 26 66  1  0
 26 67  1  0
 27 68  1  0
 27 69  1  0
 27 70  1  0
 28 29  1  0
 30 31  1  0
 30 32  1  0
 30 71  1  6
 31 72  1  0
 32 33  1  6
 33 73  1  0
 33 74  1  0
 33 75  1  0
 34 35  1  6
 34 36  1  0
 35 76  1  0
 35 77  1  0
 35 78  1  0
 36 37  1  0
 36 79  1  1
 37 38  1  0
 37 80  1  0
 37 81  1  0
 38 39  1  0
 38 82  1  6
 39 83  1  0
M  END
>  <i_m_ct_stereo_status>  (3) 
1

>  <s_m_source_file>  (3) 
/var/tmp/pbs.5076255.sched01/tmp5ffkvrn0/0o5bi62ha.sdf

>  <i_m_source_file_index>  (3) 
4

>  <i_lp_mmshare_version>  (3) 
48012

>  <i_f3d_flags>  (3) 
0

>  <s_epik_input>  (3) 
W09IXVtDQEBIXTFPW0NIMl1DKD1bQ0gyXSlbQ0BdMTJPW0NAQEhdM1tDQEhdKFtDSDJdW0NASF0yW09IXSlbQ0BAXTQoW0NIM10pW0NAXTUoW0NASF02W0NASF0oW0NAQEhdNFtDSDJdMylPW0NIMl02KVtDQEBdNyhbQ0gzXSlbQ0BASF0oW0NIMl1bQ0gyXTUpW0NAQEhdOFtDSDJdW0NIMl1bQ0BIXShbQ0BIXTdbT0hdKU9DKFtDSDNdKShbQ0gzXSlPTzg=

>  <s_epik_cmdline>  (3) 
J2VwaWtfcHl0aG9uJywgJy1waHQnLCAnMi4wJywgJy1waCcsICc3LjAnLCAnLXRuJywgJzgnLCAnLW1hJywgJzIwMCcsICctaW1hZScsICc8aW5maWxlLm1hZT4nLCAnLW9tYWUnLCAnPG91dGZpbGUubWFlPic=

>  <r_lp_tautomer_probability>  (3) 
1

>  <r_epik_Ionization_Penalty>  (3) 
1.27703e-06

>  <r_epik_Ionization_Penalty_Charging>  (3) 
0

>  <r_epik_Ionization_Penalty_Neutral>  (3) 
1.27703e-06

>  <r_epik_State_Penalty>  (3) 
-0

>  <r_epik_Charging_Adjusted_Penalty>  (3) 
0

>  <i_epik_Tot_Q>  (3) 
0

>  <i_epik_Tot_abs_Q>  (3) 
0

>  <s_epik_Chemistry_Notes>  (3) 
This compound contains an acetal/aminal-like group ( X-CH(R)-Y where X, Y are N, S, or O) that may be acid/base labile, releasing an aldehyde.

>  <s_lp_Force_Field>  (3) 
OPLS3e

>  <r_lp_Energy>  (3) 
148.491

>  <b_lp_Chiralities_Consistent>  (3) 
1

>  <s_lp_Variant>  (3) 
1:0-1

>  <s_i_glide_gridfile>  (3) 
pfpi4k_grid

>  <i_i_glide_lignum>  (3) 
4

>  <i_i_glide_rotatable_bonds>  (3) 
3

>  <r_i_docking_score>  (3) 
-2.23371

>  <r_i_glide_ligand_efficiency>  (3) 
-0.0572747

>  <r_i_glide_ligand_efficiency_sa>  (3) 
-0.194231

>  <r_i_glide_ligand_efficiency_ln>  (3) 
-0.478972

>  <r_i_glide_gscore>  (3) 
-2.23371

>  <r_i_glide_lipo>  (3) 
-0.101223

>  <r_i_glide_hbond>  (3) 
0

>  <r_i_glide_metal>  (3) 
-0

>  <r_i_glide_rewards>  (3) 
-0.5

>  <r_i_glide_evdw>  (3) 
-32.0743

>  <r_i_glide_ecoul>  (3) 
0.120758

>  <r_i_glide_erotb>  (3) 
0

>  <r_i_glide_esite>  (3) 
-0.0468887

>  <r_i_glide_emodel>  (3) 
-41.2143

>  <r_i_glide_energy>  (3) 
-31.9536

>  <r_i_glide_einternal>  (3) 
0.552336

>  <r_i_glide_intrahb_reward>  (3) 
-0.5

>  <i_i_glide_confnum>  (3) 
2

>  <i_i_glide_posenum>  (3) 
26

>  <r_i_glide_eff_state_penalty>  (3) 
0

>  <ligand_id>  (3) 
1

>  <original_smiles>  (3) 
C=C1COC(O)C12OC1CC3C4OCC4C4(CCC5C6CCC(OC(C)(C)OO6)C(O)C54C)C3(C)C1CC2O

>  <smiles>  (3) 
[H]OC1([H])OC([H])([H])C(=C([H])[H])C12OC1([H])C([H])([H])C3([H])C4([H])OC([H])([H])C4([H])C4(C([H])([H])C([H])([H])C5([H])C6([H])OOC(C([H])([H])[H])(C([H])([H])[H])OC([H])(C([H])([H])C6([H])[H])C([H])(O[H])C54C([H])([H])[H])C3(C([H])([H])[H])C1([H])C([H])([H])C2([H])O[H]

$$$$
3:0:0
     RDKit          3D

 55 60  0  0  1  0  0  0  0  0999 V2000
    2.2334   -5.4273    3.5698 C   0  0  0  0  0  0  0  0  0  0  0  0
    2.0417   -4.4352    2.5625 O   0  0  0  0  0  0  0  0  0  0  0  0
    2.9668   -3.3805    2.5340 C   0  0  1  0  0  0  0  0  0  0  0  0
    2.9237   -2.6490    3.7386 O   0  0  0  0  0  0  0  0  0  0  0  0
    1.9020   -1.6381    3.8381 C   0  0  0  0  0  0  0  0  0  0  0  0
    1.8232   -0.7062    2.5860 C   0  0  1  0  0  0  0  0  0  0  0  0
    1.7312    0.7887    2.9505 C   0  0  0  0  0  0  0  0  0  0  0  0
    2.8544   -1.0597    1.5983 N   0  0  0  0  0  0  0  0  0  0  0  0
    4.1790   -0.6692    2.1297 C   0  0  0  0  0  0  0  0  0  0  0  0
    5.4291   -1.4920    1.7714 C   0  0  1  0  0  0  0  0  0  0  0  0
    5.4664   -2.8192    2.5639 C   0  0  0  0  0  0  0  0  0  0  0  0
    4.4109   -3.8833    2.1790 C   0  0  2  0  0  0  0  0  0  0  0  0
    4.3754   -4.1894    0.6506 C   0  0  2  0  0  0  0  0  0  0  0  0
    4.0084   -5.6844    0.4465 C   0  0  0  0  0  0  0  0  0  0  0  0
    5.7133   -4.0052   -0.0541 C   0  0  0  0  0  0  0  0  0  0  0  0
    6.3704   -2.8521   -0.2274 C   0  0  0  0  0  0  0  0  0  0  0  0
    5.9283   -1.5020    0.2944 C   0  0  1  0  0  0  0  0  0  0  0  0
    5.0687   -0.7158   -0.7100 C   0  0  0  0  0  0  0  0  0  0  0  0
    4.1395   -1.4792   -1.6415 C   0  0  0  0  0  0  0  0  0  0  0  0
    4.0539   -0.9732   -2.9581 C   0  0  0  0  0  0  0  0  0  0  0  0
    3.2238   -1.5585   -3.9190 C   0  0  0  0  0  0  0  0  0  0  0  0
    2.4521   -2.6726   -3.5772 C   0  0  0  0  0  0  0  0  0  0  0  0
    2.5037   -3.1722   -2.2700 C   0  0  0  0  0  0  0  0  0  0  0  0
    3.3343   -2.6002   -1.2729 C   0  0  0  0  0  0  0  0  0  0  0  0
    3.2471   -3.2525    0.1283 C   0  0  2  0  0  0  0  0  0  0  0  0
    2.6226   -2.4903    1.3267 C   0  0  1  0  0  0  0  0  0  0  0  0
    1.3354   -6.0393    3.6465 H   0  0  0  0  0  0  0  0  0  0  0  0
    2.4204   -4.9842    4.5473 H   0  0  0  0  0  0  0  0  0  0  0  0
    3.0518   -6.1073    3.3315 H   0  0  0  0  0  0  0  0  0  0  0  0
    0.9360   -2.1103    4.0145 H   0  0  0  0  0  0  0  0  0  0  0  0
    2.1282   -1.0495    4.7255 H   0  0  0  0  0  0  0  0  0  0  0  0
    0.8579   -0.9001    2.1170 H   0  0  0  0  0  0  0  0  0  0  0  0
    0.8181    0.9776    3.5190 H   0  0  0  0  0  0  0  0  0  0  0  0
    1.6917    1.4132    2.0557 H   0  0  0  0  0  0  0  0  0  0  0  0
    2.5713    1.1179    3.5616 H   0  0  0  0  0  0  0  0  0  0  0  0
    4.3518    0.3734    1.8639 H   0  0  0  0  0  0  0  0  0  0  0  0
    4.1581   -0.6330    3.2216 H   0  0  0  0  0  0  0  0  0  0  0  0
    6.2086   -0.9156    2.2717 H   0  0  0  0  0  0  0  0  0  0  0  0
    6.4553   -3.2629    2.4480 H   0  0  0  0  0  0  0  0  0  0  0  0
    5.3862   -2.5974    3.6306 H   0  0  0  0  0  0  0  0  0  0  0  0
    4.6582   -4.7688    2.7598 H   0  0  0  0  0  0  0  0  0  0  0  0
    3.0473   -5.9541    0.8797 H   0  0  0  0  0  0  0  0  0  0  0  0
    4.7566   -6.3431    0.8872 H   0  0  0  0  0  0  0  0  0  0  0  0
    3.9535   -5.9225   -0.6147 H   0  0  0  0  0  0  0  0  0  0  0  0
    6.1477   -4.8985   -0.4722 H   0  0  0  0  0  0  0  0  0  0  0  0
    7.2986   -2.8730   -0.7734 H   0  0  0  0  0  0  0  0  0  0  0  0
    6.8662   -0.9473    0.3453 H   0  0  0  0  0  0  0  0  0  0  0  0
    4.5423    0.1274   -0.2716 H   0  0  0  0  0  0  0  0  0  0  0  0
    5.7961   -0.2562   -1.3733 H   0  0  0  0  0  0  0  0  0  0  0  0
    4.6152   -0.0977   -3.2406 H   0  0  0  0  0  0  0  0  0  0  0  0
    3.1598   -1.1417   -4.9142 H   0  0  0  0  0  0  0  0  0  0  0  0
    1.7984   -3.1316   -4.3071 H   0  0  0  0  0  0  0  0  0  0  0  0
    1.8662   -4.0195   -2.0503 H   0  0  0  0  0  0  0  0  0  0  0  0
    2.4385   -3.9665   -0.0312 H   0  0  0  0  0  0  0  0  0  0  0  0
    1.5517   -2.5817    1.1598 H   0  0  0  0  0  0  0  0  0  0  0  0
  1  2  1  0
  1 27  1  0
  1 28  1  0
  1 29  1  0
  3  2  1  1
  3 12  1  0
  3 26  1  0
  3  4  1  0
  4  5  1  0
  5  6  1  0
  5 30  1  0
  5 31  1  0
  6  7  1  0
  6  8  1  0
  6 32  1  6
  7 33  1  0
  7 34  1  0
  7 35  1  0
  8 26  1  0
  8  9  1  0
  9 10  1  0
  9 36  1  0
  9 37  1  0
 10 17  1  0
 10 11  1  0
 10 38  1  1
 11 12  1  0
 11 39  1  0
 11 40  1  0
 12 13  1  0
 12 41  1  1
 13 25  1  0
 13 14  1  1
 13 15  1  0
 14 42  1  0
 14 43  1  0
 14 44  1  0
 15 16  2  0
 15 45  1  0
 16 17  1  0
 16 46  1  0
 17 18  1  0
 17 47  1  1
 18 19  1  0
 18 48  1  0
 18 49  1  0
 19 24  2  0
 19 20  1  0
 20 21  2  0
 20 50  1  0
 21 22  1  0
 21 51  1  0
 22 23  2  0
 22 52  1  0
 23 24  1  0
 23 53  1  0
 24 25  1  0
 25 26  1  0
 25 54  1  6
 26 55  1  6
M  END
>  <i_m_ct_stereo_status>  (4) 
1

>  <s_m_source_file>  (4) 
/var/tmp/pbs.5076255.sched01/tmp5ffkvrn0/0o5bi62ha.sdf

>  <i_m_source_file_index>  (4) 
6

>  <i_lp_mmshare_version>  (4) 
48012

>  <i_f3d_flags>  (4) 
0

>  <s_epik_input>  (4) 
W0NIM11PW0NAXTEyW0NASF0zW0NAQF00KFtDSDNdKVtDQEBIXTVjNmMoW2NIXVtjSF1bY0hdW2NIXTYpW0NIMl1bQ0BIXShbQ0hdPVtDSF00KVtDQEhdKFtDSDJdMylbQ0gyXU4oW0NASF0yNSlbQ0BASF0oW0NIMl1PMSlbQ0gzXQ==

>  <s_epik_cmdline>  (4) 
J2VwaWtfcHl0aG9uJywgJy1waHQnLCAnMi4wJywgJy1waCcsICc3LjAnLCAnLXRuJywgJzgnLCAnLW1hJywgJzIwMCcsICctaW1hZScsICc8aW5maWxlLm1hZT4nLCAnLW9tYWUnLCAnPG91dGZpbGUubWFlPic=

>  <r_epik_Ionization_Penalty>  (4) 
0.379842

>  <r_epik_Ionization_Penalty_Charging>  (4) 
0

>  <r_epik_Ionization_Penalty_Neutral>  (4) 
0.379842

>  <r_epik_State_Penalty>  (4) 
0.377834

>  <r_epik_Charging_Adjusted_Penalty>  (4) 
0.377834

>  <i_epik_Tot_Q>  (4) 
0

>  <i_epik_Tot_abs_Q>  (4) 
0

>  <s_lp_Force_Field>  (4) 
OPLS3e

>  <r_lp_Energy>  (4) 
80.9305

>  <b_lp_Chiralities_Consistent>  (4) 
1

>  <s_lp_Variant>  (4) 
3:0-1

>  <s_i_glide_gridfile>  (4) 
pfpi4k_grid

>  <i_i_glide_lignum>  (4) 
6

>  <i_i_glide_rotatable_bonds>  (4) 
1

>  <r_i_docking_score>  (4) 
-3.23005

>  <r_i_glide_ligand_efficiency>  (4) 
-0.124233

>  <r_i_glide_ligand_efficiency_sa>  (4) 
-0.368039

>  <r_i_glide_ligand_efficiency_ln>  (4) 
-0.758566

>  <r_i_glide_gscore>  (4) 
-3.23005

>  <r_i_glide_lipo>  (4) 
-0.988586

>  <r_i_glide_hbond>  (4) 
0

>  <r_i_glide_metal>  (4) 
-0

>  <r_i_glide_rewards>  (4) 
-1.01262

>  <r_i_glide_evdw>  (4) 
-25.4614

>  <r_i_glide_ecoul>  (4) 
0.29871

>  <r_i_glide_erotb>  (4) 
0

>  <r_i_glide_esite>  (4) 
-0.000573308

>  <r_i_glide_emodel>  (4) 
-29.7454

>  <r_i_glide_energy>  (4) 
-25.1627

>  <r_i_glide_einternal>  (4) 
0.00199879

>  <r_i_glide_intrahb_reward>  (4) 
-0

>  <i_i_glide_confnum>  (4) 
1

>  <i_i_glide_posenum>  (4) 
25

>  <r_i_glide_eff_state_penalty>  (4) 
0

>  <ligand_id>  (4) 
3

>  <original_smiles>  (4) 
COC12OCC(C)N3CC4CC1C1(C)C=CC4Cc4ccccc4C1C32

>  <smiles>  (4) 
[H]C1=C([H])C2(C([H])([H])[H])C3([H])c4c([H])c([H])c([H])c([H])c4C([H])([H])C1([H])C1([H])C([H])([H])N4C([H])(C([H])([H])[H])C([H])([H])OC(OC([H])([H])[H])(C43[H])C2([H])C1([H])[H]

$$$$
3:0:1
     RDKit          3D

 55 60  0  0  1  0  0  0  0  0999 V2000
    3.5983    0.4490    1.4740 C   0  0  0  0  0  0  0  0  0  0  0  0
    3.1062   -0.8233    1.0645 O   0  0  0  0  0  0  0  0  0  0  0  0
    4.0167   -1.6894    0.4464 C   0  0  1  0  0  0  0  0  0  0  0  0
    4.5263   -1.1265   -0.7426 O   0  0  0  0  0  0  0  0  0  0  0  0
    3.7262   -1.2971   -1.9310 C   0  0  0  0  0  0  0  0  0  0  0  0
    3.2185   -2.7519   -2.1494 C   0  0  1  0  0  0  0  0  0  0  0  0
    3.4108   -3.2298   -3.6047 C   0  0  0  0  0  0  0  0  0  0  0  0
    3.7178   -3.6439   -1.0930 N   0  0  0  0  0  0  0  0  0  0  0  0
    5.1745   -3.8338   -1.2927 C   0  0  0  0  0  0  0  0  0  0  0  0
    6.1032   -4.0478   -0.0829 C   0  0  1  0  0  0  0  0  0  0  0  0
    6.3559   -2.7200    0.6681 C   0  0  0  0  0  0  0  0  0  0  0  0
    5.1470   -2.1361    1.4422 C   0  0  2  0  0  0  0  0  0  0  0  0
    4.4632   -3.1638    2.3986 C   0  0  2  0  0  0  0  0  0  0  0  0
    3.9190   -2.4108    3.6434 C   0  0  0  0  0  0  0  0  0  0  0  0
    5.4095   -4.2219    2.9526 C   0  0  0  0  0  0  0  0  0  0  0  0
    6.0365   -5.1731    2.2517 C   0  0  0  0  0  0  0  0  0  0  0  0
    5.9598   -5.3558    0.7537 C   0  0  1  0  0  0  0  0  0  0  0  0
    4.8353   -6.3167    0.3229 C   0  0  0  0  0  0  0  0  0  0  0  0
    3.5402   -6.3516    1.1286 C   0  0  0  0  0  0  0  0  0  0  0  0
    2.9809   -7.6383    1.3105 C   0  0  0  0  0  0  0  0  0  0  0  0
    1.7772   -7.8329    2.0005 C   0  0  0  0  0  0  0  0  0  0  0  0
    1.1140   -6.7318    2.5508 C   0  0  0  0  0  0  0  0  0  0  0  0
    1.6564   -5.4459    2.3860 C   0  0  0  0  0  0  0  0  0  0  0  0
    2.8548   -5.2141    1.6596 C   0  0  0  0  0  0  0  0  0  0  0  0
    3.2964   -3.7348    1.5362 C   0  0  2  0  0  0  0  0  0  0  0  0
    3.2770   -3.0099    0.1657 C   0  0  1  0  0  0  0  0  0  0  0  0
    2.7581    1.1084    1.6883 H   0  0  0  0  0  0  0  0  0  0  0  0
    4.2070    0.9183    0.7025 H   0  0  0  0  0  0  0  0  0  0  0  0
    4.1843    0.3829    2.3902 H   0  0  0  0  0  0  0  0  0  0  0  0
    2.8501   -0.6613   -1.9047 H   0  0  0  0  0  0  0  0  0  0  0  0
    4.3364   -0.9689   -2.7714 H   0  0  0  0  0  0  0  0  0  0  0  0
    2.1335   -2.7137   -2.0435 H   0  0  0  0  0  0  0  0  0  0  0  0
    2.8222   -2.6044   -4.2802 H   0  0  0  0  0  0  0  0  0  0  0  0
    3.0656   -4.2542   -3.7450 H   0  0  0  0  0  0  0  0  0  0  0  0
    4.4508   -3.1742   -3.9231 H   0  0  0  0  0  0  0  0  0  0  0  0
    5.3102   -4.6553   -1.9965 H   0  0  0  0  0  0  0  0  0  0  0  0
    5.6018   -2.9892   -1.8348 H   0  0  0  0  0  0  0  0  0  0  0  0
    7.0651   -4.1951   -0.5770 H   0  0  0  0  0  0  0  0  0  0  0  0
    7.1886   -2.8647    1.3577 H   0  0  0  0  0  0  0  0  0  0  0  0
    6.7240   -1.9741   -0.0391 H   0  0  0  0  0  0  0  0  0  0  0  0
    5.5325   -1.2761    1.9847 H   0  0  0  0  0  0  0  0  0  0  0  0
    3.2050   -1.6290    3.3917 H   0  0  0  0  0  0  0  0  0  0  0  0
    4.7249   -1.9383    4.2059 H   0  0  0  0  0  0  0  0  0  0  0  0
    3.4045   -3.0964    4.3179 H   0  0  0  0  0  0  0  0  0  0  0  0
    5.5638   -4.2085    4.0202 H   0  0  0  0  0  0  0  0  0  0  0  0
    6.6637   -5.8714    2.7819 H   0  0  0  0  0  0  0  0  0  0  0  0
    6.8811   -5.8993    0.5359 H   0  0  0  0  0  0  0  0  0  0  0  0
    4.6100   -6.2774   -0.7394 H   0  0  0  0  0  0  0  0  0  0  0  0
    5.2715   -7.3076    0.4566 H   0  0  0  0  0  0  0  0  0  0  0  0
    3.4691   -8.5063    0.8907 H   0  0  0  0  0  0  0  0  0  0  0  0
    1.3644   -8.8280    2.1054 H   0  0  0  0  0  0  0  0  0  0  0  0
    0.1967   -6.8741    3.1002 H   0  0  0  0  0  0  0  0  0  0  0  0
    1.1149   -4.6219    2.8277 H   0  0  0  0  0  0  0  0  0  0  0  0
    2.4384   -3.2291    1.9780 H   0  0  0  0  0  0  0  0  0  0  0  0
    2.2262   -2.7543    0.0204 H   0  0  0  0  0  0  0  0  0  0  0  0
  1  2  1  0
  1 27  1  0
  1 28  1  0
  1 29  1  0
  3  2  1  1
  3 12  1  0
  3 26  1  0
  3  4  1  0
  4  5  1  0
  5  6  1  0
  5 30  1  0
  5 31  1  0
  6  7  1  0
  6  8  1  0
  6 32  1  1
  7 33  1  0
  7 34  1  0
  7 35  1  0
  8 26  1  0
  8  9  1  0
  9 10  1  0
  9 36  1  0
  9 37  1  0
 10 17  1  0
 10 11  1  0
 10 38  1  6
 11 12  1  0
 11 39  1  0
 11 40  1  0
 12 13  1  0
 12 41  1  1
 13 25  1  0
 13 14  1  1
 13 15  1  0
 14 42  1  0
 14 43  1  0
 14 44  1  0
 15 16  2  0
 15 45  1  0
 16 17  1  0
 16 46  1  0
 17 18  1  0
 17 47  1  6
 18 19  1  0
 18 48  1  0
 18 49  1  0
 19 24  2  0
 19 20  1  0
 20 21  2  0
 20 50  1  0
 21 22  1  0
 21 51  1  0
 22 23  2  0
 22 52  1  0
 23 24  1  0
 23 53  1  0
 24 25  1  0
 25 26  1  0
 25 54  1  1
 26 55  1  6
M  END
>  <i_m_ct_stereo_status>  (5) 
1

>  <s_m_source_file>  (5) 
/var/tmp/pbs.5076255.sched01/tmp5ffkvrn0/0o5bi62ha.sdf

>  <i_m_source_file_index>  (5) 
6

>  <i_lp_mmshare_version>  (5) 
48012

>  <i_f3d_flags>  (5) 
0

>  <s_epik_input>  (5) 
W0NIM11PW0NAXTEyW0NASF0zW0NAQF00KFtDSDNdKVtDQEBIXTVjNmMoW2NIXVtjSF1bY0hdW2NIXTYpW0NIMl1bQ0BIXShbQ0hdPVtDSF00KVtDQEhdKFtDSDJdMylbQ0gyXU4oW0NASF0yNSlbQ0BASF0oW0NIMl1PMSlbQ0gzXQ==

>  <s_epik_cmdline>  (5) 
J2VwaWtfcHl0aG9uJywgJy1waHQnLCAnMi4wJywgJy1waCcsICc3LjAnLCAnLXRuJywgJzgnLCAnLW1hJywgJzIwMCcsICctaW1hZScsICc8aW5maWxlLm1hZT4nLCAnLW9tYWUnLCAnPG91dGZpbGUubWFlPic=

>  <r_epik_Ionization_Penalty>  (5) 
0.379842

>  <r_epik_Ionization_Penalty_Charging>  (5) 
0

>  <r_epik_Ionization_Penalty_Neutral>  (5) 
0.379842

>  <r_epik_State_Penalty>  (5) 
0.377834

>  <r_epik_Charging_Adjusted_Penalty>  (5) 
0.377834

>  <i_epik_Tot_Q>  (5) 
0

>  <i_epik_Tot_abs_Q>  (5) 
0

>  <s_lp_Force_Field>  (5) 
OPLS3e

>  <r_lp_Energy>  (5) 
80.9305

>  <b_lp_Chiralities_Consistent>  (5) 
1

>  <s_lp_Variant>  (5) 
3:0-1

>  <s_i_glide_gridfile>  (5) 
pfpi4k_grid

>  <i_i_glide_lignum>  (5) 
6

>  <i_i_glide_rotatable_bonds>  (5) 
1

>  <r_i_docking_score>  (5) 
-3.09091

>  <r_i_glide_ligand_efficiency>  (5) 
-0.118881

>  <r_i_glide_ligand_efficiency_sa>  (5) 
-0.352185

>  <r_i_glide_ligand_efficiency_ln>  (5) 
-0.725889

>  <r_i_glide_gscore>  (5) 
-3.09091

>  <r_i_glide_lipo>  (5) 
-0.908747

>  <r_i_glide_hbond>  (5) 
0

>  <r_i_glide_metal>  (5) 
-0

>  <r_i_glide_rewards>  (5) 
-1.01262

>  <r_i_glide_evdw>  (5) 
-24.3688

>  <r_i_glide_ecoul>  (5) 
0.492909

>  <r_i_glide_erotb>  (5) 
0

>  <r_i_glide_esite>  (5) 
-0.0250331

>  <r_i_glide_emodel>  (5) 
-28.2532

>  <r_i_glide_energy>  (5) 
-23.8759

>  <r_i_glide_einternal>  (5) 
0.00205686

>  <r_i_glide_intrahb_reward>  (5) 
-0

>  <i_i_glide_confnum>  (5) 
2

>  <i_i_glide_posenum>  (5) 
40

>  <r_i_glide_eff_state_penalty>  (5) 
0

>  <ligand_id>  (5) 
3

>  <original_smiles>  (5) 
COC12OCC(C)N3CC4CC1C1(C)C=CC4Cc4ccccc4C1C32

>  <smiles>  (5) 
[H]C1=C([H])C2(C([H])([H])[H])C3([H])c4c([H])c([H])c([H])c([H])c4C([H])([H])C1([H])C1([H])C([H])([H])N4C([H])(C([H])([H])[H])C([H])([H])OC(OC([H])([H])[H])(C43[H])C2([H])C1([H])[H]

$$$$
3:0:2
     RDKit          3D

 55 60  0  0  1  0  0  0  0  0999 V2000
   -0.4897    1.1353    9.1319 C   0  0  0  0  0  0  0  0  0  0  0  0
   -0.6257    0.8593    7.7382 O   0  0  0  0  0  0  0  0  0  0  0  0
   -0.3011    1.8994    6.8495 C   0  0  1  0  0  0  0  0  0  0  0  0
   -1.2668    2.9262    6.9119 O   0  0  0  0  0  0  0  0  0  0  0  0
   -2.4567    2.7477    6.1173 C   0  0  0  0  0  0  0  0  0  0  0  0
   -2.1700    2.3027    4.6442 C   0  0  1  0  0  0  0  0  0  0  0  0
   -2.9753    3.1022    3.6006 C   0  0  0  0  0  0  0  0  0  0  0  0
   -0.7251    2.2135    4.3941 N   0  0  0  0  0  0  0  0  0  0  0  0
   -0.1634    3.5885    4.3737 C   0  0  0  0  0  0  0  0  0  0  0  0
    1.2727    3.8499    4.8652 C   0  0  1  0  0  0  0  0  0  0  0  0
    1.3482    3.8166    6.4102 C   0  0  0  0  0  0  0  0  0  0  0  0
    1.1660    2.4258    7.0701 C   0  0  2  0  0  0  0  0  0  0  0  0
    2.0893    1.3193    6.4690 C   0  0  2  0  0  0  0  0  0  0  0  0
    2.4796    0.3072    7.5811 C   0  0  0  0  0  0  0  0  0  0  0  0
    3.4105    1.8479    5.9348 C   0  0  0  0  0  0  0  0  0  0  0  0
    3.5727    2.6610    4.8878 C   0  0  0  0  0  0  0  0  0  0  0  0
    2.4646    3.2586    4.0537 C   0  0  1  0  0  0  0  0  0  0  0  0
    2.0908    2.4032    2.8281 C   0  0  0  0  0  0  0  0  0  0  0  0
    2.1779    0.8847    2.9391 C   0  0  0  0  0  0  0  0  0  0  0  0
    2.6685    0.2227    1.7909 C   0  0  0  0  0  0  0  0  0  0  0  0
    2.7908   -1.1703    1.7345 C   0  0  0  0  0  0  0  0  0  0  0  0
    2.4204   -1.9408    2.8426 C   0  0  0  0  0  0  0  0  0  0  0  0
    1.9207   -1.3046    3.9894 C   0  0  0  0  0  0  0  0  0  0  0  0
    1.7723    0.1055    4.0689 C   0  0  0  0  0  0  0  0  0  0  0  0
    1.1838    0.6470    5.3933 C   0  0  2  0  0  0  0  0  0  0  0  0
   -0.2255    1.2925    5.4340 C   0  0  1  0  0  0  0  0  0  0  0  0
   -0.9825    0.3574    9.7093 H   0  0  0  0  0  0  0  0  0  0  0  0
   -0.9149    2.1010    9.3973 H   0  0  0  0  0  0  0  0  0  0  0  0
    0.5443    1.1054    9.4686 H   0  0  0  0  0  0  0  0  0  0  0  0
   -3.0995    2.0240    6.6134 H   0  0  0  0  0  0  0  0  0  0  0  0
   -2.9952    3.6940    6.1188 H   0  0  0  0  0  0  0  0  0  0  0  0
   -2.5678    1.2939    4.5311 H   0  0  0  0  0  0  0  0  0  0  0  0
   -4.0459    2.9486    3.7555 H   0  0  0  0  0  0  0  0  0  0  0  0
   -2.7413    2.7786    2.5828 H   0  0  0  0  0  0  0  0  0  0  0  0
   -2.7839    4.1713    3.6686 H   0  0  0  0  0  0  0  0  0  0  0  0
   -0.2533    3.9770    3.3595 H   0  0  0  0  0  0  0  0  0  0  0  0
   -0.7959    4.2714    4.9469 H   0  0  0  0  0  0  0  0  0  0  0  0
    1.3686    4.9189    4.6666 H   0  0  0  0  0  0  0  0  0  0  0  0
    2.3088    4.2339    6.7225 H   0  0  0  0  0  0  0  0  0  0  0  0
    0.6063    4.5096    6.8159 H   0  0  0  0  0  0  0  0  0  0  0  0
    1.3623    2.5942    8.1261 H   0  0  0  0  0  0  0  0  0  0  0  0
    1.6229   -0.1972    8.0236 H   0  0  0  0  0  0  0  0  0  0  0  0
    3.0234    0.8005    8.3880 H   0  0  0  0  0  0  0  0  0  0  0  0
    3.1216   -0.4788    7.1805 H   0  0  0  0  0  0  0  0  0  0  0  0
    4.2952    1.5026    6.4422 H   0  0  0  0  0  0  0  0  0  0  0  0
    4.5730    2.9350    4.6100 H   0  0  0  0  0  0  0  0  0  0  0  0
    2.9410    4.1425    3.6287 H   0  0  0  0  0  0  0  0  0  0  0  0
    1.1498    2.6906    2.3647 H   0  0  0  0  0  0  0  0  0  0  0  0
    2.8285    2.6813    2.0763 H   0  0  0  0  0  0  0  0  0  0  0  0
    2.9485    0.7947    0.9192 H   0  0  0  0  0  0  0  0  0  0  0  0
    3.1545   -1.6472    0.8350 H   0  0  0  0  0  0  0  0  0  0  0  0
    2.5130   -3.0138    2.8120 H   0  0  0  0  0  0  0  0  0  0  0  0
    1.6400   -1.9358    4.8197 H   0  0  0  0  0  0  0  0  0  0  0  0
    0.9249   -0.2843    5.8941 H   0  0  0  0  0  0  0  0  0  0  0  0
   -0.9019    0.4366    5.4158 H   0  0  0  0  0  0  0  0  0  0  0  0
  1  2  1  0
  1 27  1  0
  1 28  1  0
  1 29  1  0
  3  2  1  1
  3 12  1  0
  3 26  1  0
  3  4  1  0
  4  5  1  0
  5  6  1  0
  5 30  1  0
  5 31  1  0
  6  7  1  0
  6  8  1  0
  6 32  1  1
  7 33  1  0
  7 34  1  0
  7 35  1  0
  8 26  1  0
  8  9  1  0
  9 10  1  0
  9 36  1  0
  9 37  1  0
 10 17  1  0
 10 11  1  0
 10 38  1  6
 11 12  1  0
 11 39  1  0
 11 40  1  0
 12 13  1  0
 12 41  1  1
 13 25  1  0
 13 14  1  1
 13 15  1  0
 14 42  1  0
 14 43  1  0
 14 44  1  0
 15 16  2  0
 15 45  1  0
 16 17  1  0
 16 46  1  0
 17 18  1  0
 17 47  1  6
 18 19  1  0
 18 48  1  0
 18 49  1  0
 19 24  2  0
 19 20  1  0
 20 21  2  0
 20 50  1  0
 21 22  1  0
 21 51  1  0
 22 23  2  0
 22 52  1  0
 23 24  1  0
 23 53  1  0
 24 25  1  0
 25 26  1  0
 25 54  1  1
 26 55  1  1
M  END
>  <i_m_ct_stereo_status>  (6) 
1

>  <s_m_source_file>  (6) 
/var/tmp/pbs.5076255.sched01/tmp5ffkvrn0/0o5bi62ha.sdf

>  <i_m_source_file_index>  (6) 
6

>  <i_lp_mmshare_version>  (6) 
48012

>  <i_f3d_flags>  (6) 
0

>  <s_epik_input>  (6) 
W0NIM11PW0NAXTEyW0NASF0zW0NAQF00KFtDSDNdKVtDQEBIXTVjNmMoW2NIXVtjSF1bY0hdW2NIXTYpW0NIMl1bQ0BIXShbQ0hdPVtDSF00KVtDQEhdKFtDSDJdMylbQ0gyXU4oW0NASF0yNSlbQ0BASF0oW0NIMl1PMSlbQ0gzXQ==

>  <s_epik_cmdline>  (6) 
J2VwaWtfcHl0aG9uJywgJy1waHQnLCAnMi4wJywgJy1waCcsICc3LjAnLCAnLXRuJywgJzgnLCAnLW1hJywgJzIwMCcsICctaW1hZScsICc8aW5maWxlLm1hZT4nLCAnLW9tYWUnLCAnPG91dGZpbGUubWFlPic=

>  <r_epik_Ionization_Penalty>  (6) 
0.379842

>  <r_epik_Ionization_Penalty_Charging>  (6) 
0

>  <r_epik_Ionization_Penalty_Neutral>  (6) 
0.379842

>  <r_epik_State_Penalty>  (6) 
0.377834

>  <r_epik_Charging_Adjusted_Penalty>  (6) 
0.377834

>  <i_epik_Tot_Q>  (6) 
0

>  <i_epik_Tot_abs_Q>  (6) 
0

>  <s_lp_Force_Field>  (6) 
OPLS3e

>  <r_lp_Energy>  (6) 
80.9305

>  <b_lp_Chiralities_Consistent>  (6) 
1

>  <s_lp_Variant>  (6) 
3:0-1

>  <s_i_glide_gridfile>  (6) 
pfpi4k_grid

>  <i_i_glide_lignum>  (6) 
6

>  <i_i_glide_rotatable_bonds>  (6) 
1

>  <r_i_docking_score>  (6) 
-1.99953

>  <r_i_glide_ligand_efficiency>  (6) 
-0.076905

>  <r_i_glide_ligand_efficiency_sa>  (6) 
-0.227831

>  <r_i_glide_ligand_efficiency_ln>  (6) 
-0.469583

>  <r_i_glide_gscore>  (6) 
-1.99953

>  <r_i_glide_lipo>  (6) 
-0.11043

>  <r_i_glide_hbond>  (6) 
0

>  <r_i_glide_metal>  (6) 
-0

>  <r_i_glide_rewards>  (6) 
-1.01262

>  <r_i_glide_evdw>  (6) 
-18.0731

>  <r_i_glide_ecoul>  (6) 
0.215583

>  <r_i_glide_erotb>  (6) 
0

>  <r_i_glide_esite>  (6) 
-0.00515901

>  <r_i_glide_emodel>  (6) 
-20.1695

>  <r_i_glide_energy>  (6) 
-17.8575

>  <r_i_glide_einternal>  (6) 
0.468288

>  <r_i_glide_intrahb_reward>  (6) 
-0

>  <i_i_glide_confnum>  (6) 
2

>  <i_i_glide_posenum>  (6) 
13

>  <r_i_glide_eff_state_penalty>  (6) 
0

>  <ligand_id>  (6) 
3

>  <original_smiles>  (6) 
COC12OCC(C)N3CC4CC1C1(C)C=CC4Cc4ccccc4C1C32

>  <smiles>  (6) 
[H]C1=C([H])C2(C([H])([H])[H])C3([H])c4c([H])c([H])c([H])c([H])c4C([H])([H])C1([H])C1([H])C([H])([H])N4C([H])(C([H])([H])[H])C([H])([H])OC(OC([H])([H])[H])(C43[H])C2([H])C1([H])[H]

$$$$
3:1:0
     RDKit          3D

 56 61  0  0  1  0  0  0  0  0999 V2000
    3.5238    0.4968    1.3099 C   0  0  0  0  0  0  0  0  0  0  0  0
    3.0342   -0.7789    0.9066 O   0  0  0  0  0  0  0  0  0  0  0  0
    3.9516   -1.6451    0.3070 C   0  0  1  0  0  0  0  0  0  0  0  0
    4.4253   -1.1126   -0.9114 O   0  0  0  0  0  0  0  0  0  0  0  0
    3.5414   -1.2804   -2.0459 C   0  0  0  0  0  0  0  0  0  0  0  0
    3.1851   -2.7820   -2.3038 C   0  0  1  0  0  0  0  0  0  0  0  0
    3.5420   -3.2660   -3.7347 C   0  0  0  0  0  0  0  0  0  0  0  0
    3.7321   -3.6200   -1.1937 N   0  0  1  0  0  0  0  0  0  0  0  0
    5.2076   -3.8081   -1.3974 C   0  0  0  0  0  0  0  0  0  0  0  0
    6.1095   -3.9441   -0.1621 C   0  0  1  0  0  0  0  0  0  0  0  0
    6.3199   -2.5963    0.5623 C   0  0  0  0  0  0  0  0  0  0  0  0
    5.0930   -2.0368    1.3113 C   0  0  2  0  0  0  0  0  0  0  0  0
    4.4391   -3.0597    2.2903 C   0  0  2  0  0  0  0  0  0  0  0  0
    3.8873   -2.2899    3.5217 C   0  0  0  0  0  0  0  0  0  0  0  0
    5.4050   -4.0850    2.8662 C   0  0  0  0  0  0  0  0  0  0  0  0
    6.0478   -5.0406    2.1840 C   0  0  0  0  0  0  0  0  0  0  0  0
    5.9782   -5.2455    0.6888 C   0  0  1  0  0  0  0  0  0  0  0  0
    4.8617   -6.2292    0.2660 C   0  0  0  0  0  0  0  0  0  0  0  0
    3.5787   -6.2905    1.0868 C   0  0  0  0  0  0  0  0  0  0  0  0
    3.0606   -7.5915    1.2958 C   0  0  0  0  0  0  0  0  0  0  0  0
    1.8751   -7.8071    2.0150 C   0  0  0  0  0  0  0  0  0  0  0  0
    1.1960   -6.7105    2.5629 C   0  0  0  0  0  0  0  0  0  0  0  0
    1.6997   -5.4155    2.3682 C   0  0  0  0  0  0  0  0  0  0  0  0
    2.8756   -5.1663    1.6103 C   0  0  0  0  0  0  0  0  0  0  0  0
    3.2821   -3.6814    1.4497 C   0  0  2  0  0  0  0  0  0  0  0  0
    3.2321   -2.9795    0.0647 C   0  0  1  0  0  0  0  0  0  0  0  0
    2.6889    1.1831    1.4608 H   0  0  0  0  0  0  0  0  0  0  0  0
    4.1939    0.9196    0.5627 H   0  0  0  0  0  0  0  0  0  0  0  0
    4.0560    0.4466    2.2612 H   0  0  0  0  0  0  0  0  0  0  0  0
    2.6305   -0.6964   -1.9091 H   0  0  0  0  0  0  0  0  0  0  0  0
    4.0373   -0.8617   -2.9233 H   0  0  0  0  0  0  0  0  0  0  0  0
    2.0967   -2.8679   -2.2567 H   0  0  0  0  0  0  0  0  0  0  0  0
    2.9655   -2.7137   -4.4776 H   0  0  0  0  0  0  0  0  0  0  0  0
    3.2859   -4.3076   -3.9034 H   0  0  0  0  0  0  0  0  0  0  0  0
    4.6005   -3.1473   -3.9737 H   0  0  0  0  0  0  0  0  0  0  0  0
    5.3594   -4.6507   -2.0716 H   0  0  0  0  0  0  0  0  0  0  0  0
    5.6242   -2.9707   -1.9566 H   0  0  0  0  0  0  0  0  0  0  0  0
    7.0881   -4.0721   -0.6235 H   0  0  0  0  0  0  0  0  0  0  0  0
    7.1429   -2.7025    1.2724 H   0  0  0  0  0  0  0  0  0  0  0  0
    6.6811   -1.8500   -0.1474 H   0  0  0  0  0  0  0  0  0  0  0  0
    5.4574   -1.1559    1.8370 H   0  0  0  0  0  0  0  0  0  0  0  0
    3.1571   -1.5273    3.2578 H   0  0  0  0  0  0  0  0  0  0  0  0
    4.6876   -1.7894    4.0694 H   0  0  0  0  0  0  0  0  0  0  0  0
    3.3900   -2.9660    4.2181 H   0  0  0  0  0  0  0  0  0  0  0  0
    5.5562   -4.0515    3.9342 H   0  0  0  0  0  0  0  0  0  0  0  0
    6.6876   -5.7205    2.7236 H   0  0  0  0  0  0  0  0  0  0  0  0
    6.9084   -5.7837    0.4810 H   0  0  0  0  0  0  0  0  0  0  0  0
    4.6141   -6.2043   -0.7903 H   0  0  0  0  0  0  0  0  0  0  0  0
    5.3193   -7.2098    0.3883 H   0  0  0  0  0  0  0  0  0  0  0  0
    3.5656   -8.4541    0.8875 H   0  0  0  0  0  0  0  0  0  0  0  0
    1.4915   -8.8076    2.1450 H   0  0  0  0  0  0  0  0  0  0  0  0
    0.2931   -6.8712    3.1354 H   0  0  0  0  0  0  0  0  0  0  0  0
    1.1496   -4.5993    2.8144 H   0  0  0  0  0  0  0  0  0  0  0  0
    2.4191   -3.1888    1.8944 H   0  0  0  0  0  0  0  0  0  0  0  0
    2.1766   -2.7655   -0.1029 H   0  0  0  0  0  0  0  0  0  0  0  0
    3.3104   -4.5365   -1.2677 H   0  0  0  0  0  0  0  0  0  0  0  0
  1  2  1  0
  1 27  1  0
  1 28  1  0
  1 29  1  0
  3  2  1  1
  3 12  1  0
  3 26  1  0
  3  4  1  0
  4  5  1  0
  5  6  1  0
  5 30  1  0
  5 31  1  0
  6  7  1  0
  6  8  1  0
  6 32  1  6
  7 33  1  0
  7 34  1  0
  7 35  1  0
  8 26  1  0
  8  9  1  0
  8 56  1  6
  9 10  1  0
  9 36  1  0
  9 37  1  0
 10 17  1  0
 10 11  1  0
 10 38  1  6
 11 12  1  0
 11 39  1  0
 11 40  1  0
 12 13  1  0
 12 41  1  1
 13 25  1  0
 13 14  1  1
 13 15  1  0
 14 42  1  0
 14 43  1  0
 14 44  1  0
 15 16  2  0
 15 45  1  0
 16 17  1  0
 16 46  1  0
 17 18  1  0
 17 47  1  6
 18 19  1  0
 18 48  1  0
 18 49  1  0
 19 24  2  0
 19 20  1  0
 20 21  2  0
 20 50  1  0
 21 22  1  0
 21 51  1  0
 22 23  2  0
 22 52  1  0
 23 24  1  0
 23 53  1  0
 24 25  1  0
 25 26  1  0
 25 54  1  1
 26 55  1  6
M  CHG  1   8   1
M  END
>  <i_m_ct_stereo_status>  (7) 
1

>  <s_m_source_file>  (7) 
/var/tmp/pbs.5076255.sched01/tmp5ffkvrn0/0o5bi62ha.sdf

>  <i_m_source_file_index>  (7) 
7

>  <i_lp_mmshare_version>  (7) 
48012

>  <i_f3d_flags>  (7) 
0

>  <s_epik_input>  (7) 
W0NIM11PW0NAXTEyW0NASF0zW0NAQF00KFtDSDNdKVtDQEBIXTVjNmMoW2NIXVtjSF1bY0hdW2NIXTYpW0NIMl1bQ0BIXShbQ0hdPVtDSF00KVtDQEhdKFtDSDJdMylbQ0gyXU4oW0NASF0yNSlbQ0BASF0oW0NIMl1PMSlbQ0gzXQ==

>  <s_epik_cmdline>  (7) 
J2VwaWtfcHl0aG9uJywgJy1waHQnLCAnMi4wJywgJy1waCcsICc3LjAnLCAnLXRuJywgJzgnLCAnLW1hJywgJzIwMCcsICctaW1hZScsICc8aW5maWxlLm1hZT4nLCAnLW9tYWUnLCAnPG91dGZpbGUubWFlPic=

>  <r_epik_Ionization_Penalty>  (7) 
0.443211

>  <r_epik_Ionization_Penalty_Charging>  (7) 
0.443211

>  <r_epik_Ionization_Penalty_Neutral>  (7) 
6.57791e-16

>  <r_epik_State_Penalty>  (7) 
0.445454

>  <r_epik_Charging_Adjusted_Penalty>  (7) 
0.888665

>  <i_epik_Tot_Q>  (7) 
1

>  <i_epik_Tot_abs_Q>  (7) 
1

>  <s_lp_Force_Field>  (7) 
OPLS3e

>  <r_lp_Energy>  (7) 
92.9323

>  <b_lp_Chiralities_Consistent>  (7) 
1

>  <s_lp_Variant>  (7) 
3:0-2

>  <s_i_glide_gridfile>  (7) 
pfpi4k_grid

>  <i_i_glide_lignum>  (7) 
7

>  <i_i_glide_rotatable_bonds>  (7) 
1

>  <r_i_docking_score>  (7) 
-3.77232

>  <r_i_glide_ligand_efficiency>  (7) 
-0.145089

>  <r_i_glide_ligand_efficiency_sa>  (7) 
-0.429827

>  <r_i_glide_ligand_efficiency_ln>  (7) 
-0.885918

>  <r_i_glide_gscore>  (7) 
-3.77232

>  <r_i_glide_lipo>  (7) 
-0.866557

>  <r_i_glide_hbond>  (7) 
0

>  <r_i_glide_metal>  (7) 
-0

>  <r_i_glide_rewards>  (7) 
-1.00575

>  <r_i_glide_evdw>  (7) 
-24.2055

>  <r_i_glide_ecoul>  (7) 
-4.34281

>  <r_i_glide_erotb>  (7) 
0

>  <r_i_glide_esite>  (7) 
-0.0383192

>  <r_i_glide_emodel>  (7) 
-35.4332

>  <r_i_glide_energy>  (7) 
-28.5483

>  <r_i_glide_einternal>  (7) 
0.0709818

>  <r_i_glide_intrahb_reward>  (7) 
-0

>  <i_i_glide_confnum>  (7) 
1

>  <i_i_glide_posenum>  (7) 
29

>  <r_i_glide_eff_state_penalty>  (7) 
0

>  <ligand_id>  (7) 
3

>  <original_smiles>  (7) 
COC12OCC(C)N3CC4CC1C1(C)C=CC4Cc4ccccc4C1C32

>  <smiles>  (7) 
[H]C1=C([H])C2(C([H])([H])[H])C3([H])c4c([H])c([H])c([H])c([H])c4C([H])([H])C1([H])C1([H])C([H])([H])C2([H])C2(OC([H])([H])[H])OC([H])([H])C([H])(C([H])([H])[H])[N+]([H])(C1([H])[H])C23[H]

$$$$
3:1:1
     RDKit          3D

 56 61  0  0  1  0  0  0  0  0999 V2000
    3.1173   -0.1487    1.6705 C   0  0  0  0  0  0  0  0  0  0  0  0
    3.9971   -1.1194    2.2384 O   0  0  0  0  0  0  0  0  0  0  0  0
    4.5544   -2.1095    1.4149 C   0  0  1  0  0  0  0  0  0  0  0  0
    5.1477   -1.5531    0.2600 O   0  0  0  0  0  0  0  0  0  0  0  0
    4.2870   -1.3208   -0.8866 C   0  0  0  0  0  0  0  0  0  0  0  0
    3.4538   -2.5995   -1.2660 C   0  0  1  0  0  0  0  0  0  0  0  0
    3.5666   -2.9587   -2.7522 C   0  0  0  0  0  0  0  0  0  0  0  0
    3.7524   -3.6928   -0.3080 N   0  0  1  0  0  0  0  0  0  0  0  0
    5.0965   -4.3088   -0.6433 C   0  0  0  0  0  0  0  0  0  0  0  0
    5.9302   -4.8681    0.5040 C   0  0  1  0  0  0  0  0  0  0  0  0
    6.5507   -3.7570    1.3775 C   0  0  0  0  0  0  0  0  0  0  0  0
    5.5652   -2.9570    2.2673 C   0  0  2  0  0  0  0  0  0  0  0  0
    4.6855   -3.8868    3.1605 C   0  0  2  0  0  0  0  0  0  0  0  0
    4.4428   -3.1892    4.5312 C   0  0  0  0  0  0  0  0  0  0  0  0
    5.3186   -5.2371    3.5252 C   0  0  0  0  0  0  0  0  0  0  0  0
    5.6031   -6.2298    2.6862 C   0  0  0  0  0  0  0  0  0  0  0  0
    5.4227   -6.1800    1.1802 C   0  0  1  0  0  0  0  0  0  0  0  0
    4.0484   -6.7122    0.7143 C   0  0  0  0  0  0  0  0  0  0  0  0
    2.8286   -6.5102    1.6130 C   0  0  0  0  0  0  0  0  0  0  0  0
    1.9379   -7.5998    1.6782 C   0  0  0  0  0  0  0  0  0  0  0  0
    0.7717   -7.5560    2.4596 C   0  0  0  0  0  0  0  0  0  0  0  0
    0.4910   -6.4054    3.2037 C   0  0  0  0  0  0  0  0  0  0  0  0
    1.3600   -5.3039    3.1430 C   0  0  0  0  0  0  0  0  0  0  0  0
    2.5352   -5.3177    2.3372 C   0  0  0  0  0  0  0  0  0  0  0  0
    3.3686   -4.0199    2.3420 C   0  0  2  0  0  0  0  0  0  0  0  0
    3.4685   -3.1578    1.0634 C   0  0  1  0  0  0  0  0  0  0  0  0
    2.6085    0.4133    2.4503 H   0  0  0  0  0  0  0  0  0  0  0  0
    2.3422   -0.6021    1.0549 H   0  0  0  0  0  0  0  0  0  0  0  0
    3.6788    0.5293    1.0231 H   0  0  0  0  0  0  0  0  0  0  0  0
    3.6139   -0.5160   -0.6624 H   0  0  0  0  0  0  0  0  0  0  0  0
    4.9152   -1.0292   -1.7328 H   0  0  0  0  0  0  0  0  0  0  0  0
    2.4104   -2.3514   -1.1206 H   0  0  0  0  0  0  0  0  0  0  0  0
    3.1610   -2.1600   -3.3523 H   0  0  0  0  0  0  0  0  0  0  0  0
    2.9826   -3.8517   -2.9851 H   0  0  0  0  0  0  0  0  0  0  0  0
    4.5983   -3.1216   -3.0628 H   0  0  0  0  0  0  0  0  0  0  0  0
    4.9574   -5.0345   -1.4294 H   0  0  0  0  0  0  0  0  0  0  0  0
    5.7191   -3.5408   -1.1023 H   0  0  0  0  0  0  0  0  0  0  0  0
    6.8066   -5.2164   -0.0251 H   0  0  0  0  0  0  0  0  0  0  0  0
    7.3189   -4.2249    2.0075 H   0  0  0  0  0  0  0  0  0  0  0  0
    7.1166   -3.0673    0.7526 H   0  0  0  0  0  0  0  0  0  0  0  0
    6.1625   -2.2712    2.8647 H   0  0  0  0  0  0  0  0  0  0  0  0
    3.9888   -2.2076    4.4282 H   0  0  0  0  0  0  0  0  0  0  0  0
    5.3780   -3.0502    5.0796 H   0  0  0  0  0  0  0  0  0  0  0  0
    3.7825   -3.7821    5.1656 H   0  0  0  0  0  0  0  0  0  0  0  0
    5.5043   -5.4155    4.5799 H   0  0  0  0  0  0  0  0  0  0  0  0
    6.0161   -7.1488    3.0751 H   0  0  0  0  0  0  0  0  0  0  0  0
    6.1378   -6.9355    0.8450 H   0  0  0  0  0  0  0  0  0  0  0  0
    3.7978   -6.4459   -0.3106 H   0  0  0  0  0  0  0  0  0  0  0  0
    4.1866   -7.7915    0.6454 H   0  0  0  0  0  0  0  0  0  0  0  0
    2.1338   -8.5047    1.1219 H   0  0  0  0  0  0  0  0  0  0  0  0
    0.1060   -8.4033    2.4859 H   0  0  0  0  0  0  0  0  0  0  0  0
   -0.3930   -6.3676    3.8241 H   0  0  0  0  0  0  0  0  0  0  0  0
    1.1021   -4.4361    3.7251 H   0  0  0  0  0  0  0  0  0  0  0  0
    2.7252   -3.3639    2.9099 H   0  0  0  0  0  0  0  0  0  0  0  0
    2.4953   -2.6675    0.9824 H   0  0  0  0  0  0  0  0  0  0  0  0
    3.0408   -4.4668   -0.4628 H   0  0  0  0  0  0  0  0  0  0  0  0
  1  2  1  0
  1 27  1  0
  1 28  1  0
  1 29  1  0
  3  2  1  1
  3 12  1  0
  3 26  1  0
  3  4  1  0
  4  5  1  0
  5  6  1  0
  5 30  1  0
  5 31  1  0
  6  7  1  0
  6  8  1  0
  6 32  1  6
  7 33  1  0
  7 34  1  0
  7 35  1  0
  8 26  1  0
  8  9  1  0
  8 56  1  6
  9 10  1  0
  9 36  1  0
  9 37  1  0
 10 17  1  0
 10 11  1  0
 10 38  1  6
 11 12  1  0
 11 39  1  0
 11 40  1  0
 12 13  1  0
 12 41  1  1
 13 25  1  0
 13 14  1  1
 13 15  1  0
 14 42  1  0
 14 43  1  0
 14 44  1  0
 15 16  2  0
 15 45  1  0
 16 17  1  0
 16 46  1  0
 17 18  1  0
 17 47  1  6
 18 19  1  0
 18 48  1  0
 18 49  1  0
 19 24  2  0
 19 20  1  0
 20 21  2  0
 20 50  1  0
 21 22  1  0
 21 51  1  0
 22 23  2  0
 22 52  1  0
 23 24  1  0
 23 53  1  0
 24 25  1  0
 25 26  1  0
 25 54  1  1
 26 55  1  6
M  CHG  1   8   1
M  END
>  <i_m_ct_stereo_status>  (8) 
1

>  <s_m_source_file>  (8) 
/var/tmp/pbs.5076255.sched01/tmp5ffkvrn0/0o5bi62ha.sdf

>  <i_m_source_file_index>  (8) 
7

>  <i_lp_mmshare_version>  (8) 
48012

>  <i_f3d_flags>  (8) 
0

>  <s_epik_input>  (8) 
W0NIM11PW0NAXTEyW0NASF0zW0NAQF00KFtDSDNdKVtDQEBIXTVjNmMoW2NIXVtjSF1bY0hdW2NIXTYpW0NIMl1bQ0BIXShbQ0hdPVtDSF00KVtDQEhdKFtDSDJdMylbQ0gyXU4oW0NASF0yNSlbQ0BASF0oW0NIMl1PMSlbQ0gzXQ==

>  <s_epik_cmdline>  (8) 
J2VwaWtfcHl0aG9uJywgJy1waHQnLCAnMi4wJywgJy1waCcsICc3LjAnLCAnLXRuJywgJzgnLCAnLW1hJywgJzIwMCcsICctaW1hZScsICc8aW5maWxlLm1hZT4nLCAnLW9tYWUnLCAnPG91dGZpbGUubWFlPic=

>  <r_epik_Ionization_Penalty>  (8) 
0.443211

>  <r_epik_Ionization_Penalty_Charging>  (8) 
0.443211

>  <r_epik_Ionization_Penalty_Neutral>  (8) 
6.57791e-16

>  <r_epik_State_Penalty>  (8) 
0.445454

>  <r_epik_Charging_Adjusted_Penalty>  (8) 
0.888665

>  <i_epik_Tot_Q>  (8) 
1

>  <i_epik_Tot_abs_Q>  (8) 
1

>  <s_lp_Force_Field>  (8) 
OPLS3e

>  <r_lp_Energy>  (8) 
92.9323

>  <b_lp_Chiralities_Consistent>  (8) 
1

>  <s_lp_Variant>  (8) 
3:0-2

>  <s_i_glide_gridfile>  (8) 
pfpi4k_grid

>  <i_i_glide_lignum>  (8) 
7

>  <i_i_glide_rotatable_bonds>  (8) 
1

>  <r_i_docking_score>  (8) 
-3.29463

>  <r_i_glide_ligand_efficiency>  (8) 
-0.126717

>  <r_i_glide_ligand_efficiency_sa>  (8) 
-0.375398

>  <r_i_glide_ligand_efficiency_ln>  (8) 
-0.773734

>  <r_i_glide_gscore>  (8) 
-3.29463

>  <r_i_glide_lipo>  (8) 
-0.552969

>  <r_i_glide_hbond>  (8) 
0

>  <r_i_glide_metal>  (8) 
-0

>  <r_i_glide_rewards>  (8) 
-1.03357

>  <r_i_glide_evdw>  (8) 
-20.5206

>  <r_i_glide_ecoul>  (8) 
-4.54502

>  <r_i_glide_erotb>  (8) 
0

>  <r_i_glide_esite>  (8) 
-0.000307349

>  <r_i_glide_emodel>  (8) 
-26.9284

>  <r_i_glide_energy>  (8) 
-25.0656

>  <r_i_glide_einternal>  (8) 
7.37087

>  <r_i_glide_intrahb_reward>  (8) 
-0

>  <i_i_glide_confnum>  (8) 
1

>  <i_i_glide_posenum>  (8) 
9

>  <r_i_glide_eff_state_penalty>  (8) 
0

>  <ligand_id>  (8) 
3

>  <original_smiles>  (8) 
COC12OCC(C)N3CC4CC1C1(C)C=CC4Cc4ccccc4C1C32

>  <smiles>  (8) 
[H]C1=C([H])C2(C([H])([H])[H])C3([H])c4c([H])c([H])c([H])c([H])c4C([H])([H])C1([H])C1([H])C([H])([H])C2([H])C2(OC([H])([H])[H])OC([H])([H])C([H])(C([H])([H])[H])[N+]([H])(C1([H])[H])C23[H]

$$$$
3:1:2
     RDKit          3D

 56 61  0  0  1  0  0  0  0  0999 V2000
    2.2951   -0.4708    1.4597 C   0  0  0  0  0  0  0  0  0  0  0  0
    3.5639   -1.0276    1.7663 O   0  0  0  0  0  0  0  0  0  0  0  0
    4.2319   -1.8680    0.8497 C   0  0  1  0  0  0  0  0  0  0  0  0
    4.4963   -1.2138   -0.3725 O   0  0  0  0  0  0  0  0  0  0  0  0
    3.4919   -1.2946   -1.4132 C   0  0  0  0  0  0  0  0  0  0  0  0
    2.9847   -2.7488   -1.6532 C   0  0  1  0  0  0  0  0  0  0  0  0
    2.9753   -3.1238   -3.1414 C   0  0  0  0  0  0  0  0  0  0  0  0
    3.6956   -3.7150   -0.7505 N   0  0  1  0  0  0  0  0  0  0  0  0
    5.0902   -3.9021   -1.2622 C   0  0  0  0  0  0  0  0  0  0  0  0
    6.1975   -4.1670   -0.2346 C   0  0  1  0  0  0  0  0  0  0  0  0
    6.6002   -2.8867    0.5410 C   0  0  0  0  0  0  0  0  0  0  0  0
    5.5532   -2.3619    1.5562 C   0  0  2  0  0  0  0  0  0  0  0  0
    5.1016   -3.4773    2.5614 C   0  0  2  0  0  0  0  0  0  0  0  0
    4.8866   -2.7979    3.9445 C   0  0  0  0  0  0  0  0  0  0  0  0
    6.0834   -4.6195    2.8286 C   0  0  0  0  0  0  0  0  0  0  0  0
    6.5560   -5.4989    1.9433 C   0  0  0  0  0  0  0  0  0  0  0  0
    6.1716   -5.5423    0.4967 C   0  0  1  0  0  0  0  0  0  0  0  0
    4.9328   -6.4349    0.2456 C   0  0  0  0  0  0  0  0  0  0  0  0
    3.8473   -6.5407    1.3133 C   0  0  0  0  0  0  0  0  0  0  0  0
    3.3090   -7.8300    1.5205 C   0  0  0  0  0  0  0  0  0  0  0  0
    2.2976   -8.0615    2.4547 C   0  0  0  0  0  0  0  0  0  0  0  0
    1.8074   -6.9984    3.2229 C   0  0  0  0  0  0  0  0  0  0  0  0
    2.3277   -5.7107    3.0270 C   0  0  0  0  0  0  0  0  0  0  0  0
    3.3297   -5.4495    2.0700 C   0  0  0  0  0  0  0  0  0  0  0  0
    3.7797   -3.9818    1.9351 C   0  0  2  0  0  0  0  0  0  0  0  0
    3.4642   -3.1911    0.6423 C   0  0  1  0  0  0  0  0  0  0  0  0
    1.8249   -0.0452    2.3493 H   0  0  0  0  0  0  0  0  0  0  0  0
    1.6218   -1.2458    1.1221 H   0  0  0  0  0  0  0  0  0  0  0  0
    2.3751    0.3231    0.7158 H   0  0  0  0  0  0  0  0  0  0  0  0
    2.6405   -0.6578   -1.1876 H   0  0  0  0  0  0  0  0  0  0  0  0
    3.8975   -0.8814   -2.3477 H   0  0  0  0  0  0  0  0  0  0  0  0
    1.9423   -2.7927   -1.3586 H   0  0  0  0  0  0  0  0  0  0  0  0
    2.2846   -2.4618   -3.6660 H   0  0  0  0  0  0  0  0  0  0  0  0
    2.6170   -4.1363   -3.3165 H   0  0  0  0  0  0  0  0  0  0  0  0
    3.9600   -3.0078   -3.5978 H   0  0  0  0  0  0  0  0  0  0  0  0
    5.0616   -4.6921   -2.0103 H   0  0  0  0  0  0  0  0  0  0  0  0
    5.4173   -3.0274   -1.8240 H   0  0  0  0  0  0  0  0  0  0  0  0
    7.0681   -4.2645   -0.8684 H   0  0  0  0  0  0  0  0  0  0  0  0
    7.5419   -3.0931    1.0617 H   0  0  0  0  0  0  0  0  0  0  0  0
    6.8523   -2.0860   -0.1579 H   0  0  0  0  0  0  0  0  0  0  0  0
    6.0203   -1.5152    2.0713 H   0  0  0  0  0  0  0  0  0  0  0  0
    4.1778   -1.9711    3.9033 H   0  0  0  0  0  0  0  0  0  0  0  0
    5.8075   -2.3871    4.3424 H   0  0  0  0  0  0  0  0  0  0  0  0
    4.5036   -3.5075    4.6787 H   0  0  0  0  0  0  0  0  0  0  0  0
    6.4272   -4.7232    3.8442 H   0  0  0  0  0  0  0  0  0  0  0  0
    7.2601   -6.2463    2.2672 H   0  0  0  0  0  0  0  0  0  0  0  0
    7.0283   -6.0769    0.0810 H   0  0  0  0  0  0  0  0  0  0  0  0
    4.4748   -6.3133   -0.7286 H   0  0  0  0  0  0  0  0  0  0  0  0
    5.3388   -7.4404    0.1976 H   0  0  0  0  0  0  0  0  0  0  0  0
    3.6695   -8.6719    0.9375 H   0  0  0  0  0  0  0  0  0  0  0  0
    1.8955   -9.0573    2.5901 H   0  0  0  0  0  0  0  0  0  0  0  0
    1.0396   -7.1716    3.9634 H   0  0  0  0  0  0  0  0  0  0  0  0
    1.9281   -4.9117    3.6444 H   0  0  0  0  0  0  0  0  0  0  0  0
    3.0681   -3.4839    2.5882 H   0  0  0  0  0  0  0  0  0  0  0  0
    2.3891   -3.0610    0.6967 H   0  0  0  0  0  0  0  0  0  0  0  0
    3.2338   -4.6126   -0.8025 H   0  0  0  0  0  0  0  0  0  0  0  0
  1  2  1  0
  1 27  1  0
  1 28  1  0
  1 29  1  0
  3  2  1  1
  3 12  1  0
  3 26  1  0
  3  4  1  0
  4  5  1  0
  5  6  1  0
  5 30  1  0
  5 31  1  0
  6  7  1  0
  6  8  1  0
  6 32  1  1
  7 33  1  0
  7 34  1  0
  7 35  1  0
  8 26  1  0
  8  9  1  0
  8 56  1  1
  9 10  1  0
  9 36  1  0
  9 37  1  0
 10 17  1  0
 10 11  1  0
 10 38  1  6
 11 12  1  0
 11 39  1  0
 11 40  1  0
 12 13  1  0
 12 41  1  1
 13 25  1  0
 13 14  1  1
 13 15  1  0
 14 42  1  0
 14 43  1  0
 14 44  1  0
 15 16  2  0
 15 45  1  0
 16 17  1  0
 16 46  1  0
 17 18  1  0
 17 47  1  6
 18 19  1  0
 18 48  1  0
 18 49  1  0
 19 24  2  0
 19 20  1  0
 20 21  2  0
 20 50  1  0
 21 22  1  0
 21 51  1  0
 22 23  2  0
 22 52  1  0
 23 24  1  0
 23 53  1  0
 24 25  1  0
 25 26  1  0
 25 54  1  1
 26 55  1  6
M  CHG  1   8   1
M  END
>  <i_m_ct_stereo_status>  (9) 
1

>  <s_m_source_file>  (9) 
/var/tmp/pbs.5076255.sched01/tmp5ffkvrn0/0o5bi62ha.sdf

>  <i_m_source_file_index>  (9) 
7

>  <i_lp_mmshare_version>  (9) 
48012

>  <i_f3d_flags>  (9) 
0

>  <s_epik_input>  (9) 
W0NIM11PW0NAXTEyW0NASF0zW0NAQF00KFtDSDNdKVtDQEBIXTVjNmMoW2NIXVtjSF1bY0hdW2NIXTYpW0NIMl1bQ0BIXShbQ0hdPVtDSF00KVtDQEhdKFtDSDJdMylbQ0gyXU4oW0NASF0yNSlbQ0BASF0oW0NIMl1PMSlbQ0gzXQ==

>  <s_epik_cmdline>  (9) 
J2VwaWtfcHl0aG9uJywgJy1waHQnLCAnMi4wJywgJy1waCcsICc3LjAnLCAnLXRuJywgJzgnLCAnLW1hJywgJzIwMCcsICctaW1hZScsICc8aW5maWxlLm1hZT4nLCAnLW9tYWUnLCAnPG91dGZpbGUubWFlPic=

>  <r_epik_Ionization_Penalty>  (9) 
0.443211

>  <r_epik_Ionization_Penalty_Charging>  (9) 
0.443211

>  <r_epik_Ionization_Penalty_Neutral>  (9) 
6.57791e-16

>  <r_epik_State_Penalty>  (9) 
0.445454

>  <r_epik_Charging_Adjusted_Penalty>  (9) 
0.888665

>  <i_epik_Tot_Q>  (9) 
1

>  <i_epik_Tot_abs_Q>  (9) 
1

>  <s_lp_Force_Field>  (9) 
OPLS3e

>  <r_lp_Energy>  (9) 
92.9323

>  <b_lp_Chiralities_Consistent>  (9) 
1

>  <s_lp_Variant>  (9) 
3:0-2

>  <s_i_glide_gridfile>  (9) 
pfpi4k_grid

>  <i_i_glide_lignum>  (9) 
7

>  <i_i_glide_rotatable_bonds>  (9) 
1

>  <r_i_docking_score>  (9) 
-3.22022

>  <r_i_glide_ligand_efficiency>  (9) 
-0.123855

>  <r_i_glide_ligand_efficiency_sa>  (9) 
-0.366919

>  <r_i_glide_ligand_efficiency_ln>  (9) 
-0.756259

>  <r_i_glide_gscore>  (9) 
-3.22022

>  <r_i_glide_lipo>  (9) 
-0.769964

>  <r_i_glide_hbond>  (9) 
0

>  <r_i_glide_metal>  (9) 
-0

>  <r_i_glide_rewards>  (9) 
-1.00575

>  <r_i_glide_evdw>  (9) 
-13.6767

>  <r_i_glide_ecoul>  (9) 
-4.99692

>  <r_i_glide_erotb>  (9) 
0

>  <r_i_glide_esite>  (9) 
-0.0111351

>  <r_i_glide_emodel>  (9) 
-18.1223

>  <r_i_glide_energy>  (9) 
-18.6736

>  <r_i_glide_einternal>  (9) 
12.1483

>  <r_i_glide_intrahb_reward>  (9) 
-0

>  <i_i_glide_confnum>  (9) 
2

>  <i_i_glide_posenum>  (9) 
11

>  <r_i_glide_eff_state_penalty>  (9) 
0

>  <ligand_id>  (9) 
3

>  <original_smiles>  (9) 
COC12OCC(C)N3CC4CC1C1(C)C=CC4Cc4ccccc4C1C32

>  <smiles>  (9) 
[H]C1=C([H])C2(C([H])([H])[H])C3([H])c4c([H])c([H])c([H])c([H])c4C([H])([H])C1([H])C1([H])C([H])([H])C2([H])C2(OC([H])([H])[H])OC([H])([H])C([H])(C([H])([H])[H])[N+]([H])(C1([H])[H])C23[H]

$$$$
5:0:0
     RDKit          3D

 60 65  0  0  1  0  0  0  0  0999 V2000
    4.6775   -3.7131   -1.1579 C   0  0  0  0  0  0  0  0  0  0  0  0
    4.6474   -3.5508    0.1857 C   0  0  0  0  0  0  0  0  0  0  0  0
    5.1343   -2.2268    0.7866 C   0  0  1  0  0  0  0  0  0  0  0  0
    5.2013   -1.0357   -0.1929 C   0  0  0  0  0  0  0  0  0  0  0  0
    4.3229   -1.8452    2.0095 C   0  0  0  0  0  0  0  0  0  0  0  0
    4.4602   -2.9429    3.0538 C   0  0  1  0  0  0  0  0  0  0  0  0
    3.9084   -2.3775    4.2212 O   0  0  0  0  0  0  0  0  0  0  0  0
    3.7761   -4.2733    2.5994 C   0  0  1  0  0  0  0  0  0  0  0  0
    4.2883   -4.7374    1.1591 C   0  0  2  0  0  0  0  0  0  0  0  0
    5.6849   -5.4292    1.2670 C   0  0  0  0  0  0  0  0  0  0  0  0
    5.7822   -6.8567    1.8067 C   0  0  1  0  0  0  0  0  0  0  0  0
    7.2246   -7.4067    1.8251 C   0  0  0  0  0  0  0  0  0  0  0  0
    7.3115   -8.3471    3.0337 C   0  0  0  0  0  0  0  0  0  0  0  0
    5.9010   -8.3842    3.6216 C   0  0  0  0  0  0  0  0  0  0  0  0
    5.2648   -7.0353    3.2342 C   0  0  1  0  0  0  0  0  0  0  0  0
    5.8604   -6.0429    4.0660 O   0  0  0  0  0  0  0  0  0  0  0  0
    4.8438   -5.3403    4.7491 C   0  0  0  0  0  0  0  0  0  0  0  0
    3.6436   -5.3596    3.7859 C   0  0  1  0  0  0  0  0  0  0  0  0
    2.3387   -5.0227    4.5774 C   0  0  0  0  0  0  0  0  0  0  0  0
    3.7296   -6.8695    3.3909 C   0  0  2  0  0  0  0  0  0  0  0  0
    3.0462   -7.9201    4.3239 C   0  0  0  0  0  0  0  0  0  0  0  0
    1.8685   -7.9975    3.3696 C   0  0  0  0  0  0  0  0  0  0  0  0
    2.7886   -7.4117    2.2975 C   0  0  1  0  0  0  0  0  0  0  0  0
    2.1780   -6.4545    1.3094 C   0  0  0  0  0  0  0  0  0  0  0  0
    3.1699   -5.6330    0.4646 C   0  0  1  0  0  0  0  0  0  0  0  0
    2.2232   -4.8677   -0.2766 O   0  0  0  0  0  0  0  0  0  0  0  0
    4.4431   -4.6562   -1.6166 H   0  0  0  0  0  0  0  0  0  0  0  0
    4.9712   -2.9289   -1.8398 H   0  0  0  0  0  0  0  0  0  0  0  0
    6.1579   -2.4027    1.1227 H   0  0  0  0  0  0  0  0  0  0  0  0
    5.9476   -1.1944   -0.9681 H   0  0  0  0  0  0  0  0  0  0  0  0
    5.4857   -0.1192    0.3258 H   0  0  0  0  0  0  0  0  0  0  0  0
    4.2390   -0.8522   -0.6719 H   0  0  0  0  0  0  0  0  0  0  0  0
    4.6934   -0.9024    2.4162 H   0  0  0  0  0  0  0  0  0  0  0  0
    3.2753   -1.6796    1.7513 H   0  0  0  0  0  0  0  0  0  0  0  0
    5.5198   -3.1139    3.2424 H   0  0  0  0  0  0  0  0  0  0  0  0
    4.0974   -2.9544    4.9446 H   0  0  0  0  0  0  0  0  0  0  0  0
    2.7537   -3.9536    2.3975 H   0  0  0  0  0  0  0  0  0  0  0  0
    6.1488   -5.4684    0.2798 H   0  0  0  0  0  0  0  0  0  0  0  0
    6.3468   -4.7942    1.8583 H   0  0  0  0  0  0  0  0  0  0  0  0
    5.2246   -7.5155    1.1424 H   0  0  0  0  0  0  0  0  0  0  0  0
    7.4606   -7.9311    0.8980 H   0  0  0  0  0  0  0  0  0  0  0  0
    7.9589   -6.6069    1.9414 H   0  0  0  0  0  0  0  0  0  0  0  0
    7.6633   -9.3431    2.7657 H   0  0  0  0  0  0  0  0  0  0  0  0
    8.0055   -7.9339    3.7677 H   0  0  0  0  0  0  0  0  0  0  0  0
    5.3595   -9.2065    3.1537 H   0  0  0  0  0  0  0  0  0  0  0  0
    5.9116   -8.5586    4.6970 H   0  0  0  0  0  0  0  0  0  0  0  0
    4.6004   -5.8956    5.6566 H   0  0  0  0  0  0  0  0  0  0  0  0
    5.1967   -4.3689    5.0883 H   0  0  0  0  0  0  0  0  0  0  0  0
    2.2053   -5.6171    5.4786 H   0  0  0  0  0  0  0  0  0  0  0  0
    1.4462   -5.1518    3.9651 H   0  0  0  0  0  0  0  0  0  0  0  0
    2.3013   -3.9948    4.9288 H   0  0  0  0  0  0  0  0  0  0  0  0
    3.5294   -8.8932    4.3689 H   0  0  0  0  0  0  0  0  0  0  0  0
    2.8001   -7.6090    5.3344 H   0  0  0  0  0  0  0  0  0  0  0  0
    1.5202   -9.0109    3.1674 H   0  0  0  0  0  0  0  0  0  0  0  0
    1.0412   -7.3484    3.6537 H   0  0  0  0  0  0  0  0  0  0  0  0
    3.2641   -8.2522    1.7898 H   0  0  0  0  0  0  0  0  0  0  0  0
    1.5208   -7.0187    0.6453 H   0  0  0  0  0  0  0  0  0  0  0  0
    1.5009   -5.7773    1.8308 H   0  0  0  0  0  0  0  0  0  0  0  0
    3.6543   -6.3063   -0.2433 H   0  0  0  0  0  0  0  0  0  0  0  0
    2.4662   -4.9274   -1.1939 H   0  0  0  0  0  0  0  0  0  0  0  0
  1  2  2  0
  1 27  1  0
  1 28  1  0
  2  9  1  0
  2  3  1  0
  3  4  1  0
  3  5  1  0
  3 29  1  1
  4 30  1  0
  4 31  1  0
  4 32  1  0
  5  6  1  0
  5 33  1  0
  5 34  1  0
  6  7  1  0
  6  8  1  0
  6 35  1  1
  7 36  1  0
  8 18  1  0
  8  9  1  0
  8 37  1  6
  9 25  1  0
  9 10  1  1
 10 11  1  0
 10 38  1  0
 10 39  1  0
 11 15  1  0
 11 12  1  0
 11 40  1  6
 12 13  1  0
 12 41  1  0
 12 42  1  0
 13 14  1  0
 13 43  1  0
 13 44  1  0
 14 15  1  0
 14 45  1  0
 14 46  1  0
 15 20  1  0
 15 16  1  1
 16 17  1  0
 17 18  1  0
 17 47  1  0
 17 48  1  0
 18 19  1  1
 18 20  1  0
 19 49  1  0
 19 50  1  0
 19 51  1  0
 20 23  1  0
 20 21  1  1
 21 22  1  0
 21 52  1  0
 21 53  1  0
 22 23  1  0
 22 54  1  0
 22 55  1  0
 23 24  1  0
 23 56  1  6
 24 25  1  0
 24 57  1  0
 24 58  1  0
 25 26  1  0
 25 59  1  6
 26 60  1  0
M  END
>  <i_m_ct_stereo_status>  (10) 
1

>  <s_m_source_file>  (10) 
/var/tmp/pbs.5076255.sched01/tmp5ffkvrn0/0o5bi62ha.sdf

>  <i_m_source_file_index>  (10) 
9

>  <i_lp_mmshare_version>  (10) 
48012

>  <i_f3d_flags>  (10) 
0

>  <s_epik_input>  (10) 
W0NIMl09QzFbQ0BASF0oW0NIM10pW0NIMl1bQ0BASF0oW09IXSlbQ0BASF0oW0NAQF0xMjMpW0NAQF00KFtDSDNdKVtDQEBdNShbQ0BASF0oW0NIMl1bQ0gyXTUpW0NIMl1bQ0BIXTNbT0hdKVtDQF02KE9bQ0gyXTQpW0NAQEhdKFtDSDJdMilbQ0gyXVtDSDJdW0NIMl02

>  <s_epik_cmdline>  (10) 
J2VwaWtfcHl0aG9uJywgJy1waHQnLCAnMi4wJywgJy1waCcsICc3LjAnLCAnLXRuJywgJzgnLCAnLW1hJywgJzIwMCcsICctaW1hZScsICc8aW5maWxlLm1hZT4nLCAnLW9tYWUnLCAnPG91dGZpbGUubWFlPic=

>  <r_lp_tautomer_probability>  (10) 
1

>  <r_epik_Ionization_Penalty>  (10) 
1.89187e-06

>  <r_epik_Ionization_Penalty_Charging>  (10) 
0

>  <r_epik_Ionization_Penalty_Neutral>  (10) 
1.89187e-06

>  <r_epik_State_Penalty>  (10) 
-0

>  <r_epik_Charging_Adjusted_Penalty>  (10) 
0

>  <i_epik_Tot_Q>  (10) 
0

>  <i_epik_Tot_abs_Q>  (10) 
0

>  <s_lp_Force_Field>  (10) 
OPLS3e

>  <r_lp_Energy>  (10) 
81.1552

>  <b_lp_Chiralities_Consistent>  (10) 
1

>  <s_lp_Variant>  (10) 
5:0-1

>  <s_i_glide_gridfile>  (10) 
pfpi4k_grid

>  <i_i_glide_lignum>  (10) 
9

>  <i_i_glide_rotatable_bonds>  (10) 
2

>  <r_i_docking_score>  (10) 
-3.17975

>  <r_i_glide_ligand_efficiency>  (10) 
-0.122298

>  <r_i_glide_ligand_efficiency_sa>  (10) 
-0.362307

>  <r_i_glide_ligand_efficiency_ln>  (10) 
-0.746753

>  <r_i_glide_gscore>  (10) 
-3.17975

>  <r_i_glide_lipo>  (10) 
-0.32364

>  <r_i_glide_hbond>  (10) 
-0.28446

>  <r_i_glide_metal>  (10) 
-0

>  <r_i_glide_rewards>  (10) 
-0.964675

>  <r_i_glide_evdw>  (10) 
-21.3967

>  <r_i_glide_ecoul>  (10) 
-3.58092

>  <r_i_glide_erotb>  (10) 
0

>  <r_i_glide_esite>  (10) 
0

>  <r_i_glide_emodel>  (10) 
-29.6822

>  <r_i_glide_energy>  (10) 
-24.9776

>  <r_i_glide_einternal>  (10) 
1.54759

>  <r_i_glide_intrahb_reward>  (10) 
-0

>  <i_i_glide_confnum>  (10) 
1

>  <i_i_glide_posenum>  (10) 
11

>  <r_i_glide_eff_state_penalty>  (10) 
0

>  <ligand_id>  (10) 
5

>  <original_smiles>  (10) 
C=C1C(C)CC(O)C2C13CC1CCCC14OCC2(C)C41CCC1CC3O

>  <smiles>  (10) 
[H]OC1([H])C([H])([H])C([H])(C([H])([H])[H])C(=C([H])[H])C23C([H])([H])C4([H])C([H])([H])C([H])([H])C([H])([H])C45OC([H])([H])C(C([H])([H])[H])(C12[H])C51C([H])([H])C([H])([H])C1([H])C([H])([H])C3([H])O[H]

$$$$
5:0:1
     RDKit          3D

 60 65  0  0  1  0  0  0  0  0999 V2000
    4.2751   -3.6560   -1.0279 C   0  0  0  0  0  0  0  0  0  0  0  0
    4.3134   -3.4395    0.3072 C   0  0  0  0  0  0  0  0  0  0  0  0
    4.5462   -2.0121    0.8230 C   0  0  1  0  0  0  0  0  0  0  0  0
    4.2777   -0.8844   -0.1966 C   0  0  0  0  0  0  0  0  0  0  0  0
    3.7694   -1.7491    2.1004 C   0  0  0  0  0  0  0  0  0  0  0  0
    4.2235   -2.7367    3.1673 C   0  0  1  0  0  0  0  0  0  0  0  0
    3.6864   -2.2359    4.3759 O   0  0  0  0  0  0  0  0  0  0  0  0
    3.8099   -4.2066    2.8132 C   0  0  1  0  0  0  0  0  0  0  0  0
    4.2954   -4.6250    1.3439 C   0  0  2  0  0  0  0  0  0  0  0  0
    5.8131   -4.9980    1.3536 C   0  0  0  0  0  0  0  0  0  0  0  0
    6.2592   -6.3425    1.9304 C   0  0  1  0  0  0  0  0  0  0  0  0
    7.7832   -6.5698    1.8366 C   0  0  0  0  0  0  0  0  0  0  0  0
    8.1686   -7.4087    3.0613 C   0  0  0  0  0  0  0  0  0  0  0  0
    6.8514   -7.7176    3.7741 C   0  0  0  0  0  0  0  0  0  0  0  0
    5.9086   -6.5596    3.4020 C   0  0  1  0  0  0  0  0  0  0  0  0
    6.3413   -5.4314    4.1572 O   0  0  0  0  0  0  0  0  0  0  0  0
    5.2537   -4.9118    4.8898 C   0  0  0  0  0  0  0  0  0  0  0  0
    4.0161   -5.2367    4.0379 C   0  0  1  0  0  0  0  0  0  0  0  0
    2.7368   -5.1440    4.9311 C   0  0  0  0  0  0  0  0  0  0  0  0
    4.3929   -6.7105    3.6883 C   0  0  2  0  0  0  0  0  0  0  0  0
    4.0316   -7.8347    4.7102 C   0  0  0  0  0  0  0  0  0  0  0  0
    2.8234   -8.2062    3.8688 C   0  0  0  0  0  0  0  0  0  0  0  0
    3.5065   -7.4950    2.6992 C   0  0  1  0  0  0  0  0  0  0  0  0
    2.6296   -6.7412    1.7317 C   0  0  0  0  0  0  0  0  0  0  0  0
    3.3503   -5.7768    0.7672 C   0  0  1  0  0  0  0  0  0  0  0  0
    2.2054   -5.2674    0.0881 O   0  0  0  0  0  0  0  0  0  0  0  0
    4.2204   -4.6527   -1.4376 H   0  0  0  0  0  0  0  0  0  0  0  0
    4.3331   -2.8607   -1.7555 H   0  0  0  0  0  0  0  0  0  0  0  0
    5.6068   -1.9504    1.0715 H   0  0  0  0  0  0  0  0  0  0  0  0
    4.9762   -0.9128   -1.0318 H   0  0  0  0  0  0  0  0  0  0  0  0
    4.3942    0.0990    0.2620 H   0  0  0  0  0  0  0  0  0  0  0  0
    3.2635   -0.9387   -0.5941 H   0  0  0  0  0  0  0  0  0  0  0  0
    3.9614   -0.7283    2.4362 H   0  0  0  0  0  0  0  0  0  0  0  0
    2.6938   -1.8206    1.9219 H   0  0  0  0  0  0  0  0  0  0  0  0
    5.3073   -2.6784    3.2538 H   0  0  0  0  0  0  0  0  0  0  0  0
    2.7467   -2.1877    4.2954 H   0  0  0  0  0  0  0  0  0  0  0  0
    2.7289   -4.1293    2.6913 H   0  0  0  0  0  0  0  0  0  0  0  0
    6.1943   -4.9867    0.3305 H   0  0  0  0  0  0  0  0  0  0  0  0
    6.3661   -4.2069    1.8629 H   0  0  0  0  0  0  0  0  0  0  0  0
    5.8073   -7.1386    1.3385 H   0  0  0  0  0  0  0  0  0  0  0  0
    8.0517   -7.0806    0.9094 H   0  0  0  0  0  0  0  0  0  0  0  0
    8.3337   -5.6277    1.8639 H   0  0  0  0  0  0  0  0  0  0  0  0
    8.7105   -8.3143    2.7895 H   0  0  0  0  0  0  0  0  0  0  0  0
    8.8145   -6.8204    3.7155 H   0  0  0  0  0  0  0  0  0  0  0  0
    6.4672   -8.6607    3.3831 H   0  0  0  0  0  0  0  0  0  0  0  0
    6.9879   -7.8245    4.8499 H   0  0  0  0  0  0  0  0  0  0  0  0
    5.2053   -5.4553    5.8331 H   0  0  0  0  0  0  0  0  0  0  0  0
    5.4116   -3.8705    5.1632 H   0  0  0  0  0  0  0  0  0  0  0  0
    2.8088   -5.7066    5.8598 H   0  0  0  0  0  0  0  0  0  0  0  0
    1.8455   -5.4904    4.4078 H   0  0  0  0  0  0  0  0  0  0  0  0
    2.5149   -4.1291    5.2530 H   0  0  0  0  0  0  0  0  0  0  0  0
    4.7135   -8.6793    4.7403 H   0  0  0  0  0  0  0  0  0  0  0  0
    3.8048   -7.5296    5.7273 H   0  0  0  0  0  0  0  0  0  0  0  0
    2.6876   -9.2819    3.7337 H   0  0  0  0  0  0  0  0  0  0  0  0
    1.9016   -7.7342    4.2049 H   0  0  0  0  0  0  0  0  0  0  0  0
    4.1132   -8.2406    2.1872 H   0  0  0  0  0  0  0  0  0  0  0  0
    2.0616   -7.4676    1.1495 H   0  0  0  0  0  0  0  0  0  0  0  0
    1.8636   -6.1981    2.2847 H   0  0  0  0  0  0  0  0  0  0  0  0
    3.9083   -6.3743    0.0449 H   0  0  0  0  0  0  0  0  0  0  0  0
    2.4582   -5.0808   -0.8068 H   0  0  0  0  0  0  0  0  0  0  0  0
  1  2  2  0
  1 27  1  0
  1 28  1  0
  2  9  1  0
  2  3  1  0
  3  4  1  0
  3  5  1  0
  3 29  1  1
  4 30  1  0
  4 31  1  0
  4 32  1  0
  5  6  1  0
  5 33  1  0
  5 34  1  0
  6  7  1  0
  6  8  1  0
  6 35  1  1
  7 36  1  0
  8 18  1  0
  8  9  1  0
  8 37  1  6
  9 25  1  0
  9 10  1  1
 10 11  1  0
 10 38  1  0
 10 39  1  0
 11 15  1  0
 11 12  1  0
 11 40  1  6
 12 13  1  0
 12 41  1  0
 12 42  1  0
 13 14  1  0
 13 43  1  0
 13 44  1  0
 14 15  1  0
 14 45  1  0
 14 46  1  0
 15 20  1  0
 15 16  1  1
 16 17  1  0
 17 18  1  0
 17 47  1  0
 17 48  1  0
 18 19  1  1
 18 20  1  0
 19 49  1  0
 19 50  1  0
 19 51  1  0
 20 23  1  0
 20 21  1  1
 21 22  1  0
 21 52  1  0
 21 53  1  0
 22 23  1  0
 22 54  1  0
 22 55  1  0
 23 24  1  0
 23 56  1  6
 24 25  1  0
 24 57  1  0
 24 58  1  0
 25 26  1  0
 25 59  1  6
 26 60  1  0
M  END
>  <i_m_ct_stereo_status>  (11) 
1

>  <s_m_source_file>  (11) 
/var/tmp/pbs.5076255.sched01/tmp5ffkvrn0/0o5bi62ha.sdf

>  <i_m_source_file_index>  (11) 
9

>  <i_lp_mmshare_version>  (11) 
48012

>  <i_f3d_flags>  (11) 
0

>  <s_epik_input>  (11) 
W0NIMl09QzFbQ0BASF0oW0NIM10pW0NIMl1bQ0BASF0oW09IXSlbQ0BASF0oW0NAQF0xMjMpW0NAQF00KFtDSDNdKVtDQEBdNShbQ0BASF0oW0NIMl1bQ0gyXTUpW0NIMl1bQ0BIXTNbT0hdKVtDQF02KE9bQ0gyXTQpW0NAQEhdKFtDSDJdMilbQ0gyXVtDSDJdW0NIMl02

>  <s_epik_cmdline>  (11) 
J2VwaWtfcHl0aG9uJywgJy1waHQnLCAnMi4wJywgJy1waCcsICc3LjAnLCAnLXRuJywgJzgnLCAnLW1hJywgJzIwMCcsICctaW1hZScsICc8aW5maWxlLm1hZT4nLCAnLW9tYWUnLCAnPG91dGZpbGUubWFlPic=

>  <r_lp_tautomer_probability>  (11) 
1

>  <r_epik_Ionization_Penalty>  (11) 
1.89187e-06

>  <r_epik_Ionization_Penalty_Charging>  (11) 
0

>  <r_epik_Ionization_Penalty_Neutral>  (11) 
1.89187e-06

>  <r_epik_State_Penalty>  (11) 
-0

>  <r_epik_Charging_Adjusted_Penalty>  (11) 
0

>  <i_epik_Tot_Q>  (11) 
0

>  <i_epik_Tot_abs_Q>  (11) 
0

>  <s_lp_Force_Field>  (11) 
OPLS3e

>  <r_lp_Energy>  (11) 
81.1552

>  <b_lp_Chiralities_Consistent>  (11) 
1

>  <s_lp_Variant>  (11) 
5:0-1

>  <s_i_glide_gridfile>  (11) 
pfpi4k_grid

>  <i_i_glide_lignum>  (11) 
9

>  <i_i_glide_rotatable_bonds>  (11) 
2

>  <r_i_docking_score>  (11) 
-3.03673

>  <r_i_glide_ligand_efficiency>  (11) 
-0.116797

>  <r_i_glide_ligand_efficiency_sa>  (11) 
-0.346012

>  <r_i_glide_ligand_efficiency_ln>  (11) 
-0.713166

>  <r_i_glide_gscore>  (11) 
-3.03673

>  <r_i_glide_lipo>  (11) 
-0.186075

>  <r_i_glide_hbond>  (11) 
-0.195678

>  <r_i_glide_metal>  (11) 
-0

>  <r_i_glide_rewards>  (11) 
-0.964675

>  <r_i_glide_evdw>  (11) 
-21.1792

>  <r_i_glide_ecoul>  (11) 
-4.20896

>  <r_i_glide_erotb>  (11) 
0

>  <r_i_glide_esite>  (11) 
0

>  <r_i_glide_emodel>  (11) 
-30.236

>  <r_i_glide_energy>  (11) 
-25.3881

>  <r_i_glide_einternal>  (11) 
0.85182

>  <r_i_glide_intrahb_reward>  (11) 
-0

>  <i_i_glide_confnum>  (11) 
2

>  <i_i_glide_posenum>  (11) 
1

>  <r_i_glide_eff_state_penalty>  (11) 
0

>  <ligand_id>  (11) 
5

>  <original_smiles>  (11) 
C=C1C(C)CC(O)C2C13CC1CCCC14OCC2(C)C41CCC1CC3O

>  <smiles>  (11) 
[H]OC1([H])C([H])([H])C([H])(C([H])([H])[H])C(=C([H])[H])C23C([H])([H])C4([H])C([H])([H])C([H])([H])C([H])([H])C45OC([H])([H])C(C([H])([H])[H])(C12[H])C51C([H])([H])C([H])([H])C1([H])C([H])([H])C3([H])O[H]

$$$$
5:0:2
     RDKit          3D

 60 65  0  0  1  0  0  0  0  0999 V2000
    4.2550   -5.8495    0.3293 C   0  0  0  0  0  0  0  0  0  0  0  0
    3.9622   -5.5889    1.6269 C   0  0  0  0  0  0  0  0  0  0  0  0
    4.7767   -4.5214    2.3683 C   0  0  1  0  0  0  0  0  0  0  0  0
    5.5554   -3.5276    1.4767 C   0  0  0  0  0  0  0  0  0  0  0  0
    3.9167   -3.7614    3.3583 C   0  0  0  0  0  0  0  0  0  0  0  0
    3.3411   -4.7419    4.3710 C   0  0  1  0  0  0  0  0  0  0  0  0
    2.7931   -3.9081    5.3687 O   0  0  0  0  0  0  0  0  0  0  0  0
    2.3127   -5.7238    3.7171 C   0  0  1  0  0  0  0  0  0  0  0  0
    2.9318   -6.4596    2.4386 C   0  0  2  0  0  0  0  0  0  0  0  0
    3.8581   -7.6380    2.8790 C   0  0  0  0  0  0  0  0  0  0  0  0
    3.2407   -8.9447    3.3834 C   0  0  1  0  0  0  0  0  0  0  0  0
    4.2895  -10.0164    3.7476 C   0  0  0  0  0  0  0  0  0  0  0  0
    3.6941  -10.8245    4.9084 C   0  0  0  0  0  0  0  0  0  0  0  0
    2.2920  -10.2540    5.1228 C   0  0  0  0  0  0  0  0  0  0  0  0
    2.3668   -8.7957    4.6273 C   0  0  1  0  0  0  0  0  0  0  0  0
    3.0880   -8.0556    5.6108 O   0  0  0  0  0  0  0  0  0  0  0  0
    2.3052   -6.9598    6.0346 C   0  0  0  0  0  0  0  0  0  0  0  0
    1.4732   -6.5802    4.7982 C   0  0  1  0  0  0  0  0  0  0  0  0
    0.2633   -5.6992    5.2472 C   0  0  0  0  0  0  0  0  0  0  0  0
    1.0420   -8.0250    4.3909 C   0  0  2  0  0  0  0  0  0  0  0  0
   -0.2050   -8.6495    5.0874 C   0  0  0  0  0  0  0  0  0  0  0  0
   -1.0484   -8.3177    3.8690 C   0  0  0  0  0  0  0  0  0  0  0  0
    0.2582   -8.2289    3.0787 C   0  0  1  0  0  0  0  0  0  0  0  0
    0.3473   -7.1910    1.9924 C   0  0  0  0  0  0  0  0  0  0  0  0
    1.7567   -6.8935    1.4494 C   0  0  1  0  0  0  0  0  0  0  0  0
    1.4114   -5.8615    0.5252 O   0  0  0  0  0  0  0  0  0  0  0  0
    3.7896   -6.6579   -0.2072 H   0  0  0  0  0  0  0  0  0  0  0  0
    4.9955   -5.2979   -0.2269 H   0  0  0  0  0  0  0  0  0  0  0  0
    5.5277   -5.0635    2.9458 H   0  0  0  0  0  0  0  0  0  0  0  0
    6.3431   -4.0253    0.9128 H   0  0  0  0  0  0  0  0  0  0  0  0
    6.0489   -2.7622    2.0769 H   0  0  0  0  0  0  0  0  0  0  0  0
    4.8978   -3.0159    0.7738 H   0  0  0  0  0  0  0  0  0  0  0  0
    4.5263   -3.0116    3.8673 H   0  0  0  0  0  0  0  0  0  0  0  0
    3.1185   -3.2173    2.8486 H   0  0  0  0  0  0  0  0  0  0  0  0
    4.1585   -5.3062    4.8207 H   0  0  0  0  0  0  0  0  0  0  0  0
    3.5028   -3.4478    5.7913 H   0  0  0  0  0  0  0  0  0  0  0  0
    1.5852   -5.0407    3.2773 H   0  0  0  0  0  0  0  0  0  0  0  0
    4.4935   -7.9312    2.0402 H   0  0  0  0  0  0  0  0  0  0  0  0
    4.5545   -7.2742    3.6363 H   0  0  0  0  0  0  0  0  0  0  0  0
    2.6475   -9.3801    2.5802 H   0  0  0  0  0  0  0  0  0  0  0  0
    4.5083  -10.6577    2.8906 H   0  0  0  0  0  0  0  0  0  0  0  0
    5.2301   -9.5653    4.0697 H   0  0  0  0  0  0  0  0  0  0  0  0
    3.6704  -11.8962    4.7046 H   0  0  0  0  0  0  0  0  0  0  0  0
    4.2923  -10.6701    5.8083 H   0  0  0  0  0  0  0  0  0  0  0  0
    1.5979  -10.8337    4.5127 H   0  0  0  0  0  0  0  0  0  0  0  0
    1.9742  -10.3391    6.1620 H   0  0  0  0  0  0  0  0  0  0  0  0
    1.6478   -7.3064    6.8329 H   0  0  0  0  0  0  0  0  0  0  0  0
    2.9170   -6.1770    6.4787 H   0  0  0  0  0  0  0  0  0  0  0  0
   -0.3107   -6.1227    6.0686 H   0  0  0  0  0  0  0  0  0  0  0  0
   -0.4292   -5.5082    4.4291 H   0  0  0  0  0  0  0  0  0  0  0  0
    0.5650   -4.7186    5.6087 H   0  0  0  0  0  0  0  0  0  0  0  0
   -0.1825   -9.7293    5.2170 H   0  0  0  0  0  0  0  0  0  0  0  0
   -0.5366   -8.1970    6.0148 H   0  0  0  0  0  0  0  0  0  0  0  0
   -1.7168   -9.1239    3.5599 H   0  0  0  0  0  0  0  0  0  0  0  0
   -1.5884   -7.3757    3.9592 H   0  0  0  0  0  0  0  0  0  0  0  0
    0.4614   -9.2279    2.6879 H   0  0  0  0  0  0  0  0  0  0  0  0
   -0.2906   -7.5048    1.1652 H   0  0  0  0  0  0  0  0  0  0  0  0
   -0.1078   -6.2660    2.3441 H   0  0  0  0  0  0  0  0  0  0  0  0
    2.0805   -7.7636    0.8811 H   0  0  0  0  0  0  0  0  0  0  0  0
    2.1808   -5.6837   -0.0044 H   0  0  0  0  0  0  0  0  0  0  0  0
  1  2  2  0
  1 27  1  0
  1 28  1  0
  2  9  1  0
  2  3  1  0
  3  4  1  0
  3  5  1  0
  3 29  1  1
  4 30  1  0
  4 31  1  0
  4 32  1  0
  5  6  1  0
  5 33  1  0
  5 34  1  0
  6  7  1  0
  6  8  1  0
  6 35  1  1
  7 36  1  0
  8 18  1  0
  8  9  1  0
  8 37  1  6
  9 25  1  0
  9 10  1  1
 10 11  1  0
 10 38  1  0
 10 39  1  0
 11 15  1  0
 11 12  1  0
 11 40  1  6
 12 13  1  0
 12 41  1  0
 12 42  1  0
 13 14  1  0
 13 43  1  0
 13 44  1  0
 14 15  1  0
 14 45  1  0
 14 46  1  0
 15 20  1  0
 15 16  1  1
 16 17  1  0
 17 18  1  0
 17 47  1  0
 17 48  1  0
 18 19  1  1
 18 20  1  0
 19 49  1  0
 19 50  1  0
 19 51  1  0
 20 23  1  0
 20 21  1  1
 21 22  1  0
 21 52  1  0
 21 53  1  0
 22 23  1  0
 22 54  1  0
 22 55  1  0
 23 24  1  0
 23 56  1  6
 24 25  1  0
 24 57  1  0
 24 58  1  0
 25 26  1  0
 25 59  1  6
 26 60  1  0
M  END
>  <i_m_ct_stereo_status>  (12) 
1

>  <s_m_source_file>  (12) 
/var/tmp/pbs.5076255.sched01/tmp5ffkvrn0/0o5bi62ha.sdf

>  <i_m_source_file_index>  (12) 
9

>  <i_lp_mmshare_version>  (12) 
48012

>  <i_f3d_flags>  (12) 
0

>  <s_epik_input>  (12) 
W0NIMl09QzFbQ0BASF0oW0NIM10pW0NIMl1bQ0BASF0oW09IXSlbQ0BASF0oW0NAQF0xMjMpW0NAQF00KFtDSDNdKVtDQEBdNShbQ0BASF0oW0NIMl1bQ0gyXTUpW0NIMl1bQ0BIXTNbT0hdKVtDQF02KE9bQ0gyXTQpW0NAQEhdKFtDSDJdMilbQ0gyXVtDSDJdW0NIMl02

>  <s_epik_cmdline>  (12) 
J2VwaWtfcHl0aG9uJywgJy1waHQnLCAnMi4wJywgJy1waCcsICc3LjAnLCAnLXRuJywgJzgnLCAnLW1hJywgJzIwMCcsICctaW1hZScsICc8aW5maWxlLm1hZT4nLCAnLW9tYWUnLCAnPG91dGZpbGUubWFlPic=

>  <r_lp_tautomer_probability>  (12) 
1

>  <r_epik_Ionization_Penalty>  (12) 
1.89187e-06

>  <r_epik_Ionization_Penalty_Charging>  (12) 
0

>  <r_epik_Ionization_Penalty_Neutral>  (12) 
1.89187e-06

>  <r_epik_State_Penalty>  (12) 
-0

>  <r_epik_Charging_Adjusted_Penalty>  (12) 
0

>  <i_epik_Tot_Q>  (12) 
0

>  <i_epik_Tot_abs_Q>  (12) 
0

>  <s_lp_Force_Field>  (12) 
OPLS3e

>  <r_lp_Energy>  (12) 
81.1552

>  <b_lp_Chiralities_Consistent>  (12) 
1

>  <s_lp_Variant>  (12) 
5:0-1

>  <s_i_glide_gridfile>  (12) 
pfpi4k_grid

>  <i_i_glide_lignum>  (12) 
9

>  <i_i_glide_rotatable_bonds>  (12) 
2

>  <r_i_docking_score>  (12) 
-3.02753

>  <r_i_glide_ligand_efficiency>  (12) 
-0.116444

>  <r_i_glide_ligand_efficiency_sa>  (12) 
-0.344964

>  <r_i_glide_ligand_efficiency_ln>  (12) 
-0.711007

>  <r_i_glide_gscore>  (12) 
-3.02753

>  <r_i_glide_lipo>  (12) 
-0.183829

>  <r_i_glide_hbond>  (12) 
-0.156817

>  <r_i_glide_metal>  (12) 
-0

>  <r_i_glide_rewards>  (12) 
-0.964675

>  <r_i_glide_evdw>  (12) 
-23.1427

>  <r_i_glide_ecoul>  (12) 
-3.7672

>  <r_i_glide_erotb>  (12) 
0

>  <r_i_glide_esite>  (12) 
0

>  <r_i_glide_emodel>  (12) 
-31.9744

>  <r_i_glide_energy>  (12) 
-26.9099

>  <r_i_glide_einternal>  (12) 
0.66511

>  <r_i_glide_intrahb_reward>  (12) 
-0

>  <i_i_glide_confnum>  (12) 
2

>  <i_i_glide_posenum>  (12) 
3

>  <r_i_glide_eff_state_penalty>  (12) 
0

>  <ligand_id>  (12) 
5

>  <original_smiles>  (12) 
C=C1C(C)CC(O)C2C13CC1CCCC14OCC2(C)C41CCC1CC3O

>  <smiles>  (12) 
[H]OC1([H])C([H])([H])C([H])(C([H])([H])[H])C(=C([H])[H])C23C([H])([H])C4([H])C([H])([H])C([H])([H])C([H])([H])C45OC([H])([H])C(C([H])([H])[H])(C12[H])C51C([H])([H])C([H])([H])C1([H])C([H])([H])C3([H])O[H]

$$$$
6:0:0
     RDKit          3D

 74 80  0  0  1  0  0  0  0  0999 V2000
    0.2263    0.9909    9.5137 C   0  0  0  0  0  0  0  0  0  0  0  0
   -0.4160    1.1900    8.2492 O   0  0  0  0  0  0  0  0  0  0  0  0
    0.0805    0.5121    7.1226 C   0  0  2  0  0  0  0  0  0  0  0  0
   -1.2889    0.2343    6.3784 C   0  0  0  0  0  0  0  0  0  0  0  0
   -1.5358    0.2489    4.8579 C   0  0  0  0  0  0  0  0  0  0  0  0
   -1.0713    1.3608    3.9582 C   0  0  2  0  0  0  0  0  0  0  0  0
    0.0869    0.9346    2.9635 C   0  0  1  0  0  0  0  0  0  0  0  0
    1.0981    1.9981    3.0215 C   0  0  0  0  0  0  0  0  0  0  0  0
    2.0141    1.6680    4.2274 C   0  0  2  0  0  0  0  0  0  0  0  0
    3.3140    1.8237    3.4306 C   0  0  0  0  0  0  0  0  0  0  0  0
    3.3964    0.5839    2.3939 C   0  0  0  0  0  0  0  0  0  0  0  0
    2.1461   -0.2314    1.9819 N   0  0  1  0  0  0  0  0  0  0  0  0
    2.5166   -1.4955    1.3015 C   0  0  0  0  0  0  0  0  0  0  0  0
    3.4492   -1.3045    0.1110 C   0  0  0  0  0  0  0  0  0  0  0  0
    4.3358   -2.4301   -0.3718 C   0  0  0  0  0  0  0  0  0  0  0  0
    4.9495   -1.2285    0.2984 C   0  0  0  0  0  0  0  0  0  0  0  0
    0.9764   -0.4066    2.9608 C   0  0  1  0  0  0  0  0  0  0  0  0
    1.5616   -0.9048    4.3253 C   0  0  2  0  0  0  0  0  0  0  0  0
    0.7541   -1.9294    5.2130 C   0  0  1  0  0  0  0  0  0  0  0  0
    1.0492   -3.3758    4.7613 C   0  0  0  0  0  0  0  0  0  0  0  0
    0.8535   -1.8964    6.7619 C   0  0  0  0  0  0  0  0  0  0  0  0
    0.5299   -0.7456    7.5712 O   0  0  0  0  0  0  0  0  0  0  0  0
    2.3459    0.2753    4.9003 C   0  0  2  0  0  0  0  0  0  0  0  0
    2.5198    0.5424    6.3744 C   0  0  0  0  0  0  0  0  0  0  0  0
    1.3366    1.4150    6.6671 C   0  0  1  0  0  0  0  0  0  0  0  0
    1.3736    2.4133    5.4592 C   0  0  2  0  0  0  0  0  0  0  0  0
    0.1255    3.3394    5.3077 C   0  0  0  0  0  0  0  0  0  0  0  0
   -1.1682    2.8394    4.5606 C   0  0  0  0  0  0  0  0  0  0  0  0
   -1.5723    3.8154    3.4173 C   0  0  0  0  0  0  0  0  0  0  0  0
   -2.3519    3.0677    5.5426 C   0  0  0  0  0  0  0  0  0  0  0  0
   -0.3002    1.5790   10.2679 H   0  0  0  0  0  0  0  0  0  0  0  0
    1.2670    1.3138    9.5113 H   0  0  0  0  0  0  0  0  0  0  0  0
    0.1837   -0.0512    9.8397 H   0  0  0  0  0  0  0  0  0  0  0  0
   -1.5512   -0.7841    6.6372 H   0  0  0  0  0  0  0  0  0  0  0  0
   -2.0863    0.7797    6.8759 H   0  0  0  0  0  0  0  0  0  0  0  0
   -1.5444   -0.6825    4.3113 H   0  0  0  0  0  0  0  0  0  0  0  0
   -2.6054    0.3512    4.8495 H   0  0  0  0  0  0  0  0  0  0  0  0
   -1.9076    1.3846    3.2569 H   0  0  0  0  0  0  0  0  0  0  0  0
   -0.3573    0.9903    1.9678 H   0  0  0  0  0  0  0  0  0  0  0  0
    1.5218    2.0834    2.0196 H   0  0  0  0  0  0  0  0  0  0  0  0
    0.7899    3.0310    3.0236 H   0  0  0  0  0  0  0  0  0  0  0  0
    3.3609    2.7837    2.9054 H   0  0  0  0  0  0  0  0  0  0  0  0
    4.1893    1.8409    4.0813 H   0  0  0  0  0  0  0  0  0  0  0  0
    3.8365    0.9743    1.4724 H   0  0  0  0  0  0  0  0  0  0  0  0
    4.1416   -0.1132    2.7883 H   0  0  0  0  0  0  0  0  0  0  0  0
    2.9761   -2.1957    2.0032 H   0  0  0  0  0  0  0  0  0  0  0  0
    1.6227   -1.9916    0.9211 H   0  0  0  0  0  0  0  0  0  0  0  0
    3.0198   -0.7073   -0.6929 H   0  0  0  0  0  0  0  0  0  0  0  0
    4.3237   -3.3628    0.1834 H   0  0  0  0  0  0  0  0  0  0  0  0
    4.5064   -2.5222   -1.4420 H   0  0  0  0  0  0  0  0  0  0  0  0
    5.4757   -0.5030   -0.3167 H   0  0  0  0  0  0  0  0  0  0  0  0
    5.3499   -1.3707    1.3006 H   0  0  0  0  0  0  0  0  0  0  0  0
    0.3248   -1.2017    2.5861 H   0  0  0  0  0  0  0  0  0  0  0  0
    2.3761   -1.5648    4.0300 H   0  0  0  0  0  0  0  0  0  0  0  0
   -0.2880   -1.9092    5.0071 H   0  0  0  0  0  0  0  0  0  0  0  0
    2.0775   -3.6619    4.9874 H   0  0  0  0  0  0  0  0  0  0  0  0
    0.8872   -3.4988    3.6915 H   0  0  0  0  0  0  0  0  0  0  0  0
    0.3957   -4.0881    5.2696 H   0  0  0  0  0  0  0  0  0  0  0  0
    0.1679   -2.6578    7.1415 H   0  0  0  0  0  0  0  0  0  0  0  0
    1.8369   -2.2552    7.0713 H   0  0  0  0  0  0  0  0  0  0  0  0
    3.3804   -0.0454    4.7607 H   0  0  0  0  0  0  0  0  0  0  0  0
    2.7368   -0.3022    7.0199 H   0  0  0  0  0  0  0  0  0  0  0  0
    3.4107    1.1651    6.4929 H   0  0  0  0  0  0  0  0  0  0  0  0
    1.6125    2.0211    7.5280 H   0  0  0  0  0  0  0  0  0  0  0  0
    2.1590    3.1217    5.7293 H   0  0  0  0  0  0  0  0  0  0  0  0
   -0.1242    3.6757    6.3147 H   0  0  0  0  0  0  0  0  0  0  0  0
    0.4663    4.2557    4.8260 H   0  0  0  0  0  0  0  0  0  0  0  0
   -1.4055    4.8541    3.6892 H   0  0  0  0  0  0  0  0  0  0  0  0
   -2.6265    3.7172    3.1628 H   0  0  0  0  0  0  0  0  0  0  0  0
   -1.0575    3.6391    2.4782 H   0  0  0  0  0  0  0  0  0  0  0  0
   -2.6019    4.1255    5.6188 H   0  0  0  0  0  0  0  0  0  0  0  0
   -2.1389    2.7834    6.5683 H   0  0  0  0  0  0  0  0  0  0  0  0
   -3.2537    2.5623    5.2066 H   0  0  0  0  0  0  0  0  0  0  0  0
    1.7192    0.3162    1.2371 H   0  0  0  0  0  0  0  0  0  0  0  0
  1  2  1  0
  1 31  1  0
  1 32  1  0
  1 33  1  0
  3  2  1  1
  3 22  1  0
  3 25  1  0
  3  4  1  0
  4  5  1  0
  4 34  1  0
  4 35  1  0
  5  6  1  0
  5 36  1  0
  5 37  1  0
  6 28  1  0
  6  7  1  0
  6 38  1  6
  7 17  1  0
  7  8  1  0
  7 39  1  6
  8  9  1  0
  8 40  1  0
  8 41  1  0
  9 23  1  0
  9 26  1  0
  9 10  1  6
 10 11  1  0
 10 42  1  0
 10 43  1  0
 11 12  1  0
 11 44  1  0
 11 45  1  0
 12 13  1  0
 12 17  1  0
 12 74  1  6
 13 14  1  0
 13 46  1  0
 13 47  1  0
 14 16  1  0
 14 15  1  0
 14 48  1  0
 15 16  1  0
 15 49  1  0
 15 50  1  0
 16 51  1  0
 16 52  1  0
 17 18  1  0
 17 53  1  6
 18 19  1  0
 18 23  1  0
 18 54  1  6
 19 20  1  0
 19 21  1  0
 19 55  1  1
 20 56  1  0
 20 57  1  0
 20 58  1  0
 21 22  1  0
 21 59  1  0
 21 60  1  0
 23 24  1  0
 23 61  1  6
 24 25  1  0
 24 62  1  0
 24 63  1  0
 25 26  1  0
 25 64  1  1
 26 27  1  0
 26 65  1  1
 27 28  1  0
 27 66  1  0
 27 67  1  0
 28 29  1  0
 28 30  1  0
 29 68  1  0
 29 69  1  0
 29 70  1  0
 30 71  1  0
 30 72  1  0
 30 73  1  0
M  CHG  1  12   1
M  END
>  <i_m_ct_stereo_status>  (13) 
1

>  <s_m_source_file>  (13) 
/var/tmp/pbs.5076255.sched01/tmp5ffkvrn0/0o5bi62ha.sdf

>  <i_m_source_file_index>  (13) 
10

>  <i_lp_mmshare_version>  (13) 
48012

>  <i_f3d_flags>  (13) 
0

>  <s_epik_input>  (13) 
W0NIM11DMShbQ0gzXSlbQ0gyXVtDQEhdMltDQEhdKFtDSDJdMylbQ0BdKE9bQ0gzXSkoT1tDSDJdW0NAQEhdNFtDSDNdKVtDSDJdW0NIMl1bQ0BASF0xW0NAQEhdKFtDSDJdNSlbQ0BIXShbQ0BIXTRbQ0BIXTNbQ0BdMjU2KU4oW0NIMl1bQ0gyXTYpW0NIMl1bQ0hdN1tDSDJdW0NIMl03

>  <s_epik_cmdline>  (13) 
J2VwaWtfcHl0aG9uJywgJy1waHQnLCAnMi4wJywgJy1waCcsICc3LjAnLCAnLXRuJywgJzgnLCAnLW1hJywgJzIwMCcsICctaW1hZScsICc8aW5maWxlLm1hZT4nLCAnLW9tYWUnLCAnPG91dGZpbGUubWFlPic=

>  <r_lp_tautomer_probability>  (13) 
1

>  <r_epik_Ionization_Penalty>  (13) 
0.000222532

>  <r_epik_Ionization_Penalty_Charging>  (13) 
0.000222532

>  <r_epik_Ionization_Penalty_Neutral>  (13) 
5.24944e-12

>  <r_epik_State_Penalty>  (13) 
-0

>  <r_epik_Charging_Adjusted_Penalty>  (13) 
0.000222532

>  <i_epik_Tot_Q>  (13) 
1

>  <i_epik_Tot_abs_Q>  (13) 
1

>  <s_lp_Force_Field>  (13) 
OPLS3e

>  <r_lp_Energy>  (13) 
230.402

>  <b_lp_Chiralities_Consistent>  (13) 
1

>  <s_lp_Variant>  (13) 
6:0-1

>  <s_i_glide_gridfile>  (13) 
pfpi4k_grid

>  <i_i_glide_lignum>  (13) 
10

>  <i_i_glide_rotatable_bonds>  (13) 
3

>  <r_i_docking_score>  (13) 
-2.17818

>  <r_i_glide_ligand_efficiency>  (13) 
-0.072606

>  <r_i_glide_ligand_efficiency_sa>  (13) 
-0.225604

>  <r_i_glide_ligand_efficiency_ln>  (13) 
-0.494906

>  <r_i_glide_gscore>  (13) 
-2.17818

>  <r_i_glide_lipo>  (13) 
-0.117917

>  <r_i_glide_hbond>  (13) 
0

>  <r_i_glide_metal>  (13) 
-0

>  <r_i_glide_rewards>  (13) 
-0.581974

>  <r_i_glide_evdw>  (13) 
-17.5

>  <r_i_glide_ecoul>  (13) 
-5.06281

>  <r_i_glide_erotb>  (13) 
0.229622

>  <r_i_glide_esite>  (13) 
-0.0734875

>  <r_i_glide_emodel>  (13) 
-24.7115

>  <r_i_glide_energy>  (13) 
-22.5628

>  <r_i_glide_einternal>  (13) 
2.19517

>  <r_i_glide_intrahb_reward>  (13) 
-0

>  <i_i_glide_confnum>  (13) 
3

>  <i_i_glide_posenum>  (13) 
19

>  <r_i_glide_eff_state_penalty>  (13) 
0

>  <ligand_id>  (13) 
6

>  <original_smiles>  (13) 
COC12CCC3C4CC56CCN(CC7CC7)C4C(C(C)CO1)C5CC2C6CC3(C)C

>  <smiles>  (13) 
[H]C([H])([H])OC12OC([H])([H])C([H])(C([H])([H])[H])C3([H])C4([H])C([H])([H])C1([H])C1([H])C([H])([H])C(C([H])([H])[H])(C([H])([H])[H])C([H])(C([H])([H])C2([H])[H])C2([H])C([H])([H])C14C([H])([H])C([H])([H])[N+]([H])(C([H])([H])C1([H])C([H])([H])C1([H])[H])C23[H]

$$$$
6:0:1
     RDKit          3D

 74 80  0  0  1  0  0  0  0  0999 V2000
    6.9161   -0.5247    6.6646 C   0  0  0  0  0  0  0  0  0  0  0  0
    5.6173   -1.0198    6.3434 O   0  0  0  0  0  0  0  0  0  0  0  0
    4.6798   -0.1467    5.7622 C   0  0  2  0  0  0  0  0  0  0  0  0
    5.2269   -0.0134    4.2743 C   0  0  0  0  0  0  0  0  0  0  0  0
    4.3970   -0.0196    2.9695 C   0  0  0  0  0  0  0  0  0  0  0  0
    3.2365   -0.9573    2.7371 C   0  0  2  0  0  0  0  0  0  0  0  0
    1.7925   -0.2854    2.7759 C   0  0  1  0  0  0  0  0  0  0  0  0
    0.9254   -1.1697    3.5659 C   0  0  0  0  0  0  0  0  0  0  0  0
    1.1229   -0.7855    5.0499 C   0  0  2  0  0  0  0  0  0  0  0  0
   -0.3829   -0.6694    5.3551 C   0  0  0  0  0  0  0  0  0  0  0  0
   -0.9401    0.6387    4.5703 C   0  0  0  0  0  0  0  0  0  0  0  0
   -0.1715    1.2502    3.3754 N   0  0  1  0  0  0  0  0  0  0  0  0
   -0.6900    2.5895    3.0188 C   0  0  0  0  0  0  0  0  0  0  0  0
   -2.1873    2.6186    2.7629 C   0  0  0  0  0  0  0  0  0  0  0  0
   -2.9091    3.9253    2.4973 C   0  0  0  0  0  0  0  0  0  0  0  0
   -3.1224    3.2028    3.7984 C   0  0  0  0  0  0  0  0  0  0  0  0
    1.3582    1.1768    3.2926 C   0  0  1  0  0  0  0  0  0  0  0  0
    1.9430    1.6685    4.6562 C   0  0  2  0  0  0  0  0  0  0  0  0
    3.2946    2.4840    4.7004 C   0  0  1  0  0  0  0  0  0  0  0  0
    3.0070    3.9897    4.4807 C   0  0  0  0  0  0  0  0  0  0  0  0
    4.2720    2.3586    5.9063 C   0  0  0  0  0  0  0  0  0  0  0  0
    4.8379    1.1128    6.3728 O   0  0  0  0  0  0  0  0  0  0  0  0
    1.5663    0.5967    5.6789 C   0  0  2  0  0  0  0  0  0  0  0  0
    2.4032    0.2652    6.8864 C   0  0  0  0  0  0  0  0  0  0  0  0
    3.3162   -0.7939    6.3396 C   0  0  1  0  0  0  0  0  0  0  0  0
    2.3047   -1.7026    5.5596 C   0  0  2  0  0  0  0  0  0  0  0  0
    2.9524   -2.8016    4.6559 C   0  0  0  0  0  0  0  0  0  0  0  0
    3.4610   -2.4706    3.2001 C   0  0  0  0  0  0  0  0  0  0  0  0
    2.8046   -3.4193    2.1445 C   0  0  0  0  0  0  0  0  0  0  0  0
    4.9422   -2.9441    3.1283 C   0  0  0  0  0  0  0  0  0  0  0  0
    7.5350   -1.3599    6.9950 H   0  0  0  0  0  0  0  0  0  0  0  0
    6.8817    0.1970    7.4807 H   0  0  0  0  0  0  0  0  0  0  0  0
    7.4207   -0.0638    5.8157 H   0  0  0  0  0  0  0  0  0  0  0  0
    5.8128    0.9056    4.2483 H   0  0  0  0  0  0  0  0  0  0  0  0
    6.0222   -0.7335    4.1404 H   0  0  0  0  0  0  0  0  0  0  0  0
    4.1459    0.9311    2.5313 H   0  0  0  0  0  0  0  0  0  0  0  0
    5.1527   -0.3095    2.2367 H   0  0  0  0  0  0  0  0  0  0  0  0
    3.3410   -1.0709    1.6551 H   0  0  0  0  0  0  0  0  0  0  0  0
    1.4275   -0.3405    1.7477 H   0  0  0  0  0  0  0  0  0  0  0  0
   -0.0712   -1.1112    3.1329 H   0  0  0  0  0  0  0  0  0  0  0  0
    0.9793   -2.2344    3.4170 H   0  0  0  0  0  0  0  0  0  0  0  0
   -0.9288   -1.5710    5.0602 H   0  0  0  0  0  0  0  0  0  0  0  0
   -0.5757   -0.5860    6.4278 H   0  0  0  0  0  0  0  0  0  0  0  0
   -1.9458    0.3821    4.2286 H   0  0  0  0  0  0  0  0  0  0  0  0
   -1.1166    1.4247    5.3090 H   0  0  0  0  0  0  0  0  0  0  0  0
   -0.4416    3.3310    3.7821 H   0  0  0  0  0  0  0  0  0  0  0  0
   -0.2175    2.9225    2.1020 H   0  0  0  0  0  0  0  0  0  0  0  0
   -2.5511    1.7874    2.1576 H   0  0  0  0  0  0  0  0  0  0  0  0
   -2.3177    4.8390    2.5037 H   0  0  0  0  0  0  0  0  0  0  0  0
   -3.7466    3.9127    1.8020 H   0  0  0  0  0  0  0  0  0  0  0  0
   -4.0878    2.7281    3.9324 H   0  0  0  0  0  0  0  0  0  0  0  0
   -2.6814    3.6314    4.6967 H   0  0  0  0  0  0  0  0  0  0  0  0
    1.7041    1.8752    2.5272 H   0  0  0  0  0  0  0  0  0  0  0  0
    1.2664    2.4712    4.9431 H   0  0  0  0  0  0  0  0  0  0  0  0
    3.8842    2.2988    3.8338 H   0  0  0  0  0  0  0  0  0  0  0  0
    2.4647    4.4287    5.3195 H   0  0  0  0  0  0  0  0  0  0  0  0
    2.4183    4.1579    3.5772 H   0  0  0  0  0  0  0  0  0  0  0  0
    3.9289    4.5614    4.3624 H   0  0  0  0  0  0  0  0  0  0  0  0
    5.1481    2.9691    5.6809 H   0  0  0  0  0  0  0  0  0  0  0  0
    3.8346    2.8626    6.7693 H   0  0  0  0  0  0  0  0  0  0  0  0
    0.7785    1.0889    6.2506 H   0  0  0  0  0  0  0  0  0  0  0  0
    2.8123    1.0913    7.4590 H   0  0  0  0  0  0  0  0  0  0  0  0
    1.7507   -0.2201    7.6182 H   0  0  0  0  0  0  0  0  0  0  0  0
    3.6201   -1.3713    7.2144 H   0  0  0  0  0  0  0  0  0  0  0  0
    1.8230   -2.2923    6.3423 H   0  0  0  0  0  0  0  0  0  0  0  0
    3.7611   -3.2366    5.2434 H   0  0  0  0  0  0  0  0  0  0  0  0
    2.2403   -3.6254    4.5948 H   0  0  0  0  0  0  0  0  0  0  0  0
    2.7150   -4.4403    2.5192 H   0  0  0  0  0  0  0  0  0  0  0  0
    3.4115   -3.4779    1.2392 H   0  0  0  0  0  0  0  0  0  0  0  0
    1.8232   -3.1120    1.7936 H   0  0  0  0  0  0  0  0  0  0  0  0
    5.0079   -4.0322    3.0723 H   0  0  0  0  0  0  0  0  0  0  0  0
    5.5175   -2.6986    4.0161 H   0  0  0  0  0  0  0  0  0  0  0  0
    5.4653   -2.5590    2.2527 H   0  0  0  0  0  0  0  0  0  0  0  0
   -0.4508    0.6855    2.5871 H   0  0  0  0  0  0  0  0  0  0  0  0
  1  2  1  0
  1 31  1  0
  1 32  1  0
  1 33  1  0
  3  2  1  1
  3 22  1  0
  3 25  1  0
  3  4  1  0
  4  5  1  0
  4 34  1  0
  4 35  1  0
  5  6  1  0
  5 36  1  0
  5 37  1  0
  6 28  1  0
  6  7  1  0
  6 38  1  6
  7 17  1  0
  7  8  1  0
  7 39  1  6
  8  9  1  0
  8 40  1  0
  8 41  1  0
  9 23  1  0
  9 26  1  0
  9 10  1  1
 10 11  1  0
 10 42  1  0
 10 43  1  0
 11 12  1  0
 11 44  1  0
 11 45  1  0
 12 13  1  0
 12 17  1  0
 12 74  1  6
 13 14  1  0
 13 46  1  0
 13 47  1  0
 14 16  1  0
 14 15  1  0
 14 48  1  0
 15 16  1  0
 15 49  1  0
 15 50  1  0
 16 51  1  0
 16 52  1  0
 17 18  1  0
 17 53  1  6
 18 19  1  0
 18 23  1  0
 18 54  1  1
 19 20  1  0
 19 21  1  0
 19 55  1  6
 20 56  1  0
 20 57  1  0
 20 58  1  0
 21 22  1  0
 21 59  1  0
 21 60  1  0
 23 24  1  0
 23 61  1  1
 24 25  1  0
 24 62  1  0
 24 63  1  0
 25 26  1  0
 25 64  1  1
 26 27  1  0
 26 65  1  1
 27 28  1  0
 27 66  1  0
 27 67  1  0
 28 29  1  0
 28 30  1  0
 29 68  1  0
 29 69  1  0
 29 70  1  0
 30 71  1  0
 30 72  1  0
 30 73  1  0
M  CHG  1  12   1
M  END
>  <i_m_ct_stereo_status>  (14) 
1

>  <s_m_source_file>  (14) 
/var/tmp/pbs.5076255.sched01/tmp5ffkvrn0/0o5bi62ha.sdf

>  <i_m_source_file_index>  (14) 
10

>  <i_lp_mmshare_version>  (14) 
48012

>  <i_f3d_flags>  (14) 
0

>  <s_epik_input>  (14) 
W0NIM11DMShbQ0gzXSlbQ0gyXVtDQEhdMltDQEhdKFtDSDJdMylbQ0BdKE9bQ0gzXSkoT1tDSDJdW0NAQEhdNFtDSDNdKVtDSDJdW0NIMl1bQ0BASF0xW0NAQEhdKFtDSDJdNSlbQ0BIXShbQ0BIXTRbQ0BIXTNbQ0BdMjU2KU4oW0NIMl1bQ0gyXTYpW0NIMl1bQ0hdN1tDSDJdW0NIMl03

>  <s_epik_cmdline>  (14) 
J2VwaWtfcHl0aG9uJywgJy1waHQnLCAnMi4wJywgJy1waCcsICc3LjAnLCAnLXRuJywgJzgnLCAnLW1hJywgJzIwMCcsICctaW1hZScsICc8aW5maWxlLm1hZT4nLCAnLW9tYWUnLCAnPG91dGZpbGUubWFlPic=

>  <r_lp_tautomer_probability>  (14) 
1

>  <r_epik_Ionization_Penalty>  (14) 
0.000222532

>  <r_epik_Ionization_Penalty_Charging>  (14) 
0.000222532

>  <r_epik_Ionization_Penalty_Neutral>  (14) 
5.24944e-12

>  <r_epik_State_Penalty>  (14) 
-0

>  <r_epik_Charging_Adjusted_Penalty>  (14) 
0.000222532

>  <i_epik_Tot_Q>  (14) 
1

>  <i_epik_Tot_abs_Q>  (14) 
1

>  <s_lp_Force_Field>  (14) 
OPLS3e

>  <r_lp_Energy>  (14) 
230.402

>  <b_lp_Chiralities_Consistent>  (14) 
1

>  <s_lp_Variant>  (14) 
6:0-1

>  <s_i_glide_gridfile>  (14) 
pfpi4k_grid

>  <i_i_glide_lignum>  (14) 
10

>  <i_i_glide_rotatable_bonds>  (14) 
3

>  <r_i_docking_score>  (14) 
-1.98805

>  <r_i_glide_ligand_efficiency>  (14) 
-0.0662682

>  <r_i_glide_ligand_efficiency_sa>  (14) 
-0.205911

>  <r_i_glide_ligand_efficiency_ln>  (14) 
-0.451706

>  <r_i_glide_gscore>  (14) 
-1.98805

>  <r_i_glide_lipo>  (14) 
-0.257511

>  <r_i_glide_hbond>  (14) 
0

>  <r_i_glide_metal>  (14) 
-0

>  <r_i_glide_rewards>  (14) 
-0.60009

>  <r_i_glide_evdw>  (14) 
-16.1321

>  <r_i_glide_ecoul>  (14) 
-3.48553

>  <r_i_glide_erotb>  (14) 
0.229622

>  <r_i_glide_esite>  (14) 
-0.0306311

>  <r_i_glide_emodel>  (14) 
-22.8904

>  <r_i_glide_energy>  (14) 
-19.6177

>  <r_i_glide_einternal>  (14) 
0.0856228

>  <r_i_glide_intrahb_reward>  (14) 
-0

>  <i_i_glide_confnum>  (14) 
1

>  <i_i_glide_posenum>  (14) 
4

>  <r_i_glide_eff_state_penalty>  (14) 
0

>  <ligand_id>  (14) 
6

>  <original_smiles>  (14) 
COC12CCC3C4CC56CCN(CC7CC7)C4C(C(C)CO1)C5CC2C6CC3(C)C

>  <smiles>  (14) 
[H]C([H])([H])OC12OC([H])([H])C([H])(C([H])([H])[H])C3([H])C4([H])C([H])([H])C1([H])C1([H])C([H])([H])C(C([H])([H])[H])(C([H])([H])[H])C([H])(C([H])([H])C2([H])[H])C2([H])C([H])([H])C14C([H])([H])C([H])([H])[N+]([H])(C([H])([H])C1([H])C([H])([H])C1([H])[H])C23[H]

$$$$
6:0:2
     RDKit          3D

 74 80  0  0  1  0  0  0  0  0999 V2000
    2.7108    3.5432    9.1566 C   0  0  0  0  0  0  0  0  0  0  0  0
    1.9975    3.3035    7.9446 O   0  0  0  0  0  0  0  0  0  0  0  0
    2.5770    2.4783    6.9658 C   0  0  2  0  0  0  0  0  0  0  0  0
    2.4328    1.0348    7.6201 C   0  0  0  0  0  0  0  0  0  0  0  0
    2.0281   -0.2768    6.9064 C   0  0  0  0  0  0  0  0  0  0  0  0
    0.9114   -0.3409    5.8889 C   0  0  2  0  0  0  0  0  0  0  0  0
    1.3669   -0.5434    4.3776 C   0  0  1  0  0  0  0  0  0  0  0  0
    0.5750    0.3837    3.5583 C   0  0  0  0  0  0  0  0  0  0  0  0
    1.3163    1.7415    3.5866 C   0  0  2  0  0  0  0  0  0  0  0  0
    1.2979    1.9313    2.0659 C   0  0  0  0  0  0  0  0  0  0  0  0
    2.2918    0.8313    1.4219 C   0  0  0  0  0  0  0  0  0  0  0  0
    2.7138   -0.4355    2.2014 N   0  0  1  0  0  0  0  0  0  0  0  0
    3.8581   -1.1342    1.5564 C   0  0  0  0  0  0  0  0  0  0  0  0
    3.5627   -1.6055    0.1402 C   0  0  0  0  0  0  0  0  0  0  0  0
    3.0515   -3.0065   -0.1079 C   0  0  0  0  0  0  0  0  0  0  0  0
    4.4495   -2.6300   -0.5333 C   0  0  0  0  0  0  0  0  0  0  0  0
    2.8350   -0.4160    3.7333 C   0  0  1  0  0  0  0  0  0  0  0  0
    3.7007    0.8208    4.1366 C   0  0  2  0  0  0  0  0  0  0  0  0
    4.6788    0.7484    5.3737 C   0  0  1  0  0  0  0  0  0  0  0  0
    6.0365    0.1644    4.9242 C   0  0  0  0  0  0  0  0  0  0  0  0
    4.9692    2.0000    6.2529 C   0  0  0  0  0  0  0  0  0  0  0  0
    3.9530    2.7789    6.9231 O   0  0  0  0  0  0  0  0  0  0  0  0
    2.8522    2.0456    3.8088 C   0  0  2  0  0  0  0  0  0  0  0  0
    2.9250    3.3437    4.5687 C   0  0  0  0  0  0  0  0  0  0  0  0
    1.9027    3.1175    5.6453 C   0  0  1  0  0  0  0  0  0  0  0  0
    0.7114    2.5210    4.8184 C   0  0  2  0  0  0  0  0  0  0  0  0
   -0.4685    1.9454    5.6667 C   0  0  0  0  0  0  0  0  0  0  0  0
   -0.4116    0.4825    6.2503 C   0  0  0  0  0  0  0  0  0  0  0  0
   -1.6521   -0.3518    5.7920 C   0  0  0  0  0  0  0  0  0  0  0  0
   -0.6856    0.6140    7.7764 C   0  0  0  0  0  0  0  0  0  0  0  0
    2.0657    4.1054    9.8321 H   0  0  0  0  0  0  0  0  0  0  0  0
    3.6058    4.1414    8.9850 H   0  0  0  0  0  0  0  0  0  0  0  0
    2.9991    2.6287    9.6752 H   0  0  0  0  0  0  0  0  0  0  0  0
    3.3908    0.8234    8.0960 H   0  0  0  0  0  0  0  0  0  0  0  0
    1.8088    1.1206    8.5024 H   0  0  0  0  0  0  0  0  0  0  0  0
    2.8168   -0.9468    6.6016 H   0  0  0  0  0  0  0  0  0  0  0  0
    1.6771   -0.8742    7.7504 H   0  0  0  0  0  0  0  0  0  0  0  0
    0.5669   -1.3558    6.1008 H   0  0  0  0  0  0  0  0  0  0  0  0
    1.0268   -1.5451    4.1128 H   0  0  0  0  0  0  0  0  0  0  0  0
    0.3861   -0.1064    2.6025 H   0  0  0  0  0  0  0  0  0  0  0  0
   -0.4769    0.5078    3.7494 H   0  0  0  0  0  0  0  0  0  0  0  0
    0.2901    1.8320    1.6537 H   0  0  0  0  0  0  0  0  0  0  0  0
    1.6070    2.9365    1.7706 H   0  0  0  0  0  0  0  0  0  0  0  0
    1.8109    0.5251    0.4958 H   0  0  0  0  0  0  0  0  0  0  0  0
    3.1978    1.3404    1.1013 H   0  0  0  0  0  0  0  0  0  0  0  0
    4.7383   -0.4901    1.5290 H   0  0  0  0  0  0  0  0  0  0  0  0
    4.1421   -2.0130    2.1392 H   0  0  0  0  0  0  0  0  0  0  0  0
    3.2181   -0.8291   -0.5413 H   0  0  0  0  0  0  0  0  0  0  0  0
    2.9449   -3.6661    0.7514 H   0  0  0  0  0  0  0  0  0  0  0  0
    2.3045   -3.1268   -0.8884 H   0  0  0  0  0  0  0  0  0  0  0  0
    4.6187   -2.5228   -1.6026 H   0  0  0  0  0  0  0  0  0  0  0  0
    5.2830   -3.0407    0.0340 H   0  0  0  0  0  0  0  0  0  0  0  0
    3.3766   -1.3021    4.0651 H   0  0  0  0  0  0  0  0  0  0  0  0
    4.4456    0.8717    3.3439 H   0  0  0  0  0  0  0  0  0  0  0  0
    4.3894   -0.0116    6.0624 H   0  0  0  0  0  0  0  0  0  0  0  0
    6.5823    0.8399    4.2636 H   0  0  0  0  0  0  0  0  0  0  0  0
    5.8828   -0.7737    4.3911 H   0  0  0  0  0  0  0  0  0  0  0  0
    6.6865   -0.0470    5.7765 H   0  0  0  0  0  0  0  0  0  0  0  0
    5.6232    1.6754    7.0665 H   0  0  0  0  0  0  0  0  0  0  0  0
    5.5927    2.6933    5.6862 H   0  0  0  0  0  0  0  0  0  0  0  0
    3.3491    2.4446    2.9246 H   0  0  0  0  0  0  0  0  0  0  0  0
    3.9100    3.7250    4.8219 H   0  0  0  0  0  0  0  0  0  0  0  0
    2.5355    4.1298    3.9139 H   0  0  0  0  0  0  0  0  0  0  0  0
    1.5891    4.1212    5.9372 H   0  0  0  0  0  0  0  0  0  0  0  0
    0.2589    3.3928    4.3414 H   0  0  0  0  0  0  0  0  0  0  0  0
   -0.6436    2.6635    6.4687 H   0  0  0  0  0  0  0  0  0  0  0  0
   -1.3714    2.0431    5.0620 H   0  0  0  0  0  0  0  0  0  0  0  0
   -2.5672    0.2418    5.8124 H   0  0  0  0  0  0  0  0  0  0  0  0
   -1.8012   -1.2099    6.4430 H   0  0  0  0  0  0  0  0  0  0  0  0
   -1.5819   -0.7967    4.8037 H   0  0  0  0  0  0  0  0  0  0  0  0
   -1.7309    0.8575    7.9700 H   0  0  0  0  0  0  0  0  0  0  0  0
   -0.1612    1.4439    8.2391 H   0  0  0  0  0  0  0  0  0  0  0  0
   -0.4451   -0.2947    8.3268 H   0  0  0  0  0  0  0  0  0  0  0  0
    1.9424   -1.0646    2.0414 H   0  0  0  0  0  0  0  0  0  0  0  0
  1  2  1  0
  1 31  1  0
  1 32  1  0
  1 33  1  0
  3  2  1  1
  3 22  1  0
  3 25  1  0
  3  4  1  0
  4  5  1  0
  4 34  1  0
  4 35  1  0
  5  6  1  0
  5 36  1  0
  5 37  1  0
  6 28  1  0
  6  7  1  0
  6 38  1  1
  7 17  1  0
  7  8  1  0
  7 39  1  6
  8  9  1  0
  8 40  1  0
  8 41  1  0
  9 23  1  0
  9 26  1  0
  9 10  1  6
 10 11  1  0
 10 42  1  0
 10 43  1  0
 11 12  1  0
 11 44  1  0
 11 45  1  0
 12 13  1  0
 12 17  1  0
 12 74  1  1
 13 14  1  0
 13 46  1  0
 13 47  1  0
 14 16  1  0
 14 15  1  0
 14 48  1  0
 15 16  1  0
 15 49  1  0
 15 50  1  0
 16 51  1  0
 16 52  1  0
 17 18  1  0
 17 53  1  1
 18 19  1  0
 18 23  1  0
 18 54  1  6
 19 20  1  0
 19 21  1  0
 19 55  1  1
 20 56  1  0
 20 57  1  0
 20 58  1  0
 21 22  1  0
 21 59  1  0
 21 60  1  0
 23 24  1  0
 23 61  1  6
 24 25  1  0
 24 62  1  0
 24 63  1  0
 25 26  1  0
 25 64  1  1
 26 27  1  0
 26 65  1  6
 27 28  1  0
 27 66  1  0
 27 67  1  0
 28 29  1  0
 28 30  1  0
 29 68  1  0
 29 69  1  0
 29 70  1  0
 30 71  1  0
 30 72  1  0
 30 73  1  0
M  CHG  1  12   1
M  END
>  <i_m_ct_stereo_status>  (15) 
1

>  <s_m_source_file>  (15) 
/var/tmp/pbs.5076255.sched01/tmp5ffkvrn0/0o5bi62ha.sdf

>  <i_m_source_file_index>  (15) 
10

>  <i_lp_mmshare_version>  (15) 
48012

>  <i_f3d_flags>  (15) 
0

>  <s_epik_input>  (15) 
W0NIM11DMShbQ0gzXSlbQ0gyXVtDQEhdMltDQEhdKFtDSDJdMylbQ0BdKE9bQ0gzXSkoT1tDSDJdW0NAQEhdNFtDSDNdKVtDSDJdW0NIMl1bQ0BASF0xW0NAQEhdKFtDSDJdNSlbQ0BIXShbQ0BIXTRbQ0BIXTNbQ0BdMjU2KU4oW0NIMl1bQ0gyXTYpW0NIMl1bQ0hdN1tDSDJdW0NIMl03

>  <s_epik_cmdline>  (15) 
J2VwaWtfcHl0aG9uJywgJy1waHQnLCAnMi4wJywgJy1waCcsICc3LjAnLCAnLXRuJywgJzgnLCAnLW1hJywgJzIwMCcsICctaW1hZScsICc8aW5maWxlLm1hZT4nLCAnLW9tYWUnLCAnPG91dGZpbGUubWFlPic=

>  <r_lp_tautomer_probability>  (15) 
1

>  <r_epik_Ionization_Penalty>  (15) 
0.000222532

>  <r_epik_Ionization_Penalty_Charging>  (15) 
0.000222532

>  <r_epik_Ionization_Penalty_Neutral>  (15) 
5.24944e-12

>  <r_epik_State_Penalty>  (15) 
-0

>  <r_epik_Charging_Adjusted_Penalty>  (15) 
0.000222532

>  <i_epik_Tot_Q>  (15) 
1

>  <i_epik_Tot_abs_Q>  (15) 
1

>  <s_lp_Force_Field>  (15) 
OPLS3e

>  <r_lp_Energy>  (15) 
230.402

>  <b_lp_Chiralities_Consistent>  (15) 
1

>  <s_lp_Variant>  (15) 
6:0-1

>  <s_i_glide_gridfile>  (15) 
pfpi4k_grid

>  <i_i_glide_lignum>  (15) 
10

>  <i_i_glide_rotatable_bonds>  (15) 
3

>  <r_i_docking_score>  (15) 
-1.7489

>  <r_i_glide_ligand_efficiency>  (15) 
-0.0582966

>  <r_i_glide_ligand_efficiency_sa>  (15) 
-0.181141

>  <r_i_glide_ligand_efficiency_ln>  (15) 
-0.397369

>  <r_i_glide_gscore>  (15) 
-1.7489

>  <r_i_glide_lipo>  (15) 
-0.13219

>  <r_i_glide_hbond>  (15) 
0

>  <r_i_glide_metal>  (15) 
-0

>  <r_i_glide_rewards>  (15) 
-0.581974

>  <r_i_glide_evdw>  (15) 
-16.4256

>  <r_i_glide_ecoul>  (15) 
-2.80196

>  <r_i_glide_erotb>  (15) 
0.229622

>  <r_i_glide_esite>  (15) 
-0.0227834

>  <r_i_glide_emodel>  (15) 
-22.0172

>  <r_i_glide_energy>  (15) 
-19.2276

>  <r_i_glide_einternal>  (15) 
0.236999

>  <r_i_glide_intrahb_reward>  (15) 
-0

>  <i_i_glide_confnum>  (15) 
1

>  <i_i_glide_posenum>  (15) 
23

>  <r_i_glide_eff_state_penalty>  (15) 
0

>  <ligand_id>  (15) 
6

>  <original_smiles>  (15) 
COC12CCC3C4CC56CCN(CC7CC7)C4C(C(C)CO1)C5CC2C6CC3(C)C

>  <smiles>  (15) 
[H]C([H])([H])OC12OC([H])([H])C([H])(C([H])([H])[H])C3([H])C4([H])C([H])([H])C1([H])C1([H])C([H])([H])C(C([H])([H])[H])(C([H])([H])[H])C([H])(C([H])([H])C2([H])[H])C2([H])C([H])([H])C14C([H])([H])C([H])([H])[N+]([H])(C([H])([H])C1([H])C([H])([H])C1([H])[H])C23[H]

$$$$
7:0:0
     RDKit          3D

 85 91  0  0  1  0  0  0  0  0999 V2000
    3.4640   -6.0229    6.7393 C   0  0  0  0  0  0  0  0  0  0  0  0
    3.7339   -6.5789    5.3208 C   0  0  2  0  0  0  0  0  0  0  0  0
    4.7927   -5.6518    4.6702 C   0  0  0  0  0  0  0  0  0  0  0  0
    5.6547   -6.2892    3.5517 C   0  0  0  0  0  0  0  0  0  0  0  0
    4.8734   -6.4965    2.2229 C   0  0  1  0  0  0  0  0  0  0  0  0
    5.5476   -5.8711    1.1065 O   0  0  0  0  0  0  0  0  0  0  0  0
    5.2457   -4.5580    0.6692 C   0  0  1  0  0  0  0  0  0  0  0  0
    3.7690   -4.4389    0.1980 C   0  0  0  0  0  0  0  0  0  0  0  0
    3.4699   -2.9625   -0.0640 C   0  0  2  0  0  0  0  0  0  0  0  0
    4.2554   -2.5981   -1.2140 O   0  0  0  0  0  0  0  0  0  0  0  0
    5.5515   -1.9388   -0.8038 O   0  0  0  0  0  0  0  0  0  0  0  0
    6.4965   -2.9287   -0.4571 C   0  0  1  0  0  0  0  0  0  0  0  0
    7.7826   -2.8731   -1.2898 C   0  0  0  0  0  0  0  0  0  0  0  0
    6.7247   -2.6611    0.9881 C   0  0  0  0  0  0  0  0  0  0  0  0
    5.7006   -3.4988    1.7263 C   0  0  1  0  0  0  0  0  0  0  0  0
    4.4831   -2.7598    2.3116 C   0  0  1  0  0  0  0  0  0  0  0  0
    4.8610   -1.8695    3.5143 C   0  0  0  0  0  0  0  0  0  0  0  0
    3.5679   -2.1130    1.2525 C   0  0  1  0  0  0  0  0  0  0  0  0
    3.7497   -0.6046    1.0658 C   0  0  0  0  0  0  0  0  0  0  0  0
    5.9838   -4.2584   -0.4813 O   0  0  0  0  0  0  0  0  0  0  0  0
    4.6255   -8.0106    1.9402 C   0  0  1  0  0  0  0  0  0  0  0  0
    5.9714   -8.7067    1.6125 C   0  0  0  0  0  0  0  0  0  0  0  0
    3.8335   -8.7288    3.1000 C   0  0  2  0  0  0  0  0  0  0  0  0
    3.7615  -10.2693    2.9179 C   0  0  0  0  0  0  0  0  0  0  0  0
    3.1885  -11.0119    4.1484 C   0  0  0  0  0  0  0  0  0  0  0  0
    1.9538  -10.3314    4.7744 C   0  0  1  0  0  0  0  0  0  0  0  0
    2.2053   -9.8396    6.2145 C   0  0  0  0  0  0  0  0  0  0  0  0
    1.4094   -9.2673    3.8072 C   0  0  1  0  0  0  0  0  0  0  0  0
    0.1153   -8.8445    4.1632 O   0  0  0  0  0  0  0  0  0  0  0  0
   -0.3037   -7.7109    3.4216 C   0  0  1  0  0  0  0  0  0  0  0  0
   -1.7733   -7.9221    3.0306 C   0  0  0  0  0  0  0  0  0  0  0  0
   -0.1428   -6.4971    4.3325 C   0  0  0  0  0  0  0  0  0  0  0  0
    1.1179   -6.5612    5.1961 C   0  0  0  0  0  0  0  0  0  0  0  0
    2.4435   -6.8202    4.4256 C   0  0  2  0  0  0  0  0  0  0  0  0
    2.4120   -8.1067    3.4626 C   0  0  1  0  0  0  0  0  0  0  0  0
    1.8952   -7.5932    2.2304 O   0  0  0  0  0  0  0  0  0  0  0  0
    0.3575   -7.5553    2.1578 O   0  0  0  0  0  0  0  0  0  0  0  0
    3.0536   -5.0076    6.7219 H   0  0  0  0  0  0  0  0  0  0  0  0
    4.3988   -5.9715    7.3032 H   0  0  0  0  0  0  0  0  0  0  0  0
    2.7949   -6.6701    7.3152 H   0  0  0  0  0  0  0  0  0  0  0  0
    4.2206   -7.5174    5.5517 H   0  0  0  0  0  0  0  0  0  0  0  0
    4.2793   -4.7387    4.3690 H   0  0  0  0  0  0  0  0  0  0  0  0
    5.4952   -5.3260    5.4352 H   0  0  0  0  0  0  0  0  0  0  0  0
    6.5345   -5.6705    3.3644 H   0  0  0  0  0  0  0  0  0  0  0  0
    6.0653   -7.2465    3.9228 H   0  0  0  0  0  0  0  0  0  0  0  0
    3.8903   -6.0539    2.2938 H   0  0  0  0  0  0  0  0  0  0  0  0
    3.6631   -5.0196   -0.7148 H   0  0  0  0  0  0  0  0  0  0  0  0
    3.0440   -4.8107    0.9131 H   0  0  0  0  0  0  0  0  0  0  0  0
    2.4261   -2.9055   -0.3795 H   0  0  0  0  0  0  0  0  0  0  0  0
    7.6198   -3.1407   -2.3364 H   0  0  0  0  0  0  0  0  0  0  0  0
    8.5392   -3.5595   -0.8942 H   0  0  0  0  0  0  0  0  0  0  0  0
    8.2265   -1.8772   -1.2302 H   0  0  0  0  0  0  0  0  0  0  0  0
    7.7012   -3.0500    1.2208 H   0  0  0  0  0  0  0  0  0  0  0  0
    6.7176   -1.5953    1.2190 H   0  0  0  0  0  0  0  0  0  0  0  0
    6.2550   -3.9373    2.5462 H   0  0  0  0  0  0  0  0  0  0  0  0
    3.8509   -3.5419    2.7134 H   0  0  0  0  0  0  0  0  0  0  0  0
    5.5115   -1.0362    3.2343 H   0  0  0  0  0  0  0  0  0  0  0  0
    5.4023   -2.4422    4.2727 H   0  0  0  0  0  0  0  0  0  0  0  0
    3.9816   -1.4562    4.0085 H   0  0  0  0  0  0  0  0  0  0  0  0
    2.5800   -2.1894    1.6975 H   0  0  0  0  0  0  0  0  0  0  0  0
    4.7690   -0.3618    0.7652 H   0  0  0  0  0  0  0  0  0  0  0  0
    3.5525   -0.0559    1.9933 H   0  0  0  0  0  0  0  0  0  0  0  0
    3.0537   -0.2401    0.3061 H   0  0  0  0  0  0  0  0  0  0  0  0
    4.0230   -8.0878    1.0348 H   0  0  0  0  0  0  0  0  0  0  0  0
    6.5962   -8.8422    2.4961 H   0  0  0  0  0  0  0  0  0  0  0  0
    6.5523   -8.1274    0.8985 H   0  0  0  0  0  0  0  0  0  0  0  0
    5.8292   -9.6865    1.1530 H   0  0  0  0  0  0  0  0  0  0  0  0
    4.4710   -8.6798    3.9698 H   0  0  0  0  0  0  0  0  0  0  0  0
    3.1711  -10.5083    2.0357 H   0  0  0  0  0  0  0  0  0  0  0  0
    4.7520  -10.6862    2.7521 H   0  0  0  0  0  0  0  0  0  0  0  0
    2.9217  -12.0280    3.8442 H   0  0  0  0  0  0  0  0  0  0  0  0
    3.9676  -11.1164    4.9010 H   0  0  0  0  0  0  0  0  0  0  0  0
    1.1857  -11.1002    4.8676 H   0  0  0  0  0  0  0  0  0  0  0  0
    2.9562   -9.0591    6.2680 H   0  0  0  0  0  0  0  0  0  0  0  0
    2.5479  -10.6539    6.8504 H   0  0  0  0  0  0  0  0  0  0  0  0
    1.2848   -9.4575    6.6588 H   0  0  0  0  0  0  0  0  0  0  0  0
    1.2179   -9.8034    2.8708 H   0  0  0  0  0  0  0  0  0  0  0  0
   -1.8837   -8.7745    2.3594 H   0  0  0  0  0  0  0  0  0  0  0  0
   -2.1679   -7.0518    2.5042 H   0  0  0  0  0  0  0  0  0  0  0  0
   -2.4099   -8.1066    3.8969 H   0  0  0  0  0  0  0  0  0  0  0  0
   -0.1679   -5.5801    3.7447 H   0  0  0  0  0  0  0  0  0  0  0  0
   -0.9976   -6.4446    5.0129 H   0  0  0  0  0  0  0  0  0  0  0  0
    1.1557   -5.6023    5.7117 H   0  0  0  0  0  0  0  0  0  0  0  0
    0.9871   -7.3144    5.9731 H   0  0  0  0  0  0  0  0  0  0  0  0
    2.4149   -5.9619    3.7537 H   0  0  0  0  0  0  0  0  0  0  0  0
  1  2  1  0
  1 38  1  0
  1 39  1  0
  1 40  1  0
  2 34  1  0
  2  3  1  0
  2 41  1  1
  3  4  1  0
  3 42  1  0
  3 43  1  0
  4  5  1  0
  4 44  1  0
  4 45  1  0
  5  6  1  0
  5 21  1  0
  5 46  1  1
  7  6  1  1
  7 15  1  0
  7 20  1  0
  7  8  1  0
  8  9  1  0
  8 47  1  0
  8 48  1  0
  9 18  1  0
  9 10  1  0
  9 49  1  6
 10 11  1  0
 11 12  1  0
 12 13  1  6
 12 14  1  0
 12 20  1  0
 13 50  1  0
 13 51  1  0
 13 52  1  0
 14 15  1  0
 14 53  1  0
 14 54  1  0
 15 16  1  0
 15 55  1  1
 16 17  1  0
 16 18  1  0
 16 56  1  1
 17 57  1  0
 17 58  1  0
 17 59  1  0
 18 19  1  0
 18 60  1  1
 19 61  1  0
 19 62  1  0
 19 63  1  0
 21 22  1  0
 21 23  1  0
 21 64  1  6
 22 65  1  0
 22 66  1  0
 22 67  1  0
 23 35  1  0
 23 24  1  0
 23 68  1  1
 24 25  1  0
 24 69  1  0
 24 70  1  0
 25 26  1  0
 25 71  1  0
 25 72  1  0
 26 27  1  0
 26 28  1  0
 26 73  1  1
 27 74  1  0
 27 75  1  0
 27 76  1  0
 28 35  1  0
 28 29  1  0
 28 77  1  6
 29 30  1  0
 30 37  1  0
 30 31  1  6
 30 32  1  0
 31 78  1  0
 31 79  1  0
 31 80  1  0
 32 33  1  0
 32 81  1  0
 32 82  1  0
 33 34  1  0
 33 83  1  0
 33 84  1  0
 34 35  1  0
 34 85  1  6
 35 36  1  6
 36 37  1  0
M  END
>  <i_m_ct_stereo_status>  (16) 
1

>  <s_m_source_file>  (16) 
/var/tmp/pbs.5076255.sched01/tmp5ffkvrn0/0o5bi62ha.sdf

>  <i_m_source_file_index>  (16) 
11

>  <i_lp_mmshare_version>  (16) 
48012

>  <i_f3d_flags>  (16) 
0

>  <s_epik_input>  (16) 
W0NIMl0xW0NIMl1bQ0BASF0oW0NIM10pW0NASF0yT1tDQF0oW0NIM10pKE9PMylbQ0gyXVtDSDJdW0NASF00W0NASF0oW0NIM10pW0NIMl1bQ0gyXVtDQEhdKFtDQEBIXShbQ0gzXSlbQ0BIXTFbQ0BdMjM0KU9bQ0BdNTZbQ0BIXTdbQ0gyXVtDQF0oTzYpKFtDSDNdKU9PW0NAQEhdKFtDSDJdNSlbQ0BIXShbQ0gzXSlbQ0BASF03W0NIM10=

>  <s_epik_cmdline>  (16) 
J2VwaWtfcHl0aG9uJywgJy1waHQnLCAnMi4wJywgJy1waCcsICc3LjAnLCAnLXRuJywgJzgnLCAnLW1hJywgJzIwMCcsICctaW1hZScsICc8aW5maWxlLm1hZT4nLCAnLW9tYWUnLCAnPG91dGZpbGUubWFlPic=

>  <r_lp_tautomer_probability>  (16) 
1

>  <r_epik_Ionization_Penalty>  (16) 
1.9168e-13

>  <r_epik_Ionization_Penalty_Charging>  (16) 
0

>  <r_epik_Ionization_Penalty_Neutral>  (16) 
1.9168e-13

>  <r_epik_State_Penalty>  (16) 
-0

>  <r_epik_Charging_Adjusted_Penalty>  (16) 
0

>  <i_epik_Tot_Q>  (16) 
0

>  <i_epik_Tot_abs_Q>  (16) 
0

>  <s_lp_Force_Field>  (16) 
OPLS3e

>  <r_lp_Energy>  (16) 
86.2461

>  <b_lp_Chiralities_Consistent>  (16) 
1

>  <s_lp_Variant>  (16) 
7:0-1

>  <s_i_glide_gridfile>  (16) 
pfpi4k_grid

>  <i_i_glide_lignum>  (16) 
11

>  <i_i_glide_rotatable_bonds>  (16) 
2

>  <r_i_docking_score>  (16) 
-2.18695

>  <r_i_glide_ligand_efficiency>  (16) 
-0.0591068

>  <r_i_glide_ligand_efficiency_sa>  (16) 
-0.196957

>  <r_i_glide_ligand_efficiency_ln>  (16) 
-0.474298

>  <r_i_glide_gscore>  (16) 
-2.18695

>  <r_i_glide_lipo>  (16) 
-0.308377

>  <r_i_glide_hbond>  (16) 
0

>  <r_i_glide_metal>  (16) 
-0

>  <r_i_glide_rewards>  (16) 
-0.127041

>  <r_i_glide_evdw>  (16) 
-37.2232

>  <r_i_glide_ecoul>  (16) 
0.0446197

>  <r_i_glide_erotb>  (16) 
0.151611

>  <r_i_glide_esite>  (16) 
-0.0486784

>  <r_i_glide_emodel>  (16) 
-38.8884

>  <r_i_glide_energy>  (16) 
-37.1786

>  <r_i_glide_einternal>  (16) 
2.37328

>  <r_i_glide_intrahb_reward>  (16) 
-0

>  <i_i_glide_confnum>  (16) 
3

>  <i_i_glide_posenum>  (16) 
1

>  <r_i_glide_eff_state_penalty>  (16) 
0

>  <ligand_id>  (16) 
7

>  <original_smiles>  (16) 
CC1CCC(OC23CC4OOC(C)(CC2C(C)C4C)O3)C(C)C2CCC(C)C3OC4(C)CCC1C23OO4

>  <smiles>  (16) 
[H]C([H])([H])C12OOC34C([H])(O1)C([H])(C([H])([H])[H])C([H])([H])C([H])([H])C3([H])C([H])(C([H])([H])[H])C([H])(OC13OC5(C([H])([H])[H])OOC([H])(C1([H])[H])C([H])(C([H])([H])[H])C([H])(C([H])([H])[H])C3([H])C5([H])[H])C([H])([H])C([H])([H])C([H])(C([H])([H])[H])C4([H])C([H])([H])C2([H])[H]

$$$$
7:0:1
     RDKit          3D

 85 91  0  0  1  0  0  0  0  0999 V2000
    2.0374   -8.8084    8.0762 C   0  0  0  0  0  0  0  0  0  0  0  0
    2.6571   -8.1167    6.8418 C   0  0  2  0  0  0  0  0  0  0  0  0
    3.3338   -6.7974    7.3092 C   0  0  0  0  0  0  0  0  0  0  0  0
    4.4684   -6.2078    6.4381 C   0  0  0  0  0  0  0  0  0  0  0  0
    4.0465   -5.6792    5.0420 C   0  0  1  0  0  0  0  0  0  0  0  0
    4.6301   -4.3750    4.8403 O   0  0  0  0  0  0  0  0  0  0  0  0
    3.8027   -3.3095    4.4427 C   0  0  1  0  0  0  0  0  0  0  0  0
    4.6433   -2.0174    4.5495 C   0  0  0  0  0  0  0  0  0  0  0  0
    3.8745   -0.8649    3.8880 C   0  0  2  0  0  0  0  0  0  0  0  0
    2.7213   -0.6531    4.7123 O   0  0  0  0  0  0  0  0  0  0  0  0
    1.5107   -1.4074    4.2072 O   0  0  0  0  0  0  0  0  0  0  0  0
    1.5750   -2.7642    4.5897 C   0  0  1  0  0  0  0  0  0  0  0  0
    0.3383   -3.1908    5.3932 C   0  0  0  0  0  0  0  0  0  0  0  0
    1.7024   -3.4821    3.2709 C   0  0  0  0  0  0  0  0  0  0  0  0
    3.1977   -3.5321    3.0275 C   0  0  1  0  0  0  0  0  0  0  0  0
    3.7814   -2.5911    1.9659 C   0  0  1  0  0  0  0  0  0  0  0  0
    3.3208   -2.9221    0.5360 C   0  0  0  0  0  0  0  0  0  0  0  0
    3.6873   -1.0909    2.3579 C   0  0  1  0  0  0  0  0  0  0  0  0
    2.5388   -0.3039    1.7039 C   0  0  0  0  0  0  0  0  0  0  0  0
    2.7320   -3.1334    5.3151 O   0  0  0  0  0  0  0  0  0  0  0  0
    4.4697   -6.6533    3.8999 C   0  0  1  0  0  0  0  0  0  0  0  0
    6.0098   -6.6382    3.7243 C   0  0  0  0  0  0  0  0  0  0  0  0
    3.8461   -8.0840    4.0154 C   0  0  2  0  0  0  0  0  0  0  0  0
    4.3615   -9.0006    2.8723 C   0  0  0  0  0  0  0  0  0  0  0  0
    3.9456  -10.4681    3.0562 C   0  0  0  0  0  0  0  0  0  0  0  0
    2.4721  -10.6645    3.4765 C   0  0  1  0  0  0  0  0  0  0  0  0
    2.3326  -11.3051    4.8702 C   0  0  0  0  0  0  0  0  0  0  0  0
    1.7071   -9.3405    3.2982 C   0  0  1  0  0  0  0  0  0  0  0  0
    0.3094   -9.5250    3.3355 O   0  0  0  0  0  0  0  0  0  0  0  0
   -0.3822   -8.2952    3.3945 C   0  0  1  0  0  0  0  0  0  0  0  0
   -1.6242   -8.4197    2.5010 C   0  0  0  0  0  0  0  0  0  0  0  0
   -0.7946   -8.0625    4.8455 C   0  0  0  0  0  0  0  0  0  0  0  0
    0.2720   -8.5092    5.8505 C   0  0  0  0  0  0  0  0  0  0  0  0
    1.6774   -7.9092    5.6146 C   0  0  2  0  0  0  0  0  0  0  0  0
    2.2521   -8.1346    4.1396 C   0  0  1  0  0  0  0  0  0  0  0  0
    1.7613   -7.0011    3.4094 O   0  0  0  0  0  0  0  0  0  0  0  0
    0.3348   -7.1847    2.8395 O   0  0  0  0  0  0  0  0  0  0  0  0
    1.2834   -8.1898    8.5631 H   0  0  0  0  0  0  0  0  0  0  0  0
    2.8042   -9.0210    8.8225 H   0  0  0  0  0  0  0  0  0  0  0  0
    1.5933   -9.7751    7.8273 H   0  0  0  0  0  0  0  0  0  0  0  0
    3.4310   -8.8329    6.6041 H   0  0  0  0  0  0  0  0  0  0  0  0
    2.5796   -6.0355    7.4966 H   0  0  0  0  0  0  0  0  0  0  0  0
    3.7806   -6.9888    8.2877 H   0  0  0  0  0  0  0  0  0  0  0  0
    4.9021   -5.3847    7.0080 H   0  0  0  0  0  0  0  0  0  0  0  0
    5.2762   -6.9369    6.3703 H   0  0  0  0  0  0  0  0  0  0  0  0
    2.9750   -5.5339    5.0441 H   0  0  0  0  0  0  0  0  0  0  0  0
    4.8205   -1.7868    5.6030 H   0  0  0  0  0  0  0  0  0  0  0  0
    5.6145   -2.1702    4.0700 H   0  0  0  0  0  0  0  0  0  0  0  0
    4.4634    0.0448    4.0089 H   0  0  0  0  0  0  0  0  0  0  0  0
    0.2942   -2.7259    6.3864 H   0  0  0  0  0  0  0  0  0  0  0  0
    0.3584   -4.2702    5.5548 H   0  0  0  0  0  0  0  0  0  0  0  0
   -0.5841   -2.9580    4.8561 H   0  0  0  0  0  0  0  0  0  0  0  0
    1.3206   -4.4923    3.3804 H   0  0  0  0  0  0  0  0  0  0  0  0
    1.1424   -2.9833    2.4814 H   0  0  0  0  0  0  0  0  0  0  0  0
    3.4034   -4.5200    2.6726 H   0  0  0  0  0  0  0  0  0  0  0  0
    4.8494   -2.8191    1.9637 H   0  0  0  0  0  0  0  0  0  0  0  0
    2.2497   -2.7705    0.4029 H   0  0  0  0  0  0  0  0  0  0  0  0
    3.5329   -3.9661    0.2849 H   0  0  0  0  0  0  0  0  0  0  0  0
    3.8348   -2.3097   -0.2040 H   0  0  0  0  0  0  0  0  0  0  0  0
    4.5752   -0.6524    1.9115 H   0  0  0  0  0  0  0  0  0  0  0  0
    1.5632   -0.7253    1.9261 H   0  0  0  0  0  0  0  0  0  0  0  0
    2.6200   -0.2978    0.6157 H   0  0  0  0  0  0  0  0  0  0  0  0
    2.5400    0.7400    2.0279 H   0  0  0  0  0  0  0  0  0  0  0  0
    4.0982   -6.3071    2.9482 H   0  0  0  0  0  0  0  0  0  0  0  0
    6.5364   -7.2289    4.4725 H   0  0  0  0  0  0  0  0  0  0  0  0
    6.4050   -5.6257    3.7785 H   0  0  0  0  0  0  0  0  0  0  0  0
    6.3025   -6.9983    2.7383 H   0  0  0  0  0  0  0  0  0  0  0  0
    4.3149   -8.5579    4.8672 H   0  0  0  0  0  0  0  0  0  0  0  0
    4.0157   -8.6219    1.9078 H   0  0  0  0  0  0  0  0  0  0  0  0
    5.4495   -8.9960    2.8261 H   0  0  0  0  0  0  0  0  0  0  0  0
    4.1130  -10.9845    2.1110 H   0  0  0  0  0  0  0  0  0  0  0  0
    4.6076  -10.9396    3.7823 H   0  0  0  0  0  0  0  0  0  0  0  0
    2.0355  -11.3822    2.7825 H   0  0  0  0  0  0  0  0  0  0  0  0
    2.7443  -10.6912    5.6650 H   0  0  0  0  0  0  0  0  0  0  0  0
    2.8469  -12.2651    4.9116 H   0  0  0  0  0  0  0  0  0  0  0  0
    1.2897  -11.5059    5.1063 H   0  0  0  0  0  0  0  0  0  0  0  0
    1.8518   -9.0799    2.2483 H   0  0  0  0  0  0  0  0  0  0  0  0
   -1.3328   -8.5536    1.4551 H   0  0  0  0  0  0  0  0  0  0  0  0
   -2.2499   -7.5219    2.5503 H   0  0  0  0  0  0  0  0  0  0  0  0
   -2.2504   -9.2724    2.7746 H   0  0  0  0  0  0  0  0  0  0  0  0
   -1.0758   -7.0185    5.0006 H   0  0  0  0  0  0  0  0  0  0  0  0
   -1.6927   -8.6502    5.0582 H   0  0  0  0  0  0  0  0  0  0  0  0
   -0.1126   -8.2189    6.8264 H   0  0  0  0  0  0  0  0  0  0  0  0
    0.3208   -9.5976    5.8690 H   0  0  0  0  0  0  0  0  0  0  0  0
    1.4377   -6.8497    5.6634 H   0  0  0  0  0  0  0  0  0  0  0  0
  1  2  1  0
  1 38  1  0
  1 39  1  0
  1 40  1  0
  2 34  1  0
  2  3  1  0
  2 41  1  6
  3  4  1  0
  3 42  1  0
  3 43  1  0
  4  5  1  0
  4 44  1  0
  4 45  1  0
  5  6  1  0
  5 21  1  0
  5 46  1  1
  7  6  1  1
  7 15  1  0
  7 20  1  0
  7  8  1  0
  8  9  1  0
  8 47  1  0
  8 48  1  0
  9 18  1  0
  9 10  1  0
  9 49  1  6
 10 11  1  0
 11 12  1  0
 12 13  1  1
 12 14  1  0
 12 20  1  0
 13 50  1  0
 13 51  1  0
 13 52  1  0
 14 15  1  0
 14 53  1  0
 14 54  1  0
 15 16  1  0
 15 55  1  6
 16 17  1  0
 16 18  1  0
 16 56  1  6
 17 57  1  0
 17 58  1  0
 17 59  1  0
 18 19  1  0
 18 60  1  6
 19 61  1  0
 19 62  1  0
 19 63  1  0
 21 22  1  0
 21 23  1  0
 21 64  1  6
 22 65  1  0
 22 66  1  0
 22 67  1  0
 23 35  1  0
 23 24  1  0
 23 68  1  1
 24 25  1  0
 24 69  1  0
 24 70  1  0
 25 26  1  0
 25 71  1  0
 25 72  1  0
 26 27  1  0
 26 28  1  0
 26 73  1  6
 27 74  1  0
 27 75  1  0
 27 76  1  0
 28 35  1  0
 28 29  1  0
 28 77  1  6
 29 30  1  0
 30 37  1  0
 30 31  1  6
 30 32  1  0
 31 78  1  0
 31 79  1  0
 31 80  1  0
 32 33  1  0
 32 81  1  0
 32 82  1  0
 33 34  1  0
 33 83  1  0
 33 84  1  0
 34 35  1  0
 34 85  1  6
 35 36  1  6
 36 37  1  0
M  END
>  <i_m_ct_stereo_status>  (17) 
1

>  <s_m_source_file>  (17) 
/var/tmp/pbs.5076255.sched01/tmp5ffkvrn0/0o5bi62ha.sdf

>  <i_m_source_file_index>  (17) 
11

>  <i_lp_mmshare_version>  (17) 
48012

>  <i_f3d_flags>  (17) 
0

>  <s_epik_input>  (17) 
W0NIMl0xW0NIMl1bQ0BASF0oW0NIM10pW0NASF0yT1tDQF0oW0NIM10pKE9PMylbQ0gyXVtDSDJdW0NASF00W0NASF0oW0NIM10pW0NIMl1bQ0gyXVtDQEhdKFtDQEBIXShbQ0gzXSlbQ0BIXTFbQ0BdMjM0KU9bQ0BdNTZbQ0BIXTdbQ0gyXVtDQF0oTzYpKFtDSDNdKU9PW0NAQEhdKFtDSDJdNSlbQ0BIXShbQ0gzXSlbQ0BASF03W0NIM10=

>  <s_epik_cmdline>  (17) 
J2VwaWtfcHl0aG9uJywgJy1waHQnLCAnMi4wJywgJy1waCcsICc3LjAnLCAnLXRuJywgJzgnLCAnLW1hJywgJzIwMCcsICctaW1hZScsICc8aW5maWxlLm1hZT4nLCAnLW9tYWUnLCAnPG91dGZpbGUubWFlPic=

>  <r_lp_tautomer_probability>  (17) 
1

>  <r_epik_Ionization_Penalty>  (17) 
1.9168e-13

>  <r_epik_Ionization_Penalty_Charging>  (17) 
0

>  <r_epik_Ionization_Penalty_Neutral>  (17) 
1.9168e-13

>  <r_epik_State_Penalty>  (17) 
-0

>  <r_epik_Charging_Adjusted_Penalty>  (17) 
0

>  <i_epik_Tot_Q>  (17) 
0

>  <i_epik_Tot_abs_Q>  (17) 
0

>  <s_lp_Force_Field>  (17) 
OPLS3e

>  <r_lp_Energy>  (17) 
86.2461

>  <b_lp_Chiralities_Consistent>  (17) 
1

>  <s_lp_Variant>  (17) 
7:0-1

>  <s_i_glide_gridfile>  (17) 
pfpi4k_grid

>  <i_i_glide_lignum>  (17) 
11

>  <i_i_glide_rotatable_bonds>  (17) 
2

>  <r_i_docking_score>  (17) 
-1.73975

>  <r_i_glide_ligand_efficiency>  (17) 
-0.0470202

>  <r_i_glide_ligand_efficiency_sa>  (17) 
-0.156682

>  <r_i_glide_ligand_efficiency_ln>  (17) 
-0.377311

>  <r_i_glide_gscore>  (17) 
-1.73975

>  <r_i_glide_lipo>  (17) 
-0.151548

>  <r_i_glide_hbond>  (17) 
0

>  <r_i_glide_metal>  (17) 
-0

>  <r_i_glide_rewards>  (17) 
-0.00602869

>  <r_i_glide_evdw>  (17) 
-30.4637

>  <r_i_glide_ecoul>  (17) 
-1.10679

>  <r_i_glide_erotb>  (17) 
0.151611

>  <r_i_glide_esite>  (17) 
-0.044581

>  <r_i_glide_emodel>  (17) 
-34.3715

>  <r_i_glide_energy>  (17) 
-31.5704

>  <r_i_glide_einternal>  (17) 
0.277113

>  <r_i_glide_intrahb_reward>  (17) 
-0

>  <i_i_glide_confnum>  (17) 
2

>  <i_i_glide_posenum>  (17) 
22

>  <r_i_glide_eff_state_penalty>  (17) 
0

>  <ligand_id>  (17) 
7

>  <original_smiles>  (17) 
CC1CCC(OC23CC4OOC(C)(CC2C(C)C4C)O3)C(C)C2CCC(C)C3OC4(C)CCC1C23OO4

>  <smiles>  (17) 
[H]C([H])([H])C12OOC34C([H])(O1)C([H])(C([H])([H])[H])C([H])([H])C([H])([H])C3([H])C([H])(C([H])([H])[H])C([H])(OC13OC5(C([H])([H])[H])OOC([H])(C1([H])[H])C([H])(C([H])([H])[H])C([H])(C([H])([H])[H])C3([H])C5([H])[H])C([H])([H])C([H])([H])C([H])(C([H])([H])[H])C4([H])C([H])([H])C2([H])[H]

$$$$
7:0:2
     RDKit          3D

 85 91  0  0  1  0  0  0  0  0999 V2000
    4.1075    0.7259    6.5904 C   0  0  0  0  0  0  0  0  0  0  0  0
    2.8854    0.0057    5.9783 C   0  0  2  0  0  0  0  0  0  0  0  0
    2.4630   -1.1259    6.9592 C   0  0  0  0  0  0  0  0  0  0  0  0
    1.0036   -1.6254    6.9073 C   0  0  0  0  0  0  0  0  0  0  0  0
    0.6103   -2.3990    5.6251 C   0  0  1  0  0  0  0  0  0  0  0  0
   -0.1136   -3.6022    5.9638 O   0  0  0  0  0  0  0  0  0  0  0  0
    0.6404   -4.7847    5.9815 C   0  0  1  0  0  0  0  0  0  0  0  0
   -0.1797   -5.8223    6.7875 C   0  0  0  0  0  0  0  0  0  0  0  0
    0.4634   -7.2054    6.5998 C   0  0  2  0  0  0  0  0  0  0  0  0
    1.7246   -7.2051    7.2752 O   0  0  0  0  0  0  0  0  0  0  0  0
    2.8786   -6.8275    6.3089 O   0  0  0  0  0  0  0  0  0  0  0  0
    2.8225   -5.4384    6.0077 C   0  0  1  0  0  0  0  0  0  0  0  0
    4.2113   -4.8241    6.2808 C   0  0  0  0  0  0  0  0  0  0  0  0
    2.4704   -5.3824    4.5149 C   0  0  0  0  0  0  0  0  0  0  0  0
    0.9534   -5.2746    4.5216 C   0  0  1  0  0  0  0  0  0  0  0  0
    0.1716   -6.5648    4.1368 C   0  0  1  0  0  0  0  0  0  0  0  0
    0.3754   -6.9813    2.6613 C   0  0  0  0  0  0  0  0  0  0  0  0
    0.3371   -7.7273    5.1480 C   0  0  1  0  0  0  0  0  0  0  0  0
    1.3330   -8.8408    4.7803 C   0  0  0  0  0  0  0  0  0  0  0  0
    1.8476   -4.6619    6.6606 O   0  0  0  0  0  0  0  0  0  0  0  0
   -0.2693   -1.5542    4.6630 C   0  0  1  0  0  0  0  0  0  0  0  0
   -1.6786   -1.3218    5.2748 C   0  0  0  0  0  0  0  0  0  0  0  0
    0.4070   -0.2176    4.1689 C   0  0  2  0  0  0  0  0  0  0  0  0
   -0.5621    0.6613    3.3229 C   0  0  0  0  0  0  0  0  0  0  0  0
   -0.0002    2.0634    2.9982 C   0  0  0  0  0  0  0  0  0  0  0  0
    1.4882    2.0638    2.6014 C   0  0  1  0  0  0  0  0  0  0  0  0
    2.3730    2.8520    3.5801 C   0  0  0  0  0  0  0  0  0  0  0  0
    1.9441    0.6250    2.2829 C   0  0  1  0  0  0  0  0  0  0  0  0
    3.1731    0.6035    1.5983 O   0  0  0  0  0  0  0  0  0  0  0  0
    3.6878   -0.7022    1.5226 C   0  0  1  0  0  0  0  0  0  0  0  0
    4.2915   -0.8878    0.1092 C   0  0  0  0  0  0  0  0  0  0  0  0
    4.7990   -0.8187    2.5709 C   0  0  0  0  0  0  0  0  0  0  0  0
    4.4358   -0.1014    3.8775 C   0  0  0  0  0  0  0  0  0  0  0  0
    3.0749   -0.5060    4.4892 C   0  0  2  0  0  0  0  0  0  0  0  0
    1.8454   -0.3698    3.4824 C   0  0  1  0  0  0  0  0  0  0  0  0
    1.7720   -1.6428    2.8347 O   0  0  0  0  0  0  0  0  0  0  0  0
    2.7369   -1.7591    1.6078 O   0  0  0  0  0  0  0  0  0  0  0  0
    4.9559    0.0584    6.7371 H   0  0  0  0  0  0  0  0  0  0  0  0
    3.8615    1.1397    7.5698 H   0  0  0  0  0  0  0  0  0  0  0  0
    4.4308    1.5735    5.9854 H   0  0  0  0  0  0  0  0  0  0  0  0
    2.1484    0.7951    6.0336 H   0  0  0  0  0  0  0  0  0  0  0  0
    3.1424   -1.9713    6.8777 H   0  0  0  0  0  0  0  0  0  0  0  0
    2.6050   -0.7564    7.9768 H   0  0  0  0  0  0  0  0  0  0  0  0
    0.8715   -2.2989    7.7554 H   0  0  0  0  0  0  0  0  0  0  0  0
    0.3273   -0.7968    7.1063 H   0  0  0  0  0  0  0  0  0  0  0  0
    1.5063   -2.6953    5.0878 H   0  0  0  0  0  0  0  0  0  0  0  0
   -0.1575   -5.5347    7.8433 H   0  0  0  0  0  0  0  0  0  0  0  0
   -1.2230   -5.8055    6.4602 H   0  0  0  0  0  0  0  0  0  0  0  0
   -0.1248   -7.8994    7.2214 H   0  0  0  0  0  0  0  0  0  0  0  0
    4.4292   -4.7999    7.3529 H   0  0  0  0  0  0  0  0  0  0  0  0
    4.2568   -3.7982    5.9185 H   0  0  0  0  0  0  0  0  0  0  0  0
    5.0097   -5.3827    5.7895 H   0  0  0  0  0  0  0  0  0  0  0  0
    2.8895   -4.4794    4.0674 H   0  0  0  0  0  0  0  0  0  0  0  0
    2.8510   -6.2452    3.9668 H   0  0  0  0  0  0  0  0  0  0  0  0
    0.6646   -4.4853    3.8277 H   0  0  0  0  0  0  0  0  0  0  0  0
   -0.8761   -6.2700    4.1947 H   0  0  0  0  0  0  0  0  0  0  0  0
    1.3978   -7.2925    2.4602 H   0  0  0  0  0  0  0  0  0  0  0  0
    0.1411   -6.1730    1.9776 H   0  0  0  0  0  0  0  0  0  0  0  0
   -0.2741   -7.8206    2.4053 H   0  0  0  0  0  0  0  0  0  0  0  0
   -0.6299   -8.2346    5.1170 H   0  0  0  0  0  0  0  0  0  0  0  0
    2.3434   -8.4689    4.6318 H   0  0  0  0  0  0  0  0  0  0  0  0
    1.0407   -9.3427    3.8589 H   0  0  0  0  0  0  0  0  0  0  0  0
    1.3642   -9.6064    5.5556 H   0  0  0  0  0  0  0  0  0  0  0  0
   -0.4327   -2.1764    3.7821 H   0  0  0  0  0  0  0  0  0  0  0  0
   -1.6718   -0.5518    6.0517 H   0  0  0  0  0  0  0  0  0  0  0  0
   -2.0833   -2.2357    5.7165 H   0  0  0  0  0  0  0  0  0  0  0  0
   -2.4070   -1.0223    4.5205 H   0  0  0  0  0  0  0  0  0  0  0  0
    0.4784    0.4056    5.0523 H   0  0  0  0  0  0  0  0  0  0  0  0
   -0.7998    0.1532    2.3857 H   0  0  0  0  0  0  0  0  0  0  0  0
   -1.5133    0.8234    3.8270 H   0  0  0  0  0  0  0  0  0  0  0  0
   -0.5902    2.4986    2.1962 H   0  0  0  0  0  0  0  0  0  0  0  0
   -0.1550    2.7129    3.8651 H   0  0  0  0  0  0  0  0  0  0  0  0
    1.5481    2.6220    1.6597 H   0  0  0  0  0  0  0  0  0  0  0  0
    2.3886    2.4043    4.5705 H   0  0  0  0  0  0  0  0  0  0  0  0
    2.0189    3.8750    3.6952 H   0  0  0  0  0  0  0  0  0  0  0  0
    3.3979    2.9131    3.2233 H   0  0  0  0  0  0  0  0  0  0  0  0
    1.2581    0.2808    1.5157 H   0  0  0  0  0  0  0  0  0  0  0  0
    3.5049   -0.8323   -0.6501 H   0  0  0  0  0  0  0  0  0  0  0  0
    4.7754   -1.8596   -0.0075 H   0  0  0  0  0  0  0  0  0  0  0  0
    5.0277   -0.1243   -0.1319 H   0  0  0  0  0  0  0  0  0  0  0  0
    5.0510   -1.8637    2.7478 H   0  0  0  0  0  0  0  0  0  0  0  0
    5.7105   -0.3474    2.1972 H   0  0  0  0  0  0  0  0  0  0  0  0
    5.2478   -0.3361    4.5640 H   0  0  0  0  0  0  0  0  0  0  0  0
    4.4798    0.9728    3.7275 H   0  0  0  0  0  0  0  0  0  0  0  0
    3.2223   -1.5741    4.6045 H   0  0  0  0  0  0  0  0  0  0  0  0
  1  2  1  0
  1 38  1  0
  1 39  1  0
  1 40  1  0
  2 34  1  0
  2  3  1  0
  2 41  1  6
  3  4  1  0
  3 42  1  0
  3 43  1  0
  4  5  1  0
  4 44  1  0
  4 45  1  0
  5  6  1  0
  5 21  1  0
  5 46  1  6
  7  6  1  6
  7 15  1  0
  7 20  1  0
  7  8  1  0
  8  9  1  0
  8 47  1  0
  8 48  1  0
  9 18  1  0
  9 10  1  0
  9 49  1  1
 10 11  1  0
 11 12  1  0
 12 13  1  6
 12 14  1  0
 12 20  1  0
 13 50  1  0
 13 51  1  0
 13 52  1  0
 14 15  1  0
 14 53  1  0
 14 54  1  0
 15 16  1  0
 15 55  1  6
 16 17  1  0
 16 18  1  0
 16 56  1  6
 17 57  1  0
 17 58  1  0
 17 59  1  0
 18 19  1  0
 18 60  1  1
 19 61  1  0
 19 62  1  0
 19 63  1  0
 21 22  1  0
 21 23  1  0
 21 64  1  6
 22 65  1  0
 22 66  1  0
 22 67  1  0
 23 35  1  0
 23 24  1  0
 23 68  1  1
 24 25  1  0
 24 69  1  0
 24 70  1  0
 25 26  1  0
 25 71  1  0
 25 72  1  0
 26 27  1  0
 26 28  1  0
 26 73  1  6
 27 74  1  0
 27 75  1  0
 27 76  1  0
 28 35  1  0
 28 29  1  0
 28 77  1  6
 29 30  1  0
 30 37  1  0
 30 31  1  6
 30 32  1  0
 31 78  1  0
 31 79  1  0
 31 80  1  0
 32 33  1  0
 32 81  1  0
 32 82  1  0
 33 34  1  0
 33 83  1  0
 33 84  1  0
 34 35  1  0
 34 85  1  1
 35 36  1  6
 36 37  1  0
M  END
>  <i_m_ct_stereo_status>  (18) 
1

>  <s_m_source_file>  (18) 
/var/tmp/pbs.5076255.sched01/tmp5ffkvrn0/0o5bi62ha.sdf

>  <i_m_source_file_index>  (18) 
11

>  <i_lp_mmshare_version>  (18) 
48012

>  <i_f3d_flags>  (18) 
0

>  <s_epik_input>  (18) 
W0NIMl0xW0NIMl1bQ0BASF0oW0NIM10pW0NASF0yT1tDQF0oW0NIM10pKE9PMylbQ0gyXVtDSDJdW0NASF00W0NASF0oW0NIM10pW0NIMl1bQ0gyXVtDQEhdKFtDQEBIXShbQ0gzXSlbQ0BIXTFbQ0BdMjM0KU9bQ0BdNTZbQ0BIXTdbQ0gyXVtDQF0oTzYpKFtDSDNdKU9PW0NAQEhdKFtDSDJdNSlbQ0BIXShbQ0gzXSlbQ0BASF03W0NIM10=

>  <s_epik_cmdline>  (18) 
J2VwaWtfcHl0aG9uJywgJy1waHQnLCAnMi4wJywgJy1waCcsICc3LjAnLCAnLXRuJywgJzgnLCAnLW1hJywgJzIwMCcsICctaW1hZScsICc8aW5maWxlLm1hZT4nLCAnLW9tYWUnLCAnPG91dGZpbGUubWFlPic=

>  <r_lp_tautomer_probability>  (18) 
1

>  <r_epik_Ionization_Penalty>  (18) 
1.9168e-13

>  <r_epik_Ionization_Penalty_Charging>  (18) 
0

>  <r_epik_Ionization_Penalty_Neutral>  (18) 
1.9168e-13

>  <r_epik_State_Penalty>  (18) 
-0

>  <r_epik_Charging_Adjusted_Penalty>  (18) 
0

>  <i_epik_Tot_Q>  (18) 
0

>  <i_epik_Tot_abs_Q>  (18) 
0

>  <s_lp_Force_Field>  (18) 
OPLS3e

>  <r_lp_Energy>  (18) 
86.2461

>  <b_lp_Chiralities_Consistent>  (18) 
1

>  <s_lp_Variant>  (18) 
7:0-1

>  <s_i_glide_gridfile>  (18) 
pfpi4k_grid

>  <i_i_glide_lignum>  (18) 
11

>  <i_i_glide_rotatable_bonds>  (18) 
2

>  <r_i_docking_score>  (18) 
-1.59164

>  <r_i_glide_ligand_efficiency>  (18) 
-0.0430174

>  <r_i_glide_ligand_efficiency_sa>  (18) 
-0.143344

>  <r_i_glide_ligand_efficiency_ln>  (18) 
-0.34519

>  <r_i_glide_gscore>  (18) 
-1.59164

>  <r_i_glide_lipo>  (18) 
-0.142067

>  <r_i_glide_hbond>  (18) 
0

>  <r_i_glide_metal>  (18) 
-0

>  <r_i_glide_rewards>  (18) 
0

>  <r_i_glide_evdw>  (18) 
-33.3756

>  <r_i_glide_ecoul>  (18) 
0.490035

>  <r_i_glide_erotb>  (18) 
0.151611

>  <r_i_glide_esite>  (18) 
-0.00591212

>  <r_i_glide_emodel>  (18) 
-35.0371

>  <r_i_glide_energy>  (18) 
-32.8856

>  <r_i_glide_einternal>  (18) 
0.531632

>  <r_i_glide_intrahb_reward>  (18) 
-0

>  <i_i_glide_confnum>  (18) 
3

>  <i_i_glide_posenum>  (18) 
4

>  <r_i_glide_eff_state_penalty>  (18) 
0

>  <ligand_id>  (18) 
7

>  <original_smiles>  (18) 
CC1CCC(OC23CC4OOC(C)(CC2C(C)C4C)O3)C(C)C2CCC(C)C3OC4(C)CCC1C23OO4

>  <smiles>  (18) 
[H]C([H])([H])C12OOC34C([H])(O1)C([H])(C([H])([H])[H])C([H])([H])C([H])([H])C3([H])C([H])(C([H])([H])[H])C([H])(OC13OC5(C([H])([H])[H])OOC([H])(C1([H])[H])C([H])(C([H])([H])[H])C([H])(C([H])([H])[H])C3([H])C5([H])[H])C([H])([H])C([H])([H])C([H])(C([H])([H])[H])C4([H])C([H])([H])C2([H])[H]

$$$$
8:0:0
     RDKit          3D

 17 18  0  0  1  0  0  0  0  0999 V2000
   -8.9344   -3.9088   -5.5366 C   0  0  0  0  0  0  0  0  0  0  0  0
   -8.4361   -5.1295   -6.2495 C   0  0  0  0  0  0  0  0  0  0  0  0
   -9.0715   -5.7348   -7.3077 C   0  0  0  0  0  0  0  0  0  0  0  0
   -8.2622   -7.1511   -7.9209 S   0  0  0  0  0  0  0  0  0  0  0  0
   -6.9935   -6.9856   -6.7198 C   0  0  0  0  0  0  0  0  0  0  0  0
   -5.8642   -7.7970   -6.5225 C   0  0  0  0  0  0  0  0  0  0  0  0
   -4.9660   -7.4406   -5.5064 C   0  0  0  0  0  0  0  0  0  0  0  0
   -5.1496   -6.3611   -4.7230 N   0  0  0  0  0  0  0  0  0  0  0  0
   -6.2454   -5.5831   -4.8929 C   0  0  0  0  0  0  0  0  0  0  0  0
   -7.2206   -5.8370   -5.8959 C   0  0  0  0  0  0  0  0  0  0  0  0
   -9.8778   -3.5442   -5.9469 H   0  0  0  0  0  0  0  0  0  0  0  0
   -8.2072   -3.1034   -5.5980 H   0  0  0  0  0  0  0  0  0  0  0  0
   -9.0865   -4.1223   -4.4801 H   0  0  0  0  0  0  0  0  0  0  0  0
  -10.0089   -5.4350   -7.7609 H   0  0  0  0  0  0  0  0  0  0  0  0
   -5.6834   -8.6563   -7.1505 H   0  0  0  0  0  0  0  0  0  0  0  0
   -4.0718   -8.0166   -5.3270 H   0  0  0  0  0  0  0  0  0  0  0  0
   -6.3498   -4.7332   -4.2321 H   0  0  0  0  0  0  0  0  0  0  0  0
  1  2  1  0
  1 11  1  0
  1 12  1  0
  1 13  1  0
  2 10  1  0
  2  3  2  0
  3  4  1  0
  3 14  1  0
  4  5  1  0
  5 10  2  0
  5  6  1  0
  6  7  2  0
  6 15  1  0
  7  8  1  0
  7 16  1  0
  8  9  2  0
  9 10  1  0
  9 17  1  0
M  END
>  <i_m_ct_stereo_status>  (19) 
1

>  <s_m_source_file>  (19) 
/var/tmp/pbs.5076255.sched01/tmp5ffkvrn0/0o5bi62ha.sdf

>  <i_m_source_file_index>  (19) 
12

>  <i_lp_mmshare_version>  (19) 
48012

>  <i_f3d_flags>  (19) 
0

>  <s_epik_input>  (19) 
czFbY0hdYyhbQ0gzXSljKGMxMilbY0hdbltjSF1bY0hdMg==

>  <s_epik_cmdline>  (19) 
J2VwaWtfcHl0aG9uJywgJy1waHQnLCAnMi4wJywgJy1waCcsICc3LjAnLCAnLXRuJywgJzgnLCAnLW1hJywgJzIwMCcsICctaW1hZScsICc8aW5maWxlLm1hZT4nLCAnLW9tYWUnLCAnPG91dGZpbGUubWFlPic=

>  <r_epik_Ionization_Penalty>  (19) 
0.0532331

>  <r_epik_Ionization_Penalty_Charging>  (19) 
0

>  <r_epik_Ionization_Penalty_Neutral>  (19) 
0.0532331

>  <r_epik_State_Penalty>  (19) 
0.0457187

>  <r_epik_Charging_Adjusted_Penalty>  (19) 
0.0457187

>  <i_epik_Tot_Q>  (19) 
0

>  <i_epik_Tot_abs_Q>  (19) 
0

>  <s_lp_Force_Field>  (19) 
OPLS3e

>  <r_lp_Energy>  (19) 
13.7398

>  <b_lp_Chiralities_Consistent>  (19) 
1

>  <s_lp_Variant>  (19) 
8:0-1

>  <s_i_glide_gridfile>  (19) 
pfpi4k_grid

>  <i_i_glide_lignum>  (19) 
12

>  <i_i_glide_rotatable_bonds>  (19) 
0

>  <r_i_docking_score>  (19) 
-7.61185

>  <r_i_glide_ligand_efficiency>  (19) 
-0.761185

>  <r_i_glide_ligand_efficiency_sa>  (19) 
-1.63992

>  <r_i_glide_ligand_efficiency_ln>  (19) 
-2.30482

>  <r_i_glide_gscore>  (19) 
-7.61185

>  <r_i_glide_lipo>  (19) 
-2.29917

>  <r_i_glide_hbond>  (19) 
-0.259957

>  <r_i_glide_metal>  (19) 
-0

>  <r_i_glide_rewards>  (19) 
-3.74167

>  <r_i_glide_evdw>  (19) 
-19.9059

>  <r_i_glide_ecoul>  (19) 
-2.10511

>  <r_i_glide_erotb>  (19) 
0

>  <r_i_glide_esite>  (19) 
0

>  <r_i_glide_emodel>  (19) 
-32.6267

>  <r_i_glide_energy>  (19) 
-22.011

>  <r_i_glide_einternal>  (19) 
0

>  <r_i_glide_intrahb_reward>  (19) 
-0

>  <i_i_glide_confnum>  (19) 
1

>  <i_i_glide_posenum>  (19) 
8

>  <r_i_glide_eff_state_penalty>  (19) 
0

>  <ligand_id>  (19) 
8

>  <original_smiles>  (19) 
Cc1csc2ccncc12

>  <smiles>  (19) 
[H]c1nc([H])c2c(C([H])([H])[H])c([H])sc2c1[H]

$$$$
8:0:1
     RDKit          3D

 17 18  0  0  1  0  0  0  0  0999 V2000
   -6.6600   -8.0922   -7.2558 C   0  0  0  0  0  0  0  0  0  0  0  0
   -6.8662   -6.9208   -6.3464 C   0  0  0  0  0  0  0  0  0  0  0  0
   -6.1093   -6.6529   -5.2316 C   0  0  0  0  0  0  0  0  0  0  0  0
   -6.5794   -5.2080   -4.3781 S   0  0  0  0  0  0  0  0  0  0  0  0
   -7.8705   -4.9106   -5.5236 C   0  0  0  0  0  0  0  0  0  0  0  0
   -8.8030   -3.8606   -5.5367 C   0  0  0  0  0  0  0  0  0  0  0  0
   -9.7493   -3.8284   -6.5664 C   0  0  0  0  0  0  0  0  0  0  0  0
   -9.7848   -4.7493   -7.5475 N   0  0  0  0  0  0  0  0  0  0  0  0
   -8.8975   -5.7722   -7.5371 C   0  0  0  0  0  0  0  0  0  0  0  0
   -7.8934   -5.9142   -6.5388 C   0  0  0  0  0  0  0  0  0  0  0  0
   -5.8258   -8.7215   -6.9401 H   0  0  0  0  0  0  0  0  0  0  0  0
   -6.4546   -7.7607   -8.2739 H   0  0  0  0  0  0  0  0  0  0  0  0
   -7.5537   -8.7161   -7.2914 H   0  0  0  0  0  0  0  0  0  0  0  0
   -5.2770   -7.2382   -4.8584 H   0  0  0  0  0  0  0  0  0  0  0  0
   -8.7974   -3.1034   -4.7692 H   0  0  0  0  0  0  0  0  0  0  0  0
  -10.4866   -3.0424   -6.6099 H   0  0  0  0  0  0  0  0  0  0  0  0
   -8.9840   -6.5007   -8.3315 H   0  0  0  0  0  0  0  0  0  0  0  0
  1  2  1  0
  1 11  1  0
  1 12  1  0
  1 13  1  0
  2 10  1  0
  2  3  2  0
  3  4  1  0
  3 14  1  0
  4  5  1  0
  5 10  2  0
  5  6  1  0
  6  7  2  0
  6 15  1  0
  7  8  1  0
  7 16  1  0
  8  9  2  0
  9 10  1  0
  9 17  1  0
M  END
>  <i_m_ct_stereo_status>  (20) 
1

>  <s_m_source_file>  (20) 
/var/tmp/pbs.5076255.sched01/tmp5ffkvrn0/0o5bi62ha.sdf

>  <i_m_source_file_index>  (20) 
12

>  <i_lp_mmshare_version>  (20) 
48012

>  <i_f3d_flags>  (20) 
0

>  <s_epik_input>  (20) 
czFbY0hdYyhbQ0gzXSljKGMxMilbY0hdbltjSF1bY0hdMg==

>  <s_epik_cmdline>  (20) 
J2VwaWtfcHl0aG9uJywgJy1waHQnLCAnMi4wJywgJy1waCcsICc3LjAnLCAnLXRuJywgJzgnLCAnLW1hJywgJzIwMCcsICctaW1hZScsICc8aW5maWxlLm1hZT4nLCAnLW9tYWUnLCAnPG91dGZpbGUubWFlPic=

>  <r_epik_Ionization_Penalty>  (20) 
0.0532331

>  <r_epik_Ionization_Penalty_Charging>  (20) 
0

>  <r_epik_Ionization_Penalty_Neutral>  (20) 
0.0532331

>  <r_epik_State_Penalty>  (20) 
0.0457187

>  <r_epik_Charging_Adjusted_Penalty>  (20) 
0.0457187

>  <i_epik_Tot_Q>  (20) 
0

>  <i_epik_Tot_abs_Q>  (20) 
0

>  <s_lp_Force_Field>  (20) 
OPLS3e

>  <r_lp_Energy>  (20) 
13.7398

>  <b_lp_Chiralities_Consistent>  (20) 
1

>  <s_lp_Variant>  (20) 
8:0-1

>  <s_i_glide_gridfile>  (20) 
pfpi4k_grid

>  <i_i_glide_lignum>  (20) 
12

>  <i_i_glide_rotatable_bonds>  (20) 
0

>  <r_i_docking_score>  (20) 
-6.52294

>  <r_i_glide_ligand_efficiency>  (20) 
-0.652294

>  <r_i_glide_ligand_efficiency_sa>  (20) 
-1.40532

>  <r_i_glide_ligand_efficiency_ln>  (20) 
-1.9751

>  <r_i_glide_gscore>  (20) 
-6.52294

>  <r_i_glide_lipo>  (20) 
-2.4802

>  <r_i_glide_hbond>  (20) 
0

>  <r_i_glide_metal>  (20) 
-0

>  <r_i_glide_rewards>  (20) 
-2.90553

>  <r_i_glide_evdw>  (20) 
-21.903

>  <r_i_glide_ecoul>  (20) 
-0.28042

>  <r_i_glide_erotb>  (20) 
0

>  <r_i_glide_esite>  (20) 
0

>  <r_i_glide_emodel>  (20) 
-31.2814

>  <r_i_glide_energy>  (20) 
-22.1834

>  <r_i_glide_einternal>  (20) 
0

>  <r_i_glide_intrahb_reward>  (20) 
-0

>  <i_i_glide_confnum>  (20) 
2

>  <i_i_glide_posenum>  (20) 
29

>  <r_i_glide_eff_state_penalty>  (20) 
0

>  <ligand_id>  (20) 
8

>  <original_smiles>  (20) 
Cc1csc2ccncc12

>  <smiles>  (20) 
[H]c1nc([H])c2c(C([H])([H])[H])c([H])sc2c1[H]

$$$$
8:0:2
     RDKit          3D

 17 18  0  0  1  0  0  0  0  0999 V2000
   -8.4667   -6.7316   -7.7513 C   0  0  0  0  0  0  0  0  0  0  0  0
   -7.3871   -6.7528   -6.7146 C   0  0  0  0  0  0  0  0  0  0  0  0
   -7.1325   -5.7378   -5.8222 C   0  0  0  0  0  0  0  0  0  0  0  0
   -5.8132   -6.0532   -4.7311 S   0  0  0  0  0  0  0  0  0  0  0  0
   -5.5443   -7.6264   -5.4619 C   0  0  0  0  0  0  0  0  0  0  0  0
   -4.5849   -8.5960   -5.1272 C   0  0  0  0  0  0  0  0  0  0  0  0
   -4.5807   -9.7947   -5.8535 C   0  0  0  0  0  0  0  0  0  0  0  0
   -5.4404  -10.0396   -6.8616 N   0  0  0  0  0  0  0  0  0  0  0  0
   -6.3656   -9.1099   -7.1920 C   0  0  0  0  0  0  0  0  0  0  0  0
   -6.4760   -7.8631   -6.5190 C   0  0  0  0  0  0  0  0  0  0  0  0
   -9.0433   -5.8057   -7.7297 H   0  0  0  0  0  0  0  0  0  0  0  0
   -9.1623   -7.5585   -7.6015 H   0  0  0  0  0  0  0  0  0  0  0  0
   -8.0445   -6.8410   -8.7510 H   0  0  0  0  0  0  0  0  0  0  0  0
   -7.6586   -4.7947   -5.7407 H   0  0  0  0  0  0  0  0  0  0  0  0
   -3.8742   -8.4369   -4.3288 H   0  0  0  0  0  0  0  0  0  0  0  0
   -3.8587  -10.5678   -5.6361 H   0  0  0  0  0  0  0  0  0  0  0  0
   -7.0392   -9.3583   -8.0012 H   0  0  0  0  0  0  0  0  0  0  0  0
  1  2  1  0
  1 11  1  0
  1 12  1  0
  1 13  1  0
  2 10  1  0
  2  3  2  0
  3  4  1  0
  3 14  1  0
  4  5  1  0
  5 10  2  0
  5  6  1  0
  6  7  2  0
  6 15  1  0
  7  8  1  0
  7 16  1  0
  8  9  2  0
  9 10  1  0
  9 17  1  0
M  END
>  <i_m_ct_stereo_status>  (21) 
1

>  <s_m_source_file>  (21) 
/var/tmp/pbs.5076255.sched01/tmp5ffkvrn0/0o5bi62ha.sdf

>  <i_m_source_file_index>  (21) 
12

>  <i_lp_mmshare_version>  (21) 
48012

>  <i_f3d_flags>  (21) 
0

>  <s_epik_input>  (21) 
czFbY0hdYyhbQ0gzXSljKGMxMilbY0hdbltjSF1bY0hdMg==

>  <s_epik_cmdline>  (21) 
J2VwaWtfcHl0aG9uJywgJy1waHQnLCAnMi4wJywgJy1waCcsICc3LjAnLCAnLXRuJywgJzgnLCAnLW1hJywgJzIwMCcsICctaW1hZScsICc8aW5maWxlLm1hZT4nLCAnLW9tYWUnLCAnPG91dGZpbGUubWFlPic=

>  <r_epik_Ionization_Penalty>  (21) 
0.0532331

>  <r_epik_Ionization_Penalty_Charging>  (21) 
0

>  <r_epik_Ionization_Penalty_Neutral>  (21) 
0.0532331

>  <r_epik_State_Penalty>  (21) 
0.0457187

>  <r_epik_Charging_Adjusted_Penalty>  (21) 
0.0457187

>  <i_epik_Tot_Q>  (21) 
0

>  <i_epik_Tot_abs_Q>  (21) 
0

>  <s_lp_Force_Field>  (21) 
OPLS3e

>  <r_lp_Energy>  (21) 
13.7398

>  <b_lp_Chiralities_Consistent>  (21) 
1

>  <s_lp_Variant>  (21) 
8:0-1

>  <s_i_glide_gridfile>  (21) 
pfpi4k_grid

>  <i_i_glide_lignum>  (21) 
12

>  <i_i_glide_rotatable_bonds>  (21) 
0

>  <r_i_docking_score>  (21) 
-6.21738

>  <r_i_glide_ligand_efficiency>  (21) 
-0.621738

>  <r_i_glide_ligand_efficiency_sa>  (21) 
-1.33949

>  <r_i_glide_ligand_efficiency_ln>  (21) 
-1.88258

>  <r_i_glide_gscore>  (21) 
-6.21738

>  <r_i_glide_lipo>  (21) 
-1.98632

>  <r_i_glide_hbond>  (21) 
0

>  <r_i_glide_metal>  (21) 
-0

>  <r_i_glide_rewards>  (21) 
-2.95833

>  <r_i_glide_evdw>  (21) 
-20.4292

>  <r_i_glide_ecoul>  (21) 
-1.67511

>  <r_i_glide_erotb>  (21) 
0

>  <r_i_glide_esite>  (21) 
0

>  <r_i_glide_emodel>  (21) 
-30.7745

>  <r_i_glide_energy>  (21) 
-22.1044

>  <r_i_glide_einternal>  (21) 
0

>  <r_i_glide_intrahb_reward>  (21) 
-0

>  <i_i_glide_confnum>  (21) 
2

>  <i_i_glide_posenum>  (21) 
1

>  <r_i_glide_eff_state_penalty>  (21) 
0

>  <ligand_id>  (21) 
8

>  <original_smiles>  (21) 
Cc1csc2ccncc12

>  <smiles>  (21) 
[H]c1nc([H])c2c(C([H])([H])[H])c([H])sc2c1[H]

$$$$
8:1:0
     RDKit          3D

 18 19  0  0  1  0  0  0  0  0999 V2000
   -9.8148   -6.0830   -8.6260 C   0  0  0  0  0  0  0  0  0  0  0  0
   -8.6324   -6.5370   -7.8254 C   0  0  0  0  0  0  0  0  0  0  0  0
   -7.8686   -7.6465   -8.1019 C   0  0  0  0  0  0  0  0  0  0  0  0
   -6.5760   -7.9330   -6.9694 S   0  0  0  0  0  0  0  0  0  0  0  0
   -7.0217   -6.5058   -6.0502 C   0  0  0  0  0  0  0  0  0  0  0  0
   -6.4184   -5.9910   -4.8852 C   0  0  0  0  0  0  0  0  0  0  0  0
   -6.9570   -4.8317   -4.2988 C   0  0  0  0  0  0  0  0  0  0  0  0
   -8.0354   -4.2515   -4.8570 N   0  0  0  0  0  0  0  0  0  0  0  0
   -8.6368   -4.7018   -5.9795 C   0  0  0  0  0  0  0  0  0  0  0  0
   -8.1581   -5.8605   -6.6375 C   0  0  0  0  0  0  0  0  0  0  0  0
  -10.0106   -6.7312   -9.4796 H   0  0  0  0  0  0  0  0  0  0  0  0
   -9.6591   -5.0723   -9.0034 H   0  0  0  0  0  0  0  0  0  0  0  0
  -10.7184   -6.0646   -8.0134 H   0  0  0  0  0  0  0  0  0  0  0  0
   -8.0024   -8.3379   -8.9244 H   0  0  0  0  0  0  0  0  0  0  0  0
   -5.5673   -6.4866   -4.4446 H   0  0  0  0  0  0  0  0  0  0  0  0
   -6.5840   -4.3567   -3.4031 H   0  0  0  0  0  0  0  0  0  0  0  0
   -9.4948   -4.1347   -6.3171 H   0  0  0  0  0  0  0  0  0  0  0  0
   -8.4147   -3.4155   -4.4089 H   0  0  0  0  0  0  0  0  0  0  0  0
  1  2  1  0
  1 11  1  0
  1 12  1  0
  1 13  1  0
  2 10  1  0
  2  3  2  0
  3  4  1  0
  3 14  1  0
  4  5  1  0
  5 10  2  0
  5  6  1  0
  6  7  2  0
  6 15  1  0
  7  8  1  0
  7 16  1  0
  8  9  2  0
  8 18  1  0
  9 10  1  0
  9 17  1  0
M  CHG  1   8   1
M  END
>  <i_m_ct_stereo_status>  (22) 
1

>  <s_m_source_file>  (22) 
/var/tmp/pbs.5076255.sched01/tmp5ffkvrn0/0o5bi62ha.sdf

>  <i_m_source_file_index>  (22) 
13

>  <i_lp_mmshare_version>  (22) 
48012

>  <i_f3d_flags>  (22) 
0

>  <s_epik_input>  (22) 
czFbY0hdYyhbQ0gzXSljKGMxMilbY0hdbltjSF1bY0hdMg==

>  <s_epik_cmdline>  (22) 
J2VwaWtfcHl0aG9uJywgJy1waHQnLCAnMi4wJywgJy1waCcsICc3LjAnLCAnLXRuJywgJzgnLCAnLW1hJywgJzIwMCcsICctaW1hZScsICc8aW5maWxlLm1hZT4nLCAnLW9tYWUnLCAnPG91dGZpbGUubWFlPic=

>  <r_epik_Ionization_Penalty>  (22) 
1.4541

>  <r_epik_Ionization_Penalty_Charging>  (22) 
1.4541

>  <r_epik_Ionization_Penalty_Neutral>  (22) 
0

>  <r_epik_State_Penalty>  (22) 
1.54055

>  <r_epik_Charging_Adjusted_Penalty>  (22) 
2.99465

>  <i_epik_Tot_Q>  (22) 
1

>  <i_epik_Tot_abs_Q>  (22) 
1

>  <s_lp_Force_Field>  (22) 
OPLS3e

>  <r_lp_Energy>  (22) 
17.3759

>  <b_lp_Chiralities_Consistent>  (22) 
1

>  <s_lp_Variant>  (22) 
8:0-2

>  <s_i_glide_gridfile>  (22) 
pfpi4k_grid

>  <i_i_glide_lignum>  (22) 
13

>  <i_i_glide_rotatable_bonds>  (22) 
0

>  <r_i_docking_score>  (22) 
-5.72708

>  <r_i_glide_ligand_efficiency>  (22) 
-0.572708

>  <r_i_glide_ligand_efficiency_sa>  (22) 
-1.23386

>  <r_i_glide_ligand_efficiency_ln>  (22) 
-1.73412

>  <r_i_glide_gscore>  (22) 
-5.72708

>  <r_i_glide_lipo>  (22) 
-1.99174

>  <r_i_glide_hbond>  (22) 
0

>  <r_i_glide_metal>  (22) 
-0

>  <r_i_glide_rewards>  (22) 
-2.78333

>  <r_i_glide_evdw>  (22) 
-18.3684

>  <r_i_glide_ecoul>  (22) 
-0.223872

>  <r_i_glide_erotb>  (22) 
0

>  <r_i_glide_esite>  (22) 
0

>  <r_i_glide_emodel>  (22) 
-27.0856

>  <r_i_glide_energy>  (22) 
-18.5923

>  <r_i_glide_einternal>  (22) 
0

>  <r_i_glide_intrahb_reward>  (22) 
-0

>  <i_i_glide_confnum>  (22) 
2

>  <i_i_glide_posenum>  (22) 
16

>  <r_i_glide_eff_state_penalty>  (22) 
0

>  <ligand_id>  (22) 
8

>  <original_smiles>  (22) 
Cc1csc2ccncc12

>  <smiles>  (22) 
[H]c1sc2c([H])c([H])[n+]([H])c([H])c2c1C([H])([H])[H]

$$$$
8:1:1
     RDKit          3D

 18 19  0  0  1  0  0  0  0  0999 V2000
   -5.9307   -5.6405   -4.8513 C   0  0  0  0  0  0  0  0  0  0  0  0
   -6.9726   -5.9702   -5.8752 C   0  0  0  0  0  0  0  0  0  0  0  0
   -6.9499   -7.0697   -6.7007 C   0  0  0  0  0  0  0  0  0  0  0  0
   -8.2761   -7.1620   -7.8210 S   0  0  0  0  0  0  0  0  0  0  0  0
   -8.9690   -5.6842   -7.1675 C   0  0  0  0  0  0  0  0  0  0  0  0
  -10.1646   -5.0394   -7.5356 C   0  0  0  0  0  0  0  0  0  0  0  0
  -10.5131   -3.8417   -6.8830 C   0  0  0  0  0  0  0  0  0  0  0  0
   -9.7223   -3.3434   -5.9197 N   0  0  0  0  0  0  0  0  0  0  0  0
   -8.5778   -3.9481   -5.5224 C   0  0  0  0  0  0  0  0  0  0  0  0
   -8.1409   -5.1538   -6.1275 C   0  0  0  0  0  0  0  0  0  0  0  0
   -5.1307   -6.3788   -4.8255 H   0  0  0  0  0  0  0  0  0  0  0  0
   -6.3677   -5.5882   -3.8542 H   0  0  0  0  0  0  0  0  0  0  0  0
   -5.4786   -4.6701   -5.0582 H   0  0  0  0  0  0  0  0  0  0  0  0
   -6.1939   -7.8464   -6.7269 H   0  0  0  0  0  0  0  0  0  0  0  0
  -10.8043   -5.4611   -8.2976 H   0  0  0  0  0  0  0  0  0  0  0  0
  -11.3938   -3.2575   -7.0852 H   0  0  0  0  0  0  0  0  0  0  0  0
   -8.0235   -3.4646   -4.7333 H   0  0  0  0  0  0  0  0  0  0  0  0
  -10.0235   -2.4653   -5.4719 H   0  0  0  0  0  0  0  0  0  0  0  0
  1  2  1  0
  1 11  1  0
  1 12  1  0
  1 13  1  0
  2 10  1  0
  2  3  2  0
  3  4  1  0
  3 14  1  0
  4  5  1  0
  5 10  2  0
  5  6  1  0
  6  7  2  0
  6 15  1  0
  7  8  1  0
  7 16  1  0
  8  9  2  0
  8 18  1  0
  9 10  1  0
  9 17  1  0
M  CHG  1   8   1
M  END
>  <i_m_ct_stereo_status>  (23) 
1

>  <s_m_source_file>  (23) 
/var/tmp/pbs.5076255.sched01/tmp5ffkvrn0/0o5bi62ha.sdf

>  <i_m_source_file_index>  (23) 
13

>  <i_lp_mmshare_version>  (23) 
48012

>  <i_f3d_flags>  (23) 
0

>  <s_epik_input>  (23) 
czFbY0hdYyhbQ0gzXSljKGMxMilbY0hdbltjSF1bY0hdMg==

>  <s_epik_cmdline>  (23) 
J2VwaWtfcHl0aG9uJywgJy1waHQnLCAnMi4wJywgJy1waCcsICc3LjAnLCAnLXRuJywgJzgnLCAnLW1hJywgJzIwMCcsICctaW1hZScsICc8aW5maWxlLm1hZT4nLCAnLW9tYWUnLCAnPG91dGZpbGUubWFlPic=

>  <r_epik_Ionization_Penalty>  (23) 
1.4541

>  <r_epik_Ionization_Penalty_Charging>  (23) 
1.4541

>  <r_epik_Ionization_Penalty_Neutral>  (23) 
0

>  <r_epik_State_Penalty>  (23) 
1.54055

>  <r_epik_Charging_Adjusted_Penalty>  (23) 
2.99465

>  <i_epik_Tot_Q>  (23) 
1

>  <i_epik_Tot_abs_Q>  (23) 
1

>  <s_lp_Force_Field>  (23) 
OPLS3e

>  <r_lp_Energy>  (23) 
17.3759

>  <b_lp_Chiralities_Consistent>  (23) 
1

>  <s_lp_Variant>  (23) 
8:0-2

>  <s_i_glide_gridfile>  (23) 
pfpi4k_grid

>  <i_i_glide_lignum>  (23) 
13

>  <i_i_glide_rotatable_bonds>  (23) 
0

>  <r_i_docking_score>  (23) 
-5.60343

>  <r_i_glide_ligand_efficiency>  (23) 
-0.560343

>  <r_i_glide_ligand_efficiency_sa>  (23) 
-1.20722

>  <r_i_glide_ligand_efficiency_ln>  (23) 
-1.69668

>  <r_i_glide_gscore>  (23) 
-5.60343

>  <r_i_glide_lipo>  (23) 
-1.75908

>  <r_i_glide_hbond>  (23) 
-0.2

>  <r_i_glide_metal>  (23) 
-0

>  <r_i_glide_rewards>  (23) 
-2.61667

>  <r_i_glide_evdw>  (23) 
-17.238

>  <r_i_glide_ecoul>  (23) 
-1.10522

>  <r_i_glide_erotb>  (23) 
0

>  <r_i_glide_esite>  (23) 
0

>  <r_i_glide_emodel>  (23) 
-26.6453

>  <r_i_glide_energy>  (23) 
-18.3432

>  <r_i_glide_einternal>  (23) 
0

>  <r_i_glide_intrahb_reward>  (23) 
-0

>  <i_i_glide_confnum>  (23) 
1

>  <i_i_glide_posenum>  (23) 
9

>  <r_i_glide_eff_state_penalty>  (23) 
0

>  <ligand_id>  (23) 
8

>  <original_smiles>  (23) 
Cc1csc2ccncc12

>  <smiles>  (23) 
[H]c1sc2c([H])c([H])[n+]([H])c([H])c2c1C([H])([H])[H]

$$$$
8:1:2
     RDKit          3D

 18 19  0  0  1  0  0  0  0  0999 V2000
   -5.6635   -6.1613   -4.6510 C   0  0  0  0  0  0  0  0  0  0  0  0
   -5.7818   -7.3825   -5.5055 C   0  0  0  0  0  0  0  0  0  0  0  0
   -4.9884   -8.5021   -5.3972 C   0  0  0  0  0  0  0  0  0  0  0  0
   -5.3886   -9.7742   -6.5149 S   0  0  0  0  0  0  0  0  0  0  0  0
   -6.6761   -8.8016   -7.2130 C   0  0  0  0  0  0  0  0  0  0  0  0
   -7.5529   -9.1316   -8.2640 C   0  0  0  0  0  0  0  0  0  0  0  0
   -8.5330   -8.2017   -8.6559 C   0  0  0  0  0  0  0  0  0  0  0  0
   -8.6105   -7.0154   -8.0187 N   0  0  0  0  0  0  0  0  0  0  0  0
   -7.7842   -6.6588   -7.0051 C   0  0  0  0  0  0  0  0  0  0  0  0
   -6.7705   -7.5381   -6.5518 C   0  0  0  0  0  0  0  0  0  0  0  0
   -4.8631   -6.2595   -3.9224 H   0  0  0  0  0  0  0  0  0  0  0  0
   -6.5882   -5.9782   -4.1009 H   0  0  0  0  0  0  0  0  0  0  0  0
   -5.4596   -5.2753   -5.2544 H   0  0  0  0  0  0  0  0  0  0  0  0
   -4.1749   -8.6650   -4.7000 H   0  0  0  0  0  0  0  0  0  0  0  0
   -7.4758  -10.0887   -8.7566 H   0  0  0  0  0  0  0  0  0  0  0  0
   -9.2507   -8.3700   -9.4462 H   0  0  0  0  0  0  0  0  0  0  0  0
   -7.9507   -5.6830   -6.5708 H   0  0  0  0  0  0  0  0  0  0  0  0
   -9.3342   -6.3542   -8.3059 H   0  0  0  0  0  0  0  0  0  0  0  0
  1  2  1  0
  1 11  1  0
  1 12  1  0
  1 13  1  0
  2 10  1  0
  2  3  2  0
  3  4  1  0
  3 14  1  0
  4  5  1  0
  5 10  2  0
  5  6  1  0
  6  7  2  0
  6 15  1  0
  7  8  1  0
  7 16  1  0
  8  9  2  0
  8 18  1  0
  9 10  1  0
  9 17  1  0
M  CHG  1   8   1
M  END
>  <i_m_ct_stereo_status>  (24) 
1

>  <s_m_source_file>  (24) 
/var/tmp/pbs.5076255.sched01/tmp5ffkvrn0/0o5bi62ha.sdf

>  <i_m_source_file_index>  (24) 
13

>  <i_lp_mmshare_version>  (24) 
48012

>  <i_f3d_flags>  (24) 
0

>  <s_epik_input>  (24) 
czFbY0hdYyhbQ0gzXSljKGMxMilbY0hdbltjSF1bY0hdMg==

>  <s_epik_cmdline>  (24) 
J2VwaWtfcHl0aG9uJywgJy1waHQnLCAnMi4wJywgJy1waCcsICc3LjAnLCAnLXRuJywgJzgnLCAnLW1hJywgJzIwMCcsICctaW1hZScsICc8aW5maWxlLm1hZT4nLCAnLW9tYWUnLCAnPG91dGZpbGUubWFlPic=

>  <r_epik_Ionization_Penalty>  (24) 
1.4541

>  <r_epik_Ionization_Penalty_Charging>  (24) 
1.4541

>  <r_epik_Ionization_Penalty_Neutral>  (24) 
0

>  <r_epik_State_Penalty>  (24) 
1.54055

>  <r_epik_Charging_Adjusted_Penalty>  (24) 
2.99465

>  <i_epik_Tot_Q>  (24) 
1

>  <i_epik_Tot_abs_Q>  (24) 
1

>  <s_lp_Force_Field>  (24) 
OPLS3e

>  <r_lp_Energy>  (24) 
17.3759

>  <b_lp_Chiralities_Consistent>  (24) 
1

>  <s_lp_Variant>  (24) 
8:0-2

>  <s_i_glide_gridfile>  (24) 
pfpi4k_grid

>  <i_i_glide_lignum>  (24) 
13

>  <i_i_glide_rotatable_bonds>  (24) 
0

>  <r_i_docking_score>  (24) 
-5.47213

>  <r_i_glide_ligand_efficiency>  (24) 
-0.547213

>  <r_i_glide_ligand_efficiency_sa>  (24) 
-1.17893

>  <r_i_glide_ligand_efficiency_ln>  (24) 
-1.65692

>  <r_i_glide_gscore>  (24) 
-5.47213

>  <r_i_glide_lipo>  (24) 
-1.84221

>  <r_i_glide_hbond>  (24) 
0

>  <r_i_glide_metal>  (24) 
-0

>  <r_i_glide_rewards>  (24) 
-2.54167

>  <r_i_glide_evdw>  (24) 
-17.5279

>  <r_i_glide_ecoul>  (24) 
-1.4124

>  <r_i_glide_erotb>  (24) 
0

>  <r_i_glide_esite>  (24) 
0

>  <r_i_glide_emodel>  (24) 
-27.0617

>  <r_i_glide_energy>  (24) 
-18.9403

>  <r_i_glide_einternal>  (24) 
0

>  <r_i_glide_intrahb_reward>  (24) 
-0

>  <i_i_glide_confnum>  (24) 
2

>  <i_i_glide_posenum>  (24) 
18

>  <r_i_glide_eff_state_penalty>  (24) 
0

>  <ligand_id>  (24) 
8

>  <original_smiles>  (24) 
Cc1csc2ccncc12

>  <smiles>  (24) 
[H]c1sc2c([H])c([H])[n+]([H])c([H])c2c1C([H])([H])[H]

$$$$
9:0:0
     RDKit          3D

 89 94  0  0  1  0  0  0  0  0999 V2000
    0.6588    2.1495    5.2007 C   0  0  0  0  0  0  0  0  0  0  0  0
    1.1078    0.9896    6.1308 C   0  0  0  0  0  0  0  0  0  0  0  0
    1.7701    1.5923    7.3966 C   0  0  0  0  0  0  0  0  0  0  0  0
   -0.1156    0.1519    6.6012 C   0  0  1  0  0  0  0  0  0  0  0  0
   -1.1113    0.9275    7.2462 O   0  0  0  0  0  0  0  0  0  0  0  0
   -0.7853   -0.5995    5.4501 C   0  0  0  0  0  0  0  0  0  0  0  0
    0.2097   -1.5537    4.7915 C   0  0  0  0  0  0  0  0  0  0  0  0
    1.5147   -0.8629    4.2969 C   0  0  1  0  0  0  0  0  0  0  0  0
    2.1305    0.0351    5.4083 C   0  0  1  0  0  0  0  0  0  0  0  0
    3.3344    0.7853    4.8038 C   0  0  0  0  0  0  0  0  0  0  0  0
    4.4224   -0.1800    4.3372 C   0  0  0  0  0  0  0  0  0  0  0  0
    3.9593   -1.2609    3.3102 C   0  0  1  0  0  0  0  0  0  0  0  0
    4.0111   -0.5179    1.9361 C   0  0  0  0  0  0  0  0  0  0  0  0
    4.9428   -2.4937    3.4183 C   0  0  2  0  0  0  0  0  0  0  0  0
    5.2967   -3.1507    2.0289 C   0  0  0  0  0  0  0  0  0  0  0  0
    5.5624   -4.6676    1.9372 C   0  0  1  0  0  0  0  0  0  0  0  0
    6.9310   -5.0061    2.0799 O   0  0  0  0  0  0  0  0  0  0  0  0
    4.6128   -5.4008    2.8953 C   0  0  1  0  0  0  0  0  0  0  0  0
    4.3425   -6.9196    2.6588 C   0  0  1  0  0  0  0  0  0  0  0  0
    4.5909   -7.5944    1.3054 C   0  0  0  0  0  0  0  0  0  0  0  0
    4.3574   -9.0906    1.6054 C   0  0  1  0  0  0  0  0  0  0  0  0
    5.3807   -9.8514    1.0029 O   0  0  0  0  0  0  0  0  0  0  0  0
    4.2749   -9.2602    3.1635 C   0  0  0  0  0  0  0  0  0  0  0  0
    2.7764   -9.4712    3.5364 C   0  0  0  0  0  0  0  0  0  0  0  0
    4.9966  -10.5226    3.6980 C   0  0  0  0  0  0  0  0  0  0  0  0
    4.8816   -7.9074    3.7124 C   0  0  1  0  0  0  0  0  0  0  0  0
    6.4372   -7.9912    3.6661 C   0  0  0  0  0  0  0  0  0  0  0  0
    4.4276   -7.4657    5.1461 C   0  0  0  0  0  0  0  0  0  0  0  0
    4.0076   -5.9825    5.2780 C   0  0  0  0  0  0  0  0  0  0  0  0
    3.1216   -5.6594    6.0701 O   0  0  0  0  0  0  0  0  0  0  0  0
    4.7587   -4.9536    4.3862 C   0  0  1  0  0  0  0  0  0  0  0  0
    6.1155   -5.0454    4.7863 O   0  0  0  0  0  0  0  0  0  0  0  0
    4.3719   -3.4232    4.5670 C   0  0  1  0  0  0  0  0  0  0  0  0
    4.8916   -2.9671    5.9790 C   0  0  0  0  0  0  0  0  0  0  0  0
    2.8480   -3.1204    4.5302 C   0  0  0  0  0  0  0  0  0  0  0  0
    2.5419   -1.8749    3.6445 C   0  0  1  0  0  0  0  0  0  0  0  0
    1.8583   -2.4102    2.3591 C   0  0  0  0  0  0  0  0  0  0  0  0
   -0.1241    2.7583    5.6574 H   0  0  0  0  0  0  0  0  0  0  0  0
    0.2712    1.7806    4.2506 H   0  0  0  0  0  0  0  0  0  0  0  0
    1.4841    2.8235    4.9687 H   0  0  0  0  0  0  0  0  0  0  0  0
    2.1510    0.8050    8.0511 H   0  0  0  0  0  0  0  0  0  0  0  0
    1.0735    2.1927    7.9826 H   0  0  0  0  0  0  0  0  0  0  0  0
    2.6046    2.2489    7.1559 H   0  0  0  0  0  0  0  0  0  0  0  0
    0.2228   -0.5785    7.3358 H   0  0  0  0  0  0  0  0  0  0  0  0
   -0.6811    1.5016    7.8641 H   0  0  0  0  0  0  0  0  0  0  0  0
   -1.6327   -1.1740    5.8240 H   0  0  0  0  0  0  0  0  0  0  0  0
   -1.1963    0.0936    4.7169 H   0  0  0  0  0  0  0  0  0  0  0  0
    0.4328   -2.3360    5.5129 H   0  0  0  0  0  0  0  0  0  0  0  0
   -0.3116   -2.0357    3.9682 H   0  0  0  0  0  0  0  0  0  0  0  0
    1.2097   -0.1859    3.4939 H   0  0  0  0  0  0  0  0  0  0  0  0
    2.5206   -0.6288    6.1769 H   0  0  0  0  0  0  0  0  0  0  0  0
    3.0266    1.4173    3.9680 H   0  0  0  0  0  0  0  0  0  0  0  0
    3.7879    1.4534    5.5337 H   0  0  0  0  0  0  0  0  0  0  0  0
    5.2278    0.4123    3.9038 H   0  0  0  0  0  0  0  0  0  0  0  0
    4.8846   -0.5950    5.2194 H   0  0  0  0  0  0  0  0  0  0  0  0
    3.6947   -1.1010    1.0753 H   0  0  0  0  0  0  0  0  0  0  0  0
    5.0195   -0.1711    1.7076 H   0  0  0  0  0  0  0  0  0  0  0  0
    3.3606    0.3556    1.9351 H   0  0  0  0  0  0  0  0  0  0  0  0
    5.8975   -2.1109    3.7564 H   0  0  0  0  0  0  0  0  0  0  0  0
    4.4860   -3.0050    1.3303 H   0  0  0  0  0  0  0  0  0  0  0  0
    6.1301   -2.6135    1.5777 H   0  0  0  0  0  0  0  0  0  0  0  0
    5.3161   -4.9674    0.9155 H   0  0  0  0  0  0  0  0  0  0  0  0
    7.0328   -5.9422    1.9734 H   0  0  0  0  0  0  0  0  0  0  0  0
    3.6584   -4.9777    2.5941 H   0  0  0  0  0  0  0  0  0  0  0  0
    3.2586   -6.9511    2.7567 H   0  0  0  0  0  0  0  0  0  0  0  0
    3.9203   -7.2106    0.5339 H   0  0  0  0  0  0  0  0  0  0  0  0
    5.6144   -7.4083    0.9736 H   0  0  0  0  0  0  0  0  0  0  0  0
    3.4294   -9.4062    1.1282 H   0  0  0  0  0  0  0  0  0  0  0  0
    5.0247  -10.7256    0.8299 H   0  0  0  0  0  0  0  0  0  0  0  0
    2.6408   -9.6702    4.6016 H   0  0  0  0  0  0  0  0  0  0  0  0
    2.3759  -10.3469    3.0167 H   0  0  0  0  0  0  0  0  0  0  0  0
    2.1285   -8.6347    3.2704 H   0  0  0  0  0  0  0  0  0  0  0  0
    4.9699  -10.5538    4.7863 H   0  0  0  0  0  0  0  0  0  0  0  0
    6.0412  -10.5848    3.3991 H   0  0  0  0  0  0  0  0  0  0  0  0
    4.5168  -11.4329    3.3361 H   0  0  0  0  0  0  0  0  0  0  0  0
    6.8180   -8.6013    4.4831 H   0  0  0  0  0  0  0  0  0  0  0  0
    6.9465   -7.0408    3.7278 H   0  0  0  0  0  0  0  0  0  0  0  0
    6.7987   -8.4487    2.7472 H   0  0  0  0  0  0  0  0  0  0  0  0
    3.5993   -8.0669    5.5091 H   0  0  0  0  0  0  0  0  0  0  0  0
    5.2332   -7.6459    5.8545 H   0  0  0  0  0  0  0  0  0  0  0  0
    6.4229   -5.9159    4.5906 H   0  0  0  0  0  0  0  0  0  0  0  0
    4.8431   -3.7659    6.7195 H   0  0  0  0  0  0  0  0  0  0  0  0
    4.3111   -2.1595    6.4219 H   0  0  0  0  0  0  0  0  0  0  0  0
    5.9350   -2.6480    5.9441 H   0  0  0  0  0  0  0  0  0  0  0  0
    2.2910   -3.9851    4.1727 H   0  0  0  0  0  0  0  0  0  0  0  0
    2.4852   -2.9751    5.5446 H   0  0  0  0  0  0  0  0  0  0  0  0
    2.4844   -3.0793    1.7792 H   0  0  0  0  0  0  0  0  0  0  0  0
    1.5249   -1.6068    1.6956 H   0  0  0  0  0  0  0  0  0  0  0  0
    0.9858   -3.0079    2.6006 H   0  0  0  0  0  0  0  0  0  0  0  0
  1  2  1  0
  1 38  1  0
  1 39  1  0
  1 40  1  0
  2  9  1  0
  2  3  1  0
  2  4  1  0
  3 41  1  0
  3 42  1  0
  3 43  1  0
  4  5  1  0
  4  6  1  0
  4 44  1  1
  5 45  1  0
  6  7  1  0
  6 46  1  0
  6 47  1  0
  7  8  1  0
  7 48  1  0
  7 49  1  0
  8 36  1  0
  8  9  1  0
  8 50  1  6
  9 10  1  0
  9 51  1  1
 10 11  1  0
 10 52  1  0
 10 53  1  0
 11 12  1  0
 11 54  1  0
 11 55  1  0
 12 36  1  0
 12 13  1  6
 12 14  1  0
 13 56  1  0
 13 57  1  0
 13 58  1  0
 14 33  1  0
 14 15  1  0
 14 59  1  1
 15 16  1  0
 15 60  1  0
 15 61  1  0
 16 17  1  0
 16 18  1  0
 16 62  1  6
 17 63  1  0
 18 31  1  0
 18 19  1  0
 18 64  1  6
 19 26  1  0
 19 20  1  0
 19 65  1  1
 20 21  1  0
 20 66  1  0
 20 67  1  0
 21 22  1  0
 21 23  1  0
 21 68  1  6
 22 69  1  0
 23 24  1  0
 23 25  1  0
 23 26  1  0
 24 70  1  0
 24 71  1  0
 24 72  1  0
 25 73  1  0
 25 74  1  0
 25 75  1  0
 26 27  1  1
 26 28  1  0
 27 76  1  0
 27 77  1  0
 27 78  1  0
 28 29  1  0
 28 79  1  0
 28 80  1  0
 29 30  2  0
 29 31  1  0
 31 32  1  1
 31 33  1  0
 32 81  1  0
 33 34  1  1
 33 35  1  0
 34 82  1  0
 34 83  1  0
 34 84  1  0
 35 36  1  0
 35 85  1  0
 35 86  1  0
 36 37  1  6
 37 87  1  0
 37 88  1  0
 37 89  1  0
M  END
>  <i_m_ct_stereo_status>  (25) 
1

>  <s_m_source_file>  (25) 
/var/tmp/pbs.5076255.sched01/tmp5ffkvrn0/0o5bi62ha.sdf

>  <i_m_source_file_index>  (25) 
14

>  <i_lp_mmshare_version>  (25) 
48012

>  <i_f3d_flags>  (25) 
0

>  <s_epik_input>  (25) 
W0NIMl0xW0NIMl1bQ0BIXShbT0hdKUMoW0NIM10pKFtDSDNdKVtDQEhdKFtDSDJdW0NIMl0yKVtDQEhdMVtDQF0zKFtDSDNdKVtDSDJdW0NAXShbQ0gzXSkoW0NAQEhdNFtDQF0yM1tDSDNdKVtDQF01KFtPSF0pW0NAQEhdKFtDQEBIXShbQ0gyXTQpW09IXSlbQ0BASF02W0NAQF0oW0NIM10pKFtDSDJdQzU9TylDKFtDSDNdKShbQ0gzXSlbQ0BASF0oW0NIMl02KVtPSF0=

>  <s_epik_cmdline>  (25) 
J2VwaWtfcHl0aG9uJywgJy1waHQnLCAnMi4wJywgJy1waCcsICc3LjAnLCAnLXRuJywgJzgnLCAnLW1hJywgJzIwMCcsICctaW1hZScsICc8aW5maWxlLm1hZT4nLCAnLW9tYWUnLCAnPG91dGZpbGUubWFlPic=

>  <r_lp_tautomer_probability>  (25) 
1

>  <r_epik_Ionization_Penalty>  (25) 
4.60828e-06

>  <r_epik_Ionization_Penalty_Charging>  (25) 
0

>  <r_epik_Ionization_Penalty_Neutral>  (25) 
4.60828e-06

>  <r_epik_State_Penalty>  (25) 
-0

>  <r_epik_Charging_Adjusted_Penalty>  (25) 
0

>  <i_epik_Tot_Q>  (25) 
0

>  <i_epik_Tot_abs_Q>  (25) 
0

>  <s_lp_Force_Field>  (25) 
OPLS3e

>  <r_lp_Energy>  (25) 
110.66

>  <b_lp_Chiralities_Consistent>  (25) 
1

>  <s_lp_Variant>  (25) 
9:0-1

>  <s_i_glide_gridfile>  (25) 
pfpi4k_grid

>  <i_i_glide_lignum>  (25) 
14

>  <i_i_glide_rotatable_bonds>  (25) 
4

>  <r_i_docking_score>  (25) 
-2.8619

>  <r_i_glide_ligand_efficiency>  (25) 
-0.0773486

>  <r_i_glide_ligand_efficiency_sa>  (25) 
-0.257743

>  <r_i_glide_ligand_efficiency_ln>  (25) 
-0.620678

>  <r_i_glide_gscore>  (25) 
-2.8619

>  <r_i_glide_lipo>  (25) 
-0.307062

>  <r_i_glide_hbond>  (25) 
-0.240838

>  <r_i_glide_metal>  (25) 
-0

>  <r_i_glide_rewards>  (25) 
0

>  <r_i_glide_evdw>  (25) 
-23.8903

>  <r_i_glide_ecoul>  (25) 
-7.46321

>  <r_i_glide_erotb>  (25) 
0

>  <r_i_glide_esite>  (25) 
0

>  <r_i_glide_emodel>  (25) 
-35.9617

>  <r_i_glide_energy>  (25) 
-31.3535

>  <r_i_glide_einternal>  (25) 
3.18393

>  <r_i_glide_intrahb_reward>  (25) 
-0

>  <i_i_glide_confnum>  (25) 
2

>  <i_i_glide_posenum>  (25) 
7

>  <r_i_glide_eff_state_penalty>  (25) 
0

>  <ligand_id>  (25) 
9

>  <original_smiles>  (25) 
CC1(C)C(O)CCC2C1CCC1(C)C3CC(O)C4C5CC(O)C(C)(C)C5(C)CC(=O)C4(O)C3(C)CC21C

>  <smiles>  (25) 
[H]OC1([H])C([H])([H])C2([H])C(C([H])([H])[H])(C([H])([H])C3(C([H])([H])[H])C4([H])C([H])([H])C([H])([H])C([H])(O[H])C(C([H])([H])[H])(C([H])([H])[H])C4([H])C([H])([H])C([H])([H])C23C([H])([H])[H])C2(O[H])C(=O)C([H])([H])C3(C([H])([H])[H])C([H])(C([H])([H])C([H])(O[H])C3(C([H])([H])[H])C([H])([H])[H])C12[H]

$$$$
9:0:1
     RDKit          3D

 89 94  0  0  1  0  0  0  0  0999 V2000
    1.6908    3.5792    3.5762 C   0  0  0  0  0  0  0  0  0  0  0  0
    0.8335    2.4426    4.1892 C   0  0  0  0  0  0  0  0  0  0  0  0
    0.2078    2.9460    5.5149 C   0  0  0  0  0  0  0  0  0  0  0  0
   -0.3451    2.0698    3.2396 C   0  0  1  0  0  0  0  0  0  0  0  0
   -1.1385    3.1874    2.8803 O   0  0  0  0  0  0  0  0  0  0  0  0
    0.1438    1.4183    1.9509 C   0  0  0  0  0  0  0  0  0  0  0  0
    0.9409    0.1517    2.2441 C   0  0  0  0  0  0  0  0  0  0  0  0
    2.1401    0.3702    3.2086 C   0  0  1  0  0  0  0  0  0  0  0  0
    1.6946    1.1553    4.4777 C   0  0  1  0  0  0  0  0  0  0  0  0
    2.9523    1.4457    5.3163 C   0  0  0  0  0  0  0  0  0  0  0  0
    3.6251    0.1609    5.7863 C   0  0  0  0  0  0  0  0  0  0  0  0
    4.0220   -0.8403    4.6569 C   0  0  1  0  0  0  0  0  0  0  0  0
    5.3900   -0.2806    4.1402 C   0  0  0  0  0  0  0  0  0  0  0  0
    4.0982   -2.2812    5.2926 C   0  0  2  0  0  0  0  0  0  0  0  0
    5.2797   -3.1457    4.7191 C   0  0  0  0  0  0  0  0  0  0  0  0
    5.1182   -4.6671    4.6010 C   0  0  1  0  0  0  0  0  0  0  0  0
    5.5119   -5.2855    5.8101 O   0  0  0  0  0  0  0  0  0  0  0  0
    3.6897   -4.9961    4.1406 C   0  0  1  0  0  0  0  0  0  0  0  0
    3.4046   -6.3842    3.4828 C   0  0  1  0  0  0  0  0  0  0  0  0
    4.5065   -7.2364    2.8526 C   0  0  0  0  0  0  0  0  0  0  0  0
    3.7867   -8.5598    2.4959 C   0  0  1  0  0  0  0  0  0  0  0  0
    4.6103   -9.6489    2.8673 O   0  0  0  0  0  0  0  0  0  0  0  0
    2.3818   -8.5357    3.2048 C   0  0  0  0  0  0  0  0  0  0  0  0
    1.3188   -8.2513    2.1072 C   0  0  0  0  0  0  0  0  0  0  0  0
    1.9629   -9.8982    3.8223 C   0  0  0  0  0  0  0  0  0  0  0  0
    2.5226   -7.3762    4.2682 C   0  0  1  0  0  0  0  0  0  0  0  0
    3.2692   -7.9197    5.5203 C   0  0  0  0  0  0  0  0  0  0  0  0
    1.2001   -6.6749    4.7232 C   0  0  0  0  0  0  0  0  0  0  0  0
    1.2446   -5.1307    4.7647 C   0  0  0  0  0  0  0  0  0  0  0  0
    0.2263   -4.4796    4.5302 O   0  0  0  0  0  0  0  0  0  0  0  0
    2.6036   -4.4653    5.1299 C   0  0  1  0  0  0  0  0  0  0  0  0
    2.8894   -4.9043    6.4498 O   0  0  0  0  0  0  0  0  0  0  0  0
    2.6312   -2.8776    5.2078 C   0  0  1  0  0  0  0  0  0  0  0  0
    1.7760   -2.4521    6.4524 C   0  0  0  0  0  0  0  0  0  0  0  0
    2.0253   -2.1471    3.9727 C   0  0  0  0  0  0  0  0  0  0  0  0
    2.9335   -0.9696    3.5122 C   0  0  1  0  0  0  0  0  0  0  0  0
    3.5729   -1.4050    2.1578 C   0  0  0  0  0  0  0  0  0  0  0  0
    1.0822    4.4381    3.2874 H   0  0  0  0  0  0  0  0  0  0  0  0
    2.2271    3.2497    2.6855 H   0  0  0  0  0  0  0  0  0  0  0  0
    2.4339    3.9503    4.2827 H   0  0  0  0  0  0  0  0  0  0  0  0
   -0.3599    2.1554    6.0062 H   0  0  0  0  0  0  0  0  0  0  0  0
   -0.4754    3.7802    5.3471 H   0  0  0  0  0  0  0  0  0  0  0  0
    0.9589    3.3030    6.2194 H   0  0  0  0  0  0  0  0  0  0  0  0
   -0.9984    1.3610    3.7491 H   0  0  0  0  0  0  0  0  0  0  0  0
   -0.6667    3.6779    2.2062 H   0  0  0  0  0  0  0  0  0  0  0  0
   -0.7091    1.1657    1.3194 H   0  0  0  0  0  0  0  0  0  0  0  0
    0.7432    2.1159    1.3691 H   0  0  0  0  0  0  0  0  0  0  0  0
    0.2440   -0.5875    2.6371 H   0  0  0  0  0  0  0  0  0  0  0  0
    1.2863   -0.2264    1.2881 H   0  0  0  0  0  0  0  0  0  0  0  0
    2.8382    1.0188    2.6731 H   0  0  0  0  0  0  0  0  0  0  0  0
    1.0627    0.4889    5.0610 H   0  0  0  0  0  0  0  0  0  0  0  0
    3.6686    2.0490    4.7568 H   0  0  0  0  0  0  0  0  0  0  0  0
    2.7025    2.0237    6.2043 H   0  0  0  0  0  0  0  0  0  0  0  0
    4.5129    0.4416    6.3524 H   0  0  0  0  0  0  0  0  0  0  0  0
    2.9927   -0.2784    6.5447 H   0  0  0  0  0  0  0  0  0  0  0  0
    5.8347   -0.8302    3.3140 H   0  0  0  0  0  0  0  0  0  0  0  0
    6.1413   -0.2664    4.9312 H   0  0  0  0  0  0  0  0  0  0  0  0
    5.2875    0.7377    3.7738 H   0  0  0  0  0  0  0  0  0  0  0  0
    4.3585   -2.1862    6.3482 H   0  0  0  0  0  0  0  0  0  0  0  0
    5.5197   -2.8403    3.7113 H   0  0  0  0  0  0  0  0  0  0  0  0
    6.1868   -2.9345    5.2870 H   0  0  0  0  0  0  0  0  0  0  0  0
    5.8161   -5.0187    3.8401 H   0  0  0  0  0  0  0  0  0  0  0  0
    6.4554   -5.2289    5.8903 H   0  0  0  0  0  0  0  0  0  0  0  0
    3.6042   -4.3479    3.2693 H   0  0  0  0  0  0  0  0  0  0  0  0
    2.8058   -6.0847    2.6238 H   0  0  0  0  0  0  0  0  0  0  0  0
    4.9452   -6.7592    1.9737 H   0  0  0  0  0  0  0  0  0  0  0  0
    5.3074   -7.4119    3.5720 H   0  0  0  0  0  0  0  0  0  0  0  0
    3.6708   -8.6264    1.4101 H   0  0  0  0  0  0  0  0  0  0  0  0
    4.2795  -10.4268    2.4368 H   0  0  0  0  0  0  0  0  0  0  0  0
    0.3007   -8.2999    2.4969 H   0  0  0  0  0  0  0  0  0  0  0  0
    1.3883   -9.0139    1.3292 H   0  0  0  0  0  0  0  0  0  0  0  0
    1.4412   -7.2929    1.6053 H   0  0  0  0  0  0  0  0  0  0  0  0
    1.0170   -9.8074    4.3564 H   0  0  0  0  0  0  0  0  0  0  0  0
    2.6904  -10.2967    4.5267 H   0  0  0  0  0  0  0  0  0  0  0  0
    1.8270  -10.6569    3.0525 H   0  0  0  0  0  0  0  0  0  0  0  0
    2.6092   -8.5279    6.1367 H   0  0  0  0  0  0  0  0  0  0  0  0
    3.6667   -7.1469    6.1624 H   0  0  0  0  0  0  0  0  0  0  0  0
    4.1166   -8.5481    5.2595 H   0  0  0  0  0  0  0  0  0  0  0  0
    0.3615   -6.9565    4.0941 H   0  0  0  0  0  0  0  0  0  0  0  0
    0.9365   -7.0192    5.7213 H   0  0  0  0  0  0  0  0  0  0  0  0
    3.8004   -4.6778    6.6277 H   0  0  0  0  0  0  0  0  0  0  0  0
    0.9359   -3.1211    6.6279 H   0  0  0  0  0  0  0  0  0  0  0  0
    1.3226   -1.4681    6.3595 H   0  0  0  0  0  0  0  0  0  0  0  0
    2.3674   -2.4614    7.3701 H   0  0  0  0  0  0  0  0  0  0  0  0
    1.8587   -2.8405    3.1493 H   0  0  0  0  0  0  0  0  0  0  0  0
    1.0271   -1.7928    4.2220 H   0  0  0  0  0  0  0  0  0  0  0  0
    4.1939   -2.2888    2.2423 H   0  0  0  0  0  0  0  0  0  0  0  0
    4.1771   -0.6132    1.7157 H   0  0  0  0  0  0  0  0  0  0  0  0
    2.8244   -1.6746    1.4173 H   0  0  0  0  0  0  0  0  0  0  0  0
  1  2  1  0
  1 38  1  0
  1 39  1  0
  1 40  1  0
  2  9  1  0
  2  3  1  0
  2  4  1  0
  3 41  1  0
  3 42  1  0
  3 43  1  0
  4  5  1  0
  4  6  1  0
  4 44  1  1
  5 45  1  0
  6  7  1  0
  6 46  1  0
  6 47  1  0
  7  8  1  0
  7 48  1  0
  7 49  1  0
  8 36  1  0
  8  9  1  0
  8 50  1  6
  9 10  1  0
  9 51  1  1
 10 11  1  0
 10 52  1  0
 10 53  1  0
 11 12  1  0
 11 54  1  0
 11 55  1  0
 12 36  1  0
 12 13  1  6
 12 14  1  0
 13 56  1  0
 13 57  1  0
 13 58  1  0
 14 33  1  0
 14 15  1  0
 14 59  1  1
 15 16  1  0
 15 60  1  0
 15 61  1  0
 16 17  1  0
 16 18  1  0
 16 62  1  6
 17 63  1  0
 18 31  1  0
 18 19  1  0
 18 64  1  6
 19 26  1  0
 19 20  1  0
 19 65  1  6
 20 21  1  0
 20 66  1  0
 20 67  1  0
 21 22  1  0
 21 23  1  0
 21 68  1  6
 22 69  1  0
 23 24  1  0
 23 25  1  0
 23 26  1  0
 24 70  1  0
 24 71  1  0
 24 72  1  0
 25 73  1  0
 25 74  1  0
 25 75  1  0
 26 27  1  1
 26 28  1  0
 27 76  1  0
 27 77  1  0
 27 78  1  0
 28 29  1  0
 28 79  1  0
 28 80  1  0
 29 30  2  0
 29 31  1  0
 31 32  1  1
 31 33  1  0
 32 81  1  0
 33 34  1  1
 33 35  1  0
 34 82  1  0
 34 83  1  0
 34 84  1  0
 35 36  1  0
 35 85  1  0
 35 86  1  0
 36 37  1  6
 37 87  1  0
 37 88  1  0
 37 89  1  0
M  END
>  <i_m_ct_stereo_status>  (26) 
1

>  <s_m_source_file>  (26) 
/var/tmp/pbs.5076255.sched01/tmp5ffkvrn0/0o5bi62ha.sdf

>  <i_m_source_file_index>  (26) 
14

>  <i_lp_mmshare_version>  (26) 
48012

>  <i_f3d_flags>  (26) 
0

>  <s_epik_input>  (26) 
W0NIMl0xW0NIMl1bQ0BIXShbT0hdKUMoW0NIM10pKFtDSDNdKVtDQEhdKFtDSDJdW0NIMl0yKVtDQEhdMVtDQF0zKFtDSDNdKVtDSDJdW0NAXShbQ0gzXSkoW0NAQEhdNFtDQF0yM1tDSDNdKVtDQF01KFtPSF0pW0NAQEhdKFtDQEBIXShbQ0gyXTQpW09IXSlbQ0BASF02W0NAQF0oW0NIM10pKFtDSDJdQzU9TylDKFtDSDNdKShbQ0gzXSlbQ0BASF0oW0NIMl02KVtPSF0=

>  <s_epik_cmdline>  (26) 
J2VwaWtfcHl0aG9uJywgJy1waHQnLCAnMi4wJywgJy1waCcsICc3LjAnLCAnLXRuJywgJzgnLCAnLW1hJywgJzIwMCcsICctaW1hZScsICc8aW5maWxlLm1hZT4nLCAnLW9tYWUnLCAnPG91dGZpbGUubWFlPic=

>  <r_lp_tautomer_probability>  (26) 
1

>  <r_epik_Ionization_Penalty>  (26) 
4.60828e-06

>  <r_epik_Ionization_Penalty_Charging>  (26) 
0

>  <r_epik_Ionization_Penalty_Neutral>  (26) 
4.60828e-06

>  <r_epik_State_Penalty>  (26) 
-0

>  <r_epik_Charging_Adjusted_Penalty>  (26) 
0

>  <i_epik_Tot_Q>  (26) 
0

>  <i_epik_Tot_abs_Q>  (26) 
0

>  <s_lp_Force_Field>  (26) 
OPLS3e

>  <r_lp_Energy>  (26) 
110.66

>  <b_lp_Chiralities_Consistent>  (26) 
1

>  <s_lp_Variant>  (26) 
9:0-1

>  <s_i_glide_gridfile>  (26) 
pfpi4k_grid

>  <i_i_glide_lignum>  (26) 
14

>  <i_i_glide_rotatable_bonds>  (26) 
4

>  <r_i_docking_score>  (26) 
-2.29149

>  <r_i_glide_ligand_efficiency>  (26) 
-0.0619322

>  <r_i_glide_ligand_efficiency_sa>  (26) 
-0.206372

>  <r_i_glide_ligand_efficiency_ln>  (26) 
-0.496971

>  <r_i_glide_gscore>  (26) 
-2.29149

>  <r_i_glide_lipo>  (26) 
-0.116872

>  <r_i_glide_hbond>  (26) 
-0.16

>  <r_i_glide_metal>  (26) 
-0

>  <r_i_glide_rewards>  (26) 
0

>  <r_i_glide_evdw>  (26) 
-26.961

>  <r_i_glide_ecoul>  (26) 
-4.43164

>  <r_i_glide_erotb>  (26) 
0

>  <r_i_glide_esite>  (26) 
-0.00182771

>  <r_i_glide_emodel>  (26) 
-35.8386

>  <r_i_glide_energy>  (26) 
-31.3926

>  <r_i_glide_einternal>  (26) 
1.06802

>  <r_i_glide_intrahb_reward>  (26) 
-0

>  <i_i_glide_confnum>  (26) 
2

>  <i_i_glide_posenum>  (26) 
14

>  <r_i_glide_eff_state_penalty>  (26) 
0

>  <ligand_id>  (26) 
9

>  <original_smiles>  (26) 
CC1(C)C(O)CCC2C1CCC1(C)C3CC(O)C4C5CC(O)C(C)(C)C5(C)CC(=O)C4(O)C3(C)CC21C

>  <smiles>  (26) 
[H]OC1([H])C([H])([H])C2([H])C(C([H])([H])[H])(C([H])([H])C3(C([H])([H])[H])C4([H])C([H])([H])C([H])([H])C([H])(O[H])C(C([H])([H])[H])(C([H])([H])[H])C4([H])C([H])([H])C([H])([H])C23C([H])([H])[H])C2(O[H])C(=O)C([H])([H])C3(C([H])([H])[H])C([H])(C([H])([H])C([H])(O[H])C3(C([H])([H])[H])C([H])([H])[H])C12[H]

$$$$
9:0:2
     RDKit          3D

 89 94  0  0  1  0  0  0  0  0999 V2000
    0.6534    1.7266    5.3849 C   0  0  0  0  0  0  0  0  0  0  0  0
   -0.2702    0.5295    5.0375 C   0  0  0  0  0  0  0  0  0  0  0  0
   -1.6702    0.7784    5.6561 C   0  0  0  0  0  0  0  0  0  0  0  0
   -0.4550    0.4270    3.4962 C   0  0  1  0  0  0  0  0  0  0  0  0
   -0.9379    1.6303    2.9284 O   0  0  0  0  0  0  0  0  0  0  0  0
    0.8366    0.0358    2.7764 C   0  0  0  0  0  0  0  0  0  0  0  0
    1.3560   -1.3068    3.2911 C   0  0  0  0  0  0  0  0  0  0  0  0
    1.5655   -1.3550    4.8324 C   0  0  1  0  0  0  0  0  0  0  0  0
    0.3071   -0.8297    5.5855 C   0  0  1  0  0  0  0  0  0  0  0  0
    0.6417   -0.7728    7.0897 C   0  0  0  0  0  0  0  0  0  0  0  0
    0.9608   -2.1570    7.6473 C   0  0  0  0  0  0  0  0  0  0  0  0
    2.1133   -2.9229    6.9234 C   0  0  1  0  0  0  0  0  0  0  0  0
    3.4084   -2.3401    7.5776 C   0  0  0  0  0  0  0  0  0  0  0  0
    1.8969   -4.4693    7.1660 C   0  0  2  0  0  0  0  0  0  0  0  0
    3.2398   -5.2600    7.4017 C   0  0  0  0  0  0  0  0  0  0  0  0
    3.3619   -6.7167    6.9170 C   0  0  1  0  0  0  0  0  0  0  0  0
    2.9637   -7.6442    7.9095 O   0  0  0  0  0  0  0  0  0  0  0  0
    2.6473   -6.8614    5.5666 C   0  0  1  0  0  0  0  0  0  0  0  0
    3.0195   -8.0681    4.6500 C   0  0  1  0  0  0  0  0  0  0  0  0
    4.3424   -8.8243    4.7909 C   0  0  0  0  0  0  0  0  0  0  0  0
    4.1836  -10.0140    3.8158 C   0  0  1  0  0  0  0  0  0  0  0  0
    4.6381  -11.1930    4.4541 O   0  0  0  0  0  0  0  0  0  0  0  0
    2.6752  -10.0593    3.3743 C   0  0  0  0  0  0  0  0  0  0  0  0
    2.5945   -9.5053    1.9225 C   0  0  0  0  0  0  0  0  0  0  0  0
    2.0967  -11.4920    3.2873 C   0  0  0  0  0  0  0  0  0  0  0  0
    1.9464   -9.1532    4.4403 C   0  0  1  0  0  0  0  0  0  0  0  0
    1.7176   -9.9801    5.7376 C   0  0  0  0  0  0  0  0  0  0  0  0
    0.5916   -8.5039    3.9969 C   0  0  0  0  0  0  0  0  0  0  0  0
    0.4504   -6.9979    4.3249 C   0  0  0  0  0  0  0  0  0  0  0  0
   -0.1842   -6.2593    3.5705 O   0  0  0  0  0  0  0  0  0  0  0  0
    1.1288   -6.4927    5.6290 C   0  0  1  0  0  0  0  0  0  0  0  0
    0.4956   -7.2122    6.6778 O   0  0  0  0  0  0  0  0  0  0  0  0
    0.9319   -4.9613    6.0086 C   0  0  1  0  0  0  0  0  0  0  0  0
   -0.5727   -4.7689    6.4141 C   0  0  0  0  0  0  0  0  0  0  0  0
    1.2288   -3.9636    4.8509 C   0  0  0  0  0  0  0  0  0  0  0  0
    2.0873   -2.7625    5.3457 C   0  0  1  0  0  0  0  0  0  0  0  0
    3.5091   -2.9442    4.7296 C   0  0  0  0  0  0  0  0  0  0  0  0
    0.3084    2.6525    4.9207 H   0  0  0  0  0  0  0  0  0  0  0  0
    1.6769    1.5608    5.0468 H   0  0  0  0  0  0  0  0  0  0  0  0
    0.6918    1.9148    6.4578 H   0  0  0  0  0  0  0  0  0  0  0  0
   -2.3363   -0.0665    5.4775 H   0  0  0  0  0  0  0  0  0  0  0  0
   -2.1499    1.6594    5.2244 H   0  0  0  0  0  0  0  0  0  0  0  0
   -1.6284    0.9538    6.7299 H   0  0  0  0  0  0  0  0  0  0  0  0
   -1.2061   -0.3317    3.2867 H   0  0  0  0  0  0  0  0  0  0  0  0
   -0.9192    1.5552    1.9849 H   0  0  0  0  0  0  0  0  0  0  0  0
    0.6503   -0.0475    1.7041 H   0  0  0  0  0  0  0  0  0  0  0  0
    1.5929    0.8098    2.8875 H   0  0  0  0  0  0  0  0  0  0  0  0
    0.6531   -2.0717    2.9694 H   0  0  0  0  0  0  0  0  0  0  0  0
    2.2853   -1.5067    2.7634 H   0  0  0  0  0  0  0  0  0  0  0  0
    2.3638   -0.6407    5.0482 H   0  0  0  0  0  0  0  0  0  0  0  0
   -0.4787   -1.5721    5.4510 H   0  0  0  0  0  0  0  0  0  0  0  0
    1.4781   -0.0994    7.2794 H   0  0  0  0  0  0  0  0  0  0  0  0
   -0.1915   -0.3728    7.6630 H   0  0  0  0  0  0  0  0  0  0  0  0
    1.2039   -2.0457    8.7049 H   0  0  0  0  0  0  0  0  0  0  0  0
    0.0355   -2.7114    7.6767 H   0  0  0  0  0  0  0  0  0  0  0  0
    4.3442   -2.7318    7.1864 H   0  0  0  0  0  0  0  0  0  0  0  0
    3.4318   -2.5290    8.6516 H   0  0  0  0  0  0  0  0  0  0  0  0
    3.4743   -1.2631    7.4368 H   0  0  0  0  0  0  0  0  0  0  0  0
    1.3734   -4.6069    8.1129 H   0  0  0  0  0  0  0  0  0  0  0  0
    4.0573   -4.7680    6.8969 H   0  0  0  0  0  0  0  0  0  0  0  0
    3.5133   -5.2055    8.4565 H   0  0  0  0  0  0  0  0  0  0  0  0
    4.4247   -6.9129    6.7708 H   0  0  0  0  0  0  0  0  0  0  0  0
    3.1111   -8.5195    7.5829 H   0  0  0  0  0  0  0  0  0  0  0  0
    3.0962   -6.0406    5.0079 H   0  0  0  0  0  0  0  0  0  0  0  0
    3.1274   -7.5700    3.6874 H   0  0  0  0  0  0  0  0  0  0  0  0
    5.2053   -8.2042    4.5407 H   0  0  0  0  0  0  0  0  0  0  0  0
    4.4751   -9.1773    5.8147 H   0  0  0  0  0  0  0  0  0  0  0  0
    4.8316   -9.8682    2.9472 H   0  0  0  0  0  0  0  0  0  0  0  0
    4.4807  -11.9192    3.8695 H   0  0  0  0  0  0  0  0  0  0  0  0
    1.5865   -9.5808    1.5139 H   0  0  0  0  0  0  0  0  0  0  0  0
    3.2272  -10.1000    1.2604 H   0  0  0  0  0  0  0  0  0  0  0  0
    2.9236   -8.4734    1.8147 H   0  0  0  0  0  0  0  0  0  0  0  0
    1.0340  -11.4728    3.0457 H   0  0  0  0  0  0  0  0  0  0  0  0
    2.2008  -12.0616    4.2110 H   0  0  0  0  0  0  0  0  0  0  0  0
    2.5982  -12.0733    2.5132 H   0  0  0  0  0  0  0  0  0  0  0  0
    0.8828  -10.6709    5.6221 H   0  0  0  0  0  0  0  0  0  0  0  0
    1.5081   -9.3964    6.6212 H   0  0  0  0  0  0  0  0  0  0  0  0
    2.5780  -10.5917    6.0017 H   0  0  0  0  0  0  0  0  0  0  0  0
    0.4216   -8.6204    2.9319 H   0  0  0  0  0  0  0  0  0  0  0  0
   -0.2351   -9.0321    4.4708 H   0  0  0  0  0  0  0  0  0  0  0  0
    0.7018   -8.1292    6.5681 H   0  0  0  0  0  0  0  0  0  0  0  0
   -1.2351   -5.4363    5.8640 H   0  0  0  0  0  0  0  0  0  0  0  0
   -0.9540   -3.7709    6.2122 H   0  0  0  0  0  0  0  0  0  0  0  0
   -0.7420   -4.9862    7.4707 H   0  0  0  0  0  0  0  0  0  0  0  0
    1.7308   -4.4657    4.0249 H   0  0  0  0  0  0  0  0  0  0  0  0
    0.2895   -3.6235    4.4193 H   0  0  0  0  0  0  0  0  0  0  0  0
    4.0033   -3.8527    5.0521 H   0  0  0  0  0  0  0  0  0  0  0  0
    4.1688   -2.1081    4.9650 H   0  0  0  0  0  0  0  0  0  0  0  0
    3.4842   -3.0230    3.6458 H   0  0  0  0  0  0  0  0  0  0  0  0
  1  2  1  0
  1 38  1  0
  1 39  1  0
  1 40  1  0
  2  9  1  0
  2  3  1  0
  2  4  1  0
  3 41  1  0
  3 42  1  0
  3 43  1  0
  4  5  1  0
  4  6  1  0
  4 44  1  1
  5 45  1  0
  6  7  1  0
  6 46  1  0
  6 47  1  0
  7  8  1  0
  7 48  1  0
  7 49  1  0
  8 36  1  0
  8  9  1  0
  8 50  1  6
  9 10  1  0
  9 51  1  1
 10 11  1  0
 10 52  1  0
 10 53  1  0
 11 12  1  0
 11 54  1  0
 11 55  1  0
 12 36  1  0
 12 13  1  1
 12 14  1  0
 13 56  1  0
 13 57  1  0
 13 58  1  0
 14 33  1  0
 14 15  1  0
 14 59  1  1
 15 16  1  0
 15 60  1  0
 15 61  1  0
 16 17  1  0
 16 18  1  0
 16 62  1  6
 17 63  1  0
 18 31  1  0
 18 19  1  0
 18 64  1  6
 19 26  1  0
 19 20  1  0
 19 65  1  6
 20 21  1  0
 20 66  1  0
 20 67  1  0
 21 22  1  0
 21 23  1  0
 21 68  1  6
 22 69  1  0
 23 24  1  0
 23 25  1  0
 23 26  1  0
 24 70  1  0
 24 71  1  0
 24 72  1  0
 25 73  1  0
 25 74  1  0
 25 75  1  0
 26 27  1  1
 26 28  1  0
 27 76  1  0
 27 77  1  0
 27 78  1  0
 28 29  1  0
 28 79  1  0
 28 80  1  0
 29 30  2  0
 29 31  1  0
 31 32  1  1
 31 33  1  0
 32 81  1  0
 33 34  1  1
 33 35  1  0
 34 82  1  0
 34 83  1  0
 34 84  1  0
 35 36  1  0
 35 85  1  0
 35 86  1  0
 36 37  1  6
 37 87  1  0
 37 88  1  0
 37 89  1  0
M  END
>  <i_m_ct_stereo_status>  (27) 
1

>  <s_m_source_file>  (27) 
/var/tmp/pbs.5076255.sched01/tmp5ffkvrn0/0o5bi62ha.sdf

>  <i_m_source_file_index>  (27) 
14

>  <i_lp_mmshare_version>  (27) 
48012

>  <i_f3d_flags>  (27) 
0

>  <s_epik_input>  (27) 
W0NIMl0xW0NIMl1bQ0BIXShbT0hdKUMoW0NIM10pKFtDSDNdKVtDQEhdKFtDSDJdW0NIMl0yKVtDQEhdMVtDQF0zKFtDSDNdKVtDSDJdW0NAXShbQ0gzXSkoW0NAQEhdNFtDQF0yM1tDSDNdKVtDQF01KFtPSF0pW0NAQEhdKFtDQEBIXShbQ0gyXTQpW09IXSlbQ0BASF02W0NAQF0oW0NIM10pKFtDSDJdQzU9TylDKFtDSDNdKShbQ0gzXSlbQ0BASF0oW0NIMl02KVtPSF0=

>  <s_epik_cmdline>  (27) 
J2VwaWtfcHl0aG9uJywgJy1waHQnLCAnMi4wJywgJy1waCcsICc3LjAnLCAnLXRuJywgJzgnLCAnLW1hJywgJzIwMCcsICctaW1hZScsICc8aW5maWxlLm1hZT4nLCAnLW9tYWUnLCAnPG91dGZpbGUubWFlPic=

>  <r_lp_tautomer_probability>  (27) 
1

>  <r_epik_Ionization_Penalty>  (27) 
4.60828e-06

>  <r_epik_Ionization_Penalty_Charging>  (27) 
0

>  <r_epik_Ionization_Penalty_Neutral>  (27) 
4.60828e-06

>  <r_epik_State_Penalty>  (27) 
-0

>  <r_epik_Charging_Adjusted_Penalty>  (27) 
0

>  <i_epik_Tot_Q>  (27) 
0

>  <i_epik_Tot_abs_Q>  (27) 
0

>  <s_lp_Force_Field>  (27) 
OPLS3e

>  <r_lp_Energy>  (27) 
110.66

>  <b_lp_Chiralities_Consistent>  (27) 
1

>  <s_lp_Variant>  (27) 
9:0-1

>  <s_i_glide_gridfile>  (27) 
pfpi4k_grid

>  <i_i_glide_lignum>  (27) 
14

>  <i_i_glide_rotatable_bonds>  (27) 
4

>  <r_i_docking_score>  (27) 
-2.24546

>  <r_i_glide_ligand_efficiency>  (27) 
-0.060688

>  <r_i_glide_ligand_efficiency_sa>  (27) 
-0.202226

>  <r_i_glide_ligand_efficiency_ln>  (27) 
-0.486987

>  <r_i_glide_gscore>  (27) 
-2.24546

>  <r_i_glide_lipo>  (27) 
-0.0822448

>  <r_i_glide_hbond>  (27) 
-0.104994

>  <r_i_glide_metal>  (27) 
-0

>  <r_i_glide_rewards>  (27) 
0

>  <r_i_glide_evdw>  (27) 
-28.7613

>  <r_i_glide_ecoul>  (27) 
-3.99063

>  <r_i_glide_erotb>  (27) 
0

>  <r_i_glide_esite>  (27) 
-0.0215585

>  <r_i_glide_emodel>  (27) 
-36.319

>  <r_i_glide_energy>  (27) 
-32.7519

>  <r_i_glide_einternal>  (27) 
2.89777

>  <r_i_glide_intrahb_reward>  (27) 
-0

>  <i_i_glide_confnum>  (27) 
2

>  <i_i_glide_posenum>  (27) 
5

>  <r_i_glide_eff_state_penalty>  (27) 
0

>  <ligand_id>  (27) 
9

>  <original_smiles>  (27) 
CC1(C)C(O)CCC2C1CCC1(C)C3CC(O)C4C5CC(O)C(C)(C)C5(C)CC(=O)C4(O)C3(C)CC21C

>  <smiles>  (27) 
[H]OC1([H])C([H])([H])C2([H])C(C([H])([H])[H])(C([H])([H])C3(C([H])([H])[H])C4([H])C([H])([H])C([H])([H])C([H])(O[H])C(C([H])([H])[H])(C([H])([H])[H])C4([H])C([H])([H])C([H])([H])C23C([H])([H])[H])C2(O[H])C(=O)C([H])([H])C3(C([H])([H])[H])C([H])(C([H])([H])C([H])(O[H])C3(C([H])([H])[H])C([H])([H])[H])C12[H]

$$$$
11:0:0
     RDKit          3D

 30 32  0  0  1  0  0  0  0  0999 V2000
    3.8003   -0.5191   -3.9829 C   0  0  0  0  0  0  0  0  0  0  0  0
    4.1406   -1.8657   -4.3207 O   0  0  0  0  0  0  0  0  0  0  0  0
    4.0020   -2.8508   -3.2909 C   0  0  2  0  0  0  0  0  0  0  0  0
    2.5383   -3.1406   -2.8244 C   0  0  0  0  0  0  0  0  0  0  0  0
    2.5624   -3.2491   -1.3497 O   0  0  0  0  0  0  0  0  0  0  0  0
    3.9372   -3.5075   -1.0889 C   0  0  2  0  0  0  0  0  0  0  0  0
    4.7905   -3.3993    0.2052 C   0  0  1  0  0  0  0  0  0  0  0  0
    6.1378   -3.6232   -0.4690 C   0  0  0  0  0  0  0  0  0  0  0  0
    5.9816   -2.4171   -1.4070 C   0  0  2  0  0  0  0  0  0  0  0  0
    5.9040   -1.3992   -0.3641 O   0  0  0  0  0  0  0  0  0  0  0  0
    5.0386   -1.9293    0.6423 C   0  0  1  0  0  0  0  0  0  0  0  0
    3.8294   -1.2470    0.7454 O   0  0  0  0  0  0  0  0  0  0  0  0
    3.9524    0.0880    1.2208 C   0  0  0  0  0  0  0  0  0  0  0  0
    4.5433   -2.4463   -1.9502 C   0  0  1  0  0  0  0  0  0  0  0  0
    3.8741    0.1181   -4.8711 H   0  0  0  0  0  0  0  0  0  0  0  0
    4.4768   -0.1268   -3.2205 H   0  0  0  0  0  0  0  0  0  0  0  0
    2.7803   -0.4301   -3.6068 H   0  0  0  0  0  0  0  0  0  0  0  0
    4.4608   -3.7749   -3.6300 H   0  0  0  0  0  0  0  0  0  0  0  0
    1.8335   -2.3564   -3.0861 H   0  0  0  0  0  0  0  0  0  0  0  0
    2.1727   -4.0722   -3.2609 H   0  0  0  0  0  0  0  0  0  0  0  0
    4.0969   -4.5270   -1.4715 H   0  0  0  0  0  0  0  0  0  0  0  0
    4.5168   -4.0419    1.0165 H   0  0  0  0  0  0  0  0  0  0  0  0
    6.9939   -3.5381    0.1977 H   0  0  0  0  0  0  0  0  0  0  0  0
    6.2078   -4.5620   -1.0108 H   0  0  0  0  0  0  0  0  0  0  0  0
    6.7816   -2.2292   -2.1163 H   0  0  0  0  0  0  0  0  0  0  0  0
    5.5833   -1.8894    1.5924 H   0  0  0  0  0  0  0  0  0  0  0  0
    2.9634    0.5485    1.2518 H   0  0  0  0  0  0  0  0  0  0  0  0
    4.5807    0.6916    0.5716 H   0  0  0  0  0  0  0  0  0  0  0  0
    4.3603    0.1095    2.2288 H   0  0  0  0  0  0  0  0  0  0  0  0
    4.0730   -1.4848   -1.7160 H   0  0  0  0  0  0  0  0  0  0  0  0
  1  2  1  0
  1 15  1  0
  1 16  1  0
  1 17  1  0
  2  3  1  0
  3 14  1  0
  3  4  1  0
  3 18  1  6
  4  5  1  0
  4 19  1  0
  4 20  1  0
  5  6  1  0
  6 14  1  0
  6  7  1  0
  6 21  1  6
  7 11  1  0
  7  8  1  0
  7 22  1  1
  8  9  1  0
  8 23  1  0
  8 24  1  0
  9 10  1  0
  9 14  1  0
  9 25  1  6
 10 11  1  0
 11 12  1  0
 11 26  1  1
 12 13  1  0
 13 27  1  0
 13 28  1  0
 13 29  1  0
 14 30  1  1
M  END
>  <i_m_ct_stereo_status>  (28) 
1

>  <s_m_source_file>  (28) 
/var/tmp/pbs.5076255.sched01/tmp5ffkvrn0/0o5bi62ha.sdf

>  <i_m_source_file_index>  (28) 
16

>  <i_lp_mmshare_version>  (28) 
48012

>  <i_f3d_flags>  (28) 
0

>  <s_epik_input>  (28) 
W0NIM11PW0NASF0oW0NIMl1PMSlbQ0BASF0yW0NASF0oW0NIMl1bQ0BASF0zW0NAQEhdMTIpT1tDQEhdM09bQ0gzXQ==

>  <s_epik_cmdline>  (28) 
J2VwaWtfcHl0aG9uJywgJy1waHQnLCAnMi4wJywgJy1waCcsICc3LjAnLCAnLXRuJywgJzgnLCAnLW1hJywgJzIwMCcsICctaW1hZScsICc8aW5maWxlLm1hZT4nLCAnLW9tYWUnLCAnPG91dGZpbGUubWFlPic=

>  <r_lp_tautomer_probability>  (28) 
1

>  <r_epik_Ionization_Penalty>  (28) 
2.84179e-12

>  <r_epik_Ionization_Penalty_Charging>  (28) 
0

>  <r_epik_Ionization_Penalty_Neutral>  (28) 
2.84179e-12

>  <r_epik_State_Penalty>  (28) 
-0

>  <r_epik_Charging_Adjusted_Penalty>  (28) 
0

>  <i_epik_Tot_Q>  (28) 
0

>  <i_epik_Tot_abs_Q>  (28) 
0

>  <s_epik_Chemistry_Notes>  (28) 
This compound contains an acetal/aminal-like group ( X-CH(R)-Y where X, Y are N, S, or O) that may be acid/base labile, releasing an aldehyde.

>  <s_lp_Force_Field>  (28) 
OPLS3e

>  <r_lp_Energy>  (28) 
49.0467

>  <b_lp_Chiralities_Consistent>  (28) 
1

>  <s_lp_Variant>  (28) 
11:0-1

>  <s_i_glide_gridfile>  (28) 
pfpi4k_grid

>  <i_i_glide_lignum>  (28) 
16

>  <i_i_glide_rotatable_bonds>  (28) 
2

>  <r_i_docking_score>  (28) 
-4.26827

>  <r_i_glide_ligand_efficiency>  (28) 
-0.304876

>  <r_i_glide_ligand_efficiency_sa>  (28) 
-0.734795

>  <r_i_glide_ligand_efficiency_ln>  (28) 
-1.1729

>  <r_i_glide_gscore>  (28) 
-4.26827

>  <r_i_glide_lipo>  (28) 
-0.62525

>  <r_i_glide_hbond>  (28) 
-0.32742

>  <r_i_glide_metal>  (28) 
-0

>  <r_i_glide_rewards>  (28) 
-2.09817

>  <r_i_glide_evdw>  (28) 
-17.4221

>  <r_i_glide_ecoul>  (28) 
-2.30881

>  <r_i_glide_erotb>  (28) 
0

>  <r_i_glide_esite>  (28) 
0

>  <r_i_glide_emodel>  (28) 
-21.5383

>  <r_i_glide_energy>  (28) 
-19.7309

>  <r_i_glide_einternal>  (28) 
7.60375

>  <r_i_glide_intrahb_reward>  (28) 
-0

>  <i_i_glide_confnum>  (28) 
1

>  <i_i_glide_posenum>  (28) 
6

>  <r_i_glide_eff_state_penalty>  (28) 
0

>  <ligand_id>  (28) 
11

>  <original_smiles>  (28) 
COC1COC2C3CC(OC3OC)C12

>  <smiles>  (28) 
[H]C([H])([H])OC1([H])OC2([H])C([H])([H])C1([H])C1([H])OC([H])([H])C([H])(OC([H])([H])[H])C21[H]

$$$$
11:0:1
     RDKit          3D

 30 32  0  0  1  0  0  0  0  0999 V2000
    3.3887    5.0778    2.8686 C   0  0  0  0  0  0  0  0  0  0  0  0
    1.9940    4.9484    3.0739 O   0  0  0  0  0  0  0  0  0  0  0  0
    1.6181    3.6613    3.5457 C   0  0  2  0  0  0  0  0  0  0  0  0
    1.6655    2.5266    2.4613 C   0  0  0  0  0  0  0  0  0  0  0  0
    0.4421    1.7568    2.5775 O   0  0  0  0  0  0  0  0  0  0  0  0
   -0.0091    2.1075    3.8619 C   0  0  2  0  0  0  0  0  0  0  0  0
   -1.3563    1.9348    4.5893 C   0  0  1  0  0  0  0  0  0  0  0  0
   -1.0047    2.7518    5.8326 C   0  0  0  0  0  0  0  0  0  0  0  0
   -0.7288    4.0177    5.0098 C   0  0  2  0  0  0  0  0  0  0  0  0
   -2.0370    4.1469    4.4362 O   0  0  0  0  0  0  0  0  0  0  0  0
   -2.4622    2.8635    4.0405 C   0  0  1  0  0  0  0  0  0  0  0  0
   -2.5670    2.7116    2.6655 O   0  0  0  0  0  0  0  0  0  0  0  0
   -3.7548    3.2531    2.1088 C   0  0  0  0  0  0  0  0  0  0  0  0
    0.1318    3.5995    3.7942 C   0  0  1  0  0  0  0  0  0  0  0  0
    3.6283    6.0838    2.5202 H   0  0  0  0  0  0  0  0  0  0  0  0
    3.7472    4.3771    2.1141 H   0  0  0  0  0  0  0  0  0  0  0  0
    3.9203    4.9047    3.8037 H   0  0  0  0  0  0  0  0  0  0  0  0
    2.1742    3.3888    4.4452 H   0  0  0  0  0  0  0  0  0  0  0  0
    1.7282    2.9324    1.4529 H   0  0  0  0  0  0  0  0  0  0  0  0
    2.5439    1.8921    2.6102 H   0  0  0  0  0  0  0  0  0  0  0  0
    0.7292    1.6385    4.5232 H   0  0  0  0  0  0  0  0  0  0  0  0
   -1.6941    0.9068    4.7560 H   0  0  0  0  0  0  0  0  0  0  0  0
   -1.8308    2.8751    6.5340 H   0  0  0  0  0  0  0  0  0  0  0  0
   -0.1303    2.3936    6.3849 H   0  0  0  0  0  0  0  0  0  0  0  0
   -0.3997    4.9030    5.5607 H   0  0  0  0  0  0  0  0  0  0  0  0
   -3.4073    2.6540    4.5290 H   0  0  0  0  0  0  0  0  0  0  0  0
   -3.7820    3.0749    1.0378 H   0  0  0  0  0  0  0  0  0  0  0  0
   -3.8604    4.3224    2.2955 H   0  0  0  0  0  0  0  0  0  0  0  0
   -4.6278    2.7376    2.4871 H   0  0  0  0  0  0  0  0  0  0  0  0
   -0.3436    4.0096    2.8956 H   0  0  0  0  0  0  0  0  0  0  0  0
  1  2  1  0
  1 15  1  0
  1 16  1  0
  1 17  1  0
  2  3  1  0
  3 14  1  0
  3  4  1  0
  3 18  1  1
  4  5  1  0
  4 19  1  0
  4 20  1  0
  5  6  1  0
  6 14  1  0
  6  7  1  0
  6 21  1  1
  7 11  1  0
  7  8  1  0
  7 22  1  1
  8  9  1  0
  8 23  1  0
  8 24  1  0
  9 10  1  0
  9 14  1  0
  9 25  1  1
 10 11  1  0
 11 12  1  0
 11 26  1  1
 12 13  1  0
 13 27  1  0
 13 28  1  0
 13 29  1  0
 14 30  1  6
M  END
>  <i_m_ct_stereo_status>  (29) 
1

>  <s_m_source_file>  (29) 
/var/tmp/pbs.5076255.sched01/tmp5ffkvrn0/0o5bi62ha.sdf

>  <i_m_source_file_index>  (29) 
16

>  <i_lp_mmshare_version>  (29) 
48012

>  <i_f3d_flags>  (29) 
0

>  <s_epik_input>  (29) 
W0NIM11PW0NASF0oW0NIMl1PMSlbQ0BASF0yW0NASF0oW0NIMl1bQ0BASF0zW0NAQEhdMTIpT1tDQEhdM09bQ0gzXQ==

>  <s_epik_cmdline>  (29) 
J2VwaWtfcHl0aG9uJywgJy1waHQnLCAnMi4wJywgJy1waCcsICc3LjAnLCAnLXRuJywgJzgnLCAnLW1hJywgJzIwMCcsICctaW1hZScsICc8aW5maWxlLm1hZT4nLCAnLW9tYWUnLCAnPG91dGZpbGUubWFlPic=

>  <r_lp_tautomer_probability>  (29) 
1

>  <r_epik_Ionization_Penalty>  (29) 
2.84179e-12

>  <r_epik_Ionization_Penalty_Charging>  (29) 
0

>  <r_epik_Ionization_Penalty_Neutral>  (29) 
2.84179e-12

>  <r_epik_State_Penalty>  (29) 
-0

>  <r_epik_Charging_Adjusted_Penalty>  (29) 
0

>  <i_epik_Tot_Q>  (29) 
0

>  <i_epik_Tot_abs_Q>  (29) 
0

>  <s_epik_Chemistry_Notes>  (29) 
This compound contains an acetal/aminal-like group ( X-CH(R)-Y where X, Y are N, S, or O) that may be acid/base labile, releasing an aldehyde.

>  <s_lp_Force_Field>  (29) 
OPLS3e

>  <r_lp_Energy>  (29) 
49.0467

>  <b_lp_Chiralities_Consistent>  (29) 
1

>  <s_lp_Variant>  (29) 
11:0-1

>  <s_i_glide_gridfile>  (29) 
pfpi4k_grid

>  <i_i_glide_lignum>  (29) 
16

>  <i_i_glide_rotatable_bonds>  (29) 
2

>  <r_i_docking_score>  (29) 
-2.99645

>  <r_i_glide_ligand_efficiency>  (29) 
-0.214032

>  <r_i_glide_ligand_efficiency_sa>  (29) 
-0.515847

>  <r_i_glide_ligand_efficiency_ln>  (29) 
-0.823413

>  <r_i_glide_gscore>  (29) 
-2.99645

>  <r_i_glide_lipo>  (29) 
-0.153721

>  <r_i_glide_hbond>  (29) 
-0.0412839

>  <r_i_glide_metal>  (29) 
-0

>  <r_i_glide_rewards>  (29) 
-2.04388

>  <r_i_glide_evdw>  (29) 
-14.3677

>  <r_i_glide_ecoul>  (29) 
-0.007647

>  <r_i_glide_erotb>  (29) 
0

>  <r_i_glide_esite>  (29) 
-0.0380326

>  <r_i_glide_emodel>  (29) 
-18.2214

>  <r_i_glide_energy>  (29) 
-14.3754

>  <r_i_glide_einternal>  (29) 
0.326618

>  <r_i_glide_intrahb_reward>  (29) 
-0

>  <i_i_glide_confnum>  (29) 
1

>  <i_i_glide_posenum>  (29) 
18

>  <r_i_glide_eff_state_penalty>  (29) 
0

>  <ligand_id>  (29) 
11

>  <original_smiles>  (29) 
COC1COC2C3CC(OC3OC)C12

>  <smiles>  (29) 
[H]C([H])([H])OC1([H])OC2([H])C([H])([H])C1([H])C1([H])OC([H])([H])C([H])(OC([H])([H])[H])C21[H]

$$$$
11:0:2
     RDKit          3D

 30 32  0  0  1  0  0  0  0  0999 V2000
    3.5521   -1.3787   -4.1827 C   0  0  0  0  0  0  0  0  0  0  0  0
    2.5135   -2.0822   -3.5151 O   0  0  0  0  0  0  0  0  0  0  0  0
    2.9721   -3.0805   -2.6086 C   0  0  2  0  0  0  0  0  0  0  0  0
    1.8083   -3.6848   -1.7470 C   0  0  0  0  0  0  0  0  0  0  0  0
    2.2748   -3.7525   -0.3689 O   0  0  0  0  0  0  0  0  0  0  0  0
    3.6728   -3.6615   -0.5267 C   0  0  2  0  0  0  0  0  0  0  0  0
    4.8224   -3.3731    0.4612 C   0  0  1  0  0  0  0  0  0  0  0  0
    5.9338   -3.2714   -0.5869 C   0  0  0  0  0  0  0  0  0  0  0  0
    5.2385   -2.1336   -1.3210 C   0  0  2  0  0  0  0  0  0  0  0  0
    5.2307   -1.1982   -0.2309 O   0  0  0  0  0  0  0  0  0  0  0  0
    4.8626   -1.9058    0.9317 C   0  0  1  0  0  0  0  0  0  0  0  0
    3.6253   -1.5331    1.4178 O   0  0  0  0  0  0  0  0  0  0  0  0
    3.5425   -0.1851    1.8536 C   0  0  0  0  0  0  0  0  0  0  0  0
    3.7456   -2.4984   -1.4528 C   0  0  1  0  0  0  0  0  0  0  0  0
    3.1287   -0.6732   -4.8981 H   0  0  0  0  0  0  0  0  0  0  0  0
    4.2014   -2.0730   -4.7151 H   0  0  0  0  0  0  0  0  0  0  0  0
    4.1521   -0.7911   -3.4886 H   0  0  0  0  0  0  0  0  0  0  0  0
    3.5393   -3.8502   -3.1283 H   0  0  0  0  0  0  0  0  0  0  0  0
    0.9268   -3.0639   -1.7517 H   0  0  0  0  0  0  0  0  0  0  0  0
    1.4370   -4.6478   -2.0731 H   0  0  0  0  0  0  0  0  0  0  0  0
    3.9290   -4.6138   -1.0020 H   0  0  0  0  0  0  0  0  0  0  0  0
    4.9811   -4.0863    1.2666 H   0  0  0  0  0  0  0  0  0  0  0  0
    6.9097   -2.9829   -0.1896 H   0  0  0  0  0  0  0  0  0  0  0  0
    6.0575   -4.1569   -1.2155 H   0  0  0  0  0  0  0  0  0  0  0  0
    5.7537   -1.7413   -2.1933 H   0  0  0  0  0  0  0  0  0  0  0  0
    5.6425   -1.7293    1.6654 H   0  0  0  0  0  0  0  0  0  0  0  0
    2.5343    0.0108    2.2252 H   0  0  0  0  0  0  0  0  0  0  0  0
    3.7382    0.5201    1.0462 H   0  0  0  0  0  0  0  0  0  0  0  0
    4.2382    0.0127    2.6679 H   0  0  0  0  0  0  0  0  0  0  0  0
    3.1502   -1.6471   -1.0901 H   0  0  0  0  0  0  0  0  0  0  0  0
  1  2  1  0
  1 15  1  0
  1 16  1  0
  1 17  1  0
  2  3  1  0
  3 14  1  0
  3  4  1  0
  3 18  1  6
  4  5  1  0
  4 19  1  0
  4 20  1  0
  5  6  1  0
  6 14  1  0
  6  7  1  0
  6 21  1  6
  7 11  1  0
  7  8  1  0
  7 22  1  1
  8  9  1  0
  8 23  1  0
  8 24  1  0
  9 10  1  0
  9 14  1  0
  9 25  1  6
 10 11  1  0
 11 12  1  0
 11 26  1  1
 12 13  1  0
 13 27  1  0
 13 28  1  0
 13 29  1  0
 14 30  1  1
M  END
>  <i_m_ct_stereo_status>  (30) 
1

>  <s_m_source_file>  (30) 
/var/tmp/pbs.5076255.sched01/tmp5ffkvrn0/0o5bi62ha.sdf

>  <i_m_source_file_index>  (30) 
16

>  <i_lp_mmshare_version>  (30) 
48012

>  <i_f3d_flags>  (30) 
0

>  <s_epik_input>  (30) 
W0NIM11PW0NASF0oW0NIMl1PMSlbQ0BASF0yW0NASF0oW0NIMl1bQ0BASF0zW0NAQEhdMTIpT1tDQEhdM09bQ0gzXQ==

>  <s_epik_cmdline>  (30) 
J2VwaWtfcHl0aG9uJywgJy1waHQnLCAnMi4wJywgJy1waCcsICc3LjAnLCAnLXRuJywgJzgnLCAnLW1hJywgJzIwMCcsICctaW1hZScsICc8aW5maWxlLm1hZT4nLCAnLW9tYWUnLCAnPG91dGZpbGUubWFlPic=

>  <r_lp_tautomer_probability>  (30) 
1

>  <r_epik_Ionization_Penalty>  (30) 
2.84179e-12

>  <r_epik_Ionization_Penalty_Charging>  (30) 
0

>  <r_epik_Ionization_Penalty_Neutral>  (30) 
2.84179e-12

>  <r_epik_State_Penalty>  (30) 
-0

>  <r_epik_Charging_Adjusted_Penalty>  (30) 
0

>  <i_epik_Tot_Q>  (30) 
0

>  <i_epik_Tot_abs_Q>  (30) 
0

>  <s_epik_Chemistry_Notes>  (30) 
This compound contains an acetal/aminal-like group ( X-CH(R)-Y where X, Y are N, S, or O) that may be acid/base labile, releasing an aldehyde.

>  <s_lp_Force_Field>  (30) 
OPLS3e

>  <r_lp_Energy>  (30) 
49.0467

>  <b_lp_Chiralities_Consistent>  (30) 
1

>  <s_lp_Variant>  (30) 
11:0-1

>  <s_i_glide_gridfile>  (30) 
pfpi4k_grid

>  <i_i_glide_lignum>  (30) 
16

>  <i_i_glide_rotatable_bonds>  (30) 
2

>  <r_i_docking_score>  (30) 
-2.9086

>  <r_i_glide_ligand_efficiency>  (30) 
-0.207757

>  <r_i_glide_ligand_efficiency_sa>  (30) 
-0.500725

>  <r_i_glide_ligand_efficiency_ln>  (30) 
-0.799274

>  <r_i_glide_gscore>  (30) 
-2.9086

>  <r_i_glide_lipo>  (30) 
-0.110224

>  <r_i_glide_hbond>  (30) 
0

>  <r_i_glide_metal>  (30) 
-0

>  <r_i_glide_rewards>  (30) 
-2.08775

>  <r_i_glide_evdw>  (30) 
-15.98

>  <r_i_glide_ecoul>  (30) 
0.589165

>  <r_i_glide_erotb>  (30) 
0

>  <r_i_glide_esite>  (30) 
0

>  <r_i_glide_emodel>  (30) 
-18.7519

>  <r_i_glide_energy>  (30) 
-15.3909

>  <r_i_glide_einternal>  (30) 
0.81742

>  <r_i_glide_intrahb_reward>  (30) 
-0

>  <i_i_glide_confnum>  (30) 
1

>  <i_i_glide_posenum>  (30) 
28

>  <r_i_glide_eff_state_penalty>  (30) 
0

>  <ligand_id>  (30) 
11

>  <original_smiles>  (30) 
COC1COC2C3CC(OC3OC)C12

>  <smiles>  (30) 
[H]C([H])([H])OC1([H])OC2([H])C([H])([H])C1([H])C1([H])OC([H])([H])C([H])(OC([H])([H])[H])C21[H]

$$$$
12:0:0
     RDKit          3D

 41 45  0  0  1  0  0  0  0  0999 V2000
    4.8730   -3.5386   -1.6727 C   0  0  0  0  0  0  0  0  0  0  0  0
    5.1350   -4.2860   -0.4621 N   0  0  0  0  0  0  0  0  0  0  0  0
    6.3675   -4.2592    0.0922 N   0  0  0  0  0  0  0  0  0  0  0  0
    6.2958   -5.0374    1.1685 C   0  0  0  0  0  0  0  0  0  0  0  0
    4.9946   -5.5896    1.3500 C   0  0  0  0  0  0  0  0  0  0  0  0
    4.3090   -5.0785    0.3035 C   0  0  0  0  0  0  0  0  0  0  0  0
    3.0042   -5.3454    0.0792 N   0  0  0  0  0  0  0  0  0  0  0  0
    2.2297   -6.0343    0.9381 C   0  0  0  0  0  0  0  0  0  0  0  0
    1.0649   -6.3169    0.6546 O   0  0  0  0  0  0  0  0  0  0  0  0
    2.8200   -6.4295    2.3276 C   0  0  2  0  0  0  0  0  0  0  0  0
    4.3788   -6.4802    2.3820 C   0  0  1  0  0  0  0  0  0  0  0  0
    4.7964   -7.9510    2.2574 C   0  0  0  0  0  0  0  0  0  0  0  0
    3.5744   -8.7446    2.6983 C   0  0  2  0  0  0  0  0  0  0  0  0
    2.7378   -9.4769    1.6576 C   0  0  0  0  0  0  0  0  0  0  0  0
    1.5798   -8.7158    2.0919 N   0  0  0  0  0  0  0  0  0  0  0  0
    2.3868   -7.8024    2.9190 C   0  0  2  0  0  0  0  0  0  0  0  0
    1.7376   -7.6068    4.2942 C   0  0  0  0  0  0  0  0  0  0  0  0
    2.3653   -8.0779    5.4715 C   0  0  0  0  0  0  0  0  0  0  0  0
    1.7806   -7.8577    6.7315 C   0  0  0  0  0  0  0  0  0  0  0  0
    0.5712   -7.1508    6.8364 C   0  0  0  0  0  0  0  0  0  0  0  0
   -0.0596   -6.6701    5.6732 C   0  0  0  0  0  0  0  0  0  0  0  0
    0.5140   -6.9011    4.4072 C   0  0  0  0  0  0  0  0  0  0  0  0
   -0.1116   -6.4247    3.3007 F   0  0  0  0  0  0  0  0  0  0  0  0
    3.8165   -3.6064   -1.9381 H   0  0  0  0  0  0  0  0  0  0  0  0
    5.4711   -3.9436   -2.4900 H   0  0  0  0  0  0  0  0  0  0  0  0
    5.1337   -2.4896   -1.5234 H   0  0  0  0  0  0  0  0  0  0  0  0
    7.1749   -5.1579    1.7802 H   0  0  0  0  0  0  0  0  0  0  0  0
    2.6392   -5.0794   -0.8245 H   0  0  0  0  0  0  0  0  0  0  0  0
    2.4965   -5.6090    2.9697 H   0  0  0  0  0  0  0  0  0  0  0  0
    4.6713   -6.1351    3.3731 H   0  0  0  0  0  0  0  0  0  0  0  0
    5.0523   -8.2015    1.2254 H   0  0  0  0  0  0  0  0  0  0  0  0
    5.6806   -8.1629    2.8605 H   0  0  0  0  0  0  0  0  0  0  0  0
    3.7644   -9.4158    3.5317 H   0  0  0  0  0  0  0  0  0  0  0  0
    3.0104   -9.2547    0.6280 H   0  0  0  0  0  0  0  0  0  0  0  0
    2.6430  -10.5527    1.8288 H   0  0  0  0  0  0  0  0  0  0  0  0
    1.0864   -8.2663    1.3284 H   0  0  0  0  0  0  0  0  0  0  0  0
    3.3114   -8.5984    5.4427 H   0  0  0  0  0  0  0  0  0  0  0  0
    2.2674   -8.2357    7.6195 H   0  0  0  0  0  0  0  0  0  0  0  0
    0.1223   -6.9954    7.8046 H   0  0  0  0  0  0  0  0  0  0  0  0
   -0.9940   -6.1319    5.7549 H   0  0  0  0  0  0  0  0  0  0  0  0
    0.9833   -9.2998    2.6631 H   0  0  0  0  0  0  0  0  0  0  0  0
  1  2  1  0
  1 24  1  0
  1 25  1  0
  1 26  1  0
  2  6  1  0
  2  3  1  0
  3  4  2  0
  4  5  1  0
  4 27  1  0
  5 11  1  0
  5  6  2  0
  6  7  1  0
  7  8  1  0
  7 28  1  0
  8  9  2  0
  8 10  1  0
 10 16  1  0
 10 11  1  0
 10 29  1  1
 11 12  1  0
 11 30  1  1
 12 13  1  0
 12 31  1  0
 12 32  1  0
 13 16  1  0
 13 14  1  0
 13 33  1  1
 14 15  1  0
 14 34  1  0
 14 35  1  0
 15 16  1  0
 15 36  1  0
 15 41  1  0
 16 17  1  1
 17 22  1  0
 17 18  2  0
 18 19  1  0
 18 37  1  0
 19 20  2  0
 19 38  1  0
 20 21  1  0
 20 39  1  0
 21 22  2  0
 21 40  1  0
 22 23  1  0
M  CHG  1  15   1
M  END
>  <i_m_ct_stereo_status>  (31) 
1

>  <s_m_source_file>  (31) 
/var/tmp/pbs.5076255.sched01/tmp5ffkvrn0/0o5bi62ha.sdf

>  <i_m_source_file_index>  (31) 
17

>  <i_lp_mmshare_version>  (31) 
48012

>  <i_f3d_flags>  (31) 
0

>  <s_epik_input>  (31) 
W2NIXTFubihbQ0gzXSljKFtOSF1DMj1PKWMxW0NASF0oW0NIMl1bQ0BASF0zW0NIMl1bTkhdNClbQ0BASF0yW0NAXTM0YzVbY0hdW2NIXVtjSF1bY0hdYzVG

>  <s_epik_cmdline>  (31) 
J2VwaWtfcHl0aG9uJywgJy1waHQnLCAnMi4wJywgJy1waCcsICc3LjAnLCAnLXRuJywgJzgnLCAnLW1hJywgJzIwMCcsICctaW1hZScsICc8aW5maWxlLm1hZT4nLCAnLW9tYWUnLCAnPG91dGZpbGUubWFlPic=

>  <r_lp_tautomer_probability>  (31) 
1

>  <r_epik_Ionization_Penalty>  (31) 
0.0348212

>  <r_epik_Ionization_Penalty_Charging>  (31) 
0.0348205

>  <r_epik_Ionization_Penalty_Neutral>  (31) 
6.2273e-07

>  <r_epik_State_Penalty>  (31) 
0.0289925

>  <r_epik_Charging_Adjusted_Penalty>  (31) 
0.063813

>  <i_epik_Tot_Q>  (31) 
1

>  <i_epik_Tot_abs_Q>  (31) 
1

>  <s_lp_Force_Field>  (31) 
OPLS3e

>  <r_lp_Energy>  (31) 
47.326

>  <b_lp_Chiralities_Consistent>  (31) 
1

>  <s_lp_Variant>  (31) 
12:0-1

>  <s_i_glide_gridfile>  (31) 
pfpi4k_grid

>  <i_i_glide_lignum>  (31) 
17

>  <i_i_glide_rotatable_bonds>  (31) 
1

>  <r_i_docking_score>  (31) 
-4.60866

>  <r_i_glide_ligand_efficiency>  (31) 
-0.200376

>  <r_i_glide_ligand_efficiency_sa>  (31) 
-0.569844

>  <r_i_glide_ligand_efficiency_ln>  (31) 
-1.11442

>  <r_i_glide_gscore>  (31) 
-4.60866

>  <r_i_glide_lipo>  (31) 
-0.205044

>  <r_i_glide_hbond>  (31) 
-0.304547

>  <r_i_glide_metal>  (31) 
-0

>  <r_i_glide_rewards>  (31) 
-1.86734

>  <r_i_glide_evdw>  (31) 
-19.2057

>  <r_i_glide_ecoul>  (31) 
-8.59757

>  <r_i_glide_erotb>  (31) 
0.189156

>  <r_i_glide_esite>  (31) 
-0.170967

>  <r_i_glide_emodel>  (31) 
-42.8651

>  <r_i_glide_energy>  (31) 
-27.8033

>  <r_i_glide_einternal>  (31) 
0.0925012

>  <r_i_glide_intrahb_reward>  (31) 
-0.5

>  <i_i_glide_confnum>  (31) 
3

>  <i_i_glide_posenum>  (31) 
26

>  <r_i_glide_eff_state_penalty>  (31) 
0

>  <ligand_id>  (31) 
12

>  <original_smiles>  (31) 
Cn1ncc2c1NC(=O)C1C2CC2CNC21c1ccccc1F

>  <smiles>  (31) 
[H]c1nn(C([H])([H])[H])c2c1C1([H])C([H])([H])C3([H])C([H])([H])[N+]([H])([H])C3(c3c([H])c([H])c([H])c([H])c3F)C1([H])C(=O)N2[H]

$$$$
12:0:1
     RDKit          3D

 41 45  0  0  1  0  0  0  0  0999 V2000
   -1.7854    0.1319    5.0675 C   0  0  0  0  0  0  0  0  0  0  0  0
   -0.8005   -0.8971    4.8312 N   0  0  0  0  0  0  0  0  0  0  0  0
   -0.9148   -2.0886    5.4656 N   0  0  0  0  0  0  0  0  0  0  0  0
    0.1206   -2.8143    5.0386 C   0  0  0  0  0  0  0  0  0  0  0  0
    0.9357   -2.1035    4.1088 C   0  0  0  0  0  0  0  0  0  0  0  0
    0.3139   -0.9040    4.0223 C   0  0  0  0  0  0  0  0  0  0  0  0
    0.7611    0.1026    3.2330 N   0  0  0  0  0  0  0  0  0  0  0  0
    1.7817   -0.0435    2.3612 C   0  0  0  0  0  0  0  0  0  0  0  0
    2.2318    0.9126    1.7346 O   0  0  0  0  0  0  0  0  0  0  0  0
    2.3899   -1.4632    2.1382 C   0  0  2  0  0  0  0  0  0  0  0  0
    2.1590   -2.4592    3.3213 C   0  0  1  0  0  0  0  0  0  0  0  0
    3.4478   -2.4717    4.1636 C   0  0  0  0  0  0  0  0  0  0  0  0
    4.5466   -1.9915    3.2211 C   0  0  2  0  0  0  0  0  0  0  0  0
    5.1100   -0.5857    3.3965 C   0  0  0  0  0  0  0  0  0  0  0  0
    4.7108   -0.2984    2.0277 N   0  0  0  0  0  0  0  0  0  0  0  0
    3.9178   -1.5332    1.9023 C   0  0  2  0  0  0  0  0  0  0  0  0
    4.2163   -2.2325    0.5759 C   0  0  0  0  0  0  0  0  0  0  0  0
    4.2302   -1.4847   -0.6257 C   0  0  0  0  0  0  0  0  0  0  0  0
    4.4416   -2.1169   -1.8654 C   0  0  0  0  0  0  0  0  0  0  0  0
    4.6327   -3.5070   -1.9174 C   0  0  0  0  0  0  0  0  0  0  0  0
    4.6054   -4.2628   -0.7307 C   0  0  0  0  0  0  0  0  0  0  0  0
    4.3873   -3.6350    0.5093 C   0  0  0  0  0  0  0  0  0  0  0  0
    4.3084   -4.3959    1.6259 F   0  0  0  0  0  0  0  0  0  0  0  0
   -1.6049    0.9871    4.4179 H   0  0  0  0  0  0  0  0  0  0  0  0
   -1.7312    0.4536    6.1055 H   0  0  0  0  0  0  0  0  0  0  0  0
   -2.7835   -0.2564    4.8675 H   0  0  0  0  0  0  0  0  0  0  0  0
    0.2393   -3.8246    5.3997 H   0  0  0  0  0  0  0  0  0  0  0  0
    0.3054    1.0002    3.3141 H   0  0  0  0  0  0  0  0  0  0  0  0
    1.8494   -1.8453    1.2699 H   0  0  0  0  0  0  0  0  0  0  0  0
    2.0431   -3.4508    2.8836 H   0  0  0  0  0  0  0  0  0  0  0  0
    3.3601   -1.7932    5.0169 H   0  0  0  0  0  0  0  0  0  0  0  0
    3.6446   -3.4646    4.5695 H   0  0  0  0  0  0  0  0  0  0  0  0
    5.3601   -2.7067    3.0708 H   0  0  0  0  0  0  0  0  0  0  0  0
    4.5671    0.0365    4.1098 H   0  0  0  0  0  0  0  0  0  0  0  0
    6.1918   -0.5446    3.5460 H   0  0  0  0  0  0  0  0  0  0  0  0
    4.1506    0.5438    1.9324 H   0  0  0  0  0  0  0  0  0  0  0  0
    4.0521   -0.4196   -0.6130 H   0  0  0  0  0  0  0  0  0  0  0  0
    4.4324   -1.5409   -2.7781 H   0  0  0  0  0  0  0  0  0  0  0  0
    4.7771   -4.0057   -2.8635 H   0  0  0  0  0  0  0  0  0  0  0  0
    4.7157   -5.3375   -0.7817 H   0  0  0  0  0  0  0  0  0  0  0  0
    5.5142   -0.3285    1.4173 H   0  0  0  0  0  0  0  0  0  0  0  0
  1  2  1  0
  1 24  1  0
  1 25  1  0
  1 26  1  0
  2  6  1  0
  2  3  1  0
  3  4  2  0
  4  5  1  0
  4 27  1  0
  5 11  1  0
  5  6  2  0
  6  7  1  0
  7  8  1  0
  7 28  1  0
  8  9  2  0
  8 10  1  0
 10 16  1  0
 10 11  1  0
 10 29  1  6
 11 12  1  0
 11 30  1  6
 12 13  1  0
 12 31  1  0
 12 32  1  0
 13 16  1  0
 13 14  1  0
 13 33  1  6
 14 15  1  0
 14 34  1  0
 14 35  1  0
 15 16  1  0
 15 36  1  0
 15 41  1  0
 16 17  1  6
 17 22  1  0
 17 18  2  0
 18 19  1  0
 18 37  1  0
 19 20  2  0
 19 38  1  0
 20 21  1  0
 20 39  1  0
 21 22  2  0
 21 40  1  0
 22 23  1  0
M  CHG  1  15   1
M  END
>  <i_m_ct_stereo_status>  (32) 
1

>  <s_m_source_file>  (32) 
/var/tmp/pbs.5076255.sched01/tmp5ffkvrn0/0o5bi62ha.sdf

>  <i_m_source_file_index>  (32) 
17

>  <i_lp_mmshare_version>  (32) 
48012

>  <i_f3d_flags>  (32) 
0

>  <s_epik_input>  (32) 
W2NIXTFubihbQ0gzXSljKFtOSF1DMj1PKWMxW0NASF0oW0NIMl1bQ0BASF0zW0NIMl1bTkhdNClbQ0BASF0yW0NAXTM0YzVbY0hdW2NIXVtjSF1bY0hdYzVG

>  <s_epik_cmdline>  (32) 
J2VwaWtfcHl0aG9uJywgJy1waHQnLCAnMi4wJywgJy1waCcsICc3LjAnLCAnLXRuJywgJzgnLCAnLW1hJywgJzIwMCcsICctaW1hZScsICc8aW5maWxlLm1hZT4nLCAnLW9tYWUnLCAnPG91dGZpbGUubWFlPic=

>  <r_lp_tautomer_probability>  (32) 
1

>  <r_epik_Ionization_Penalty>  (32) 
0.0348212

>  <r_epik_Ionization_Penalty_Charging>  (32) 
0.0348205

>  <r_epik_Ionization_Penalty_Neutral>  (32) 
6.2273e-07

>  <r_epik_State_Penalty>  (32) 
0.0289925

>  <r_epik_Charging_Adjusted_Penalty>  (32) 
0.063813

>  <i_epik_Tot_Q>  (32) 
1

>  <i_epik_Tot_abs_Q>  (32) 
1

>  <s_lp_Force_Field>  (32) 
OPLS3e

>  <r_lp_Energy>  (32) 
47.326

>  <b_lp_Chiralities_Consistent>  (32) 
1

>  <s_lp_Variant>  (32) 
12:0-1

>  <s_i_glide_gridfile>  (32) 
pfpi4k_grid

>  <i_i_glide_lignum>  (32) 
17

>  <i_i_glide_rotatable_bonds>  (32) 
1

>  <r_i_docking_score>  (32) 
-3.67667

>  <r_i_glide_ligand_efficiency>  (32) 
-0.159855

>  <r_i_glide_ligand_efficiency_sa>  (32) 
-0.454607

>  <r_i_glide_ligand_efficiency_ln>  (32) 
-0.889052

>  <r_i_glide_gscore>  (32) 
-3.67667

>  <r_i_glide_lipo>  (32) 
-0.213755

>  <r_i_glide_hbond>  (32) 
0

>  <r_i_glide_metal>  (32) 
-0

>  <r_i_glide_rewards>  (32) 
-1.79539

>  <r_i_glide_evdw>  (32) 
-23.3992

>  <r_i_glide_ecoul>  (32) 
-4.04857

>  <r_i_glide_erotb>  (32) 
0.189156

>  <r_i_glide_esite>  (32) 
-0.0794343

>  <r_i_glide_emodel>  (32) 
-40.2627

>  <r_i_glide_energy>  (32) 
-27.4478

>  <r_i_glide_einternal>  (32) 
0.515182

>  <r_i_glide_intrahb_reward>  (32) 
-0.5

>  <i_i_glide_confnum>  (32) 
5

>  <i_i_glide_posenum>  (32) 
16

>  <r_i_glide_eff_state_penalty>  (32) 
0

>  <ligand_id>  (32) 
12

>  <original_smiles>  (32) 
Cn1ncc2c1NC(=O)C1C2CC2CNC21c1ccccc1F

>  <smiles>  (32) 
[H]c1nn(C([H])([H])[H])c2c1C1([H])C([H])([H])C3([H])C([H])([H])[N+]([H])([H])C3(c3c([H])c([H])c([H])c([H])c3F)C1([H])C(=O)N2[H]

$$$$
12:0:2
     RDKit          3D

 41 45  0  0  1  0  0  0  0  0999 V2000
   -1.9092    2.1731    4.9599 C   0  0  0  0  0  0  0  0  0  0  0  0
   -1.2977    0.8799    4.7464 N   0  0  0  0  0  0  0  0  0  0  0  0
   -1.8592   -0.2332    5.2827 N   0  0  0  0  0  0  0  0  0  0  0  0
   -1.0794   -1.2411    4.8956 C   0  0  0  0  0  0  0  0  0  0  0  0
    0.0289   -0.8025    4.1144 C   0  0  0  0  0  0  0  0  0  0  0  0
   -0.1584    0.5372    4.0533 C   0  0  0  0  0  0  0  0  0  0  0  0
    0.6876    1.3680    3.4007 N   0  0  0  0  0  0  0  0  0  0  0  0
    1.7037    0.9253    2.6308 C   0  0  0  0  0  0  0  0  0  0  0  0
    2.5104    1.6995    2.1277 O   0  0  0  0  0  0  0  0  0  0  0  0
    1.8432   -0.6044    2.3642 C   0  0  2  0  0  0  0  0  0  0  0  0
    1.1549   -1.5129    3.4330 C   0  0  1  0  0  0  0  0  0  0  0  0
    2.2533   -1.9897    4.4001 C   0  0  0  0  0  0  0  0  0  0  0  0
    3.5556   -1.8664    3.6164 C   0  0  2  0  0  0  0  0  0  0  0  0
    4.5212   -0.7386    3.9646 C   0  0  0  0  0  0  0  0  0  0  0  0
    4.4105   -0.2757    2.5916 N   0  0  0  0  0  0  0  0  0  0  0  0
    3.2817   -1.1684    2.2823 C   0  0  2  0  0  0  0  0  0  0  0  0
    3.4983   -1.8725    0.9420 C   0  0  0  0  0  0  0  0  0  0  0  0
    3.9792   -1.1423   -0.1712 C   0  0  0  0  0  0  0  0  0  0  0  0
    4.1209   -1.7575   -1.4295 C   0  0  0  0  0  0  0  0  0  0  0  0
    3.7716   -3.1084   -1.5920 C   0  0  0  0  0  0  0  0  0  0  0  0
    3.2773   -3.8403   -0.4965 C   0  0  0  0  0  0  0  0  0  0  0  0
    3.1332   -3.2275    0.7623 C   0  0  0  0  0  0  0  0  0  0  0  0
    2.6137   -3.9439    1.7864 F   0  0  0  0  0  0  0  0  0  0  0  0
   -1.3662    2.9432    4.4139 H   0  0  0  0  0  0  0  0  0  0  0  0
   -1.8936    2.4107    6.0230 H   0  0  0  0  0  0  0  0  0  0  0  0
   -2.9370    2.1700    4.6000 H   0  0  0  0  0  0  0  0  0  0  0  0
   -1.3397   -2.2485    5.1836 H   0  0  0  0  0  0  0  0  0  0  0  0
    0.5417    2.3634    3.5007 H   0  0  0  0  0  0  0  0  0  0  0  0
    1.3223   -0.7486    1.4157 H   0  0  0  0  0  0  0  0  0  0  0  0
    0.7744   -2.3883    2.9075 H   0  0  0  0  0  0  0  0  0  0  0  0
    2.2886   -1.3550    5.2904 H   0  0  0  0  0  0  0  0  0  0  0  0
    2.0629   -3.0068    4.7441 H   0  0  0  0  0  0  0  0  0  0  0  0
    4.0981   -2.8075    3.4861 H   0  0  0  0  0  0  0  0  0  0  0  0
    4.1275    0.0005    4.6646 H   0  0  0  0  0  0  0  0  0  0  0  0
    5.5276   -1.0698    4.2301 H   0  0  0  0  0  0  0  0  0  0  0  0
    4.1705    0.7076    2.5039 H   0  0  0  0  0  0  0  0  0  0  0  0
    4.2155   -0.0914   -0.0833 H   0  0  0  0  0  0  0  0  0  0  0  0
    4.4734   -1.1879   -2.2754 H   0  0  0  0  0  0  0  0  0  0  0  0
    3.8696   -3.5880   -2.5533 H   0  0  0  0  0  0  0  0  0  0  0  0
    2.9916   -4.8736   -0.6332 H   0  0  0  0  0  0  0  0  0  0  0  0
    5.2294   -0.5481    2.0672 H   0  0  0  0  0  0  0  0  0  0  0  0
  1  2  1  0
  1 24  1  0
  1 25  1  0
  1 26  1  0
  2  6  1  0
  2  3  1  0
  3  4  2  0
  4  5  1  0
  4 27  1  0
  5 11  1  0
  5  6  2  0
  6  7  1  0
  7  8  1  0
  7 28  1  0
  8  9  2  0
  8 10  1  0
 10 16  1  0
 10 11  1  0
 10 29  1  6
 11 12  1  0
 11 30  1  6
 12 13  1  0
 12 31  1  0
 12 32  1  0
 13 16  1  0
 13 14  1  0
 13 33  1  6
 14 15  1  0
 14 34  1  0
 14 35  1  0
 15 16  1  0
 15 36  1  0
 15 41  1  0
 16 17  1  6
 17 22  1  0
 17 18  2  0
 18 19  1  0
 18 37  1  0
 19 20  2  0
 19 38  1  0
 20 21  1  0
 20 39  1  0
 21 22  2  0
 21 40  1  0
 22 23  1  0
M  CHG  1  15   1
M  END
>  <i_m_ct_stereo_status>  (33) 
1

>  <s_m_source_file>  (33) 
/var/tmp/pbs.5076255.sched01/tmp5ffkvrn0/0o5bi62ha.sdf

>  <i_m_source_file_index>  (33) 
17

>  <i_lp_mmshare_version>  (33) 
48012

>  <i_f3d_flags>  (33) 
0

>  <s_epik_input>  (33) 
W2NIXTFubihbQ0gzXSljKFtOSF1DMj1PKWMxW0NASF0oW0NIMl1bQ0BASF0zW0NIMl1bTkhdNClbQ0BASF0yW0NAXTM0YzVbY0hdW2NIXVtjSF1bY0hdYzVG

>  <s_epik_cmdline>  (33) 
J2VwaWtfcHl0aG9uJywgJy1waHQnLCAnMi4wJywgJy1waCcsICc3LjAnLCAnLXRuJywgJzgnLCAnLW1hJywgJzIwMCcsICctaW1hZScsICc8aW5maWxlLm1hZT4nLCAnLW9tYWUnLCAnPG91dGZpbGUubWFlPic=

>  <r_lp_tautomer_probability>  (33) 
1

>  <r_epik_Ionization_Penalty>  (33) 
0.0348212

>  <r_epik_Ionization_Penalty_Charging>  (33) 
0.0348205

>  <r_epik_Ionization_Penalty_Neutral>  (33) 
6.2273e-07

>  <r_epik_State_Penalty>  (33) 
0.0289925

>  <r_epik_Charging_Adjusted_Penalty>  (33) 
0.063813

>  <i_epik_Tot_Q>  (33) 
1

>  <i_epik_Tot_abs_Q>  (33) 
1

>  <s_lp_Force_Field>  (33) 
OPLS3e

>  <r_lp_Energy>  (33) 
47.326

>  <b_lp_Chiralities_Consistent>  (33) 
1

>  <s_lp_Variant>  (33) 
12:0-1

>  <s_i_glide_gridfile>  (33) 
pfpi4k_grid

>  <i_i_glide_lignum>  (33) 
17

>  <i_i_glide_rotatable_bonds>  (33) 
1

>  <r_i_docking_score>  (33) 
-3.45852

>  <r_i_glide_ligand_efficiency>  (33) 
-0.15037

>  <r_i_glide_ligand_efficiency_sa>  (33) 
-0.427633

>  <r_i_glide_ligand_efficiency_ln>  (33) 
-0.836301

>  <r_i_glide_gscore>  (33) 
-3.45852

>  <r_i_glide_lipo>  (33) 
-0.0440753

>  <r_i_glide_hbond>  (33) 
0

>  <r_i_glide_metal>  (33) 
-0

>  <r_i_glide_rewards>  (33) 
-1.77262

>  <r_i_glide_evdw>  (33) 
-22.7726

>  <r_i_glide_ecoul>  (33) 
-4.09433

>  <r_i_glide_erotb>  (33) 
0.189156

>  <r_i_glide_esite>  (33) 
-0.0782035

>  <r_i_glide_emodel>  (33) 
-39.1273

>  <r_i_glide_energy>  (33) 
-26.8669

>  <r_i_glide_einternal>  (33) 
0.627385

>  <r_i_glide_intrahb_reward>  (33) 
-0.5

>  <i_i_glide_confnum>  (33) 
5

>  <i_i_glide_posenum>  (33) 
35

>  <r_i_glide_eff_state_penalty>  (33) 
0

>  <ligand_id>  (33) 
12

>  <original_smiles>  (33) 
Cn1ncc2c1NC(=O)C1C2CC2CNC21c1ccccc1F

>  <smiles>  (33) 
[H]c1nn(C([H])([H])[H])c2c1C1([H])C([H])([H])C3([H])C([H])([H])[N+]([H])([H])C3(c3c([H])c([H])c([H])c([H])c3F)C1([H])C(=O)N2[H]

$$$$
12:1:0
     RDKit          3D

 40 44  0  0  1  0  0  0  0  0999 V2000
    3.5161   -0.1947   -3.9183 C   0  0  0  0  0  0  0  0  0  0  0  0
    4.0656   -1.4043   -3.3501 N   0  0  0  0  0  0  0  0  0  0  0  0
    4.0967   -2.5396   -4.0816 N   0  0  0  0  0  0  0  0  0  0  0  0
    4.6564   -3.4566   -3.2965 C   0  0  0  0  0  0  0  0  0  0  0  0
    5.0111   -2.9363   -2.0180 C   0  0  0  0  0  0  0  0  0  0  0  0
    4.6107   -1.6405   -2.1116 C   0  0  0  0  0  0  0  0  0  0  0  0
    4.7682   -0.7481   -1.1052 N   0  0  0  0  0  0  0  0  0  0  0  0
    5.1239   -1.1168    0.1378 C   0  0  0  0  0  0  0  0  0  0  0  0
    5.3718   -0.2924    1.0138 O   0  0  0  0  0  0  0  0  0  0  0  0
    5.2617   -2.6338    0.4376 C   0  0  2  0  0  0  0  0  0  0  0  0
    5.6546   -3.5204   -0.7826 C   0  0  1  0  0  0  0  0  0  0  0  0
    5.1431   -4.9295   -0.4178 C   0  0  0  0  0  0  0  0  0  0  0  0
    3.9340   -4.7090    0.4788 C   0  0  2  0  0  0  0  0  0  0  0  0
    2.6170   -4.3325   -0.1849 C   0  0  0  0  0  0  0  0  0  0  0  0
    2.7219   -3.0501    0.4714 N   0  0  0  0  0  0  0  0  0  0  0  0
    4.0261   -3.3069    1.0875 C   0  0  2  0  0  0  0  0  0  0  0  0
    3.9676   -3.0812    2.6013 C   0  0  0  0  0  0  0  0  0  0  0  0
    3.2086   -2.0076    3.1255 C   0  0  0  0  0  0  0  0  0  0  0  0
    3.1636   -1.7657    4.5105 C   0  0  0  0  0  0  0  0  0  0  0  0
    3.8871   -2.5924    5.3881 C   0  0  0  0  0  0  0  0  0  0  0  0
    4.6472   -3.6622    4.8790 C   0  0  0  0  0  0  0  0  0  0  0  0
    4.6931   -3.9041    3.4918 C   0  0  0  0  0  0  0  0  0  0  0  0
    5.4437   -4.9297    3.0216 F   0  0  0  0  0  0  0  0  0  0  0  0
    3.3526    0.5404   -3.1339 H   0  0  0  0  0  0  0  0  0  0  0  0
    2.5663   -0.4145   -4.4064 H   0  0  0  0  0  0  0  0  0  0  0  0
    4.2091    0.2183   -4.6495 H   0  0  0  0  0  0  0  0  0  0  0  0
    4.7998   -4.4550   -3.6806 H   0  0  0  0  0  0  0  0  0  0  0  0
    4.6529    0.2368   -1.3095 H   0  0  0  0  0  0  0  0  0  0  0  0
    6.0950   -2.7321    1.1374 H   0  0  0  0  0  0  0  0  0  0  0  0
    6.7352   -3.5377   -0.9119 H   0  0  0  0  0  0  0  0  0  0  0  0
    4.9423   -5.5583   -1.2866 H   0  0  0  0  0  0  0  0  0  0  0  0
    5.9208   -5.4265    0.1605 H   0  0  0  0  0  0  0  0  0  0  0  0
    3.7767   -5.4917    1.2205 H   0  0  0  0  0  0  0  0  0  0  0  0
    2.6378   -4.2456   -1.2724 H   0  0  0  0  0  0  0  0  0  0  0  0
    1.7714   -4.9110    0.1818 H   0  0  0  0  0  0  0  0  0  0  0  0
    2.7029   -2.2828   -0.1848 H   0  0  0  0  0  0  0  0  0  0  0  0
    2.6546   -1.3581    2.4624 H   0  0  0  0  0  0  0  0  0  0  0  0
    2.5790   -0.9426    4.8950 H   0  0  0  0  0  0  0  0  0  0  0  0
    3.8597   -2.4051    6.4509 H   0  0  0  0  0  0  0  0  0  0  0  0
    5.2048   -4.2966    5.5521 H   0  0  0  0  0  0  0  0  0  0  0  0
  1  2  1  0
  1 24  1  0
  1 25  1  0
  1 26  1  0
  2  6  1  0
  2  3  1  0
  3  4  2  0
  4  5  1  0
  4 27  1  0
  5 11  1  0
  5  6  2  0
  6  7  1  0
  7  8  1  0
  7 28  1  0
  8  9  2  0
  8 10  1  0
 10 16  1  0
 10 11  1  0
 10 29  1  1
 11 12  1  0
 11 30  1  6
 12 13  1  0
 12 31  1  0
 12 32  1  0
 13 16  1  0
 13 14  1  0
 13 33  1  1
 14 15  1  0
 14 34  1  0
 14 35  1  0
 15 16  1  0
 15 36  1  0
 16 17  1  1
 17 22  1  0
 17 18  2  0
 18 19  1  0
 18 37  1  0
 19 20  2  0
 19 38  1  0
 20 21  1  0
 20 39  1  0
 21 22  2  0
 21 40  1  0
 22 23  1  0
M  END
>  <i_m_ct_stereo_status>  (34) 
1

>  <s_m_source_file>  (34) 
/var/tmp/pbs.5076255.sched01/tmp5ffkvrn0/0o5bi62ha.sdf

>  <i_m_source_file_index>  (34) 
18

>  <i_lp_mmshare_version>  (34) 
48012

>  <i_f3d_flags>  (34) 
0

>  <s_epik_input>  (34) 
W2NIXTFubihbQ0gzXSljKFtOSF1DMj1PKWMxW0NASF0oW0NIMl1bQ0BASF0zW0NIMl1bTkhdNClbQ0BASF0yW0NAXTM0YzVbY0hdW2NIXVtjSF1bY0hdYzVG

>  <s_epik_cmdline>  (34) 
J2VwaWtfcHl0aG9uJywgJy1waHQnLCAnMi4wJywgJy1waCcsICc3LjAnLCAnLXRuJywgJzgnLCAnLW1hJywgJzIwMCcsICctaW1hZScsICc8aW5maWxlLm1hZT4nLCAnLW9tYWUnLCAnPG91dGZpbGUubWFlPic=

>  <r_lp_tautomer_probability>  (34) 
1

>  <r_epik_Ionization_Penalty>  (34) 
1.6965

>  <r_epik_Ionization_Penalty_Charging>  (34) 
0

>  <r_epik_Ionization_Penalty_Neutral>  (34) 
1.6965

>  <r_epik_State_Penalty>  (34) 
1.80214

>  <r_epik_Charging_Adjusted_Penalty>  (34) 
1.80214

>  <i_epik_Tot_Q>  (34) 
0

>  <i_epik_Tot_abs_Q>  (34) 
0

>  <s_lp_Force_Field>  (34) 
OPLS3e

>  <r_lp_Energy>  (34) 
38.8088

>  <b_lp_Chiralities_Consistent>  (34) 
1

>  <s_lp_Variant>  (34) 
12:0-2

>  <s_i_glide_gridfile>  (34) 
pfpi4k_grid

>  <i_i_glide_lignum>  (34) 
18

>  <i_i_glide_rotatable_bonds>  (34) 
1

>  <r_i_docking_score>  (34) 
-4.63311

>  <r_i_glide_ligand_efficiency>  (34) 
-0.20144

>  <r_i_glide_ligand_efficiency_sa>  (34) 
-0.572868

>  <r_i_glide_ligand_efficiency_ln>  (34) 
-1.12033

>  <r_i_glide_gscore>  (34) 
-4.63311

>  <r_i_glide_lipo>  (34) 
-0.60755

>  <r_i_glide_hbond>  (34) 
-0.61672

>  <r_i_glide_metal>  (34) 
-0

>  <r_i_glide_rewards>  (34) 
-1.53652

>  <r_i_glide_evdw>  (34) 
-26.2105

>  <r_i_glide_ecoul>  (34) 
-4.72261

>  <r_i_glide_erotb>  (34) 
0.19023

>  <r_i_glide_esite>  (34) 
-0.043637

>  <r_i_glide_emodel>  (34) 
-39.85

>  <r_i_glide_energy>  (34) 
-30.9332

>  <r_i_glide_einternal>  (34) 
0.165608

>  <r_i_glide_intrahb_reward>  (34) 
-0

>  <i_i_glide_confnum>  (34) 
3

>  <i_i_glide_posenum>  (34) 
34

>  <r_i_glide_eff_state_penalty>  (34) 
0

>  <ligand_id>  (34) 
12

>  <original_smiles>  (34) 
Cn1ncc2c1NC(=O)C1C2CC2CNC21c1ccccc1F

>  <smiles>  (34) 
[H]c1nn(C([H])([H])[H])c2c1C1([H])C([H])([H])C3([H])C([H])([H])N([H])C3(c3c([H])c([H])c([H])c([H])c3F)C1([H])C(=O)N2[H]

$$$$
12:1:1
     RDKit          3D

 40 44  0  0  1  0  0  0  0  0999 V2000
    2.5286   -2.3322   -3.5927 C   0  0  0  0  0  0  0  0  0  0  0  0
    3.7053   -2.6453   -2.8188 N   0  0  0  0  0  0  0  0  0  0  0  0
    4.8348   -3.0523   -3.4463 N   0  0  0  0  0  0  0  0  0  0  0  0
    5.7192   -3.2560   -2.4681 C   0  0  0  0  0  0  0  0  0  0  0  0
    5.1864   -2.9830   -1.1743 C   0  0  0  0  0  0  0  0  0  0  0  0
    3.9095   -2.6037   -1.4605 C   0  0  0  0  0  0  0  0  0  0  0  0
    3.0154   -2.2464   -0.5031 N   0  0  0  0  0  0  0  0  0  0  0  0
    3.2620   -2.4117    0.8099 C   0  0  0  0  0  0  0  0  0  0  0  0
    2.5047   -1.9769    1.6759 O   0  0  0  0  0  0  0  0  0  0  0  0
    4.5493   -3.1669    1.2220 C   0  0  2  0  0  0  0  0  0  0  0  0
    5.7408   -3.0442    0.2252 C   0  0  1  0  0  0  0  0  0  0  0  0
    6.6006   -4.2931    0.5089 C   0  0  0  0  0  0  0  0  0  0  0  0
    5.6337   -5.3646    0.9875 C   0  0  2  0  0  0  0  0  0  0  0  0
    4.7971   -6.0981   -0.0528 C   0  0  0  0  0  0  0  0  0  0  0  0
    3.6302   -5.4616    0.5182 N   0  0  0  0  0  0  0  0  0  0  0  0
    4.3704   -4.6798    1.5162 C   0  0  2  0  0  0  0  0  0  0  0  0
    3.8357   -4.9411    2.9279 C   0  0  0  0  0  0  0  0  0  0  0  0
    2.4386   -5.0021    3.1482 C   0  0  0  0  0  0  0  0  0  0  0  0
    1.9189   -5.2168    4.4376 C   0  0  0  0  0  0  0  0  0  0  0  0
    2.7946   -5.3602    5.5285 C   0  0  0  0  0  0  0  0  0  0  0  0
    4.1856   -5.3042    5.3228 C   0  0  0  0  0  0  0  0  0  0  0  0
    4.7086   -5.0932    4.0324 C   0  0  0  0  0  0  0  0  0  0  0  0
    6.0497   -5.0450    3.8639 F   0  0  0  0  0  0  0  0  0  0  0  0
    1.6695   -2.2683   -2.9300 H   0  0  0  0  0  0  0  0  0  0  0  0
    2.3475   -3.1190   -4.3223 H   0  0  0  0  0  0  0  0  0  0  0  0
    2.6654   -1.3792   -4.1031 H   0  0  0  0  0  0  0  0  0  0  0  0
    6.7174   -3.5797   -2.7310 H   0  0  0  0  0  0  0  0  0  0  0  0
    2.1481   -1.7575   -0.7720 H   0  0  0  0  0  0  0  0  0  0  0  0
    4.8964   -2.6931    2.1418 H   0  0  0  0  0  0  0  0  0  0  0  0
    6.3167   -2.1414    0.4288 H   0  0  0  0  0  0  0  0  0  0  0  0
    7.2224   -4.6007   -0.3229 H   0  0  0  0  0  0  0  0  0  0  0  0
    7.2807   -4.0494    1.3261 H   0  0  0  0  0  0  0  0  0  0  0  0
    6.0656   -6.0803    1.6840 H   0  0  0  0  0  0  0  0  0  0  0  0
    4.9912   -5.8074   -1.0856 H   0  0  0  0  0  0  0  0  0  0  0  0
    4.7725   -7.1786    0.0810 H   0  0  0  0  0  0  0  0  0  0  0  0
    3.1444   -4.9024   -0.1694 H   0  0  0  0  0  0  0  0  0  0  0  0
    1.7576   -4.8846    2.3185 H   0  0  0  0  0  0  0  0  0  0  0  0
    0.8529   -5.2626    4.5896 H   0  0  0  0  0  0  0  0  0  0  0  0
    2.4035   -5.5212    6.5179 H   0  0  0  0  0  0  0  0  0  0  0  0
    4.8614   -5.4179    6.1556 H   0  0  0  0  0  0  0  0  0  0  0  0
  1  2  1  0
  1 24  1  0
  1 25  1  0
  1 26  1  0
  2  6  1  0
  2  3  1  0
  3  4  2  0
  4  5  1  0
  4 27  1  0
  5 11  1  0
  5  6  2  0
  6  7  1  0
  7  8  1  0
  7 28  1  0
  8  9  2  0
  8 10  1  0
 10 16  1  0
 10 11  1  0
 10 29  1  1
 11 12  1  0
 11 30  1  1
 12 13  1  0
 12 31  1  0
 12 32  1  0
 13 16  1  0
 13 14  1  0
 13 33  1  1
 14 15  1  0
 14 34  1  0
 14 35  1  0
 15 16  1  0
 15 36  1  0
 16 17  1  1
 17 22  1  0
 17 18  2  0
 18 19  1  0
 18 37  1  0
 19 20  2  0
 19 38  1  0
 20 21  1  0
 20 39  1  0
 21 22  2  0
 21 40  1  0
 22 23  1  0
M  END
>  <i_m_ct_stereo_status>  (35) 
1

>  <s_m_source_file>  (35) 
/var/tmp/pbs.5076255.sched01/tmp5ffkvrn0/0o5bi62ha.sdf

>  <i_m_source_file_index>  (35) 
18

>  <i_lp_mmshare_version>  (35) 
48012

>  <i_f3d_flags>  (35) 
0

>  <s_epik_input>  (35) 
W2NIXTFubihbQ0gzXSljKFtOSF1DMj1PKWMxW0NASF0oW0NIMl1bQ0BASF0zW0NIMl1bTkhdNClbQ0BASF0yW0NAXTM0YzVbY0hdW2NIXVtjSF1bY0hdYzVG

>  <s_epik_cmdline>  (35) 
J2VwaWtfcHl0aG9uJywgJy1waHQnLCAnMi4wJywgJy1waCcsICc3LjAnLCAnLXRuJywgJzgnLCAnLW1hJywgJzIwMCcsICctaW1hZScsICc8aW5maWxlLm1hZT4nLCAnLW9tYWUnLCAnPG91dGZpbGUubWFlPic=

>  <r_lp_tautomer_probability>  (35) 
1

>  <r_epik_Ionization_Penalty>  (35) 
1.6965

>  <r_epik_Ionization_Penalty_Charging>  (35) 
0

>  <r_epik_Ionization_Penalty_Neutral>  (35) 
1.6965

>  <r_epik_State_Penalty>  (35) 
1.80214

>  <r_epik_Charging_Adjusted_Penalty>  (35) 
1.80214

>  <i_epik_Tot_Q>  (35) 
0

>  <i_epik_Tot_abs_Q>  (35) 
0

>  <s_lp_Force_Field>  (35) 
OPLS3e

>  <r_lp_Energy>  (35) 
38.8088

>  <b_lp_Chiralities_Consistent>  (35) 
1

>  <s_lp_Variant>  (35) 
12:0-2

>  <s_i_glide_gridfile>  (35) 
pfpi4k_grid

>  <i_i_glide_lignum>  (35) 
18

>  <i_i_glide_rotatable_bonds>  (35) 
1

>  <r_i_docking_score>  (35) 
-4.19523

>  <r_i_glide_ligand_efficiency>  (35) 
-0.182401

>  <r_i_glide_ligand_efficiency_sa>  (35) 
-0.518725

>  <r_i_glide_ligand_efficiency_ln>  (35) 
-1.01444

>  <r_i_glide_gscore>  (35) 
-4.19523

>  <r_i_glide_lipo>  (35) 
-0.893587

>  <r_i_glide_hbond>  (35) 
-0.16

>  <r_i_glide_metal>  (35) 
-0

>  <r_i_glide_rewards>  (35) 
-1.31238

>  <r_i_glide_evdw>  (35) 
-21.9184

>  <r_i_glide_ecoul>  (35) 
-5.38771

>  <r_i_glide_erotb>  (35) 
0.19023

>  <r_i_glide_esite>  (35) 
-0.11542

>  <r_i_glide_emodel>  (35) 
-35.2944

>  <r_i_glide_energy>  (35) 
-27.3062

>  <r_i_glide_einternal>  (35) 
0.242482

>  <r_i_glide_intrahb_reward>  (35) 
-0

>  <i_i_glide_confnum>  (35) 
6

>  <i_i_glide_posenum>  (35) 
17

>  <r_i_glide_eff_state_penalty>  (35) 
0

>  <ligand_id>  (35) 
12

>  <original_smiles>  (35) 
Cn1ncc2c1NC(=O)C1C2CC2CNC21c1ccccc1F

>  <smiles>  (35) 
[H]c1nn(C([H])([H])[H])c2c1C1([H])C([H])([H])C3([H])C([H])([H])N([H])C3(c3c([H])c([H])c([H])c([H])c3F)C1([H])C(=O)N2[H]

$$$$
12:1:2
     RDKit          3D

 40 44  0  0  1  0  0  0  0  0999 V2000
    4.0818   -3.6405   -4.1533 C   0  0  0  0  0  0  0  0  0  0  0  0
    4.0750   -2.6441   -3.1135 N   0  0  0  0  0  0  0  0  0  0  0  0
    4.4296   -1.3790   -3.4111 N   0  0  0  0  0  0  0  0  0  0  0  0
    4.3218   -0.7063   -2.2698 C   0  0  0  0  0  0  0  0  0  0  0  0
    3.8911   -1.5238   -1.1820 C   0  0  0  0  0  0  0  0  0  0  0  0
    3.7348   -2.7327   -1.7854 C   0  0  0  0  0  0  0  0  0  0  0  0
    3.3025   -3.8359   -1.1318 N   0  0  0  0  0  0  0  0  0  0  0  0
    3.1845   -3.8836    0.2066 C   0  0  0  0  0  0  0  0  0  0  0  0
    2.6785   -4.8463    0.7791 O   0  0  0  0  0  0  0  0  0  0  0  0
    3.6770   -2.6577    1.0239 C   0  0  2  0  0  0  0  0  0  0  0  0
    3.6026   -1.2883    0.2837 C   0  0  1  0  0  0  0  0  0  0  0  0
    4.6437   -0.4044    0.9994 C   0  0  0  0  0  0  0  0  0  0  0  0
    5.7207   -1.3567    1.4990 C   0  0  2  0  0  0  0  0  0  0  0  0
    6.7438   -1.8718    0.4973 C   0  0  0  0  0  0  0  0  0  0  0  0
    6.1683   -3.1883    0.6779 N   0  0  0  0  0  0  0  0  0  0  0  0
    5.1143   -2.7588    1.6017 C   0  0  2  0  0  0  0  0  0  0  0  0
    5.1615   -3.5660    2.9027 C   0  0  0  0  0  0  0  0  0  0  0  0
    5.3610   -4.9663    2.8515 C   0  0  0  0  0  0  0  0  0  0  0  0
    5.3870   -5.7340    4.0294 C   0  0  0  0  0  0  0  0  0  0  0  0
    5.2078   -5.1074    5.2755 C   0  0  0  0  0  0  0  0  0  0  0  0
    5.0104   -3.7169    5.3394 C   0  0  0  0  0  0  0  0  0  0  0  0
    4.9789   -2.9478    4.1605 C   0  0  0  0  0  0  0  0  0  0  0  0
    4.7718   -1.6105    4.2512 F   0  0  0  0  0  0  0  0  0  0  0  0
    4.0324   -4.6393   -3.7363 H   0  0  0  0  0  0  0  0  0  0  0  0
    5.0070   -3.5805   -4.7221 H   0  0  0  0  0  0  0  0  0  0  0  0
    3.2236   -3.4526   -4.7952 H   0  0  0  0  0  0  0  0  0  0  0  0
    4.5548    0.3466   -2.2843 H   0  0  0  0  0  0  0  0  0  0  0  0
    3.0371   -4.6349   -1.6984 H   0  0  0  0  0  0  0  0  0  0  0  0
    2.9915   -2.5610    1.8680 H   0  0  0  0  0  0  0  0  0  0  0  0
    2.6175   -0.8502    0.3983 H   0  0  0  0  0  0  0  0  0  0  0  0
    5.0246    0.4109    0.3888 H   0  0  0  0  0  0  0  0  0  0  0  0
    4.1511    0.0524    1.8554 H   0  0  0  0  0  0  0  0  0  0  0  0
    6.2250   -1.0243    2.4058 H   0  0  0  0  0  0  0  0  0  0  0  0
    6.6290   -1.4846   -0.5160 H   0  0  0  0  0  0  0  0  0  0  0  0
    7.7722   -1.8208    0.8557 H   0  0  0  0  0  0  0  0  0  0  0  0
    5.8140   -3.5711   -0.1825 H   0  0  0  0  0  0  0  0  0  0  0  0
    5.4945   -5.4605    1.9000 H   0  0  0  0  0  0  0  0  0  0  0  0
    5.5375   -6.8025    3.9745 H   0  0  0  0  0  0  0  0  0  0  0  0
    5.2194   -5.6957    6.1807 H   0  0  0  0  0  0  0  0  0  0  0  0
    4.8738   -3.2333    6.2960 H   0  0  0  0  0  0  0  0  0  0  0  0
  1  2  1  0
  1 24  1  0
  1 25  1  0
  1 26  1  0
  2  6  1  0
  2  3  1  0
  3  4  2  0
  4  5  1  0
  4 27  1  0
  5 11  1  0
  5  6  2  0
  6  7  1  0
  7  8  1  0
  7 28  1  0
  8  9  2  0
  8 10  1  0
 10 16  1  0
 10 11  1  0
 10 29  1  1
 11 12  1  0
 11 30  1  6
 12 13  1  0
 12 31  1  0
 12 32  1  0
 13 16  1  0
 13 14  1  0
 13 33  1  1
 14 15  1  0
 14 34  1  0
 14 35  1  0
 15 16  1  0
 15 36  1  0
 16 17  1  1
 17 22  1  0
 17 18  2  0
 18 19  1  0
 18 37  1  0
 19 20  2  0
 19 38  1  0
 20 21  1  0
 20 39  1  0
 21 22  2  0
 21 40  1  0
 22 23  1  0
M  END
>  <i_m_ct_stereo_status>  (36) 
1

>  <s_m_source_file>  (36) 
/var/tmp/pbs.5076255.sched01/tmp5ffkvrn0/0o5bi62ha.sdf

>  <i_m_source_file_index>  (36) 
18

>  <i_lp_mmshare_version>  (36) 
48012

>  <i_f3d_flags>  (36) 
0

>  <s_epik_input>  (36) 
W2NIXTFubihbQ0gzXSljKFtOSF1DMj1PKWMxW0NASF0oW0NIMl1bQ0BASF0zW0NIMl1bTkhdNClbQ0BASF0yW0NAXTM0YzVbY0hdW2NIXVtjSF1bY0hdYzVG

>  <s_epik_cmdline>  (36) 
J2VwaWtfcHl0aG9uJywgJy1waHQnLCAnMi4wJywgJy1waCcsICc3LjAnLCAnLXRuJywgJzgnLCAnLW1hJywgJzIwMCcsICctaW1hZScsICc8aW5maWxlLm1hZT4nLCAnLW9tYWUnLCAnPG91dGZpbGUubWFlPic=

>  <r_lp_tautomer_probability>  (36) 
1

>  <r_epik_Ionization_Penalty>  (36) 
1.6965

>  <r_epik_Ionization_Penalty_Charging>  (36) 
0

>  <r_epik_Ionization_Penalty_Neutral>  (36) 
1.6965

>  <r_epik_State_Penalty>  (36) 
1.80214

>  <r_epik_Charging_Adjusted_Penalty>  (36) 
1.80214

>  <i_epik_Tot_Q>  (36) 
0

>  <i_epik_Tot_abs_Q>  (36) 
0

>  <s_lp_Force_Field>  (36) 
OPLS3e

>  <r_lp_Energy>  (36) 
38.8088

>  <b_lp_Chiralities_Consistent>  (36) 
1

>  <s_lp_Variant>  (36) 
12:0-2

>  <s_i_glide_gridfile>  (36) 
pfpi4k_grid

>  <i_i_glide_lignum>  (36) 
18

>  <i_i_glide_rotatable_bonds>  (36) 
1

>  <r_i_docking_score>  (36) 
-4.17716

>  <r_i_glide_ligand_efficiency>  (36) 
-0.181615

>  <r_i_glide_ligand_efficiency_sa>  (36) 
-0.51649

>  <r_i_glide_ligand_efficiency_ln>  (36) 
-1.01007

>  <r_i_glide_gscore>  (36) 
-4.17716

>  <r_i_glide_lipo>  (36) 
-0.482772

>  <r_i_glide_hbond>  (36) 
-0.32

>  <r_i_glide_metal>  (36) 
-0

>  <r_i_glide_rewards>  (36) 
-1.50036

>  <r_i_glide_evdw>  (36) 
-21.902

>  <r_i_glide_ecoul>  (36) 
-6.35174

>  <r_i_glide_erotb>  (36) 
0.19023

>  <r_i_glide_esite>  (36) 
-0.0163912

>  <r_i_glide_emodel>  (36) 
-36.1825

>  <r_i_glide_energy>  (36) 
-28.2537

>  <r_i_glide_einternal>  (36) 
0.253861

>  <r_i_glide_intrahb_reward>  (36) 
-0

>  <i_i_glide_confnum>  (36) 
6

>  <i_i_glide_posenum>  (36) 
25

>  <r_i_glide_eff_state_penalty>  (36) 
0

>  <ligand_id>  (36) 
12

>  <original_smiles>  (36) 
Cn1ncc2c1NC(=O)C1C2CC2CNC21c1ccccc1F

>  <smiles>  (36) 
[H]c1nn(C([H])([H])[H])c2c1C1([H])C([H])([H])C3([H])C([H])([H])N([H])C3(c3c([H])c([H])c([H])c([H])c3F)C1([H])C(=O)N2[H]

$$$$
13:0:0
     RDKit          3D

 82 89  0  0  1  0  0  0  0  0999 V2000
   -2.1668    2.2826    2.6171 C   0  0  0  0  0  0  0  0  0  0  0  0
   -2.2668    2.0934    4.0242 O   0  0  0  0  0  0  0  0  0  0  0  0
   -1.0699    1.8594    4.7140 C   0  0  2  0  0  0  0  0  0  0  0  0
   -0.2425    1.0918    4.0658 O   0  0  0  0  0  0  0  0  0  0  0  0
    0.2911    0.3330    5.0412 C   0  0  2  0  0  0  0  0  0  0  0  0
    0.3530   -1.1467    4.2992 C   0  0  0  0  0  0  0  0  0  0  0  0
   -0.8953   -0.1440    5.6013 O   0  0  0  0  0  0  0  0  0  0  0  0
   -1.4335    0.9569    6.0008 C   0  0  1  0  0  0  0  0  0  0  0  0
   -0.5283    0.8145    7.2806 C   0  0  1  0  0  0  0  0  0  0  0  0
    0.6255   -0.6686    7.2470 C   0  0  1  0  0  0  0  0  0  0  0  0
   -0.0440   -1.9401    7.2573 O   0  0  0  0  0  0  0  0  0  0  0  0
    2.1877   -0.6289    6.1332 C   0  0  1  0  0  0  0  0  0  0  0  0
    2.8444    0.2484    4.5362 C   0  0  2  0  0  0  0  0  0  0  0  0
    3.5830    1.7336    4.5709 C   0  0  0  0  0  0  0  0  0  0  0  0
    2.7379    3.1033    4.5758 C   0  0  1  0  0  0  0  0  0  0  0  0
    1.2779    3.0657    3.9796 C   0  0  1  0  0  0  0  0  0  0  0  0
    1.1861    4.2986    3.2754 O   0  0  0  0  0  0  0  0  0  0  0  0
    1.6181    2.0793    2.7524 C   0  0  0  0  0  0  0  0  0  0  0  0
    2.2132    0.6012    3.0401 C   0  0  1  0  0  0  0  0  0  0  0  0
    3.1510    0.1949    1.8773 C   0  0  0  0  0  0  0  0  0  0  0  0
   -0.2321    3.1177    4.8140 C   0  0  2  0  0  0  0  0  0  0  0  0
   -0.6306    3.5436    6.2778 C   0  0  0  0  0  0  0  0  0  0  0  0
   -0.2829    5.0511    6.3806 C   0  0  0  0  0  0  0  0  0  0  0  0
   -2.1851    3.7228    6.5218 C   0  0  0  0  0  0  0  0  0  0  0  0
   -0.0927    2.4514    7.3328 C   0  0  2  0  0  0  0  0  0  0  0  0
    1.4111    2.5072    7.3534 C   0  0  1  0  0  0  0  0  0  0  0  0
    1.6596    2.4688    8.9543 C   0  0  0  0  0  0  0  0  0  0  0  0
    1.7052    1.2395    6.3611 C   0  0  2  0  0  0  0  0  0  0  0  0
    2.9328    0.2406    6.9620 C   0  0  0  0  0  0  0  0  0  0  0  0
    3.0853   -0.1572    8.5113 C   0  0  0  0  0  0  0  0  0  0  0  0
    4.5092    0.0762    6.7099 C   0  0  0  0  0  0  0  0  0  0  0  0
    2.2691    3.7718    7.0229 C   0  0  1  0  0  0  0  0  0  0  0  0
    2.1325    4.9161    7.8535 O   0  0  0  0  0  0  0  0  0  0  0  0
    3.7617    3.6407    6.9662 C   0  0  0  0  0  0  0  0  0  0  0  0
    2.9811    4.0570    5.7381 C   0  0  1  0  0  0  0  0  0  0  0  0
    3.2917    5.4914    5.2826 C   0  0  0  0  0  0  0  0  0  0  0  0
   -3.1300    2.6039    2.2158 H   0  0  0  0  0  0  0  0  0  0  0  0
   -1.8867    1.3526    2.1175 H   0  0  0  0  0  0  0  0  0  0  0  0
   -1.4348    3.0434    2.3344 H   0  0  0  0  0  0  0  0  0  0  0  0
   -0.2364   -1.1169    3.3841 H   0  0  0  0  0  0  0  0  0  0  0  0
   -0.0892   -1.9686    4.8654 H   0  0  0  0  0  0  0  0  0  0  0  0
    1.3260   -1.5525    4.0303 H   0  0  0  0  0  0  0  0  0  0  0  0
   -2.4979    0.7916    6.1532 H   0  0  0  0  0  0  0  0  0  0  0  0
   -1.1722    0.6426    8.1296 H   0  0  0  0  0  0  0  0  0  0  0  0
    0.8469   -0.8531    8.2861 H   0  0  0  0  0  0  0  0  0  0  0  0
    0.6018   -2.6262    7.2348 H   0  0  0  0  0  0  0  0  0  0  0  0
    2.6219   -1.6176    6.1570 H   0  0  0  0  0  0  0  0  0  0  0  0
    3.5909   -0.4836    4.2456 H   0  0  0  0  0  0  0  0  0  0  0  0
    4.4304    1.8685    5.2198 H   0  0  0  0  0  0  0  0  0  0  0  0
    4.1940    1.7717    3.6709 H   0  0  0  0  0  0  0  0  0  0  0  0
    3.3132    3.6117    3.8048 H   0  0  0  0  0  0  0  0  0  0  0  0
    0.7667    4.1833    2.4314 H   0  0  0  0  0  0  0  0  0  0  0  0
    0.7549    1.9925    2.1012 H   0  0  0  0  0  0  0  0  0  0  0  0
    2.3359    2.5811    2.0926 H   0  0  0  0  0  0  0  0  0  0  0  0
    1.4232   -0.0225    2.6606 H   0  0  0  0  0  0  0  0  0  0  0  0
    4.0779    0.7654    1.8124 H   0  0  0  0  0  0  0  0  0  0  0  0
    2.6396    0.3382    0.9225 H   0  0  0  0  0  0  0  0  0  0  0  0
    3.4113   -0.8637    1.9200 H   0  0  0  0  0  0  0  0  0  0  0  0
   -0.7964    3.8583    4.2537 H   0  0  0  0  0  0  0  0  0  0  0  0
   -0.3047    5.4335    7.4006 H   0  0  0  0  0  0  0  0  0  0  0  0
   -0.9844    5.6599    5.8019 H   0  0  0  0  0  0  0  0  0  0  0  0
    0.6528    5.3033    5.9091 H   0  0  0  0  0  0  0  0  0  0  0  0
   -2.3901    4.3906    7.3658 H   0  0  0  0  0  0  0  0  0  0  0  0
   -2.7435    2.8318    6.7857 H   0  0  0  0  0  0  0  0  0  0  0  0
   -2.6910    4.1340    5.6442 H   0  0  0  0  0  0  0  0  0  0  0  0
   -0.5082    2.8253    8.2664 H   0  0  0  0  0  0  0  0  0  0  0  0
    2.7144    2.3753    9.2024 H   0  0  0  0  0  0  0  0  0  0  0  0
    1.0989    1.6793    9.4541 H   0  0  0  0  0  0  0  0  0  0  0  0
    1.3004    3.3591    9.4677 H   0  0  0  0  0  0  0  0  0  0  0  0
    1.7066    1.1111    7.4067 H   0  0  0  0  0  0  0  0  0  0  0  0
    3.9070    0.3854    8.9809 H   0  0  0  0  0  0  0  0  0  0  0  0
    3.2934   -1.2209    8.6217 H   0  0  0  0  0  0  0  0  0  0  0  0
    2.2867    0.0419    9.2110 H   0  0  0  0  0  0  0  0  0  0  0  0
    5.1114    0.8483    7.1857 H   0  0  0  0  0  0  0  0  0  0  0  0
    4.9231   -0.0725    5.7205 H   0  0  0  0  0  0  0  0  0  0  0  0
    4.8611   -0.8493    7.1700 H   0  0  0  0  0  0  0  0  0  0  0  0
    2.2189    4.6564    8.7556 H   0  0  0  0  0  0  0  0  0  0  0  0
    4.3927    4.4091    7.4212 H   0  0  0  0  0  0  0  0  0  0  0  0
    4.1300    2.6448    7.1077 H   0  0  0  0  0  0  0  0  0  0  0  0
    3.4858    6.1433    6.1322 H   0  0  0  0  0  0  0  0  0  0  0  0
    2.4685    5.9313    4.7248 H   0  0  0  0  0  0  0  0  0  0  0  0
    4.1896    5.5183    4.6633 H   0  0  0  0  0  0  0  0  0  0  0  0
  1  2  1  0
  1 37  1  0
  1 38  1  0
  1 39  1  0
  3  2  1  6
  3  8  1  0
  3 21  1  0
  3  4  1  0
  4  5  1  0
  5 28  1  0
  5  6  1  6
  5  7  1  0
  6 40  1  0
  6 41  1  0
  6 42  1  0
  7  8  1  0
  8  9  1  0
  8 43  1  1
  9 25  1  0
  9 10  1  0
  9 44  1  1
 10 11  1  0
 10 12  1  0
 10 45  1  1
 11 46  1  0
 12 29  1  0
 12 13  1  0
 12 47  1  6
 13 19  1  0
 13 14  1  0
 13 48  1  6
 14 15  1  0
 14 49  1  0
 14 50  1  0
 15 35  1  0
 15 16  1  0
 15 51  1  6
 16 17  1  6
 16 18  1  0
 16 21  1  0
 17 52  1  0
 18 19  1  0
 18 53  1  0
 18 54  1  0
 19 20  1  0
 19 55  1  6
 20 56  1  0
 20 57  1  0
 20 58  1  0
 21 22  1  0
 21 59  1  6
 22 23  1  0
 22 24  1  0
 22 25  1  0
 23 60  1  0
 23 61  1  0
 23 62  1  0
 24 63  1  0
 24 64  1  0
 24 65  1  0
 25 26  1  0
 25 66  1  1
 26 27  1  1
 26 28  1  0
 26 32  1  0
 27 67  1  0
 27 68  1  0
 27 69  1  0
 28 29  1  0
 28 70  1  6
 29 30  1  0
 29 31  1  0
 30 71  1  0
 30 72  1  0
 30 73  1  0
 31 74  1  0
 31 75  1  0
 31 76  1  0
 32 35  1  0
 32 33  1  1
 32 34  1  0
 33 77  1  0
 34 35  1  0
 34 78  1  0
 34 79  1  0
 35 36  1  6
 36 80  1  0
 36 81  1  0
 36 82  1  0
M  END
>  <i_m_ct_stereo_status>  (37) 
1

>  <s_m_source_file>  (37) 
/var/tmp/pbs.5076255.sched01/tmp5ffkvrn0/0o5bi62ha.sdf

>  <i_m_source_file_index>  (37) 
19

>  <i_lp_mmshare_version>  (37) 
48012

>  <i_f3d_flags>  (37) 
0

>  <s_epik_input>  (37) 
W0NIM11PQzEyW0NAQEhdM1tDQEhdNFtDQEhdNVtDQEBdNihbQ0gzXSlbQ0BASF0oW0NAXShPMSkoTzMpW0NIM10pQyhbQ0gzXSkoW0NIM10pW0NAQEhdKFtDQEBIXTRbT0hdKVtDQEBIXTdbQ0gyXVtDQEhdKFtDQEBdOChbQ0gzXSlbQ0BdNihbT0hdKVtDSDJdOClbQ0BAXShbT0hdKShbQ0gyXVtDQEhdN1tDSDNdKVtDQEBIXTJDNShbQ0gzXSlbQ0gzXQ==

>  <s_epik_cmdline>  (37) 
J2VwaWtfcHl0aG9uJywgJy1waHQnLCAnMi4wJywgJy1waCcsICc3LjAnLCAnLXRuJywgJzgnLCAnLW1hJywgJzIwMCcsICctaW1hZScsICc8aW5maWxlLm1hZT4nLCAnLW9tYWUnLCAnPG91dGZpbGUubWFlPic=

>  <r_lp_tautomer_probability>  (37) 
1

>  <r_epik_Ionization_Penalty>  (37) 
1.40373e-06

>  <r_epik_Ionization_Penalty_Charging>  (37) 
0

>  <r_epik_Ionization_Penalty_Neutral>  (37) 
1.40373e-06

>  <r_epik_State_Penalty>  (37) 
-0

>  <r_epik_Charging_Adjusted_Penalty>  (37) 
0

>  <i_epik_Tot_Q>  (37) 
0

>  <i_epik_Tot_abs_Q>  (37) 
0

>  <s_lp_Force_Field>  (37) 
OPLS3e

>  <r_lp_Energy>  (37) 
911.365

>  <b_lp_Chiralities_Consistent>  (37) 
1

>  <s_lp_Variant>  (37) 
13:0-1

>  <s_i_glide_gridfile>  (37) 
pfpi4k_grid

>  <i_i_glide_lignum>  (37) 
19

>  <i_i_glide_rotatable_bonds>  (37) 
4

>  <r_i_docking_score>  (37) 
-1.97495

>  <r_i_glide_ligand_efficiency>  (37) 
-0.0548599

>  <r_i_glide_ligand_efficiency_sa>  (37) 
-0.181143

>  <r_i_glide_ligand_efficiency_ln>  (37) 
-0.430882

>  <r_i_glide_gscore>  (37) 
-1.97495

>  <r_i_glide_lipo>  (37) 
-0.124772

>  <r_i_glide_hbond>  (37) 
-0.16

>  <r_i_glide_metal>  (37) 
-0

>  <r_i_glide_rewards>  (37) 
0

>  <r_i_glide_evdw>  (37) 
-18.8269

>  <r_i_glide_ecoul>  (37) 
-4.83093

>  <r_i_glide_erotb>  (37) 
0

>  <r_i_glide_esite>  (37) 
-0.0241999

>  <r_i_glide_emodel>  (37) 
-25.4498

>  <r_i_glide_energy>  (37) 
-23.6578

>  <r_i_glide_einternal>  (37) 
2.68431

>  <r_i_glide_intrahb_reward>  (37) 
-0

>  <i_i_glide_confnum>  (37) 
1

>  <i_i_glide_posenum>  (37) 
8

>  <r_i_glide_eff_state_penalty>  (37) 
0

>  <ligand_id>  (37) 
13

>  <original_smiles>  (37) 
COC12OC3(C)OC1C1C(O)C4C5CC6C(O)(CC5C)C2C(C)(C)C1C(C)(C3C4(C)C)C1(O)CC61C

>  <smiles>  (37) 
[H]OC1([H])C2([H])C3([H])OC4(C([H])([H])[H])OC3(OC([H])([H])[H])C3([H])C5(O[H])C([H])([H])C([H])(C([H])([H])[H])C6([H])C([H])([H])C5([H])C5(C([H])([H])[H])C([H])([H])C5(O[H])C(C([H])([H])[H])(C4([H])C(C([H])([H])[H])(C([H])([H])[H])C16[H])C2([H])C3(C([H])([H])[H])C([H])([H])[H]

$$$$
13:0:1
     RDKit          3D

 82 89  0  0  1  0  0  0  0  0999 V2000
   -2.9838    2.9409    4.6707 C   0  0  0  0  0  0  0  0  0  0  0  0
   -2.5583    2.6667    6.0002 O   0  0  0  0  0  0  0  0  0  0  0  0
   -1.2010    2.3606    6.1733 C   0  0  2  0  0  0  0  0  0  0  0  0
   -0.7467    1.5420    5.2693 O   0  0  0  0  0  0  0  0  0  0  0  0
    0.0685    0.7491    5.9468 C   0  0  2  0  0  0  0  0  0  0  0  0
   -0.2595   -0.7308    5.2854 C   0  0  0  0  0  0  0  0  0  0  0  0
   -0.8215    0.3492    6.9479 O   0  0  0  0  0  0  0  0  0  0  0  0
   -1.0750    1.4729    7.5148 C   0  0  1  0  0  0  0  0  0  0  0  0
    0.2564    1.2643    8.3237 C   0  0  1  0  0  0  0  0  0  0  0  0
    1.2005   -0.3062    7.8746 C   0  0  1  0  0  0  0  0  0  0  0  0
    0.4980   -1.5112    8.1482 O   0  0  0  0  0  0  0  0  0  0  0  0
    2.1870   -0.3444    6.2171 C   0  0  1  0  0  0  0  0  0  0  0  0
    2.2088    0.4927    4.4750 C   0  0  2  0  0  0  0  0  0  0  0  0
    2.9899    1.9282    4.1685 C   0  0  0  0  0  0  0  0  0  0  0  0
    2.3129    3.3510    4.4927 C   0  0  1  0  0  0  0  0  0  0  0  0
    0.7361    3.4124    4.5398 C   0  0  1  0  0  0  0  0  0  0  0  0
    0.4200    4.6472    3.9193 O   0  0  0  0  0  0  0  0  0  0  0  0
    0.4902    2.4145    3.3016 C   0  0  0  0  0  0  0  0  0  0  0  0
    1.0510    0.8991    3.3514 C   0  0  1  0  0  0  0  0  0  0  0  0
    1.4224    0.4422    1.9184 C   0  0  0  0  0  0  0  0  0  0  0  0
   -0.3036    3.5606    5.9142 C   0  0  2  0  0  0  0  0  0  0  0  0
   -0.0622    4.0050    7.4007 C   0  0  0  0  0  0  0  0  0  0  0  0
    0.3939    5.4841    7.3235 C   0  0  0  0  0  0  0  0  0  0  0  0
   -1.3707    4.2884    8.2467 C   0  0  0  0  0  0  0  0  0  0  0  0
    0.7791    2.8671    8.1716 C   0  0  2  0  0  0  0  0  0  0  0  0
    2.1676    2.8247    7.5823 C   0  0  1  0  0  0  0  0  0  0  0  0
    3.0349    2.7602    8.9514 C   0  0  0  0  0  0  0  0  0  0  0  0
    1.9619    1.5471    6.5877 C   0  0  2  0  0  0  0  0  0  0  0  0
    3.2579    0.4615    6.6632 C   0  0  0  0  0  0  0  0  0  0  0  0
    3.9919    0.0470    8.0318 C   0  0  0  0  0  0  0  0  0  0  0  0
    4.5866    0.1998    5.8061 C   0  0  0  0  0  0  0  0  0  0  0  0
    2.8994    4.0282    6.9104 C   0  0  1  0  0  0  0  0  0  0  0  0
    3.1818    5.1747    7.7061 O   0  0  0  0  0  0  0  0  0  0  0  0
    4.2370    3.8008    6.2679 C   0  0  0  0  0  0  0  0  0  0  0  0
    3.0556    4.2769    5.4392 C   0  0  1  0  0  0  0  0  0  0  0  0
    3.2476    5.6880    4.8702 C   0  0  0  0  0  0  0  0  0  0  0  0
   -4.0134    3.2927    4.7006 H   0  0  0  0  0  0  0  0  0  0  0  0
   -2.9662    2.0324    4.0708 H   0  0  0  0  0  0  0  0  0  0  0  0
   -2.3989    3.6932    4.1500 H   0  0  0  0  0  0  0  0  0  0  0  0
   -1.1764   -0.6603    4.6925 H   0  0  0  0  0  0  0  0  0  0  0  0
   -0.4809   -1.5281    5.9933 H   0  0  0  0  0  0  0  0  0  0  0  0
    0.4960   -1.1976    4.6560 H   0  0  0  0  0  0  0  0  0  0  0  0
   -1.9959    1.3847    8.0830 H   0  0  0  0  0  0  0  0  0  0  0  0
   -0.0157    1.1202    9.3663 H   0  0  0  0  0  0  0  0  0  0  0  0
    1.8015   -0.4915    8.7340 H   0  0  0  0  0  0  0  0  0  0  0  0
    1.1097   -2.2365    8.1209 H   0  0  0  0  0  0  0  0  0  0  0  0
    2.5334   -1.3659    6.0886 H   0  0  0  0  0  0  0  0  0  0  0  0
    2.7276   -0.2874    3.9269 H   0  0  0  0  0  0  0  0  0  0  0  0
    4.0335    1.9997    4.4255 H   0  0  0  0  0  0  0  0  0  0  0  0
    3.1775    1.9482    3.0931 H   0  0  0  0  0  0  0  0  0  0  0  0
    2.5576    3.8284    3.5459 H   0  0  0  0  0  0  0  0  0  0  0  0
    0.5752    4.5677    2.9886 H   0  0  0  0  0  0  0  0  0  0  0  0
   -0.5685    2.3933    3.0489 H   0  0  0  0  0  0  0  0  0  0  0  0
    0.9157    2.8641    2.4004 H   0  0  0  0  0  0  0  0  0  0  0  0
    0.1405    0.3303    3.3334 H   0  0  0  0  0  0  0  0  0  0  0  0
    2.2798    0.9512    1.4779 H   0  0  0  0  0  0  0  0  0  0  0  0
    0.5840    0.6299    1.2439 H   0  0  0  0  0  0  0  0  0  0  0  0
    1.6086   -0.6313    1.8718 H   0  0  0  0  0  0  0  0  0  0  0  0
   -0.9896    4.3559    5.6246 H   0  0  0  0  0  0  0  0  0  0  0  0
    0.8073    5.8575    8.2570 H   0  0  0  0  0  0  0  0  0  0  0  0
   -0.4433    6.1403    7.0681 H   0  0  0  0  0  0  0  0  0  0  0  0
    1.0751    5.6774    6.5091 H   0  0  0  0  0  0  0  0  0  0  0  0
   -1.1779    4.9629    9.0836 H   0  0  0  0  0  0  0  0  0  0  0  0
   -1.8314    3.4339    8.7255 H   0  0  0  0  0  0  0  0  0  0  0  0
   -2.1624    4.7571    7.6609 H   0  0  0  0  0  0  0  0  0  0  0  0
    0.8003    3.2603    9.1855 H   0  0  0  0  0  0  0  0  0  0  0  0
    4.0947    2.5951    8.7602 H   0  0  0  0  0  0  0  0  0  0  0  0
    2.6722    2.0067    9.6500 H   0  0  0  0  0  0  0  0  0  0  0  0
    2.9681    3.6682    9.5486 H   0  0  0  0  0  0  0  0  0  0  0  0
    2.3685    1.4109    7.5414 H   0  0  0  0  0  0  0  0  0  0  0  0
    4.9666    0.5307    8.1216 H   0  0  0  0  0  0  0  0  0  0  0  0
    4.1612   -1.0294    8.0725 H   0  0  0  0  0  0  0  0  0  0  0  0
    3.5562    0.2917    8.9892 H   0  0  0  0  0  0  0  0  0  0  0  0
    5.3760    0.9281    5.9853 H   0  0  0  0  0  0  0  0  0  0  0  0
    4.5623    0.0282    4.7365 H   0  0  0  0  0  0  0  0  0  0  0  0
    5.0356   -0.7491    6.1052 H   0  0  0  0  0  0  0  0  0  0  0  0
    3.5044    4.8880    8.5443 H   0  0  0  0  0  0  0  0  0  0  0  0
    5.0397    4.5240    6.4198 H   0  0  0  0  0  0  0  0  0  0  0  0
    4.5662    2.7819    6.2685 H   0  0  0  0  0  0  0  0  0  0  0  0
    3.8065    6.3212    5.5590 H   0  0  0  0  0  0  0  0  0  0  0  0
    2.2983    6.1842    4.6819 H   0  0  0  0  0  0  0  0  0  0  0  0
    3.8197    5.6590    3.9421 H   0  0  0  0  0  0  0  0  0  0  0  0
  1  2  1  0
  1 37  1  0
  1 38  1  0
  1 39  1  0
  3  2  1  6
  3  8  1  0
  3 21  1  0
  3  4  1  0
  4  5  1  0
  5 28  1  0
  5  6  1  6
  5  7  1  0
  6 40  1  0
  6 41  1  0
  6 42  1  0
  7  8  1  0
  8  9  1  0
  8 43  1  1
  9 25  1  0
  9 10  1  0
  9 44  1  1
 10 11  1  0
 10 12  1  0
 10 45  1  1
 11 46  1  0
 12 29  1  0
 12 13  1  0
 12 47  1  6
 13 19  1  0
 13 14  1  0
 13 48  1  6
 14 15  1  0
 14 49  1  0
 14 50  1  0
 15 35  1  0
 15 16  1  0
 15 51  1  6
 16 17  1  6
 16 18  1  0
 16 21  1  0
 17 52  1  0
 18 19  1  0
 18 53  1  0
 18 54  1  0
 19 20  1  0
 19 55  1  1
 20 56  1  0
 20 57  1  0
 20 58  1  0
 21 22  1  0
 21 59  1  6
 22 23  1  0
 22 24  1  0
 22 25  1  0
 23 60  1  0
 23 61  1  0
 23 62  1  0
 24 63  1  0
 24 64  1  0
 24 65  1  0
 25 26  1  0
 25 66  1  1
 26 27  1  1
 26 28  1  0
 26 32  1  0
 27 67  1  0
 27 68  1  0
 27 69  1  0
 28 29  1  0
 28 70  1  6
 29 30  1  0
 29 31  1  0
 30 71  1  0
 30 72  1  0
 30 73  1  0
 31 74  1  0
 31 75  1  0
 31 76  1  0
 32 35  1  0
 32 33  1  1
 32 34  1  0
 33 77  1  0
 34 35  1  0
 34 78  1  0
 34 79  1  0
 35 36  1  1
 36 80  1  0
 36 81  1  0
 36 82  1  0
M  END
>  <i_m_ct_stereo_status>  (38) 
1

>  <s_m_source_file>  (38) 
/var/tmp/pbs.5076255.sched01/tmp5ffkvrn0/0o5bi62ha.sdf

>  <i_m_source_file_index>  (38) 
19

>  <i_lp_mmshare_version>  (38) 
48012

>  <i_f3d_flags>  (38) 
0

>  <s_epik_input>  (38) 
W0NIM11PQzEyW0NAQEhdM1tDQEhdNFtDQEhdNVtDQEBdNihbQ0gzXSlbQ0BASF0oW0NAXShPMSkoTzMpW0NIM10pQyhbQ0gzXSkoW0NIM10pW0NAQEhdKFtDQEBIXTRbT0hdKVtDQEBIXTdbQ0gyXVtDQEhdKFtDQEBdOChbQ0gzXSlbQ0BdNihbT0hdKVtDSDJdOClbQ0BAXShbT0hdKShbQ0gyXVtDQEhdN1tDSDNdKVtDQEBIXTJDNShbQ0gzXSlbQ0gzXQ==

>  <s_epik_cmdline>  (38) 
J2VwaWtfcHl0aG9uJywgJy1waHQnLCAnMi4wJywgJy1waCcsICc3LjAnLCAnLXRuJywgJzgnLCAnLW1hJywgJzIwMCcsICctaW1hZScsICc8aW5maWxlLm1hZT4nLCAnLW9tYWUnLCAnPG91dGZpbGUubWFlPic=

>  <r_lp_tautomer_probability>  (38) 
1

>  <r_epik_Ionization_Penalty>  (38) 
1.40373e-06

>  <r_epik_Ionization_Penalty_Charging>  (38) 
0

>  <r_epik_Ionization_Penalty_Neutral>  (38) 
1.40373e-06

>  <r_epik_State_Penalty>  (38) 
-0

>  <r_epik_Charging_Adjusted_Penalty>  (38) 
0

>  <i_epik_Tot_Q>  (38) 
0

>  <i_epik_Tot_abs_Q>  (38) 
0

>  <s_lp_Force_Field>  (38) 
OPLS3e

>  <r_lp_Energy>  (38) 
911.365

>  <b_lp_Chiralities_Consistent>  (38) 
1

>  <s_lp_Variant>  (38) 
13:0-1

>  <s_i_glide_gridfile>  (38) 
pfpi4k_grid

>  <i_i_glide_lignum>  (38) 
19

>  <i_i_glide_rotatable_bonds>  (38) 
4

>  <r_i_docking_score>  (38) 
-1.91377

>  <r_i_glide_ligand_efficiency>  (38) 
-0.0531603

>  <r_i_glide_ligand_efficiency_sa>  (38) 
-0.175532

>  <r_i_glide_ligand_efficiency_ln>  (38) 
-0.417533

>  <r_i_glide_gscore>  (38) 
-1.91377

>  <r_i_glide_lipo>  (38) 
-0.0124465

>  <r_i_glide_hbond>  (38) 
-0.133085

>  <r_i_glide_metal>  (38) 
-0

>  <r_i_glide_rewards>  (38) 
0

>  <r_i_glide_evdw>  (38) 
-17.5908

>  <r_i_glide_ecoul>  (38) 
-5.85523

>  <r_i_glide_erotb>  (38) 
0

>  <r_i_glide_esite>  (38) 
-0.0104142

>  <r_i_glide_emodel>  (38) 
-25.0993

>  <r_i_glide_energy>  (38) 
-23.4461

>  <r_i_glide_einternal>  (38) 
2.84775

>  <r_i_glide_intrahb_reward>  (38) 
-0

>  <i_i_glide_confnum>  (38) 
2

>  <i_i_glide_posenum>  (38) 
1

>  <r_i_glide_eff_state_penalty>  (38) 
0

>  <ligand_id>  (38) 
13

>  <original_smiles>  (38) 
COC12OC3(C)OC1C1C(O)C4C5CC6C(O)(CC5C)C2C(C)(C)C1C(C)(C3C4(C)C)C1(O)CC61C

>  <smiles>  (38) 
[H]OC1([H])C2([H])C3([H])OC4(C([H])([H])[H])OC3(OC([H])([H])[H])C3([H])C5(O[H])C([H])([H])C([H])(C([H])([H])[H])C6([H])C([H])([H])C5([H])C5(C([H])([H])[H])C([H])([H])C5(O[H])C(C([H])([H])[H])(C4([H])C(C([H])([H])[H])(C([H])([H])[H])C16[H])C2([H])C3(C([H])([H])[H])C([H])([H])[H]

$$$$
13:0:2
     RDKit          3D

 82 89  0  0  1  0  0  0  0  0999 V2000
   -2.0803    3.9918    3.0351 C   0  0  0  0  0  0  0  0  0  0  0  0
   -1.5282    2.7128    3.3082 O   0  0  0  0  0  0  0  0  0  0  0  0
   -0.5070    2.6183    4.2682 C   0  0  2  0  0  0  0  0  0  0  0  0
   -0.8703    3.0887    5.4273 O   0  0  0  0  0  0  0  0  0  0  0  0
    0.2628    3.6272    5.9020 C   0  0  2  0  0  0  0  0  0  0  0  0
   -0.2974    5.0304    6.5746 C   0  0  0  0  0  0  0  0  0  0  0  0
    0.5663    4.4351    4.8043 O   0  0  0  0  0  0  0  0  0  0  0  0
    0.7449    3.5656    3.8751 C   0  0  1  0  0  0  0  0  0  0  0  0
    2.2007    3.3928    4.4416 C   0  0  1  0  0  0  0  0  0  0  0  0
    2.5723    4.4575    5.9462 C   0  0  1  0  0  0  0  0  0  0  0  0
    2.5296    5.8675    5.7332 O   0  0  0  0  0  0  0  0  0  0  0  0
    1.8625    3.9611    7.6554 C   0  0  1  0  0  0  0  0  0  0  0  0
    0.3919    2.9570    8.4225 C   0  0  2  0  0  0  0  0  0  0  0  0
    0.4573    1.3187    8.6718 C   0  0  0  0  0  0  0  0  0  0  0  0
    0.1517    0.2706    7.4894 C   0  0  1  0  0  0  0  0  0  0  0  0
   -0.7702    0.7628    6.3010 C   0  0  1  0  0  0  0  0  0  0  0  0
   -1.5742   -0.3758    6.0461 O   0  0  0  0  0  0  0  0  0  0  0  0
   -1.7883    1.6187    7.2022 C   0  0  0  0  0  0  0  0  0  0  0  0
   -1.2382    2.8314    8.1135 C   0  0  1  0  0  0  0  0  0  0  0  0
   -2.1051    2.9514    9.3965 C   0  0  0  0  0  0  0  0  0  0  0  0
   -0.3391    1.1608    4.6676 C   0  0  2  0  0  0  0  0  0  0  0  0
    0.9370    0.8340    3.8068 C   0  0  0  0  0  0  0  0  0  0  0  0
    0.9880   -0.7101    3.6790 C   0  0  0  0  0  0  0  0  0  0  0  0
    0.7883    1.1185    2.2564 C   0  0  0  0  0  0  0  0  0  0  0  0
    2.1914    1.6954    4.3520 C   0  0  2  0  0  0  0  0  0  0  0  0
    2.5681    1.1851    5.7204 C   0  0  1  0  0  0  0  0  0  0  0  0
    4.1790    1.1238    5.5553 C   0  0  0  0  0  0  0  0  0  0  0  0
    1.7986    2.3177    6.6134 C   0  0  2  0  0  0  0  0  0  0  0  0
    2.7622    2.8941    7.8825 C   0  0  0  0  0  0  0  0  0  0  0  0
    4.3308    3.2058    7.7411 C   0  0  0  0  0  0  0  0  0  0  0  0
    2.9081    2.5836    9.4484 C   0  0  0  0  0  0  0  0  0  0  0  0
    2.3426   -0.2710    6.2371 C   0  0  1  0  0  0  0  0  0  0  0  0
    3.0028   -1.3344    5.5615 O   0  0  0  0  0  0  0  0  0  0  0  0
    2.6565   -0.5921    7.6743 C   0  0  0  0  0  0  0  0  0  0  0  0
    1.2417   -0.7374    7.1459 C   0  0  1  0  0  0  0  0  0  0  0  0
    0.7437   -2.1914    7.1350 C   0  0  0  0  0  0  0  0  0  0  0  0
   -2.9285    3.8682    2.3612 H   0  0  0  0  0  0  0  0  0  0  0  0
   -1.3856    4.6681    2.5387 H   0  0  0  0  0  0  0  0  0  0  0  0
   -2.4423    4.4673    3.9452 H   0  0  0  0  0  0  0  0  0  0  0  0
   -1.3163    5.1793    6.2403 H   0  0  0  0  0  0  0  0  0  0  0  0
    0.2166    5.9400    6.2655 H   0  0  0  0  0  0  0  0  0  0  0  0
   -0.2936    5.1330    7.6606 H   0  0  0  0  0  0  0  0  0  0  0  0
    0.6950    4.0360    2.8969 H   0  0  0  0  0  0  0  0  0  0  0  0
    2.8795    3.7442    3.6678 H   0  0  0  0  0  0  0  0  0  0  0  0
    3.6430    4.5472    5.9244 H   0  0  0  0  0  0  0  0  0  0  0  0
    2.8219    6.0484    4.8538 H   0  0  0  0  0  0  0  0  0  0  0  0
    2.0817    4.7812    8.3335 H   0  0  0  0  0  0  0  0  0  0  0  0
    0.3527    3.4376    9.3973 H   0  0  0  0  0  0  0  0  0  0  0  0
    1.2767    0.9259    9.2483 H   0  0  0  0  0  0  0  0  0  0  0  0
   -0.2834    1.1029    9.4426 H   0  0  0  0  0  0  0  0  0  0  0  0
   -0.5021   -0.3757    8.0732 H   0  0  0  0  0  0  0  0  0  0  0  0
   -1.1206   -0.9012    5.4057 H   0  0  0  0  0  0  0  0  0  0  0  0
   -2.6139    1.9620    6.5831 H   0  0  0  0  0  0  0  0  0  0  0  0
   -2.2974    0.9461    7.8955 H   0  0  0  0  0  0  0  0  0  0  0  0
   -1.7339    3.6721    7.6627 H   0  0  0  0  0  0  0  0  0  0  0  0
   -1.9931    2.1354   10.1097 H   0  0  0  0  0  0  0  0  0  0  0  0
   -3.1657    2.9818    9.1348 H   0  0  0  0  0  0  0  0  0  0  0  0
   -1.9001    3.8799    9.9285 H   0  0  0  0  0  0  0  0  0  0  0  0
   -1.1302    0.6739    4.0938 H   0  0  0  0  0  0  0  0  0  0  0  0
    1.9406   -1.0786    3.2924 H   0  0  0  0  0  0  0  0  0  0  0  0
    0.2224   -1.0788    2.9905 H   0  0  0  0  0  0  0  0  0  0  0  0
    0.7371   -1.2310    4.5924 H   0  0  0  0  0  0  0  0  0  0  0  0
    1.4893    0.5277    1.6584 H   0  0  0  0  0  0  0  0  0  0  0  0
    0.9869    2.1325    1.9294 H   0  0  0  0  0  0  0  0  0  0  0  0
   -0.2096    0.8741    1.8831 H   0  0  0  0  0  0  0  0  0  0  0  0
    2.9630    1.4505    3.6227 H   0  0  0  0  0  0  0  0  0  0  0  0
    4.6834    0.8944    6.4949 H   0  0  0  0  0  0  0  0  0  0  0  0
    4.6007    2.0394    5.1390 H   0  0  0  0  0  0  0  0  0  0  0  0
    4.5115    0.3763    4.8383 H   0  0  0  0  0  0  0  0  0  0  0  0
    2.8109    2.4292    6.3814 H   0  0  0  0  0  0  0  0  0  0  0  0
    4.9376    2.4368    8.2257 H   0  0  0  0  0  0  0  0  0  0  0  0
    4.5840    4.1590    8.2094 H   0  0  0  0  0  0  0  0  0  0  0  0
    4.8001    3.2477    6.7690 H   0  0  0  0  0  0  0  0  0  0  0  0
    3.4419    1.6592    9.6657 H   0  0  0  0  0  0  0  0  0  0  0  0
    2.0633    2.6180   10.1264 H   0  0  0  0  0  0  0  0  0  0  0  0
    3.5190    3.3543    9.9239 H   0  0  0  0  0  0  0  0  0  0  0  0
    3.9184   -1.1267    5.4899 H   0  0  0  0  0  0  0  0  0  0  0  0
    3.1746   -1.5193    7.9221 H   0  0  0  0  0  0  0  0  0  0  0  0
    2.9688    0.2448    8.2647 H   0  0  0  0  0  0  0  0  0  0  0  0
    1.5541   -2.8835    6.9119 H   0  0  0  0  0  0  0  0  0  0  0  0
   -0.0278   -2.3618    6.3890 H   0  0  0  0  0  0  0  0  0  0  0  0
    0.3619   -2.4777    8.1146 H   0  0  0  0  0  0  0  0  0  0  0  0
  1  2  1  0
  1 37  1  0
  1 38  1  0
  1 39  1  0
  3  2  1  6
  3  8  1  0
  3 21  1  0
  3  4  1  0
  4  5  1  0
  5 28  1  0
  5  6  1  1
  5  7  1  0
  6 40  1  0
  6 41  1  0
  6 42  1  0
  7  8  1  0
  8  9  1  0
  8 43  1  6
  9 25  1  0
  9 10  1  0
  9 44  1  6
 10 11  1  0
 10 12  1  0
 10 45  1  1
 11 46  1  0
 12 29  1  0
 12 13  1  0
 12 47  1  1
 13 19  1  0
 13 14  1  0
 13 48  1  1
 14 15  1  0
 14 49  1  0
 14 50  1  0
 15 35  1  0
 15 16  1  0
 15 51  1  1
 16 17  1  6
 16 18  1  0
 16 21  1  0
 17 52  1  0
 18 19  1  0
 18 53  1  0
 18 54  1  0
 19 20  1  0
 19 55  1  6
 20 56  1  0
 20 57  1  0
 20 58  1  0
 21 22  1  0
 21 59  1  6
 22 23  1  0
 22 24  1  0
 22 25  1  0
 23 60  1  0
 23 61  1  0
 23 62  1  0
 24 63  1  0
 24 64  1  0
 24 65  1  0
 25 26  1  0
 25 66  1  6
 26 27  1  6
 26 28  1  0
 26 32  1  0
 27 67  1  0
 27 68  1  0
 27 69  1  0
 28 29  1  0
 28 70  1  1
 29 30  1  0
 29 31  1  0
 30 71  1  0
 30 72  1  0
 30 73  1  0
 31 74  1  0
 31 75  1  0
 31 76  1  0
 32 35  1  0
 32 33  1  6
 32 34  1  0
 33 77  1  0
 34 35  1  0
 34 78  1  0
 34 79  1  0
 35 36  1  6
 36 80  1  0
 36 81  1  0
 36 82  1  0
M  END
>  <i_m_ct_stereo_status>  (39) 
1

>  <s_m_source_file>  (39) 
/var/tmp/pbs.5076255.sched01/tmp5ffkvrn0/0o5bi62ha.sdf

>  <i_m_source_file_index>  (39) 
19

>  <i_lp_mmshare_version>  (39) 
48012

>  <i_f3d_flags>  (39) 
0

>  <s_epik_input>  (39) 
W0NIM11PQzEyW0NAQEhdM1tDQEhdNFtDQEhdNVtDQEBdNihbQ0gzXSlbQ0BASF0oW0NAXShPMSkoTzMpW0NIM10pQyhbQ0gzXSkoW0NIM10pW0NAQEhdKFtDQEBIXTRbT0hdKVtDQEBIXTdbQ0gyXVtDQEhdKFtDQEBdOChbQ0gzXSlbQ0BdNihbT0hdKVtDSDJdOClbQ0BAXShbT0hdKShbQ0gyXVtDQEhdN1tDSDNdKVtDQEBIXTJDNShbQ0gzXSlbQ0gzXQ==

>  <s_epik_cmdline>  (39) 
J2VwaWtfcHl0aG9uJywgJy1waHQnLCAnMi4wJywgJy1waCcsICc3LjAnLCAnLXRuJywgJzgnLCAnLW1hJywgJzIwMCcsICctaW1hZScsICc8aW5maWxlLm1hZT4nLCAnLW9tYWUnLCAnPG91dGZpbGUubWFlPic=

>  <r_lp_tautomer_probability>  (39) 
1

>  <r_epik_Ionization_Penalty>  (39) 
1.40373e-06

>  <r_epik_Ionization_Penalty_Charging>  (39) 
0

>  <r_epik_Ionization_Penalty_Neutral>  (39) 
1.40373e-06

>  <r_epik_State_Penalty>  (39) 
-0

>  <r_epik_Charging_Adjusted_Penalty>  (39) 
0

>  <i_epik_Tot_Q>  (39) 
0

>  <i_epik_Tot_abs_Q>  (39) 
0

>  <s_lp_Force_Field>  (39) 
OPLS3e

>  <r_lp_Energy>  (39) 
911.365

>  <b_lp_Chiralities_Consistent>  (39) 
1

>  <s_lp_Variant>  (39) 
13:0-1

>  <s_i_glide_gridfile>  (39) 
pfpi4k_grid

>  <i_i_glide_lignum>  (39) 
19

>  <i_i_glide_rotatable_bonds>  (39) 
4

>  <r_i_docking_score>  (39) 
-1.48053

>  <r_i_glide_ligand_efficiency>  (39) 
-0.0411258

>  <r_i_glide_ligand_efficiency_sa>  (39) 
-0.135794

>  <r_i_glide_ligand_efficiency_ln>  (39) 
-0.323011

>  <r_i_glide_gscore>  (39) 
-1.48053

>  <r_i_glide_lipo>  (39) 
-0.00142014

>  <r_i_glide_hbond>  (39) 
-0.122557

>  <r_i_glide_metal>  (39) 
-0

>  <r_i_glide_rewards>  (39) 
0

>  <r_i_glide_evdw>  (39) 
-18.1797

>  <r_i_glide_ecoul>  (39) 
-2.79353

>  <r_i_glide_erotb>  (39) 
0

>  <r_i_glide_esite>  (39) 
-0.0285364

>  <r_i_glide_emodel>  (39) 
-23.0154

>  <r_i_glide_energy>  (39) 
-20.9732

>  <r_i_glide_einternal>  (39) 
0.614028

>  <r_i_glide_intrahb_reward>  (39) 
-0

>  <i_i_glide_confnum>  (39) 
1

>  <i_i_glide_posenum>  (39) 
14

>  <r_i_glide_eff_state_penalty>  (39) 
0

>  <ligand_id>  (39) 
13

>  <original_smiles>  (39) 
COC12OC3(C)OC1C1C(O)C4C5CC6C(O)(CC5C)C2C(C)(C)C1C(C)(C3C4(C)C)C1(O)CC61C

>  <smiles>  (39) 
[H]OC1([H])C2([H])C3([H])OC4(C([H])([H])[H])OC3(OC([H])([H])[H])C3([H])C5(O[H])C([H])([H])C([H])(C([H])([H])[H])C6([H])C([H])([H])C5([H])C5(C([H])([H])[H])C([H])([H])C5(O[H])C(C([H])([H])[H])(C4([H])C(C([H])([H])[H])(C([H])([H])[H])C16[H])C2([H])C3(C([H])([H])[H])C([H])([H])[H]

$$$$
13:1:0
     RDKit          3D

 82 89  0  0  1  0  0  0  0  0999 V2000
    0.9183   -5.8430   -0.1594 C   0  0  0  0  0  0  0  0  0  0  0  0
    0.8919   -6.3620    1.1654 O   0  0  0  0  0  0  0  0  0  0  0  0
    1.9747   -6.1112    2.0146 C   0  0  1  0  0  0  0  0  0  0  0  0
    2.3044   -7.3424    2.8000 O   0  0  0  0  0  0  0  0  0  0  0  0
    3.7561   -7.7019    2.8468 C   0  0  1  0  0  0  0  0  0  0  0  0
    3.8609   -9.2207    3.0217 C   0  0  0  0  0  0  0  0  0  0  0  0
    3.9285   -7.4697    1.5257 O   0  0  0  0  0  0  0  0  0  0  0  0
    3.2501   -6.2149    1.2935 C   0  0  2  0  0  0  0  0  0  0  0  0
    3.9248   -5.2769    2.1872 C   0  0  2  0  0  0  0  0  0  0  0  0
    5.3247   -5.3341    1.4771 C   0  0  1  0  0  0  0  0  0  0  0  0
    5.4758   -4.9005    0.1336 O   0  0  0  0  0  0  0  0  0  0  0  0
    6.2009   -4.7493    2.4206 C   0  0  1  0  0  0  0  0  0  0  0  0
    5.6670   -3.1937    2.5768 C   0  0  2  0  0  0  0  0  0  0  0  0
    5.2468   -2.6007    3.8889 C   0  0  0  0  0  0  0  0  0  0  0  0
    3.7553   -2.7038    4.3243 C   0  0  1  0  0  0  0  0  0  0  0  0
    2.6321   -3.0421    3.0797 C   0  0  1  0  0  0  0  0  0  0  0  0
    1.5664   -2.1068    3.2203 O   0  0  0  0  0  0  0  0  0  0  0  0
    3.2552   -2.2252    1.8532 C   0  0  0  0  0  0  0  0  0  0  0  0
    4.7874   -2.3929    1.5109 C   0  0  1  0  0  0  0  0  0  0  0  0
    5.4382   -1.0402    1.1295 C   0  0  0  0  0  0  0  0  0  0  0  0
    1.6578   -4.5404    2.8671 C   0  0  2  0  0  0  0  0  0  0  0  0
    1.6697   -5.0145    4.2497 C   0  0  0  0  0  0  0  0  0  0  0  0
    0.9858   -3.9183    5.1840 C   0  0  0  0  0  0  0  0  0  0  0  0
    0.6176   -6.1976    4.5193 C   0  0  0  0  0  0  0  0  0  0  0  0
    3.2974   -5.3146    3.9542 C   0  0  2  0  0  0  0  0  0  0  0  0
    4.1707   -5.9913    5.0107 C   0  0  1  0  0  0  0  0  0  0  0  0
    3.6677   -7.1196    6.0310 C   0  0  0  0  0  0  0  0  0  0  0  0
    4.9326   -6.8419    3.9223 C   0  0  2  0  0  0  0  0  0  0  0  0
    6.2996   -6.0622    3.4077 C   0  0  0  0  0  0  0  0  0  0  0  0
    7.1482   -7.2247    2.7598 C   0  0  0  0  0  0  0  0  0  0  0  0
    7.2867   -5.6677    4.5244 C   0  0  0  0  0  0  0  0  0  0  0  0
    4.5947   -4.7699    5.8908 C   0  0  2  0  0  0  0  0  0  0  0  0
    5.6507   -5.0178    6.8083 O   0  0  0  0  0  0  0  0  0  0  0  0
    3.4623   -4.3024    6.7612 C   0  0  0  0  0  0  0  0  0  0  0  0
    4.0376   -3.2921    5.8012 C   0  0  2  0  0  0  0  0  0  0  0  0
    4.6337   -2.1631    6.6720 C   0  0  0  0  0  0  0  0  0  0  0  0
   -0.0563   -6.0359   -0.5947 H   0  0  0  0  0  0  0  0  0  0  0  0
    1.6998   -6.2527   -0.7656 H   0  0  0  0  0  0  0  0  0  0  0  0
    1.1244   -4.7777   -0.2483 H   0  0  0  0  0  0  0  0  0  0  0  0
    3.2111   -9.7255    2.3095 H   0  0  0  0  0  0  0  0  0  0  0  0
    3.5822   -9.5286    4.0256 H   0  0  0  0  0  0  0  0  0  0  0  0
    4.8853   -9.5274    2.8306 H   0  0  0  0  0  0  0  0  0  0  0  0
    3.2403   -5.9277    0.2499 H   0  0  0  0  0  0  0  0  0  0  0  0
    3.5967   -4.4559    1.6000 H   0  0  0  0  0  0  0  0  0  0  0  0
    5.6980   -6.2945    1.1814 H   0  0  0  0  0  0  0  0  0  0  0  0
    4.8943   -5.4093   -0.4139 H   0  0  0  0  0  0  0  0  0  0  0  0
    7.1764   -4.6687    1.9389 H   0  0  0  0  0  0  0  0  0  0  0  0
    6.6247   -2.6962    2.4285 H   0  0  0  0  0  0  0  0  0  0  0  0
    5.9628   -2.9649    4.6175 H   0  0  0  0  0  0  0  0  0  0  0  0
    5.4814   -1.5361    3.8583 H   0  0  0  0  0  0  0  0  0  0  0  0
    3.4788   -1.6776    4.5576 H   0  0  0  0  0  0  0  0  0  0  0  0
    1.1777   -2.0123    2.3682 H   0  0  0  0  0  0  0  0  0  0  0  0
    2.6640   -2.3677    0.9465 H   0  0  0  0  0  0  0  0  0  0  0  0
    3.1962   -1.1521    2.0681 H   0  0  0  0  0  0  0  0  0  0  0  0
    4.7927   -2.8226    0.5268 H   0  0  0  0  0  0  0  0  0  0  0  0
    5.5089   -0.3479    1.9681 H   0  0  0  0  0  0  0  0  0  0  0  0
    4.8608   -0.5462    0.3479 H   0  0  0  0  0  0  0  0  0  0  0  0
    6.4471   -1.1776    0.7340 H   0  0  0  0  0  0  0  0  0  0  0  0
    0.6376   -4.2774    2.6219 H   0  0  0  0  0  0  0  0  0  0  0  0
    0.6460   -4.2953    6.1451 H   0  0  0  0  0  0  0  0  0  0  0  0
    0.0682   -3.5609    4.7167 H   0  0  0  0  0  0  0  0  0  0  0  0
    1.5489   -3.0311    5.4389 H   0  0  0  0  0  0  0  0  0  0  0  0
    1.0614   -7.0701    4.9984 H   0  0  0  0  0  0  0  0  0  0  0  0
    0.1073   -6.5413    3.6242 H   0  0  0  0  0  0  0  0  0  0  0  0
   -0.2079   -5.9352    5.1804 H   0  0  0  0  0  0  0  0  0  0  0  0
    2.8102   -6.1488    4.3415 H   0  0  0  0  0  0  0  0  0  0  0  0
    4.4987   -7.4655    6.6478 H   0  0  0  0  0  0  0  0  0  0  0  0
    3.2704   -8.0009    5.5309 H   0  0  0  0  0  0  0  0  0  0  0  0
    2.8693   -6.8297    6.7129 H   0  0  0  0  0  0  0  0  0  0  0  0
    5.3786   -7.6666    4.4787 H   0  0  0  0  0  0  0  0  0  0  0  0
    7.5733   -7.8915    3.5111 H   0  0  0  0  0  0  0  0  0  0  0  0
    7.9849   -6.8490    2.1642 H   0  0  0  0  0  0  0  0  0  0  0  0
    6.5761   -7.8930    2.1101 H   0  0  0  0  0  0  0  0  0  0  0  0
    7.3041   -6.3995    5.3298 H   0  0  0  0  0  0  0  0  0  0  0  0
    7.0750   -4.6940    4.9358 H   0  0  0  0  0  0  0  0  0  0  0  0
    8.3037   -5.5906    4.1379 H   0  0  0  0  0  0  0  0  0  0  0  0
    5.4296   -5.7907    7.2920 H   0  0  0  0  0  0  0  0  0  0  0  0
    2.5302   -4.8181    6.6642 H   0  0  0  0  0  0  0  0  0  0  0  0
    3.6756   -4.1413    7.8138 H   0  0  0  0  0  0  0  0  0  0  0  0
    5.2686   -2.5704    7.4613 H   0  0  0  0  0  0  0  0  0  0  0  0
    3.8291   -1.6095    7.1524 H   0  0  0  0  0  0  0  0  0  0  0  0
    5.2457   -1.4559    6.1240 H   0  0  0  0  0  0  0  0  0  0  0  0
  1  2  1  0
  1 37  1  0
  1 38  1  0
  1 39  1  0
  3  2  1  6
  3  8  1  0
  3 21  1  0
  3  4  1  0
  4  5  1  0
  5 28  1  0
  5  6  1  6
  5  7  1  0
  6 40  1  0
  6 41  1  0
  6 42  1  0
  7  8  1  0
  8  9  1  0
  8 43  1  6
  9 25  1  0
  9 10  1  0
  9 44  1  6
 10 11  1  0
 10 12  1  0
 10 45  1  6
 11 46  1  0
 12 29  1  0
 12 13  1  0
 12 47  1  6
 13 19  1  0
 13 14  1  0
 13 48  1  6
 14 15  1  0
 14 49  1  0
 14 50  1  0
 15 35  1  0
 15 16  1  0
 15 51  1  1
 16 17  1  1
 16 18  1  0
 16 21  1  0
 17 52  1  0
 18 19  1  0
 18 53  1  0
 18 54  1  0
 19 20  1  0
 19 55  1  6
 20 56  1  0
 20 57  1  0
 20 58  1  0
 21 22  1  0
 21 59  1  6
 22 23  1  0
 22 24  1  0
 22 25  1  0
 23 60  1  0
 23 61  1  0
 23 62  1  0
 24 63  1  0
 24 64  1  0
 24 65  1  0
 25 26  1  0
 25 66  1  1
 26 27  1  1
 26 28  1  0
 26 32  1  0
 27 67  1  0
 27 68  1  0
 27 69  1  0
 28 29  1  0
 28 70  1  1
 29 30  1  0
 29 31  1  0
 30 71  1  0
 30 72  1  0
 30 73  1  0
 31 74  1  0
 31 75  1  0
 31 76  1  0
 32 35  1  0
 32 33  1  1
 32 34  1  0
 33 77  1  0
 34 35  1  0
 34 78  1  0
 34 79  1  0
 35 36  1  1
 36 80  1  0
 36 81  1  0
 36 82  1  0
M  END
>  <i_m_ct_stereo_status>  (40) 
1

>  <s_m_source_file>  (40) 
/var/tmp/pbs.5076255.sched01/tmp5ffkvrn0/0o5bi62ha.sdf

>  <i_m_source_file_index>  (40) 
20

>  <i_lp_mmshare_version>  (40) 
48012

>  <i_f3d_flags>  (40) 
2

>  <s_epik_input>  (40) 
W0NIM11PQzEyW0NAQEhdM1tDQEhdNFtDQEhdNVtDQEBdNihbQ0gzXSlbQ0BASF0oW0NAXShPMSkoTzMpW0NIM10pQyhbQ0gzXSkoW0NIM10pW0NAQEhdKFtDQEBIXTRbT0hdKVtDQEBIXTdbQ0gyXVtDQEhdKFtDQEBdOChbQ0gzXSlbQ0BdNihbT0hdKVtDSDJdOClbQ0BAXShbT0hdKShbQ0gyXVtDQEhdN1tDSDNdKVtDQEBIXTJDNShbQ0gzXSlbQ0gzXQ==

>  <s_epik_cmdline>  (40) 
J2VwaWtfcHl0aG9uJywgJy1waHQnLCAnMi4wJywgJy1waCcsICc3LjAnLCAnLXRuJywgJzgnLCAnLW1hJywgJzIwMCcsICctaW1hZScsICc8aW5maWxlLm1hZT4nLCAnLW9tYWUnLCAnPG91dGZpbGUubWFlPic=

>  <r_lp_tautomer_probability>  (40) 
1

>  <r_epik_Ionization_Penalty>  (40) 
1.40373e-06

>  <r_epik_Ionization_Penalty_Charging>  (40) 
0

>  <r_epik_Ionization_Penalty_Neutral>  (40) 
1.40373e-06

>  <r_epik_State_Penalty>  (40) 
-0

>  <r_epik_Charging_Adjusted_Penalty>  (40) 
0

>  <i_epik_Tot_Q>  (40) 
0

>  <i_epik_Tot_abs_Q>  (40) 
0

>  <s_lp_Force_Field>  (40) 
OPLS3e

>  <r_lp_Energy>  (40) 
641.709

>  <b_lp_Chiralities_Consistent>  (40) 
0

>  <s_lp_Variant>  (40) 
13:0-2

>  <s_i_glide_gridfile>  (40) 
pfpi4k_grid

>  <i_i_glide_lignum>  (40) 
20

>  <i_i_glide_rotatable_bonds>  (40) 
4

>  <r_i_docking_score>  (40) 
-1.51198

>  <r_i_glide_ligand_efficiency>  (40) 
-0.0419995

>  <r_i_glide_ligand_efficiency_sa>  (40) 
-0.138679

>  <r_i_glide_ligand_efficiency_ln>  (40) 
-0.329873

>  <r_i_glide_gscore>  (40) 
-1.51198

>  <r_i_glide_lipo>  (40) 
-0.353475

>  <r_i_glide_hbond>  (40) 
-0.16

>  <r_i_glide_metal>  (40) 
-0

>  <r_i_glide_rewards>  (40) 
0

>  <r_i_glide_evdw>  (40) 
-11.6565

>  <r_i_glide_ecoul>  (40) 
-2.59242

>  <r_i_glide_erotb>  (40) 
0

>  <r_i_glide_esite>  (40) 
-0.0268199

>  <r_i_glide_emodel>  (40) 
-6.06751

>  <r_i_glide_energy>  (40) 
-14.2489

>  <r_i_glide_einternal>  (40) 
13.0749

>  <r_i_glide_intrahb_reward>  (40) 
-0

>  <i_i_glide_confnum>  (40) 
2

>  <i_i_glide_posenum>  (40) 
2

>  <r_i_glide_eff_state_penalty>  (40) 
0

>  <ligand_id>  (40) 
13

>  <original_smiles>  (40) 
COC12OC3(C)OC1C1C(O)C4C5CC6C(O)(CC5C)C2C(C)(C)C1C(C)(C3C4(C)C)C1(O)CC61C

>  <smiles>  (40) 
[H]OC1([H])C2([H])C3([H])OC4(C([H])([H])[H])OC3(OC([H])([H])[H])C3([H])C5(O[H])C([H])([H])C([H])(C([H])([H])[H])C6([H])C([H])([H])C5([H])C5(C([H])([H])[H])C([H])([H])C5(O[H])C(C([H])([H])[H])(C4([H])C(C([H])([H])[H])(C([H])([H])[H])C16[H])C2([H])C3(C([H])([H])[H])C([H])([H])[H]

$$$$
14:0:0
     RDKit          3D

 88 93  0  0  1  0  0  0  0  0999 V2000
   -0.0662   -5.8816   10.2641 C   0  0  0  0  0  0  0  0  0  0  0  0
    0.6726   -4.5960    9.8026 C   0  0  1  0  0  0  0  0  0  0  0  0
   -0.2706   -3.8872    8.8084 C   0  0  0  0  0  0  0  0  0  0  0  0
   -0.5879   -2.6940    9.0282 O   0  0  0  0  0  0  0  0  0  0  0  0
   -0.7597   -4.5574    7.8643 O   0  0  0  0  0  0  0  0  0  0  0  0
    0.8790   -3.7660   11.0979 C   0  0  0  0  0  0  0  0  0  0  0  0
    1.6877   -2.4808   10.8922 C   0  0  0  0  0  0  0  0  0  0  0  0
    3.0822   -2.8017   10.3482 C   0  0  0  0  0  0  0  0  0  0  0  0
    3.2315   -3.8762    9.1993 C   0  0  1  0  0  0  0  0  0  0  0  0
    4.5206   -4.6124    9.6789 C   0  0  0  0  0  0  0  0  0  0  0  0
    2.0834   -4.9541    9.2000 C   0  0  2  0  0  0  0  0  0  0  0  0
    2.1064   -5.8226    7.9144 C   0  0  0  0  0  0  0  0  0  0  0  0
    2.3323   -5.0857    6.5772 C   0  0  0  0  0  0  0  0  0  0  0  0
    3.6406   -4.2345    6.4892 C   0  0  1  0  0  0  0  0  0  0  0  0
    4.9458   -5.0708    6.6785 C   0  0  0  0  0  0  0  0  0  0  0  0
    3.7297   -3.4912    5.0772 C   0  0  0  0  0  0  0  0  0  0  0  0
    3.5574   -2.1436    5.0288 C   0  0  0  0  0  0  0  0  0  0  0  0
    3.2933   -1.2335    6.2123 C   0  0  0  0  0  0  0  0  0  0  0  0
    2.7127   -2.0213    7.3549 C   0  0  0  0  0  0  0  0  0  0  0  0
    1.6903   -1.6383    7.8947 O   0  0  0  0  0  0  0  0  0  0  0  0
    3.5357   -3.2509    7.7498 C   0  0  1  0  0  0  0  0  0  0  0  0
    3.6818   -1.3531    3.7485 C   0  0  0  0  0  0  0  0  0  0  0  0
    2.9115   -2.0880    2.6655 C   0  0  0  0  0  0  0  0  0  0  0  0
    2.0183   -1.4989    2.0701 O   0  0  0  0  0  0  0  0  0  0  0  0
    3.1849   -3.5931    2.4609 C   0  0  2  0  0  0  0  0  0  0  0  0
    4.0065   -4.2298    3.6833 C   0  0  2  0  0  0  0  0  0  0  0  0
    3.6987   -5.7489    3.7625 C   0  0  0  0  0  0  0  0  0  0  0  0
    5.5019   -4.0428    3.3105 C   0  0  0  0  0  0  0  0  0  0  0  0
    5.9396   -4.5445    1.9124 C   0  0  0  0  0  0  0  0  0  0  0  0
    5.1655   -3.9621    0.7068 C   0  0  2  0  0  0  0  0  0  0  0  0
    5.8086   -2.6914    0.0167 C   0  0  0  0  0  0  0  0  0  0  0  0
    5.9859   -1.4804    0.9589 C   0  0  0  0  0  0  0  0  0  0  0  0
    7.2250   -3.0073   -0.5228 C   0  0  0  0  0  0  0  0  0  0  0  0
    4.9472   -2.2392   -1.1911 C   0  0  1  0  0  0  0  0  0  0  0  0
    4.9714   -3.1738   -2.2588 O   0  0  0  0  0  0  0  0  0  0  0  0
    3.4925   -1.9979   -0.7863 C   0  0  0  0  0  0  0  0  0  0  0  0
    2.8516   -3.2603   -0.1932 C   0  0  0  0  0  0  0  0  0  0  0  0
    3.6119   -4.0085    0.9614 C   0  0  2  0  0  0  0  0  0  0  0  0
    3.1294   -5.4794    0.7391 C   0  0  0  0  0  0  0  0  0  0  0  0
    0.5143   -6.4658   10.9817 H   0  0  0  0  0  0  0  0  0  0  0  0
   -0.3035   -6.5430    9.4296 H   0  0  0  0  0  0  0  0  0  0  0  0
   -1.0078   -5.6255   10.7580 H   0  0  0  0  0  0  0  0  0  0  0  0
   -0.0778   -3.5266   11.5671 H   0  0  0  0  0  0  0  0  0  0  0  0
    1.4123   -4.3759   11.8291 H   0  0  0  0  0  0  0  0  0  0  0  0
    1.1804   -1.7365   10.2846 H   0  0  0  0  0  0  0  0  0  0  0  0
    1.7862   -1.9786   11.8566 H   0  0  0  0  0  0  0  0  0  0  0  0
    3.5546   -1.8674   10.0551 H   0  0  0  0  0  0  0  0  0  0  0  0
    3.6281   -3.0945   11.2482 H   0  0  0  0  0  0  0  0  0  0  0  0
    4.6979   -5.5552    9.1744 H   0  0  0  0  0  0  0  0  0  0  0  0
    4.4779   -4.9015   10.7312 H   0  0  0  0  0  0  0  0  0  0  0  0
    5.4007   -3.9774    9.5619 H   0  0  0  0  0  0  0  0  0  0  0  0
    2.4033   -5.6695    9.9544 H   0  0  0  0  0  0  0  0  0  0  0  0
    2.8693   -6.5921    8.0307 H   0  0  0  0  0  0  0  0  0  0  0  0
    1.1802   -6.3818    7.8183 H   0  0  0  0  0  0  0  0  0  0  0  0
    2.2805   -5.8543    5.8165 H   0  0  0  0  0  0  0  0  0  0  0  0
    1.4716   -4.4496    6.3756 H   0  0  0  0  0  0  0  0  0  0  0  0
    4.7730   -6.0430    7.1347 H   0  0  0  0  0  0  0  0  0  0  0  0
    5.6901   -4.5446    7.2760 H   0  0  0  0  0  0  0  0  0  0  0  0
    5.4859   -5.3036    5.7725 H   0  0  0  0  0  0  0  0  0  0  0  0
    4.2115   -0.7414    6.5301 H   0  0  0  0  0  0  0  0  0  0  0  0
    2.5688   -0.4598    5.9435 H   0  0  0  0  0  0  0  0  0  0  0  0
    4.5256   -2.8048    7.8511 H   0  0  0  0  0  0  0  0  0  0  0  0
    3.2289   -0.3665    3.8758 H   0  0  0  0  0  0  0  0  0  0  0  0
    4.7273   -1.1881    3.5010 H   0  0  0  0  0  0  0  0  0  0  0  0
    2.1773   -3.9828    2.5971 H   0  0  0  0  0  0  0  0  0  0  0  0
    4.2360   -6.3310    3.0294 H   0  0  0  0  0  0  0  0  0  0  0  0
    2.6372   -5.9355    3.6270 H   0  0  0  0  0  0  0  0  0  0  0  0
    4.0093   -6.2455    4.6713 H   0  0  0  0  0  0  0  0  0  0  0  0
    5.7875   -2.9975    3.3988 H   0  0  0  0  0  0  0  0  0  0  0  0
    6.1628   -4.5490    4.0119 H   0  0  0  0  0  0  0  0  0  0  0  0
    7.0017   -4.3468    1.7963 H   0  0  0  0  0  0  0  0  0  0  0  0
    5.8868   -5.6329    1.8744 H   0  0  0  0  0  0  0  0  0  0  0  0
    5.3210   -4.7133   -0.0660 H   0  0  0  0  0  0  0  0  0  0  0  0
    6.4501   -0.6420    0.4300 H   0  0  0  0  0  0  0  0  0  0  0  0
    6.6267   -1.7166    1.8079 H   0  0  0  0  0  0  0  0  0  0  0  0
    5.0348   -1.1120    1.3337 H   0  0  0  0  0  0  0  0  0  0  0  0
    7.5870   -2.2315   -1.1957 H   0  0  0  0  0  0  0  0  0  0  0  0
    7.2177   -3.9208   -1.1047 H   0  0  0  0  0  0  0  0  0  0  0  0
    7.9610   -3.1200    0.2713 H   0  0  0  0  0  0  0  0  0  0  0  0
    5.3406   -1.3064   -1.6011 H   0  0  0  0  0  0  0  0  0  0  0  0
    4.5221   -3.9617   -1.9887 H   0  0  0  0  0  0  0  0  0  0  0  0
    3.4042   -1.1525   -0.1075 H   0  0  0  0  0  0  0  0  0  0  0  0
    2.9217   -1.6929   -1.6647 H   0  0  0  0  0  0  0  0  0  0  0  0
    1.8396   -3.0220    0.1207 H   0  0  0  0  0  0  0  0  0  0  0  0
    2.7097   -3.9005   -1.0654 H   0  0  0  0  0  0  0  0  0  0  0  0
    3.0098   -5.7491   -0.3077 H   0  0  0  0  0  0  0  0  0  0  0  0
    2.1661   -5.6726    1.2156 H   0  0  0  0  0  0  0  0  0  0  0  0
    3.8400   -6.2282    1.0706 H   0  0  0  0  0  0  0  0  0  0  0  0
  2  1  1  1
  1 40  1  0
  1 41  1  0
  1 42  1  0
  2 11  1  0
  2  3  1  0
  2  6  1  0
  3  4  2  0
  3  5  1  0
  6  7  1  0
  6 43  1  0
  6 44  1  0
  7  8  1  0
  7 45  1  0
  7 46  1  0
  8  9  1  0
  8 47  1  0
  8 48  1  0
  9 21  1  0
  9 10  1  1
  9 11  1  0
 10 49  1  0
 10 50  1  0
 10 51  1  0
 11 12  1  0
 11 52  1  1
 12 13  1  0
 12 53  1  0
 12 54  1  0
 13 14  1  0
 13 55  1  0
 13 56  1  0
 14 21  1  0
 14 15  1  1
 14 16  1  0
 15 57  1  0
 15 58  1  0
 15 59  1  0
 16 26  1  0
 16 17  2  0
 17 18  1  0
 17 22  1  0
 18 19  1  0
 18 60  1  0
 18 61  1  0
 19 20  2  0
 19 21  1  0
 21 62  1  1
 22 23  1  0
 22 63  1  0
 22 64  1  0
 23 24  2  0
 23 25  1  0
 25 38  1  0
 25 26  1  0
 25 65  1  1
 26 27  1  1
 26 28  1  0
 27 66  1  0
 27 67  1  0
 27 68  1  0
 28 29  1  0
 28 69  1  0
 28 70  1  0
 29 30  1  0
 29 71  1  0
 29 72  1  0
 30 38  1  0
 30 31  1  0
 30 73  1  6
 31 32  1  0
 31 33  1  0
 31 34  1  0
 32 74  1  0
 32 75  1  0
 32 76  1  0
 33 77  1  0
 33 78  1  0
 33 79  1  0
 34 35  1  0
 34 36  1  0
 34 80  1  6
 35 81  1  0
 36 37  1  0
 36 82  1  0
 36 83  1  0
 37 38  1  0
 37 84  1  0
 37 85  1  0
 38 39  1  6
 39 86  1  0
 39 87  1  0
 39 88  1  0
M  CHG  1   5  -1
M  END
>  <i_m_ct_stereo_status>  (41) 
1

>  <s_m_source_file>  (41) 
/var/tmp/pbs.5076255.sched01/tmp5ffkvrn0/0o5bi62ha.sdf

>  <i_m_source_file_index>  (41) 
21

>  <i_lp_mmshare_version>  (41) 
48012

>  <i_f3d_flags>  (41) 
0

>  <s_epik_input>  (41) 
W0NIMl0xW0NIMl1bQ0gyXVtDQEBdKFtDSDNdKShDKD1PKVtPSF0pW0NASF0oW0NAXTEyW0NIM10pW0NIMl1bQ0gyXVtDQEBdMyhbQ0gzXSlDND1DKFtDSDJdQyg9TylbQ0BASF0yMylbQ0gyXUMoPU8pW0NAQEhdNVtDQEBdNChbQ0gzXSlbQ0gyXVtDSDJdW0NASF02W0NAXTUoW0NIM10pW0NIMl1bQ0gyXVtDQEhdKFtPSF0pQzYoW0NIM10pW0NIM10=

>  <s_epik_cmdline>  (41) 
J2VwaWtfcHl0aG9uJywgJy1waHQnLCAnMi4wJywgJy1waCcsICc3LjAnLCAnLXRuJywgJzgnLCAnLW1hJywgJzIwMCcsICctaW1hZScsICc8aW5maWxlLm1hZT4nLCAnLW9tYWUnLCAnPG91dGZpbGUubWFlPic=

>  <r_epik_Ionization_Penalty>  (41) 
0.00498076

>  <r_epik_Ionization_Penalty_Charging>  (41) 
0.00497866

>  <r_epik_Ionization_Penalty_Neutral>  (41) 
2.10298e-06

>  <r_epik_State_Penalty>  (41) 
0.0036183

>  <r_epik_Charging_Adjusted_Penalty>  (41) 
0.00859696

>  <i_epik_Tot_Q>  (41) 
-1

>  <i_epik_Tot_abs_Q>  (41) 
1

>  <s_lp_Force_Field>  (41) 
OPLS3e

>  <r_lp_Energy>  (41) 
130.837

>  <b_lp_Chiralities_Consistent>  (41) 
1

>  <s_lp_Variant>  (41) 
14:0-1

>  <s_i_glide_gridfile>  (41) 
pfpi4k_grid

>  <i_i_glide_lignum>  (41) 
21

>  <i_i_glide_rotatable_bonds>  (41) 
2

>  <r_i_docking_score>  (41) 
-2.47616

>  <r_i_glide_ligand_efficiency>  (41) 
-0.0634913

>  <r_i_glide_ligand_efficiency_sa>  (41) 
-0.215312

>  <r_i_glide_ligand_efficiency_ln>  (41) 
-0.530959

>  <r_i_glide_gscore>  (41) 
-2.47616

>  <r_i_glide_lipo>  (41) 
-0.351549

>  <r_i_glide_hbond>  (41) 
-0.2

>  <r_i_glide_metal>  (41) 
-0

>  <r_i_glide_rewards>  (41) 
0

>  <r_i_glide_evdw>  (41) 
-23.7351

>  <r_i_glide_ecoul>  (41) 
-4.67958

>  <r_i_glide_erotb>  (41) 
0

>  <r_i_glide_esite>  (41) 
-0.0359178

>  <r_i_glide_emodel>  (41) 
-33.1147

>  <r_i_glide_energy>  (41) 
-28.4147

>  <r_i_glide_einternal>  (41) 
1.47566

>  <r_i_glide_intrahb_reward>  (41) 
-0

>  <i_i_glide_confnum>  (41) 
2

>  <i_i_glide_posenum>  (41) 
15

>  <r_i_glide_eff_state_penalty>  (41) 
0

>  <ligand_id>  (41) 
14

>  <original_smiles>  (41) 
CC1(C(=O)O)CCCC2(C)C1CCC1(C)C3=C(CC(=O)C12)CC(=O)C1C3(C)CCC2C(C)(C)C(O)CCC12C

>  <smiles>  (41) 
[H]OC1([H])C([H])([H])C([H])([H])C2(C([H])([H])[H])C3([H])C(=O)C([H])([H])C4=C(C5(C([H])([H])[H])C([H])([H])C([H])([H])C6([H])C(C(=O)[O-])(C([H])([H])[H])C([H])([H])C([H])([H])C([H])([H])C6(C([H])([H])[H])C5([H])C(=O)C4([H])[H])C3(C([H])([H])[H])C([H])([H])C([H])([H])C2([H])C1(C([H])([H])[H])C([H])([H])[H]

$$$$
14:0:1
     RDKit          3D

 88 93  0  0  1  0  0  0  0  0999 V2000
   -0.3906   -9.4551    7.2539 C   0  0  0  0  0  0  0  0  0  0  0  0
    0.9142   -8.6543    7.4289 C   0  0  1  0  0  0  0  0  0  0  0  0
    0.4809   -7.1645    7.6187 C   0  0  0  0  0  0  0  0  0  0  0  0
    0.7238   -6.3248    6.7322 O   0  0  0  0  0  0  0  0  0  0  0  0
   -0.1492   -6.9033    8.6825 O   0  0  0  0  0  0  0  0  0  0  0  0
    1.5417   -9.1738    8.7448 C   0  0  0  0  0  0  0  0  0  0  0  0
    2.8980   -8.5445    9.0396 C   0  0  0  0  0  0  0  0  0  0  0  0
    3.9103   -8.8806    7.9363 C   0  0  0  0  0  0  0  0  0  0  0  0
    3.4538   -8.7820    6.4212 C   0  0  1  0  0  0  0  0  0  0  0  0
    4.1354  -10.0562    5.8220 C   0  0  0  0  0  0  0  0  0  0  0  0
    1.8965   -8.9667    6.2283 C   0  0  2  0  0  0  0  0  0  0  0  0
    1.4340   -8.5834    4.7941 C   0  0  0  0  0  0  0  0  0  0  0  0
    2.0352   -7.3081    4.1545 C   0  0  0  0  0  0  0  0  0  0  0  0
    3.5960   -7.2391    4.1298 C   0  0  1  0  0  0  0  0  0  0  0  0
    4.2345   -8.3682    3.2620 C   0  0  0  0  0  0  0  0  0  0  0  0
    4.0623   -5.8298    3.5497 C   0  0  0  0  0  0  0  0  0  0  0  0
    4.6515   -4.9296    4.3853 C   0  0  0  0  0  0  0  0  0  0  0  0
    4.9279   -5.1263    5.8612 C   0  0  0  0  0  0  0  0  0  0  0  0
    4.0365   -6.1893    6.4508 C   0  0  0  0  0  0  0  0  0  0  0  0
    3.4493   -5.9877    7.5125 O   0  0  0  0  0  0  0  0  0  0  0  0
    4.0373   -7.5009    5.6547 C   0  0  1  0  0  0  0  0  0  0  0  0
    5.1581   -3.5980    3.8976 C   0  0  0  0  0  0  0  0  0  0  0  0
    4.1195   -2.9640    2.9991 C   0  0  0  0  0  0  0  0  0  0  0  0
    3.7141   -1.8249    3.2517 O   0  0  0  0  0  0  0  0  0  0  0  0
    3.5397   -3.8264    1.8583 C   0  0  2  0  0  0  0  0  0  0  0  0
    3.9062   -5.3874    2.0228 C   0  0  2  0  0  0  0  0  0  0  0  0
    2.8054   -6.2162    1.2928 C   0  0  0  0  0  0  0  0  0  0  0  0
    5.2631   -5.5905    1.2894 C   0  0  0  0  0  0  0  0  0  0  0  0
    5.3067   -5.0511   -0.1517 C   0  0  0  0  0  0  0  0  0  0  0  0
    4.9740   -3.5581   -0.3673 C   0  0  2  0  0  0  0  0  0  0  0  0
    6.2010   -2.5704   -0.3646 C   0  0  0  0  0  0  0  0  0  0  0  0
    7.0142   -2.5840    0.9321 C   0  0  0  0  0  0  0  0  0  0  0  0
    7.1995   -2.9224   -1.5045 C   0  0  0  0  0  0  0  0  0  0  0  0
    5.7049   -1.1175   -0.5809 C   0  0  1  0  0  0  0  0  0  0  0  0
    5.2290   -0.9222   -1.9097 O   0  0  0  0  0  0  0  0  0  0  0  0
    4.6322   -0.6897    0.4250 C   0  0  0  0  0  0  0  0  0  0  0  0
    3.4170   -1.6080    0.3502 C   0  0  0  0  0  0  0  0  0  0  0  0
    3.6597   -3.1639    0.3917 C   0  0  2  0  0  0  0  0  0  0  0  0
    2.4902   -3.6916   -0.4899 C   0  0  0  0  0  0  0  0  0  0  0  0
   -0.2213  -10.5317    7.1977 H   0  0  0  0  0  0  0  0  0  0  0  0
   -0.9442   -9.1586    6.3673 H   0  0  0  0  0  0  0  0  0  0  0  0
   -1.0578   -9.2749    8.0944 H   0  0  0  0  0  0  0  0  0  0  0  0
    0.8782   -9.0103    9.5941 H   0  0  0  0  0  0  0  0  0  0  0  0
    1.6779  -10.2447    8.6841 H   0  0  0  0  0  0  0  0  0  0  0  0
    2.8000   -7.4782    9.2217 H   0  0  0  0  0  0  0  0  0  0  0  0
    3.2716   -8.9433    9.9858 H   0  0  0  0  0  0  0  0  0  0  0  0
    4.8319   -8.3303    8.0939 H   0  0  0  0  0  0  0  0  0  0  0  0
    4.1876   -9.9079    8.1861 H   0  0  0  0  0  0  0  0  0  0  0  0
    3.7625  -10.3254    4.8403 H   0  0  0  0  0  0  0  0  0  0  0  0
    3.9413  -10.9533    6.4084 H   0  0  0  0  0  0  0  0  0  0  0  0
    5.2167   -9.9373    5.7687 H   0  0  0  0  0  0  0  0  0  0  0  0
    1.7854  -10.0493    6.2176 H   0  0  0  0  0  0  0  0  0  0  0  0
    1.6465   -9.4319    4.1444 H   0  0  0  0  0  0  0  0  0  0  0  0
    0.3569   -8.5082    4.7603 H   0  0  0  0  0  0  0  0  0  0  0  0
    1.5791   -7.2634    3.1700 H   0  0  0  0  0  0  0  0  0  0  0  0
    1.6784   -6.4082    4.6471 H   0  0  0  0  0  0  0  0  0  0  0  0
    3.5561   -9.1973    3.0806 H   0  0  0  0  0  0  0  0  0  0  0  0
    5.1460   -8.7643    3.7070 H   0  0  0  0  0  0  0  0  0  0  0  0
    4.5452   -8.0692    2.2738 H   0  0  0  0  0  0  0  0  0  0  0  0
    5.9723   -5.4009    6.0072 H   0  0  0  0  0  0  0  0  0  0  0  0
    4.7480   -4.1963    6.3996 H   0  0  0  0  0  0  0  0  0  0  0  0
    5.1093   -7.6898    5.6072 H   0  0  0  0  0  0  0  0  0  0  0  0
    5.3363   -2.9314    4.7405 H   0  0  0  0  0  0  0  0  0  0  0  0
    6.1091   -3.7317    3.3894 H   0  0  0  0  0  0  0  0  0  0  0  0
    2.4796   -3.7721    2.1141 H   0  0  0  0  0  0  0  0  0  0  0  0
    2.9224   -6.2504    0.2221 H   0  0  0  0  0  0  0  0  0  0  0  0
    1.8116   -5.8220    1.5022 H   0  0  0  0  0  0  0  0  0  0  0  0
    2.7922   -7.2751    1.5103 H   0  0  0  0  0  0  0  0  0  0  0  0
    6.0796   -5.1516    1.8499 H   0  0  0  0  0  0  0  0  0  0  0  0
    5.5417   -6.6372    1.2191 H   0  0  0  0  0  0  0  0  0  0  0  0
    6.2955   -5.2358   -0.5263 H   0  0  0  0  0  0  0  0  0  0  0  0
    4.6654   -5.6510   -0.7967 H   0  0  0  0  0  0  0  0  0  0  0  0
    4.6899   -3.5158   -1.4175 H   0  0  0  0  0  0  0  0  0  0  0  0
    7.8550   -1.8886    0.8529 H   0  0  0  0  0  0  0  0  0  0  0  0
    7.4351   -3.5629    1.1436 H   0  0  0  0  0  0  0  0  0  0  0  0
    6.4339   -2.2632    1.7865 H   0  0  0  0  0  0  0  0  0  0  0  0
    7.9440   -2.1418   -1.6465 H   0  0  0  0  0  0  0  0  0  0  0  0
    6.6986   -3.0696   -2.4632 H   0  0  0  0  0  0  0  0  0  0  0  0
    7.7650   -3.8229   -1.2803 H   0  0  0  0  0  0  0  0  0  0  0  0
    6.5377   -0.4371   -0.4104 H   0  0  0  0  0  0  0  0  0  0  0  0
    4.3791   -1.3346   -1.9813 H   0  0  0  0  0  0  0  0  0  0  0  0
    5.0416   -0.6314    1.4265 H   0  0  0  0  0  0  0  0  0  0  0  0
    4.3186    0.3302    0.1990 H   0  0  0  0  0  0  0  0  0  0  0  0
    2.6509   -1.3024    1.0631 H   0  0  0  0  0  0  0  0  0  0  0  0
    3.0064   -1.3179   -0.6158 H   0  0  0  0  0  0  0  0  0  0  0  0
    2.2311   -3.0528   -1.3326 H   0  0  0  0  0  0  0  0  0  0  0  0
    1.6063   -3.7817    0.1139 H   0  0  0  0  0  0  0  0  0  0  0  0
    2.6766   -4.6492   -0.9596 H   0  0  0  0  0  0  0  0  0  0  0  0
  2  1  1  6
  1 40  1  0
  1 41  1  0
  1 42  1  0
  2 11  1  0
  2  3  1  0
  2  6  1  0
  3  4  2  0
  3  5  1  0
  6  7  1  0
  6 43  1  0
  6 44  1  0
  7  8  1  0
  7 45  1  0
  7 46  1  0
  8  9  1  0
  8 47  1  0
  8 48  1  0
  9 21  1  0
  9 10  1  6
  9 11  1  0
 10 49  1  0
 10 50  1  0
 10 51  1  0
 11 12  1  0
 11 52  1  6
 12 13  1  0
 12 53  1  0
 12 54  1  0
 13 14  1  0
 13 55  1  0
 13 56  1  0
 14 21  1  0
 14 15  1  6
 14 16  1  0
 15 57  1  0
 15 58  1  0
 15 59  1  0
 16 26  1  0
 16 17  2  0
 17 18  1  0
 17 22  1  0
 18 19  1  0
 18 60  1  0
 18 61  1  0
 19 20  2  0
 19 21  1  0
 21 62  1  6
 22 23  1  0
 22 63  1  0
 22 64  1  0
 23 24  2  0
 23 25  1  0
 25 38  1  0
 25 26  1  0
 25 65  1  1
 26 27  1  6
 26 28  1  0
 27 66  1  0
 27 67  1  0
 27 68  1  0
 28 29  1  0
 28 69  1  0
 28 70  1  0
 29 30  1  0
 29 71  1  0
 29 72  1  0
 30 38  1  0
 30 31  1  0
 30 73  1  6
 31 32  1  0
 31 33  1  0
 31 34  1  0
 32 74  1  0
 32 75  1  0
 32 76  1  0
 33 77  1  0
 33 78  1  0
 33 79  1  0
 34 35  1  0
 34 36  1  0
 34 80  1  1
 35 81  1  0
 36 37  1  0
 36 82  1  0
 36 83  1  0
 37 38  1  0
 37 84  1  0
 37 85  1  0
 38 39  1  6
 39 86  1  0
 39 87  1  0
 39 88  1  0
M  CHG  1   5  -1
M  END
>  <i_m_ct_stereo_status>  (42) 
1

>  <s_m_source_file>  (42) 
/var/tmp/pbs.5076255.sched01/tmp5ffkvrn0/0o5bi62ha.sdf

>  <i_m_source_file_index>  (42) 
21

>  <i_lp_mmshare_version>  (42) 
48012

>  <i_f3d_flags>  (42) 
0

>  <s_epik_input>  (42) 
W0NIMl0xW0NIMl1bQ0gyXVtDQEBdKFtDSDNdKShDKD1PKVtPSF0pW0NASF0oW0NAXTEyW0NIM10pW0NIMl1bQ0gyXVtDQEBdMyhbQ0gzXSlDND1DKFtDSDJdQyg9TylbQ0BASF0yMylbQ0gyXUMoPU8pW0NAQEhdNVtDQEBdNChbQ0gzXSlbQ0gyXVtDSDJdW0NASF02W0NAXTUoW0NIM10pW0NIMl1bQ0gyXVtDQEhdKFtPSF0pQzYoW0NIM10pW0NIM10=

>  <s_epik_cmdline>  (42) 
J2VwaWtfcHl0aG9uJywgJy1waHQnLCAnMi4wJywgJy1waCcsICc3LjAnLCAnLXRuJywgJzgnLCAnLW1hJywgJzIwMCcsICctaW1hZScsICc8aW5maWxlLm1hZT4nLCAnLW9tYWUnLCAnPG91dGZpbGUubWFlPic=

>  <r_epik_Ionization_Penalty>  (42) 
0.00498076

>  <r_epik_Ionization_Penalty_Charging>  (42) 
0.00497866

>  <r_epik_Ionization_Penalty_Neutral>  (42) 
2.10298e-06

>  <r_epik_State_Penalty>  (42) 
0.0036183

>  <r_epik_Charging_Adjusted_Penalty>  (42) 
0.00859696

>  <i_epik_Tot_Q>  (42) 
-1

>  <i_epik_Tot_abs_Q>  (42) 
1

>  <s_lp_Force_Field>  (42) 
OPLS3e

>  <r_lp_Energy>  (42) 
130.837

>  <b_lp_Chiralities_Consistent>  (42) 
1

>  <s_lp_Variant>  (42) 
14:0-1

>  <s_i_glide_gridfile>  (42) 
pfpi4k_grid

>  <i_i_glide_lignum>  (42) 
21

>  <i_i_glide_rotatable_bonds>  (42) 
2

>  <r_i_docking_score>  (42) 
-2.24279

>  <r_i_glide_ligand_efficiency>  (42) 
-0.0575075

>  <r_i_glide_ligand_efficiency_sa>  (42) 
-0.19502

>  <r_i_glide_ligand_efficiency_ln>  (42) 
-0.480919

>  <r_i_glide_gscore>  (42) 
-2.24279

>  <r_i_glide_lipo>  (42) 
-0.352511

>  <r_i_glide_hbond>  (42) 
-0.140304

>  <r_i_glide_metal>  (42) 
-0

>  <r_i_glide_rewards>  (42) 
-0.00125168

>  <r_i_glide_evdw>  (42) 
-24.0896

>  <r_i_glide_ecoul>  (42) 
-3.52826

>  <r_i_glide_erotb>  (42) 
0

>  <r_i_glide_esite>  (42) 
-0.0150078

>  <r_i_glide_emodel>  (42) 
-32.0349

>  <r_i_glide_energy>  (42) 
-27.6179

>  <r_i_glide_einternal>  (42) 
0.47238

>  <r_i_glide_intrahb_reward>  (42) 
-0

>  <i_i_glide_confnum>  (42) 
1

>  <i_i_glide_posenum>  (42) 
3

>  <r_i_glide_eff_state_penalty>  (42) 
0

>  <ligand_id>  (42) 
14

>  <original_smiles>  (42) 
CC1(C(=O)O)CCCC2(C)C1CCC1(C)C3=C(CC(=O)C12)CC(=O)C1C3(C)CCC2C(C)(C)C(O)CCC12C

>  <smiles>  (42) 
[H]OC1([H])C([H])([H])C([H])([H])C2(C([H])([H])[H])C3([H])C(=O)C([H])([H])C4=C(C5(C([H])([H])[H])C([H])([H])C([H])([H])C6([H])C(C(=O)[O-])(C([H])([H])[H])C([H])([H])C([H])([H])C([H])([H])C6(C([H])([H])[H])C5([H])C(=O)C4([H])[H])C3(C([H])([H])[H])C([H])([H])C([H])([H])C2([H])C1(C([H])([H])[H])C([H])([H])[H]

$$$$
14:0:2
     RDKit          3D

 88 93  0  0  1  0  0  0  0  0999 V2000
    7.7244  -10.8942    3.7894 C   0  0  0  0  0  0  0  0  0  0  0  0
    6.2268  -10.5431    3.5599 C   0  0  1  0  0  0  0  0  0  0  0  0
    6.1795   -9.9199    2.1313 C   0  0  0  0  0  0  0  0  0  0  0  0
    6.6083  -10.6462    1.2017 O   0  0  0  0  0  0  0  0  0  0  0  0
    5.8642   -8.7220    1.9787 O   0  0  0  0  0  0  0  0  0  0  0  0
    5.4945  -11.9101    3.5638 C   0  0  0  0  0  0  0  0  0  0  0  0
    3.9780  -11.7799    3.4504 C   0  0  0  0  0  0  0  0  0  0  0  0
    3.3977  -11.0217    4.6519 C   0  0  0  0  0  0  0  0  0  0  0  0
    4.1283   -9.7021    5.1250 C   0  0  1  0  0  0  0  0  0  0  0  0
    4.0139   -9.8637    6.6786 C   0  0  0  0  0  0  0  0  0  0  0  0
    5.6649   -9.6817    4.7703 C   0  0  2  0  0  0  0  0  0  0  0  0
    6.2986   -8.2836    5.0179 C   0  0  0  0  0  0  0  0  0  0  0  0
    5.5002   -7.0281    4.5611 C   0  0  0  0  0  0  0  0  0  0  0  0
    4.0418   -6.9370    5.1028 C   0  0  1  0  0  0  0  0  0  0  0  0
    3.9838   -6.8010    6.6527 C   0  0  0  0  0  0  0  0  0  0  0  0
    3.2988   -5.6735    4.4566 C   0  0  0  0  0  0  0  0  0  0  0  0
    2.3165   -5.8685    3.5772 C   0  0  0  0  0  0  0  0  0  0  0  0
    1.7616   -7.2091    3.0906 C   0  0  0  0  0  0  0  0  0  0  0  0
    2.7587   -8.3105    3.3109 C   0  0  0  0  0  0  0  0  0  0  0  0
    2.9424   -9.1378    2.4060 O   0  0  0  0  0  0  0  0  0  0  0  0
    3.3659   -8.3519    4.7146 C   0  0  1  0  0  0  0  0  0  0  0  0
    1.5421   -4.7224    2.9529 C   0  0  0  0  0  0  0  0  0  0  0  0
    2.5337   -3.6684    2.5182 C   0  0  0  0  0  0  0  0  0  0  0  0
    2.5344   -3.2942    1.3263 O   0  0  0  0  0  0  0  0  0  0  0  0
    3.5802   -3.1824    3.5195 C   0  0  2  0  0  0  0  0  0  0  0  0
    3.6715   -4.1490    4.8097 C   0  0  2  0  0  0  0  0  0  0  0  0
    5.1017   -4.0211    5.3938 C   0  0  0  0  0  0  0  0  0  0  0  0
    2.6293   -3.6009    5.8380 C   0  0  0  0  0  0  0  0  0  0  0  0
    2.7428   -2.0901    6.1481 C   0  0  0  0  0  0  0  0  0  0  0  0
    2.6577   -1.1242    4.9347 C   0  0  2  0  0  0  0  0  0  0  0  0
    1.2221   -0.5565    4.6086 C   0  0  0  0  0  0  0  0  0  0  0  0
    0.1785   -1.6470    4.2948 C   0  0  0  0  0  0  0  0  0  0  0  0
    0.6649    0.2385    5.8172 C   0  0  0  0  0  0  0  0  0  0  0  0
    1.2828    0.4149    3.3952 C   0  0  1  0  0  0  0  0  0  0  0  0
    1.9912    1.6036    3.7001 O   0  0  0  0  0  0  0  0  0  0  0  0
    1.9317   -0.2350    2.1647 C   0  0  0  0  0  0  0  0  0  0  0  0
    3.3622   -0.7040    2.4737 C   0  0  0  0  0  0  0  0  0  0  0  0
    3.5944   -1.5891    3.7614 C   0  0  2  0  0  0  0  0  0  0  0  0
    5.0590   -1.1939    4.1296 C   0  0  0  0  0  0  0  0  0  0  0  0
    7.8954  -11.4090    4.7371 H   0  0  0  0  0  0  0  0  0  0  0  0
    8.3584  -10.0120    3.7622 H   0  0  0  0  0  0  0  0  0  0  0  0
    8.0930  -11.5654    3.0128 H   0  0  0  0  0  0  0  0  0  0  0  0
    5.8515  -12.5528    2.7575 H   0  0  0  0  0  0  0  0  0  0  0  0
    5.7116  -12.4481    4.4859 H   0  0  0  0  0  0  0  0  0  0  0  0
    3.6998  -11.3511    2.4906 H   0  0  0  0  0  0  0  0  0  0  0  0
    3.5396  -12.7793    3.4403 H   0  0  0  0  0  0  0  0  0  0  0  0
    2.3409  -10.8273    4.4706 H   0  0  0  0  0  0  0  0  0  0  0  0
    3.3635  -11.7733    5.4423 H   0  0  0  0  0  0  0  0  0  0  0  0
    4.6586   -9.1961    7.2346 H   0  0  0  0  0  0  0  0  0  0  0  0
    4.3253  -10.8523    7.0255 H   0  0  0  0  0  0  0  0  0  0  0  0
    2.9837   -9.7301    7.0155 H   0  0  0  0  0  0  0  0  0  0  0  0
    6.0967  -10.2630    5.5883 H   0  0  0  0  0  0  0  0  0  0  0  0
    6.5124   -8.1964    6.0816 H   0  0  0  0  0  0  0  0  0  0  0  0
    7.2746   -8.2422    4.5530 H   0  0  0  0  0  0  0  0  0  0  0  0
    6.1351   -6.1984    4.8551 H   0  0  0  0  0  0  0  0  0  0  0  0
    5.4507   -6.9239    3.4865 H   0  0  0  0  0  0  0  0  0  0  0  0
    4.9068   -7.1141    7.1360 H   0  0  0  0  0  0  0  0  0  0  0  0
    3.1597   -7.3654    7.0903 H   0  0  0  0  0  0  0  0  0  0  0  0
    3.8295   -5.7974    7.0214 H   0  0  0  0  0  0  0  0  0  0  0  0
    0.8505   -7.4479    3.6290 H   0  0  0  0  0  0  0  0  0  0  0  0
    1.5348   -7.1686    2.0269 H   0  0  0  0  0  0  0  0  0  0  0  0
    2.4459   -8.3835    5.2988 H   0  0  0  0  0  0  0  0  0  0  0  0
    1.0150   -5.0862    2.0808 H   0  0  0  0  0  0  0  0  0  0  0  0
    0.7976   -4.3577    3.6528 H   0  0  0  0  0  0  0  0  0  0  0  0
    4.4856   -3.4030    2.9543 H   0  0  0  0  0  0  0  0  0  0  0  0
    5.2489   -3.1300    5.9869 H   0  0  0  0  0  0  0  0  0  0  0  0
    5.8458   -4.0193    4.6019 H   0  0  0  0  0  0  0  0  0  0  0  0
    5.3851   -4.7769    6.1140 H   0  0  0  0  0  0  0  0  0  0  0  0
    1.6195   -3.8197    5.5185 H   0  0  0  0  0  0  0  0  0  0  0  0
    2.7089   -4.1083    6.7970 H   0  0  0  0  0  0  0  0  0  0  0  0
    1.9799   -1.8400    6.8781 H   0  0  0  0  0  0  0  0  0  0  0  0
    3.6650   -1.8938    6.6820 H   0  0  0  0  0  0  0  0  0  0  0  0
    3.1504   -0.2214    5.3036 H   0  0  0  0  0  0  0  0  0  0  0  0
   -0.7937   -1.1940    4.1003 H   0  0  0  0  0  0  0  0  0  0  0  0
    0.0521   -2.3427    5.1225 H   0  0  0  0  0  0  0  0  0  0  0  0
    0.4385   -2.2108    3.4023 H   0  0  0  0  0  0  0  0  0  0  0  0
   -0.2160    0.8162    5.5375 H   0  0  0  0  0  0  0  0  0  0  0  0
    1.3992    0.9462    6.2108 H   0  0  0  0  0  0  0  0  0  0  0  0
    0.3670   -0.4129    6.6368 H   0  0  0  0  0  0  0  0  0  0  0  0
    0.2718    0.7225    3.1192 H   0  0  0  0  0  0  0  0  0  0  0  0
    1.9169    2.2038    2.9666 H   0  0  0  0  0  0  0  0  0  0  0  0
    1.3227   -1.0466    1.7823 H   0  0  0  0  0  0  0  0  0  0  0  0
    1.9650    0.4860    1.3457 H   0  0  0  0  0  0  0  0  0  0  0  0
    3.7934   -1.1821    1.5927 H   0  0  0  0  0  0  0  0  0  0  0  0
    3.9125    0.2314    2.5340 H   0  0  0  0  0  0  0  0  0  0  0  0
    5.2948   -0.1472    3.9619 H   0  0  0  0  0  0  0  0  0  0  0  0
    5.7794   -1.7703    3.5512 H   0  0  0  0  0  0  0  0  0  0  0  0
    5.2842   -1.3007    5.1861 H   0  0  0  0  0  0  0  0  0  0  0  0
  2  1  1  1
  1 40  1  0
  1 41  1  0
  1 42  1  0
  2 11  1  0
  2  3  1  0
  2  6  1  0
  3  4  2  0
  3  5  1  0
  6  7  1  0
  6 43  1  0
  6 44  1  0
  7  8  1  0
  7 45  1  0
  7 46  1  0
  8  9  1  0
  8 47  1  0
  8 48  1  0
  9 21  1  0
  9 10  1  1
  9 11  1  0
 10 49  1  0
 10 50  1  0
 10 51  1  0
 11 12  1  0
 11 52  1  1
 12 13  1  0
 12 53  1  0
 12 54  1  0
 13 14  1  0
 13 55  1  0
 13 56  1  0
 14 21  1  0
 14 15  1  1
 14 16  1  0
 15 57  1  0
 15 58  1  0
 15 59  1  0
 16 26  1  0
 16 17  2  0
 17 18  1  0
 17 22  1  0
 18 19  1  0
 18 60  1  0
 18 61  1  0
 19 20  2  0
 19 21  1  0
 21 62  1  1
 22 23  1  0
 22 63  1  0
 22 64  1  0
 23 24  2  0
 23 25  1  0
 25 38  1  0
 25 26  1  0
 25 65  1  6
 26 27  1  1
 26 28  1  0
 27 66  1  0
 27 67  1  0
 27 68  1  0
 28 29  1  0
 28 69  1  0
 28 70  1  0
 29 30  1  0
 29 71  1  0
 29 72  1  0
 30 38  1  0
 30 31  1  0
 30 73  1  1
 31 32  1  0
 31 33  1  0
 31 34  1  0
 32 74  1  0
 32 75  1  0
 32 76  1  0
 33 77  1  0
 33 78  1  0
 33 79  1  0
 34 35  1  0
 34 36  1  0
 34 80  1  6
 35 81  1  0
 36 37  1  0
 36 82  1  0
 36 83  1  0
 37 38  1  0
 37 84  1  0
 37 85  1  0
 38 39  1  1
 39 86  1  0
 39 87  1  0
 39 88  1  0
M  CHG  1   5  -1
M  END
>  <i_m_ct_stereo_status>  (43) 
1

>  <s_m_source_file>  (43) 
/var/tmp/pbs.5076255.sched01/tmp5ffkvrn0/0o5bi62ha.sdf

>  <i_m_source_file_index>  (43) 
21

>  <i_lp_mmshare_version>  (43) 
48012

>  <i_f3d_flags>  (43) 
0

>  <s_epik_input>  (43) 
W0NIMl0xW0NIMl1bQ0gyXVtDQEBdKFtDSDNdKShDKD1PKVtPSF0pW0NASF0oW0NAXTEyW0NIM10pW0NIMl1bQ0gyXVtDQEBdMyhbQ0gzXSlDND1DKFtDSDJdQyg9TylbQ0BASF0yMylbQ0gyXUMoPU8pW0NAQEhdNVtDQEBdNChbQ0gzXSlbQ0gyXVtDSDJdW0NASF02W0NAXTUoW0NIM10pW0NIMl1bQ0gyXVtDQEhdKFtPSF0pQzYoW0NIM10pW0NIM10=

>  <s_epik_cmdline>  (43) 
J2VwaWtfcHl0aG9uJywgJy1waHQnLCAnMi4wJywgJy1waCcsICc3LjAnLCAnLXRuJywgJzgnLCAnLW1hJywgJzIwMCcsICctaW1hZScsICc8aW5maWxlLm1hZT4nLCAnLW9tYWUnLCAnPG91dGZpbGUubWFlPic=

>  <r_epik_Ionization_Penalty>  (43) 
0.00498076

>  <r_epik_Ionization_Penalty_Charging>  (43) 
0.00497866

>  <r_epik_Ionization_Penalty_Neutral>  (43) 
2.10298e-06

>  <r_epik_State_Penalty>  (43) 
0.0036183

>  <r_epik_Charging_Adjusted_Penalty>  (43) 
0.00859696

>  <i_epik_Tot_Q>  (43) 
-1

>  <i_epik_Tot_abs_Q>  (43) 
1

>  <s_lp_Force_Field>  (43) 
OPLS3e

>  <r_lp_Energy>  (43) 
130.837

>  <b_lp_Chiralities_Consistent>  (43) 
1

>  <s_lp_Variant>  (43) 
14:0-1

>  <s_i_glide_gridfile>  (43) 
pfpi4k_grid

>  <i_i_glide_lignum>  (43) 
21

>  <i_i_glide_rotatable_bonds>  (43) 
2

>  <r_i_docking_score>  (43) 
-1.60462

>  <r_i_glide_ligand_efficiency>  (43) 
-0.0411442

>  <r_i_glide_ligand_efficiency_sa>  (43) 
-0.139529

>  <r_i_glide_ligand_efficiency_ln>  (43) 
-0.344077

>  <r_i_glide_gscore>  (43) 
-1.60462

>  <r_i_glide_lipo>  (43) 
-0.079461

>  <r_i_glide_hbond>  (43) 
-0.0388352

>  <r_i_glide_metal>  (43) 
-0

>  <r_i_glide_rewards>  (43) 
0

>  <r_i_glide_evdw>  (43) 
-26.4347

>  <r_i_glide_ecoul>  (43) 
-0.900611

>  <r_i_glide_erotb>  (43) 
0

>  <r_i_glide_esite>  (43) 
-0.0295003

>  <r_i_glide_emodel>  (43) 
-29.9545

>  <r_i_glide_energy>  (43) 
-27.3353

>  <r_i_glide_einternal>  (43) 
0.88497

>  <r_i_glide_intrahb_reward>  (43) 
-0

>  <i_i_glide_confnum>  (43) 
2

>  <i_i_glide_posenum>  (43) 
30

>  <r_i_glide_eff_state_penalty>  (43) 
0

>  <ligand_id>  (43) 
14

>  <original_smiles>  (43) 
CC1(C(=O)O)CCCC2(C)C1CCC1(C)C3=C(CC(=O)C12)CC(=O)C1C3(C)CCC2C(C)(C)C(O)CCC12C

>  <smiles>  (43) 
[H]OC1([H])C([H])([H])C([H])([H])C2(C([H])([H])[H])C3([H])C(=O)C([H])([H])C4=C(C5(C([H])([H])[H])C([H])([H])C([H])([H])C6([H])C(C(=O)[O-])(C([H])([H])[H])C([H])([H])C([H])([H])C([H])([H])C6(C([H])([H])[H])C5([H])C(=O)C4([H])[H])C3(C([H])([H])[H])C([H])([H])C([H])([H])C2([H])C1(C([H])([H])[H])C([H])([H])[H]

$$$$
15:0:0
     RDKit          3D

 59 63  0  0  1  0  0  0  0  0999 V2000
    0.8612   -4.0482    7.8005 C   0  0  0  0  0  0  0  0  0  0  0  0
    0.6609   -2.5516    8.0877 C   0  0  0  0  0  0  0  0  0  0  0  0
   -0.0587   -2.1743    9.0106 O   0  0  0  0  0  0  0  0  0  0  0  0
    1.2831   -1.6590    7.2789 O   0  0  0  0  0  0  0  0  0  0  0  0
    1.9180   -1.9880    6.0322 C   0  0  2  0  0  0  0  0  0  0  0  0
    3.4461   -1.5997    6.0255 C   0  0  1  0  0  0  0  0  0  0  0  0
    4.0505   -1.6482    7.4500 C   0  0  0  0  0  0  0  0  0  0  0  0
    4.2598   -2.5773    5.1453 C   0  0  0  0  0  0  0  0  0  0  0  0
    3.9595   -2.6318    3.6342 C   0  0  2  0  0  0  0  0  0  0  0  0
    4.7507   -1.6285    2.7305 C   0  0  0  0  0  0  0  0  0  0  0  0
    3.9892   -1.0090    1.5492 C   0  0  0  0  0  0  0  0  0  0  0  0
    4.6600   -1.0874    0.1896 C   0  0  0  0  0  0  0  0  0  0  0  0
    2.8168   -0.3680    1.7299 C   0  0  0  0  0  0  0  0  0  0  0  0
    2.2206   -0.2883    3.1111 C   0  0  1  0  0  0  0  0  0  0  0  0
    0.9783    0.5364    3.3903 C   0  0  2  0  0  0  0  0  0  0  0  0
    0.9391    2.0645    3.0675 C   0  0  0  0  0  0  0  0  0  0  0  0
   -0.1486    2.6627    3.9997 C   0  0  1  0  0  0  0  0  0  0  0  0
   -1.2203    3.7184    3.7167 C   0  0  0  0  0  0  0  0  0  0  0  0
   -2.0741    2.9110    4.7632 C   0  0  0  0  0  0  0  0  0  0  0  0
   -2.9418    3.1743    5.5951 O   0  0  0  0  0  0  0  0  0  0  0  0
   -1.2790    1.6749    4.3233 C   0  0  2  0  0  0  0  0  0  0  0  0
   -0.7881    0.6070    5.3003 C   0  0  0  0  0  0  0  0  0  0  0  0
   -1.3759    0.1631    6.2978 O   0  0  0  0  0  0  0  0  0  0  0  0
    0.6310    0.1220    4.8717 C   0  0  2  0  0  0  0  0  0  0  0  0
    1.5335    0.8353    5.7269 O   0  0  0  0  0  0  0  0  0  0  0  0
    0.9810   -1.4270    4.8844 C   0  0  2  0  0  0  0  0  0  0  0  0
   -0.2829   -2.3267    4.8766 C   0  0  0  0  0  0  0  0  0  0  0  0
    1.6931   -1.6461    3.5348 C   0  0  2  0  0  0  0  0  0  0  0  0
    2.5687   -2.7774    3.4033 O   0  0  0  0  0  0  0  0  0  0  0  0
    1.5220   -4.2994    7.0314 H   0  0  0  0  0  0  0  0  0  0  0  0
   -0.1397   -4.4874    7.5934 H   0  0  0  0  0  0  0  0  0  0  0  0
    1.1946   -4.5261    8.7430 H   0  0  0  0  0  0  0  0  0  0  0  0
    1.8963   -3.0283    5.8658 H   0  0  0  0  0  0  0  0  0  0  0  0
    3.6383   -0.5821    5.6807 H   0  0  0  0  0  0  0  0  0  0  0  0
    3.9498   -2.6288    7.9158 H   0  0  0  0  0  0  0  0  0  0  0  0
    3.5906   -0.9187    8.1178 H   0  0  0  0  0  0  0  0  0  0  0  0
    5.1150   -1.4217    7.4227 H   0  0  0  0  0  0  0  0  0  0  0  0
    5.3229   -2.3836    5.2650 H   0  0  0  0  0  0  0  0  0  0  0  0
    4.1318   -3.6024    5.5438 H   0  0  0  0  0  0  0  0  0  0  0  0
    4.3451   -3.5984    3.3128 H   0  0  0  0  0  0  0  0  0  0  0  0
    5.1447   -0.8072    3.3370 H   0  0  0  0  0  0  0  0  0  0  0  0
    5.6376   -2.1255    2.3442 H   0  0  0  0  0  0  0  0  0  0  0  0
    5.6453   -0.6140    0.2080 H   0  0  0  0  0  0  0  0  0  0  0  0
    4.0719   -0.5904   -0.5676 H   0  0  0  0  0  0  0  0  0  0  0  0
    4.7862   -2.1303   -0.1205 H   0  0  0  0  0  0  0  0  0  0  0  0
    2.2729    0.0903    0.9161 H   0  0  0  0  0  0  0  0  0  0  0  0
    3.0253    0.0614    3.7638 H   0  0  0  0  0  0  0  0  0  0  0  0
    0.1840    0.1185    2.7439 H   0  0  0  0  0  0  0  0  0  0  0  0
    1.9347    2.5289    3.2219 H   0  0  0  0  0  0  0  0  0  0  0  0
    0.6758    2.2194    2.0443 H   0  0  0  0  0  0  0  0  0  0  0  0
    0.3309    2.9837    4.9080 H   0  0  0  0  0  0  0  0  0  0  0  0
   -0.9254    4.7456    4.0064 H   0  0  0  0  0  0  0  0  0  0  0  0
   -1.5952    3.6988    2.6902 H   0  0  0  0  0  0  0  0  0  0  0  0
   -1.6799    1.2281    3.4090 H   0  0  0  0  0  0  0  0  0  0  0  0
    2.4233    0.5695    5.5176 H   0  0  0  0  0  0  0  0  0  0  0  0
   -0.9862   -2.0480    4.0907 H   0  0  0  0  0  0  0  0  0  0  0  0
   -0.8542   -2.2872    5.8040 H   0  0  0  0  0  0  0  0  0  0  0  0
   -0.0232   -3.3725    4.7108 H   0  0  0  0  0  0  0  0  0  0  0  0
    0.9321   -1.9157    2.8077 H   0  0  0  0  0  0  0  0  0  0  0  0
  1  2  1  0
  1 30  1  0
  1 31  1  0
  1 32  1  0
  2  3  2  0
  2  4  1  0
  4  5  1  0
  5 26  1  0
  5  6  1  0
  5 33  1  6
  6  7  1  0
  6  8  1  0
  6 34  1  6
  7 35  1  0
  7 36  1  0
  7 37  1  0
  8  9  1  0
  8 38  1  0
  8 39  1  0
  9 29  1  0
  9 10  1  0
  9 40  1  6
 10 11  1  0
 10 41  1  0
 10 42  1  0
 11 12  1  0
 11 13  2  0
 12 43  1  0
 12 44  1  0
 12 45  1  0
 13 14  1  0
 13 46  1  0
 14 28  1  0
 14 15  1  0
 14 47  1  1
 15 24  1  0
 15 16  1  0
 15 48  1  6
 16 17  1  0
 16 49  1  0
 16 50  1  0
 17 21  1  0
 17 18  1  0
 17 51  1  1
 18 19  1  0
 18 52  1  0
 18 53  1  0
 19 20  2  0
 19 21  1  0
 21 22  1  0
 21 54  1  6
 22 23  2  0
 22 24  1  0
 24 25  1  1
 24 26  1  0
 25 55  1  0
 26 27  1  6
 26 28  1  0
 27 56  1  0
 27 57  1  0
 27 58  1  0
 28 29  1  0
 28 59  1  6
M  END
>  <i_m_ct_stereo_status>  (44) 
1

>  <s_m_source_file>  (44) 
/var/tmp/pbs.5076255.sched01/tmp5ffkvrn0/0o5bi62ha.sdf

>  <i_m_source_file_index>  (44) 
22

>  <i_lp_mmshare_version>  (44) 
48012

>  <i_f3d_flags>  (44) 
0

>  <s_epik_input>  (44) 
W0NIM11DKD1bQ0hdMSlbQ0gyXVtDQEhdKE8yKVtDSDJdW0NASF0oW0NIM10pW0NAQEhdKE9DKD1PKVtDSDNdKVtDQF0zKFtDSDNdKVtDQEhdMltDQEBIXTFbQ0BASF0oW0NAXTM0W09IXSlbQ0gyXVtDQEBIXTVbQ0BASF0oQzQ9TylDKD1PKVtDSDJdNQ==

>  <s_epik_cmdline>  (44) 
J2VwaWtfcHl0aG9uJywgJy1waHQnLCAnMi4wJywgJy1waCcsICc3LjAnLCAnLXRuJywgJzgnLCAnLW1hJywgJzIwMCcsICctaW1hZScsICc8aW5maWxlLm1hZT4nLCAnLW9tYWUnLCAnPG91dGZpbGUubWFlPic=

>  <r_epik_Ionization_Penalty>  (44) 
0.0259897

>  <r_epik_Ionization_Penalty_Charging>  (44) 
0

>  <r_epik_Ionization_Penalty_Neutral>  (44) 
0.0259897

>  <r_epik_State_Penalty>  (44) 
0.0217833

>  <r_epik_Charging_Adjusted_Penalty>  (44) 
0.0217833

>  <i_epik_Tot_Q>  (44) 
0

>  <i_epik_Tot_abs_Q>  (44) 
0

>  <s_epik_Chemistry_Notes>  (44) 
This compound has an ester and may undergo hydrolysis at high or low pH.

>  <s_lp_Force_Field>  (44) 
OPLS3e

>  <r_lp_Energy>  (44) 
68.856

>  <b_lp_Chiralities_Consistent>  (44) 
1

>  <s_lp_Variant>  (44) 
15:0-1

>  <s_i_glide_gridfile>  (44) 
pfpi4k_grid

>  <i_i_glide_lignum>  (44) 
22

>  <i_i_glide_rotatable_bonds>  (44) 
3

>  <r_i_docking_score>  (44) 
-3.42144

>  <r_i_glide_ligand_efficiency>  (44) 
-0.117981

>  <r_i_glide_ligand_efficiency_sa>  (44) 
-0.362474

>  <r_i_glide_ligand_efficiency_ln>  (44) 
-0.783422

>  <r_i_glide_gscore>  (44) 
-3.42144

>  <r_i_glide_lipo>  (44) 
-0.0806782

>  <r_i_glide_hbond>  (44) 
-0.295389

>  <r_i_glide_metal>  (44) 
-0

>  <r_i_glide_rewards>  (44) 
-0.664904

>  <r_i_glide_evdw>  (44) 
-25.2742

>  <r_i_glide_ecoul>  (44) 
-7.79653

>  <r_i_glide_erotb>  (44) 
0.121144

>  <r_i_glide_esite>  (44) 
-0.0684189

>  <r_i_glide_emodel>  (44) 
-37.313

>  <r_i_glide_energy>  (44) 
-33.0707

>  <r_i_glide_einternal>  (44) 
5.20456

>  <r_i_glide_intrahb_reward>  (44) 
-0

>  <i_i_glide_confnum>  (44) 
3

>  <i_i_glide_posenum>  (44) 
13

>  <r_i_glide_eff_state_penalty>  (44) 
0

>  <ligand_id>  (44) 
15

>  <original_smiles>  (44) 
CC(=O)OC1C(C)CC2CC(C)=CC3C4CC5CC(=O)C5C(=O)C4(O)C1(C)C3O2

>  <smiles>  (44) 
[H]OC12C(=O)C3([H])C(=O)C([H])([H])C3([H])C([H])([H])C1([H])C1([H])C([H])=C(C([H])([H])[H])C([H])([H])C3([H])OC1([H])C2(C([H])([H])[H])C([H])(OC(=O)C([H])([H])[H])C([H])(C([H])([H])[H])C3([H])[H]

$$$$
15:0:1
     RDKit          3D

 59 63  0  0  1  0  0  0  0  0999 V2000
    0.8363   -4.0620    7.8314 C   0  0  0  0  0  0  0  0  0  0  0  0
    0.6607   -2.5605    8.0907 C   0  0  0  0  0  0  0  0  0  0  0  0
   -0.0424   -2.1825    9.0211 O   0  0  0  0  0  0  0  0  0  0  0  0
    1.2742   -1.6709    7.2693 O   0  0  0  0  0  0  0  0  0  0  0  0
    1.9025   -1.9616    6.0173 C   0  0  2  0  0  0  0  0  0  0  0  0
    3.4350   -1.6082    6.0127 C   0  0  1  0  0  0  0  0  0  0  0  0
    4.0416   -1.6633    7.4343 C   0  0  0  0  0  0  0  0  0  0  0  0
    4.2417   -2.6019    5.1320 C   0  0  0  0  0  0  0  0  0  0  0  0
    3.9340   -2.6544    3.6208 C   0  0  2  0  0  0  0  0  0  0  0  0
    4.7293   -1.6558    2.7151 C   0  0  0  0  0  0  0  0  0  0  0  0
    3.9616   -1.0328    1.5359 C   0  0  0  0  0  0  0  0  0  0  0  0
    4.6341   -1.1212    0.1710 C   0  0  0  0  0  0  0  0  0  0  0  0
    2.8030   -0.3943    1.7147 C   0  0  0  0  0  0  0  0  0  0  0  0
    2.2057   -0.3044    3.0932 C   0  0  1  0  0  0  0  0  0  0  0  0
    0.9587    0.5211    3.3646 C   0  0  2  0  0  0  0  0  0  0  0  0
    0.9237    2.0543    3.0604 C   0  0  0  0  0  0  0  0  0  0  0  0
   -0.1510    2.6477    3.9909 C   0  0  1  0  0  0  0  0  0  0  0  0
   -1.2244    3.7193    3.6996 C   0  0  0  0  0  0  0  0  0  0  0  0
   -2.0813    2.9160    4.7490 C   0  0  0  0  0  0  0  0  0  0  0  0
   -2.9447    3.1786    5.5886 O   0  0  0  0  0  0  0  0  0  0  0  0
   -1.2930    1.6655    4.3190 C   0  0  2  0  0  0  0  0  0  0  0  0
   -0.7958    0.6094    5.2954 C   0  0  0  0  0  0  0  0  0  0  0  0
   -1.3781    0.1748    6.2983 O   0  0  0  0  0  0  0  0  0  0  0  0
    0.6197    0.1056    4.8471 C   0  0  2  0  0  0  0  0  0  0  0  0
    1.5597    0.7790    5.6809 O   0  0  0  0  0  0  0  0  0  0  0  0
    0.9663   -1.4496    4.8743 C   0  0  2  0  0  0  0  0  0  0  0  0
   -0.3048   -2.3371    4.8715 C   0  0  0  0  0  0  0  0  0  0  0  0
    1.6774   -1.6667    3.5227 C   0  0  2  0  0  0  0  0  0  0  0  0
    2.5396   -2.7936    3.3908 O   0  0  0  0  0  0  0  0  0  0  0  0
    1.5046   -4.3697    7.0361 H   0  0  0  0  0  0  0  0  0  0  0  0
   -0.1490   -4.4899    7.6265 H   0  0  0  0  0  0  0  0  0  0  0  0
    1.1999   -4.5280    8.7506 H   0  0  0  0  0  0  0  0  0  0  0  0
    1.9021   -3.0131    5.8032 H   0  0  0  0  0  0  0  0  0  0  0  0
    3.6227   -0.5949    5.6669 H   0  0  0  0  0  0  0  0  0  0  0  0
    3.9388   -2.6440    7.9036 H   0  0  0  0  0  0  0  0  0  0  0  0
    3.5855   -0.9305    8.1018 H   0  0  0  0  0  0  0  0  0  0  0  0
    5.1079   -1.4392    7.4048 H   0  0  0  0  0  0  0  0  0  0  0  0
    5.3065   -2.4059    5.2473 H   0  0  0  0  0  0  0  0  0  0  0  0
    4.1113   -3.6156    5.5301 H   0  0  0  0  0  0  0  0  0  0  0  0
    4.3182   -3.6246    3.2999 H   0  0  0  0  0  0  0  0  0  0  0  0
    5.1239   -0.8356    3.3165 H   0  0  0  0  0  0  0  0  0  0  0  0
    5.6141   -2.1570    2.3253 H   0  0  0  0  0  0  0  0  0  0  0  0
    5.6162   -0.6485    0.1845 H   0  0  0  0  0  0  0  0  0  0  0  0
    4.0383   -0.6206   -0.5884 H   0  0  0  0  0  0  0  0  0  0  0  0
    4.7529   -2.1604   -0.1370 H   0  0  0  0  0  0  0  0  0  0  0  0
    2.2502    0.0696    0.9049 H   0  0  0  0  0  0  0  0  0  0  0  0
    3.0058    0.0397    3.7490 H   0  0  0  0  0  0  0  0  0  0  0  0
    0.1631    0.1041    2.7306 H   0  0  0  0  0  0  0  0  0  0  0  0
    1.9183    2.5080    3.2032 H   0  0  0  0  0  0  0  0  0  0  0  0
    0.6602    2.2023    2.0252 H   0  0  0  0  0  0  0  0  0  0  0  0
    0.3344    2.9898    4.8977 H   0  0  0  0  0  0  0  0  0  0  0  0
   -0.9312    4.7350    3.9933 H   0  0  0  0  0  0  0  0  0  0  0  0
   -1.6038    3.6877    2.6795 H   0  0  0  0  0  0  0  0  0  0  0  0
   -1.6937    1.2240    3.4075 H   0  0  0  0  0  0  0  0  0  0  0  0
    1.4679    1.7197    5.5747 H   0  0  0  0  0  0  0  0  0  0  0  0
   -0.9819   -2.0572    4.0659 H   0  0  0  0  0  0  0  0  0  0  0  0
   -0.8710   -2.2896    5.7996 H   0  0  0  0  0  0  0  0  0  0  0  0
   -0.0435   -3.3808    4.7130 H   0  0  0  0  0  0  0  0  0  0  0  0
    0.9094   -1.9335    2.7985 H   0  0  0  0  0  0  0  0  0  0  0  0
  1  2  1  0
  1 30  1  0
  1 31  1  0
  1 32  1  0
  2  3  2  0
  2  4  1  0
  4  5  1  0
  5 26  1  0
  5  6  1  0
  5 33  1  6
  6  7  1  0
  6  8  1  0
  6 34  1  6
  7 35  1  0
  7 36  1  0
  7 37  1  0
  8  9  1  0
  8 38  1  0
  8 39  1  0
  9 29  1  0
  9 10  1  0
  9 40  1  6
 10 11  1  0
 10 41  1  0
 10 42  1  0
 11 12  1  0
 11 13  2  0
 12 43  1  0
 12 44  1  0
 12 45  1  0
 13 14  1  0
 13 46  1  0
 14 28  1  0
 14 15  1  0
 14 47  1  1
 15 24  1  0
 15 16  1  0
 15 48  1  6
 16 17  1  0
 16 49  1  0
 16 50  1  0
 17 21  1  0
 17 18  1  0
 17 51  1  1
 18 19  1  0
 18 52  1  0
 18 53  1  0
 19 20  2  0
 19 21  1  0
 21 22  1  0
 21 54  1  6
 22 23  2  0
 22 24  1  0
 24 25  1  1
 24 26  1  0
 25 55  1  0
 26 27  1  6
 26 28  1  0
 27 56  1  0
 27 57  1  0
 27 58  1  0
 28 29  1  0
 28 59  1  6
M  END
>  <i_m_ct_stereo_status>  (45) 
1

>  <s_m_source_file>  (45) 
/var/tmp/pbs.5076255.sched01/tmp5ffkvrn0/0o5bi62ha.sdf

>  <i_m_source_file_index>  (45) 
22

>  <i_lp_mmshare_version>  (45) 
48012

>  <i_f3d_flags>  (45) 
0

>  <s_epik_input>  (45) 
W0NIM11DKD1bQ0hdMSlbQ0gyXVtDQEhdKE8yKVtDSDJdW0NASF0oW0NIM10pW0NAQEhdKE9DKD1PKVtDSDNdKVtDQF0zKFtDSDNdKVtDQEhdMltDQEBIXTFbQ0BASF0oW0NAXTM0W09IXSlbQ0gyXVtDQEBIXTVbQ0BASF0oQzQ9TylDKD1PKVtDSDJdNQ==

>  <s_epik_cmdline>  (45) 
J2VwaWtfcHl0aG9uJywgJy1waHQnLCAnMi4wJywgJy1waCcsICc3LjAnLCAnLXRuJywgJzgnLCAnLW1hJywgJzIwMCcsICctaW1hZScsICc8aW5maWxlLm1hZT4nLCAnLW9tYWUnLCAnPG91dGZpbGUubWFlPic=

>  <r_epik_Ionization_Penalty>  (45) 
0.0259897

>  <r_epik_Ionization_Penalty_Charging>  (45) 
0

>  <r_epik_Ionization_Penalty_Neutral>  (45) 
0.0259897

>  <r_epik_State_Penalty>  (45) 
0.0217833

>  <r_epik_Charging_Adjusted_Penalty>  (45) 
0.0217833

>  <i_epik_Tot_Q>  (45) 
0

>  <i_epik_Tot_abs_Q>  (45) 
0

>  <s_epik_Chemistry_Notes>  (45) 
This compound has an ester and may undergo hydrolysis at high or low pH.

>  <s_lp_Force_Field>  (45) 
OPLS3e

>  <r_lp_Energy>  (45) 
68.856

>  <b_lp_Chiralities_Consistent>  (45) 
1

>  <s_lp_Variant>  (45) 
15:0-1

>  <s_i_glide_gridfile>  (45) 
pfpi4k_grid

>  <i_i_glide_lignum>  (45) 
22

>  <i_i_glide_rotatable_bonds>  (45) 
3

>  <r_i_docking_score>  (45) 
-3.38493

>  <r_i_glide_ligand_efficiency>  (45) 
-0.116722

>  <r_i_glide_ligand_efficiency_sa>  (45) 
-0.358606

>  <r_i_glide_ligand_efficiency_ln>  (45) 
-0.775063

>  <r_i_glide_gscore>  (45) 
-3.38493

>  <r_i_glide_lipo>  (45) 
-0.062112

>  <r_i_glide_hbond>  (45) 
-0.294235

>  <r_i_glide_metal>  (45) 
-0

>  <r_i_glide_rewards>  (45) 
-0.664904

>  <r_i_glide_evdw>  (45) 
-25.2792

>  <r_i_glide_ecoul>  (45) 
-7.67866

>  <r_i_glide_erotb>  (45) 
0.121144

>  <r_i_glide_esite>  (45) 
-0.0690642

>  <r_i_glide_emodel>  (45) 
-36.4133

>  <r_i_glide_energy>  (45) 
-32.9578

>  <r_i_glide_einternal>  (45) 
6.83414

>  <r_i_glide_intrahb_reward>  (45) 
-0

>  <i_i_glide_confnum>  (45) 
3

>  <i_i_glide_posenum>  (45) 
2

>  <r_i_glide_eff_state_penalty>  (45) 
0

>  <ligand_id>  (45) 
15

>  <original_smiles>  (45) 
CC(=O)OC1C(C)CC2CC(C)=CC3C4CC5CC(=O)C5C(=O)C4(O)C1(C)C3O2

>  <smiles>  (45) 
[H]OC12C(=O)C3([H])C(=O)C([H])([H])C3([H])C([H])([H])C1([H])C1([H])C([H])=C(C([H])([H])[H])C([H])([H])C3([H])OC1([H])C2(C([H])([H])[H])C([H])(OC(=O)C([H])([H])[H])C([H])(C([H])([H])[H])C3([H])[H]

$$$$
15:0:2
     RDKit          3D

 59 63  0  0  1  0  0  0  0  0999 V2000
    0.4795   -1.4825    9.7229 C   0  0  0  0  0  0  0  0  0  0  0  0
    0.6883   -2.1465    8.3719 C   0  0  0  0  0  0  0  0  0  0  0  0
    0.1859   -3.2408    8.1289 O   0  0  0  0  0  0  0  0  0  0  0  0
    1.4378   -1.3926    7.5391 O   0  0  0  0  0  0  0  0  0  0  0  0
    1.8772   -1.8693    6.2596 C   0  0  2  0  0  0  0  0  0  0  0  0
    3.4119   -1.5351    6.0726 C   0  0  1  0  0  0  0  0  0  0  0  0
    4.1614   -1.4411    7.4222 C   0  0  0  0  0  0  0  0  0  0  0  0
    4.1749   -2.5639    5.1922 C   0  0  0  0  0  0  0  0  0  0  0  0
    3.7641   -2.7123    3.7100 C   0  0  2  0  0  0  0  0  0  0  0  0
    4.4873   -1.7856    2.6713 C   0  0  0  0  0  0  0  0  0  0  0  0
    3.6413   -1.2558    1.5094 C   0  0  0  0  0  0  0  0  0  0  0  0
    4.2025   -1.4515    0.1121 C   0  0  0  0  0  0  0  0  0  0  0  0
    2.4938   -0.5835    1.7395 C   0  0  0  0  0  0  0  0  0  0  0  0
    2.0138   -0.4071    3.1496 C   0  0  1  0  0  0  0  0  0  0  0  0
    0.7854    0.4506    3.4483 C   0  0  2  0  0  0  0  0  0  0  0  0
    0.7323    1.9528    3.0218 C   0  0  0  0  0  0  0  0  0  0  0  0
   -0.2602    2.6389    3.9600 C   0  0  1  0  0  0  0  0  0  0  0  0
   -1.3839    3.6821    3.6925 C   0  0  0  0  0  0  0  0  0  0  0  0
   -2.1365    2.9406    4.8500 C   0  0  0  0  0  0  0  0  0  0  0  0
   -2.9271    3.2840    5.7316 O   0  0  0  0  0  0  0  0  0  0  0  0
   -1.3623    1.6694    4.4474 C   0  0  2  0  0  0  0  0  0  0  0  0
   -0.8330    0.6983    5.4634 C   0  0  0  0  0  0  0  0  0  0  0  0
   -1.3142    0.3535    6.5377 O   0  0  0  0  0  0  0  0  0  0  0  0
    0.5590    0.1578    4.9791 C   0  0  2  0  0  0  0  0  0  0  0  0
    1.5600    0.8737    5.6940 O   0  0  0  0  0  0  0  0  0  0  0  0
    0.8886   -1.4095    5.1084 C   0  0  2  0  0  0  0  0  0  0  0  0
   -0.4058   -2.2657    5.1958 C   0  0  0  0  0  0  0  0  0  0  0  0
    1.5172   -1.7329    3.7208 C   0  0  2  0  0  0  0  0  0  0  0  0
    2.3572   -2.8720    3.5945 O   0  0  0  0  0  0  0  0  0  0  0  0
    1.0147   -0.5345    9.7744 H   0  0  0  0  0  0  0  0  0  0  0  0
    0.8640   -2.1488   10.4950 H   0  0  0  0  0  0  0  0  0  0  0  0
   -0.5767   -1.3028    9.9190 H   0  0  0  0  0  0  0  0  0  0  0  0
    1.8445   -2.9615    6.3021 H   0  0  0  0  0  0  0  0  0  0  0  0
    3.5438   -0.5567    5.6269 H   0  0  0  0  0  0  0  0  0  0  0  0
    4.0988   -2.3751    7.9815 H   0  0  0  0  0  0  0  0  0  0  0  0
    3.7616   -0.6435    8.0488 H   0  0  0  0  0  0  0  0  0  0  0  0
    5.2164   -1.2125    7.2714 H   0  0  0  0  0  0  0  0  0  0  0  0
    5.2419   -2.3377    5.2140 H   0  0  0  0  0  0  0  0  0  0  0  0
    4.0856   -3.5410    5.6676 H   0  0  0  0  0  0  0  0  0  0  0  0
    4.1218   -3.7064    3.4376 H   0  0  0  0  0  0  0  0  0  0  0  0
    4.9281   -0.9279    3.1801 H   0  0  0  0  0  0  0  0  0  0  0  0
    5.3418   -2.3289    2.2601 H   0  0  0  0  0  0  0  0  0  0  0  0
    5.1838   -0.9892    0.0171 H   0  0  0  0  0  0  0  0  0  0  0  0
    3.5461   -1.0044   -0.6343 H   0  0  0  0  0  0  0  0  0  0  0  0
    4.2966   -2.5108   -0.1217 H   0  0  0  0  0  0  0  0  0  0  0  0
    1.8918   -0.1817    0.9406 H   0  0  0  0  0  0  0  0  0  0  0  0
    2.8532   -0.0047    3.7058 H   0  0  0  0  0  0  0  0  0  0  0  0
   -0.0461    0.0014    2.9002 H   0  0  0  0  0  0  0  0  0  0  0  0
    1.7147    2.4180    3.0588 H   0  0  0  0  0  0  0  0  0  0  0  0
    0.3979    2.0380    1.9911 H   0  0  0  0  0  0  0  0  0  0  0  0
    0.2932    3.0407    4.8173 H   0  0  0  0  0  0  0  0  0  0  0  0
   -1.0458    4.7102    3.8784 H   0  0  0  0  0  0  0  0  0  0  0  0
   -1.8194    3.5799    2.7031 H   0  0  0  0  0  0  0  0  0  0  0  0
   -1.8521    1.1715    3.6198 H   0  0  0  0  0  0  0  0  0  0  0  0
    1.4498    1.7907    5.5138 H   0  0  0  0  0  0  0  0  0  0  0  0
   -1.1072   -2.0437    4.3916 H   0  0  0  0  0  0  0  0  0  0  0  0
   -0.9576   -2.1068    6.1186 H   0  0  0  0  0  0  0  0  0  0  0  0
   -0.1657   -3.3324    5.1401 H   0  0  0  0  0  0  0  0  0  0  0  0
    0.6967   -2.0354    3.0650 H   0  0  0  0  0  0  0  0  0  0  0  0
  1  2  1  0
  1 30  1  0
  1 31  1  0
  1 32  1  0
  2  3  2  0
  2  4  1  0
  4  5  1  0
  5 26  1  0
  5  6  1  0
  5 33  1  1
  6  7  1  0
  6  8  1  0
  6 34  1  6
  7 35  1  0
  7 36  1  0
  7 37  1  0
  8  9  1  0
  8 38  1  0
  8 39  1  0
  9 29  1  0
  9 10  1  0
  9 40  1  6
 10 11  1  0
 10 41  1  0
 10 42  1  0
 11 12  1  0
 11 13  2  0
 12 43  1  0
 12 44  1  0
 12 45  1  0
 13 14  1  0
 13 46  1  0
 14 28  1  0
 14 15  1  0
 14 47  1  1
 15 24  1  0
 15 16  1  0
 15 48  1  6
 16 17  1  0
 16 49  1  0
 16 50  1  0
 17 21  1  0
 17 18  1  0
 17 51  1  1
 18 19  1  0
 18 52  1  0
 18 53  1  0
 19 20  2  0
 19 21  1  0
 21 22  1  0
 21 54  1  6
 22 23  2  0
 22 24  1  0
 24 25  1  1
 24 26  1  0
 25 55  1  0
 26 27  1  1
 26 28  1  0
 27 56  1  0
 27 57  1  0
 27 58  1  0
 28 29  1  0
 28 59  1  6
M  END
>  <i_m_ct_stereo_status>  (46) 
1

>  <s_m_source_file>  (46) 
/var/tmp/pbs.5076255.sched01/tmp5ffkvrn0/0o5bi62ha.sdf

>  <i_m_source_file_index>  (46) 
22

>  <i_lp_mmshare_version>  (46) 
48012

>  <i_f3d_flags>  (46) 
0

>  <s_epik_input>  (46) 
W0NIM11DKD1bQ0hdMSlbQ0gyXVtDQEhdKE8yKVtDSDJdW0NASF0oW0NIM10pW0NAQEhdKE9DKD1PKVtDSDNdKVtDQF0zKFtDSDNdKVtDQEhdMltDQEBIXTFbQ0BASF0oW0NAXTM0W09IXSlbQ0gyXVtDQEBIXTVbQ0BASF0oQzQ9TylDKD1PKVtDSDJdNQ==

>  <s_epik_cmdline>  (46) 
J2VwaWtfcHl0aG9uJywgJy1waHQnLCAnMi4wJywgJy1waCcsICc3LjAnLCAnLXRuJywgJzgnLCAnLW1hJywgJzIwMCcsICctaW1hZScsICc8aW5maWxlLm1hZT4nLCAnLW9tYWUnLCAnPG91dGZpbGUubWFlPic=

>  <r_epik_Ionization_Penalty>  (46) 
0.0259897

>  <r_epik_Ionization_Penalty_Charging>  (46) 
0

>  <r_epik_Ionization_Penalty_Neutral>  (46) 
0.0259897

>  <r_epik_State_Penalty>  (46) 
0.0217833

>  <r_epik_Charging_Adjusted_Penalty>  (46) 
0.0217833

>  <i_epik_Tot_Q>  (46) 
0

>  <i_epik_Tot_abs_Q>  (46) 
0

>  <s_epik_Chemistry_Notes>  (46) 
This compound has an ester and may undergo hydrolysis at high or low pH.

>  <s_lp_Force_Field>  (46) 
OPLS3e

>  <r_lp_Energy>  (46) 
68.856

>  <b_lp_Chiralities_Consistent>  (46) 
1

>  <s_lp_Variant>  (46) 
15:0-1

>  <s_i_glide_gridfile>  (46) 
pfpi4k_grid

>  <i_i_glide_lignum>  (46) 
22

>  <i_i_glide_rotatable_bonds>  (46) 
3

>  <r_i_docking_score>  (46) 
-2.89708

>  <r_i_glide_ligand_efficiency>  (46) 
-0.0998993

>  <r_i_glide_ligand_efficiency_sa>  (46) 
-0.306922

>  <r_i_glide_ligand_efficiency_ln>  (46) 
-0.663358

>  <r_i_glide_gscore>  (46) 
-2.89708

>  <r_i_glide_lipo>  (46) 
-0.0381155

>  <r_i_glide_hbond>  (46) 
-0.152897

>  <r_i_glide_metal>  (46) 
-0

>  <r_i_glide_rewards>  (46) 
-0.664904

>  <r_i_glide_evdw>  (46) 
-25.3265

>  <r_i_glide_ecoul>  (46) 
-5.47117

>  <r_i_glide_erotb>  (46) 
0.121144

>  <r_i_glide_esite>  (46) 
-0.0753098

>  <r_i_glide_emodel>  (46) 
-35.5915

>  <r_i_glide_energy>  (46) 
-30.7976

>  <r_i_glide_einternal>  (46) 
2.70689

>  <r_i_glide_intrahb_reward>  (46) 
-0

>  <i_i_glide_confnum>  (46) 
1

>  <i_i_glide_posenum>  (46) 
27

>  <r_i_glide_eff_state_penalty>  (46) 
0

>  <ligand_id>  (46) 
15

>  <original_smiles>  (46) 
CC(=O)OC1C(C)CC2CC(C)=CC3C4CC5CC(=O)C5C(=O)C4(O)C1(C)C3O2

>  <smiles>  (46) 
[H]OC12C(=O)C3([H])C(=O)C([H])([H])C3([H])C([H])([H])C1([H])C1([H])C([H])=C(C([H])([H])[H])C([H])([H])C3([H])OC1([H])C2(C([H])([H])[H])C([H])(OC(=O)C([H])([H])[H])C([H])(C([H])([H])[H])C3([H])[H]

$$$$
15:1:0
     RDKit          3D

 58 62  0  0  1  0  0  0  0  0999 V2000
    1.1186   -5.1592   10.8110 C   0  0  0  0  0  0  0  0  0  0  0  0
    1.0526   -5.8921    9.4807 C   0  0  0  0  0  0  0  0  0  0  0  0
    0.3056   -6.8603    9.3237 O   0  0  0  0  0  0  0  0  0  0  0  0
    1.8689   -5.3378    8.5547 O   0  0  0  0  0  0  0  0  0  0  0  0
    1.9687   -5.8501    7.2191 C   0  0  2  0  0  0  0  0  0  0  0  0
    3.4812   -5.9575    6.7819 C   0  0  1  0  0  0  0  0  0  0  0  0
    4.4201   -6.1871    7.9834 C   0  0  0  0  0  0  0  0  0  0  0  0
    3.7432   -7.0911    5.7550 C   0  0  0  0  0  0  0  0  0  0  0  0
    3.0733   -7.0034    4.3648 C   0  0  2  0  0  0  0  0  0  0  0  0
    3.8749   -6.2652    3.2388 C   0  0  0  0  0  0  0  0  0  0  0  0
    3.0623   -5.4051    2.2595 C   0  0  0  0  0  0  0  0  0  0  0  0
    3.3137   -5.6356    0.7795 C   0  0  0  0  0  0  0  0  0  0  0  0
    2.2354   -4.4468    2.7028 C   0  0  0  0  0  0  0  0  0  0  0  0
    2.0518   -4.2512    4.1826 C   0  0  1  0  0  0  0  0  0  0  0  0
    1.2352   -3.0818    4.7216 C   0  0  2  0  0  0  0  0  0  0  0  0
    1.6981   -1.6326    4.4248 C   0  0  0  0  0  0  0  0  0  0  0  0
    1.1182   -0.5980    5.4148 C   0  0  1  0  0  0  0  0  0  0  0  0
    0.0234    0.4745    5.0486 C   0  0  0  0  0  0  0  0  0  0  0  0
   -0.7601   -0.1158    6.2119 C   0  0  0  0  0  0  0  0  0  0  0  0
   -2.0763    0.1410    6.4835 O   0  0  0  0  0  0  0  0  0  0  0  0
    0.0421   -1.1861    6.3106 C   0  0  0  0  0  0  0  0  0  0  0  0
    0.0753   -2.5398    6.8878 C   0  0  0  0  0  0  0  0  0  0  0  0
   -0.5842   -2.9146    7.8576 O   0  0  0  0  0  0  0  0  0  0  0  0
    1.1497   -3.4428    6.2377 C   0  0  2  0  0  0  0  0  0  0  0  0
    2.3746   -3.0527    6.8385 O   0  0  0  0  0  0  0  0  0  0  0  0
    0.9932   -5.0422    6.2662 C   0  0  2  0  0  0  0  0  0  0  0  0
   -0.4642   -5.5066    6.5519 C   0  0  0  0  0  0  0  0  0  0  0  0
    1.2606   -5.4079    4.7822 C   0  0  2  0  0  0  0  0  0  0  0  0
    1.6837   -6.7287    4.4749 O   0  0  0  0  0  0  0  0  0  0  0  0
    2.1382   -5.1896   11.1956 H   0  0  0  0  0  0  0  0  0  0  0  0
    0.4569   -5.6365   11.5327 H   0  0  0  0  0  0  0  0  0  0  0  0
    0.8124   -4.1192   10.6944 H   0  0  0  0  0  0  0  0  0  0  0  0
    1.6160   -6.8852    7.2423 H   0  0  0  0  0  0  0  0  0  0  0  0
    3.8289   -5.0283    6.3463 H   0  0  0  0  0  0  0  0  0  0  0  0
    4.1736   -7.1055    8.5172 H   0  0  0  0  0  0  0  0  0  0  0  0
    4.3790   -5.3614    8.6952 H   0  0  0  0  0  0  0  0  0  0  0  0
    5.4588   -6.2639    7.6598 H   0  0  0  0  0  0  0  0  0  0  0  0
    4.8171   -7.1947    5.5955 H   0  0  0  0  0  0  0  0  0  0  0  0
    3.4371   -8.0322    6.2130 H   0  0  0  0  0  0  0  0  0  0  0  0
    3.0658   -8.0348    4.0110 H   0  0  0  0  0  0  0  0  0  0  0  0
    4.6417   -5.6252    3.6763 H   0  0  0  0  0  0  0  0  0  0  0  0
    4.4318   -7.0040    2.6614 H   0  0  0  0  0  0  0  0  0  0  0  0
    4.3645   -5.4902    0.5342 H   0  0  0  0  0  0  0  0  0  0  0  0
    2.7327   -4.9470    0.1650 H   0  0  0  0  0  0  0  0  0  0  0  0
    3.0388   -6.6487    0.4944 H   0  0  0  0  0  0  0  0  0  0  0  0
    1.6874   -3.7927    2.0410 H   0  0  0  0  0  0  0  0  0  0  0  0
    3.0512   -4.1722    4.5965 H   0  0  0  0  0  0  0  0  0  0  0  0
    0.2282   -3.1577    4.3051 H   0  0  0  0  0  0  0  0  0  0  0  0
    2.7866   -1.5917    4.4335 H   0  0  0  0  0  0  0  0  0  0  0  0
    1.4109   -1.3816    3.4072 H   0  0  0  0  0  0  0  0  0  0  0  0
    1.9109   -0.1152    5.9871 H   0  0  0  0  0  0  0  0  0  0  0  0
    0.3785    1.4941    5.1825 H   0  0  0  0  0  0  0  0  0  0  0  0
   -0.3641    0.3559    4.0324 H   0  0  0  0  0  0  0  0  0  0  0  0
    3.0847   -3.5498    6.4680 H   0  0  0  0  0  0  0  0  0  0  0  0
   -1.1991   -4.9807    5.9454 H   0  0  0  0  0  0  0  0  0  0  0  0
   -0.7730   -5.3366    7.5816 H   0  0  0  0  0  0  0  0  0  0  0  0
   -0.5639   -6.5777    6.3545 H   0  0  0  0  0  0  0  0  0  0  0  0
    0.2966   -5.3839    4.2722 H   0  0  0  0  0  0  0  0  0  0  0  0
  1  2  1  0
  1 30  1  0
  1 31  1  0
  1 32  1  0
  2  3  2  0
  2  4  1  0
  4  5  1  0
  5 26  1  0
  5  6  1  0
  5 33  1  1
  6  7  1  0
  6  8  1  0
  6 34  1  6
  7 35  1  0
  7 36  1  0
  7 37  1  0
  8  9  1  0
  8 38  1  0
  8 39  1  0
  9 29  1  0
  9 10  1  0
  9 40  1  6
 10 11  1  0
 10 41  1  0
 10 42  1  0
 11 12  1  0
 11 13  2  0
 12 43  1  0
 12 44  1  0
 12 45  1  0
 13 14  1  0
 13 46  1  0
 14 28  1  0
 14 15  1  0
 14 47  1  1
 15 24  1  0
 15 16  1  0
 15 48  1  6
 16 17  1  0
 16 49  1  0
 16 50  1  0
 17 21  1  0
 17 18  1  0
 17 51  1  1
 18 19  1  0
 18 52  1  0
 18 53  1  0
 19 20  1  0
 19 21  2  0
 21 22  1  0
 22 23  2  0
 22 24  1  0
 24 25  1  1
 24 26  1  0
 25 54  1  0
 26 27  1  1
 26 28  1  0
 27 55  1  0
 27 56  1  0
 27 57  1  0
 28 29  1  0
 28 58  1  6
M  CHG  1  20  -1
M  END
>  <i_m_ct_stereo_status>  (47) 
1

>  <s_m_source_file>  (47) 
/var/tmp/pbs.5076255.sched01/tmp5ffkvrn0/0o5bi62ha.sdf

>  <i_m_source_file_index>  (47) 
23

>  <i_lp_mmshare_version>  (47) 
48012

>  <i_f3d_flags>  (47) 
0

>  <s_epik_input>  (47) 
W0NIM11DKD1bQ0hdMSlbQ0gyXVtDQEhdKE8yKVtDSDJdW0NASF0oW0NIM10pW0NAQEhdKE9DKD1PKVtDSDNdKVtDQF0zKFtDSDNdKVtDQEhdMltDQEBIXTFbQ0BASF0oW0NAXTM0W09IXSlbQ0gyXVtDQEBIXTVbQ0BASF0oQzQ9TylDKD1PKVtDSDJdNQ==

>  <s_epik_cmdline>  (47) 
J2VwaWtfcHl0aG9uJywgJy1waHQnLCAnMi4wJywgJy1waCcsICc3LjAnLCAnLXRuJywgJzgnLCAnLW1hJywgJzIwMCcsICctaW1hZScsICc8aW5maWxlLm1hZT4nLCAnLW9tYWUnLCAnPG91dGZpbGUubWFlPic=

>  <r_epik_Ionization_Penalty>  (47) 
0.0207684

>  <r_epik_Ionization_Penalty_Charging>  (47) 
0.0207683

>  <r_epik_Ionization_Penalty_Neutral>  (47) 
1.10031e-07

>  <r_epik_State_Penalty>  (47) 
1.98461

>  <r_epik_Charging_Adjusted_Penalty>  (47) 
2.00538

>  <i_epik_Tot_Q>  (47) 
-1

>  <i_epik_Tot_abs_Q>  (47) 
1

>  <s_epik_Chemistry_Notes>  (47) 
This compound has an ester and may undergo hydrolysis at high or low pH.

>  <s_lp_Force_Field>  (47) 
OPLS3e

>  <r_lp_Energy>  (47) 
66.7233

>  <b_lp_Chiralities_Consistent>  (47) 
1

>  <s_lp_Variant>  (47) 
15:0-2

>  <s_i_glide_gridfile>  (47) 
pfpi4k_grid

>  <i_i_glide_lignum>  (47) 
23

>  <i_i_glide_rotatable_bonds>  (47) 
3

>  <r_i_docking_score>  (47) 
-3.45161

>  <r_i_glide_ligand_efficiency>  (47) 
-0.119021

>  <r_i_glide_ligand_efficiency_sa>  (47) 
-0.36567

>  <r_i_glide_ligand_efficiency_ln>  (47) 
-0.790331

>  <r_i_glide_gscore>  (47) 
-3.45161

>  <r_i_glide_lipo>  (47) 
-0.0630848

>  <r_i_glide_hbond>  (47) 
-0.520471

>  <r_i_glide_metal>  (47) 
-0

>  <r_i_glide_rewards>  (47) 
-0.671777

>  <r_i_glide_evdw>  (47) 
-13.7769

>  <r_i_glide_ecoul>  (47) 
-10.6335

>  <r_i_glide_erotb>  (47) 
0.121692

>  <r_i_glide_esite>  (47) 
-0.0341062

>  <r_i_glide_emodel>  (47) 
-30.9799

>  <r_i_glide_energy>  (47) 
-24.4103

>  <r_i_glide_einternal>  (47) 
0.456426

>  <r_i_glide_intrahb_reward>  (47) 
-0

>  <i_i_glide_confnum>  (47) 
3

>  <i_i_glide_posenum>  (47) 
26

>  <r_i_glide_eff_state_penalty>  (47) 
0

>  <ligand_id>  (47) 
15

>  <original_smiles>  (47) 
CC(=O)OC1C(C)CC2CC(C)=CC3C4CC5CC(=O)C5C(=O)C4(O)C1(C)C3O2

>  <smiles>  (47) 
[H]OC12C(=O)C3=C([O-])C([H])([H])C3([H])C([H])([H])C1([H])C1([H])C([H])=C(C([H])([H])[H])C([H])([H])C3([H])OC1([H])C2(C([H])([H])[H])C([H])(OC(=O)C([H])([H])[H])C([H])(C([H])([H])[H])C3([H])[H]

$$$$
15:1:1
     RDKit          3D

 58 62  0  0  1  0  0  0  0  0999 V2000
    0.4472   -4.0654    7.3495 C   0  0  0  0  0  0  0  0  0  0  0  0
    0.3990   -2.5997    7.7821 C   0  0  0  0  0  0  0  0  0  0  0  0
   -0.1849   -2.2761    8.8206 O   0  0  0  0  0  0  0  0  0  0  0  0
    1.0214   -1.6915    6.9835 O   0  0  0  0  0  0  0  0  0  0  0  0
    1.5917   -1.9919    5.7007 C   0  0  2  0  0  0  0  0  0  0  0  0
    3.1654   -2.0803    5.7433 C   0  0  1  0  0  0  0  0  0  0  0  0
    3.7112   -2.5018    7.1287 C   0  0  0  0  0  0  0  0  0  0  0  0
    3.7032   -3.0940    4.6989 C   0  0  0  0  0  0  0  0  0  0  0  0
    3.4611   -2.8069    3.2003 C   0  0  2  0  0  0  0  0  0  0  0  0
    4.5466   -1.9442    2.4731 C   0  0  0  0  0  0  0  0  0  0  0  0
    4.0536   -0.9449    1.4217 C   0  0  0  0  0  0  0  0  0  0  0  0
    4.7328   -0.9872    0.0680 C   0  0  0  0  0  0  0  0  0  0  0  0
    3.1062   -0.0290    1.7217 C   0  0  0  0  0  0  0  0  0  0  0  0
    2.4981   -0.0243    3.0948 C   0  0  1  0  0  0  0  0  0  0  0  0
    1.5441    1.0835    3.5318 C   0  0  2  0  0  0  0  0  0  0  0  0
    2.0587    2.5404    3.5831 C   0  0  0  0  0  0  0  0  0  0  0  0
    1.2072    3.4510    4.5067 C   0  0  1  0  0  0  0  0  0  0  0  0
    0.2556    4.5952    3.9861 C   0  0  0  0  0  0  0  0  0  0  0  0
   -0.8381    3.8647    4.7737 C   0  0  0  0  0  0  0  0  0  0  0  0
   -2.1844    4.0424    4.5462 O   0  0  0  0  0  0  0  0  0  0  0  0
   -0.0893    2.7952    4.9676 C   0  0  0  0  0  0  0  0  0  0  0  0
   -0.2314    1.3576    5.3109 C   0  0  0  0  0  0  0  0  0  0  0  0
   -1.1571    0.8797    5.9748 O   0  0  0  0  0  0  0  0  0  0  0  0
    1.0106    0.5340    4.8919 C   0  0  2  0  0  0  0  0  0  0  0  0
    2.0032    0.8059    5.8727 O   0  0  0  0  0  0  0  0  0  0  0  0
    0.9054   -1.0452    4.6502 C   0  0  2  0  0  0  0  0  0  0  0  0
   -0.5577   -1.5377    4.4923 C   0  0  0  0  0  0  0  0  0  0  0  0
    1.5790   -1.2247    3.2695 C   0  0  2  0  0  0  0  0  0  0  0  0
    2.0920   -2.5134    2.9439 O   0  0  0  0  0  0  0  0  0  0  0  0
   -0.0423   -4.1990    6.3848 H   0  0  0  0  0  0  0  0  0  0  0  0
   -0.0495   -4.7058    8.0777 H   0  0  0  0  0  0  0  0  0  0  0  0
    1.4762   -4.4097    7.2693 H   0  0  0  0  0  0  0  0  0  0  0  0
    1.2770   -2.9808    5.3702 H   0  0  0  0  0  0  0  0  0  0  0  0
    3.6236   -1.1130    5.5565 H   0  0  0  0  0  0  0  0  0  0  0  0
    3.3758   -3.4926    7.4369 H   0  0  0  0  0  0  0  0  0  0  0  0
    3.4234   -1.7927    7.9072 H   0  0  0  0  0  0  0  0  0  0  0  0
    4.8006   -2.5416    7.1171 H   0  0  0  0  0  0  0  0  0  0  0  0
    4.7748   -3.2233    4.8423 H   0  0  0  0  0  0  0  0  0  0  0  0
    3.2735   -4.0733    4.9190 H   0  0  0  0  0  0  0  0  0  0  0  0
    3.5710   -3.7804    2.7201 H   0  0  0  0  0  0  0  0  0  0  0  0
    5.1444   -1.3921    3.2003 H   0  0  0  0  0  0  0  0  0  0  0  0
    5.2586   -2.6149    1.9887 H   0  0  0  0  0  0  0  0  0  0  0  0
    5.8064   -0.8323    0.1686 H   0  0  0  0  0  0  0  0  0  0  0  0
    4.3435   -0.2136   -0.5905 H   0  0  0  0  0  0  0  0  0  0  0  0
    4.5656   -1.9465   -0.4178 H   0  0  0  0  0  0  0  0  0  0  0  0
    2.7515    0.6998    1.0126 H   0  0  0  0  0  0  0  0  0  0  0  0
    3.3294   -0.0353    3.7921 H   0  0  0  0  0  0  0  0  0  0  0  0
    0.7098    1.0956    2.8264 H   0  0  0  0  0  0  0  0  0  0  0  0
    3.0981    2.5476    3.9134 H   0  0  0  0  0  0  0  0  0  0  0  0
    2.0751    2.9373    2.5755 H   0  0  0  0  0  0  0  0  0  0  0  0
    1.7953    3.8226    5.3534 H   0  0  0  0  0  0  0  0  0  0  0  0
    0.5473    5.5700    4.3593 H   0  0  0  0  0  0  0  0  0  0  0  0
    0.1831    4.6274    2.8901 H   0  0  0  0  0  0  0  0  0  0  0  0
    2.7987    0.3643    5.6384 H   0  0  0  0  0  0  0  0  0  0  0  0
   -1.1183   -0.9061    3.7961 H   0  0  0  0  0  0  0  0  0  0  0  0
   -1.1095   -1.5542    5.4307 H   0  0  0  0  0  0  0  0  0  0  0  0
   -0.5771   -2.5572    4.0954 H   0  0  0  0  0  0  0  0  0  0  0  0
    0.8001   -1.1137    2.5125 H   0  0  0  0  0  0  0  0  0  0  0  0
  1  2  1  0
  1 30  1  0
  1 31  1  0
  1 32  1  0
  2  3  2  0
  2  4  1  0
  4  5  1  0
  5 26  1  0
  5  6  1  0
  5 33  1  6
  6  7  1  0
  6  8  1  0
  6 34  1  6
  7 35  1  0
  7 36  1  0
  7 37  1  0
  8  9  1  0
  8 38  1  0
  8 39  1  0
  9 29  1  0
  9 10  1  0
  9 40  1  6
 10 11  1  0
 10 41  1  0
 10 42  1  0
 11 12  1  0
 11 13  2  0
 12 43  1  0
 12 44  1  0
 12 45  1  0
 13 14  1  0
 13 46  1  0
 14 28  1  0
 14 15  1  0
 14 47  1  1
 15 24  1  0
 15 16  1  0
 15 48  1  6
 16 17  1  0
 16 49  1  0
 16 50  1  0
 17 21  1  0
 17 18  1  0
 17 51  1  1
 18 19  1  0
 18 52  1  0
 18 53  1  0
 19 20  1  0
 19 21  2  0
 21 22  1  0
 22 23  2  0
 22 24  1  0
 24 25  1  1
 24 26  1  0
 25 54  1  0
 26 27  1  6
 26 28  1  0
 27 55  1  0
 27 56  1  0
 27 57  1  0
 28 29  1  0
 28 58  1  6
M  CHG  1  20  -1
M  END
>  <i_m_ct_stereo_status>  (48) 
1

>  <s_m_source_file>  (48) 
/var/tmp/pbs.5076255.sched01/tmp5ffkvrn0/0o5bi62ha.sdf

>  <i_m_source_file_index>  (48) 
23

>  <i_lp_mmshare_version>  (48) 
48012

>  <i_f3d_flags>  (48) 
0

>  <s_epik_input>  (48) 
W0NIM11DKD1bQ0hdMSlbQ0gyXVtDQEhdKE8yKVtDSDJdW0NASF0oW0NIM10pW0NAQEhdKE9DKD1PKVtDSDNdKVtDQF0zKFtDSDNdKVtDQEhdMltDQEBIXTFbQ0BASF0oW0NAXTM0W09IXSlbQ0gyXVtDQEBIXTVbQ0BASF0oQzQ9TylDKD1PKVtDSDJdNQ==

>  <s_epik_cmdline>  (48) 
J2VwaWtfcHl0aG9uJywgJy1waHQnLCAnMi4wJywgJy1waCcsICc3LjAnLCAnLXRuJywgJzgnLCAnLW1hJywgJzIwMCcsICctaW1hZScsICc8aW5maWxlLm1hZT4nLCAnLW9tYWUnLCAnPG91dGZpbGUubWFlPic=

>  <r_epik_Ionization_Penalty>  (48) 
0.0207684

>  <r_epik_Ionization_Penalty_Charging>  (48) 
0.0207683

>  <r_epik_Ionization_Penalty_Neutral>  (48) 
1.10031e-07

>  <r_epik_State_Penalty>  (48) 
1.98461

>  <r_epik_Charging_Adjusted_Penalty>  (48) 
2.00538

>  <i_epik_Tot_Q>  (48) 
-1

>  <i_epik_Tot_abs_Q>  (48) 
1

>  <s_epik_Chemistry_Notes>  (48) 
This compound has an ester and may undergo hydrolysis at high or low pH.

>  <s_lp_Force_Field>  (48) 
OPLS3e

>  <r_lp_Energy>  (48) 
66.7233

>  <b_lp_Chiralities_Consistent>  (48) 
1

>  <s_lp_Variant>  (48) 
15:0-2

>  <s_i_glide_gridfile>  (48) 
pfpi4k_grid

>  <i_i_glide_lignum>  (48) 
23

>  <i_i_glide_rotatable_bonds>  (48) 
3

>  <r_i_docking_score>  (48) 
-2.85099

>  <r_i_glide_ligand_efficiency>  (48) 
-0.0983099

>  <r_i_glide_ligand_efficiency_sa>  (48) 
-0.302039

>  <r_i_glide_ligand_efficiency_ln>  (48) 
-0.652804

>  <r_i_glide_gscore>  (48) 
-2.85099

>  <r_i_glide_lipo>  (48) 
-0.0653798

>  <r_i_glide_hbond>  (48) 
-0.175761

>  <r_i_glide_metal>  (48) 
-0

>  <r_i_glide_rewards>  (48) 
-0.671777

>  <r_i_glide_evdw>  (48) 
-21.4641

>  <r_i_glide_ecoul>  (48) 
-6.28036

>  <r_i_glide_erotb>  (48) 
0.121692

>  <r_i_glide_esite>  (48) 
-0.0445049

>  <r_i_glide_emodel>  (48) 
-30.5576

>  <r_i_glide_energy>  (48) 
-27.7444

>  <r_i_glide_einternal>  (48) 
5.08893

>  <r_i_glide_intrahb_reward>  (48) 
-0

>  <i_i_glide_confnum>  (48) 
3

>  <i_i_glide_posenum>  (48) 
37

>  <r_i_glide_eff_state_penalty>  (48) 
0

>  <ligand_id>  (48) 
15

>  <original_smiles>  (48) 
CC(=O)OC1C(C)CC2CC(C)=CC3C4CC5CC(=O)C5C(=O)C4(O)C1(C)C3O2

>  <smiles>  (48) 
[H]OC12C(=O)C3=C([O-])C([H])([H])C3([H])C([H])([H])C1([H])C1([H])C([H])=C(C([H])([H])[H])C([H])([H])C3([H])OC1([H])C2(C([H])([H])[H])C([H])(OC(=O)C([H])([H])[H])C([H])(C([H])([H])[H])C3([H])[H]

$$$$
15:1:2
     RDKit          3D

 58 62  0  0  1  0  0  0  0  0999 V2000
    0.1741   -9.5605    6.8808 C   0  0  0  0  0  0  0  0  0  0  0  0
    0.5228   -8.2993    7.6739 C   0  0  0  0  0  0  0  0  0  0  0  0
    0.0822   -8.1271    8.8109 O   0  0  0  0  0  0  0  0  0  0  0  0
    1.3272   -7.3821    7.0577 O   0  0  0  0  0  0  0  0  0  0  0  0
    1.8007   -7.4814    5.7027 C   0  0  2  0  0  0  0  0  0  0  0  0
    3.3730   -7.5080    5.6500 C   0  0  1  0  0  0  0  0  0  0  0  0
    3.9735   -8.1066    6.9402 C   0  0  0  0  0  0  0  0  0  0  0  0
    3.8816   -8.3623    4.4604 C   0  0  0  0  0  0  0  0  0  0  0  0
    3.5459   -7.8983    3.0261 C   0  0  2  0  0  0  0  0  0  0  0  0
    4.5590   -6.9070    2.3614 C   0  0  0  0  0  0  0  0  0  0  0  0
    3.9742   -5.8015    1.4756 C   0  0  0  0  0  0  0  0  0  0  0  0
    4.5822   -5.6378    0.0981 C   0  0  0  0  0  0  0  0  0  0  0  0
    3.0222   -4.9674    1.9448 C   0  0  0  0  0  0  0  0  0  0  0  0
    2.4979   -5.1630    3.3379 C   0  0  1  0  0  0  0  0  0  0  0  0
    1.5358   -4.1578    3.9654 C   0  0  2  0  0  0  0  0  0  0  0  0
    2.0187   -2.7039    4.1755 C   0  0  0  0  0  0  0  0  0  0  0  0
    1.2033   -1.9432    5.2418 C   0  0  1  0  0  0  0  0  0  0  0  0
    0.1567   -0.8005    4.9378 C   0  0  0  0  0  0  0  0  0  0  0  0
   -0.8165   -1.6706    5.7389 C   0  0  0  0  0  0  0  0  0  0  0  0
   -2.1823   -1.5206    5.6670 O   0  0  0  0  0  0  0  0  0  0  0  0
   -0.0199   -2.7204    5.7031 C   0  0  0  0  0  0  0  0  0  0  0  0
   -0.1098   -4.1787    5.8754 C   0  0  0  0  0  0  0  0  0  0  0  0
   -0.9857   -4.7605    6.5143 O   0  0  0  0  0  0  0  0  0  0  0  0
    1.1080   -4.8963    5.2702 C   0  0  2  0  0  0  0  0  0  0  0  0
    2.1501   -4.7145    6.2121 O   0  0  0  0  0  0  0  0  0  0  0  0
    1.0232   -6.4302    4.8213 C   0  0  2  0  0  0  0  0  0  0  0  0
   -0.4374   -6.9335    4.6343 C   0  0  0  0  0  0  0  0  0  0  0  0
    1.6313   -6.4068    3.4010 C   0  0  2  0  0  0  0  0  0  0  0  0
    2.1587   -7.6197    2.8759 O   0  0  0  0  0  0  0  0  0  0  0  0
   -0.3498   -9.3189    5.9598 H   0  0  0  0  0  0  0  0  0  0  0  0
   -0.4823  -10.2250    7.4403 H   0  0  0  0  0  0  0  0  0  0  0  0
    1.0777  -10.1200    6.6462 H   0  0  0  0  0  0  0  0  0  0  0  0
    1.5400   -8.4441    5.2586 H   0  0  0  0  0  0  0  0  0  0  0  0
    3.8025   -6.5116    5.5802 H   0  0  0  0  0  0  0  0  0  0  0  0
    3.6258   -9.1269    7.1239 H   0  0  0  0  0  0  0  0  0  0  0  0
    3.7278   -7.5100    7.8219 H   0  0  0  0  0  0  0  0  0  0  0  0
    5.0614   -8.1415    6.8765 H   0  0  0  0  0  0  0  0  0  0  0  0
    4.9626   -8.4704    4.5320 H   0  0  0  0  0  0  0  0  0  0  0  0
    3.4945   -9.3775    4.5747 H   0  0  0  0  0  0  0  0  0  0  0  0
    3.6624   -8.7978    2.4194 H   0  0  0  0  0  0  0  0  0  0  0  0
    5.1803   -6.4291    3.1213 H   0  0  0  0  0  0  0  0  0  0  0  0
    5.2611   -7.4803    1.7550 H   0  0  0  0  0  0  0  0  0  0  0  0
    5.6544   -5.4647    0.1648 H   0  0  0  0  0  0  0  0  0  0  0  0
    4.1376   -4.7986   -0.4347 H   0  0  0  0  0  0  0  0  0  0  0  0
    4.4237   -6.5324   -0.4993 H   0  0  0  0  0  0  0  0  0  0  0  0
    2.6065   -4.1568    1.3676 H   0  0  0  0  0  0  0  0  0  0  0  0
    3.3661   -5.2312    3.9841 H   0  0  0  0  0  0  0  0  0  0  0  0
    0.6611   -4.0867    3.3174 H   0  0  0  0  0  0  0  0  0  0  0  0
    3.0714   -2.7046    4.4441 H   0  0  0  0  0  0  0  0  0  0  0  0
    1.9582   -2.1910    3.2245 H   0  0  0  0  0  0  0  0  0  0  0  0
    1.8114   -1.6421    6.0968 H   0  0  0  0  0  0  0  0  0  0  0  0
    0.4393    0.1469    5.3951 H   0  0  0  0  0  0  0  0  0  0  0  0
   -0.0065   -0.6303    3.8664 H   0  0  0  0  0  0  0  0  0  0  0  0
    2.9282   -5.1539    5.9049 H   0  0  0  0  0  0  0  0  0  0  0  0
   -1.0493   -6.2435    4.0483 H   0  0  0  0  0  0  0  0  0  0  0  0
   -0.9492   -7.0621    5.5877 H   0  0  0  0  0  0  0  0  0  0  0  0
   -0.4612   -7.9024    4.1227 H   0  0  0  0  0  0  0  0  0  0  0  0
    0.8079   -6.2258    2.7114 H   0  0  0  0  0  0  0  0  0  0  0  0
  1  2  1  0
  1 30  1  0
  1 31  1  0
  1 32  1  0
  2  3  2  0
  2  4  1  0
  4  5  1  0
  5 26  1  0
  5  6  1  0
  5 33  1  6
  6  7  1  0
  6  8  1  0
  6 34  1  6
  7 35  1  0
  7 36  1  0
  7 37  1  0
  8  9  1  0
  8 38  1  0
  8 39  1  0
  9 29  1  0
  9 10  1  0
  9 40  1  6
 10 11  1  0
 10 41  1  0
 10 42  1  0
 11 12  1  0
 11 13  2  0
 12 43  1  0
 12 44  1  0
 12 45  1  0
 13 14  1  0
 13 46  1  0
 14 28  1  0
 14 15  1  0
 14 47  1  1
 15 24  1  0
 15 16  1  0
 15 48  1  6
 16 17  1  0
 16 49  1  0
 16 50  1  0
 17 21  1  0
 17 18  1  0
 17 51  1  1
 18 19  1  0
 18 52  1  0
 18 53  1  0
 19 20  1  0
 19 21  2  0
 21 22  1  0
 22 23  2  0
 22 24  1  0
 24 25  1  1
 24 26  1  0
 25 54  1  0
 26 27  1  6
 26 28  1  0
 27 55  1  0
 27 56  1  0
 27 57  1  0
 28 29  1  0
 28 58  1  6
M  CHG  1  20  -1
M  END
>  <i_m_ct_stereo_status>  (49) 
1

>  <s_m_source_file>  (49) 
/var/tmp/pbs.5076255.sched01/tmp5ffkvrn0/0o5bi62ha.sdf

>  <i_m_source_file_index>  (49) 
23

>  <i_lp_mmshare_version>  (49) 
48012

>  <i_f3d_flags>  (49) 
0

>  <s_epik_input>  (49) 
W0NIM11DKD1bQ0hdMSlbQ0gyXVtDQEhdKE8yKVtDSDJdW0NASF0oW0NIM10pW0NAQEhdKE9DKD1PKVtDSDNdKVtDQF0zKFtDSDNdKVtDQEhdMltDQEBIXTFbQ0BASF0oW0NAXTM0W09IXSlbQ0gyXVtDQEBIXTVbQ0BASF0oQzQ9TylDKD1PKVtDSDJdNQ==

>  <s_epik_cmdline>  (49) 
J2VwaWtfcHl0aG9uJywgJy1waHQnLCAnMi4wJywgJy1waCcsICc3LjAnLCAnLXRuJywgJzgnLCAnLW1hJywgJzIwMCcsICctaW1hZScsICc8aW5maWxlLm1hZT4nLCAnLW9tYWUnLCAnPG91dGZpbGUubWFlPic=

>  <r_epik_Ionization_Penalty>  (49) 
0.0207684

>  <r_epik_Ionization_Penalty_Charging>  (49) 
0.0207683

>  <r_epik_Ionization_Penalty_Neutral>  (49) 
1.10031e-07

>  <r_epik_State_Penalty>  (49) 
1.98461

>  <r_epik_Charging_Adjusted_Penalty>  (49) 
2.00538

>  <i_epik_Tot_Q>  (49) 
-1

>  <i_epik_Tot_abs_Q>  (49) 
1

>  <s_epik_Chemistry_Notes>  (49) 
This compound has an ester and may undergo hydrolysis at high or low pH.

>  <s_lp_Force_Field>  (49) 
OPLS3e

>  <r_lp_Energy>  (49) 
66.7233

>  <b_lp_Chiralities_Consistent>  (49) 
1

>  <s_lp_Variant>  (49) 
15:0-2

>  <s_i_glide_gridfile>  (49) 
pfpi4k_grid

>  <i_i_glide_lignum>  (49) 
23

>  <i_i_glide_rotatable_bonds>  (49) 
3

>  <r_i_docking_score>  (49) 
-2.79077

>  <r_i_glide_ligand_efficiency>  (49) 
-0.0962336

>  <r_i_glide_ligand_efficiency_sa>  (49) 
-0.29566

>  <r_i_glide_ligand_efficiency_ln>  (49) 
-0.639016

>  <r_i_glide_gscore>  (49) 
-2.79077

>  <r_i_glide_lipo>  (49) 
-0.0691679

>  <r_i_glide_hbond>  (49) 
-0.0771673

>  <r_i_glide_metal>  (49) 
-0

>  <r_i_glide_rewards>  (49) 
-0.671777

>  <r_i_glide_evdw>  (49) 
-22.1826

>  <r_i_glide_ecoul>  (49) 
-6.29192

>  <r_i_glide_erotb>  (49) 
0.121692

>  <r_i_glide_esite>  (49) 
-0.0414368

>  <r_i_glide_emodel>  (49) 
-31.0632

>  <r_i_glide_energy>  (49) 
-28.4745

>  <r_i_glide_einternal>  (49) 
4.98119

>  <r_i_glide_intrahb_reward>  (49) 
-0

>  <i_i_glide_confnum>  (49) 
3

>  <i_i_glide_posenum>  (49) 
25

>  <r_i_glide_eff_state_penalty>  (49) 
0

>  <ligand_id>  (49) 
15

>  <original_smiles>  (49) 
CC(=O)OC1C(C)CC2CC(C)=CC3C4CC5CC(=O)C5C(=O)C4(O)C1(C)C3O2

>  <smiles>  (49) 
[H]OC12C(=O)C3=C([O-])C([H])([H])C3([H])C([H])([H])C1([H])C1([H])C([H])=C(C([H])([H])[H])C([H])([H])C3([H])OC1([H])C2(C([H])([H])[H])C([H])(OC(=O)C([H])([H])[H])C([H])(C([H])([H])[H])C3([H])[H]

$$$$
17:0:0
     RDKit          3D

 42 46  0  0  1  0  0  0  0  0999 V2000
    1.9700    1.7927    8.0392 C   0  0  0  0  0  0  0  0  0  0  0  0
    2.4801    2.9336    7.2372 N   0  0  2  0  0  0  0  0  0  0  0  0
    1.7465    4.2048    7.5600 C   0  0  0  0  0  0  0  0  0  0  0  0
    0.5445    4.4872    6.6199 C   0  0  0  0  0  0  0  0  0  0  0  0
    0.9730    4.2853    5.1428 C   0  0  2  0  0  0  0  0  0  0  0  0
    2.0846    5.2371    4.8785 C   0  0  0  0  0  0  0  0  0  0  0  0
    3.4484    4.9780    5.0079 C   0  0  0  0  0  0  0  0  0  0  0  0
    4.2996    6.0969    4.8619 C   0  0  0  0  0  0  0  0  0  0  0  0
    3.7201    7.3673    4.6003 C   0  0  0  0  0  0  0  0  0  0  0  0
    2.3201    7.5302    4.4089 C   0  0  0  0  0  0  0  0  0  0  0  0
    1.8189    8.7516    4.0787 O   0  0  0  0  0  0  0  0  0  0  0  0
    1.4626    6.4137    4.5196 C   0  0  0  0  0  0  0  0  0  0  0  0
    0.1095    6.2372    4.2893 O   0  0  0  0  0  0  0  0  0  0  0  0
    0.0672    4.8240    4.0312 C   0  0  2  0  0  0  0  0  0  0  0  0
   -1.1577    3.9366    3.8519 C   0  0  1  0  0  0  0  0  0  0  0  0
   -2.0208    4.5063    2.8817 O   0  0  0  0  0  0  0  0  0  0  0  0
   -0.6001    2.5602    3.3589 C   0  0  0  0  0  0  0  0  0  0  0  0
   -1.2976    1.7801    2.7190 O   0  0  0  0  0  0  0  0  0  0  0  0
    0.8799    2.1941    3.6993 C   0  0  0  0  0  0  0  0  0  0  0  0
    1.2736    2.7973    5.0667 C   0  0  1  0  0  0  0  0  0  0  0  0
    2.6470    2.6183    5.7688 C   0  0  1  0  0  0  0  0  0  0  0  0
    3.7773    3.4995    5.1672 C   0  0  0  0  0  0  0  0  0  0  0  0
    0.9191    1.6068    7.8187 H   0  0  0  0  0  0  0  0  0  0  0  0
    2.0478    2.0080    9.1066 H   0  0  0  0  0  0  0  0  0  0  0  0
    2.5355    0.8811    7.8434 H   0  0  0  0  0  0  0  0  0  0  0  0
    1.4238    4.1967    8.5978 H   0  0  0  0  0  0  0  0  0  0  0  0
    2.4497    5.0291    7.5136 H   0  0  0  0  0  0  0  0  0  0  0  0
   -0.2858    3.8376    6.8914 H   0  0  0  0  0  0  0  0  0  0  0  0
    0.1827    5.4969    6.8107 H   0  0  0  0  0  0  0  0  0  0  0  0
    5.3750    5.9771    4.9353 H   0  0  0  0  0  0  0  0  0  0  0  0
    4.3689    8.2233    4.5060 H   0  0  0  0  0  0  0  0  0  0  0  0
    1.0875    8.6793    3.4508 H   0  0  0  0  0  0  0  0  0  0  0  0
    0.5857    4.7430    3.0636 H   0  0  0  0  0  0  0  0  0  0  0  0
   -1.7027    3.8005    4.7876 H   0  0  0  0  0  0  0  0  0  0  0  0
   -1.5452    4.5304    2.0547 H   0  0  0  0  0  0  0  0  0  0  0  0
    0.9713    1.1083    3.7188 H   0  0  0  0  0  0  0  0  0  0  0  0
    1.5332    2.5506    2.9020 H   0  0  0  0  0  0  0  0  0  0  0  0
    0.5646    2.2576    5.6971 H   0  0  0  0  0  0  0  0  0  0  0  0
    2.9659    1.5837    5.6910 H   0  0  0  0  0  0  0  0  0  0  0  0
    4.0087    3.1070    4.1783 H   0  0  0  0  0  0  0  0  0  0  0  0
    4.6932    3.3962    5.7477 H   0  0  0  0  0  0  0  0  0  0  0  0
    3.4174    3.0729    7.5907 H   0  0  0  0  0  0  0  0  0  0  0  0
  1  2  1  0
  1 23  1  0
  1 24  1  0
  1 25  1  0
  2 21  1  0
  2  3  1  0
  2 42  1  1
  3  4  1  0
  3 26  1  0
  3 27  1  0
  5  4  1  1
  4 28  1  0
  4 29  1  0
  5 14  1  0
  5 20  1  0
  5  6  1  0
  6 12  2  0
  6  7  1  0
  7 22  1  0
  7  8  2  0
  8  9  1  0
  8 30  1  0
  9 10  2  0
  9 31  1  0
 10 11  1  0
 10 12  1  0
 11 32  1  0
 12 13  1  0
 13 14  1  0
 14 15  1  0
 14 33  1  6
 15 16  1  0
 15 17  1  0
 15 34  1  1
 16 35  1  0
 17 18  2  0
 17 19  1  0
 19 20  1  0
 19 36  1  0
 19 37  1  0
 20 21  1  0
 20 38  1  1
 21 22  1  0
 21 39  1  1
 22 40  1  0
 22 41  1  0
M  CHG  1   2   1
M  END
>  <i_m_ct_stereo_status>  (50) 
1

>  <s_m_source_file>  (50) 
/var/tmp/pbs.5076255.sched01/tmp5ffkvrn0/0o5bi62ha.sdf

>  <i_m_source_file_index>  (50) 
25

>  <i_lp_mmshare_version>  (50) 
48012

>  <i_f3d_flags>  (50) 
0

>  <s_epik_input>  (50) 
W0NIMl0xW0NIMl1OKFtDSDNdKVtDQEhdKFtDSDJdMilbQ0BASF0zW0NIMl1DKD1PKVtDQEhdKFtPSF0pW0NASF00T2M1YyhbT0hdKVtjSF1bY0hdYzJjNVtDQF0xMzQ=

>  <s_epik_cmdline>  (50) 
J2VwaWtfcHl0aG9uJywgJy1waHQnLCAnMi4wJywgJy1waCcsICc3LjAnLCAnLXRuJywgJzgnLCAnLW1hJywgJzIwMCcsICctaW1hZScsICc8aW5maWxlLm1hZT4nLCAnLW9tYWUnLCAnPG91dGZpbGUubWFlPic=

>  <r_lp_tautomer_probability>  (50) 
0.99995

>  <r_epik_Ionization_Penalty>  (50) 
0.0931616

>  <r_epik_Ionization_Penalty_Charging>  (50) 
0.0735303

>  <r_epik_Ionization_Penalty_Neutral>  (50) 
0.0196313

>  <r_epik_State_Penalty>  (50) 
0.108051

>  <r_epik_Charging_Adjusted_Penalty>  (50) 
0.181582

>  <i_epik_Tot_Q>  (50) 
1

>  <i_epik_Tot_abs_Q>  (50) 
1

>  <s_lp_Force_Field>  (50) 
OPLS3e

>  <r_lp_Energy>  (50) 
84.7414

>  <b_lp_Chiralities_Consistent>  (50) 
1

>  <s_lp_Variant>  (50) 
17:0-1

>  <s_i_glide_gridfile>  (50) 
pfpi4k_grid

>  <i_i_glide_lignum>  (50) 
25

>  <i_i_glide_rotatable_bonds>  (50) 
2

>  <r_i_docking_score>  (50) 
-3.62736

>  <r_i_glide_ligand_efficiency>  (50) 
-0.16488

>  <r_i_glide_ligand_efficiency_sa>  (50) 
-0.462001

>  <r_i_glide_ligand_efficiency_ln>  (50) 
-0.88666

>  <r_i_glide_gscore>  (50) 
-3.62736

>  <r_i_glide_lipo>  (50) 
-0.0111215

>  <r_i_glide_hbond>  (50) 
0

>  <r_i_glide_metal>  (50) 
-0

>  <r_i_glide_rewards>  (50) 
-1.34765

>  <r_i_glide_evdw>  (50) 
-14.2909

>  <r_i_glide_ecoul>  (50) 
-9.96938

>  <r_i_glide_erotb>  (50) 
0

>  <r_i_glide_esite>  (50) 
-0.0586449

>  <r_i_glide_emodel>  (50) 
-28.8262

>  <r_i_glide_energy>  (50) 
-24.2602

>  <r_i_glide_einternal>  (50) 
2.64768

>  <r_i_glide_intrahb_reward>  (50) 
-0

>  <i_i_glide_confnum>  (50) 
1

>  <i_i_glide_posenum>  (50) 
29

>  <r_i_glide_eff_state_penalty>  (50) 
0

>  <ligand_id>  (50) 
17

>  <original_smiles>  (50) 
CN1CCC23c4c5ccc(O)c4OC2C(O)C(=O)CC3C1C5

>  <smiles>  (50) 
[H]Oc1c([H])c([H])c2c3c1OC1([H])C([H])(O[H])C(=O)C([H])([H])C4([H])C31C([H])([H])C([H])([H])[N+]([H])(C([H])([H])[H])C4([H])C2([H])[H]

$$$$
17:0:1
     RDKit          3D

 42 46  0  0  1  0  0  0  0  0999 V2000
    1.0644    2.7600    9.1516 C   0  0  0  0  0  0  0  0  0  0  0  0
    1.8040    3.6369    8.2094 N   0  0  2  0  0  0  0  0  0  0  0  0
    1.1568    4.9886    8.0954 C   0  0  0  0  0  0  0  0  0  0  0  0
    0.1472    5.1002    6.9212 C   0  0  0  0  0  0  0  0  0  0  0  0
    0.7798    4.5186    5.6296 C   0  0  2  0  0  0  0  0  0  0  0  0
    2.0054    5.3093    5.3493 C   0  0  0  0  0  0  0  0  0  0  0  0
    3.3035    5.0087    5.7654 C   0  0  0  0  0  0  0  0  0  0  0  0
    4.2692    6.0050    5.5102 C   0  0  0  0  0  0  0  0  0  0  0  0
    3.8664    7.2015    4.8586 C   0  0  0  0  0  0  0  0  0  0  0  0
    2.5343    7.3931    4.3819 C   0  0  0  0  0  0  0  0  0  0  0  0
    2.2128    8.5159    3.6778 O   0  0  0  0  0  0  0  0  0  0  0  0
    1.5651    6.3948    4.6191 C   0  0  0  0  0  0  0  0  0  0  0  0
    0.2542    6.2463    4.2019 O   0  0  0  0  0  0  0  0  0  0  0  0
    0.1175    4.8196    4.2814 C   0  0  2  0  0  0  0  0  0  0  0  0
   -1.1426    3.9893    4.0925 C   0  0  1  0  0  0  0  0  0  0  0  0
   -1.7870    4.3720    2.8827 O   0  0  0  0  0  0  0  0  0  0  0  0
   -0.6524    2.5044    4.0377 C   0  0  0  0  0  0  0  0  0  0  0  0
   -1.3164    1.6318    3.4867 O   0  0  0  0  0  0  0  0  0  0  0  0
    0.7084    2.1448    4.7148 C   0  0  0  0  0  0  0  0  0  0  0  0
    0.9411    3.0410    5.9536 C   0  0  1  0  0  0  0  0  0  0  0  0
    2.1645    2.9601    6.9070 C   0  0  1  0  0  0  0  0  0  0  0  0
    3.4563    3.5967    6.3215 C   0  0  0  0  0  0  0  0  0  0  0  0
    0.0480    2.5868    8.8006 H   0  0  0  0  0  0  0  0  0  0  0  0
    0.9954    3.2246   10.1364 H   0  0  0  0  0  0  0  0  0  0  0  0
    1.5602    1.7975    9.2748 H   0  0  0  0  0  0  0  0  0  0  0  0
    0.6779    5.2553    9.0337 H   0  0  0  0  0  0  0  0  0  0  0  0
    1.9355    5.7353    7.9817 H   0  0  0  0  0  0  0  0  0  0  0  0
   -0.7753    4.5865    7.1875 H   0  0  0  0  0  0  0  0  0  0  0  0
   -0.1399    6.1453    6.8035 H   0  0  0  0  0  0  0  0  0  0  0  0
    5.3038    5.8438    5.8019 H   0  0  0  0  0  0  0  0  0  0  0  0
    4.6051    7.9690    4.6891 H   0  0  0  0  0  0  0  0  0  0  0  0
    1.3492    8.4996    3.2361 H   0  0  0  0  0  0  0  0  0  0  0  0
    0.7648    4.4735    3.4608 H   0  0  0  0  0  0  0  0  0  0  0  0
   -1.8409    4.1113    4.9231 H   0  0  0  0  0  0  0  0  0  0  0  0
   -1.1459    4.3281    2.1648 H   0  0  0  0  0  0  0  0  0  0  0  0
    0.6842    1.0940    5.0021 H   0  0  0  0  0  0  0  0  0  0  0  0
    1.5106    2.2541    3.9850 H   0  0  0  0  0  0  0  0  0  0  0  0
    0.0939    2.7124    6.5581 H   0  0  0  0  0  0  0  0  0  0  0  0
    2.3887    1.9218    7.1288 H   0  0  0  0  0  0  0  0  0  0  0  0
    3.8079    2.9638    5.5069 H   0  0  0  0  0  0  0  0  0  0  0  0
    4.2568    3.5915    7.0601 H   0  0  0  0  0  0  0  0  0  0  0  0
    2.6825    3.8038    8.6799 H   0  0  0  0  0  0  0  0  0  0  0  0
  1  2  1  0
  1 23  1  0
  1 24  1  0
  1 25  1  0
  2 21  1  0
  2  3  1  0
  2 42  1  1
  3  4  1  0
  3 26  1  0
  3 27  1  0
  5  4  1  1
  4 28  1  0
  4 29  1  0
  5 14  1  0
  5 20  1  0
  5  6  1  0
  6 12  2  0
  6  7  1  0
  7 22  1  0
  7  8  2  0
  8  9  1  0
  8 30  1  0
  9 10  2  0
  9 31  1  0
 10 11  1  0
 10 12  1  0
 11 32  1  0
 12 13  1  0
 13 14  1  0
 14 15  1  0
 14 33  1  6
 15 16  1  0
 15 17  1  0
 15 34  1  1
 16 35  1  0
 17 18  2  0
 17 19  1  0
 19 20  1  0
 19 36  1  0
 19 37  1  0
 20 21  1  0
 20 38  1  1
 21 22  1  0
 21 39  1  1
 22 40  1  0
 22 41  1  0
M  CHG  1   2   1
M  END
>  <i_m_ct_stereo_status>  (51) 
1

>  <s_m_source_file>  (51) 
/var/tmp/pbs.5076255.sched01/tmp5ffkvrn0/0o5bi62ha.sdf

>  <i_m_source_file_index>  (51) 
25

>  <i_lp_mmshare_version>  (51) 
48012

>  <i_f3d_flags>  (51) 
0

>  <s_epik_input>  (51) 
W0NIMl0xW0NIMl1OKFtDSDNdKVtDQEhdKFtDSDJdMilbQ0BASF0zW0NIMl1DKD1PKVtDQEhdKFtPSF0pW0NASF00T2M1YyhbT0hdKVtjSF1bY0hdYzJjNVtDQF0xMzQ=

>  <s_epik_cmdline>  (51) 
J2VwaWtfcHl0aG9uJywgJy1waHQnLCAnMi4wJywgJy1waCcsICc3LjAnLCAnLXRuJywgJzgnLCAnLW1hJywgJzIwMCcsICctaW1hZScsICc8aW5maWxlLm1hZT4nLCAnLW9tYWUnLCAnPG91dGZpbGUubWFlPic=

>  <r_lp_tautomer_probability>  (51) 
0.99995

>  <r_epik_Ionization_Penalty>  (51) 
0.0931616

>  <r_epik_Ionization_Penalty_Charging>  (51) 
0.0735303

>  <r_epik_Ionization_Penalty_Neutral>  (51) 
0.0196313

>  <r_epik_State_Penalty>  (51) 
0.108051

>  <r_epik_Charging_Adjusted_Penalty>  (51) 
0.181582

>  <i_epik_Tot_Q>  (51) 
1

>  <i_epik_Tot_abs_Q>  (51) 
1

>  <s_lp_Force_Field>  (51) 
OPLS3e

>  <r_lp_Energy>  (51) 
84.7414

>  <b_lp_Chiralities_Consistent>  (51) 
1

>  <s_lp_Variant>  (51) 
17:0-1

>  <s_i_glide_gridfile>  (51) 
pfpi4k_grid

>  <i_i_glide_lignum>  (51) 
25

>  <i_i_glide_rotatable_bonds>  (51) 
2

>  <r_i_docking_score>  (51) 
-3.38126

>  <r_i_glide_ligand_efficiency>  (51) 
-0.153694

>  <r_i_glide_ligand_efficiency_sa>  (51) 
-0.430656

>  <r_i_glide_ligand_efficiency_ln>  (51) 
-0.826504

>  <r_i_glide_gscore>  (51) 
-3.38126

>  <r_i_glide_lipo>  (51) 
-0.0103254

>  <r_i_glide_hbond>  (51) 
0

>  <r_i_glide_metal>  (51) 
-0

>  <r_i_glide_rewards>  (51) 
-1.34765

>  <r_i_glide_evdw>  (51) 
-12.7012

>  <r_i_glide_ecoul>  (51) 
-9.03635

>  <r_i_glide_erotb>  (51) 
0

>  <r_i_glide_esite>  (51) 
-0.0327765

>  <r_i_glide_emodel>  (51) 
-26.9157

>  <r_i_glide_energy>  (51) 
-21.7375

>  <r_i_glide_einternal>  (51) 
1.57895

>  <r_i_glide_intrahb_reward>  (51) 
-0

>  <i_i_glide_confnum>  (51) 
1

>  <i_i_glide_posenum>  (51) 
21

>  <r_i_glide_eff_state_penalty>  (51) 
0

>  <ligand_id>  (51) 
17

>  <original_smiles>  (51) 
CN1CCC23c4c5ccc(O)c4OC2C(O)C(=O)CC3C1C5

>  <smiles>  (51) 
[H]Oc1c([H])c([H])c2c3c1OC1([H])C([H])(O[H])C(=O)C([H])([H])C4([H])C31C([H])([H])C([H])([H])[N+]([H])(C([H])([H])[H])C4([H])C2([H])[H]

$$$$
17:0:2
     RDKit          3D

 42 46  0  0  1  0  0  0  0  0999 V2000
    8.5589   -3.2489   -0.4164 C   0  0  0  0  0  0  0  0  0  0  0  0
    7.4832   -3.0289    0.5846 N   0  0  2  0  0  0  0  0  0  0  0  0
    6.6766   -4.2730    0.8226 C   0  0  0  0  0  0  0  0  0  0  0  0
    5.4034   -4.3700   -0.0582 C   0  0  0  0  0  0  0  0  0  0  0  0
    4.6359   -3.0185   -0.0129 C   0  0  2  0  0  0  0  0  0  0  0  0
    4.2770   -2.7642    1.4060 C   0  0  0  0  0  0  0  0  0  0  0  0
    5.0116   -2.0327    2.3356 C   0  0  0  0  0  0  0  0  0  0  0  0
    4.5348   -2.0788    3.6605 C   0  0  0  0  0  0  0  0  0  0  0  0
    3.3630   -2.8350    3.9495 C   0  0  0  0  0  0  0  0  0  0  0  0
    2.6222   -3.4919    2.9276 C   0  0  0  0  0  0  0  0  0  0  0  0
    1.4722   -4.1574    3.2345 O   0  0  0  0  0  0  0  0  0  0  0  0
    3.0778   -3.4357    1.5938 C   0  0  0  0  0  0  0  0  0  0  0  0
    2.5395   -3.8667    0.3967 O   0  0  0  0  0  0  0  0  0  0  0  0
    3.1952   -2.9853   -0.5339 C   0  0  2  0  0  0  0  0  0  0  0  0
    3.1697   -3.0107   -2.0631 C   0  0  1  0  0  0  0  0  0  0  0  0
    1.8296   -3.0459   -2.5055 O   0  0  0  0  0  0  0  0  0  0  0  0
    3.8591   -1.6802   -2.5122 C   0  0  0  0  0  0  0  0  0  0  0  0
    3.6390   -1.1815   -3.6179 O   0  0  0  0  0  0  0  0  0  0  0  0
    4.8486   -0.9825   -1.5276 C   0  0  0  0  0  0  0  0  0  0  0  0
    5.5939   -2.0461   -0.6909 C   0  0  1  0  0  0  0  0  0  0  0  0
    6.6920   -1.7631    0.3666 C   0  0  1  0  0  0  0  0  0  0  0  0
    6.1400   -1.2157    1.7105 C   0  0  0  0  0  0  0  0  0  0  0  0
    8.1461   -3.5189   -1.3876 H   0  0  0  0  0  0  0  0  0  0  0  0
    9.2056   -4.0636   -0.0902 H   0  0  0  0  0  0  0  0  0  0  0  0
    9.1782   -2.3582   -0.5323 H   0  0  0  0  0  0  0  0  0  0  0  0
    7.2988   -5.1580    0.6840 H   0  0  0  0  0  0  0  0  0  0  0  0
    6.3943   -4.3023    1.8765 H   0  0  0  0  0  0  0  0  0  0  0  0
    5.6786   -4.6280   -1.0849 H   0  0  0  0  0  0  0  0  0  0  0  0
    4.7875   -5.1974    0.2914 H   0  0  0  0  0  0  0  0  0  0  0  0
    5.0495   -1.5361    4.4429 H   0  0  0  0  0  0  0  0  0  0  0  0
    3.0249   -2.8813    4.9701 H   0  0  0  0  0  0  0  0  0  0  0  0
    1.2815   -4.1429    4.1589 H   0  0  0  0  0  0  0  0  0  0  0  0
    2.7507   -2.0085   -0.2940 H   0  0  0  0  0  0  0  0  0  0  0  0
    3.7101   -3.8647   -2.4658 H   0  0  0  0  0  0  0  0  0  0  0  0
    1.3603   -2.3362   -2.0862 H   0  0  0  0  0  0  0  0  0  0  0  0
    5.5475   -0.3921   -2.1164 H   0  0  0  0  0  0  0  0  0  0  0  0
    4.3059   -0.2854   -0.8875 H   0  0  0  0  0  0  0  0  0  0  0  0
    6.1069   -2.5665   -1.5035 H   0  0  0  0  0  0  0  0  0  0  0  0
    7.3910   -1.0143    0.0078 H   0  0  0  0  0  0  0  0  0  0  0  0
    5.7470   -0.2204    1.5271 H   0  0  0  0  0  0  0  0  0  0  0  0
    6.9402   -1.0701    2.4343 H   0  0  0  0  0  0  0  0  0  0  0  0
    7.9815   -2.8791    1.4521 H   0  0  0  0  0  0  0  0  0  0  0  0
  1  2  1  0
  1 23  1  0
  1 24  1  0
  1 25  1  0
  2 21  1  0
  2  3  1  0
  2 42  1  1
  3  4  1  0
  3 26  1  0
  3 27  1  0
  5  4  1  1
  4 28  1  0
  4 29  1  0
  5 14  1  0
  5 20  1  0
  5  6  1  0
  6 12  2  0
  6  7  1  0
  7 22  1  0
  7  8  2  0
  8  9  1  0
  8 30  1  0
  9 10  2  0
  9 31  1  0
 10 11  1  0
 10 12  1  0
 11 32  1  0
 12 13  1  0
 13 14  1  0
 14 15  1  0
 14 33  1  1
 15 16  1  0
 15 17  1  0
 15 34  1  6
 16 35  1  0
 17 18  2  0
 17 19  1  0
 19 20  1  0
 19 36  1  0
 19 37  1  0
 20 21  1  0
 20 38  1  6
 21 22  1  0
 21 39  1  6
 22 40  1  0
 22 41  1  0
M  CHG  1   2   1
M  END
>  <i_m_ct_stereo_status>  (52) 
1

>  <s_m_source_file>  (52) 
/var/tmp/pbs.5076255.sched01/tmp5ffkvrn0/0o5bi62ha.sdf

>  <i_m_source_file_index>  (52) 
25

>  <i_lp_mmshare_version>  (52) 
48012

>  <i_f3d_flags>  (52) 
0

>  <s_epik_input>  (52) 
W0NIMl0xW0NIMl1OKFtDSDNdKVtDQEhdKFtDSDJdMilbQ0BASF0zW0NIMl1DKD1PKVtDQEhdKFtPSF0pW0NASF00T2M1YyhbT0hdKVtjSF1bY0hdYzJjNVtDQF0xMzQ=

>  <s_epik_cmdline>  (52) 
J2VwaWtfcHl0aG9uJywgJy1waHQnLCAnMi4wJywgJy1waCcsICc3LjAnLCAnLXRuJywgJzgnLCAnLW1hJywgJzIwMCcsICctaW1hZScsICc8aW5maWxlLm1hZT4nLCAnLW9tYWUnLCAnPG91dGZpbGUubWFlPic=

>  <r_lp_tautomer_probability>  (52) 
0.99995

>  <r_epik_Ionization_Penalty>  (52) 
0.0931616

>  <r_epik_Ionization_Penalty_Charging>  (52) 
0.0735303

>  <r_epik_Ionization_Penalty_Neutral>  (52) 
0.0196313

>  <r_epik_State_Penalty>  (52) 
0.108051

>  <r_epik_Charging_Adjusted_Penalty>  (52) 
0.181582

>  <i_epik_Tot_Q>  (52) 
1

>  <i_epik_Tot_abs_Q>  (52) 
1

>  <s_lp_Force_Field>  (52) 
OPLS3e

>  <r_lp_Energy>  (52) 
84.7414

>  <b_lp_Chiralities_Consistent>  (52) 
1

>  <s_lp_Variant>  (52) 
17:0-1

>  <s_i_glide_gridfile>  (52) 
pfpi4k_grid

>  <i_i_glide_lignum>  (52) 
25

>  <i_i_glide_rotatable_bonds>  (52) 
2

>  <r_i_docking_score>  (52) 
-3.17137

>  <r_i_glide_ligand_efficiency>  (52) 
-0.144153

>  <r_i_glide_ligand_efficiency_sa>  (52) 
-0.403923

>  <r_i_glide_ligand_efficiency_ln>  (52) 
-0.775199

>  <r_i_glide_gscore>  (52) 
-3.17137

>  <r_i_glide_lipo>  (52) 
-0.47783

>  <r_i_glide_hbond>  (52) 
0

>  <r_i_glide_metal>  (52) 
-0

>  <r_i_glide_rewards>  (52) 
-1.34765

>  <r_i_glide_evdw>  (52) 
-22.8757

>  <r_i_glide_ecoul>  (52) 
-1.13563

>  <r_i_glide_erotb>  (52) 
0

>  <r_i_glide_esite>  (52) 
-0.0317662

>  <r_i_glide_emodel>  (52) 
-29.034

>  <r_i_glide_energy>  (52) 
-24.0113

>  <r_i_glide_einternal>  (52) 
1.35239

>  <r_i_glide_intrahb_reward>  (52) 
-0

>  <i_i_glide_confnum>  (52) 
2

>  <i_i_glide_posenum>  (52) 
2

>  <r_i_glide_eff_state_penalty>  (52) 
0

>  <ligand_id>  (52) 
17

>  <original_smiles>  (52) 
CN1CCC23c4c5ccc(O)c4OC2C(O)C(=O)CC3C1C5

>  <smiles>  (52) 
[H]Oc1c([H])c([H])c2c3c1OC1([H])C([H])(O[H])C(=O)C([H])([H])C4([H])C31C([H])([H])C([H])([H])[N+]([H])(C([H])([H])[H])C4([H])C2([H])[H]

$$$$
17:1:0
     RDKit          3D

 41 45  0  0  1  0  0  0  0  0999 V2000
    3.4007   -3.2054   -3.3966 C   0  0  0  0  0  0  0  0  0  0  0  0
    3.1554   -2.7781   -2.0280 N   0  0  0  0  0  0  0  0  0  0  0  0
    3.3673   -1.3289   -1.8561 C   0  0  0  0  0  0  0  0  0  0  0  0
    4.7544   -0.9529   -1.2835 C   0  0  0  0  0  0  0  0  0  0  0  0
    5.1067   -1.8785   -0.0872 C   0  0  2  0  0  0  0  0  0  0  0  0
    4.0735   -1.6508    0.9630 C   0  0  0  0  0  0  0  0  0  0  0  0
    2.9101   -2.3908    1.1486 C   0  0  0  0  0  0  0  0  0  0  0  0
    2.0530   -1.9266    2.1705 C   0  0  0  0  0  0  0  0  0  0  0  0
    2.4313   -0.7761    2.9212 C   0  0  0  0  0  0  0  0  0  0  0  0
    3.6777   -0.1252    2.7168 C   0  0  0  0  0  0  0  0  0  0  0  0
    3.9931    0.9302    3.5056 O   0  0  0  0  0  0  0  0  0  0  0  0
    4.5486   -0.5872    1.7016 C   0  0  0  0  0  0  0  0  0  0  0  0
    5.8574   -0.2694    1.3671 O   0  0  0  0  0  0  0  0  0  0  0  0
    6.3098   -1.5257    0.8090 C   0  0  2  0  0  0  0  0  0  0  0  0
    7.6194   -1.8716    0.0892 C   0  0  1  0  0  0  0  0  0  0  0  0
    8.7589   -1.3990    0.7597 O   0  0  0  0  0  0  0  0  0  0  0  0
    7.6339   -3.4192   -0.0663 C   0  0  0  0  0  0  0  0  0  0  0  0
    8.6843   -4.0495   -0.1988 O   0  0  0  0  0  0  0  0  0  0  0  0
    6.2492   -4.1437   -0.1008 C   0  0  0  0  0  0  0  0  0  0  0  0
    5.1981   -3.2376   -0.7595 C   0  0  1  0  0  0  0  0  0  0  0  0
    3.7512   -3.6550   -1.0032 C   0  0  1  0  0  0  0  0  0  0  0  0
    2.8450   -3.6306    0.2510 C   0  0  0  0  0  0  0  0  0  0  0  0
    2.8106   -2.6028   -4.0966 H   0  0  0  0  0  0  0  0  0  0  0  0
    3.0920   -4.2411   -3.5379 H   0  0  0  0  0  0  0  0  0  0  0  0
    4.4569   -3.1188   -3.6611 H   0  0  0  0  0  0  0  0  0  0  0  0
    3.1686   -0.7893   -2.7822 H   0  0  0  0  0  0  0  0  0  0  0  0
    2.6262   -0.9578   -1.1545 H   0  0  0  0  0  0  0  0  0  0  0  0
    5.5067   -1.0041   -2.0747 H   0  0  0  0  0  0  0  0  0  0  0  0
    4.7000    0.0869   -0.9648 H   0  0  0  0  0  0  0  0  0  0  0  0
    1.1167   -2.4227    2.3773 H   0  0  0  0  0  0  0  0  0  0  0  0
    1.7594   -0.3877    3.6731 H   0  0  0  0  0  0  0  0  0  0  0  0
    4.5293    1.5742    3.0474 H   0  0  0  0  0  0  0  0  0  0  0  0
    6.3106   -2.1976    1.6831 H   0  0  0  0  0  0  0  0  0  0  0  0
    7.6242   -1.4809   -0.9106 H   0  0  0  0  0  0  0  0  0  0  0  0
    8.6012   -0.5087    1.0608 H   0  0  0  0  0  0  0  0  0  0  0  0
    6.2997   -5.0542   -0.6882 H   0  0  0  0  0  0  0  0  0  0  0  0
    5.9667   -4.4373    0.9111 H   0  0  0  0  0  0  0  0  0  0  0  0
    5.6318   -3.1242   -1.7560 H   0  0  0  0  0  0  0  0  0  0  0  0
    3.7251   -4.6575   -1.3879 H   0  0  0  0  0  0  0  0  0  0  0  0
    3.0912   -4.4754    0.8880 H   0  0  0  0  0  0  0  0  0  0  0  0
    1.8218   -3.7762   -0.0629 H   0  0  0  0  0  0  0  0  0  0  0  0
  1  2  1  0
  1 23  1  0
  1 24  1  0
  1 25  1  0
  2 21  1  0
  2  3  1  0
  3  4  1  0
  3 26  1  0
  3 27  1  0
  5  4  1  6
  4 28  1  0
  4 29  1  0
  5 14  1  0
  5 20  1  0
  5  6  1  0
  6 12  2  0
  6  7  1  0
  7 22  1  0
  7  8  2  0
  8  9  1  0
  8 30  1  0
  9 10  2  0
  9 31  1  0
 10 11  1  0
 10 12  1  0
 11 32  1  0
 12 13  1  0
 13 14  1  0
 14 15  1  0
 14 33  1  1
 15 16  1  0
 15 17  1  0
 15 34  1  6
 16 35  1  0
 17 18  2  0
 17 19  1  0
 19 20  1  0
 19 36  1  0
 19 37  1  0
 20 21  1  0
 20 38  1  6
 21 22  1  0
 21 39  1  6
 22 40  1  0
 22 41  1  0
M  END
>  <i_m_ct_stereo_status>  (53) 
1

>  <s_m_source_file>  (53) 
/var/tmp/pbs.5076255.sched01/tmp5ffkvrn0/0o5bi62ha.sdf

>  <i_m_source_file_index>  (53) 
26

>  <i_lp_mmshare_version>  (53) 
48012

>  <i_f3d_flags>  (53) 
0

>  <s_epik_input>  (53) 
W0NIMl0xW0NIMl1OKFtDSDNdKVtDQEhdKFtDSDJdMilbQ0BASF0zW0NIMl1DKD1PKVtDQEhdKFtPSF0pW0NASF00T2M1YyhbT0hdKVtjSF1bY0hdYzJjNVtDQF0xMzQ=

>  <s_epik_cmdline>  (53) 
J2VwaWtfcHl0aG9uJywgJy1waHQnLCAnMi4wJywgJy1waCcsICc3LjAnLCAnLXRuJywgJzgnLCAnLW1hJywgJzIwMCcsICctaW1hZScsICc8aW5maWxlLm1hZT4nLCAnLW9tYWUnLCAnPG91dGZpbGUubWFlPic=

>  <r_lp_tautomer_probability>  (53) 
0.99995

>  <r_epik_Ionization_Penalty>  (53) 
1.2759

>  <r_epik_Ionization_Penalty_Charging>  (53) 
0

>  <r_epik_Ionization_Penalty_Neutral>  (53) 
1.2759

>  <r_epik_State_Penalty>  (53) 
1.11751

>  <r_epik_Charging_Adjusted_Penalty>  (53) 
1.11751

>  <i_epik_Tot_Q>  (53) 
0

>  <i_epik_Tot_abs_Q>  (53) 
0

>  <s_lp_Force_Field>  (53) 
OPLS3e

>  <r_lp_Energy>  (53) 
81.6668

>  <b_lp_Chiralities_Consistent>  (53) 
1

>  <s_lp_Variant>  (53) 
17:0-2

>  <s_i_glide_gridfile>  (53) 
pfpi4k_grid

>  <i_i_glide_lignum>  (53) 
26

>  <i_i_glide_rotatable_bonds>  (53) 
2

>  <r_i_docking_score>  (53) 
-3.66512

>  <r_i_glide_ligand_efficiency>  (53) 
-0.166596

>  <r_i_glide_ligand_efficiency_sa>  (53) 
-0.466809

>  <r_i_glide_ligand_efficiency_ln>  (53) 
-0.895888

>  <r_i_glide_gscore>  (53) 
-3.66512

>  <r_i_glide_lipo>  (53) 
-0.483244

>  <r_i_glide_hbond>  (53) 
-0.249527

>  <r_i_glide_metal>  (53) 
-0

>  <r_i_glide_rewards>  (53) 
-1.61751

>  <r_i_glide_evdw>  (53) 
-13.6111

>  <r_i_glide_ecoul>  (53) 
-4.22853

>  <r_i_glide_erotb>  (53) 
0

>  <r_i_glide_esite>  (53) 
0

>  <r_i_glide_emodel>  (53) 
-22.4945

>  <r_i_glide_energy>  (53) 
-17.8396

>  <r_i_glide_einternal>  (53) 
1.3657

>  <r_i_glide_intrahb_reward>  (53) 
-0

>  <i_i_glide_confnum>  (53) 
2

>  <i_i_glide_posenum>  (53) 
20

>  <r_i_glide_eff_state_penalty>  (53) 
0

>  <ligand_id>  (53) 
17

>  <original_smiles>  (53) 
CN1CCC23c4c5ccc(O)c4OC2C(O)C(=O)CC3C1C5

>  <smiles>  (53) 
[H]Oc1c([H])c([H])c2c3c1OC1([H])C([H])(O[H])C(=O)C([H])([H])C4([H])C([H])(N(C([H])([H])[H])C([H])([H])C([H])([H])C314)C2([H])[H]

$$$$
17:1:1
     RDKit          3D

 41 45  0  0  1  0  0  0  0  0999 V2000
    4.0220   -1.2024   -3.2679 C   0  0  0  0  0  0  0  0  0  0  0  0
    4.7805   -2.0254   -2.3341 N   0  0  0  0  0  0  0  0  0  0  0  0
    4.1168   -3.3237   -2.0772 C   0  0  0  0  0  0  0  0  0  0  0  0
    3.2050   -3.3668   -0.8154 C   0  0  0  0  0  0  0  0  0  0  0  0
    3.9406   -2.6954    0.3723 C   0  0  2  0  0  0  0  0  0  0  0  0
    5.1774   -3.4786    0.6367 C   0  0  0  0  0  0  0  0  0  0  0  0
    6.4418   -3.2336    0.1130 C   0  0  0  0  0  0  0  0  0  0  0  0
    7.4279   -4.1896    0.4345 C   0  0  0  0  0  0  0  0  0  0  0  0
    7.0820   -5.3089    1.2391 C   0  0  0  0  0  0  0  0  0  0  0  0
    5.7802   -5.4504    1.7977 C   0  0  0  0  0  0  0  0  0  0  0  0
    5.4977   -6.4974    2.6235 O   0  0  0  0  0  0  0  0  0  0  0  0
    4.7899   -4.4838    1.5122 C   0  0  0  0  0  0  0  0  0  0  0  0
    3.5177   -4.2735    2.0149 O   0  0  0  0  0  0  0  0  0  0  0  0
    3.3748   -2.8570    1.7902 C   0  0  2  0  0  0  0  0  0  0  0  0
    2.1504   -1.9661    1.9918 C   0  0  1  0  0  0  0  0  0  0  0  0
    1.6082   -2.1828    3.2820 O   0  0  0  0  0  0  0  0  0  0  0  0
    2.6687   -0.4949    1.8678 C   0  0  0  0  0  0  0  0  0  0  0  0
    2.0842    0.4399    2.4152 O   0  0  0  0  0  0  0  0  0  0  0  0
    3.9795   -0.2425    1.0606 C   0  0  0  0  0  0  0  0  0  0  0  0
    4.0905   -1.2564   -0.0986 C   0  0  1  0  0  0  0  0  0  0  0  0
    5.2361   -1.2744   -1.1420 C   0  0  1  0  0  0  0  0  0  0  0  0
    6.5611   -1.9105   -0.6339 C   0  0  0  0  0  0  0  0  0  0  0  0
    3.8409   -1.7538   -4.1921 H   0  0  0  0  0  0  0  0  0  0  0  0
    4.5940   -0.3113   -3.5345 H   0  0  0  0  0  0  0  0  0  0  0  0
    3.0591   -0.8883   -2.8627 H   0  0  0  0  0  0  0  0  0  0  0  0
    3.5554   -3.6432   -2.9539 H   0  0  0  0  0  0  0  0  0  0  0  0
    4.8966   -4.0776   -1.9581 H   0  0  0  0  0  0  0  0  0  0  0  0
    2.2542   -2.8733   -1.0251 H   0  0  0  0  0  0  0  0  0  0  0  0
    2.9452   -4.4032   -0.5948 H   0  0  0  0  0  0  0  0  0  0  0  0
    8.4349   -4.0697    0.0628 H   0  0  0  0  0  0  0  0  0  0  0  0
    7.8394   -6.0490    1.4465 H   0  0  0  0  0  0  0  0  0  0  0  0
    6.2242   -7.0929    2.7261 H   0  0  0  0  0  0  0  0  0  0  0  0
    4.0858   -2.4415    2.5214 H   0  0  0  0  0  0  0  0  0  0  0  0
    1.3988   -2.1580    1.2320 H   0  0  0  0  0  0  0  0  0  0  0  0
    1.3287   -3.0837    3.3448 H   0  0  0  0  0  0  0  0  0  0  0  0
    3.9575    0.7744    0.6747 H   0  0  0  0  0  0  0  0  0  0  0  0
    4.8370   -0.3133    1.7292 H   0  0  0  0  0  0  0  0  0  0  0  0
    3.1941   -0.9748   -0.6547 H   0  0  0  0  0  0  0  0  0  0  0  0
    5.4540   -0.2565   -1.4613 H   0  0  0  0  0  0  0  0  0  0  0  0
    7.0439   -1.2115    0.0495 H   0  0  0  0  0  0  0  0  0  0  0  0
    7.2444   -2.0655   -1.4675 H   0  0  0  0  0  0  0  0  0  0  0  0
  1  2  1  0
  1 23  1  0
  1 24  1  0
  1 25  1  0
  2 21  1  0
  2  3  1  0
  3  4  1  0
  3 26  1  0
  3 27  1  0
  5  4  1  6
  4 28  1  0
  4 29  1  0
  5 14  1  0
  5 20  1  0
  5  6  1  0
  6 12  2  0
  6  7  1  0
  7 22  1  0
  7  8  2  0
  8  9  1  0
  8 30  1  0
  9 10  2  0
  9 31  1  0
 10 11  1  0
 10 12  1  0
 11 32  1  0
 12 13  1  0
 13 14  1  0
 14 15  1  0
 14 33  1  1
 15 16  1  0
 15 17  1  0
 15 34  1  6
 16 35  1  0
 17 18  2  0
 17 19  1  0
 19 20  1  0
 19 36  1  0
 19 37  1  0
 20 21  1  0
 20 38  1  6
 21 22  1  0
 21 39  1  6
 22 40  1  0
 22 41  1  0
M  END
>  <i_m_ct_stereo_status>  (54) 
1

>  <s_m_source_file>  (54) 
/var/tmp/pbs.5076255.sched01/tmp5ffkvrn0/0o5bi62ha.sdf

>  <i_m_source_file_index>  (54) 
26

>  <i_lp_mmshare_version>  (54) 
48012

>  <i_f3d_flags>  (54) 
0

>  <s_epik_input>  (54) 
W0NIMl0xW0NIMl1OKFtDSDNdKVtDQEhdKFtDSDJdMilbQ0BASF0zW0NIMl1DKD1PKVtDQEhdKFtPSF0pW0NASF00T2M1YyhbT0hdKVtjSF1bY0hdYzJjNVtDQF0xMzQ=

>  <s_epik_cmdline>  (54) 
J2VwaWtfcHl0aG9uJywgJy1waHQnLCAnMi4wJywgJy1waCcsICc3LjAnLCAnLXRuJywgJzgnLCAnLW1hJywgJzIwMCcsICctaW1hZScsICc8aW5maWxlLm1hZT4nLCAnLW9tYWUnLCAnPG91dGZpbGUubWFlPic=

>  <r_lp_tautomer_probability>  (54) 
0.99995

>  <r_epik_Ionization_Penalty>  (54) 
1.2759

>  <r_epik_Ionization_Penalty_Charging>  (54) 
0

>  <r_epik_Ionization_Penalty_Neutral>  (54) 
1.2759

>  <r_epik_State_Penalty>  (54) 
1.11751

>  <r_epik_Charging_Adjusted_Penalty>  (54) 
1.11751

>  <i_epik_Tot_Q>  (54) 
0

>  <i_epik_Tot_abs_Q>  (54) 
0

>  <s_lp_Force_Field>  (54) 
OPLS3e

>  <r_lp_Energy>  (54) 
81.6668

>  <b_lp_Chiralities_Consistent>  (54) 
1

>  <s_lp_Variant>  (54) 
17:0-2

>  <s_i_glide_gridfile>  (54) 
pfpi4k_grid

>  <i_i_glide_lignum>  (54) 
26

>  <i_i_glide_rotatable_bonds>  (54) 
2

>  <r_i_docking_score>  (54) 
-3.56444

>  <r_i_glide_ligand_efficiency>  (54) 
-0.16202

>  <r_i_glide_ligand_efficiency_sa>  (54) 
-0.453986

>  <r_i_glide_ligand_efficiency_ln>  (54) 
-0.871279

>  <r_i_glide_gscore>  (54) 
-3.56444

>  <r_i_glide_lipo>  (54) 
-0.742484

>  <r_i_glide_hbond>  (54) 
0

>  <r_i_glide_metal>  (54) 
-0

>  <r_i_glide_rewards>  (54) 
-1.35452

>  <r_i_glide_evdw>  (54) 
-23.3762

>  <r_i_glide_ecoul>  (54) 
-1.71731

>  <r_i_glide_erotb>  (54) 
0

>  <r_i_glide_esite>  (54) 
-0.0410304

>  <r_i_glide_emodel>  (54) 
-31.2954

>  <r_i_glide_energy>  (54) 
-25.0935

>  <r_i_glide_einternal>  (54) 
0.0106175

>  <r_i_glide_intrahb_reward>  (54) 
-0

>  <i_i_glide_confnum>  (54) 
2

>  <i_i_glide_posenum>  (54) 
3

>  <r_i_glide_eff_state_penalty>  (54) 
0

>  <ligand_id>  (54) 
17

>  <original_smiles>  (54) 
CN1CCC23c4c5ccc(O)c4OC2C(O)C(=O)CC3C1C5

>  <smiles>  (54) 
[H]Oc1c([H])c([H])c2c3c1OC1([H])C([H])(O[H])C(=O)C([H])([H])C4([H])C([H])(N(C([H])([H])[H])C([H])([H])C([H])([H])C314)C2([H])[H]

$$$$
17:1:2
     RDKit          3D

 41 45  0  0  1  0  0  0  0  0999 V2000
    4.5870   -0.9319   -2.1992 C   0  0  0  0  0  0  0  0  0  0  0  0
    5.5628   -1.7533   -1.4922 N   0  0  0  0  0  0  0  0  0  0  0  0
    5.5417   -3.1572   -1.9676 C   0  0  0  0  0  0  0  0  0  0  0  0
    4.6463   -4.1311   -1.1439 C   0  0  0  0  0  0  0  0  0  0  0  0
    4.8872   -3.9021    0.3675 C   0  0  2  0  0  0  0  0  0  0  0  0
    6.3157   -4.2078    0.6363 C   0  0  0  0  0  0  0  0  0  0  0  0
    7.3692   -3.2986    0.6220 C   0  0  0  0  0  0  0  0  0  0  0  0
    8.6462   -3.8642    0.8086 C   0  0  0  0  0  0  0  0  0  0  0  0
    8.7781   -5.2672    0.9936 C   0  0  0  0  0  0  0  0  0  0  0  0
    7.6473   -6.1246    1.0547 C   0  0  0  0  0  0  0  0  0  0  0  0
    7.8249   -7.4578    1.2796 O   0  0  0  0  0  0  0  0  0  0  0  0
    6.3567   -5.5728    0.8994 C   0  0  0  0  0  0  0  0  0  0  0  0
    5.0912   -6.1095    1.0578 O   0  0  0  0  0  0  0  0  0  0  0  0
    4.3358   -4.9247    1.3777 C   0  0  2  0  0  0  0  0  0  0  0  0
    2.8248   -4.7534    1.5563 C   0  0  1  0  0  0  0  0  0  0  0  0
    2.3019   -5.7326    2.4385 O   0  0  0  0  0  0  0  0  0  0  0  0
    2.6421   -3.3306    2.1842 C   0  0  0  0  0  0  0  0  0  0  0  0
    1.6698   -3.0694    2.8921 O   0  0  0  0  0  0  0  0  0  0  0  0
    3.7498   -2.2608    1.9454 C   0  0  0  0  0  0  0  0  0  0  0  0
    4.4075   -2.4687    0.5650 C   0  0  1  0  0  0  0  0  0  0  0  0
    5.5183   -1.5563   -0.0235 C   0  0  1  0  0  0  0  0  0  0  0  0
    6.9353   -1.8334    0.5495 C   0  0  0  0  0  0  0  0  0  0  0  0
    4.7516   -0.9953   -3.2762 H   0  0  0  0  0  0  0  0  0  0  0  0
    4.7014    0.1175   -1.9210 H   0  0  0  0  0  0  0  0  0  0  0  0
    3.5574   -1.2291   -1.9926 H   0  0  0  0  0  0  0  0  0  0  0  0
    5.2606   -3.1982   -3.0191 H   0  0  0  0  0  0  0  0  0  0  0  0
    6.5668   -3.5289   -1.9401 H   0  0  0  0  0  0  0  0  0  0  0  0
    3.5955   -3.9844   -1.4014 H   0  0  0  0  0  0  0  0  0  0  0  0
    4.8736   -5.1590   -1.4305 H   0  0  0  0  0  0  0  0  0  0  0  0
    9.5125   -3.2218    0.8346 H   0  0  0  0  0  0  0  0  0  0  0  0
    9.7557   -5.6992    1.1321 H   0  0  0  0  0  0  0  0  0  0  0  0
    8.7461   -7.7005    1.2943 H   0  0  0  0  0  0  0  0  0  0  0  0
    4.7191   -4.6820    2.3817 H   0  0  0  0  0  0  0  0  0  0  0  0
    2.3075   -4.8219    0.5998 H   0  0  0  0  0  0  0  0  0  0  0  0
    2.8462   -5.7792    3.2124 H   0  0  0  0  0  0  0  0  0  0  0  0
    3.2946   -1.2738    2.0019 H   0  0  0  0  0  0  0  0  0  0  0  0
    4.4852   -2.3232    2.7458 H   0  0  0  0  0  0  0  0  0  0  0  0
    3.5294   -2.3016   -0.0622 H   0  0  0  0  0  0  0  0  0  0  0  0
    5.2796   -0.5101    0.1725 H   0  0  0  0  0  0  0  0  0  0  0  0
    6.9804   -1.4296    1.5609 H   0  0  0  0  0  0  0  0  0  0  0  0
    7.6868   -1.2880   -0.0169 H   0  0  0  0  0  0  0  0  0  0  0  0
  1  2  1  0
  1 23  1  0
  1 24  1  0
  1 25  1  0
  2 21  1  0
  2  3  1  0
  3  4  1  0
  3 26  1  0
  3 27  1  0
  5  4  1  6
  4 28  1  0
  4 29  1  0
  5 14  1  0
  5 20  1  0
  5  6  1  0
  6 12  2  0
  6  7  1  0
  7 22  1  0
  7  8  2  0
  8  9  1  0
  8 30  1  0
  9 10  2  0
  9 31  1  0
 10 11  1  0
 10 12  1  0
 11 32  1  0
 12 13  1  0
 13 14  1  0
 14 15  1  0
 14 33  1  1
 15 16  1  0
 15 17  1  0
 15 34  1  6
 16 35  1  0
 17 18  2  0
 17 19  1  0
 19 20  1  0
 19 36  1  0
 19 37  1  0
 20 21  1  0
 20 38  1  6
 21 22  1  0
 21 39  1  6
 22 40  1  0
 22 41  1  0
M  END
>  <i_m_ct_stereo_status>  (55) 
1

>  <s_m_source_file>  (55) 
/var/tmp/pbs.5076255.sched01/tmp5ffkvrn0/0o5bi62ha.sdf

>  <i_m_source_file_index>  (55) 
26

>  <i_lp_mmshare_version>  (55) 
48012

>  <i_f3d_flags>  (55) 
0

>  <s_epik_input>  (55) 
W0NIMl0xW0NIMl1OKFtDSDNdKVtDQEhdKFtDSDJdMilbQ0BASF0zW0NIMl1DKD1PKVtDQEhdKFtPSF0pW0NASF00T2M1YyhbT0hdKVtjSF1bY0hdYzJjNVtDQF0xMzQ=

>  <s_epik_cmdline>  (55) 
J2VwaWtfcHl0aG9uJywgJy1waHQnLCAnMi4wJywgJy1waCcsICc3LjAnLCAnLXRuJywgJzgnLCAnLW1hJywgJzIwMCcsICctaW1hZScsICc8aW5maWxlLm1hZT4nLCAnLW9tYWUnLCAnPG91dGZpbGUubWFlPic=

>  <r_lp_tautomer_probability>  (55) 
0.99995

>  <r_epik_Ionization_Penalty>  (55) 
1.2759

>  <r_epik_Ionization_Penalty_Charging>  (55) 
0

>  <r_epik_Ionization_Penalty_Neutral>  (55) 
1.2759

>  <r_epik_State_Penalty>  (55) 
1.11751

>  <r_epik_Charging_Adjusted_Penalty>  (55) 
1.11751

>  <i_epik_Tot_Q>  (55) 
0

>  <i_epik_Tot_abs_Q>  (55) 
0

>  <s_lp_Force_Field>  (55) 
OPLS3e

>  <r_lp_Energy>  (55) 
81.6668

>  <b_lp_Chiralities_Consistent>  (55) 
1

>  <s_lp_Variant>  (55) 
17:0-2

>  <s_i_glide_gridfile>  (55) 
pfpi4k_grid

>  <i_i_glide_lignum>  (55) 
26

>  <i_i_glide_rotatable_bonds>  (55) 
2

>  <r_i_docking_score>  (55) 
-3.50514

>  <r_i_glide_ligand_efficiency>  (55) 
-0.159325

>  <r_i_glide_ligand_efficiency_sa>  (55) 
-0.446434

>  <r_i_glide_ligand_efficiency_ln>  (55) 
-0.856784

>  <r_i_glide_gscore>  (55) 
-3.50514

>  <r_i_glide_lipo>  (55) 
-0.575092

>  <r_i_glide_hbond>  (55) 
0

>  <r_i_glide_metal>  (55) 
-0

>  <r_i_glide_rewards>  (55) 
-1.35452

>  <r_i_glide_evdw>  (55) 
-21.7757

>  <r_i_glide_ecoul>  (55) 
-3.22086

>  <r_i_glide_erotb>  (55) 
0

>  <r_i_glide_esite>  (55) 
-0.00361311

>  <r_i_glide_emodel>  (55) 
-30.3845

>  <r_i_glide_energy>  (55) 
-24.9966

>  <r_i_glide_einternal>  (55) 
1.3855

>  <r_i_glide_intrahb_reward>  (55) 
-0

>  <i_i_glide_confnum>  (55) 
2

>  <i_i_glide_posenum>  (55) 
30

>  <r_i_glide_eff_state_penalty>  (55) 
0

>  <ligand_id>  (55) 
17

>  <original_smiles>  (55) 
CN1CCC23c4c5ccc(O)c4OC2C(O)C(=O)CC3C1C5

>  <smiles>  (55) 
[H]Oc1c([H])c([H])c2c3c1OC1([H])C([H])(O[H])C(=O)C([H])([H])C4([H])C([H])(N(C([H])([H])[H])C([H])([H])C([H])([H])C314)C2([H])[H]

$$$$
17:2:0
     RDKit          3D

 41 45  0  0  1  0  0  0  0  0999 V2000
    7.7651   -5.3767    1.2230 C   0  0  0  0  0  0  0  0  0  0  0  0
    6.4024   -5.3822    1.8053 N   0  0  2  0  0  0  0  0  0  0  0  0
    5.5436   -6.4429    1.1865 C   0  0  0  0  0  0  0  0  0  0  0  0
    4.6885   -5.9392   -0.0091 C   0  0  0  0  0  0  0  0  0  0  0  0
    3.9820   -4.6154    0.3785 C   0  0  2  0  0  0  0  0  0  0  0  0
    3.1395   -4.9252    1.5634 C   0  0  0  0  0  0  0  0  0  0  0  0
    3.4916   -4.7582    2.9049 C   0  0  0  0  0  0  0  0  0  0  0  0
    2.5594   -5.2566    3.8391 C   0  0  0  0  0  0  0  0  0  0  0  0
    1.3608   -5.8574    3.3659 C   0  0  0  0  0  0  0  0  0  0  0  0
    1.0378   -5.9069    1.9807 C   0  0  0  0  0  0  0  0  0  0  0  0
   -0.1857   -6.3404    1.5639 O   0  0  0  0  0  0  0  0  0  0  0  0
    1.9594   -5.4076    1.0333 C   0  0  0  0  0  0  0  0  0  0  0  0
    1.8496   -5.1579   -0.3160 O   0  0  0  0  0  0  0  0  0  0  0  0
    2.8267   -4.1087   -0.5031 C   0  0  2  0  0  0  0  0  0  0  0  0
    3.3659   -3.4960   -1.8022 C   0  0  1  0  0  0  0  0  0  0  0  0
    2.3032   -3.0974   -2.6491 O   0  0  0  0  0  0  0  0  0  0  0  0
    4.2069   -2.2527   -1.3684 C   0  0  0  0  0  0  0  0  0  0  0  0
    4.4422   -1.3216   -2.1418 O   0  0  0  0  0  0  0  0  0  0  0  0
    4.7759   -2.2141    0.0834 C   0  0  0  0  0  0  0  0  0  0  0  0
    5.1408   -3.6455    0.5464 C   0  0  1  0  0  0  0  0  0  0  0  0
    5.7837   -4.0116    1.9097 C   0  0  1  0  0  0  0  0  0  0  0  0
    4.7818   -3.9741    3.1038 C   0  0  0  0  0  0  0  0  0  0  0  0
    7.7285   -5.1592    0.1532 H   0  0  0  0  0  0  0  0  0  0  0  0
    8.2421   -6.3547    1.3442 H   0  0  0  0  0  0  0  0  0  0  0  0
    8.4056   -4.6353    1.7079 H   0  0  0  0  0  0  0  0  0  0  0  0
    6.1513   -7.2936    0.8795 H   0  0  0  0  0  0  0  0  0  0  0  0
    4.8869   -6.8555    1.9533 H   0  0  0  0  0  0  0  0  0  0  0  0
    5.3212   -5.8100   -0.8867 H   0  0  0  0  0  0  0  0  0  0  0  0
    3.9735   -6.7137   -0.2874 H   0  0  0  0  0  0  0  0  0  0  0  0
    2.7571   -5.1685    4.8938 H   0  0  0  0  0  0  0  0  0  0  0  0
    0.6556   -6.2432    4.0800 H   0  0  0  0  0  0  0  0  0  0  0  0
    2.3446   -3.2513   -0.0132 H   0  0  0  0  0  0  0  0  0  0  0  0
    4.0098   -4.1932   -2.3405 H   0  0  0  0  0  0  0  0  0  0  0  0
    1.7947   -3.8669   -2.8759 H   0  0  0  0  0  0  0  0  0  0  0  0
    5.6593   -1.5754    0.0905 H   0  0  0  0  0  0  0  0  0  0  0  0
    4.0470   -1.7527    0.7510 H   0  0  0  0  0  0  0  0  0  0  0  0
    5.9120   -3.8691   -0.1944 H   0  0  0  0  0  0  0  0  0  0  0  0
    6.5799   -3.2981    2.1223 H   0  0  0  0  0  0  0  0  0  0  0  0
    4.5077   -2.9331    3.2827 H   0  0  0  0  0  0  0  0  0  0  0  0
    5.2646   -4.3186    4.0183 H   0  0  0  0  0  0  0  0  0  0  0  0
    6.5449   -5.6886    2.7561 H   0  0  0  0  0  0  0  0  0  0  0  0
  1  2  1  0
  1 23  1  0
  1 24  1  0
  1 25  1  0
  2 21  1  0
  2  3  1  0
  2 41  1  1
  3  4  1  0
  3 26  1  0
  3 27  1  0
  5  4  1  6
  4 28  1  0
  4 29  1  0
  5 14  1  0
  5 20  1  0
  5  6  1  0
  6 12  2  0
  6  7  1  0
  7 22  1  0
  7  8  2  0
  8  9  1  0
  8 30  1  0
  9 10  2  0
  9 31  1  0
 10 11  1  0
 10 12  1  0
 12 13  1  0
 13 14  1  0
 14 15  1  0
 14 32  1  1
 15 16  1  0
 15 17  1  0
 15 33  1  6
 16 34  1  0
 17 18  2  0
 17 19  1  0
 19 20  1  0
 19 35  1  0
 19 36  1  0
 20 21  1  0
 20 37  1  6
 21 22  1  0
 21 38  1  1
 22 39  1  0
 22 40  1  0
M  CHG  2   2   1  11  -1
M  END
>  <i_m_ct_stereo_status>  (56) 
1

>  <s_m_source_file>  (56) 
/var/tmp/pbs.5076255.sched01/tmp5ffkvrn0/0o5bi62ha.sdf

>  <i_m_source_file_index>  (56) 
27

>  <i_lp_mmshare_version>  (56) 
48012

>  <i_f3d_flags>  (56) 
0

>  <s_epik_input>  (56) 
W0NIMl0xW0NIMl1OKFtDSDNdKVtDQEhdKFtDSDJdMilbQ0BASF0zW0NIMl1DKD1PKVtDQEhdKFtPSF0pW0NASF00T2M1YyhbT0hdKVtjSF1bY0hdYzJjNVtDQF0xMzQ=

>  <s_epik_cmdline>  (56) 
J2VwaWtfcHl0aG9uJywgJy1waHQnLCAnMi4wJywgJy1waCcsICc3LjAnLCAnLXRuJywgJzgnLCAnLW1hJywgJzIwMCcsICctaW1hZScsICc8aW5maWxlLm1hZT4nLCAnLW9tYWUnLCAnPG91dGZpbGUubWFlPic=

>  <r_epik_Ionization_Penalty>  (56) 
2.09624

>  <r_epik_Ionization_Penalty_Charging>  (56) 
2.09619

>  <r_epik_Ionization_Penalty_Neutral>  (56) 
5.13391e-05

>  <r_epik_State_Penalty>  (56) 
2.52351

>  <r_epik_Charging_Adjusted_Penalty>  (56) 
4.6197

>  <i_epik_Tot_Q>  (56) 
0

>  <i_epik_Tot_abs_Q>  (56) 
2

>  <s_lp_Force_Field>  (56) 
OPLS3e

>  <r_lp_Energy>  (56) 
81.6523

>  <b_lp_Chiralities_Consistent>  (56) 
1

>  <s_lp_Variant>  (56) 
17:0-3

>  <s_i_glide_gridfile>  (56) 
pfpi4k_grid

>  <i_i_glide_lignum>  (56) 
27

>  <i_i_glide_rotatable_bonds>  (56) 
1

>  <r_i_docking_score>  (56) 
-4.00815

>  <r_i_glide_ligand_efficiency>  (56) 
-0.182189

>  <r_i_glide_ligand_efficiency_sa>  (56) 
-0.5105

>  <r_i_glide_ligand_efficiency_ln>  (56) 
-0.979738

>  <r_i_glide_gscore>  (56) 
-4.00815

>  <r_i_glide_lipo>  (56) 
-0.383546

>  <r_i_glide_hbond>  (56) 
-0.410495

>  <r_i_glide_metal>  (56) 
-0

>  <r_i_glide_rewards>  (56) 
-1.35452

>  <r_i_glide_evdw>  (56) 
-16.4562

>  <r_i_glide_ecoul>  (56) 
-6.74107

>  <r_i_glide_erotb>  (56) 
0

>  <r_i_glide_esite>  (56) 
-0.0256159

>  <r_i_glide_emodel>  (56) 
-33.396

>  <r_i_glide_energy>  (56) 
-23.1973

>  <r_i_glide_einternal>  (56) 
8.54897e-05

>  <r_i_glide_intrahb_reward>  (56) 
-0

>  <i_i_glide_confnum>  (56) 
1

>  <i_i_glide_posenum>  (56) 
29

>  <r_i_glide_eff_state_penalty>  (56) 
0

>  <ligand_id>  (56) 
17

>  <original_smiles>  (56) 
CN1CCC23c4c5ccc(O)c4OC2C(O)C(=O)CC3C1C5

>  <smiles>  (56) 
[H]OC1([H])C(=O)C([H])([H])C2([H])C34c5c(c([O-])c([H])c([H])c5C([H])([H])C2([H])[N+]([H])(C([H])([H])[H])C([H])([H])C3([H])[H])OC14[H]

$$$$
17:2:1
     RDKit          3D

 41 45  0  0  1  0  0  0  0  0999 V2000
    8.2467   -3.2553    0.0563 C   0  0  0  0  0  0  0  0  0  0  0  0
    7.0045   -3.4473    0.8430 N   0  0  2  0  0  0  0  0  0  0  0  0
    6.3636   -4.7694    0.5505 C   0  0  0  0  0  0  0  0  0  0  0  0
    5.2746   -4.7120   -0.5574 C   0  0  0  0  0  0  0  0  0  0  0  0
    4.3160   -3.5223   -0.2824 C   0  0  2  0  0  0  0  0  0  0  0  0
    3.7114   -3.7573    1.0523 C   0  0  0  0  0  0  0  0  0  0  0  0
    4.1727   -3.2783    2.2775 C   0  0  0  0  0  0  0  0  0  0  0  0
    3.5052   -3.7813    3.4113 C   0  0  0  0  0  0  0  0  0  0  0  0
    2.4403   -4.7043    3.2375 C   0  0  0  0  0  0  0  0  0  0  0  0
    1.9758   -5.0813    1.9452 C   0  0  0  0  0  0  0  0  0  0  0  0
    0.8759   -5.8851    1.8001 O   0  0  0  0  0  0  0  0  0  0  0  0
    2.6135   -4.5628    0.8023 C   0  0  0  0  0  0  0  0  0  0  0  0
    2.2959   -4.6224   -0.5375 O   0  0  0  0  0  0  0  0  0  0  0  0
    2.9848   -3.4632   -1.0443 C   0  0  2  0  0  0  0  0  0  0  0  0
    3.2167   -3.0346   -2.4920 C   0  0  1  0  0  0  0  0  0  0  0  0
    2.0067   -3.0526   -3.2150 O   0  0  0  0  0  0  0  0  0  0  0  0
    3.7680   -1.5695   -2.4076 C   0  0  0  0  0  0  0  0  0  0  0  0
    3.6747   -0.7862   -3.3504 O   0  0  0  0  0  0  0  0  0  0  0  0
    4.4658   -1.1135   -1.0861 C   0  0  0  0  0  0  0  0  0  0  0  0
    5.2215   -2.3067   -0.4575 C   0  0  1  0  0  0  0  0  0  0  0  0
    6.0864   -2.2529    0.8302 C   0  0  1  0  0  0  0  0  0  0  0  0
    5.2472   -2.2069    2.1401 C   0  0  0  0  0  0  0  0  0  0  0  0
    8.0391   -3.2681   -1.0161 H   0  0  0  0  0  0  0  0  0  0  0  0
    8.9544   -4.0617    0.2633 H   0  0  0  0  0  0  0  0  0  0  0  0
    8.7416   -2.3132    0.3064 H   0  0  0  0  0  0  0  0  0  0  0  0
    7.1203   -5.5119    0.2902 H   0  0  0  0  0  0  0  0  0  0  0  0
    5.9205   -5.1574    1.4693 H   0  0  0  0  0  0  0  0  0  0  0  0
    5.7459   -4.6116   -1.5356 H   0  0  0  0  0  0  0  0  0  0  0  0
    4.7433   -5.6657   -0.5931 H   0  0  0  0  0  0  0  0  0  0  0  0
    3.7995   -3.4472    4.3962 H   0  0  0  0  0  0  0  0  0  0  0  0
    1.9450   -5.0972    4.1068 H   0  0  0  0  0  0  0  0  0  0  0  0
    2.3701   -2.6551   -0.6343 H   0  0  0  0  0  0  0  0  0  0  0  0
    3.9399   -3.6721   -3.0014 H   0  0  0  0  0  0  0  0  0  0  0  0
    1.6254   -3.9270   -3.1890 H   0  0  0  0  0  0  0  0  0  0  0  0
    5.1552   -0.3025   -1.3247 H   0  0  0  0  0  0  0  0  0  0  0  0
    3.7249   -0.7038   -0.3970 H   0  0  0  0  0  0  0  0  0  0  0  0
    5.9280   -2.4986   -1.2672 H   0  0  0  0  0  0  0  0  0  0  0  0
    6.7058   -1.3522    0.8162 H   0  0  0  0  0  0  0  0  0  0  0  0
    4.7480   -1.2386    2.1853 H   0  0  0  0  0  0  0  0  0  0  0  0
    5.8968   -2.2514    3.0116 H   0  0  0  0  0  0  0  0  0  0  0  0
    7.3233   -3.5261    1.7974 H   0  0  0  0  0  0  0  0  0  0  0  0
  1  2  1  0
  1 23  1  0
  1 24  1  0
  1 25  1  0
  2 21  1  0
  2  3  1  0
  2 41  1  1
  3  4  1  0
  3 26  1  0
  3 27  1  0
  5  4  1  6
  4 28  1  0
  4 29  1  0
  5 14  1  0
  5 20  1  0
  5  6  1  0
  6 12  2  0
  6  7  1  0
  7 22  1  0
  7  8  2  0
  8  9  1  0
  8 30  1  0
  9 10  2  0
  9 31  1  0
 10 11  1  0
 10 12  1  0
 12 13  1  0
 13 14  1  0
 14 15  1  0
 14 32  1  1
 15 16  1  0
 15 17  1  0
 15 33  1  6
 16 34  1  0
 17 18  2  0
 17 19  1  0
 19 20  1  0
 19 35  1  0
 19 36  1  0
 20 21  1  0
 20 37  1  6
 21 22  1  0
 21 38  1  6
 22 39  1  0
 22 40  1  0
M  CHG  2   2   1  11  -1
M  END
>  <i_m_ct_stereo_status>  (57) 
1

>  <s_m_source_file>  (57) 
/var/tmp/pbs.5076255.sched01/tmp5ffkvrn0/0o5bi62ha.sdf

>  <i_m_source_file_index>  (57) 
27

>  <i_lp_mmshare_version>  (57) 
48012

>  <i_f3d_flags>  (57) 
0

>  <s_epik_input>  (57) 
W0NIMl0xW0NIMl1OKFtDSDNdKVtDQEhdKFtDSDJdMilbQ0BASF0zW0NIMl1DKD1PKVtDQEhdKFtPSF0pW0NASF00T2M1YyhbT0hdKVtjSF1bY0hdYzJjNVtDQF0xMzQ=

>  <s_epik_cmdline>  (57) 
J2VwaWtfcHl0aG9uJywgJy1waHQnLCAnMi4wJywgJy1waCcsICc3LjAnLCAnLXRuJywgJzgnLCAnLW1hJywgJzIwMCcsICctaW1hZScsICc8aW5maWxlLm1hZT4nLCAnLW9tYWUnLCAnPG91dGZpbGUubWFlPic=

>  <r_epik_Ionization_Penalty>  (57) 
2.09624

>  <r_epik_Ionization_Penalty_Charging>  (57) 
2.09619

>  <r_epik_Ionization_Penalty_Neutral>  (57) 
5.13391e-05

>  <r_epik_State_Penalty>  (57) 
2.52351

>  <r_epik_Charging_Adjusted_Penalty>  (57) 
4.6197

>  <i_epik_Tot_Q>  (57) 
0

>  <i_epik_Tot_abs_Q>  (57) 
2

>  <s_lp_Force_Field>  (57) 
OPLS3e

>  <r_lp_Energy>  (57) 
81.6523

>  <b_lp_Chiralities_Consistent>  (57) 
1

>  <s_lp_Variant>  (57) 
17:0-3

>  <s_i_glide_gridfile>  (57) 
pfpi4k_grid

>  <i_i_glide_lignum>  (57) 
27

>  <i_i_glide_rotatable_bonds>  (57) 
1

>  <r_i_docking_score>  (57) 
-3.81096

>  <r_i_glide_ligand_efficiency>  (57) 
-0.173226

>  <r_i_glide_ligand_efficiency_sa>  (57) 
-0.485385

>  <r_i_glide_ligand_efficiency_ln>  (57) 
-0.931538

>  <r_i_glide_gscore>  (57) 
-3.81096

>  <r_i_glide_lipo>  (57) 
-0.585105

>  <r_i_glide_hbond>  (57) 
-0.162129

>  <r_i_glide_metal>  (57) 
-0

>  <r_i_glide_rewards>  (57) 
-1.35452

>  <r_i_glide_evdw>  (57) 
-20.2193

>  <r_i_glide_ecoul>  (57) 
-4.34997

>  <r_i_glide_erotb>  (57) 
0

>  <r_i_glide_esite>  (57) 
-0.0457468

>  <r_i_glide_emodel>  (57) 
-34.2567

>  <r_i_glide_energy>  (57) 
-24.5693

>  <r_i_glide_einternal>  (57) 
0.0229643

>  <r_i_glide_intrahb_reward>  (57) 
-0

>  <i_i_glide_confnum>  (57) 
2

>  <i_i_glide_posenum>  (57) 
31

>  <r_i_glide_eff_state_penalty>  (57) 
0

>  <ligand_id>  (57) 
17

>  <original_smiles>  (57) 
CN1CCC23c4c5ccc(O)c4OC2C(O)C(=O)CC3C1C5

>  <smiles>  (57) 
[H]OC1([H])C(=O)C([H])([H])C2([H])C34c5c(c([O-])c([H])c([H])c5C([H])([H])C2([H])[N+]([H])(C([H])([H])[H])C([H])([H])C3([H])[H])OC14[H]

$$$$
17:2:2
     RDKit          3D

 41 45  0  0  1  0  0  0  0  0999 V2000
    7.7260   -6.8697    1.4413 C   0  0  0  0  0  0  0  0  0  0  0  0
    6.3716   -6.7329    2.0181 N   0  0  2  0  0  0  0  0  0  0  0  0
    5.3414   -7.4076    1.1667 C   0  0  0  0  0  0  0  0  0  0  0  0
    4.6651   -6.4568    0.1380 C   0  0  0  0  0  0  0  0  0  0  0  0
    4.2344   -5.1459    0.8388 C   0  0  2  0  0  0  0  0  0  0  0  0
    3.2954   -5.5272    1.9250 C   0  0  0  0  0  0  0  0  0  0  0  0
    3.6133   -5.7774    3.2609 C   0  0  0  0  0  0  0  0  0  0  0  0
    2.5635   -6.2773    4.0510 C   0  0  0  0  0  0  0  0  0  0  0  0
    1.2870   -6.4807    3.4588 C   0  0  0  0  0  0  0  0  0  0  0  0
    1.0320   -6.1274    2.1008 C   0  0  0  0  0  0  0  0  0  0  0  0
   -0.2162   -6.2606    1.5746 O   0  0  0  0  0  0  0  0  0  0  0  0
    2.0658   -5.6001    1.3079 C   0  0  0  0  0  0  0  0  0  0  0  0
    2.0802   -5.0555    0.0384 O   0  0  0  0  0  0  0  0  0  0  0  0
    3.2484   -4.2179    0.1129 C   0  0  2  0  0  0  0  0  0  0  0  0
    3.9425   -3.4372   -1.0024 C   0  0  1  0  0  0  0  0  0  0  0  0
    3.0212   -2.6213   -1.7164 O   0  0  0  0  0  0  0  0  0  0  0  0
    5.0063   -2.5416   -0.2850 C   0  0  0  0  0  0  0  0  0  0  0  0
    5.4354   -1.5123   -0.8056 O   0  0  0  0  0  0  0  0  0  0  0  0
    5.5153   -2.9706    1.1282 C   0  0  0  0  0  0  0  0  0  0  0  0
    5.5590   -4.5137    1.2330 C   0  0  1  0  0  0  0  0  0  0  0  0
    6.0461   -5.3310    2.4626 C   0  0  1  0  0  0  0  0  0  0  0  0
    5.0266   -5.3585    3.6359 C   0  0  0  0  0  0  0  0  0  0  0  0
    7.7783   -6.3981    0.4584 H   0  0  0  0  0  0  0  0  0  0  0  0
    7.9937   -7.9209    1.3105 H   0  0  0  0  0  0  0  0  0  0  0  0
    8.4886   -6.4176    2.0789 H   0  0  0  0  0  0  0  0  0  0  0  0
    5.7665   -8.2802    0.6711 H   0  0  0  0  0  0  0  0  0  0  0  0
    4.5816   -7.8475    1.8107 H   0  0  0  0  0  0  0  0  0  0  0  0
    5.3352   -6.2374   -0.6914 H   0  0  0  0  0  0  0  0  0  0  0  0
    3.8192   -6.9757   -0.3060 H   0  0  0  0  0  0  0  0  0  0  0  0
    2.7316   -6.5025    5.0989 H   0  0  0  0  0  0  0  0  0  0  0  0
    0.4937   -6.8863    4.0602 H   0  0  0  0  0  0  0  0  0  0  0  0
    2.9224   -3.4233    0.7974 H   0  0  0  0  0  0  0  0  0  0  0  0
    4.4434   -4.1118   -1.6988 H   0  0  0  0  0  0  0  0  0  0  0  0
    2.4628   -2.1264   -1.1256 H   0  0  0  0  0  0  0  0  0  0  0  0
    6.5097   -2.5482    1.2799 H   0  0  0  0  0  0  0  0  0  0  0  0
    4.8692   -2.5359    1.8912 H   0  0  0  0  0  0  0  0  0  0  0  0
    6.3019   -4.7094    0.4577 H   0  0  0  0  0  0  0  0  0  0  0  0
    6.9644   -4.8988    2.8504 H   0  0  0  0  0  0  0  0  0  0  0  0
    4.9601   -4.3606    4.0738 H   0  0  0  0  0  0  0  0  0  0  0  0
    5.3749   -6.0080    4.4400 H   0  0  0  0  0  0  0  0  0  0  0  0
    6.4130   -7.2833    2.8673 H   0  0  0  0  0  0  0  0  0  0  0  0
  1  2  1  0
  1 23  1  0
  1 24  1  0
  1 25  1  0
  2 21  1  0
  2  3  1  0
  2 41  1  1
  3  4  1  0
  3 26  1  0
  3 27  1  0
  5  4  1  6
  4 28  1  0
  4 29  1  0
  5 14  1  0
  5 20  1  0
  5  6  1  0
  6 12  2  0
  6  7  1  0
  7 22  1  0
  7  8  2  0
  8  9  1  0
  8 30  1  0
  9 10  2  0
  9 31  1  0
 10 11  1  0
 10 12  1  0
 12 13  1  0
 13 14  1  0
 14 15  1  0
 14 32  1  1
 15 16  1  0
 15 17  1  0
 15 33  1  6
 16 34  1  0
 17 18  2  0
 17 19  1  0
 19 20  1  0
 19 35  1  0
 19 36  1  0
 20 21  1  0
 20 37  1  6
 21 22  1  0
 21 38  1  1
 22 39  1  0
 22 40  1  0
M  CHG  2   2   1  11  -1
M  END
>  <i_m_ct_stereo_status>  (58) 
1

>  <s_m_source_file>  (58) 
/var/tmp/pbs.5076255.sched01/tmp5ffkvrn0/0o5bi62ha.sdf

>  <i_m_source_file_index>  (58) 
27

>  <i_lp_mmshare_version>  (58) 
48012

>  <i_f3d_flags>  (58) 
0

>  <s_epik_input>  (58) 
W0NIMl0xW0NIMl1OKFtDSDNdKVtDQEhdKFtDSDJdMilbQ0BASF0zW0NIMl1DKD1PKVtDQEhdKFtPSF0pW0NASF00T2M1YyhbT0hdKVtjSF1bY0hdYzJjNVtDQF0xMzQ=

>  <s_epik_cmdline>  (58) 
J2VwaWtfcHl0aG9uJywgJy1waHQnLCAnMi4wJywgJy1waCcsICc3LjAnLCAnLXRuJywgJzgnLCAnLW1hJywgJzIwMCcsICctaW1hZScsICc8aW5maWxlLm1hZT4nLCAnLW9tYWUnLCAnPG91dGZpbGUubWFlPic=

>  <r_epik_Ionization_Penalty>  (58) 
2.09624

>  <r_epik_Ionization_Penalty_Charging>  (58) 
2.09619

>  <r_epik_Ionization_Penalty_Neutral>  (58) 
5.13391e-05

>  <r_epik_State_Penalty>  (58) 
2.52351

>  <r_epik_Charging_Adjusted_Penalty>  (58) 
4.6197

>  <i_epik_Tot_Q>  (58) 
0

>  <i_epik_Tot_abs_Q>  (58) 
2

>  <s_lp_Force_Field>  (58) 
OPLS3e

>  <r_lp_Energy>  (58) 
81.6523

>  <b_lp_Chiralities_Consistent>  (58) 
1

>  <s_lp_Variant>  (58) 
17:0-3

>  <s_i_glide_gridfile>  (58) 
pfpi4k_grid

>  <i_i_glide_lignum>  (58) 
27

>  <i_i_glide_rotatable_bonds>  (58) 
1

>  <r_i_docking_score>  (58) 
-3.789

>  <r_i_glide_ligand_efficiency>  (58) 
-0.172227

>  <r_i_glide_ligand_efficiency_sa>  (58) 
-0.482588

>  <r_i_glide_ligand_efficiency_ln>  (58) 
-0.92617

>  <r_i_glide_gscore>  (58) 
-3.789

>  <r_i_glide_lipo>  (58) 
-0.374509

>  <r_i_glide_hbond>  (58) 
-0.386691

>  <r_i_glide_metal>  (58) 
-0

>  <r_i_glide_rewards>  (58) 
-1.35452

>  <r_i_glide_evdw>  (58) 
-15.202

>  <r_i_glide_ecoul>  (58) 
-6.06898

>  <r_i_glide_erotb>  (58) 
0

>  <r_i_glide_esite>  (58) 
-0.00283209

>  <r_i_glide_emodel>  (58) 
-30.2187

>  <r_i_glide_energy>  (58) 
-21.271

>  <r_i_glide_einternal>  (58) 
1.36277

>  <r_i_glide_intrahb_reward>  (58) 
-0

>  <i_i_glide_confnum>  (58) 
1

>  <i_i_glide_posenum>  (58) 
8

>  <r_i_glide_eff_state_penalty>  (58) 
0

>  <ligand_id>  (58) 
17

>  <original_smiles>  (58) 
CN1CCC23c4c5ccc(O)c4OC2C(O)C(=O)CC3C1C5

>  <smiles>  (58) 
[H]OC1([H])C(=O)C([H])([H])C2([H])C34c5c(c([O-])c([H])c([H])c5C([H])([H])C2([H])[N+]([H])(C([H])([H])[H])C([H])([H])C3([H])[H])OC14[H]

$$$$
18:0:0
     RDKit          3D

 62 66  0  0  1  0  0  0  0  0999 V2000
    4.0119   -0.8859   -4.6364 C   0  0  0  0  0  0  0  0  0  0  0  0
    4.1002   -1.6277   -3.3504 C   0  0  0  0  0  0  0  0  0  0  0  0
    3.8140   -1.0127   -2.2050 C   0  0  0  0  0  0  0  0  0  0  0  0
    3.8578   -1.6744   -0.8448 C   0  0  2  0  0  0  0  0  0  0  0  0
    5.2547   -1.4066   -0.2559 C   0  0  0  0  0  0  0  0  0  0  0  0
    6.2552   -2.0670   -1.0281 O   0  0  0  0  0  0  0  0  0  0  0  0
    6.0076   -3.4619   -1.2460 C   0  0  1  0  0  0  0  0  0  0  0  0
    6.1433   -4.2567    0.0903 C   0  0  0  0  0  0  0  0  0  0  0  0
    4.8562   -4.9538    0.6632 C   0  0  2  0  0  0  0  0  0  0  0  0
    4.6422   -6.0989   -0.1423 O   0  0  0  0  0  0  0  0  0  0  0  0
    3.6009   -4.0377    0.4469 C   0  0  1  0  0  0  0  0  0  0  0  0
    3.2492   -3.3147    1.7654 C   0  0  1  0  0  0  0  0  0  0  0  0
    2.1755   -2.4191    1.6704 O   0  0  0  0  0  0  0  0  0  0  0  0
    2.7698   -4.3499    2.7960 C   0  0  0  0  0  0  0  0  0  0  0  0
    3.6987   -5.5810    3.0022 C   0  0  1  0  0  0  0  0  0  0  0  0
    2.9333   -6.9465    3.0946 C   0  0  0  0  0  0  0  0  0  0  0  0
    1.8908   -6.8831    4.2465 C   0  0  0  0  0  0  0  0  0  0  0  0
    2.2002   -7.3374    1.7949 C   0  0  0  0  0  0  0  0  0  0  0  0
    3.9474   -8.0812    3.3905 C   0  0  0  0  0  0  0  0  0  0  0  0
    3.6202   -8.9821    4.1506 O   0  0  0  0  0  0  0  0  0  0  0  0
    5.2426   -8.0499    2.7156 C   0  0  0  0  0  0  0  0  0  0  0  0
    5.7065   -6.9259    2.1328 C   0  0  0  0  0  0  0  0  0  0  0  0
    5.0190   -5.5457    2.1495 C   0  0  1  0  0  0  0  0  0  0  0  0
    6.0228   -4.7074    2.9597 C   0  0  0  0  0  0  0  0  0  0  0  0
    3.5550   -3.2142   -0.9283 C   0  0  1  0  0  0  0  0  0  0  0  0
    2.1316   -3.4532   -1.5148 C   0  0  0  0  0  0  0  0  0  0  0  0
    4.6467   -3.6864   -1.9332 C   0  0  1  0  0  0  0  0  0  0  0  0
    4.5254   -3.0712   -3.3531 C   0  0  0  0  0  0  0  0  0  0  0  0
    3.3938   -1.3882   -5.3595 H   0  0  0  0  0  0  0  0  0  0  0  0
    5.0177   -0.8635   -5.0696 H   0  0  0  0  0  0  0  0  0  0  0  0
    3.6806    0.1447   -4.5254 H   0  0  0  0  0  0  0  0  0  0  0  0
    3.5596    0.0194   -2.3129 H   0  0  0  0  0  0  0  0  0  0  0  0
    3.1071   -1.1526   -0.2589 H   0  0  0  0  0  0  0  0  0  0  0  0
    5.4669   -0.3376   -0.2649 H   0  0  0  0  0  0  0  0  0  0  0  0
    5.3254   -1.7102    0.7850 H   0  0  0  0  0  0  0  0  0  0  0  0
    6.7754   -3.8109   -1.9362 H   0  0  0  0  0  0  0  0  0  0  0  0
    6.9155   -5.0213   -0.0160 H   0  0  0  0  0  0  0  0  0  0  0  0
    6.5547   -3.5437    0.8041 H   0  0  0  0  0  0  0  0  0  0  0  0
    4.2986   -5.8293   -0.9871 H   0  0  0  0  0  0  0  0  0  0  0  0
    2.7813   -4.7495    0.3521 H   0  0  0  0  0  0  0  0  0  0  0  0
    4.0922   -2.7575    2.1578 H   0  0  0  0  0  0  0  0  0  0  0  0
    2.3245   -1.8192    0.9420 H   0  0  0  0  0  0  0  0  0  0  0  0
    2.6128   -3.8570    3.7542 H   0  0  0  0  0  0  0  0  0  0  0  0
    1.7766   -4.6846    2.5057 H   0  0  0  0  0  0  0  0  0  0  0  0
    4.0305   -5.4518    4.0351 H   0  0  0  0  0  0  0  0  0  0  0  0
    1.1122   -6.1361    4.0747 H   0  0  0  0  0  0  0  0  0  0  0  0
    2.3692   -6.6380    5.1967 H   0  0  0  0  0  0  0  0  0  0  0  0
    1.3762   -7.8356    4.3960 H   0  0  0  0  0  0  0  0  0  0  0  0
    1.5038   -6.5746    1.4455 H   0  0  0  0  0  0  0  0  0  0  0  0
    1.6282   -8.2589    1.9285 H   0  0  0  0  0  0  0  0  0  0  0  0
    2.9050   -7.5352    0.9918 H   0  0  0  0  0  0  0  0  0  0  0  0
    5.8054   -8.9761    2.6922 H   0  0  0  0  0  0  0  0  0  0  0  0
    6.6641   -6.9583    1.6442 H   0  0  0  0  0  0  0  0  0  0  0  0
    5.7717   -3.6522    3.0382 H   0  0  0  0  0  0  0  0  0  0  0  0
    7.0150   -4.7807    2.5191 H   0  0  0  0  0  0  0  0  0  0  0  0
    6.1413   -5.0777    3.9794 H   0  0  0  0  0  0  0  0  0  0  0  0
    1.8571   -4.4869   -1.6706 H   0  0  0  0  0  0  0  0  0  0  0  0
    1.9367   -2.9225   -2.4496 H   0  0  0  0  0  0  0  0  0  0  0  0
    1.3982   -3.0807   -0.8116 H   0  0  0  0  0  0  0  0  0  0  0  0
    4.6250   -4.7503   -2.1263 H   0  0  0  0  0  0  0  0  0  0  0  0
    3.7750   -3.6197   -3.9250 H   0  0  0  0  0  0  0  0  0  0  0  0
    5.4749   -3.1698   -3.8721 H   0  0  0  0  0  0  0  0  0  0  0  0
  1  2  1  0
  1 29  1  0
  1 30  1  0
  1 31  1  0
  2 28  1  0
  2  3  2  0
  3  4  1  0
  3 32  1  0
  4 25  1  0
  4  5  1  0
  4 33  1  1
  5  6  1  0
  5 34  1  0
  5 35  1  0
  6  7  1  0
  7 27  1  0
  7  8  1  0
  7 36  1  6
  8  9  1  0
  8 37  1  0
  8 38  1  0
  9 23  1  0
  9 10  1  6
  9 11  1  0
 10 39  1  0
 11 12  1  0
 11 25  1  0
 11 40  1  6
 12 13  1  0
 12 14  1  0
 12 41  1  1
 13 42  1  0
 14 15  1  0
 14 43  1  0
 14 44  1  0
 15 23  1  0
 15 16  1  0
 15 45  1  1
 16 17  1  0
 16 18  1  0
 16 19  1  0
 17 46  1  0
 17 47  1  0
 17 48  1  0
 18 49  1  0
 18 50  1  0
 18 51  1  0
 19 20  2  0
 19 21  1  0
 21 22  2  0
 21 52  1  0
 22 23  1  0
 22 53  1  0
 23 24  1  1
 24 54  1  0
 24 55  1  0
 24 56  1  0
 25 26  1  6
 25 27  1  0
 26 57  1  0
 26 58  1  0
 26 59  1  0
 27 28  1  0
 27 60  1  6
 28 61  1  0
 28 62  1  0
M  END
>  <i_m_ct_stereo_status>  (59) 
1

>  <s_m_source_file>  (59) 
/var/tmp/pbs.5076255.sched01/tmp5ffkvrn0/0o5bi62ha.sdf

>  <i_m_source_file_index>  (59) 
28

>  <i_lp_mmshare_version>  (59) 
48012

>  <i_f3d_flags>  (59) 
0

>  <s_epik_input>  (59) 
W0NIMl0xT1tDQEBIXShbQ0gyXTIpW0NAQEhdM1tDSDJdQyhbQ0gzXSk9W0NIXVtDQEhdMVtDQF0zKFtDSDNdKVtDQEBIXShbQ0BAXTI0W09IXSlbQ0BASF0oW09IXSlbQ0gyXVtDQEBIXTVbQ0BAXTQoW0NIM10pW0NIXT1bQ0hdQyg9TylDNShbQ0gzXSlbQ0gzXQ==

>  <s_epik_cmdline>  (59) 
J2VwaWtfcHl0aG9uJywgJy1waHQnLCAnMi4wJywgJy1waCcsICc3LjAnLCAnLXRuJywgJzgnLCAnLW1hJywgJzIwMCcsICctaW1hZScsICc8aW5maWxlLm1hZT4nLCAnLW9tYWUnLCAnPG91dGZpbGUubWFlPic=

>  <r_lp_tautomer_probability>  (59) 
1

>  <r_epik_Ionization_Penalty>  (59) 
6.60917e-07

>  <r_epik_Ionization_Penalty_Charging>  (59) 
0

>  <r_epik_Ionization_Penalty_Neutral>  (59) 
6.60917e-07

>  <r_epik_State_Penalty>  (59) 
-0

>  <r_epik_Charging_Adjusted_Penalty>  (59) 
0

>  <i_epik_Tot_Q>  (59) 
0

>  <i_epik_Tot_abs_Q>  (59) 
0

>  <s_lp_Force_Field>  (59) 
OPLS3e

>  <r_lp_Energy>  (59) 
76.5646

>  <b_lp_Chiralities_Consistent>  (59) 
1

>  <s_lp_Variant>  (59) 
18:0-1

>  <s_i_glide_gridfile>  (59) 
pfpi4k_grid

>  <i_i_glide_lignum>  (59) 
28

>  <i_i_glide_rotatable_bonds>  (59) 
2

>  <r_i_docking_score>  (59) 
-3.59706

>  <r_i_glide_ligand_efficiency>  (59) 
-0.128466

>  <r_i_glide_ligand_efficiency_sa>  (59) 
-0.3901

>  <r_i_glide_ligand_efficiency_ln>  (59) 
-0.830307

>  <r_i_glide_gscore>  (59) 
-3.59706

>  <r_i_glide_lipo>  (59) 
-0.769682

>  <r_i_glide_hbond>  (59) 
-0.359932

>  <r_i_glide_metal>  (59) 
-0

>  <r_i_glide_rewards>  (59) 
-0.773698

>  <r_i_glide_evdw>  (59) 
-24.3083

>  <r_i_glide_ecoul>  (59) 
-3.18835

>  <r_i_glide_erotb>  (59) 
0

>  <r_i_glide_esite>  (59) 
-8.35053e-05

>  <r_i_glide_emodel>  (59) 
-32.1849

>  <r_i_glide_energy>  (59) 
-27.4966

>  <r_i_glide_einternal>  (59) 
0.582126

>  <r_i_glide_intrahb_reward>  (59) 
-0

>  <i_i_glide_confnum>  (59) 
1

>  <i_i_glide_posenum>  (59) 
25

>  <r_i_glide_eff_state_penalty>  (59) 
0

>  <ligand_id>  (59) 
18

>  <original_smiles>  (59) 
CC1=CC2COC3CC4(O)C(C(O)CC5C(C)(C)C(=O)C=CC54C)C2(C)C3C1

>  <smiles>  (59) 
[H]OC1([H])C([H])([H])C2([H])C(C([H])([H])[H])(C([H])([H])[H])C(=O)C([H])=C([H])C2(C([H])([H])[H])C2(O[H])C([H])([H])C3([H])OC([H])([H])C4([H])C([H])=C(C([H])([H])[H])C([H])([H])C3([H])C4(C([H])([H])[H])C12[H]

$$$$
18:0:1
     RDKit          3D

 62 66  0  0  1  0  0  0  0  0999 V2000
    4.2125   -0.5726   -2.8388 C   0  0  0  0  0  0  0  0  0  0  0  0
    4.3490   -1.4854   -1.6404 C   0  0  0  0  0  0  0  0  0  0  0  0
    5.1160   -1.1901   -0.5734 C   0  0  0  0  0  0  0  0  0  0  0  0
    5.2781   -2.1195    0.6141 C   0  0  2  0  0  0  0  0  0  0  0  0
    6.4926   -3.0033    0.3239 C   0  0  0  0  0  0  0  0  0  0  0  0
    6.2031   -3.8675   -0.7661 O   0  0  0  0  0  0  0  0  0  0  0  0
    5.0016   -4.6477   -0.6464 C   0  0  1  0  0  0  0  0  0  0  0  0
    5.1589   -5.7033    0.4879 C   0  0  0  0  0  0  0  0  0  0  0  0
    4.2363   -5.5416    1.7417 C   0  0  2  0  0  0  0  0  0  0  0  0
    2.9596   -5.9784    1.2976 O   0  0  0  0  0  0  0  0  0  0  0  0
    4.0697   -4.0182    2.1065 C   0  0  1  0  0  0  0  0  0  0  0  0
    4.9630   -3.6639    3.3144 C   0  0  1  0  0  0  0  0  0  0  0  0
    4.9675   -2.3026    3.6730 O   0  0  0  0  0  0  0  0  0  0  0  0
    4.4663   -4.4059    4.5565 C   0  0  0  0  0  0  0  0  0  0  0  0
    4.2332   -5.9356    4.3885 C   0  0  1  0  0  0  0  0  0  0  0  0
    2.8959   -6.4434    5.0394 C   0  0  0  0  0  0  0  0  0  0  0  0
    2.8822   -6.0671    6.5512 C   0  0  0  0  0  0  0  0  0  0  0  0
    1.6232   -5.8558    4.3884 C   0  0  0  0  0  0  0  0  0  0  0  0
    2.8059   -7.9781    4.8960 C   0  0  0  0  0  0  0  0  0  0  0  0
    2.3259   -8.6320    5.8186 O   0  0  0  0  0  0  0  0  0  0  0  0
    3.2487   -8.5864    3.6403 C   0  0  0  0  0  0  0  0  0  0  0  0
    4.0264   -7.9124    2.7682 C   0  0  0  0  0  0  0  0  0  0  0  0
    4.6231   -6.5093    2.9715 C   0  0  1  0  0  0  0  0  0  0  0  0
    6.1512   -6.8038    3.0126 C   0  0  0  0  0  0  0  0  0  0  0  0
    4.0006   -2.9833    0.8883 C   0  0  1  0  0  0  0  0  0  0  0  0
    2.7918   -2.0573    1.1919 C   0  0  0  0  0  0  0  0  0  0  0  0
    3.7794   -3.7139   -0.4647 C   0  0  1  0  0  0  0  0  0  0  0  0
    3.5582   -2.7790   -1.6855 C   0  0  0  0  0  0  0  0  0  0  0  0
    3.1627   -0.2905   -2.9826 H   0  0  0  0  0  0  0  0  0  0  0  0
    4.5592   -1.0587   -3.7487 H   0  0  0  0  0  0  0  0  0  0  0  0
    4.7704    0.3502   -2.7109 H   0  0  0  0  0  0  0  0  0  0  0  0
    5.6734   -0.2709   -0.5345 H   0  0  0  0  0  0  0  0  0  0  0  0
    5.4880   -1.4645    1.4539 H   0  0  0  0  0  0  0  0  0  0  0  0
    7.3505   -2.3890    0.0537 H   0  0  0  0  0  0  0  0  0  0  0  0
    6.8039   -3.5740    1.1904 H   0  0  0  0  0  0  0  0  0  0  0  0
    4.9114   -5.1835   -1.5892 H   0  0  0  0  0  0  0  0  0  0  0  0
    5.0000   -6.7009    0.0663 H   0  0  0  0  0  0  0  0  0  0  0  0
    6.2109   -5.6767    0.7686 H   0  0  0  0  0  0  0  0  0  0  0  0
    2.7813   -5.5556    0.4673 H   0  0  0  0  0  0  0  0  0  0  0  0
    3.0714   -3.9803    2.5449 H   0  0  0  0  0  0  0  0  0  0  0  0
    5.9942   -3.9386    3.1179 H   0  0  0  0  0  0  0  0  0  0  0  0
    4.0723   -2.0223    3.8391 H   0  0  0  0  0  0  0  0  0  0  0  0
    5.1650   -4.2438    5.3795 H   0  0  0  0  0  0  0  0  0  0  0  0
    3.5466   -3.9291    4.8894 H   0  0  0  0  0  0  0  0  0  0  0  0
    4.9753   -6.3621    5.0617 H   0  0  0  0  0  0  0  0  0  0  0  0
    2.8875   -4.9882    6.7268 H   0  0  0  0  0  0  0  0  0  0  0  0
    3.7528   -6.4837    7.0664 H   0  0  0  0  0  0  0  0  0  0  0  0
    2.0003   -6.4547    7.0661 H   0  0  0  0  0  0  0  0  0  0  0  0
    1.6047   -4.7657    4.3733 H   0  0  0  0  0  0  0  0  0  0  0  0
    0.7307   -6.1806    4.9260 H   0  0  0  0  0  0  0  0  0  0  0  0
    1.5059   -6.2040    3.3630 H   0  0  0  0  0  0  0  0  0  0  0  0
    2.8975   -9.5864    3.4386 H   0  0  0  0  0  0  0  0  0  0  0  0
    4.3003   -8.4082    1.8513 H   0  0  0  0  0  0  0  0  0  0  0  0
    6.7668   -5.9106    3.0820 H   0  0  0  0  0  0  0  0  0  0  0  0
    6.4788   -7.3682    2.1378 H   0  0  0  0  0  0  0  0  0  0  0  0
    6.4093   -7.4356    3.8631 H   0  0  0  0  0  0  0  0  0  0  0  0
    1.8558   -2.6226    1.2170 H   0  0  0  0  0  0  0  0  0  0  0  0
    2.6596   -1.2773    0.4437 H   0  0  0  0  0  0  0  0  0  0  0  0
    2.8942   -1.5475    2.1486 H   0  0  0  0  0  0  0  0  0  0  0  0
    2.8710   -4.3131   -0.4433 H   0  0  0  0  0  0  0  0  0  0  0  0
    2.5039   -2.5018   -1.7301 H   0  0  0  0  0  0  0  0  0  0  0  0
    3.7784   -3.3074   -2.6149 H   0  0  0  0  0  0  0  0  0  0  0  0
  1  2  1  0
  1 29  1  0
  1 30  1  0
  1 31  1  0
  2 28  1  0
  2  3  2  0
  3  4  1  0
  3 32  1  0
  4 25  1  0
  4  5  1  0
  4 33  1  1
  5  6  1  0
  5 34  1  0
  5 35  1  0
  6  7  1  0
  7 27  1  0
  7  8  1  0
  7 36  1  6
  8  9  1  0
  8 37  1  0
  8 38  1  0
  9 23  1  0
  9 10  1  6
  9 11  1  0
 10 39  1  0
 11 12  1  0
 11 25  1  0
 11 40  1  1
 12 13  1  0
 12 14  1  0
 12 41  1  6
 13 42  1  0
 14 15  1  0
 14 43  1  0
 14 44  1  0
 15 23  1  0
 15 16  1  0
 15 45  1  1
 16 17  1  0
 16 18  1  0
 16 19  1  0
 17 46  1  0
 17 47  1  0
 17 48  1  0
 18 49  1  0
 18 50  1  0
 18 51  1  0
 19 20  2  0
 19 21  1  0
 21 22  2  0
 21 52  1  0
 22 23  1  0
 22 53  1  0
 23 24  1  1
 24 54  1  0
 24 55  1  0
 24 56  1  0
 25 26  1  1
 25 27  1  0
 26 57  1  0
 26 58  1  0
 26 59  1  0
 27 28  1  0
 27 60  1  1
 28 61  1  0
 28 62  1  0
M  END
>  <i_m_ct_stereo_status>  (60) 
1

>  <s_m_source_file>  (60) 
/var/tmp/pbs.5076255.sched01/tmp5ffkvrn0/0o5bi62ha.sdf

>  <i_m_source_file_index>  (60) 
28

>  <i_lp_mmshare_version>  (60) 
48012

>  <i_f3d_flags>  (60) 
0

>  <s_epik_input>  (60) 
W0NIMl0xT1tDQEBIXShbQ0gyXTIpW0NAQEhdM1tDSDJdQyhbQ0gzXSk9W0NIXVtDQEhdMVtDQF0zKFtDSDNdKVtDQEBIXShbQ0BAXTI0W09IXSlbQ0BASF0oW09IXSlbQ0gyXVtDQEBIXTVbQ0BAXTQoW0NIM10pW0NIXT1bQ0hdQyg9TylDNShbQ0gzXSlbQ0gzXQ==

>  <s_epik_cmdline>  (60) 
J2VwaWtfcHl0aG9uJywgJy1waHQnLCAnMi4wJywgJy1waCcsICc3LjAnLCAnLXRuJywgJzgnLCAnLW1hJywgJzIwMCcsICctaW1hZScsICc8aW5maWxlLm1hZT4nLCAnLW9tYWUnLCAnPG91dGZpbGUubWFlPic=

>  <r_lp_tautomer_probability>  (60) 
1

>  <r_epik_Ionization_Penalty>  (60) 
6.60917e-07

>  <r_epik_Ionization_Penalty_Charging>  (60) 
0

>  <r_epik_Ionization_Penalty_Neutral>  (60) 
6.60917e-07

>  <r_epik_State_Penalty>  (60) 
-0

>  <r_epik_Charging_Adjusted_Penalty>  (60) 
0

>  <i_epik_Tot_Q>  (60) 
0

>  <i_epik_Tot_abs_Q>  (60) 
0

>  <s_lp_Force_Field>  (60) 
OPLS3e

>  <r_lp_Energy>  (60) 
76.5646

>  <b_lp_Chiralities_Consistent>  (60) 
1

>  <s_lp_Variant>  (60) 
18:0-1

>  <s_i_glide_gridfile>  (60) 
pfpi4k_grid

>  <i_i_glide_lignum>  (60) 
28

>  <i_i_glide_rotatable_bonds>  (60) 
2

>  <r_i_docking_score>  (60) 
-2.76823

>  <r_i_glide_ligand_efficiency>  (60) 
-0.0988652

>  <r_i_glide_ligand_efficiency_sa>  (60) 
-0.300213

>  <r_i_glide_ligand_efficiency_ln>  (60) 
-0.638988

>  <r_i_glide_gscore>  (60) 
-2.76823

>  <r_i_glide_lipo>  (60) 
-0.462893

>  <r_i_glide_hbond>  (60) 
0

>  <r_i_glide_metal>  (60) 
-0

>  <r_i_glide_rewards>  (60) 
-0.773698

>  <r_i_glide_evdw>  (60) 
-25.6811

>  <r_i_glide_ecoul>  (60) 
-1.64145

>  <r_i_glide_erotb>  (60) 
0

>  <r_i_glide_esite>  (60) 
-0.00136429

>  <r_i_glide_emodel>  (60) 
-31.4698

>  <r_i_glide_energy>  (60) 
-27.3225

>  <r_i_glide_einternal>  (60) 
0.189462

>  <r_i_glide_intrahb_reward>  (60) 
-0

>  <i_i_glide_confnum>  (60) 
1

>  <i_i_glide_posenum>  (60) 
16

>  <r_i_glide_eff_state_penalty>  (60) 
0

>  <ligand_id>  (60) 
18

>  <original_smiles>  (60) 
CC1=CC2COC3CC4(O)C(C(O)CC5C(C)(C)C(=O)C=CC54C)C2(C)C3C1

>  <smiles>  (60) 
[H]OC1([H])C([H])([H])C2([H])C(C([H])([H])[H])(C([H])([H])[H])C(=O)C([H])=C([H])C2(C([H])([H])[H])C2(O[H])C([H])([H])C3([H])OC([H])([H])C4([H])C([H])=C(C([H])([H])[H])C([H])([H])C3([H])C4(C([H])([H])[H])C12[H]

$$$$
18:0:2
     RDKit          3D

 62 66  0  0  1  0  0  0  0  0999 V2000
    4.2118   -0.5755   -2.8624 C   0  0  0  0  0  0  0  0  0  0  0  0
    4.3495   -1.4898   -1.6661 C   0  0  0  0  0  0  0  0  0  0  0  0
    5.1164   -1.1900   -0.6004 C   0  0  0  0  0  0  0  0  0  0  0  0
    5.2815   -2.1188    0.5870 C   0  0  2  0  0  0  0  0  0  0  0  0
    6.4955   -3.0040    0.2979 C   0  0  0  0  0  0  0  0  0  0  0  0
    6.2031   -3.8672   -0.7905 O   0  0  0  0  0  0  0  0  0  0  0  0
    5.0033   -4.6480   -0.6676 C   0  0  1  0  0  0  0  0  0  0  0  0
    5.1590   -5.7060    0.4669 C   0  0  0  0  0  0  0  0  0  0  0  0
    4.2356   -5.5466    1.7190 C   0  0  2  0  0  0  0  0  0  0  0  0
    2.9577   -5.9812    1.2795 O   0  0  0  0  0  0  0  0  0  0  0  0
    4.0710   -4.0231    2.0819 C   0  0  1  0  0  0  0  0  0  0  0  0
    4.9652   -3.6713    3.2869 C   0  0  1  0  0  0  0  0  0  0  0  0
    4.9254   -2.3136    3.6534 O   0  0  0  0  0  0  0  0  0  0  0  0
    4.4675   -4.4091    4.5326 C   0  0  0  0  0  0  0  0  0  0  0  0
    4.2322   -5.9389    4.3668 C   0  0  1  0  0  0  0  0  0  0  0  0
    2.8945   -6.4438    5.0182 C   0  0  0  0  0  0  0  0  0  0  0  0
    2.8812   -6.0664    6.5294 C   0  0  0  0  0  0  0  0  0  0  0  0
    1.6224   -5.8564    4.3663 C   0  0  0  0  0  0  0  0  0  0  0  0
    2.8044   -7.9789    4.8760 C   0  0  0  0  0  0  0  0  0  0  0  0
    2.3246   -8.6325    5.7980 O   0  0  0  0  0  0  0  0  0  0  0  0
    3.2472   -8.5874    3.6210 C   0  0  0  0  0  0  0  0  0  0  0  0
    4.0259   -7.9153    2.7481 C   0  0  0  0  0  0  0  0  0  0  0  0
    4.6226   -6.5126    2.9496 C   0  0  1  0  0  0  0  0  0  0  0  0
    6.1508   -6.8074    2.9919 C   0  0  0  0  0  0  0  0  0  0  0  0
    4.0033   -2.9857    0.8641 C   0  0  1  0  0  0  0  0  0  0  0  0
    2.7960   -2.0595    1.1676 C   0  0  0  0  0  0  0  0  0  0  0  0
    3.7807   -3.7169   -0.4878 C   0  0  1  0  0  0  0  0  0  0  0  0
    3.5597   -2.7832   -1.7098 C   0  0  0  0  0  0  0  0  0  0  0  0
    3.1617   -0.2950   -3.0078 H   0  0  0  0  0  0  0  0  0  0  0  0
    4.5612   -1.0614   -3.7726 H   0  0  0  0  0  0  0  0  0  0  0  0
    4.7695    0.3464   -2.7209 H   0  0  0  0  0  0  0  0  0  0  0  0
    5.6643   -0.2602   -0.5635 H   0  0  0  0  0  0  0  0  0  0  0  0
    5.4935   -1.4520    1.4154 H   0  0  0  0  0  0  0  0  0  0  0  0
    7.3553   -2.3926    0.0279 H   0  0  0  0  0  0  0  0  0  0  0  0
    6.8046   -3.5772    1.1636 H   0  0  0  0  0  0  0  0  0  0  0  0
    4.9143   -5.1852   -1.6107 H   0  0  0  0  0  0  0  0  0  0  0  0
    4.9971   -6.7022    0.0453 H   0  0  0  0  0  0  0  0  0  0  0  0
    6.2106   -5.6812    0.7476 H   0  0  0  0  0  0  0  0  0  0  0  0
    2.7773   -5.5562    0.4495 H   0  0  0  0  0  0  0  0  0  0  0  0
    3.0745   -3.9809    2.5239 H   0  0  0  0  0  0  0  0  0  0  0  0
    5.9972   -3.9359    3.0943 H   0  0  0  0  0  0  0  0  0  0  0  0
    5.2711   -1.8023    2.9286 H   0  0  0  0  0  0  0  0  0  0  0  0
    5.1647   -4.2416    5.3552 H   0  0  0  0  0  0  0  0  0  0  0  0
    3.5494   -3.9263    4.8593 H   0  0  0  0  0  0  0  0  0  0  0  0
    4.9746   -6.3624    5.0411 H   0  0  0  0  0  0  0  0  0  0  0  0
    2.8868   -4.9871    6.7029 H   0  0  0  0  0  0  0  0  0  0  0  0
    3.7517   -6.4829    7.0450 H   0  0  0  0  0  0  0  0  0  0  0  0
    1.9990   -6.4532    7.0438 H   0  0  0  0  0  0  0  0  0  0  0  0
    1.6053   -4.7661    4.3506 H   0  0  0  0  0  0  0  0  0  0  0  0
    0.7303   -6.1802    4.9041 H   0  0  0  0  0  0  0  0  0  0  0  0
    1.5049   -6.2052    3.3410 H   0  0  0  0  0  0  0  0  0  0  0  0
    2.8961   -9.5876    3.4192 H   0  0  0  0  0  0  0  0  0  0  0  0
    4.2990   -8.4115    1.8318 H   0  0  0  0  0  0  0  0  0  0  0  0
    6.7668   -5.9144    3.0609 H   0  0  0  0  0  0  0  0  0  0  0  0
    6.4780   -7.3722    2.1172 H   0  0  0  0  0  0  0  0  0  0  0  0
    6.4081   -7.4384    3.8430 H   0  0  0  0  0  0  0  0  0  0  0  0
    1.8597   -2.6243    1.1905 H   0  0  0  0  0  0  0  0  0  0  0  0
    2.6671   -1.2783    0.4201 H   0  0  0  0  0  0  0  0  0  0  0  0
    2.8957   -1.5542    2.1273 H   0  0  0  0  0  0  0  0  0  0  0  0
    2.8730   -4.3161   -0.4655 H   0  0  0  0  0  0  0  0  0  0  0  0
    2.5049   -2.5061   -1.7547 H   0  0  0  0  0  0  0  0  0  0  0  0
    3.7794   -3.3131   -2.6389 H   0  0  0  0  0  0  0  0  0  0  0  0
  1  2  1  0
  1 29  1  0
  1 30  1  0
  1 31  1  0
  2 28  1  0
  2  3  2  0
  3  4  1  0
  3 32  1  0
  4 25  1  0
  4  5  1  0
  4 33  1  1
  5  6  1  0
  5 34  1  0
  5 35  1  0
  6  7  1  0
  7 27  1  0
  7  8  1  0
  7 36  1  6
  8  9  1  0
  8 37  1  0
  8 38  1  0
  9 23  1  0
  9 10  1  6
  9 11  1  0
 10 39  1  0
 11 12  1  0
 11 25  1  0
 11 40  1  1
 12 13  1  0
 12 14  1  0
 12 41  1  6
 13 42  1  0
 14 15  1  0
 14 43  1  0
 14 44  1  0
 15 23  1  0
 15 16  1  0
 15 45  1  1
 16 17  1  0
 16 18  1  0
 16 19  1  0
 17 46  1  0
 17 47  1  0
 17 48  1  0
 18 49  1  0
 18 50  1  0
 18 51  1  0
 19 20  2  0
 19 21  1  0
 21 22  2  0
 21 52  1  0
 22 23  1  0
 22 53  1  0
 23 24  1  1
 24 54  1  0
 24 55  1  0
 24 56  1  0
 25 26  1  1
 25 27  1  0
 26 57  1  0
 26 58  1  0
 26 59  1  0
 27 28  1  0
 27 60  1  1
 28 61  1  0
 28 62  1  0
M  END
>  <i_m_ct_stereo_status>  (61) 
1

>  <s_m_source_file>  (61) 
/var/tmp/pbs.5076255.sched01/tmp5ffkvrn0/0o5bi62ha.sdf

>  <i_m_source_file_index>  (61) 
28

>  <i_lp_mmshare_version>  (61) 
48012

>  <i_f3d_flags>  (61) 
0

>  <s_epik_input>  (61) 
W0NIMl0xT1tDQEBIXShbQ0gyXTIpW0NAQEhdM1tDSDJdQyhbQ0gzXSk9W0NIXVtDQEhdMVtDQF0zKFtDSDNdKVtDQEBIXShbQ0BAXTI0W09IXSlbQ0BASF0oW09IXSlbQ0gyXVtDQEBIXTVbQ0BAXTQoW0NIM10pW0NIXT1bQ0hdQyg9TylDNShbQ0gzXSlbQ0gzXQ==

>  <s_epik_cmdline>  (61) 
J2VwaWtfcHl0aG9uJywgJy1waHQnLCAnMi4wJywgJy1waCcsICc3LjAnLCAnLXRuJywgJzgnLCAnLW1hJywgJzIwMCcsICctaW1hZScsICc8aW5maWxlLm1hZT4nLCAnLW9tYWUnLCAnPG91dGZpbGUubWFlPic=

>  <r_lp_tautomer_probability>  (61) 
1

>  <r_epik_Ionization_Penalty>  (61) 
6.60917e-07

>  <r_epik_Ionization_Penalty_Charging>  (61) 
0

>  <r_epik_Ionization_Penalty_Neutral>  (61) 
6.60917e-07

>  <r_epik_State_Penalty>  (61) 
-0

>  <r_epik_Charging_Adjusted_Penalty>  (61) 
0

>  <i_epik_Tot_Q>  (61) 
0

>  <i_epik_Tot_abs_Q>  (61) 
0

>  <s_lp_Force_Field>  (61) 
OPLS3e

>  <r_lp_Energy>  (61) 
76.5646

>  <b_lp_Chiralities_Consistent>  (61) 
1

>  <s_lp_Variant>  (61) 
18:0-1

>  <s_i_glide_gridfile>  (61) 
pfpi4k_grid

>  <i_i_glide_lignum>  (61) 
28

>  <i_i_glide_rotatable_bonds>  (61) 
2

>  <r_i_docking_score>  (61) 
-2.74244

>  <r_i_glide_ligand_efficiency>  (61) 
-0.0979445

>  <r_i_glide_ligand_efficiency_sa>  (61) 
-0.297417

>  <r_i_glide_ligand_efficiency_ln>  (61) 
-0.633037

>  <r_i_glide_gscore>  (61) 
-2.74244

>  <r_i_glide_lipo>  (61) 
-0.464026

>  <r_i_glide_hbond>  (61) 
0

>  <r_i_glide_metal>  (61) 
-0

>  <r_i_glide_rewards>  (61) 
-0.773698

>  <r_i_glide_evdw>  (61) 
-25.6866

>  <r_i_glide_ecoul>  (61) 
-1.46026

>  <r_i_glide_erotb>  (61) 
0

>  <r_i_glide_esite>  (61) 
-0.00135435

>  <r_i_glide_emodel>  (61) 
-31.1162

>  <r_i_glide_energy>  (61) 
-27.1468

>  <r_i_glide_einternal>  (61) 
0.502247

>  <r_i_glide_intrahb_reward>  (61) 
-0

>  <i_i_glide_confnum>  (61) 
1

>  <i_i_glide_posenum>  (61) 
33

>  <r_i_glide_eff_state_penalty>  (61) 
0

>  <ligand_id>  (61) 
18

>  <original_smiles>  (61) 
CC1=CC2COC3CC4(O)C(C(O)CC5C(C)(C)C(=O)C=CC54C)C2(C)C3C1

>  <smiles>  (61) 
[H]OC1([H])C([H])([H])C2([H])C(C([H])([H])[H])(C([H])([H])[H])C(=O)C([H])=C([H])C2(C([H])([H])[H])C2(O[H])C([H])([H])C3([H])OC([H])([H])C4([H])C([H])=C(C([H])([H])[H])C([H])([H])C3([H])C4(C([H])([H])[H])C12[H]

$$$$
19:0:0
     RDKit          3D

 53 57  0  0  1  0  0  0  0  0999 V2000
    1.9784   -3.3133   -3.4113 C   0  0  0  0  0  0  0  0  0  0  0  0
    3.3727   -3.2207   -3.0499 N   0  0  0  0  0  0  0  0  0  0  0  0
    4.2846   -3.4492   -4.0024 N   0  0  0  0  0  0  0  0  0  0  0  0
    5.4232   -3.4613   -3.3559 C   0  0  0  0  0  0  0  0  0  0  0  0
    5.2675   -3.2775   -1.9615 C   0  0  0  0  0  0  0  0  0  0  0  0
    3.9378   -3.1168   -1.8046 C   0  0  0  0  0  0  0  0  0  0  0  0
    3.1992   -3.0040   -0.5536 C   0  0  0  0  0  0  0  0  0  0  0  0
    2.0913   -3.5508   -0.4783 O   0  0  0  0  0  0  0  0  0  0  0  0
    3.7855   -2.2274    0.6528 C   0  0  1  0  0  0  0  0  0  0  0  0
    4.0803   -0.7965    0.1177 C   0  0  0  0  0  0  0  0  0  0  0  0
    2.7237   -2.1913    1.8128 C   0  0  2  0  0  0  0  0  0  0  0  0
    3.1284   -1.2458    2.9639 C   0  0  0  0  0  0  0  0  0  0  0  0
    4.4852   -1.6552    3.5220 C   0  0  0  0  0  0  0  0  0  0  0  0
    5.4979   -1.9234    2.3995 C   0  0  0  0  0  0  0  0  0  0  0  0
    5.0464   -2.9018    1.2829 C   0  0  1  0  0  0  0  0  0  0  0  0
    4.7548   -4.2999    1.8533 C   0  0  1  0  0  0  0  0  0  0  0  0
    3.3098   -4.7610    2.0083 C   0  0  0  0  0  0  0  0  0  0  0  0
    2.3804   -3.6031    2.4114 C   0  0  0  0  0  0  0  0  0  0  0  0
    5.6921   -4.9950    0.8676 C   0  0  0  0  0  0  0  0  0  0  0  0
    6.7244   -5.9623    1.5147 C   0  0  0  0  0  0  0  0  0  0  0  0
    5.0091   -5.8769   -0.1662 C   0  0  0  0  0  0  0  0  0  0  0  0
    6.2255   -3.5591    0.4601 C   0  0  2  0  0  0  0  0  0  0  0  0
    7.6535   -3.2920    0.9695 C   0  0  0  0  0  0  0  0  0  0  0  0
    6.3676   -3.1732   -1.0418 C   0  0  0  0  0  0  0  0  0  0  0  0
    7.4143   -2.7147   -1.4966 O   0  0  0  0  0  0  0  0  0  0  0  0
    1.4501   -2.4198   -3.0943 H   0  0  0  0  0  0  0  0  0  0  0  0
    1.6401   -4.1595   -2.8091 H   0  0  0  0  0  0  0  0  0  0  0  0
    1.8341   -3.4890   -4.4851 H   0  0  0  0  0  0  0  0  0  0  0  0
    6.3308   -3.5959   -3.9169 H   0  0  0  0  0  0  0  0  0  0  0  0
    4.4306   -0.0752    0.8586 H   0  0  0  0  0  0  0  0  0  0  0  0
    3.1340   -0.4183   -0.2441 H   0  0  0  0  0  0  0  0  0  0  0  0
    4.7944   -0.7753   -0.7083 H   0  0  0  0  0  0  0  0  0  0  0  0
    1.8032   -1.7601    1.4105 H   0  0  0  0  0  0  0  0  0  0  0  0
    3.1932   -0.2141    2.6208 H   0  0  0  0  0  0  0  0  0  0  0  0
    2.3807   -1.2357    3.7597 H   0  0  0  0  0  0  0  0  0  0  0  0
    4.8770   -0.8919    4.1942 H   0  0  0  0  0  0  0  0  0  0  0  0
    4.3750   -2.5565    4.1286 H   0  0  0  0  0  0  0  0  0  0  0  0
    5.9383   -0.9961    2.0111 H   0  0  0  0  0  0  0  0  0  0  0  0
    6.2734   -2.4215    2.9441 H   0  0  0  0  0  0  0  0  0  0  0  0
    5.2481   -4.3528    2.8233 H   0  0  0  0  0  0  0  0  0  0  0  0
    2.9051   -5.1769    1.0737 H   0  0  0  0  0  0  0  0  0  0  0  0
    3.2024   -5.5893    2.7015 H   0  0  0  0  0  0  0  0  0  0  0  0
    2.3582   -3.5502    3.4995 H   0  0  0  0  0  0  0  0  0  0  0  0
    1.3807   -3.8915    2.1081 H   0  0  0  0  0  0  0  0  0  0  0  0
    7.5643   -6.1733    0.8560 H   0  0  0  0  0  0  0  0  0  0  0  0
    6.2812   -6.9138    1.8026 H   0  0  0  0  0  0  0  0  0  0  0  0
    7.1376   -5.5674    2.4447 H   0  0  0  0  0  0  0  0  0  0  0  0
    5.7558   -6.0080   -0.9156 H   0  0  0  0  0  0  0  0  0  0  0  0
    4.1610   -5.4263   -0.6636 H   0  0  0  0  0  0  0  0  0  0  0  0
    4.7013   -6.8481    0.2389 H   0  0  0  0  0  0  0  0  0  0  0  0
    7.7545   -3.6250    1.9865 H   0  0  0  0  0  0  0  0  0  0  0  0
    7.9189   -2.2445    0.8805 H   0  0  0  0  0  0  0  0  0  0  0  0
    8.4092   -3.8440    0.4214 H   0  0  0  0  0  0  0  0  0  0  0  0
  1  2  1  0
  1 26  1  0
  1 27  1  0
  1 28  1  0
  2  6  1  0
  2  3  1  0
  3  4  2  0
  4  5  1  0
  4 29  1  0
  5 24  1  0
  5  6  2  0
  6  7  1  0
  7  8  2  0
  7  9  1  0
  9 15  1  0
  9 10  1  6
  9 11  1  0
 10 30  1  0
 10 31  1  0
 10 32  1  0
 11 18  1  0
 11 12  1  0
 11 33  1  6
 12 13  1  0
 12 34  1  0
 12 35  1  0
 13 14  1  0
 13 36  1  0
 13 37  1  0
 15 14  1  1
 14 38  1  0
 14 39  1  0
 15 22  1  0
 15 16  1  0
 16 17  1  0
 16 19  1  0
 16 40  1  1
 17 18  1  0
 17 41  1  0
 17 42  1  0
 18 43  1  0
 18 44  1  0
 19 20  1  0
 19 21  1  0
 19 22  1  0
 20 45  1  0
 20 46  1  0
 20 47  1  0
 21 48  1  0
 21 49  1  0
 21 50  1  0
 22 23  1  1
 22 24  1  0
 23 51  1  0
 23 52  1  0
 23 53  1  0
 24 25  2  0
M  END
>  <i_m_ct_stereo_status>  (62) 
1

>  <s_m_source_file>  (62) 
/var/tmp/pbs.5076255.sched01/tmp5ffkvrn0/0o5bi62ha.sdf

>  <i_m_source_file_index>  (62) 
29

>  <i_lp_mmshare_version>  (62) 
48012

>  <i_f3d_flags>  (62) 
0

>  <s_epik_input>  (62) 
W2NIXTFubihbQ0gzXSljKEMyPU8pYzFDKD1PKVtDQF0zKFtDSDNdKUMoW0NIM10pKFtDSDNdKVtDQEBIXTRbQ0gyXVtDSDJdW0NASF0oW0NAXTIoW0NAXTM0NSlbQ0gzXSlbQ0gyXVtDSDJdW0NIMl01

>  <s_epik_cmdline>  (62) 
J2VwaWtfcHl0aG9uJywgJy1waHQnLCAnMi4wJywgJy1waCcsICc3LjAnLCAnLXRuJywgJzgnLCAnLW1hJywgJzIwMCcsICctaW1hZScsICc8aW5maWxlLm1hZT4nLCAnLW9tYWUnLCAnPG91dGZpbGUubWFlPic=

>  <r_lp_tautomer_probability>  (62) 
1

>  <r_epik_Ionization_Penalty>  (62) 
8.32788e-08

>  <r_epik_Ionization_Penalty_Charging>  (62) 
0

>  <r_epik_Ionization_Penalty_Neutral>  (62) 
8.32788e-08

>  <r_epik_State_Penalty>  (62) 
-0

>  <r_epik_Charging_Adjusted_Penalty>  (62) 
0

>  <i_epik_Tot_Q>  (62) 
0

>  <i_epik_Tot_abs_Q>  (62) 
0

>  <s_lp_Force_Field>  (62) 
OPLS3e

>  <r_lp_Energy>  (62) 
67.3255

>  <b_lp_Chiralities_Consistent>  (62) 
1

>  <s_lp_Variant>  (62) 
19:0-1

>  <s_i_glide_gridfile>  (62) 
pfpi4k_grid

>  <i_i_glide_lignum>  (62) 
29

>  <i_i_glide_rotatable_bonds>  (62) 
0

>  <r_i_docking_score>  (62) 
-3.89477

>  <r_i_glide_ligand_efficiency>  (62) 
-0.155791

>  <r_i_glide_ligand_efficiency_sa>  (62) 
-0.455535

>  <r_i_glide_ligand_efficiency_ln>  (62) 
-0.923178

>  <r_i_glide_gscore>  (62) 
-3.89477

>  <r_i_glide_lipo>  (62) 
-1.0462

>  <r_i_glide_hbond>  (62) 
-0.172387

>  <r_i_glide_metal>  (62) 
-0

>  <r_i_glide_rewards>  (62) 
-1.23688

>  <r_i_glide_evdw>  (62) 
-14.8979

>  <r_i_glide_ecoul>  (62) 
-4.54664

>  <r_i_glide_erotb>  (62) 
0

>  <r_i_glide_esite>  (62) 
-0.0124181

>  <r_i_glide_emodel>  (62) 
-17.9027

>  <r_i_glide_energy>  (62) 
-19.4446

>  <r_i_glide_einternal>  (62) 
0

>  <r_i_glide_intrahb_reward>  (62) 
-0

>  <i_i_glide_confnum>  (62) 
2

>  <i_i_glide_posenum>  (62) 
26

>  <r_i_glide_eff_state_penalty>  (62) 
0

>  <ligand_id>  (62) 
19

>  <original_smiles>  (62) 
Cn1ncc2c1C(=O)C1(C)C3CCCC14C(CC3)C(C)(C)C4(C)C2=O

>  <smiles>  (62) 
[H]c1nn(C([H])([H])[H])c2c1C(=O)C1(C([H])([H])[H])C(C([H])([H])[H])(C([H])([H])[H])C3([H])C([H])([H])C([H])([H])C4([H])C([H])([H])C([H])([H])C([H])([H])C31C4(C([H])([H])[H])C2=O

$$$$
19:0:1
     RDKit          3D

 53 57  0  0  1  0  0  0  0  0999 V2000
    1.6151    0.9597    2.2801 C   0  0  0  0  0  0  0  0  0  0  0  0
    1.6023   -0.4876    2.4485 N   0  0  0  0  0  0  0  0  0  0  0  0
    0.7129   -1.0030    3.3200 N   0  0  0  0  0  0  0  0  0  0  0  0
    0.9189   -2.3045    3.2937 C   0  0  0  0  0  0  0  0  0  0  0  0
    1.9859   -2.6703    2.4362 C   0  0  0  0  0  0  0  0  0  0  0  0
    2.3703   -1.4857    1.8588 C   0  0  0  0  0  0  0  0  0  0  0  0
    3.4188   -1.2496    0.8803 C   0  0  0  0  0  0  0  0  0  0  0  0
    3.9289   -0.1195    0.8422 O   0  0  0  0  0  0  0  0  0  0  0  0
    3.8978   -2.3379   -0.1322 C   0  0  1  0  0  0  0  0  0  0  0  0
    2.7075   -2.6231   -1.0864 C   0  0  0  0  0  0  0  0  0  0  0  0
    5.0736   -1.7142   -0.9744 C   0  0  2  0  0  0  0  0  0  0  0  0
    5.3990   -2.6060   -2.1831 C   0  0  0  0  0  0  0  0  0  0  0  0
    5.7271   -4.0151   -1.7482 C   0  0  0  0  0  0  0  0  0  0  0  0
    4.7591   -4.5906   -0.7001 C   0  0  0  0  0  0  0  0  0  0  0  0
    4.4502   -3.6699    0.5078 C   0  0  1  0  0  0  0  0  0  0  0  0
    5.6894   -3.4498    1.3695 C   0  0  1  0  0  0  0  0  0  0  0  0
    6.3605   -2.0804    1.2781 C   0  0  0  0  0  0  0  0  0  0  0  0
    6.3619   -1.4506   -0.1349 C   0  0  0  0  0  0  0  0  0  0  0  0
    5.0036   -3.9475    2.6614 C   0  0  0  0  0  0  0  0  0  0  0  0
    5.7751   -5.0565    3.4140 C   0  0  0  0  0  0  0  0  0  0  0  0
    4.7467   -2.8945    3.7507 C   0  0  0  0  0  0  0  0  0  0  0  0
    3.8152   -4.4305    1.7444 C   0  0  2  0  0  0  0  0  0  0  0  0
    3.7449   -5.9874    1.5850 C   0  0  0  0  0  0  0  0  0  0  0  0
    2.3902   -4.0680    2.1985 C   0  0  0  0  0  0  0  0  0  0  0  0
    1.5276   -4.9286    2.4171 O   0  0  0  0  0  0  0  0  0  0  0  0
    1.5743    1.2216    1.2267 H   0  0  0  0  0  0  0  0  0  0  0  0
    2.5319    1.3577    2.7082 H   0  0  0  0  0  0  0  0  0  0  0  0
    0.7673    1.4355    2.7825 H   0  0  0  0  0  0  0  0  0  0  0  0
    0.2821   -2.9426    3.8911 H   0  0  0  0  0  0  0  0  0  0  0  0
    2.8329   -3.3670   -1.8792 H   0  0  0  0  0  0  0  0  0  0  0  0
    2.5826   -1.6914   -1.6299 H   0  0  0  0  0  0  0  0  0  0  0  0
    1.8217   -2.9137   -0.5216 H   0  0  0  0  0  0  0  0  0  0  0  0
    4.7560   -0.7646   -1.4165 H   0  0  0  0  0  0  0  0  0  0  0  0
    4.5781   -2.6345   -2.9019 H   0  0  0  0  0  0  0  0  0  0  0  0
    6.2613   -2.2483   -2.7297 H   0  0  0  0  0  0  0  0  0  0  0  0
    5.7467   -4.6569   -2.6236 H   0  0  0  0  0  0  0  0  0  0  0  0
    6.7184   -3.9583   -1.2879 H   0  0  0  0  0  0  0  0  0  0  0  0
    3.8131   -4.9276   -1.1098 H   0  0  0  0  0  0  0  0  0  0  0  0
    5.2497   -5.5115   -0.4038 H   0  0  0  0  0  0  0  0  0  0  0  0
    6.4147   -4.2112    1.0736 H   0  0  0  0  0  0  0  0  0  0  0  0
    5.9252   -1.3488    1.9633 H   0  0  0  0  0  0  0  0  0  0  0  0
    7.3767   -2.1631    1.6043 H   0  0  0  0  0  0  0  0  0  0  0  0
    7.2359   -1.8218   -0.6730 H   0  0  0  0  0  0  0  0  0  0  0  0
    6.4988   -0.3720   -0.0244 H   0  0  0  0  0  0  0  0  0  0  0  0
    5.0983   -5.5999    4.0801 H   0  0  0  0  0  0  0  0  0  0  0  0
    6.6187   -4.6969    3.9971 H   0  0  0  0  0  0  0  0  0  0  0  0
    6.2122   -5.7750    2.7217 H   0  0  0  0  0  0  0  0  0  0  0  0
    4.0634   -3.2720    4.5114 H   0  0  0  0  0  0  0  0  0  0  0  0
    4.3437   -1.9630    3.3716 H   0  0  0  0  0  0  0  0  0  0  0  0
    5.6756   -2.6155    4.2410 H   0  0  0  0  0  0  0  0  0  0  0  0
    4.7021   -6.4638    1.3635 H   0  0  0  0  0  0  0  0  0  0  0  0
    3.0541   -6.3016    0.7956 H   0  0  0  0  0  0  0  0  0  0  0  0
    3.4129   -6.4705    2.5064 H   0  0  0  0  0  0  0  0  0  0  0  0
  1  2  1  0
  1 26  1  0
  1 27  1  0
  1 28  1  0
  2  6  1  0
  2  3  1  0
  3  4  2  0
  4  5  1  0
  4 29  1  0
  5 24  1  0
  5  6  2  0
  6  7  1  0
  7  8  2  0
  7  9  1  0
  9 15  1  0
  9 10  1  6
  9 11  1  0
 10 30  1  0
 10 31  1  0
 10 32  1  0
 11 18  1  0
 11 12  1  0
 11 33  1  6
 12 13  1  0
 12 34  1  0
 12 35  1  0
 13 14  1  0
 13 36  1  0
 13 37  1  0
 15 14  1  6
 14 38  1  0
 14 39  1  0
 15 22  1  0
 15 16  1  0
 16 17  1  0
 16 19  1  0
 16 40  1  6
 17 18  1  0
 17 41  1  0
 17 42  1  0
 18 43  1  0
 18 44  1  0
 19 20  1  0
 19 21  1  0
 19 22  1  0
 20 45  1  0
 20 46  1  0
 20 47  1  0
 21 48  1  0
 21 49  1  0
 21 50  1  0
 22 23  1  6
 22 24  1  0
 23 51  1  0
 23 52  1  0
 23 53  1  0
 24 25  2  0
M  END
>  <i_m_ct_stereo_status>  (63) 
1

>  <s_m_source_file>  (63) 
/var/tmp/pbs.5076255.sched01/tmp5ffkvrn0/0o5bi62ha.sdf

>  <i_m_source_file_index>  (63) 
29

>  <i_lp_mmshare_version>  (63) 
48012

>  <i_f3d_flags>  (63) 
0

>  <s_epik_input>  (63) 
W2NIXTFubihbQ0gzXSljKEMyPU8pYzFDKD1PKVtDQF0zKFtDSDNdKUMoW0NIM10pKFtDSDNdKVtDQEBIXTRbQ0gyXVtDSDJdW0NASF0oW0NAXTIoW0NAXTM0NSlbQ0gzXSlbQ0gyXVtDSDJdW0NIMl01

>  <s_epik_cmdline>  (63) 
J2VwaWtfcHl0aG9uJywgJy1waHQnLCAnMi4wJywgJy1waCcsICc3LjAnLCAnLXRuJywgJzgnLCAnLW1hJywgJzIwMCcsICctaW1hZScsICc8aW5maWxlLm1hZT4nLCAnLW9tYWUnLCAnPG91dGZpbGUubWFlPic=

>  <r_lp_tautomer_probability>  (63) 
1

>  <r_epik_Ionization_Penalty>  (63) 
8.32788e-08

>  <r_epik_Ionization_Penalty_Charging>  (63) 
0

>  <r_epik_Ionization_Penalty_Neutral>  (63) 
8.32788e-08

>  <r_epik_State_Penalty>  (63) 
-0

>  <r_epik_Charging_Adjusted_Penalty>  (63) 
0

>  <i_epik_Tot_Q>  (63) 
0

>  <i_epik_Tot_abs_Q>  (63) 
0

>  <s_lp_Force_Field>  (63) 
OPLS3e

>  <r_lp_Energy>  (63) 
67.3255

>  <b_lp_Chiralities_Consistent>  (63) 
1

>  <s_lp_Variant>  (63) 
19:0-1

>  <s_i_glide_gridfile>  (63) 
pfpi4k_grid

>  <i_i_glide_lignum>  (63) 
29

>  <i_i_glide_rotatable_bonds>  (63) 
0

>  <r_i_docking_score>  (63) 
-2.45196

>  <r_i_glide_ligand_efficiency>  (63) 
-0.0980783

>  <r_i_glide_ligand_efficiency_sa>  (63) 
-0.286783

>  <r_i_glide_ligand_efficiency_ln>  (63) 
-0.581188

>  <r_i_glide_gscore>  (63) 
-2.45196

>  <r_i_glide_lipo>  (63) 
-0.443034

>  <r_i_glide_hbond>  (63) 
-0.00864444

>  <r_i_glide_metal>  (63) 
-0

>  <r_i_glide_rewards>  (63) 
-1.08778

>  <r_i_glide_evdw>  (63) 
-13.1026

>  <r_i_glide_ecoul>  (63) 
-1.09874

>  <r_i_glide_erotb>  (63) 
0

>  <r_i_glide_esite>  (63) 
-0.0925615

>  <r_i_glide_emodel>  (63) 
-13.5395

>  <r_i_glide_energy>  (63) 
-14.2013

>  <r_i_glide_einternal>  (63) 
0

>  <r_i_glide_intrahb_reward>  (63) 
-0

>  <i_i_glide_confnum>  (63) 
2

>  <i_i_glide_posenum>  (63) 
40

>  <r_i_glide_eff_state_penalty>  (63) 
0

>  <ligand_id>  (63) 
19

>  <original_smiles>  (63) 
Cn1ncc2c1C(=O)C1(C)C3CCCC14C(CC3)C(C)(C)C4(C)C2=O

>  <smiles>  (63) 
[H]c1nn(C([H])([H])[H])c2c1C(=O)C1(C([H])([H])[H])C(C([H])([H])[H])(C([H])([H])[H])C3([H])C([H])([H])C([H])([H])C4([H])C([H])([H])C([H])([H])C([H])([H])C31C4(C([H])([H])[H])C2=O

$$$$
19:0:2
     RDKit          3D

 53 57  0  0  1  0  0  0  0  0999 V2000
    2.0701   -3.1887   -3.0249 C   0  0  0  0  0  0  0  0  0  0  0  0
    3.0819   -2.6423   -2.1172 N   0  0  0  0  0  0  0  0  0  0  0  0
    3.9139   -1.7084   -2.6388 N   0  0  0  0  0  0  0  0  0  0  0  0
    4.6940   -1.3478   -1.6408 C   0  0  0  0  0  0  0  0  0  0  0  0
    4.3875   -2.0524   -0.4607 C   0  0  0  0  0  0  0  0  0  0  0  0
    3.3162   -2.8637   -0.7688 C   0  0  0  0  0  0  0  0  0  0  0  0
    2.5530   -3.7647    0.0905 C   0  0  0  0  0  0  0  0  0  0  0  0
    1.8996   -4.6609   -0.4560 O   0  0  0  0  0  0  0  0  0  0  0  0
    2.4300   -3.6117    1.6415 C   0  0  1  0  0  0  0  0  0  0  0  0
    1.8107   -2.1704    1.8523 C   0  0  0  0  0  0  0  0  0  0  0  0
    1.5806   -4.8600    2.2075 C   0  0  2  0  0  0  0  0  0  0  0  0
    1.2269   -4.5949    3.6903 C   0  0  0  0  0  0  0  0  0  0  0  0
    2.4696   -4.3728    4.5674 C   0  0  0  0  0  0  0  0  0  0  0  0
    3.4588   -3.3917    3.9205 C   0  0  0  0  0  0  0  0  0  0  0  0
    3.7993   -3.6792    2.4091 C   0  0  1  0  0  0  0  0  0  0  0  0
    4.5443   -5.0141    2.2352 C   0  0  1  0  0  0  0  0  0  0  0  0
    3.8115   -6.2095    1.6221 C   0  0  0  0  0  0  0  0  0  0  0  0
    2.3309   -6.2454    2.0616 C   0  0  0  0  0  0  0  0  0  0  0  0
    5.7278   -4.3535    1.4994 C   0  0  0  0  0  0  0  0  0  0  0  0
    7.0698   -4.7887    2.1406 C   0  0  0  0  0  0  0  0  0  0  0  0
    5.9543   -4.7099    0.0099 C   0  0  0  0  0  0  0  0  0  0  0  0
    5.0971   -2.9347    1.8832 C   0  0  2  0  0  0  0  0  0  0  0  0
    5.8247   -2.1934    3.0156 C   0  0  0  0  0  0  0  0  0  0  0  0
    5.0312   -1.8301    0.7866 C   0  0  0  0  0  0  0  0  0  0  0  0
    5.5477   -0.7198    0.9237 O   0  0  0  0  0  0  0  0  0  0  0  0
    1.0894   -3.0850   -2.5729 H   0  0  0  0  0  0  0  0  0  0  0  0
    2.2655   -4.2214   -3.2109 H   0  0  0  0  0  0  0  0  0  0  0  0
    2.0639   -2.6646   -3.9863 H   0  0  0  0  0  0  0  0  0  0  0  0
    5.4428   -0.5790   -1.7818 H   0  0  0  0  0  0  0  0  0  0  0  0
    1.5407   -1.9532    2.8963 H   0  0  0  0  0  0  0  0  0  0  0  0
    0.8901   -2.0342    1.2845 H   0  0  0  0  0  0  0  0  0  0  0  0
    2.4445   -1.3458    1.4816 H   0  0  0  0  0  0  0  0  0  0  0  0
    0.6471   -5.0448    1.6996 H   0  0  0  0  0  0  0  0  0  0  0  0
    0.5897   -3.7185    3.7582 H   0  0  0  0  0  0  0  0  0  0  0  0
    0.6393   -5.4141    4.0969 H   0  0  0  0  0  0  0  0  0  0  0  0
    2.1793   -4.0108    5.5633 H   0  0  0  0  0  0  0  0  0  0  0  0
    2.9639   -5.3252    4.7052 H   0  0  0  0  0  0  0  0  0  0  0  0
    3.1398   -2.3539    4.0788 H   0  0  0  0  0  0  0  0  0  0  0  0
    4.3285   -3.4915    4.5656 H   0  0  0  0  0  0  0  0  0  0  0  0
    4.8721   -5.2986    3.2317 H   0  0  0  0  0  0  0  0  0  0  0  0
    3.8197   -6.1750    0.5243 H   0  0  0  0  0  0  0  0  0  0  0  0
    4.2766   -7.1619    1.8875 H   0  0  0  0  0  0  0  0  0  0  0  0
    2.2142   -6.8374    2.9780 H   0  0  0  0  0  0  0  0  0  0  0  0
    1.7896   -6.7879    1.2872 H   0  0  0  0  0  0  0  0  0  0  0  0
    7.8556   -4.0966    1.8679 H   0  0  0  0  0  0  0  0  0  0  0  0
    7.3789   -5.7799    1.7947 H   0  0  0  0  0  0  0  0  0  0  0  0
    7.0296   -4.8446    3.2326 H   0  0  0  0  0  0  0  0  0  0  0  0
    6.7035   -4.0461   -0.4294 H   0  0  0  0  0  0  0  0  0  0  0  0
    5.0520   -4.6642   -0.5823 H   0  0  0  0  0  0  0  0  0  0  0  0
    6.3045   -5.7333   -0.0782 H   0  0  0  0  0  0  0  0  0  0  0  0
    6.1838   -2.8483    3.8048 H   0  0  0  0  0  0  0  0  0  0  0  0
    5.2466   -1.3761    3.4579 H   0  0  0  0  0  0  0  0  0  0  0  0
    6.7145   -1.7733    2.5709 H   0  0  0  0  0  0  0  0  0  0  0  0
  1  2  1  0
  1 26  1  0
  1 27  1  0
  1 28  1  0
  2  6  1  0
  2  3  1  0
  3  4  2  0
  4  5  1  0
  4 29  1  0
  5 24  1  0
  5  6  2  0
  6  7  1  0
  7  8  2  0
  7  9  1  0
  9 15  1  0
  9 10  1  6
  9 11  1  0
 10 30  1  0
 10 31  1  0
 10 32  1  0
 11 18  1  0
 11 12  1  0
 11 33  1  6
 12 13  1  0
 12 34  1  0
 12 35  1  0
 13 14  1  0
 13 36  1  0
 13 37  1  0
 15 14  1  1
 14 38  1  0
 14 39  1  0
 15 22  1  0
 15 16  1  0
 16 17  1  0
 16 19  1  0
 16 40  1  1
 17 18  1  0
 17 41  1  0
 17 42  1  0
 18 43  1  0
 18 44  1  0
 19 20  1  0
 19 21  1  0
 19 22  1  0
 20 45  1  0
 20 46  1  0
 20 47  1  0
 21 48  1  0
 21 49  1  0
 21 50  1  0
 22 23  1  1
 22 24  1  0
 23 51  1  0
 23 52  1  0
 23 53  1  0
 24 25  2  0
M  END
>  <i_m_ct_stereo_status>  (64) 
1

>  <s_m_source_file>  (64) 
/var/tmp/pbs.5076255.sched01/tmp5ffkvrn0/0o5bi62ha.sdf

>  <i_m_source_file_index>  (64) 
29

>  <i_lp_mmshare_version>  (64) 
48012

>  <i_f3d_flags>  (64) 
0

>  <s_epik_input>  (64) 
W2NIXTFubihbQ0gzXSljKEMyPU8pYzFDKD1PKVtDQF0zKFtDSDNdKUMoW0NIM10pKFtDSDNdKVtDQEBIXTRbQ0gyXVtDSDJdW0NASF0oW0NAXTIoW0NAXTM0NSlbQ0gzXSlbQ0gyXVtDSDJdW0NIMl01

>  <s_epik_cmdline>  (64) 
J2VwaWtfcHl0aG9uJywgJy1waHQnLCAnMi4wJywgJy1waCcsICc3LjAnLCAnLXRuJywgJzgnLCAnLW1hJywgJzIwMCcsICctaW1hZScsICc8aW5maWxlLm1hZT4nLCAnLW9tYWUnLCAnPG91dGZpbGUubWFlPic=

>  <r_lp_tautomer_probability>  (64) 
1

>  <r_epik_Ionization_Penalty>  (64) 
8.32788e-08

>  <r_epik_Ionization_Penalty_Charging>  (64) 
0

>  <r_epik_Ionization_Penalty_Neutral>  (64) 
8.32788e-08

>  <r_epik_State_Penalty>  (64) 
-0

>  <r_epik_Charging_Adjusted_Penalty>  (64) 
0

>  <i_epik_Tot_Q>  (64) 
0

>  <i_epik_Tot_abs_Q>  (64) 
0

>  <s_lp_Force_Field>  (64) 
OPLS3e

>  <r_lp_Energy>  (64) 
67.3255

>  <b_lp_Chiralities_Consistent>  (64) 
1

>  <s_lp_Variant>  (64) 
19:0-1

>  <s_i_glide_gridfile>  (64) 
pfpi4k_grid

>  <i_i_glide_lignum>  (64) 
29

>  <i_i_glide_rotatable_bonds>  (64) 
0

>  <r_i_docking_score>  (64) 
-2.20091

>  <r_i_glide_ligand_efficiency>  (64) 
-0.0880364

>  <r_i_glide_ligand_efficiency_sa>  (64) 
-0.25742

>  <r_i_glide_ligand_efficiency_ln>  (64) 
-0.521682

>  <r_i_glide_gscore>  (64) 
-2.20091

>  <r_i_glide_lipo>  (64) 
-0.503542

>  <r_i_glide_hbond>  (64) 
-0.0127011

>  <r_i_glide_metal>  (64) 
-0

>  <r_i_glide_rewards>  (64) 
-1.15049

>  <r_i_glide_evdw>  (64) 
-5.76076

>  <r_i_glide_ecoul>  (64) 
-1.12749

>  <r_i_glide_erotb>  (64) 
0

>  <r_i_glide_esite>  (64) 
-0.0770153

>  <r_i_glide_emodel>  (64) 
-5.35184

>  <r_i_glide_energy>  (64) 
-6.88825

>  <r_i_glide_einternal>  (64) 
0

>  <r_i_glide_intrahb_reward>  (64) 
-0

>  <i_i_glide_confnum>  (64) 
2

>  <i_i_glide_posenum>  (64) 
14

>  <r_i_glide_eff_state_penalty>  (64) 
0

>  <ligand_id>  (64) 
19

>  <original_smiles>  (64) 
Cn1ncc2c1C(=O)C1(C)C3CCCC14C(CC3)C(C)(C)C4(C)C2=O

>  <smiles>  (64) 
[H]c1nn(C([H])([H])[H])c2c1C(=O)C1(C([H])([H])[H])C(C([H])([H])[H])(C([H])([H])[H])C3([H])C([H])([H])C([H])([H])C4([H])C([H])([H])C([H])([H])C([H])([H])C31C4(C([H])([H])[H])C2=O

$$$$
22:0:0
     RDKit          3D

 77 82  0  0  1  0  0  0  0  0999 V2000
    2.3306   -3.3042   -1.8314 C   0  0  0  0  0  0  0  0  0  0  0  0
    2.9883   -3.5328   -0.5967 O   0  0  0  0  0  0  0  0  0  0  0  0
    4.3465   -3.2362   -0.5881 C   0  0  2  0  0  0  0  0  0  0  0  0
    5.1447   -4.4153   -0.6294 O   0  0  0  0  0  0  0  0  0  0  0  0
    6.0038   -4.8573    0.4357 C   0  0  1  0  0  0  0  0  0  0  0  0
    6.5611   -3.7011    1.2591 C   0  0  1  0  0  0  0  0  0  0  0  0
    7.4488   -2.9102    0.4804 O   0  0  0  0  0  0  0  0  0  0  0  0
    5.3418   -2.9571    1.8111 C   0  0  2  0  0  0  0  0  0  0  0  0
    4.4895   -3.8681    2.8133 C   0  0  0  0  0  0  0  0  0  0  0  0
    4.7374   -3.2864    4.2329 C   0  0  0  0  0  0  0  0  0  0  0  0
    2.9623   -3.7547    2.6100 C   0  0  0  0  0  0  0  0  0  0  0  0
    4.9758   -5.3812    2.7980 C   0  0  1  0  0  0  0  0  0  0  0  0
    4.2883   -6.4362    3.7719 C   0  0  2  0  0  0  0  0  0  0  0  0
    5.3305   -7.2738    4.6383 C   0  0  1  0  0  0  0  0  0  0  0  0
    6.3766   -6.4360    5.4179 C   0  0  0  0  0  0  0  0  0  0  0  0
    4.6735   -8.2804    5.6350 C   0  0  1  0  0  0  0  0  0  0  0  0
    4.0618   -7.5134    6.6520 O   0  0  0  0  0  0  0  0  0  0  0  0
    3.6751   -9.1997    4.8947 C   0  0  1  0  0  0  0  0  0  0  0  0
    4.4396   -9.9836    3.9987 O   0  0  0  0  0  0  0  0  0  0  0  0
    2.7901  -10.2644    5.6194 C   0  0  1  0  0  0  0  0  0  0  0  0
    2.2979   -9.8662    6.8855 O   0  0  0  0  0  0  0  0  0  0  0  0
    1.6064  -10.3650    4.6786 C   0  0  0  0  0  0  0  0  0  0  0  0
    0.6484  -11.5230    4.7456 C   0  0  0  0  0  0  0  0  0  0  0  0
    1.5464   -9.3202    3.8399 C   0  0  0  0  0  0  0  0  0  0  0  0
    2.6598   -8.3448    4.1322 C   0  0  2  0  0  0  0  0  0  0  0  0
    3.2368   -7.3731    3.0570 C   0  0  1  0  0  0  0  0  0  0  0  0
    2.0823   -6.6313    2.7246 O   0  0  0  0  0  0  0  0  0  0  0  0
    3.8350   -7.9937    1.7451 C   0  0  1  0  0  0  0  0  0  0  0  0
    2.9503   -9.0537    1.0570 C   0  0  0  0  0  0  0  0  0  0  0  0
    4.3632   -6.9172    0.7459 C   0  0  1  0  0  0  0  0  0  0  0  0
    3.2690   -6.2287    0.1915 O   0  0  0  0  0  0  0  0  0  0  0  0
    5.3923   -5.9459    1.3907 C   0  0  1  0  0  0  0  0  0  0  0  0
    6.5157   -6.7737    1.6354 O   0  0  0  0  0  0  0  0  0  0  0  0
    4.6310   -2.3124    0.6153 C   0  0  0  0  0  0  0  0  0  0  0  0
    5.3184   -1.1239    0.1666 O   0  0  0  0  0  0  0  0  0  0  0  0
    4.4303   -0.3097    0.9234 C   0  0  0  0  0  0  0  0  0  0  0  0
    3.5360   -1.4252    0.9329 O   0  0  0  0  0  0  0  0  0  0  0  0
    1.2857   -3.5964   -1.7523 H   0  0  0  0  0  0  0  0  0  0  0  0
    2.7744   -3.8517   -2.6647 H   0  0  0  0  0  0  0  0  0  0  0  0
    2.3615   -2.2431   -2.0637 H   0  0  0  0  0  0  0  0  0  0  0  0
    4.5942   -2.7021   -1.5103 H   0  0  0  0  0  0  0  0  0  0  0  0
    6.8591   -5.3120   -0.0698 H   0  0  0  0  0  0  0  0  0  0  0  0
    7.1719   -4.0656    2.0759 H   0  0  0  0  0  0  0  0  0  0  0  0
    8.1770   -3.4602    0.2149 H   0  0  0  0  0  0  0  0  0  0  0  0
    5.7665   -2.1617    2.4183 H   0  0  0  0  0  0  0  0  0  0  0  0
    4.1925   -3.8258    5.0095 H   0  0  0  0  0  0  0  0  0  0  0  0
    4.4137   -2.2462    4.2941 H   0  0  0  0  0  0  0  0  0  0  0  0
    5.7968   -3.3112    4.4959 H   0  0  0  0  0  0  0  0  0  0  0  0
    2.4184   -4.2483    3.4148 H   0  0  0  0  0  0  0  0  0  0  0  0
    2.6382   -4.2093    1.6793 H   0  0  0  0  0  0  0  0  0  0  0  0
    2.6099   -2.7264    2.6234 H   0  0  0  0  0  0  0  0  0  0  0  0
    5.9300   -5.2351    3.2795 H   0  0  0  0  0  0  0  0  0  0  0  0
    3.7239   -5.8674    4.5086 H   0  0  0  0  0  0  0  0  0  0  0  0
    5.9142   -7.8787    3.9494 H   0  0  0  0  0  0  0  0  0  0  0  0
    5.9104   -5.6221    5.9757 H   0  0  0  0  0  0  0  0  0  0  0  0
    7.1430   -6.0134    4.7681 H   0  0  0  0  0  0  0  0  0  0  0  0
    6.9197   -7.0588    6.1293 H   0  0  0  0  0  0  0  0  0  0  0  0
    5.4387   -8.9090    6.0902 H   0  0  0  0  0  0  0  0  0  0  0  0
    4.7454   -7.1253    7.1867 H   0  0  0  0  0  0  0  0  0  0  0  0
    3.8396  -10.5470    3.5161 H   0  0  0  0  0  0  0  0  0  0  0  0
    3.2848  -11.2339    5.7335 H   0  0  0  0  0  0  0  0  0  0  0  0
    1.8834  -10.6225    7.2760 H   0  0  0  0  0  0  0  0  0  0  0  0
    1.1835  -12.4545    4.5617 H   0  0  0  0  0  0  0  0  0  0  0  0
   -0.1590  -11.4187    4.0210 H   0  0  0  0  0  0  0  0  0  0  0  0
    0.1995  -11.5769    5.7330 H   0  0  0  0  0  0  0  0  0  0  0  0
    0.7732   -9.1641    3.1059 H   0  0  0  0  0  0  0  0  0  0  0  0
    2.1925   -7.6984    4.8780 H   0  0  0  0  0  0  0  0  0  0  0  0
    1.4622   -7.2311    2.3331 H   0  0  0  0  0  0  0  0  0  0  0  0
    4.7168   -8.5616    2.0266 H   0  0  0  0  0  0  0  0  0  0  0  0
    1.9447   -8.6693    0.8870 H   0  0  0  0  0  0  0  0  0  0  0  0
    2.8438   -9.9568    1.6542 H   0  0  0  0  0  0  0  0  0  0  0  0
    3.4033   -9.3887    0.1201 H   0  0  0  0  0  0  0  0  0  0  0  0
    4.8472   -7.4364   -0.0827 H   0  0  0  0  0  0  0  0  0  0  0  0
    3.4628   -5.9950   -0.7142 H   0  0  0  0  0  0  0  0  0  0  0  0
    6.2399   -7.4775    2.2075 H   0  0  0  0  0  0  0  0  0  0  0  0
    4.8078   -0.0792    1.9112 H   0  0  0  0  0  0  0  0  0  0  0  0
    4.0791    0.5445    0.3665 H   0  0  0  0  0  0  0  0  0  0  0  0
  1  2  1  0
  1 38  1  0
  1 39  1  0
  1 40  1  0
  2  3  1  0
  3 34  1  0
  3  4  1  0
  3 41  1  6
  4  5  1  0
  5 32  1  0
  5  6  1  0
  5 42  1  6
  6  7  1  0
  6  8  1  0
  6 43  1  1
  7 44  1  0
  8  9  1  0
  8 34  1  0
  8 45  1  1
  9 10  1  0
  9 11  1  0
  9 12  1  0
 10 46  1  0
 10 47  1  0
 10 48  1  0
 11 49  1  0
 11 50  1  0
 11 51  1  0
 12 32  1  0
 12 13  1  0
 12 52  1  1
 13 26  1  0
 13 14  1  0
 13 53  1  1
 14 15  1  0
 14 16  1  0
 14 54  1  6
 15 55  1  0
 15 56  1  0
 15 57  1  0
 16 17  1  0
 16 18  1  0
 16 58  1  1
 17 59  1  0
 18 25  1  0
 18 19  1  6
 18 20  1  0
 19 60  1  0
 20 21  1  0
 20 22  1  0
 20 61  1  1
 21 62  1  0
 22 23  1  0
 22 24  2  0
 23 63  1  0
 23 64  1  0
 23 65  1  0
 24 25  1  0
 24 66  1  0
 25 26  1  0
 25 67  1  1
 26 27  1  6
 26 28  1  0
 27 68  1  0
 28 29  1  0
 28 30  1  0
 28 69  1  1
 29 70  1  0
 29 71  1  0
 29 72  1  0
 30 31  1  0
 30 32  1  0
 30 73  1  6
 31 74  1  0
 32 33  1  1
 33 75  1  0
 34 37  1  0
 34 35  1  0
 35 36  1  0
 36 37  1  0
 36 76  1  0
 36 77  1  0
M  END
>  <i_m_ct_stereo_status>  (65) 
1

>  <s_m_source_file>  (65) 
/var/tmp/pbs.5076255.sched01/tmp5ffkvrn0/0o5bi62ha.sdf

>  <i_m_source_file_index>  (65) 
35

>  <i_lp_mmshare_version>  (65) 
48012

>  <i_f3d_flags>  (65) 
0

>  <s_epik_input>  (65) 
TzFbQ0gyXU9DMTJbQ0hdM1tDSF0oW09IXSlbQ0BIXShPW0NASF0yT1tDSDNdKVtDQEBdNChbT0hdKVtDQEBIXShDMyhbQ0gzXSlbQ0gzXSlbQ0BIXTVbQ0BAXShbT0hdKShbQ0BASF0oW0NIM10pW0NASF00W09IXSlbQ0BASF02W0NAQF0oW09IXSkoW0NASF0oW09IXSlbQ0BASF01W0NIM10pW0NAQEhdKFtPSF0pQyhbQ0gzXSk9W0NIXTY=

>  <s_epik_cmdline>  (65) 
J2VwaWtfcHl0aG9uJywgJy1waHQnLCAnMi4wJywgJy1waCcsICc3LjAnLCAnLXRuJywgJzgnLCAnLW1hJywgJzIwMCcsICctaW1hZScsICc8aW5maWxlLm1hZT4nLCAnLW9tYWUnLCAnPG91dGZpbGUubWFlPic=

>  <r_lp_tautomer_probability>  (65) 
1

>  <r_epik_Ionization_Penalty>  (65) 
9.41591e-07

>  <r_epik_Ionization_Penalty_Charging>  (65) 
0

>  <r_epik_Ionization_Penalty_Neutral>  (65) 
9.41591e-07

>  <r_epik_State_Penalty>  (65) 
-0

>  <r_epik_Charging_Adjusted_Penalty>  (65) 
0

>  <i_epik_Tot_Q>  (65) 
0

>  <i_epik_Tot_abs_Q>  (65) 
0

>  <s_epik_Chemistry_Notes>  (65) 
This compound contains an acetal/aminal-like group ( X-CH(R)-Y where X, Y are N, S, or O) that may be acid/base labile, releasing an aldehyde.

>  <s_lp_Force_Field>  (65) 
OPLS3e

>  <r_lp_Energy>  (65) 
104.2

>  <b_lp_Chiralities_Consistent>  (65) 
1

>  <s_lp_Variant>  (65) 
22:0-1

>  <s_i_glide_gridfile>  (65) 
pfpi4k_grid

>  <i_i_glide_lignum>  (65) 
35

>  <i_i_glide_rotatable_bonds>  (65) 
8

>  <r_i_docking_score>  (65) 
-3.01476

>  <r_i_glide_ligand_efficiency>  (65) 
-0.08148

>  <r_i_glide_ligand_efficiency_sa>  (65) 
-0.27151

>  <r_i_glide_ligand_efficiency_ln>  (65) 
-0.653831

>  <r_i_glide_gscore>  (65) 
-3.01476

>  <r_i_glide_lipo>  (65) 
-0.631456

>  <r_i_glide_hbond>  (65) 
0

>  <r_i_glide_metal>  (65) 
-0

>  <r_i_glide_rewards>  (65) 
-0.239693

>  <r_i_glide_evdw>  (65) 
-24.7189

>  <r_i_glide_ecoul>  (65) 
-6.05112

>  <r_i_glide_erotb>  (65) 
0

>  <r_i_glide_esite>  (65) 
0

>  <r_i_glide_emodel>  (65) 
-34.7334

>  <r_i_glide_energy>  (65) 
-30.77

>  <r_i_glide_einternal>  (65) 
4.2068

>  <r_i_glide_intrahb_reward>  (65) 
-0

>  <i_i_glide_confnum>  (65) 
3

>  <i_i_glide_posenum>  (65) 
32

>  <r_i_glide_eff_state_penalty>  (65) 
0

>  <ligand_id>  (65) 
22

>  <original_smiles>  (65) 
COC1OC2C(O)C(C(C)(C)C3C4C(C)C(O)C5(O)C(O)C(C)=CC5C4(O)C(C)C(O)C23O)C12OCO2

>  <smiles>  (65) 
[H]OC1([H])C(C([H])([H])[H])=C([H])C2([H])C1(O[H])C([H])(O[H])C([H])(C([H])([H])[H])C1([H])C3([H])C(O[H])(C4([H])OC([H])(OC([H])([H])[H])C5(OC([H])([H])O5)C([H])(C4([H])O[H])C3(C([H])([H])[H])C([H])([H])[H])C([H])(O[H])C([H])(C([H])([H])[H])C21O[H]

$$$$
22:0:1
     RDKit          3D

 77 82  0  0  1  0  0  0  0  0999 V2000
    2.2595   -3.4857   -1.2222 C   0  0  0  0  0  0  0  0  0  0  0  0
    2.2397   -2.9821    0.1034 O   0  0  0  0  0  0  0  0  0  0  0  0
    3.3857   -2.2769    0.4430 C   0  0  2  0  0  0  0  0  0  0  0  0
    4.4955   -3.1622    0.5187 O   0  0  0  0  0  0  0  0  0  0  0  0
    5.1786   -3.5037    1.7455 C   0  0  1  0  0  0  0  0  0  0  0  0
    5.2336   -2.3250    2.7171 C   0  0  1  0  0  0  0  0  0  0  0  0
    5.9995   -1.2451    2.2008 O   0  0  0  0  0  0  0  0  0  0  0  0
    3.7830   -1.9770    3.0313 C   0  0  2  0  0  0  0  0  0  0  0  0
    2.9992   -3.1458    3.7755 C   0  0  0  0  0  0  0  0  0  0  0  0
    2.8014   -2.6627    5.2357 C   0  0  0  0  0  0  0  0  0  0  0  0
    1.5650   -3.3687    3.2568 C   0  0  0  0  0  0  0  0  0  0  0  0
    3.8413   -4.4876    3.7957 C   0  0  1  0  0  0  0  0  0  0  0  0
    3.2545   -5.7664    4.5446 C   0  0  2  0  0  0  0  0  0  0  0  0
    4.2777   -6.4139    5.5742 C   0  0  1  0  0  0  0  0  0  0  0  0
    4.9039   -5.4394    6.5949 C   0  0  0  0  0  0  0  0  0  0  0  0
    3.7332   -7.6545    6.3400 C   0  0  1  0  0  0  0  0  0  0  0  0
    2.7611   -7.2316    7.2741 O   0  0  0  0  0  0  0  0  0  0  0  0
    3.1659   -8.6934    5.3566 C   0  0  1  0  0  0  0  0  0  0  0  0
    4.2518   -9.1973    4.6109 O   0  0  0  0  0  0  0  0  0  0  0  0
    2.4523  -10.0005    5.8178 C   0  0  1  0  0  0  0  0  0  0  0  0
    1.6900   -9.8537    7.0013 O   0  0  0  0  0  0  0  0  0  0  0  0
    1.5244  -10.2919    4.6649 C   0  0  0  0  0  0  0  0  0  0  0  0
    0.8887  -11.6270    4.4566 C   0  0  0  0  0  0  0  0  0  0  0  0
    1.3778   -9.1971    3.8592 C   0  0  0  0  0  0  0  0  0  0  0  0
    2.1336   -8.0365    4.4446 C   0  0  2  0  0  0  0  0  0  0  0  0
    2.6441   -6.8522    3.5740 C   0  0  1  0  0  0  0  0  0  0  0  0
    1.4040   -6.3891    3.0638 O   0  0  0  0  0  0  0  0  0  0  0  0
    3.6531   -7.2047    2.4139 C   0  0  1  0  0  0  0  0  0  0  0  0
    3.1854   -8.3171    1.4455 C   0  0  0  0  0  0  0  0  0  0  0  0
    4.0993   -5.9516    1.6221 C   0  0  1  0  0  0  0  0  0  0  0  0
    2.9429   -5.5702    0.9366 O   0  0  0  0  0  0  0  0  0  0  0  0
    4.6761   -4.8007    2.4961 C   0  0  1  0  0  0  0  0  0  0  0  0
    5.8949   -5.3482    2.9539 O   0  0  0  0  0  0  0  0  0  0  0  0
    3.1688   -1.4319    1.7274 C   0  0  0  0  0  0  0  0  0  0  0  0
    3.6382   -0.0728    1.4866 O   0  0  0  0  0  0  0  0  0  0  0  0
    2.4300    0.4529    2.0596 C   0  0  0  0  0  0  0  0  0  0  0  0
    1.8448   -0.8533    1.8602 O   0  0  0  0  0  0  0  0  0  0  0  0
    1.3095   -3.9906   -1.4126 H   0  0  0  0  0  0  0  0  0  0  0  0
    3.0564   -4.2237   -1.3446 H   0  0  0  0  0  0  0  0  0  0  0  0
    2.4201   -2.7416   -2.0078 H   0  0  0  0  0  0  0  0  0  0  0  0
    3.5410   -1.5886   -0.3911 H   0  0  0  0  0  0  0  0  0  0  0  0
    6.2080   -3.6815    1.4071 H   0  0  0  0  0  0  0  0  0  0  0  0
    5.7331   -2.6003    3.6424 H   0  0  0  0  0  0  0  0  0  0  0  0
    5.5665   -0.9153    1.4192 H   0  0  0  0  0  0  0  0  0  0  0  0
    3.8609   -1.1664    3.7475 H   0  0  0  0  0  0  0  0  0  0  0  0
    2.2631   -3.3975    5.8414 H   0  0  0  0  0  0  0  0  0  0  0  0
    2.2168   -1.7396    5.2660 H   0  0  0  0  0  0  0  0  0  0  0  0
    3.7618   -2.4629    5.7180 H   0  0  0  0  0  0  0  0  0  0  0  0
    1.0125   -4.0530    3.9022 H   0  0  0  0  0  0  0  0  0  0  0  0
    1.5709   -3.7906    2.2598 H   0  0  0  0  0  0  0  0  0  0  0  0
    0.9712   -2.4583    3.2423 H   0  0  0  0  0  0  0  0  0  0  0  0
    4.6108   -4.1685    4.4826 H   0  0  0  0  0  0  0  0  0  0  0  0
    2.4235   -5.4202    5.1596 H   0  0  0  0  0  0  0  0  0  0  0  0
    5.1128   -6.7882    4.9912 H   0  0  0  0  0  0  0  0  0  0  0  0
    4.1415   -4.8253    7.0803 H   0  0  0  0  0  0  0  0  0  0  0  0
    5.6551   -4.7902    6.1450 H   0  0  0  0  0  0  0  0  0  0  0  0
    5.4280   -5.9952    7.3711 H   0  0  0  0  0  0  0  0  0  0  0  0
    4.5381   -8.1116    6.9122 H   0  0  0  0  0  0  0  0  0  0  0  0
    2.3510   -8.0179    7.6150 H   0  0  0  0  0  0  0  0  0  0  0  0
    3.9055   -9.8614    4.0362 H   0  0  0  0  0  0  0  0  0  0  0  0
    3.1411  -10.8423    5.9787 H   0  0  0  0  0  0  0  0  0  0  0  0
    1.4512  -10.7509    7.2674 H   0  0  0  0  0  0  0  0  0  0  0  0
    1.6890  -12.3603    4.3517 H   0  0  0  0  0  0  0  0  0  0  0  0
    0.2640  -11.6498    3.5647 H   0  0  0  0  0  0  0  0  0  0  0  0
    0.2734  -11.9056    5.3160 H   0  0  0  0  0  0  0  0  0  0  0  0
    0.7672   -9.1780    2.9903 H   0  0  0  0  0  0  0  0  0  0  0  0
    1.3773   -7.5980    5.0992 H   0  0  0  0  0  0  0  0  0  0  0  0
    1.0712   -7.0633    2.4893 H   0  0  0  0  0  0  0  0  0  0  0  0
    4.5691   -7.5921    2.8532 H   0  0  0  0  0  0  0  0  0  0  0  0
    2.1890   -8.1401    1.0299 H   0  0  0  0  0  0  0  0  0  0  0  0
    3.1771   -9.2848    1.9441 H   0  0  0  0  0  0  0  0  0  0  0  0
    3.8783   -8.4145    0.6079 H   0  0  0  0  0  0  0  0  0  0  0  0
    4.8470   -6.2202    0.8675 H   0  0  0  0  0  0  0  0  0  0  0  0
    3.1628   -4.8036    0.4363 H   0  0  0  0  0  0  0  0  0  0  0  0
    5.6722   -6.1626    3.3650 H   0  0  0  0  0  0  0  0  0  0  0  0
    2.5498    0.7057    3.1066 H   0  0  0  0  0  0  0  0  0  0  0  0
    1.9874    1.2171    1.4418 H   0  0  0  0  0  0  0  0  0  0  0  0
  1  2  1  0
  1 38  1  0
  1 39  1  0
  1 40  1  0
  2  3  1  0
  3 34  1  0
  3  4  1  0
  3 41  1  6
  4  5  1  0
  5 32  1  0
  5  6  1  0
  5 42  1  6
  6  7  1  0
  6  8  1  0
  6 43  1  1
  7 44  1  0
  8  9  1  0
  8 34  1  0
  8 45  1  1
  9 10  1  0
  9 11  1  0
  9 12  1  0
 10 46  1  0
 10 47  1  0
 10 48  1  0
 11 49  1  0
 11 50  1  0
 11 51  1  0
 12 32  1  0
 12 13  1  0
 12 52  1  1
 13 26  1  0
 13 14  1  0
 13 53  1  1
 14 15  1  0
 14 16  1  0
 14 54  1  6
 15 55  1  0
 15 56  1  0
 15 57  1  0
 16 17  1  0
 16 18  1  0
 16 58  1  1
 17 59  1  0
 18 25  1  0
 18 19  1  6
 18 20  1  0
 19 60  1  0
 20 21  1  0
 20 22  1  0
 20 61  1  1
 21 62  1  0
 22 23  1  0
 22 24  2  0
 23 63  1  0
 23 64  1  0
 23 65  1  0
 24 25  1  0
 24 66  1  0
 25 26  1  0
 25 67  1  1
 26 27  1  6
 26 28  1  0
 27 68  1  0
 28 29  1  0
 28 30  1  0
 28 69  1  1
 29 70  1  0
 29 71  1  0
 29 72  1  0
 30 31  1  0
 30 32  1  0
 30 73  1  6
 31 74  1  0
 32 33  1  1
 33 75  1  0
 34 37  1  0
 34 35  1  0
 35 36  1  0
 36 37  1  0
 36 76  1  0
 36 77  1  0
M  END
>  <i_m_ct_stereo_status>  (66) 
1

>  <s_m_source_file>  (66) 
/var/tmp/pbs.5076255.sched01/tmp5ffkvrn0/0o5bi62ha.sdf

>  <i_m_source_file_index>  (66) 
35

>  <i_lp_mmshare_version>  (66) 
48012

>  <i_f3d_flags>  (66) 
0

>  <s_epik_input>  (66) 
TzFbQ0gyXU9DMTJbQ0hdM1tDSF0oW09IXSlbQ0BIXShPW0NASF0yT1tDSDNdKVtDQEBdNChbT0hdKVtDQEBIXShDMyhbQ0gzXSlbQ0gzXSlbQ0BIXTVbQ0BAXShbT0hdKShbQ0BASF0oW0NIM10pW0NASF00W09IXSlbQ0BASF02W0NAQF0oW09IXSkoW0NASF0oW09IXSlbQ0BASF01W0NIM10pW0NAQEhdKFtPSF0pQyhbQ0gzXSk9W0NIXTY=

>  <s_epik_cmdline>  (66) 
J2VwaWtfcHl0aG9uJywgJy1waHQnLCAnMi4wJywgJy1waCcsICc3LjAnLCAnLXRuJywgJzgnLCAnLW1hJywgJzIwMCcsICctaW1hZScsICc8aW5maWxlLm1hZT4nLCAnLW9tYWUnLCAnPG91dGZpbGUubWFlPic=

>  <r_lp_tautomer_probability>  (66) 
1

>  <r_epik_Ionization_Penalty>  (66) 
9.41591e-07

>  <r_epik_Ionization_Penalty_Charging>  (66) 
0

>  <r_epik_Ionization_Penalty_Neutral>  (66) 
9.41591e-07

>  <r_epik_State_Penalty>  (66) 
-0

>  <r_epik_Charging_Adjusted_Penalty>  (66) 
0

>  <i_epik_Tot_Q>  (66) 
0

>  <i_epik_Tot_abs_Q>  (66) 
0

>  <s_epik_Chemistry_Notes>  (66) 
This compound contains an acetal/aminal-like group ( X-CH(R)-Y where X, Y are N, S, or O) that may be acid/base labile, releasing an aldehyde.

>  <s_lp_Force_Field>  (66) 
OPLS3e

>  <r_lp_Energy>  (66) 
104.2

>  <b_lp_Chiralities_Consistent>  (66) 
1

>  <s_lp_Variant>  (66) 
22:0-1

>  <s_i_glide_gridfile>  (66) 
pfpi4k_grid

>  <i_i_glide_lignum>  (66) 
35

>  <i_i_glide_rotatable_bonds>  (66) 
8

>  <r_i_docking_score>  (66) 
-2.78723

>  <r_i_glide_ligand_efficiency>  (66) 
-0.0753305

>  <r_i_glide_ligand_efficiency_sa>  (66) 
-0.251018

>  <r_i_glide_ligand_efficiency_ln>  (66) 
-0.604484

>  <r_i_glide_gscore>  (66) 
-2.78723

>  <r_i_glide_lipo>  (66) 
-0.171866

>  <r_i_glide_hbond>  (66) 
-0.0223504

>  <r_i_glide_metal>  (66) 
-0

>  <r_i_glide_rewards>  (66) 
-0.5

>  <r_i_glide_evdw>  (66) 
-21.8083

>  <r_i_glide_ecoul>  (66) 
-6.17858

>  <r_i_glide_erotb>  (66) 
0

>  <r_i_glide_esite>  (66) 
-0.0758085

>  <r_i_glide_emodel>  (66) 
-37.7715

>  <r_i_glide_energy>  (66) 
-27.9869

>  <r_i_glide_einternal>  (66) 
1.13666

>  <r_i_glide_intrahb_reward>  (66) 
-0.5

>  <i_i_glide_confnum>  (66) 
3

>  <i_i_glide_posenum>  (66) 
5

>  <r_i_glide_eff_state_penalty>  (66) 
0

>  <ligand_id>  (66) 
22

>  <original_smiles>  (66) 
COC1OC2C(O)C(C(C)(C)C3C4C(C)C(O)C5(O)C(O)C(C)=CC5C4(O)C(C)C(O)C23O)C12OCO2

>  <smiles>  (66) 
[H]OC1([H])C(C([H])([H])[H])=C([H])C2([H])C1(O[H])C([H])(O[H])C([H])(C([H])([H])[H])C1([H])C3([H])C(O[H])(C4([H])OC([H])(OC([H])([H])[H])C5(OC([H])([H])O5)C([H])(C4([H])O[H])C3(C([H])([H])[H])C([H])([H])[H])C([H])(O[H])C([H])(C([H])([H])[H])C21O[H]

$$$$
22:0:2
     RDKit          3D

 77 82  0  0  1  0  0  0  0  0999 V2000
    1.3098   -5.2902    3.5304 C   0  0  0  0  0  0  0  0  0  0  0  0
    2.3458   -4.3207    3.5785 O   0  0  0  0  0  0  0  0  0  0  0  0
    3.0331   -4.2982    4.7838 C   0  0  2  0  0  0  0  0  0  0  0  0
    2.2482   -3.8205    5.8556 O   0  0  0  0  0  0  0  0  0  0  0  0
    2.5154   -2.6163    6.5927 C   0  0  1  0  0  0  0  0  0  0  0  0
    4.0111   -2.2702    6.6456 C   0  0  1  0  0  0  0  0  0  0  0  0
    4.7387   -3.1905    7.4343 O   0  0  0  0  0  0  0  0  0  0  0  0
    4.4645   -2.1406    5.1915 C   0  0  2  0  0  0  0  0  0  0  0  0
    3.7369   -0.9172    4.4508 C   0  0  0  0  0  0  0  0  0  0  0  0
    4.8123    0.1908    4.2871 C   0  0  0  0  0  0  0  0  0  0  0  0
    3.2866   -1.2536    3.0143 C   0  0  0  0  0  0  0  0  0  0  0  0
    2.5403   -0.3201    5.3208 C   0  0  1  0  0  0  0  0  0  0  0  0
    1.7246    0.9308    4.7777 C   0  0  2  0  0  0  0  0  0  0  0  0
    1.6023    2.1188    5.8348 C   0  0  1  0  0  0  0  0  0  0  0  0
    2.9327    2.5920    6.4674 C   0  0  0  0  0  0  0  0  0  0  0  0
    0.8423    3.3788    5.3007 C   0  0  1  0  0  0  0  0  0  0  0  0
    1.6659    4.0291    4.3498 O   0  0  0  0  0  0  0  0  0  0  0  0
   -0.5367    2.9870    4.7230 C   0  0  1  0  0  0  0  0  0  0  0  0
   -1.3089    2.5009    5.8150 O   0  0  0  0  0  0  0  0  0  0  0  0
   -1.5177    3.9973    4.0431 C   0  0  1  0  0  0  0  0  0  0  0  0
   -0.9284    5.0295    3.2802 O   0  0  0  0  0  0  0  0  0  0  0  0
   -2.2855    3.0875    3.1068 C   0  0  0  0  0  0  0  0  0  0  0  0
   -3.5952    3.5224    2.4901 C   0  0  0  0  0  0  0  0  0  0  0  0
   -1.6495    1.9207    2.9201 C   0  0  0  0  0  0  0  0  0  0  0  0
   -0.3468    1.8879    3.6693 C   0  0  2  0  0  0  0  0  0  0  0  0
    0.3171    0.5593    4.1645 C   0  0  1  0  0  0  0  0  0  0  0  0
    0.5051   -0.1512    2.9534 O   0  0  0  0  0  0  0  0  0  0  0  0
   -0.4979   -0.3622    5.1434 C   0  0  1  0  0  0  0  0  0  0  0  0
   -1.9386   -0.6799    4.7008 C   0  0  0  0  0  0  0  0  0  0  0  0
    0.2718   -1.6608    5.5196 C   0  0  1  0  0  0  0  0  0  0  0  0
    0.2917   -2.5030    4.3952 O   0  0  0  0  0  0  0  0  0  0  0  0
    1.6829   -1.3707    6.1162 C   0  0  1  0  0  0  0  0  0  0  0  0
    1.3460   -0.7360    7.3456 O   0  0  0  0  0  0  0  0  0  0  0  0
    4.3724   -3.5556    4.5670 C   0  0  0  0  0  0  0  0  0  0  0  0
    5.4641   -4.4011    5.0222 O   0  0  0  0  0  0  0  0  0  0  0  0
    5.6199   -4.9170    3.6857 C   0  0  0  0  0  0  0  0  0  0  0  0
    4.9035   -3.7491    3.2291 O   0  0  0  0  0  0  0  0  0  0  0  0
    0.8099   -5.2267    2.5638 H   0  0  0  0  0  0  0  0  0  0  0  0
    0.5603   -5.1195    4.3058 H   0  0  0  0  0  0  0  0  0  0  0  0
    1.7010   -6.3035    3.6401 H   0  0  0  0  0  0  0  0  0  0  0  0
    3.2593   -5.3371    5.0239 H   0  0  0  0  0  0  0  0  0  0  0  0
    2.2013   -2.8773    7.6046 H   0  0  0  0  0  0  0  0  0  0  0  0
    4.1806   -1.3320    7.1681 H   0  0  0  0  0  0  0  0  0  0  0  0
    4.3994   -3.1814    8.3169 H   0  0  0  0  0  0  0  0  0  0  0  0
    5.5311   -1.8985    5.2306 H   0  0  0  0  0  0  0  0  0  0  0  0
    4.4257    1.0736    3.7799 H   0  0  0  0  0  0  0  0  0  0  0  0
    5.6571   -0.1633    3.6904 H   0  0  0  0  0  0  0  0  0  0  0  0
    5.2093    0.5171    5.2508 H   0  0  0  0  0  0  0  0  0  0  0  0
    2.9636   -0.3562    2.4879 H   0  0  0  0  0  0  0  0  0  0  0  0
    2.4651   -1.9634    2.9932 H   0  0  0  0  0  0  0  0  0  0  0  0
    4.0993   -1.6553    2.4099 H   0  0  0  0  0  0  0  0  0  0  0  0
    3.1373    0.1321    6.0986 H   0  0  0  0  0  0  0  0  0  0  0  0
    2.3038    1.3634    3.9626 H   0  0  0  0  0  0  0  0  0  0  0  0
    1.0097    1.7424    6.6693 H   0  0  0  0  0  0  0  0  0  0  0  0
    3.6942    2.7730    5.7059 H   0  0  0  0  0  0  0  0  0  0  0  0
    3.3279    1.8881    7.1997 H   0  0  0  0  0  0  0  0  0  0  0  0
    2.7882    3.5253    7.0154 H   0  0  0  0  0  0  0  0  0  0  0  0
    0.6969    4.0868    6.1186 H   0  0  0  0  0  0  0  0  0  0  0  0
    1.6326    3.5572    3.5319 H   0  0  0  0  0  0  0  0  0  0  0  0
   -1.3208    3.1643    6.4880 H   0  0  0  0  0  0  0  0  0  0  0  0
   -2.1926    4.4528    4.7681 H   0  0  0  0  0  0  0  0  0  0  0  0
   -0.5814    4.6692    2.4577 H   0  0  0  0  0  0  0  0  0  0  0  0
   -4.3353    3.6839    3.2740 H   0  0  0  0  0  0  0  0  0  0  0  0
   -3.9879    2.7683    1.8031 H   0  0  0  0  0  0  0  0  0  0  0  0
   -3.4713    4.4628    1.9549 H   0  0  0  0  0  0  0  0  0  0  0  0
   -1.9661    1.1271    2.2609 H   0  0  0  0  0  0  0  0  0  0  0  0
    0.3362    2.2935    2.9206 H   0  0  0  0  0  0  0  0  0  0  0  0
    0.8313    0.4446    2.2945 H   0  0  0  0  0  0  0  0  0  0  0  0
   -0.6172    0.1756    6.0797 H   0  0  0  0  0  0  0  0  0  0  0  0
   -1.9679   -1.0555    3.6821 H   0  0  0  0  0  0  0  0  0  0  0  0
   -2.5684    0.2077    4.7306 H   0  0  0  0  0  0  0  0  0  0  0  0
   -2.4046   -1.4191    5.3532 H   0  0  0  0  0  0  0  0  0  0  0  0
   -0.2976   -2.2020    6.2752 H   0  0  0  0  0  0  0  0  0  0  0  0
    0.7357   -2.0254    3.7051 H   0  0  0  0  0  0  0  0  0  0  0  0
    2.1422   -0.5429    7.8161 H   0  0  0  0  0  0  0  0  0  0  0  0
    6.6511   -4.9551    3.3637 H   0  0  0  0  0  0  0  0  0  0  0  0
    5.0882   -5.8506    3.5213 H   0  0  0  0  0  0  0  0  0  0  0  0
  1  2  1  0
  1 38  1  0
  1 39  1  0
  1 40  1  0
  2  3  1  0
  3 34  1  0
  3  4  1  0
  3 41  1  1
  4  5  1  0
  5 32  1  0
  5  6  1  0
  5 42  1  1
  6  7  1  0
  6  8  1  0
  6 43  1  1
  7 44  1  0
  8  9  1  0
  8 34  1  0
  8 45  1  1
  9 10  1  0
  9 11  1  0
  9 12  1  0
 10 46  1  0
 10 47  1  0
 10 48  1  0
 11 49  1  0
 11 50  1  0
 11 51  1  0
 12 32  1  0
 12 13  1  0
 12 52  1  1
 13 26  1  0
 13 14  1  0
 13 53  1  6
 14 15  1  0
 14 16  1  0
 14 54  1  1
 15 55  1  0
 15 56  1  0
 15 57  1  0
 16 17  1  0
 16 18  1  0
 16 58  1  1
 17 59  1  0
 18 25  1  0
 18 19  1  1
 18 20  1  0
 19 60  1  0
 20 21  1  0
 20 22  1  0
 20 61  1  1
 21 62  1  0
 22 23  1  0
 22 24  2  0
 23 63  1  0
 23 64  1  0
 23 65  1  0
 24 25  1  0
 24 66  1  0
 25 26  1  0
 25 67  1  6
 26 27  1  6
 26 28  1  0
 27 68  1  0
 28 29  1  0
 28 30  1  0
 28 69  1  1
 29 70  1  0
 29 71  1  0
 29 72  1  0
 30 31  1  0
 30 32  1  0
 30 73  1  1
 31 74  1  0
 32 33  1  1
 33 75  1  0
 34 37  1  0
 34 35  1  0
 35 36  1  0
 36 37  1  0
 36 76  1  0
 36 77  1  0
M  END
>  <i_m_ct_stereo_status>  (67) 
1

>  <s_m_source_file>  (67) 
/var/tmp/pbs.5076255.sched01/tmp5ffkvrn0/0o5bi62ha.sdf

>  <i_m_source_file_index>  (67) 
35

>  <i_lp_mmshare_version>  (67) 
48012

>  <i_f3d_flags>  (67) 
0

>  <s_epik_input>  (67) 
TzFbQ0gyXU9DMTJbQ0hdM1tDSF0oW09IXSlbQ0BIXShPW0NASF0yT1tDSDNdKVtDQEBdNChbT0hdKVtDQEBIXShDMyhbQ0gzXSlbQ0gzXSlbQ0BIXTVbQ0BAXShbT0hdKShbQ0BASF0oW0NIM10pW0NASF00W09IXSlbQ0BASF02W0NAQF0oW09IXSkoW0NASF0oW09IXSlbQ0BASF01W0NIM10pW0NAQEhdKFtPSF0pQyhbQ0gzXSk9W0NIXTY=

>  <s_epik_cmdline>  (67) 
J2VwaWtfcHl0aG9uJywgJy1waHQnLCAnMi4wJywgJy1waCcsICc3LjAnLCAnLXRuJywgJzgnLCAnLW1hJywgJzIwMCcsICctaW1hZScsICc8aW5maWxlLm1hZT4nLCAnLW9tYWUnLCAnPG91dGZpbGUubWFlPic=

>  <r_lp_tautomer_probability>  (67) 
1

>  <r_epik_Ionization_Penalty>  (67) 
9.41591e-07

>  <r_epik_Ionization_Penalty_Charging>  (67) 
0

>  <r_epik_Ionization_Penalty_Neutral>  (67) 
9.41591e-07

>  <r_epik_State_Penalty>  (67) 
-0

>  <r_epik_Charging_Adjusted_Penalty>  (67) 
0

>  <i_epik_Tot_Q>  (67) 
0

>  <i_epik_Tot_abs_Q>  (67) 
0

>  <s_epik_Chemistry_Notes>  (67) 
This compound contains an acetal/aminal-like group ( X-CH(R)-Y where X, Y are N, S, or O) that may be acid/base labile, releasing an aldehyde.

>  <s_lp_Force_Field>  (67) 
OPLS3e

>  <r_lp_Energy>  (67) 
104.2

>  <b_lp_Chiralities_Consistent>  (67) 
1

>  <s_lp_Variant>  (67) 
22:0-1

>  <s_i_glide_gridfile>  (67) 
pfpi4k_grid

>  <i_i_glide_lignum>  (67) 
35

>  <i_i_glide_rotatable_bonds>  (67) 
8

>  <r_i_docking_score>  (67) 
-2.31969

>  <r_i_glide_ligand_efficiency>  (67) 
-0.0626942

>  <r_i_glide_ligand_efficiency_sa>  (67) 
-0.208911

>  <r_i_glide_ligand_efficiency_ln>  (67) 
-0.503086

>  <r_i_glide_gscore>  (67) 
-2.31969

>  <r_i_glide_lipo>  (67) 
-0.214854

>  <r_i_glide_hbond>  (67) 
0

>  <r_i_glide_metal>  (67) 
-0

>  <r_i_glide_rewards>  (67) 
-0.51443

>  <r_i_glide_evdw>  (67) 
-21.1741

>  <r_i_glide_ecoul>  (67) 
-3.54466

>  <r_i_glide_erotb>  (67) 
0

>  <r_i_glide_esite>  (67) 
0

>  <r_i_glide_emodel>  (67) 
-33.782

>  <r_i_glide_energy>  (67) 
-24.7187

>  <r_i_glide_einternal>  (67) 
1.05065

>  <r_i_glide_intrahb_reward>  (67) 
-0.5

>  <i_i_glide_confnum>  (67) 
4

>  <i_i_glide_posenum>  (67) 
2

>  <r_i_glide_eff_state_penalty>  (67) 
0

>  <ligand_id>  (67) 
22

>  <original_smiles>  (67) 
COC1OC2C(O)C(C(C)(C)C3C4C(C)C(O)C5(O)C(O)C(C)=CC5C4(O)C(C)C(O)C23O)C12OCO2

>  <smiles>  (67) 
[H]OC1([H])C(C([H])([H])[H])=C([H])C2([H])C1(O[H])C([H])(O[H])C([H])(C([H])([H])[H])C1([H])C3([H])C(O[H])(C4([H])OC([H])(OC([H])([H])[H])C5(OC([H])([H])O5)C([H])(C4([H])O[H])C3(C([H])([H])[H])C([H])([H])[H])C([H])(O[H])C([H])(C([H])([H])[H])C21O[H]

$$$$
23:1:0
     RDKit          3D

 92 99  0  0  1  0  0  0  0  0999 V2000
    3.3737   -3.0968    5.2027 C   0  0  0  0  0  0  0  0  0  0  0  0
    2.2745   -2.5965    4.6157 C   0  0  0  0  0  0  0  0  0  0  0  0
    0.9182   -3.3182    4.6634 C   0  0  1  0  0  0  0  0  0  0  0  0
    1.0110   -4.7261    4.9575 O   0  0  0  0  0  0  0  0  0  0  0  0
    1.6571   -5.6125    4.0212 C   0  0  2  0  0  0  0  0  0  0  0  0
    0.6526   -6.4869    3.2241 C   0  0  0  0  0  0  0  0  0  0  0  0
    0.1007   -7.7689    3.8977 C   0  0  1  0  0  0  0  0  0  0  0  0
   -0.8629   -8.4684    2.9700 C   0  0  0  0  0  0  0  0  0  0  0  0
   -0.4228   -9.6713    2.6227 C   0  0  0  0  0  0  0  0  0  0  0  0
    0.8569   -9.8721    3.2884 C   0  0  0  0  0  0  0  0  0  0  0  0
    1.5767  -10.8621    3.2104 O   0  0  0  0  0  0  0  0  0  0  0  0
    1.1166   -8.7661    3.9999 O   0  0  0  0  0  0  0  0  0  0  0  0
   -0.5798   -7.5440    5.2647 C   0  0  0  0  0  0  0  0  0  0  0  0
    0.2900   -7.0599    6.4204 C   0  0  0  0  0  0  0  0  0  0  0  0
   -0.0779   -6.1172    7.3085 C   0  0  0  0  0  0  0  0  0  0  0  0
    0.9155   -6.1034    8.3738 C   0  0  0  0  0  0  0  0  0  0  0  0
    1.0200   -5.2670    9.2662 O   0  0  0  0  0  0  0  0  0  0  0  0
    1.7986   -7.3511    8.2517 C   0  0  2  0  0  0  0  0  0  0  0  0
    3.2154   -7.1688    8.8264 C   0  0  0  0  0  0  0  0  0  0  0  0
    1.5982   -7.7644    6.7614 C   0  0  2  0  0  0  0  0  0  0  0  0
    2.7944   -7.4129    5.8683 C   0  0  2  0  0  0  0  0  0  0  0  0
    3.2167   -6.0524    5.9290 O   0  0  0  0  0  0  0  0  0  0  0  0
    2.8131   -6.4634    4.6217 C   0  0  2  0  0  0  0  0  0  0  0  0
    3.9508   -6.6053    3.6373 C   0  0  0  0  0  0  0  0  0  0  0  0
   -0.1103   -2.7078    5.6529 C   0  0  1  0  0  0  0  0  0  0  0  0
    0.4222   -2.7956    6.9647 O   0  0  0  0  0  0  0  0  0  0  0  0
   -0.4837   -1.2383    5.2998 C   0  0  1  0  0  0  0  0  0  0  0  0
   -1.6221   -0.9511    6.0969 O   0  0  0  0  0  0  0  0  0  0  0  0
   -2.3689    0.1739    5.7946 C   0  0  0  0  0  0  0  0  0  0  0  0
   -1.7840    1.3625    6.2073 O   0  0  0  0  0  0  0  0  0  0  0  0
   -2.4861    2.5228    5.7798 C   0  0  0  0  0  0  0  0  0  0  0  0
    0.6671   -0.2129    5.5130 C   0  0  0  0  0  0  0  0  0  0  0  0
    1.6317   -0.0572    4.3361 C   0  0  1  0  0  0  0  0  0  0  0  0
    0.9760    0.8578    3.2834 C   0  0  0  0  0  0  0  0  0  0  0  0
    3.0343    0.3510    4.8014 C   0  0  2  0  0  0  0  0  0  0  0  0
    3.7710    1.6435    5.0416 C   0  0  0  0  0  0  0  0  0  0  0  0
    5.1864    1.2676    5.6243 C   0  0  0  0  0  0  0  0  0  0  0  0
    5.7529   -0.1729    5.2770 C   0  0  1  0  0  0  0  0  0  0  0  0
    5.6642   -1.1596    6.4587 C   0  0  0  0  0  0  0  0  0  0  0  0
    5.1320   -0.6279    3.9146 C   0  0  1  0  0  0  0  0  0  0  0  0
    5.5866   -1.6057    2.8562 C   0  0  0  0  0  0  0  0  0  0  0  0
    4.6439   -1.0736    1.7560 C   0  0  0  0  0  0  0  0  0  0  0  0
    4.8198   -1.2503    0.5584 O   0  0  0  0  0  0  0  0  0  0  0  0
    3.7005   -0.2733    2.3087 O   0  0  0  0  0  0  0  0  0  0  0  0
    3.6368   -0.4866    3.7143 C   0  0  2  0  0  0  0  0  0  0  0  0
    2.3342   -1.3450    3.7523 C   0  0  1  0  0  0  0  0  0  0  0  0
    4.3620   -2.7148    5.0092 H   0  0  0  0  0  0  0  0  0  0  0  0
    3.2306   -3.9141    5.8471 H   0  0  0  0  0  0  0  0  0  0  0  0
    0.4560   -3.2579    3.6741 H   0  0  0  0  0  0  0  0  0  0  0  0
    2.1037   -4.9625    3.2689 H   0  0  0  0  0  0  0  0  0  0  0  0
   -0.1677   -5.8558    2.9002 H   0  0  0  0  0  0  0  0  0  0  0  0
    1.1477   -6.8084    2.3065 H   0  0  0  0  0  0  0  0  0  0  0  0
   -1.7974   -8.0395    2.6408 H   0  0  0  0  0  0  0  0  0  0  0  0
   -0.8918  -10.3870    1.9709 H   0  0  0  0  0  0  0  0  0  0  0  0
   -1.4060   -6.8484    5.1562 H   0  0  0  0  0  0  0  0  0  0  0  0
   -0.9985   -8.4913    5.5903 H   0  0  0  0  0  0  0  0  0  0  0  0
    1.4496   -8.8499    6.7294 H   0  0  0  0  0  0  0  0  0  0  0  0
   -1.0040   -5.5519    7.3266 H   0  0  0  0  0  0  0  0  0  0  0  0
    1.3116   -8.1078    8.8666 H   0  0  0  0  0  0  0  0  0  0  0  0
    3.1859   -7.0375    9.9163 H   0  0  0  0  0  0  0  0  0  0  0  0
    3.7317   -6.2954    8.4211 H   0  0  0  0  0  0  0  0  0  0  0  0
    3.8262   -8.0499    8.6296 H   0  0  0  0  0  0  0  0  0  0  0  0
    3.6217   -8.1365    5.9973 H   0  0  0  0  0  0  0  0  0  0  0  0
    3.6370   -7.2340    2.8067 H   0  0  0  0  0  0  0  0  0  0  0  0
    4.8095   -7.0673    4.1169 H   0  0  0  0  0  0  0  0  0  0  0  0
    4.2605   -5.6343    3.2527 H   0  0  0  0  0  0  0  0  0  0  0  0
   -1.0153   -3.3248    5.6505 H   0  0  0  0  0  0  0  0  0  0  0  0
    0.7208   -3.6814    7.0994 H   0  0  0  0  0  0  0  0  0  0  0  0
   -0.8423   -1.2263    4.2713 H   0  0  0  0  0  0  0  0  0  0  0  0
   -2.6308    0.1587    4.7255 H   0  0  0  0  0  0  0  0  0  0  0  0
   -3.2474    0.1353    6.4441 H   0  0  0  0  0  0  0  0  0  0  0  0
   -1.8767    3.4010    5.9896 H   0  0  0  0  0  0  0  0  0  0  0  0
   -3.4281    2.6390    6.3247 H   0  0  0  0  0  0  0  0  0  0  0  0
   -2.6948    2.5321    4.7018 H   0  0  0  0  0  0  0  0  0  0  0  0
    0.3147    0.7891    5.7049 H   0  0  0  0  0  0  0  0  0  0  0  0
    1.1730   -0.4665    6.4537 H   0  0  0  0  0  0  0  0  0  0  0  0
    1.6615    1.0782    2.4726 H   0  0  0  0  0  0  0  0  0  0  0  0
    0.6834    1.8182    3.7067 H   0  0  0  0  0  0  0  0  0  0  0  0
    0.0985    0.3898    2.8357 H   0  0  0  0  0  0  0  0  0  0  0  0
    3.1337   -0.1977    5.7464 H   0  0  0  0  0  0  0  0  0  0  0  0
    3.9148    2.1483    4.0833 H   0  0  0  0  0  0  0  0  0  0  0  0
    3.2283    2.3388    5.6847 H   0  0  0  0  0  0  0  0  0  0  0  0
    5.9071    2.0121    5.2916 H   0  0  0  0  0  0  0  0  0  0  0  0
    5.1476    1.3798    6.7076 H   0  0  0  0  0  0  0  0  0  0  0  0
    6.8267   -0.0325    5.1305 H   0  0  0  0  0  0  0  0  0  0  0  0
    4.6401   -1.3429    6.7845 H   0  0  0  0  0  0  0  0  0  0  0  0
    6.1962   -0.7688    7.3265 H   0  0  0  0  0  0  0  0  0  0  0  0
    6.1239   -2.1185    6.2146 H   0  0  0  0  0  0  0  0  0  0  0  0
    5.5707    0.2639    3.4547 H   0  0  0  0  0  0  0  0  0  0  0  0
    6.6191   -1.4869    2.5439 H   0  0  0  0  0  0  0  0  0  0  0  0
    5.3378   -2.6431    3.0594 H   0  0  0  0  0  0  0  0  0  0  0  0
    1.9412   -1.5864    2.7573 H   0  0  0  0  0  0  0  0  0  0  0  0
  1  2  2  0
  1 47  1  0
  1 48  1  0
  2 46  1  0
  2  3  1  0
  3  4  1  0
  3 25  1  0
  3 49  1  6
  4  5  1  0
  5 23  1  0
  5  6  1  0
  5 50  1  6
  6  7  1  0
  6 51  1  0
  6 52  1  0
  7 12  1  1
  7  8  1  0
  7 13  1  0
  8  9  2  0
  8 53  1  0
  9 10  1  0
  9 54  1  0
 10 11  2  0
 10 12  1  0
 13 55  1  0
 13 56  1  0
 13 14  1  0
 14 20  1  0
 14 15  2  0
 15 16  1  0
 15 58  1  0
 16 18  1  0
 16 17  2  0
 18 20  1  0
 18 19  1  0
 18 59  1  1
 19 60  1  0
 19 61  1  0
 19 62  1  0
 20 21  1  0
 20 57  1  1
 21 23  1  0
 21 22  1  0
 21 63  1  6
 22 23  1  0
 23 24  1  6
 24 64  1  0
 24 65  1  0
 24 66  1  0
 25 26  1  0
 25 27  1  0
 25 67  1  1
 26 68  1  0
 27 28  1  0
 27 32  1  0
 27 69  1  6
 28 29  1  0
 29 30  1  0
 29 70  1  0
 29 71  1  0
 30 31  1  0
 31 72  1  0
 31 73  1  0
 31 74  1  0
 32 33  1  0
 32 75  1  0
 32 76  1  0
 33 46  1  0
 33 34  1  6
 33 35  1  0
 34 77  1  0
 34 78  1  0
 34 79  1  0
 35 45  1  0
 35 36  1  0
 35 80  1  1
 36 37  1  0
 36 81  1  0
 36 82  1  0
 37 38  1  0
 37 83  1  0
 37 84  1  0
 38 39  1  0
 38 40  1  0
 38 85  1  6
 39 86  1  0
 39 87  1  0
 39 88  1  0
 40 45  1  0
 40 41  1  0
 40 89  1  6
 41 42  1  0
 41 90  1  0
 41 91  1  0
 42 43  2  0
 42 44  1  0
 45 44  1  6
 45 46  1  0
 46 92  1  6
M  END
>  <i_m_ct_stereo_status>  (68) 
1

>  <s_m_source_file>  (68) 
/var/tmp/pbs.5076255.sched01/tmp5ffkvrn0/0o5bi62ha.sdf

>  <i_m_source_file_index>  (68) 
37

>  <i_lp_mmshare_version>  (68) 
48012

>  <i_f3d_flags>  (68) 
0

>  <s_epik_input>  (68) 
Tz1DKE8xKVtDSDJdW0NAQEhdMltDQEhdKFtDSDNdKVtDSDJdW0NIMl1bQ0BIXShbQ0BAXTEyMylbQ0BAXTQoW0NIM10pW0NAQEhdM0MoPVtDSDJdKVtDQEhdKFtDQEBIXShbT0hdKVtDQEhdKFtDSDJdNClPW0NIMl1PW0NIM10pT1tDQEhdKFtDSDJdW0NAQF01NltDSF09W0NIXUMoPU8pTzUpW0NAXTcoW0NIM10pW0NAQEhdKE83KUM4W0NASF0oW0NIMl02KVtDSDJdQyg9TylDPThbQ0gzXQ==

>  <s_epik_cmdline>  (68) 
J2VwaWtfcHl0aG9uJywgJy1waHQnLCAnMi4wJywgJy1waCcsICc3LjAnLCAnLXRuJywgJzgnLCAnLW1hJywgJzIwMCcsICctaW1hZScsICc8aW5maWxlLm1hZT4nLCAnLW9tYWUnLCAnPG91dGZpbGUubWFlPic=

>  <r_lp_tautomer_probability>  (68) 
0.499977

>  <r_epik_Ionization_Penalty>  (68) 
1.1461e-06

>  <r_epik_Ionization_Penalty_Charging>  (68) 
0

>  <r_epik_Ionization_Penalty_Neutral>  (68) 
1.1461e-06

>  <r_epik_State_Penalty>  (68) 
0.41068

>  <r_epik_Charging_Adjusted_Penalty>  (68) 
0.41068

>  <i_epik_Tot_Q>  (68) 
0

>  <i_epik_Tot_abs_Q>  (68) 
0

>  <s_epik_Chemistry_Notes>  (68) 
This compound has an ester and may undergo hydrolysis at high or low pH. This compound contains an acetal/aminal-like group ( X-CH(R)-Y where X, Y are N, S, or O) that may be acid/base labile, releasing an aldehyde.

>  <s_lp_Force_Field>  (68) 
OPLS3e

>  <r_lp_Energy>  (68) 
102.692

>  <b_lp_Chiralities_Consistent>  (68) 
1

>  <s_lp_Variant>  (68) 
23:0-2

>  <s_i_glide_gridfile>  (68) 
pfpi4k_grid

>  <i_i_glide_lignum>  (68) 
37

>  <i_i_glide_rotatable_bonds>  (68) 
6

>  <r_i_docking_score>  (68) 
-2.26366

>  <r_i_glide_ligand_efficiency>  (68) 
-0.04921

>  <r_i_glide_ligand_efficiency_sa>  (68) 
-0.176322

>  <r_i_glide_ligand_efficiency_ln>  (68) 
-0.468799

>  <r_i_glide_gscore>  (68) 
-2.26366

>  <r_i_glide_lipo>  (68) 
-0.379611

>  <r_i_glide_hbond>  (68) 
-0.0780488

>  <r_i_glide_metal>  (68) 
-0

>  <r_i_glide_rewards>  (68) 
-0.118088

>  <r_i_glide_evdw>  (68) 
-28.5292

>  <r_i_glide_ecoul>  (68) 
-1.6823

>  <r_i_glide_erotb>  (68) 
0.0636092

>  <r_i_glide_esite>  (68) 
-0.072714

>  <r_i_glide_emodel>  (68) 
-29.7801

>  <r_i_glide_energy>  (68) 
-30.2116

>  <r_i_glide_einternal>  (68) 
5.27689

>  <r_i_glide_intrahb_reward>  (68) 
-0

>  <i_i_glide_confnum>  (68) 
2

>  <i_i_glide_posenum>  (68) 
9

>  <r_i_glide_eff_state_penalty>  (68) 
0

>  <ligand_id>  (68) 
23

>  <original_smiles>  (68) 
C=C1C(OC2CC3(C=CC(=O)O3)CC3CC(=O)C(C)=C3C3OC23C)C(O)C(OCOC)CC2(C)C3CCC(C)C4CC(=O)OC43C12

>  <smiles>  (68) 
[H]OC1([H])C([H])(OC2([H])C([H])([H])C3(OC(=O)C([H])=C3[H])C([H])([H])C3=C([H])C(=O)C([H])(C([H])([H])[H])C3([H])C3([H])OC23C([H])([H])[H])C(=C([H])[H])C2([H])C34OC(=O)C([H])([H])C3([H])C([H])(C([H])([H])[H])C([H])([H])C([H])([H])C4([H])C2(C([H])([H])[H])C([H])([H])C1([H])OC([H])([H])OC([H])([H])[H]

$$$$
23:1:1
     RDKit          3D

 92 99  0  0  1  0  0  0  0  0999 V2000
    1.5361   -6.0719    3.4653 C   0  0  0  0  0  0  0  0  0  0  0  0
    2.6391   -6.0378    4.2414 C   0  0  0  0  0  0  0  0  0  0  0  0
    3.4535   -4.7497    4.3911 C   0  0  1  0  0  0  0  0  0  0  0  0
    3.2219   -3.7848    3.3432 O   0  0  0  0  0  0  0  0  0  0  0  0
    3.4950   -4.1223    1.9640 C   0  0  2  0  0  0  0  0  0  0  0  0
    4.9722   -4.4069    1.6563 C   0  0  0  0  0  0  0  0  0  0  0  0
    5.8904   -3.1948    1.4413 C   0  0  1  0  0  0  0  0  0  0  0  0
    7.2858   -3.7206    1.2077 C   0  0  0  0  0  0  0  0  0  0  0  0
    7.7189   -3.4178   -0.0139 C   0  0  0  0  0  0  0  0  0  0  0  0
    6.6518   -2.6930   -0.6868 C   0  0  0  0  0  0  0  0  0  0  0  0
    6.6696   -2.2492   -1.8296 O   0  0  0  0  0  0  0  0  0  0  0  0
    5.6354   -2.5752    0.1837 O   0  0  0  0  0  0  0  0  0  0  0  0
    5.8763   -2.1457    2.5841 C   0  0  0  0  0  0  0  0  0  0  0  0
    4.6149   -1.3461    2.8480 C   0  0  0  0  0  0  0  0  0  0  0  0
    4.1661   -1.0057    4.0621 C   0  0  0  0  0  0  0  0  0  0  0  0
    3.0696   -0.0638    3.8985 C   0  0  0  0  0  0  0  0  0  0  0  0
    2.2510    0.2952    4.7400 O   0  0  0  0  0  0  0  0  0  0  0  0
    3.0962    0.4615    2.4732 C   0  0  2  0  0  0  0  0  0  0  0  0
    1.7374    0.9224    1.9244 C   0  0  0  0  0  0  0  0  0  0  0  0
    3.8551   -0.6672    1.7260 C   0  0  2  0  0  0  0  0  0  0  0  0
    2.9655   -1.6119    0.9190 C   0  0  2  0  0  0  0  0  0  0  0  0
    1.8989   -2.2547    1.6320 O   0  0  0  0  0  0  0  0  0  0  0  0
    2.8376   -3.1288    0.9903 C   0  0  2  0  0  0  0  0  0  0  0  0
    2.3303   -3.8423   -0.2565 C   0  0  0  0  0  0  0  0  0  0  0  0
    3.2908   -4.0574    5.7673 C   0  0  1  0  0  0  0  0  0  0  0  0
    1.9316   -3.7034    5.9487 O   0  0  0  0  0  0  0  0  0  0  0  0
    3.8122   -4.8849    6.9703 C   0  0  1  0  0  0  0  0  0  0  0  0
    3.7937   -3.9871    8.0779 O   0  0  0  0  0  0  0  0  0  0  0  0
    4.7504   -4.2085    9.0618 C   0  0  0  0  0  0  0  0  0  0  0  0
    6.0234   -3.8785    8.6146 O   0  0  0  0  0  0  0  0  0  0  0  0
    7.0271   -4.0782    9.5971 C   0  0  0  0  0  0  0  0  0  0  0  0
    2.9807   -6.1418    7.2970 C   0  0  0  0  0  0  0  0  0  0  0  0
    3.2872   -7.3939    6.4484 C   0  0  1  0  0  0  0  0  0  0  0  0
    4.5204   -8.0816    7.0625 C   0  0  0  0  0  0  0  0  0  0  0  0
    2.0643   -8.2984    6.2156 C   0  0  2  0  0  0  0  0  0  0  0  0
    1.4396   -9.4681    6.9290 C   0  0  0  0  0  0  0  0  0  0  0  0
    0.1268   -9.8474    6.1397 C   0  0  0  0  0  0  0  0  0  0  0  0
    0.0631   -9.4410    4.6042 C   0  0  1  0  0  0  0  0  0  0  0  0
   -0.8211   -8.2035    4.3450 C   0  0  0  0  0  0  0  0  0  0  0  0
    1.5125   -9.4069    4.0424 C   0  0  1  0  0  0  0  0  0  0  0  0
    2.0964   -9.5812    2.6560 C   0  0  0  0  0  0  0  0  0  0  0  0
    3.5357   -9.8422    3.1445 C   0  0  0  0  0  0  0  0  0  0  0  0
    4.4246  -10.3252    2.4622 O   0  0  0  0  0  0  0  0  0  0  0  0
    3.6407   -9.4810    4.4541 O   0  0  0  0  0  0  0  0  0  0  0  0
    2.5540   -8.6525    4.8416 C   0  0  2  0  0  0  0  0  0  0  0  0
    3.2770   -7.2705    4.8681 C   0  0  1  0  0  0  0  0  0  0  0  0
    1.0463   -6.9907    3.2271 H   0  0  0  0  0  0  0  0  0  0  0  0
    1.1426   -5.1720    3.0196 H   0  0  0  0  0  0  0  0  0  0  0  0
    4.5023   -5.0296    4.3510 H   0  0  0  0  0  0  0  0  0  0  0  0
    3.0344   -5.0761    1.7403 H   0  0  0  0  0  0  0  0  0  0  0  0
    5.3959   -5.0535    2.4239 H   0  0  0  0  0  0  0  0  0  0  0  0
    5.0041   -5.0094    0.7463 H   0  0  0  0  0  0  0  0  0  0  0  0
    7.8478   -4.2717    1.9496 H   0  0  0  0  0  0  0  0  0  0  0  0
    8.6774   -3.6537   -0.4521 H   0  0  0  0  0  0  0  0  0  0  0  0
    6.1325   -2.6399    3.5211 H   0  0  0  0  0  0  0  0  0  0  0  0
    6.6337   -1.3914    2.3776 H   0  0  0  0  0  0  0  0  0  0  0  0
    4.5752   -0.2244    1.0395 H   0  0  0  0  0  0  0  0  0  0  0  0
    4.5897   -1.2735    5.0206 H   0  0  0  0  0  0  0  0  0  0  0  0
    3.7504    1.3367    2.4899 H   0  0  0  0  0  0  0  0  0  0  0  0
    1.3852    1.8036    2.4628 H   0  0  0  0  0  0  0  0  0  0  0  0
    0.9652    0.1561    2.0039 H   0  0  0  0  0  0  0  0  0  0  0  0
    1.8255    1.1987    0.8837 H   0  0  0  0  0  0  0  0  0  0  0  0
    2.6864   -1.1775   -0.0359 H   0  0  0  0  0  0  0  0  0  0  0  0
    3.1594   -4.2561   -0.8262 H   0  0  0  0  0  0  0  0  0  0  0  0
    1.7937   -3.1541   -0.9116 H   0  0  0  0  0  0  0  0  0  0  0  0
    1.6635   -4.6594   -0.0025 H   0  0  0  0  0  0  0  0  0  0  0  0
    3.8853   -3.1472    5.7628 H   0  0  0  0  0  0  0  0  0  0  0  0
    1.4205   -4.4997    5.9514 H   0  0  0  0  0  0  0  0  0  0  0  0
    4.8454   -5.1667    6.7676 H   0  0  0  0  0  0  0  0  0  0  0  0
    4.4945   -3.5666    9.9064 H   0  0  0  0  0  0  0  0  0  0  0  0
    4.7191   -5.2428    9.4052 H   0  0  0  0  0  0  0  0  0  0  0  0
    7.9953   -3.7938    9.1845 H   0  0  0  0  0  0  0  0  0  0  0  0
    7.0859   -5.1258    9.8968 H   0  0  0  0  0  0  0  0  0  0  0  0
    6.8503   -3.4688   10.4851 H   0  0  0  0  0  0  0  0  0  0  0  0
    3.1041   -6.4009    8.3449 H   0  0  0  0  0  0  0  0  0  0  0  0
    1.9269   -5.8884    7.2263 H   0  0  0  0  0  0  0  0  0  0  0  0
    4.7528   -9.0346    6.5786 H   0  0  0  0  0  0  0  0  0  0  0  0
    4.3666   -8.3172    8.1165 H   0  0  0  0  0  0  0  0  0  0  0  0
    5.4166   -7.4642    6.9806 H   0  0  0  0  0  0  0  0  0  0  0  0
    1.2544   -7.5792    6.1011 H   0  0  0  0  0  0  0  0  0  0  0  0
    2.1282  -10.3141    6.8874 H   0  0  0  0  0  0  0  0  0  0  0  0
    1.2430   -9.2805    7.9844 H   0  0  0  0  0  0  0  0  0  0  0  0
   -0.0362  -10.9234    6.2229 H   0  0  0  0  0  0  0  0  0  0  0  0
   -0.7204   -9.4001    6.6555 H   0  0  0  0  0  0  0  0  0  0  0  0
   -0.4544  -10.2426    4.0696 H   0  0  0  0  0  0  0  0  0  0  0  0
   -0.4686   -7.3031    4.8456 H   0  0  0  0  0  0  0  0  0  0  0  0
   -1.8312   -8.3839    4.7060 H   0  0  0  0  0  0  0  0  0  0  0  0
   -0.9047   -7.9977    3.2774 H   0  0  0  0  0  0  0  0  0  0  0  0
    1.6171  -10.4560    4.3581 H   0  0  0  0  0  0  0  0  0  0  0  0
    1.6708  -10.4254    2.1045 H   0  0  0  0  0  0  0  0  0  0  0  0
    2.0658   -8.6726    2.0561 H   0  0  0  0  0  0  0  0  0  0  0  0
    4.2948   -7.3327    4.4821 H   0  0  0  0  0  0  0  0  0  0  0  0
  1  2  2  0
  1 47  1  0
  1 48  1  0
  2 46  1  0
  2  3  1  0
  3  4  1  0
  3 25  1  0
  3 49  1  6
  4  5  1  0
  5 23  1  0
  5  6  1  0
  5 50  1  6
  6  7  1  0
  6 51  1  0
  6 52  1  0
  7 12  1  6
  7  8  1  0
  7 13  1  0
  8  9  2  0
  8 53  1  0
  9 10  1  0
  9 54  1  0
 10 11  2  0
 10 12  1  0
 13 55  1  0
 13 56  1  0
 13 14  1  0
 14 20  1  0
 14 15  2  0
 15 16  1  0
 15 58  1  0
 16 18  1  0
 16 17  2  0
 18 20  1  0
 18 19  1  0
 18 59  1  1
 19 60  1  0
 19 61  1  0
 19 62  1  0
 20 21  1  0
 20 57  1  6
 21 23  1  0
 21 22  1  0
 21 63  1  6
 22 23  1  0
 23 24  1  6
 24 64  1  0
 24 65  1  0
 24 66  1  0
 25 26  1  0
 25 27  1  0
 25 67  1  6
 26 68  1  0
 27 28  1  0
 27 32  1  0
 27 69  1  6
 28 29  1  0
 29 30  1  0
 29 70  1  0
 29 71  1  0
 30 31  1  0
 31 72  1  0
 31 73  1  0
 31 74  1  0
 32 33  1  0
 32 75  1  0
 32 76  1  0
 33 46  1  0
 33 34  1  1
 33 35  1  0
 34 77  1  0
 34 78  1  0
 34 79  1  0
 35 45  1  0
 35 36  1  0
 35 80  1  6
 36 37  1  0
 36 81  1  0
 36 82  1  0
 37 38  1  0
 37 83  1  0
 37 84  1  0
 38 39  1  0
 38 40  1  0
 38 85  1  6
 39 86  1  0
 39 87  1  0
 39 88  1  0
 40 45  1  0
 40 41  1  0
 40 89  1  1
 41 42  1  0
 41 90  1  0
 41 91  1  0
 42 43  2  0
 42 44  1  0
 45 44  1  1
 45 46  1  0
 46 92  1  6
M  END
>  <i_m_ct_stereo_status>  (69) 
1

>  <s_m_source_file>  (69) 
/var/tmp/pbs.5076255.sched01/tmp5ffkvrn0/0o5bi62ha.sdf

>  <i_m_source_file_index>  (69) 
37

>  <i_lp_mmshare_version>  (69) 
48012

>  <i_f3d_flags>  (69) 
0

>  <s_epik_input>  (69) 
Tz1DKE8xKVtDSDJdW0NAQEhdMltDQEhdKFtDSDNdKVtDSDJdW0NIMl1bQ0BIXShbQ0BAXTEyMylbQ0BAXTQoW0NIM10pW0NAQEhdM0MoPVtDSDJdKVtDQEhdKFtDQEBIXShbT0hdKVtDQEhdKFtDSDJdNClPW0NIMl1PW0NIM10pT1tDQEhdKFtDSDJdW0NAQF01NltDSF09W0NIXUMoPU8pTzUpW0NAXTcoW0NIM10pW0NAQEhdKE83KUM4W0NASF0oW0NIMl02KVtDSDJdQyg9TylDPThbQ0gzXQ==

>  <s_epik_cmdline>  (69) 
J2VwaWtfcHl0aG9uJywgJy1waHQnLCAnMi4wJywgJy1waCcsICc3LjAnLCAnLXRuJywgJzgnLCAnLW1hJywgJzIwMCcsICctaW1hZScsICc8aW5maWxlLm1hZT4nLCAnLW9tYWUnLCAnPG91dGZpbGUubWFlPic=

>  <r_lp_tautomer_probability>  (69) 
0.499977

>  <r_epik_Ionization_Penalty>  (69) 
1.1461e-06

>  <r_epik_Ionization_Penalty_Charging>  (69) 
0

>  <r_epik_Ionization_Penalty_Neutral>  (69) 
1.1461e-06

>  <r_epik_State_Penalty>  (69) 
0.41068

>  <r_epik_Charging_Adjusted_Penalty>  (69) 
0.41068

>  <i_epik_Tot_Q>  (69) 
0

>  <i_epik_Tot_abs_Q>  (69) 
0

>  <s_epik_Chemistry_Notes>  (69) 
This compound has an ester and may undergo hydrolysis at high or low pH. This compound contains an acetal/aminal-like group ( X-CH(R)-Y where X, Y are N, S, or O) that may be acid/base labile, releasing an aldehyde.

>  <s_lp_Force_Field>  (69) 
OPLS3e

>  <r_lp_Energy>  (69) 
102.692

>  <b_lp_Chiralities_Consistent>  (69) 
1

>  <s_lp_Variant>  (69) 
23:0-2

>  <s_i_glide_gridfile>  (69) 
pfpi4k_grid

>  <i_i_glide_lignum>  (69) 
37

>  <i_i_glide_rotatable_bonds>  (69) 
6

>  <r_i_docking_score>  (69) 
-2.0854

>  <r_i_glide_ligand_efficiency>  (69) 
-0.0453348

>  <r_i_glide_ligand_efficiency_sa>  (69) 
-0.162437

>  <r_i_glide_ligand_efficiency_ln>  (69) 
-0.431882

>  <r_i_glide_gscore>  (69) 
-2.0854

>  <r_i_glide_lipo>  (69) 
-0.618515

>  <r_i_glide_hbond>  (69) 
-0.16

>  <r_i_glide_metal>  (69) 
-0

>  <r_i_glide_rewards>  (69) 
0

>  <r_i_glide_evdw>  (69) 
-26.0287

>  <r_i_glide_ecoul>  (69) 
-0.222372

>  <r_i_glide_erotb>  (69) 
0.0636092

>  <r_i_glide_esite>  (69) 
-0.0357075

>  <r_i_glide_emodel>  (69) 
-25.9157

>  <r_i_glide_energy>  (69) 
-26.251

>  <r_i_glide_einternal>  (69) 
5.95982

>  <r_i_glide_intrahb_reward>  (69) 
-0

>  <i_i_glide_confnum>  (69) 
2

>  <i_i_glide_posenum>  (69) 
10

>  <r_i_glide_eff_state_penalty>  (69) 
0

>  <ligand_id>  (69) 
23

>  <original_smiles>  (69) 
C=C1C(OC2CC3(C=CC(=O)O3)CC3CC(=O)C(C)=C3C3OC23C)C(O)C(OCOC)CC2(C)C3CCC(C)C4CC(=O)OC43C12

>  <smiles>  (69) 
[H]OC1([H])C([H])(OC2([H])C([H])([H])C3(OC(=O)C([H])=C3[H])C([H])([H])C3=C([H])C(=O)C([H])(C([H])([H])[H])C3([H])C3([H])OC23C([H])([H])[H])C(=C([H])[H])C2([H])C34OC(=O)C([H])([H])C3([H])C([H])(C([H])([H])[H])C([H])([H])C([H])([H])C4([H])C2(C([H])([H])[H])C([H])([H])C1([H])OC([H])([H])OC([H])([H])[H]

$$$$
23:1:2
     RDKit          3D

 92 99  0  0  1  0  0  0  0  0999 V2000
    5.3341   -4.6680    2.5688 C   0  0  0  0  0  0  0  0  0  0  0  0
    4.1264   -4.6315    3.1139 C   0  0  0  0  0  0  0  0  0  0  0  0
    3.6950   -5.6536    4.1818 C   0  0  1  0  0  0  0  0  0  0  0  0
    4.5217   -6.8365    4.2166 O   0  0  0  0  0  0  0  0  0  0  0  0
    4.2521   -7.8926    3.2823 C   0  0  2  0  0  0  0  0  0  0  0  0
    3.4802   -9.0376    3.9920 C   0  0  0  0  0  0  0  0  0  0  0  0
    4.2941  -10.0458    4.8558 C   0  0  1  0  0  0  0  0  0  0  0  0
    3.3528  -11.0742    5.4395 C   0  0  0  0  0  0  0  0  0  0  0  0
    3.6068  -12.2873    5.0028 C   0  0  0  0  0  0  0  0  0  0  0  0
    4.7378  -12.2152    4.0823 C   0  0  0  0  0  0  0  0  0  0  0  0
    5.2772  -13.1353    3.4928 O   0  0  0  0  0  0  0  0  0  0  0  0
    5.0930  -10.9055    4.0348 O   0  0  0  0  0  0  0  0  0  0  0  0
    5.1343   -9.4232    5.9965 C   0  0  0  0  0  0  0  0  0  0  0  0
    6.2950   -8.5357    5.5769 C   0  0  0  0  0  0  0  0  0  0  0  0
    6.6210   -7.3912    6.2042 C   0  0  0  0  0  0  0  0  0  0  0  0
    7.9091   -6.9617    5.6931 C   0  0  0  0  0  0  0  0  0  0  0  0
    8.4644   -5.8610    5.8414 O   0  0  0  0  0  0  0  0  0  0  0  0
    8.5517   -8.0921    4.9238 C   0  0  2  0  0  0  0  0  0  0  0  0
    9.5259   -7.6867    3.8104 C   0  0  0  0  0  0  0  0  0  0  0  0
    7.3245   -8.9635    4.5439 C   0  0  2  0  0  0  0  0  0  0  0  0
    6.8638   -8.8390    3.0872 C   0  0  2  0  0  0  0  0  0  0  0  0
    6.6105   -7.5188    2.5939 O   0  0  0  0  0  0  0  0  0  0  0  0
    5.4895   -8.4108    2.5290 C   0  0  2  0  0  0  0  0  0  0  0  0
    5.1236   -8.8414    1.1250 C   0  0  0  0  0  0  0  0  0  0  0  0
    3.6388   -5.0773    5.6127 C   0  0  1  0  0  0  0  0  0  0  0  0
    4.9104   -4.5706    5.9801 O   0  0  0  0  0  0  0  0  0  0  0  0
    2.5617   -3.9678    5.7947 C   0  0  1  0  0  0  0  0  0  0  0  0
    2.4362   -3.6816    7.1867 O   0  0  0  0  0  0  0  0  0  0  0  0
    1.4631   -4.4224    7.8456 C   0  0  0  0  0  0  0  0  0  0  0  0
    0.1931   -3.9379    7.5449 O   0  0  0  0  0  0  0  0  0  0  0  0
   -0.8452   -4.8199    7.9217 C   0  0  0  0  0  0  0  0  0  0  0  0
    2.8567   -2.6336    5.0803 C   0  0  0  0  0  0  0  0  0  0  0  0
    2.4910   -2.5716    3.5750 C   0  0  1  0  0  0  0  0  0  0  0  0
    0.9884   -2.2561    3.4789 C   0  0  0  0  0  0  0  0  0  0  0  0
    3.4114   -1.6588    2.7489 C   0  0  2  0  0  0  0  0  0  0  0  0
    3.4155   -0.2100    2.3297 C   0  0  0  0  0  0  0  0  0  0  0  0
    4.7477    0.0186    1.5330 C   0  0  0  0  0  0  0  0  0  0  0  0
    5.3983   -1.2053    0.7780 C   0  0  1  0  0  0  0  0  0  0  0  0
    6.6100   -1.7642    1.5332 C   0  0  0  0  0  0  0  0  0  0  0  0
    4.2904   -2.2303    0.4558 C   0  0  1  0  0  0  0  0  0  0  0  0
    4.1677   -3.3093   -0.5920 C   0  0  0  0  0  0  0  0  0  0  0  0
    2.6431   -3.4130   -0.4656 C   0  0  0  0  0  0  0  0  0  0  0  0
    1.8955   -3.8436   -1.3206 O   0  0  0  0  0  0  0  0  0  0  0  0
    2.2558   -2.8376    0.7108 O   0  0  0  0  0  0  0  0  0  0  0  0
    3.3407   -2.5953    1.5821 C   0  0  2  0  0  0  0  0  0  0  0  0
    3.0099   -3.7191    2.6100 C   0  0  1  0  0  0  0  0  0  0  0  0
    5.6103   -4.0773    1.7167 H   0  0  0  0  0  0  0  0  0  0  0  0
    6.1048   -5.3025    2.9726 H   0  0  0  0  0  0  0  0  0  0  0  0
    2.6802   -5.9814    3.9506 H   0  0  0  0  0  0  0  0  0  0  0  0
    3.5711   -7.4840    2.5301 H   0  0  0  0  0  0  0  0  0  0  0  0
    2.6796   -8.6049    4.5989 H   0  0  0  0  0  0  0  0  0  0  0  0
    2.9741   -9.6283    3.2250 H   0  0  0  0  0  0  0  0  0  0  0  0
    2.5735  -10.8362    6.1557 H   0  0  0  0  0  0  0  0  0  0  0  0
    3.0944  -13.2091    5.2688 H   0  0  0  0  0  0  0  0  0  0  0  0
    4.4805   -8.8547    6.6667 H   0  0  0  0  0  0  0  0  0  0  0  0
    5.5551  -10.2252    6.6072 H   0  0  0  0  0  0  0  0  0  0  0  0
    7.5567  -10.0195    4.7223 H   0  0  0  0  0  0  0  0  0  0  0  0
    6.0979   -6.9082    7.0174 H   0  0  0  0  0  0  0  0  0  0  0  0
    9.1320   -8.6664    5.6460 H   0  0  0  0  0  0  0  0  0  0  0  0
   10.4093   -7.2062    4.2259 H   0  0  0  0  0  0  0  0  0  0  0  0
    9.0871   -6.9909    3.0981 H   0  0  0  0  0  0  0  0  0  0  0  0
    9.8560   -8.5696    3.2718 H   0  0  0  0  0  0  0  0  0  0  0  0
    7.4937   -9.3989    2.4131 H   0  0  0  0  0  0  0  0  0  0  0  0
    4.4976   -9.7369    1.1511 H   0  0  0  0  0  0  0  0  0  0  0  0
    6.0252   -9.0733    0.5645 H   0  0  0  0  0  0  0  0  0  0  0  0
    4.5963   -8.0427    0.6002 H   0  0  0  0  0  0  0  0  0  0  0  0
    3.4066   -5.8977    6.2945 H   0  0  0  0  0  0  0  0  0  0  0  0
    5.2054   -3.9811    5.3027 H   0  0  0  0  0  0  0  0  0  0  0  0
    1.5973   -4.3195    5.4254 H   0  0  0  0  0  0  0  0  0  0  0  0
    1.5651   -5.4873    7.6124 H   0  0  0  0  0  0  0  0  0  0  0  0
    1.6327   -4.3066    8.9152 H   0  0  0  0  0  0  0  0  0  0  0  0
   -1.8009   -4.3845    7.6325 H   0  0  0  0  0  0  0  0  0  0  0  0
   -0.8538   -4.9934    8.9973 H   0  0  0  0  0  0  0  0  0  0  0  0
   -0.7428   -5.7739    7.4069 H   0  0  0  0  0  0  0  0  0  0  0  0
    2.3195   -1.8402    5.5992 H   0  0  0  0  0  0  0  0  0  0  0  0
    3.9025   -2.3708    5.2259 H   0  0  0  0  0  0  0  0  0  0  0  0
    0.6719   -2.0941    2.4504 H   0  0  0  0  0  0  0  0  0  0  0  0
    0.7304   -1.3386    4.0062 H   0  0  0  0  0  0  0  0  0  0  0  0
    0.3695   -3.0624    3.8749 H   0  0  0  0  0  0  0  0  0  0  0  0
    4.3752   -1.8204    3.2157 H   0  0  0  0  0  0  0  0  0  0  0  0
    2.5698    0.0006    1.6734 H   0  0  0  0  0  0  0  0  0  0  0  0
    3.3321    0.4741    3.1731 H   0  0  0  0  0  0  0  0  0  0  0  0
    4.6014    0.8425    0.8308 H   0  0  0  0  0  0  0  0  0  0  0  0
    5.4874    0.3050    2.2719 H   0  0  0  0  0  0  0  0  0  0  0  0
    5.8130   -0.8212   -0.1557 H   0  0  0  0  0  0  0  0  0  0  0  0
    6.3580   -2.1108    2.5335 H   0  0  0  0  0  0  0  0  0  0  0  0
    7.3780   -1.0012    1.6540 H   0  0  0  0  0  0  0  0  0  0  0  0
    7.0865   -2.5834    0.9932 H   0  0  0  0  0  0  0  0  0  0  0  0
    3.7869   -1.4272   -0.1101 H   0  0  0  0  0  0  0  0  0  0  0  0
    4.4764   -2.9954   -1.5884 H   0  0  0  0  0  0  0  0  0  0  0  0
    4.6430   -4.2468   -0.3187 H   0  0  0  0  0  0  0  0  0  0  0  0
    2.1727   -4.3627    2.3062 H   0  0  0  0  0  0  0  0  0  0  0  0
  1  2  2  0
  1 47  1  0
  1 48  1  0
  2 46  1  0
  2  3  1  0
  3  4  1  0
  3 25  1  0
  3 49  1  6
  4  5  1  0
  5 23  1  0
  5  6  1  0
  5 50  1  6
  6  7  1  0
  6 51  1  0
  6 52  1  0
  7 12  1  6
  7  8  1  0
  7 13  1  0
  8  9  2  0
  8 53  1  0
  9 10  1  0
  9 54  1  0
 10 11  2  0
 10 12  1  0
 13 55  1  0
 13 56  1  0
 13 14  1  0
 14 20  1  0
 14 15  2  0
 15 16  1  0
 15 58  1  0
 16 18  1  0
 16 17  2  0
 18 20  1  0
 18 19  1  0
 18 59  1  1
 19 60  1  0
 19 61  1  0
 19 62  1  0
 20 21  1  0
 20 57  1  1
 21 23  1  0
 21 22  1  0
 21 63  1  6
 22 23  1  0
 23 24  1  6
 24 64  1  0
 24 65  1  0
 24 66  1  0
 25 26  1  0
 25 27  1  0
 25 67  1  1
 26 68  1  0
 27 28  1  0
 27 32  1  0
 27 69  1  6
 28 29  1  0
 29 30  1  0
 29 70  1  0
 29 71  1  0
 30 31  1  0
 31 72  1  0
 31 73  1  0
 31 74  1  0
 32 33  1  0
 32 75  1  0
 32 76  1  0
 33 46  1  0
 33 34  1  1
 33 35  1  0
 34 77  1  0
 34 78  1  0
 34 79  1  0
 35 45  1  0
 35 36  1  0
 35 80  1  1
 36 37  1  0
 36 81  1  0
 36 82  1  0
 37 38  1  0
 37 83  1  0
 37 84  1  0
 38 39  1  0
 38 40  1  0
 38 85  1  6
 39 86  1  0
 39 87  1  0
 39 88  1  0
 40 45  1  0
 40 41  1  0
 40 89  1  6
 41 42  1  0
 41 90  1  0
 41 91  1  0
 42 43  2  0
 42 44  1  0
 45 44  1  6
 45 46  1  0
 46 92  1  6
M  END
>  <i_m_ct_stereo_status>  (70) 
1

>  <s_m_source_file>  (70) 
/var/tmp/pbs.5076255.sched01/tmp5ffkvrn0/0o5bi62ha.sdf

>  <i_m_source_file_index>  (70) 
37

>  <i_lp_mmshare_version>  (70) 
48012

>  <i_f3d_flags>  (70) 
0

>  <s_epik_input>  (70) 
Tz1DKE8xKVtDSDJdW0NAQEhdMltDQEhdKFtDSDNdKVtDSDJdW0NIMl1bQ0BIXShbQ0BAXTEyMylbQ0BAXTQoW0NIM10pW0NAQEhdM0MoPVtDSDJdKVtDQEhdKFtDQEBIXShbT0hdKVtDQEhdKFtDSDJdNClPW0NIMl1PW0NIM10pT1tDQEhdKFtDSDJdW0NAQF01NltDSF09W0NIXUMoPU8pTzUpW0NAXTcoW0NIM10pW0NAQEhdKE83KUM4W0NASF0oW0NIMl02KVtDSDJdQyg9TylDPThbQ0gzXQ==

>  <s_epik_cmdline>  (70) 
J2VwaWtfcHl0aG9uJywgJy1waHQnLCAnMi4wJywgJy1waCcsICc3LjAnLCAnLXRuJywgJzgnLCAnLW1hJywgJzIwMCcsICctaW1hZScsICc8aW5maWxlLm1hZT4nLCAnLW9tYWUnLCAnPG91dGZpbGUubWFlPic=

>  <r_lp_tautomer_probability>  (70) 
0.499977

>  <r_epik_Ionization_Penalty>  (70) 
1.1461e-06

>  <r_epik_Ionization_Penalty_Charging>  (70) 
0

>  <r_epik_Ionization_Penalty_Neutral>  (70) 
1.1461e-06

>  <r_epik_State_Penalty>  (70) 
0.41068

>  <r_epik_Charging_Adjusted_Penalty>  (70) 
0.41068

>  <i_epik_Tot_Q>  (70) 
0

>  <i_epik_Tot_abs_Q>  (70) 
0

>  <s_epik_Chemistry_Notes>  (70) 
This compound has an ester and may undergo hydrolysis at high or low pH. This compound contains an acetal/aminal-like group ( X-CH(R)-Y where X, Y are N, S, or O) that may be acid/base labile, releasing an aldehyde.

>  <s_lp_Force_Field>  (70) 
OPLS3e

>  <r_lp_Energy>  (70) 
102.692

>  <b_lp_Chiralities_Consistent>  (70) 
1

>  <s_lp_Variant>  (70) 
23:0-2

>  <s_i_glide_gridfile>  (70) 
pfpi4k_grid

>  <i_i_glide_lignum>  (70) 
37

>  <i_i_glide_rotatable_bonds>  (70) 
6

>  <r_i_docking_score>  (70) 
-1.73641

>  <r_i_glide_ligand_efficiency>  (70) 
-0.0377481

>  <r_i_glide_ligand_efficiency_sa>  (70) 
-0.135253

>  <r_i_glide_ligand_efficiency_ln>  (70) 
-0.359607

>  <r_i_glide_gscore>  (70) 
-1.73641

>  <r_i_glide_lipo>  (70) 
-0.445931

>  <r_i_glide_hbond>  (70) 
-0.00500401

>  <r_i_glide_metal>  (70) 
-0

>  <r_i_glide_rewards>  (70) 
-0.00442114

>  <r_i_glide_evdw>  (70) 
-26.1301

>  <r_i_glide_ecoul>  (70) 
0.0486682

>  <r_i_glide_erotb>  (70) 
0.0636092

>  <r_i_glide_esite>  (70) 
-0.0454636

>  <r_i_glide_emodel>  (70) 
-25.4403

>  <r_i_glide_energy>  (70) 
-26.0814

>  <r_i_glide_einternal>  (70) 
4.5826

>  <r_i_glide_intrahb_reward>  (70) 
-0

>  <i_i_glide_confnum>  (70) 
1

>  <i_i_glide_posenum>  (70) 
2

>  <r_i_glide_eff_state_penalty>  (70) 
0

>  <ligand_id>  (70) 
23

>  <original_smiles>  (70) 
C=C1C(OC2CC3(C=CC(=O)O3)CC3CC(=O)C(C)=C3C3OC23C)C(O)C(OCOC)CC2(C)C3CCC(C)C4CC(=O)OC43C12

>  <smiles>  (70) 
[H]OC1([H])C([H])(OC2([H])C([H])([H])C3(OC(=O)C([H])=C3[H])C([H])([H])C3=C([H])C(=O)C([H])(C([H])([H])[H])C3([H])C3([H])OC23C([H])([H])[H])C(=C([H])[H])C2([H])C34OC(=O)C([H])([H])C3([H])C([H])(C([H])([H])[H])C([H])([H])C([H])([H])C4([H])C2(C([H])([H])[H])C([H])([H])C1([H])OC([H])([H])OC([H])([H])[H]

$$$$
24:0:0
     RDKit          3D

 45 50  0  0  1  0  0  0  0  0999 V2000
    3.1510    0.1821   -4.4790 C   0  0  0  0  0  0  0  0  0  0  0  0
    3.8747   -0.8859   -3.7021 C   0  0  0  0  0  0  0  0  0  0  0  0
    4.6165   -1.6603   -4.3097 O   0  0  0  0  0  0  0  0  0  0  0  0
    3.6584   -0.8924   -2.3746 O   0  0  0  0  0  0  0  0  0  0  0  0
    4.4459   -1.6699   -1.4585 C   0  0  2  0  0  0  0  0  0  0  0  0
    4.8999   -3.1157   -1.9390 C   0  0  0  0  0  0  0  0  0  0  0  0
    4.6204   -3.7853   -0.6432 C   0  0  2  0  0  0  0  0  0  0  0  0
    4.9069   -5.0953    0.0499 C   0  0  1  0  0  0  0  0  0  0  0  0
    5.6907   -4.7853    1.2414 O   0  0  0  0  0  0  0  0  0  0  0  0
    5.1532   -3.8343    2.1689 C   0  0  1  0  0  0  0  0  0  0  0  0
    5.4011   -2.4620    1.8594 O   0  0  0  0  0  0  0  0  0  0  0  0
    4.4356   -1.5135    1.2895 C   0  0  0  0  0  0  0  0  0  0  0  0
    3.3897   -1.0876    2.3437 C   0  0  0  0  0  0  0  0  0  0  0  0
    5.3271   -0.2869    1.0953 C   0  0  0  0  0  0  0  0  0  0  0  0
    3.6770   -1.8659   -0.0633 C   0  0  2  0  0  0  0  0  0  0  0  0
    3.2563   -3.3454   -0.1816 C   0  0  1  0  0  0  0  0  0  0  0  0
    2.0862   -3.4979   -1.2054 C   0  0  0  0  0  0  0  0  0  0  0  0
    3.0708   -4.3220    0.9753 C   0  0  1  0  0  0  0  0  0  0  0  0
    2.2027   -5.3623    0.8440 O   0  0  0  0  0  0  0  0  0  0  0  0
    3.5677   -5.7445    0.4597 C   0  0  2  0  0  0  0  0  0  0  0  0
    3.6932   -4.0832    2.3118 C   0  0  2  0  0  0  0  0  0  0  0  0
    2.9512   -3.8652    3.6271 C   0  0  0  0  0  0  0  0  0  0  0  0
    3.3972   -5.1508    3.2453 O   0  0  0  0  0  0  0  0  0  0  0  0
    3.4612    1.1515   -4.0951 H   0  0  0  0  0  0  0  0  0  0  0  0
    2.0653    0.0962   -4.4148 H   0  0  0  0  0  0  0  0  0  0  0  0
    3.4392    0.1301   -5.5275 H   0  0  0  0  0  0  0  0  0  0  0  0
    5.3481   -1.0793   -1.3024 H   0  0  0  0  0  0  0  0  0  0  0  0
    4.3032   -3.6065   -2.7109 H   0  0  0  0  0  0  0  0  0  0  0  0
    5.9569   -3.1426   -2.2118 H   0  0  0  0  0  0  0  0  0  0  0  0
    5.4669   -3.2690   -0.2056 H   0  0  0  0  0  0  0  0  0  0  0  0
    5.4548   -5.7742   -0.6073 H   0  0  0  0  0  0  0  0  0  0  0  0
    5.6777   -4.0118    3.1046 H   0  0  0  0  0  0  0  0  0  0  0  0
    3.0198   -0.0798    2.1525 H   0  0  0  0  0  0  0  0  0  0  0  0
    3.8153   -1.0982    3.3463 H   0  0  0  0  0  0  0  0  0  0  0  0
    2.4984   -1.7156    2.3293 H   0  0  0  0  0  0  0  0  0  0  0  0
    4.7873    0.5151    0.5855 H   0  0  0  0  0  0  0  0  0  0  0  0
    6.2272   -0.5188    0.5238 H   0  0  0  0  0  0  0  0  0  0  0  0
    5.6629    0.0965    2.0604 H   0  0  0  0  0  0  0  0  0  0  0  0
    2.7975   -1.2275   -0.0869 H   0  0  0  0  0  0  0  0  0  0  0  0
    1.1719   -3.1854   -0.7303 H   0  0  0  0  0  0  0  0  0  0  0  0
    1.9207   -4.5234   -1.5300 H   0  0  0  0  0  0  0  0  0  0  0  0
    2.1746   -2.8741   -2.0976 H   0  0  0  0  0  0  0  0  0  0  0  0
    3.3285   -6.2786   -0.4467 H   0  0  0  0  0  0  0  0  0  0  0  0
    3.5054   -3.4599    4.4757 H   0  0  0  0  0  0  0  0  0  0  0  0
    1.8699   -3.7571    3.6368 H   0  0  0  0  0  0  0  0  0  0  0  0
  1  2  1  0
  1 24  1  0
  1 25  1  0
  1 26  1  0
  2  3  2  0
  2  4  1  0
  4  5  1  0
  5 15  1  0
  5  6  1  0
  5 27  1  1
  6  7  1  0
  6 28  1  0
  6 29  1  0
  7 16  1  0
  7  8  1  0
  7 30  1  1
  8 20  1  0
  8  9  1  0
  8 31  1  6
  9 10  1  0
 10 21  1  0
 10 11  1  0
 10 32  1  1
 11 12  1  0
 12 13  1  0
 12 14  1  0
 12 15  1  0
 13 33  1  0
 13 34  1  0
 13 35  1  0
 14 36  1  0
 14 37  1  0
 14 38  1  0
 15 16  1  0
 15 39  1  6
 16 17  1  6
 16 18  1  0
 17 40  1  0
 17 41  1  0
 17 42  1  0
 18 20  1  0
 18 19  1  1
 18 21  1  0
 19 20  1  0
 20 43  1  1
 21 23  1  1
 21 22  1  0
 22 23  1  0
 22 44  1  0
 22 45  1  0
M  END
>  <i_m_ct_stereo_status>  (71) 
1

>  <s_m_source_file>  (71) 
/var/tmp/pbs.5076255.sched01/tmp5ffkvrn0/0o5bi62ha.sdf

>  <i_m_source_file_index>  (71) 
38

>  <i_lp_mmshare_version>  (71) 
48012

>  <i_f3d_flags>  (71) 
0

>  <s_epik_input>  (71) 
W0NIM11DKD1PKU9bQ0BIXShbQ0gyXTEpW0NASF0oQyhPMikoW0NIM10pW0NIM10pW0NAQF0zKFtDSDNdKVtDQEhdMVtDQEhdKFtDQEhdNE81KU9bQ0BASF0yW0NAXTYoW0NAQF0zNDUpW0NIMl1PNg==

>  <s_epik_cmdline>  (71) 
J2VwaWtfcHl0aG9uJywgJy1waHQnLCAnMi4wJywgJy1waCcsICc3LjAnLCAnLXRuJywgJzgnLCAnLW1hJywgJzIwMCcsICctaW1hZScsICc8aW5maWxlLm1hZT4nLCAnLW9tYWUnLCAnPG91dGZpbGUubWFlPic=

>  <r_lp_tautomer_probability>  (71) 
1

>  <r_epik_Ionization_Penalty>  (71) 
5.6399e-13

>  <r_epik_Ionization_Penalty_Charging>  (71) 
0

>  <r_epik_Ionization_Penalty_Neutral>  (71) 
5.6399e-13

>  <r_epik_State_Penalty>  (71) 
-0

>  <r_epik_Charging_Adjusted_Penalty>  (71) 
0

>  <i_epik_Tot_Q>  (71) 
0

>  <i_epik_Tot_abs_Q>  (71) 
0

>  <s_epik_Chemistry_Notes>  (71) 
This compound has an ester and may undergo hydrolysis at high or low pH. This compound contains an acetal/aminal-like group ( X-CH(R)-Y where X, Y are N, S, or O) that may be acid/base labile, releasing an aldehyde.

>  <s_lp_Force_Field>  (71) 
OPLS3e

>  <r_lp_Energy>  (71) 
137.675

>  <b_lp_Chiralities_Consistent>  (71) 
1

>  <s_lp_Variant>  (71) 
24:0-1

>  <s_i_glide_gridfile>  (71) 
pfpi4k_grid

>  <i_i_glide_lignum>  (71) 
38

>  <i_i_glide_rotatable_bonds>  (71) 
2

>  <r_i_docking_score>  (71) 
-3.84095

>  <r_i_glide_ligand_efficiency>  (71) 
-0.166998

>  <r_i_glide_ligand_efficiency_sa>  (71) 
-0.47492

>  <r_i_glide_ligand_efficiency_ln>  (71) 
-0.928777

>  <r_i_glide_gscore>  (71) 
-3.84095

>  <r_i_glide_lipo>  (71) 
-0.340109

>  <r_i_glide_hbond>  (71) 
-0.332441

>  <r_i_glide_metal>  (71) 
-0

>  <r_i_glide_rewards>  (71) 
-1.57569

>  <r_i_glide_evdw>  (71) 
-22.1006

>  <r_i_glide_ecoul>  (71) 
-4.45091

>  <r_i_glide_erotb>  (71) 
0.179953

>  <r_i_glide_esite>  (71) 
0

>  <r_i_glide_emodel>  (71) 
-28.322

>  <r_i_glide_energy>  (71) 
-26.5515

>  <r_i_glide_einternal>  (71) 
4.77396

>  <r_i_glide_intrahb_reward>  (71) 
-0

>  <i_i_glide_confnum>  (71) 
6

>  <i_i_glide_posenum>  (71) 
6

>  <r_i_glide_eff_state_penalty>  (71) 
0

>  <ligand_id>  (71) 
24

>  <original_smiles>  (71) 
CC(=O)OC1CC2C3OC4OC(C)(C)C1C2(C)C1(OC31)C41CO1

>  <smiles>  (71) 
[H]C([H])([H])C(=O)OC1([H])C([H])([H])C2([H])C3([H])OC4([H])OC(C([H])([H])[H])(C([H])([H])[H])C1([H])C2(C([H])([H])[H])C1(OC31[H])C41OC1([H])[H]

$$$$
24:0:1
     RDKit          3D

 45 50  0  0  1  0  0  0  0  0999 V2000
    3.2809   -0.4761   -4.6545 C   0  0  0  0  0  0  0  0  0  0  0  0
    3.9985   -0.8323   -3.3575 C   0  0  0  0  0  0  0  0  0  0  0  0
    4.6046    0.0111   -2.7142 O   0  0  0  0  0  0  0  0  0  0  0  0
    3.9656   -2.1004   -3.0239 O   0  0  0  0  0  0  0  0  0  0  0  0
    4.6236   -2.4894   -1.8093 C   0  0  2  0  0  0  0  0  0  0  0  0
    4.9040   -3.9996   -1.9265 C   0  0  0  0  0  0  0  0  0  0  0  0
    4.4348   -4.3595   -0.5402 C   0  0  2  0  0  0  0  0  0  0  0  0
    4.5374   -5.4717    0.4739 C   0  0  1  0  0  0  0  0  0  0  0  0
    5.3130   -4.9884    1.6097 O   0  0  0  0  0  0  0  0  0  0  0  0
    4.9414   -3.7634    2.2601 C   0  0  1  0  0  0  0  0  0  0  0  0
    5.3807   -2.5759    1.6311 O   0  0  0  0  0  0  0  0  0  0  0  0
    4.5837   -1.6781    0.7909 C   0  0  0  0  0  0  0  0  0  0  0  0
    3.6116   -0.8254    1.6295 C   0  0  0  0  0  0  0  0  0  0  0  0
    5.6855   -0.7004    0.3683 C   0  0  0  0  0  0  0  0  0  0  0  0
    3.7847   -2.2430   -0.4599 C   0  0  2  0  0  0  0  0  0  0  0  0
    3.1543   -3.6313   -0.2384 C   0  0  1  0  0  0  0  0  0  0  0  0
    1.9729   -3.8463   -1.2241 C   0  0  0  0  0  0  0  0  0  0  0  0
    2.8297   -4.2483    1.1212 C   0  0  1  0  0  0  0  0  0  0  0  0
    1.8468   -5.1869    1.2230 O   0  0  0  0  0  0  0  0  0  0  0  0
    3.1170   -5.8179    0.9386 C   0  0  2  0  0  0  0  0  0  0  0  0
    3.4566   -3.7506    2.3826 C   0  0  2  0  0  0  0  0  0  0  0  0
    2.7338   -3.0653    3.5387 C   0  0  0  0  0  0  0  0  0  0  0  0
    2.9806   -4.4659    3.5351 O   0  0  0  0  0  0  0  0  0  0  0  0
    2.2279   -0.7510   -4.5935 H   0  0  0  0  0  0  0  0  0  0  0  0
    3.7442   -0.9982   -5.4904 H   0  0  0  0  0  0  0  0  0  0  0  0
    3.3446    0.5950   -4.8401 H   0  0  0  0  0  0  0  0  0  0  0  0
    5.6065   -2.0255   -1.7805 H   0  0  0  0  0  0  0  0  0  0  0  0
    4.3104   -4.4391   -2.7238 H   0  0  0  0  0  0  0  0  0  0  0  0
    5.9594   -4.1976   -2.1266 H   0  0  0  0  0  0  0  0  0  0  0  0
    5.3390   -3.8806   -0.1732 H   0  0  0  0  0  0  0  0  0  0  0  0
    5.0137   -6.3689    0.0700 H   0  0  0  0  0  0  0  0  0  0  0  0
    5.4099   -3.7537    3.2446 H   0  0  0  0  0  0  0  0  0  0  0  0
    3.4096    0.1352    1.1530 H   0  0  0  0  0  0  0  0  0  0  0  0
    4.0120   -0.6258    2.6235 H   0  0  0  0  0  0  0  0  0  0  0  0
    2.6353   -1.2940    1.7211 H   0  0  0  0  0  0  0  0  0  0  0  0
    5.2735    0.0271   -0.3193 H   0  0  0  0  0  0  0  0  0  0  0  0
    6.5356   -1.2012   -0.0982 H   0  0  0  0  0  0  0  0  0  0  0  0
    6.0724   -0.1343    1.2164 H   0  0  0  0  0  0  0  0  0  0  0  0
    3.0169   -1.5169   -0.6987 H   0  0  0  0  0  0  0  0  0  0  0  0
    1.0971   -3.2792   -0.9449 H   0  0  0  0  0  0  0  0  0  0  0  0
    1.6554   -4.8933   -1.2662 H   0  0  0  0  0  0  0  0  0  0  0  0
    2.1737   -3.5393   -2.2440 H   0  0  0  0  0  0  0  0  0  0  0  0
    2.7929   -6.4920    0.1572 H   0  0  0  0  0  0  0  0  0  0  0  0
    3.3084   -2.5531    4.2877 H   0  0  0  0  0  0  0  0  0  0  0  0
    1.6788   -2.8101    3.4662 H   0  0  0  0  0  0  0  0  0  0  0  0
  1  2  1  0
  1 24  1  0
  1 25  1  0
  1 26  1  0
  2  3  2  0
  2  4  1  0
  4  5  1  0
  5 15  1  0
  5  6  1  0
  5 27  1  1
  6  7  1  0
  6 28  1  0
  6 29  1  0
  7 16  1  0
  7  8  1  0
  7 30  1  1
  8 20  1  0
  8  9  1  0
  8 31  1  6
  9 10  1  0
 10 21  1  0
 10 11  1  0
 10 32  1  1
 11 12  1  0
 12 13  1  0
 12 14  1  0
 12 15  1  0
 13 33  1  0
 13 34  1  0
 13 35  1  0
 14 36  1  0
 14 37  1  0
 14 38  1  0
 15 16  1  0
 15 39  1  6
 16 17  1  6
 16 18  1  0
 17 40  1  0
 17 41  1  0
 17 42  1  0
 18 20  1  0
 18 19  1  1
 18 21  1  0
 19 20  1  0
 20 43  1  1
 21 23  1  1
 21 22  1  0
 22 23  1  0
 22 44  1  0
 22 45  1  0
M  END
>  <i_m_ct_stereo_status>  (72) 
1

>  <s_m_source_file>  (72) 
/var/tmp/pbs.5076255.sched01/tmp5ffkvrn0/0o5bi62ha.sdf

>  <i_m_source_file_index>  (72) 
38

>  <i_lp_mmshare_version>  (72) 
48012

>  <i_f3d_flags>  (72) 
0

>  <s_epik_input>  (72) 
W0NIM11DKD1PKU9bQ0BIXShbQ0gyXTEpW0NASF0oQyhPMikoW0NIM10pW0NIM10pW0NAQF0zKFtDSDNdKVtDQEhdMVtDQEhdKFtDQEhdNE81KU9bQ0BASF0yW0NAXTYoW0NAQF0zNDUpW0NIMl1PNg==

>  <s_epik_cmdline>  (72) 
J2VwaWtfcHl0aG9uJywgJy1waHQnLCAnMi4wJywgJy1waCcsICc3LjAnLCAnLXRuJywgJzgnLCAnLW1hJywgJzIwMCcsICctaW1hZScsICc8aW5maWxlLm1hZT4nLCAnLW9tYWUnLCAnPG91dGZpbGUubWFlPic=

>  <r_lp_tautomer_probability>  (72) 
1

>  <r_epik_Ionization_Penalty>  (72) 
5.6399e-13

>  <r_epik_Ionization_Penalty_Charging>  (72) 
0

>  <r_epik_Ionization_Penalty_Neutral>  (72) 
5.6399e-13

>  <r_epik_State_Penalty>  (72) 
-0

>  <r_epik_Charging_Adjusted_Penalty>  (72) 
0

>  <i_epik_Tot_Q>  (72) 
0

>  <i_epik_Tot_abs_Q>  (72) 
0

>  <s_epik_Chemistry_Notes>  (72) 
This compound has an ester and may undergo hydrolysis at high or low pH. This compound contains an acetal/aminal-like group ( X-CH(R)-Y where X, Y are N, S, or O) that may be acid/base labile, releasing an aldehyde.

>  <s_lp_Force_Field>  (72) 
OPLS3e

>  <r_lp_Energy>  (72) 
137.675

>  <b_lp_Chiralities_Consistent>  (72) 
1

>  <s_lp_Variant>  (72) 
24:0-1

>  <s_i_glide_gridfile>  (72) 
pfpi4k_grid

>  <i_i_glide_lignum>  (72) 
38

>  <i_i_glide_rotatable_bonds>  (72) 
2

>  <r_i_docking_score>  (72) 
-3.17997

>  <r_i_glide_ligand_efficiency>  (72) 
-0.138259

>  <r_i_glide_ligand_efficiency_sa>  (72) 
-0.393191

>  <r_i_glide_ligand_efficiency_ln>  (72) 
-0.768944

>  <r_i_glide_gscore>  (72) 
-3.17997

>  <r_i_glide_lipo>  (72) 
-0.505441

>  <r_i_glide_hbond>  (72) 
-0.07619

>  <r_i_glide_metal>  (72) 
-0

>  <r_i_glide_rewards>  (72) 
-1.51582

>  <r_i_glide_evdw>  (72) 
-20.9877

>  <r_i_glide_ecoul>  (72) 
-1.42057

>  <r_i_glide_erotb>  (72) 
0.179953

>  <r_i_glide_esite>  (72) 
0

>  <r_i_glide_emodel>  (72) 
-26.2624

>  <r_i_glide_energy>  (72) 
-22.4083

>  <r_i_glide_einternal>  (72) 
0.136419

>  <r_i_glide_intrahb_reward>  (72) 
-0

>  <i_i_glide_confnum>  (72) 
3

>  <i_i_glide_posenum>  (72) 
2

>  <r_i_glide_eff_state_penalty>  (72) 
0

>  <ligand_id>  (72) 
24

>  <original_smiles>  (72) 
CC(=O)OC1CC2C3OC4OC(C)(C)C1C2(C)C1(OC31)C41CO1

>  <smiles>  (72) 
[H]C([H])([H])C(=O)OC1([H])C([H])([H])C2([H])C3([H])OC4([H])OC(C([H])([H])[H])(C([H])([H])[H])C1([H])C2(C([H])([H])[H])C1(OC31[H])C41OC1([H])[H]

$$$$
24:0:2
     RDKit          3D

 45 50  0  0  1  0  0  0  0  0999 V2000
    0.5104   -4.5160    5.1820 C   0  0  0  0  0  0  0  0  0  0  0  0
    1.4365   -4.7075    3.9937 C   0  0  0  0  0  0  0  0  0  0  0  0
    1.1536   -5.4983    3.0971 O   0  0  0  0  0  0  0  0  0  0  0  0
    2.5251   -3.9146    4.0511 O   0  0  0  0  0  0  0  0  0  0  0  0
    3.5324   -3.9669    3.0359 C   0  0  2  0  0  0  0  0  0  0  0  0
    4.7790   -3.1310    3.5065 C   0  0  0  0  0  0  0  0  0  0  0  0
    5.0065   -2.4369    2.1844 C   0  0  2  0  0  0  0  0  0  0  0  0
    6.0777   -1.6881    1.4127 C   0  0  1  0  0  0  0  0  0  0  0  0
    6.4770   -2.4777    0.2492 O   0  0  0  0  0  0  0  0  0  0  0  0
    5.4606   -2.9366   -0.6529 C   0  0  1  0  0  0  0  0  0  0  0  0
    4.7793   -4.1155   -0.2444 O   0  0  0  0  0  0  0  0  0  0  0  0
    3.4311   -4.1997    0.3287 C   0  0  0  0  0  0  0  0  0  0  0  0
    2.3548   -3.9185   -0.7353 C   0  0  0  0  0  0  0  0  0  0  0  0
    3.3651   -5.7109    0.5993 C   0  0  0  0  0  0  0  0  0  0  0  0
    3.0646   -3.3633    1.6228 C   0  0  2  0  0  0  0  0  0  0  0  0
    3.6843   -1.9557    1.6572 C   0  0  1  0  0  0  0  0  0  0  0  0
    2.8757   -1.0063    2.5999 C   0  0  0  0  0  0  0  0  0  0  0  0
    4.1779   -1.1713    0.4441 C   0  0  1  0  0  0  0  0  0  0  0  0
    4.1938    0.1760    0.4959 O   0  0  0  0  0  0  0  0  0  0  0  0
    5.4538   -0.3618    0.9643 C   0  0  2  0  0  0  0  0  0  0  0  0
    4.4969   -1.8212   -0.8711 C   0  0  2  0  0  0  0  0  0  0  0  0
    3.7799   -1.6034   -2.1956 C   0  0  0  0  0  0  0  0  0  0  0  0
    4.9545   -0.8791   -1.8675 O   0  0  0  0  0  0  0  0  0  0  0  0
    0.1699   -3.4821    5.2283 H   0  0  0  0  0  0  0  0  0  0  0  0
    1.0188   -4.7752    6.1105 H   0  0  0  0  0  0  0  0  0  0  0  0
   -0.3595   -5.1617    5.0705 H   0  0  0  0  0  0  0  0  0  0  0  0
    3.8507   -5.0043    2.9407 H   0  0  0  0  0  0  0  0  0  0  0  0
    4.5500   -2.4308    4.3127 H   0  0  0  0  0  0  0  0  0  0  0  0
    5.6165   -3.7661    3.8090 H   0  0  0  0  0  0  0  0  0  0  0  0
    5.3426   -3.3887    1.7893 H   0  0  0  0  0  0  0  0  0  0  0  0
    6.9540   -1.4712    2.0234 H   0  0  0  0  0  0  0  0  0  0  0  0
    5.9627   -3.1949   -1.5850 H   0  0  0  0  0  0  0  0  0  0  0  0
    1.4368   -4.4696   -0.5339 H   0  0  0  0  0  0  0  0  0  0  0  0
    2.6931   -4.2226   -1.7222 H   0  0  0  0  0  0  0  0  0  0  0  0
    2.0723   -2.8713   -0.7804 H   0  0  0  0  0  0  0  0  0  0  0  0
    2.4378   -6.0086    1.0808 H   0  0  0  0  0  0  0  0  0  0  0  0
    4.2093   -6.0675    1.1931 H   0  0  0  0  0  0  0  0  0  0  0  0
    3.4115   -6.2663   -0.3278 H   0  0  0  0  0  0  0  0  0  0  0  0
    1.9803   -3.2576    1.6300 H   0  0  0  0  0  0  0  0  0  0  0  0
    1.9875   -0.6334    2.0848 H   0  0  0  0  0  0  0  0  0  0  0  0
    3.4535   -0.1373    2.9167 H   0  0  0  0  0  0  0  0  0  0  0  0
    2.5251   -1.4894    3.5095 H   0  0  0  0  0  0  0  0  0  0  0  0
    5.5710    0.2208    1.8739 H   0  0  0  0  0  0  0  0  0  0  0  0
    3.9228   -2.3242   -2.9988 H   0  0  0  0  0  0  0  0  0  0  0  0
    2.8749   -0.9994   -2.2351 H   0  0  0  0  0  0  0  0  0  0  0  0
  1  2  1  0
  1 24  1  0
  1 25  1  0
  1 26  1  0
  2  3  2  0
  2  4  1  0
  4  5  1  0
  5 15  1  0
  5  6  1  0
  5 27  1  6
  6  7  1  0
  6 28  1  0
  6 29  1  0
  7 16  1  0
  7  8  1  0
  7 30  1  6
  8 20  1  0
  8  9  1  0
  8 31  1  1
  9 10  1  0
 10 21  1  0
 10 11  1  0
 10 32  1  6
 11 12  1  0
 12 13  1  0
 12 14  1  0
 12 15  1  0
 13 33  1  0
 13 34  1  0
 13 35  1  0
 14 36  1  0
 14 37  1  0
 14 38  1  0
 15 16  1  0
 15 39  1  1
 16 17  1  1
 16 18  1  0
 17 40  1  0
 17 41  1  0
 17 42  1  0
 18 20  1  0
 18 19  1  6
 18 21  1  0
 19 20  1  0
 20 43  1  6
 21 23  1  6
 21 22  1  0
 22 23  1  0
 22 44  1  0
 22 45  1  0
M  END
>  <i_m_ct_stereo_status>  (73) 
1

>  <s_m_source_file>  (73) 
/var/tmp/pbs.5076255.sched01/tmp5ffkvrn0/0o5bi62ha.sdf

>  <i_m_source_file_index>  (73) 
38

>  <i_lp_mmshare_version>  (73) 
48012

>  <i_f3d_flags>  (73) 
0

>  <s_epik_input>  (73) 
W0NIM11DKD1PKU9bQ0BIXShbQ0gyXTEpW0NASF0oQyhPMikoW0NIM10pW0NIM10pW0NAQF0zKFtDSDNdKVtDQEhdMVtDQEhdKFtDQEhdNE81KU9bQ0BASF0yW0NAXTYoW0NAQF0zNDUpW0NIMl1PNg==

>  <s_epik_cmdline>  (73) 
J2VwaWtfcHl0aG9uJywgJy1waHQnLCAnMi4wJywgJy1waCcsICc3LjAnLCAnLXRuJywgJzgnLCAnLW1hJywgJzIwMCcsICctaW1hZScsICc8aW5maWxlLm1hZT4nLCAnLW9tYWUnLCAnPG91dGZpbGUubWFlPic=

>  <r_lp_tautomer_probability>  (73) 
1

>  <r_epik_Ionization_Penalty>  (73) 
5.6399e-13

>  <r_epik_Ionization_Penalty_Charging>  (73) 
0

>  <r_epik_Ionization_Penalty_Neutral>  (73) 
5.6399e-13

>  <r_epik_State_Penalty>  (73) 
-0

>  <r_epik_Charging_Adjusted_Penalty>  (73) 
0

>  <i_epik_Tot_Q>  (73) 
0

>  <i_epik_Tot_abs_Q>  (73) 
0

>  <s_epik_Chemistry_Notes>  (73) 
This compound has an ester and may undergo hydrolysis at high or low pH. This compound contains an acetal/aminal-like group ( X-CH(R)-Y where X, Y are N, S, or O) that may be acid/base labile, releasing an aldehyde.

>  <s_lp_Force_Field>  (73) 
OPLS3e

>  <r_lp_Energy>  (73) 
137.675

>  <b_lp_Chiralities_Consistent>  (73) 
1

>  <s_lp_Variant>  (73) 
24:0-1

>  <s_i_glide_gridfile>  (73) 
pfpi4k_grid

>  <i_i_glide_lignum>  (73) 
38

>  <i_i_glide_rotatable_bonds>  (73) 
2

>  <r_i_docking_score>  (73) 
-2.73588

>  <r_i_glide_ligand_efficiency>  (73) 
-0.118951

>  <r_i_glide_ligand_efficiency_sa>  (73) 
-0.338282

>  <r_i_glide_ligand_efficiency_ln>  (73) 
-0.661561

>  <r_i_glide_gscore>  (73) 
-2.73588

>  <r_i_glide_lipo>  (73) 
-0.404443

>  <r_i_glide_hbond>  (73) 
0

>  <r_i_glide_metal>  (73) 
-0

>  <r_i_glide_rewards>  (73) 
-1.23257

>  <r_i_glide_evdw>  (73) 
-21.6837

>  <r_i_glide_ecoul>  (73) 
-1.26417

>  <r_i_glide_erotb>  (73) 
0.179953

>  <r_i_glide_esite>  (73) 
-0.00500559

>  <r_i_glide_emodel>  (73) 
-26.3874

>  <r_i_glide_energy>  (73) 
-22.9478

>  <r_i_glide_einternal>  (73) 
0.403508

>  <r_i_glide_intrahb_reward>  (73) 
-0

>  <i_i_glide_confnum>  (73) 
2

>  <i_i_glide_posenum>  (73) 
28

>  <r_i_glide_eff_state_penalty>  (73) 
0

>  <ligand_id>  (73) 
24

>  <original_smiles>  (73) 
CC(=O)OC1CC2C3OC4OC(C)(C)C1C2(C)C1(OC31)C41CO1

>  <smiles>  (73) 
[H]C([H])([H])C(=O)OC1([H])C([H])([H])C2([H])C3([H])OC4([H])OC(C([H])([H])[H])(C([H])([H])[H])C1([H])C2(C([H])([H])[H])C1(OC31[H])C41OC1([H])[H]

$$$$
25:0:0
     RDKit          3D

 84 88  0  0  1  0  0  0  0  0999 V2000
    6.5605   -1.0804    0.3137 C   0  0  0  0  0  0  0  0  0  0  0  0
    5.0184   -1.2800    0.2811 C   0  0  0  0  0  0  0  0  0  0  0  0
    4.4230    0.0088    0.9194 C   0  0  0  0  0  0  0  0  0  0  0  0
    4.4933   -1.3982   -1.1812 C   0  0  1  0  0  0  0  0  0  0  0  0
    5.0160   -0.3880   -2.0136 O   0  0  0  0  0  0  0  0  0  0  0  0
    4.8432   -2.7230   -1.8740 C   0  0  0  0  0  0  0  0  0  0  0  0
    4.4019   -3.9321   -1.0297 C   0  0  0  0  0  0  0  0  0  0  0  0
    4.9397   -3.9391    0.4344 C   0  0  1  0  0  0  0  0  0  0  0  0
    6.4731   -4.1793    0.3091 C   0  0  0  0  0  0  0  0  0  0  0  0
    4.5744   -2.5590    1.1038 C   0  0  2  0  0  0  0  0  0  0  0  0
    3.0558   -2.5274    1.4577 C   0  0  0  0  0  0  0  0  0  0  0  0
    2.5542   -3.7122    2.3053 C   0  0  0  0  0  0  0  0  0  0  0  0
    2.8408   -5.1200    1.7014 C   0  0  1  0  0  0  0  0  0  0  0  0
    1.9770   -5.3201    0.4209 C   0  0  0  0  0  0  0  0  0  0  0  0
    4.3855   -5.1353    1.3506 C   0  0  2  0  0  0  0  0  0  0  0  0
    5.2104   -5.2438    2.6694 C   0  0  0  0  0  0  0  0  0  0  0  0
    4.8467   -6.4483    3.5229 C   0  0  0  0  0  0  0  0  0  0  0  0
    3.3745   -6.4254    3.9630 C   0  0  2  0  0  0  0  0  0  0  0  0
    3.1204   -7.6548    4.9062 C   0  0  1  0  0  0  0  0  0  0  0  0
    2.1123   -7.5044    6.0582 C   0  0  0  0  0  0  0  0  0  0  0  0
    1.3978   -8.8799    6.2559 C   0  0  0  0  0  0  0  0  0  0  0  0
    1.3799   -9.2622    7.7699 C   0  0  0  0  0  0  0  0  0  0  0  0
   -0.0894   -8.7202    5.8852 C   0  0  0  0  0  0  0  0  0  0  0  0
    2.1851   -9.8941    5.3337 C   0  0  1  0  0  0  0  0  0  0  0  0
    3.3847  -10.4969    6.1268 C   0  0  0  0  0  0  0  0  0  0  0  0
    1.3839  -11.1483    4.8124 C   0  0  0  0  0  0  0  0  0  0  0  0
    0.2431  -10.8990    4.0065 O   0  0  0  0  0  0  0  0  0  0  0  0
    2.8283   -9.0078    4.2097 C   0  0  1  0  0  0  0  0  0  0  0  0
    2.0187   -8.8641    2.9075 C   0  0  0  0  0  0  0  0  0  0  0  0
    2.4582   -7.7051    2.0107 C   0  0  0  0  0  0  0  0  0  0  0  0
    2.4208   -6.3045    2.7219 C   0  0  2  0  0  0  0  0  0  0  0  0
    0.9850   -6.0187    3.2581 C   0  0  0  0  0  0  0  0  0  0  0  0
    6.8276   -0.0517    0.0931 H   0  0  0  0  0  0  0  0  0  0  0  0
    7.0817   -1.6826   -0.4246 H   0  0  0  0  0  0  0  0  0  0  0  0
    6.9713   -1.3175    1.2916 H   0  0  0  0  0  0  0  0  0  0  0  0
    3.3394    0.0702    0.7666 H   0  0  0  0  0  0  0  0  0  0  0  0
    4.8359    0.9064    0.4866 H   0  0  0  0  0  0  0  0  0  0  0  0
    4.6280    0.0332    1.9954 H   0  0  0  0  0  0  0  0  0  0  0  0
    3.4021   -1.2755   -1.1853 H   0  0  0  0  0  0  0  0  0  0  0  0
    4.9555    0.4326   -1.5404 H   0  0  0  0  0  0  0  0  0  0  0  0
    4.3289   -2.7541   -2.8337 H   0  0  0  0  0  0  0  0  0  0  0  0
    5.9010   -2.7545   -2.1233 H   0  0  0  0  0  0  0  0  0  0  0  0
    3.3291   -3.8513   -1.0696 H   0  0  0  0  0  0  0  0  0  0  0  0
    4.6620   -4.8590   -1.5354 H   0  0  0  0  0  0  0  0  0  0  0  0
    7.0234   -3.7685    1.1546 H   0  0  0  0  0  0  0  0  0  0  0  0
    6.9183   -3.7698   -0.5906 H   0  0  0  0  0  0  0  0  0  0  0  0
    6.6908   -5.2454    0.2453 H   0  0  0  0  0  0  0  0  0  0  0  0
    5.1031   -2.4842    2.0511 H   0  0  0  0  0  0  0  0  0  0  0  0
    2.8266   -1.6430    2.0417 H   0  0  0  0  0  0  0  0  0  0  0  0
    2.4625   -2.4344    0.5501 H   0  0  0  0  0  0  0  0  0  0  0  0
    2.9921   -3.6297    3.2980 H   0  0  0  0  0  0  0  0  0  0  0  0
    1.4858   -3.5692    2.4499 H   0  0  0  0  0  0  0  0  0  0  0  0
    2.5236   -5.9126   -0.3080 H   0  0  0  0  0  0  0  0  0  0  0  0
    1.6897   -4.3810   -0.0407 H   0  0  0  0  0  0  0  0  0  0  0  0
    1.0373   -5.8417    0.5785 H   0  0  0  0  0  0  0  0  0  0  0  0
    4.5739   -6.0502    0.7844 H   0  0  0  0  0  0  0  0  0  0  0  0
    6.2726   -5.3472    2.4843 H   0  0  0  0  0  0  0  0  0  0  0  0
    5.0976   -4.3457    3.2735 H   0  0  0  0  0  0  0  0  0  0  0  0
    5.0827   -7.3642    2.9830 H   0  0  0  0  0  0  0  0  0  0  0  0
    5.4859   -6.4363    4.4007 H   0  0  0  0  0  0  0  0  0  0  0  0
    3.2501   -5.5353    4.5821 H   0  0  0  0  0  0  0  0  0  0  0  0
    4.0664   -7.8126    5.4316 H   0  0  0  0  0  0  0  0  0  0  0  0
    2.6595   -7.2250    6.9548 H   0  0  0  0  0  0  0  0  0  0  0  0
    1.4046   -6.7002    5.8948 H   0  0  0  0  0  0  0  0  0  0  0  0
    0.9692  -10.2598    7.9278 H   0  0  0  0  0  0  0  0  0  0  0  0
    0.7707   -8.5542    8.3398 H   0  0  0  0  0  0  0  0  0  0  0  0
    2.3703   -9.2308    8.2272 H   0  0  0  0  0  0  0  0  0  0  0  0
   -0.6379   -9.6215    6.1730 H   0  0  0  0  0  0  0  0  0  0  0  0
   -0.2512   -8.5617    4.8209 H   0  0  0  0  0  0  0  0  0  0  0  0
   -0.5278   -7.8935    6.4305 H   0  0  0  0  0  0  0  0  0  0  0  0
    4.0386  -11.0730    5.4790 H   0  0  0  0  0  0  0  0  0  0  0  0
    3.0439  -11.1765    6.9028 H   0  0  0  0  0  0  0  0  0  0  0  0
    3.9943   -9.7365    6.6149 H   0  0  0  0  0  0  0  0  0  0  0  0
    2.0708  -11.8156    4.2819 H   0  0  0  0  0  0  0  0  0  0  0  0
    1.0192  -11.7194    5.6648 H   0  0  0  0  0  0  0  0  0  0  0  0
   -0.5078  -10.7101    4.5596 H   0  0  0  0  0  0  0  0  0  0  0  0
    3.7851   -9.4420    3.9146 H   0  0  0  0  0  0  0  0  0  0  0  0
    2.1299   -9.7887    2.3371 H   0  0  0  0  0  0  0  0  0  0  0  0
    0.9582   -8.7825    3.1128 H   0  0  0  0  0  0  0  0  0  0  0  0
    3.4497   -7.9158    1.6124 H   0  0  0  0  0  0  0  0  0  0  0  0
    1.8086   -7.7508    1.1465 H   0  0  0  0  0  0  0  0  0  0  0  0
    0.6043   -6.8301    3.8615 H   0  0  0  0  0  0  0  0  0  0  0  0
    0.2430   -5.8666    2.4835 H   0  0  0  0  0  0  0  0  0  0  0  0
    0.9720   -5.1500    3.9143 H   0  0  0  0  0  0  0  0  0  0  0  0
  1  2  1  0
  1 33  1  0
  1 34  1  0
  1 35  1  0
  2 10  1  0
  2  3  1  0
  2  4  1  0
  3 36  1  0
  3 37  1  0
  3 38  1  0
  4  5  1  0
  4  6  1  0
  4 39  1  1
  5 40  1  0
  6  7  1  0
  6 41  1  0
  6 42  1  0
  7  8  1  0
  7 43  1  0
  7 44  1  0
  8 15  1  0
  8  9  1  6
  8 10  1  0
  9 45  1  0
  9 46  1  0
  9 47  1  0
 10 11  1  0
 10 48  1  1
 11 12  1  0
 11 49  1  0
 11 50  1  0
 12 13  1  0
 12 51  1  0
 12 52  1  0
 13 31  1  0
 13 14  1  6
 13 15  1  0
 14 53  1  0
 14 54  1  0
 14 55  1  0
 15 16  1  0
 15 56  1  6
 16 17  1  0
 16 57  1  0
 16 58  1  0
 17 18  1  0
 17 59  1  0
 17 60  1  0
 18 31  1  0
 18 19  1  0
 18 61  1  1
 19 28  1  0
 19 20  1  0
 19 62  1  1
 20 21  1  0
 20 63  1  0
 20 64  1  0
 21 22  1  0
 21 23  1  0
 21 24  1  0
 22 65  1  0
 22 66  1  0
 22 67  1  0
 23 68  1  0
 23 69  1  0
 23 70  1  0
 24 25  1  1
 24 26  1  0
 24 28  1  0
 25 71  1  0
 25 72  1  0
 25 73  1  0
 26 27  1  0
 26 74  1  0
 26 75  1  0
 27 76  1  0
 28 29  1  0
 28 77  1  6
 29 30  1  0
 29 78  1  0
 29 79  1  0
 30 31  1  0
 30 80  1  0
 30 81  1  0
 31 32  1  1
 32 82  1  0
 32 83  1  0
 32 84  1  0
M  END
>  <i_m_ct_stereo_status>  (74) 
1

>  <s_m_source_file>  (74) 
/var/tmp/pbs.5076255.sched01/tmp5ffkvrn0/0o5bi62ha.sdf

>  <i_m_source_file_index>  (74) 
39

>  <i_lp_mmshare_version>  (74) 
48012

>  <i_f3d_flags>  (74) 
0

>  <s_epik_input>  (74) 
W0NIMl0xW0NIMl1bQ0BIXShbT0hdKUMoW0NIM10pKFtDSDNdKVtDQEhdKFtDQF0xMltDSDNdKVtDSDJdW0NIMl1bQ0BAXTMoW0NIM10pW0NAQEhdMltDSDJdW0NIMl1bQ0BASF00W0NAQEhdNVtDQEBIXShbQ0BAXShbQ0gzXSkoQyhbQ0gyXTUpKFtDSDNdKVtDSDNdKVtDSDJdW09IXSlbQ0gyXVtDSDJdW0NAXTM0W0NIM10=

>  <s_epik_cmdline>  (74) 
J2VwaWtfcHl0aG9uJywgJy1waHQnLCAnMi4wJywgJy1waCcsICc3LjAnLCAnLXRuJywgJzgnLCAnLW1hJywgJzIwMCcsICctaW1hZScsICc8aW5maWxlLm1hZT4nLCAnLW9tYWUnLCAnPG91dGZpbGUubWFlPic=

>  <r_lp_tautomer_probability>  (74) 
1

>  <r_epik_Ionization_Penalty>  (74) 
4.43164e-06

>  <r_epik_Ionization_Penalty_Charging>  (74) 
0

>  <r_epik_Ionization_Penalty_Neutral>  (74) 
4.43164e-06

>  <r_epik_State_Penalty>  (74) 
-0

>  <r_epik_Charging_Adjusted_Penalty>  (74) 
0

>  <i_epik_Tot_Q>  (74) 
0

>  <i_epik_Tot_abs_Q>  (74) 
0

>  <s_lp_Force_Field>  (74) 
OPLS3e

>  <r_lp_Energy>  (74) 
107.68

>  <b_lp_Chiralities_Consistent>  (74) 
1

>  <s_lp_Variant>  (74) 
25:0-1

>  <s_i_glide_gridfile>  (74) 
pfpi4k_grid

>  <i_i_glide_lignum>  (74) 
39

>  <i_i_glide_rotatable_bonds>  (74) 
3

>  <r_i_docking_score>  (74) 
-3.03181

>  <r_i_glide_ligand_efficiency>  (74) 
-0.0947441

>  <r_i_glide_ligand_efficiency_sa>  (74) 
-0.300794

>  <r_i_glide_ligand_efficiency_ln>  (74) 
-0.678905

>  <r_i_glide_gscore>  (74) 
-3.03181

>  <r_i_glide_lipo>  (74) 
-0.338793

>  <r_i_glide_hbond>  (74) 
-0.456

>  <r_i_glide_metal>  (74) 
-0

>  <r_i_glide_rewards>  (74) 
-0.376823

>  <r_i_glide_evdw>  (74) 
-16.7524

>  <r_i_glide_ecoul>  (74) 
-7.49139

>  <r_i_glide_erotb>  (74) 
0.101131

>  <r_i_glide_esite>  (74) 
0

>  <r_i_glide_emodel>  (74) 
-26.2751

>  <r_i_glide_energy>  (74) 
-24.2438

>  <r_i_glide_einternal>  (74) 
5.17489

>  <r_i_glide_intrahb_reward>  (74) 
-0

>  <i_i_glide_confnum>  (74) 
6

>  <i_i_glide_posenum>  (74) 
6

>  <r_i_glide_eff_state_penalty>  (74) 
0

>  <ligand_id>  (74) 
25

>  <original_smiles>  (74) 
CC1(C)C(O)CCC2(C)C1CCC1(C)C2CCC2C3CC(C)(C)C(C)(CO)C3CCC21C

>  <smiles>  (74) 
[H]OC([H])([H])C1(C([H])([H])[H])C2([H])C([H])([H])C([H])([H])C3(C([H])([H])[H])C([H])(C([H])([H])C([H])([H])C4([H])C5(C([H])([H])[H])C([H])([H])C([H])([H])C([H])(O[H])C(C([H])([H])[H])(C([H])([H])[H])C5([H])C([H])([H])C([H])([H])C43C([H])([H])[H])C2([H])C([H])([H])C1(C([H])([H])[H])C([H])([H])[H]

$$$$
25:0:1
     RDKit          3D

 84 88  0  0  1  0  0  0  0  0999 V2000
    6.4261   -0.9868    0.2836 C   0  0  0  0  0  0  0  0  0  0  0  0
    4.8973   -1.2699    0.1862 C   0  0  0  0  0  0  0  0  0  0  0  0
    4.2154   -0.0114    0.8090 C   0  0  0  0  0  0  0  0  0  0  0  0
    4.4334   -1.4515   -1.2938 C   0  0  1  0  0  0  0  0  0  0  0  0
    4.9074   -0.4418   -2.1544 O   0  0  0  0  0  0  0  0  0  0  0  0
    4.8790   -2.7736   -1.9439 C   0  0  0  0  0  0  0  0  0  0  0  0
    4.4702   -3.9843   -1.0866 C   0  0  0  0  0  0  0  0  0  0  0  0
    4.9545   -3.9255    0.3935 C   0  0  1  0  0  0  0  0  0  0  0  0
    6.5007   -4.0939    0.3275 C   0  0  0  0  0  0  0  0  0  0  0  0
    4.4991   -2.5469    1.0158 C   0  0  2  0  0  0  0  0  0  0  0  0
    2.9670   -2.5899    1.3221 C   0  0  0  0  0  0  0  0  0  0  0  0
    2.4996   -3.7729    2.1856 C   0  0  0  0  0  0  0  0  0  0  0  0
    2.8719   -5.1705    1.6268 C   0  0  1  0  0  0  0  0  0  0  0  0
    2.0524   -5.4330    0.3339 C   0  0  0  0  0  0  0  0  0  0  0  0
    4.4255   -5.1280    1.3212 C   0  0  2  0  0  0  0  0  0  0  0  0
    5.2119   -5.1626    2.6660 C   0  0  0  0  0  0  0  0  0  0  0  0
    4.8787   -6.3632    3.5398 C   0  0  0  0  0  0  0  0  0  0  0  0
    3.3941   -6.4014    3.9317 C   0  0  2  0  0  0  0  0  0  0  0  0
    3.1702   -7.6238    4.8930 C   0  0  1  0  0  0  0  0  0  0  0  0
    2.1047   -7.5023    5.9948 C   0  0  0  0  0  0  0  0  0  0  0  0
    1.4586   -8.9042    6.2015 C   0  0  0  0  0  0  0  0  0  0  0  0
    1.4066   -9.2276    7.7296 C   0  0  0  0  0  0  0  0  0  0  0  0
   -0.0220   -8.8512    5.7744 C   0  0  0  0  0  0  0  0  0  0  0  0
    2.3409   -9.8964    5.3398 C   0  0  1  0  0  0  0  0  0  0  0  0
    3.5271  -10.4206    6.1956 C   0  0  0  0  0  0  0  0  0  0  0  0
    1.6355  -11.2226    4.8320 C   0  0  0  0  0  0  0  0  0  0  0  0
    0.6434  -11.1033    3.8263 O   0  0  0  0  0  0  0  0  0  0  0  0
    2.9744   -9.0079    4.2188 C   0  0  1  0  0  0  0  0  0  0  0  0
    2.2091   -8.9181    2.8827 C   0  0  0  0  0  0  0  0  0  0  0  0
    2.6169   -7.7626    1.9775 C   0  0  0  0  0  0  0  0  0  0  0  0
    2.4785   -6.3523    2.6591 C   0  0  2  0  0  0  0  0  0  0  0  0
    1.0109   -6.1313    3.1355 C   0  0  0  0  0  0  0  0  0  0  0  0
    6.6421    0.0565    0.1036 H   0  0  0  0  0  0  0  0  0  0  0  0
    7.0048   -1.5497   -0.4433 H   0  0  0  0  0  0  0  0  0  0  0  0
    6.8096   -1.2268    1.2734 H   0  0  0  0  0  0  0  0  0  0  0  0
    3.1372   -0.0080    0.5980 H   0  0  0  0  0  0  0  0  0  0  0  0
    4.6121    0.9298    0.4736 H   0  0  0  0  0  0  0  0  0  0  0  0
    4.3579   -0.0021    1.8898 H   0  0  0  0  0  0  0  0  0  0  0  0
    3.3376   -1.4035   -1.3390 H   0  0  0  0  0  0  0  0  0  0  0  0
    4.6666    0.3998   -1.7877 H   0  0  0  0  0  0  0  0  0  0  0  0
    4.4053   -2.8564   -2.9202 H   0  0  0  0  0  0  0  0  0  0  0  0
    5.9445   -2.7517   -2.1565 H   0  0  0  0  0  0  0  0  0  0  0  0
    3.3955   -3.9639   -1.1608 H   0  0  0  0  0  0  0  0  0  0  0  0
    4.7963   -4.9073   -1.5600 H   0  0  0  0  0  0  0  0  0  0  0  0
    7.0001   -3.6383    1.1815 H   0  0  0  0  0  0  0  0  0  0  0  0
    6.9582   -3.6786   -0.5656 H   0  0  0  0  0  0  0  0  0  0  0  0
    6.7731   -5.1492    0.2961 H   0  0  0  0  0  0  0  0  0  0  0  0
    4.9893   -2.4338    1.9810 H   0  0  0  0  0  0  0  0  0  0  0  0
    2.6734   -1.7087    1.8775 H   0  0  0  0  0  0  0  0  0  0  0  0
    2.4031   -2.5483    0.3936 H   0  0  0  0  0  0  0  0  0  0  0  0
    2.8991   -3.6442    3.1903 H   0  0  0  0  0  0  0  0  0  0  0  0
    1.4213   -3.6781    2.2899 H   0  0  0  0  0  0  0  0  0  0  0  0
    2.6693   -6.0229   -0.3293 H   0  0  0  0  0  0  0  0  0  0  0  0
    1.7277   -4.5272   -0.1697 H   0  0  0  0  0  0  0  0  0  0  0  0
    1.1381   -6.0007    0.4612 H   0  0  0  0  0  0  0  0  0  0  0  0
    4.6778   -6.0442    0.7835 H   0  0  0  0  0  0  0  0  0  0  0  0
    6.2832   -5.2211    2.5216 H   0  0  0  0  0  0  0  0  0  0  0  0
    5.0359   -4.2585    3.2450 H   0  0  0  0  0  0  0  0  0  0  0  0
    5.1766   -7.2804    3.0339 H   0  0  0  0  0  0  0  0  0  0  0  0
    5.4846   -6.2984    4.4378 H   0  0  0  0  0  0  0  0  0  0  0  0
    3.2037   -5.5023    4.5242 H   0  0  0  0  0  0  0  0  0  0  0  0
    4.1017   -7.7153    5.4561 H   0  0  0  0  0  0  0  0  0  0  0  0
    2.6043   -7.1672    6.9012 H   0  0  0  0  0  0  0  0  0  0  0  0
    1.3660   -6.7339    5.7897 H   0  0  0  0  0  0  0  0  0  0  0  0
    1.0272  -10.2177    7.9130 H   0  0  0  0  0  0  0  0  0  0  0  0
    0.7609   -8.5165    8.2512 H   0  0  0  0  0  0  0  0  0  0  0  0
    2.3781   -9.1384    8.2175 H   0  0  0  0  0  0  0  0  0  0  0  0
   -0.5308   -9.7728    6.0597 H   0  0  0  0  0  0  0  0  0  0  0  0
   -0.1524   -8.7296    4.7017 H   0  0  0  0  0  0  0  0  0  0  0  0
   -0.5386   -8.0391    6.2703 H   0  0  0  0  0  0  0  0  0  0  0  0
    4.2325  -10.9793    5.5904 H   0  0  0  0  0  0  0  0  0  0  0  0
    3.1793  -11.0929    6.9757 H   0  0  0  0  0  0  0  0  0  0  0  0
    4.0761   -9.6157    6.6833 H   0  0  0  0  0  0  0  0  0  0  0  0
    2.4042  -11.9215    4.4605 H   0  0  0  0  0  0  0  0  0  0  0  0
    1.1624  -11.7041    5.6663 H   0  0  0  0  0  0  0  0  0  0  0  0
    0.9817  -10.6110    3.0857 H   0  0  0  0  0  0  0  0  0  0  0  0
    3.9625   -9.3894    3.9640 H   0  0  0  0  0  0  0  0  0  0  0  0
    2.3949   -9.8364    2.3195 H   0  0  0  0  0  0  0  0  0  0  0  0
    1.1419   -8.8907    3.0519 H   0  0  0  0  0  0  0  0  0  0  0  0
    3.6318   -7.9257    1.6084 H   0  0  0  0  0  0  0  0  0  0  0  0
    1.9994   -7.8563    1.0945 H   0  0  0  0  0  0  0  0  0  0  0  0
    0.6488   -6.9418    3.7495 H   0  0  0  0  0  0  0  0  0  0  0  0
    0.2882   -6.0398    2.3343 H   0  0  0  0  0  0  0  0  0  0  0  0
    0.9307   -5.2468    3.7652 H   0  0  0  0  0  0  0  0  0  0  0  0
  1  2  1  0
  1 33  1  0
  1 34  1  0
  1 35  1  0
  2 10  1  0
  2  3  1  0
  2  4  1  0
  3 36  1  0
  3 37  1  0
  3 38  1  0
  4  5  1  0
  4  6  1  0
  4 39  1  1
  5 40  1  0
  6  7  1  0
  6 41  1  0
  6 42  1  0
  7  8  1  0
  7 43  1  0
  7 44  1  0
  8 15  1  0
  8  9  1  6
  8 10  1  0
  9 45  1  0
  9 46  1  0
  9 47  1  0
 10 11  1  0
 10 48  1  1
 11 12  1  0
 11 49  1  0
 11 50  1  0
 12 13  1  0
 12 51  1  0
 12 52  1  0
 13 31  1  0
 13 14  1  6
 13 15  1  0
 14 53  1  0
 14 54  1  0
 14 55  1  0
 15 16  1  0
 15 56  1  6
 16 17  1  0
 16 57  1  0
 16 58  1  0
 17 18  1  0
 17 59  1  0
 17 60  1  0
 18 31  1  0
 18 19  1  0
 18 61  1  1
 19 28  1  0
 19 20  1  0
 19 62  1  1
 20 21  1  0
 20 63  1  0
 20 64  1  0
 21 22  1  0
 21 23  1  0
 21 24  1  0
 22 65  1  0
 22 66  1  0
 22 67  1  0
 23 68  1  0
 23 69  1  0
 23 70  1  0
 24 25  1  1
 24 26  1  0
 24 28  1  0
 25 71  1  0
 25 72  1  0
 25 73  1  0
 26 27  1  0
 26 74  1  0
 26 75  1  0
 27 76  1  0
 28 29  1  0
 28 77  1  6
 29 30  1  0
 29 78  1  0
 29 79  1  0
 30 31  1  0
 30 80  1  0
 30 81  1  0
 31 32  1  1
 32 82  1  0
 32 83  1  0
 32 84  1  0
M  END
>  <i_m_ct_stereo_status>  (75) 
1

>  <s_m_source_file>  (75) 
/var/tmp/pbs.5076255.sched01/tmp5ffkvrn0/0o5bi62ha.sdf

>  <i_m_source_file_index>  (75) 
39

>  <i_lp_mmshare_version>  (75) 
48012

>  <i_f3d_flags>  (75) 
0

>  <s_epik_input>  (75) 
W0NIMl0xW0NIMl1bQ0BIXShbT0hdKUMoW0NIM10pKFtDSDNdKVtDQEhdKFtDQF0xMltDSDNdKVtDSDJdW0NIMl1bQ0BAXTMoW0NIM10pW0NAQEhdMltDSDJdW0NIMl1bQ0BASF00W0NAQEhdNVtDQEBIXShbQ0BAXShbQ0gzXSkoQyhbQ0gyXTUpKFtDSDNdKVtDSDNdKVtDSDJdW09IXSlbQ0gyXVtDSDJdW0NAXTM0W0NIM10=

>  <s_epik_cmdline>  (75) 
J2VwaWtfcHl0aG9uJywgJy1waHQnLCAnMi4wJywgJy1waCcsICc3LjAnLCAnLXRuJywgJzgnLCAnLW1hJywgJzIwMCcsICctaW1hZScsICc8aW5maWxlLm1hZT4nLCAnLW9tYWUnLCAnPG91dGZpbGUubWFlPic=

>  <r_lp_tautomer_probability>  (75) 
1

>  <r_epik_Ionization_Penalty>  (75) 
4.43164e-06

>  <r_epik_Ionization_Penalty_Charging>  (75) 
0

>  <r_epik_Ionization_Penalty_Neutral>  (75) 
4.43164e-06

>  <r_epik_State_Penalty>  (75) 
-0

>  <r_epik_Charging_Adjusted_Penalty>  (75) 
0

>  <i_epik_Tot_Q>  (75) 
0

>  <i_epik_Tot_abs_Q>  (75) 
0

>  <s_lp_Force_Field>  (75) 
OPLS3e

>  <r_lp_Energy>  (75) 
107.68

>  <b_lp_Chiralities_Consistent>  (75) 
1

>  <s_lp_Variant>  (75) 
25:0-1

>  <s_i_glide_gridfile>  (75) 
pfpi4k_grid

>  <i_i_glide_lignum>  (75) 
39

>  <i_i_glide_rotatable_bonds>  (75) 
3

>  <r_i_docking_score>  (75) 
-2.49792

>  <r_i_glide_ligand_efficiency>  (75) 
-0.0780601

>  <r_i_glide_ligand_efficiency_sa>  (75) 
-0.247825

>  <r_i_glide_ligand_efficiency_ln>  (75) 
-0.559353

>  <r_i_glide_gscore>  (75) 
-2.49792

>  <r_i_glide_lipo>  (75) 
-0.327464

>  <r_i_glide_hbond>  (75) 
-0.24858

>  <r_i_glide_metal>  (75) 
-0

>  <r_i_glide_rewards>  (75) 
-0.376823

>  <r_i_glide_evdw>  (75) 
-21.7364

>  <r_i_glide_ecoul>  (75) 
-3.72911

>  <r_i_glide_erotb>  (75) 
0.101131

>  <r_i_glide_esite>  (75) 
0

>  <r_i_glide_emodel>  (75) 
-26.5629

>  <r_i_glide_energy>  (75) 
-25.4655

>  <r_i_glide_einternal>  (75) 
5.1107

>  <r_i_glide_intrahb_reward>  (75) 
-0

>  <i_i_glide_confnum>  (75) 
5

>  <i_i_glide_posenum>  (75) 
1

>  <r_i_glide_eff_state_penalty>  (75) 
0

>  <ligand_id>  (75) 
25

>  <original_smiles>  (75) 
CC1(C)C(O)CCC2(C)C1CCC1(C)C2CCC2C3CC(C)(C)C(C)(CO)C3CCC21C

>  <smiles>  (75) 
[H]OC([H])([H])C1(C([H])([H])[H])C2([H])C([H])([H])C([H])([H])C3(C([H])([H])[H])C([H])(C([H])([H])C([H])([H])C4([H])C5(C([H])([H])[H])C([H])([H])C([H])([H])C([H])(O[H])C(C([H])([H])[H])(C([H])([H])[H])C5([H])C([H])([H])C([H])([H])C43C([H])([H])[H])C2([H])C([H])([H])C1(C([H])([H])[H])C([H])([H])[H]

$$$$
26:0:0
     RDKit          3D

 77 80  0  0  1  0  0  0  0  0999 V2000
    3.6127    1.8950    6.3433 C   0  0  0  0  0  0  0  0  0  0  0  0
    3.5368    1.9880    4.7951 C   0  0  2  0  0  0  0  0  0  0  0  0
    2.9996    3.3742    4.3859 C   0  0  0  0  0  0  0  0  0  0  0  0
    1.5101    3.5760    4.6230 C   0  0  0  0  0  0  0  0  0  0  0  0
    0.5787    3.6475    3.6689 C   0  0  0  0  0  0  0  0  0  0  0  0
   -0.9391    3.8136    3.8377 C   0  0  0  0  0  0  0  0  0  0  0  0
   -1.6898    2.6034    3.2544 C   0  0  0  0  0  0  0  0  0  0  0  0
   -1.3439    4.0371    5.3102 C   0  0  0  0  0  0  0  0  0  0  0  0
   -1.3801    4.9410    3.1238 O   0  0  0  0  0  0  0  0  0  0  0  0
    2.8035    0.7910    4.0842 C   0  0  2  0  0  0  0  0  0  0  0  0
    1.4249    0.4351    4.6969 C   0  0  0  0  0  0  0  0  0  0  0  0
    1.2359   -1.0789    4.5806 C   0  0  0  0  0  0  0  0  0  0  0  0
    2.2855   -1.5365    3.5592 C   0  0  2  0  0  0  0  0  0  0  0  0
    1.6651   -1.2908    2.1440 C   0  0  0  0  0  0  0  0  0  0  0  0
    2.7312   -3.0259    3.6794 C   0  0  1  0  0  0  0  0  0  0  0  0
    1.6757   -4.0532    3.2508 C   0  0  0  0  0  0  0  0  0  0  0  0
    2.0700   -5.3901    3.5039 O   0  0  0  0  0  0  0  0  0  0  0  0
    3.4666   -5.7038    3.5216 C   0  0  1  0  0  0  0  0  0  0  0  0
    3.5858   -7.2063    3.1569 C   0  0  1  0  0  0  0  0  0  0  0  0
    2.7211   -8.1086    4.0578 C   0  0  0  0  0  0  0  0  0  0  0  0
    3.3419   -7.4621    1.6491 C   0  0  1  0  0  0  0  0  0  0  0  0
    2.0018   -7.2251    1.2912 O   0  0  0  0  0  0  0  0  0  0  0  0
    4.2638   -6.5852    0.7862 C   0  0  0  0  0  0  0  0  0  0  0  0
    4.1420   -5.0894    1.1291 C   0  0  0  0  0  0  0  0  0  0  0  0
    4.3681   -4.7637    2.6316 C   0  0  2  0  0  0  0  0  0  0  0  0
    5.8573   -4.9952    2.9976 C   0  0  0  0  0  0  0  0  0  0  0  0
    4.0346   -3.2844    2.8816 C   0  0  0  0  0  0  0  0  0  0  0  0
    4.8007   -2.2426    2.4546 C   0  0  0  0  0  0  0  0  0  0  0  0
    4.5258   -0.7607    2.7352 C   0  0  0  0  0  0  0  0  0  0  0  0
    3.4948   -0.6021    3.8905 C   0  0  1  0  0  0  0  0  0  0  0  0
    4.2346   -0.9820    5.2093 C   0  0  0  0  0  0  0  0  0  0  0  0
    2.6230    1.9859    6.7968 H   0  0  0  0  0  0  0  0  0  0  0  0
    4.2218    2.7154    6.7509 H   0  0  0  0  0  0  0  0  0  0  0  0
    4.0627    0.9272    6.6798 H   0  0  0  0  0  0  0  0  0  0  0  0
    4.5573    1.9554    4.4427 H   0  0  0  0  0  0  0  0  0  0  0  0
    3.5179    4.1529    4.9372 H   0  0  0  0  0  0  0  0  0  0  0  0
    3.2190    3.5762    3.3369 H   0  0  0  0  0  0  0  0  0  0  0  0
    1.2200    3.6440    5.6661 H   0  0  0  0  0  0  0  0  0  0  0  0
    0.9144    3.5760    2.6341 H   0  0  0  0  0  0  0  0  0  0  0  0
   -1.4183    1.6760    3.7562 H   0  0  0  0  0  0  0  0  0  0  0  0
   -1.4732    2.4749    2.1917 H   0  0  0  0  0  0  0  0  0  0  0  0
   -2.7689    2.7128    3.3599 H   0  0  0  0  0  0  0  0  0  0  0  0
   -1.0466    3.1969    5.9344 H   0  0  0  0  0  0  0  0  0  0  0  0
   -2.4269    4.1447    5.4106 H   0  0  0  0  0  0  0  0  0  0  0  0
   -0.8831    4.9387    5.7119 H   0  0  0  0  0  0  0  0  0  0  0  0
   -0.9532    4.8945    2.2580 H   0  0  0  0  0  0  0  0  0  0  0  0
    2.6305    1.1602    3.0765 H   0  0  0  0  0  0  0  0  0  0  0  0
    1.3583    0.7364    5.7541 H   0  0  0  0  0  0  0  0  0  0  0  0
    0.6315    0.9435    4.1425 H   0  0  0  0  0  0  0  0  0  0  0  0
    1.4242   -1.5370    5.5511 H   0  0  0  0  0  0  0  0  0  0  0  0
    0.2163   -1.3419    4.2979 H   0  0  0  0  0  0  0  0  0  0  0  0
    2.3009   -1.6469    1.3338 H   0  0  0  0  0  0  0  0  0  0  0  0
    1.4455   -0.2467    1.9419 H   0  0  0  0  0  0  0  0  0  0  0  0
    0.7143   -1.8091    2.0525 H   0  0  0  0  0  0  0  0  0  0  0  0
    2.9537   -3.2446    4.7213 H   0  0  0  0  0  0  0  0  0  0  0  0
    0.7287   -3.8622    3.7605 H   0  0  0  0  0  0  0  0  0  0  0  0
    1.4853   -3.9732    2.1873 H   0  0  0  0  0  0  0  0  0  0  0  0
    3.7943   -5.5819    4.5645 H   0  0  0  0  0  0  0  0  0  0  0  0
    4.6076   -7.5121    3.3505 H   0  0  0  0  0  0  0  0  0  0  0  0
    1.6551   -7.9174    3.9316 H   0  0  0  0  0  0  0  0  0  0  0  0
    2.9659   -7.9543    5.1102 H   0  0  0  0  0  0  0  0  0  0  0  0
    2.8952   -9.1604    3.8309 H   0  0  0  0  0  0  0  0  0  0  0  0
    3.5453   -8.5125    1.4293 H   0  0  0  0  0  0  0  0  0  0  0  0
    1.7950   -6.3144    1.5716 H   0  0  0  0  0  0  0  0  0  0  0  0
    5.2919   -6.9110    0.9237 H   0  0  0  0  0  0  0  0  0  0  0  0
    4.0466   -6.7368   -0.2727 H   0  0  0  0  0  0  0  0  0  0  0  0
    4.8555   -4.5331    0.5249 H   0  0  0  0  0  0  0  0  0  0  0  0
    3.1599   -4.7352    0.8147 H   0  0  0  0  0  0  0  0  0  0  0  0
    6.1554   -6.0385    2.9111 H   0  0  0  0  0  0  0  0  0  0  0  0
    6.0555   -4.6882    4.0235 H   0  0  0  0  0  0  0  0  0  0  0  0
    6.5281   -4.4363    2.3481 H   0  0  0  0  0  0  0  0  0  0  0  0
    5.6965   -2.4445    1.8744 H   0  0  0  0  0  0  0  0  0  0  0  0
    5.4527   -0.2677    2.9955 H   0  0  0  0  0  0  0  0  0  0  0  0
    4.1736   -0.2987    1.8118 H   0  0  0  0  0  0  0  0  0  0  0  0
    4.6884   -1.9908    5.1617 H   0  0  0  0  0  0  0  0  0  0  0  0
    3.5846   -0.9546    6.0634 H   0  0  0  0  0  0  0  0  0  0  0  0
    5.0449   -0.3040    5.3980 H   0  0  0  0  0  0  0  0  0  0  0  0
  1  2  1  0
  1 32  1  0
  1 33  1  0
  1 34  1  0
  2  3  1  0
  2 10  1  0
  2 35  1  6
  3  4  1  0
  3 36  1  0
  3 37  1  0
  4  5  2  3
  4 38  1  0
  5  6  1  0
  5 39  1  0
  6  7  1  0
  6  8  1  0
  6  9  1  0
  7 40  1  0
  7 41  1  0
  7 42  1  0
  8 43  1  0
  8 44  1  0
  8 45  1  0
  9 46  1  0
 10 30  1  0
 10 11  1  0
 10 47  1  6
 11 12  1  0
 11 48  1  0
 11 49  1  0
 12 13  1  0
 12 50  1  0
 12 51  1  0
 13 30  1  0
 13 14  1  6
 13 15  1  0
 14 52  1  0
 14 53  1  0
 14 54  1  0
 15 27  1  0
 15 16  1  0
 15 55  1  1
 16 17  1  0
 16 56  1  0
 16 57  1  0
 17 18  1  0
 18 25  1  0
 18 19  1  0
 18 58  1  1
 19 20  1  0
 19 21  1  0
 19 59  1  1
 20 60  1  0
 20 61  1  0
 20 62  1  0
 21 22  1  0
 21 23  1  0
 21 63  1  1
 22 64  1  0
 23 24  1  0
 23 65  1  0
 23 66  1  0
 24 25  1  0
 24 67  1  0
 24 68  1  0
 25 26  1  1
 25 27  1  0
 26 69  1  0
 26 70  1  0
 26 71  1  0
 27 28  2  0
 28 29  1  0
 28 72  1  0
 29 30  1  0
 29 73  1  0
 29 74  1  0
 30 31  1  1
 31 75  1  0
 31 76  1  0
 31 77  1  0
M  END
>  <i_m_ct_stereo_status>  (76) 
1

>  <s_m_source_file>  (76) 
/var/tmp/pbs.5076255.sched01/tmp5ffkvrn0/0o5bi62ha.sdf

>  <i_m_source_file_index>  (76) 
40

>  <i_lp_mmshare_version>  (76) 
48012

>  <i_f3d_flags>  (76) 
0

>  <s_epik_input>  (76) 
W0NIM11DKFtDSDNdKShbT0hdKVxbQ0hdPVtDSF1cW0NIMl1bQ0BASF0oW0NIM10pW0NASF0oW0NIMl1bQ0gyXTEpW0NAXTIoW0NIM10pW0NIMl1bQ0hdPUMoW0NASF0zW0NAQF0xMltDSDNdKVtDQEBdNChbQ0gzXSlbQ0BASF0oT1tDSDJdMylbQ0BASF0oW0NIM10pW0NAQEhdKFtPSF0pW0NIMl1bQ0gyXTQ=

>  <s_epik_cmdline>  (76) 
J2VwaWtfcHl0aG9uJywgJy1waHQnLCAnMi4wJywgJy1waCcsICc3LjAnLCAnLXRuJywgJzgnLCAnLW1hJywgJzIwMCcsICctaW1hZScsICc8aW5maWxlLm1hZT4nLCAnLW9tYWUnLCAnPG91dGZpbGUubWFlPic=

>  <r_lp_tautomer_probability>  (76) 
1

>  <r_epik_Ionization_Penalty>  (76) 
1.29523e-06

>  <r_epik_Ionization_Penalty_Charging>  (76) 
0

>  <r_epik_Ionization_Penalty_Neutral>  (76) 
1.29523e-06

>  <r_epik_State_Penalty>  (76) 
-0

>  <r_epik_Charging_Adjusted_Penalty>  (76) 
0

>  <i_epik_Tot_Q>  (76) 
0

>  <i_epik_Tot_abs_Q>  (76) 
0

>  <s_lp_Force_Field>  (76) 
OPLS3e

>  <r_lp_Energy>  (76) 
47.8293

>  <b_lp_Chiralities_Consistent>  (76) 
1

>  <s_lp_Variant>  (76) 
26:0-1

>  <s_i_glide_gridfile>  (76) 
pfpi4k_grid

>  <i_i_glide_lignum>  (76) 
40

>  <i_i_glide_rotatable_bonds>  (76) 
6

>  <r_i_docking_score>  (76) 
-3.21489

>  <r_i_glide_ligand_efficiency>  (76) 
-0.103706

>  <r_i_glide_ligand_efficiency_sa>  (76) 
-0.325781

>  <r_i_glide_ligand_efficiency_ln>  (76) 
-0.725057

>  <r_i_glide_gscore>  (76) 
-3.21489

>  <r_i_glide_lipo>  (76) 
-0.338959

>  <r_i_glide_hbond>  (76) 
-0.32

>  <r_i_glide_metal>  (76) 
-0

>  <r_i_glide_rewards>  (76) 
-0.972752

>  <r_i_glide_evdw>  (76) 
-18.2033

>  <r_i_glide_ecoul>  (76) 
-7.34553

>  <r_i_glide_erotb>  (76) 
0.428815

>  <r_i_glide_esite>  (76) 
0

>  <r_i_glide_emodel>  (76) 
-31.8681

>  <r_i_glide_energy>  (76) 
-25.5488

>  <r_i_glide_einternal>  (76) 
8.31863

>  <r_i_glide_intrahb_reward>  (76) 
-0.5

>  <i_i_glide_confnum>  (76) 
4

>  <i_i_glide_posenum>  (76) 
13

>  <r_i_glide_eff_state_penalty>  (76) 
0

>  <ligand_id>  (76) 
26

>  <original_smiles>  (76) 
CC(CC=CC(C)(C)O)C1CCC2(C)C3COC4C(C)C(O)CCC4(C)C3=CCC12C

>  <smiles>  (76) 
[H]OC1([H])C([H])([H])C([H])([H])C2(C([H])([H])[H])C3=C([H])C([H])([H])C4(C([H])([H])[H])C([H])(C([H])(C([H])([H])[H])C([H])([H])C([H])=C([H])C(O[H])(C([H])([H])[H])C([H])([H])[H])C([H])([H])C([H])([H])C4(C([H])([H])[H])C3([H])C([H])([H])OC2([H])C1([H])C([H])([H])[H]

$$$$
26:0:1
     RDKit          3D

 77 80  0  0  1  0  0  0  0  0999 V2000
    0.2002   -1.3580    6.6660 C   0  0  0  0  0  0  0  0  0  0  0  0
    1.7362   -1.4013    6.3779 C   0  0  2  0  0  0  0  0  0  0  0  0
    2.2864    0.0352    6.1231 C   0  0  0  0  0  0  0  0  0  0  0  0
    1.4621    0.8514    5.1479 C   0  0  0  0  0  0  0  0  0  0  0  0
    1.8713    1.2707    3.9315 C   0  0  0  0  0  0  0  0  0  0  0  0
    1.0493    2.0658    2.9201 C   0  0  0  0  0  0  0  0  0  0  0  0
    0.7875    1.2170    1.6646 C   0  0  0  0  0  0  0  0  0  0  0  0
   -0.2717    2.6104    3.4894 C   0  0  0  0  0  0  0  0  0  0  0  0
    1.7961    3.1968    2.5239 O   0  0  0  0  0  0  0  0  0  0  0  0
    2.1963   -2.4229    5.2831 C   0  0  2  0  0  0  0  0  0  0  0  0
    1.4462   -2.2747    3.9327 C   0  0  0  0  0  0  0  0  0  0  0  0
    1.2959   -3.6913    3.3487 C   0  0  0  0  0  0  0  0  0  0  0  0
    2.2922   -4.5706    4.1143 C   0  0  2  0  0  0  0  0  0  0  0  0
    3.6817   -4.3749    3.4266 C   0  0  0  0  0  0  0  0  0  0  0  0
    1.9578   -6.0996    4.1688 C   0  0  1  0  0  0  0  0  0  0  0  0
    2.1259   -6.8464    2.8407 C   0  0  0  0  0  0  0  0  0  0  0  0
    1.6162   -8.1683    2.9186 O   0  0  0  0  0  0  0  0  0  0  0  0
    1.7001   -8.8699    4.1690 C   0  0  1  0  0  0  0  0  0  0  0  0
    1.8244  -10.3809    3.8364 C   0  0  1  0  0  0  0  0  0  0  0  0
    0.7211  -10.8761    2.8873 C   0  0  0  0  0  0  0  0  0  0  0  0
    3.2486  -10.7630    3.3612 C   0  0  1  0  0  0  0  0  0  0  0  0
    3.5800  -10.2047    2.1071 O   0  0  0  0  0  0  0  0  0  0  0  0
    4.3037  -10.3195    4.3913 C   0  0  0  0  0  0  0  0  0  0  0  0
    4.2079   -8.8162    4.7055 C   0  0  0  0  0  0  0  0  0  0  0  0
    2.7997   -8.3541    5.1731 C   0  0  2  0  0  0  0  0  0  0  0  0
    2.5033   -8.9279    6.5839 C   0  0  0  0  0  0  0  0  0  0  0  0
    2.7762   -6.8088    5.2602 C   0  0  0  0  0  0  0  0  0  0  0  0
    3.4307   -6.1011    6.2212 C   0  0  0  0  0  0  0  0  0  0  0  0
    3.3812   -4.5728    6.3693 C   0  0  0  0  0  0  0  0  0  0  0  0
    2.2031   -3.9733    5.5609 C   0  0  1  0  0  0  0  0  0  0  0  0
    0.9004   -4.3750    6.3093 C   0  0  0  0  0  0  0  0  0  0  0  0
   -0.3466   -0.9827    5.7867 H   0  0  0  0  0  0  0  0  0  0  0  0
   -0.0055   -0.6399    7.4783 H   0  0  0  0  0  0  0  0  0  0  0  0
   -0.2160   -2.3418    6.9376 H   0  0  0  0  0  0  0  0  0  0  0  0
    2.2205   -1.7278    7.2938 H   0  0  0  0  0  0  0  0  0  0  0  0
    2.2806    0.5902    7.0569 H   0  0  0  0  0  0  0  0  0  0  0  0
    3.3245    0.0188    5.8047 H   0  0  0  0  0  0  0  0  0  0  0  0
    0.4686    1.1052    5.4792 H   0  0  0  0  0  0  0  0  0  0  0  0
    2.8718    1.0221    3.6110 H   0  0  0  0  0  0  0  0  0  0  0  0
    0.2185    0.3171    1.9045 H   0  0  0  0  0  0  0  0  0  0  0  0
    1.7174    0.8994    1.1935 H   0  0  0  0  0  0  0  0  0  0  0  0
    0.2144    1.7640    0.9154 H   0  0  0  0  0  0  0  0  0  0  0  0
   -0.9277    1.8056    3.8299 H   0  0  0  0  0  0  0  0  0  0  0  0
   -0.8312    3.1766    2.7428 H   0  0  0  0  0  0  0  0  0  0  0  0
   -0.0918    3.2812    4.3345 H   0  0  0  0  0  0  0  0  0  0  0  0
    1.2722    3.6725    1.8727 H   0  0  0  0  0  0  0  0  0  0  0  0
    3.2385   -2.1724    5.0965 H   0  0  0  0  0  0  0  0  0  0  0  0
    0.4523   -1.8394    4.0548 H   0  0  0  0  0  0  0  0  0  0  0  0
    2.0133   -1.6304    3.2520 H   0  0  0  0  0  0  0  0  0  0  0  0
    0.2824   -4.0351    3.5338 H   0  0  0  0  0  0  0  0  0  0  0  0
    1.4563   -3.7019    2.2727 H   0  0  0  0  0  0  0  0  0  0  0  0
    4.4557   -5.0070    3.8604 H   0  0  0  0  0  0  0  0  0  0  0  0
    4.0380   -3.3493    3.4675 H   0  0  0  0  0  0  0  0  0  0  0  0
    3.6272   -4.6253    2.3674 H   0  0  0  0  0  0  0  0  0  0  0  0
    0.9047   -6.2143    4.4336 H   0  0  0  0  0  0  0  0  0  0  0  0
    1.6010   -6.3295    2.0401 H   0  0  0  0  0  0  0  0  0  0  0  0
    3.1747   -6.8959    2.5548 H   0  0  0  0  0  0  0  0  0  0  0  0
    0.7289   -8.7120    4.6426 H   0  0  0  0  0  0  0  0  0  0  0  0
    1.6581  -10.9291    4.7633 H   0  0  0  0  0  0  0  0  0  0  0  0
    0.7997  -10.4053    1.9078 H   0  0  0  0  0  0  0  0  0  0  0  0
   -0.2655  -10.6441    3.2886 H   0  0  0  0  0  0  0  0  0  0  0  0
    0.7752  -11.9570    2.7560 H   0  0  0  0  0  0  0  0  0  0  0  0
    3.2983  -11.8545    3.2639 H   0  0  0  0  0  0  0  0  0  0  0  0
    3.7898  -10.9145    1.4999 H   0  0  0  0  0  0  0  0  0  0  0  0
    4.1783  -10.8976    5.3071 H   0  0  0  0  0  0  0  0  0  0  0  0
    5.3015  -10.5605    4.0228 H   0  0  0  0  0  0  0  0  0  0  0  0
    4.9462   -8.5679    5.4659 H   0  0  0  0  0  0  0  0  0  0  0  0
    4.5053   -8.2579    3.8167 H   0  0  0  0  0  0  0  0  0  0  0  0
    2.4320  -10.0131    6.5899 H   0  0  0  0  0  0  0  0  0  0  0  0
    1.5577   -8.5445    6.9700 H   0  0  0  0  0  0  0  0  0  0  0  0
    3.2792   -8.6730    7.3046 H   0  0  0  0  0  0  0  0  0  0  0  0
    4.0230   -6.6213    6.9601 H   0  0  0  0  0  0  0  0  0  0  0  0
    3.2785   -4.3232    7.4249 H   0  0  0  0  0  0  0  0  0  0  0  0
    4.3455   -4.1730    6.0531 H   0  0  0  0  0  0  0  0  0  0  0  0
    0.7994   -5.4481    6.4617 H   0  0  0  0  0  0  0  0  0  0  0  0
    0.0114   -4.0276    5.7918 H   0  0  0  0  0  0  0  0  0  0  0  0
    0.8786   -3.9104    7.2929 H   0  0  0  0  0  0  0  0  0  0  0  0
  1  2  1  0
  1 32  1  0
  1 33  1  0
  1 34  1  0
  2  3  1  0
  2 10  1  0
  2 35  1  1
  3  4  1  0
  3 36  1  0
  3 37  1  0
  4  5  2  3
  4 38  1  0
  5  6  1  0
  5 39  1  0
  6  7  1  0
  6  8  1  0
  6  9  1  0
  7 40  1  0
  7 41  1  0
  7 42  1  0
  8 43  1  0
  8 44  1  0
  8 45  1  0
  9 46  1  0
 10 30  1  0
 10 11  1  0
 10 47  1  6
 11 12  1  0
 11 48  1  0
 11 49  1  0
 12 13  1  0
 12 50  1  0
 12 51  1  0
 13 30  1  0
 13 14  1  6
 13 15  1  0
 14 52  1  0
 14 53  1  0
 14 54  1  0
 15 27  1  0
 15 16  1  0
 15 55  1  1
 16 17  1  0
 16 56  1  0
 16 57  1  0
 17 18  1  0
 18 25  1  0
 18 19  1  0
 18 58  1  1
 19 20  1  0
 19 21  1  0
 19 59  1  1
 20 60  1  0
 20 61  1  0
 20 62  1  0
 21 22  1  0
 21 23  1  0
 21 63  1  6
 22 64  1  0
 23 24  1  0
 23 65  1  0
 23 66  1  0
 24 25  1  0
 24 67  1  0
 24 68  1  0
 25 26  1  1
 25 27  1  0
 26 69  1  0
 26 70  1  0
 26 71  1  0
 27 28  2  0
 28 29  1  0
 28 72  1  0
 29 30  1  0
 29 73  1  0
 29 74  1  0
 30 31  1  1
 31 75  1  0
 31 76  1  0
 31 77  1  0
M  END
>  <i_m_ct_stereo_status>  (77) 
1

>  <s_m_source_file>  (77) 
/var/tmp/pbs.5076255.sched01/tmp5ffkvrn0/0o5bi62ha.sdf

>  <i_m_source_file_index>  (77) 
40

>  <i_lp_mmshare_version>  (77) 
48012

>  <i_f3d_flags>  (77) 
0

>  <s_epik_input>  (77) 
W0NIM11DKFtDSDNdKShbT0hdKVxbQ0hdPVtDSF1cW0NIMl1bQ0BASF0oW0NIM10pW0NASF0oW0NIMl1bQ0gyXTEpW0NAXTIoW0NIM10pW0NIMl1bQ0hdPUMoW0NASF0zW0NAQF0xMltDSDNdKVtDQEBdNChbQ0gzXSlbQ0BASF0oT1tDSDJdMylbQ0BASF0oW0NIM10pW0NAQEhdKFtPSF0pW0NIMl1bQ0gyXTQ=

>  <s_epik_cmdline>  (77) 
J2VwaWtfcHl0aG9uJywgJy1waHQnLCAnMi4wJywgJy1waCcsICc3LjAnLCAnLXRuJywgJzgnLCAnLW1hJywgJzIwMCcsICctaW1hZScsICc8aW5maWxlLm1hZT4nLCAnLW9tYWUnLCAnPG91dGZpbGUubWFlPic=

>  <r_lp_tautomer_probability>  (77) 
1

>  <r_epik_Ionization_Penalty>  (77) 
1.29523e-06

>  <r_epik_Ionization_Penalty_Charging>  (77) 
0

>  <r_epik_Ionization_Penalty_Neutral>  (77) 
1.29523e-06

>  <r_epik_State_Penalty>  (77) 
-0

>  <r_epik_Charging_Adjusted_Penalty>  (77) 
0

>  <i_epik_Tot_Q>  (77) 
0

>  <i_epik_Tot_abs_Q>  (77) 
0

>  <s_lp_Force_Field>  (77) 
OPLS3e

>  <r_lp_Energy>  (77) 
47.8293

>  <b_lp_Chiralities_Consistent>  (77) 
1

>  <s_lp_Variant>  (77) 
26:0-1

>  <s_i_glide_gridfile>  (77) 
pfpi4k_grid

>  <i_i_glide_lignum>  (77) 
40

>  <i_i_glide_rotatable_bonds>  (77) 
6

>  <r_i_docking_score>  (77) 
-2.34071

>  <r_i_glide_ligand_efficiency>  (77) 
-0.0755067

>  <r_i_glide_ligand_efficiency_sa>  (77) 
-0.237195

>  <r_i_glide_ligand_efficiency_ln>  (77) 
-0.527901

>  <r_i_glide_gscore>  (77) 
-2.34071

>  <r_i_glide_lipo>  (77) 
-0.145071

>  <r_i_glide_hbond>  (77) 
-0.152

>  <r_i_glide_metal>  (77) 
-0

>  <r_i_glide_rewards>  (77) 
-0.472752

>  <r_i_glide_evdw>  (77) 
-16.4941

>  <r_i_glide_ecoul>  (77) 
-7.83331

>  <r_i_glide_erotb>  (77) 
0.428815

>  <r_i_glide_esite>  (77) 
0

>  <r_i_glide_emodel>  (77) 
-22.9488

>  <r_i_glide_energy>  (77) 
-24.3274

>  <r_i_glide_einternal>  (77) 
10.6321

>  <r_i_glide_intrahb_reward>  (77) 
-0

>  <i_i_glide_confnum>  (77) 
4

>  <i_i_glide_posenum>  (77) 
17

>  <r_i_glide_eff_state_penalty>  (77) 
0

>  <ligand_id>  (77) 
26

>  <original_smiles>  (77) 
CC(CC=CC(C)(C)O)C1CCC2(C)C3COC4C(C)C(O)CCC4(C)C3=CCC12C

>  <smiles>  (77) 
[H]OC1([H])C([H])([H])C([H])([H])C2(C([H])([H])[H])C3=C([H])C([H])([H])C4(C([H])([H])[H])C([H])(C([H])(C([H])([H])[H])C([H])([H])C([H])=C([H])C(O[H])(C([H])([H])[H])C([H])([H])[H])C([H])([H])C([H])([H])C4(C([H])([H])[H])C3([H])C([H])([H])OC2([H])C1([H])C([H])([H])[H]

$$$$
26:0:2
     RDKit          3D

 77 80  0  0  1  0  0  0  0  0999 V2000
    3.8093   -5.3390    6.0000 C   0  0  0  0  0  0  0  0  0  0  0  0
    2.3641   -5.0896    6.5284 C   0  0  2  0  0  0  0  0  0  0  0  0
    1.6238   -6.4408    6.7038 C   0  0  0  0  0  0  0  0  0  0  0  0
    1.4352   -7.2364    5.4220 C   0  0  0  0  0  0  0  0  0  0  0  0
    0.4095   -8.0730    5.1588 C   0  0  0  0  0  0  0  0  0  0  0  0
    0.1996   -8.8660    3.8677 C   0  0  0  0  0  0  0  0  0  0  0  0
   -1.1885   -8.5719    3.2815 C   0  0  0  0  0  0  0  0  0  0  0  0
    1.2940   -8.6192    2.8100 C   0  0  0  0  0  0  0  0  0  0  0  0
    0.2510  -10.2431    4.1657 O   0  0  0  0  0  0  0  0  0  0  0  0
    1.5276   -4.0168    5.7486 C   0  0  2  0  0  0  0  0  0  0  0  0
    1.5153   -4.2205    4.2098 C   0  0  0  0  0  0  0  0  0  0  0  0
    1.4942   -2.8235    3.5673 C   0  0  0  0  0  0  0  0  0  0  0  0
    1.0795   -1.8615    4.6849 C   0  0  2  0  0  0  0  0  0  0  0  0
   -0.4780   -1.9125    4.7714 C   0  0  0  0  0  0  0  0  0  0  0  0
    1.5310   -0.3731    4.5085 C   0  0  1  0  0  0  0  0  0  0  0  0
    0.8065    0.3963    3.3954 C   0  0  0  0  0  0  0  0  0  0  0  0
    1.3842    1.6734    3.1717 O   0  0  0  0  0  0  0  0  0  0  0  0
    1.9948    2.3591    4.2720 C   0  0  1  0  0  0  0  0  0  0  0  0
    1.8681    3.8819    3.9905 C   0  0  1  0  0  0  0  0  0  0  0  0
    2.3961    4.2662    2.5985 C   0  0  0  0  0  0  0  0  0  0  0  0
    0.4480    4.4307    4.2719 C   0  0  1  0  0  0  0  0  0  0  0  0
   -0.5395    3.9426    3.4020 O   0  0  0  0  0  0  0  0  0  0  0  0
   -0.0193    4.0633    5.6860 C   0  0  0  0  0  0  0  0  0  0  0  0
    0.0731    2.5462    5.9546 C   0  0  0  0  0  0  0  0  0  0  0  0
    1.4807    1.9451    5.7020 C   0  0  2  0  0  0  0  0  0  0  0  0
    2.4716    2.4759    6.7689 C   0  0  0  0  0  0  0  0  0  0  0  0
    1.4048    0.4048    5.8299 C   0  0  0  0  0  0  0  0  0  0  0  0
    1.2419   -0.2425    7.0171 C   0  0  0  0  0  0  0  0  0  0  0  0
    1.2225   -1.7707    7.1861 C   0  0  0  0  0  0  0  0  0  0  0  0
    1.8011   -2.4795    5.9311 C   0  0  1  0  0  0  0  0  0  0  0  0
    3.3344   -2.2165    5.9413 C   0  0  0  0  0  0  0  0  0  0  0  0
    3.8107   -5.7815    5.0002 H   0  0  0  0  0  0  0  0  0  0  0  0
    4.3428   -6.0437    6.6510 H   0  0  0  0  0  0  0  0  0  0  0  0
    4.4141   -4.4262    5.9365 H   0  0  0  0  0  0  0  0  0  0  0  0
    2.4673   -4.6976    7.5335 H   0  0  0  0  0  0  0  0  0  0  0  0
    2.1980   -7.0718    7.3706 H   0  0  0  0  0  0  0  0  0  0  0  0
    0.6586   -6.3080    7.1876 H   0  0  0  0  0  0  0  0  0  0  0  0
    2.1943   -7.1136    4.6699 H   0  0  0  0  0  0  0  0  0  0  0  0
   -0.3446   -8.2253    5.9187 H   0  0  0  0  0  0  0  0  0  0  0  0
   -1.2981   -7.5145    3.0411 H   0  0  0  0  0  0  0  0  0  0  0  0
   -1.9824   -8.8326    3.9816 H   0  0  0  0  0  0  0  0  0  0  0  0
   -1.3614   -9.1361    2.3650 H   0  0  0  0  0  0  0  0  0  0  0  0
    1.3451   -7.5678    2.5229 H   0  0  0  0  0  0  0  0  0  0  0  0
    1.1079   -9.1925    1.9003 H   0  0  0  0  0  0  0  0  0  0  0  0
    2.2779   -8.9179    3.1755 H   0  0  0  0  0  0  0  0  0  0  0  0
   -0.6062  -10.5164    4.4959 H   0  0  0  0  0  0  0  0  0  0  0  0
    0.5112   -4.1633    6.1020 H   0  0  0  0  0  0  0  0  0  0  0  0
    2.4049   -4.7522    3.8601 H   0  0  0  0  0  0  0  0  0  0  0  0
    0.6379   -4.8036    3.9121 H   0  0  0  0  0  0  0  0  0  0  0  0
    2.4957   -2.5809    3.2154 H   0  0  0  0  0  0  0  0  0  0  0  0
    0.8407   -2.7733    2.7005 H   0  0  0  0  0  0  0  0  0  0  0  0
   -0.8883   -1.2122    5.4979 H   0  0  0  0  0  0  0  0  0  0  0  0
   -0.8589   -2.9001    5.0171 H   0  0  0  0  0  0  0  0  0  0  0  0
   -0.9161   -1.6556    3.8109 H   0  0  0  0  0  0  0  0  0  0  0  0
    2.5853   -0.3626    4.2310 H   0  0  0  0  0  0  0  0  0  0  0  0
    0.8335   -0.1624    2.4601 H   0  0  0  0  0  0  0  0  0  0  0  0
   -0.2426    0.5411    3.6456 H   0  0  0  0  0  0  0  0  0  0  0  0
    3.0579    2.0943    4.2169 H   0  0  0  0  0  0  0  0  0  0  0  0
    2.5292    4.3937    4.6855 H   0  0  0  0  0  0  0  0  0  0  0  0
    1.8206    3.7930    1.8024 H   0  0  0  0  0  0  0  0  0  0  0  0
    3.4286    3.9436    2.4735 H   0  0  0  0  0  0  0  0  0  0  0  0
    2.3674    5.3468    2.4453 H   0  0  0  0  0  0  0  0  0  0  0  0
    0.4674    5.5168    4.1583 H   0  0  0  0  0  0  0  0  0  0  0  0
   -0.2273    4.0991    2.5011 H   0  0  0  0  0  0  0  0  0  0  0  0
    0.5736    4.6135    6.4148 H   0  0  0  0  0  0  0  0  0  0  0  0
   -1.0517    4.3934    5.8171 H   0  0  0  0  0  0  0  0  0  0  0  0
   -0.2282    2.3603    6.9839 H   0  0  0  0  0  0  0  0  0  0  0  0
   -0.6660    2.0304    5.3389 H   0  0  0  0  0  0  0  0  0  0  0  0
    2.6291    3.5494    6.6942 H   0  0  0  0  0  0  0  0  0  0  0  0
    3.4471    2.0003    6.6655 H   0  0  0  0  0  0  0  0  0  0  0  0
    2.1216    2.2931    7.7843 H   0  0  0  0  0  0  0  0  0  0  0  0
    1.1302    0.3263    7.9272 H   0  0  0  0  0  0  0  0  0  0  0  0
    1.8039   -2.0346    8.0661 H   0  0  0  0  0  0  0  0  0  0  0  0
    0.1963   -2.0761    7.3912 H   0  0  0  0  0  0  0  0  0  0  0  0
    3.5966   -1.1571    5.9980 H   0  0  0  0  0  0  0  0  0  0  0  0
    3.8237   -2.6295    5.0663 H   0  0  0  0  0  0  0  0  0  0  0  0
    3.7889   -2.6725    6.8145 H   0  0  0  0  0  0  0  0  0  0  0  0
  1  2  1  0
  1 32  1  0
  1 33  1  0
  1 34  1  0
  2  3  1  0
  2 10  1  0
  2 35  1  1
  3  4  1  0
  3 36  1  0
  3 37  1  0
  4  5  2  3
  4 38  1  0
  5  6  1  0
  5 39  1  0
  6  7  1  0
  6  8  1  0
  6  9  1  0
  7 40  1  0
  7 41  1  0
  7 42  1  0
  8 43  1  0
  8 44  1  0
  8 45  1  0
  9 46  1  0
 10 30  1  0
 10 11  1  0
 10 47  1  1
 11 12  1  0
 11 48  1  0
 11 49  1  0
 12 13  1  0
 12 50  1  0
 12 51  1  0
 13 30  1  0
 13 14  1  1
 13 15  1  0
 14 52  1  0
 14 53  1  0
 14 54  1  0
 15 27  1  0
 15 16  1  0
 15 55  1  6
 16 17  1  0
 16 56  1  0
 16 57  1  0
 17 18  1  0
 18 25  1  0
 18 19  1  0
 18 58  1  1
 19 20  1  0
 19 21  1  0
 19 59  1  1
 20 60  1  0
 20 61  1  0
 20 62  1  0
 21 22  1  0
 21 23  1  0
 21 63  1  1
 22 64  1  0
 23 24  1  0
 23 65  1  0
 23 66  1  0
 24 25  1  0
 24 67  1  0
 24 68  1  0
 25 26  1  1
 25 27  1  0
 26 69  1  0
 26 70  1  0
 26 71  1  0
 27 28  2  0
 28 29  1  0
 28 72  1  0
 29 30  1  0
 29 73  1  0
 29 74  1  0
 30 31  1  6
 31 75  1  0
 31 76  1  0
 31 77  1  0
M  END
>  <i_m_ct_stereo_status>  (78) 
1

>  <s_m_source_file>  (78) 
/var/tmp/pbs.5076255.sched01/tmp5ffkvrn0/0o5bi62ha.sdf

>  <i_m_source_file_index>  (78) 
40

>  <i_lp_mmshare_version>  (78) 
48012

>  <i_f3d_flags>  (78) 
0

>  <s_epik_input>  (78) 
W0NIM11DKFtDSDNdKShbT0hdKVxbQ0hdPVtDSF1cW0NIMl1bQ0BASF0oW0NIM10pW0NASF0oW0NIMl1bQ0gyXTEpW0NAXTIoW0NIM10pW0NIMl1bQ0hdPUMoW0NASF0zW0NAQF0xMltDSDNdKVtDQEBdNChbQ0gzXSlbQ0BASF0oT1tDSDJdMylbQ0BASF0oW0NIM10pW0NAQEhdKFtPSF0pW0NIMl1bQ0gyXTQ=

>  <s_epik_cmdline>  (78) 
J2VwaWtfcHl0aG9uJywgJy1waHQnLCAnMi4wJywgJy1waCcsICc3LjAnLCAnLXRuJywgJzgnLCAnLW1hJywgJzIwMCcsICctaW1hZScsICc8aW5maWxlLm1hZT4nLCAnLW9tYWUnLCAnPG91dGZpbGUubWFlPic=

>  <r_lp_tautomer_probability>  (78) 
1

>  <r_epik_Ionization_Penalty>  (78) 
1.29523e-06

>  <r_epik_Ionization_Penalty_Charging>  (78) 
0

>  <r_epik_Ionization_Penalty_Neutral>  (78) 
1.29523e-06

>  <r_epik_State_Penalty>  (78) 
-0

>  <r_epik_Charging_Adjusted_Penalty>  (78) 
0

>  <i_epik_Tot_Q>  (78) 
0

>  <i_epik_Tot_abs_Q>  (78) 
0

>  <s_lp_Force_Field>  (78) 
OPLS3e

>  <r_lp_Energy>  (78) 
47.8293

>  <b_lp_Chiralities_Consistent>  (78) 
1

>  <s_lp_Variant>  (78) 
26:0-1

>  <s_i_glide_gridfile>  (78) 
pfpi4k_grid

>  <i_i_glide_lignum>  (78) 
40

>  <i_i_glide_rotatable_bonds>  (78) 
6

>  <r_i_docking_score>  (78) 
-1.91933

>  <r_i_glide_ligand_efficiency>  (78) 
-0.061914

>  <r_i_glide_ligand_efficiency_sa>  (78) 
-0.194495

>  <r_i_glide_ligand_efficiency_ln>  (78) 
-0.432868

>  <r_i_glide_gscore>  (78) 
-1.91933

>  <r_i_glide_lipo>  (78) 
-0.0363944

>  <r_i_glide_hbond>  (78) 
-0.152

>  <r_i_glide_metal>  (78) 
-0

>  <r_i_glide_rewards>  (78) 
-0.472752

>  <r_i_glide_evdw>  (78) 
-16.78

>  <r_i_glide_ecoul>  (78) 
-5.65336

>  <r_i_glide_erotb>  (78) 
0.428815

>  <r_i_glide_esite>  (78) 
0

>  <r_i_glide_emodel>  (78) 
-21.0699

>  <r_i_glide_energy>  (78) 
-22.4333

>  <r_i_glide_einternal>  (78) 
9.20195

>  <r_i_glide_intrahb_reward>  (78) 
-0

>  <i_i_glide_confnum>  (78) 
4

>  <i_i_glide_posenum>  (78) 
2

>  <r_i_glide_eff_state_penalty>  (78) 
0

>  <ligand_id>  (78) 
26

>  <original_smiles>  (78) 
CC(CC=CC(C)(C)O)C1CCC2(C)C3COC4C(C)C(O)CCC4(C)C3=CCC12C

>  <smiles>  (78) 
[H]OC1([H])C([H])([H])C([H])([H])C2(C([H])([H])[H])C3=C([H])C([H])([H])C4(C([H])([H])[H])C([H])(C([H])(C([H])([H])[H])C([H])([H])C([H])=C([H])C(O[H])(C([H])([H])[H])C([H])([H])[H])C([H])([H])C([H])([H])C4(C([H])([H])[H])C3([H])C([H])([H])OC2([H])C1([H])C([H])([H])[H]

$$$$
26:1:0
     RDKit          3D

 77 80  0  0  1  0  0  0  0  0999 V2000
    6.5343   -4.0426    0.7858 C   0  0  0  0  0  0  0  0  0  0  0  0
    5.2542   -3.2171    0.5832 C   0  0  2  0  0  0  0  0  0  0  0  0
    5.3715   -2.3231   -0.6928 C   0  0  0  0  0  0  0  0  0  0  0  0
    5.5156   -3.1354   -2.0105 C   0  0  0  0  0  0  0  0  0  0  0  0
    4.7472   -3.0339   -3.1358 C   0  0  0  0  0  0  0  0  0  0  0  0
    3.5571   -2.1278   -3.4970 C   0  0  0  0  0  0  0  0  0  0  0  0
    2.2899   -2.9604   -3.7048 C   0  0  0  0  0  0  0  0  0  0  0  0
    3.2765   -1.0038   -2.4924 C   0  0  0  0  0  0  0  0  0  0  0  0
    3.7975   -1.4700   -4.7041 O   0  0  0  0  0  0  0  0  0  0  0  0
    4.9141   -2.3543    1.8577 C   0  0  2  0  0  0  0  0  0  0  0  0
    4.8742   -3.2139    3.1493 C   0  0  0  0  0  0  0  0  0  0  0  0
    3.8001   -2.6552    4.0887 C   0  0  0  0  0  0  0  0  0  0  0  0
    3.4600   -1.2752    3.5186 C   0  0  2  0  0  0  0  0  0  0  0  0
    4.5339   -0.2773    4.0711 C   0  0  0  0  0  0  0  0  0  0  0  0
    2.0343   -0.7344    3.8699 C   0  0  1  0  0  0  0  0  0  0  0  0
    1.8320   -0.3297    5.3380 C   0  0  0  0  0  0  0  0  0  0  0  0
    0.4817    0.0031    5.6224 O   0  0  0  0  0  0  0  0  0  0  0  0
   -0.3245    0.5713    4.5867 C   0  0  1  0  0  0  0  0  0  0  0  0
   -1.3843    1.4612    5.2926 C   0  0  1  0  0  0  0  0  0  0  0  0
   -2.1535    0.7107    6.3863 C   0  0  0  0  0  0  0  0  0  0  0  0
   -0.7925    2.8016    5.7982 C   0  0  1  0  0  0  0  0  0  0  0  0
    0.0908    2.6215    6.8798 O   0  0  0  0  0  0  0  0  0  0  0  0
   -0.0763    3.5487    4.6635 C   0  0  0  0  0  0  0  0  0  0  0  0
    0.9938    2.6816    3.9687 C   0  0  0  0  0  0  0  0  0  0  0  0
    0.4670    1.3133    3.4483 C   0  0  2  0  0  0  0  0  0  0  0  0
   -0.4847    1.5493    2.2450 C   0  0  0  0  0  0  0  0  0  0  0  0
    1.6522    0.4533    2.9717 C   0  0  0  0  0  0  0  0  0  0  0  0
    2.3494    0.7089    1.8378 C   0  0  0  0  0  0  0  0  0  0  0  0
    3.5113   -0.1356    1.3030 C   0  0  0  0  0  0  0  0  0  0  0  0
    3.5765   -1.5339    1.9783 C   0  0  1  0  0  0  0  0  0  0  0  0
    2.4054   -2.3953    1.4074 C   0  0  0  0  0  0  0  0  0  0  0  0
    7.3931   -3.3763    0.9321 H   0  0  0  0  0  0  0  0  0  0  0  0
    6.7466   -4.6724   -0.0837 H   0  0  0  0  0  0  0  0  0  0  0  0
    6.4715   -4.7218    1.6403 H   0  0  0  0  0  0  0  0  0  0  0  0
    4.4347   -3.9232    0.4169 H   0  0  0  0  0  0  0  0  0  0  0  0
    4.5259   -1.7300   -0.6274 H   0  0  0  0  0  0  0  0  0  0  0  0
    6.2724   -1.6695   -0.6115 H   0  0  0  0  0  0  0  0  0  0  0  0
    6.2959   -3.8670   -2.0704 H   0  0  0  0  0  0  0  0  0  0  0  0
    5.0232   -3.7111   -3.9476 H   0  0  0  0  0  0  0  0  0  0  0  0
    2.0337   -3.5220   -2.8046 H   0  0  0  0  0  0  0  0  0  0  0  0
    2.3972   -3.6748   -4.5192 H   0  0  0  0  0  0  0  0  0  0  0  0
    1.4390   -2.3247   -3.9465 H   0  0  0  0  0  0  0  0  0  0  0  0
    2.9642   -1.4538   -1.5867 H   0  0  0  0  0  0  0  0  0  0  0  0
    2.4699   -0.3040   -2.8347 H   0  0  0  0  0  0  0  0  0  0  0  0
    4.1642   -0.4045   -2.3249 H   0  0  0  0  0  0  0  0  0  0  0  0
    3.0029   -1.0603   -4.9928 H   0  0  0  0  0  0  0  0  0  0  0  0
    5.7350   -1.6460    1.9455 H   0  0  0  0  0  0  0  0  0  0  0  0
    4.6648   -4.2593    2.9386 H   0  0  0  0  0  0  0  0  0  0  0  0
    5.8435   -3.1805    3.6378 H   0  0  0  0  0  0  0  0  0  0  0  0
    2.9283   -3.3123    4.0700 H   0  0  0  0  0  0  0  0  0  0  0  0
    4.1476   -2.6199    5.1218 H   0  0  0  0  0  0  0  0  0  0  0  0
    4.3410    0.7540    3.7779 H   0  0  0  0  0  0  0  0  0  0  0  0
    5.5503   -0.5105    3.7599 H   0  0  0  0  0  0  0  0  0  0  0  0
    4.5573   -0.2870    5.1590 H   0  0  0  0  0  0  0  0  0  0  0  0
    1.3130   -1.5227    3.6793 H   0  0  0  0  0  0  0  0  0  0  0  0
    2.1414   -1.1355    6.0086 H   0  0  0  0  0  0  0  0  0  0  0  0
    2.4374    0.5364    5.5925 H   0  0  0  0  0  0  0  0  0  0  0  0
   -0.8530   -0.2690    4.1179 H   0  0  0  0  0  0  0  0  0  0  0  0
   -2.1302    1.7312    4.5516 H   0  0  0  0  0  0  0  0  0  0  0  0
   -1.5132    0.4202    7.2093 H   0  0  0  0  0  0  0  0  0  0  0  0
   -2.6229   -0.1874    5.9736 H   0  0  0  0  0  0  0  0  0  0  0  0
   -2.9604    1.3282    6.8029 H   0  0  0  0  0  0  0  0  0  0  0  0
   -1.6011    3.4270    6.1753 H   0  0  0  0  0  0  0  0  0  0  0  0
    0.8261    2.0903    6.5749 H   0  0  0  0  0  0  0  0  0  0  0  0
   -0.8125    3.8735    3.9315 H   0  0  0  0  0  0  0  0  0  0  0  0
    0.3786    4.4630    5.0500 H   0  0  0  0  0  0  0  0  0  0  0  0
    1.4194    3.2520    3.1424 H   0  0  0  0  0  0  0  0  0  0  0  0
    1.8174    2.5257    4.6656 H   0  0  0  0  0  0  0  0  0  0  0  0
   -1.3912    2.0889    2.5177 H   0  0  0  0  0  0  0  0  0  0  0  0
   -0.7972    0.6080    1.7961 H   0  0  0  0  0  0  0  0  0  0  0  0
   -0.0200    2.1376    1.4563 H   0  0  0  0  0  0  0  0  0  0  0  0
    2.0932    1.5764    1.2508 H   0  0  0  0  0  0  0  0  0  0  0  0
    3.3880   -0.2243    0.2364 H   0  0  0  0  0  0  0  0  0  0  0  0
    4.4347    0.4231    1.4494 H   0  0  0  0  0  0  0  0  0  0  0  0
    1.4346   -1.9120    1.5032 H   0  0  0  0  0  0  0  0  0  0  0  0
    2.3296   -3.3709    1.8843 H   0  0  0  0  0  0  0  0  0  0  0  0
    2.5222   -2.5819    0.3417 H   0  0  0  0  0  0  0  0  0  0  0  0
  1  2  1  0
  1 32  1  0
  1 33  1  0
  1 34  1  0
  2  3  1  0
  2 10  1  0
  2 35  1  6
  3  4  1  0
  3 36  1  0
  3 37  1  0
  4  5  2  3
  4 38  1  0
  5  6  1  0
  5 39  1  0
  6  7  1  0
  6  8  1  0
  6  9  1  0
  7 40  1  0
  7 41  1  0
  7 42  1  0
  8 43  1  0
  8 44  1  0
  8 45  1  0
  9 46  1  0
 10 30  1  0
 10 11  1  0
 10 47  1  1
 11 12  1  0
 11 48  1  0
 11 49  1  0
 12 13  1  0
 12 50  1  0
 12 51  1  0
 13 30  1  0
 13 14  1  1
 13 15  1  0
 14 52  1  0
 14 53  1  0
 14 54  1  0
 15 27  1  0
 15 16  1  0
 15 55  1  6
 16 17  1  0
 16 56  1  0
 16 57  1  0
 17 18  1  0
 18 25  1  0
 18 19  1  0
 18 58  1  6
 19 20  1  0
 19 21  1  0
 19 59  1  6
 20 60  1  0
 20 61  1  0
 20 62  1  0
 21 22  1  0
 21 23  1  0
 21 63  1  1
 22 64  1  0
 23 24  1  0
 23 65  1  0
 23 66  1  0
 24 25  1  0
 24 67  1  0
 24 68  1  0
 25 26  1  6
 25 27  1  0
 26 69  1  0
 26 70  1  0
 26 71  1  0
 27 28  2  0
 28 29  1  0
 28 72  1  0
 29 30  1  0
 29 73  1  0
 29 74  1  0
 30 31  1  6
 31 75  1  0
 31 76  1  0
 31 77  1  0
M  END
>  <i_m_ct_stereo_status>  (79) 
1

>  <s_m_source_file>  (79) 
/var/tmp/pbs.5076255.sched01/tmp5ffkvrn0/0o5bi62ha.sdf

>  <i_m_source_file_index>  (79) 
41

>  <i_lp_mmshare_version>  (79) 
48012

>  <i_f3d_flags>  (79) 
0

>  <s_epik_input>  (79) 
W0NIM11DKFtDSDNdKShbT0hdKVxbQ0hdPVtDSF1cW0NIMl1bQ0BASF0oW0NIM10pW0NASF0oW0NIMl1bQ0gyXTEpW0NAXTIoW0NIM10pW0NIMl1bQ0hdPUMoW0NASF0zW0NAQF0xMltDSDNdKVtDQEBdNChbQ0gzXSlbQ0BASF0oT1tDSDJdMylbQ0BASF0oW0NIM10pW0NAQEhdKFtPSF0pW0NIMl1bQ0gyXTQ=

>  <s_epik_cmdline>  (79) 
J2VwaWtfcHl0aG9uJywgJy1waHQnLCAnMi4wJywgJy1waCcsICc3LjAnLCAnLXRuJywgJzgnLCAnLW1hJywgJzIwMCcsICctaW1hZScsICc8aW5maWxlLm1hZT4nLCAnLW9tYWUnLCAnPG91dGZpbGUubWFlPic=

>  <r_lp_tautomer_probability>  (79) 
1

>  <r_epik_Ionization_Penalty>  (79) 
1.29523e-06

>  <r_epik_Ionization_Penalty_Charging>  (79) 
0

>  <r_epik_Ionization_Penalty_Neutral>  (79) 
1.29523e-06

>  <r_epik_State_Penalty>  (79) 
-0

>  <r_epik_Charging_Adjusted_Penalty>  (79) 
0

>  <i_epik_Tot_Q>  (79) 
0

>  <i_epik_Tot_abs_Q>  (79) 
0

>  <s_lp_Force_Field>  (79) 
OPLS3e

>  <r_lp_Energy>  (79) 
50.9456

>  <b_lp_Chiralities_Consistent>  (79) 
1

>  <s_lp_Variant>  (79) 
26:0-2

>  <s_i_glide_gridfile>  (79) 
pfpi4k_grid

>  <i_i_glide_lignum>  (79) 
41

>  <i_i_glide_rotatable_bonds>  (79) 
6

>  <r_i_docking_score>  (79) 
-4.13289

>  <r_i_glide_ligand_efficiency>  (79) 
-0.133319

>  <r_i_glide_ligand_efficiency_sa>  (79) 
-0.418806

>  <r_i_glide_ligand_efficiency_ln>  (79) 
-0.932093

>  <r_i_glide_gscore>  (79) 
-4.13289

>  <r_i_glide_lipo>  (79) 
-0.986014

>  <r_i_glide_hbond>  (79) 
-0.354005

>  <r_i_glide_metal>  (79) 
-0

>  <r_i_glide_rewards>  (79) 
-0.972752

>  <r_i_glide_evdw>  (79) 
-28.215

>  <r_i_glide_ecoul>  (79) 
-5.58788

>  <r_i_glide_erotb>  (79) 
0.428815

>  <r_i_glide_esite>  (79) 
0

>  <r_i_glide_emodel>  (79) 
-46.3162

>  <r_i_glide_energy>  (79) 
-33.8029

>  <r_i_glide_einternal>  (79) 
0.756258

>  <r_i_glide_intrahb_reward>  (79) 
-0.5

>  <i_i_glide_confnum>  (79) 
3

>  <i_i_glide_posenum>  (79) 
28

>  <r_i_glide_eff_state_penalty>  (79) 
0

>  <ligand_id>  (79) 
26

>  <original_smiles>  (79) 
CC(CC=CC(C)(C)O)C1CCC2(C)C3COC4C(C)C(O)CCC4(C)C3=CCC12C

>  <smiles>  (79) 
[H]OC1([H])C([H])([H])C([H])([H])C2(C([H])([H])[H])C3=C([H])C([H])([H])C4(C([H])([H])[H])C([H])(C([H])(C([H])([H])[H])C([H])([H])C([H])=C([H])C(O[H])(C([H])([H])[H])C([H])([H])[H])C([H])([H])C([H])([H])C4(C([H])([H])[H])C3([H])C([H])([H])OC2([H])C1([H])C([H])([H])[H]

$$$$
26:1:1
     RDKit          3D

 77 80  0  0  1  0  0  0  0  0999 V2000
    6.1708   -3.9468    2.0694 C   0  0  0  0  0  0  0  0  0  0  0  0
    4.8391   -3.2245    1.7624 C   0  0  2  0  0  0  0  0  0  0  0  0
    4.8754   -2.6284    0.3423 C   0  0  0  0  0  0  0  0  0  0  0  0
    4.9977   -3.6319   -0.7947 C   0  0  0  0  0  0  0  0  0  0  0  0
    4.4177   -3.6191   -2.0091 C   0  0  0  0  0  0  0  0  0  0  0  0
    3.4820   -2.6139   -2.6755 C   0  0  0  0  0  0  0  0  0  0  0  0
    4.0516   -2.1719   -4.0262 C   0  0  0  0  0  0  0  0  0  0  0  0
    2.1003   -3.2350   -2.8543 C   0  0  0  0  0  0  0  0  0  0  0  0
    3.3275   -1.4190   -1.9487 O   0  0  0  0  0  0  0  0  0  0  0  0
    4.5251   -2.1338    2.8497 C   0  0  2  0  0  0  0  0  0  0  0  0
    4.5814   -2.7076    4.2909 C   0  0  0  0  0  0  0  0  0  0  0  0
    3.4994   -2.0100    5.1339 C   0  0  0  0  0  0  0  0  0  0  0  0
    3.0782   -0.7894    4.3065 C   0  0  2  0  0  0  0  0  0  0  0  0
    4.1245    0.3334    4.6041 C   0  0  0  0  0  0  0  0  0  0  0  0
    1.6436   -0.2380    4.5866 C   0  0  1  0  0  0  0  0  0  0  0  0
    1.4735    0.4439    5.9512 C   0  0  0  0  0  0  0  0  0  0  0  0
    0.1199    0.7819    6.2175 O   0  0  0  0  0  0  0  0  0  0  0  0
   -0.7400    1.0797    5.1104 C   0  0  1  0  0  0  0  0  0  0  0  0
   -1.8125    2.0557    5.6583 C   0  0  1  0  0  0  0  0  0  0  0  0
   -2.5404    1.5190    6.9062 C   0  0  0  0  0  0  0  0  0  0  0  0
   -1.2780    3.4905    5.8589 C   0  0  1  0  0  0  0  0  0  0  0  0
   -0.3428    3.5792    6.9142 O   0  0  0  0  0  0  0  0  0  0  0  0
   -0.6231    4.0199    4.5749 C   0  0  0  0  0  0  0  0  0  0  0  0
    0.4646    3.0714    4.0366 C   0  0  0  0  0  0  0  0  0  0  0  0
   -0.0160    1.6088    3.8218 C   0  0  2  0  0  0  0  0  0  0  0  0
   -1.0098    1.5702    2.6305 C   0  0  0  0  0  0  0  0  0  0  0  0
    1.1956    0.7256    3.4811 C   0  0  0  0  0  0  0  0  0  0  0  0
    1.8384    0.7643    2.2893 C   0  0  0  0  0  0  0  0  0  0  0  0
    3.0186   -0.1250    1.9006 C   0  0  0  0  0  0  0  0  0  0  0  0
    3.1628   -1.3487    2.8457 C   0  0  1  0  0  0  0  0  0  0  0  0
    2.0203   -2.3521    2.5020 C   0  0  0  0  0  0  0  0  0  0  0  0
    6.9979   -3.2422    2.0393 H   0  0  0  0  0  0  0  0  0  0  0  0
    6.3983   -4.7389    1.3612 H   0  0  0  0  0  0  0  0  0  0  0  0
    6.1711   -4.4318    3.0433 H   0  0  0  0  0  0  0  0  0  0  0  0
    4.0623   -3.9882    1.7887 H   0  0  0  0  0  0  0  0  0  0  0  0
    3.9519   -2.0929    0.2333 H   0  0  0  0  0  0  0  0  0  0  0  0
    5.6842   -1.9061    0.2487 H   0  0  0  0  0  0  0  0  0  0  0  0
    5.6493   -4.4704   -0.6219 H   0  0  0  0  0  0  0  0  0  0  0  0
    4.6525   -4.4561   -2.6493 H   0  0  0  0  0  0  0  0  0  0  0  0
    4.1938   -3.0219   -4.6944 H   0  0  0  0  0  0  0  0  0  0  0  0
    5.0111   -1.6792   -3.8920 H   0  0  0  0  0  0  0  0  0  0  0  0
    3.3833   -1.4645   -4.5170 H   0  0  0  0  0  0  0  0  0  0  0  0
    2.1582   -4.1319   -3.4685 H   0  0  0  0  0  0  0  0  0  0  0  0
    1.4179   -2.5584   -3.3560 H   0  0  0  0  0  0  0  0  0  0  0  0
    1.6585   -3.5124   -1.9017 H   0  0  0  0  0  0  0  0  0  0  0  0
    2.4676   -1.4167   -1.5309 H   0  0  0  0  0  0  0  0  0  0  0  0
    5.3206   -1.3942    2.7564 H   0  0  0  0  0  0  0  0  0  0  0  0
    4.3872   -3.7802    4.3057 H   0  0  0  0  0  0  0  0  0  0  0  0
    5.5742   -2.5479    4.7162 H   0  0  0  0  0  0  0  0  0  0  0  0
    2.6579   -2.6885    5.2770 H   0  0  0  0  0  0  0  0  0  0  0  0
    3.8714   -1.7511    6.1252 H   0  0  0  0  0  0  0  0  0  0  0  0
    3.8823    1.2738    4.1104 H   0  0  0  0  0  0  0  0  0  0  0  0
    5.1384    0.0734    4.3111 H   0  0  0  0  0  0  0  0  0  0  0  0
    4.1778    0.5487    5.6705 H   0  0  0  0  0  0  0  0  0  0  0  0
    0.9437   -1.0752    4.5806 H   0  0  0  0  0  0  0  0  0  0  0  0
    1.8289   -0.1958    6.7571 H   0  0  0  0  0  0  0  0  0  0  0  0
    2.0539    1.3619    6.0001 H   0  0  0  0  0  0  0  0  0  0  0  0
   -1.2427    0.1434    4.8586 H   0  0  0  0  0  0  0  0  0  0  0  0
   -2.5830    2.1413    4.8956 H   0  0  0  0  0  0  0  0  0  0  0  0
   -1.8691    1.4282    7.7625 H   0  0  0  0  0  0  0  0  0  0  0  0
   -2.9777    0.5432    6.7058 H   0  0  0  0  0  0  0  0  0  0  0  0
   -3.3509    2.1866    7.1996 H   0  0  0  0  0  0  0  0  0  0  0  0
   -2.1193    4.1318    6.1302 H   0  0  0  0  0  0  0  0  0  0  0  0
    0.3781    3.0028    6.7165 H   0  0  0  0  0  0  0  0  0  0  0  0
   -1.3896    4.1593    3.8121 H   0  0  0  0  0  0  0  0  0  0  0  0
   -0.1989    5.0106    4.7514 H   0  0  0  0  0  0  0  0  0  0  0  0
    0.8413    3.4751    3.0952 H   0  0  0  0  0  0  0  0  0  0  0  0
    1.3129    3.0913    4.7171 H   0  0  0  0  0  0  0  0  0  0  0  0
   -1.9288    2.1214    2.8180 H   0  0  0  0  0  0  0  0  0  0  0  0
   -1.2977    0.5459    2.3961 H   0  0  0  0  0  0  0  0  0  0  0  0
   -0.5835    2.0021    1.7240 H   0  0  0  0  0  0  0  0  0  0  0  0
    1.5346    1.4677    1.5248 H   0  0  0  0  0  0  0  0  0  0  0  0
    2.8381   -0.4371    0.8762 H   0  0  0  0  0  0  0  0  0  0  0  0
    3.9268    0.4770    1.8902 H   0  0  0  0  0  0  0  0  0  0  0  0
    1.0302   -1.9015    2.5343 H   0  0  0  0  0  0  0  0  0  0  0  0
    2.0066   -3.2178    3.1653 H   0  0  0  0  0  0  0  0  0  0  0  0
    2.1273   -2.7325    1.4886 H   0  0  0  0  0  0  0  0  0  0  0  0
  1  2  1  0
  1 32  1  0
  1 33  1  0
  1 34  1  0
  2  3  1  0
  2 10  1  0
  2 35  1  6
  3  4  1  0
  3 36  1  0
  3 37  1  0
  4  5  2  3
  4 38  1  0
  5  6  1  0
  5 39  1  0
  6  7  1  0
  6  8  1  0
  6  9  1  0
  7 40  1  0
  7 41  1  0
  7 42  1  0
  8 43  1  0
  8 44  1  0
  8 45  1  0
  9 46  1  0
 10 30  1  0
 10 11  1  0
 10 47  1  1
 11 12  1  0
 11 48  1  0
 11 49  1  0
 12 13  1  0
 12 50  1  0
 12 51  1  0
 13 30  1  0
 13 14  1  6
 13 15  1  0
 14 52  1  0
 14 53  1  0
 14 54  1  0
 15 27  1  0
 15 16  1  0
 15 55  1  1
 16 17  1  0
 16 56  1  0
 16 57  1  0
 17 18  1  0
 18 25  1  0
 18 19  1  0
 18 58  1  6
 19 20  1  0
 19 21  1  0
 19 59  1  6
 20 60  1  0
 20 61  1  0
 20 62  1  0
 21 22  1  0
 21 23  1  0
 21 63  1  1
 22 64  1  0
 23 24  1  0
 23 65  1  0
 23 66  1  0
 24 25  1  0
 24 67  1  0
 24 68  1  0
 25 26  1  6
 25 27  1  0
 26 69  1  0
 26 70  1  0
 26 71  1  0
 27 28  2  0
 28 29  1  0
 28 72  1  0
 29 30  1  0
 29 73  1  0
 29 74  1  0
 30 31  1  6
 31 75  1  0
 31 76  1  0
 31 77  1  0
M  END
>  <i_m_ct_stereo_status>  (80) 
1

>  <s_m_source_file>  (80) 
/var/tmp/pbs.5076255.sched01/tmp5ffkvrn0/0o5bi62ha.sdf

>  <i_m_source_file_index>  (80) 
41

>  <i_lp_mmshare_version>  (80) 
48012

>  <i_f3d_flags>  (80) 
0

>  <s_epik_input>  (80) 
W0NIM11DKFtDSDNdKShbT0hdKVxbQ0hdPVtDSF1cW0NIMl1bQ0BASF0oW0NIM10pW0NASF0oW0NIMl1bQ0gyXTEpW0NAXTIoW0NIM10pW0NIMl1bQ0hdPUMoW0NASF0zW0NAQF0xMltDSDNdKVtDQEBdNChbQ0gzXSlbQ0BASF0oT1tDSDJdMylbQ0BASF0oW0NIM10pW0NAQEhdKFtPSF0pW0NIMl1bQ0gyXTQ=

>  <s_epik_cmdline>  (80) 
J2VwaWtfcHl0aG9uJywgJy1waHQnLCAnMi4wJywgJy1waCcsICc3LjAnLCAnLXRuJywgJzgnLCAnLW1hJywgJzIwMCcsICctaW1hZScsICc8aW5maWxlLm1hZT4nLCAnLW9tYWUnLCAnPG91dGZpbGUubWFlPic=

>  <r_lp_tautomer_probability>  (80) 
1

>  <r_epik_Ionization_Penalty>  (80) 
1.29523e-06

>  <r_epik_Ionization_Penalty_Charging>  (80) 
0

>  <r_epik_Ionization_Penalty_Neutral>  (80) 
1.29523e-06

>  <r_epik_State_Penalty>  (80) 
-0

>  <r_epik_Charging_Adjusted_Penalty>  (80) 
0

>  <i_epik_Tot_Q>  (80) 
0

>  <i_epik_Tot_abs_Q>  (80) 
0

>  <s_lp_Force_Field>  (80) 
OPLS3e

>  <r_lp_Energy>  (80) 
50.9456

>  <b_lp_Chiralities_Consistent>  (80) 
1

>  <s_lp_Variant>  (80) 
26:0-2

>  <s_i_glide_gridfile>  (80) 
pfpi4k_grid

>  <i_i_glide_lignum>  (80) 
41

>  <i_i_glide_rotatable_bonds>  (80) 
6

>  <r_i_docking_score>  (80) 
-2.9367

>  <r_i_glide_ligand_efficiency>  (80) 
-0.0947322

>  <r_i_glide_ligand_efficiency_sa>  (80) 
-0.29759

>  <r_i_glide_ligand_efficiency_ln>  (80) 
-0.662315

>  <r_i_glide_gscore>  (80) 
-2.9367

>  <r_i_glide_lipo>  (80) 
-0.421177

>  <r_i_glide_hbond>  (80) 
-0.16

>  <r_i_glide_metal>  (80) 
-0

>  <r_i_glide_rewards>  (80) 
-0.972752

>  <r_i_glide_evdw>  (80) 
-25.5792

>  <r_i_glide_ecoul>  (80) 
-3.55081

>  <r_i_glide_erotb>  (80) 
0.428815

>  <r_i_glide_esite>  (80) 
0

>  <r_i_glide_emodel>  (80) 
-39.1581

>  <r_i_glide_energy>  (80) 
-29.13

>  <r_i_glide_einternal>  (80) 
2.3185

>  <r_i_glide_intrahb_reward>  (80) 
-0.5

>  <i_i_glide_confnum>  (80) 
3

>  <i_i_glide_posenum>  (80) 
15

>  <r_i_glide_eff_state_penalty>  (80) 
0

>  <ligand_id>  (80) 
26

>  <original_smiles>  (80) 
CC(CC=CC(C)(C)O)C1CCC2(C)C3COC4C(C)C(O)CCC4(C)C3=CCC12C

>  <smiles>  (80) 
[H]OC1([H])C([H])([H])C([H])([H])C2(C([H])([H])[H])C3=C([H])C([H])([H])C4(C([H])([H])[H])C([H])(C([H])(C([H])([H])[H])C([H])([H])C([H])=C([H])C(O[H])(C([H])([H])[H])C([H])([H])[H])C([H])([H])C([H])([H])C4(C([H])([H])[H])C3([H])C([H])([H])OC2([H])C1([H])C([H])([H])[H]

$$$$
26:1:2
     RDKit          3D

 77 80  0  0  1  0  0  0  0  0999 V2000
    5.8436   -1.2935    1.5425 C   0  0  0  0  0  0  0  0  0  0  0  0
    4.4454   -1.5143    2.1714 C   0  0  2  0  0  0  0  0  0  0  0  0
    3.4356   -1.9120    1.0755 C   0  0  0  0  0  0  0  0  0  0  0  0
    3.7763   -3.1779    0.3042 C   0  0  0  0  0  0  0  0  0  0  0  0
    3.8213   -3.4149   -1.0207 C   0  0  0  0  0  0  0  0  0  0  0  0
    3.5828   -2.5162   -2.2330 C   0  0  0  0  0  0  0  0  0  0  0  0
    4.7977   -2.5183   -3.1550 C   0  0  0  0  0  0  0  0  0  0  0  0
    2.3034   -2.9087   -2.9804 C   0  0  0  0  0  0  0  0  0  0  0  0
    3.4103   -1.1520   -1.8464 O   0  0  0  0  0  0  0  0  0  0  0  0
    3.9894   -0.2361    2.9551 C   0  0  2  0  0  0  0  0  0  0  0  0
    5.0032    0.1754    4.0558 C   0  0  0  0  0  0  0  0  0  0  0  0
    4.2146    0.7247    5.2538 C   0  0  0  0  0  0  0  0  0  0  0  0
    2.7970    0.9812    4.7197 C   0  0  2  0  0  0  0  0  0  0  0  0
    2.8148    2.3834    4.0306 C   0  0  0  0  0  0  0  0  0  0  0  0
    1.6538    0.9665    5.7766 C   0  0  1  0  0  0  0  0  0  0  0  0
    1.6542    2.1608    6.7416 C   0  0  0  0  0  0  0  0  0  0  0  0
    0.7016    2.0052    7.7795 O   0  0  0  0  0  0  0  0  0  0  0  0
   -0.5004    1.2810    7.5072 C   0  0  1  0  0  0  0  0  0  0  0  0
   -1.5892    1.8758    8.4365 C   0  0  1  0  0  0  0  0  0  0  0  0
   -1.1810    1.8879    9.9203 C   0  0  0  0  0  0  0  0  0  0  0  0
   -2.1224    3.2463    7.9506 C   0  0  1  0  0  0  0  0  0  0  0  0
   -1.1781    4.2730    8.0622 O   0  0  0  0  0  0  0  0  0  0  0  0
   -2.5883    3.1559    6.4903 C   0  0  0  0  0  0  0  0  0  0  0  0
   -1.5025    2.5947    5.5525 C   0  0  0  0  0  0  0  0  0  0  0  0
   -0.9236    1.2180    5.9939 C   0  0  2  0  0  0  0  0  0  0  0  0
   -2.0101    0.1281    5.8185 C   0  0  0  0  0  0  0  0  0  0  0  0
    0.2710    0.8689    5.1017 C   0  0  0  0  0  0  0  0  0  0  0  0
    0.1660    0.4913    3.8014 C   0  0  0  0  0  0  0  0  0  0  0  0
    1.3325    0.0946    2.8998 C   0  0  0  0  0  0  0  0  0  0  0  0
    2.6204   -0.2074    3.7199 C   0  0  1  0  0  0  0  0  0  0  0  0
    2.4300   -1.5838    4.4232 C   0  0  0  0  0  0  0  0  0  0  0  0
    5.8334   -0.4699    0.8277 H   0  0  0  0  0  0  0  0  0  0  0  0
    6.1934   -2.1778    1.0104 H   0  0  0  0  0  0  0  0  0  0  0  0
    6.6071   -1.0615    2.2816 H   0  0  0  0  0  0  0  0  0  0  0  0
    4.5524   -2.3486    2.8736 H   0  0  0  0  0  0  0  0  0  0  0  0
    2.4647   -2.1149    1.5047 H   0  0  0  0  0  0  0  0  0  0  0  0
    3.2974   -1.0414    0.4083 H   0  0  0  0  0  0  0  0  0  0  0  0
    3.9999   -4.0208    0.9436 H   0  0  0  0  0  0  0  0  0  0  0  0
    4.0813   -4.4265   -1.3159 H   0  0  0  0  0  0  0  0  0  0  0  0
    5.0150   -3.5170   -3.5435 H   0  0  0  0  0  0  0  0  0  0  0  0
    5.6830   -2.1723   -2.6238 H   0  0  0  0  0  0  0  0  0  0  0  0
    4.6365   -1.8506   -4.0021 H   0  0  0  0  0  0  0  0  0  0  0  0
    2.3492   -3.9306   -3.3603 H   0  0  0  0  0  0  0  0  0  0  0  0
    2.1267   -2.2612   -3.8394 H   0  0  0  0  0  0  0  0  0  0  0  0
    1.4300   -2.8458   -2.3344 H   0  0  0  0  0  0  0  0  0  0  0  0
    2.5674   -1.0680   -1.4735 H   0  0  0  0  0  0  0  0  0  0  0  0
    3.9557    0.5568    2.2112 H   0  0  0  0  0  0  0  0  0  0  0  0
    5.6048   -0.6711    4.3827 H   0  0  0  0  0  0  0  0  0  0  0  0
    5.6993    0.9292    3.6816 H   0  0  0  0  0  0  0  0  0  0  0  0
    4.1968   -0.0236    6.0493 H   0  0  0  0  0  0  0  0  0  0  0  0
    4.6847    1.6196    5.6606 H   0  0  0  0  0  0  0  0  0  0  0  0
    1.8356    2.6941    3.6683 H   0  0  0  0  0  0  0  0  0  0  0  0
    3.4711    2.4227    3.1717 H   0  0  0  0  0  0  0  0  0  0  0  0
    3.1647    3.1582    4.7104 H   0  0  0  0  0  0  0  0  0  0  0  0
    1.7654    0.0804    6.3960 H   0  0  0  0  0  0  0  0  0  0  0  0
    2.6383    2.2928    7.1971 H   0  0  0  0  0  0  0  0  0  0  0  0
    1.4251    3.0859    6.2189 H   0  0  0  0  0  0  0  0  0  0  0  0
   -0.3024    0.2534    7.8376 H   0  0  0  0  0  0  0  0  0  0  0  0
   -2.4549    1.2308    8.3885 H   0  0  0  0  0  0  0  0  0  0  0  0
   -0.3366    2.5502   10.1060 H   0  0  0  0  0  0  0  0  0  0  0  0
   -0.8918    0.8898   10.2520 H   0  0  0  0  0  0  0  0  0  0  0  0
   -2.0065    2.2093   10.5563 H   0  0  0  0  0  0  0  0  0  0  0  0
   -2.9748    3.5256    8.5736 H   0  0  0  0  0  0  0  0  0  0  0  0
   -0.8985    4.3069    8.9850 H   0  0  0  0  0  0  0  0  0  0  0  0
   -3.4835    2.5404    6.4520 H   0  0  0  0  0  0  0  0  0  0  0  0
   -2.9038    4.1300    6.1400 H   0  0  0  0  0  0  0  0  0  0  0  0
   -1.9187    2.5145    4.5494 H   0  0  0  0  0  0  0  0  0  0  0  0
   -0.7015    3.3279    5.4783 H   0  0  0  0  0  0  0  0  0  0  0  0
   -2.8653    0.2751    6.4768 H   0  0  0  0  0  0  0  0  0  0  0  0
   -1.5972   -0.8598    6.0236 H   0  0  0  0  0  0  0  0  0  0  0  0
   -2.4064    0.1037    4.8039 H   0  0  0  0  0  0  0  0  0  0  0  0
   -0.8047    0.4584    3.3178 H   0  0  0  0  0  0  0  0  0  0  0  0
    1.0208   -0.7699    2.3314 H   0  0  0  0  0  0  0  0  0  0  0  0
    1.5048    0.8912    2.1750 H   0  0  0  0  0  0  0  0  0  0  0  0
    1.5265   -1.6307    5.0255 H   0  0  0  0  0  0  0  0  0  0  0  0
    3.2701   -1.8406    5.0695 H   0  0  0  0  0  0  0  0  0  0  0  0
    2.3356   -2.3927    3.7026 H   0  0  0  0  0  0  0  0  0  0  0  0
  1  2  1  0
  1 32  1  0
  1 33  1  0
  1 34  1  0
  2  3  1  0
  2 10  1  0
  2 35  1  1
  3  4  1  0
  3 36  1  0
  3 37  1  0
  4  5  2  3
  4 38  1  0
  5  6  1  0
  5 39  1  0
  6  7  1  0
  6  8  1  0
  6  9  1  0
  7 40  1  0
  7 41  1  0
  7 42  1  0
  8 43  1  0
  8 44  1  0
  8 45  1  0
  9 46  1  0
 10 30  1  0
 10 11  1  0
 10 47  1  6
 11 12  1  0
 11 48  1  0
 11 49  1  0
 12 13  1  0
 12 50  1  0
 12 51  1  0
 13 30  1  0
 13 14  1  6
 13 15  1  0
 14 52  1  0
 14 53  1  0
 14 54  1  0
 15 27  1  0
 15 16  1  0
 15 55  1  1
 16 17  1  0
 16 56  1  0
 16 57  1  0
 17 18  1  0
 18 25  1  0
 18 19  1  0
 18 58  1  1
 19 20  1  0
 19 21  1  0
 19 59  1  1
 20 60  1  0
 20 61  1  0
 20 62  1  0
 21 22  1  0
 21 23  1  0
 21 63  1  1
 22 64  1  0
 23 24  1  0
 23 65  1  0
 23 66  1  0
 24 25  1  0
 24 67  1  0
 24 68  1  0
 25 26  1  1
 25 27  1  0
 26 69  1  0
 26 70  1  0
 26 71  1  0
 27 28  2  0
 28 29  1  0
 28 72  1  0
 29 30  1  0
 29 73  1  0
 29 74  1  0
 30 31  1  1
 31 75  1  0
 31 76  1  0
 31 77  1  0
M  END
>  <i_m_ct_stereo_status>  (81) 
1

>  <s_m_source_file>  (81) 
/var/tmp/pbs.5076255.sched01/tmp5ffkvrn0/0o5bi62ha.sdf

>  <i_m_source_file_index>  (81) 
41

>  <i_lp_mmshare_version>  (81) 
48012

>  <i_f3d_flags>  (81) 
0

>  <s_epik_input>  (81) 
W0NIM11DKFtDSDNdKShbT0hdKVxbQ0hdPVtDSF1cW0NIMl1bQ0BASF0oW0NIM10pW0NASF0oW0NIMl1bQ0gyXTEpW0NAXTIoW0NIM10pW0NIMl1bQ0hdPUMoW0NASF0zW0NAQF0xMltDSDNdKVtDQEBdNChbQ0gzXSlbQ0BASF0oT1tDSDJdMylbQ0BASF0oW0NIM10pW0NAQEhdKFtPSF0pW0NIMl1bQ0gyXTQ=

>  <s_epik_cmdline>  (81) 
J2VwaWtfcHl0aG9uJywgJy1waHQnLCAnMi4wJywgJy1waCcsICc3LjAnLCAnLXRuJywgJzgnLCAnLW1hJywgJzIwMCcsICctaW1hZScsICc8aW5maWxlLm1hZT4nLCAnLW9tYWUnLCAnPG91dGZpbGUubWFlPic=

>  <r_lp_tautomer_probability>  (81) 
1

>  <r_epik_Ionization_Penalty>  (81) 
1.29523e-06

>  <r_epik_Ionization_Penalty_Charging>  (81) 
0

>  <r_epik_Ionization_Penalty_Neutral>  (81) 
1.29523e-06

>  <r_epik_State_Penalty>  (81) 
-0

>  <r_epik_Charging_Adjusted_Penalty>  (81) 
0

>  <i_epik_Tot_Q>  (81) 
0

>  <i_epik_Tot_abs_Q>  (81) 
0

>  <s_lp_Force_Field>  (81) 
OPLS3e

>  <r_lp_Energy>  (81) 
50.9456

>  <b_lp_Chiralities_Consistent>  (81) 
1

>  <s_lp_Variant>  (81) 
26:0-2

>  <s_i_glide_gridfile>  (81) 
pfpi4k_grid

>  <i_i_glide_lignum>  (81) 
41

>  <i_i_glide_rotatable_bonds>  (81) 
6

>  <r_i_docking_score>  (81) 
-2.69814

>  <r_i_glide_ligand_efficiency>  (81) 
-0.0870366

>  <r_i_glide_ligand_efficiency_sa>  (81) 
-0.273415

>  <r_i_glide_ligand_efficiency_ln>  (81) 
-0.608512

>  <r_i_glide_gscore>  (81) 
-2.69814

>  <r_i_glide_lipo>  (81) 
-0.731378

>  <r_i_glide_hbond>  (81) 
-0.16

>  <r_i_glide_metal>  (81) 
-0

>  <r_i_glide_rewards>  (81) 
-0.472752

>  <r_i_glide_evdw>  (81) 
-25.3095

>  <r_i_glide_ecoul>  (81) 
-3.31563

>  <r_i_glide_erotb>  (81) 
0.428815

>  <r_i_glide_esite>  (81) 
0

>  <r_i_glide_emodel>  (81) 
-33.654

>  <r_i_glide_energy>  (81) 
-28.6251

>  <r_i_glide_einternal>  (81) 
1.17109

>  <r_i_glide_intrahb_reward>  (81) 
-0

>  <i_i_glide_confnum>  (81) 
3

>  <i_i_glide_posenum>  (81) 
35

>  <r_i_glide_eff_state_penalty>  (81) 
0

>  <ligand_id>  (81) 
26

>  <original_smiles>  (81) 
CC(CC=CC(C)(C)O)C1CCC2(C)C3COC4C(C)C(O)CCC4(C)C3=CCC12C

>  <smiles>  (81) 
[H]OC1([H])C([H])([H])C([H])([H])C2(C([H])([H])[H])C3=C([H])C([H])([H])C4(C([H])([H])[H])C([H])(C([H])(C([H])([H])[H])C([H])([H])C([H])=C([H])C(O[H])(C([H])([H])[H])C([H])([H])[H])C([H])([H])C([H])([H])C4(C([H])([H])[H])C3([H])C([H])([H])OC2([H])C1([H])C([H])([H])[H]

$$$$
28:0:0
     RDKit          3D

 72 76  0  0  1  0  0  0  0  0999 V2000
    4.6091   -0.8358   -2.1818 C   0  0  0  0  0  0  0  0  0  0  0  0
    4.4171   -1.8701   -1.0957 C   0  0  0  0  0  0  0  0  0  0  0  0
    3.6557   -2.9721   -1.3333 C   0  0  0  0  0  0  0  0  0  0  0  0
    3.6170   -3.9680   -0.3119 C   0  0  0  0  0  0  0  0  0  0  0  0
    4.8456   -4.5312   -0.2020 C   0  0  0  0  0  0  0  0  0  0  0  0
    5.6140   -4.6311    1.1056 C   0  0  1  0  0  0  0  0  0  0  0  0
    7.1347   -4.7311    0.8427 C   0  0  0  0  0  0  0  0  0  0  0  0
    5.2277   -3.5595    2.2342 C   0  0  2  0  0  0  0  0  0  0  0  0
    4.5311   -4.4212    3.4573 C   0  0  2  0  0  0  0  0  0  0  0  0
    4.4575   -3.6344    4.8040 C   0  0  0  0  0  0  0  0  0  0  0  0
    5.5210   -5.5754    3.9184 C   0  0  0  0  0  0  0  0  0  0  0  0
    5.2599   -7.0475    3.5262 C   0  0  0  0  0  0  0  0  0  0  0  0
    3.8379   -7.4001    3.0942 C   0  0  0  0  0  0  0  0  0  0  0  0
    2.7689   -6.4450    3.6614 C   0  0  0  0  0  0  0  0  0  0  0  0
    1.3745   -6.9376    3.1990 C   0  0  0  0  0  0  0  0  0  0  0  0
    2.7252   -6.5430    5.2066 C   0  0  0  0  0  0  0  0  0  0  0  0
    3.0596   -4.9839    3.1488 C   0  0  2  0  0  0  0  0  0  0  0  0
    2.7152   -4.8388    1.6802 C   0  0  0  0  0  0  0  0  0  0  0  0
    2.9046   -3.7364    0.9249 C   0  0  0  0  0  0  0  0  0  0  0  0
    3.0429   -2.3328    1.4837 C   0  0  1  0  0  0  0  0  0  0  0  0
    2.1377   -1.8988    2.6468 C   0  0  0  0  0  0  0  0  0  0  0  0
    2.2354   -0.3923    2.9547 C   0  0  0  0  0  0  0  0  0  0  0  0
    1.2071    0.3996    2.1134 C   0  0  0  0  0  0  0  0  0  0  0  0
    1.8924   -0.1658    4.4440 C   0  0  0  0  0  0  0  0  0  0  0  0
    3.6487    0.1506    2.6194 C   0  0  0  0  0  0  0  0  0  0  0  0
    4.8094   -0.8744    2.6335 C   0  0  1  0  0  0  0  0  0  0  0  0
    5.2425   -1.0839    3.9453 O   0  0  0  0  0  0  0  0  0  0  0  0
    4.5679   -2.1306    1.6883 C   0  0  1  0  0  0  0  0  0  0  0  0
    5.1298   -1.5695    0.2664 C   0  0  1  0  0  0  0  0  0  0  0  0
    6.5408   -1.6115    0.1277 O   0  0  0  0  0  0  0  0  0  0  0  0
    5.6750   -0.7207   -2.3624 H   0  0  0  0  0  0  0  0  0  0  0  0
    4.2242    0.1396   -1.9002 H   0  0  0  0  0  0  0  0  0  0  0  0
    4.1177   -1.1367   -3.1088 H   0  0  0  0  0  0  0  0  0  0  0  0
    3.1815   -3.1342   -2.2853 H   0  0  0  0  0  0  0  0  0  0  0  0
    5.4769   -4.5620   -1.0747 H   0  0  0  0  0  0  0  0  0  0  0  0
    5.3388   -5.6311    1.4248 H   0  0  0  0  0  0  0  0  0  0  0  0
    7.3653   -5.6567    0.3154 H   0  0  0  0  0  0  0  0  0  0  0  0
    7.7136   -4.7426    1.7666 H   0  0  0  0  0  0  0  0  0  0  0  0
    7.5070   -3.9143    0.2280 H   0  0  0  0  0  0  0  0  0  0  0  0
    6.1834   -3.2333    2.6425 H   0  0  0  0  0  0  0  0  0  0  0  0
    4.0541   -4.2452    5.6146 H   0  0  0  0  0  0  0  0  0  0  0  0
    3.8199   -2.7609    4.8257 H   0  0  0  0  0  0  0  0  0  0  0  0
    5.4516   -3.3145    5.1299 H   0  0  0  0  0  0  0  0  0  0  0  0
    6.5299   -5.3251    3.6050 H   0  0  0  0  0  0  0  0  0  0  0  0
    5.6415   -5.5918    5.0042 H   0  0  0  0  0  0  0  0  0  0  0  0
    5.9699   -7.3812    2.7718 H   0  0  0  0  0  0  0  0  0  0  0  0
    5.4896   -7.6479    4.4036 H   0  0  0  0  0  0  0  0  0  0  0  0
    3.8086   -7.3807    2.0085 H   0  0  0  0  0  0  0  0  0  0  0  0
    3.6102   -8.4355    3.3588 H   0  0  0  0  0  0  0  0  0  0  0  0
    0.5853   -6.2417    3.4870 H   0  0  0  0  0  0  0  0  0  0  0  0
    1.1327   -7.9032    3.6516 H   0  0  0  0  0  0  0  0  0  0  0  0
    1.3140   -7.0950    2.1245 H   0  0  0  0  0  0  0  0  0  0  0  0
    2.0535   -5.7988    5.6412 H   0  0  0  0  0  0  0  0  0  0  0  0
    3.6983   -6.4112    5.6760 H   0  0  0  0  0  0  0  0  0  0  0  0
    2.3822   -7.5277    5.5381 H   0  0  0  0  0  0  0  0  0  0  0  0
    2.3162   -4.3985    3.6808 H   0  0  0  0  0  0  0  0  0  0  0  0
    2.7804   -5.7643    1.1329 H   0  0  0  0  0  0  0  0  0  0  0  0
    2.6831   -1.6676    0.6990 H   0  0  0  0  0  0  0  0  0  0  0  0
    1.1079   -2.1635    2.4219 H   0  0  0  0  0  0  0  0  0  0  0  0
    2.3522   -2.4173    3.5523 H   0  0  0  0  0  0  0  0  0  0  0  0
    1.2618    1.4730    2.3125 H   0  0  0  0  0  0  0  0  0  0  0  0
    0.1783    0.0815    2.3014 H   0  0  0  0  0  0  0  0  0  0  0  0
    1.3948    0.2726    1.0461 H   0  0  0  0  0  0  0  0  0  0  0  0
    1.8875    0.8934    4.7065 H   0  0  0  0  0  0  0  0  0  0  0  0
    2.6160   -0.6598    5.0935 H   0  0  0  0  0  0  0  0  0  0  0  0
    0.9065   -0.5693    4.6935 H   0  0  0  0  0  0  0  0  0  0  0  0
    3.6096    0.6127    1.6342 H   0  0  0  0  0  0  0  0  0  0  0  0
    3.8838    0.9708    3.2952 H   0  0  0  0  0  0  0  0  0  0  0  0
    5.6803   -0.3335    2.2634 H   0  0  0  0  0  0  0  0  0  0  0  0
    5.4515   -0.2458    4.3487 H   0  0  0  0  0  0  0  0  0  0  0  0
    4.9447   -0.4939    0.2782 H   0  0  0  0  0  0  0  0  0  0  0  0
    6.9292   -1.2150    0.9091 H   0  0  0  0  0  0  0  0  0  0  0  0
  1  2  1  0
  1 31  1  0
  1 32  1  0
  1 33  1  0
  2 29  1  0
  2  3  2  0
  3  4  1  0
  3 34  1  0
  4 19  1  0
  4  5  2  0
  5  6  1  0
  5 35  1  0
  6  7  1  0
  6  8  1  0
  6 36  1  1
  7 37  1  0
  7 38  1  0
  7 39  1  0
  8 28  1  0
  8  9  1  0
  8 40  1  1
  9 17  1  0
  9 10  1  1
  9 11  1  0
 10 41  1  0
 10 42  1  0
 10 43  1  0
 11 12  1  0
 11 44  1  0
 11 45  1  0
 12 13  1  0
 12 46  1  0
 12 47  1  0
 13 14  1  0
 13 48  1  0
 13 49  1  0
 14 15  1  0
 14 16  1  0
 14 17  1  0
 15 50  1  0
 15 51  1  0
 15 52  1  0
 16 53  1  0
 16 54  1  0
 16 55  1  0
 17 18  1  0
 17 56  1  1
 18 19  2  0
 18 57  1  0
 19 20  1  0
 20 28  1  0
 20 21  1  0
 20 58  1  6
 21 22  1  0
 21 59  1  0
 21 60  1  0
 22 23  1  0
 22 24  1  0
 22 25  1  0
 23 61  1  0
 23 62  1  0
 23 63  1  0
 24 64  1  0
 24 65  1  0
 24 66  1  0
 25 26  1  0
 25 67  1  0
 25 68  1  0
 26 27  1  0
 28 26  1  1
 26 69  1  6
 27 70  1  0
 28 29  1  0
 29 30  1  0
 29 71  1  1
 30 72  1  0
M  END
>  <i_m_ct_stereo_status>  (82) 
1

>  <s_m_source_file>  (82) 
/var/tmp/pbs.5076255.sched01/tmpr6ewtwjb/42o4phu6d4.sdf

>  <i_m_source_file_index>  (82) 
1

>  <i_lp_mmshare_version>  (82) 
48012

>  <i_f3d_flags>  (82) 
0

>  <s_epik_input>  (82) 
W09IXVtDQEBIXTFbQ0gyXUMoW0NIM10pKFtDSDNdKVtDSDJdW0NAQEhdMkMoQyg9W0NIXVtDQEhdM1tDSDNdKVtDSF09QyhbQ0gzXSlbQ0BASF00W09IXSk9W0NIXVtDQEhdKFtDQEBdNShbQ0BASF0zW0NAXTEyNClbQ0gzXSlDKFtDSDNdKShbQ0gzXSlbQ0gyXVtDSDJdW0NIMl01

>  <s_epik_cmdline>  (82) 
J2VwaWtfcHl0aG9uJywgJy1waHQnLCAnMi4wJywgJy1waCcsICc3LjAnLCAnLXRuJywgJzgnLCAnLW1hJywgJzIwMCcsICctaW1hZScsICc8aW5maWxlLm1hZT4nLCAnLW9tYWUnLCAnPG91dGZpbGUubWFlPic=

>  <r_lp_tautomer_probability>  (82) 
1

>  <r_epik_Ionization_Penalty>  (82) 
3.16008e-07

>  <r_epik_Ionization_Penalty_Charging>  (82) 
0

>  <r_epik_Ionization_Penalty_Neutral>  (82) 
3.16008e-07

>  <r_epik_State_Penalty>  (82) 
-0

>  <r_epik_Charging_Adjusted_Penalty>  (82) 
0

>  <i_epik_Tot_Q>  (82) 
0

>  <i_epik_Tot_abs_Q>  (82) 
0

>  <s_lp_Force_Field>  (82) 
OPLS3e

>  <r_lp_Energy>  (82) 
181.865

>  <b_lp_Chiralities_Consistent>  (82) 
1

>  <s_lp_Variant>  (82) 
28:0-1

>  <s_i_glide_gridfile>  (82) 
pfpi4k_grid

>  <i_i_glide_lignum>  (82) 
1

>  <i_i_glide_rotatable_bonds>  (82) 
2

>  <r_i_docking_score>  (82) 
-2.81678

>  <r_i_glide_ligand_efficiency>  (82) 
-0.0938926

>  <r_i_glide_ligand_efficiency_sa>  (82) 
-0.291746

>  <r_i_glide_ligand_efficiency_ln>  (82) 
-0.640003

>  <r_i_glide_gscore>  (82) 
-2.81678

>  <r_i_glide_lipo>  (82) 
-0.434756

>  <r_i_glide_hbond>  (82) 
-0.0105016

>  <r_i_glide_metal>  (82) 
-0

>  <r_i_glide_rewards>  (82) 
-0.609328

>  <r_i_glide_evdw>  (82) 
-28.8791

>  <r_i_glide_ecoul>  (82) 
-2.12157

>  <r_i_glide_erotb>  (82) 
0

>  <r_i_glide_esite>  (82) 
0

>  <r_i_glide_emodel>  (82) 
-35.9022

>  <r_i_glide_energy>  (82) 
-31.0007

>  <r_i_glide_einternal>  (82) 
0.82225

>  <r_i_glide_intrahb_reward>  (82) 
-0

>  <i_i_glide_confnum>  (82) 
1

>  <i_i_glide_posenum>  (82) 
7

>  <r_i_glide_eff_state_penalty>  (82) 
0

>  <ligand_id>  (82) 
28

>  <original_smiles>  (82) 
CC1=CC2=CC(C)C3C4(C)CCCC(C)(C)C4C=C2C2CC(C)(C)CC(O)C23C1O

>  <smiles>  (82) 
[H]OC1([H])C(C([H])([H])[H])=C([H])C2=C([H])C([H])(C([H])([H])[H])C3([H])C4(C([H])([H])[H])C([H])([H])C([H])([H])C([H])([H])C(C([H])([H])[H])(C([H])([H])[H])C4([H])C([H])=C2C2([H])C([H])([H])C(C([H])([H])[H])(C([H])([H])[H])C([H])([H])C([H])(O[H])C123

$$$$
28:0:1
     RDKit          3D

 72 76  0  0  1  0  0  0  0  0999 V2000
    4.3788   -0.9972   -2.4141 C   0  0  0  0  0  0  0  0  0  0  0  0
    4.2339   -1.9790   -1.2676 C   0  0  0  0  0  0  0  0  0  0  0  0
    3.4607   -3.0742   -1.4131 C   0  0  0  0  0  0  0  0  0  0  0  0
    3.4716   -4.0439   -0.3615 C   0  0  0  0  0  0  0  0  0  0  0  0
    4.6908   -4.6235   -0.3017 C   0  0  0  0  0  0  0  0  0  0  0  0
    5.5428   -4.6699    0.9610 C   0  0  1  0  0  0  0  0  0  0  0  0
    7.0449   -4.7930    0.6194 C   0  0  0  0  0  0  0  0  0  0  0  0
    5.2257   -3.5599    2.0805 C   0  0  2  0  0  0  0  0  0  0  0  0
    4.5910   -4.3644    3.3724 C   0  0  2  0  0  0  0  0  0  0  0  0
    4.5969   -3.5279    4.6919 C   0  0  0  0  0  0  0  0  0  0  0  0
    5.6047   -5.5122    3.8026 C   0  0  0  0  0  0  0  0  0  0  0  0
    5.3097   -6.9987    3.4931 C   0  0  0  0  0  0  0  0  0  0  0  0
    3.8610   -7.3491    3.1485 C   0  0  0  0  0  0  0  0  0  0  0  0
    2.8291   -6.3700    3.7475 C   0  0  0  0  0  0  0  0  0  0  0  0
    1.4077   -6.8718    3.3793 C   0  0  0  0  0  0  0  0  0  0  0  0
    2.8809   -6.4101    5.2995 C   0  0  0  0  0  0  0  0  0  0  0  0
    3.0998   -4.9300    3.1689 C   0  0  2  0  0  0  0  0  0  0  0  0
    2.6665   -4.8362    1.7078 C   0  0  0  0  0  0  0  0  0  0  0  0
    2.8096   -3.7629    0.9040 C   0  0  0  0  0  0  0  0  0  0  0  0
    3.0074   -2.3499    1.4087 C   0  0  1  0  0  0  0  0  0  0  0  0
    2.1610   -1.8589    2.5964 C   0  0  0  0  0  0  0  0  0  0  0  0
    2.2866   -0.3427    2.8521 C   0  0  0  0  0  0  0  0  0  0  0  0
    1.2194    0.4277    2.0435 C   0  0  0  0  0  0  0  0  0  0  0  0
    2.0361   -0.0651    4.3509 C   0  0  0  0  0  0  0  0  0  0  0  0
    3.6879    0.1679    2.4242 C   0  0  0  0  0  0  0  0  0  0  0  0
    4.8455   -0.8633    2.3959 C   0  0  1  0  0  0  0  0  0  0  0  0
    5.3757   -1.0091    3.6879 O   0  0  0  0  0  0  0  0  0  0  0  0
    4.5442   -2.1522    1.5171 C   0  0  1  0  0  0  0  0  0  0  0  0
    5.0143   -1.6274    0.0448 C   0  0  1  0  0  0  0  0  0  0  0  0
    6.4081   -1.7396   -0.1619 O   0  0  0  0  0  0  0  0  0  0  0  0
    5.4206   -0.9012   -2.6924 H   0  0  0  0  0  0  0  0  0  0  0  0
    4.0178   -0.0076   -2.1506 H   0  0  0  0  0  0  0  0  0  0  0  0
    3.8262   -1.3316   -3.2927 H   0  0  0  0  0  0  0  0  0  0  0  0
    2.9305   -3.2786   -2.3352 H   0  0  0  0  0  0  0  0  0  0  0  0
    5.2729   -4.6876   -1.2105 H   0  0  0  0  0  0  0  0  0  0  0  0
    5.2796   -5.6532    1.3304 H   0  0  0  0  0  0  0  0  0  0  0  0
    7.2352   -5.7449    0.1225 H   0  0  0  0  0  0  0  0  0  0  0  0
    7.6726   -4.7722    1.5109 H   0  0  0  0  0  0  0  0  0  0  0  0
    7.3995   -4.0189   -0.0548 H   0  0  0  0  0  0  0  0  0  0  0  0
    6.2053   -3.2232    2.4246 H   0  0  0  0  0  0  0  0  0  0  0  0
    4.2434   -4.1155    5.5385 H   0  0  0  0  0  0  0  0  0  0  0  0
    3.9566   -2.6600    4.7217 H   0  0  0  0  0  0  0  0  0  0  0  0
    5.6111   -3.2079    4.9486 H   0  0  0  0  0  0  0  0  0  0  0  0
    6.6016   -5.2771    3.4374 H   0  0  0  0  0  0  0  0  0  0  0  0
    5.7766   -5.4991    4.8832 H   0  0  0  0  0  0  0  0  0  0  0  0
    5.9729   -7.3661    2.7125 H   0  0  0  0  0  0  0  0  0  0  0  0
    5.5836   -7.5711    4.3780 H   0  0  0  0  0  0  0  0  0  0  0  0
    3.7701   -7.3719    2.0630 H   0  0  0  0  0  0  0  0  0  0  0  0
    3.6472   -8.3730    3.4635 H   0  0  0  0  0  0  0  0  0  0  0  0
    0.6414   -6.1604    3.6861 H   0  0  0  0  0  0  0  0  0  0  0  0
    1.1911   -7.8170    3.8780 H   0  0  0  0  0  0  0  0  0  0  0  0
    1.2886   -7.0645    2.3141 H   0  0  0  0  0  0  0  0  0  0  0  0
    2.2388   -5.6447    5.7377 H   0  0  0  0  0  0  0  0  0  0  0  0
    3.8804   -6.2684    5.7011 H   0  0  0  0  0  0  0  0  0  0  0  0
    2.5502   -7.3779    5.6799 H   0  0  0  0  0  0  0  0  0  0  0  0
    2.3910   -4.3242    3.7154 H   0  0  0  0  0  0  0  0  0  0  0  0
    2.6965   -5.7809    1.1954 H   0  0  0  0  0  0  0  0  0  0  0  0
    2.6147   -1.7036    0.6246 H   0  0  0  0  0  0  0  0  0  0  0  0
    1.1195   -2.1357    2.4509 H   0  0  0  0  0  0  0  0  0  0  0  0
    2.4364   -2.3473    3.5031 H   0  0  0  0  0  0  0  0  0  0  0  0
    1.2950    1.5046    2.1986 H   0  0  0  0  0  0  0  0  0  0  0  0
    0.2028    0.1245    2.2986 H   0  0  0  0  0  0  0  0  0  0  0  0
    1.3488    0.2615    0.9732 H   0  0  0  0  0  0  0  0  0  0  0  0
    2.0535    1.0049    4.5691 H   0  0  0  0  0  0  0  0  0  0  0  0
    2.7956   -0.5392    4.9763 H   0  0  0  0  0  0  0  0  0  0  0  0
    1.0639   -0.4477    4.6660 H   0  0  0  0  0  0  0  0  0  0  0  0
    3.6002    0.5882    1.4211 H   0  0  0  0  0  0  0  0  0  0  0  0
    3.9660    1.0161    3.0512 H   0  0  0  0  0  0  0  0  0  0  0  0
    5.6947   -0.3387    1.9588 H   0  0  0  0  0  0  0  0  0  0  0  0
    4.7570   -1.4793    4.2260 H   0  0  0  0  0  0  0  0  0  0  0  0
    4.8604   -0.5500    0.0236 H   0  0  0  0  0  0  0  0  0  0  0  0
    6.6396   -2.6464   -0.0096 H   0  0  0  0  0  0  0  0  0  0  0  0
  1  2  1  0
  1 31  1  0
  1 32  1  0
  1 33  1  0
  2 29  1  0
  2  3  2  0
  3  4  1  0
  3 34  1  0
  4 19  1  0
  4  5  2  0
  5  6  1  0
  5 35  1  0
  6  7  1  0
  6  8  1  0
  6 36  1  1
  7 37  1  0
  7 38  1  0
  7 39  1  0
  8 28  1  0
  8  9  1  0
  8 40  1  1
  9 17  1  0
  9 10  1  1
  9 11  1  0
 10 41  1  0
 10 42  1  0
 10 43  1  0
 11 12  1  0
 11 44  1  0
 11 45  1  0
 12 13  1  0
 12 46  1  0
 12 47  1  0
 13 14  1  0
 13 48  1  0
 13 49  1  0
 14 15  1  0
 14 16  1  0
 14 17  1  0
 15 50  1  0
 15 51  1  0
 15 52  1  0
 16 53  1  0
 16 54  1  0
 16 55  1  0
 17 18  1  0
 17 56  1  1
 18 19  2  0
 18 57  1  0
 19 20  1  0
 20 28  1  0
 20 21  1  0
 20 58  1  6
 21 22  1  0
 21 59  1  0
 21 60  1  0
 22 23  1  0
 22 24  1  0
 22 25  1  0
 23 61  1  0
 23 62  1  0
 23 63  1  0
 24 64  1  0
 24 65  1  0
 24 66  1  0
 25 26  1  0
 25 67  1  0
 25 68  1  0
 26 27  1  0
 28 26  1  1
 26 69  1  6
 27 70  1  0
 28 29  1  0
 29 30  1  0
 29 71  1  1
 30 72  1  0
M  END
>  <i_m_ct_stereo_status>  (83) 
1

>  <s_m_source_file>  (83) 
/var/tmp/pbs.5076255.sched01/tmpr6ewtwjb/42o4phu6d4.sdf

>  <i_m_source_file_index>  (83) 
1

>  <i_lp_mmshare_version>  (83) 
48012

>  <i_f3d_flags>  (83) 
0

>  <s_epik_input>  (83) 
W09IXVtDQEBIXTFbQ0gyXUMoW0NIM10pKFtDSDNdKVtDSDJdW0NAQEhdMkMoQyg9W0NIXVtDQEhdM1tDSDNdKVtDSF09QyhbQ0gzXSlbQ0BASF00W09IXSk9W0NIXVtDQEhdKFtDQEBdNShbQ0BASF0zW0NAXTEyNClbQ0gzXSlDKFtDSDNdKShbQ0gzXSlbQ0gyXVtDSDJdW0NIMl01

>  <s_epik_cmdline>  (83) 
J2VwaWtfcHl0aG9uJywgJy1waHQnLCAnMi4wJywgJy1waCcsICc3LjAnLCAnLXRuJywgJzgnLCAnLW1hJywgJzIwMCcsICctaW1hZScsICc8aW5maWxlLm1hZT4nLCAnLW9tYWUnLCAnPG91dGZpbGUubWFlPic=

>  <r_lp_tautomer_probability>  (83) 
1

>  <r_epik_Ionization_Penalty>  (83) 
3.16008e-07

>  <r_epik_Ionization_Penalty_Charging>  (83) 
0

>  <r_epik_Ionization_Penalty_Neutral>  (83) 
3.16008e-07

>  <r_epik_State_Penalty>  (83) 
-0

>  <r_epik_Charging_Adjusted_Penalty>  (83) 
0

>  <i_epik_Tot_Q>  (83) 
0

>  <i_epik_Tot_abs_Q>  (83) 
0

>  <s_lp_Force_Field>  (83) 
OPLS3e

>  <r_lp_Energy>  (83) 
181.865

>  <b_lp_Chiralities_Consistent>  (83) 
1

>  <s_lp_Variant>  (83) 
28:0-1

>  <s_i_glide_gridfile>  (83) 
pfpi4k_grid

>  <i_i_glide_lignum>  (83) 
1

>  <i_i_glide_rotatable_bonds>  (83) 
2

>  <r_i_docking_score>  (83) 
-2.781

>  <r_i_glide_ligand_efficiency>  (83) 
-0.0926999

>  <r_i_glide_ligand_efficiency_sa>  (83) 
-0.28804

>  <r_i_glide_ligand_efficiency_ln>  (83) 
-0.631873

>  <r_i_glide_gscore>  (83) 
-2.781

>  <r_i_glide_lipo>  (83) 
-0.386569

>  <r_i_glide_hbond>  (83) 
-0.0343259

>  <r_i_glide_metal>  (83) 
-0

>  <r_i_glide_rewards>  (83) 
-0.609328

>  <r_i_glide_evdw>  (83) 
-28.6294

>  <r_i_glide_ecoul>  (83) 
-2.12867

>  <r_i_glide_erotb>  (83) 
0

>  <r_i_glide_esite>  (83) 
0

>  <r_i_glide_emodel>  (83) 
-36.0066

>  <r_i_glide_energy>  (83) 
-30.7581

>  <r_i_glide_einternal>  (83) 
0.0224585

>  <r_i_glide_intrahb_reward>  (83) 
-0

>  <i_i_glide_confnum>  (83) 
2

>  <i_i_glide_posenum>  (83) 
4

>  <r_i_glide_eff_state_penalty>  (83) 
0

>  <ligand_id>  (83) 
28

>  <original_smiles>  (83) 
CC1=CC2=CC(C)C3C4(C)CCCC(C)(C)C4C=C2C2CC(C)(C)CC(O)C23C1O

>  <smiles>  (83) 
[H]OC1([H])C(C([H])([H])[H])=C([H])C2=C([H])C([H])(C([H])([H])[H])C3([H])C4(C([H])([H])[H])C([H])([H])C([H])([H])C([H])([H])C(C([H])([H])[H])(C([H])([H])[H])C4([H])C([H])=C2C2([H])C([H])([H])C(C([H])([H])[H])(C([H])([H])[H])C([H])([H])C([H])(O[H])C123

$$$$
28:0:2
     RDKit          3D

 72 76  0  0  1  0  0  0  0  0999 V2000
    4.3758   -0.9172   -2.3884 C   0  0  0  0  0  0  0  0  0  0  0  0
    4.2098   -1.8784   -1.2259 C   0  0  0  0  0  0  0  0  0  0  0  0
    3.4462   -2.9820   -1.3719 C   0  0  0  0  0  0  0  0  0  0  0  0
    3.4359   -3.9338   -0.3035 C   0  0  0  0  0  0  0  0  0  0  0  0
    4.6573   -4.5055   -0.2043 C   0  0  0  0  0  0  0  0  0  0  0  0
    5.4784   -4.5241    1.0803 C   0  0  1  0  0  0  0  0  0  0  0  0
    6.9884   -4.6457    0.7768 C   0  0  0  0  0  0  0  0  0  0  0  0
    5.1280   -3.3976    2.1747 C   0  0  2  0  0  0  0  0  0  0  0  0
    4.4690   -4.1863    3.4663 C   0  0  2  0  0  0  0  0  0  0  0  0
    4.4387   -3.3312    4.7722 C   0  0  0  0  0  0  0  0  0  0  0  0
    5.4782   -5.3209    3.9386 C   0  0  0  0  0  0  0  0  0  0  0  0
    5.1980   -6.8140    3.6476 C   0  0  0  0  0  0  0  0  0  0  0  0
    3.7595   -7.1777    3.2746 C   0  0  0  0  0  0  0  0  0  0  0  0
    2.7089   -6.1949    3.8333 C   0  0  0  0  0  0  0  0  0  0  0  0
    1.2992   -6.7102    3.4391 C   0  0  0  0  0  0  0  0  0  0  0  0
    2.7240   -6.2095    5.3864 C   0  0  0  0  0  0  0  0  0  0  0  0
    2.9870   -4.7635    3.2366 C   0  0  2  0  0  0  0  0  0  0  0  0
    2.5939   -4.6984    1.7631 C   0  0  0  0  0  0  0  0  0  0  0  0
    2.7442   -3.6363    0.9431 C   0  0  0  0  0  0  0  0  0  0  0  0
    2.9207   -2.2133    1.4321 C   0  0  1  0  0  0  0  0  0  0  0  0
    2.0448   -1.7059    2.5926 C   0  0  0  0  0  0  0  0  0  0  0  0
    2.1525   -0.1834    2.8250 C   0  0  0  0  0  0  0  0  0  0  0  0
    1.1000    0.5653    1.9762 C   0  0  0  0  0  0  0  0  0  0  0  0
    1.8664    0.1154    4.3145 C   0  0  0  0  0  0  0  0  0  0  0  0
    3.5595    0.3325    2.4227 C   0  0  0  0  0  0  0  0  0  0  0  0
    4.7236   -0.6959    2.4391 C   0  0  1  0  0  0  0  0  0  0  0  0
    5.2067   -0.8325    3.7508 O   0  0  0  0  0  0  0  0  0  0  0  0
    4.4514   -2.0024    1.5725 C   0  0  1  0  0  0  0  0  0  0  0  0
    4.9520   -1.4988    0.1020 C   0  0  1  0  0  0  0  0  0  0  0  0
    6.3507   -1.6041   -0.0658 O   0  0  0  0  0  0  0  0  0  0  0  0
    5.4238   -0.8227   -2.6532 H   0  0  0  0  0  0  0  0  0  0  0  0
    4.0142    0.0784   -2.1561 H   0  0  0  0  0  0  0  0  0  0  0  0
    3.8348   -1.2674   -3.2660 H   0  0  0  0  0  0  0  0  0  0  0  0
    2.9384   -3.2046   -2.3022 H   0  0  0  0  0  0  0  0  0  0  0  0
    5.2617   -4.5816   -1.0971 H   0  0  0  0  0  0  0  0  0  0  0  0
    5.2118   -5.5022    1.4613 H   0  0  0  0  0  0  0  0  0  0  0  0
    7.1961   -5.6042    0.3008 H   0  0  0  0  0  0  0  0  0  0  0  0
    7.5934   -4.6056    1.6826 H   0  0  0  0  0  0  0  0  0  0  0  0
    7.3543   -3.8794    0.0998 H   0  0  0  0  0  0  0  0  0  0  0  0
    6.0971   -3.0481    2.5337 H   0  0  0  0  0  0  0  0  0  0  0  0
    4.0629   -3.8996    5.6216 H   0  0  0  0  0  0  0  0  0  0  0  0
    3.8052   -2.4572    4.7640 H   0  0  0  0  0  0  0  0  0  0  0  0
    5.4445   -2.9997    5.0451 H   0  0  0  0  0  0  0  0  0  0  0  0
    6.4815   -5.0849    3.5931 H   0  0  0  0  0  0  0  0  0  0  0  0
    5.6239   -5.2890    5.0228 H   0  0  0  0  0  0  0  0  0  0  0  0
    5.8812   -7.1902    2.8883 H   0  0  0  0  0  0  0  0  0  0  0  0
    5.4537   -7.3700    4.5481 H   0  0  0  0  0  0  0  0  0  0  0  0
    3.6950   -7.2186    2.1880 H   0  0  0  0  0  0  0  0  0  0  0  0
    3.5435   -8.1975    3.6010 H   0  0  0  0  0  0  0  0  0  0  0  0
    0.5222   -5.9983    3.7163 H   0  0  0  0  0  0  0  0  0  0  0  0
    1.0763   -7.6484    3.9478 H   0  0  0  0  0  0  0  0  0  0  0  0
    1.2069   -6.9204    2.3746 H   0  0  0  0  0  0  0  0  0  0  0  0
    2.0678   -5.4403    5.7964 H   0  0  0  0  0  0  0  0  0  0  0  0
    3.7130   -6.0546    5.8085 H   0  0  0  0  0  0  0  0  0  0  0  0
    2.3899   -7.1728    5.7748 H   0  0  0  0  0  0  0  0  0  0  0  0
    2.2620   -4.1509    3.7539 H   0  0  0  0  0  0  0  0  0  0  0  0
    2.6416   -5.6512    1.2683 H   0  0  0  0  0  0  0  0  0  0  0  0
    2.5444   -1.5816    0.6291 H   0  0  0  0  0  0  0  0  0  0  0  0
    1.0096   -1.9936    2.4300 H   0  0  0  0  0  0  0  0  0  0  0  0
    2.3049   -2.1762    3.5140 H   0  0  0  0  0  0  0  0  0  0  0  0
    1.1641    1.6450    2.1212 H   0  0  0  0  0  0  0  0  0  0  0  0
    0.0803    0.2599    2.2173 H   0  0  0  0  0  0  0  0  0  0  0  0
    1.2522    0.3891    0.9119 H   0  0  0  0  0  0  0  0  0  0  0  0
    1.8726    1.1878    4.5176 H   0  0  0  0  0  0  0  0  0  0  0  0
    2.6146   -0.3464    4.9618 H   0  0  0  0  0  0  0  0  0  0  0  0
    0.8904   -0.2691    4.6135 H   0  0  0  0  0  0  0  0  0  0  0  0
    3.4914    0.7302    1.4081 H   0  0  0  0  0  0  0  0  0  0  0  0
    3.8179    1.1988    3.0336 H   0  0  0  0  0  0  0  0  0  0  0  0
    5.5849   -0.1793    2.0158 H   0  0  0  0  0  0  0  0  0  0  0  0
    5.4364    0.0185    4.0929 H   0  0  0  0  0  0  0  0  0  0  0  0
    4.7917   -0.4238    0.0608 H   0  0  0  0  0  0  0  0  0  0  0  0
    6.5827   -2.5073    0.1083 H   0  0  0  0  0  0  0  0  0  0  0  0
  1  2  1  0
  1 31  1  0
  1 32  1  0
  1 33  1  0
  2 29  1  0
  2  3  2  0
  3  4  1  0
  3 34  1  0
  4 19  1  0
  4  5  2  0
  5  6  1  0
  5 35  1  0
  6  7  1  0
  6  8  1  0
  6 36  1  1
  7 37  1  0
  7 38  1  0
  7 39  1  0
  8 28  1  0
  8  9  1  0
  8 40  1  1
  9 17  1  0
  9 10  1  1
  9 11  1  0
 10 41  1  0
 10 42  1  0
 10 43  1  0
 11 12  1  0
 11 44  1  0
 11 45  1  0
 12 13  1  0
 12 46  1  0
 12 47  1  0
 13 14  1  0
 13 48  1  0
 13 49  1  0
 14 15  1  0
 14 16  1  0
 14 17  1  0
 15 50  1  0
 15 51  1  0
 15 52  1  0
 16 53  1  0
 16 54  1  0
 16 55  1  0
 17 18  1  0
 17 56  1  1
 18 19  2  0
 18 57  1  0
 19 20  1  0
 20 28  1  0
 20 21  1  0
 20 58  1  6
 21 22  1  0
 21 59  1  0
 21 60  1  0
 22 23  1  0
 22 24  1  0
 22 25  1  0
 23 61  1  0
 23 62  1  0
 23 63  1  0
 24 64  1  0
 24 65  1  0
 24 66  1  0
 25 26  1  0
 25 67  1  0
 25 68  1  0
 26 27  1  0
 28 26  1  1
 26 69  1  6
 27 70  1  0
 28 29  1  0
 29 30  1  0
 29 71  1  1
 30 72  1  0
M  END
>  <i_m_ct_stereo_status>  (84) 
1

>  <s_m_source_file>  (84) 
/var/tmp/pbs.5076255.sched01/tmpr6ewtwjb/42o4phu6d4.sdf

>  <i_m_source_file_index>  (84) 
1

>  <i_lp_mmshare_version>  (84) 
48012

>  <i_f3d_flags>  (84) 
0

>  <s_epik_input>  (84) 
W09IXVtDQEBIXTFbQ0gyXUMoW0NIM10pKFtDSDNdKVtDSDJdW0NAQEhdMkMoQyg9W0NIXVtDQEhdM1tDSDNdKVtDSF09QyhbQ0gzXSlbQ0BASF00W09IXSk9W0NIXVtDQEhdKFtDQEBdNShbQ0BASF0zW0NAXTEyNClbQ0gzXSlDKFtDSDNdKShbQ0gzXSlbQ0gyXVtDSDJdW0NIMl01

>  <s_epik_cmdline>  (84) 
J2VwaWtfcHl0aG9uJywgJy1waHQnLCAnMi4wJywgJy1waCcsICc3LjAnLCAnLXRuJywgJzgnLCAnLW1hJywgJzIwMCcsICctaW1hZScsICc8aW5maWxlLm1hZT4nLCAnLW9tYWUnLCAnPG91dGZpbGUubWFlPic=

>  <r_lp_tautomer_probability>  (84) 
1

>  <r_epik_Ionization_Penalty>  (84) 
3.16008e-07

>  <r_epik_Ionization_Penalty_Charging>  (84) 
0

>  <r_epik_Ionization_Penalty_Neutral>  (84) 
3.16008e-07

>  <r_epik_State_Penalty>  (84) 
-0

>  <r_epik_Charging_Adjusted_Penalty>  (84) 
0

>  <i_epik_Tot_Q>  (84) 
0

>  <i_epik_Tot_abs_Q>  (84) 
0

>  <s_lp_Force_Field>  (84) 
OPLS3e

>  <r_lp_Energy>  (84) 
181.865

>  <b_lp_Chiralities_Consistent>  (84) 
1

>  <s_lp_Variant>  (84) 
28:0-1

>  <s_i_glide_gridfile>  (84) 
pfpi4k_grid

>  <i_i_glide_lignum>  (84) 
1

>  <i_i_glide_rotatable_bonds>  (84) 
2

>  <r_i_docking_score>  (84) 
-2.67636

>  <r_i_glide_ligand_efficiency>  (84) 
-0.0892119

>  <r_i_glide_ligand_efficiency_sa>  (84) 
-0.277202

>  <r_i_glide_ligand_efficiency_ln>  (84) 
-0.608097

>  <r_i_glide_gscore>  (84) 
-2.67636

>  <r_i_glide_lipo>  (84) 
-0.382045

>  <r_i_glide_hbond>  (84) 
-0.0209146

>  <r_i_glide_metal>  (84) 
-0

>  <r_i_glide_rewards>  (84) 
-0.609328

>  <r_i_glide_evdw>  (84) 
-28.4905

>  <r_i_glide_ecoul>  (84) 
-1.59694

>  <r_i_glide_erotb>  (84) 
0

>  <r_i_glide_esite>  (84) 
0

>  <r_i_glide_emodel>  (84) 
-34.9594

>  <r_i_glide_energy>  (84) 
-30.0875

>  <r_i_glide_einternal>  (84) 
0.36711

>  <r_i_glide_intrahb_reward>  (84) 
-0

>  <i_i_glide_confnum>  (84) 
2

>  <i_i_glide_posenum>  (84) 
1

>  <r_i_glide_eff_state_penalty>  (84) 
0

>  <ligand_id>  (84) 
28

>  <original_smiles>  (84) 
CC1=CC2=CC(C)C3C4(C)CCCC(C)(C)C4C=C2C2CC(C)(C)CC(O)C23C1O

>  <smiles>  (84) 
[H]OC1([H])C(C([H])([H])[H])=C([H])C2=C([H])C([H])(C([H])([H])[H])C3([H])C4(C([H])([H])[H])C([H])([H])C([H])([H])C([H])([H])C(C([H])([H])[H])(C([H])([H])[H])C4([H])C([H])=C2C2([H])C([H])([H])C(C([H])([H])[H])(C([H])([H])[H])C([H])([H])C([H])(O[H])C123

$$$$
29:0:0
     RDKit          3D

 44 48  0  0  1  0  0  0  0  0999 V2000
    8.0466   -2.9153   -0.0239 C   0  0  0  0  0  0  0  0  0  0  0  0
    6.5130   -2.8427    0.1066 C   0  0  1  0  0  0  0  0  0  0  0  0
    6.2021   -2.0222    1.4505 C   0  0  0  0  0  0  0  0  0  0  0  0
    4.7716   -1.4301    1.7760 C   0  0  1  0  0  0  0  0  0  0  0  0
    4.4507   -0.5826    0.6089 C   0  0  0  0  0  0  0  0  0  0  0  0
    3.8144   -1.6591   -0.2224 C   0  0  1  0  0  0  0  0  0  0  0  0
    4.4307   -2.1967   -1.4342 C   0  0  1  0  0  0  0  0  0  0  0  0
    5.9680   -2.3286   -1.2719 C   0  0  0  0  0  0  0  0  0  0  0  0
    3.3557   -3.2642   -1.1007 C   0  0  0  0  0  0  0  0  0  0  0  0
    3.6779   -3.1430    0.4287 C   0  0  2  0  0  0  0  0  0  0  0  0
    3.5060   -2.3721    1.7454 C   0  0  0  0  0  0  0  0  0  0  0  0
    4.6399   -4.3005    0.8519 C   0  0  1  0  0  0  0  0  0  0  0  0
    4.0084   -5.6858    0.7417 C   0  0  2  0  0  0  0  0  0  0  0  0
    2.9502   -5.9846    1.6711 O   0  0  0  0  0  0  0  0  0  0  0  0
    4.1770   -6.7400    1.8101 C   0  0  0  0  0  0  0  0  0  0  0  0
    4.1022   -8.2110    1.4696 C   0  0  0  0  0  0  0  0  0  0  0  0
    4.9516   -6.4920    3.0794 C   0  0  0  0  0  0  0  0  0  0  0  0
    6.0026   -4.2757    0.2251 C   0  0  0  0  0  0  0  0  0  0  0  0
    8.5028   -3.3433    0.8730 H   0  0  0  0  0  0  0  0  0  0  0  0
    8.4855   -1.9264   -0.1698 H   0  0  0  0  0  0  0  0  0  0  0  0
    8.3470   -3.5361   -0.8702 H   0  0  0  0  0  0  0  0  0  0  0  0
    6.4803   -2.6537    2.2922 H   0  0  0  0  0  0  0  0  0  0  0  0
    6.8984   -1.1855    1.4969 H   0  0  0  0  0  0  0  0  0  0  0  0
    4.8016   -0.8394    2.6964 H   0  0  0  0  0  0  0  0  0  0  0  0
    3.7103    0.1743    0.8707 H   0  0  0  0  0  0  0  0  0  0  0  0
    5.3015   -0.0862    0.1532 H   0  0  0  0  0  0  0  0  0  0  0  0
    2.8502   -1.2090   -0.4790 H   0  0  0  0  0  0  0  0  0  0  0  0
    4.1431   -1.6148   -2.3069 H   0  0  0  0  0  0  0  0  0  0  0  0
    6.3992   -1.3482   -1.4386 H   0  0  0  0  0  0  0  0  0  0  0  0
    6.3652   -2.9447   -2.0786 H   0  0  0  0  0  0  0  0  0  0  0  0
    2.3227   -3.0130   -1.4036 H   0  0  0  0  0  0  0  0  0  0  0  0
    3.6242   -4.2130   -1.5441 H   0  0  0  0  0  0  0  0  0  0  0  0
    3.4480   -3.0152    2.6317 H   0  0  0  0  0  0  0  0  0  0  0  0
    2.5770   -1.8111    1.7870 H   0  0  0  0  0  0  0  0  0  0  0  0
    4.9025   -4.2327    1.9036 H   0  0  0  0  0  0  0  0  0  0  0  0
    3.8199   -6.0399   -0.2629 H   0  0  0  0  0  0  0  0  0  0  0  0
    5.0972   -8.5813    1.2293 H   0  0  0  0  0  0  0  0  0  0  0  0
    3.4468   -8.3852    0.6230 H   0  0  0  0  0  0  0  0  0  0  0  0
    3.7189   -8.7703    2.3258 H   0  0  0  0  0  0  0  0  0  0  0  0
    6.0148   -6.5086    2.8609 H   0  0  0  0  0  0  0  0  0  0  0  0
    4.7486   -7.2718    3.8256 H   0  0  0  0  0  0  0  0  0  0  0  0
    4.6945   -5.5308    3.5121 H   0  0  0  0  0  0  0  0  0  0  0  0
    5.9988   -4.7753   -0.7408 H   0  0  0  0  0  0  0  0  0  0  0  0
    6.6617   -4.8674    0.8681 H   0  0  0  0  0  0  0  0  0  0  0  0
  2  1  1  6
  1 19  1  0
  1 20  1  0
  1 21  1  0
  2  8  1  0
  2 18  1  0
  2  3  1  0
  3  4  1  0
  3 22  1  0
  3 23  1  0
  4 11  1  0
  4  5  1  0
  4 24  1  1
  5  6  1  0
  5 25  1  0
  5 26  1  0
  6 10  1  0
  6  7  1  0
  6 27  1  6
  7  8  1  0
  7  9  1  0
  7 28  1  6
  8 29  1  0
  8 30  1  0
 10  9  1  6
  9 31  1  0
  9 32  1  0
 10 11  1  0
 10 12  1  0
 11 33  1  0
 11 34  1  0
 12 13  1  0
 12 18  1  0
 12 35  1  1
 13 15  1  0
 13 14  1  0
 13 36  1  6
 14 15  1  0
 15 16  1  0
 15 17  1  0
 16 37  1  0
 16 38  1  0
 16 39  1  0
 17 40  1  0
 17 41  1  0
 17 42  1  0
 18 43  1  0
 18 44  1  0
M  END
>  <i_m_ct_stereo_status>  (85) 
1

>  <s_m_source_file>  (85) 
/var/tmp/pbs.5076255.sched01/tmpr6ewtwjb/42o4phu6d4.sdf

>  <i_m_source_file_index>  (85) 
2

>  <i_lp_mmshare_version>  (85) 
48012

>  <i_f3d_flags>  (85) 
0

>  <s_epik_input>  (85) 
W0NAQF0xMjNbQ0BASF00W0NASF0oW0NIMl0xKVtDSDJdW0NAQF0oW0NIM10pKFtDSDJdW0NAQEhdKFtDSDJdNClbQ0gyXTIpW0NIMl1bQ0BASF0zW0NASF0oTzUpQzUoW0NIM10pW0NIM10=

>  <s_epik_cmdline>  (85) 
J2VwaWtfcHl0aG9uJywgJy1waHQnLCAnMi4wJywgJy1waCcsICc3LjAnLCAnLXRuJywgJzgnLCAnLW1hJywgJzIwMCcsICctaW1hZScsICc8aW5maWxlLm1hZT4nLCAnLW9tYWUnLCAnPG91dGZpbGUubWFlPic=

>  <r_lp_tautomer_probability>  (85) 
1

>  <r_epik_Ionization_Penalty>  (85) 
3.71824e-11

>  <r_epik_Ionization_Penalty_Charging>  (85) 
0

>  <r_epik_Ionization_Penalty_Neutral>  (85) 
3.71824e-11

>  <r_epik_State_Penalty>  (85) 
-0

>  <r_epik_Charging_Adjusted_Penalty>  (85) 
0

>  <i_epik_Tot_Q>  (85) 
0

>  <i_epik_Tot_abs_Q>  (85) 
0

>  <s_lp_Force_Field>  (85) 
OPLS3e

>  <r_lp_Energy>  (85) 
146.823

>  <b_lp_Chiralities_Consistent>  (85) 
1

>  <s_lp_Variant>  (85) 
29:0-1

>  <s_i_glide_gridfile>  (85) 
pfpi4k_grid

>  <i_i_glide_lignum>  (85) 
2

>  <i_i_glide_rotatable_bonds>  (85) 
1

>  <r_i_docking_score>  (85) 
-3.29811

>  <r_i_glide_ligand_efficiency>  (85) 
-0.183228

>  <r_i_glide_ligand_efficiency_sa>  (85) 
-0.480194

>  <r_i_glide_ligand_efficiency_ln>  (85) 
-0.847761

>  <r_i_glide_gscore>  (85) 
-3.29811

>  <r_i_glide_lipo>  (85) 
-0.79123

>  <r_i_glide_hbond>  (85) 
0

>  <r_i_glide_metal>  (85) 
-0

>  <r_i_glide_rewards>  (85) 
-1.72917

>  <r_i_glide_evdw>  (85) 
-20.9251

>  <r_i_glide_ecoul>  (85) 
-0.123444

>  <r_i_glide_erotb>  (85) 
0.287068

>  <r_i_glide_esite>  (85) 
0

>  <r_i_glide_emodel>  (85) 
-25.1349

>  <r_i_glide_energy>  (85) 
-21.0485

>  <r_i_glide_einternal>  (85) 
0.00422788

>  <r_i_glide_intrahb_reward>  (85) 
-0

>  <i_i_glide_confnum>  (85) 
2

>  <i_i_glide_posenum>  (85) 
34

>  <r_i_glide_eff_state_penalty>  (85) 
0

>  <ligand_id>  (85) 
29

>  <original_smiles>  (85) 
CC12CC3CC4C(C1)CC4(C3)C(C1OC1(C)C)C2

>  <smiles>  (85) 
[H]C([H])([H])C1(C([H])([H])[H])OC1([H])C1([H])C([H])([H])C2(C([H])([H])[H])C([H])([H])C3([H])C([H])([H])C4([H])C([H])(C2([H])[H])C([H])([H])C14C3([H])[H]

$$$$
30:0:0
     RDKit          3D

 50 54  0  0  1  0  0  0  0  0999 V2000
    5.6668   -1.7651   -1.5971 C   0  0  0  0  0  0  0  0  0  0  0  0
    4.4231   -1.8654   -0.7062 C   0  0  0  0  0  0  0  0  0  0  0  0
    4.4564   -3.0493    0.2890 C   0  0  2  0  0  0  0  0  0  0  0  0
    4.3115   -4.4161   -0.4223 C   0  0  0  0  0  0  0  0  0  0  0  0
    4.2510   -5.6111    0.5527 C   0  0  0  0  0  0  0  0  0  0  0  0
    3.1272   -5.4528    1.5909 C   0  0  1  0  0  0  0  0  0  0  0  0
    3.2804   -4.0929    2.3097 C   0  0  0  0  0  0  0  0  0  0  0  0
    3.3322   -2.9058    1.3334 C   0  0  0  0  0  0  0  0  0  0  0  0
    1.8965   -5.5057    0.9119 O   0  0  0  0  0  0  0  0  0  0  0  0
    1.3304   -6.8538    1.2352 O   0  0  0  0  0  0  0  0  0  0  0  0
    1.8625   -7.0989    2.5029 C   0  0  1  0  0  0  0  0  0  0  0  0
    3.1625   -6.5249    2.5190 O   0  0  0  0  0  0  0  0  0  0  0  0
    0.9224   -6.4378    3.5294 C   0  0  1  0  0  0  0  0  0  0  0  0
   -0.5655   -6.7418    3.3678 C   0  0  0  0  0  0  0  0  0  0  0  0
   -0.2367   -8.0594    4.0680 C   0  0  1  0  0  0  0  0  0  0  0  0
   -1.3167   -8.5964    4.7979 O   0  0  0  0  0  0  0  0  0  0  0  0
    0.4309   -9.1003    3.1636 C   0  0  0  0  0  0  0  0  0  0  0  0
    1.8906   -8.6322    2.8799 C   0  0  1  0  0  0  0  0  0  0  0  0
    2.5471   -9.5195    1.8175 C   0  0  0  0  0  0  0  0  0  0  0  0
    2.6554   -8.7888    4.2337 C   0  0  0  0  0  0  0  0  0  0  0  0
    2.0469   -7.9260    5.3646 C   0  0  0  0  0  0  0  0  0  0  0  0
    0.7978   -7.2102    4.8564 C   0  0  1  0  0  0  0  0  0  0  0  0
    0.2355   -6.4487    5.7966 F   0  0  0  0  0  0  0  0  0  0  0  0
    5.5388   -0.9573   -2.3136 H   0  0  0  0  0  0  0  0  0  0  0  0
    5.8460   -2.6767   -2.1651 H   0  0  0  0  0  0  0  0  0  0  0  0
    6.5537   -1.5672   -0.9959 H   0  0  0  0  0  0  0  0  0  0  0  0
    4.3249   -0.9244   -0.1614 H   0  0  0  0  0  0  0  0  0  0  0  0
    3.5271   -1.9359   -1.3268 H   0  0  0  0  0  0  0  0  0  0  0  0
    5.4086   -3.0339    0.8246 H   0  0  0  0  0  0  0  0  0  0  0  0
    3.4137   -4.3877   -1.0426 H   0  0  0  0  0  0  0  0  0  0  0  0
    5.1432   -4.5721   -1.1132 H   0  0  0  0  0  0  0  0  0  0  0  0
    4.1270   -6.5283   -0.0217 H   0  0  0  0  0  0  0  0  0  0  0  0
    5.2101   -5.6859    1.0553 H   0  0  0  0  0  0  0  0  0  0  0  0
    2.4748   -3.9027    3.0156 H   0  0  0  0  0  0  0  0  0  0  0  0
    4.1955   -4.1043    2.8946 H   0  0  0  0  0  0  0  0  0  0  0  0
    3.4743   -1.9835    1.8986 H   0  0  0  0  0  0  0  0  0  0  0  0
    2.3730   -2.8017    0.8246 H   0  0  0  0  0  0  0  0  0  0  0  0
    1.0476   -5.3715    3.6916 H   0  0  0  0  0  0  0  0  0  0  0  0
   -1.2435   -6.1345    3.9707 H   0  0  0  0  0  0  0  0  0  0  0  0
   -0.9125   -6.8819    2.3449 H   0  0  0  0  0  0  0  0  0  0  0  0
   -1.2910   -9.5391    4.8225 H   0  0  0  0  0  0  0  0  0  0  0  0
    0.4078  -10.0967    3.6296 H   0  0  0  0  0  0  0  0  0  0  0  0
   -0.1305   -9.1851    2.2311 H   0  0  0  0  0  0  0  0  0  0  0  0
    2.5530  -10.5654    2.1415 H   0  0  0  0  0  0  0  0  0  0  0  0
    3.5814   -9.2354    1.6264 H   0  0  0  0  0  0  0  0  0  0  0  0
    2.0008   -9.4821    0.8782 H   0  0  0  0  0  0  0  0  0  0  0  0
    2.6432   -9.8404    4.5442 H   0  0  0  0  0  0  0  0  0  0  0  0
    3.7063   -8.5299    4.1017 H   0  0  0  0  0  0  0  0  0  0  0  0
    1.8113   -8.5495    6.2273 H   0  0  0  0  0  0  0  0  0  0  0  0
    2.7850   -7.1975    5.7073 H   0  0  0  0  0  0  0  0  0  0  0  0
  1  2  1  0
  1 24  1  0
  1 25  1  0
  1 26  1  0
  2  3  1  0
  2 27  1  0
  2 28  1  0
  3  8  1  0
  3  4  1  0
  3 29  1  1
  4  5  1  0
  4 30  1  0
  4 31  1  0
  5  6  1  0
  5 32  1  0
  5 33  1  0
  6 12  1  1
  6  7  1  0
  6  9  1  0
  7  8  1  0
  7 34  1  0
  7 35  1  0
  8 36  1  0
  8 37  1  0
  9 10  1  0
 11 10  1  6
 11 18  1  0
 11 12  1  0
 11 13  1  0
 13 22  1  0
 13 14  1  0
 13 38  1  1
 14 15  1  0
 14 39  1  0
 14 40  1  0
 15 22  1  0
 15 16  1  1
 15 17  1  0
 16 41  1  0
 17 18  1  0
 17 42  1  0
 17 43  1  0
 18 19  1  6
 18 20  1  0
 19 44  1  0
 19 45  1  0
 19 46  1  0
 20 21  1  0
 20 47  1  0
 20 48  1  0
 21 22  1  0
 21 49  1  0
 21 50  1  0
 22 23  1  1
M  END
>  <i_m_ct_stereo_status>  (86) 
1

>  <s_m_source_file>  (86) 
/var/tmp/pbs.5076255.sched01/tmpr6ewtwjb/42o4phu6d4.sdf

>  <i_m_source_file_index>  (86) 
3

>  <i_lp_mmshare_version>  (86) 
48012

>  <i_f3d_flags>  (86) 
0

>  <s_epik_input>  (86) 
W0NIM11bQ0gyXVtDQEBIXShbQ0gyXVtDSDJdMSlbQ0gyXVtDSDJdW0NAXTEyT09bQ0BAXTMoTzIpW0NAQEhdNFtDQEBdNShGKVtDQF0oW0NIMl00KShbT0hdKVtDSDJdW0NAXTMoW0NIM10pW0NIMl1bQ0gyXTU=

>  <s_epik_cmdline>  (86) 
J2VwaWtfcHl0aG9uJywgJy1waHQnLCAnMi4wJywgJy1waCcsICc3LjAnLCAnLXRuJywgJzgnLCAnLW1hJywgJzIwMCcsICctaW1hZScsICc8aW5maWxlLm1hZT4nLCAnLW9tYWUnLCAnPG91dGZpbGUubWFlPic=

>  <r_lp_tautomer_probability>  (86) 
1

>  <r_epik_Ionization_Penalty>  (86) 
2.01267e-07

>  <r_epik_Ionization_Penalty_Charging>  (86) 
0

>  <r_epik_Ionization_Penalty_Neutral>  (86) 
2.01267e-07

>  <r_epik_State_Penalty>  (86) 
-0

>  <r_epik_Charging_Adjusted_Penalty>  (86) 
0

>  <i_epik_Tot_Q>  (86) 
0

>  <i_epik_Tot_abs_Q>  (86) 
0

>  <s_lp_Force_Field>  (86) 
OPLS3e

>  <r_lp_Energy>  (86) 
37.1269

>  <b_lp_Chiralities_Consistent>  (86) 
1

>  <s_lp_Variant>  (86) 
30:0-1

>  <s_i_glide_gridfile>  (86) 
pfpi4k_grid

>  <i_i_glide_lignum>  (86) 
3

>  <i_i_glide_rotatable_bonds>  (86) 
2

>  <r_i_docking_score>  (86) 
-3.18658

>  <r_i_glide_ligand_efficiency>  (86) 
-0.138547

>  <r_i_glide_ligand_efficiency_sa>  (86) 
-0.394009

>  <r_i_glide_ligand_efficiency_ln>  (86) 
-0.770544

>  <r_i_glide_gscore>  (86) 
-3.18658

>  <r_i_glide_lipo>  (86) 
-0.0853767

>  <r_i_glide_hbond>  (86) 
-0.223871

>  <r_i_glide_metal>  (86) 
-0

>  <r_i_glide_rewards>  (86) 
-1.19224

>  <r_i_glide_evdw>  (86) 
-16.8617

>  <r_i_glide_ecoul>  (86) 
-5.44616

>  <r_i_glide_erotb>  (86) 
0

>  <r_i_glide_esite>  (86) 
-0.0250809

>  <r_i_glide_emodel>  (86) 
-26.0649

>  <r_i_glide_energy>  (86) 
-22.3079

>  <r_i_glide_einternal>  (86) 
1.50327

>  <r_i_glide_intrahb_reward>  (86) 
-0

>  <i_i_glide_confnum>  (86) 
2

>  <i_i_glide_posenum>  (86) 
12

>  <r_i_glide_eff_state_penalty>  (86) 
0

>  <ligand_id>  (86) 
30

>  <original_smiles>  (86) 
CCC1CCC2(CC1)OOC1(O2)C2CC3(O)CC1(C)CCC23F

>  <smiles>  (86) 
[H]OC12C([H])([H])C3([H])C4(OOC5(O4)C([H])([H])C([H])([H])C([H])(C([H])([H])C([H])([H])[H])C([H])([H])C5([H])[H])C(C([H])([H])[H])(C([H])([H])C([H])([H])C31F)C2([H])[H]

$$$$
30:0:1
     RDKit          3D

 50 54  0  0  1  0  0  0  0  0999 V2000
    3.7402   -2.9215   -2.8622 C   0  0  0  0  0  0  0  0  0  0  0  0
    3.9544   -2.1061   -1.5699 C   0  0  0  0  0  0  0  0  0  0  0  0
    4.2830   -2.9537   -0.3133 C   0  0  2  0  0  0  0  0  0  0  0  0
    5.5516   -3.8230   -0.4819 C   0  0  0  0  0  0  0  0  0  0  0  0
    5.8522   -4.6953    0.7502 C   0  0  0  0  0  0  0  0  0  0  0  0
    4.6417   -5.5777    1.1349 C   0  0  1  0  0  0  0  0  0  0  0  0
    3.3934   -4.6857    1.3443 C   0  0  0  0  0  0  0  0  0  0  0  0
    3.0823   -3.8236    0.1155 C   0  0  0  0  0  0  0  0  0  0  0  0
    4.4011   -6.5051    0.0781 O   0  0  0  0  0  0  0  0  0  0  0  0
    4.9306   -7.8083    0.6168 O   0  0  0  0  0  0  0  0  0  0  0  0
    4.6866   -7.6948    1.9982 C   0  0  1  0  0  0  0  0  0  0  0  0
    4.9169   -6.3201    2.3390 O   0  0  0  0  0  0  0  0  0  0  0  0
    3.2131   -8.1117    2.2458 C   0  0  1  0  0  0  0  0  0  0  0  0
    2.7824   -9.4490    1.6337 C   0  0  0  0  0  0  0  0  0  0  0  0
    3.5117  -10.0711    2.8235 C   0  0  1  0  0  0  0  0  0  0  0  0
    3.0390  -11.3273    3.2737 O   0  0  0  0  0  0  0  0  0  0  0  0
    5.0421  -10.1116    2.6708 C   0  0  0  0  0  0  0  0  0  0  0  0
    5.5861   -8.6627    2.8467 C   0  0  1  0  0  0  0  0  0  0  0  0
    7.0806   -8.5978    2.5045 C   0  0  0  0  0  0  0  0  0  0  0  0
    5.3751   -8.3049    4.3497 C   0  0  0  0  0  0  0  0  0  0  0  0
    3.8791   -8.3553    4.7629 C   0  0  0  0  0  0  0  0  0  0  0  0
    3.0107   -8.8255    3.5952 C   0  0  1  0  0  0  0  0  0  0  0  0
    1.7144   -8.8690    3.9157 F   0  0  0  0  0  0  0  0  0  0  0  0
    3.4237   -2.2860   -3.6872 H   0  0  0  0  0  0  0  0  0  0  0  0
    2.9719   -3.6826   -2.7373 H   0  0  0  0  0  0  0  0  0  0  0  0
    4.6549   -3.4257   -3.1699 H   0  0  0  0  0  0  0  0  0  0  0  0
    4.7469   -1.3746   -1.7425 H   0  0  0  0  0  0  0  0  0  0  0  0
    3.0596   -1.5077   -1.3798 H   0  0  0  0  0  0  0  0  0  0  0  0
    4.4743   -2.2481    0.4999 H   0  0  0  0  0  0  0  0  0  0  0  0
    5.4325   -4.4806   -1.3407 H   0  0  0  0  0  0  0  0  0  0  0  0
    6.4031   -3.1772   -0.6986 H   0  0  0  0  0  0  0  0  0  0  0  0
    6.7185   -5.3224    0.5426 H   0  0  0  0  0  0  0  0  0  0  0  0
    6.1195   -4.0578    1.5917 H   0  0  0  0  0  0  0  0  0  0  0  0
    2.5071   -5.2803    1.5598 H   0  0  0  0  0  0  0  0  0  0  0  0
    3.5532   -4.0421    2.2091 H   0  0  0  0  0  0  0  0  0  0  0  0
    2.2258   -3.1806    0.3220 H   0  0  0  0  0  0  0  0  0  0  0  0
    2.7860   -4.4848   -0.6955 H   0  0  0  0  0  0  0  0  0  0  0  0
    2.4676   -7.3425    2.0596 H   0  0  0  0  0  0  0  0  0  0  0  0
    1.7067   -9.6150    1.6275 H   0  0  0  0  0  0  0  0  0  0  0  0
    3.2182   -9.6816    0.6581 H   0  0  0  0  0  0  0  0  0  0  0  0
    3.2122  -11.9392    2.5726 H   0  0  0  0  0  0  0  0  0  0  0  0
    5.4827  -10.7896    3.4054 H   0  0  0  0  0  0  0  0  0  0  0  0
    5.3098  -10.5063    1.6838 H   0  0  0  0  0  0  0  0  0  0  0  0
    7.6397   -9.2810    3.1475 H   0  0  0  0  0  0  0  0  0  0  0  0
    7.4830   -7.5975    2.6506 H   0  0  0  0  0  0  0  0  0  0  0  0
    7.2623   -8.8958    1.4701 H   0  0  0  0  0  0  0  0  0  0  0  0
    5.9395   -8.9984    4.9792 H   0  0  0  0  0  0  0  0  0  0  0  0
    5.7774   -7.3130    4.5658 H   0  0  0  0  0  0  0  0  0  0  0  0
    3.7533   -9.0124    5.6261 H   0  0  0  0  0  0  0  0  0  0  0  0
    3.5592   -7.3659    5.0924 H   0  0  0  0  0  0  0  0  0  0  0  0
  1  2  1  0
  1 24  1  0
  1 25  1  0
  1 26  1  0
  2  3  1  0
  2 27  1  0
  2 28  1  0
  3  8  1  0
  3  4  1  0
  3 29  1  1
  4  5  1  0
  4 30  1  0
  4 31  1  0
  5  6  1  0
  5 32  1  0
  5 33  1  0
  6 12  1  1
  6  7  1  0
  6  9  1  0
  7  8  1  0
  7 34  1  0
  7 35  1  0
  8 36  1  0
  8 37  1  0
  9 10  1  0
 11 10  1  6
 11 18  1  0
 11 12  1  0
 11 13  1  0
 13 22  1  0
 13 14  1  0
 13 38  1  1
 14 15  1  0
 14 39  1  0
 14 40  1  0
 15 22  1  0
 15 16  1  1
 15 17  1  0
 16 41  1  0
 17 18  1  0
 17 42  1  0
 17 43  1  0
 18 19  1  6
 18 20  1  0
 19 44  1  0
 19 45  1  0
 19 46  1  0
 20 21  1  0
 20 47  1  0
 20 48  1  0
 21 22  1  0
 21 49  1  0
 21 50  1  0
 22 23  1  1
M  END
>  <i_m_ct_stereo_status>  (87) 
1

>  <s_m_source_file>  (87) 
/var/tmp/pbs.5076255.sched01/tmpr6ewtwjb/42o4phu6d4.sdf

>  <i_m_source_file_index>  (87) 
3

>  <i_lp_mmshare_version>  (87) 
48012

>  <i_f3d_flags>  (87) 
0

>  <s_epik_input>  (87) 
W0NIM11bQ0gyXVtDQEBIXShbQ0gyXVtDSDJdMSlbQ0gyXVtDSDJdW0NAXTEyT09bQ0BAXTMoTzIpW0NAQEhdNFtDQEBdNShGKVtDQF0oW0NIMl00KShbT0hdKVtDSDJdW0NAXTMoW0NIM10pW0NIMl1bQ0gyXTU=

>  <s_epik_cmdline>  (87) 
J2VwaWtfcHl0aG9uJywgJy1waHQnLCAnMi4wJywgJy1waCcsICc3LjAnLCAnLXRuJywgJzgnLCAnLW1hJywgJzIwMCcsICctaW1hZScsICc8aW5maWxlLm1hZT4nLCAnLW9tYWUnLCAnPG91dGZpbGUubWFlPic=

>  <r_lp_tautomer_probability>  (87) 
1

>  <r_epik_Ionization_Penalty>  (87) 
2.01267e-07

>  <r_epik_Ionization_Penalty_Charging>  (87) 
0

>  <r_epik_Ionization_Penalty_Neutral>  (87) 
2.01267e-07

>  <r_epik_State_Penalty>  (87) 
-0

>  <r_epik_Charging_Adjusted_Penalty>  (87) 
0

>  <i_epik_Tot_Q>  (87) 
0

>  <i_epik_Tot_abs_Q>  (87) 
0

>  <s_lp_Force_Field>  (87) 
OPLS3e

>  <r_lp_Energy>  (87) 
37.1269

>  <b_lp_Chiralities_Consistent>  (87) 
1

>  <s_lp_Variant>  (87) 
30:0-1

>  <s_i_glide_gridfile>  (87) 
pfpi4k_grid

>  <i_i_glide_lignum>  (87) 
3

>  <i_i_glide_rotatable_bonds>  (87) 
2

>  <r_i_docking_score>  (87) 
-2.64617

>  <r_i_glide_ligand_efficiency>  (87) 
-0.115051

>  <r_i_glide_ligand_efficiency_sa>  (87) 
-0.32719

>  <r_i_glide_ligand_efficiency_ln>  (87) 
-0.639869

>  <r_i_glide_gscore>  (87) 
-2.64617

>  <r_i_glide_lipo>  (87) 
-0.239946

>  <r_i_glide_hbond>  (87) 
-0.00328359

>  <r_i_glide_metal>  (87) 
-0

>  <r_i_glide_rewards>  (87) 
-1.29291

>  <r_i_glide_evdw>  (87) 
-18.3743

>  <r_i_glide_ecoul>  (87) 
-1.19805

>  <r_i_glide_erotb>  (87) 
0

>  <r_i_glide_esite>  (87) 
-0.0116123

>  <r_i_glide_emodel>  (87) 
-22.0372

>  <r_i_glide_energy>  (87) 
-19.5724

>  <r_i_glide_einternal>  (87) 
2.68467

>  <r_i_glide_intrahb_reward>  (87) 
-0

>  <i_i_glide_confnum>  (87) 
2

>  <i_i_glide_posenum>  (87) 
3

>  <r_i_glide_eff_state_penalty>  (87) 
0

>  <ligand_id>  (87) 
30

>  <original_smiles>  (87) 
CCC1CCC2(CC1)OOC1(O2)C2CC3(O)CC1(C)CCC23F

>  <smiles>  (87) 
[H]OC12C([H])([H])C3([H])C4(OOC5(O4)C([H])([H])C([H])([H])C([H])(C([H])([H])C([H])([H])[H])C([H])([H])C5([H])[H])C(C([H])([H])[H])(C([H])([H])C([H])([H])C31F)C2([H])[H]

$$$$
30:0:2
     RDKit          3D

 50 54  0  0  1  0  0  0  0  0999 V2000
   -4.4180    3.4494    9.2063 C   0  0  0  0  0  0  0  0  0  0  0  0
   -3.2172    3.0291   10.0765 C   0  0  0  0  0  0  0  0  0  0  0  0
   -1.8788    3.0422    9.3299 C   0  0  2  0  0  0  0  0  0  0  0  0
   -1.4719    4.4373    8.8159 C   0  0  0  0  0  0  0  0  0  0  0  0
   -0.1694    4.4328    7.9756 C   0  0  0  0  0  0  0  0  0  0  0  0
   -0.2462    3.4179    6.8005 C   0  0  1  0  0  0  0  0  0  0  0  0
   -0.6836    2.0595    7.3751 C   0  0  0  0  0  0  0  0  0  0  0  0
   -1.9385    2.0613    8.1766 C   0  0  0  0  0  0  0  0  0  0  0  0
   -1.1811    3.8500    5.8352 O   0  0  0  0  0  0  0  0  0  0  0  0
   -0.6727    3.2663    4.5226 O   0  0  0  0  0  0  0  0  0  0  0  0
    0.6158    2.7232    4.8264 C   0  0  1  0  0  0  0  0  0  0  0  0
    0.9986    3.2399    6.0981 O   0  0  0  0  0  0  0  0  0  0  0  0
    0.5764    1.1524    4.7804 C   0  0  1  0  0  0  0  0  0  0  0  0
   -0.1340    0.5167    3.5857 C   0  0  0  0  0  0  0  0  0  0  0  0
    1.2045    0.7807    2.8801 C   0  0  1  0  0  0  0  0  0  0  0  0
    1.5630   -0.1402    1.8717 O   0  0  0  0  0  0  0  0  0  0  0  0
    1.4056    2.2328    2.4396 C   0  0  0  0  0  0  0  0  0  0  0  0
    1.6592    3.1236    3.6991 C   0  0  1  0  0  0  0  0  0  0  0  0
    1.6645    4.6136    3.3177 C   0  0  0  0  0  0  0  0  0  0  0  0
    3.0575    2.7251    4.2397 C   0  0  0  0  0  0  0  0  0  0  0  0
    3.1502    1.2326    4.6261 C   0  0  0  0  0  0  0  0  0  0  0  0
    1.8514    0.5223    4.2550 C   0  0  1  0  0  0  0  0  0  0  0  0
    1.8801   -0.7522    4.6229 F   0  0  0  0  0  0  0  0  0  0  0  0
   -5.3391    3.3453    9.7640 H   0  0  0  0  0  0  0  0  0  0  0  0
   -4.5493    2.8504    8.3085 H   0  0  0  0  0  0  0  0  0  0  0  0
   -4.3357    4.4897    8.8848 H   0  0  0  0  0  0  0  0  0  0  0  0
   -3.1287    3.6791   10.9451 H   0  0  0  0  0  0  0  0  0  0  0  0
   -3.3778    2.0217   10.4658 H   0  0  0  0  0  0  0  0  0  0  0  0
   -1.1028    2.6736   10.0045 H   0  0  0  0  0  0  0  0  0  0  0  0
   -2.2650    4.8386    8.1944 H   0  0  0  0  0  0  0  0  0  0  0  0
   -1.3811    5.0959    9.6730 H   0  0  0  0  0  0  0  0  0  0  0  0
    0.0408    5.4523    7.6306 H   0  0  0  0  0  0  0  0  0  0  0  0
    0.6505    4.1534    8.6378 H   0  0  0  0  0  0  0  0  0  0  0  0
   -1.0750    1.4392    6.5865 H   0  0  0  0  0  0  0  0  0  0  0  0
    0.1532    1.6098    7.9084 H   0  0  0  0  0  0  0  0  0  0  0  0
   -2.1194    1.0409    8.5009 H   0  0  0  0  0  0  0  0  0  0  0  0
   -2.7152    2.2974    7.4559 H   0  0  0  0  0  0  0  0  0  0  0  0
    0.4119    0.5845    5.6931 H   0  0  0  0  0  0  0  0  0  0  0  0
   -0.4152   -0.5312    3.7353 H   0  0  0  0  0  0  0  0  0  0  0  0
   -0.9578    1.1143    3.1778 H   0  0  0  0  0  0  0  0  0  0  0  0
    1.0354    0.0342    1.1057 H   0  0  0  0  0  0  0  0  0  0  0  0
    2.2264    2.3088    1.7246 H   0  0  0  0  0  0  0  0  0  0  0  0
    0.5039    2.5388    1.9246 H   0  0  0  0  0  0  0  0  0  0  0  0
    2.4270    4.8106    2.5576 H   0  0  0  0  0  0  0  0  0  0  0  0
    1.8793    5.2552    4.1679 H   0  0  0  0  0  0  0  0  0  0  0  0
    0.7101    4.9305    2.9012 H   0  0  0  0  0  0  0  0  0  0  0  0
    3.8111    2.9283    3.4851 H   0  0  0  0  0  0  0  0  0  0  0  0
    3.3273    3.3461    5.0921 H   0  0  0  0  0  0  0  0  0  0  0  0
    3.9947    0.7525    4.1255 H   0  0  0  0  0  0  0  0  0  0  0  0
    3.3363    1.1482    5.7050 H   0  0  0  0  0  0  0  0  0  0  0  0
  1  2  1  0
  1 24  1  0
  1 25  1  0
  1 26  1  0
  2  3  1  0
  2 27  1  0
  2 28  1  0
  3  8  1  0
  3  4  1  0
  3 29  1  1
  4  5  1  0
  4 30  1  0
  4 31  1  0
  5  6  1  0
  5 32  1  0
  5 33  1  0
  6 12  1  6
  6  7  1  0
  6  9  1  0
  7  8  1  0
  7 34  1  0
  7 35  1  0
  8 36  1  0
  8 37  1  0
  9 10  1  0
 11 10  1  6
 11 18  1  0
 11 12  1  0
 11 13  1  0
 13 22  1  0
 13 14  1  0
 13 38  1  1
 14 15  1  0
 14 39  1  0
 14 40  1  0
 15 22  1  0
 15 16  1  6
 15 17  1  0
 16 41  1  0
 17 18  1  0
 17 42  1  0
 17 43  1  0
 18 19  1  6
 18 20  1  0
 19 44  1  0
 19 45  1  0
 19 46  1  0
 20 21  1  0
 20 47  1  0
 20 48  1  0
 21 22  1  0
 21 49  1  0
 21 50  1  0
 22 23  1  1
M  END
>  <i_m_ct_stereo_status>  (88) 
1

>  <s_m_source_file>  (88) 
/var/tmp/pbs.5076255.sched01/tmpr6ewtwjb/42o4phu6d4.sdf

>  <i_m_source_file_index>  (88) 
3

>  <i_lp_mmshare_version>  (88) 
48012

>  <i_f3d_flags>  (88) 
0

>  <s_epik_input>  (88) 
W0NIM11bQ0gyXVtDQEBIXShbQ0gyXVtDSDJdMSlbQ0gyXVtDSDJdW0NAXTEyT09bQ0BAXTMoTzIpW0NAQEhdNFtDQEBdNShGKVtDQF0oW0NIMl00KShbT0hdKVtDSDJdW0NAXTMoW0NIM10pW0NIMl1bQ0gyXTU=

>  <s_epik_cmdline>  (88) 
J2VwaWtfcHl0aG9uJywgJy1waHQnLCAnMi4wJywgJy1waCcsICc3LjAnLCAnLXRuJywgJzgnLCAnLW1hJywgJzIwMCcsICctaW1hZScsICc8aW5maWxlLm1hZT4nLCAnLW9tYWUnLCAnPG91dGZpbGUubWFlPic=

>  <r_lp_tautomer_probability>  (88) 
1

>  <r_epik_Ionization_Penalty>  (88) 
2.01267e-07

>  <r_epik_Ionization_Penalty_Charging>  (88) 
0

>  <r_epik_Ionization_Penalty_Neutral>  (88) 
2.01267e-07

>  <r_epik_State_Penalty>  (88) 
-0

>  <r_epik_Charging_Adjusted_Penalty>  (88) 
0

>  <i_epik_Tot_Q>  (88) 
0

>  <i_epik_Tot_abs_Q>  (88) 
0

>  <s_lp_Force_Field>  (88) 
OPLS3e

>  <r_lp_Energy>  (88) 
37.1269

>  <b_lp_Chiralities_Consistent>  (88) 
1

>  <s_lp_Variant>  (88) 
30:0-1

>  <s_i_glide_gridfile>  (88) 
pfpi4k_grid

>  <i_i_glide_lignum>  (88) 
3

>  <i_i_glide_rotatable_bonds>  (88) 
2

>  <r_i_docking_score>  (88) 
-2.39924

>  <r_i_glide_ligand_efficiency>  (88) 
-0.104315

>  <r_i_glide_ligand_efficiency_sa>  (88) 
-0.296658

>  <r_i_glide_ligand_efficiency_ln>  (88) 
-0.580159

>  <r_i_glide_gscore>  (88) 
-2.39924

>  <r_i_glide_lipo>  (88) 
-0.0376287

>  <r_i_glide_hbond>  (88) 
-0.0825131

>  <r_i_glide_metal>  (88) 
-0

>  <r_i_glide_rewards>  (88) 
-1.18362

>  <r_i_glide_evdw>  (88) 
-15.9594

>  <r_i_glide_ecoul>  (88) 
-1.90582

>  <r_i_glide_erotb>  (88) 
0

>  <r_i_glide_esite>  (88) 
-0.0116418

>  <r_i_glide_emodel>  (88) 
-16.656

>  <r_i_glide_energy>  (88) 
-17.8652

>  <r_i_glide_einternal>  (88) 
2.8105

>  <r_i_glide_intrahb_reward>  (88) 
-0

>  <i_i_glide_confnum>  (88) 
1

>  <i_i_glide_posenum>  (88) 
2

>  <r_i_glide_eff_state_penalty>  (88) 
0

>  <ligand_id>  (88) 
30

>  <original_smiles>  (88) 
CCC1CCC2(CC1)OOC1(O2)C2CC3(O)CC1(C)CCC23F

>  <smiles>  (88) 
[H]OC12C([H])([H])C3([H])C4(OOC5(O4)C([H])([H])C([H])([H])C([H])(C([H])([H])C([H])([H])[H])C([H])([H])C5([H])[H])C(C([H])([H])[H])(C([H])([H])C([H])([H])C31F)C2([H])[H]

$$$$
30:1:0
     RDKit          3D

 50 54  0  0  1  0  0  0  0  0999 V2000
    3.9705  -10.1536    2.7238 C   0  0  0  0  0  0  0  0  0  0  0  0
    4.4195   -8.7284    3.0630 C   0  0  0  0  0  0  0  0  0  0  0  0
    3.2904   -7.6635    2.9987 C   0  0  2  0  0  0  0  0  0  0  0  0
    2.7510   -7.4082    1.5649 C   0  0  0  0  0  0  0  0  0  0  0  0
    3.8013   -6.6842    0.6782 C   0  0  0  0  0  0  0  0  0  0  0  0
    4.2588   -5.3655    1.3052 C   0  0  2  0  0  0  0  0  0  0  0  0
    4.7997   -5.5975    2.7266 C   0  0  0  0  0  0  0  0  0  0  0  0
    3.7474   -6.3171    3.6114 C   0  0  0  0  0  0  0  0  0  0  0  0
    3.1719   -4.4970    1.4092 O   0  0  0  0  0  0  0  0  0  0  0  0
    3.8006   -3.1649    1.2283 O   0  0  0  0  0  0  0  0  0  0  0  0
    4.7388   -3.4197    0.2324 C   0  0  1  0  0  0  0  0  0  0  0  0
    5.2375   -4.7168    0.5038 O   0  0  0  0  0  0  0  0  0  0  0  0
    3.9967   -3.4178   -1.1151 C   0  0  1  0  0  0  0  0  0  0  0  0
    3.1082   -2.2048   -1.3839 C   0  0  0  0  0  0  0  0  0  0  0  0
    4.4109   -1.4901   -1.7403 C   0  0  1  0  0  0  0  0  0  0  0  0
    4.3247   -0.4518   -2.6885 O   0  0  0  0  0  0  0  0  0  0  0  0
    5.2399   -1.0583   -0.5229 C   0  0  0  0  0  0  0  0  0  0  0  0
    5.8651   -2.3364    0.1097 C   0  0  1  0  0  0  0  0  0  0  0  0
    6.5248   -1.9959    1.4353 C   0  0  0  0  0  0  0  0  0  0  0  0
    6.9343   -2.8468   -0.9074 C   0  0  0  0  0  0  0  0  0  0  0  0
    6.3096   -3.1803   -2.2924 C   0  0  0  0  0  0  0  0  0  0  0  0
    4.8260   -2.8668   -2.2921 C   0  0  1  0  0  0  0  0  0  0  0  0
    4.2571   -3.1467   -3.4744 F   0  0  0  0  0  0  0  0  0  0  0  0
    4.8372  -10.8091    2.6633 H   0  0  0  0  0  0  0  0  0  0  0  0
    3.4714  -10.2242    1.7595 H   0  0  0  0  0  0  0  0  0  0  0  0
    3.2934  -10.5411    3.4826 H   0  0  0  0  0  0  0  0  0  0  0  0
    4.8631   -8.7336    4.0596 H   0  0  0  0  0  0  0  0  0  0  0  0
    5.2406   -8.4686    2.3997 H   0  0  0  0  0  0  0  0  0  0  0  0
    2.4550   -8.0227    3.6108 H   0  0  0  0  0  0  0  0  0  0  0  0
    2.4198   -8.3432    1.1115 H   0  0  0  0  0  0  0  0  0  0  0  0
    1.8377   -6.8082    1.6283 H   0  0  0  0  0  0  0  0  0  0  0  0
    4.6467   -7.3453    0.5037 H   0  0  0  0  0  0  0  0  0  0  0  0
    3.4086   -6.5100   -0.3219 H   0  0  0  0  0  0  0  0  0  0  0  0
    5.7074   -6.2011    2.6961 H   0  0  0  0  0  0  0  0  0  0  0  0
    5.0895   -4.6639    3.2032 H   0  0  0  0  0  0  0  0  0  0  0  0
    2.8724   -5.6729    3.7389 H   0  0  0  0  0  0  0  0  0  0  0  0
    4.1274   -6.4804    4.6225 H   0  0  0  0  0  0  0  0  0  0  0  0
    3.4507   -4.3191   -1.3686 H   0  0  0  0  0  0  0  0  0  0  0  0
    2.4049   -2.3206   -2.2242 H   0  0  0  0  0  0  0  0  0  0  0  0
    2.6240   -1.8249   -0.4854 H   0  0  0  0  0  0  0  0  0  0  0  0
    3.4113   -0.2059   -2.7080 H   0  0  0  0  0  0  0  0  0  0  0  0
    6.0076   -0.3411   -0.8111 H   0  0  0  0  0  0  0  0  0  0  0  0
    4.6000   -0.5465    0.1969 H   0  0  0  0  0  0  0  0  0  0  0  0
    7.3175   -1.2609    1.2819 H   0  0  0  0  0  0  0  0  0  0  0  0
    6.9466   -2.9031    1.8580 H   0  0  0  0  0  0  0  0  0  0  0  0
    5.8166   -1.5726    2.1505 H   0  0  0  0  0  0  0  0  0  0  0  0
    7.7146   -2.0939   -1.0351 H   0  0  0  0  0  0  0  0  0  0  0  0
    7.4491   -3.7213   -0.5100 H   0  0  0  0  0  0  0  0  0  0  0  0
    6.8337   -2.6596   -3.0838 H   0  0  0  0  0  0  0  0  0  0  0  0
    6.3973   -4.2367   -2.5257 H   0  0  0  0  0  0  0  0  0  0  0  0
  1  2  1  0
  1 24  1  0
  1 25  1  0
  1 26  1  0
  2  3  1  0
  2 27  1  0
  2 28  1  0
  3  8  1  0
  3  4  1  0
  3 29  1  1
  4  5  1  0
  4 30  1  0
  4 31  1  0
  5  6  1  0
  5 32  1  0
  5 33  1  0
  6 12  1  6
  6  7  1  0
  6  9  1  0
  7  8  1  0
  7 34  1  0
  7 35  1  0
  8 36  1  0
  8 37  1  0
  9 10  1  0
 11 10  1  1
 11 18  1  0
 11 12  1  0
 11 13  1  0
 13 22  1  0
 13 14  1  0
 13 38  1  6
 14 15  1  0
 14 39  1  0
 14 40  1  0
 15 22  1  0
 15 16  1  6
 15 17  1  0
 16 41  1  0
 17 18  1  0
 17 42  1  0
 17 43  1  0
 18 19  1  1
 18 20  1  0
 19 44  1  0
 19 45  1  0
 19 46  1  0
 20 21  1  0
 20 47  1  0
 20 48  1  0
 21 22  1  0
 21 49  1  0
 21 50  1  0
 22 23  1  6
M  END
>  <i_m_ct_stereo_status>  (89) 
1

>  <s_m_source_file>  (89) 
/var/tmp/pbs.5076255.sched01/tmpr6ewtwjb/42o4phu6d4.sdf

>  <i_m_source_file_index>  (89) 
4

>  <i_lp_mmshare_version>  (89) 
48012

>  <i_f3d_flags>  (89) 
0

>  <s_epik_input>  (89) 
W0NIM11bQ0gyXVtDQEBIXShbQ0gyXVtDSDJdMSlbQ0gyXVtDSDJdW0NAXTEyT09bQ0BAXTMoTzIpW0NAQEhdNFtDQEBdNShGKVtDQF0oW0NIMl00KShbT0hdKVtDSDJdW0NAXTMoW0NIM10pW0NIMl1bQ0gyXTU=

>  <s_epik_cmdline>  (89) 
J2VwaWtfcHl0aG9uJywgJy1waHQnLCAnMi4wJywgJy1waCcsICc3LjAnLCAnLXRuJywgJzgnLCAnLW1hJywgJzIwMCcsICctaW1hZScsICc8aW5maWxlLm1hZT4nLCAnLW9tYWUnLCAnPG91dGZpbGUubWFlPic=

>  <r_lp_tautomer_probability>  (89) 
1

>  <r_epik_Ionization_Penalty>  (89) 
2.01267e-07

>  <r_epik_Ionization_Penalty_Charging>  (89) 
0

>  <r_epik_Ionization_Penalty_Neutral>  (89) 
2.01267e-07

>  <r_epik_State_Penalty>  (89) 
-0

>  <r_epik_Charging_Adjusted_Penalty>  (89) 
0

>  <i_epik_Tot_Q>  (89) 
0

>  <i_epik_Tot_abs_Q>  (89) 
0

>  <s_lp_Force_Field>  (89) 
OPLS3e

>  <r_lp_Energy>  (89) 
36.2032

>  <b_lp_Chiralities_Consistent>  (89) 
1

>  <s_lp_Variant>  (89) 
30:0-2

>  <s_i_glide_gridfile>  (89) 
pfpi4k_grid

>  <i_i_glide_lignum>  (89) 
4

>  <i_i_glide_rotatable_bonds>  (89) 
2

>  <r_i_docking_score>  (89) 
-3.07185

>  <r_i_glide_ligand_efficiency>  (89) 
-0.133559

>  <r_i_glide_ligand_efficiency_sa>  (89) 
-0.379823

>  <r_i_glide_ligand_efficiency_ln>  (89) 
-0.7428

>  <r_i_glide_gscore>  (89) 
-3.07185

>  <r_i_glide_lipo>  (89) 
-0.447923

>  <r_i_glide_hbond>  (89) 
0

>  <r_i_glide_metal>  (89) 
-0

>  <r_i_glide_rewards>  (89) 
-1.51724

>  <r_i_glide_evdw>  (89) 
-16.6726

>  <r_i_glide_ecoul>  (89) 
-1.82034

>  <r_i_glide_erotb>  (89) 
0

>  <r_i_glide_esite>  (89) 
0

>  <r_i_glide_emodel>  (89) 
-21.6197

>  <r_i_glide_energy>  (89) 
-18.4929

>  <r_i_glide_einternal>  (89) 
1.63269

>  <r_i_glide_intrahb_reward>  (89) 
-0

>  <i_i_glide_confnum>  (89) 
2

>  <i_i_glide_posenum>  (89) 
1

>  <r_i_glide_eff_state_penalty>  (89) 
0

>  <ligand_id>  (89) 
30

>  <original_smiles>  (89) 
CCC1CCC2(CC1)OOC1(O2)C2CC3(O)CC1(C)CCC23F

>  <smiles>  (89) 
[H]OC12C([H])([H])C3([H])C4(OOC5(O4)C([H])([H])C([H])([H])C([H])(C([H])([H])C([H])([H])[H])C([H])([H])C5([H])[H])C(C([H])([H])[H])(C([H])([H])C([H])([H])C31F)C2([H])[H]

$$$$
30:1:1
     RDKit          3D

 50 54  0  0  1  0  0  0  0  0999 V2000
    3.3146   -8.9789    5.2890 C   0  0  0  0  0  0  0  0  0  0  0  0
    3.6704   -8.7244    3.8193 C   0  0  0  0  0  0  0  0  0  0  0  0
    2.5232   -8.0874    2.9850 C   0  0  2  0  0  0  0  0  0  0  0  0
    2.8592   -8.0474    1.4774 C   0  0  0  0  0  0  0  0  0  0  0  0
    3.9452   -7.0059    1.1476 C   0  0  0  0  0  0  0  0  0  0  0  0
    3.5504   -5.5971    1.6564 C   0  0  2  0  0  0  0  0  0  0  0  0
    3.2073   -5.6179    3.1660 C   0  0  0  0  0  0  0  0  0  0  0  0
    2.1187   -6.6676    3.4620 C   0  0  0  0  0  0  0  0  0  0  0  0
    2.3803   -5.1528    0.9718 O   0  0  0  0  0  0  0  0  0  0  0  0
    2.5737   -3.6860    0.9319 O   0  0  0  0  0  0  0  0  0  0  0  0
    3.9612   -3.5857    0.6577 C   0  0  1  0  0  0  0  0  0  0  0  0
    4.6014   -4.6397    1.4192 O   0  0  0  0  0  0  0  0  0  0  0  0
    4.1578   -3.8384   -0.8492 C   0  0  1  0  0  0  0  0  0  0  0  0
    3.2709   -3.0190   -1.7779 C   0  0  0  0  0  0  0  0  0  0  0  0
    4.2697   -1.8869   -1.4906 C   0  0  1  0  0  0  0  0  0  0  0  0
    4.4337   -0.9185   -2.5111 O   0  0  0  0  0  0  0  0  0  0  0  0
    4.0827   -1.1883   -0.1311 C   0  0  0  0  0  0  0  0  0  0  0  0
    4.5751   -2.1611    0.9735 C   0  0  1  0  0  0  0  0  0  0  0  0
    4.2261   -1.6303    2.3644 C   0  0  0  0  0  0  0  0  0  0  0  0
    6.1267   -2.2524    0.8066 C   0  0  0  0  0  0  0  0  0  0  0  0
    6.5444   -2.7965   -0.5865 C   0  0  0  0  0  0  0  0  0  0  0  0
    5.3116   -3.0229   -1.4548 C   0  0  1  0  0  0  0  0  0  0  0  0
    5.6123   -3.4765   -2.6702 F   0  0  0  0  0  0  0  0  0  0  0  0
    4.1552   -9.4462    5.8007 H   0  0  0  0  0  0  0  0  0  0  0  0
    2.4499   -9.6347    5.3804 H   0  0  0  0  0  0  0  0  0  0  0  0
    3.0973   -8.0523    5.8182 H   0  0  0  0  0  0  0  0  0  0  0  0
    4.5616   -8.1013    3.8033 H   0  0  0  0  0  0  0  0  0  0  0  0
    3.9773   -9.6709    3.3632 H   0  0  0  0  0  0  0  0  0  0  0  0
    1.6445   -8.7348    3.0883 H   0  0  0  0  0  0  0  0  0  0  0  0
    3.1617   -9.0366    1.1429 H   0  0  0  0  0  0  0  0  0  0  0  0
    1.9472   -7.8231    0.9233 H   0  0  0  0  0  0  0  0  0  0  0  0
    4.8783   -7.2990    1.6213 H   0  0  0  0  0  0  0  0  0  0  0  0
    4.1529   -7.0015    0.0788 H   0  0  0  0  0  0  0  0  0  0  0  0
    4.1081   -5.8333    3.7366 H   0  0  0  0  0  0  0  0  0  0  0  0
    2.8823   -4.6376    3.5099 H   0  0  0  0  0  0  0  0  0  0  0  0
    1.1948   -6.3908    2.9538 H   0  0  0  0  0  0  0  0  0  0  0  0
    1.8554   -6.6682    4.5149 H   0  0  0  0  0  0  0  0  0  0  0  0
    4.2258   -4.8832   -1.1129 H   0  0  0  0  0  0  0  0  0  0  0  0
    3.2629   -3.3531   -2.8162 H   0  0  0  0  0  0  0  0  0  0  0  0
    2.2652   -2.8159   -1.4061 H   0  0  0  0  0  0  0  0  0  0  0  0
    3.6134   -0.4504   -2.5493 H   0  0  0  0  0  0  0  0  0  0  0  0
    4.6375   -0.2577   -0.1093 H   0  0  0  0  0  0  0  0  0  0  0  0
    3.0286   -0.9438    0.0171 H   0  0  0  0  0  0  0  0  0  0  0  0
    4.6793   -0.6534    2.4878 H   0  0  0  0  0  0  0  0  0  0  0  0
    4.5987   -2.2855    3.1476 H   0  0  0  0  0  0  0  0  0  0  0  0
    3.1486   -1.5177    2.4756 H   0  0  0  0  0  0  0  0  0  0  0  0
    6.5619   -1.2651    0.9508 H   0  0  0  0  0  0  0  0  0  0  0  0
    6.5534   -2.8895    1.5824 H   0  0  0  0  0  0  0  0  0  0  0  0
    7.2471   -2.1115   -1.0681 H   0  0  0  0  0  0  0  0  0  0  0  0
    7.0914   -3.7322   -0.4653 H   0  0  0  0  0  0  0  0  0  0  0  0
  1  2  1  0
  1 24  1  0
  1 25  1  0
  1 26  1  0
  2  3  1  0
  2 27  1  0
  2 28  1  0
  3  8  1  0
  3  4  1  0
  3 29  1  6
  4  5  1  0
  4 30  1  0
  4 31  1  0
  5  6  1  0
  5 32  1  0
  5 33  1  0
  6 12  1  1
  6  7  1  0
  6  9  1  0
  7  8  1  0
  7 34  1  0
  7 35  1  0
  8 36  1  0
  8 37  1  0
  9 10  1  0
 11 10  1  6
 11 18  1  0
 11 12  1  0
 11 13  1  0
 13 22  1  0
 13 14  1  0
 13 38  1  1
 14 15  1  0
 14 39  1  0
 14 40  1  0
 15 22  1  0
 15 16  1  6
 15 17  1  0
 16 41  1  0
 17 18  1  0
 17 42  1  0
 17 43  1  0
 18 19  1  1
 18 20  1  0
 19 44  1  0
 19 45  1  0
 19 46  1  0
 20 21  1  0
 20 47  1  0
 20 48  1  0
 21 22  1  0
 21 49  1  0
 21 50  1  0
 22 23  1  6
M  END
>  <i_m_ct_stereo_status>  (90) 
1

>  <s_m_source_file>  (90) 
/var/tmp/pbs.5076255.sched01/tmpr6ewtwjb/42o4phu6d4.sdf

>  <i_m_source_file_index>  (90) 
4

>  <i_lp_mmshare_version>  (90) 
48012

>  <i_f3d_flags>  (90) 
0

>  <s_epik_input>  (90) 
W0NIM11bQ0gyXVtDQEBIXShbQ0gyXVtDSDJdMSlbQ0gyXVtDSDJdW0NAXTEyT09bQ0BAXTMoTzIpW0NAQEhdNFtDQEBdNShGKVtDQF0oW0NIMl00KShbT0hdKVtDSDJdW0NAXTMoW0NIM10pW0NIMl1bQ0gyXTU=

>  <s_epik_cmdline>  (90) 
J2VwaWtfcHl0aG9uJywgJy1waHQnLCAnMi4wJywgJy1waCcsICc3LjAnLCAnLXRuJywgJzgnLCAnLW1hJywgJzIwMCcsICctaW1hZScsICc8aW5maWxlLm1hZT4nLCAnLW9tYWUnLCAnPG91dGZpbGUubWFlPic=

>  <r_lp_tautomer_probability>  (90) 
1

>  <r_epik_Ionization_Penalty>  (90) 
2.01267e-07

>  <r_epik_Ionization_Penalty_Charging>  (90) 
0

>  <r_epik_Ionization_Penalty_Neutral>  (90) 
2.01267e-07

>  <r_epik_State_Penalty>  (90) 
-0

>  <r_epik_Charging_Adjusted_Penalty>  (90) 
0

>  <i_epik_Tot_Q>  (90) 
0

>  <i_epik_Tot_abs_Q>  (90) 
0

>  <s_lp_Force_Field>  (90) 
OPLS3e

>  <r_lp_Energy>  (90) 
36.2032

>  <b_lp_Chiralities_Consistent>  (90) 
1

>  <s_lp_Variant>  (90) 
30:0-2

>  <s_i_glide_gridfile>  (90) 
pfpi4k_grid

>  <i_i_glide_lignum>  (90) 
4

>  <i_i_glide_rotatable_bonds>  (90) 
2

>  <r_i_docking_score>  (90) 
-2.97502

>  <r_i_glide_ligand_efficiency>  (90) 
-0.129349

>  <r_i_glide_ligand_efficiency_sa>  (90) 
-0.367851

>  <r_i_glide_ligand_efficiency_ln>  (90) 
-0.719387

>  <r_i_glide_gscore>  (90) 
-2.97502

>  <r_i_glide_lipo>  (90) 
-0.249465

>  <r_i_glide_hbond>  (90) 
0

>  <r_i_glide_metal>  (90) 
-0

>  <r_i_glide_rewards>  (90) 
-1.53844

>  <r_i_glide_evdw>  (90) 
-18.5828

>  <r_i_glide_ecoul>  (90) 
-1.71983

>  <r_i_glide_erotb>  (90) 
0

>  <r_i_glide_esite>  (90) 
0

>  <r_i_glide_emodel>  (90) 
-23.7113

>  <r_i_glide_energy>  (90) 
-20.3026

>  <r_i_glide_einternal>  (90) 
0.756545

>  <r_i_glide_intrahb_reward>  (90) 
-0

>  <i_i_glide_confnum>  (90) 
2

>  <i_i_glide_posenum>  (90) 
24

>  <r_i_glide_eff_state_penalty>  (90) 
0

>  <ligand_id>  (90) 
30

>  <original_smiles>  (90) 
CCC1CCC2(CC1)OOC1(O2)C2CC3(O)CC1(C)CCC23F

>  <smiles>  (90) 
[H]OC12C([H])([H])C3([H])C4(OOC5(O4)C([H])([H])C([H])([H])C([H])(C([H])([H])C([H])([H])[H])C([H])([H])C5([H])[H])C(C([H])([H])[H])(C([H])([H])C([H])([H])C31F)C2([H])[H]

$$$$
30:1:2
     RDKit          3D

 50 54  0  0  1  0  0  0  0  0999 V2000
   -2.0020    4.9703   10.8865 C   0  0  0  0  0  0  0  0  0  0  0  0
   -0.9423    3.9827   10.3934 C   0  0  0  0  0  0  0  0  0  0  0  0
   -1.5143    2.6093    9.9502 C   0  0  2  0  0  0  0  0  0  0  0  0
   -0.3886    1.5840    9.6680 C   0  0  0  0  0  0  0  0  0  0  0  0
    0.3864    1.9140    8.3685 C   0  0  0  0  0  0  0  0  0  0  0  0
   -0.5612    2.0228    7.1574 C   0  0  2  0  0  0  0  0  0  0  0  0
   -1.6808    3.0490    7.4179 C   0  0  0  0  0  0  0  0  0  0  0  0
   -2.4496    2.7043    8.7167 C   0  0  0  0  0  0  0  0  0  0  0  0
   -1.1855    0.7879    6.9255 O   0  0  0  0  0  0  0  0  0  0  0  0
   -1.3469    0.7805    5.4522 O   0  0  0  0  0  0  0  0  0  0  0  0
   -0.1590    1.3628    5.0072 C   0  0  1  0  0  0  0  0  0  0  0  0
    0.1453    2.3699    5.9821 O   0  0  0  0  0  0  0  0  0  0  0  0
    0.9296    0.2849    5.0500 C   0  0  1  0  0  0  0  0  0  0  0  0
    0.5677   -1.0276    4.3324 C   0  0  0  0  0  0  0  0  0  0  0  0
    0.9209   -0.2734    3.0526 C   0  0  1  0  0  0  0  0  0  0  0  0
    1.3905   -1.0874    2.0017 O   0  0  0  0  0  0  0  0  0  0  0  0
   -0.1781    0.6933    2.5713 C   0  0  0  0  0  0  0  0  0  0  0  0
   -0.2021    1.9201    3.5465 C   0  0  1  0  0  0  0  0  0  0  0  0
   -1.4118    2.8091    3.2479 C   0  0  0  0  0  0  0  0  0  0  0  0
    1.1253    2.6883    3.2601 C   0  0  0  0  0  0  0  0  0  0  0  0
    2.3902    1.8405    3.5334 C   0  0  0  0  0  0  0  0  0  0  0  0
    1.9921    0.4209    3.9281 C   0  0  1  0  0  0  0  0  0  0  0  0
    3.0509   -0.3576    4.1740 F   0  0  0  0  0  0  0  0  0  0  0  0
   -1.5290    5.8956   11.2076 H   0  0  0  0  0  0  0  0  0  0  0  0
   -2.5614    4.5589   11.7247 H   0  0  0  0  0  0  0  0  0  0  0  0
   -2.7093    5.2324   10.1018 H   0  0  0  0  0  0  0  0  0  0  0  0
   -0.3957    4.4593    9.5837 H   0  0  0  0  0  0  0  0  0  0  0  0
   -0.2050    3.8333   11.1862 H   0  0  0  0  0  0  0  0  0  0  0  0
   -2.0976    2.2083   10.7885 H   0  0  0  0  0  0  0  0  0  0  0  0
    0.2857    1.5387   10.5260 H   0  0  0  0  0  0  0  0  0  0  0  0
   -0.8197    0.5814    9.5937 H   0  0  0  0  0  0  0  0  0  0  0  0
    0.9165    2.8556    8.5147 H   0  0  0  0  0  0  0  0  0  0  0  0
    1.1646    1.1680    8.2142 H   0  0  0  0  0  0  0  0  0  0  0  0
   -1.2632    4.0540    7.4954 H   0  0  0  0  0  0  0  0  0  0  0  0
   -2.3806    3.0960    6.5872 H   0  0  0  0  0  0  0  0  0  0  0  0
   -2.9499    1.7437    8.5950 H   0  0  0  0  0  0  0  0  0  0  0  0
   -3.2629    3.4054    8.8985 H   0  0  0  0  0  0  0  0  0  0  0  0
    1.3855    0.0797    6.0134 H   0  0  0  0  0  0  0  0  0  0  0  0
    1.2379   -1.8674    4.5434 H   0  0  0  0  0  0  0  0  0  0  0  0
   -0.4802   -1.3173    4.3993 H   0  0  0  0  0  0  0  0  0  0  0  0
    1.1937   -0.6499    1.1831 H   0  0  0  0  0  0  0  0  0  0  0  0
   -0.0024    1.0106    1.5400 H   0  0  0  0  0  0  0  0  0  0  0  0
   -1.1453    0.1961    2.5905 H   0  0  0  0  0  0  0  0  0  0  0  0
   -1.3892    3.1347    2.2096 H   0  0  0  0  0  0  0  0  0  0  0  0
   -1.4135    3.7004    3.8766 H   0  0  0  0  0  0  0  0  0  0  0  0
   -2.3506    2.2699    3.3934 H   0  0  0  0  0  0  0  0  0  0  0  0
    1.1509    2.9809    2.2108 H   0  0  0  0  0  0  0  0  0  0  0  0
    1.1650    3.6099    3.8443 H   0  0  0  0  0  0  0  0  0  0  0  0
    3.0303    1.8320    2.6487 H   0  0  0  0  0  0  0  0  0  0  0  0
    2.9827    2.3025    4.3227 H   0  0  0  0  0  0  0  0  0  0  0  0
  1  2  1  0
  1 24  1  0
  1 25  1  0
  1 26  1  0
  2  3  1  0
  2 27  1  0
  2 28  1  0
  3  8  1  0
  3  4  1  0
  3 29  1  1
  4  5  1  0
  4 30  1  0
  4 31  1  0
  5  6  1  0
  5 32  1  0
  5 33  1  0
  6 12  1  6
  6  7  1  0
  6  9  1  0
  7  8  1  0
  7 34  1  0
  7 35  1  0
  8 36  1  0
  8 37  1  0
  9 10  1  0
 11 10  1  1
 11 18  1  0
 11 12  1  0
 11 13  1  0
 13 22  1  0
 13 14  1  0
 13 38  1  1
 14 15  1  0
 14 39  1  0
 14 40  1  0
 15 22  1  0
 15 16  1  6
 15 17  1  0
 16 41  1  0
 17 18  1  0
 17 42  1  0
 17 43  1  0
 18 19  1  1
 18 20  1  0
 19 44  1  0
 19 45  1  0
 19 46  1  0
 20 21  1  0
 20 47  1  0
 20 48  1  0
 21 22  1  0
 21 49  1  0
 21 50  1  0
 22 23  1  1
M  END
>  <i_m_ct_stereo_status>  (91) 
1

>  <s_m_source_file>  (91) 
/var/tmp/pbs.5076255.sched01/tmpr6ewtwjb/42o4phu6d4.sdf

>  <i_m_source_file_index>  (91) 
4

>  <i_lp_mmshare_version>  (91) 
48012

>  <i_f3d_flags>  (91) 
0

>  <s_epik_input>  (91) 
W0NIM11bQ0gyXVtDQEBIXShbQ0gyXVtDSDJdMSlbQ0gyXVtDSDJdW0NAXTEyT09bQ0BAXTMoTzIpW0NAQEhdNFtDQEBdNShGKVtDQF0oW0NIMl00KShbT0hdKVtDSDJdW0NAXTMoW0NIM10pW0NIMl1bQ0gyXTU=

>  <s_epik_cmdline>  (91) 
J2VwaWtfcHl0aG9uJywgJy1waHQnLCAnMi4wJywgJy1waCcsICc3LjAnLCAnLXRuJywgJzgnLCAnLW1hJywgJzIwMCcsICctaW1hZScsICc8aW5maWxlLm1hZT4nLCAnLW9tYWUnLCAnPG91dGZpbGUubWFlPic=

>  <r_lp_tautomer_probability>  (91) 
1

>  <r_epik_Ionization_Penalty>  (91) 
2.01267e-07

>  <r_epik_Ionization_Penalty_Charging>  (91) 
0

>  <r_epik_Ionization_Penalty_Neutral>  (91) 
2.01267e-07

>  <r_epik_State_Penalty>  (91) 
-0

>  <r_epik_Charging_Adjusted_Penalty>  (91) 
0

>  <i_epik_Tot_Q>  (91) 
0

>  <i_epik_Tot_abs_Q>  (91) 
0

>  <s_lp_Force_Field>  (91) 
OPLS3e

>  <r_lp_Energy>  (91) 
36.2032

>  <b_lp_Chiralities_Consistent>  (91) 
1

>  <s_lp_Variant>  (91) 
30:0-2

>  <s_i_glide_gridfile>  (91) 
pfpi4k_grid

>  <i_i_glide_lignum>  (91) 
4

>  <i_i_glide_rotatable_bonds>  (91) 
2

>  <r_i_docking_score>  (91) 
-2.66448

>  <r_i_glide_ligand_efficiency>  (91) 
-0.115847

>  <r_i_glide_ligand_efficiency_sa>  (91) 
-0.329453

>  <r_i_glide_ligand_efficiency_ln>  (91) 
-0.644295

>  <r_i_glide_gscore>  (91) 
-2.66448

>  <r_i_glide_lipo>  (91) 
-0.0318652

>  <r_i_glide_hbond>  (91) 
-0.241471

>  <r_i_glide_metal>  (91) 
-0

>  <r_i_glide_rewards>  (91) 
-1.18362

>  <r_i_glide_evdw>  (91) 
-15.3765

>  <r_i_glide_ecoul>  (91) 
-2.80648

>  <r_i_glide_erotb>  (91) 
0

>  <r_i_glide_esite>  (91) 
-0.0177314

>  <r_i_glide_emodel>  (91) 
-21.1031

>  <r_i_glide_energy>  (91) 
-18.1829

>  <r_i_glide_einternal>  (91) 
1.14541

>  <r_i_glide_intrahb_reward>  (91) 
-0

>  <i_i_glide_confnum>  (91) 
2

>  <i_i_glide_posenum>  (91) 
27

>  <r_i_glide_eff_state_penalty>  (91) 
0

>  <ligand_id>  (91) 
30

>  <original_smiles>  (91) 
CCC1CCC2(CC1)OOC1(O2)C2CC3(O)CC1(C)CCC23F

>  <smiles>  (91) 
[H]OC12C([H])([H])C3([H])C4(OOC5(O4)C([H])([H])C([H])([H])C([H])(C([H])([H])C([H])([H])[H])C([H])([H])C5([H])[H])C(C([H])([H])[H])(C([H])([H])C([H])([H])C31F)C2([H])[H]

$$$$
31:0:0
     RDKit          3D

 47 50  0  0  1  0  0  0  0  0999 V2000
  -11.4177  -10.9281   -7.8738 C   0  0  0  0  0  0  0  0  0  0  0  0
  -10.7699   -9.6758   -7.8036 O   0  0  0  0  0  0  0  0  0  0  0  0
   -9.3830   -9.7243   -8.0032 C   0  0  2  0  0  0  0  0  0  0  0  0
   -8.7084   -9.7249   -6.7427 O   0  0  0  0  0  0  0  0  0  0  0  0
   -7.3988   -9.2554   -6.8297 C   0  0  2  0  0  0  0  0  0  0  0  0
   -6.5299   -9.6274   -5.8172 O   0  0  0  0  0  0  0  0  0  0  0  0
   -5.2792   -8.9458   -5.9341 C   0  0  2  0  0  0  0  0  0  0  0  0
   -4.1509   -9.9579   -5.7251 C   0  0  0  0  0  0  0  0  0  0  0  0
   -5.2198   -7.8681   -4.8406 C   0  0  0  0  0  0  0  0  0  0  0  0
   -6.5547   -7.1454   -4.6814 C   0  0  0  0  0  0  0  0  0  0  0  0
   -7.0419   -6.6073   -6.0240 C   0  0  2  0  0  0  0  0  0  0  0  0
   -8.0812   -5.4441   -5.9519 C   0  0  1  0  0  0  0  0  0  0  0  0
   -7.6540   -4.2942   -5.0167 C   0  0  0  0  0  0  0  0  0  0  0  0
   -8.3734   -4.8600   -7.3610 C   0  0  0  0  0  0  0  0  0  0  0  0
   -8.5875   -5.9180   -8.4773 C   0  0  0  0  0  0  0  0  0  0  0  0
   -8.6125   -7.3497   -7.9161 C   0  0  1  0  0  0  0  0  0  0  0  0
   -9.0362   -8.4812   -8.8708 C   0  0  1  0  0  0  0  0  0  0  0  0
   -8.0585   -8.8132  -10.0239 C   0  0  0  0  0  0  0  0  0  0  0  0
   -7.3381   -7.7135   -7.1246 C   0  0  2  0  0  0  0  0  0  0  0  0
   -6.1832   -7.6673   -7.9199 O   0  0  0  0  0  0  0  0  0  0  0  0
   -4.9890   -8.3611   -7.2280 O   0  0  0  0  0  0  0  0  0  0  0  0
  -12.4608  -10.8474   -7.5615 H   0  0  0  0  0  0  0  0  0  0  0  0
  -10.9232  -11.6461   -7.2208 H   0  0  0  0  0  0  0  0  0  0  0  0
  -11.3965  -11.3010   -8.8976 H   0  0  0  0  0  0  0  0  0  0  0  0
   -9.1047  -10.6483   -8.5150 H   0  0  0  0  0  0  0  0  0  0  0  0
   -7.0011   -9.7868   -7.7057 H   0  0  0  0  0  0  0  0  0  0  0  0
   -4.1013  -10.6888   -6.5406 H   0  0  0  0  0  0  0  0  0  0  0  0
   -4.2854  -10.4977   -4.7884 H   0  0  0  0  0  0  0  0  0  0  0  0
   -3.1859   -9.4568   -5.6635 H   0  0  0  0  0  0  0  0  0  0  0  0
   -4.9269   -8.3359   -3.8957 H   0  0  0  0  0  0  0  0  0  0  0  0
   -4.4298   -7.1444   -5.0651 H   0  0  0  0  0  0  0  0  0  0  0  0
   -7.3746   -7.8001   -4.3507 H   0  0  0  0  0  0  0  0  0  0  0  0
   -6.4305   -6.4036   -3.9014 H   0  0  0  0  0  0  0  0  0  0  0  0
   -6.1813   -6.0510   -6.3766 H   0  0  0  0  0  0  0  0  0  0  0  0
   -9.0109   -5.8525   -5.5553 H   0  0  0  0  0  0  0  0  0  0  0  0
   -6.6572   -3.9236   -5.2606 H   0  0  0  0  0  0  0  0  0  0  0  0
   -7.6313   -4.5942   -3.9671 H   0  0  0  0  0  0  0  0  0  0  0  0
   -8.3265   -3.4308   -5.0887 H   0  0  0  0  0  0  0  0  0  0  0  0
   -9.2449   -4.2032   -7.3161 H   0  0  0  0  0  0  0  0  0  0  0  0
   -7.5561   -4.1921   -7.6398 H   0  0  0  0  0  0  0  0  0  0  0  0
   -9.5255   -5.6986   -8.9911 H   0  0  0  0  0  0  0  0  0  0  0  0
   -7.8141   -5.8269   -9.2391 H   0  0  0  0  0  0  0  0  0  0  0  0
   -9.4363   -7.3094   -7.2036 H   0  0  0  0  0  0  0  0  0  0  0  0
   -9.9792   -8.1703   -9.3177 H   0  0  0  0  0  0  0  0  0  0  0  0
   -7.0760   -9.1334   -9.6443 H   0  0  0  0  0  0  0  0  0  0  0  0
   -7.9454   -7.9589  -10.6936 H   0  0  0  0  0  0  0  0  0  0  0  0
   -8.4453   -9.6066  -10.6724 H   0  0  0  0  0  0  0  0  0  0  0  0
  1  2  1  0
  1 22  1  0
  1 23  1  0
  1 24  1  0
  2  3  1  0
  3 17  1  0
  3  4  1  0
  3 25  1  6
  4  5  1  0
  5 19  1  0
  5  6  1  0
  5 26  1  6
  6  7  1  0
  7 21  1  0
  7  8  1  1
  7  9  1  0
  8 27  1  0
  8 28  1  0
  8 29  1  0
  9 10  1  0
  9 30  1  0
  9 31  1  0
 10 11  1  0
 10 32  1  0
 10 33  1  0
 11 19  1  0
 11 12  1  0
 11 34  1  6
 12 13  1  0
 12 14  1  0
 12 35  1  1
 13 36  1  0
 13 37  1  0
 13 38  1  0
 14 15  1  0
 14 39  1  0
 14 40  1  0
 15 16  1  0
 15 41  1  0
 15 42  1  0
 16 17  1  0
 16 19  1  0
 16 43  1  1
 17 18  1  0
 17 44  1  6
 18 45  1  0
 18 46  1  0
 18 47  1  0
 19 20  1  6
 20 21  1  0
M  END
>  <i_m_ct_stereo_status>  (92) 
1

>  <s_m_source_file>  (92) 
/var/tmp/pbs.5076255.sched01/tmpr6ewtwjb/42o4phu6d4.sdf

>  <i_m_source_file_index>  (92) 
5

>  <i_lp_mmshare_version>  (92) 
48012

>  <i_f3d_flags>  (92) 
0

>  <s_epik_input>  (92) 
W0NAQF0xMjNbQ0BASF00T1tDQEBIXShPW0NIM10pW0NASF0oW0NIM10pW0NAQEhdMltDSDJdW0NIMl1bQ0BIXShbQ0gzXSlbQ0BIXTFbQ0gyXVtDSDJdW0NAXShPNCkoW0NIM10pT08z

>  <s_epik_cmdline>  (92) 
J2VwaWtfcHl0aG9uJywgJy1waHQnLCAnMi4wJywgJy1waCcsICc3LjAnLCAnLXRuJywgJzgnLCAnLW1hJywgJzIwMCcsICctaW1hZScsICc8aW5maWxlLm1hZT4nLCAnLW9tYWUnLCAnPG91dGZpbGUubWFlPic=

>  <r_lp_tautomer_probability>  (92) 
1

>  <r_epik_Ionization_Penalty>  (92) 
8.70258e-13

>  <r_epik_Ionization_Penalty_Charging>  (92) 
0

>  <r_epik_Ionization_Penalty_Neutral>  (92) 
8.70258e-13

>  <r_epik_State_Penalty>  (92) 
-0

>  <r_epik_Charging_Adjusted_Penalty>  (92) 
0

>  <i_epik_Tot_Q>  (92) 
0

>  <i_epik_Tot_abs_Q>  (92) 
0

>  <s_epik_Chemistry_Notes>  (92) 
This compound contains an acetal/aminal-like group ( X-CH(R)-Y where X, Y are N, S, or O) that may be acid/base labile, releasing an aldehyde.

>  <s_lp_Force_Field>  (92) 
OPLS3e

>  <r_lp_Energy>  (92) 
63.3099

>  <b_lp_Chiralities_Consistent>  (92) 
1

>  <s_lp_Variant>  (92) 
31:0-1

>  <s_i_glide_gridfile>  (92) 
pfpi4k_grid

>  <i_i_glide_lignum>  (92) 
5

>  <i_i_glide_rotatable_bonds>  (92) 
1

>  <r_i_docking_score>  (92) 
-5.46847

>  <r_i_glide_ligand_efficiency>  (92) 
-0.260403

>  <r_i_glide_ligand_efficiency_sa>  (92) 
-0.718433

>  <r_i_glide_ligand_efficiency_ln>  (92) 
-1.35207

>  <r_i_glide_gscore>  (92) 
-5.46847

>  <r_i_glide_lipo>  (92) 
-2.28675

>  <r_i_glide_hbond>  (92) 
0

>  <r_i_glide_metal>  (92) 
-0

>  <r_i_glide_rewards>  (92) 
-2.3099

>  <r_i_glide_evdw>  (92) 
-16.6485

>  <r_i_glide_ecoul>  (92) 
-0.262676

>  <r_i_glide_erotb>  (92) 
0

>  <r_i_glide_esite>  (92) 
0

>  <r_i_glide_emodel>  (92) 
-21.3931

>  <r_i_glide_energy>  (92) 
-16.9112

>  <r_i_glide_einternal>  (92) 
2.26635

>  <r_i_glide_intrahb_reward>  (92) 
-0

>  <i_i_glide_confnum>  (92) 
1

>  <i_i_glide_posenum>  (92) 
6

>  <r_i_glide_eff_state_penalty>  (92) 
0

>  <ligand_id>  (92) 
31

>  <original_smiles>  (92) 
COC1OC2OC3(C)CCC4C(C)CCC(C1C)C24OO3

>  <smiles>  (92) 
[H]C([H])([H])OC1([H])OC2([H])OC3(C([H])([H])[H])OOC24C([H])(C([H])([H])C([H])([H])C([H])(C([H])([H])[H])C4([H])C([H])([H])C3([H])[H])C1([H])C([H])([H])[H]

$$$$
31:0:1
     RDKit          3D

 47 50  0  0  1  0  0  0  0  0999 V2000
  -11.7168   -9.5392   -7.8261 C   0  0  0  0  0  0  0  0  0  0  0  0
  -10.8351  -10.6632   -7.8384 O   0  0  0  0  0  0  0  0  0  0  0  0
   -9.4434  -10.4549   -7.9338 C   0  0  2  0  0  0  0  0  0  0  0  0
   -8.9140   -9.8260   -6.7820 O   0  0  0  0  0  0  0  0  0  0  0  0
   -7.6455   -9.2614   -6.9924 C   0  0  2  0  0  0  0  0  0  0  0  0
   -6.8574   -9.0789   -5.8707 O   0  0  0  0  0  0  0  0  0  0  0  0
   -5.7205   -8.2615   -6.1597 C   0  0  2  0  0  0  0  0  0  0  0  0
   -4.4968   -8.8677   -5.4611 C   0  0  0  0  0  0  0  0  0  0  0  0
   -6.0198   -6.8867   -5.5303 C   0  0  0  0  0  0  0  0  0  0  0  0
   -7.4580   -6.4297   -5.7700 C   0  0  0  0  0  0  0  0  0  0  0  0
   -7.8009   -6.5252   -7.2599 C   0  0  2  0  0  0  0  0  0  0  0  0
   -8.9948   -5.6493   -7.7353 C   0  0  1  0  0  0  0  0  0  0  0  0
   -8.8711   -4.1746   -7.2964 C   0  0  0  0  0  0  0  0  0  0  0  0
   -9.1461   -5.7118   -9.2844 C   0  0  0  0  0  0  0  0  0  0  0  0
   -9.0571   -7.1252   -9.9065 C   0  0  0  0  0  0  0  0  0  0  0  0
   -8.9471   -8.1923   -8.8171 C   0  0  1  0  0  0  0  0  0  0  0  0
   -9.1058   -9.6600   -9.2436 C   0  0  1  0  0  0  0  0  0  0  0  0
   -7.9110  -10.2484  -10.0366 C   0  0  0  0  0  0  0  0  0  0  0  0
   -7.7288   -7.9825   -7.8880 C   0  0  2  0  0  0  0  0  0  0  0  0
   -6.4842   -8.0155   -8.5609 O   0  0  0  0  0  0  0  0  0  0  0  0
   -5.3283   -8.2161   -7.5549 O   0  0  0  0  0  0  0  0  0  0  0  0
  -12.7325   -9.8589   -7.5747 H   0  0  0  0  0  0  0  0  0  0  0  0
  -11.7479   -9.0458   -8.7989 H   0  0  0  0  0  0  0  0  0  0  0  0
  -11.4205   -8.7953   -7.0924 H   0  0  0  0  0  0  0  0  0  0  0  0
   -9.0105  -11.4541   -7.9706 H   0  0  0  0  0  0  0  0  0  0  0  0
   -7.0814  -10.0439   -7.4969 H   0  0  0  0  0  0  0  0  0  0  0  0
   -4.2423   -9.8412   -5.8799 H   0  0  0  0  0  0  0  0  0  0  0  0
   -4.6680   -8.9939   -4.3934 H   0  0  0  0  0  0  0  0  0  0  0  0
   -3.6272   -8.2193   -5.5774 H   0  0  0  0  0  0  0  0  0  0  0  0
   -5.8837   -6.9409   -4.4474 H   0  0  0  0  0  0  0  0  0  0  0  0
   -5.3154   -6.1453   -5.8821 H   0  0  0  0  0  0  0  0  0  0  0  0
   -8.1588   -7.0402   -5.2088 H   0  0  0  0  0  0  0  0  0  0  0  0
   -7.5403   -5.4141   -5.3753 H   0  0  0  0  0  0  0  0  0  0  0  0
   -6.9903   -5.9651   -7.7248 H   0  0  0  0  0  0  0  0  0  0  0  0
   -9.9113   -6.0196   -7.2741 H   0  0  0  0  0  0  0  0  0  0  0  0
   -7.9211   -3.7522   -7.6123 H   0  0  0  0  0  0  0  0  0  0  0  0
   -8.9333   -4.0560   -6.2139 H   0  0  0  0  0  0  0  0  0  0  0  0
   -9.6523   -3.5534   -7.7317 H   0  0  0  0  0  0  0  0  0  0  0  0
  -10.1062   -5.2676   -9.5510 H   0  0  0  0  0  0  0  0  0  0  0  0
   -8.3763   -5.0911   -9.7460 H   0  0  0  0  0  0  0  0  0  0  0  0
   -9.9577   -7.3086  -10.4920 H   0  0  0  0  0  0  0  0  0  0  0  0
   -8.2263   -7.1758  -10.6219 H   0  0  0  0  0  0  0  0  0  0  0  0
   -9.8243   -8.0344   -8.2061 H   0  0  0  0  0  0  0  0  0  0  0  0
   -9.9662   -9.7511   -9.9069 H   0  0  0  0  0  0  0  0  0  0  0  0
   -6.9520  -10.1913   -9.5297 H   0  0  0  0  0  0  0  0  0  0  0  0
   -7.8226   -9.7172  -10.9785 H   0  0  0  0  0  0  0  0  0  0  0  0
   -8.0840  -11.2822  -10.3219 H   0  0  0  0  0  0  0  0  0  0  0  0
  1  2  1  0
  1 22  1  0
  1 23  1  0
  1 24  1  0
  2  3  1  0
  3 17  1  0
  3  4  1  0
  3 25  1  6
  4  5  1  0
  5 19  1  0
  5  6  1  0
  5 26  1  6
  6  7  1  0
  7 21  1  0
  7  8  1  1
  7  9  1  0
  8 27  1  0
  8 28  1  0
  8 29  1  0
  9 10  1  0
  9 30  1  0
  9 31  1  0
 10 11  1  0
 10 32  1  0
 10 33  1  0
 11 19  1  0
 11 12  1  0
 11 34  1  6
 12 13  1  0
 12 14  1  0
 12 35  1  1
 13 36  1  0
 13 37  1  0
 13 38  1  0
 14 15  1  0
 14 39  1  0
 14 40  1  0
 15 16  1  0
 15 41  1  0
 15 42  1  0
 16 17  1  0
 16 19  1  0
 16 43  1  1
 17 18  1  0
 17 44  1  6
 18 45  1  0
 18 46  1  0
 18 47  1  0
 19 20  1  6
 20 21  1  0
M  END
>  <i_m_ct_stereo_status>  (93) 
1

>  <s_m_source_file>  (93) 
/var/tmp/pbs.5076255.sched01/tmpr6ewtwjb/42o4phu6d4.sdf

>  <i_m_source_file_index>  (93) 
5

>  <i_lp_mmshare_version>  (93) 
48012

>  <i_f3d_flags>  (93) 
0

>  <s_epik_input>  (93) 
W0NAQF0xMjNbQ0BASF00T1tDQEBIXShPW0NIM10pW0NASF0oW0NIM10pW0NAQEhdMltDSDJdW0NIMl1bQ0BIXShbQ0gzXSlbQ0BIXTFbQ0gyXVtDSDJdW0NAXShPNCkoW0NIM10pT08z

>  <s_epik_cmdline>  (93) 
J2VwaWtfcHl0aG9uJywgJy1waHQnLCAnMi4wJywgJy1waCcsICc3LjAnLCAnLXRuJywgJzgnLCAnLW1hJywgJzIwMCcsICctaW1hZScsICc8aW5maWxlLm1hZT4nLCAnLW9tYWUnLCAnPG91dGZpbGUubWFlPic=

>  <r_lp_tautomer_probability>  (93) 
1

>  <r_epik_Ionization_Penalty>  (93) 
8.70258e-13

>  <r_epik_Ionization_Penalty_Charging>  (93) 
0

>  <r_epik_Ionization_Penalty_Neutral>  (93) 
8.70258e-13

>  <r_epik_State_Penalty>  (93) 
-0

>  <r_epik_Charging_Adjusted_Penalty>  (93) 
0

>  <i_epik_Tot_Q>  (93) 
0

>  <i_epik_Tot_abs_Q>  (93) 
0

>  <s_epik_Chemistry_Notes>  (93) 
This compound contains an acetal/aminal-like group ( X-CH(R)-Y where X, Y are N, S, or O) that may be acid/base labile, releasing an aldehyde.

>  <s_lp_Force_Field>  (93) 
OPLS3e

>  <r_lp_Energy>  (93) 
63.3099

>  <b_lp_Chiralities_Consistent>  (93) 
1

>  <s_lp_Variant>  (93) 
31:0-1

>  <s_i_glide_gridfile>  (93) 
pfpi4k_grid

>  <i_i_glide_lignum>  (93) 
5

>  <i_i_glide_rotatable_bonds>  (93) 
1

>  <r_i_docking_score>  (93) 
-4.99566

>  <r_i_glide_ligand_efficiency>  (93) 
-0.237888

>  <r_i_glide_ligand_efficiency_sa>  (93) 
-0.656316

>  <r_i_glide_ligand_efficiency_ln>  (93) 
-1.23517

>  <r_i_glide_gscore>  (93) 
-4.99566

>  <r_i_glide_lipo>  (93) 
-1.69417

>  <r_i_glide_hbond>  (93) 
0

>  <r_i_glide_metal>  (93) 
-0

>  <r_i_glide_rewards>  (93) 
-2.3977

>  <r_i_glide_evdw>  (93) 
-19.2411

>  <r_i_glide_ecoul>  (93) 
0.388449

>  <r_i_glide_erotb>  (93) 
0

>  <r_i_glide_esite>  (93) 
0

>  <r_i_glide_emodel>  (93) 
-20.9033

>  <r_i_glide_energy>  (93) 
-18.8526

>  <r_i_glide_einternal>  (93) 
5.35439

>  <r_i_glide_intrahb_reward>  (93) 
-0

>  <i_i_glide_confnum>  (93) 
1

>  <i_i_glide_posenum>  (93) 
20

>  <r_i_glide_eff_state_penalty>  (93) 
0

>  <ligand_id>  (93) 
31

>  <original_smiles>  (93) 
COC1OC2OC3(C)CCC4C(C)CCC(C1C)C24OO3

>  <smiles>  (93) 
[H]C([H])([H])OC1([H])OC2([H])OC3(C([H])([H])[H])OOC24C([H])(C([H])([H])C([H])([H])C([H])(C([H])([H])[H])C4([H])C([H])([H])C3([H])[H])C1([H])C([H])([H])[H]

$$$$
31:0:2
     RDKit          3D

 47 50  0  0  1  0  0  0  0  0999 V2000
    4.4742   -1.2533    7.1127 C   0  0  0  0  0  0  0  0  0  0  0  0
    5.4906   -0.7465    6.2434 O   0  0  0  0  0  0  0  0  0  0  0  0
    5.0971    0.0320    5.1447 C   0  0  2  0  0  0  0  0  0  0  0  0
    4.1337    1.0076    5.5064 O   0  0  0  0  0  0  0  0  0  0  0  0
    3.4470    1.5432    4.4192 C   0  0  2  0  0  0  0  0  0  0  0  0
    2.8916    2.7778    4.6126 O   0  0  0  0  0  0  0  0  0  0  0  0
    1.9846    3.1191    3.5782 C   0  0  2  0  0  0  0  0  0  0  0  0
    2.2278    4.5824    3.2105 C   0  0  0  0  0  0  0  0  0  0  0  0
    0.5870    2.9550    4.1867 C   0  0  0  0  0  0  0  0  0  0  0  0
    0.4639    1.7024    5.0605 C   0  0  0  0  0  0  0  0  0  0  0  0
    0.9082    0.4859    4.2521 C   0  0  2  0  0  0  0  0  0  0  0  0
    0.3848   -0.9004    4.7559 C   0  0  1  0  0  0  0  0  0  0  0  0
   -1.1499   -0.9281    4.9205 C   0  0  0  0  0  0  0  0  0  0  0  0
    0.8137   -2.0445    3.7985 C   0  0  0  0  0  0  0  0  0  0  0  0
    2.2984   -2.0173    3.3708 C   0  0  0  0  0  0  0  0  0  0  0  0
    3.0596   -0.8920    4.1006 C   0  0  1  0  0  0  0  0  0  0  0  0
    4.5836   -0.8952    3.9811 C   0  0  1  0  0  0  0  0  0  0  0  0
    5.1412   -0.5043    2.5839 C   0  0  0  0  0  0  0  0  0  0  0  0
    2.4333    0.4925    3.8201 C   0  0  2  0  0  0  0  0  0  0  0  0
    2.3991    0.8803    2.4601 O   0  0  0  0  0  0  0  0  0  0  0  0
    2.1821    2.4068    2.3214 O   0  0  0  0  0  0  0  0  0  0  0  0
    4.9322   -1.6501    8.0280 H   0  0  0  0  0  0  0  0  0  0  0  0
    3.8697   -2.0074    6.6219 H   0  0  0  0  0  0  0  0  0  0  0  0
    3.8131   -0.4594    7.4493 H   0  0  0  0  0  0  0  0  0  0  0  0
    6.0107    0.5407    4.8308 H   0  0  0  0  0  0  0  0  0  0  0  0
    4.2114    1.7610    3.6640 H   0  0  0  0  0  0  0  0  0  0  0  0
    3.2194    4.7273    2.7740 H   0  0  0  0  0  0  0  0  0  0  0  0
    2.1373    5.2361    4.0817 H   0  0  0  0  0  0  0  0  0  0  0  0
    1.4876    4.9179    2.4882 H   0  0  0  0  0  0  0  0  0  0  0  0
    0.3589    3.8074    4.8312 H   0  0  0  0  0  0  0  0  0  0  0  0
   -0.1611    2.9414    3.3929 H   0  0  0  0  0  0  0  0  0  0  0  0
    1.0643    1.7895    5.9711 H   0  0  0  0  0  0  0  0  0  0  0  0
   -0.5780    1.6435    5.3726 H   0  0  0  0  0  0  0  0  0  0  0  0
    0.3397    0.5753    3.3227 H   0  0  0  0  0  0  0  0  0  0  0  0
    0.7956   -1.0911    5.7456 H   0  0  0  0  0  0  0  0  0  0  0  0
   -1.6495   -0.6155    4.0043 H   0  0  0  0  0  0  0  0  0  0  0  0
   -1.5017   -0.2619    5.7112 H   0  0  0  0  0  0  0  0  0  0  0  0
   -1.5204   -1.9319    5.1485 H   0  0  0  0  0  0  0  0  0  0  0  0
    0.5956   -3.0102    4.2642 H   0  0  0  0  0  0  0  0  0  0  0  0
    0.2199   -2.0105    2.8929 H   0  0  0  0  0  0  0  0  0  0  0  0
    2.7633   -2.9721    3.6093 H   0  0  0  0  0  0  0  0  0  0  0  0
    2.3718   -1.9295    2.2832 H   0  0  0  0  0  0  0  0  0  0  0  0
    2.9201   -1.1062    5.1409 H   0  0  0  0  0  0  0  0  0  0  0  0
    4.9410   -1.8915    4.1993 H   0  0  0  0  0  0  0  0  0  0  0  0
    4.8049    0.4740    2.2419 H   0  0  0  0  0  0  0  0  0  0  0  0
    4.8469   -1.2352    1.8261 H   0  0  0  0  0  0  0  0  0  0  0  0
    6.2298   -0.5160    2.5372 H   0  0  0  0  0  0  0  0  0  0  0  0
  1  2  1  0
  1 22  1  0
  1 23  1  0
  1 24  1  0
  2  3  1  0
  3 17  1  0
  3  4  1  0
  3 25  1  6
  4  5  1  0
  5 19  1  0
  5  6  1  0
  5 26  1  6
  6  7  1  0
  7 21  1  0
  7  8  1  6
  7  9  1  0
  8 27  1  0
  8 28  1  0
  8 29  1  0
  9 10  1  0
  9 30  1  0
  9 31  1  0
 10 11  1  0
 10 32  1  0
 10 33  1  0
 11 19  1  0
 11 12  1  0
 11 34  1  6
 12 13  1  0
 12 14  1  0
 12 35  1  1
 13 36  1  0
 13 37  1  0
 13 38  1  0
 14 15  1  0
 14 39  1  0
 14 40  1  0
 15 16  1  0
 15 41  1  0
 15 42  1  0
 16 17  1  0
 16 19  1  0
 16 43  1  1
 17 18  1  0
 17 44  1  1
 18 45  1  0
 18 46  1  0
 18 47  1  0
 19 20  1  6
 20 21  1  0
M  END
>  <i_m_ct_stereo_status>  (94) 
1

>  <s_m_source_file>  (94) 
/var/tmp/pbs.5076255.sched01/tmpr6ewtwjb/42o4phu6d4.sdf

>  <i_m_source_file_index>  (94) 
5

>  <i_lp_mmshare_version>  (94) 
48012

>  <i_f3d_flags>  (94) 
0

>  <s_epik_input>  (94) 
W0NAQF0xMjNbQ0BASF00T1tDQEBIXShPW0NIM10pW0NASF0oW0NIM10pW0NAQEhdMltDSDJdW0NIMl1bQ0BIXShbQ0gzXSlbQ0BIXTFbQ0gyXVtDSDJdW0NAXShPNCkoW0NIM10pT08z

>  <s_epik_cmdline>  (94) 
J2VwaWtfcHl0aG9uJywgJy1waHQnLCAnMi4wJywgJy1waCcsICc3LjAnLCAnLXRuJywgJzgnLCAnLW1hJywgJzIwMCcsICctaW1hZScsICc8aW5maWxlLm1hZT4nLCAnLW9tYWUnLCAnPG91dGZpbGUubWFlPic=

>  <r_lp_tautomer_probability>  (94) 
1

>  <r_epik_Ionization_Penalty>  (94) 
8.70258e-13

>  <r_epik_Ionization_Penalty_Charging>  (94) 
0

>  <r_epik_Ionization_Penalty_Neutral>  (94) 
8.70258e-13

>  <r_epik_State_Penalty>  (94) 
-0

>  <r_epik_Charging_Adjusted_Penalty>  (94) 
0

>  <i_epik_Tot_Q>  (94) 
0

>  <i_epik_Tot_abs_Q>  (94) 
0

>  <s_epik_Chemistry_Notes>  (94) 
This compound contains an acetal/aminal-like group ( X-CH(R)-Y where X, Y are N, S, or O) that may be acid/base labile, releasing an aldehyde.

>  <s_lp_Force_Field>  (94) 
OPLS3e

>  <r_lp_Energy>  (94) 
63.3099

>  <b_lp_Chiralities_Consistent>  (94) 
1

>  <s_lp_Variant>  (94) 
31:0-1

>  <s_i_glide_gridfile>  (94) 
pfpi4k_grid

>  <i_i_glide_lignum>  (94) 
5

>  <i_i_glide_rotatable_bonds>  (94) 
1

>  <r_i_docking_score>  (94) 
-2.51593

>  <r_i_glide_ligand_efficiency>  (94) 
-0.119806

>  <r_i_glide_ligand_efficiency_sa>  (94) 
-0.330537

>  <r_i_glide_ligand_efficiency_ln>  (94) 
-0.622059

>  <r_i_glide_gscore>  (94) 
-2.51593

>  <r_i_glide_lipo>  (94) 
-0.203834

>  <r_i_glide_hbond>  (94) 
0

>  <r_i_glide_metal>  (94) 
-0

>  <r_i_glide_rewards>  (94) 
-1.44629

>  <r_i_glide_evdw>  (94) 
-14.1288

>  <r_i_glide_ecoul>  (94) 
-0.81195

>  <r_i_glide_erotb>  (94) 
0

>  <r_i_glide_esite>  (94) 
-0.0375756

>  <r_i_glide_emodel>  (94) 
-15.0171

>  <r_i_glide_energy>  (94) 
-14.9408

>  <r_i_glide_einternal>  (94) 
2.89876

>  <r_i_glide_intrahb_reward>  (94) 
-0

>  <i_i_glide_confnum>  (94) 
1

>  <i_i_glide_posenum>  (94) 
7

>  <r_i_glide_eff_state_penalty>  (94) 
0

>  <ligand_id>  (94) 
31

>  <original_smiles>  (94) 
COC1OC2OC3(C)CCC4C(C)CCC(C1C)C24OO3

>  <smiles>  (94) 
[H]C([H])([H])OC1([H])OC2([H])OC3(C([H])([H])[H])OOC24C([H])(C([H])([H])C([H])([H])C([H])(C([H])([H])[H])C4([H])C([H])([H])C3([H])[H])C1([H])C([H])([H])[H]

$$$$
32:0:0
     RDKit          3D

 73 80  0  0  1  0  0  0  0  0999 V2000
    2.9957   -5.5713    9.1506 C   0  0  0  0  0  0  0  0  0  0  0  0
    1.6281   -5.6463    8.4530 C   0  0  2  0  0  0  0  0  0  0  0  0
    1.3924   -6.9937    7.7452 C   0  0  0  0  0  0  0  0  0  0  0  0
    1.6624   -8.0604    8.2783 O   0  0  0  0  0  0  0  0  0  0  0  0
    0.8397   -6.8151    6.5106 N   0  0  0  0  0  0  0  0  0  0  0  0
    0.3763   -7.9179    5.6408 C   0  0  2  0  0  0  0  0  0  0  0  0
    1.4913   -8.9686    5.3393 C   0  0  1  0  0  0  0  0  0  0  0  0
    0.8991  -10.1453    4.5383 C   0  0  0  0  0  0  0  0  0  0  0  0
    0.3269   -9.6313    3.2026 C   0  0  2  0  0  0  0  0  0  0  0  0
    1.4669   -8.9757    2.3857 C   0  0  0  0  0  0  0  0  0  0  0  0
    2.0552   -7.8028    3.1807 C   0  0  2  0  0  0  0  0  0  0  0  0
    2.6234   -8.2995    4.5293 C   0  0  0  0  0  0  0  0  0  0  0  0
    0.9576   -6.7704    3.4437 C   0  0  0  0  0  0  0  0  0  0  0  0
   -0.1849   -7.4158    4.2851 C   0  0  1  0  0  0  0  0  0  0  0  0
   -0.7860   -8.5967    3.4964 C   0  0  0  0  0  0  0  0  0  0  0  0
    0.3427   -5.4338    6.5113 C   0  0  2  0  0  0  0  0  0  0  0  0
    0.2203   -4.4422    5.3739 C   0  0  0  0  0  0  0  0  0  0  0  0
    0.5802   -3.2236    5.7874 C   0  0  0  0  0  0  0  0  0  0  0  0
    0.5223   -1.9284    4.9848 C   0  0  1  0  0  0  0  0  0  0  0  0
   -0.7404   -1.1070    5.2786 C   0  0  0  0  0  0  0  0  0  0  0  0
   -0.8625    0.0368    4.2628 C   0  0  0  0  0  0  0  0  0  0  0  0
    0.4142    0.8506    4.1375 C   0  0  0  0  0  0  0  0  0  0  0  0
    0.3340    2.1401    3.5773 C   0  0  0  0  0  0  0  0  0  0  0  0
    1.4956    2.9088    3.4141 C   0  0  0  0  0  0  0  0  0  0  0  0
    1.4214    4.1544    2.8827 O   0  0  0  0  0  0  0  0  0  0  0  0
    2.7424    2.3888    3.8103 C   0  0  0  0  0  0  0  0  0  0  0  0
    2.8295    1.0999    4.3603 C   0  0  0  0  0  0  0  0  0  0  0  0
    1.6668    0.3206    4.5411 C   0  0  0  0  0  0  0  0  0  0  0  0
    1.7987   -1.0743    5.1699 C   0  0  1  0  0  0  0  0  0  0  0  0
    2.2081   -0.9854    6.6628 C   0  0  0  0  0  0  0  0  0  0  0  0
    2.4078   -2.3714    7.3022 C   0  0  0  0  0  0  0  0  0  0  0  0
    1.1458   -3.2481    7.2015 C   0  0  1  0  0  0  0  0  0  0  0  0
    0.0786   -2.8873    8.2473 C   0  0  0  0  0  0  0  0  0  0  0  0
    1.4770   -4.7457    7.2453 C   0  0  1  0  0  0  0  0  0  0  0  0
    3.0642   -6.2982    9.9629 H   0  0  0  0  0  0  0  0  0  0  0  0
    3.1484   -4.5801    9.5761 H   0  0  0  0  0  0  0  0  0  0  0  0
    3.8235   -5.7698    8.4665 H   0  0  0  0  0  0  0  0  0  0  0  0
    0.8222   -5.5025    9.1738 H   0  0  0  0  0  0  0  0  0  0  0  0
   -0.4226   -8.4386    6.1805 H   0  0  0  0  0  0  0  0  0  0  0  0
    1.9069   -9.4112    6.2466 H   0  0  0  0  0  0  0  0  0  0  0  0
    1.6614  -10.9029    4.3565 H   0  0  0  0  0  0  0  0  0  0  0  0
    0.1230  -10.6314    5.1281 H   0  0  0  0  0  0  0  0  0  0  0  0
   -0.0863  -10.4646    2.6320 H   0  0  0  0  0  0  0  0  0  0  0  0
    2.2536   -9.7011    2.1597 H   0  0  0  0  0  0  0  0  0  0  0  0
    1.0789   -8.5970    1.4380 H   0  0  0  0  0  0  0  0  0  0  0  0
    2.8504   -7.3156    2.6168 H   0  0  0  0  0  0  0  0  0  0  0  0
    3.0394   -7.4645    5.0967 H   0  0  0  0  0  0  0  0  0  0  0  0
    3.4463   -8.9998    4.3763 H   0  0  0  0  0  0  0  0  0  0  0  0
    1.4844   -5.9618    3.9527 H   0  0  0  0  0  0  0  0  0  0  0  0
    0.5506   -6.3738    2.5116 H   0  0  0  0  0  0  0  0  0  0  0  0
   -1.0081   -6.7274    4.4731 H   0  0  0  0  0  0  0  0  0  0  0  0
   -1.2227   -8.2351    2.5643 H   0  0  0  0  0  0  0  0  0  0  0  0
   -1.6083   -9.0526    4.0570 H   0  0  0  0  0  0  0  0  0  0  0  0
   -0.6071   -5.4250    7.0608 H   0  0  0  0  0  0  0  0  0  0  0  0
   -0.2408   -4.6243    4.4208 H   0  0  0  0  0  0  0  0  0  0  0  0
    0.4673   -2.2319    3.9401 H   0  0  0  0  0  0  0  0  0  0  0  0
   -1.6349   -1.7360    5.2648 H   0  0  0  0  0  0  0  0  0  0  0  0
   -0.6680   -0.6805    6.2761 H   0  0  0  0  0  0  0  0  0  0  0  0
   -1.0685   -0.3832    3.2768 H   0  0  0  0  0  0  0  0  0  0  0  0
   -1.7118    0.6747    4.5175 H   0  0  0  0  0  0  0  0  0  0  0  0
   -0.6230    2.5252    3.2601 H   0  0  0  0  0  0  0  0  0  0  0  0
    0.8079    4.2337    2.1482 H   0  0  0  0  0  0  0  0  0  0  0  0
    3.6294    2.9726    3.6653 H   0  0  0  0  0  0  0  0  0  0  0  0
    3.7930    0.7041    4.6397 H   0  0  0  0  0  0  0  0  0  0  0  0
    2.6097   -1.5809    4.6433 H   0  0  0  0  0  0  0  0  0  0  0  0
    3.1413   -0.4261    6.7522 H   0  0  0  0  0  0  0  0  0  0  0  0
    1.4665   -0.4166    7.2235 H   0  0  0  0  0  0  0  0  0  0  0  0
    3.2478   -2.8486    6.7959 H   0  0  0  0  0  0  0  0  0  0  0  0
    2.7021   -2.2743    8.3445 H   0  0  0  0  0  0  0  0  0  0  0  0
    0.4392   -3.0945    9.2569 H   0  0  0  0  0  0  0  0  0  0  0  0
   -0.8294   -3.4725    8.0853 H   0  0  0  0  0  0  0  0  0  0  0  0
   -0.1800   -1.8346    8.1668 H   0  0  0  0  0  0  0  0  0  0  0  0
    2.3925   -4.8790    6.6431 H   0  0  0  0  0  0  0  0  0  0  0  0
  1  2  1  0
  1 35  1  0
  1 36  1  0
  1 37  1  0
  2 34  1  0
  2  3  1  0
  2 38  1  1
  3  4  2  0
  3  5  1  0
  5  6  1  0
  5 16  1  0
  6 14  1  0
  6  7  1  0
  6 39  1  1
  7 12  1  0
  7  8  1  0
  7 40  1  1
  8  9  1  0
  8 41  1  0
  8 42  1  0
  9 15  1  0
  9 10  1  0
  9 43  1  6
 10 11  1  0
 10 44  1  0
 10 45  1  0
 11 12  1  0
 11 13  1  0
 11 46  1  6
 12 47  1  0
 12 48  1  0
 13 14  1  0
 13 49  1  0
 13 50  1  0
 14 15  1  0
 14 51  1  1
 15 52  1  0
 15 53  1  0
 16 34  1  0
 16 17  1  0
 16 54  1  1
 17 18  2  0
 17 55  1  0
 18 32  1  0
 18 19  1  0
 19 29  1  0
 19 20  1  0
 19 56  1  6
 20 21  1  0
 20 57  1  0
 20 58  1  0
 21 22  1  0
 21 59  1  0
 21 60  1  0
 22 28  2  0
 22 23  1  0
 23 24  2  0
 23 61  1  0
 24 25  1  0
 24 26  1  0
 25 62  1  0
 26 27  2  0
 26 63  1  0
 27 28  1  0
 27 64  1  0
 28 29  1  0
 29 30  1  0
 29 65  1  6
 30 31  1  0
 30 66  1  0
 30 67  1  0
 31 32  1  0
 31 68  1  0
 31 69  1  0
 32 33  1  1
 32 34  1  0
 33 70  1  0
 33 71  1  0
 33 72  1  0
 34 73  1  6
M  END
>  <i_m_ct_stereo_status>  (95) 
1

>  <s_m_source_file>  (95) 
/var/tmp/pbs.5076255.sched01/tmpr6ewtwjb/42o4phu6d4.sdf

>  <i_m_source_file_index>  (95) 
6

>  <i_lp_mmshare_version>  (95) 
48012

>  <i_f3d_flags>  (95) 
0

>  <s_epik_input>  (95) 
W0NIMl0xW0NAQEhdKFtDSDJdMilbQ0gyXVtDQEhdKFtDSDJdMylbQ0gyXVtDQEBIXTJbQ0BASF0oW0NAQEhdMTMpTjRDKD1PKVtDQEBIXShbQ0gzXSlbQ0BIXTVbQ0BIXTRbQ0hdPUMoW0NAQF01NltDSDNdKVtDQEBIXTdbQ0BIXShbQ0gyXVtDSDJdNiljOGMoW0NIMl1bQ0gyXTcpW2NIXWMoW09IXSlbY0hdW2NIXTg=

>  <s_epik_cmdline>  (95) 
J2VwaWtfcHl0aG9uJywgJy1waHQnLCAnMi4wJywgJy1waCcsICc3LjAnLCAnLXRuJywgJzgnLCAnLW1hJywgJzIwMCcsICctaW1hZScsICc8aW5maWxlLm1hZT4nLCAnLW9tYWUnLCAnPG91dGZpbGUubWFlPic=

>  <r_lp_tautomer_probability>  (95) 
1

>  <r_epik_Ionization_Penalty>  (95) 
0.000186712

>  <r_epik_Ionization_Penalty_Charging>  (95) 
0

>  <r_epik_Ionization_Penalty_Neutral>  (95) 
0.000186712

>  <r_epik_State_Penalty>  (95) 
-0

>  <r_epik_Charging_Adjusted_Penalty>  (95) 
0

>  <i_epik_Tot_Q>  (95) 
0

>  <i_epik_Tot_abs_Q>  (95) 
0

>  <s_lp_Force_Field>  (95) 
OPLS3e

>  <r_lp_Energy>  (95) 
41.5794

>  <b_lp_Chiralities_Consistent>  (95) 
1

>  <s_lp_Variant>  (95) 
32:0-1

>  <s_i_glide_gridfile>  (95) 
pfpi4k_grid

>  <i_i_glide_lignum>  (95) 
6

>  <i_i_glide_rotatable_bonds>  (95) 
2

>  <r_i_docking_score>  (95) 
-2.58487

>  <r_i_glide_ligand_efficiency>  (95) 
-0.0760257

>  <r_i_glide_ligand_efficiency_sa>  (95) 
-0.246294

>  <r_i_glide_ligand_efficiency_ln>  (95) 
-0.571071

>  <r_i_glide_gscore>  (95) 
-2.58487

>  <r_i_glide_lipo>  (95) 
-0.0234831

>  <r_i_glide_hbond>  (95) 
-0.16

>  <r_i_glide_metal>  (95) 
-0

>  <r_i_glide_rewards>  (95) 
-0.288771

>  <r_i_glide_evdw>  (95) 
-26.7742

>  <r_i_glide_ecoul>  (95) 
-5.74097

>  <r_i_glide_erotb>  (95) 
0.0960011

>  <r_i_glide_esite>  (95) 
-0.00876362

>  <r_i_glide_emodel>  (95) 
-35.9654

>  <r_i_glide_energy>  (95) 
-32.5152

>  <r_i_glide_einternal>  (95) 
1.38737

>  <r_i_glide_intrahb_reward>  (95) 
-0

>  <i_i_glide_confnum>  (95) 
4

>  <i_i_glide_posenum>  (95) 
1

>  <r_i_glide_eff_state_penalty>  (95) 
0

>  <ligand_id>  (95) 
32

>  <original_smiles>  (95) 
CC1C(=O)N(C2C3CC4CC(C3)CC2C4)C2C=C3C4CCc5cc(O)ccc5C4CCC3(C)C12

>  <smiles>  (95) 
[H]Oc1c([H])c([H])c2c(c1[H])C([H])([H])C([H])([H])C1([H])C3=C([H])C4([H])N(C5([H])C6([H])C([H])([H])C7([H])C([H])([H])C([H])(C6([H])[H])C([H])([H])C5([H])C7([H])[H])C(=O)C([H])(C([H])([H])[H])C4([H])C3(C([H])([H])[H])C([H])([H])C([H])([H])C21[H]

$$$$
32:0:1
     RDKit          3D

 73 80  0  0  1  0  0  0  0  0999 V2000
    6.6899   -6.0590    2.4968 C   0  0  0  0  0  0  0  0  0  0  0  0
    5.8020   -6.2473    3.7330 C   0  0  2  0  0  0  0  0  0  0  0  0
    5.1730   -7.6534    3.8136 C   0  0  0  0  0  0  0  0  0  0  0  0
    5.8268   -8.6630    3.5844 O   0  0  0  0  0  0  0  0  0  0  0  0
    3.8596   -7.6022    4.1703 N   0  0  0  0  0  0  0  0  0  0  0  0
    3.0251   -8.7908    4.4538 C   0  0  2  0  0  0  0  0  0  0  0  0
    2.9761   -9.8100    3.2694 C   0  0  1  0  0  0  0  0  0  0  0  0
    2.2042  -11.0738    3.6980 C   0  0  0  0  0  0  0  0  0  0  0  0
    0.7620  -10.6979    4.0880 C   0  0  2  0  0  0  0  0  0  0  0  0
    0.0558  -10.0500    2.8785 C   0  0  0  0  0  0  0  0  0  0  0  0
    0.8286   -8.7836    2.4540 C   0  0  2  0  0  0  0  0  0  0  0  0
    2.2728   -9.1571    2.0604 C   0  0  0  0  0  0  0  0  0  0  0  0
    0.8529   -7.7772    3.6099 C   0  0  0  0  0  0  0  0  0  0  0  0
    1.5687   -8.4301    4.8339 C   0  0  1  0  0  0  0  0  0  0  0  0
    0.8121   -9.7063    5.2701 C   0  0  0  0  0  0  0  0  0  0  0  0
    3.6545   -6.2515    4.7044 C   0  0  2  0  0  0  0  0  0  0  0  0
    2.4263   -5.3627    4.6775 C   0  0  0  0  0  0  0  0  0  0  0  0
    2.7792   -4.1002    4.3885 C   0  0  0  0  0  0  0  0  0  0  0  0
    1.8673   -2.8910    4.3437 C   0  0  1  0  0  0  0  0  0  0  0  0
    1.8713   -2.0929    5.6595 C   0  0  0  0  0  0  0  0  0  0  0  0
    0.7472   -1.0557    5.6486 C   0  0  0  0  0  0  0  0  0  0  0  0
    0.7545   -0.1968    4.3897 C   0  0  0  0  0  0  0  0  0  0  0  0
    0.0744    1.0397    4.4080 C   0  0  0  0  0  0  0  0  0  0  0  0
    0.0289    1.8400    3.2456 C   0  0  0  0  0  0  0  0  0  0  0  0
   -0.6154    3.0408    3.2301 O   0  0  0  0  0  0  0  0  0  0  0  0
    0.6616    1.3915    2.0782 C   0  0  0  0  0  0  0  0  0  0  0  0
    1.3511    0.1673    2.0611 C   0  0  0  0  0  0  0  0  0  0  0  0
    1.4094   -0.6395    3.2161 C   0  0  0  0  0  0  0  0  0  0  0  0
    2.1732   -1.9644    3.1398 C   0  0  1  0  0  0  0  0  0  0  0  0
    3.6979   -1.7276    2.9810 C   0  0  0  0  0  0  0  0  0  0  0  0
    4.4873   -3.0454    2.8570 C   0  0  0  0  0  0  0  0  0  0  0  0
    4.2605   -3.9825    4.0661 C   0  0  1  0  0  0  0  0  0  0  0  0
    5.0866   -3.5662    5.3057 C   0  0  0  0  0  0  0  0  0  0  0  0
    4.5021   -5.4637    3.7203 C   0  0  1  0  0  0  0  0  0  0  0  0
    7.5668   -6.7065    2.5406 H   0  0  0  0  0  0  0  0  0  0  0  0
    7.0460   -5.0347    2.4320 H   0  0  0  0  0  0  0  0  0  0  0  0
    6.1693   -6.2874    1.5687 H   0  0  0  0  0  0  0  0  0  0  0  0
    6.3699   -6.0673    4.6476 H   0  0  0  0  0  0  0  0  0  0  0  0
    3.4874   -9.2929    5.3063 H   0  0  0  0  0  0  0  0  0  0  0  0
    3.9690  -10.1463    2.9671 H   0  0  0  0  0  0  0  0  0  0  0  0
    2.1947  -11.8008    2.8863 H   0  0  0  0  0  0  0  0  0  0  0  0
    2.7067  -11.5533    4.5411 H   0  0  0  0  0  0  0  0  0  0  0  0
    0.2181  -11.5998    4.3871 H   0  0  0  0  0  0  0  0  0  0  0  0
    0.0035  -10.7543    2.0393 H   0  0  0  0  0  0  0  0  0  0  0  0
   -0.9673   -9.7797    3.1412 H   0  0  0  0  0  0  0  0  0  0  0  0
    0.3317   -8.3224    1.6040 H   0  0  0  0  0  0  0  0  0  0  0  0
    2.8156   -8.2598    1.7573 H   0  0  0  0  0  0  0  0  0  0  0  0
    2.2974   -9.8261    1.2009 H   0  0  0  0  0  0  0  0  0  0  0  0
    1.3531   -6.8901    3.2437 H   0  0  0  0  0  0  0  0  0  0  0  0
   -0.1697   -7.5031    3.8877 H   0  0  0  0  0  0  0  0  0  0  0  0
    1.5718   -7.7640    5.6959 H   0  0  0  0  0  0  0  0  0  0  0  0
   -0.1965   -9.4453    5.5819 H   0  0  0  0  0  0  0  0  0  0  0  0
    1.2857  -10.1685    6.1419 H   0  0  0  0  0  0  0  0  0  0  0  0
    4.0553   -6.2233    5.7271 H   0  0  0  0  0  0  0  0  0  0  0  0
    1.4310   -5.6735    4.9790 H   0  0  0  0  0  0  0  0  0  0  0  0
    0.8636   -3.2842    4.2199 H   0  0  0  0  0  0  0  0  0  0  0  0
    1.7690   -2.7542    6.5226 H   0  0  0  0  0  0  0  0  0  0  0  0
    2.8269   -1.5789    5.7706 H   0  0  0  0  0  0  0  0  0  0  0  0
   -0.2143   -1.5747    5.6858 H   0  0  0  0  0  0  0  0  0  0  0  0
    0.8115   -0.4225    6.5335 H   0  0  0  0  0  0  0  0  0  0  0  0
   -0.4153    1.3712    5.3105 H   0  0  0  0  0  0  0  0  0  0  0  0
   -0.4902    3.5034    2.4011 H   0  0  0  0  0  0  0  0  0  0  0  0
    0.6086    1.9924    1.1861 H   0  0  0  0  0  0  0  0  0  0  0  0
    1.8237   -0.1545    1.1489 H   0  0  0  0  0  0  0  0  0  0  0  0
    1.8292   -2.4801    2.2448 H   0  0  0  0  0  0  0  0  0  0  0  0
    3.8832   -1.1284    2.0919 H   0  0  0  0  0  0  0  0  0  0  0  0
    4.0769   -1.1502    3.8231 H   0  0  0  0  0  0  0  0  0  0  0  0
    4.1726   -3.5382    1.9385 H   0  0  0  0  0  0  0  0  0  0  0  0
    5.5541   -2.8465    2.7370 H   0  0  0  0  0  0  0  0  0  0  0  0
    6.1603   -3.6701    5.1182 H   0  0  0  0  0  0  0  0  0  0  0  0
    4.8361   -4.2004    6.1563 H   0  0  0  0  0  0  0  0  0  0  0  0
    4.8737   -2.5369    5.5986 H   0  0  0  0  0  0  0  0  0  0  0  0
    4.0724   -5.5961    2.7158 H   0  0  0  0  0  0  0  0  0  0  0  0
  1  2  1  0
  1 35  1  0
  1 36  1  0
  1 37  1  0
  2 34  1  0
  2  3  1  0
  2 38  1  1
  3  4  2  0
  3  5  1  0
  5  6  1  0
  5 16  1  0
  6 14  1  0
  6  7  1  0
  6 39  1  1
  7 12  1  0
  7  8  1  0
  7 40  1  6
  8  9  1  0
  8 41  1  0
  8 42  1  0
  9 15  1  0
  9 10  1  0
  9 43  1  1
 10 11  1  0
 10 44  1  0
 10 45  1  0
 11 12  1  0
 11 13  1  0
 11 46  1  6
 12 47  1  0
 12 48  1  0
 13 14  1  0
 13 49  1  0
 13 50  1  0
 14 15  1  0
 14 51  1  1
 15 52  1  0
 15 53  1  0
 16 34  1  0
 16 17  1  0
 16 54  1  1
 17 18  2  0
 17 55  1  0
 18 32  1  0
 18 19  1  0
 19 29  1  0
 19 20  1  0
 19 56  1  6
 20 21  1  0
 20 57  1  0
 20 58  1  0
 21 22  1  0
 21 59  1  0
 21 60  1  0
 22 28  2  0
 22 23  1  0
 23 24  2  0
 23 61  1  0
 24 25  1  0
 24 26  1  0
 25 62  1  0
 26 27  2  0
 26 63  1  0
 27 28  1  0
 27 64  1  0
 28 29  1  0
 29 30  1  0
 29 65  1  6
 30 31  1  0
 30 66  1  0
 30 67  1  0
 31 32  1  0
 31 68  1  0
 31 69  1  0
 32 33  1  1
 32 34  1  0
 33 70  1  0
 33 71  1  0
 33 72  1  0
 34 73  1  6
M  END
>  <i_m_ct_stereo_status>  (96) 
1

>  <s_m_source_file>  (96) 
/var/tmp/pbs.5076255.sched01/tmpr6ewtwjb/42o4phu6d4.sdf

>  <i_m_source_file_index>  (96) 
6

>  <i_lp_mmshare_version>  (96) 
48012

>  <i_f3d_flags>  (96) 
0

>  <s_epik_input>  (96) 
W0NIMl0xW0NAQEhdKFtDSDJdMilbQ0gyXVtDQEhdKFtDSDJdMylbQ0gyXVtDQEBIXTJbQ0BASF0oW0NAQEhdMTMpTjRDKD1PKVtDQEBIXShbQ0gzXSlbQ0BIXTVbQ0BIXTRbQ0hdPUMoW0NAQF01NltDSDNdKVtDQEBIXTdbQ0BIXShbQ0gyXVtDSDJdNiljOGMoW0NIMl1bQ0gyXTcpW2NIXWMoW09IXSlbY0hdW2NIXTg=

>  <s_epik_cmdline>  (96) 
J2VwaWtfcHl0aG9uJywgJy1waHQnLCAnMi4wJywgJy1waCcsICc3LjAnLCAnLXRuJywgJzgnLCAnLW1hJywgJzIwMCcsICctaW1hZScsICc8aW5maWxlLm1hZT4nLCAnLW9tYWUnLCAnPG91dGZpbGUubWFlPic=

>  <r_lp_tautomer_probability>  (96) 
1

>  <r_epik_Ionization_Penalty>  (96) 
0.000186712

>  <r_epik_Ionization_Penalty_Charging>  (96) 
0

>  <r_epik_Ionization_Penalty_Neutral>  (96) 
0.000186712

>  <r_epik_State_Penalty>  (96) 
-0

>  <r_epik_Charging_Adjusted_Penalty>  (96) 
0

>  <i_epik_Tot_Q>  (96) 
0

>  <i_epik_Tot_abs_Q>  (96) 
0

>  <s_lp_Force_Field>  (96) 
OPLS3e

>  <r_lp_Energy>  (96) 
41.5794

>  <b_lp_Chiralities_Consistent>  (96) 
1

>  <s_lp_Variant>  (96) 
32:0-1

>  <s_i_glide_gridfile>  (96) 
pfpi4k_grid

>  <i_i_glide_lignum>  (96) 
6

>  <i_i_glide_rotatable_bonds>  (96) 
2

>  <r_i_docking_score>  (96) 
-2.49406

>  <r_i_glide_ligand_efficiency>  (96) 
-0.0733547

>  <r_i_glide_ligand_efficiency_sa>  (96) 
-0.237641

>  <r_i_glide_ligand_efficiency_ln>  (96) 
-0.551008

>  <r_i_glide_gscore>  (96) 
-2.49406

>  <r_i_glide_lipo>  (96) 
-0.131803

>  <r_i_glide_hbond>  (96) 
-0.16

>  <r_i_glide_metal>  (96) 
-0

>  <r_i_glide_rewards>  (96) 
-0.288771

>  <r_i_glide_evdw>  (96) 
-30.0833

>  <r_i_glide_ecoul>  (96) 
-3.36877

>  <r_i_glide_erotb>  (96) 
0.0960011

>  <r_i_glide_esite>  (96) 
-9.15418e-06

>  <r_i_glide_emodel>  (96) 
-38.447

>  <r_i_glide_energy>  (96) 
-33.452

>  <r_i_glide_einternal>  (96) 
0.116203

>  <r_i_glide_intrahb_reward>  (96) 
-0

>  <i_i_glide_confnum>  (96) 
1

>  <i_i_glide_posenum>  (96) 
27

>  <r_i_glide_eff_state_penalty>  (96) 
0

>  <ligand_id>  (96) 
32

>  <original_smiles>  (96) 
CC1C(=O)N(C2C3CC4CC(C3)CC2C4)C2C=C3C4CCc5cc(O)ccc5C4CCC3(C)C12

>  <smiles>  (96) 
[H]Oc1c([H])c([H])c2c(c1[H])C([H])([H])C([H])([H])C1([H])C3=C([H])C4([H])N(C5([H])C6([H])C([H])([H])C7([H])C([H])([H])C([H])(C6([H])[H])C([H])([H])C5([H])C7([H])[H])C(=O)C([H])(C([H])([H])[H])C4([H])C3(C([H])([H])[H])C([H])([H])C([H])([H])C21[H]

$$$$
32:0:2
     RDKit          3D

 73 80  0  0  1  0  0  0  0  0999 V2000
    4.5062   -4.6435   -0.2528 C   0  0  0  0  0  0  0  0  0  0  0  0
    4.4375   -4.9368    1.2521 C   0  0  2  0  0  0  0  0  0  0  0  0
    3.8753   -6.3382    1.5696 C   0  0  0  0  0  0  0  0  0  0  0  0
    4.2231   -7.3333    0.9357 O   0  0  0  0  0  0  0  0  0  0  0  0
    2.9970   -6.3169    2.6052 N   0  0  0  0  0  0  0  0  0  0  0  0
    2.3884   -7.5264    3.2111 C   0  0  2  0  0  0  0  0  0  0  0  0
    1.5870   -8.3987    2.1963 C   0  0  1  0  0  0  0  0  0  0  0  0
    1.1199   -9.7026    2.8824 C   0  0  0  0  0  0  0  0  0  0  0  0
    0.2064   -9.3673    4.0744 C   0  0  2  0  0  0  0  0  0  0  0  0
   -1.0344   -8.5914    3.5586 C   0  0  0  0  0  0  0  0  0  0  0  0
   -0.5688   -7.2910    2.8777 C   0  0  2  0  0  0  0  0  0  0  0  0
    0.3636   -7.5988    1.6933 C   0  0  0  0  0  0  0  0  0  0  0  0
    0.1955   -6.4187    3.8861 C   0  0  0  0  0  0  0  0  0  0  0  0
    1.4444   -7.2000    4.3946 C   0  0  1  0  0  0  0  0  0  0  0  0
    1.0024   -8.5118    5.0864 C   0  0  0  0  0  0  0  0  0  0  0  0
    3.1983   -5.0143    3.2437 C   0  0  2  0  0  0  0  0  0  0  0  0
    2.2215   -4.1124    3.9781 C   0  0  0  0  0  0  0  0  0  0  0  0
    2.4023   -2.8615    3.6359 C   0  0  0  0  0  0  0  0  0  0  0  0
    1.6718   -1.6303    4.1792 C   0  0  1  0  0  0  0  0  0  0  0  0
    2.4395   -0.9625    5.3188 C   0  0  0  0  0  0  0  0  0  0  0  0
    1.5471    0.0767    6.0055 C   0  0  0  0  0  0  0  0  0  0  0  0
    0.8947    1.0314    5.0223 C   0  0  0  0  0  0  0  0  0  0  0  0
    0.3986    2.2577    5.5180 C   0  0  0  0  0  0  0  0  0  0  0  0
   -0.2334    3.1550    4.6371 C   0  0  0  0  0  0  0  0  0  0  0  0
   -0.6487    4.3723    5.0933 O   0  0  0  0  0  0  0  0  0  0  0  0
   -0.3983    2.8170    3.2842 C   0  0  0  0  0  0  0  0  0  0  0  0
    0.1020    1.6004    2.7822 C   0  0  0  0  0  0  0  0  0  0  0  0
    0.7638    0.6983    3.6500 C   0  0  0  0  0  0  0  0  0  0  0  0
    1.3093   -0.6183    3.0744 C   0  0  1  0  0  0  0  0  0  0  0  0
    2.4966   -0.3674    2.1136 C   0  0  0  0  0  0  0  0  0  0  0  0
    3.0212   -1.6684    1.4781 C   0  0  0  0  0  0  0  0  0  0  0  0
    3.4630   -2.7060    2.5314 C   0  0  1  0  0  0  0  0  0  0  0  0
    4.8464   -2.4041    3.1348 C   0  0  0  0  0  0  0  0  0  0  0  0
    3.3925   -4.1526    2.0162 C   0  0  1  0  0  0  0  0  0  0  0  0
    5.2133   -5.3054   -0.7521 H   0  0  0  0  0  0  0  0  0  0  0  0
    4.8145   -3.6145   -0.4205 H   0  0  0  0  0  0  0  0  0  0  0  0
    3.5289   -4.7838   -0.7138 H   0  0  0  0  0  0  0  0  0  0  0  0
    5.4211   -4.8564    1.7132 H   0  0  0  0  0  0  0  0  0  0  0  0
    3.2173   -8.1303    3.5855 H   0  0  0  0  0  0  0  0  0  0  0  0
    2.1866   -8.7174    1.3452 H   0  0  0  0  0  0  0  0  0  0  0  0
    0.5832  -10.3313    2.1706 H   0  0  0  0  0  0  0  0  0  0  0  0
    1.9807  -10.2783    3.2219 H   0  0  0  0  0  0  0  0  0  0  0  0
   -0.1315  -10.2905    4.5541 H   0  0  0  0  0  0  0  0  0  0  0  0
   -1.6169   -9.2008    2.8600 H   0  0  0  0  0  0  0  0  0  0  0  0
   -1.6854   -8.3391    4.3980 H   0  0  0  0  0  0  0  0  0  0  0  0
   -1.4371   -6.7477    2.5230 H   0  0  0  0  0  0  0  0  0  0  0  0
    0.7002   -6.6812    1.2145 H   0  0  0  0  0  0  0  0  0  0  0  0
   -0.1761   -8.1430    0.9268 H   0  0  0  0  0  0  0  0  0  0  0  0
    0.4403   -5.5046    3.3612 H   0  0  0  0  0  0  0  0  0  0  0  0
   -0.4490   -6.1636    4.7275 H   0  0  0  0  0  0  0  0  0  0  0  0
    1.9955   -6.6376    5.1425 H   0  0  0  0  0  0  0  0  0  0  0  0
    0.3887   -8.2710    5.9503 H   0  0  0  0  0  0  0  0  0  0  0  0
    1.8639   -9.0683    5.4730 H   0  0  0  0  0  0  0  0  0  0  0  0
    4.0905   -5.0904    3.8696 H   0  0  0  0  0  0  0  0  0  0  0  0
    1.5371   -4.4577    4.7545 H   0  0  0  0  0  0  0  0  0  0  0  0
    0.7470   -2.0201    4.5982 H   0  0  0  0  0  0  0  0  0  0  0  0
    2.7950   -1.6932    6.0482 H   0  0  0  0  0  0  0  0  0  0  0  0
    3.3188   -0.4608    4.9214 H   0  0  0  0  0  0  0  0  0  0  0  0
    0.7470   -0.4410    6.5359 H   0  0  0  0  0  0  0  0  0  0  0  0
    2.1215    0.6321    6.7516 H   0  0  0  0  0  0  0  0  0  0  0  0
    0.5241    2.5170    6.5590 H   0  0  0  0  0  0  0  0  0  0  0  0
   -0.6313    4.9939    4.3833 H   0  0  0  0  0  0  0  0  0  0  0  0
   -0.8934    3.4945    2.6026 H   0  0  0  0  0  0  0  0  0  0  0  0
   -0.0184    1.3670    1.7353 H   0  0  0  0  0  0  0  0  0  0  0  0
    0.5063   -1.0520    2.4785 H   0  0  0  0  0  0  0  0  0  0  0  0
    2.1879    0.3049    1.3153 H   0  0  0  0  0  0  0  0  0  0  0  0
    3.3047    0.1406    2.6372 H   0  0  0  0  0  0  0  0  0  0  0  0
    2.2215   -2.0798    0.8608 H   0  0  0  0  0  0  0  0  0  0  0  0
    3.8475   -1.4665    0.7989 H   0  0  0  0  0  0  0  0  0  0  0  0
    5.6251   -2.4961    2.3765 H   0  0  0  0  0  0  0  0  0  0  0  0
    5.0693   -3.1111    3.9337 H   0  0  0  0  0  0  0  0  0  0  0  0
    4.8768   -1.4084    3.5747 H   0  0  0  0  0  0  0  0  0  0  0  0
    2.4711   -4.2020    1.4199 H   0  0  0  0  0  0  0  0  0  0  0  0
  1  2  1  0
  1 35  1  0
  1 36  1  0
  1 37  1  0
  2 34  1  0
  2  3  1  0
  2 38  1  1
  3  4  2  0
  3  5  1  0
  5  6  1  0
  5 16  1  0
  6 14  1  0
  6  7  1  0
  6 39  1  1
  7 12  1  0
  7  8  1  0
  7 40  1  6
  8  9  1  0
  8 41  1  0
  8 42  1  0
  9 15  1  0
  9 10  1  0
  9 43  1  1
 10 11  1  0
 10 44  1  0
 10 45  1  0
 11 12  1  0
 11 13  1  0
 11 46  1  6
 12 47  1  0
 12 48  1  0
 13 14  1  0
 13 49  1  0
 13 50  1  0
 14 15  1  0
 14 51  1  1
 15 52  1  0
 15 53  1  0
 16 34  1  0
 16 17  1  0
 16 54  1  1
 17 18  2  0
 17 55  1  0
 18 32  1  0
 18 19  1  0
 19 29  1  0
 19 20  1  0
 19 56  1  1
 20 21  1  0
 20 57  1  0
 20 58  1  0
 21 22  1  0
 21 59  1  0
 21 60  1  0
 22 28  2  0
 22 23  1  0
 23 24  2  0
 23 61  1  0
 24 25  1  0
 24 26  1  0
 25 62  1  0
 26 27  2  0
 26 63  1  0
 27 28  1  0
 27 64  1  0
 28 29  1  0
 29 30  1  0
 29 65  1  6
 30 31  1  0
 30 66  1  0
 30 67  1  0
 31 32  1  0
 31 68  1  0
 31 69  1  0
 32 33  1  1
 32 34  1  0
 33 70  1  0
 33 71  1  0
 33 72  1  0
 34 73  1  6
M  END
>  <i_m_ct_stereo_status>  (97) 
1

>  <s_m_source_file>  (97) 
/var/tmp/pbs.5076255.sched01/tmpr6ewtwjb/42o4phu6d4.sdf

>  <i_m_source_file_index>  (97) 
6

>  <i_lp_mmshare_version>  (97) 
48012

>  <i_f3d_flags>  (97) 
0

>  <s_epik_input>  (97) 
W0NIMl0xW0NAQEhdKFtDSDJdMilbQ0gyXVtDQEhdKFtDSDJdMylbQ0gyXVtDQEBIXTJbQ0BASF0oW0NAQEhdMTMpTjRDKD1PKVtDQEBIXShbQ0gzXSlbQ0BIXTVbQ0BIXTRbQ0hdPUMoW0NAQF01NltDSDNdKVtDQEBIXTdbQ0BIXShbQ0gyXVtDSDJdNiljOGMoW0NIMl1bQ0gyXTcpW2NIXWMoW09IXSlbY0hdW2NIXTg=

>  <s_epik_cmdline>  (97) 
J2VwaWtfcHl0aG9uJywgJy1waHQnLCAnMi4wJywgJy1waCcsICc3LjAnLCAnLXRuJywgJzgnLCAnLW1hJywgJzIwMCcsICctaW1hZScsICc8aW5maWxlLm1hZT4nLCAnLW9tYWUnLCAnPG91dGZpbGUubWFlPic=

>  <r_lp_tautomer_probability>  (97) 
1

>  <r_epik_Ionization_Penalty>  (97) 
0.000186712

>  <r_epik_Ionization_Penalty_Charging>  (97) 
0

>  <r_epik_Ionization_Penalty_Neutral>  (97) 
0.000186712

>  <r_epik_State_Penalty>  (97) 
-0

>  <r_epik_Charging_Adjusted_Penalty>  (97) 
0

>  <i_epik_Tot_Q>  (97) 
0

>  <i_epik_Tot_abs_Q>  (97) 
0

>  <s_lp_Force_Field>  (97) 
OPLS3e

>  <r_lp_Energy>  (97) 
41.5794

>  <b_lp_Chiralities_Consistent>  (97) 
1

>  <s_lp_Variant>  (97) 
32:0-1

>  <s_i_glide_gridfile>  (97) 
pfpi4k_grid

>  <i_i_glide_lignum>  (97) 
6

>  <i_i_glide_rotatable_bonds>  (97) 
2

>  <r_i_docking_score>  (97) 
-2.2025

>  <r_i_glide_ligand_efficiency>  (97) 
-0.0647795

>  <r_i_glide_ligand_efficiency_sa>  (97) 
-0.209861

>  <r_i_glide_ligand_efficiency_ln>  (97) 
-0.486595

>  <r_i_glide_gscore>  (97) 
-2.2025

>  <r_i_glide_lipo>  (97) 
-0.155657

>  <r_i_glide_hbond>  (97) 
0

>  <r_i_glide_metal>  (97) 
-0

>  <r_i_glide_rewards>  (97) 
-0.357751

>  <r_i_glide_evdw>  (97) 
-32.5732

>  <r_i_glide_ecoul>  (97) 
-1.03543

>  <r_i_glide_erotb>  (97) 
0.0960011

>  <r_i_glide_esite>  (97) 
-0.00112076

>  <r_i_glide_emodel>  (97) 
-36.6885

>  <r_i_glide_energy>  (97) 
-33.6087

>  <r_i_glide_einternal>  (97) 
1.27648

>  <r_i_glide_intrahb_reward>  (97) 
-0

>  <i_i_glide_confnum>  (97) 
1

>  <i_i_glide_posenum>  (97) 
2

>  <r_i_glide_eff_state_penalty>  (97) 
0

>  <ligand_id>  (97) 
32

>  <original_smiles>  (97) 
CC1C(=O)N(C2C3CC4CC(C3)CC2C4)C2C=C3C4CCc5cc(O)ccc5C4CCC3(C)C12

>  <smiles>  (97) 
[H]Oc1c([H])c([H])c2c(c1[H])C([H])([H])C([H])([H])C1([H])C3=C([H])C4([H])N(C5([H])C6([H])C([H])([H])C7([H])C([H])([H])C([H])(C6([H])[H])C([H])([H])C5([H])C7([H])[H])C(=O)C([H])(C([H])([H])[H])C4([H])C3(C([H])([H])[H])C([H])([H])C([H])([H])C21[H]

$$$$
33:0:0
     RDKit          3D

 69 75  0  0  1  0  0  0  0  0999 V2000
    2.1186   -5.5423    2.2383 C   0  0  0  0  0  0  0  0  0  0  0  0
    2.8422   -4.1902    1.9683 C   0  0  2  0  0  0  0  0  0  0  0  0
    3.9325   -4.4639    0.9411 C   0  0  1  0  0  0  0  0  0  0  0  0
    5.0081   -5.5028    1.2676 C   0  0  1  0  0  0  0  0  0  0  0  0
    6.4667   -5.3485    0.7482 C   0  0  2  0  0  0  0  0  0  0  0  0
    6.9092   -6.1822    1.9194 C   0  0  0  0  0  0  0  0  0  0  0  0
    5.8753   -5.2104    2.5232 C   0  0  2  0  0  0  0  0  0  0  0  0
    5.6471   -5.4265    4.0868 C   0  0  0  0  0  0  0  0  0  0  0  0
    4.2470   -5.5069    4.8422 C   0  0  0  0  0  0  0  0  0  0  0  0
    3.5561   -4.1915    5.3410 C   0  0  2  0  0  0  0  0  0  0  0  0
    2.8570   -4.1061    6.7145 C   0  0  2  0  0  0  0  0  0  0  0  0
    1.5109   -4.8731    6.8245 C   0  0  0  0  0  0  0  0  0  0  0  0
    0.2626   -4.1074    6.3164 C   0  0  0  0  0  0  0  0  0  0  0  0
   -0.8655   -4.5420    6.5404 O   0  0  0  0  0  0  0  0  0  0  0  0
    0.5026   -2.9241    5.6447 O   0  0  0  0  0  0  0  0  0  0  0  0
    1.8375   -2.4467    5.3970 C   0  0  1  0  0  0  0  0  0  0  0  0
    2.5749   -2.5955    6.7435 C   0  0  0  0  0  0  0  0  0  0  0  0
    2.5384   -3.4298    4.4157 C   0  0  1  0  0  0  0  0  0  0  0  0
    3.1536   -2.9735    3.0522 C   0  0  1  0  0  0  0  0  0  0  0  0
    4.5532   -2.3883    3.5313 C   0  0  0  0  0  0  0  0  0  0  0  0
    2.7534   -1.7178    2.2114 C   0  0  0  0  0  0  0  0  0  0  0  0
    3.7581   -1.3048    1.0125 C   0  0  0  0  0  0  0  0  0  0  0  0
    4.7909   -2.2640    0.1917 C   0  0  1  0  0  0  0  0  0  0  0  0
    5.1887   -1.3588   -1.0130 C   0  0  0  0  0  0  0  0  0  0  0  0
    6.2180   -2.6627    0.9146 C   0  0  0  0  0  0  0  0  0  0  0  0
    6.6392   -4.0836    1.6144 C   0  0  2  0  0  0  0  0  0  0  0  0
    4.0546   -3.5585   -0.3258 C   0  0  0  0  0  0  0  0  0  0  0  0
    4.8314   -4.2376   -1.4836 C   0  0  0  0  0  0  0  0  0  0  0  0
    2.6656   -3.2757   -0.9629 C   0  0  0  0  0  0  0  0  0  0  0  0
    2.7564   -6.3281    2.6155 H   0  0  0  0  0  0  0  0  0  0  0  0
    1.7853   -5.9441    1.2799 H   0  0  0  0  0  0  0  0  0  0  0  0
    1.2041   -5.4878    2.8246 H   0  0  0  0  0  0  0  0  0  0  0  0
    2.0046   -3.7967    1.4104 H   0  0  0  0  0  0  0  0  0  0  0  0
    4.3820   -3.8088    1.5861 H   0  0  0  0  0  0  0  0  0  0  0  0
    4.6474   -6.5302    1.1903 H   0  0  0  0  0  0  0  0  0  0  0  0
    6.8523   -5.5164   -0.2448 H   0  0  0  0  0  0  0  0  0  0  0  0
    6.6326   -7.2365    1.8872 H   0  0  0  0  0  0  0  0  0  0  0  0
    7.9431   -6.0578    2.2497 H   0  0  0  0  0  0  0  0  0  0  0  0
    6.0884   -6.4013    4.3017 H   0  0  0  0  0  0  0  0  0  0  0  0
    6.3057   -4.7646    4.6492 H   0  0  0  0  0  0  0  0  0  0  0  0
    3.5538   -6.2201    4.4213 H   0  0  0  0  0  0  0  0  0  0  0  0
    4.5085   -6.0143    5.7744 H   0  0  0  0  0  0  0  0  0  0  0  0
    4.4381   -3.6029    5.5863 H   0  0  0  0  0  0  0  0  0  0  0  0
    3.5289   -4.4003    7.5225 H   0  0  0  0  0  0  0  0  0  0  0  0
    1.5726   -5.8301    6.3052 H   0  0  0  0  0  0  0  0  0  0  0  0
    1.3231   -5.0998    7.8739 H   0  0  0  0  0  0  0  0  0  0  0  0
    1.8275   -1.4175    5.0382 H   0  0  0  0  0  0  0  0  0  0  0  0
    1.9784   -2.2810    7.6016 H   0  0  0  0  0  0  0  0  0  0  0  0
    3.4970   -2.0057    6.7602 H   0  0  0  0  0  0  0  0  0  0  0  0
    1.7603   -4.1283    4.1789 H   0  0  0  0  0  0  0  0  0  0  0  0
    5.0487   -1.6387    2.9442 H   0  0  0  0  0  0  0  0  0  0  0  0
    5.3402   -3.0845    3.7253 H   0  0  0  0  0  0  0  0  0  0  0  0
    4.4178   -1.8069    4.4443 H   0  0  0  0  0  0  0  0  0  0  0  0
    1.7363   -1.7999    1.8281 H   0  0  0  0  0  0  0  0  0  0  0  0
    2.6806   -0.8566    2.8762 H   0  0  0  0  0  0  0  0  0  0  0  0
    3.1026   -0.8276    0.2799 H   0  0  0  0  0  0  0  0  0  0  0  0
    4.3403   -0.4477    1.3577 H   0  0  0  0  0  0  0  0  0  0  0  0
    5.8917   -1.8336   -1.6974 H   0  0  0  0  0  0  0  0  0  0  0  0
    5.6650   -0.4434   -0.6581 H   0  0  0  0  0  0  0  0  0  0  0  0
    4.3246   -1.0579   -1.6097 H   0  0  0  0  0  0  0  0  0  0  0  0
    6.9478   -2.5920    0.1079 H   0  0  0  0  0  0  0  0  0  0  0  0
    6.5490   -1.8321    1.5354 H   0  0  0  0  0  0  0  0  0  0  0  0
    7.6745   -3.9716    1.9402 H   0  0  0  0  0  0  0  0  0  0  0  0
    4.5338   -3.8575   -2.4612 H   0  0  0  0  0  0  0  0  0  0  0  0
    4.6355   -5.3064   -1.5046 H   0  0  0  0  0  0  0  0  0  0  0  0
    5.9046   -4.0807   -1.4467 H   0  0  0  0  0  0  0  0  0  0  0  0
    2.7392   -2.7164   -1.8958 H   0  0  0  0  0  0  0  0  0  0  0  0
    2.0095   -2.6828   -0.3373 H   0  0  0  0  0  0  0  0  0  0  0  0
    2.1439   -4.2044   -1.1891 H   0  0  0  0  0  0  0  0  0  0  0  0
  1  2  1  0
  1 30  1  0
  1 31  1  0
  1 32  1  0
  2 19  1  0
  2  3  1  0
  2 33  1  6
  3 27  1  0
  3  4  1  0
  3 34  1  6
  4  7  1  0
  4  5  1  0
  4 35  1  1
  5 26  1  0
  5  6  1  0
  5 36  1  6
  6  7  1  0
  6 37  1  0
  6 38  1  0
  7 26  1  0
  7  8  1  1
  8  9  1  0
  8 39  1  0
  8 40  1  0
  9 10  1  0
  9 41  1  0
  9 42  1  0
 10 18  1  0
 10 11  1  0
 10 43  1  1
 11 17  1  0
 11 12  1  0
 11 44  1  1
 12 13  1  0
 12 45  1  0
 12 46  1  0
 13 14  2  0
 13 15  1  0
 15 16  1  0
 16 17  1  0
 16 18  1  0
 16 47  1  6
 17 48  1  0
 17 49  1  0
 18 19  1  0
 18 50  1  6
 19 20  1  1
 19 21  1  0
 20 51  1  0
 20 52  1  0
 20 53  1  0
 21 22  1  0
 21 54  1  0
 21 55  1  0
 22 23  1  0
 22 56  1  0
 22 57  1  0
 23 24  1  6
 23 25  1  0
 23 27  1  0
 24 58  1  0
 24 59  1  0
 24 60  1  0
 25 26  1  0
 25 61  1  0
 25 62  1  0
 26 63  1  1
 27 28  1  0
 27 29  1  0
 28 64  1  0
 28 65  1  0
 28 66  1  0
 29 67  1  0
 29 68  1  0
 29 69  1  0
M  END
>  <i_m_ct_stereo_status>  (98) 
1

>  <s_m_source_file>  (98) 
/var/tmp/pbs.5076255.sched01/tmpr6ewtwjb/42o4phu6d4.sdf

>  <i_m_source_file_index>  (98) 
7

>  <i_lp_mmshare_version>  (98) 
48012

>  <i_f3d_flags>  (98) 
0

>  <s_epik_input>  (98) 
W0NIMl0xW0NAQEhdMltDQEhdM1tDSDJdW0NAXShbQ0gzXSkoQzQoW0NIM10pW0NIM10pW0NIMl1bQ0gyXVtDQF0oW0NIM10pKFtDQEhdKFtDSDNdKVtDQEhdNFtDQEBIXTJbQ0BAXTEzNSlbQ0BIXTZbQ0BIXShbQ0gyXVtDSDJdNSlbQ0BASF03W0NIMl1DKD1PKU9bQ0BIXTZbQ0gyXTc=

>  <s_epik_cmdline>  (98) 
J2VwaWtfcHl0aG9uJywgJy1waHQnLCAnMi4wJywgJy1waCcsICc3LjAnLCAnLXRuJywgJzgnLCAnLW1hJywgJzIwMCcsICctaW1hZScsICc8aW5maWxlLm1hZT4nLCAnLW9tYWUnLCAnPG91dGZpbGUubWFlPic=

>  <r_lp_tautomer_probability>  (98) 
1

>  <r_epik_Ionization_Penalty>  (98) 
2.07011e-09

>  <r_epik_Ionization_Penalty_Charging>  (98) 
0

>  <r_epik_Ionization_Penalty_Neutral>  (98) 
2.07011e-09

>  <r_epik_State_Penalty>  (98) 
-0

>  <r_epik_Charging_Adjusted_Penalty>  (98) 
0

>  <i_epik_Tot_Q>  (98) 
0

>  <i_epik_Tot_abs_Q>  (98) 
0

>  <s_epik_Chemistry_Notes>  (98) 
This compound has an ester and may undergo hydrolysis at high or low pH.

>  <s_lp_Force_Field>  (98) 
OPLS3e

>  <r_lp_Energy>  (98) 
312.751

>  <b_lp_Chiralities_Consistent>  (98) 
1

>  <s_lp_Variant>  (98) 
33:0-1

>  <s_i_glide_gridfile>  (98) 
pfpi4k_grid

>  <i_i_glide_lignum>  (98) 
7

>  <i_i_glide_rotatable_bonds>  (98) 
0

>  <r_i_docking_score>  (98) 
-2.35197

>  <r_i_glide_ligand_efficiency>  (98) 
-0.0811024

>  <r_i_glide_ligand_efficiency_sa>  (98) 
-0.249172

>  <r_i_glide_ligand_efficiency_ln>  (98) 
-0.538541

>  <r_i_glide_gscore>  (98) 
-2.35197

>  <r_i_glide_lipo>  (98) 
-0.465318

>  <r_i_glide_hbond>  (98) 
0

>  <r_i_glide_metal>  (98) 
-0

>  <r_i_glide_rewards>  (98) 
-0.704964

>  <r_i_glide_evdw>  (98) 
-21.054

>  <r_i_glide_ecoul>  (98) 
-0.821004

>  <r_i_glide_erotb>  (98) 
0

>  <r_i_glide_esite>  (98) 
-0.00583571

>  <r_i_glide_emodel>  (98) 
-24.9584

>  <r_i_glide_energy>  (98) 
-21.875

>  <r_i_glide_einternal>  (98) 
0

>  <r_i_glide_intrahb_reward>  (98) 
-0

>  <i_i_glide_confnum>  (98) 
1

>  <i_i_glide_posenum>  (98) 
3

>  <r_i_glide_eff_state_penalty>  (98) 
0

>  <ligand_id>  (98) 
33

>  <original_smiles>  (98) 
CC1C2C3C4CC35CCC3C6CC(=O)OC(C6)C3C1(C)CCC(C)(CC45)C2(C)C

>  <smiles>  (98) 
[H]C([H])([H])C1([H])C2([H])C3([H])C4([H])C([H])([H])C35C([H])([H])C([H])([H])C3([H])C6([H])C([H])([H])C(=O)OC([H])(C6([H])[H])C3([H])C1(C([H])([H])[H])C([H])([H])C([H])([H])C(C([H])([H])[H])(C([H])([H])C45[H])C2(C([H])([H])[H])C([H])([H])[H]

$$$$
35:0:0
     RDKit          3D

 66 71  0  0  1  0  0  0  0  0999 V2000
    4.7014   -4.0473   -3.6677 C   0  0  0  0  0  0  0  0  0  0  0  0
    4.0325   -3.0645   -2.7724 N   0  0  0  0  0  0  0  0  0  0  0  0
    3.3428   -2.0113   -3.5852 C   0  0  0  0  0  0  0  0  0  0  0  0
    4.8991   -2.4793   -1.6925 C   0  0  2  0  0  0  0  0  0  0  0  0
    6.0414   -3.4037   -1.1880 C   0  0  0  0  0  0  0  0  0  0  0  0
    5.5369   -4.5207   -0.2547 C   0  0  0  0  0  0  0  0  0  0  0  0
    4.7516   -3.9911    0.9840 C   0  0  1  0  0  0  0  0  0  0  0  0
    5.7342   -3.1561    1.8494 C   0  0  0  0  0  0  0  0  0  0  0  0
    3.5712   -3.1012    0.4753 C   0  0  2  0  0  0  0  0  0  0  0  0
    2.4278   -3.9371   -0.1491 C   0  0  0  0  0  0  0  0  0  0  0  0
    1.9387   -5.0748    0.7604 C   0  0  0  0  0  0  0  0  0  0  0  0
    3.0987   -6.0098    1.1489 C   0  0  1  0  0  0  0  0  0  0  0  0
    4.2152   -5.1966    1.8530 C   0  0  2  0  0  0  0  0  0  0  0  0
    3.7899   -4.7979    3.2991 C   0  0  0  0  0  0  0  0  0  0  0  0
    2.5960   -5.5464    3.9318 C   0  0  0  0  0  0  0  0  0  0  0  0
    2.3316   -7.0072    3.4822 C   0  0  2  0  0  0  0  0  0  0  0  0
    3.1118   -7.9732    4.4175 C   0  0  0  0  0  0  0  0  0  0  0  0
    2.7428   -7.2701    1.9820 C   0  0  1  0  0  0  0  0  0  0  0  0
    1.6445   -8.1960    1.3702 C   0  0  0  0  0  0  0  0  0  0  0  0
    0.7955   -8.4541    2.5733 C   0  0  2  0  0  0  0  0  0  0  0  0
    0.7859   -9.9386    3.0042 C   0  0  0  0  0  0  0  0  0  0  0  0
   -0.3866   -9.0658    3.2175 C   0  0  2  0  0  0  0  0  0  0  0  0
   -1.7668   -9.2111    2.6148 C   0  0  0  0  0  0  0  0  0  0  0  0
   -0.1147   -8.0791    4.2423 O   0  0  0  0  0  0  0  0  0  0  0  0
    0.8137   -7.2648    3.4221 C   0  0  1  0  0  0  0  0  0  0  0  0
    4.0439   -1.9849   -0.4897 C   0  0  0  0  0  0  0  0  0  0  0  0
    5.5837   -3.6280   -4.1570 H   0  0  0  0  0  0  0  0  0  0  0  0
    3.9964   -4.3841   -4.4345 H   0  0  0  0  0  0  0  0  0  0  0  0
    5.0033   -4.9439   -3.1086 H   0  0  0  0  0  0  0  0  0  0  0  0
    4.0494   -1.4170   -4.1706 H   0  0  0  0  0  0  0  0  0  0  0  0
    2.7518   -1.3328   -2.9611 H   0  0  0  0  0  0  0  0  0  0  0  0
    2.6484   -2.4936   -4.2814 H   0  0  0  0  0  0  0  0  0  0  0  0
    5.3944   -1.6078   -2.1257 H   0  0  0  0  0  0  0  0  0  0  0  0
    6.6138   -3.8175   -2.0142 H   0  0  0  0  0  0  0  0  0  0  0  0
    6.7768   -2.7847   -0.6731 H   0  0  0  0  0  0  0  0  0  0  0  0
    4.8926   -5.1728   -0.8462 H   0  0  0  0  0  0  0  0  0  0  0  0
    6.3704   -5.1423    0.0726 H   0  0  0  0  0  0  0  0  0  0  0  0
    5.2489   -2.6719    2.6953 H   0  0  0  0  0  0  0  0  0  0  0  0
    6.2097   -2.3457    1.3062 H   0  0  0  0  0  0  0  0  0  0  0  0
    6.5260   -3.7974    2.2338 H   0  0  0  0  0  0  0  0  0  0  0  0
    3.1302   -2.5923    1.3339 H   0  0  0  0  0  0  0  0  0  0  0  0
    1.6138   -3.2618   -0.4084 H   0  0  0  0  0  0  0  0  0  0  0  0
    2.7337   -4.3915   -1.0853 H   0  0  0  0  0  0  0  0  0  0  0  0
    1.4644   -4.6542    1.6424 H   0  0  0  0  0  0  0  0  0  0  0  0
    1.1785   -5.6300    0.2196 H   0  0  0  0  0  0  0  0  0  0  0  0
    3.4889   -6.3967    0.2080 H   0  0  0  0  0  0  0  0  0  0  0  0
    5.0569   -5.8818    1.9757 H   0  0  0  0  0  0  0  0  0  0  0  0
    4.6550   -4.8997    3.9526 H   0  0  0  0  0  0  0  0  0  0  0  0
    3.5263   -3.7437    3.3387 H   0  0  0  0  0  0  0  0  0  0  0  0
    2.7119   -5.5252    5.0135 H   0  0  0  0  0  0  0  0  0  0  0  0
    1.7028   -4.9537    3.7560 H   0  0  0  0  0  0  0  0  0  0  0  0
    3.1431   -8.9983    4.0480 H   0  0  0  0  0  0  0  0  0  0  0  0
    2.6756   -8.0022    5.4148 H   0  0  0  0  0  0  0  0  0  0  0  0
    4.1562   -7.6759    4.5311 H   0  0  0  0  0  0  0  0  0  0  0  0
    3.6671   -7.8520    1.9960 H   0  0  0  0  0  0  0  0  0  0  0  0
    1.0373   -7.7420    0.5913 H   0  0  0  0  0  0  0  0  0  0  0  0
    2.0745   -9.1412    1.0370 H   0  0  0  0  0  0  0  0  0  0  0  0
    0.6778  -10.7219    2.2546 H   0  0  0  0  0  0  0  0  0  0  0  0
    1.3145  -10.2750    3.8945 H   0  0  0  0  0  0  0  0  0  0  0  0
   -1.7183   -9.7122    1.6457 H   0  0  0  0  0  0  0  0  0  0  0  0
   -2.1893   -8.2188    2.5098 H   0  0  0  0  0  0  0  0  0  0  0  0
   -2.4066   -9.8040    3.2756 H   0  0  0  0  0  0  0  0  0  0  0  0
    0.2876   -6.4178    2.9496 H   0  0  0  0  0  0  0  0  0  0  0  0
    4.6583   -1.2760    0.0677 H   0  0  0  0  0  0  0  0  0  0  0  0
    3.1989   -1.3882   -0.8268 H   0  0  0  0  0  0  0  0  0  0  0  0
    3.3205   -3.5804   -2.3023 H   0  0  0  0  0  0  0  0  0  0  0  0
  1  2  1  0
  1 27  1  0
  1 28  1  0
  1 29  1  0
  2  3  1  0
  2  4  1  0
  2 66  1  0
  3 30  1  0
  3 31  1  0
  3 32  1  0
  4 26  1  0
  4  5  1  0
  4 33  1  6
  5  6  1  0
  5 34  1  0
  5 35  1  0
  6  7  1  0
  6 36  1  0
  6 37  1  0
  7 13  1  0
  7  8  1  1
  7  9  1  0
  8 38  1  0
  8 39  1  0
  8 40  1  0
  9 10  1  0
  9 26  1  0
  9 41  1  1
 10 11  1  0
 10 42  1  0
 10 43  1  0
 11 12  1  0
 11 44  1  0
 11 45  1  0
 12 18  1  0
 12 13  1  0
 12 46  1  6
 13 14  1  0
 13 47  1  1
 14 15  1  0
 14 48  1  0
 14 49  1  0
 15 16  1  0
 15 50  1  0
 15 51  1  0
 16 25  1  0
 16 17  1  1
 16 18  1  0
 17 52  1  0
 17 53  1  0
 17 54  1  0
 18 19  1  0
 18 55  1  1
 20 19  1  6
 19 56  1  0
 19 57  1  0
 20 22  1  0
 20 25  1  0
 20 21  1  0
 21 22  1  0
 21 58  1  0
 21 59  1  0
 22 23  1  6
 22 24  1  0
 23 60  1  0
 23 61  1  0
 23 62  1  0
 24 25  1  0
 25 63  1  6
 26 64  1  0
 26 65  1  0
M  CHG  1   2   1
M  END
>  <i_m_ct_stereo_status>  (99) 
1

>  <s_m_source_file>  (99) 
/var/tmp/pbs.5076255.sched01/tmpr6ewtwjb/42o4phu6d4.sdf

>  <i_m_source_file_index>  (99) 
9

>  <i_lp_mmshare_version>  (99) 
48012

>  <i_f3d_flags>  (99) 
0

>  <s_epik_input>  (99) 
W0NIM11OKFtDSDNdKVtDQEhdKFtDSDJdW0NIMl0xKVtDSDJdW0NAQEhdKFtDSDJdW0NIMl0yKVtDQEBdMShbQ0gzXSlbQ0BASF0oW0NIMl1bQ0gyXTMpW0NASF0yW0NASF0oW0NIMl00KVtDQF0zKFtDSDNdKVtDQEBIXTVPW0NAQF0oW0NAQF00NTYpKFtDSDJdNilbQ0gzXQ==

>  <s_epik_cmdline>  (99) 
J2VwaWtfcHl0aG9uJywgJy1waHQnLCAnMi4wJywgJy1waCcsICc3LjAnLCAnLXRuJywgJzgnLCAnLW1hJywgJzIwMCcsICctaW1hZScsICc8aW5maWxlLm1hZT4nLCAnLW9tYWUnLCAnPG91dGZpbGUubWFlPic=

>  <r_epik_Ionization_Penalty>  (99) 
0.000397336

>  <r_epik_Ionization_Penalty_Charging>  (99) 
0.000397335

>  <r_epik_Ionization_Penalty_Neutral>  (99) 
1.52233e-10

>  <r_epik_State_Penalty>  (99) 
0.000243412

>  <r_epik_Charging_Adjusted_Penalty>  (99) 
0.000640748

>  <i_epik_Tot_Q>  (99) 
1

>  <i_epik_Tot_abs_Q>  (99) 
1

>  <s_lp_Force_Field>  (99) 
OPLS3e

>  <r_lp_Energy>  (99) 
107.659

>  <b_lp_Chiralities_Consistent>  (99) 
1

>  <s_lp_Variant>  (99) 
35:0-1

>  <s_i_glide_gridfile>  (99) 
pfpi4k_grid

>  <i_i_glide_lignum>  (99) 
9

>  <i_i_glide_rotatable_bonds>  (99) 
1

>  <r_i_docking_score>  (99) 
-3.22945

>  <r_i_glide_ligand_efficiency>  (99) 
-0.12421

>  <r_i_glide_ligand_efficiency_sa>  (99) 
-0.367971

>  <r_i_glide_ligand_efficiency_ln>  (99) 
-0.758426

>  <r_i_glide_gscore>  (99) 
-3.22945

>  <r_i_glide_lipo>  (99) 
-0.715428

>  <r_i_glide_hbond>  (99) 
0

>  <r_i_glide_metal>  (99) 
-0

>  <r_i_glide_rewards>  (99) 
-0.964224

>  <r_i_glide_evdw>  (99) 
-23.5915

>  <r_i_glide_ecoul>  (99) 
-2.41875

>  <r_i_glide_erotb>  (99) 
0

>  <r_i_glide_esite>  (99) 
-0.00741346

>  <r_i_glide_emodel>  (99) 
-32.8472

>  <r_i_glide_energy>  (99) 
-26.0102

>  <r_i_glide_einternal>  (99) 
0.175676

>  <r_i_glide_intrahb_reward>  (99) 
-0

>  <i_i_glide_confnum>  (99) 
1

>  <i_i_glide_posenum>  (99) 
2

>  <r_i_glide_eff_state_penalty>  (99) 
0

>  <ligand_id>  (99) 
35

>  <original_smiles>  (99) 
CN(C)C1CCC2(C)C(CCC3C2CCC2(C)C3CC34CC3(C)OC24)C1

>  <smiles>  (99) 
[H]C([H])([H])C12OC3([H])C4(C([H])([H])[H])C([H])([H])C([H])([H])C5([H])C([H])(C([H])([H])C([H])([H])C6([H])C([H])([H])C([H])([N+]([H])(C([H])([H])[H])C([H])([H])[H])C([H])([H])C([H])([H])C65C([H])([H])[H])C4([H])C([H])([H])C31C2([H])[H]

$$$$
35:0:1
     RDKit          3D

 66 71  0  0  1  0  0  0  0  0999 V2000
   -1.1628   -7.6323    4.5319 C   0  0  0  0  0  0  0  0  0  0  0  0
   -0.4676   -8.2815    3.3938 N   0  0  0  0  0  0  0  0  0  0  0  0
   -1.4613   -9.0510    2.5971 C   0  0  0  0  0  0  0  0  0  0  0  0
    0.7567   -9.0722    3.7533 C   0  0  2  0  0  0  0  0  0  0  0  0
    1.6574   -8.4022    4.8315 C   0  0  0  0  0  0  0  0  0  0  0  0
    2.4931   -7.2295    4.2756 C   0  0  0  0  0  0  0  0  0  0  0  0
    3.3920   -7.6195    3.0581 C   0  0  1  0  0  0  0  0  0  0  0  0
    4.4375   -8.6668    3.5406 C   0  0  0  0  0  0  0  0  0  0  0  0
    2.4682   -8.2276    1.9539 C   0  0  2  0  0  0  0  0  0  0  0  0
    1.6012   -7.1472    1.2478 C   0  0  0  0  0  0  0  0  0  0  0  0
    2.4240   -5.9662    0.7024 C   0  0  0  0  0  0  0  0  0  0  0  0
    3.2373   -5.3088    1.8379 C   0  0  1  0  0  0  0  0  0  0  0  0
    4.1668   -6.3573    2.5040 C   0  0  2  0  0  0  0  0  0  0  0  0
    5.3820   -6.6992    1.5863 C   0  0  0  0  0  0  0  0  0  0  0  0
    5.6924   -5.7380    0.4200 C   0  0  0  0  0  0  0  0  0  0  0  0
    5.3199   -4.2455    0.5923 C   0  0  2  0  0  0  0  0  0  0  0  0
    6.5359   -3.4894    1.1957 C   0  0  0  0  0  0  0  0  0  0  0  0
    4.0421   -4.0256    1.4928 C   0  0  1  0  0  0  0  0  0  0  0  0
    3.2156   -2.8654    0.8440 C   0  0  0  0  0  0  0  0  0  0  0  0
    4.1214   -2.4903   -0.2920 C   0  0  2  0  0  0  0  0  0  0  0  0
    4.6734   -1.0442   -0.1566 C   0  0  0  0  0  0  0  0  0  0  0  0
    4.4426   -1.6506   -1.4719 C   0  0  2  0  0  0  0  0  0  0  0  0
    3.4907   -1.1993   -2.5584 C   0  0  0  0  0  0  0  0  0  0  0  0
    5.4209   -2.6933   -1.7064 O   0  0  0  0  0  0  0  0  0  0  0  0
    4.8436   -3.6699   -0.7579 C   0  0  1  0  0  0  0  0  0  0  0  0
    1.6160   -9.4064    2.4977 C   0  0  0  0  0  0  0  0  0  0  0  0
   -1.4579   -8.3749    5.2794 H   0  0  0  0  0  0  0  0  0  0  0  0
   -2.0661   -7.1225    4.1821 H   0  0  0  0  0  0  0  0  0  0  0  0
   -0.5488   -6.8601    5.0086 H   0  0  0  0  0  0  0  0  0  0  0  0
   -1.8852   -9.8604    3.1832 H   0  0  0  0  0  0  0  0  0  0  0  0
   -1.0417   -9.4706    1.6830 H   0  0  0  0  0  0  0  0  0  0  0  0
   -2.2783   -8.4002    2.2919 H   0  0  0  0  0  0  0  0  0  0  0  0
    0.4040  -10.0101    4.1894 H   0  0  0  0  0  0  0  0  0  0  0  0
    1.0925   -8.0794    5.7025 H   0  0  0  0  0  0  0  0  0  0  0  0
    2.3209   -9.1601    5.2484 H   0  0  0  0  0  0  0  0  0  0  0  0
    1.7942   -6.4423    3.9944 H   0  0  0  0  0  0  0  0  0  0  0  0
    3.1082   -6.8028    5.0695 H   0  0  0  0  0  0  0  0  0  0  0  0
    5.0378   -9.0701    2.7272 H   0  0  0  0  0  0  0  0  0  0  0  0
    3.9927   -9.5417    4.0055 H   0  0  0  0  0  0  0  0  0  0  0  0
    5.1201   -8.2314    4.2706 H   0  0  0  0  0  0  0  0  0  0  0  0
    3.1100   -8.6529    1.1810 H   0  0  0  0  0  0  0  0  0  0  0  0
    1.0161   -7.6109    0.4529 H   0  0  0  0  0  0  0  0  0  0  0  0
    0.8641   -6.7258    1.9237 H   0  0  0  0  0  0  0  0  0  0  0  0
    3.0702   -6.2934   -0.1061 H   0  0  0  0  0  0  0  0  0  0  0  0
    1.7443   -5.2517    0.2449 H   0  0  0  0  0  0  0  0  0  0  0  0
    2.5079   -4.9823    2.5772 H   0  0  0  0  0  0  0  0  0  0  0  0
    4.6003   -5.8637    3.3779 H   0  0  0  0  0  0  0  0  0  0  0  0
    6.2683   -6.8140    2.2081 H   0  0  0  0  0  0  0  0  0  0  0  0
    5.2358   -7.6710    1.1214 H   0  0  0  0  0  0  0  0  0  0  0  0
    6.7467   -5.8251    0.1622 H   0  0  0  0  0  0  0  0  0  0  0  0
    5.1799   -6.1275   -0.4575 H   0  0  0  0  0  0  0  0  0  0  0  0
    6.2893   -2.4859    1.5399 H   0  0  0  0  0  0  0  0  0  0  0  0
    7.3503   -3.4021    0.4764 H   0  0  0  0  0  0  0  0  0  0  0  0
    6.9252   -4.0162    2.0620 H   0  0  0  0  0  0  0  0  0  0  0  0
    4.3927   -3.6573    2.4587 H   0  0  0  0  0  0  0  0  0  0  0  0
    2.2375   -3.1671    0.4754 H   0  0  0  0  0  0  0  0  0  0  0  0
    3.1129   -2.0288    1.5344 H   0  0  0  0  0  0  0  0  0  0  0  0
    4.0070   -0.2366    0.1294 H   0  0  0  0  0  0  0  0  0  0  0  0
    5.7114   -0.8698    0.1125 H   0  0  0  0  0  0  0  0  0  0  0  0
    2.6280   -0.6713   -2.1449 H   0  0  0  0  0  0  0  0  0  0  0  0
    3.1509   -2.0615   -3.1240 H   0  0  0  0  0  0  0  0  0  0  0  0
    4.0033   -0.5183   -3.2384 H   0  0  0  0  0  0  0  0  0  0  0  0
    4.1741   -4.3606   -1.2848 H   0  0  0  0  0  0  0  0  0  0  0  0
    2.2830  -10.2276    2.7658 H   0  0  0  0  0  0  0  0  0  0  0  0
    1.0247   -9.8254    1.6894 H   0  0  0  0  0  0  0  0  0  0  0  0
   -0.1228   -7.5464    2.8038 H   0  0  0  0  0  0  0  0  0  0  0  0
  1  2  1  0
  1 27  1  0
  1 28  1  0
  1 29  1  0
  2  3  1  0
  2  4  1  0
  2 66  1  0
  3 30  1  0
  3 31  1  0
  3 32  1  0
  4 26  1  0
  4  5  1  0
  4 33  1  1
  5  6  1  0
  5 34  1  0
  5 35  1  0
  6  7  1  0
  6 36  1  0
  6 37  1  0
  7 13  1  0
  7  8  1  1
  7  9  1  0
  8 38  1  0
  8 39  1  0
  8 40  1  0
  9 10  1  0
  9 26  1  0
  9 41  1  6
 10 11  1  0
 10 42  1  0
 10 43  1  0
 11 12  1  0
 11 44  1  0
 11 45  1  0
 12 18  1  0
 12 13  1  0
 12 46  1  1
 13 14  1  0
 13 47  1  1
 14 15  1  0
 14 48  1  0
 14 49  1  0
 15 16  1  0
 15 50  1  0
 15 51  1  0
 16 25  1  0
 16 17  1  1
 16 18  1  0
 17 52  1  0
 17 53  1  0
 17 54  1  0
 18 19  1  0
 18 55  1  1
 20 19  1  6
 19 56  1  0
 19 57  1  0
 20 22  1  0
 20 25  1  0
 20 21  1  0
 21 22  1  0
 21 58  1  0
 21 59  1  0
 22 23  1  6
 22 24  1  0
 23 60  1  0
 23 61  1  0
 23 62  1  0
 24 25  1  0
 25 63  1  6
 26 64  1  0
 26 65  1  0
M  CHG  1   2   1
M  END
>  <i_m_ct_stereo_status>  (100) 
1

>  <s_m_source_file>  (100) 
/var/tmp/pbs.5076255.sched01/tmpr6ewtwjb/42o4phu6d4.sdf

>  <i_m_source_file_index>  (100) 
9

>  <i_lp_mmshare_version>  (100) 
48012

>  <i_f3d_flags>  (100) 
0

>  <s_epik_input>  (100) 
W0NIM11OKFtDSDNdKVtDQEhdKFtDSDJdW0NIMl0xKVtDSDJdW0NAQEhdKFtDSDJdW0NIMl0yKVtDQEBdMShbQ0gzXSlbQ0BASF0oW0NIMl1bQ0gyXTMpW0NASF0yW0NASF0oW0NIMl00KVtDQF0zKFtDSDNdKVtDQEBIXTVPW0NAQF0oW0NAQF00NTYpKFtDSDJdNilbQ0gzXQ==

>  <s_epik_cmdline>  (100) 
J2VwaWtfcHl0aG9uJywgJy1waHQnLCAnMi4wJywgJy1waCcsICc3LjAnLCAnLXRuJywgJzgnLCAnLW1hJywgJzIwMCcsICctaW1hZScsICc8aW5maWxlLm1hZT4nLCAnLW9tYWUnLCAnPG91dGZpbGUubWFlPic=

>  <r_epik_Ionization_Penalty>  (100) 
0.000397336

>  <r_epik_Ionization_Penalty_Charging>  (100) 
0.000397335

>  <r_epik_Ionization_Penalty_Neutral>  (100) 
1.52233e-10

>  <r_epik_State_Penalty>  (100) 
0.000243412

>  <r_epik_Charging_Adjusted_Penalty>  (100) 
0.000640748

>  <i_epik_Tot_Q>  (100) 
1

>  <i_epik_Tot_abs_Q>  (100) 
1

>  <s_lp_Force_Field>  (100) 
OPLS3e

>  <r_lp_Energy>  (100) 
107.659

>  <b_lp_Chiralities_Consistent>  (100) 
1

>  <s_lp_Variant>  (100) 
35:0-1

>  <s_i_glide_gridfile>  (100) 
pfpi4k_grid

>  <i_i_glide_lignum>  (100) 
9

>  <i_i_glide_rotatable_bonds>  (100) 
1

>  <r_i_docking_score>  (100) 
-3.13375

>  <r_i_glide_ligand_efficiency>  (100) 
-0.120529

>  <r_i_glide_ligand_efficiency_sa>  (100) 
-0.357067

>  <r_i_glide_ligand_efficiency_ln>  (100) 
-0.735952

>  <r_i_glide_gscore>  (100) 
-3.13375

>  <r_i_glide_lipo>  (100) 
-0.54256

>  <r_i_glide_hbond>  (100) 
0

>  <r_i_glide_metal>  (100) 
-0

>  <r_i_glide_rewards>  (100) 
-0.964224

>  <r_i_glide_evdw>  (100) 
-23.1421

>  <r_i_glide_ecoul>  (100) 
-2.81968

>  <r_i_glide_erotb>  (100) 
0

>  <r_i_glide_esite>  (100) 
-0.0469107

>  <r_i_glide_emodel>  (100) 
-32.647

>  <r_i_glide_energy>  (100) 
-25.9618

>  <r_i_glide_einternal>  (100) 
0.140005

>  <r_i_glide_intrahb_reward>  (100) 
-0

>  <i_i_glide_confnum>  (100) 
2

>  <i_i_glide_posenum>  (100) 
7

>  <r_i_glide_eff_state_penalty>  (100) 
0

>  <ligand_id>  (100) 
35

>  <original_smiles>  (100) 
CN(C)C1CCC2(C)C(CCC3C2CCC2(C)C3CC34CC3(C)OC24)C1

>  <smiles>  (100) 
[H]C([H])([H])C12OC3([H])C4(C([H])([H])[H])C([H])([H])C([H])([H])C5([H])C([H])(C([H])([H])C([H])([H])C6([H])C([H])([H])C([H])([N+]([H])(C([H])([H])[H])C([H])([H])[H])C([H])([H])C([H])([H])C65C([H])([H])[H])C4([H])C([H])([H])C31C2([H])[H]

$$$$
35:0:2
     RDKit          3D

 66 71  0  0  1  0  0  0  0  0999 V2000
    4.2555   -3.6948   -3.6733 C   0  0  0  0  0  0  0  0  0  0  0  0
    3.8558   -2.7730   -2.5653 N   0  0  0  0  0  0  0  0  0  0  0  0
    3.0592   -1.6239   -3.1200 C   0  0  0  0  0  0  0  0  0  0  0  0
    4.9750   -2.3179   -1.6673 C   0  0  2  0  0  0  0  0  0  0  0  0
    6.0810   -3.3807   -1.4209 C   0  0  0  0  0  0  0  0  0  0  0  0
    5.6414   -4.4724   -0.4261 C   0  0  0  0  0  0  0  0  0  0  0  0
    5.1841   -3.9137    0.9540 C   0  0  1  0  0  0  0  0  0  0  0  0
    6.4007   -3.2206    1.6197 C   0  0  0  0  0  0  0  0  0  0  0  0
    4.0332   -2.8832    0.7081 C   0  0  2  0  0  0  0  0  0  0  0  0
    2.7022   -3.5705    0.3150 C   0  0  0  0  0  0  0  0  0  0  0  0
    2.2956   -4.6785    1.2903 C   0  0  0  0  0  0  0  0  0  0  0  0
    3.3929   -5.7478    1.4220 C   0  0  1  0  0  0  0  0  0  0  0  0
    4.7069   -5.0871    1.8966 C   0  0  2  0  0  0  0  0  0  0  0  0
    4.6145   -4.7033    3.4047 C   0  0  0  0  0  0  0  0  0  0  0  0
    3.4876   -5.3457    4.2470 C   0  0  0  0  0  0  0  0  0  0  0  0
    2.9784   -6.7534    3.8361 C   0  0  2  0  0  0  0  0  0  0  0  0
    3.8149   -7.8303    4.5814 C   0  0  0  0  0  0  0  0  0  0  0  0
    3.0608   -6.9988    2.2802 C   0  0  1  0  0  0  0  0  0  0  0  0
    1.7706   -7.7825    1.8740 C   0  0  0  0  0  0  0  0  0  0  0  0
    1.1351   -7.9878    3.2154 C   0  0  2  0  0  0  0  0  0  0  0  0
    1.0555   -9.4781    3.6197 C   0  0  0  0  0  0  0  0  0  0  0  0
    0.0547   -8.5046    4.0762 C   0  0  2  0  0  0  0  0  0  0  0  0
   -1.4294   -8.4821    3.7790 C   0  0  0  0  0  0  0  0  0  0  0  0
    0.6265   -7.5907    5.0490 O   0  0  0  0  0  0  0  0  0  0  0  0
    1.4574   -6.8420    4.0703 C   0  0  1  0  0  0  0  0  0  0  0  0
    4.4378   -1.7850   -0.3064 C   0  0  0  0  0  0  0  0  0  0  0  0
    5.0152   -3.2514   -4.3086 H   0  0  0  0  0  0  0  0  0  0  0  0
    3.3761   -3.9238   -4.2767 H   0  0  0  0  0  0  0  0  0  0  0  0
    4.6210   -4.6486   -3.2811 H   0  0  0  0  0  0  0  0  0  0  0  0
    3.6517   -1.0040   -3.7962 H   0  0  0  0  0  0  0  0  0  0  0  0
    2.6449   -0.9871   -2.3323 H   0  0  0  0  0  0  0  0  0  0  0  0
    2.2125   -2.0251   -3.6788 H   0  0  0  0  0  0  0  0  0  0  0  0
    5.4641   -1.4922   -2.1810 H   0  0  0  0  0  0  0  0  0  0  0  0
    6.4331   -3.8249   -2.3494 H   0  0  0  0  0  0  0  0  0  0  0  0
    6.9683   -2.8711   -1.0509 H   0  0  0  0  0  0  0  0  0  0  0  0
    4.8289   -5.0273   -0.8973 H   0  0  0  0  0  0  0  0  0  0  0  0
    6.4477   -5.1916   -0.2760 H   0  0  0  0  0  0  0  0  0  0  0  0
    6.1413   -2.7178    2.5490 H   0  0  0  0  0  0  0  0  0  0  0  0
    6.8502   -2.4458    1.0074 H   0  0  0  0  0  0  0  0  0  0  0  0
    7.1755   -3.9574    1.8313 H   0  0  0  0  0  0  0  0  0  0  0  0
    3.8310   -2.3648    1.6460 H   0  0  0  0  0  0  0  0  0  0  0  0
    1.9189   -2.8127    0.2612 H   0  0  0  0  0  0  0  0  0  0  0  0
    2.7569   -4.0221   -0.6718 H   0  0  0  0  0  0  0  0  0  0  0  0
    2.0145   -4.2237    2.2378 H   0  0  0  0  0  0  0  0  0  0  0  0
    1.4134   -5.1655    0.8896 H   0  0  0  0  0  0  0  0  0  0  0  0
    3.5382   -6.1348    0.4152 H   0  0  0  0  0  0  0  0  0  0  0  0
    5.4724   -5.8669    1.8358 H   0  0  0  0  0  0  0  0  0  0  0  0
    5.5732   -4.9198    3.8726 H   0  0  0  0  0  0  0  0  0  0  0  0
    4.4816   -3.6276    3.5151 H   0  0  0  0  0  0  0  0  0  0  0  0
    3.8121   -5.3747    5.2841 H   0  0  0  0  0  0  0  0  0  0  0  0
    2.6469   -4.6557    4.2567 H   0  0  0  0  0  0  0  0  0  0  0  0
    3.6620   -8.8384    4.1949 H   0  0  0  0  0  0  0  0  0  0  0  0
    3.5782   -7.8490    5.6438 H   0  0  0  0  0  0  0  0  0  0  0  0
    4.8874   -7.6476    4.4918 H   0  0  0  0  0  0  0  0  0  0  0  0
    3.8997   -7.6741    2.0986 H   0  0  0  0  0  0  0  0  0  0  0  0
    1.0945   -7.2459    1.2165 H   0  0  0  0  0  0  0  0  0  0  0  0
    2.0181   -8.7573    1.4575 H   0  0  0  0  0  0  0  0  0  0  0  0
    0.7205  -10.2271    2.8964 H   0  0  0  0  0  0  0  0  0  0  0  0
    1.7065   -9.9003    4.3861 H   0  0  0  0  0  0  0  0  0  0  0  0
   -1.6522   -8.9639    2.8221 H   0  0  0  0  0  0  0  0  0  0  0  0
   -1.7570   -7.4509    3.7744 H   0  0  0  0  0  0  0  0  0  0  0  0
   -1.9685   -9.0119    4.5647 H   0  0  0  0  0  0  0  0  0  0  0  0
    0.9491   -5.9263    3.7314 H   0  0  0  0  0  0  0  0  0  0  0  0
    5.2293   -1.1759    0.1286 H   0  0  0  0  0  0  0  0  0  0  0  0
    3.6209   -1.0808   -0.4417 H   0  0  0  0  0  0  0  0  0  0  0  0
    3.2359   -3.2961   -1.9806 H   0  0  0  0  0  0  0  0  0  0  0  0
  1  2  1  0
  1 27  1  0
  1 28  1  0
  1 29  1  0
  2  3  1  0
  2  4  1  0
  2 66  1  0
  3 30  1  0
  3 31  1  0
  3 32  1  0
  4 26  1  0
  4  5  1  0
  4 33  1  6
  5  6  1  0
  5 34  1  0
  5 35  1  0
  6  7  1  0
  6 36  1  0
  6 37  1  0
  7 13  1  0
  7  8  1  1
  7  9  1  0
  8 38  1  0
  8 39  1  0
  8 40  1  0
  9 10  1  0
  9 26  1  0
  9 41  1  1
 10 11  1  0
 10 42  1  0
 10 43  1  0
 11 12  1  0
 11 44  1  0
 11 45  1  0
 12 18  1  0
 12 13  1  0
 12 46  1  6
 13 14  1  0
 13 47  1  1
 14 15  1  0
 14 48  1  0
 14 49  1  0
 15 16  1  0
 15 50  1  0
 15 51  1  0
 16 25  1  0
 16 17  1  1
 16 18  1  0
 17 52  1  0
 17 53  1  0
 17 54  1  0
 18 19  1  0
 18 55  1  1
 20 19  1  6
 19 56  1  0
 19 57  1  0
 20 22  1  0
 20 25  1  0
 20 21  1  0
 21 22  1  0
 21 58  1  0
 21 59  1  0
 22 23  1  6
 22 24  1  0
 23 60  1  0
 23 61  1  0
 23 62  1  0
 24 25  1  0
 25 63  1  6
 26 64  1  0
 26 65  1  0
M  CHG  1   2   1
M  END
>  <i_m_ct_stereo_status>  (101) 
1

>  <s_m_source_file>  (101) 
/var/tmp/pbs.5076255.sched01/tmpr6ewtwjb/42o4phu6d4.sdf

>  <i_m_source_file_index>  (101) 
9

>  <i_lp_mmshare_version>  (101) 
48012

>  <i_f3d_flags>  (101) 
0

>  <s_epik_input>  (101) 
W0NIM11OKFtDSDNdKVtDQEhdKFtDSDJdW0NIMl0xKVtDSDJdW0NAQEhdKFtDSDJdW0NIMl0yKVtDQEBdMShbQ0gzXSlbQ0BASF0oW0NIMl1bQ0gyXTMpW0NASF0yW0NASF0oW0NIMl00KVtDQF0zKFtDSDNdKVtDQEBIXTVPW0NAQF0oW0NAQF00NTYpKFtDSDJdNilbQ0gzXQ==

>  <s_epik_cmdline>  (101) 
J2VwaWtfcHl0aG9uJywgJy1waHQnLCAnMi4wJywgJy1waCcsICc3LjAnLCAnLXRuJywgJzgnLCAnLW1hJywgJzIwMCcsICctaW1hZScsICc8aW5maWxlLm1hZT4nLCAnLW9tYWUnLCAnPG91dGZpbGUubWFlPic=

>  <r_epik_Ionization_Penalty>  (101) 
0.000397336

>  <r_epik_Ionization_Penalty_Charging>  (101) 
0.000397335

>  <r_epik_Ionization_Penalty_Neutral>  (101) 
1.52233e-10

>  <r_epik_State_Penalty>  (101) 
0.000243412

>  <r_epik_Charging_Adjusted_Penalty>  (101) 
0.000640748

>  <i_epik_Tot_Q>  (101) 
1

>  <i_epik_Tot_abs_Q>  (101) 
1

>  <s_lp_Force_Field>  (101) 
OPLS3e

>  <r_lp_Energy>  (101) 
107.659

>  <b_lp_Chiralities_Consistent>  (101) 
1

>  <s_lp_Variant>  (101) 
35:0-1

>  <s_i_glide_gridfile>  (101) 
pfpi4k_grid

>  <i_i_glide_lignum>  (101) 
9

>  <i_i_glide_rotatable_bonds>  (101) 
1

>  <r_i_docking_score>  (101) 
-2.83586

>  <r_i_glide_ligand_efficiency>  (101) 
-0.109071

>  <r_i_glide_ligand_efficiency_sa>  (101) 
-0.323124

>  <r_i_glide_ligand_efficiency_ln>  (101) 
-0.665992

>  <r_i_glide_gscore>  (101) 
-2.83586

>  <r_i_glide_lipo>  (101) 
-0.399545

>  <r_i_glide_hbond>  (101) 
0

>  <r_i_glide_metal>  (101) 
-0

>  <r_i_glide_rewards>  (101) 
-0.964224

>  <r_i_glide_evdw>  (101) 
-21.5581

>  <r_i_glide_ecoul>  (101) 
-2.56787

>  <r_i_glide_erotb>  (101) 
0

>  <r_i_glide_esite>  (101) 
-0.00900272

>  <r_i_glide_emodel>  (101) 
-30.0475

>  <r_i_glide_energy>  (101) 
-24.126

>  <r_i_glide_einternal>  (101) 
0.00263655

>  <r_i_glide_intrahb_reward>  (101) 
-0

>  <i_i_glide_confnum>  (101) 
2

>  <i_i_glide_posenum>  (101) 
39

>  <r_i_glide_eff_state_penalty>  (101) 
0

>  <ligand_id>  (101) 
35

>  <original_smiles>  (101) 
CN(C)C1CCC2(C)C(CCC3C2CCC2(C)C3CC34CC3(C)OC24)C1

>  <smiles>  (101) 
[H]C([H])([H])C12OC3([H])C4(C([H])([H])[H])C([H])([H])C([H])([H])C5([H])C([H])(C([H])([H])C([H])([H])C6([H])C([H])([H])C([H])([N+]([H])(C([H])([H])[H])C([H])([H])[H])C([H])([H])C([H])([H])C65C([H])([H])[H])C4([H])C([H])([H])C31C2([H])[H]

$$$$
36:0:0
     RDKit          3D

 47 49  0  0  1  0  0  0  0  0999 V2000
   -2.5870    1.0650    6.5824 C   0  0  0  0  0  0  0  0  0  0  0  0
   -1.9883    0.6421    5.2404 C   0  0  0  0  0  0  0  0  0  0  0  0
   -0.9750    1.5877    4.8229 N   0  0  0  0  0  0  0  0  0  0  0  0
    0.2454    1.6114    5.2742 C   0  0  0  0  0  0  0  0  0  0  0  0
    0.6991    0.9155    6.2181 O   0  0  0  0  0  0  0  0  0  0  0  0
    1.0503    2.6450    4.5003 C   0  0  1  0  0  0  0  0  0  0  0  0
   -0.0243    3.3342    3.7530 N   0  0  0  0  0  0  0  0  0  0  0  0
   -1.0891    2.6796    3.9404 C   0  0  0  0  0  0  0  0  0  0  0  0
   -2.4594    2.9885    3.3596 C   0  0  0  0  0  0  0  0  0  0  0  0
    1.7139    3.6600    5.4160 C   0  0  0  0  0  0  0  0  0  0  0  0
    1.2104    4.1891    6.4123 O   0  0  0  0  0  0  0  0  0  0  0  0
    3.1207    3.9191    4.9031 C   0  0  0  0  0  0  0  0  0  0  0  0
    3.3705    5.4242    4.6744 C   0  0  0  0  0  0  0  0  0  0  0  0
    4.1878    3.3837    5.8859 C   0  0  0  0  0  0  0  0  0  0  0  0
    3.1768    3.2160    3.6249 N   0  0  0  0  0  0  0  0  0  0  0  0
    2.2063    2.1162    3.6023 C   0  0  2  0  0  0  0  0  0  0  0  0
    1.8741    1.8244    2.1249 C   0  0  0  0  0  0  0  0  0  0  0  0
    2.9480    0.8221    1.6655 C   0  0  0  0  0  0  0  0  0  0  0  0
    3.4255    0.1648    2.8749 N   0  0  0  0  0  0  0  0  0  0  0  0
    4.2284   -0.9285    2.8832 C   0  0  0  0  0  0  0  0  0  0  0  0
    4.5993   -1.5489    4.2474 C   0  0  0  0  0  0  0  0  0  0  0  0
    4.6707   -1.4513    1.8570 O   0  0  0  0  0  0  0  0  0  0  0  0
    2.9124    0.8071    4.0735 C   0  0  0  0  0  0  0  0  0  0  0  0
   -3.3407    0.3419    6.8805 H   0  0  0  0  0  0  0  0  0  0  0  0
   -3.0728    2.0391    6.5007 H   0  0  0  0  0  0  0  0  0  0  0  0
   -1.8395    1.1367    7.3663 H   0  0  0  0  0  0  0  0  0  0  0  0
   -1.5058   -0.3328    5.3502 H   0  0  0  0  0  0  0  0  0  0  0  0
   -2.7104    0.4891    4.4563 H   0  0  0  0  0  0  0  0  0  0  0  0
   -3.1555    3.2585    4.1551 H   0  0  0  0  0  0  0  0  0  0  0  0
   -2.8445    2.1430    2.7950 H   0  0  0  0  0  0  0  0  0  0  0  0
   -2.3708    3.8306    2.6656 H   0  0  0  0  0  0  0  0  0  0  0  0
    3.2801    5.9581    5.6257 H   0  0  0  0  0  0  0  0  0  0  0  0
    2.6652    5.8786    3.9692 H   0  0  0  0  0  0  0  0  0  0  0  0
    4.3823    5.6120    4.3012 H   0  0  0  0  0  0  0  0  0  0  0  0
    4.1708    3.9785    6.8008 H   0  0  0  0  0  0  0  0  0  0  0  0
    5.1832    3.4666    5.4436 H   0  0  0  0  0  0  0  0  0  0  0  0
    4.0291    2.3525    6.2036 H   0  0  0  0  0  0  0  0  0  0  0  0
    4.1083    2.9270    3.3397 H   0  0  0  0  0  0  0  0  0  0  0  0
    0.8963    1.3457    2.0407 H   0  0  0  0  0  0  0  0  0  0  0  0
    1.8411    2.7134    1.4823 H   0  0  0  0  0  0  0  0  0  0  0  0
    2.5586    0.0963    0.9339 H   0  0  0  0  0  0  0  0  0  0  0  0
    3.8137    1.3440    1.2499 H   0  0  0  0  0  0  0  0  0  0  0  0
    5.0219   -0.8164    4.9470 H   0  0  0  0  0  0  0  0  0  0  0  0
    5.3611   -2.3213    4.1020 H   0  0  0  0  0  0  0  0  0  0  0  0
    3.7354   -2.0266    4.7282 H   0  0  0  0  0  0  0  0  0  0  0  0
    3.7330    0.9470    4.7761 H   0  0  0  0  0  0  0  0  0  0  0  0
    2.2287    0.0392    4.4449 H   0  0  0  0  0  0  0  0  0  0  0  0
  1  2  1  0
  1 24  1  0
  1 25  1  0
  1 26  1  0
  2  3  1  0
  2 27  1  0
  2 28  1  0
  3  8  1  0
  3  4  1  0
  4  5  2  0
  4  6  1  0
  6 16  1  0
  6  7  1  6
  6 10  1  0
  7  8  2  0
  8  9  1  0
  9 29  1  0
  9 30  1  0
  9 31  1  0
 10 11  2  0
 10 12  1  0
 12 13  1  0
 12 14  1  0
 12 15  1  0
 13 32  1  0
 13 33  1  0
 13 34  1  0
 14 35  1  0
 14 36  1  0
 14 37  1  0
 16 15  1  6
 15 38  1  0
 16 23  1  0
 16 17  1  0
 17 18  1  0
 17 39  1  0
 17 40  1  0
 18 19  1  0
 18 41  1  0
 18 42  1  0
 19 20  1  0
 19 23  1  0
 20 21  1  0
 20 22  2  0
 21 43  1  0
 21 44  1  0
 21 45  1  0
 23 46  1  0
 23 47  1  0
M  END
>  <i_m_ct_stereo_status>  (102) 
1

>  <s_m_source_file>  (102) 
/var/tmp/pbs.5076255.sched01/tmpr6ewtwjb/42o4phu6d4.sdf

>  <i_m_source_file_index>  (102) 
10

>  <i_lp_mmshare_version>  (102) 
48012

>  <i_f3d_flags>  (102) 
0

>  <s_epik_input>  (102) 
W0NIM11bQ0gyXU4oQyg9TjEpW0NIM10pQyg9TylbQ0BAXTEyW0NAXTMoW05IXUMoQzI9TykoW0NIM10pW0NIM10pW0NIMl1bQ0gyXU4oW0NIMl0zKUMoPU8pW0NIM10=

>  <s_epik_cmdline>  (102) 
J2VwaWtfcHl0aG9uJywgJy1waHQnLCAnMi4wJywgJy1waCcsICc3LjAnLCAnLXRuJywgJzgnLCAnLW1hJywgJzIwMCcsICctaW1hZScsICc8aW5maWxlLm1hZT4nLCAnLW9tYWUnLCAnPG91dGZpbGUubWFlPic=

>  <r_lp_tautomer_probability>  (102) 
0.999601

>  <r_epik_Ionization_Penalty>  (102) 
0.00350191

>  <r_epik_Ionization_Penalty_Charging>  (102) 
0

>  <r_epik_Ionization_Penalty_Neutral>  (102) 
0.00350191

>  <r_epik_State_Penalty>  (102) 
0.00246949

>  <r_epik_Charging_Adjusted_Penalty>  (102) 
0.00246949

>  <i_epik_Tot_Q>  (102) 
0

>  <i_epik_Tot_abs_Q>  (102) 
0

>  <s_epik_Chemistry_Notes>  (102) 
This compound has an imine and may undergo hydrolysis.

>  <s_lp_Force_Field>  (102) 
OPLS3e

>  <r_lp_Energy>  (102) 
4.00734

>  <b_lp_Chiralities_Consistent>  (102) 
1

>  <s_lp_Variant>  (102) 
36:0-1

>  <s_i_glide_gridfile>  (102) 
pfpi4k_grid

>  <i_i_glide_lignum>  (102) 
10

>  <i_i_glide_rotatable_bonds>  (102) 
2

>  <r_i_docking_score>  (102) 
-2.91742

>  <r_i_glide_ligand_efficiency>  (102) 
-0.126844

>  <r_i_glide_ligand_efficiency_sa>  (102) 
-0.360728

>  <r_i_glide_ligand_efficiency_ln>  (102) 
-0.705459

>  <r_i_glide_gscore>  (102) 
-2.91742

>  <r_i_glide_lipo>  (102) 
-0.127146

>  <r_i_glide_hbond>  (102) 
-0.32

>  <r_i_glide_metal>  (102) 
-0

>  <r_i_glide_rewards>  (102) 
-1.284

>  <r_i_glide_evdw>  (102) 
-16.236

>  <r_i_glide_ecoul>  (102) 
-2.1228

>  <r_i_glide_erotb>  (102) 
0

>  <r_i_glide_esite>  (102) 
-0.0560591

>  <r_i_glide_emodel>  (102) 
-21.221

>  <r_i_glide_energy>  (102) 
-18.3588

>  <r_i_glide_einternal>  (102) 
0.0244645

>  <r_i_glide_intrahb_reward>  (102) 
-0

>  <i_i_glide_confnum>  (102) 
2

>  <i_i_glide_posenum>  (102) 
13

>  <r_i_glide_eff_state_penalty>  (102) 
0

>  <ligand_id>  (102) 
36

>  <original_smiles>  (102) 
CCN1C(=O)C2(N=C1C)C(=O)C(C)(C)NC21CCN(C(C)=O)C1

>  <smiles>  (102) 
[H]N1C(C([H])([H])[H])(C([H])([H])[H])C(=O)C2(N=C(C([H])([H])[H])N(C([H])([H])C([H])([H])[H])C2=O)C12C([H])([H])N(C(=O)C([H])([H])[H])C([H])([H])C2([H])[H]

$$$$
36:0:1
     RDKit          3D

 47 49  0  0  1  0  0  0  0  0999 V2000
   -2.3341    2.4045    7.8307 C   0  0  0  0  0  0  0  0  0  0  0  0
   -1.7415    1.5852    6.6815 C   0  0  0  0  0  0  0  0  0  0  0  0
   -0.9769    2.4403    5.7923 N   0  0  0  0  0  0  0  0  0  0  0  0
    0.2673    2.8280    5.9802 C   0  0  0  0  0  0  0  0  0  0  0  0
    0.9476    2.6437    7.0139 O   0  0  0  0  0  0  0  0  0  0  0  0
    0.7512    3.5982    4.7484 C   0  0  1  0  0  0  0  0  0  0  0  0
   -0.5124    3.7659    4.0011 N   0  0  0  0  0  0  0  0  0  0  0  0
   -1.3703    3.0926    4.5923 C   0  0  0  0  0  0  0  0  0  0  0  0
   -2.8330    2.9002    4.1842 C   0  0  0  0  0  0  0  0  0  0  0  0
    1.2609    4.9778    5.0972 C   0  0  0  0  0  0  0  0  0  0  0  0
    0.7302    5.7858    5.8730 O   0  0  0  0  0  0  0  0  0  0  0  0
    2.5560    5.2070    4.3348 C   0  0  0  0  0  0  0  0  0  0  0  0
    2.5244    6.5536    3.5887 C   0  0  0  0  0  0  0  0  0  0  0  0
    3.7685    5.2263    5.2909 C   0  0  0  0  0  0  0  0  0  0  0  0
    2.6312    4.1152    3.3564 N   0  0  0  0  0  0  0  0  0  0  0  0
    1.9246    2.9607    3.9394 C   0  0  2  0  0  0  0  0  0  0  0  0
    1.5046    2.0677    2.7409 C   0  0  0  0  0  0  0  0  0  0  0  0
    2.6985    1.1441    2.5012 C   0  0  0  0  0  0  0  0  0  0  0  0
    3.4034    1.0746    3.7970 N   0  0  0  0  0  0  0  0  0  0  0  0
    4.4072    0.2130    4.0830 C   0  0  0  0  0  0  0  0  0  0  0  0
    4.8440   -0.7810    2.9915 C   0  0  0  0  0  0  0  0  0  0  0  0
    4.9708    0.2099    5.1795 O   0  0  0  0  0  0  0  0  0  0  0  0
    2.9083    2.0459    4.7315 C   0  0  0  0  0  0  0  0  0  0  0  0
   -2.8427    1.7511    8.5270 H   0  0  0  0  0  0  0  0  0  0  0  0
   -3.0403    3.1401    7.4498 H   0  0  0  0  0  0  0  0  0  0  0  0
   -1.5610    2.9392    8.3887 H   0  0  0  0  0  0  0  0  0  0  0  0
   -1.0301    0.8613    7.0952 H   0  0  0  0  0  0  0  0  0  0  0  0
   -2.4834    1.0024    6.1360 H   0  0  0  0  0  0  0  0  0  0  0  0
   -3.5094    3.3121    4.9475 H   0  0  0  0  0  0  0  0  0  0  0  0
   -3.0279    1.8323    4.0463 H   0  0  0  0  0  0  0  0  0  0  0  0
   -3.0093    3.4080    3.2241 H   0  0  0  0  0  0  0  0  0  0  0  0
    2.4132    7.3795    4.2971 H   0  0  0  0  0  0  0  0  0  0  0  0
    1.6729    6.6224    2.9154 H   0  0  0  0  0  0  0  0  0  0  0  0
    3.4515    6.7200    3.0313 H   0  0  0  0  0  0  0  0  0  0  0  0
    3.7185    6.1052    5.9296 H   0  0  0  0  0  0  0  0  0  0  0  0
    4.6938    5.2662    4.7241 H   0  0  0  0  0  0  0  0  0  0  0  0
    3.8093    4.3908    5.9764 H   0  0  0  0  0  0  0  0  0  0  0  0
    2.1254    4.3951    2.5090 H   0  0  0  0  0  0  0  0  0  0  0  0
    0.6338    1.4589    3.0069 H   0  0  0  0  0  0  0  0  0  0  0  0
    1.2471    2.6106    1.8194 H   0  0  0  0  0  0  0  0  0  0  0  0
    2.3716    0.1485    2.1489 H   0  0  0  0  0  0  0  0  0  0  0  0
    3.4074    1.5942    1.7857 H   0  0  0  0  0  0  0  0  0  0  0  0
    3.9743   -1.3212    2.6328 H   0  0  0  0  0  0  0  0  0  0  0  0
    5.5591   -1.4848    3.4027 H   0  0  0  0  0  0  0  0  0  0  0  0
    5.2877   -0.2195    2.1763 H   0  0  0  0  0  0  0  0  0  0  0  0
    3.7466    2.5576    5.1851 H   0  0  0  0  0  0  0  0  0  0  0  0
    2.4252    1.4289    5.4655 H   0  0  0  0  0  0  0  0  0  0  0  0
  1  2  1  0
  1 24  1  0
  1 25  1  0
  1 26  1  0
  2  3  1  0
  2 27  1  0
  2 28  1  0
  3  8  1  0
  3  4  1  0
  4  5  2  0
  4  6  1  0
  6 16  1  0
  6  7  1  6
  6 10  1  0
  7  8  2  0
  8  9  1  0
  9 29  1  0
  9 30  1  0
  9 31  1  0
 10 11  2  0
 10 12  1  0
 12 13  1  0
 12 14  1  0
 12 15  1  0
 13 32  1  0
 13 33  1  0
 13 34  1  0
 14 35  1  0
 14 36  1  0
 14 37  1  0
 16 15  1  6
 15 38  1  0
 16 23  1  0
 16 17  1  0
 17 18  1  0
 17 39  1  0
 17 40  1  0
 18 19  1  0
 18 41  1  0
 18 42  1  0
 19 20  1  0
 19 23  1  0
 20 21  1  0
 20 22  2  0
 21 43  1  0
 21 44  1  0
 21 45  1  0
 23 46  1  0
 23 47  1  0
M  END
>  <i_m_ct_stereo_status>  (103) 
1

>  <s_m_source_file>  (103) 
/var/tmp/pbs.5076255.sched01/tmpr6ewtwjb/42o4phu6d4.sdf

>  <i_m_source_file_index>  (103) 
10

>  <i_lp_mmshare_version>  (103) 
48012

>  <i_f3d_flags>  (103) 
0

>  <s_epik_input>  (103) 
W0NIM11bQ0gyXU4oQyg9TjEpW0NIM10pQyg9TylbQ0BAXTEyW0NAXTMoW05IXUMoQzI9TykoW0NIM10pW0NIM10pW0NIMl1bQ0gyXU4oW0NIMl0zKUMoPU8pW0NIM10=

>  <s_epik_cmdline>  (103) 
J2VwaWtfcHl0aG9uJywgJy1waHQnLCAnMi4wJywgJy1waCcsICc3LjAnLCAnLXRuJywgJzgnLCAnLW1hJywgJzIwMCcsICctaW1hZScsICc8aW5maWxlLm1hZT4nLCAnLW9tYWUnLCAnPG91dGZpbGUubWFlPic=

>  <r_lp_tautomer_probability>  (103) 
0.999601

>  <r_epik_Ionization_Penalty>  (103) 
0.00350191

>  <r_epik_Ionization_Penalty_Charging>  (103) 
0

>  <r_epik_Ionization_Penalty_Neutral>  (103) 
0.00350191

>  <r_epik_State_Penalty>  (103) 
0.00246949

>  <r_epik_Charging_Adjusted_Penalty>  (103) 
0.00246949

>  <i_epik_Tot_Q>  (103) 
0

>  <i_epik_Tot_abs_Q>  (103) 
0

>  <s_epik_Chemistry_Notes>  (103) 
This compound has an imine and may undergo hydrolysis.

>  <s_lp_Force_Field>  (103) 
OPLS3e

>  <r_lp_Energy>  (103) 
4.00734

>  <b_lp_Chiralities_Consistent>  (103) 
1

>  <s_lp_Variant>  (103) 
36:0-1

>  <s_i_glide_gridfile>  (103) 
pfpi4k_grid

>  <i_i_glide_lignum>  (103) 
10

>  <i_i_glide_rotatable_bonds>  (103) 
2

>  <r_i_docking_score>  (103) 
-2.60432

>  <r_i_glide_ligand_efficiency>  (103) 
-0.113231

>  <r_i_glide_ligand_efficiency_sa>  (103) 
-0.322014

>  <r_i_glide_ligand_efficiency_ln>  (103) 
-0.629748

>  <r_i_glide_gscore>  (103) 
-2.60432

>  <r_i_glide_lipo>  (103) 
-0.120655

>  <r_i_glide_hbond>  (103) 
0

>  <r_i_glide_metal>  (103) 
-0

>  <r_i_glide_rewards>  (103) 
-1.26039

>  <r_i_glide_evdw>  (103) 
-20.5078

>  <r_i_glide_ecoul>  (103) 
-1.01128

>  <r_i_glide_erotb>  (103) 
0

>  <r_i_glide_esite>  (103) 
-0.04619

>  <r_i_glide_emodel>  (103) 
-23.735

>  <r_i_glide_energy>  (103) 
-21.5191

>  <r_i_glide_einternal>  (103) 
0.402617

>  <r_i_glide_intrahb_reward>  (103) 
-0

>  <i_i_glide_confnum>  (103) 
1

>  <i_i_glide_posenum>  (103) 
35

>  <r_i_glide_eff_state_penalty>  (103) 
0

>  <ligand_id>  (103) 
36

>  <original_smiles>  (103) 
CCN1C(=O)C2(N=C1C)C(=O)C(C)(C)NC21CCN(C(C)=O)C1

>  <smiles>  (103) 
[H]N1C(C([H])([H])[H])(C([H])([H])[H])C(=O)C2(N=C(C([H])([H])[H])N(C([H])([H])C([H])([H])[H])C2=O)C12C([H])([H])N(C(=O)C([H])([H])[H])C([H])([H])C2([H])[H]

$$$$
36:0:2
     RDKit          3D

 47 49  0  0  1  0  0  0  0  0999 V2000
   -2.2770    2.4092    7.8661 C   0  0  0  0  0  0  0  0  0  0  0  0
   -1.7136    1.5994    6.6973 C   0  0  0  0  0  0  0  0  0  0  0  0
   -0.9627    2.4652    5.7931 N   0  0  0  0  0  0  0  0  0  0  0  0
    0.2953    2.8491    5.9899 C   0  0  0  0  0  0  0  0  0  0  0  0
    0.9739    2.6640    6.9930 O   0  0  0  0  0  0  0  0  0  0  0  0
    0.7524    3.6256    4.7450 C   0  0  1  0  0  0  0  0  0  0  0  0
   -0.5036    3.7880    4.0072 N   0  0  0  0  0  0  0  0  0  0  0  0
   -1.3798    3.0881    4.6216 C   0  0  0  0  0  0  0  0  0  0  0  0
   -2.8220    2.9048    4.1922 C   0  0  0  0  0  0  0  0  0  0  0  0
    1.2587    5.0117    5.0969 C   0  0  0  0  0  0  0  0  0  0  0  0
    0.7236    5.8110    5.8759 O   0  0  0  0  0  0  0  0  0  0  0  0
    2.5459    5.2500    4.3296 C   0  0  0  0  0  0  0  0  0  0  0  0
    2.5039    6.5944    3.5832 C   0  0  0  0  0  0  0  0  0  0  0  0
    3.7636    5.2703    5.2819 C   0  0  0  0  0  0  0  0  0  0  0  0
    2.6271    4.1570    3.3531 N   0  0  0  0  0  0  0  0  0  0  0  0
    1.9251    2.9990    3.9318 C   0  0  2  0  0  0  0  0  0  0  0  0
    1.5149    2.0922    2.7436 C   0  0  0  0  0  0  0  0  0  0  0  0
    2.7175    1.1800    2.5152 C   0  0  0  0  0  0  0  0  0  0  0  0
    3.4102    1.1294    3.8171 N   0  0  0  0  0  0  0  0  0  0  0  0
    4.4319    0.2661    4.0699 C   0  0  0  0  0  0  0  0  0  0  0  0
    5.0788    0.3075    5.4693 C   0  0  0  0  0  0  0  0  0  0  0  0
    4.8766   -0.5510    3.2388 O   0  0  0  0  0  0  0  0  0  0  0  0
    2.9064    2.1024    4.7367 C   0  0  0  0  0  0  0  0  0  0  0  0
   -2.7800    1.7483    8.5623 H   0  0  0  0  0  0  0  0  0  0  0  0
   -2.9838    3.1564    7.5107 H   0  0  0  0  0  0  0  0  0  0  0  0
   -1.4918    2.9292    8.4201 H   0  0  0  0  0  0  0  0  0  0  0  0
   -1.0039    0.8650    7.0883 H   0  0  0  0  0  0  0  0  0  0  0  0
   -2.4738    1.0331    6.1603 H   0  0  0  0  0  0  0  0  0  0  0  0
   -3.5001    3.2888    4.9603 H   0  0  0  0  0  0  0  0  0  0  0  0
   -3.0175    1.8471    4.0010 H   0  0  0  0  0  0  0  0  0  0  0  0
   -3.0068    3.4101    3.2414 H   0  0  0  0  0  0  0  0  0  0  0  0
    2.3908    7.4154    4.2943 H   0  0  0  0  0  0  0  0  0  0  0  0
    1.6523    6.6536    2.9081 H   0  0  0  0  0  0  0  0  0  0  0  0
    3.4300    6.7627    3.0261 H   0  0  0  0  0  0  0  0  0  0  0  0
    3.7061    6.1470    5.9261 H   0  0  0  0  0  0  0  0  0  0  0  0
    4.6886    5.3185    4.7086 H   0  0  0  0  0  0  0  0  0  0  0  0
    3.8083    4.4248    5.9654 H   0  0  0  0  0  0  0  0  0  0  0  0
    2.1172    4.4275    2.5070 H   0  0  0  0  0  0  0  0  0  0  0  0
    0.6486    1.4838    3.0135 H   0  0  0  0  0  0  0  0  0  0  0  0
    1.2551    2.6363    1.8267 H   0  0  0  0  0  0  0  0  0  0  0  0
    2.4236    0.1770    2.1721 H   0  0  0  0  0  0  0  0  0  0  0  0
    3.4137    1.6284    1.7990 H   0  0  0  0  0  0  0  0  0  0  0  0
    5.4059    1.3180    5.7485 H   0  0  0  0  0  0  0  0  0  0  0  0
    5.9669   -0.3302    5.4852 H   0  0  0  0  0  0  0  0  0  0  0  0
    4.3898   -0.0624    6.2399 H   0  0  0  0  0  0  0  0  0  0  0  0
    3.7375    2.6417    5.1902 H   0  0  0  0  0  0  0  0  0  0  0  0
    2.4216    1.4920    5.4902 H   0  0  0  0  0  0  0  0  0  0  0  0
  1  2  1  0
  1 24  1  0
  1 25  1  0
  1 26  1  0
  2  3  1  0
  2 27  1  0
  2 28  1  0
  3  8  1  0
  3  4  1  0
  4  5  2  0
  4  6  1  0
  6 16  1  0
  6  7  1  6
  6 10  1  0
  7  8  2  0
  8  9  1  0
  9 29  1  0
  9 30  1  0
  9 31  1  0
 10 11  2  0
 10 12  1  0
 12 13  1  0
 12 14  1  0
 12 15  1  0
 13 32  1  0
 13 33  1  0
 13 34  1  0
 14 35  1  0
 14 36  1  0
 14 37  1  0
 16 15  1  6
 15 38  1  0
 16 23  1  0
 16 17  1  0
 17 18  1  0
 17 39  1  0
 17 40  1  0
 18 19  1  0
 18 41  1  0
 18 42  1  0
 19 20  1  0
 19 23  1  0
 20 21  1  0
 20 22  2  0
 21 43  1  0
 21 44  1  0
 21 45  1  0
 23 46  1  0
 23 47  1  0
M  END
>  <i_m_ct_stereo_status>  (104) 
1

>  <s_m_source_file>  (104) 
/var/tmp/pbs.5076255.sched01/tmpr6ewtwjb/42o4phu6d4.sdf

>  <i_m_source_file_index>  (104) 
10

>  <i_lp_mmshare_version>  (104) 
48012

>  <i_f3d_flags>  (104) 
0

>  <s_epik_input>  (104) 
W0NIM11bQ0gyXU4oQyg9TjEpW0NIM10pQyg9TylbQ0BAXTEyW0NAXTMoW05IXUMoQzI9TykoW0NIM10pW0NIM10pW0NIMl1bQ0gyXU4oW0NIMl0zKUMoPU8pW0NIM10=

>  <s_epik_cmdline>  (104) 
J2VwaWtfcHl0aG9uJywgJy1waHQnLCAnMi4wJywgJy1waCcsICc3LjAnLCAnLXRuJywgJzgnLCAnLW1hJywgJzIwMCcsICctaW1hZScsICc8aW5maWxlLm1hZT4nLCAnLW9tYWUnLCAnPG91dGZpbGUubWFlPic=

>  <r_lp_tautomer_probability>  (104) 
0.999601

>  <r_epik_Ionization_Penalty>  (104) 
0.00350191

>  <r_epik_Ionization_Penalty_Charging>  (104) 
0

>  <r_epik_Ionization_Penalty_Neutral>  (104) 
0.00350191

>  <r_epik_State_Penalty>  (104) 
0.00246949

>  <r_epik_Charging_Adjusted_Penalty>  (104) 
0.00246949

>  <i_epik_Tot_Q>  (104) 
0

>  <i_epik_Tot_abs_Q>  (104) 
0

>  <s_epik_Chemistry_Notes>  (104) 
This compound has an imine and may undergo hydrolysis.

>  <s_lp_Force_Field>  (104) 
OPLS3e

>  <r_lp_Energy>  (104) 
4.00734

>  <b_lp_Chiralities_Consistent>  (104) 
1

>  <s_lp_Variant>  (104) 
36:0-1

>  <s_i_glide_gridfile>  (104) 
pfpi4k_grid

>  <i_i_glide_lignum>  (104) 
10

>  <i_i_glide_rotatable_bonds>  (104) 
2

>  <r_i_docking_score>  (104) 
-2.44963

>  <r_i_glide_ligand_efficiency>  (104) 
-0.106505

>  <r_i_glide_ligand_efficiency_sa>  (104) 
-0.302887

>  <r_i_glide_ligand_efficiency_ln>  (104) 
-0.592342

>  <r_i_glide_gscore>  (104) 
-2.44963

>  <r_i_glide_lipo>  (104) 
-0.0498427

>  <r_i_glide_hbond>  (104) 
0

>  <r_i_glide_metal>  (104) 
-0

>  <r_i_glide_rewards>  (104) 
-1.26142

>  <r_i_glide_evdw>  (104) 
-20.2657

>  <r_i_glide_ecoul>  (104) 
-0.529923

>  <r_i_glide_erotb>  (104) 
0

>  <r_i_glide_esite>  (104) 
-0.0455939

>  <r_i_glide_emodel>  (104) 
-22.8713

>  <r_i_glide_energy>  (104) 
-20.7956

>  <r_i_glide_einternal>  (104) 
0.0157203

>  <r_i_glide_intrahb_reward>  (104) 
-0

>  <i_i_glide_confnum>  (104) 
1

>  <i_i_glide_posenum>  (104) 
33

>  <r_i_glide_eff_state_penalty>  (104) 
0

>  <ligand_id>  (104) 
36

>  <original_smiles>  (104) 
CCN1C(=O)C2(N=C1C)C(=O)C(C)(C)NC21CCN(C(C)=O)C1

>  <smiles>  (104) 
[H]N1C(C([H])([H])[H])(C([H])([H])[H])C(=O)C2(N=C(C([H])([H])[H])N(C([H])([H])C([H])([H])[H])C2=O)C12C([H])([H])N(C(=O)C([H])([H])[H])C([H])([H])C2([H])[H]

$$$$
37:0:0
     RDKit          3D

 54 59  0  0  1  0  0  0  0  0999 V2000
    3.7540   -1.1516   -3.1921 C   0  0  0  0  0  0  0  0  0  0  0  0
    3.9615   -0.9637   -1.6811 C   0  0  0  0  0  0  0  0  0  0  0  0
    5.0066   -1.8922   -1.0164 C   0  0  2  0  0  0  0  0  0  0  0  0
    4.7457   -3.4521   -1.2839 C   0  0  0  0  0  0  0  0  0  0  0  0
    4.7727   -4.1068    0.1330 C   0  0  2  0  0  0  0  0  0  0  0  0
    4.2409   -5.4692    0.6000 C   0  0  0  0  0  0  0  0  0  0  0  0
    5.0083   -6.5059    1.1918 C   0  0  0  0  0  0  0  0  0  0  0  0
    4.3257   -7.6886    1.5460 C   0  0  0  0  0  0  0  0  0  0  0  0
    2.9160   -7.7557    1.4366 C   0  0  0  0  0  0  0  0  0  0  0  0
    2.1834   -6.5579    1.1871 C   0  0  0  0  0  0  0  0  0  0  0  0
    0.8248   -6.5558    1.3224 O   0  0  0  0  0  0  0  0  0  0  0  0
    2.8748   -5.3845    0.8739 C   0  0  0  0  0  0  0  0  0  0  0  0
    2.4299   -4.1023    1.0718 O   0  0  0  0  0  0  0  0  0  0  0  0
    3.5447   -3.3071    0.7158 C   0  0  1  0  0  0  0  0  0  0  0  0
    3.9141   -1.9821    1.3366 C   0  0  1  0  0  0  0  0  0  0  0  0
    4.1494   -2.1159    2.7228 O   0  0  0  0  0  0  0  0  0  0  0  0
    5.2086   -1.6129    0.5696 C   0  0  2  0  0  0  0  0  0  0  0  0
    5.6850   -0.1949    0.8798 C   0  0  0  0  0  0  0  0  0  0  0  0
    6.1927   -2.5039    1.1810 O   0  0  0  0  0  0  0  0  0  0  0  0
    6.2550   -3.7888    0.5765 C   0  0  2  0  0  0  0  0  0  0  0  0
    7.4745   -3.4909   -0.3565 C   0  0  0  0  0  0  0  0  0  0  0  0
    8.6909   -3.6381    0.5437 C   0  0  0  0  0  0  0  0  0  0  0  0
    8.2908   -4.5796    1.6103 N   0  0  2  0  0  0  0  0  0  0  0  0
    9.2791   -5.6338    1.9080 C   0  0  0  0  0  0  0  0  0  0  0  0
    6.9612   -5.0216    1.1665 C   0  0  1  0  0  0  0  0  0  0  0  0
    6.1501   -5.9283    2.0296 C   0  0  0  0  0  0  0  0  0  0  0  0
    3.0394   -0.4216   -3.5775 H   0  0  0  0  0  0  0  0  0  0  0  0
    3.3520   -2.1341   -3.4312 H   0  0  0  0  0  0  0  0  0  0  0  0
    4.6854   -1.0204   -3.7397 H   0  0  0  0  0  0  0  0  0  0  0  0
    4.2582    0.0717   -1.5383 H   0  0  0  0  0  0  0  0  0  0  0  0
    3.0078   -1.0597   -1.1799 H   0  0  0  0  0  0  0  0  0  0  0  0
    5.8998   -1.5938   -1.5455 H   0  0  0  0  0  0  0  0  0  0  0  0
    3.7960   -3.6176   -1.7899 H   0  0  0  0  0  0  0  0  0  0  0  0
    5.4712   -3.8607   -1.9849 H   0  0  0  0  0  0  0  0  0  0  0  0
    4.8556   -8.4998    2.0417 H   0  0  0  0  0  0  0  0  0  0  0  0
    2.4106   -8.6695    1.7016 H   0  0  0  0  0  0  0  0  0  0  0  0
    0.4994   -7.4097    1.5658 H   0  0  0  0  0  0  0  0  0  0  0  0
    2.9155   -2.9446   -0.0936 H   0  0  0  0  0  0  0  0  0  0  0  0
    3.1275   -1.2432    1.1792 H   0  0  0  0  0  0  0  0  0  0  0  0
    3.3278   -2.3642    3.1189 H   0  0  0  0  0  0  0  0  0  0  0  0
    4.9194    0.5342    0.6273 H   0  0  0  0  0  0  0  0  0  0  0  0
    6.5850    0.0621    0.3205 H   0  0  0  0  0  0  0  0  0  0  0  0
    5.9081   -0.0751    1.9404 H   0  0  0  0  0  0  0  0  0  0  0  0
    7.5858   -4.2526   -1.1012 H   0  0  0  0  0  0  0  0  0  0  0  0
    7.5371   -2.5303   -0.8580 H   0  0  0  0  0  0  0  0  0  0  0  0
    9.5334   -3.9838   -0.0309 H   0  0  0  0  0  0  0  0  0  0  0  0
    8.9864   -2.6811    0.9370 H   0  0  0  0  0  0  0  0  0  0  0  0
    9.4093   -6.2643    1.0437 H   0  0  0  0  0  0  0  0  0  0  0  0
    8.9922   -6.2583    2.7390 H   0  0  0  0  0  0  0  0  0  0  0  0
   10.2375   -5.2043    2.1656 H   0  0  0  0  0  0  0  0  0  0  0  0
    7.1933   -5.7166    0.3598 H   0  0  0  0  0  0  0  0  0  0  0  0
    5.7576   -5.3856    2.8939 H   0  0  0  0  0  0  0  0  0  0  0  0
    6.7306   -6.7552    2.4184 H   0  0  0  0  0  0  0  0  0  0  0  0
    8.1803   -4.0287    2.4436 H   0  0  0  0  0  0  0  0  0  0  0  0
  1  2  1  0
  1 27  1  0
  1 28  1  0
  1 29  1  0
  2  3  1  0
  2 30  1  0
  2 31  1  0
  3 17  1  0
  3  4  1  0
  3 32  1  6
  5  4  1  6
  4 33  1  0
  4 34  1  0
  5 14  1  0
  5 20  1  0
  5  6  1  0
  6 12  2  0
  6  7  1  0
  7 26  1  0
  7  8  2  0
  8  9  1  0
  8 35  1  0
  9 10  2  0
  9 36  1  0
 10 11  1  0
 10 12  1  0
 11 37  1  0
 12 13  1  0
 13 14  1  0
 14 15  1  0
 14 38  1  6
 15 16  1  0
 15 17  1  0
 15 39  1  1
 16 40  1  0
 17 18  1  6
 17 19  1  0
 18 41  1  0
 18 42  1  0
 18 43  1  0
 19 20  1  0
 20 25  1  0
 20 21  1  6
 21 22  1  0
 21 44  1  0
 21 45  1  0
 22 23  1  0
 22 46  1  0
 22 47  1  0
 23 24  1  0
 23 25  1  0
 23 54  1  1
 24 48  1  0
 24 49  1  0
 24 50  1  0
 25 26  1  0
 25 51  1  6
 26 52  1  0
 26 53  1  0
M  CHG  1  23   1
M  END
>  <i_m_ct_stereo_status>  (105) 
1

>  <s_m_source_file>  (105) 
/var/tmp/pbs.5076255.sched01/tmpr6ewtwjb/42o4phu6d4.sdf

>  <i_m_source_file_index>  (105) 
11

>  <i_lp_mmshare_version>  (105) 
48012

>  <i_f3d_flags>  (105) 
0

>  <s_epik_input>  (105) 
W0NIM11bQ0gyXVtDQEhdKFtDSDJdMSlbQ0BAXShPMikoW0NIM10pW0NASF0oW09IXSlbQ0BASF0zT2MoYyhbT0hdKVtjSF1bY0hdNCljNWM0W0NIMl1bQ0BASF0oW0NAQF0yNltDQF0xMzUpTihbQ0gzXSlbQ0gyXVtDSDJdNg==

>  <s_epik_cmdline>  (105) 
J2VwaWtfcHl0aG9uJywgJy1waHQnLCAnMi4wJywgJy1waCcsICc3LjAnLCAnLXRuJywgJzgnLCAnLW1hJywgJzIwMCcsICctaW1hZScsICc8aW5maWxlLm1hZT4nLCAnLW9tYWUnLCAnPG91dGZpbGUubWFlPic=

>  <r_lp_tautomer_probability>  (105) 
1

>  <r_epik_Ionization_Penalty>  (105) 
0.0411853

>  <r_epik_Ionization_Penalty_Charging>  (105) 
0.0327887

>  <r_epik_Ionization_Penalty_Neutral>  (105) 
0.0083966

>  <r_epik_State_Penalty>  (105) 
0.0332244

>  <r_epik_Charging_Adjusted_Penalty>  (105) 
0.0660131

>  <i_epik_Tot_Q>  (105) 
1

>  <i_epik_Tot_abs_Q>  (105) 
1

>  <s_lp_Force_Field>  (105) 
OPLS3e

>  <r_lp_Energy>  (105) 
159.837

>  <b_lp_Chiralities_Consistent>  (105) 
1

>  <s_lp_Variant>  (105) 
37:0-1

>  <s_i_glide_gridfile>  (105) 
pfpi4k_grid

>  <i_i_glide_lignum>  (105) 
11

>  <i_i_glide_rotatable_bonds>  (105) 
3

>  <r_i_docking_score>  (105) 
-3.66694

>  <r_i_glide_ligand_efficiency>  (105) 
-0.141036

>  <r_i_glide_ligand_efficiency_sa>  (105) 
-0.417819

>  <r_i_glide_ligand_efficiency_ln>  (105) 
-0.861169

>  <r_i_glide_gscore>  (105) 
-3.66694

>  <r_i_glide_lipo>  (105) 
-1.02795

>  <r_i_glide_hbond>  (105) 
0

>  <r_i_glide_metal>  (105) 
-0

>  <r_i_glide_rewards>  (105) 
-0.965105

>  <r_i_glide_evdw>  (105) 
-21.099

>  <r_i_glide_ecoul>  (105) 
-4.12624

>  <r_i_glide_erotb>  (105) 
0

>  <r_i_glide_esite>  (105) 
0

>  <r_i_glide_emodel>  (105) 
-31.9214

>  <r_i_glide_energy>  (105) 
-25.2253

>  <r_i_glide_einternal>  (105) 
0.638846

>  <r_i_glide_intrahb_reward>  (105) 
-0

>  <i_i_glide_confnum>  (105) 
1

>  <i_i_glide_posenum>  (105) 
7

>  <r_i_glide_eff_state_penalty>  (105) 
0

>  <ligand_id>  (105) 
37

>  <original_smiles>  (105) 
CCC1CC23c4c5ccc(O)c4OC2C(O)C1(C)OC31CCN(C)C1C5

>  <smiles>  (105) 
[H]Oc1c([H])c([H])c2c3c1OC1([H])C([H])(O[H])C4(C([H])([H])[H])OC5(C([H])([H])C([H])([H])[N+]([H])(C([H])([H])[H])C5([H])C2([H])[H])C31C([H])([H])C4([H])C([H])([H])C([H])([H])[H]

$$$$
37:0:1
     RDKit          3D

 54 59  0  0  1  0  0  0  0  0999 V2000
    3.7419   -1.1396   -3.1960 C   0  0  0  0  0  0  0  0  0  0  0  0
    3.9637   -0.9340   -1.6879 C   0  0  0  0  0  0  0  0  0  0  0  0
    5.0009   -1.8748   -1.0235 C   0  0  2  0  0  0  0  0  0  0  0  0
    4.7278   -3.4304   -1.3113 C   0  0  0  0  0  0  0  0  0  0  0  0
    4.7360   -4.0930    0.1004 C   0  0  2  0  0  0  0  0  0  0  0  0
    4.1987   -5.4719    0.5350 C   0  0  0  0  0  0  0  0  0  0  0  0
    4.9380   -6.4935    1.1673 C   0  0  0  0  0  0  0  0  0  0  0  0
    4.2536   -7.6875    1.4896 C   0  0  0  0  0  0  0  0  0  0  0  0
    2.8538   -7.7467    1.3647 C   0  0  0  0  0  0  0  0  0  0  0  0
    2.1300   -6.5529    1.1177 C   0  0  0  0  0  0  0  0  0  0  0  0
    0.7696   -6.5332    1.2504 O   0  0  0  0  0  0  0  0  0  0  0  0
    2.8341   -5.3772    0.8108 C   0  0  0  0  0  0  0  0  0  0  0  0
    2.4025   -4.1087    1.0345 O   0  0  0  0  0  0  0  0  0  0  0  0
    3.5100   -3.2950    0.6898 C   0  0  1  0  0  0  0  0  0  0  0  0
    3.8901   -1.9743    1.3300 C   0  0  1  0  0  0  0  0  0  0  0  0
    4.1252   -2.1018    2.7241 O   0  0  0  0  0  0  0  0  0  0  0  0
    5.1944   -1.6092    0.5693 C   0  0  2  0  0  0  0  0  0  0  0  0
    5.6766   -0.1921    0.8910 C   0  0  0  0  0  0  0  0  0  0  0  0
    6.1497   -2.5229    1.1935 O   0  0  0  0  0  0  0  0  0  0  0  0
    6.2169   -3.7997    0.5694 C   0  0  2  0  0  0  0  0  0  0  0  0
    7.4466   -3.4994   -0.3498 C   0  0  0  0  0  0  0  0  0  0  0  0
    8.6675   -3.6569    0.5687 C   0  0  0  0  0  0  0  0  0  0  0  0
    8.2480   -4.6006    1.6279 N   0  0  2  0  0  0  0  0  0  0  0  0
    9.2359   -5.6607    1.9246 C   0  0  0  0  0  0  0  0  0  0  0  0
    6.9244   -5.0391    1.1607 C   0  0  1  0  0  0  0  0  0  0  0  0
    6.0895   -5.9491    2.0117 C   0  0  0  0  0  0  0  0  0  0  0  0
    3.0385   -0.4017   -3.5867 H   0  0  0  0  0  0  0  0  0  0  0  0
    3.3194   -2.1177   -3.4182 H   0  0  0  0  0  0  0  0  0  0  0  0
    4.6725   -1.0355   -3.7519 H   0  0  0  0  0  0  0  0  0  0  0  0
    4.2818    0.0989   -1.5595 H   0  0  0  0  0  0  0  0  0  0  0  0
    3.0105   -1.0065   -1.1782 H   0  0  0  0  0  0  0  0  0  0  0  0
    5.9003   -1.5790   -1.5469 H   0  0  0  0  0  0  0  0  0  0  0  0
    3.7828   -3.5940   -1.8243 H   0  0  0  0  0  0  0  0  0  0  0  0
    5.4640   -3.8449   -1.9975 H   0  0  0  0  0  0  0  0  0  0  0  0
    4.7761   -8.4969    1.9824 H   0  0  0  0  0  0  0  0  0  0  0  0
    2.3395   -8.6531    1.6209 H   0  0  0  0  0  0  0  0  0  0  0  0
    0.4290   -7.3869    1.4751 H   0  0  0  0  0  0  0  0  0  0  0  0
    2.8852   -2.9223   -0.1210 H   0  0  0  0  0  0  0  0  0  0  0  0
    3.1079   -1.2317    1.1744 H   0  0  0  0  0  0  0  0  0  0  0  0
    4.7231   -2.8192    2.8590 H   0  0  0  0  0  0  0  0  0  0  0  0
    4.9154    0.5413    0.6377 H   0  0  0  0  0  0  0  0  0  0  0  0
    6.5836    0.0597    0.3428 H   0  0  0  0  0  0  0  0  0  0  0  0
    5.8899   -0.0815    1.9540 H   0  0  0  0  0  0  0  0  0  0  0  0
    7.5566   -4.2539   -1.1076 H   0  0  0  0  0  0  0  0  0  0  0  0
    7.5198   -2.5256   -0.8388 H   0  0  0  0  0  0  0  0  0  0  0  0
    9.5171   -4.0199   -0.0150 H   0  0  0  0  0  0  0  0  0  0  0  0
    8.9568   -2.6994    0.9808 H   0  0  0  0  0  0  0  0  0  0  0  0
    9.4045   -6.2567    1.0260 H   0  0  0  0  0  0  0  0  0  0  0  0
    8.9193   -6.3076    2.7420 H   0  0  0  0  0  0  0  0  0  0  0  0
   10.1979   -5.2317    2.2055 H   0  0  0  0  0  0  0  0  0  0  0  0
    7.1602   -5.7344    0.3467 H   0  0  0  0  0  0  0  0  0  0  0  0
    5.6950   -5.4065    2.8792 H   0  0  0  0  0  0  0  0  0  0  0  0
    6.6614   -6.7876    2.4004 H   0  0  0  0  0  0  0  0  0  0  0  0
    8.1263   -4.0581    2.4721 H   0  0  0  0  0  0  0  0  0  0  0  0
  1  2  1  0
  1 27  1  0
  1 28  1  0
  1 29  1  0
  2  3  1  0
  2 30  1  0
  2 31  1  0
  3 17  1  0
  3  4  1  0
  3 32  1  6
  5  4  1  6
  4 33  1  0
  4 34  1  0
  5 14  1  0
  5 20  1  0
  5  6  1  0
  6 12  2  0
  6  7  1  0
  7 26  1  0
  7  8  2  0
  8  9  1  0
  8 35  1  0
  9 10  2  0
  9 36  1  0
 10 11  1  0
 10 12  1  0
 11 37  1  0
 12 13  1  0
 13 14  1  0
 14 15  1  0
 14 38  1  6
 15 16  1  0
 15 17  1  0
 15 39  1  1
 16 40  1  0
 17 18  1  6
 17 19  1  0
 18 41  1  0
 18 42  1  0
 18 43  1  0
 19 20  1  0
 20 25  1  0
 20 21  1  6
 21 22  1  0
 21 44  1  0
 21 45  1  0
 22 23  1  0
 22 46  1  0
 22 47  1  0
 23 24  1  0
 23 25  1  0
 23 54  1  1
 24 48  1  0
 24 49  1  0
 24 50  1  0
 25 26  1  0
 25 51  1  6
 26 52  1  0
 26 53  1  0
M  CHG  1  23   1
M  END
>  <i_m_ct_stereo_status>  (106) 
1

>  <s_m_source_file>  (106) 
/var/tmp/pbs.5076255.sched01/tmpr6ewtwjb/42o4phu6d4.sdf

>  <i_m_source_file_index>  (106) 
11

>  <i_lp_mmshare_version>  (106) 
48012

>  <i_f3d_flags>  (106) 
0

>  <s_epik_input>  (106) 
W0NIM11bQ0gyXVtDQEhdKFtDSDJdMSlbQ0BAXShPMikoW0NIM10pW0NASF0oW09IXSlbQ0BASF0zT2MoYyhbT0hdKVtjSF1bY0hdNCljNWM0W0NIMl1bQ0BASF0oW0NAQF0yNltDQF0xMzUpTihbQ0gzXSlbQ0gyXVtDSDJdNg==

>  <s_epik_cmdline>  (106) 
J2VwaWtfcHl0aG9uJywgJy1waHQnLCAnMi4wJywgJy1waCcsICc3LjAnLCAnLXRuJywgJzgnLCAnLW1hJywgJzIwMCcsICctaW1hZScsICc8aW5maWxlLm1hZT4nLCAnLW9tYWUnLCAnPG91dGZpbGUubWFlPic=

>  <r_lp_tautomer_probability>  (106) 
1

>  <r_epik_Ionization_Penalty>  (106) 
0.0411853

>  <r_epik_Ionization_Penalty_Charging>  (106) 
0.0327887

>  <r_epik_Ionization_Penalty_Neutral>  (106) 
0.0083966

>  <r_epik_State_Penalty>  (106) 
0.0332244

>  <r_epik_Charging_Adjusted_Penalty>  (106) 
0.0660131

>  <i_epik_Tot_Q>  (106) 
1

>  <i_epik_Tot_abs_Q>  (106) 
1

>  <s_lp_Force_Field>  (106) 
OPLS3e

>  <r_lp_Energy>  (106) 
159.837

>  <b_lp_Chiralities_Consistent>  (106) 
1

>  <s_lp_Variant>  (106) 
37:0-1

>  <s_i_glide_gridfile>  (106) 
pfpi4k_grid

>  <i_i_glide_lignum>  (106) 
11

>  <i_i_glide_rotatable_bonds>  (106) 
3

>  <r_i_docking_score>  (106) 
-3.56703

>  <r_i_glide_ligand_efficiency>  (106) 
-0.137193

>  <r_i_glide_ligand_efficiency_sa>  (106) 
-0.406435

>  <r_i_glide_ligand_efficiency_ln>  (106) 
-0.837704

>  <r_i_glide_gscore>  (106) 
-3.56703

>  <r_i_glide_lipo>  (106) 
-1.01859

>  <r_i_glide_hbond>  (106) 
0

>  <r_i_glide_metal>  (106) 
-0

>  <r_i_glide_rewards>  (106) 
-0.965105

>  <r_i_glide_evdw>  (106) 
-20.3167

>  <r_i_glide_ecoul>  (106) 
-3.78333

>  <r_i_glide_erotb>  (106) 
0

>  <r_i_glide_esite>  (106) 
0

>  <r_i_glide_emodel>  (106) 
-30.6792

>  <r_i_glide_energy>  (106) 
-24.1001

>  <r_i_glide_einternal>  (106) 
0.47071

>  <r_i_glide_intrahb_reward>  (106) 
-0

>  <i_i_glide_confnum>  (106) 
1

>  <i_i_glide_posenum>  (106) 
28

>  <r_i_glide_eff_state_penalty>  (106) 
0

>  <ligand_id>  (106) 
37

>  <original_smiles>  (106) 
CCC1CC23c4c5ccc(O)c4OC2C(O)C1(C)OC31CCN(C)C1C5

>  <smiles>  (106) 
[H]Oc1c([H])c([H])c2c3c1OC1([H])C([H])(O[H])C4(C([H])([H])[H])OC5(C([H])([H])C([H])([H])[N+]([H])(C([H])([H])[H])C5([H])C2([H])[H])C31C([H])([H])C4([H])C([H])([H])C([H])([H])[H]

$$$$
37:0:2
     RDKit          3D

 54 59  0  0  1  0  0  0  0  0999 V2000
    3.3350   -9.4398    4.8815 C   0  0  0  0  0  0  0  0  0  0  0  0
    2.9734   -7.9317    4.9147 C   0  0  0  0  0  0  0  0  0  0  0  0
    3.4180   -7.0990    3.6705 C   0  0  2  0  0  0  0  0  0  0  0  0
    3.7297   -5.5564    4.0249 C   0  0  0  0  0  0  0  0  0  0  0  0
    2.8859   -4.7323    3.0020 C   0  0  2  0  0  0  0  0  0  0  0  0
    2.4558   -3.2596    3.0253 C   0  0  0  0  0  0  0  0  0  0  0  0
    2.7250   -2.2876    2.0228 C   0  0  0  0  0  0  0  0  0  0  0  0
    2.2530   -0.9822    2.2406 C   0  0  0  0  0  0  0  0  0  0  0  0
    1.3932   -0.7140    3.3312 C   0  0  0  0  0  0  0  0  0  0  0  0
    0.8411   -1.8107    4.0482 C   0  0  0  0  0  0  0  0  0  0  0  0
   -0.2239   -1.5976    4.8781 O   0  0  0  0  0  0  0  0  0  0  0  0
    1.3132   -3.1031    3.8214 C   0  0  0  0  0  0  0  0  0  0  0  0
    0.6295   -4.2704    4.0455 O   0  0  0  0  0  0  0  0  0  0  0  0
    1.4735   -5.2598    3.4763 C   0  0  1  0  0  0  0  0  0  0  0  0
    1.0396   -6.5370    2.7770 C   0  0  1  0  0  0  0  0  0  0  0  0
    0.2572   -6.2801    1.6202 O   0  0  0  0  0  0  0  0  0  0  0  0
    2.3994   -7.1943    2.4048 C   0  0  2  0  0  0  0  0  0  0  0  0
    2.2230   -8.6109    1.8384 C   0  0  0  0  0  0  0  0  0  0  0  0
    2.8231   -6.3729    1.2752 O   0  0  0  0  0  0  0  0  0  0  0  0
    3.5402   -5.2008    1.6410 C   0  0  2  0  0  0  0  0  0  0  0  0
    4.9979   -5.7519    1.4502 C   0  0  0  0  0  0  0  0  0  0  0  0
    5.2001   -5.7070   -0.0763 C   0  0  0  0  0  0  0  0  0  0  0  0
    4.3297   -4.6221   -0.5784 N   0  0  2  0  0  0  0  0  0  0  0  0
    5.0143   -3.6940   -1.5159 C   0  0  0  0  0  0  0  0  0  0  0  0
    3.8254   -4.0304    0.6746 C   0  0  1  0  0  0  0  0  0  0  0  0
    2.8299   -2.9133    0.6332 C   0  0  0  0  0  0  0  0  0  0  0  0
    2.9442   -9.9516    5.7649 H   0  0  0  0  0  0  0  0  0  0  0  0
    4.4154   -9.5949    4.8445 H   0  0  0  0  0  0  0  0  0  0  0  0
    2.9257   -9.9972    4.0378 H   0  0  0  0  0  0  0  0  0  0  0  0
    1.9068   -7.8192    5.1030 H   0  0  0  0  0  0  0  0  0  0  0  0
    3.4569   -7.5300    5.8014 H   0  0  0  0  0  0  0  0  0  0  0  0
    4.3724   -7.5524    3.4228 H   0  0  0  0  0  0  0  0  0  0  0  0
    3.4795   -5.3206    5.0634 H   0  0  0  0  0  0  0  0  0  0  0  0
    4.7949   -5.3291    3.9853 H   0  0  0  0  0  0  0  0  0  0  0  0
    2.3966   -0.2133    1.4877 H   0  0  0  0  0  0  0  0  0  0  0  0
    1.0088    0.2806    3.4675 H   0  0  0  0  0  0  0  0  0  0  0  0
   -0.5108   -0.7038    4.8702 H   0  0  0  0  0  0  0  0  0  0  0  0
    1.5519   -5.6501    4.4892 H   0  0  0  0  0  0  0  0  0  0  0  0
    0.4688   -7.1658    3.4604 H   0  0  0  0  0  0  0  0  0  0  0  0
    0.0658   -7.1229    1.2314 H   0  0  0  0  0  0  0  0  0  0  0  0
    1.6350   -9.2407    2.5048 H   0  0  0  0  0  0  0  0  0  0  0  0
    3.1912   -9.0891    1.6582 H   0  0  0  0  0  0  0  0  0  0  0  0
    1.6756   -8.6080    0.8970 H   0  0  0  0  0  0  0  0  0  0  0  0
    5.7423   -5.1111    1.9375 H   0  0  0  0  0  0  0  0  0  0  0  0
    5.1951   -6.7720    1.7601 H   0  0  0  0  0  0  0  0  0  0  0  0
    6.2435   -5.5466   -0.3160 H   0  0  0  0  0  0  0  0  0  0  0  0
    4.8884   -6.6367   -0.5468 H   0  0  0  0  0  0  0  0  0  0  0  0
    5.8572   -3.1960   -1.0487 H   0  0  0  0  0  0  0  0  0  0  0  0
    4.3326   -2.9364   -1.8908 H   0  0  0  0  0  0  0  0  0  0  0  0
    5.3880   -4.2414   -2.3764 H   0  0  0  0  0  0  0  0  0  0  0  0
    4.6854   -3.4771    1.0590 H   0  0  0  0  0  0  0  0  0  0  0  0
    1.8582   -3.2834    0.3154 H   0  0  0  0  0  0  0  0  0  0  0  0
    3.1120   -2.1367   -0.0744 H   0  0  0  0  0  0  0  0  0  0  0  0
    3.5622   -5.0666   -1.0804 H   0  0  0  0  0  0  0  0  0  0  0  0
  1  2  1  0
  1 27  1  0
  1 28  1  0
  1 29  1  0
  2  3  1  0
  2 30  1  0
  2 31  1  0
  3 17  1  0
  3  4  1  0
  3 32  1  6
  5  4  1  1
  4 33  1  0
  4 34  1  0
  5 14  1  0
  5 20  1  0
  5  6  1  0
  6 12  2  0
  6  7  1  0
  7 26  1  0
  7  8  2  0
  8  9  1  0
  8 35  1  0
  9 10  2  0
  9 36  1  0
 10 11  1  0
 10 12  1  0
 11 37  1  0
 12 13  1  0
 13 14  1  0
 14 15  1  0
 14 38  1  1
 15 16  1  0
 15 17  1  0
 15 39  1  1
 16 40  1  0
 17 18  1  6
 17 19  1  0
 18 41  1  0
 18 42  1  0
 18 43  1  0
 19 20  1  0
 20 25  1  0
 20 21  1  1
 21 22  1  0
 21 44  1  0
 21 45  1  0
 22 23  1  0
 22 46  1  0
 22 47  1  0
 23 24  1  0
 23 25  1  0
 23 54  1  6
 24 48  1  0
 24 49  1  0
 24 50  1  0
 25 26  1  0
 25 51  1  1
 26 52  1  0
 26 53  1  0
M  CHG  1  23   1
M  END
>  <i_m_ct_stereo_status>  (107) 
1

>  <s_m_source_file>  (107) 
/var/tmp/pbs.5076255.sched01/tmpr6ewtwjb/42o4phu6d4.sdf

>  <i_m_source_file_index>  (107) 
11

>  <i_lp_mmshare_version>  (107) 
48012

>  <i_f3d_flags>  (107) 
0

>  <s_epik_input>  (107) 
W0NIM11bQ0gyXVtDQEhdKFtDSDJdMSlbQ0BAXShPMikoW0NIM10pW0NASF0oW09IXSlbQ0BASF0zT2MoYyhbT0hdKVtjSF1bY0hdNCljNWM0W0NIMl1bQ0BASF0oW0NAQF0yNltDQF0xMzUpTihbQ0gzXSlbQ0gyXVtDSDJdNg==

>  <s_epik_cmdline>  (107) 
J2VwaWtfcHl0aG9uJywgJy1waHQnLCAnMi4wJywgJy1waCcsICc3LjAnLCAnLXRuJywgJzgnLCAnLW1hJywgJzIwMCcsICctaW1hZScsICc8aW5maWxlLm1hZT4nLCAnLW9tYWUnLCAnPG91dGZpbGUubWFlPic=

>  <r_lp_tautomer_probability>  (107) 
1

>  <r_epik_Ionization_Penalty>  (107) 
0.0411853

>  <r_epik_Ionization_Penalty_Charging>  (107) 
0.0327887

>  <r_epik_Ionization_Penalty_Neutral>  (107) 
0.0083966

>  <r_epik_State_Penalty>  (107) 
0.0332244

>  <r_epik_Charging_Adjusted_Penalty>  (107) 
0.0660131

>  <i_epik_Tot_Q>  (107) 
1

>  <i_epik_Tot_abs_Q>  (107) 
1

>  <s_lp_Force_Field>  (107) 
OPLS3e

>  <r_lp_Energy>  (107) 
159.837

>  <b_lp_Chiralities_Consistent>  (107) 
1

>  <s_lp_Variant>  (107) 
37:0-1

>  <s_i_glide_gridfile>  (107) 
pfpi4k_grid

>  <i_i_glide_lignum>  (107) 
11

>  <i_i_glide_rotatable_bonds>  (107) 
3

>  <r_i_docking_score>  (107) 
-3.06361

>  <r_i_glide_ligand_efficiency>  (107) 
-0.117831

>  <r_i_glide_ligand_efficiency_sa>  (107) 
-0.349074

>  <r_i_glide_ligand_efficiency_ln>  (107) 
-0.719478

>  <r_i_glide_gscore>  (107) 
-3.06361

>  <r_i_glide_lipo>  (107) 
-0.160357

>  <r_i_glide_hbond>  (107) 
0

>  <r_i_glide_metal>  (107) 
-0

>  <r_i_glide_rewards>  (107) 
-0.965105

>  <r_i_glide_evdw>  (107) 
-17.1335

>  <r_i_glide_ecoul>  (107) 
-7.01937

>  <r_i_glide_erotb>  (107) 
0

>  <r_i_glide_esite>  (107) 
-0.0285663

>  <r_i_glide_emodel>  (107) 
-28.863

>  <r_i_glide_energy>  (107) 
-24.1529

>  <r_i_glide_einternal>  (107) 
2.03621

>  <r_i_glide_intrahb_reward>  (107) 
-0

>  <i_i_glide_confnum>  (107) 
1

>  <i_i_glide_posenum>  (107) 
17

>  <r_i_glide_eff_state_penalty>  (107) 
0

>  <ligand_id>  (107) 
37

>  <original_smiles>  (107) 
CCC1CC23c4c5ccc(O)c4OC2C(O)C1(C)OC31CCN(C)C1C5

>  <smiles>  (107) 
[H]Oc1c([H])c([H])c2c3c1OC1([H])C([H])(O[H])C4(C([H])([H])[H])OC5(C([H])([H])C([H])([H])[N+]([H])(C([H])([H])[H])C5([H])C2([H])[H])C31C([H])([H])C4([H])C([H])([H])C([H])([H])[H]

$$$$
37:1:0
     RDKit          3D

 53 58  0  0  1  0  0  0  0  0999 V2000
    3.7865   -0.6837   -2.7263 C   0  0  0  0  0  0  0  0  0  0  0  0
    3.4817   -1.4338   -1.4137 C   0  0  0  0  0  0  0  0  0  0  0  0
    4.6865   -2.2191   -0.8261 C   0  0  2  0  0  0  0  0  0  0  0  0
    4.6175   -3.7894   -1.1483 C   0  0  0  0  0  0  0  0  0  0  0  0
    4.7974   -4.4781    0.2366 C   0  0  2  0  0  0  0  0  0  0  0  0
    4.4797   -5.9291    0.6684 C   0  0  0  0  0  0  0  0  0  0  0  0
    5.4024   -6.8762    1.1754 C   0  0  0  0  0  0  0  0  0  0  0  0
    4.9042   -8.1596    1.4761 C   0  0  0  0  0  0  0  0  0  0  0  0
    3.5107   -8.4024    1.4488 C   0  0  0  0  0  0  0  0  0  0  0  0
    2.6317   -7.3023    1.3432 C   0  0  0  0  0  0  0  0  0  0  0  0
    1.2943   -7.4651    1.5546 O   0  0  0  0  0  0  0  0  0  0  0  0
    3.1312   -6.0130    1.0311 C   0  0  0  0  0  0  0  0  0  0  0  0
    2.5226   -4.8356    1.2703 O   0  0  0  0  0  0  0  0  0  0  0  0
    3.5051   -3.8724    0.9221 C   0  0  1  0  0  0  0  0  0  0  0  0
    3.7290   -2.5149    1.5720 C   0  0  1  0  0  0  0  0  0  0  0  0
    4.0837   -2.6116    2.9434 O   0  0  0  0  0  0  0  0  0  0  0  0
    4.9289   -1.9586    0.7572 C   0  0  2  0  0  0  0  0  0  0  0  0
    5.2469   -0.4839    1.0824 C   0  0  0  0  0  0  0  0  0  0  0  0
    6.0367   -2.7407    1.3028 O   0  0  0  0  0  0  0  0  0  0  0  0
    6.2392   -3.9865    0.6390 C   0  0  2  0  0  0  0  0  0  0  0  0
    7.3634   -3.4957   -0.3358 C   0  0  0  0  0  0  0  0  0  0  0  0
    8.6621   -3.5825    0.4699 C   0  0  0  0  0  0  0  0  0  0  0  0
    8.3978   -4.5078    1.5541 N   0  0  0  0  0  0  0  0  0  0  0  0
    9.4981   -5.4039    1.8365 C   0  0  0  0  0  0  0  0  0  0  0  0
    7.1679   -5.1277    1.1307 C   0  0  1  0  0  0  0  0  0  0  0  0
    6.5247   -6.2055    1.9528 C   0  0  0  0  0  0  0  0  0  0  0  0
    2.9175   -0.1137   -3.0621 H   0  0  0  0  0  0  0  0  0  0  0  0
    4.0490   -1.3717   -3.5299 H   0  0  0  0  0  0  0  0  0  0  0  0
    4.6046    0.0312   -2.6103 H   0  0  0  0  0  0  0  0  0  0  0  0
    3.1262   -0.7184   -0.6840 H   0  0  0  0  0  0  0  0  0  0  0  0
    2.6197   -2.0827   -1.5752 H   0  0  0  0  0  0  0  0  0  0  0  0
    5.5319   -1.8033   -1.3655 H   0  0  0  0  0  0  0  0  0  0  0  0
    3.6730   -4.0607   -1.6273 H   0  0  0  0  0  0  0  0  0  0  0  0
    5.3582   -4.0984   -1.8858 H   0  0  0  0  0  0  0  0  0  0  0  0
    5.5550   -8.9160    1.8866 H   0  0  0  0  0  0  0  0  0  0  0  0
    3.1374   -9.3807    1.6993 H   0  0  0  0  0  0  0  0  0  0  0  0
    1.0548   -8.3574    1.7252 H   0  0  0  0  0  0  0  0  0  0  0  0
    2.8037   -3.5515    0.1556 H   0  0  0  0  0  0  0  0  0  0  0  0
    2.8420   -1.8889    1.4649 H   0  0  0  0  0  0  0  0  0  0  0  0
    4.8692   -3.1253    2.9917 H   0  0  0  0  0  0  0  0  0  0  0  0
    4.3975    0.1744    0.8955 H   0  0  0  0  0  0  0  0  0  0  0  0
    6.0858   -0.1194    0.4858 H   0  0  0  0  0  0  0  0  0  0  0  0
    5.5160   -0.3717    2.1336 H   0  0  0  0  0  0  0  0  0  0  0  0
    7.5005   -4.1989   -1.1260 H   0  0  0  0  0  0  0  0  0  0  0  0
    7.2970   -2.5122   -0.7758 H   0  0  0  0  0  0  0  0  0  0  0  0
    9.4630   -3.9252   -0.1862 H   0  0  0  0  0  0  0  0  0  0  0  0
    8.9431   -2.6025    0.8587 H   0  0  0  0  0  0  0  0  0  0  0  0
    9.2932   -6.0329    2.7011 H   0  0  0  0  0  0  0  0  0  0  0  0
   10.3951   -4.8318    2.0697 H   0  0  0  0  0  0  0  0  0  0  0  0
    9.7061   -6.0367    0.9773 H   0  0  0  0  0  0  0  0  0  0  0  0
    7.4302   -5.7335    0.2616 H   0  0  0  0  0  0  0  0  0  0  0  0
    6.1397   -5.8111    2.8919 H   0  0  0  0  0  0  0  0  0  0  0  0
    7.2530   -6.9831    2.2062 H   0  0  0  0  0  0  0  0  0  0  0  0
  1  2  1  0
  1 27  1  0
  1 28  1  0
  1 29  1  0
  2  3  1  0
  2 30  1  0
  2 31  1  0
  3 17  1  0
  3  4  1  0
  3 32  1  6
  5  4  1  6
  4 33  1  0
  4 34  1  0
  5 14  1  0
  5 20  1  0
  5  6  1  0
  6 12  2  0
  6  7  1  0
  7 26  1  0
  7  8  2  0
  8  9  1  0
  8 35  1  0
  9 10  2  0
  9 36  1  0
 10 11  1  0
 10 12  1  0
 11 37  1  0
 12 13  1  0
 13 14  1  0
 14 15  1  0
 14 38  1  6
 15 16  1  0
 15 17  1  0
 15 39  1  1
 16 40  1  0
 17 18  1  6
 17 19  1  0
 18 41  1  0
 18 42  1  0
 18 43  1  0
 19 20  1  0
 20 25  1  0
 20 21  1  6
 21 22  1  0
 21 44  1  0
 21 45  1  0
 22 23  1  0
 22 46  1  0
 22 47  1  0
 23 24  1  0
 23 25  1  0
 24 48  1  0
 24 49  1  0
 24 50  1  0
 25 26  1  0
 25 51  1  6
 26 52  1  0
 26 53  1  0
M  END
>  <i_m_ct_stereo_status>  (108) 
1

>  <s_m_source_file>  (108) 
/var/tmp/pbs.5076255.sched01/tmpr6ewtwjb/42o4phu6d4.sdf

>  <i_m_source_file_index>  (108) 
12

>  <i_lp_mmshare_version>  (108) 
48012

>  <i_f3d_flags>  (108) 
0

>  <s_epik_input>  (108) 
W0NIM11bQ0gyXVtDQEhdKFtDSDJdMSlbQ0BAXShPMikoW0NIM10pW0NASF0oW09IXSlbQ0BASF0zT2MoYyhbT0hdKVtjSF1bY0hdNCljNWM0W0NIMl1bQ0BASF0oW0NAQF0yNltDQF0xMzUpTihbQ0gzXSlbQ0gyXVtDSDJdNg==

>  <s_epik_cmdline>  (108) 
J2VwaWtfcHl0aG9uJywgJy1waHQnLCAnMi4wJywgJy1waCcsICc3LjAnLCAnLXRuJywgJzgnLCAnLW1hJywgJzIwMCcsICctaW1hZScsICc8aW5maWxlLm1hZT4nLCAnLW9tYWUnLCAnPG91dGZpbGUubWFlPic=

>  <r_lp_tautomer_probability>  (108) 
1

>  <r_epik_Ionization_Penalty>  (108) 
1.73216

>  <r_epik_Ionization_Penalty_Charging>  (108) 
0

>  <r_epik_Ionization_Penalty_Neutral>  (108) 
1.73216

>  <r_epik_State_Penalty>  (108) 
1.84548

>  <r_epik_Charging_Adjusted_Penalty>  (108) 
1.84548

>  <i_epik_Tot_Q>  (108) 
0

>  <i_epik_Tot_abs_Q>  (108) 
0

>  <s_lp_Force_Field>  (108) 
OPLS3e

>  <r_lp_Energy>  (108) 
154.04

>  <b_lp_Chiralities_Consistent>  (108) 
1

>  <s_lp_Variant>  (108) 
37:0-2

>  <s_i_glide_gridfile>  (108) 
pfpi4k_grid

>  <i_i_glide_lignum>  (108) 
12

>  <i_i_glide_rotatable_bonds>  (108) 
3

>  <r_i_docking_score>  (108) 
-3.36308

>  <r_i_glide_ligand_efficiency>  (108) 
-0.129349

>  <r_i_glide_ligand_efficiency_sa>  (108) 
-0.383196

>  <r_i_glide_ligand_efficiency_ln>  (108) 
-0.789807

>  <r_i_glide_gscore>  (108) 
-3.36308

>  <r_i_glide_lipo>  (108) 
-1.06656

>  <r_i_glide_hbond>  (108) 
0

>  <r_i_glide_metal>  (108) 
-0

>  <r_i_glide_rewards>  (108) 
-0.971977

>  <r_i_glide_evdw>  (108) 
-20.7715

>  <r_i_glide_ecoul>  (108) 
-1.90639

>  <r_i_glide_erotb>  (108) 
0

>  <r_i_glide_esite>  (108) 
0

>  <r_i_glide_emodel>  (108) 
-27.6685

>  <r_i_glide_energy>  (108) 
-22.6779

>  <r_i_glide_einternal>  (108) 
2.62846

>  <r_i_glide_intrahb_reward>  (108) 
-0

>  <i_i_glide_confnum>  (108) 
1

>  <i_i_glide_posenum>  (108) 
18

>  <r_i_glide_eff_state_penalty>  (108) 
0

>  <ligand_id>  (108) 
37

>  <original_smiles>  (108) 
CCC1CC23c4c5ccc(O)c4OC2C(O)C1(C)OC31CCN(C)C1C5

>  <smiles>  (108) 
[H]Oc1c([H])c([H])c2c3c1OC1([H])C([H])(O[H])C4(C([H])([H])[H])OC5(C([H])([H])C([H])([H])N(C([H])([H])[H])C5([H])C2([H])[H])C31C([H])([H])C4([H])C([H])([H])C([H])([H])[H]

$$$$
37:1:1
     RDKit          3D

 53 58  0  0  1  0  0  0  0  0999 V2000
   -0.0031   -9.7679    6.7127 C   0  0  0  0  0  0  0  0  0  0  0  0
    1.0629  -10.1022    5.6308 C   0  0  0  0  0  0  0  0  0  0  0  0
    1.5289   -8.9511    4.6877 C   0  0  2  0  0  0  0  0  0  0  0  0
    2.1448   -7.6795    5.4555 C   0  0  0  0  0  0  0  0  0  0  0  0
    1.4187   -6.4404    4.8355 C   0  0  2  0  0  0  0  0  0  0  0  0
    1.3118   -5.0302    5.4084 C   0  0  0  0  0  0  0  0  0  0  0  0
    1.7116   -3.8449    4.7757 C   0  0  0  0  0  0  0  0  0  0  0  0
    1.5005   -2.6375    5.4682 C   0  0  0  0  0  0  0  0  0  0  0  0
    0.7276   -2.6218    6.6553 C   0  0  0  0  0  0  0  0  0  0  0  0
    0.0065   -3.7674    7.0096 C   0  0  0  0  0  0  0  0  0  0  0  0
   -0.9839   -3.7337    7.9590 O   0  0  0  0  0  0  0  0  0  0  0  0
    0.2288   -4.9574    6.2816 C   0  0  0  0  0  0  0  0  0  0  0  0
   -0.6820   -5.9387    6.1098 O   0  0  0  0  0  0  0  0  0  0  0  0
   -0.0551   -6.8560    5.2229 C   0  0  1  0  0  0  0  0  0  0  0  0
   -0.7419   -7.7758    4.2051 C   0  0  1  0  0  0  0  0  0  0  0  0
   -1.4920   -7.0682    3.2179 O   0  0  0  0  0  0  0  0  0  0  0  0
    0.4755   -8.4861    3.5434 C   0  0  2  0  0  0  0  0  0  0  0  0
    0.0539   -9.6277    2.6079 C   0  0  0  0  0  0  0  0  0  0  0  0
    1.0052   -7.4210    2.6819 O   0  0  0  0  0  0  0  0  0  0  0  0
    1.9159   -6.5262    3.3398 C   0  0  2  0  0  0  0  0  0  0  0  0
    3.2413   -7.2039    2.8336 C   0  0  0  0  0  0  0  0  0  0  0  0
    3.4252   -6.6197    1.4135 C   0  0  0  0  0  0  0  0  0  0  0  0
    2.6357   -5.3975    1.3540 N   0  0  0  0  0  0  0  0  0  0  0  0
    3.3501   -4.3157    0.6863 C   0  0  0  0  0  0  0  0  0  0  0  0
    2.3723   -5.1679    2.7621 C   0  0  1  0  0  0  0  0  0  0  0  0
    1.6476   -3.9351    3.2591 C   0  0  0  0  0  0  0  0  0  0  0  0
   -0.2009  -10.6619    7.3349 H   0  0  0  0  0  0  0  0  0  0  0  0
   -0.9240   -9.4256    6.2717 H   0  0  0  0  0  0  0  0  0  0  0  0
    0.3793   -8.9674    7.3791 H   0  0  0  0  0  0  0  0  0  0  0  0
    1.9445  -10.5150    6.1222 H   0  0  0  0  0  0  0  0  0  0  0  0
    0.6898  -10.9309    5.0340 H   0  0  0  0  0  0  0  0  0  0  0  0
    2.3459   -9.4329    4.1749 H   0  0  0  0  0  0  0  0  0  0  0  0
    2.0057   -7.7634    6.5291 H   0  0  0  0  0  0  0  0  0  0  0  0
    3.2318   -7.6431    5.3624 H   0  0  0  0  0  0  0  0  0  0  0  0
    1.7702   -1.6785    5.0167 H   0  0  0  0  0  0  0  0  0  0  0  0
    0.5327   -1.6972    7.1724 H   0  0  0  0  0  0  0  0  0  0  0  0
   -1.3445   -4.5954    8.1176 H   0  0  0  0  0  0  0  0  0  0  0  0
    0.0125   -7.5465    6.0693 H   0  0  0  0  0  0  0  0  0  0  0  0
   -1.3793   -8.4804    4.7213 H   0  0  0  0  0  0  0  0  0  0  0  0
   -1.9977   -7.7156    2.7516 H   0  0  0  0  0  0  0  0  0  0  0  0
   -0.4880  -10.4058    3.1402 H   0  0  0  0  0  0  0  0  0  0  0  0
    0.9171  -10.0906    2.1291 H   0  0  0  0  0  0  0  0  0  0  0  0
   -0.5984   -9.2584    1.8184 H   0  0  0  0  0  0  0  0  0  0  0  0
    4.0975   -6.9264    3.4598 H   0  0  0  0  0  0  0  0  0  0  0  0
    3.2409   -8.2903    2.7534 H   0  0  0  0  0  0  0  0  0  0  0  0
    4.4815   -6.4449    1.2172 H   0  0  0  0  0  0  0  0  0  0  0  0
    3.0571   -7.3195    0.6739 H   0  0  0  0  0  0  0  0  0  0  0  0
    2.7465   -3.4083    0.6406 H   0  0  0  0  0  0  0  0  0  0  0  0
    3.5936   -4.5975   -0.3389 H   0  0  0  0  0  0  0  0  0  0  0  0
    4.2822   -4.0806    1.2005 H   0  0  0  0  0  0  0  0  0  0  0  0
    3.3492   -4.9564    3.2113 H   0  0  0  0  0  0  0  0  0  0  0  0
    0.6049   -3.9665    2.9300 H   0  0  0  0  0  0  0  0  0  0  0  0
    2.0992   -3.0467    2.8315 H   0  0  0  0  0  0  0  0  0  0  0  0
  1  2  1  0
  1 27  1  0
  1 28  1  0
  1 29  1  0
  2  3  1  0
  2 30  1  0
  2 31  1  0
  3 17  1  0
  3  4  1  0
  3 32  1  6
  5  4  1  1
  4 33  1  0
  4 34  1  0
  5 14  1  0
  5 20  1  0
  5  6  1  0
  6 12  2  0
  6  7  1  0
  7 26  1  0
  7  8  2  0
  8  9  1  0
  8 35  1  0
  9 10  2  0
  9 36  1  0
 10 11  1  0
 10 12  1  0
 11 37  1  0
 12 13  1  0
 13 14  1  0
 14 15  1  0
 14 38  1  1
 15 16  1  0
 15 17  1  0
 15 39  1  1
 16 40  1  0
 17 18  1  6
 17 19  1  0
 18 41  1  0
 18 42  1  0
 18 43  1  0
 19 20  1  0
 20 25  1  0
 20 21  1  1
 21 22  1  0
 21 44  1  0
 21 45  1  0
 22 23  1  0
 22 46  1  0
 22 47  1  0
 23 24  1  0
 23 25  1  0
 24 48  1  0
 24 49  1  0
 24 50  1  0
 25 26  1  0
 25 51  1  1
 26 52  1  0
 26 53  1  0
M  END
>  <i_m_ct_stereo_status>  (109) 
1

>  <s_m_source_file>  (109) 
/var/tmp/pbs.5076255.sched01/tmpr6ewtwjb/42o4phu6d4.sdf

>  <i_m_source_file_index>  (109) 
12

>  <i_lp_mmshare_version>  (109) 
48012

>  <i_f3d_flags>  (109) 
0

>  <s_epik_input>  (109) 
W0NIM11bQ0gyXVtDQEhdKFtDSDJdMSlbQ0BAXShPMikoW0NIM10pW0NASF0oW09IXSlbQ0BASF0zT2MoYyhbT0hdKVtjSF1bY0hdNCljNWM0W0NIMl1bQ0BASF0oW0NAQF0yNltDQF0xMzUpTihbQ0gzXSlbQ0gyXVtDSDJdNg==

>  <s_epik_cmdline>  (109) 
J2VwaWtfcHl0aG9uJywgJy1waHQnLCAnMi4wJywgJy1waCcsICc3LjAnLCAnLXRuJywgJzgnLCAnLW1hJywgJzIwMCcsICctaW1hZScsICc8aW5maWxlLm1hZT4nLCAnLW9tYWUnLCAnPG91dGZpbGUubWFlPic=

>  <r_lp_tautomer_probability>  (109) 
1

>  <r_epik_Ionization_Penalty>  (109) 
1.73216

>  <r_epik_Ionization_Penalty_Charging>  (109) 
0

>  <r_epik_Ionization_Penalty_Neutral>  (109) 
1.73216

>  <r_epik_State_Penalty>  (109) 
1.84548

>  <r_epik_Charging_Adjusted_Penalty>  (109) 
1.84548

>  <i_epik_Tot_Q>  (109) 
0

>  <i_epik_Tot_abs_Q>  (109) 
0

>  <s_lp_Force_Field>  (109) 
OPLS3e

>  <r_lp_Energy>  (109) 
154.04

>  <b_lp_Chiralities_Consistent>  (109) 
1

>  <s_lp_Variant>  (109) 
37:0-2

>  <s_i_glide_gridfile>  (109) 
pfpi4k_grid

>  <i_i_glide_lignum>  (109) 
12

>  <i_i_glide_rotatable_bonds>  (109) 
3

>  <r_i_docking_score>  (109) 
-2.88433

>  <r_i_glide_ligand_efficiency>  (109) 
-0.110936

>  <r_i_glide_ligand_efficiency_sa>  (109) 
-0.328647

>  <r_i_glide_ligand_efficiency_ln>  (109) 
-0.677376

>  <r_i_glide_gscore>  (109) 
-2.88433

>  <r_i_glide_lipo>  (109) 
-0.0645498

>  <r_i_glide_hbond>  (109) 
0

>  <r_i_glide_metal>  (109) 
-0

>  <r_i_glide_rewards>  (109) 
-0.971977

>  <r_i_glide_evdw>  (109) 
-18.8644

>  <r_i_glide_ecoul>  (109) 
-6.03057

>  <r_i_glide_erotb>  (109) 
0

>  <r_i_glide_esite>  (109) 
0

>  <r_i_glide_emodel>  (109) 
-27.7091

>  <r_i_glide_energy>  (109) 
-24.895

>  <r_i_glide_einternal>  (109) 
3.49566

>  <r_i_glide_intrahb_reward>  (109) 
-0

>  <i_i_glide_confnum>  (109) 
1

>  <i_i_glide_posenum>  (109) 
33

>  <r_i_glide_eff_state_penalty>  (109) 
0

>  <ligand_id>  (109) 
37

>  <original_smiles>  (109) 
CCC1CC23c4c5ccc(O)c4OC2C(O)C1(C)OC31CCN(C)C1C5

>  <smiles>  (109) 
[H]Oc1c([H])c([H])c2c3c1OC1([H])C([H])(O[H])C4(C([H])([H])[H])OC5(C([H])([H])C([H])([H])N(C([H])([H])[H])C5([H])C2([H])[H])C31C([H])([H])C4([H])C([H])([H])C([H])([H])[H]

$$$$
37:1:2
     RDKit          3D

 53 58  0  0  1  0  0  0  0  0999 V2000
    3.0797  -10.0364    6.0203 C   0  0  0  0  0  0  0  0  0  0  0  0
    2.1441   -9.5003    4.9240 C   0  0  0  0  0  0  0  0  0  0  0  0
    2.6158   -8.1755    4.2639 C   0  0  2  0  0  0  0  0  0  0  0  0
    2.6819   -6.9493    5.2872 C   0  0  0  0  0  0  0  0  0  0  0  0
    1.8929   -5.8102    4.5879 C   0  0  2  0  0  0  0  0  0  0  0  0
    1.2938   -4.5156    5.1924 C   0  0  0  0  0  0  0  0  0  0  0  0
    1.6098   -3.1905    4.7930 C   0  0  0  0  0  0  0  0  0  0  0  0
    0.9588   -2.1510    5.4943 C   0  0  0  0  0  0  0  0  0  0  0  0
   -0.0731   -2.4457    6.4101 C   0  0  0  0  0  0  0  0  0  0  0  0
   -0.6016   -3.7526    6.4611 C   0  0  0  0  0  0  0  0  0  0  0  0
   -1.7638   -4.0033    7.1148 O   0  0  0  0  0  0  0  0  0  0  0  0
    0.0481   -4.8067    5.7446 C   0  0  0  0  0  0  0  0  0  0  0  0
   -0.5245   -5.9448    5.3241 O   0  0  0  0  0  0  0  0  0  0  0  0
    0.4988   -6.5491    4.5377 C   0  0  1  0  0  0  0  0  0  0  0  0
    0.3146   -7.4260    3.3051 C   0  0  1  0  0  0  0  0  0  0  0  0
   -0.3580   -6.7470    2.2466 O   0  0  0  0  0  0  0  0  0  0  0  0
    1.7931   -7.7781    2.9294 C   0  0  2  0  0  0  0  0  0  0  0  0
    1.8922   -8.8312    1.8142 C   0  0  0  0  0  0  0  0  0  0  0  0
    2.2559   -6.5250    2.3418 O   0  0  0  0  0  0  0  0  0  0  0  0
    2.7580   -5.5834    3.2935 C   0  0  2  0  0  0  0  0  0  0  0  0
    4.2826   -5.9155    3.1391 C   0  0  0  0  0  0  0  0  0  0  0  0
    4.7112   -5.1204    1.8877 C   0  0  0  0  0  0  0  0  0  0  0  0
    3.7260   -4.0654    1.6960 N   0  0  0  0  0  0  0  0  0  0  0  0
    4.3395   -2.7874    1.3520 C   0  0  0  0  0  0  0  0  0  0  0  0
    3.0546   -4.0950    2.9755 C   0  0  1  0  0  0  0  0  0  0  0  0
    1.9721   -3.1111    3.3219 C   0  0  0  0  0  0  0  0  0  0  0  0
    2.7129  -10.9867    6.4062 H   0  0  0  0  0  0  0  0  0  0  0  0
    3.1578   -9.3511    6.8672 H   0  0  0  0  0  0  0  0  0  0  0  0
    4.0878  -10.2176    5.6364 H   0  0  0  0  0  0  0  0  0  0  0  0
    2.0718  -10.2820    4.1717 H   0  0  0  0  0  0  0  0  0  0  0  0
    1.1406   -9.4084    5.3400 H   0  0  0  0  0  0  0  0  0  0  0  0
    3.6356   -8.4313    3.9706 H   0  0  0  0  0  0  0  0  0  0  0  0
    2.2679   -7.2125    6.2644 H   0  0  0  0  0  0  0  0  0  0  0  0
    3.7097   -6.6677    5.5338 H   0  0  0  0  0  0  0  0  0  0  0  0
    1.1341   -1.1216    5.2166 H   0  0  0  0  0  0  0  0  0  0  0  0
   -0.5876   -1.6453    6.9081 H   0  0  0  0  0  0  0  0  0  0  0  0
   -2.0119   -4.9099    7.0535 H   0  0  0  0  0  0  0  0  0  0  0  0
    0.4776   -7.3415    5.2823 H   0  0  0  0  0  0  0  0  0  0  0  0
   -0.2450   -8.3268    3.5521 H   0  0  0  0  0  0  0  0  0  0  0  0
   -0.5237   -7.3859    1.5813 H   0  0  0  0  0  0  0  0  0  0  0  0
    1.4072   -9.7700    2.0834 H   0  0  0  0  0  0  0  0  0  0  0  0
    2.9346   -9.0571    1.5740 H   0  0  0  0  0  0  0  0  0  0  0  0
    1.4196   -8.4747    0.8976 H   0  0  0  0  0  0  0  0  0  0  0  0
    4.8650   -5.5651    3.9952 H   0  0  0  0  0  0  0  0  0  0  0  0
    4.5557   -6.9483    2.9695 H   0  0  0  0  0  0  0  0  0  0  0  0
    5.7249   -4.7268    2.0100 H   0  0  0  0  0  0  0  0  0  0  0  0
    4.7187   -5.7609    1.0013 H   0  0  0  0  0  0  0  0  0  0  0  0
    3.5885   -2.0128    1.1986 H   0  0  0  0  0  0  0  0  0  0  0  0
    4.9050   -2.8758    0.4168 H   0  0  0  0  0  0  0  0  0  0  0  0
    5.0303   -2.4510    2.1257 H   0  0  0  0  0  0  0  0  0  0  0  0
    3.7932   -3.7614    3.7074 H   0  0  0  0  0  0  0  0  0  0  0  0
    1.0851   -3.2622    2.7101 H   0  0  0  0  0  0  0  0  0  0  0  0
    2.3118   -2.0834    3.1295 H   0  0  0  0  0  0  0  0  0  0  0  0
  1  2  1  0
  1 27  1  0
  1 28  1  0
  1 29  1  0
  2  3  1  0
  2 30  1  0
  2 31  1  0
  3 17  1  0
  3  4  1  0
  3 32  1  6
  5  4  1  1
  4 33  1  0
  4 34  1  0
  5 14  1  0
  5 20  1  0
  5  6  1  0
  6 12  2  0
  6  7  1  0
  7 26  1  0
  7  8  2  0
  8  9  1  0
  8 35  1  0
  9 10  2  0
  9 36  1  0
 10 11  1  0
 10 12  1  0
 11 37  1  0
 12 13  1  0
 13 14  1  0
 14 15  1  0
 14 38  1  1
 15 16  1  0
 15 17  1  0
 15 39  1  1
 16 40  1  0
 17 18  1  6
 17 19  1  0
 18 41  1  0
 18 42  1  0
 18 43  1  0
 19 20  1  0
 20 25  1  0
 20 21  1  1
 21 22  1  0
 21 44  1  0
 21 45  1  0
 22 23  1  0
 22 46  1  0
 22 47  1  0
 23 24  1  0
 23 25  1  0
 24 48  1  0
 24 49  1  0
 24 50  1  0
 25 26  1  0
 25 51  1  1
 26 52  1  0
 26 53  1  0
M  END
>  <i_m_ct_stereo_status>  (110) 
1

>  <s_m_source_file>  (110) 
/var/tmp/pbs.5076255.sched01/tmpr6ewtwjb/42o4phu6d4.sdf

>  <i_m_source_file_index>  (110) 
12

>  <i_lp_mmshare_version>  (110) 
48012

>  <i_f3d_flags>  (110) 
0

>  <s_epik_input>  (110) 
W0NIM11bQ0gyXVtDQEhdKFtDSDJdMSlbQ0BAXShPMikoW0NIM10pW0NASF0oW09IXSlbQ0BASF0zT2MoYyhbT0hdKVtjSF1bY0hdNCljNWM0W0NIMl1bQ0BASF0oW0NAQF0yNltDQF0xMzUpTihbQ0gzXSlbQ0gyXVtDSDJdNg==

>  <s_epik_cmdline>  (110) 
J2VwaWtfcHl0aG9uJywgJy1waHQnLCAnMi4wJywgJy1waCcsICc3LjAnLCAnLXRuJywgJzgnLCAnLW1hJywgJzIwMCcsICctaW1hZScsICc8aW5maWxlLm1hZT4nLCAnLW9tYWUnLCAnPG91dGZpbGUubWFlPic=

>  <r_lp_tautomer_probability>  (110) 
1

>  <r_epik_Ionization_Penalty>  (110) 
1.73216

>  <r_epik_Ionization_Penalty_Charging>  (110) 
0

>  <r_epik_Ionization_Penalty_Neutral>  (110) 
1.73216

>  <r_epik_State_Penalty>  (110) 
1.84548

>  <r_epik_Charging_Adjusted_Penalty>  (110) 
1.84548

>  <i_epik_Tot_Q>  (110) 
0

>  <i_epik_Tot_abs_Q>  (110) 
0

>  <s_lp_Force_Field>  (110) 
OPLS3e

>  <r_lp_Energy>  (110) 
154.04

>  <b_lp_Chiralities_Consistent>  (110) 
1

>  <s_lp_Variant>  (110) 
37:0-2

>  <s_i_glide_gridfile>  (110) 
pfpi4k_grid

>  <i_i_glide_lignum>  (110) 
12

>  <i_i_glide_rotatable_bonds>  (110) 
3

>  <r_i_docking_score>  (110) 
-2.66525

>  <r_i_glide_ligand_efficiency>  (110) 
-0.10251

>  <r_i_glide_ligand_efficiency_sa>  (110) 
-0.303685

>  <r_i_glide_ligand_efficiency_ln>  (110) 
-0.625926

>  <r_i_glide_gscore>  (110) 
-2.66525

>  <r_i_glide_lipo>  (110) 
-0.0470477

>  <r_i_glide_hbond>  (110) 
0

>  <r_i_glide_metal>  (110) 
-0

>  <r_i_glide_rewards>  (110) 
-0.971977

>  <r_i_glide_evdw>  (110) 
-16.0007

>  <r_i_glide_ecoul>  (110) 
-5.64129

>  <r_i_glide_erotb>  (110) 
0

>  <r_i_glide_esite>  (110) 
0

>  <r_i_glide_emodel>  (110) 
-26.4137

>  <r_i_glide_energy>  (110) 
-21.642

>  <r_i_glide_einternal>  (110) 
0.419111

>  <r_i_glide_intrahb_reward>  (110) 
-0

>  <i_i_glide_confnum>  (110) 
2

>  <i_i_glide_posenum>  (110) 
1

>  <r_i_glide_eff_state_penalty>  (110) 
0

>  <ligand_id>  (110) 
37

>  <original_smiles>  (110) 
CCC1CC23c4c5ccc(O)c4OC2C(O)C1(C)OC31CCN(C)C1C5

>  <smiles>  (110) 
[H]Oc1c([H])c([H])c2c3c1OC1([H])C([H])(O[H])C4(C([H])([H])[H])OC5(C([H])([H])C([H])([H])N(C([H])([H])[H])C5([H])C2([H])[H])C31C([H])([H])C4([H])C([H])([H])C([H])([H])[H]

$$$$
37:2:0
     RDKit          3D

 53 58  0  0  1  0  0  0  0  0999 V2000
    7.5391   -5.8036    1.4490 C   0  0  0  0  0  0  0  0  0  0  0  0
    6.1639   -5.6881    0.7692 C   0  0  0  0  0  0  0  0  0  0  0  0
    5.4206   -4.3485    1.0379 C   0  0  2  0  0  0  0  0  0  0  0  0
    4.9471   -4.1878    2.5631 C   0  0  0  0  0  0  0  0  0  0  0  0
    3.4260   -3.8379    2.4706 C   0  0  2  0  0  0  0  0  0  0  0  0
    2.3349   -3.9051    3.5571 C   0  0  0  0  0  0  0  0  0  0  0  0
    1.5101   -2.8332    3.9817 C   0  0  0  0  0  0  0  0  0  0  0  0
    0.5675   -3.1073    4.9962 C   0  0  0  0  0  0  0  0  0  0  0  0
    0.3594   -4.4344    5.4152 C   0  0  0  0  0  0  0  0  0  0  0  0
    0.9018   -5.4878    4.6535 C   0  0  0  0  0  0  0  0  0  0  0  0
    0.4453   -6.7569    4.8448 O   0  0  0  0  0  0  0  0  0  0  0  0
    1.8336   -5.2012    3.6303 C   0  0  0  0  0  0  0  0  0  0  0  0
    2.0816   -5.9680    2.5290 O   0  0  0  0  0  0  0  0  0  0  0  0
    2.9701   -5.1716    1.7642 C   0  0  1  0  0  0  0  0  0  0  0  0
    3.0761   -5.1348    0.2550 C   0  0  1  0  0  0  0  0  0  0  0  0
    1.8508   -4.7507   -0.3312 O   0  0  0  0  0  0  0  0  0  0  0  0
    4.1918   -4.0759    0.0174 C   0  0  2  0  0  0  0  0  0  0  0  0
    4.6338   -3.9814   -1.4558 C   0  0  0  0  0  0  0  0  0  0  0  0
    3.4944   -2.8255    0.3104 O   0  0  0  0  0  0  0  0  0  0  0  0
    3.4809   -2.4660    1.6895 C   0  0  2  0  0  0  0  0  0  0  0  0
    4.6889   -1.4658    1.6596 C   0  0  0  0  0  0  0  0  0  0  0  0
    4.0679   -0.1786    1.0591 C   0  0  0  0  0  0  0  0  0  0  0  0
    2.6282   -0.2078    1.4121 N   0  0  2  0  0  0  0  0  0  0  0  0
    2.1372    1.0703    1.9964 C   0  0  0  0  0  0  0  0  0  0  0  0
    2.5703   -1.3760    2.3056 C   0  0  1  0  0  0  0  0  0  0  0  0
    1.2587   -1.8117    2.8812 C   0  0  0  0  0  0  0  0  0  0  0  0
    8.0324   -6.7364    1.1670 H   0  0  0  0  0  0  0  0  0  0  0  0
    7.4542   -5.7970    2.5356 H   0  0  0  0  0  0  0  0  0  0  0  0
    8.2051   -4.9905    1.1574 H   0  0  0  0  0  0  0  0  0  0  0  0
    6.3318   -5.7939   -0.2983 H   0  0  0  0  0  0  0  0  0  0  0  0
    5.5609   -6.5524    1.0448 H   0  0  0  0  0  0  0  0  0  0  0  0
    6.1948   -3.6155    0.8381 H   0  0  0  0  0  0  0  0  0  0  0  0
    5.1324   -5.0995    3.1358 H   0  0  0  0  0  0  0  0  0  0  0  0
    5.5303   -3.4390    3.0966 H   0  0  0  0  0  0  0  0  0  0  0  0
   -0.1133   -2.3385    5.3216 H   0  0  0  0  0  0  0  0  0  0  0  0
   -0.3827   -4.6584    6.1645 H   0  0  0  0  0  0  0  0  0  0  0  0
    3.7013   -5.9529    1.9532 H   0  0  0  0  0  0  0  0  0  0  0  0
    3.3630   -6.1083   -0.1424 H   0  0  0  0  0  0  0  0  0  0  0  0
    1.9622   -4.7931   -1.2736 H   0  0  0  0  0  0  0  0  0  0  0  0
    5.0135   -4.9311   -1.8322 H   0  0  0  0  0  0  0  0  0  0  0  0
    5.4209   -3.2370   -1.5848 H   0  0  0  0  0  0  0  0  0  0  0  0
    3.7999   -3.6930   -2.0973 H   0  0  0  0  0  0  0  0  0  0  0  0
    5.0766   -1.2614    2.6676 H   0  0  0  0  0  0  0  0  0  0  0  0
    5.5469   -1.7243    1.0442 H   0  0  0  0  0  0  0  0  0  0  0  0
    4.5805    0.6893    1.4582 H   0  0  0  0  0  0  0  0  0  0  0  0
    4.1795   -0.1544   -0.0243 H   0  0  0  0  0  0  0  0  0  0  0  0
    2.6663    1.3326    2.9166 H   0  0  0  0  0  0  0  0  0  0  0  0
    1.0709    1.0229    2.2159 H   0  0  0  0  0  0  0  0  0  0  0  0
    2.2667    1.8888    1.2932 H   0  0  0  0  0  0  0  0  0  0  0  0
    3.0392   -1.0259    3.2292 H   0  0  0  0  0  0  0  0  0  0  0  0
    0.6487   -2.2481    2.0968 H   0  0  0  0  0  0  0  0  0  0  0  0
    0.6828   -0.9820    3.2841 H   0  0  0  0  0  0  0  0  0  0  0  0
    2.0880   -0.4185    0.5748 H   0  0  0  0  0  0  0  0  0  0  0  0
  1  2  1  0
  1 27  1  0
  1 28  1  0
  1 29  1  0
  2  3  1  0
  2 30  1  0
  2 31  1  0
  3 17  1  0
  3  4  1  0
  3 32  1  6
  5  4  1  1
  4 33  1  0
  4 34  1  0
  5 14  1  0
  5 20  1  0
  5  6  1  0
  6 12  2  0
  6  7  1  0
  7 26  1  0
  7  8  2  0
  8  9  1  0
  8 35  1  0
  9 10  2  0
  9 36  1  0
 10 11  1  0
 10 12  1  0
 12 13  1  0
 13 14  1  0
 14 15  1  0
 14 37  1  1
 15 16  1  0
 15 17  1  0
 15 38  1  6
 16 39  1  0
 17 18  1  6
 17 19  1  0
 18 40  1  0
 18 41  1  0
 18 42  1  0
 19 20  1  0
 20 25  1  0
 20 21  1  1
 21 22  1  0
 21 43  1  0
 21 44  1  0
 22 23  1  0
 22 45  1  0
 22 46  1  0
 23 24  1  0
 23 25  1  0
 23 53  1  6
 24 47  1  0
 24 48  1  0
 24 49  1  0
 25 26  1  0
 25 50  1  1
 26 51  1  0
 26 52  1  0
M  CHG  2  11  -1  23   1
M  END
>  <i_m_ct_stereo_status>  (111) 
1

>  <s_m_source_file>  (111) 
/var/tmp/pbs.5076255.sched01/tmpr6ewtwjb/42o4phu6d4.sdf

>  <i_m_source_file_index>  (111) 
13

>  <i_lp_mmshare_version>  (111) 
48012

>  <i_f3d_flags>  (111) 
0

>  <s_epik_input>  (111) 
W0NIM11bQ0gyXVtDQEhdKFtDSDJdMSlbQ0BAXShPMikoW0NIM10pW0NASF0oW09IXSlbQ0BASF0zT2MoYyhbT0hdKVtjSF1bY0hdNCljNWM0W0NIMl1bQ0BASF0oW0NAQF0yNltDQF0xMzUpTihbQ0gzXSlbQ0gyXVtDSDJdNg==

>  <s_epik_cmdline>  (111) 
J2VwaWtfcHl0aG9uJywgJy1waHQnLCAnMi4wJywgJy1waCcsICc3LjAnLCAnLXRuJywgJzgnLCAnLW1hJywgJzIwMCcsICctaW1hZScsICc8aW5maWxlLm1hZT4nLCAnLW9tYWUnLCAnPG91dGZpbGUubWFlPic=

>  <r_epik_Ionization_Penalty>  (111) 
2.55535

>  <r_epik_Ionization_Penalty_Charging>  (111) 
2.55535

>  <r_epik_Ionization_Penalty_Neutral>  (111) 
1.37208e-06

>  <r_epik_State_Penalty>  (111) 
2.71993

>  <r_epik_Charging_Adjusted_Penalty>  (111) 
5.27528

>  <i_epik_Tot_Q>  (111) 
0

>  <i_epik_Tot_abs_Q>  (111) 
2

>  <s_lp_Force_Field>  (111) 
OPLS3e

>  <r_lp_Energy>  (111) 
159.114

>  <b_lp_Chiralities_Consistent>  (111) 
1

>  <s_lp_Variant>  (111) 
37:0-3

>  <s_i_glide_gridfile>  (111) 
pfpi4k_grid

>  <i_i_glide_lignum>  (111) 
13

>  <i_i_glide_rotatable_bonds>  (111) 
2

>  <r_i_docking_score>  (111) 
-3.71362

>  <r_i_glide_ligand_efficiency>  (111) 
-0.142831

>  <r_i_glide_ligand_efficiency_sa>  (111) 
-0.423138

>  <r_i_glide_ligand_efficiency_ln>  (111) 
-0.872131

>  <r_i_glide_gscore>  (111) 
-3.71362

>  <r_i_glide_lipo>  (111) 
-0.376877

>  <r_i_glide_hbond>  (111) 
-0.2

>  <r_i_glide_metal>  (111) 
-0

>  <r_i_glide_rewards>  (111) 
-1.27198

>  <r_i_glide_evdw>  (111) 
-16.1643

>  <r_i_glide_ecoul>  (111) 
-6.66818

>  <r_i_glide_erotb>  (111) 
0

>  <r_i_glide_esite>  (111) 
-0.056322

>  <r_i_glide_emodel>  (111) 
-31.4238

>  <r_i_glide_energy>  (111) 
-22.8325

>  <r_i_glide_einternal>  (111) 
0.403737

>  <r_i_glide_intrahb_reward>  (111) 
-0

>  <i_i_glide_confnum>  (111) 
1

>  <i_i_glide_posenum>  (111) 
20

>  <r_i_glide_eff_state_penalty>  (111) 
0

>  <ligand_id>  (111) 
37

>  <original_smiles>  (111) 
CCC1CC23c4c5ccc(O)c4OC2C(O)C1(C)OC31CCN(C)C1C5

>  <smiles>  (111) 
[H]OC1([H])C2([H])Oc3c([O-])c([H])c([H])c4c3C23C([H])([H])C([H])(C([H])([H])C([H])([H])[H])C1(C([H])([H])[H])OC31C([H])([H])C([H])([H])[N+]([H])(C([H])([H])[H])C1([H])C4([H])[H]

$$$$
37:2:1
     RDKit          3D

 53 58  0  0  1  0  0  0  0  0999 V2000
    8.0709   -3.5857    0.6627 C   0  0  0  0  0  0  0  0  0  0  0  0
    6.7047   -3.5296   -0.0393 C   0  0  0  0  0  0  0  0  0  0  0  0
    5.6746   -2.5738    0.6283 C   0  0  2  0  0  0  0  0  0  0  0  0
    5.2455   -3.0365    2.1050 C   0  0  0  0  0  0  0  0  0  0  0  0
    3.6837   -3.0488    2.0775 C   0  0  2  0  0  0  0  0  0  0  0  0
    2.6924   -3.7249    3.0440 C   0  0  0  0  0  0  0  0  0  0  0  0
    1.6483   -3.0811    3.7531 C   0  0  0  0  0  0  0  0  0  0  0  0
    0.8456   -3.8870    4.5911 C   0  0  0  0  0  0  0  0  0  0  0  0
    0.9800   -5.2886    4.5513 C   0  0  0  0  0  0  0  0  0  0  0  0
    1.7301   -5.8732    3.5106 C   0  0  0  0  0  0  0  0  0  0  0  0
    1.6091   -7.2066    3.2550 O   0  0  0  0  0  0  0  0  0  0  0  0
    2.5221   -5.0552    2.6745 C   0  0  0  0  0  0  0  0  0  0  0  0
    2.8841   -5.3366    1.3897 O   0  0  0  0  0  0  0  0  0  0  0  0
    3.5211   -4.1469    0.9566 C   0  0  1  0  0  0  0  0  0  0  0  0
    3.5358   -3.5952   -0.4549 C   0  0  1  0  0  0  0  0  0  0  0  0
    2.2291   -3.3322   -0.9391 O   0  0  0  0  0  0  0  0  0  0  0  0
    4.3685   -2.2877   -0.2909 C   0  0  2  0  0  0  0  0  0  0  0  0
    4.7073   -1.6173   -1.6362 C   0  0  0  0  0  0  0  0  0  0  0  0
    3.4118   -1.4068    0.3721 O   0  0  0  0  0  0  0  0  0  0  0  0
    3.3759   -1.5252    1.7940 C   0  0  2  0  0  0  0  0  0  0  0  0
    4.3043   -0.3111    2.1390 C   0  0  0  0  0  0  0  0  0  0  0  0
    3.3649    0.9126    1.9901 C   0  0  0  0  0  0  0  0  0  0  0  0
    1.9972    0.4242    2.2420 N   0  0  2  0  0  0  0  0  0  0  0  0
    1.2385    1.2921    3.1800 C   0  0  0  0  0  0  0  0  0  0  0  0
    2.2618   -0.9465    2.7018 C   0  0  1  0  0  0  0  0  0  0  0  0
    1.1186   -1.8547    3.0226 C   0  0  0  0  0  0  0  0  0  0  0  0
    8.7593   -4.2263    0.1095 H   0  0  0  0  0  0  0  0  0  0  0  0
    7.9926   -3.9911    1.6715 H   0  0  0  0  0  0  0  0  0  0  0  0
    8.5316   -2.5992    0.7258 H   0  0  0  0  0  0  0  0  0  0  0  0
    6.8959   -3.2061   -1.0608 H   0  0  0  0  0  0  0  0  0  0  0  0
    6.3138   -4.5424   -0.1276 H   0  0  0  0  0  0  0  0  0  0  0  0
    6.2430   -1.6531    0.7121 H   0  0  0  0  0  0  0  0  0  0  0  0
    5.6658   -4.0120    2.3592 H   0  0  0  0  0  0  0  0  0  0  0  0
    5.6548   -2.3841    2.8750 H   0  0  0  0  0  0  0  0  0  0  0  0
    0.0175   -3.4561    5.1294 H   0  0  0  0  0  0  0  0  0  0  0  0
    0.3468   -5.9154    5.1611 H   0  0  0  0  0  0  0  0  0  0  0  0
    4.4245   -4.7515    0.9074 H   0  0  0  0  0  0  0  0  0  0  0  0
    4.0277   -4.2938   -1.1337 H   0  0  0  0  0  0  0  0  0  0  0  0
    1.9853   -2.4317   -0.7349 H   0  0  0  0  0  0  0  0  0  0  0  0
    5.2803   -2.2774   -2.2872 H   0  0  0  0  0  0  0  0  0  0  0  0
    5.2840   -0.7029   -1.4876 H   0  0  0  0  0  0  0  0  0  0  0  0
    3.7987   -1.3451   -2.1761 H   0  0  0  0  0  0  0  0  0  0  0  0
    4.6817   -0.3652    3.1676 H   0  0  0  0  0  0  0  0  0  0  0  0
    5.1649   -0.1441    1.4962 H   0  0  0  0  0  0  0  0  0  0  0  0
    3.6357    1.7000    2.6938 H   0  0  0  0  0  0  0  0  0  0  0  0
    3.4137    1.3060    0.9789 H   0  0  0  0  0  0  0  0  0  0  0  0
    1.7244    1.3537    4.1561 H   0  0  0  0  0  0  0  0  0  0  0  0
    0.2235    0.9257    3.3292 H   0  0  0  0  0  0  0  0  0  0  0  0
    1.1625    2.3071    2.7859 H   0  0  0  0  0  0  0  0  0  0  0  0
    2.6665   -0.8179    3.7104 H   0  0  0  0  0  0  0  0  0  0  0  0
    0.6462   -2.1494    2.0910 H   0  0  0  0  0  0  0  0  0  0  0  0
    0.3628   -1.3746    3.6415 H   0  0  0  0  0  0  0  0  0  0  0  0
    1.5062    0.3827    1.3561 H   0  0  0  0  0  0  0  0  0  0  0  0
  1  2  1  0
  1 27  1  0
  1 28  1  0
  1 29  1  0
  2  3  1  0
  2 30  1  0
  2 31  1  0
  3 17  1  0
  3  4  1  0
  3 32  1  1
  5  4  1  1
  4 33  1  0
  4 34  1  0
  5 14  1  0
  5 20  1  0
  5  6  1  0
  6 12  2  0
  6  7  1  0
  7 26  1  0
  7  8  2  0
  8  9  1  0
  8 35  1  0
  9 10  2  0
  9 36  1  0
 10 11  1  0
 10 12  1  0
 12 13  1  0
 13 14  1  0
 14 15  1  0
 14 37  1  6
 15 16  1  0
 15 17  1  0
 15 38  1  6
 16 39  1  0
 17 18  1  6
 17 19  1  0
 18 40  1  0
 18 41  1  0
 18 42  1  0
 19 20  1  0
 20 25  1  0
 20 21  1  1
 21 22  1  0
 21 43  1  0
 21 44  1  0
 22 23  1  0
 22 45  1  0
 22 46  1  0
 23 24  1  0
 23 25  1  0
 23 53  1  6
 24 47  1  0
 24 48  1  0
 24 49  1  0
 25 26  1  0
 25 50  1  1
 26 51  1  0
 26 52  1  0
M  CHG  2  11  -1  23   1
M  END
>  <i_m_ct_stereo_status>  (112) 
1

>  <s_m_source_file>  (112) 
/var/tmp/pbs.5076255.sched01/tmpr6ewtwjb/42o4phu6d4.sdf

>  <i_m_source_file_index>  (112) 
13

>  <i_lp_mmshare_version>  (112) 
48012

>  <i_f3d_flags>  (112) 
0

>  <s_epik_input>  (112) 
W0NIM11bQ0gyXVtDQEhdKFtDSDJdMSlbQ0BAXShPMikoW0NIM10pW0NASF0oW09IXSlbQ0BASF0zT2MoYyhbT0hdKVtjSF1bY0hdNCljNWM0W0NIMl1bQ0BASF0oW0NAQF0yNltDQF0xMzUpTihbQ0gzXSlbQ0gyXVtDSDJdNg==

>  <s_epik_cmdline>  (112) 
J2VwaWtfcHl0aG9uJywgJy1waHQnLCAnMi4wJywgJy1waCcsICc3LjAnLCAnLXRuJywgJzgnLCAnLW1hJywgJzIwMCcsICctaW1hZScsICc8aW5maWxlLm1hZT4nLCAnLW9tYWUnLCAnPG91dGZpbGUubWFlPic=

>  <r_epik_Ionization_Penalty>  (112) 
2.55535

>  <r_epik_Ionization_Penalty_Charging>  (112) 
2.55535

>  <r_epik_Ionization_Penalty_Neutral>  (112) 
1.37208e-06

>  <r_epik_State_Penalty>  (112) 
2.71993

>  <r_epik_Charging_Adjusted_Penalty>  (112) 
5.27528

>  <i_epik_Tot_Q>  (112) 
0

>  <i_epik_Tot_abs_Q>  (112) 
2

>  <s_lp_Force_Field>  (112) 
OPLS3e

>  <r_lp_Energy>  (112) 
159.114

>  <b_lp_Chiralities_Consistent>  (112) 
1

>  <s_lp_Variant>  (112) 
37:0-3

>  <s_i_glide_gridfile>  (112) 
pfpi4k_grid

>  <i_i_glide_lignum>  (112) 
13

>  <i_i_glide_rotatable_bonds>  (112) 
2

>  <r_i_docking_score>  (112) 
-3.30889

>  <r_i_glide_ligand_efficiency>  (112) 
-0.127265

>  <r_i_glide_ligand_efficiency_sa>  (112) 
-0.377022

>  <r_i_glide_ligand_efficiency_ln>  (112) 
-0.777082

>  <r_i_glide_gscore>  (112) 
-3.30889

>  <r_i_glide_lipo>  (112) 
-0.576863

>  <r_i_glide_hbond>  (112) 
0

>  <r_i_glide_metal>  (112) 
-0

>  <r_i_glide_rewards>  (112) 
-1.27198

>  <r_i_glide_evdw>  (112) 
-17.4992

>  <r_i_glide_ecoul>  (112) 
-3.7163

>  <r_i_glide_erotb>  (112) 
0

>  <r_i_glide_esite>  (112) 
-0.0276445

>  <r_i_glide_emodel>  (112) 
-28.2915

>  <r_i_glide_energy>  (112) 
-21.2155

>  <r_i_glide_einternal>  (112) 
0.94726

>  <r_i_glide_intrahb_reward>  (112) 
-0

>  <i_i_glide_confnum>  (112) 
1

>  <i_i_glide_posenum>  (112) 
3

>  <r_i_glide_eff_state_penalty>  (112) 
0

>  <ligand_id>  (112) 
37

>  <original_smiles>  (112) 
CCC1CC23c4c5ccc(O)c4OC2C(O)C1(C)OC31CCN(C)C1C5

>  <smiles>  (112) 
[H]OC1([H])C2([H])Oc3c([O-])c([H])c([H])c4c3C23C([H])([H])C([H])(C([H])([H])C([H])([H])[H])C1(C([H])([H])[H])OC31C([H])([H])C([H])([H])[N+]([H])(C([H])([H])[H])C1([H])C4([H])[H]

$$$$
37:2:2
     RDKit          3D

 53 58  0  0  1  0  0  0  0  0999 V2000
    5.2448    0.3974    5.2823 C   0  0  0  0  0  0  0  0  0  0  0  0
    5.3018    0.1376    3.7559 C   0  0  0  0  0  0  0  0  0  0  0  0
    5.2427   -1.3555    3.3071 C   0  0  2  0  0  0  0  0  0  0  0  0
    6.0351   -1.6292    1.9228 C   0  0  0  0  0  0  0  0  0  0  0  0
    5.0116   -2.3761    1.0302 C   0  0  2  0  0  0  0  0  0  0  0  0
    5.0369   -2.5970   -0.4912 C   0  0  0  0  0  0  0  0  0  0  0  0
    4.9864   -3.8675   -1.1348 C   0  0  0  0  0  0  0  0  0  0  0  0
    5.0144   -3.8508   -2.5487 C   0  0  0  0  0  0  0  0  0  0  0  0
    4.9225   -2.6393   -3.2283 C   0  0  0  0  0  0  0  0  0  0  0  0
    4.5971   -1.4484   -2.5376 C   0  0  0  0  0  0  0  0  0  0  0  0
    4.2047   -0.3407   -3.2430 O   0  0  0  0  0  0  0  0  0  0  0  0
    4.5488   -1.4766   -1.1290 C   0  0  0  0  0  0  0  0  0  0  0  0
    3.8315   -0.6350   -0.3301 O   0  0  0  0  0  0  0  0  0  0  0  0
    3.9789   -1.1963    0.9590 C   0  0  1  0  0  0  0  0  0  0  0  0
    2.9690   -1.2061    2.0799 C   0  0  1  0  0  0  0  0  0  0  0  0
    1.8139   -1.9013    1.6865 O   0  0  0  0  0  0  0  0  0  0  0  0
    3.7315   -1.9477    3.2150 C   0  0  2  0  0  0  0  0  0  0  0  0
    2.9573   -1.9392    4.5419 C   0  0  0  0  0  0  0  0  0  0  0  0
    3.7010   -3.3371    2.7700 O   0  0  0  0  0  0  0  0  0  0  0  0
    4.7475   -3.6794    1.8743 C   0  0  2  0  0  0  0  0  0  0  0  0
    5.7286   -4.3296    2.9078 C   0  0  0  0  0  0  0  0  0  0  0  0
    5.1386   -5.7392    3.1507 C   0  0  0  0  0  0  0  0  0  0  0  0
    4.4174   -6.0842    1.9167 N   0  0  2  0  0  0  0  0  0  0  0  0
    4.7161   -7.4470    1.4157 C   0  0  0  0  0  0  0  0  0  0  0  0
    4.7733   -4.9732    1.0327 C   0  0  1  0  0  0  0  0  0  0  0  0
    4.1944   -4.8830   -0.3355 C   0  0  0  0  0  0  0  0  0  0  0  0
    5.2458    1.4695    5.4897 H   0  0  0  0  0  0  0  0  0  0  0  0
    6.0913   -0.0583    5.7978 H   0  0  0  0  0  0  0  0  0  0  0  0
    4.3517    0.0210    5.7829 H   0  0  0  0  0  0  0  0  0  0  0  0
    4.5334    0.7329    3.2623 H   0  0  0  0  0  0  0  0  0  0  0  0
    6.2464    0.5554    3.4203 H   0  0  0  0  0  0  0  0  0  0  0  0
    5.7951   -1.8563    4.0927 H   0  0  0  0  0  0  0  0  0  0  0  0
    6.4045   -0.6997    1.4797 H   0  0  0  0  0  0  0  0  0  0  0  0
    6.9441   -2.2164    2.0075 H   0  0  0  0  0  0  0  0  0  0  0  0
    4.9364   -4.7747   -3.1091 H   0  0  0  0  0  0  0  0  0  0  0  0
    4.8807   -2.6251   -4.2971 H   0  0  0  0  0  0  0  0  0  0  0  0
    4.4583   -0.2489    1.1951 H   0  0  0  0  0  0  0  0  0  0  0  0
    2.6888   -0.1907    2.3615 H   0  0  0  0  0  0  0  0  0  0  0  0
    1.4647   -1.4566    0.9183 H   0  0  0  0  0  0  0  0  0  0  0  0
    2.6599   -0.9287    4.8230 H   0  0  0  0  0  0  0  0  0  0  0  0
    3.5550   -2.3814    5.3441 H   0  0  0  0  0  0  0  0  0  0  0  0
    2.0221   -2.4947    4.4696 H   0  0  0  0  0  0  0  0  0  0  0  0
    6.7348   -4.4335    2.4841 H   0  0  0  0  0  0  0  0  0  0  0  0
    5.8171   -3.8553    3.8780 H   0  0  0  0  0  0  0  0  0  0  0  0
    5.9261   -6.4503    3.4012 H   0  0  0  0  0  0  0  0  0  0  0  0
    4.4383   -5.7295    3.9827 H   0  0  0  0  0  0  0  0  0  0  0  0
    5.7731   -7.5719    1.1742 H   0  0  0  0  0  0  0  0  0  0  0  0
    4.1380   -7.6903    0.5256 H   0  0  0  0  0  0  0  0  0  0  0  0
    4.4661   -8.1929    2.1689 H   0  0  0  0  0  0  0  0  0  0  0  0
    5.8094   -5.1853    0.7504 H   0  0  0  0  0  0  0  0  0  0  0  0
    3.1382   -4.6040   -0.3057 H   0  0  0  0  0  0  0  0  0  0  0  0
    4.2730   -5.8463   -0.8259 H   0  0  0  0  0  0  0  0  0  0  0  0
    3.4229   -6.0191    2.1173 H   0  0  0  0  0  0  0  0  0  0  0  0
  1  2  1  0
  1 27  1  0
  1 28  1  0
  1 29  1  0
  2  3  1  0
  2 30  1  0
  2 31  1  0
  3 17  1  0
  3  4  1  0
  3 32  1  1
  5  4  1  1
  4 33  1  0
  4 34  1  0
  5 14  1  0
  5 20  1  0
  5  6  1  0
  6 12  2  0
  6  7  1  0
  7 26  1  0
  7  8  2  0
  8  9  1  0
  8 35  1  0
  9 10  2  0
  9 36  1  0
 10 11  1  0
 10 12  1  0
 12 13  1  0
 13 14  1  0
 14 15  1  0
 14 37  1  1
 15 16  1  0
 15 17  1  0
 15 38  1  1
 16 39  1  0
 17 18  1  1
 17 19  1  0
 18 40  1  0
 18 41  1  0
 18 42  1  0
 19 20  1  0
 20 25  1  0
 20 21  1  1
 21 22  1  0
 21 43  1  0
 21 44  1  0
 22 23  1  0
 22 45  1  0
 22 46  1  0
 23 24  1  0
 23 25  1  0
 23 53  1  1
 24 47  1  0
 24 48  1  0
 24 49  1  0
 25 26  1  0
 25 50  1  6
 26 51  1  0
 26 52  1  0
M  CHG  2  11  -1  23   1
M  END
>  <i_m_ct_stereo_status>  (113) 
1

>  <s_m_source_file>  (113) 
/var/tmp/pbs.5076255.sched01/tmpr6ewtwjb/42o4phu6d4.sdf

>  <i_m_source_file_index>  (113) 
13

>  <i_lp_mmshare_version>  (113) 
48012

>  <i_f3d_flags>  (113) 
0

>  <s_epik_input>  (113) 
W0NIM11bQ0gyXVtDQEhdKFtDSDJdMSlbQ0BAXShPMikoW0NIM10pW0NASF0oW09IXSlbQ0BASF0zT2MoYyhbT0hdKVtjSF1bY0hdNCljNWM0W0NIMl1bQ0BASF0oW0NAQF0yNltDQF0xMzUpTihbQ0gzXSlbQ0gyXVtDSDJdNg==

>  <s_epik_cmdline>  (113) 
J2VwaWtfcHl0aG9uJywgJy1waHQnLCAnMi4wJywgJy1waCcsICc3LjAnLCAnLXRuJywgJzgnLCAnLW1hJywgJzIwMCcsICctaW1hZScsICc8aW5maWxlLm1hZT4nLCAnLW9tYWUnLCAnPG91dGZpbGUubWFlPic=

>  <r_epik_Ionization_Penalty>  (113) 
2.55535

>  <r_epik_Ionization_Penalty_Charging>  (113) 
2.55535

>  <r_epik_Ionization_Penalty_Neutral>  (113) 
1.37208e-06

>  <r_epik_State_Penalty>  (113) 
2.71993

>  <r_epik_Charging_Adjusted_Penalty>  (113) 
5.27528

>  <i_epik_Tot_Q>  (113) 
0

>  <i_epik_Tot_abs_Q>  (113) 
2

>  <s_lp_Force_Field>  (113) 
OPLS3e

>  <r_lp_Energy>  (113) 
159.114

>  <b_lp_Chiralities_Consistent>  (113) 
1

>  <s_lp_Variant>  (113) 
37:0-3

>  <s_i_glide_gridfile>  (113) 
pfpi4k_grid

>  <i_i_glide_lignum>  (113) 
13

>  <i_i_glide_rotatable_bonds>  (113) 
2

>  <r_i_docking_score>  (113) 
-2.69543

>  <r_i_glide_ligand_efficiency>  (113) 
-0.10367

>  <r_i_glide_ligand_efficiency_sa>  (113) 
-0.307123

>  <r_i_glide_ligand_efficiency_ln>  (113) 
-0.633012

>  <r_i_glide_gscore>  (113) 
-2.69543

>  <r_i_glide_lipo>  (113) 
-0.67717

>  <r_i_glide_hbond>  (113) 
0

>  <r_i_glide_metal>  (113) 
-0

>  <r_i_glide_rewards>  (113) 
-0.971977

>  <r_i_glide_evdw>  (113) 
-18.0721

>  <r_i_glide_ecoul>  (113) 
-0.951171

>  <r_i_glide_erotb>  (113) 
0

>  <r_i_glide_esite>  (113) 
0

>  <r_i_glide_emodel>  (113) 
-24.1527

>  <r_i_glide_energy>  (113) 
-19.0232

>  <r_i_glide_einternal>  (113) 
2.03844

>  <r_i_glide_intrahb_reward>  (113) 
-0

>  <i_i_glide_confnum>  (113) 
1

>  <i_i_glide_posenum>  (113) 
4

>  <r_i_glide_eff_state_penalty>  (113) 
0

>  <ligand_id>  (113) 
37

>  <original_smiles>  (113) 
CCC1CC23c4c5ccc(O)c4OC2C(O)C1(C)OC31CCN(C)C1C5

>  <smiles>  (113) 
[H]OC1([H])C2([H])Oc3c([O-])c([H])c([H])c4c3C23C([H])([H])C([H])(C([H])([H])C([H])([H])[H])C1(C([H])([H])[H])OC31C([H])([H])C([H])([H])[N+]([H])(C([H])([H])[H])C1([H])C4([H])[H]

$$$$
38:0:0
     RDKit          3D

 60 64  0  0  1  0  0  0  0  0999 V2000
    6.7503   -5.5990    0.7904 C   0  0  0  0  0  0  0  0  0  0  0  0
    6.3307   -4.1521    1.1674 C   0  0  0  0  0  0  0  0  0  0  0  0
    7.6219   -3.3292    0.9153 C   0  0  0  0  0  0  0  0  0  0  0  0
    5.2482   -3.9508    0.2529 O   0  0  0  0  0  0  0  0  0  0  0  0
    4.2729   -2.8788    0.3915 C   0  0  2  0  0  0  0  0  0  0  0  0
    2.8560   -3.3155    0.0110 C   0  0  1  0  0  0  0  0  0  0  0  0
    3.0177   -3.8655   -1.3629 C   0  0  0  0  0  0  0  0  0  0  0  0
    3.9752   -2.8704   -2.0769 C   0  0  1  0  0  0  0  0  0  0  0  0
    5.0677   -3.6729   -2.8130 C   0  0  0  0  0  0  0  0  0  0  0  0
    3.1937   -2.0699   -3.2089 C   0  0  0  0  0  0  0  0  0  0  0  0
    2.8203   -2.8919   -4.3192 O   0  0  0  0  0  0  0  0  0  0  0  0
    4.5492   -1.9741   -0.8822 C   0  0  0  0  0  0  0  0  0  0  0  0
    3.8533   -0.6376   -0.8522 C   0  0  0  0  0  0  0  0  0  0  0  0
    6.0111   -1.5328   -1.1218 C   0  0  0  0  0  0  0  0  0  0  0  0
    2.2379   -4.0697    1.0412 O   0  0  0  0  0  0  0  0  0  0  0  0
    2.9527   -3.8292    2.2389 C   0  0  1  0  0  0  0  0  0  0  0  0
    2.1385   -3.4933    3.5040 C   0  0  0  0  0  0  0  0  0  0  0  0
    3.1339   -3.3590    4.6922 C   0  0  0  0  0  0  0  0  0  0  0  0
    4.4696   -2.6141    4.3673 C   0  0  0  0  0  0  0  0  0  0  0  0
    5.0160   -2.6820    2.8862 C   0  0  1  0  0  0  0  0  0  0  0  0
    5.9919   -1.1993    2.6345 Cl  0  0  0  0  0  0  0  0  0  0  0  0
    5.7432   -4.0199    2.5797 C   0  0  0  0  0  0  0  0  0  0  0  0
    5.0841   -5.1200    2.9877 C   0  0  0  0  0  0  0  0  0  0  0  0
    3.6659   -5.2261    2.4572 C   0  0  1  0  0  0  0  0  0  0  0  0
    2.9192   -6.1584    3.2277 O   0  0  0  0  0  0  0  0  0  0  0  0
    3.8716   -2.5813    1.8807 C   0  0  1  0  0  0  0  0  0  0  0  0
    3.1549   -1.1810    2.0628 C   0  0  0  0  0  0  0  0  0  0  0  0
    7.4782   -6.0089    1.4929 H   0  0  0  0  0  0  0  0  0  0  0  0
    7.2121   -5.5964   -0.1871 H   0  0  0  0  0  0  0  0  0  0  0  0
    5.9010   -6.2826    0.7109 H   0  0  0  0  0  0  0  0  0  0  0  0
    8.3856   -3.5857    1.6562 H   0  0  0  0  0  0  0  0  0  0  0  0
    7.4682   -2.2536    0.9422 H   0  0  0  0  0  0  0  0  0  0  0  0
    8.0624   -3.5735   -0.0549 H   0  0  0  0  0  0  0  0  0  0  0  0
    2.1754   -2.4691   -0.0236 H   0  0  0  0  0  0  0  0  0  0  0  0
    3.4752   -4.8708   -1.1488 H   0  0  0  0  0  0  0  0  0  0  0  0
    2.0581   -4.0010   -1.8625 H   0  0  0  0  0  0  0  0  0  0  0  0
    5.7341   -3.0352   -3.3951 H   0  0  0  0  0  0  0  0  0  0  0  0
    4.6348   -4.4003   -3.4978 H   0  0  0  0  0  0  0  0  0  0  0  0
    5.6769   -4.2414   -2.1167 H   0  0  0  0  0  0  0  0  0  0  0  0
    2.2981   -1.5719   -2.7881 H   0  0  0  0  0  0  0  0  0  0  0  0
    3.8174   -1.2575   -3.6355 H   0  0  0  0  0  0  0  0  0  0  0  0
    2.2813   -2.3546   -4.9383 H   0  0  0  0  0  0  0  0  0  0  0  0
    4.0059   -0.1674   -1.8188 H   0  0  0  0  0  0  0  0  0  0  0  0
    4.2644    0.0709   -0.1396 H   0  0  0  0  0  0  0  0  0  0  0  0
    2.7879   -0.7081   -0.6913 H   0  0  0  0  0  0  0  0  0  0  0  0
    6.0508   -0.9614   -2.0474 H   0  0  0  0  0  0  0  0  0  0  0  0
    6.7085   -2.3556   -1.2446 H   0  0  0  0  0  0  0  0  0  0  0  0
    6.3482   -0.8749   -0.3161 H   0  0  0  0  0  0  0  0  0  0  0  0
    1.5517   -2.5855    3.3773 H   0  0  0  0  0  0  0  0  0  0  0  0
    1.3954   -4.2613    3.7180 H   0  0  0  0  0  0  0  0  0  0  0  0
    2.6377   -2.8704    5.5333 H   0  0  0  0  0  0  0  0  0  0  0  0
    3.3748   -4.3602    5.0649 H   0  0  0  0  0  0  0  0  0  0  0  0
    4.3265   -1.5708    4.6449 H   0  0  0  0  0  0  0  0  0  0  0  0
    5.2458   -2.9654    5.0439 H   0  0  0  0  0  0  0  0  0  0  0  0
    5.5357   -6.0840    2.8477 H   0  0  0  0  0  0  0  0  0  0  0  0
    3.7803   -5.6950    1.4776 H   0  0  0  0  0  0  0  0  0  0  0  0
    3.3211   -7.0000    3.1630 H   0  0  0  0  0  0  0  0  0  0  0  0
    2.9025   -0.9681    3.0948 H   0  0  0  0  0  0  0  0  0  0  0  0
    2.2510   -1.0587    1.4842 H   0  0  0  0  0  0  0  0  0  0  0  0
    3.7836   -0.3450    1.7974 H   0  0  0  0  0  0  0  0  0  0  0  0
  1  2  1  0
  1 28  1  0
  1 29  1  0
  1 30  1  0
  2 22  1  0
  2  3  1  0
  2  4  1  0
  3 31  1  0
  3 32  1  0
  3 33  1  0
  5  4  1  1
  5 12  1  0
  5 26  1  0
  5  6  1  0
  6  7  1  0
  6 15  1  0
  6 34  1  6
  7  8  1  0
  7 35  1  0
  7 36  1  0
  8  9  1  6
  8 10  1  0
  8 12  1  0
  9 37  1  0
  9 38  1  0
  9 39  1  0
 10 11  1  0
 10 40  1  0
 10 41  1  0
 11 42  1  0
 12 13  1  0
 12 14  1  0
 13 43  1  0
 13 44  1  0
 13 45  1  0
 14 46  1  0
 14 47  1  0
 14 48  1  0
 16 15  1  6
 16 24  1  0
 16 26  1  0
 16 17  1  0
 17 18  1  0
 17 49  1  0
 17 50  1  0
 18 19  1  0
 18 51  1  0
 18 52  1  0
 19 20  1  0
 19 53  1  0
 19 54  1  0
 20 21  1  6
 20 22  1  0
 20 26  1  0
 22 23  2  0
 23 24  1  0
 23 55  1  0
 24 25  1  0
 24 56  1  6
 25 57  1  0
 26 27  1  6
 27 58  1  0
 27 59  1  0
 27 60  1  0
M  END
>  <i_m_ct_stereo_status>  (114) 
1

>  <s_m_source_file>  (114) 
/var/tmp/pbs.5076255.sched01/tmpr6ewtwjb/42o4phu6d4.sdf

>  <i_m_source_file_index>  (114) 
14

>  <i_lp_mmshare_version>  (114) 
48012

>  <i_f3d_flags>  (114) 
0

>  <s_epik_input>  (114) 
W09IXVtDQEBIXTFbQ0hdPUMoQyhPMikoW0NIM10pW0NIM10pW0NAXShDbCkoW0NIMl1bQ0gyXVtDSDJdMylbQ0BdNChbQ0gzXSlbQ0BAXTEzT1tDQEBIXShbQ0BdMjQ1KVtDSDJdW0NAQF0oW0NIM10pKFtDSDJdW09IXSlDNShbQ0gzXSlbQ0gzXQ==

>  <s_epik_cmdline>  (114) 
J2VwaWtfcHl0aG9uJywgJy1waHQnLCAnMi4wJywgJy1waCcsICc3LjAnLCAnLXRuJywgJzgnLCAnLW1hJywgJzIwMCcsICctaW1hZScsICc8aW5maWxlLm1hZT4nLCAnLW9tYWUnLCAnPG91dGZpbGUubWFlPic=

>  <r_lp_tautomer_probability>  (114) 
1

>  <r_epik_Ionization_Penalty>  (114) 
3.73613e-06

>  <r_epik_Ionization_Penalty_Charging>  (114) 
0

>  <r_epik_Ionization_Penalty_Neutral>  (114) 
3.73613e-06

>  <r_epik_State_Penalty>  (114) 
-0

>  <r_epik_Charging_Adjusted_Penalty>  (114) 
0

>  <i_epik_Tot_Q>  (114) 
0

>  <i_epik_Tot_abs_Q>  (114) 
0

>  <s_lp_Force_Field>  (114) 
OPLS3e

>  <r_lp_Energy>  (114) 
149.201

>  <b_lp_Chiralities_Consistent>  (114) 
1

>  <s_lp_Variant>  (114) 
38:0-1

>  <s_i_glide_gridfile>  (114) 
pfpi4k_grid

>  <i_i_glide_lignum>  (114) 
14

>  <i_i_glide_rotatable_bonds>  (114) 
3

>  <r_i_docking_score>  (114) 
-2.57083

>  <r_i_glide_ligand_efficiency>  (114) 
-0.0952158

>  <r_i_glide_ligand_efficiency_sa>  (114) 
-0.285647

>  <r_i_glide_ligand_efficiency_ln>  (114) 
-0.598446

>  <r_i_glide_gscore>  (114) 
-2.57083

>  <r_i_glide_lipo>  (114) 
-0.653413

>  <r_i_glide_hbond>  (114) 
-0.360858

>  <r_i_glide_metal>  (114) 
-0

>  <r_i_glide_rewards>  (114) 
-0.702629

>  <r_i_glide_evdw>  (114) 
-7.18538

>  <r_i_glide_ecoul>  (114) 
-4.12571

>  <r_i_glide_erotb>  (114) 
0.1242

>  <r_i_glide_esite>  (114) 
0

>  <r_i_glide_emodel>  (114) 
-11.4952

>  <r_i_glide_energy>  (114) 
-11.3111

>  <r_i_glide_einternal>  (114) 
1.09925

>  <r_i_glide_intrahb_reward>  (114) 
-0

>  <i_i_glide_confnum>  (114) 
5

>  <i_i_glide_posenum>  (114) 
13

>  <r_i_glide_eff_state_penalty>  (114) 
0

>  <ligand_id>  (114) 
38

>  <original_smiles>  (114) 
CC1(C)OC23C(CC(C)(CO)C2(C)C)OC24CCCC(Cl)(C1=CC2O)C43C

>  <smiles>  (114) 
[H]OC([H])([H])C1(C([H])([H])[H])C([H])([H])C2([H])OC34C([H])(O[H])C([H])=C5C(Cl)(C([H])([H])C([H])([H])C3([H])[H])C4(C([H])([H])[H])C2(OC5(C([H])([H])[H])C([H])([H])[H])C1(C([H])([H])[H])C([H])([H])[H]

$$$$
38:0:1
     RDKit          3D

 60 64  0  0  1  0  0  0  0  0999 V2000
    5.9411   -5.7056    1.1786 C   0  0  0  0  0  0  0  0  0  0  0  0
    5.9605   -4.1527    1.2044 C   0  0  0  0  0  0  0  0  0  0  0  0
    7.4641   -3.8192    0.9643 C   0  0  0  0  0  0  0  0  0  0  0  0
    5.0809   -3.8662    0.1026 O   0  0  0  0  0  0  0  0  0  0  0  0
    4.4673   -2.5641   -0.1271 C   0  0  2  0  0  0  0  0  0  0  0  0
    2.9997   -2.6790   -0.5697 C   0  0  1  0  0  0  0  0  0  0  0  0
    3.0060   -3.5630   -1.7772 C   0  0  0  0  0  0  0  0  0  0  0  0
    4.2227   -3.0514   -2.5709 C   0  0  1  0  0  0  0  0  0  0  0  0
    5.0795   -4.2648   -2.9501 C   0  0  0  0  0  0  0  0  0  0  0  0
    3.7809   -2.4574   -3.9471 C   0  0  0  0  0  0  0  0  0  0  0  0
    2.7426   -1.5002   -3.8970 O   0  0  0  0  0  0  0  0  0  0  0  0
    4.9999   -2.0893   -1.5449 C   0  0  0  0  0  0  0  0  0  0  0  0
    4.7566   -0.6032   -1.9089 C   0  0  0  0  0  0  0  0  0  0  0  0
    6.5375   -2.2395   -1.6354 C   0  0  0  0  0  0  0  0  0  0  0  0
    2.1952   -3.0111    0.5227 O   0  0  0  0  0  0  0  0  0  0  0  0
    2.8175   -2.6264    1.7148 C   0  0  1  0  0  0  0  0  0  0  0  0
    2.0639   -1.7546    2.7539 C   0  0  0  0  0  0  0  0  0  0  0  0
    2.9699   -1.5969    4.0039 C   0  0  0  0  0  0  0  0  0  0  0  0
    4.4835   -1.3930    3.6967 C   0  0  0  0  0  0  0  0  0  0  0  0
    5.0726   -2.0242    2.3622 C   0  0  1  0  0  0  0  0  0  0  0  0
    6.5059   -1.0695    1.9550 Cl  0  0  0  0  0  0  0  0  0  0  0  0
    5.3498   -3.5426    2.4708 C   0  0  0  0  0  0  0  0  0  0  0  0
    4.3723   -4.2654    3.0336 C   0  0  0  0  0  0  0  0  0  0  0  0
    3.0320   -4.0585    2.3556 C   0  0  1  0  0  0  0  0  0  0  0  0
    1.9765   -4.5054    3.1925 O   0  0  0  0  0  0  0  0  0  0  0  0
    4.0949   -1.8278    1.2187 C   0  0  1  0  0  0  0  0  0  0  0  0
    3.8368   -0.2882    0.9923 C   0  0  0  0  0  0  0  0  0  0  0  0
    6.4733   -6.1077    2.0404 H   0  0  0  0  0  0  0  0  0  0  0  0
    6.4149   -6.0670    0.2764 H   0  0  0  0  0  0  0  0  0  0  0  0
    4.9209   -6.1022    1.1629 H   0  0  0  0  0  0  0  0  0  0  0  0
    8.0377   -4.0006    1.8653 H   0  0  0  0  0  0  0  0  0  0  0  0
    7.6525   -2.7983    0.6518 H   0  0  0  0  0  0  0  0  0  0  0  0
    7.8763   -4.4327    0.1795 H   0  0  0  0  0  0  0  0  0  0  0  0
    2.6177   -1.7402   -0.9038 H   0  0  0  0  0  0  0  0  0  0  0  0
    3.1637   -4.5502   -1.3462 H   0  0  0  0  0  0  0  0  0  0  0  0
    2.0521   -3.5284   -2.3027 H   0  0  0  0  0  0  0  0  0  0  0  0
    5.9890   -3.9111   -3.4477 H   0  0  0  0  0  0  0  0  0  0  0  0
    4.5745   -4.9739   -3.6027 H   0  0  0  0  0  0  0  0  0  0  0  0
    5.3565   -4.8268   -2.0500 H   0  0  0  0  0  0  0  0  0  0  0  0
    4.6412   -2.0172   -4.4447 H   0  0  0  0  0  0  0  0  0  0  0  0
    3.4274   -3.2785   -4.5801 H   0  0  0  0  0  0  0  0  0  0  0  0
    2.2110   -1.6825   -3.1503 H   0  0  0  0  0  0  0  0  0  0  0  0
    5.0155   -0.3863   -2.9459 H   0  0  0  0  0  0  0  0  0  0  0  0
    5.3836    0.0165   -1.2932 H   0  0  0  0  0  0  0  0  0  0  0  0
    3.7184   -0.2768   -1.8259 H   0  0  0  0  0  0  0  0  0  0  0  0
    6.8587   -2.0963   -2.6523 H   0  0  0  0  0  0  0  0  0  0  0  0
    6.9036   -3.2437   -1.4078 H   0  0  0  0  0  0  0  0  0  0  0  0
    7.0172   -1.5288   -0.9549 H   0  0  0  0  0  0  0  0  0  0  0  0
    1.7849   -0.7727    2.3401 H   0  0  0  0  0  0  0  0  0  0  0  0
    1.1020   -2.1931    3.0195 H   0  0  0  0  0  0  0  0  0  0  0  0
    2.6086   -0.7813    4.6358 H   0  0  0  0  0  0  0  0  0  0  0  0
    2.8806   -2.4917    4.6320 H   0  0  0  0  0  0  0  0  0  0  0  0
    4.6645   -0.3109    3.6760 H   0  0  0  0  0  0  0  0  0  0  0  0
    5.0830   -1.7456    4.5358 H   0  0  0  0  0  0  0  0  0  0  0  0
    4.4994   -5.3216    3.1427 H   0  0  0  0  0  0  0  0  0  0  0  0
    3.0673   -4.7654    1.5221 H   0  0  0  0  0  0  0  0  0  0  0  0
    1.9127   -3.9202    3.9090 H   0  0  0  0  0  0  0  0  0  0  0  0
    3.5892    0.2595    1.8972 H   0  0  0  0  0  0  0  0  0  0  0  0
    3.0189   -0.1126    0.3056 H   0  0  0  0  0  0  0  0  0  0  0  0
    4.7075    0.2407    0.6232 H   0  0  0  0  0  0  0  0  0  0  0  0
  1  2  1  0
  1 28  1  0
  1 29  1  0
  1 30  1  0
  2 22  1  0
  2  3  1  0
  2  4  1  0
  3 31  1  0
  3 32  1  0
  3 33  1  0
  5  4  1  1
  5 12  1  0
  5 26  1  0
  5  6  1  0
  6  7  1  0
  6 15  1  0
  6 34  1  6
  7  8  1  0
  7 35  1  0
  7 36  1  0
  8  9  1  6
  8 10  1  0
  8 12  1  0
  9 37  1  0
  9 38  1  0
  9 39  1  0
 10 11  1  0
 10 40  1  0
 10 41  1  0
 11 42  1  0
 12 13  1  0
 12 14  1  0
 13 43  1  0
 13 44  1  0
 13 45  1  0
 14 46  1  0
 14 47  1  0
 14 48  1  0
 16 15  1  6
 16 24  1  0
 16 26  1  0
 16 17  1  0
 17 18  1  0
 17 49  1  0
 17 50  1  0
 18 19  1  0
 18 51  1  0
 18 52  1  0
 19 20  1  0
 19 53  1  0
 19 54  1  0
 20 21  1  6
 20 22  1  0
 20 26  1  0
 22 23  2  0
 23 24  1  0
 23 55  1  0
 24 25  1  0
 24 56  1  6
 25 57  1  0
 26 27  1  6
 27 58  1  0
 27 59  1  0
 27 60  1  0
M  END
>  <i_m_ct_stereo_status>  (115) 
1

>  <s_m_source_file>  (115) 
/var/tmp/pbs.5076255.sched01/tmpr6ewtwjb/42o4phu6d4.sdf

>  <i_m_source_file_index>  (115) 
14

>  <i_lp_mmshare_version>  (115) 
48012

>  <i_f3d_flags>  (115) 
0

>  <s_epik_input>  (115) 
W09IXVtDQEBIXTFbQ0hdPUMoQyhPMikoW0NIM10pW0NIM10pW0NAXShDbCkoW0NIMl1bQ0gyXVtDSDJdMylbQ0BdNChbQ0gzXSlbQ0BAXTEzT1tDQEBIXShbQ0BdMjQ1KVtDSDJdW0NAQF0oW0NIM10pKFtDSDJdW09IXSlDNShbQ0gzXSlbQ0gzXQ==

>  <s_epik_cmdline>  (115) 
J2VwaWtfcHl0aG9uJywgJy1waHQnLCAnMi4wJywgJy1waCcsICc3LjAnLCAnLXRuJywgJzgnLCAnLW1hJywgJzIwMCcsICctaW1hZScsICc8aW5maWxlLm1hZT4nLCAnLW9tYWUnLCAnPG91dGZpbGUubWFlPic=

>  <r_lp_tautomer_probability>  (115) 
1

>  <r_epik_Ionization_Penalty>  (115) 
3.73613e-06

>  <r_epik_Ionization_Penalty_Charging>  (115) 
0

>  <r_epik_Ionization_Penalty_Neutral>  (115) 
3.73613e-06

>  <r_epik_State_Penalty>  (115) 
-0

>  <r_epik_Charging_Adjusted_Penalty>  (115) 
0

>  <i_epik_Tot_Q>  (115) 
0

>  <i_epik_Tot_abs_Q>  (115) 
0

>  <s_lp_Force_Field>  (115) 
OPLS3e

>  <r_lp_Energy>  (115) 
149.201

>  <b_lp_Chiralities_Consistent>  (115) 
1

>  <s_lp_Variant>  (115) 
38:0-1

>  <s_i_glide_gridfile>  (115) 
pfpi4k_grid

>  <i_i_glide_lignum>  (115) 
14

>  <i_i_glide_rotatable_bonds>  (115) 
3

>  <r_i_docking_score>  (115) 
-1.51848

>  <r_i_glide_ligand_efficiency>  (115) 
-0.0562399

>  <r_i_glide_ligand_efficiency_sa>  (115) 
-0.16872

>  <r_i_glide_ligand_efficiency_ln>  (115) 
-0.353477

>  <r_i_glide_gscore>  (115) 
-1.51848

>  <r_i_glide_lipo>  (115) 
-0.619746

>  <r_i_glide_hbond>  (115) 
-0.00930763

>  <r_i_glide_metal>  (115) 
-0

>  <r_i_glide_rewards>  (115) 
-0.702629

>  <r_i_glide_evdw>  (115) 
-8.59861

>  <r_i_glide_ecoul>  (115) 
0.7929

>  <r_i_glide_erotb>  (115) 
0.1242

>  <r_i_glide_esite>  (115) 
0

>  <r_i_glide_emodel>  (115) 
-6.989

>  <r_i_glide_energy>  (115) 
-7.80571

>  <r_i_glide_einternal>  (115) 
1.68335

>  <r_i_glide_intrahb_reward>  (115) 
-0

>  <i_i_glide_confnum>  (115) 
2

>  <i_i_glide_posenum>  (115) 
1

>  <r_i_glide_eff_state_penalty>  (115) 
0

>  <ligand_id>  (115) 
38

>  <original_smiles>  (115) 
CC1(C)OC23C(CC(C)(CO)C2(C)C)OC24CCCC(Cl)(C1=CC2O)C43C

>  <smiles>  (115) 
[H]OC([H])([H])C1(C([H])([H])[H])C([H])([H])C2([H])OC34C([H])(O[H])C([H])=C5C(Cl)(C([H])([H])C([H])([H])C3([H])[H])C4(C([H])([H])[H])C2(OC5(C([H])([H])[H])C([H])([H])[H])C1(C([H])([H])[H])C([H])([H])[H]

$$$$
38:0:2
     RDKit          3D

 60 64  0  0  1  0  0  0  0  0999 V2000
    5.6778   -5.7129    1.1977 C   0  0  0  0  0  0  0  0  0  0  0  0
    5.7710   -4.1693    1.2562 C   0  0  0  0  0  0  0  0  0  0  0  0
    7.2816   -3.8955    1.1267 C   0  0  0  0  0  0  0  0  0  0  0  0
    4.9645   -3.8256    0.1106 O   0  0  0  0  0  0  0  0  0  0  0  0
    4.4271   -2.5038   -0.1224 C   0  0  2  0  0  0  0  0  0  0  0  0
    2.9986   -2.5453   -0.6517 C   0  0  1  0  0  0  0  0  0  0  0  0
    3.0183   -3.4204   -1.8522 C   0  0  0  0  0  0  0  0  0  0  0  0
    4.3215   -2.9737   -2.5698 C   0  0  1  0  0  0  0  0  0  0  0  0
    5.1240   -4.2288   -2.9254 C   0  0  0  0  0  0  0  0  0  0  0  0
    4.0345   -2.3079   -3.9526 C   0  0  0  0  0  0  0  0  0  0  0  0
    3.0036   -1.3475   -3.9398 O   0  0  0  0  0  0  0  0  0  0  0  0
    5.0998   -2.0505   -1.4912 C   0  0  0  0  0  0  0  0  0  0  0  0
    4.9309   -0.5642   -1.8370 C   0  0  0  0  0  0  0  0  0  0  0  0
    6.6378   -2.2453   -1.4898 C   0  0  0  0  0  0  0  0  0  0  0  0
    2.1070   -2.8516    0.3814 O   0  0  0  0  0  0  0  0  0  0  0  0
    2.6791   -2.5118    1.6249 C   0  0  1  0  0  0  0  0  0  0  0  0
    1.9004   -1.6160    2.6153 C   0  0  0  0  0  0  0  0  0  0  0  0
    2.7335   -1.5245    3.9289 C   0  0  0  0  0  0  0  0  0  0  0  0
    4.2775   -1.3826    3.7059 C   0  0  0  0  0  0  0  0  0  0  0  0
    4.9032   -2.0195    2.4035 C   0  0  1  0  0  0  0  0  0  0  0  0
    6.3871   -1.1182    2.0644 Cl  0  0  0  0  0  0  0  0  0  0  0  0
    5.1161   -3.5395    2.4973 C   0  0  0  0  0  0  0  0  0  0  0  0
    4.0774   -4.2384    2.9892 C   0  0  0  0  0  0  0  0  0  0  0  0
    2.7974   -3.9621    2.2413 C   0  0  1  0  0  0  0  0  0  0  0  0
    1.6888   -4.3855    3.0036 O   0  0  0  0  0  0  0  0  0  0  0  0
    4.0138   -1.7586    1.1930 C   0  0  1  0  0  0  0  0  0  0  0  0
    3.8406   -0.2072    0.9907 C   0  0  0  0  0  0  0  0  0  0  0  0
    6.1394   -6.1646    2.0790 H   0  0  0  0  0  0  0  0  0  0  0  0
    6.1923   -6.0946    0.3186 H   0  0  0  0  0  0  0  0  0  0  0  0
    4.6516   -6.0673    1.1133 H   0  0  0  0  0  0  0  0  0  0  0  0
    7.7796   -4.1494    2.0598 H   0  0  0  0  0  0  0  0  0  0  0  0
    7.5492   -2.8802    0.8753 H   0  0  0  0  0  0  0  0  0  0  0  0
    7.7341   -4.5084    0.3521 H   0  0  0  0  0  0  0  0  0  0  0  0
    2.6668   -1.5775   -0.9921 H   0  0  0  0  0  0  0  0  0  0  0  0
    3.0750   -4.4082   -1.4182 H   0  0  0  0  0  0  0  0  0  0  0  0
    2.1081   -3.3475   -2.4487 H   0  0  0  0  0  0  0  0  0  0  0  0
    6.0406   -3.9158   -3.4103 H   0  0  0  0  0  0  0  0  0  0  0  0
    4.5998   -4.8936   -3.6120 H   0  0  0  0  0  0  0  0  0  0  0  0
    5.3628   -4.7922   -2.0243 H   0  0  0  0  0  0  0  0  0  0  0  0
    4.9457   -1.8453   -4.3171 H   0  0  0  0  0  0  0  0  0  0  0  0
    3.7414   -3.0509   -4.6919 H   0  0  0  0  0  0  0  0  0  0  0  0
    2.9521   -0.9428   -3.0834 H   0  0  0  0  0  0  0  0  0  0  0  0
    5.3125   -0.3174   -2.8117 H   0  0  0  0  0  0  0  0  0  0  0  0
    5.5323    0.0206   -1.1632 H   0  0  0  0  0  0  0  0  0  0  0  0
    3.9036   -0.2425   -1.8310 H   0  0  0  0  0  0  0  0  0  0  0  0
    7.0966   -2.0181   -2.4450 H   0  0  0  0  0  0  0  0  0  0  0  0
    6.9398   -3.2709   -1.2973 H   0  0  0  0  0  0  0  0  0  0  0  0
    7.0762   -1.5910   -0.7457 H   0  0  0  0  0  0  0  0  0  0  0  0
    1.6994   -0.6283    2.2062 H   0  0  0  0  0  0  0  0  0  0  0  0
    0.9076   -2.0191    2.8177 H   0  0  0  0  0  0  0  0  0  0  0  0
    2.3707   -0.7004    4.5508 H   0  0  0  0  0  0  0  0  0  0  0  0
    2.5648   -2.4250    4.5287 H   0  0  0  0  0  0  0  0  0  0  0  0
    4.4915   -0.3201    3.7321 H   0  0  0  0  0  0  0  0  0  0  0  0
    4.8014   -1.7863    4.5748 H   0  0  0  0  0  0  0  0  0  0  0  0
    4.1614   -5.3046    3.0829 H   0  0  0  0  0  0  0  0  0  0  0  0
    2.8517   -4.6567    1.4039 H   0  0  0  0  0  0  0  0  0  0  0  0
    1.5827   -3.7773    3.7217 H   0  0  0  0  0  0  0  0  0  0  0  0
    3.5715    0.3402    1.8911 H   0  0  0  0  0  0  0  0  0  0  0  0
    3.0798    0.0243    0.2618 H   0  0  0  0  0  0  0  0  0  0  0  0
    4.7503    0.2920    0.6766 H   0  0  0  0  0  0  0  0  0  0  0  0
  1  2  1  0
  1 28  1  0
  1 29  1  0
  1 30  1  0
  2 22  1  0
  2  3  1  0
  2  4  1  0
  3 31  1  0
  3 32  1  0
  3 33  1  0
  5  4  1  1
  5 12  1  0
  5 26  1  0
  5  6  1  0
  6  7  1  0
  6 15  1  0
  6 34  1  6
  7  8  1  0
  7 35  1  0
  7 36  1  0
  8  9  1  6
  8 10  1  0
  8 12  1  0
  9 37  1  0
  9 38  1  0
  9 39  1  0
 10 11  1  0
 10 40  1  0
 10 41  1  0
 11 42  1  0
 12 13  1  0
 12 14  1  0
 13 43  1  0
 13 44  1  0
 13 45  1  0
 14 46  1  0
 14 47  1  0
 14 48  1  0
 16 15  1  6
 16 24  1  0
 16 26  1  0
 16 17  1  0
 17 18  1  0
 17 49  1  0
 17 50  1  0
 18 19  1  0
 18 51  1  0
 18 52  1  0
 19 20  1  0
 19 53  1  0
 19 54  1  0
 20 21  1  6
 20 22  1  0
 20 26  1  0
 22 23  2  0
 23 24  1  0
 23 55  1  0
 24 25  1  0
 24 56  1  6
 25 57  1  0
 26 27  1  6
 27 58  1  0
 27 59  1  0
 27 60  1  0
M  END
>  <i_m_ct_stereo_status>  (116) 
1

>  <s_m_source_file>  (116) 
/var/tmp/pbs.5076255.sched01/tmpr6ewtwjb/42o4phu6d4.sdf

>  <i_m_source_file_index>  (116) 
14

>  <i_lp_mmshare_version>  (116) 
48012

>  <i_f3d_flags>  (116) 
0

>  <s_epik_input>  (116) 
W09IXVtDQEBIXTFbQ0hdPUMoQyhPMikoW0NIM10pW0NIM10pW0NAXShDbCkoW0NIMl1bQ0gyXVtDSDJdMylbQ0BdNChbQ0gzXSlbQ0BAXTEzT1tDQEBIXShbQ0BdMjQ1KVtDSDJdW0NAQF0oW0NIM10pKFtDSDJdW09IXSlDNShbQ0gzXSlbQ0gzXQ==

>  <s_epik_cmdline>  (116) 
J2VwaWtfcHl0aG9uJywgJy1waHQnLCAnMi4wJywgJy1waCcsICc3LjAnLCAnLXRuJywgJzgnLCAnLW1hJywgJzIwMCcsICctaW1hZScsICc8aW5maWxlLm1hZT4nLCAnLW9tYWUnLCAnPG91dGZpbGUubWFlPic=

>  <r_lp_tautomer_probability>  (116) 
1

>  <r_epik_Ionization_Penalty>  (116) 
3.73613e-06

>  <r_epik_Ionization_Penalty_Charging>  (116) 
0

>  <r_epik_Ionization_Penalty_Neutral>  (116) 
3.73613e-06

>  <r_epik_State_Penalty>  (116) 
-0

>  <r_epik_Charging_Adjusted_Penalty>  (116) 
0

>  <i_epik_Tot_Q>  (116) 
0

>  <i_epik_Tot_abs_Q>  (116) 
0

>  <s_lp_Force_Field>  (116) 
OPLS3e

>  <r_lp_Energy>  (116) 
149.201

>  <b_lp_Chiralities_Consistent>  (116) 
1

>  <s_lp_Variant>  (116) 
38:0-1

>  <s_i_glide_gridfile>  (116) 
pfpi4k_grid

>  <i_i_glide_lignum>  (116) 
14

>  <i_i_glide_rotatable_bonds>  (116) 
3

>  <r_i_docking_score>  (116) 
-1.41799

>  <r_i_glide_ligand_efficiency>  (116) 
-0.0525182

>  <r_i_glide_ligand_efficiency_sa>  (116) 
-0.157555

>  <r_i_glide_ligand_efficiency_ln>  (116) 
-0.330085

>  <r_i_glide_gscore>  (116) 
-1.41799

>  <r_i_glide_lipo>  (116) 
-0.576821

>  <r_i_glide_hbond>  (116) 
-0.0275315

>  <r_i_glide_metal>  (116) 
-0

>  <r_i_glide_rewards>  (116) 
-0.702629

>  <r_i_glide_evdw>  (116) 
-7.83818

>  <r_i_glide_ecoul>  (116) 
1.04466

>  <r_i_glide_erotb>  (116) 
0.1242

>  <r_i_glide_esite>  (116) 
0

>  <r_i_glide_emodel>  (116) 
-6.20352

>  <r_i_glide_energy>  (116) 
-6.79352

>  <r_i_glide_einternal>  (116) 
2.04897

>  <r_i_glide_intrahb_reward>  (116) 
-0

>  <i_i_glide_confnum>  (116) 
6

>  <i_i_glide_posenum>  (116) 
10

>  <r_i_glide_eff_state_penalty>  (116) 
0

>  <ligand_id>  (116) 
38

>  <original_smiles>  (116) 
CC1(C)OC23C(CC(C)(CO)C2(C)C)OC24CCCC(Cl)(C1=CC2O)C43C

>  <smiles>  (116) 
[H]OC([H])([H])C1(C([H])([H])[H])C([H])([H])C2([H])OC34C([H])(O[H])C([H])=C5C(Cl)(C([H])([H])C([H])([H])C3([H])[H])C4(C([H])([H])[H])C2(OC5(C([H])([H])[H])C([H])([H])[H])C1(C([H])([H])[H])C([H])([H])[H]

$$$$
39:0:0
     RDKit          3D

 66 70  0  0  1  0  0  0  0  0999 V2000
    0.4574   -7.3560    1.9988 C   0  0  0  0  0  0  0  0  0  0  0  0
    0.0121   -7.9821    3.3441 C   0  0  0  0  0  0  0  0  0  0  0  0
   -1.2555   -7.2231    3.8192 C   0  0  0  0  0  0  0  0  0  0  0  0
   -0.4311   -9.4480    3.1259 C   0  0  1  0  0  0  0  0  0  0  0  0
   -1.3811   -9.5617    2.0778 O   0  0  0  0  0  0  0  0  0  0  0  0
    0.7475  -10.3932    2.8930 C   0  0  0  0  0  0  0  0  0  0  0  0
    1.6114  -10.4400    4.1561 C   0  0  0  0  0  0  0  0  0  0  0  0
    2.1698   -9.0657    4.6645 C   0  0  2  0  0  0  0  0  0  0  0  0
    2.3101   -9.3222    6.1991 C   0  0  0  0  0  0  0  0  0  0  0  0
    1.1083   -7.9032    4.4823 C   0  0  1  0  0  0  0  0  0  0  0  0
    1.7286   -6.4981    4.6754 C   0  0  0  0  0  0  0  0  0  0  0  0
    3.0773   -6.2801    3.9624 C   0  0  0  0  0  0  0  0  0  0  0  0
    4.1875   -7.2819    4.3713 C   0  0  1  0  0  0  0  0  0  0  0  0
    4.5279   -7.1204    5.8913 C   0  0  0  0  0  0  0  0  0  0  0  0
    3.6266   -8.7347    4.0905 C   0  0  2  0  0  0  0  0  0  0  0  0
    3.8312   -9.1321    2.6086 C   0  0  0  0  0  0  0  0  0  0  0  0
    5.2994   -9.0602    2.1814 C   0  0  1  0  0  0  0  0  0  0  0  0
    5.4137   -9.6230    0.8892 O   0  0  0  0  0  0  0  0  0  0  0  0
    5.8384   -7.6125    2.2093 C   0  0  1  0  0  0  0  0  0  0  0  0
    5.2334   -6.6853    1.1187 C   0  0  0  0  0  0  0  0  0  0  0  0
    6.1674   -5.4728    1.1433 C   0  0  1  0  0  0  0  0  0  0  0  0
    5.8418   -4.6601    2.4076 C   0  0  0  0  0  0  0  0  0  0  0  0
    6.0383   -5.4890    3.7058 C   0  0  0  0  0  0  0  0  0  0  0  0
    5.5712   -6.9860    3.6345 C   0  0  1  0  0  0  0  0  0  0  0  0
    7.5292   -6.1399    1.2753 C   0  0  0  0  0  0  0  0  0  0  0  0
    8.6089   -5.5938    1.0371 O   0  0  0  0  0  0  0  0  0  0  0  0
    7.3470   -7.5622    1.7820 C   0  0  1  0  0  0  0  0  0  0  0  0
    8.3100   -7.8915    2.7619 O   0  0  0  0  0  0  0  0  0  0  0  0
   -0.3594   -7.3500    1.2743 H   0  0  0  0  0  0  0  0  0  0  0  0
    1.2685   -7.9119    1.5397 H   0  0  0  0  0  0  0  0  0  0  0  0
    0.7734   -6.3220    2.1152 H   0  0  0  0  0  0  0  0  0  0  0  0
   -1.6634   -7.6535    4.7378 H   0  0  0  0  0  0  0  0  0  0  0  0
   -2.0584   -7.2665    3.0786 H   0  0  0  0  0  0  0  0  0  0  0  0
   -1.0569   -6.1732    4.0211 H   0  0  0  0  0  0  0  0  0  0  0  0
   -0.9354   -9.7853    4.0265 H   0  0  0  0  0  0  0  0  0  0  0  0
   -0.9176   -9.5398    1.2439 H   0  0  0  0  0  0  0  0  0  0  0  0
    0.3758  -11.3988    2.6955 H   0  0  0  0  0  0  0  0  0  0  0  0
    1.3155  -10.1150    2.0122 H   0  0  0  0  0  0  0  0  0  0  0  0
    0.9768  -10.9051    4.9103 H   0  0  0  0  0  0  0  0  0  0  0  0
    2.4191  -11.1575    4.0323 H   0  0  0  0  0  0  0  0  0  0  0  0
    2.4377   -8.4130    6.7812 H   0  0  0  0  0  0  0  0  0  0  0  0
    3.1383   -9.9937    6.4304 H   0  0  0  0  0  0  0  0  0  0  0  0
    1.4182   -9.7792    6.6317 H   0  0  0  0  0  0  0  0  0  0  0  0
    0.4789   -8.0162    5.3668 H   0  0  0  0  0  0  0  0  0  0  0  0
    1.0467   -5.7283    4.3311 H   0  0  0  0  0  0  0  0  0  0  0  0
    1.8263   -6.2987    5.7395 H   0  0  0  0  0  0  0  0  0  0  0  0
    2.8970   -6.3606    2.8975 H   0  0  0  0  0  0  0  0  0  0  0  0
    3.3908   -5.2502    4.1295 H   0  0  0  0  0  0  0  0  0  0  0  0
    4.8789   -8.0598    6.3195 H   0  0  0  0  0  0  0  0  0  0  0  0
    3.7038   -6.7745    6.5062 H   0  0  0  0  0  0  0  0  0  0  0  0
    5.3190   -6.3989    6.0853 H   0  0  0  0  0  0  0  0  0  0  0  0
    4.2985   -9.4212    4.6021 H   0  0  0  0  0  0  0  0  0  0  0  0
    3.5224  -10.1611    2.4380 H   0  0  0  0  0  0  0  0  0  0  0  0
    3.2395   -8.5123    1.9456 H   0  0  0  0  0  0  0  0  0  0  0  0
    5.8979   -9.6723    2.8570 H   0  0  0  0  0  0  0  0  0  0  0  0
    4.9950  -10.4793    0.8762 H   0  0  0  0  0  0  0  0  0  0  0  0
    5.2778   -7.1454    0.1298 H   0  0  0  0  0  0  0  0  0  0  0  0
    4.1943   -6.4089    1.2760 H   0  0  0  0  0  0  0  0  0  0  0  0
    6.1056   -4.8706    0.2391 H   0  0  0  0  0  0  0  0  0  0  0  0
    6.4740   -3.7686    2.4392 H   0  0  0  0  0  0  0  0  0  0  0  0
    4.8197   -4.2889    2.3507 H   0  0  0  0  0  0  0  0  0  0  0  0
    7.0988   -5.4835    3.9601 H   0  0  0  0  0  0  0  0  0  0  0  0
    5.5702   -4.9458    4.5213 H   0  0  0  0  0  0  0  0  0  0  0  0
    6.2832   -7.5162    4.2665 H   0  0  0  0  0  0  0  0  0  0  0  0
    7.5175   -8.2136    0.9270 H   0  0  0  0  0  0  0  0  0  0  0  0
    9.1680   -7.8538    2.3420 H   0  0  0  0  0  0  0  0  0  0  0  0
  1  2  1  0
  1 29  1  0
  1 30  1  0
  1 31  1  0
  2 10  1  0
  2  3  1  0
  2  4  1  0
  3 32  1  0
  3 33  1  0
  3 34  1  0
  4  5  1  0
  4  6  1  0
  4 35  1  1
  5 36  1  0
  6  7  1  0
  6 37  1  0
  6 38  1  0
  7  8  1  0
  7 39  1  0
  7 40  1  0
  8 15  1  0
  8  9  1  1
  8 10  1  0
  9 41  1  0
  9 42  1  0
  9 43  1  0
 10 11  1  0
 10 44  1  1
 11 12  1  0
 11 45  1  0
 11 46  1  0
 12 13  1  0
 12 47  1  0
 12 48  1  0
 13 24  1  0
 13 14  1  1
 13 15  1  0
 14 49  1  0
 14 50  1  0
 14 51  1  0
 15 16  1  0
 15 52  1  1
 16 17  1  0
 16 53  1  0
 16 54  1  0
 17 18  1  0
 17 19  1  0
 17 55  1  1
 18 56  1  0
 19 24  1  0
 19 27  1  0
 19 20  1  6
 20 21  1  0
 20 57  1  0
 20 58  1  0
 21 22  1  0
 21 25  1  0
 21 59  1  6
 22 23  1  0
 22 60  1  0
 22 61  1  0
 23 24  1  0
 23 62  1  0
 23 63  1  0
 24 64  1  1
 25 26  2  0
 25 27  1  0
 27 28  1  0
 27 65  1  6
 28 66  1  0
M  END
>  <i_m_ct_stereo_status>  (117) 
1

>  <s_m_source_file>  (117) 
/var/tmp/pbs.5076255.sched01/tmpr6ewtwjb/42o4phu6d4.sdf

>  <i_m_source_file_index>  (117) 
15

>  <i_lp_mmshare_version>  (117) 
48012

>  <i_f3d_flags>  (117) 
0

>  <s_epik_input>  (117) 
W0NIMl0xW0NIMl1bQ0BIXShbT0hdKUMoW0NIM10pKFtDSDNdKVtDQEhdKFtDSDJdW0NIMl0yKVtDQF0xKFtDSDNdKVtDQEBIXShbQ0gyXVtDQEhdM1tPSF0pW0NAQF0yKFtDSDNdKVtDQEBIXShbQ0BAXTM0NSlbQ0gyXVtDSDJdW0NASF0oW0NIMl00KUMoPU8pW0NASF01W09IXQ==

>  <s_epik_cmdline>  (117) 
J2VwaWtfcHl0aG9uJywgJy1waHQnLCAnMi4wJywgJy1waCcsICc3LjAnLCAnLXRuJywgJzgnLCAnLW1hJywgJzIwMCcsICctaW1hZScsICc8aW5maWxlLm1hZT4nLCAnLW9tYWUnLCAnPG91dGZpbGUubWFlPic=

>  <r_lp_tautomer_probability>  (117) 
1

>  <r_epik_Ionization_Penalty>  (117) 
3.49599e-06

>  <r_epik_Ionization_Penalty_Charging>  (117) 
0

>  <r_epik_Ionization_Penalty_Neutral>  (117) 
3.49599e-06

>  <r_epik_State_Penalty>  (117) 
-0

>  <r_epik_Charging_Adjusted_Penalty>  (117) 
0

>  <i_epik_Tot_Q>  (117) 
0

>  <i_epik_Tot_abs_Q>  (117) 
0

>  <s_lp_Force_Field>  (117) 
OPLS3e

>  <r_lp_Energy>  (117) 
90.5451

>  <b_lp_Chiralities_Consistent>  (117) 
1

>  <s_lp_Variant>  (117) 
39:0-1

>  <s_i_glide_gridfile>  (117) 
pfpi4k_grid

>  <i_i_glide_lignum>  (117) 
15

>  <i_i_glide_rotatable_bonds>  (117) 
3

>  <r_i_docking_score>  (117) 
-4.48509

>  <r_i_glide_ligand_efficiency>  (117) 
-0.160182

>  <r_i_glide_ligand_efficiency_sa>  (117) 
-0.486406

>  <r_i_glide_ligand_efficiency_ln>  (117) 
-1.03529

>  <r_i_glide_gscore>  (117) 
-4.48509

>  <r_i_glide_lipo>  (117) 
-0.386622

>  <r_i_glide_hbond>  (117) 
-0.432

>  <r_i_glide_metal>  (117) 
-0

>  <r_i_glide_rewards>  (117) 
-0.773211

>  <r_i_glide_evdw>  (117) 
-28.1702

>  <r_i_glide_ecoul>  (117) 
-9.89831

>  <r_i_glide_erotb>  (117) 
0

>  <r_i_glide_esite>  (117) 
0

>  <r_i_glide_emodel>  (117) 
-48.5097

>  <r_i_glide_energy>  (117) 
-38.0685

>  <r_i_glide_einternal>  (117) 
2.25426

>  <r_i_glide_intrahb_reward>  (117) 
-0

>  <i_i_glide_confnum>  (117) 
2

>  <i_i_glide_posenum>  (117) 
35

>  <r_i_glide_eff_state_penalty>  (117) 
0

>  <ligand_id>  (117) 
39

>  <original_smiles>  (117) 
CC1(C)C(O)CCC2(C)C1CCC1(C)C2CC(O)C23CC(CCC12)C(=O)C3O

>  <smiles>  (117) 
[H]OC1([H])C(=O)C2([H])C([H])([H])C([H])([H])C3([H])C1(C2([H])[H])C([H])(O[H])C([H])([H])C1([H])C2(C([H])([H])[H])C([H])([H])C([H])([H])C([H])(O[H])C(C([H])([H])[H])(C([H])([H])[H])C2([H])C([H])([H])C([H])([H])C31C([H])([H])[H]

$$$$
39:0:1
     RDKit          3D

 66 70  0  0  1  0  0  0  0  0999 V2000
    4.7116   -8.5263    0.8975 C   0  0  0  0  0  0  0  0  0  0  0  0
    4.5644   -8.6690    2.4247 C   0  0  0  0  0  0  0  0  0  0  0  0
    3.4910   -9.7628    2.6839 C   0  0  0  0  0  0  0  0  0  0  0  0
    5.8899   -9.1988    3.0333 C   0  0  1  0  0  0  0  0  0  0  0  0
    6.3794  -10.3334    2.3405 O   0  0  0  0  0  0  0  0  0  0  0  0
    6.9822   -8.1339    3.0624 C   0  0  0  0  0  0  0  0  0  0  0  0
    6.5569   -6.9896    3.9863 C   0  0  0  0  0  0  0  0  0  0  0  0
    5.1960   -6.2894    3.6526 C   0  0  2  0  0  0  0  0  0  0  0  0
    4.7243   -5.8024    5.0579 C   0  0  0  0  0  0  0  0  0  0  0  0
    4.1152   -7.3302    3.1400 C   0  0  1  0  0  0  0  0  0  0  0  0
    2.8863   -6.6390    2.4948 C   0  0  0  0  0  0  0  0  0  0  0  0
    3.2178   -5.4894    1.5251 C   0  0  0  0  0  0  0  0  0  0  0  0
    4.0532   -4.3448    2.1523 C   0  0  1  0  0  0  0  0  0  0  0  0
    3.2554   -3.6531    3.3081 C   0  0  0  0  0  0  0  0  0  0  0  0
    5.3781   -5.0003    2.7197 C   0  0  2  0  0  0  0  0  0  0  0  0
    6.4458   -5.1595    1.6074 C   0  0  0  0  0  0  0  0  0  0  0  0
    6.7839   -3.8330    0.9214 C   0  0  1  0  0  0  0  0  0  0  0  0
    7.9092   -4.0316    0.0823 O   0  0  0  0  0  0  0  0  0  0  0  0
    5.5762   -3.2636    0.1523 C   0  0  1  0  0  0  0  0  0  0  0  0
    5.1937   -4.0618   -1.1185 C   0  0  0  0  0  0  0  0  0  0  0  0
    4.2519   -3.1103   -1.8566 C   0  0  1  0  0  0  0  0  0  0  0  0
    2.9108   -3.1016   -1.1099 C   0  0  0  0  0  0  0  0  0  0  0  0
    3.0568   -2.6445    0.3659 C   0  0  0  0  0  0  0  0  0  0  0  0
    4.3339   -3.1627    1.1193 C   0  0  1  0  0  0  0  0  0  0  0  0
    4.9620   -1.7782   -1.6669 C   0  0  0  0  0  0  0  0  0  0  0  0
    4.7584   -0.7577   -2.3230 O   0  0  0  0  0  0  0  0  0  0  0  0
    5.9392   -1.8989   -0.5089 C   0  0  1  0  0  0  0  0  0  0  0  0
    5.9295   -0.7609    0.3292 O   0  0  0  0  0  0  0  0  0  0  0  0
    4.9131   -9.4965    0.4477 H   0  0  0  0  0  0  0  0  0  0  0  0
    5.5203   -7.8629    0.6150 H   0  0  0  0  0  0  0  0  0  0  0  0
    3.8075   -8.1562    0.4307 H   0  0  0  0  0  0  0  0  0  0  0  0
    3.3653   -9.9606    3.7505 H   0  0  0  0  0  0  0  0  0  0  0  0
    3.7602  -10.7128    2.2187 H   0  0  0  0  0  0  0  0  0  0  0  0
    2.5131   -9.4988    2.2830 H   0  0  0  0  0  0  0  0  0  0  0  0
    5.7086   -9.5160    4.0605 H   0  0  0  0  0  0  0  0  0  0  0  0
    5.6654  -10.9453    2.2260 H   0  0  0  0  0  0  0  0  0  0  0  0
    7.9060   -8.5694    3.4440 H   0  0  0  0  0  0  0  0  0  0  0  0
    7.2220   -7.7881    2.0606 H   0  0  0  0  0  0  0  0  0  0  0  0
    6.5213   -7.4484    4.9732 H   0  0  0  0  0  0  0  0  0  0  0  0
    7.3574   -6.2573    4.0755 H   0  0  0  0  0  0  0  0  0  0  0  0
    3.6799   -5.5153    5.0873 H   0  0  0  0  0  0  0  0  0  0  0  0
    5.3184   -4.9641    5.4230 H   0  0  0  0  0  0  0  0  0  0  0  0
    4.7938   -6.5842    5.8148 H   0  0  0  0  0  0  0  0  0  0  0  0
    3.7097   -7.7348    4.0682 H   0  0  0  0  0  0  0  0  0  0  0  0
    2.2761   -7.3607    1.9591 H   0  0  0  0  0  0  0  0  0  0  0  0
    2.2288   -6.2887    3.2856 H   0  0  0  0  0  0  0  0  0  0  0  0
    3.7578   -5.9130    0.6858 H   0  0  0  0  0  0  0  0  0  0  0  0
    2.2859   -5.1115    1.1088 H   0  0  0  0  0  0  0  0  0  0  0  0
    3.9263   -3.2402    4.0618 H   0  0  0  0  0  0  0  0  0  0  0  0
    2.5512   -4.2994    3.8203 H   0  0  0  0  0  0  0  0  0  0  0  0
    2.6454   -2.8158    2.9749 H   0  0  0  0  0  0  0  0  0  0  0  0
    5.8269   -4.2444    3.3627 H   0  0  0  0  0  0  0  0  0  0  0  0
    7.3837   -5.5267    2.0188 H   0  0  0  0  0  0  0  0  0  0  0  0
    6.1329   -5.8757    0.8556 H   0  0  0  0  0  0  0  0  0  0  0  0
    7.0783   -3.1074    1.6791 H   0  0  0  0  0  0  0  0  0  0  0  0
    8.1956   -3.1934   -0.2507 H   0  0  0  0  0  0  0  0  0  0  0  0
    6.0678   -4.2424   -1.7443 H   0  0  0  0  0  0  0  0  0  0  0  0
    4.7417   -5.0310   -0.9293 H   0  0  0  0  0  0  0  0  0  0  0  0
    4.1391   -3.3670   -2.9104 H   0  0  0  0  0  0  0  0  0  0  0  0
    2.2146   -2.4544   -1.6384 H   0  0  0  0  0  0  0  0  0  0  0  0
    2.4736   -4.0995   -1.1472 H   0  0  0  0  0  0  0  0  0  0  0  0
    3.0733   -1.5553    0.3743 H   0  0  0  0  0  0  0  0  0  0  0  0
    2.1364   -2.8893    0.8895 H   0  0  0  0  0  0  0  0  0  0  0  0
    4.6065   -2.3427    1.7867 H   0  0  0  0  0  0  0  0  0  0  0  0
    6.9248   -1.9558   -0.9644 H   0  0  0  0  0  0  0  0  0  0  0  0
    5.0433   -0.6029    0.6169 H   0  0  0  0  0  0  0  0  0  0  0  0
  1  2  1  0
  1 29  1  0
  1 30  1  0
  1 31  1  0
  2 10  1  0
  2  3  1  0
  2  4  1  0
  3 32  1  0
  3 33  1  0
  3 34  1  0
  4  5  1  0
  4  6  1  0
  4 35  1  1
  5 36  1  0
  6  7  1  0
  6 37  1  0
  6 38  1  0
  7  8  1  0
  7 39  1  0
  7 40  1  0
  8 15  1  0
  8  9  1  1
  8 10  1  0
  9 41  1  0
  9 42  1  0
  9 43  1  0
 10 11  1  0
 10 44  1  1
 11 12  1  0
 11 45  1  0
 11 46  1  0
 12 13  1  0
 12 47  1  0
 12 48  1  0
 13 24  1  0
 13 14  1  1
 13 15  1  0
 14 49  1  0
 14 50  1  0
 14 51  1  0
 15 16  1  0
 15 52  1  1
 16 17  1  0
 16 53  1  0
 16 54  1  0
 17 18  1  0
 17 19  1  0
 17 55  1  1
 18 56  1  0
 19 24  1  0
 19 27  1  0
 19 20  1  6
 20 21  1  0
 20 57  1  0
 20 58  1  0
 21 22  1  0
 21 25  1  0
 21 59  1  6
 22 23  1  0
 22 60  1  0
 22 61  1  0
 23 24  1  0
 23 62  1  0
 23 63  1  0
 24 64  1  1
 25 26  2  0
 25 27  1  0
 27 28  1  0
 27 65  1  6
 28 66  1  0
M  END
>  <i_m_ct_stereo_status>  (118) 
1

>  <s_m_source_file>  (118) 
/var/tmp/pbs.5076255.sched01/tmpr6ewtwjb/42o4phu6d4.sdf

>  <i_m_source_file_index>  (118) 
15

>  <i_lp_mmshare_version>  (118) 
48012

>  <i_f3d_flags>  (118) 
0

>  <s_epik_input>  (118) 
W0NIMl0xW0NIMl1bQ0BIXShbT0hdKUMoW0NIM10pKFtDSDNdKVtDQEhdKFtDSDJdW0NIMl0yKVtDQF0xKFtDSDNdKVtDQEBIXShbQ0gyXVtDQEhdM1tPSF0pW0NAQF0yKFtDSDNdKVtDQEBIXShbQ0BAXTM0NSlbQ0gyXVtDSDJdW0NASF0oW0NIMl00KUMoPU8pW0NASF01W09IXQ==

>  <s_epik_cmdline>  (118) 
J2VwaWtfcHl0aG9uJywgJy1waHQnLCAnMi4wJywgJy1waCcsICc3LjAnLCAnLXRuJywgJzgnLCAnLW1hJywgJzIwMCcsICctaW1hZScsICc8aW5maWxlLm1hZT4nLCAnLW9tYWUnLCAnPG91dGZpbGUubWFlPic=

>  <r_lp_tautomer_probability>  (118) 
1

>  <r_epik_Ionization_Penalty>  (118) 
3.49599e-06

>  <r_epik_Ionization_Penalty_Charging>  (118) 
0

>  <r_epik_Ionization_Penalty_Neutral>  (118) 
3.49599e-06

>  <r_epik_State_Penalty>  (118) 
-0

>  <r_epik_Charging_Adjusted_Penalty>  (118) 
0

>  <i_epik_Tot_Q>  (118) 
0

>  <i_epik_Tot_abs_Q>  (118) 
0

>  <s_lp_Force_Field>  (118) 
OPLS3e

>  <r_lp_Energy>  (118) 
90.5451

>  <b_lp_Chiralities_Consistent>  (118) 
1

>  <s_lp_Variant>  (118) 
39:0-1

>  <s_i_glide_gridfile>  (118) 
pfpi4k_grid

>  <i_i_glide_lignum>  (118) 
15

>  <i_i_glide_rotatable_bonds>  (118) 
3

>  <r_i_docking_score>  (118) 
-2.87854

>  <r_i_glide_ligand_efficiency>  (118) 
-0.102805

>  <r_i_glide_ligand_efficiency_sa>  (118) 
-0.312177

>  <r_i_glide_ligand_efficiency_ln>  (118) 
-0.664452

>  <r_i_glide_gscore>  (118) 
-2.87854

>  <r_i_glide_lipo>  (118) 
-0.302477

>  <r_i_glide_hbond>  (118) 
0

>  <r_i_glide_metal>  (118) 
-0

>  <r_i_glide_rewards>  (118) 
-0.746208

>  <r_i_glide_evdw>  (118) 
-29.6614

>  <r_i_glide_ecoul>  (118) 
-2.07392

>  <r_i_glide_erotb>  (118) 
0

>  <r_i_glide_esite>  (118) 
-0.0357003

>  <r_i_glide_emodel>  (118) 
-37.9339

>  <r_i_glide_energy>  (118) 
-31.7353

>  <r_i_glide_einternal>  (118) 
2.18142

>  <r_i_glide_intrahb_reward>  (118) 
-0

>  <i_i_glide_confnum>  (118) 
2

>  <i_i_glide_posenum>  (118) 
1

>  <r_i_glide_eff_state_penalty>  (118) 
0

>  <ligand_id>  (118) 
39

>  <original_smiles>  (118) 
CC1(C)C(O)CCC2(C)C1CCC1(C)C2CC(O)C23CC(CCC12)C(=O)C3O

>  <smiles>  (118) 
[H]OC1([H])C(=O)C2([H])C([H])([H])C([H])([H])C3([H])C1(C2([H])[H])C([H])(O[H])C([H])([H])C1([H])C2(C([H])([H])[H])C([H])([H])C([H])([H])C([H])(O[H])C(C([H])([H])[H])(C([H])([H])[H])C2([H])C([H])([H])C([H])([H])C31C([H])([H])[H]

$$$$
39:0:2
     RDKit          3D

 66 70  0  0  1  0  0  0  0  0999 V2000
    4.6991   -8.5045    0.9040 C   0  0  0  0  0  0  0  0  0  0  0  0
    4.4968   -8.6319    2.4250 C   0  0  0  0  0  0  0  0  0  0  0  0
    3.4218   -9.7315    2.6568 C   0  0  0  0  0  0  0  0  0  0  0  0
    5.8015   -9.1439    3.0875 C   0  0  1  0  0  0  0  0  0  0  0  0
    6.3262  -10.2803    2.4228 O   0  0  0  0  0  0  0  0  0  0  0  0
    6.8853   -8.0709    3.1453 C   0  0  0  0  0  0  0  0  0  0  0  0
    6.4183   -6.9205    4.0408 C   0  0  0  0  0  0  0  0  0  0  0  0
    5.0655   -6.2338    3.6496 C   0  0  2  0  0  0  0  0  0  0  0  0
    4.5387   -5.7357    5.0312 C   0  0  0  0  0  0  0  0  0  0  0  0
    4.0123   -7.2897    3.1094 C   0  0  1  0  0  0  0  0  0  0  0  0
    2.8023   -6.6140    2.4142 C   0  0  0  0  0  0  0  0  0  0  0  0
    3.1591   -5.4723    1.4438 C   0  0  0  0  0  0  0  0  0  0  0  0
    3.9635   -4.3145    2.0878 C   0  0  1  0  0  0  0  0  0  0  0  0
    3.1177   -3.6171    3.2054 C   0  0  0  0  0  0  0  0  0  0  0  0
    5.2726   -4.9532    2.7116 C   0  0  2  0  0  0  0  0  0  0  0  0
    6.3783   -5.1184    1.6399 C   0  0  0  0  0  0  0  0  0  0  0  0
    6.7310   -3.8012    0.9475 C   0  0  1  0  0  0  0  0  0  0  0  0
    7.8775   -4.0117    0.1467 O   0  0  0  0  0  0  0  0  0  0  0  0
    5.5491   -3.2454    0.1330 C   0  0  1  0  0  0  0  0  0  0  0  0
    5.2194   -4.0588   -1.1403 C   0  0  0  0  0  0  0  0  0  0  0  0
    4.2996   -3.1212   -1.9227 C   0  0  1  0  0  0  0  0  0  0  0  0
    2.9299   -3.1098   -1.2271 C   0  0  0  0  0  0  0  0  0  0  0  0
    3.0215   -2.6403    0.2488 C   0  0  0  0  0  0  0  0  0  0  0  0
    4.2731   -3.1429    1.0532 C   0  0  1  0  0  0  0  0  0  0  0  0
    4.9932   -1.7842   -1.7222 C   0  0  0  0  0  0  0  0  0  0  0  0
    4.7879   -0.7693   -2.3828 O   0  0  0  0  0  0  0  0  0  0  0  0
    5.9320   -1.8853   -0.5274 C   0  0  1  0  0  0  0  0  0  0  0  0
    5.8749   -0.7358    0.2952 O   0  0  0  0  0  0  0  0  0  0  0  0
    4.9273   -9.4763    0.4719 H   0  0  0  0  0  0  0  0  0  0  0  0
    5.5075   -7.8352    0.6422 H   0  0  0  0  0  0  0  0  0  0  0  0
    3.8111   -8.1504    0.3989 H   0  0  0  0  0  0  0  0  0  0  0  0
    3.2597   -9.9170    3.7207 H   0  0  0  0  0  0  0  0  0  0  0  0
    3.7153  -10.6841    2.2140 H   0  0  0  0  0  0  0  0  0  0  0  0
    2.4580   -9.4795    2.2187 H   0  0  0  0  0  0  0  0  0  0  0  0
    5.5846   -9.4527    4.1115 H   0  0  0  0  0  0  0  0  0  0  0  0
    5.6192  -10.8963    2.2817 H   0  0  0  0  0  0  0  0  0  0  0  0
    7.7961   -8.4962    3.5670 H   0  0  0  0  0  0  0  0  0  0  0  0
    7.1602   -7.7360    2.1484 H   0  0  0  0  0  0  0  0  0  0  0  0
    6.3507   -7.3673    5.0330 H   0  0  0  0  0  0  0  0  0  0  0  0
    7.2093   -6.1801    4.1501 H   0  0  0  0  0  0  0  0  0  0  0  0
    3.4929   -5.4550    5.0194 H   0  0  0  0  0  0  0  0  0  0  0  0
    5.1137   -4.8890    5.4097 H   0  0  0  0  0  0  0  0  0  0  0  0
    4.5857   -6.5090    5.7991 H   0  0  0  0  0  0  0  0  0  0  0  0
    3.5767   -7.6883    4.0262 H   0  0  0  0  0  0  0  0  0  0  0  0
    2.2153   -7.3468    1.8654 H   0  0  0  0  0  0  0  0  0  0  0  0
    2.1143   -6.2612    3.1780 H   0  0  0  0  0  0  0  0  0  0  0  0
    3.7312   -5.9014    0.6281 H   0  0  0  0  0  0  0  0  0  0  0  0
    2.2386   -5.1059    0.9916 H   0  0  0  0  0  0  0  0  0  0  0  0
    3.7560   -3.1911    3.9800 H   0  0  0  0  0  0  0  0  0  0  0  0
    2.3991   -4.2631    3.6977 H   0  0  0  0  0  0  0  0  0  0  0  0
    2.5140   -2.7883    2.8414 H   0  0  0  0  0  0  0  0  0  0  0  0
    5.6992   -4.1867    3.3600 H   0  0  0  0  0  0  0  0  0  0  0  0
    7.3007   -5.4787    2.0907 H   0  0  0  0  0  0  0  0  0  0  0  0
    6.0939   -5.8463    0.8881 H   0  0  0  0  0  0  0  0  0  0  0  0
    7.0086   -3.0603    1.6964 H   0  0  0  0  0  0  0  0  0  0  0  0
    8.5730   -4.3195    0.7083 H   0  0  0  0  0  0  0  0  0  0  0  0
    6.1176   -4.2381   -1.7317 H   0  0  0  0  0  0  0  0  0  0  0  0
    4.7692   -5.0307   -0.9593 H   0  0  0  0  0  0  0  0  0  0  0  0
    4.2265   -3.3915   -2.9780 H   0  0  0  0  0  0  0  0  0  0  0  0
    2.2434   -2.4688   -1.7831 H   0  0  0  0  0  0  0  0  0  0  0  0
    2.4973   -4.1101   -1.2709 H   0  0  0  0  0  0  0  0  0  0  0  0
    3.0341   -1.5494    0.2463 H   0  0  0  0  0  0  0  0  0  0  0  0
    2.0838   -2.8853    0.7420 H   0  0  0  0  0  0  0  0  0  0  0  0
    4.5178   -2.3150    1.7217 H   0  0  0  0  0  0  0  0  0  0  0  0
    6.9383   -1.9435   -0.9384 H   0  0  0  0  0  0  0  0  0  0  0  0
    4.9749   -0.5858    0.5418 H   0  0  0  0  0  0  0  0  0  0  0  0
  1  2  1  0
  1 29  1  0
  1 30  1  0
  1 31  1  0
  2 10  1  0
  2  3  1  0
  2  4  1  0
  3 32  1  0
  3 33  1  0
  3 34  1  0
  4  5  1  0
  4  6  1  0
  4 35  1  1
  5 36  1  0
  6  7  1  0
  6 37  1  0
  6 38  1  0
  7  8  1  0
  7 39  1  0
  7 40  1  0
  8 15  1  0
  8  9  1  1
  8 10  1  0
  9 41  1  0
  9 42  1  0
  9 43  1  0
 10 11  1  0
 10 44  1  1
 11 12  1  0
 11 45  1  0
 11 46  1  0
 12 13  1  0
 12 47  1  0
 12 48  1  0
 13 24  1  0
 13 14  1  1
 13 15  1  0
 14 49  1  0
 14 50  1  0
 14 51  1  0
 15 16  1  0
 15 52  1  1
 16 17  1  0
 16 53  1  0
 16 54  1  0
 17 18  1  0
 17 19  1  0
 17 55  1  1
 18 56  1  0
 19 24  1  0
 19 27  1  0
 19 20  1  6
 20 21  1  0
 20 57  1  0
 20 58  1  0
 21 22  1  0
 21 25  1  0
 21 59  1  6
 22 23  1  0
 22 60  1  0
 22 61  1  0
 23 24  1  0
 23 62  1  0
 23 63  1  0
 24 64  1  1
 25 26  2  0
 25 27  1  0
 27 28  1  0
 27 65  1  6
 28 66  1  0
M  END
>  <i_m_ct_stereo_status>  (119) 
1

>  <s_m_source_file>  (119) 
/var/tmp/pbs.5076255.sched01/tmpr6ewtwjb/42o4phu6d4.sdf

>  <i_m_source_file_index>  (119) 
15

>  <i_lp_mmshare_version>  (119) 
48012

>  <i_f3d_flags>  (119) 
0

>  <s_epik_input>  (119) 
W0NIMl0xW0NIMl1bQ0BIXShbT0hdKUMoW0NIM10pKFtDSDNdKVtDQEhdKFtDSDJdW0NIMl0yKVtDQF0xKFtDSDNdKVtDQEBIXShbQ0gyXVtDQEhdM1tPSF0pW0NAQF0yKFtDSDNdKVtDQEBIXShbQ0BAXTM0NSlbQ0gyXVtDSDJdW0NASF0oW0NIMl00KUMoPU8pW0NASF01W09IXQ==

>  <s_epik_cmdline>  (119) 
J2VwaWtfcHl0aG9uJywgJy1waHQnLCAnMi4wJywgJy1waCcsICc3LjAnLCAnLXRuJywgJzgnLCAnLW1hJywgJzIwMCcsICctaW1hZScsICc8aW5maWxlLm1hZT4nLCAnLW9tYWUnLCAnPG91dGZpbGUubWFlPic=

>  <r_lp_tautomer_probability>  (119) 
1

>  <r_epik_Ionization_Penalty>  (119) 
3.49599e-06

>  <r_epik_Ionization_Penalty_Charging>  (119) 
0

>  <r_epik_Ionization_Penalty_Neutral>  (119) 
3.49599e-06

>  <r_epik_State_Penalty>  (119) 
-0

>  <r_epik_Charging_Adjusted_Penalty>  (119) 
0

>  <i_epik_Tot_Q>  (119) 
0

>  <i_epik_Tot_abs_Q>  (119) 
0

>  <s_lp_Force_Field>  (119) 
OPLS3e

>  <r_lp_Energy>  (119) 
90.5451

>  <b_lp_Chiralities_Consistent>  (119) 
1

>  <s_lp_Variant>  (119) 
39:0-1

>  <s_i_glide_gridfile>  (119) 
pfpi4k_grid

>  <i_i_glide_lignum>  (119) 
15

>  <i_i_glide_rotatable_bonds>  (119) 
3

>  <r_i_docking_score>  (119) 
-2.81896

>  <r_i_glide_ligand_efficiency>  (119) 
-0.100677

>  <r_i_glide_ligand_efficiency_sa>  (119) 
-0.305716

>  <r_i_glide_ligand_efficiency_ln>  (119) 
-0.6507

>  <r_i_glide_gscore>  (119) 
-2.81896

>  <r_i_glide_lipo>  (119) 
-0.288731

>  <r_i_glide_hbond>  (119) 
0

>  <r_i_glide_metal>  (119) 
-0

>  <r_i_glide_rewards>  (119) 
-0.746208

>  <r_i_glide_evdw>  (119) 
-29.5766

>  <r_i_glide_ecoul>  (119) 
-1.81137

>  <r_i_glide_erotb>  (119) 
0

>  <r_i_glide_esite>  (119) 
-0.0334891

>  <r_i_glide_emodel>  (119) 
-37.4102

>  <r_i_glide_energy>  (119) 
-31.388

>  <r_i_glide_einternal>  (119) 
2.23104

>  <r_i_glide_intrahb_reward>  (119) 
-0

>  <i_i_glide_confnum>  (119) 
1

>  <i_i_glide_posenum>  (119) 
25

>  <r_i_glide_eff_state_penalty>  (119) 
0

>  <ligand_id>  (119) 
39

>  <original_smiles>  (119) 
CC1(C)C(O)CCC2(C)C1CCC1(C)C2CC(O)C23CC(CCC12)C(=O)C3O

>  <smiles>  (119) 
[H]OC1([H])C(=O)C2([H])C([H])([H])C([H])([H])C3([H])C1(C2([H])[H])C([H])(O[H])C([H])([H])C1([H])C2(C([H])([H])[H])C([H])([H])C([H])([H])C([H])(O[H])C(C([H])([H])[H])(C([H])([H])[H])C2([H])C([H])([H])C([H])([H])C31C([H])([H])[H]

$$$$
40:0:0
     RDKit          3D

 75 82  0  0  1  0  0  0  0  0999 V2000
    4.3039  -12.7358    3.0292 C   0  0  0  0  0  0  0  0  0  0  0  0
    3.9243  -11.3115    2.9198 N   0  0  2  0  0  0  0  0  0  0  0  0
    4.8507  -10.4446    3.6366 C   0  0  0  0  0  0  0  0  0  0  0  0
    4.4105   -8.9725    3.5152 C   0  0  0  0  0  0  0  0  0  0  0  0
    3.5885   -8.0459    4.6048 C   0  0  2  0  0  0  0  0  0  0  0  0
    3.5535   -8.8727    5.8608 C   0  0  0  0  0  0  0  0  0  0  0  0
    2.9910  -10.1114    5.9512 C   0  0  0  0  0  0  0  0  0  0  0  0
    2.3332  -11.0656    4.8955 C   0  0  1  0  0  0  0  0  0  0  0  0
    1.0151  -11.3802    5.2764 O   0  0  0  0  0  0  0  0  0  0  0  0
    2.5433  -10.9685    3.3000 C   0  0  1  0  0  0  0  0  0  0  0  0
    1.9838   -9.8408    2.2888 C   0  0  0  0  0  0  0  0  0  0  0  0
    1.7204   -8.3156    2.6381 C   0  0  1  0  0  0  0  0  0  0  0  0
    1.0905   -8.2721    4.0279 C   0  0  0  0  0  0  0  0  0  0  0  0
    2.0665   -7.2843    4.5318 C   0  0  2  0  0  0  0  0  0  0  0  0
    1.6718   -6.2351    3.3788 C   0  0  1  0  0  0  0  0  0  0  0  0
    1.5764   -4.6841    3.3978 C   0  0  0  0  0  0  0  0  0  0  0  0
    2.8515   -3.8973    3.4560 C   0  0  0  0  0  0  0  0  0  0  0  0
    2.9213   -2.5718    3.9882 C   0  0  0  0  0  0  0  0  0  0  0  0
    1.8971   -1.7000    3.8228 O   0  0  0  0  0  0  0  0  0  0  0  0
    4.0077   -2.2167    4.8419 C   0  0  0  0  0  0  0  0  0  0  0  0
    4.8067   -3.2311    5.3759 C   0  0  0  0  0  0  0  0  0  0  0  0
    4.6369   -4.5486    4.8803 C   0  0  0  0  0  0  0  0  0  0  0  0
    3.8618   -4.7880    3.7431 C   0  0  0  0  0  0  0  0  0  0  0  0
    4.0227   -6.2112    3.0815 C   0  0  1  0  0  0  0  0  0  0  0  0
    5.1448   -6.0911    1.9423 C   0  0  2  0  0  0  0  0  0  0  0  0
    5.7324   -7.2730    1.4254 O   0  0  0  0  0  0  0  0  0  0  0  0
    6.3540   -5.1392    2.1749 C   0  0  0  0  0  0  0  0  0  0  0  0
    6.7793   -4.4100    0.9203 C   0  0  0  0  0  0  0  0  0  0  0  0
    5.8274   -3.7629    0.0877 C   0  0  0  0  0  0  0  0  0  0  0  0
    6.2367   -3.0692   -1.0595 C   0  0  0  0  0  0  0  0  0  0  0  0
    7.6108   -2.9805   -1.3664 C   0  0  0  0  0  0  0  0  0  0  0  0
    8.5617   -3.5746   -0.5084 C   0  0  0  0  0  0  0  0  0  0  0  0
    8.1502   -4.3015    0.6177 C   0  0  0  0  0  0  0  0  0  0  0  0
    4.5551   -6.8660    4.4111 C   0  0  1  0  0  0  0  0  0  0  0  0
    4.7493   -5.8593    5.5532 C   0  0  0  0  0  0  0  0  0  0  0  0
    2.5926   -6.8734    2.4302 C   0  0  1  0  0  0  0  0  0  0  0  0
    2.2894   -6.4080    1.1288 O   0  0  0  0  0  0  0  0  0  0  0  0
    4.3652  -13.0969    4.0568 H   0  0  0  0  0  0  0  0  0  0  0  0
    5.2895  -12.8773    2.5711 H   0  0  0  0  0  0  0  0  0  0  0  0
    3.6137  -13.3671    2.4671 H   0  0  0  0  0  0  0  0  0  0  0  0
    5.0784  -10.7355    4.6546 H   0  0  0  0  0  0  0  0  0  0  0  0
    5.8005  -10.5744    3.1126 H   0  0  0  0  0  0  0  0  0  0  0  0
    5.4596   -8.7376    3.5394 H   0  0  0  0  0  0  0  0  0  0  0  0
    4.1678   -8.7773    2.4761 H   0  0  0  0  0  0  0  0  0  0  0  0
    3.9608   -8.4126    6.7415 H   0  0  0  0  0  0  0  0  0  0  0  0
    3.0167  -10.5602    6.9424 H   0  0  0  0  0  0  0  0  0  0  0  0
    2.8187  -12.0057    5.1678 H   0  0  0  0  0  0  0  0  0  0  0  0
    1.0217  -11.6883    6.1595 H   0  0  0  0  0  0  0  0  0  0  0  0
    1.9836  -11.8327    2.9540 H   0  0  0  0  0  0  0  0  0  0  0  0
    2.5212   -9.8837    1.3431 H   0  0  0  0  0  0  0  0  0  0  0  0
    0.9947  -10.2248    2.0221 H   0  0  0  0  0  0  0  0  0  0  0  0
    0.8751   -8.1597    1.9550 H   0  0  0  0  0  0  0  0  0  0  0  0
    0.0491   -7.9324    4.0393 H   0  0  0  0  0  0  0  0  0  0  0  0
    1.0291   -9.1594    4.6064 H   0  0  0  0  0  0  0  0  0  0  0  0
    1.7631   -6.8972    5.5008 H   0  0  0  0  0  0  0  0  0  0  0  0
    0.6399   -6.3249    3.0255 H   0  0  0  0  0  0  0  0  0  0  0  0
    1.0901   -4.3392    2.4842 H   0  0  0  0  0  0  0  0  0  0  0  0
    0.9050   -4.3665    4.1948 H   0  0  0  0  0  0  0  0  0  0  0  0
    2.0532   -0.8404    4.1883 H   0  0  0  0  0  0  0  0  0  0  0  0
    4.0854   -1.2118    5.2292 H   0  0  0  0  0  0  0  0  0  0  0  0
    5.5011   -3.0319    6.1825 H   0  0  0  0  0  0  0  0  0  0  0  0
    4.5978   -5.7293    1.0805 H   0  0  0  0  0  0  0  0  0  0  0  0
    5.1326   -7.9895    1.4538 H   0  0  0  0  0  0  0  0  0  0  0  0
    6.1738   -4.3071    2.8455 H   0  0  0  0  0  0  0  0  0  0  0  0
    7.1846   -5.7115    2.6148 H   0  0  0  0  0  0  0  0  0  0  0  0
    4.7714   -3.7910    0.3190 H   0  0  0  0  0  0  0  0  0  0  0  0
    5.4927   -2.6195   -1.7028 H   0  0  0  0  0  0  0  0  0  0  0  0
    7.9403   -2.4751   -2.2557 H   0  0  0  0  0  0  0  0  0  0  0  0
    9.6112   -3.4804   -0.7172 H   0  0  0  0  0  0  0  0  0  0  0  0
    8.8745   -4.7591    1.2754 H   0  0  0  0  0  0  0  0  0  0  0  0
    5.6223   -7.0482    4.2881 H   0  0  0  0  0  0  0  0  0  0  0  0
    5.7060   -5.9644    6.0696 H   0  0  0  0  0  0  0  0  0  0  0  0
    3.9277   -5.8967    6.2759 H   0  0  0  0  0  0  0  0  0  0  0  0
    2.9268   -6.7583    0.5241 H   0  0  0  0  0  0  0  0  0  0  0  0
    3.9968  -11.1568    1.9247 H   0  0  0  0  0  0  0  0  0  0  0  0
  1  2  1  0
  1 38  1  0
  1 39  1  0
  1 40  1  0
  2 10  1  0
  2  3  1  0
  2 75  1  6
  3  4  1  0
  3 41  1  0
  3 42  1  0
  5  4  1  6
  4 43  1  0
  4 44  1  0
  5 14  1  0
  5 34  1  0
  5  6  1  0
  6  7  2  3
  6 45  1  0
  7  8  1  0
  7 46  1  0
  8  9  1  0
  8 10  1  0
  8 47  1  1
  9 48  1  0
 10 11  1  0
 10 49  1  6
 11 12  1  0
 11 50  1  0
 11 51  1  0
 12 36  1  0
 12 13  1  0
 12 52  1  6
 13 14  1  0
 13 53  1  0
 13 54  1  0
 14 15  1  0
 14 55  1  1
 15 36  1  0
 15 16  1  0
 15 56  1  6
 16 17  1  0
 16 57  1  0
 16 58  1  0
 17 23  2  0
 17 18  1  0
 18 19  1  0
 18 20  2  0
 19 59  1  0
 20 21  1  0
 20 60  1  0
 21 22  2  0
 21 61  1  0
 22 35  1  0
 22 23  1  0
 24 23  1  1
 24 25  1  0
 24 34  1  0
 24 36  1  0
 25 26  1  0
 25 27  1  0
 25 62  1  6
 26 63  1  0
 27 28  1  0
 27 64  1  0
 27 65  1  0
 28 33  1  0
 28 29  2  0
 29 30  1  0
 29 66  1  0
 30 31  2  0
 30 67  1  0
 31 32  1  0
 31 68  1  0
 32 33  2  0
 32 69  1  0
 33 70  1  0
 34 35  1  0
 34 71  1  6
 35 72  1  0
 35 73  1  0
 36 37  1  6
 37 74  1  0
M  CHG  1   2   1
M  END
>  <i_m_ct_stereo_status>  (120) 
1

>  <s_m_source_file>  (120) 
/var/tmp/pbs.5076255.sched01/tmpr6ewtwjb/42o4phu6d4.sdf

>  <i_m_source_file_index>  (120) 
16

>  <i_lp_mmshare_version>  (120) 
48012

>  <i_f3d_flags>  (120) 
0

>  <s_epik_input>  (120) 
W0NASF0xMltDSDJdYzNbY0hdW2NIXWMoW09IXSljKFtDSDJdNCljM1tDQEBdMihbQ0BdKFtPSF0pKFtDQEhdNFtDQEBIXTVbQ0BdMTY3KVtDQEhdKFtDSDJdNSlbQ0gyXVtDQEBIXShOKFtDSDNdKVtDSDJdW0NIMl02KVtDQEhdKFtPSF0pL1tDSF09W0NIXVw3KVtDQEhdKFtPSF0pW0NIMl1jOFtjSF1bY0hdW2NIXVtjSF1bY0hdOA==

>  <s_epik_cmdline>  (120) 
J2VwaWtfcHl0aG9uJywgJy1waHQnLCAnMi4wJywgJy1waCcsICc3LjAnLCAnLXRuJywgJzgnLCAnLW1hJywgJzIwMCcsICctaW1hZScsICc8aW5maWxlLm1hZT4nLCAnLW9tYWUnLCAnPG91dGZpbGUubWFlPic=

>  <r_lp_tautomer_probability>  (120) 
1

>  <r_epik_Ionization_Penalty>  (120) 
0.000887675

>  <r_epik_Ionization_Penalty_Charging>  (120) 
0.00082592

>  <r_epik_Ionization_Penalty_Neutral>  (120) 
6.17552e-05

>  <r_epik_State_Penalty>  (120) 
0.000531499

>  <r_epik_Charging_Adjusted_Penalty>  (120) 
0.00135742

>  <i_epik_Tot_Q>  (120) 
1

>  <i_epik_Tot_abs_Q>  (120) 
1

>  <s_lp_Force_Field>  (120) 
OPLS3e

>  <r_lp_Energy>  (120) 
328.305

>  <b_lp_Chiralities_Consistent>  (120) 
1

>  <s_lp_Variant>  (120) 
40:0-1

>  <s_i_glide_gridfile>  (120) 
pfpi4k_grid

>  <i_i_glide_lignum>  (120) 
16

>  <i_i_glide_rotatable_bonds>  (120) 
7

>  <r_i_docking_score>  (120) 
-3.34335

>  <r_i_glide_ligand_efficiency>  (120) 
-0.0903609

>  <r_i_glide_ligand_efficiency_sa>  (120) 
-0.301102

>  <r_i_glide_ligand_efficiency_ln>  (120) 
-0.725095

>  <r_i_glide_gscore>  (120) 
-3.34335

>  <r_i_glide_lipo>  (120) 
-0.580376

>  <r_i_glide_hbond>  (120) 
-0.322314

>  <r_i_glide_metal>  (120) 
-0

>  <r_i_glide_rewards>  (120) 
0

>  <r_i_glide_evdw>  (120) 
-24.1347

>  <r_i_glide_ecoul>  (120) 
-9.23048

>  <r_i_glide_erotb>  (120) 
0.244419

>  <r_i_glide_esite>  (120) 
-0.0937714

>  <r_i_glide_emodel>  (120) 
-39.9413

>  <r_i_glide_energy>  (120) 
-33.3652

>  <r_i_glide_einternal>  (120) 
4.76811

>  <r_i_glide_intrahb_reward>  (120) 
-0

>  <i_i_glide_confnum>  (120) 
1

>  <i_i_glide_posenum>  (120) 
7

>  <r_i_glide_eff_state_penalty>  (120) 
0

>  <ligand_id>  (120) 
40

>  <original_smiles>  (120) 
CN1CCC23C=CC(O)C1CC1CC2C2Cc4c(O)ccc5c4C(C(O)Cc4ccccc4)(C3C5)C12O

>  <smiles>  (120) 
[H]Oc1c([H])c([H])c2c3c1C([H])([H])C1([H])C4([H])C([H])([H])C5([H])C([H])([H])C6([H])C([H])(O[H])C([H])=C([H])C4(C([H])([H])C([H])([H])[N+]6([H])C([H])([H])[H])C([H])(C2([H])[H])C3(C([H])(O[H])C([H])([H])c2c([H])c([H])c([H])c([H])c2[H])C51O[H]

$$$$
40:0:1
     RDKit          3D

 75 82  0  0  1  0  0  0  0  0999 V2000
    2.9960    0.3346    1.3150 C   0  0  0  0  0  0  0  0  0  0  0  0
    3.1438   -1.1369    1.3597 N   0  0  2  0  0  0  0  0  0  0  0  0
    3.9639   -1.6018    2.4723 C   0  0  0  0  0  0  0  0  0  0  0  0
    4.0159   -3.1435    2.4688 C   0  0  0  0  0  0  0  0  0  0  0  0
    5.2541   -4.0691    1.8487 C   0  0  2  0  0  0  0  0  0  0  0  0
    6.3575   -3.1109    1.4788 C   0  0  0  0  0  0  0  0  0  0  0  0
    6.2677   -2.0826    0.5967 C   0  0  0  0  0  0  0  0  0  0  0  0
    5.0838   -1.5098   -0.2337 C   0  0  1  0  0  0  0  0  0  0  0  0
    5.3816   -1.5424   -1.6203 O   0  0  0  0  0  0  0  0  0  0  0  0
    3.5433   -1.7938    0.0986 C   0  0  1  0  0  0  0  0  0  0  0  0
    2.7209   -3.1655   -0.0516 C   0  0  0  0  0  0  0  0  0  0  0  0
    3.2964   -4.6343    0.1009 C   0  0  1  0  0  0  0  0  0  0  0  0
    4.6628   -4.6601   -0.5729 C   0  0  0  0  0  0  0  0  0  0  0  0
    5.3127   -5.2455    0.6219 C   0  0  2  0  0  0  0  0  0  0  0  0
    4.3367   -6.5235    0.6024 C   0  0  1  0  0  0  0  0  0  0  0  0
    4.5702   -8.0180    0.9577 C   0  0  0  0  0  0  0  0  0  0  0  0
    4.8183   -8.3620    2.3852 C   0  0  0  0  0  0  0  0  0  0  0  0
    5.5393   -9.5055    2.8093 C   0  0  0  0  0  0  0  0  0  0  0  0
    5.4999  -10.6650    2.0908 O   0  0  0  0  0  0  0  0  0  0  0  0
    6.4340   -9.4112    3.9003 C   0  0  0  0  0  0  0  0  0  0  0  0
    6.7909   -8.1373    4.3866 C   0  0  0  0  0  0  0  0  0  0  0  0
    6.0742   -7.0232    3.9129 C   0  0  0  0  0  0  0  0  0  0  0  0
    4.9485   -7.1819    3.1129 C   0  0  0  0  0  0  0  0  0  0  0  0
    4.0847   -5.9039    2.8741 C   0  0  1  0  0  0  0  0  0  0  0  0
    2.9821   -5.8257    4.0134 C   0  0  2  0  0  0  0  0  0  0  0  0
    3.4010   -5.1074    5.1591 O   0  0  0  0  0  0  0  0  0  0  0  0
    2.3969   -7.1676    4.5612 C   0  0  0  0  0  0  0  0  0  0  0  0
    0.9946   -7.4693    4.0687 C   0  0  0  0  0  0  0  0  0  0  0  0
    0.8052   -8.4146    3.0416 C   0  0  0  0  0  0  0  0  0  0  0  0
   -0.4835   -8.6789    2.5483 C   0  0  0  0  0  0  0  0  0  0  0  0
   -1.5946   -8.0357    3.1185 C   0  0  0  0  0  0  0  0  0  0  0  0
   -1.4159   -7.1202    4.1695 C   0  0  0  0  0  0  0  0  0  0  0  0
   -0.1220   -6.8266    4.6425 C   0  0  0  0  0  0  0  0  0  0  0  0
    5.3207   -4.9241    3.0995 C   0  0  1  0  0  0  0  0  0  0  0  0
    6.5823   -5.6736    3.5390 C   0  0  0  0  0  0  0  0  0  0  0  0
    3.3230   -5.7801    1.3488 C   0  0  1  0  0  0  0  0  0  0  0  0
    2.0824   -6.4379    1.2833 O   0  0  0  0  0  0  0  0  0  0  0  0
    3.9438    0.8625    1.1729 H   0  0  0  0  0  0  0  0  0  0  0  0
    2.5691    0.7084    2.2512 H   0  0  0  0  0  0  0  0  0  0  0  0
    2.2991    0.6059    0.5257 H   0  0  0  0  0  0  0  0  0  0  0  0
    4.9363   -1.1207    2.5257 H   0  0  0  0  0  0  0  0  0  0  0  0
    3.4546   -1.2552    3.3721 H   0  0  0  0  0  0  0  0  0  0  0  0
    3.9351   -3.1720    3.5500 H   0  0  0  0  0  0  0  0  0  0  0  0
    3.0180   -3.5454    2.3222 H   0  0  0  0  0  0  0  0  0  0  0  0
    7.3093   -3.3400    1.9130 H   0  0  0  0  0  0  0  0  0  0  0  0
    7.1900   -1.5357    0.4485 H   0  0  0  0  0  0  0  0  0  0  0  0
    5.2088   -0.4449   -0.0401 H   0  0  0  0  0  0  0  0  0  0  0  0
    4.6940   -1.0960   -2.0876 H   0  0  0  0  0  0  0  0  0  0  0  0
    3.0325   -1.1868   -0.6491 H   0  0  0  0  0  0  0  0  0  0  0  0
    1.8142   -3.1002    0.5436 H   0  0  0  0  0  0  0  0  0  0  0  0
    2.3510   -3.1314   -1.0799 H   0  0  0  0  0  0  0  0  0  0  0  0
    2.6227   -5.1181   -0.6113 H   0  0  0  0  0  0  0  0  0  0  0  0
    4.7125   -5.2832   -1.4697 H   0  0  0  0  0  0  0  0  0  0  0  0
    5.0886   -3.7525   -0.9167 H   0  0  0  0  0  0  0  0  0  0  0  0
    6.3339   -5.5448    0.3899 H   0  0  0  0  0  0  0  0  0  0  0  0
    3.9732   -6.7845   -0.3930 H   0  0  0  0  0  0  0  0  0  0  0  0
    3.7020   -8.6079    0.6610 H   0  0  0  0  0  0  0  0  0  0  0  0
    5.3967   -8.4105    0.3682 H   0  0  0  0  0  0  0  0  0  0  0  0
    4.7880  -10.8215    1.4691 H   0  0  0  0  0  0  0  0  0  0  0  0
    6.9840  -10.2849    4.2203 H   0  0  0  0  0  0  0  0  0  0  0  0
    7.6511   -8.0165    5.0324 H   0  0  0  0  0  0  0  0  0  0  0  0
    2.1697   -5.1966    3.6587 H   0  0  0  0  0  0  0  0  0  0  0  0
    4.1638   -5.5348    5.5189 H   0  0  0  0  0  0  0  0  0  0  0  0
    3.0240   -8.0371    4.3760 H   0  0  0  0  0  0  0  0  0  0  0  0
    2.3294   -7.1342    5.6489 H   0  0  0  0  0  0  0  0  0  0  0  0
    1.6537   -8.9234    2.6082 H   0  0  0  0  0  0  0  0  0  0  0  0
   -0.6143   -9.3786    1.7370 H   0  0  0  0  0  0  0  0  0  0  0  0
   -2.5827   -8.2639    2.7478 H   0  0  0  0  0  0  0  0  0  0  0  0
   -2.2781   -6.6548    4.6232 H   0  0  0  0  0  0  0  0  0  0  0  0
    0.0100   -6.1205    5.4499 H   0  0  0  0  0  0  0  0  0  0  0  0
    5.3088   -4.3508    4.0226 H   0  0  0  0  0  0  0  0  0  0  0  0
    7.0979   -5.2149    4.3862 H   0  0  0  0  0  0  0  0  0  0  0  0
    7.2827   -5.8022    2.7111 H   0  0  0  0  0  0  0  0  0  0  0  0
    2.1667   -7.2466    1.7655 H   0  0  0  0  0  0  0  0  0  0  0  0
    2.2024   -1.4626    1.5221 H   0  0  0  0  0  0  0  0  0  0  0  0
  1  2  1  0
  1 38  1  0
  1 39  1  0
  1 40  1  0
  2 10  1  0
  2  3  1  0
  2 75  1  1
  3  4  1  0
  3 41  1  0
  3 42  1  0
  5  4  1  1
  4 43  1  0
  4 44  1  0
  5 14  1  0
  5 34  1  0
  5  6  1  0
  6  7  2  3
  6 45  1  0
  7  8  1  0
  7 46  1  0
  8  9  1  0
  8 10  1  0
  8 47  1  1
  9 48  1  0
 10 11  1  0
 10 49  1  6
 11 12  1  0
 11 50  1  0
 11 51  1  0
 12 36  1  0
 12 13  1  0
 12 52  1  6
 13 14  1  0
 13 53  1  0
 13 54  1  0
 14 15  1  0
 14 55  1  6
 15 36  1  0
 15 16  1  0
 15 56  1  6
 16 17  1  0
 16 57  1  0
 16 58  1  0
 17 23  2  0
 17 18  1  0
 18 19  1  0
 18 20  2  0
 19 59  1  0
 20 21  1  0
 20 60  1  0
 21 22  2  0
 21 61  1  0
 22 35  1  0
 22 23  1  0
 24 23  1  6
 24 25  1  0
 24 34  1  0
 24 36  1  0
 25 26  1  0
 25 27  1  0
 25 62  1  6
 26 63  1  0
 27 28  1  0
 27 64  1  0
 27 65  1  0
 28 33  1  0
 28 29  2  0
 29 30  1  0
 29 66  1  0
 30 31  2  0
 30 67  1  0
 31 32  1  0
 31 68  1  0
 32 33  2  0
 32 69  1  0
 33 70  1  0
 34 35  1  0
 34 71  1  1
 35 72  1  0
 35 73  1  0
 36 37  1  1
 37 74  1  0
M  CHG  1   2   1
M  END
>  <i_m_ct_stereo_status>  (121) 
1

>  <s_m_source_file>  (121) 
/var/tmp/pbs.5076255.sched01/tmpr6ewtwjb/42o4phu6d4.sdf

>  <i_m_source_file_index>  (121) 
16

>  <i_lp_mmshare_version>  (121) 
48012

>  <i_f3d_flags>  (121) 
0

>  <s_epik_input>  (121) 
W0NASF0xMltDSDJdYzNbY0hdW2NIXWMoW09IXSljKFtDSDJdNCljM1tDQEBdMihbQ0BdKFtPSF0pKFtDQEhdNFtDQEBIXTVbQ0BdMTY3KVtDQEhdKFtDSDJdNSlbQ0gyXVtDQEBIXShOKFtDSDNdKVtDSDJdW0NIMl02KVtDQEhdKFtPSF0pL1tDSF09W0NIXVw3KVtDQEhdKFtPSF0pW0NIMl1jOFtjSF1bY0hdW2NIXVtjSF1bY0hdOA==

>  <s_epik_cmdline>  (121) 
J2VwaWtfcHl0aG9uJywgJy1waHQnLCAnMi4wJywgJy1waCcsICc3LjAnLCAnLXRuJywgJzgnLCAnLW1hJywgJzIwMCcsICctaW1hZScsICc8aW5maWxlLm1hZT4nLCAnLW9tYWUnLCAnPG91dGZpbGUubWFlPic=

>  <r_lp_tautomer_probability>  (121) 
1

>  <r_epik_Ionization_Penalty>  (121) 
0.000887675

>  <r_epik_Ionization_Penalty_Charging>  (121) 
0.00082592

>  <r_epik_Ionization_Penalty_Neutral>  (121) 
6.17552e-05

>  <r_epik_State_Penalty>  (121) 
0.000531499

>  <r_epik_Charging_Adjusted_Penalty>  (121) 
0.00135742

>  <i_epik_Tot_Q>  (121) 
1

>  <i_epik_Tot_abs_Q>  (121) 
1

>  <s_lp_Force_Field>  (121) 
OPLS3e

>  <r_lp_Energy>  (121) 
328.305

>  <b_lp_Chiralities_Consistent>  (121) 
1

>  <s_lp_Variant>  (121) 
40:0-1

>  <s_i_glide_gridfile>  (121) 
pfpi4k_grid

>  <i_i_glide_lignum>  (121) 
16

>  <i_i_glide_rotatable_bonds>  (121) 
7

>  <r_i_docking_score>  (121) 
-3.22562

>  <r_i_glide_ligand_efficiency>  (121) 
-0.0871788

>  <r_i_glide_ligand_efficiency_sa>  (121) 
-0.290499

>  <r_i_glide_ligand_efficiency_ln>  (121) 
-0.699561

>  <r_i_glide_gscore>  (121) 
-3.22562

>  <r_i_glide_lipo>  (121) 
-0.538084

>  <r_i_glide_hbond>  (121) 
-0.135799

>  <r_i_glide_metal>  (121) 
-0

>  <r_i_glide_rewards>  (121) 
0

>  <r_i_glide_evdw>  (121) 
-27.8838

>  <r_i_glide_ecoul>  (121) 
-9.10376

>  <r_i_glide_erotb>  (121) 
0.244419

>  <r_i_glide_esite>  (121) 
-0.0363988

>  <r_i_glide_emodel>  (121) 
-44.2947

>  <r_i_glide_energy>  (121) 
-36.9876

>  <r_i_glide_einternal>  (121) 
4.02474

>  <r_i_glide_intrahb_reward>  (121) 
-0

>  <i_i_glide_confnum>  (121) 
5

>  <i_i_glide_posenum>  (121) 
24

>  <r_i_glide_eff_state_penalty>  (121) 
0

>  <ligand_id>  (121) 
40

>  <original_smiles>  (121) 
CN1CCC23C=CC(O)C1CC1CC2C2Cc4c(O)ccc5c4C(C(O)Cc4ccccc4)(C3C5)C12O

>  <smiles>  (121) 
[H]Oc1c([H])c([H])c2c3c1C([H])([H])C1([H])C4([H])C([H])([H])C5([H])C([H])([H])C6([H])C([H])(O[H])C([H])=C([H])C4(C([H])([H])C([H])([H])[N+]6([H])C([H])([H])[H])C([H])(C2([H])[H])C3(C([H])(O[H])C([H])([H])c2c([H])c([H])c([H])c([H])c2[H])C51O[H]

$$$$
40:0:2
     RDKit          3D

 75 82  0  0  1  0  0  0  0  0999 V2000
    3.6851   -0.1600    1.2971 C   0  0  0  0  0  0  0  0  0  0  0  0
    3.7682   -1.6422    1.3765 N   0  0  2  0  0  0  0  0  0  0  0  0
    4.6886   -2.1174    2.4108 C   0  0  0  0  0  0  0  0  0  0  0  0
    4.6869   -3.6626    2.4445 C   0  0  0  0  0  0  0  0  0  0  0  0
    5.8228   -4.6488    1.7309 C   0  0  2  0  0  0  0  0  0  0  0  0
    6.9264   -3.7409    1.2418 C   0  0  0  0  0  0  0  0  0  0  0  0
    6.7762   -2.7413    0.3321 C   0  0  0  0  0  0  0  0  0  0  0  0
    5.5222   -2.1447   -0.3869 C   0  0  1  0  0  0  0  0  0  0  0  0
    5.6745   -2.1739   -1.7968 O   0  0  0  0  0  0  0  0  0  0  0  0
    4.0086   -2.3520    0.1032 C   0  0  1  0  0  0  0  0  0  0  0  0
    3.1169   -3.6932    0.0725 C   0  0  0  0  0  0  0  0  0  0  0  0
    3.6577   -5.1756    0.2151 C   0  0  1  0  0  0  0  0  0  0  0  0
    4.9524   -5.2590   -0.5951 C   0  0  0  0  0  0  0  0  0  0  0  0
    5.7015   -5.8456    0.5336 C   0  0  2  0  0  0  0  0  0  0  0  0
    4.6805   -7.0882    0.6416 C   0  0  1  0  0  0  0  0  0  0  0  0
    4.8972   -8.5872    0.9998 C   0  0  0  0  0  0  0  0  0  0  0  0
    5.2636   -8.9193    2.4104 C   0  0  0  0  0  0  0  0  0  0  0  0
    5.9831  -10.0820    2.7741 C   0  0  0  0  0  0  0  0  0  0  0  0
    5.8186  -11.2543    2.0921 O   0  0  0  0  0  0  0  0  0  0  0  0
    6.9974   -9.9999    3.7646 C   0  0  0  0  0  0  0  0  0  0  0  0
    7.4415   -8.7320    4.1866 C   0  0  0  0  0  0  0  0  0  0  0  0
    6.7176   -7.5994    3.7672 C   0  0  0  0  0  0  0  0  0  0  0  0
    5.5014   -7.7369    3.1016 C   0  0  0  0  0  0  0  0  0  0  0  0
    4.6821   -6.4222    2.9092 C   0  0  1  0  0  0  0  0  0  0  0  0
    3.7146   -6.2500    4.1490 C   0  0  2  0  0  0  0  0  0  0  0  0
    4.3897   -5.7641    5.2951 O   0  0  0  0  0  0  0  0  0  0  0  0
    2.9427   -7.5199    4.6141 C   0  0  0  0  0  0  0  0  0  0  0  0
    1.9754   -7.2741    5.7659 C   0  0  0  0  0  0  0  0  0  0  0  0
    0.9948   -6.2597    5.6925 C   0  0  0  0  0  0  0  0  0  0  0  0
    0.1233   -6.0365    6.7763 C   0  0  0  0  0  0  0  0  0  0  0  0
    0.2162   -6.8344    7.9324 C   0  0  0  0  0  0  0  0  0  0  0  0
    1.1768   -7.8611    8.0034 C   0  0  0  0  0  0  0  0  0  0  0  0
    2.0539   -8.0782    6.9245 C   0  0  0  0  0  0  0  0  0  0  0  0
    5.9697   -5.4884    2.9823 C   0  0  1  0  0  0  0  0  0  0  0  0
    7.2383   -6.2773    3.3073 C   0  0  0  0  0  0  0  0  0  0  0  0
    3.7684   -6.3031    1.4759 C   0  0  1  0  0  0  0  0  0  0  0  0
    2.5107   -6.9415    1.5645 O   0  0  0  0  0  0  0  0  0  0  0  0
    4.6425    0.3124    1.0676 H   0  0  0  0  0  0  0  0  0  0  0  0
    3.3462    0.2476    2.2512 H   0  0  0  0  0  0  0  0  0  0  0  0
    2.9541    0.1435    0.5469 H   0  0  0  0  0  0  0  0  0  0  0  0
    5.6789   -1.6709    2.3534 H   0  0  0  0  0  0  0  0  0  0  0  0
    4.2850   -1.7328    3.3491 H   0  0  0  0  0  0  0  0  0  0  0  0
    4.6994   -3.6724    3.5299 H   0  0  0  0  0  0  0  0  0  0  0  0
    3.6645   -4.0184    2.3931 H   0  0  0  0  0  0  0  0  0  0  0  0
    7.9138   -3.9656    1.6131 H   0  0  0  0  0  0  0  0  0  0  0  0
    7.6906   -2.2268    0.0710 H   0  0  0  0  0  0  0  0  0  0  0  0
    5.7056   -1.0842   -0.2313 H   0  0  0  0  0  0  0  0  0  0  0  0
    4.8303   -2.3363   -2.1932 H   0  0  0  0  0  0  0  0  0  0  0  0
    3.4558   -1.7373   -0.6060 H   0  0  0  0  0  0  0  0  0  0  0  0
    2.2479   -3.5804    0.7211 H   0  0  0  0  0  0  0  0  0  0  0  0
    2.6683   -3.6709   -0.9235 H   0  0  0  0  0  0  0  0  0  0  0  0
    2.8882   -5.6592   -0.3861 H   0  0  0  0  0  0  0  0  0  0  0  0
    4.9101   -5.9000   -1.4747 H   0  0  0  0  0  0  0  0  0  0  0  0
    5.3770   -4.3812   -1.0101 H   0  0  0  0  0  0  0  0  0  0  0  0
    6.6801   -6.1900    0.2055 H   0  0  0  0  0  0  0  0  0  0  0  0
    4.2151   -7.3532   -0.3110 H   0  0  0  0  0  0  0  0  0  0  0  0
    3.9860   -9.1504    0.7935 H   0  0  0  0  0  0  0  0  0  0  0  0
    5.6500   -9.0206    0.3431 H   0  0  0  0  0  0  0  0  0  0  0  0
    5.0950  -11.3368    1.4656 H   0  0  0  0  0  0  0  0  0  0  0  0
    7.5447  -10.8825    4.0496 H   0  0  0  0  0  0  0  0  0  0  0  0
    8.3693   -8.6252    4.7317 H   0  0  0  0  0  0  0  0  0  0  0  0
    2.9944   -5.4803    3.8915 H   0  0  0  0  0  0  0  0  0  0  0  0
    4.9606   -6.4451    5.6189 H   0  0  0  0  0  0  0  0  0  0  0  0
    2.3401   -7.9403    3.8126 H   0  0  0  0  0  0  0  0  0  0  0  0
    3.6443   -8.3054    4.9005 H   0  0  0  0  0  0  0  0  0  0  0  0
    0.9036   -5.6431    4.8109 H   0  0  0  0  0  0  0  0  0  0  0  0
   -0.6248   -5.2605    6.7194 H   0  0  0  0  0  0  0  0  0  0  0  0
   -0.4544   -6.6668    8.7577 H   0  0  0  0  0  0  0  0  0  0  0  0
    1.2430   -8.4871    8.8810 H   0  0  0  0  0  0  0  0  0  0  0  0
    2.7856   -8.8692    6.9909 H   0  0  0  0  0  0  0  0  0  0  0  0
    6.0580   -4.9066    3.8946 H   0  0  0  0  0  0  0  0  0  0  0  0
    7.8661   -5.8076    4.0681 H   0  0  0  0  0  0  0  0  0  0  0  0
    7.8419   -6.4499    2.4150 H   0  0  0  0  0  0  0  0  0  0  0  0
    2.6499   -7.7966    1.9451 H   0  0  0  0  0  0  0  0  0  0  0  0
    2.8407   -1.9274    1.6564 H   0  0  0  0  0  0  0  0  0  0  0  0
  1  2  1  0
  1 38  1  0
  1 39  1  0
  1 40  1  0
  2 10  1  0
  2  3  1  0
  2 75  1  1
  3  4  1  0
  3 41  1  0
  3 42  1  0
  5  4  1  1
  4 43  1  0
  4 44  1  0
  5 14  1  0
  5 34  1  0
  5  6  1  0
  6  7  2  3
  6 45  1  0
  7  8  1  0
  7 46  1  0
  8  9  1  0
  8 10  1  0
  8 47  1  1
  9 48  1  0
 10 11  1  0
 10 49  1  6
 11 12  1  0
 11 50  1  0
 11 51  1  0
 12 36  1  0
 12 13  1  0
 12 52  1  6
 13 14  1  0
 13 53  1  0
 13 54  1  0
 14 15  1  0
 14 55  1  6
 15 36  1  0
 15 16  1  0
 15 56  1  6
 16 17  1  0
 16 57  1  0
 16 58  1  0
 17 23  2  0
 17 18  1  0
 18 19  1  0
 18 20  2  0
 19 59  1  0
 20 21  1  0
 20 60  1  0
 21 22  2  0
 21 61  1  0
 22 35  1  0
 22 23  1  0
 24 23  1  1
 24 25  1  0
 24 34  1  0
 24 36  1  0
 25 26  1  0
 25 27  1  0
 25 62  1  6
 26 63  1  0
 27 28  1  0
 27 64  1  0
 27 65  1  0
 28 33  1  0
 28 29  2  0
 29 30  1  0
 29 66  1  0
 30 31  2  0
 30 67  1  0
 31 32  1  0
 31 68  1  0
 32 33  2  0
 32 69  1  0
 33 70  1  0
 34 35  1  0
 34 71  1  1
 35 72  1  0
 35 73  1  0
 36 37  1  1
 37 74  1  0
M  CHG  1   2   1
M  END
>  <i_m_ct_stereo_status>  (122) 
1

>  <s_m_source_file>  (122) 
/var/tmp/pbs.5076255.sched01/tmpr6ewtwjb/42o4phu6d4.sdf

>  <i_m_source_file_index>  (122) 
16

>  <i_lp_mmshare_version>  (122) 
48012

>  <i_f3d_flags>  (122) 
0

>  <s_epik_input>  (122) 
W0NASF0xMltDSDJdYzNbY0hdW2NIXWMoW09IXSljKFtDSDJdNCljM1tDQEBdMihbQ0BdKFtPSF0pKFtDQEhdNFtDQEBIXTVbQ0BdMTY3KVtDQEhdKFtDSDJdNSlbQ0gyXVtDQEBIXShOKFtDSDNdKVtDSDJdW0NIMl02KVtDQEhdKFtPSF0pL1tDSF09W0NIXVw3KVtDQEhdKFtPSF0pW0NIMl1jOFtjSF1bY0hdW2NIXVtjSF1bY0hdOA==

>  <s_epik_cmdline>  (122) 
J2VwaWtfcHl0aG9uJywgJy1waHQnLCAnMi4wJywgJy1waCcsICc3LjAnLCAnLXRuJywgJzgnLCAnLW1hJywgJzIwMCcsICctaW1hZScsICc8aW5maWxlLm1hZT4nLCAnLW9tYWUnLCAnPG91dGZpbGUubWFlPic=

>  <r_lp_tautomer_probability>  (122) 
1

>  <r_epik_Ionization_Penalty>  (122) 
0.000887675

>  <r_epik_Ionization_Penalty_Charging>  (122) 
0.00082592

>  <r_epik_Ionization_Penalty_Neutral>  (122) 
6.17552e-05

>  <r_epik_State_Penalty>  (122) 
0.000531499

>  <r_epik_Charging_Adjusted_Penalty>  (122) 
0.00135742

>  <i_epik_Tot_Q>  (122) 
1

>  <i_epik_Tot_abs_Q>  (122) 
1

>  <s_lp_Force_Field>  (122) 
OPLS3e

>  <r_lp_Energy>  (122) 
328.305

>  <b_lp_Chiralities_Consistent>  (122) 
1

>  <s_lp_Variant>  (122) 
40:0-1

>  <s_i_glide_gridfile>  (122) 
pfpi4k_grid

>  <i_i_glide_lignum>  (122) 
16

>  <i_i_glide_rotatable_bonds>  (122) 
7

>  <r_i_docking_score>  (122) 
-3.06042

>  <r_i_glide_ligand_efficiency>  (122) 
-0.0827142

>  <r_i_glide_ligand_efficiency_sa>  (122) 
-0.275622

>  <r_i_glide_ligand_efficiency_ln>  (122) 
-0.663734

>  <r_i_glide_gscore>  (122) 
-3.06042

>  <r_i_glide_lipo>  (122) 
-0.609171

>  <r_i_glide_hbond>  (122) 
-0.16

>  <r_i_glide_metal>  (122) 
-0

>  <r_i_glide_rewards>  (122) 
0

>  <r_i_glide_evdw>  (122) 
-25.4268

>  <r_i_glide_ecoul>  (122) 
-8.33848

>  <r_i_glide_erotb>  (122) 
0.244419

>  <r_i_glide_esite>  (122) 
-0.0135583

>  <r_i_glide_emodel>  (122) 
-41.5344

>  <r_i_glide_energy>  (122) 
-33.7653

>  <r_i_glide_einternal>  (122) 
2.66586

>  <r_i_glide_intrahb_reward>  (122) 
-0

>  <i_i_glide_confnum>  (122) 
5

>  <i_i_glide_posenum>  (122) 
1

>  <r_i_glide_eff_state_penalty>  (122) 
0

>  <ligand_id>  (122) 
40

>  <original_smiles>  (122) 
CN1CCC23C=CC(O)C1CC1CC2C2Cc4c(O)ccc5c4C(C(O)Cc4ccccc4)(C3C5)C12O

>  <smiles>  (122) 
[H]Oc1c([H])c([H])c2c3c1C([H])([H])C1([H])C4([H])C([H])([H])C5([H])C([H])([H])C6([H])C([H])(O[H])C([H])=C([H])C4(C([H])([H])C([H])([H])[N+]6([H])C([H])([H])[H])C([H])(C2([H])[H])C3(C([H])(O[H])C([H])([H])c2c([H])c([H])c([H])c([H])c2[H])C51O[H]

$$$$
40:1:0
     RDKit          3D

 75 82  0  0  1  0  0  0  0  0999 V2000
    0.6811  -11.9327    4.7189 C   0  0  0  0  0  0  0  0  0  0  0  0
    0.7163  -10.5563    4.1639 N   0  0  2  0  0  0  0  0  0  0  0  0
    1.4845  -10.5401    2.8115 C   0  0  0  0  0  0  0  0  0  0  0  0
    2.1738   -9.3022    2.0479 C   0  0  0  0  0  0  0  0  0  0  0  0
    2.9363   -8.2855    2.9375 C   0  0  1  0  0  0  0  0  0  0  0  0
    1.7480   -7.7592    3.7395 C   0  0  0  0  0  0  0  0  0  0  0  0
    0.4259   -7.8455    3.5632 C   0  0  0  0  0  0  0  0  0  0  0  0
   -0.2264   -8.2922    4.8217 C   0  0  1  0  0  0  0  0  0  0  0  0
   -1.5716   -8.6486    4.5436 O   0  0  0  0  0  0  0  0  0  0  0  0
    0.6584   -9.4969    5.2798 C   0  0  2  0  0  0  0  0  0  0  0  0
    1.9410   -9.0846    6.1977 C   0  0  0  0  0  0  0  0  0  0  0  0
    3.4517   -8.8300    5.7007 C   0  0  1  0  0  0  0  0  0  0  0  0
    3.7964   -9.9627    4.7454 C   0  0  0  0  0  0  0  0  0  0  0  0
    4.2549   -9.1010    3.5929 C   0  0  2  0  0  0  0  0  0  0  0  0
    5.3180   -8.3757    4.5520 C   0  0  1  0  0  0  0  0  0  0  0  0
    6.7197   -7.8073    4.2290 C   0  0  0  0  0  0  0  0  0  0  0  0
    6.7756   -6.6067    3.3434 C   0  0  0  0  0  0  0  0  0  0  0  0
    7.8771   -6.2723    2.5231 C   0  0  0  0  0  0  0  0  0  0  0  0
    9.1358   -6.6736    2.8842 O   0  0  0  0  0  0  0  0  0  0  0  0
    7.6641   -5.6220    1.2838 C   0  0  0  0  0  0  0  0  0  0  0  0
    6.3449   -5.5074    0.7934 C   0  0  0  0  0  0  0  0  0  0  0  0
    5.2723   -5.8652    1.6391 C   0  0  0  0  0  0  0  0  0  0  0  0
    5.4869   -6.2274    2.9705 C   0  0  0  0  0  0  0  0  0  0  0  0
    4.2013   -6.3943    3.8643 C   0  0  1  0  0  0  0  0  0  0  0  0
    3.7952   -4.9394    4.3521 C   0  0  2  0  0  0  0  0  0  0  0  0
    4.8272   -4.3460    5.1148 O   0  0  0  0  0  0  0  0  0  0  0  0
    2.5022   -4.7874    5.2060 C   0  0  0  0  0  0  0  0  0  0  0  0
    1.9082   -3.3930    5.1946 C   0  0  0  0  0  0  0  0  0  0  0  0
    1.3393   -2.8822    4.0063 C   0  0  0  0  0  0  0  0  0  0  0  0
    0.7697   -1.5938    3.9900 C   0  0  0  0  0  0  0  0  0  0  0  0
    0.7530   -0.8145    5.1640 C   0  0  0  0  0  0  0  0  0  0  0  0
    1.2988   -1.3320    6.3569 C   0  0  0  0  0  0  0  0  0  0  0  0
    1.8722   -2.6196    6.3737 C   0  0  0  0  0  0  0  0  0  0  0  0
    3.3089   -6.8162    2.6325 C   0  0  1  0  0  0  0  0  0  0  0  0
    3.9476   -6.4422    1.2866 C   0  0  0  0  0  0  0  0  0  0  0  0
    4.3189   -7.4760    5.1699 C   0  0  1  0  0  0  0  0  0  0  0  0
    4.8421   -6.8358    6.3230 O   0  0  0  0  0  0  0  0  0  0  0  0
    1.5915  -12.1815    5.2623 H   0  0  0  0  0  0  0  0  0  0  0  0
    0.5684  -12.6497    3.9108 H   0  0  0  0  0  0  0  0  0  0  0  0
   -0.1591  -12.0868    5.3915 H   0  0  0  0  0  0  0  0  0  0  0  0
    2.2224  -11.3385    2.8139 H   0  0  0  0  0  0  0  0  0  0  0  0
    0.7359  -10.9206    2.1222 H   0  0  0  0  0  0  0  0  0  0  0  0
    2.8759   -9.7219    1.3253 H   0  0  0  0  0  0  0  0  0  0  0  0
    1.4606   -8.8006    1.3895 H   0  0  0  0  0  0  0  0  0  0  0  0
    1.9785   -7.3439    4.6892 H   0  0  0  0  0  0  0  0  0  0  0  0
   -0.0423   -8.2218    2.6681 H   0  0  0  0  0  0  0  0  0  0  0  0
   -0.2126   -7.4993    5.5735 H   0  0  0  0  0  0  0  0  0  0  0  0
   -1.7787   -9.5478    4.8676 H   0  0  0  0  0  0  0  0  0  0  0  0
    0.0239   -9.9473    6.0339 H   0  0  0  0  0  0  0  0  0  0  0  0
    1.6560   -8.2240    6.8036 H   0  0  0  0  0  0  0  0  0  0  0  0
    2.0231   -9.8888    6.9348 H   0  0  0  0  0  0  0  0  0  0  0  0
    3.9736   -9.0828    6.6288 H   0  0  0  0  0  0  0  0  0  0  0  0
    4.5753  -10.6239    5.1326 H   0  0  0  0  0  0  0  0  0  0  0  0
    3.0416  -10.6933    4.5947 H   0  0  0  0  0  0  0  0  0  0  0  0
    4.7657   -9.7043    2.8375 H   0  0  0  0  0  0  0  0  0  0  0  0
    5.7399   -9.0381    5.3139 H   0  0  0  0  0  0  0  0  0  0  0  0
    7.2310   -7.5280    5.1488 H   0  0  0  0  0  0  0  0  0  0  0  0
    7.3292   -8.5988    3.7899 H   0  0  0  0  0  0  0  0  0  0  0  0
    9.6768   -7.0457    2.1923 H   0  0  0  0  0  0  0  0  0  0  0  0
    8.5027   -5.3654    0.6588 H   0  0  0  0  0  0  0  0  0  0  0  0
    6.1677   -5.2338   -0.2357 H   0  0  0  0  0  0  0  0  0  0  0  0
    3.6979   -4.3163    3.4641 H   0  0  0  0  0  0  0  0  0  0  0  0
    5.0142   -4.9344    5.8366 H   0  0  0  0  0  0  0  0  0  0  0  0
    1.6738   -5.3572    4.8014 H   0  0  0  0  0  0  0  0  0  0  0  0
    2.6590   -5.1410    6.2290 H   0  0  0  0  0  0  0  0  0  0  0  0
    1.3412   -3.4743    3.1026 H   0  0  0  0  0  0  0  0  0  0  0  0
    0.3595   -1.1975    3.0724 H   0  0  0  0  0  0  0  0  0  0  0  0
    0.3335    0.1807    5.1451 H   0  0  0  0  0  0  0  0  0  0  0  0
    1.2936   -0.7358    7.2577 H   0  0  0  0  0  0  0  0  0  0  0  0
    2.2848   -3.0109    7.2918 H   0  0  0  0  0  0  0  0  0  0  0  0
    2.4633   -6.1156    2.5722 H   0  0  0  0  0  0  0  0  0  0  0  0
    3.3764   -5.6880    0.7458 H   0  0  0  0  0  0  0  0  0  0  0  0
    4.0661   -7.3049    0.6266 H   0  0  0  0  0  0  0  0  0  0  0  0
    5.2168   -7.4874    6.9000 H   0  0  0  0  0  0  0  0  0  0  0  0
   -0.2379  -10.4679    3.8300 H   0  0  0  0  0  0  0  0  0  0  0  0
  1  2  1  0
  1 38  1  0
  1 39  1  0
  1 40  1  0
  2 10  1  0
  2  3  1  0
  2 75  1  6
  3  4  1  0
  3 41  1  0
  3 42  1  0
  5  4  1  6
  4 43  1  0
  4 44  1  0
  5 14  1  0
  5 34  1  0
  5  6  1  0
  6  7  2  3
  6 45  1  0
  7  8  1  0
  7 46  1  0
  8  9  1  0
  8 10  1  0
  8 47  1  1
  9 48  1  0
 10 11  1  0
 10 49  1  1
 11 12  1  0
 11 50  1  0
 11 51  1  0
 12 36  1  0
 12 13  1  0
 12 52  1  1
 13 14  1  0
 13 53  1  0
 13 54  1  0
 14 15  1  0
 14 55  1  6
 15 36  1  0
 15 16  1  0
 15 56  1  1
 16 17  1  0
 16 57  1  0
 16 58  1  0
 17 23  2  0
 17 18  1  0
 18 19  1  0
 18 20  2  0
 19 59  1  0
 20 21  1  0
 20 60  1  0
 21 22  2  0
 21 61  1  0
 22 35  1  0
 22 23  1  0
 24 23  1  6
 24 25  1  0
 24 34  1  0
 24 36  1  0
 25 26  1  0
 25 27  1  0
 25 62  1  6
 26 63  1  0
 27 28  1  0
 27 64  1  0
 27 65  1  0
 28 33  1  0
 28 29  2  0
 29 30  1  0
 29 66  1  0
 30 31  2  0
 30 67  1  0
 31 32  1  0
 31 68  1  0
 32 33  2  0
 32 69  1  0
 33 70  1  0
 34 35  1  0
 34 71  1  1
 35 72  1  0
 35 73  1  0
 36 37  1  1
 37 74  1  0
M  CHG  1   2   1
M  END
>  <i_m_ct_stereo_status>  (123) 
1

>  <s_m_source_file>  (123) 
/var/tmp/pbs.5076255.sched01/tmpr6ewtwjb/42o4phu6d4.sdf

>  <i_m_source_file_index>  (123) 
17

>  <i_lp_mmshare_version>  (123) 
48012

>  <i_f3d_flags>  (123) 
2

>  <s_epik_input>  (123) 
W0NASF0xMltDSDJdYzNbY0hdW2NIXWMoW09IXSljKFtDSDJdNCljM1tDQEBdMihbQ0BdKFtPSF0pKFtDQEhdNFtDQEBIXTVbQ0BdMTY3KVtDQEhdKFtDSDJdNSlbQ0gyXVtDQEBIXShOKFtDSDNdKVtDSDJdW0NIMl02KVtDQEhdKFtPSF0pL1tDSF09W0NIXVw3KVtDQEhdKFtPSF0pW0NIMl1jOFtjSF1bY0hdW2NIXVtjSF1bY0hdOA==

>  <s_epik_cmdline>  (123) 
J2VwaWtfcHl0aG9uJywgJy1waHQnLCAnMi4wJywgJy1waCcsICc3LjAnLCAnLXRuJywgJzgnLCAnLW1hJywgJzIwMCcsICctaW1hZScsICc8aW5maWxlLm1hZT4nLCAnLW9tYWUnLCAnPG91dGZpbGUubWFlPic=

>  <r_lp_tautomer_probability>  (123) 
1

>  <r_epik_Ionization_Penalty>  (123) 
0.000887675

>  <r_epik_Ionization_Penalty_Charging>  (123) 
0.00082592

>  <r_epik_Ionization_Penalty_Neutral>  (123) 
6.17552e-05

>  <r_epik_State_Penalty>  (123) 
0.000531499

>  <r_epik_Charging_Adjusted_Penalty>  (123) 
0.00135742

>  <i_epik_Tot_Q>  (123) 
1

>  <i_epik_Tot_abs_Q>  (123) 
1

>  <s_lp_Force_Field>  (123) 
OPLS3e

>  <r_lp_Energy>  (123) 
333.377

>  <b_lp_Chiralities_Consistent>  (123) 
0

>  <s_lp_Variant>  (123) 
40:0-2

>  <s_i_glide_gridfile>  (123) 
pfpi4k_grid

>  <i_i_glide_lignum>  (123) 
17

>  <i_i_glide_rotatable_bonds>  (123) 
7

>  <r_i_docking_score>  (123) 
-4.28928

>  <r_i_glide_ligand_efficiency>  (123) 
-0.115927

>  <r_i_glide_ligand_efficiency_sa>  (123) 
-0.386293

>  <r_i_glide_ligand_efficiency_ln>  (123) 
-0.930245

>  <r_i_glide_gscore>  (123) 
-4.28928

>  <r_i_glide_lipo>  (123) 
-0.533504

>  <r_i_glide_hbond>  (123) 
-0.310077

>  <r_i_glide_metal>  (123) 
-0

>  <r_i_glide_rewards>  (123) 
-0.5

>  <r_i_glide_evdw>  (123) 
-21.1374

>  <r_i_glide_ecoul>  (123) 
-13.9948

>  <r_i_glide_erotb>  (123) 
0.244419

>  <r_i_glide_esite>  (123) 
-0.0340226

>  <r_i_glide_emodel>  (123) 
-52.3665

>  <r_i_glide_energy>  (123) 
-35.1323

>  <r_i_glide_einternal>  (123) 
2.96958

>  <r_i_glide_intrahb_reward>  (123) 
-0.5

>  <i_i_glide_confnum>  (123) 
4

>  <i_i_glide_posenum>  (123) 
30

>  <r_i_glide_eff_state_penalty>  (123) 
0

>  <ligand_id>  (123) 
40

>  <original_smiles>  (123) 
CN1CCC23C=CC(O)C1CC1CC2C2Cc4c(O)ccc5c4C(C(O)Cc4ccccc4)(C3C5)C12O

>  <smiles>  (123) 
[H]Oc1c([H])c([H])c2c3c1C([H])([H])C1([H])C4([H])C([H])([H])C5([H])C([H])([H])C6([H])C([H])(O[H])C([H])=C([H])C4(C([H])([H])C([H])([H])[N+]6([H])C([H])([H])[H])C([H])(C2([H])[H])C3(C([H])(O[H])C([H])([H])c2c([H])c([H])c([H])c([H])c2[H])C51O[H]

$$$$
40:1:1
     RDKit          3D

 75 82  0  0  1  0  0  0  0  0999 V2000
    0.8593  -11.6713    4.4296 C   0  0  0  0  0  0  0  0  0  0  0  0
    0.6935  -10.2857    3.8870 N   0  0  2  0  0  0  0  0  0  0  0  0
    1.3514  -10.1720    2.4804 C   0  0  0  0  0  0  0  0  0  0  0  0
    1.8445   -8.8504    1.7029 C   0  0  0  0  0  0  0  0  0  0  0  0
    2.5498   -7.7626    2.5422 C   0  0  1  0  0  0  0  0  0  0  0  0
    1.3695   -7.3707    3.4437 C   0  0  0  0  0  0  0  0  0  0  0  0
    0.0589   -7.6060    3.3591 C   0  0  0  0  0  0  0  0  0  0  0  0
   -0.4379   -8.1416    4.6477 C   0  0  1  0  0  0  0  0  0  0  0  0
   -1.7365   -8.6497    4.4661 O   0  0  0  0  0  0  0  0  0  0  0  0
    0.6042   -9.2433    5.0239 C   0  0  2  0  0  0  0  0  0  0  0  0
    1.8995   -8.6944    5.8445 C   0  0  0  0  0  0  0  0  0  0  0  0
    3.3278   -8.2698    5.2418 C   0  0  1  0  0  0  0  0  0  0  0  0
    3.7246   -9.3544    4.2504 C   0  0  0  0  0  0  0  0  0  0  0  0
    3.9937   -8.4379    3.0817 C   0  0  2  0  0  0  0  0  0  0  0  0
    5.0412   -7.6079    3.9613 C   0  0  1  0  0  0  0  0  0  0  0  0
    6.3484   -6.8872    3.5455 C   0  0  0  0  0  0  0  0  0  0  0  0
    6.1981   -5.6932    2.6623 C   0  0  0  0  0  0  0  0  0  0  0  0
    7.1911   -5.2149    1.7748 C   0  0  0  0  0  0  0  0  0  0  0  0
    8.5125   -5.4584    2.0042 O   0  0  0  0  0  0  0  0  0  0  0  0
    6.8069   -4.5793    0.5723 C   0  0  0  0  0  0  0  0  0  0  0  0
    5.4576   -4.6131    0.1826 C   0  0  0  0  0  0  0  0  0  0  0  0
    4.5015   -5.0986    1.1001 C   0  0  0  0  0  0  0  0  0  0  0  0
    4.8577   -5.4363    2.4072 C   0  0  0  0  0  0  0  0  0  0  0  0
    3.6652   -5.7529    3.3878 C   0  0  1  0  0  0  0  0  0  0  0  0
    3.1376   -4.3622    3.9293 C   0  0  2  0  0  0  0  0  0  0  0  0
    4.1694   -3.6628    4.5963 O   0  0  0  0  0  0  0  0  0  0  0  0
    1.9036   -4.3706    4.8796 C   0  0  0  0  0  0  0  0  0  0  0  0
    1.2943   -2.9982    5.1354 C   0  0  0  0  0  0  0  0  0  0  0  0
    1.2896   -2.4414    6.4323 C   0  0  0  0  0  0  0  0  0  0  0  0
    0.7158   -1.1760    6.6577 C   0  0  0  0  0  0  0  0  0  0  0  0
    0.1378   -0.4605    5.5926 C   0  0  0  0  0  0  0  0  0  0  0  0
    0.1283   -1.0181    4.3019 C   0  0  0  0  0  0  0  0  0  0  0  0
    0.6973   -2.2841    4.0766 C   0  0  0  0  0  0  0  0  0  0  0  0
    2.7364   -6.2641    2.2229 C   0  0  1  0  0  0  0  0  0  0  0  0
    3.2239   -5.8117    0.8368 C   0  0  0  0  0  0  0  0  0  0  0  0
    4.0017   -6.8297    4.6630 C   0  0  1  0  0  0  0  0  0  0  0  0
    4.5788   -6.1665    5.7653 O   0  0  0  0  0  0  0  0  0  0  0  0
    1.8247  -11.8155    4.9143 H   0  0  0  0  0  0  0  0  0  0  0  0
    0.7683  -12.4004    3.6253 H   0  0  0  0  0  0  0  0  0  0  0  0
    0.0910  -11.9138    5.1635 H   0  0  0  0  0  0  0  0  0  0  0  0
    2.1771  -10.8799    2.4352 H   0  0  0  0  0  0  0  0  0  0  0  0
    0.6066  -10.6299    1.8343 H   0  0  0  0  0  0  0  0  0  0  0  0
    2.5282   -9.1907    0.9202 H   0  0  0  0  0  0  0  0  0  0  0  0
    1.0364   -8.4049    1.1219 H   0  0  0  0  0  0  0  0  0  0  0  0
    1.6169   -6.9174    4.3768 H   0  0  0  0  0  0  0  0  0  0  0  0
   -0.4218   -8.0463    2.4977 H   0  0  0  0  0  0  0  0  0  0  0  0
   -0.4643   -7.3626    5.4115 H   0  0  0  0  0  0  0  0  0  0  0  0
   -1.7846   -9.5766    4.7707 H   0  0  0  0  0  0  0  0  0  0  0  0
    0.0816   -9.7700    5.8157 H   0  0  0  0  0  0  0  0  0  0  0  0
    1.5648   -7.8753    6.4851 H   0  0  0  0  0  0  0  0  0  0  0  0
    2.1264   -9.4898    6.5605 H   0  0  0  0  0  0  0  0  0  0  0  0
    3.9434   -8.4606    6.1260 H   0  0  0  0  0  0  0  0  0  0  0  0
    4.6000   -9.9235    4.5689 H   0  0  0  0  0  0  0  0  0  0  0  0
    3.0464  -10.1622    4.1473 H   0  0  0  0  0  0  0  0  0  0  0  0
    4.5093   -8.9729    2.2805 H   0  0  0  0  0  0  0  0  0  0  0  0
    5.5895   -8.2185    4.6888 H   0  0  0  0  0  0  0  0  0  0  0  0
    6.8898   -6.5590    4.4328 H   0  0  0  0  0  0  0  0  0  0  0  0
    6.9981   -7.6083    3.0520 H   0  0  0  0  0  0  0  0  0  0  0  0
    8.6780   -5.9926    2.7725 H   0  0  0  0  0  0  0  0  0  0  0  0
    7.5680   -4.2253   -0.1057 H   0  0  0  0  0  0  0  0  0  0  0  0
    5.1723   -4.3637   -0.8303 H   0  0  0  0  0  0  0  0  0  0  0  0
    2.8974   -3.7459    3.0613 H   0  0  0  0  0  0  0  0  0  0  0  0
    4.3517   -4.1192    5.4085 H   0  0  0  0  0  0  0  0  0  0  0  0
    1.0800   -4.9207    4.4364 H   0  0  0  0  0  0  0  0  0  0  0  0
    2.1411   -4.8655    5.8244 H   0  0  0  0  0  0  0  0  0  0  0  0
    1.7345   -2.9815    7.2571 H   0  0  0  0  0  0  0  0  0  0  0  0
    0.7367   -0.7452    7.6487 H   0  0  0  0  0  0  0  0  0  0  0  0
   -0.2849    0.5204    5.7589 H   0  0  0  0  0  0  0  0  0  0  0  0
   -0.3025   -0.4684    3.4774 H   0  0  0  0  0  0  0  0  0  0  0  0
    0.6813   -2.7029    3.0791 H   0  0  0  0  0  0  0  0  0  0  0  0
    1.8127   -5.6622    2.2361 H   0  0  0  0  0  0  0  0  0  0  0  0
    2.5298   -5.1236    0.3563 H   0  0  0  0  0  0  0  0  0  0  0  0
    3.3981   -6.6498    0.1615 H   0  0  0  0  0  0  0  0  0  0  0  0
    5.3023   -5.6555    5.4254 H   0  0  0  0  0  0  0  0  0  0  0  0
   -0.2807  -10.2986    3.6246 H   0  0  0  0  0  0  0  0  0  0  0  0
  1  2  1  0
  1 38  1  0
  1 39  1  0
  1 40  1  0
  2 10  1  0
  2  3  1  0
  2 75  1  6
  3  4  1  0
  3 41  1  0
  3 42  1  0
  5  4  1  6
  4 43  1  0
  4 44  1  0
  5 14  1  0
  5 34  1  0
  5  6  1  0
  6  7  2  3
  6 45  1  0
  7  8  1  0
  7 46  1  0
  8  9  1  0
  8 10  1  0
  8 47  1  1
  9 48  1  0
 10 11  1  0
 10 49  1  1
 11 12  1  0
 11 50  1  0
 11 51  1  0
 12 36  1  0
 12 13  1  0
 12 52  1  1
 13 14  1  0
 13 53  1  0
 13 54  1  0
 14 15  1  0
 14 55  1  6
 15 36  1  0
 15 16  1  0
 15 56  1  1
 16 17  1  0
 16 57  1  0
 16 58  1  0
 17 23  2  0
 17 18  1  0
 18 19  1  0
 18 20  2  0
 19 59  1  0
 20 21  1  0
 20 60  1  0
 21 22  2  0
 21 61  1  0
 22 35  1  0
 22 23  1  0
 24 23  1  6
 24 25  1  0
 24 34  1  0
 24 36  1  0
 25 26  1  0
 25 27  1  0
 25 62  1  6
 26 63  1  0
 27 28  1  0
 27 64  1  0
 27 65  1  0
 28 33  1  0
 28 29  2  0
 29 30  1  0
 29 66  1  0
 30 31  2  0
 30 67  1  0
 31 32  1  0
 31 68  1  0
 32 33  2  0
 32 69  1  0
 33 70  1  0
 34 35  1  0
 34 71  1  1
 35 72  1  0
 35 73  1  0
 36 37  1  1
 37 74  1  0
M  CHG  1   2   1
M  END
>  <i_m_ct_stereo_status>  (124) 
1

>  <s_m_source_file>  (124) 
/var/tmp/pbs.5076255.sched01/tmpr6ewtwjb/42o4phu6d4.sdf

>  <i_m_source_file_index>  (124) 
17

>  <i_lp_mmshare_version>  (124) 
48012

>  <i_f3d_flags>  (124) 
2

>  <s_epik_input>  (124) 
W0NASF0xMltDSDJdYzNbY0hdW2NIXWMoW09IXSljKFtDSDJdNCljM1tDQEBdMihbQ0BdKFtPSF0pKFtDQEhdNFtDQEBIXTVbQ0BdMTY3KVtDQEhdKFtDSDJdNSlbQ0gyXVtDQEBIXShOKFtDSDNdKVtDSDJdW0NIMl02KVtDQEhdKFtPSF0pL1tDSF09W0NIXVw3KVtDQEhdKFtPSF0pW0NIMl1jOFtjSF1bY0hdW2NIXVtjSF1bY0hdOA==

>  <s_epik_cmdline>  (124) 
J2VwaWtfcHl0aG9uJywgJy1waHQnLCAnMi4wJywgJy1waCcsICc3LjAnLCAnLXRuJywgJzgnLCAnLW1hJywgJzIwMCcsICctaW1hZScsICc8aW5maWxlLm1hZT4nLCAnLW9tYWUnLCAnPG91dGZpbGUubWFlPic=

>  <r_lp_tautomer_probability>  (124) 
1

>  <r_epik_Ionization_Penalty>  (124) 
0.000887675

>  <r_epik_Ionization_Penalty_Charging>  (124) 
0.00082592

>  <r_epik_Ionization_Penalty_Neutral>  (124) 
6.17552e-05

>  <r_epik_State_Penalty>  (124) 
0.000531499

>  <r_epik_Charging_Adjusted_Penalty>  (124) 
0.00135742

>  <i_epik_Tot_Q>  (124) 
1

>  <i_epik_Tot_abs_Q>  (124) 
1

>  <s_lp_Force_Field>  (124) 
OPLS3e

>  <r_lp_Energy>  (124) 
333.377

>  <b_lp_Chiralities_Consistent>  (124) 
0

>  <s_lp_Variant>  (124) 
40:0-2

>  <s_i_glide_gridfile>  (124) 
pfpi4k_grid

>  <i_i_glide_lignum>  (124) 
17

>  <i_i_glide_rotatable_bonds>  (124) 
7

>  <r_i_docking_score>  (124) 
-3.29698

>  <r_i_glide_ligand_efficiency>  (124) 
-0.0891075

>  <r_i_glide_ligand_efficiency_sa>  (124) 
-0.296926

>  <r_i_glide_ligand_efficiency_ln>  (124) 
-0.715037

>  <r_i_glide_gscore>  (124) 
-3.29698

>  <r_i_glide_lipo>  (124) 
-0.518472

>  <r_i_glide_hbond>  (124) 
-0.16

>  <r_i_glide_metal>  (124) 
-0

>  <r_i_glide_rewards>  (124) 
0

>  <r_i_glide_evdw>  (124) 
-23.6151

>  <r_i_glide_ecoul>  (124) 
-11.0324

>  <r_i_glide_erotb>  (124) 
0.244419

>  <r_i_glide_esite>  (124) 
-0.0273118

>  <r_i_glide_emodel>  (124) 
-45.0347

>  <r_i_glide_energy>  (124) 
-34.6475

>  <r_i_glide_einternal>  (124) 
1.13734

>  <r_i_glide_intrahb_reward>  (124) 
-0

>  <i_i_glide_confnum>  (124) 
2

>  <i_i_glide_posenum>  (124) 
2

>  <r_i_glide_eff_state_penalty>  (124) 
0

>  <ligand_id>  (124) 
40

>  <original_smiles>  (124) 
CN1CCC23C=CC(O)C1CC1CC2C2Cc4c(O)ccc5c4C(C(O)Cc4ccccc4)(C3C5)C12O

>  <smiles>  (124) 
[H]Oc1c([H])c([H])c2c3c1C([H])([H])C1([H])C4([H])C([H])([H])C5([H])C([H])([H])C6([H])C([H])(O[H])C([H])=C([H])C4(C([H])([H])C([H])([H])[N+]6([H])C([H])([H])[H])C([H])(C2([H])[H])C3(C([H])(O[H])C([H])([H])c2c([H])c([H])c([H])c([H])c2[H])C51O[H]

$$$$
40:1:2
     RDKit          3D

 75 82  0  0  1  0  0  0  0  0999 V2000
    0.8947  -11.6369    4.4573 C   0  0  0  0  0  0  0  0  0  0  0  0
    0.7120  -10.2615    3.8953 N   0  0  2  0  0  0  0  0  0  0  0  0
    1.3617  -10.1645    2.4827 C   0  0  0  0  0  0  0  0  0  0  0  0
    1.8418   -8.8551    1.6855 C   0  0  0  0  0  0  0  0  0  0  0  0
    2.5287   -7.7421    2.5105 C   0  0  1  0  0  0  0  0  0  0  0  0
    1.3447   -7.3258    3.4072 C   0  0  0  0  0  0  0  0  0  0  0  0
    0.0334   -7.5994    3.3252 C   0  0  0  0  0  0  0  0  0  0  0  0
   -0.4555   -8.1241    4.6246 C   0  0  1  0  0  0  0  0  0  0  0  0
   -1.7495   -8.6540    4.4588 O   0  0  0  0  0  0  0  0  0  0  0  0
    0.6005   -9.2007    5.0108 C   0  0  2  0  0  0  0  0  0  0  0  0
    1.8896   -8.6082    5.8134 C   0  0  0  0  0  0  0  0  0  0  0  0
    3.3118   -8.1773    5.1958 C   0  0  1  0  0  0  0  0  0  0  0  0
    3.7289   -9.2793    4.2357 C   0  0  0  0  0  0  0  0  0  0  0  0
    3.9865   -8.3829    3.0498 C   0  0  2  0  0  0  0  0  0  0  0  0
    5.0244   -7.5208    3.9126 C   0  0  1  0  0  0  0  0  0  0  0  0
    6.3227   -6.7917    3.4829 C   0  0  0  0  0  0  0  0  0  0  0  0
    6.1545   -5.6111    2.5847 C   0  0  0  0  0  0  0  0  0  0  0  0
    7.1420   -5.1440    1.6832 C   0  0  0  0  0  0  0  0  0  0  0  0
    8.4663   -5.3788    1.9184 O   0  0  0  0  0  0  0  0  0  0  0  0
    6.7540   -4.5268    0.4773 C   0  0  0  0  0  0  0  0  0  0  0  0
    5.3995   -4.5914    0.0788 C   0  0  0  0  0  0  0  0  0  0  0  0
    4.4496   -5.0678    1.0041 C   0  0  0  0  0  0  0  0  0  0  0  0
    4.8129   -5.3748    2.3181 C   0  0  0  0  0  0  0  0  0  0  0  0
    3.6199   -5.6879    3.2909 C   0  0  1  0  0  0  0  0  0  0  0  0
    3.0660   -4.3149    3.8766 C   0  0  2  0  0  0  0  0  0  0  0  0
    2.2474   -3.5995    2.9610 O   0  0  0  0  0  0  0  0  0  0  0  0
    4.1086   -3.2639    4.3698 C   0  0  0  0  0  0  0  0  0  0  0  0
    3.4890   -2.1521    5.2151 C   0  0  0  0  0  0  0  0  0  0  0  0
    3.1992   -2.3669    6.5808 C   0  0  0  0  0  0  0  0  0  0  0  0
    2.6322   -1.3350    7.3583 C   0  0  0  0  0  0  0  0  0  0  0  0
    2.3513   -0.0842    6.7762 C   0  0  0  0  0  0  0  0  0  0  0  0
    2.6401    0.1357    5.4163 C   0  0  0  0  0  0  0  0  0  0  0  0
    3.2074   -0.8943    4.6389 C   0  0  0  0  0  0  0  0  0  0  0  0
    2.6993   -6.2582    2.1348 C   0  0  1  0  0  0  0  0  0  0  0  0
    3.1846   -5.8157    0.7488 C   0  0  0  0  0  0  0  0  0  0  0  0
    3.9695   -6.7398    4.5856 C   0  0  1  0  0  0  0  0  0  0  0  0
    4.5135   -6.0529    5.6897 O   0  0  0  0  0  0  0  0  0  0  0  0
    1.8593  -11.7568    4.9451 H   0  0  0  0  0  0  0  0  0  0  0  0
    0.8180  -12.3800    3.6698 H   0  0  0  0  0  0  0  0  0  0  0  0
    0.1315  -11.8756    5.1921 H   0  0  0  0  0  0  0  0  0  0  0  0
    2.1891  -10.8677    2.4408 H   0  0  0  0  0  0  0  0  0  0  0  0
    0.6135  -10.6256    1.8449 H   0  0  0  0  0  0  0  0  0  0  0  0
    2.5311   -9.1968    0.9106 H   0  0  0  0  0  0  0  0  0  0  0  0
    1.0311   -8.4283    1.0906 H   0  0  0  0  0  0  0  0  0  0  0  0
    1.5701   -6.7964    4.3138 H   0  0  0  0  0  0  0  0  0  0  0  0
   -0.4272   -8.0706    2.4754 H   0  0  0  0  0  0  0  0  0  0  0  0
   -0.4932   -7.3248    5.3681 H   0  0  0  0  0  0  0  0  0  0  0  0
   -1.7913   -9.5847    4.7762 H   0  0  0  0  0  0  0  0  0  0  0  0
    0.0921   -9.7222    5.8116 H   0  0  0  0  0  0  0  0  0  0  0  0
    1.5489   -7.7859    6.4458 H   0  0  0  0  0  0  0  0  0  0  0  0
    2.1333   -9.3855    6.5460 H   0  0  0  0  0  0  0  0  0  0  0  0
    3.9297   -8.3419    6.0841 H   0  0  0  0  0  0  0  0  0  0  0  0
    4.6101   -9.8326    4.5682 H   0  0  0  0  0  0  0  0  0  0  0  0
    3.0591  -10.0978    4.1440 H   0  0  0  0  0  0  0  0  0  0  0  0
    4.5084   -8.9290    2.2587 H   0  0  0  0  0  0  0  0  0  0  0  0
    5.5772   -8.1094    4.6521 H   0  0  0  0  0  0  0  0  0  0  0  0
    6.8571   -6.4387    4.3631 H   0  0  0  0  0  0  0  0  0  0  0  0
    6.9870   -7.5132    3.0084 H   0  0  0  0  0  0  0  0  0  0  0  0
    8.6288   -5.8560    2.7208 H   0  0  0  0  0  0  0  0  0  0  0  0
    7.5034   -4.1763   -0.2139 H   0  0  0  0  0  0  0  0  0  0  0  0
    5.1117   -4.3627   -0.9377 H   0  0  0  0  0  0  0  0  0  0  0  0
    2.4075   -4.5692    4.7071 H   0  0  0  0  0  0  0  0  0  0  0  0
    2.7724   -3.3397    2.2165 H   0  0  0  0  0  0  0  0  0  0  0  0
    4.8797   -3.7143    4.9890 H   0  0  0  0  0  0  0  0  0  0  0  0
    4.6512   -2.8242    3.5293 H   0  0  0  0  0  0  0  0  0  0  0  0
    3.4152   -3.3214    7.0395 H   0  0  0  0  0  0  0  0  0  0  0  0
    2.4142   -1.5022    8.4035 H   0  0  0  0  0  0  0  0  0  0  0  0
    1.9160    0.7074    7.3710 H   0  0  0  0  0  0  0  0  0  0  0  0
    2.4273    1.0948    4.9659 H   0  0  0  0  0  0  0  0  0  0  0  0
    3.4249   -0.7140    3.5962 H   0  0  0  0  0  0  0  0  0  0  0  0
    1.7411   -5.7245    2.0751 H   0  0  0  0  0  0  0  0  0  0  0  0
    2.4804   -5.1410    0.2594 H   0  0  0  0  0  0  0  0  0  0  0  0
    3.3636   -6.6585    0.0799 H   0  0  0  0  0  0  0  0  0  0  0  0
    5.1771   -5.4626    5.3620 H   0  0  0  0  0  0  0  0  0  0  0  0
   -0.2650  -10.2937    3.6287 H   0  0  0  0  0  0  0  0  0  0  0  0
  1  2  1  0
  1 38  1  0
  1 39  1  0
  1 40  1  0
  2 10  1  0
  2  3  1  0
  2 75  1  6
  3  4  1  0
  3 41  1  0
  3 42  1  0
  5  4  1  6
  4 43  1  0
  4 44  1  0
  5 14  1  0
  5 34  1  0
  5  6  1  0
  6  7  2  3
  6 45  1  0
  7  8  1  0
  7 46  1  0
  8  9  1  0
  8 10  1  0
  8 47  1  1
  9 48  1  0
 10 11  1  0
 10 49  1  1
 11 12  1  0
 11 50  1  0
 11 51  1  0
 12 36  1  0
 12 13  1  0
 12 52  1  1
 13 14  1  0
 13 53  1  0
 13 54  1  0
 14 15  1  0
 14 55  1  6
 15 36  1  0
 15 16  1  0
 15 56  1  1
 16 17  1  0
 16 57  1  0
 16 58  1  0
 17 23  2  0
 17 18  1  0
 18 19  1  0
 18 20  2  0
 19 59  1  0
 20 21  1  0
 20 60  1  0
 21 22  2  0
 21 61  1  0
 22 35  1  0
 22 23  1  0
 24 23  1  6
 24 25  1  0
 24 34  1  0
 24 36  1  0
 25 26  1  0
 25 27  1  0
 25 62  1  1
 26 63  1  0
 27 28  1  0
 27 64  1  0
 27 65  1  0
 28 33  1  0
 28 29  2  0
 29 30  1  0
 29 66  1  0
 30 31  2  0
 30 67  1  0
 31 32  1  0
 31 68  1  0
 32 33  2  0
 32 69  1  0
 33 70  1  0
 34 35  1  0
 34 71  1  1
 35 72  1  0
 35 73  1  0
 36 37  1  1
 37 74  1  0
M  CHG  1   2   1
M  END
>  <i_m_ct_stereo_status>  (125) 
1

>  <s_m_source_file>  (125) 
/var/tmp/pbs.5076255.sched01/tmpr6ewtwjb/42o4phu6d4.sdf

>  <i_m_source_file_index>  (125) 
17

>  <i_lp_mmshare_version>  (125) 
48012

>  <i_f3d_flags>  (125) 
2

>  <s_epik_input>  (125) 
W0NASF0xMltDSDJdYzNbY0hdW2NIXWMoW09IXSljKFtDSDJdNCljM1tDQEBdMihbQ0BdKFtPSF0pKFtDQEhdNFtDQEBIXTVbQ0BdMTY3KVtDQEhdKFtDSDJdNSlbQ0gyXVtDQEBIXShOKFtDSDNdKVtDSDJdW0NIMl02KVtDQEhdKFtPSF0pL1tDSF09W0NIXVw3KVtDQEhdKFtPSF0pW0NIMl1jOFtjSF1bY0hdW2NIXVtjSF1bY0hdOA==

>  <s_epik_cmdline>  (125) 
J2VwaWtfcHl0aG9uJywgJy1waHQnLCAnMi4wJywgJy1waCcsICc3LjAnLCAnLXRuJywgJzgnLCAnLW1hJywgJzIwMCcsICctaW1hZScsICc8aW5maWxlLm1hZT4nLCAnLW9tYWUnLCAnPG91dGZpbGUubWFlPic=

>  <r_lp_tautomer_probability>  (125) 
1

>  <r_epik_Ionization_Penalty>  (125) 
0.000887675

>  <r_epik_Ionization_Penalty_Charging>  (125) 
0.00082592

>  <r_epik_Ionization_Penalty_Neutral>  (125) 
6.17552e-05

>  <r_epik_State_Penalty>  (125) 
0.000531499

>  <r_epik_Charging_Adjusted_Penalty>  (125) 
0.00135742

>  <i_epik_Tot_Q>  (125) 
1

>  <i_epik_Tot_abs_Q>  (125) 
1

>  <s_lp_Force_Field>  (125) 
OPLS3e

>  <r_lp_Energy>  (125) 
333.377

>  <b_lp_Chiralities_Consistent>  (125) 
0

>  <s_lp_Variant>  (125) 
40:0-2

>  <s_i_glide_gridfile>  (125) 
pfpi4k_grid

>  <i_i_glide_lignum>  (125) 
17

>  <i_i_glide_rotatable_bonds>  (125) 
7

>  <r_i_docking_score>  (125) 
-3.05473

>  <r_i_glide_ligand_efficiency>  (125) 
-0.0825603

>  <r_i_glide_ligand_efficiency_sa>  (125) 
-0.275109

>  <r_i_glide_ligand_efficiency_ln>  (125) 
-0.662499

>  <r_i_glide_gscore>  (125) 
-3.05473

>  <r_i_glide_lipo>  (125) 
-0.484926

>  <r_i_glide_hbond>  (125) 
-0.16

>  <r_i_glide_metal>  (125) 
-0

>  <r_i_glide_rewards>  (125) 
0

>  <r_i_glide_evdw>  (125) 
-21.5733

>  <r_i_glide_ecoul>  (125) 
-10.3264

>  <r_i_glide_erotb>  (125) 
0.244419

>  <r_i_glide_esite>  (125) 
-0.0266024

>  <r_i_glide_emodel>  (125) 
-40.0704

>  <r_i_glide_energy>  (125) 
-31.8996

>  <r_i_glide_einternal>  (125) 
3.67155

>  <r_i_glide_intrahb_reward>  (125) 
-0

>  <i_i_glide_confnum>  (125) 
4

>  <i_i_glide_posenum>  (125) 
1

>  <r_i_glide_eff_state_penalty>  (125) 
0

>  <ligand_id>  (125) 
40

>  <original_smiles>  (125) 
CN1CCC23C=CC(O)C1CC1CC2C2Cc4c(O)ccc5c4C(C(O)Cc4ccccc4)(C3C5)C12O

>  <smiles>  (125) 
[H]Oc1c([H])c([H])c2c3c1C([H])([H])C1([H])C4([H])C([H])([H])C5([H])C([H])([H])C6([H])C([H])(O[H])C([H])=C([H])C4(C([H])([H])C([H])([H])[N+]6([H])C([H])([H])[H])C([H])(C2([H])[H])C3(C([H])(O[H])C([H])([H])c2c([H])c([H])c([H])c([H])c2[H])C51O[H]

$$$$
41:0:0
     RDKit          3D

 54 57  0  0  1  0  0  0  0  0999 V2000
   -2.1243    3.0141    5.8151 C   0  0  0  0  0  0  0  0  0  0  0  0
   -0.7914    2.9503    5.0783 C   0  0  0  0  0  0  0  0  0  0  0  0
    0.2852    2.2884    5.5710 C   0  0  0  0  0  0  0  0  0  0  0  0
    1.6788    2.7142    5.0481 C   0  0  1  0  0  0  0  0  0  0  0  0
    2.6573    3.6639    6.1999 Cl  0  0  0  0  0  0  0  0  0  0  0  0
    2.5056    1.7102    4.2233 C   0  0  0  0  0  0  0  0  0  0  0  0
    1.7806    0.4100    3.8149 C   0  0  2  0  0  0  0  0  0  0  0  0
    2.6393   -0.1751    2.6620 C   0  0  0  0  0  0  0  0  0  0  0  0
    0.2967    0.6924    3.2285 C   0  0  1  0  0  0  0  0  0  0  0  0
   -0.9404    0.0791    3.9626 C   0  0  0  0  0  0  0  0  0  0  0  0
   -1.0361    0.1744    5.4972 C   0  0  0  0  0  0  0  0  0  0  0  0
   -2.0116   -0.2883    6.0762 O   0  0  0  0  0  0  0  0  0  0  0  0
    0.0700    0.9107    6.2856 C   0  0  1  0  0  0  0  0  0  0  0  0
    1.3245   -0.0282    6.4310 C   0  0  1  0  0  0  0  0  0  0  0  0
    2.3685    0.7817    7.2813 C   0  0  0  0  0  0  0  0  0  0  0  0
    1.2859   -1.3438    7.2713 C   0  0  1  0  0  0  0  0  0  0  0  0
    0.1702   -2.1941    7.0715 O   0  0  0  0  0  0  0  0  0  0  0  0
    2.5885   -2.0705    6.8093 C   0  0  0  0  0  0  0  0  0  0  0  0
    3.0603   -1.3816    5.4851 C   0  0  0  0  0  0  0  0  0  0  0  0
    1.8095   -0.6032    5.0364 C   0  0  2  0  0  0  0  0  0  0  0  0
    1.0838   -1.7334    4.5464 O   0  0  0  0  0  0  0  0  0  0  0  0
   -0.0205    2.1430    2.6900 C   0  0  0  0  0  0  0  0  0  0  0  0
   -0.8534    3.2047    3.5575 C   0  0  1  0  0  0  0  0  0  0  0  0
   -2.3060    3.2773    3.0164 C   0  0  0  0  0  0  0  0  0  0  0  0
   -0.3952    4.5099    3.2972 O   0  0  0  0  0  0  0  0  0  0  0  0
   -2.4815    4.0433    5.8097 H   0  0  0  0  0  0  0  0  0  0  0  0
   -2.0062    2.7172    6.8541 H   0  0  0  0  0  0  0  0  0  0  0  0
   -2.8951    2.3917    5.3718 H   0  0  0  0  0  0  0  0  0  0  0  0
    1.5065    3.5131    4.3388 H   0  0  0  0  0  0  0  0  0  0  0  0
    2.8411    2.2414    3.3276 H   0  0  0  0  0  0  0  0  0  0  0  0
    3.4524    1.4764    4.7032 H   0  0  0  0  0  0  0  0  0  0  0  0
    2.2658   -1.1320    2.2989 H   0  0  0  0  0  0  0  0  0  0  0  0
    3.6750   -0.3174    2.9723 H   0  0  0  0  0  0  0  0  0  0  0  0
    2.6559    0.4998    1.8020 H   0  0  0  0  0  0  0  0  0  0  0  0
    0.2891    0.1172    2.2978 H   0  0  0  0  0  0  0  0  0  0  0  0
   -1.8343    0.5374    3.5534 H   0  0  0  0  0  0  0  0  0  0  0  0
   -1.0255   -0.9720    3.6944 H   0  0  0  0  0  0  0  0  0  0  0  0
   -0.3326    1.1214    7.2745 H   0  0  0  0  0  0  0  0  0  0  0  0
    2.8600    0.2153    8.0701 H   0  0  0  0  0  0  0  0  0  0  0  0
    1.8940    1.6069    7.8116 H   0  0  0  0  0  0  0  0  0  0  0  0
    3.2079    1.1688    6.7222 H   0  0  0  0  0  0  0  0  0  0  0  0
    1.2846   -1.1590    8.3491 H   0  0  0  0  0  0  0  0  0  0  0  0
    0.2046   -2.4339    6.1547 H   0  0  0  0  0  0  0  0  0  0  0  0
    3.3709   -1.9968    7.5667 H   0  0  0  0  0  0  0  0  0  0  0  0
    2.4128   -3.1389    6.6526 H   0  0  0  0  0  0  0  0  0  0  0  0
    3.8928   -0.7082    5.6939 H   0  0  0  0  0  0  0  0  0  0  0  0
    3.4245   -2.1053    4.7565 H   0  0  0  0  0  0  0  0  0  0  0  0
    1.4806   -1.9907    3.7355 H   0  0  0  0  0  0  0  0  0  0  0  0
    0.9036    2.6042    2.3359 H   0  0  0  0  0  0  0  0  0  0  0  0
   -0.5584    2.0148    1.7474 H   0  0  0  0  0  0  0  0  0  0  0  0
   -2.8490    2.3383    3.1060 H   0  0  0  0  0  0  0  0  0  0  0  0
   -2.2996    3.5250    1.9690 H   0  0  0  0  0  0  0  0  0  0  0  0
   -2.8929    4.0697    3.4796 H   0  0  0  0  0  0  0  0  0  0  0  0
   -0.1847    4.5386    2.3475 H   0  0  0  0  0  0  0  0  0  0  0  0
  1  2  1  0
  1 26  1  0
  1 27  1  0
  1 28  1  0
  2 23  1  0
  2  3  2  3
  3 13  1  0
  3  4  1  0
  4  5  1  0
  4  6  1  0
  4 29  1  6
  6  7  1  0
  6 30  1  0
  6 31  1  0
  7 20  1  0
  7  8  1  6
  7  9  1  0
  8 32  1  0
  8 33  1  0
  8 34  1  0
  9 10  1  0
  9 22  1  0
  9 35  1  6
 10 11  1  0
 10 36  1  0
 10 37  1  0
 11 12  2  0
 11 13  1  0
 13 14  1  0
 13 38  1  1
 14 20  1  0
 14 15  1  1
 14 16  1  0
 15 39  1  0
 15 40  1  0
 15 41  1  0
 16 17  1  0
 16 18  1  0
 16 42  1  1
 17 43  1  0
 18 19  1  0
 18 44  1  0
 18 45  1  0
 19 20  1  0
 19 46  1  0
 19 47  1  0
 20 21  1  6
 21 48  1  0
 22 23  1  0
 22 49  1  0
 22 50  1  0
 23 24  1  0
 23 25  1  1
 24 51  1  0
 24 52  1  0
 24 53  1  0
 25 54  1  0
M  END
>  <i_m_ct_stereo_status>  (126) 
1

>  <s_m_source_file>  (126) 
/var/tmp/pbs.5076255.sched01/tmpr6ewtwjb/42o4phu6d4.sdf

>  <i_m_source_file_index>  (126) 
18

>  <i_lp_mmshare_version>  (126) 
48012

>  <i_f3d_flags>  (126) 
0

>  <s_epik_input>  (126) 
W0NIM11bQ0BdMTJbQ0BIXTNbQ0gyXUMoPU8pW0NASF0oQyhcW0NAQEhdKENsKVtDSDJdMSk9QyhcW0NIM10pW0NAQF0oW0NIMl0zKShbQ0gzXSlbT0hdKVtDQF00KFtDSDNdKVtDQF0yKFtPSF0pW0NIMl1bQ0gyXVtDQEBIXTRbT0hd

>  <s_epik_cmdline>  (126) 
J2VwaWtfcHl0aG9uJywgJy1waHQnLCAnMi4wJywgJy1waCcsICc3LjAnLCAnLXRuJywgJzgnLCAnLW1hJywgJzIwMCcsICctaW1hZScsICc8aW5maWxlLm1hZT4nLCAnLW9tYWUnLCAnPG91dGZpbGUubWFlPic=

>  <r_lp_tautomer_probability>  (126) 
1

>  <r_epik_Ionization_Penalty>  (126) 
3.2405e-07

>  <r_epik_Ionization_Penalty_Charging>  (126) 
0

>  <r_epik_Ionization_Penalty_Neutral>  (126) 
3.2405e-07

>  <r_epik_State_Penalty>  (126) 
-0

>  <r_epik_Charging_Adjusted_Penalty>  (126) 
0

>  <i_epik_Tot_Q>  (126) 
0

>  <i_epik_Tot_abs_Q>  (126) 
0

>  <s_lp_Force_Field>  (126) 
OPLS3e

>  <r_lp_Energy>  (126) 
139.183

>  <b_lp_Chiralities_Consistent>  (126) 
1

>  <s_lp_Variant>  (126) 
41:0-1

>  <s_i_glide_gridfile>  (126) 
pfpi4k_grid

>  <i_i_glide_lignum>  (126) 
18

>  <i_i_glide_rotatable_bonds>  (126) 
3

>  <r_i_docking_score>  (126) 
-4.51417

>  <r_i_glide_ligand_efficiency>  (126) 
-0.180567

>  <r_i_glide_ligand_efficiency_sa>  (126) 
-0.52798

>  <r_i_glide_ligand_efficiency_ln>  (126) 
-1.06999

>  <r_i_glide_gscore>  (126) 
-4.51417

>  <r_i_glide_lipo>  (126) 
-0.0411028

>  <r_i_glide_hbond>  (126) 
-0.303412

>  <r_i_glide_metal>  (126) 
-0

>  <r_i_glide_rewards>  (126) 
-1.3939

>  <r_i_glide_evdw>  (126) 
-18.0213

>  <r_i_glide_ecoul>  (126) 
-12.2623

>  <r_i_glide_erotb>  (126) 
0

>  <r_i_glide_esite>  (126) 
-0.0353439

>  <r_i_glide_emodel>  (126) 
-45.599

>  <r_i_glide_energy>  (126) 
-30.2835

>  <r_i_glide_einternal>  (126) 
0.359244

>  <r_i_glide_intrahb_reward>  (126) 
-0.5

>  <i_i_glide_confnum>  (126) 
1

>  <i_i_glide_posenum>  (126) 
5

>  <r_i_glide_eff_state_penalty>  (126) 
0

>  <ligand_id>  (126) 
41

>  <original_smiles>  (126) 
CC1=C2C(Cl)CC3(C)C(CC(=O)C2C2(C)C(O)CCC32O)CC1(C)O

>  <smiles>  (126) 
[H]OC1([H])C([H])([H])C([H])([H])C2(O[H])C1(C([H])([H])[H])C1([H])C(=O)C([H])([H])C3([H])C([H])([H])C(O[H])(C([H])([H])[H])C(C([H])([H])[H])=C1C([H])(Cl)C([H])([H])C32C([H])([H])[H]

$$$$
41:0:1
     RDKit          3D

 54 57  0  0  1  0  0  0  0  0999 V2000
   -1.4509    2.7887    6.2171 C   0  0  0  0  0  0  0  0  0  0  0  0
   -0.4124    2.8113    5.0957 C   0  0  0  0  0  0  0  0  0  0  0  0
    0.8188    2.2548    5.2434 C   0  0  0  0  0  0  0  0  0  0  0  0
    1.9448    2.7721    4.3113 C   0  0  1  0  0  0  0  0  0  0  0  0
    3.1577    3.8192    5.1017 Cl  0  0  0  0  0  0  0  0  0  0  0  0
    2.5528    1.8110    3.2731 C   0  0  0  0  0  0  0  0  0  0  0  0
    1.8453    0.4484    3.1155 C   0  0  2  0  0  0  0  0  0  0  0  0
    2.3519   -0.0980    1.7535 C   0  0  0  0  0  0  0  0  0  0  0  0
    0.2336    0.6045    3.0205 C   0  0  1  0  0  0  0  0  0  0  0  0
   -0.6721   -0.0905    4.1017 C   0  0  0  0  0  0  0  0  0  0  0  0
   -0.2848    0.0353    5.5913 C   0  0  0  0  0  0  0  0  0  0  0  0
   -0.9892   -0.5071    6.4476 O   0  0  0  0  0  0  0  0  0  0  0  0
    0.9473    0.8803    5.9937 C   0  0  1  0  0  0  0  0  0  0  0  0
    2.2642    0.0470    5.7401 C   0  0  1  0  0  0  0  0  0  0  0  0
    3.4547    0.9565    6.2228 C   0  0  0  0  0  0  0  0  0  0  0  0
    2.5992   -1.2481    6.5526 C   0  0  1  0  0  0  0  0  0  0  0  0
    1.5545   -2.1871    6.7084 O   0  0  0  0  0  0  0  0  0  0  0  0
    3.7493   -1.8849    5.7068 C   0  0  0  0  0  0  0  0  0  0  0  0
    3.7238   -1.1972    4.3024 C   0  0  0  0  0  0  0  0  0  0  0  0
    2.3377   -0.5273    4.2666 C   0  0  2  0  0  0  0  0  0  0  0  0
    1.5823   -1.7169    4.0312 O   0  0  0  0  0  0  0  0  0  0  0  0
   -0.3523    2.0181    2.5960 C   0  0  0  0  0  0  0  0  0  0  0  0
   -0.9590    3.0395    3.6635 C   0  0  1  0  0  0  0  0  0  0  0  0
   -2.5048    2.9830    3.5673 C   0  0  0  0  0  0  0  0  0  0  0  0
   -0.7143    4.3813    3.2823 O   0  0  0  0  0  0  0  0  0  0  0  0
   -1.8666    3.7872    6.3372 H   0  0  0  0  0  0  0  0  0  0  0  0
   -0.9822    2.5311    7.1638 H   0  0  0  0  0  0  0  0  0  0  0  0
   -2.2642    2.0902    6.0423 H   0  0  0  0  0  0  0  0  0  0  0  0
    1.5016    3.5394    3.6908 H   0  0  0  0  0  0  0  0  0  0  0  0
    2.5532    2.3414    2.3186 H   0  0  0  0  0  0  0  0  0  0  0  0
    3.6163    1.6603    3.4385 H   0  0  0  0  0  0  0  0  0  0  0  0
    1.9677   -1.0937    1.5341 H   0  0  0  0  0  0  0  0  0  0  0  0
    3.4401   -0.1522    1.7225 H   0  0  0  0  0  0  0  0  0  0  0  0
    2.0436    0.5442    0.9256 H   0  0  0  0  0  0  0  0  0  0  0  0
   -0.0109    0.0094    2.1397 H   0  0  0  0  0  0  0  0  0  0  0  0
   -1.6890    0.2858    4.0024 H   0  0  0  0  0  0  0  0  0  0  0  0
   -0.7777   -1.1501    3.8731 H   0  0  0  0  0  0  0  0  0  0  0  0
    0.8695    1.0878    7.0595 H   0  0  0  0  0  0  0  0  0  0  0  0
    4.2131    0.4501    6.8198 H   0  0  0  0  0  0  0  0  0  0  0  0
    3.1056    1.7575    6.8720 H   0  0  0  0  0  0  0  0  0  0  0  0
    4.0466    1.3893    5.4267 H   0  0  0  0  0  0  0  0  0  0  0  0
    2.9184   -1.0419    7.5763 H   0  0  0  0  0  0  0  0  0  0  0  0
    1.3296   -2.4719    5.8326 H   0  0  0  0  0  0  0  0  0  0  0  0
    4.7205   -1.7304    6.1811 H   0  0  0  0  0  0  0  0  0  0  0  0
    3.6235   -2.9665    5.6153 H   0  0  0  0  0  0  0  0  0  0  0  0
    4.5243   -0.4604    4.2344 H   0  0  0  0  0  0  0  0  0  0  0  0
    3.8910   -1.9140    3.4965 H   0  0  0  0  0  0  0  0  0  0  0  0
    0.6947   -1.4578    3.8532 H   0  0  0  0  0  0  0  0  0  0  0  0
    0.3902    2.5323    1.9874 H   0  0  0  0  0  0  0  0  0  0  0  0
   -1.1348    1.8120    1.8630 H   0  0  0  0  0  0  0  0  0  0  0  0
   -2.9112    2.0170    3.8535 H   0  0  0  0  0  0  0  0  0  0  0  0
   -2.8446    3.1760    2.5481 H   0  0  0  0  0  0  0  0  0  0  0  0
   -2.9738    3.7359    4.2004 H   0  0  0  0  0  0  0  0  0  0  0  0
   -0.4255    4.3934    2.3555 H   0  0  0  0  0  0  0  0  0  0  0  0
  1  2  1  0
  1 26  1  0
  1 27  1  0
  1 28  1  0
  2 23  1  0
  2  3  2  3
  3 13  1  0
  3  4  1  0
  4  5  1  0
  4  6  1  0
  4 29  1  6
  6  7  1  0
  6 30  1  0
  6 31  1  0
  7 20  1  0
  7  8  1  6
  7  9  1  0
  8 32  1  0
  8 33  1  0
  8 34  1  0
  9 10  1  0
  9 22  1  0
  9 35  1  6
 10 11  1  0
 10 36  1  0
 10 37  1  0
 11 12  2  0
 11 13  1  0
 13 14  1  0
 13 38  1  1
 14 20  1  0
 14 15  1  6
 14 16  1  0
 15 39  1  0
 15 40  1  0
 15 41  1  0
 16 17  1  0
 16 18  1  0
 16 42  1  1
 17 43  1  0
 18 19  1  0
 18 44  1  0
 18 45  1  0
 19 20  1  0
 19 46  1  0
 19 47  1  0
 20 21  1  1
 21 48  1  0
 22 23  1  0
 22 49  1  0
 22 50  1  0
 23 24  1  0
 23 25  1  6
 24 51  1  0
 24 52  1  0
 24 53  1  0
 25 54  1  0
M  END
>  <i_m_ct_stereo_status>  (127) 
1

>  <s_m_source_file>  (127) 
/var/tmp/pbs.5076255.sched01/tmpr6ewtwjb/42o4phu6d4.sdf

>  <i_m_source_file_index>  (127) 
18

>  <i_lp_mmshare_version>  (127) 
48012

>  <i_f3d_flags>  (127) 
0

>  <s_epik_input>  (127) 
W0NIM11bQ0BdMTJbQ0BIXTNbQ0gyXUMoPU8pW0NASF0oQyhcW0NAQEhdKENsKVtDSDJdMSk9QyhcW0NIM10pW0NAQF0oW0NIMl0zKShbQ0gzXSlbT0hdKVtDQF00KFtDSDNdKVtDQF0yKFtPSF0pW0NIMl1bQ0gyXVtDQEBIXTRbT0hd

>  <s_epik_cmdline>  (127) 
J2VwaWtfcHl0aG9uJywgJy1waHQnLCAnMi4wJywgJy1waCcsICc3LjAnLCAnLXRuJywgJzgnLCAnLW1hJywgJzIwMCcsICctaW1hZScsICc8aW5maWxlLm1hZT4nLCAnLW9tYWUnLCAnPG91dGZpbGUubWFlPic=

>  <r_lp_tautomer_probability>  (127) 
1

>  <r_epik_Ionization_Penalty>  (127) 
3.2405e-07

>  <r_epik_Ionization_Penalty_Charging>  (127) 
0

>  <r_epik_Ionization_Penalty_Neutral>  (127) 
3.2405e-07

>  <r_epik_State_Penalty>  (127) 
-0

>  <r_epik_Charging_Adjusted_Penalty>  (127) 
0

>  <i_epik_Tot_Q>  (127) 
0

>  <i_epik_Tot_abs_Q>  (127) 
0

>  <s_lp_Force_Field>  (127) 
OPLS3e

>  <r_lp_Energy>  (127) 
139.183

>  <b_lp_Chiralities_Consistent>  (127) 
1

>  <s_lp_Variant>  (127) 
41:0-1

>  <s_i_glide_gridfile>  (127) 
pfpi4k_grid

>  <i_i_glide_lignum>  (127) 
18

>  <i_i_glide_rotatable_bonds>  (127) 
3

>  <r_i_docking_score>  (127) 
-4.27126

>  <r_i_glide_ligand_efficiency>  (127) 
-0.17085

>  <r_i_glide_ligand_efficiency_sa>  (127) 
-0.49957

>  <r_i_glide_ligand_efficiency_ln>  (127) 
-1.01242

>  <r_i_glide_gscore>  (127) 
-4.27126

>  <r_i_glide_lipo>  (127) 
-0.0362551

>  <r_i_glide_hbond>  (127) 
-0.238824

>  <r_i_glide_metal>  (127) 
-0

>  <r_i_glide_rewards>  (127) 
-1.3939

>  <r_i_glide_evdw>  (127) 
-21.1984

>  <r_i_glide_ecoul>  (127) 
-10.1403

>  <r_i_glide_erotb>  (127) 
0

>  <r_i_glide_esite>  (127) 
-0.021319

>  <r_i_glide_emodel>  (127) 
-45.8358

>  <r_i_glide_energy>  (127) 
-31.3387

>  <r_i_glide_einternal>  (127) 
0.830942

>  <r_i_glide_intrahb_reward>  (127) 
-0.5

>  <i_i_glide_confnum>  (127) 
2

>  <i_i_glide_posenum>  (127) 
19

>  <r_i_glide_eff_state_penalty>  (127) 
0

>  <ligand_id>  (127) 
41

>  <original_smiles>  (127) 
CC1=C2C(Cl)CC3(C)C(CC(=O)C2C2(C)C(O)CCC32O)CC1(C)O

>  <smiles>  (127) 
[H]OC1([H])C([H])([H])C([H])([H])C2(O[H])C1(C([H])([H])[H])C1([H])C(=O)C([H])([H])C3([H])C([H])([H])C(O[H])(C([H])([H])[H])C(C([H])([H])[H])=C1C([H])(Cl)C([H])([H])C32C([H])([H])[H]

$$$$
41:0:2
     RDKit          3D

 54 57  0  0  1  0  0  0  0  0999 V2000
   -1.4678    2.7430    6.1939 C   0  0  0  0  0  0  0  0  0  0  0  0
   -0.4037    2.7759    5.0975 C   0  0  0  0  0  0  0  0  0  0  0  0
    0.8222    2.2195    5.2672 C   0  0  0  0  0  0  0  0  0  0  0  0
    1.9690    2.7440    4.3648 C   0  0  1  0  0  0  0  0  0  0  0  0
    3.1637    3.7852    5.1895 Cl  0  0  0  0  0  0  0  0  0  0  0  0
    2.5997    1.7897    3.3342 C   0  0  0  0  0  0  0  0  0  0  0  0
    1.8960    0.4279    3.1483 C   0  0  2  0  0  0  0  0  0  0  0  0
    2.4333   -0.1108    1.7934 C   0  0  0  0  0  0  0  0  0  0  0  0
    0.2847    0.5847    3.0215 C   0  0  1  0  0  0  0  0  0  0  0  0
   -0.6393   -0.1209    4.0798 C   0  0  0  0  0  0  0  0  0  0  0  0
   -0.2791   -0.0063    5.5765 C   0  0  0  0  0  0  0  0  0  0  0  0
   -0.9891   -0.5616    6.4214 O   0  0  0  0  0  0  0  0  0  0  0  0
    0.9388    0.8381    6.0113 C   0  0  1  0  0  0  0  0  0  0  0  0
    2.2593    0.0051    5.7824 C   0  0  1  0  0  0  0  0  0  0  0  0
    3.4379    0.9134    6.2959 C   0  0  0  0  0  0  0  0  0  0  0  0
    2.5771   -1.2965    6.5916 C   0  0  1  0  0  0  0  0  0  0  0  0
    1.5297   -2.2407    6.7087 O   0  0  0  0  0  0  0  0  0  0  0  0
    3.7460   -1.9252    5.7652 C   0  0  0  0  0  0  0  0  0  0  0  0
    3.7533   -1.2258    4.3659 C   0  0  0  0  0  0  0  0  0  0  0  0
    2.3642   -0.5567    4.3038 C   0  0  2  0  0  0  0  0  0  0  0  0
    1.6135   -1.7440    4.0312 O   0  0  0  0  0  0  0  0  0  0  0  0
   -0.2904    1.9987    2.5898 C   0  0  0  0  0  0  0  0  0  0  0  0
   -0.9213    3.0112    3.6520 C   0  0  1  0  0  0  0  0  0  0  0  0
   -2.4672    2.9536    3.5230 C   0  0  0  0  0  0  0  0  0  0  0  0
   -0.6668    4.3530    3.2845 O   0  0  0  0  0  0  0  0  0  0  0  0
   -1.8936    3.7396    6.3093 H   0  0  0  0  0  0  0  0  0  0  0  0
   -1.0216    2.4804    7.1507 H   0  0  0  0  0  0  0  0  0  0  0  0
   -2.2738    2.0399    5.9977 H   0  0  0  0  0  0  0  0  0  0  0  0
    1.5368    3.5142    3.7381 H   0  0  0  0  0  0  0  0  0  0  0  0
    2.6219    2.3245    2.3815 H   0  0  0  0  0  0  0  0  0  0  0  0
    3.6594    1.6387    3.5187 H   0  0  0  0  0  0  0  0  0  0  0  0
    2.0537   -1.1030    1.5486 H   0  0  0  0  0  0  0  0  0  0  0  0
    3.5224   -0.1640    1.7869 H   0  0  0  0  0  0  0  0  0  0  0  0
    2.1419    0.5407    0.9659 H   0  0  0  0  0  0  0  0  0  0  0  0
    0.0584   -0.0115    2.1350 H   0  0  0  0  0  0  0  0  0  0  0  0
   -1.6563    0.2447    3.9623 H   0  0  0  0  0  0  0  0  0  0  0  0
   -0.7117   -1.1822    3.8455 H   0  0  0  0  0  0  0  0  0  0  0  0
    0.8354    1.0352    7.0761 H   0  0  0  0  0  0  0  0  0  0  0  0
    4.1840    0.4061    6.9062 H   0  0  0  0  0  0  0  0  0  0  0  0
    3.0729    1.7099    6.9436 H   0  0  0  0  0  0  0  0  0  0  0  0
    4.0453    1.3533    5.5170 H   0  0  0  0  0  0  0  0  0  0  0  0
    2.8749   -1.0947    7.6241 H   0  0  0  0  0  0  0  0  0  0  0  0
    1.2752   -2.4581    5.8219 H   0  0  0  0  0  0  0  0  0  0  0  0
    4.7052   -1.7720    6.2630 H   0  0  0  0  0  0  0  0  0  0  0  0
    3.6219   -3.0072    5.6626 H   0  0  0  0  0  0  0  0  0  0  0  0
    4.5529   -0.4850    4.3202 H   0  0  0  0  0  0  0  0  0  0  0  0
    3.9474   -1.9331    3.5592 H   0  0  0  0  0  0  0  0  0  0  0  0
    1.7305   -1.9486    3.1202 H   0  0  0  0  0  0  0  0  0  0  0  0
    0.4632    2.5190    2.0020 H   0  0  0  0  0  0  0  0  0  0  0  0
   -1.0560    1.7979    1.8375 H   0  0  0  0  0  0  0  0  0  0  0  0
   -2.8729    1.9835    3.7935 H   0  0  0  0  0  0  0  0  0  0  0  0
   -2.7852    3.1502    2.4964 H   0  0  0  0  0  0  0  0  0  0  0  0
   -2.9588    3.7000    4.1469 H   0  0  0  0  0  0  0  0  0  0  0  0
   -0.3952    4.3712    2.3503 H   0  0  0  0  0  0  0  0  0  0  0  0
  1  2  1  0
  1 26  1  0
  1 27  1  0
  1 28  1  0
  2 23  1  0
  2  3  2  3
  3 13  1  0
  3  4  1  0
  4  5  1  0
  4  6  1  0
  4 29  1  6
  6  7  1  0
  6 30  1  0
  6 31  1  0
  7 20  1  0
  7  8  1  6
  7  9  1  0
  8 32  1  0
  8 33  1  0
  8 34  1  0
  9 10  1  0
  9 22  1  0
  9 35  1  6
 10 11  1  0
 10 36  1  0
 10 37  1  0
 11 12  2  0
 11 13  1  0
 13 14  1  0
 13 38  1  1
 14 20  1  0
 14 15  1  6
 14 16  1  0
 15 39  1  0
 15 40  1  0
 15 41  1  0
 16 17  1  0
 16 18  1  0
 16 42  1  1
 17 43  1  0
 18 19  1  0
 18 44  1  0
 18 45  1  0
 19 20  1  0
 19 46  1  0
 19 47  1  0
 20 21  1  1
 21 48  1  0
 22 23  1  0
 22 49  1  0
 22 50  1  0
 23 24  1  0
 23 25  1  6
 24 51  1  0
 24 52  1  0
 24 53  1  0
 25 54  1  0
M  END
>  <i_m_ct_stereo_status>  (128) 
1

>  <s_m_source_file>  (128) 
/var/tmp/pbs.5076255.sched01/tmpr6ewtwjb/42o4phu6d4.sdf

>  <i_m_source_file_index>  (128) 
18

>  <i_lp_mmshare_version>  (128) 
48012

>  <i_f3d_flags>  (128) 
0

>  <s_epik_input>  (128) 
W0NIM11bQ0BdMTJbQ0BIXTNbQ0gyXUMoPU8pW0NASF0oQyhcW0NAQEhdKENsKVtDSDJdMSk9QyhcW0NIM10pW0NAQF0oW0NIMl0zKShbQ0gzXSlbT0hdKVtDQF00KFtDSDNdKVtDQF0yKFtPSF0pW0NIMl1bQ0gyXVtDQEBIXTRbT0hd

>  <s_epik_cmdline>  (128) 
J2VwaWtfcHl0aG9uJywgJy1waHQnLCAnMi4wJywgJy1waCcsICc3LjAnLCAnLXRuJywgJzgnLCAnLW1hJywgJzIwMCcsICctaW1hZScsICc8aW5maWxlLm1hZT4nLCAnLW9tYWUnLCAnPG91dGZpbGUubWFlPic=

>  <r_lp_tautomer_probability>  (128) 
1

>  <r_epik_Ionization_Penalty>  (128) 
3.2405e-07

>  <r_epik_Ionization_Penalty_Charging>  (128) 
0

>  <r_epik_Ionization_Penalty_Neutral>  (128) 
3.2405e-07

>  <r_epik_State_Penalty>  (128) 
-0

>  <r_epik_Charging_Adjusted_Penalty>  (128) 
0

>  <i_epik_Tot_Q>  (128) 
0

>  <i_epik_Tot_abs_Q>  (128) 
0

>  <s_lp_Force_Field>  (128) 
OPLS3e

>  <r_lp_Energy>  (128) 
139.183

>  <b_lp_Chiralities_Consistent>  (128) 
1

>  <s_lp_Variant>  (128) 
41:0-1

>  <s_i_glide_gridfile>  (128) 
pfpi4k_grid

>  <i_i_glide_lignum>  (128) 
18

>  <i_i_glide_rotatable_bonds>  (128) 
3

>  <r_i_docking_score>  (128) 
-4.26889

>  <r_i_glide_ligand_efficiency>  (128) 
-0.170756

>  <r_i_glide_ligand_efficiency_sa>  (128) 
-0.499292

>  <r_i_glide_ligand_efficiency_ln>  (128) 
-1.01185

>  <r_i_glide_gscore>  (128) 
-4.26889

>  <r_i_glide_lipo>  (128) 
-0.0374015

>  <r_i_glide_hbond>  (128) 
-0.232809

>  <r_i_glide_metal>  (128) 
-0

>  <r_i_glide_rewards>  (128) 
-1.3939

>  <r_i_glide_evdw>  (128) 
-20.9861

>  <r_i_glide_ecoul>  (128) 
-10.2278

>  <r_i_glide_erotb>  (128) 
0

>  <r_i_glide_esite>  (128) 
-0.0213007

>  <r_i_glide_emodel>  (128) 
-45.7235

>  <r_i_glide_energy>  (128) 
-31.2139

>  <r_i_glide_einternal>  (128) 
0.797417

>  <r_i_glide_intrahb_reward>  (128) 
-0.5

>  <i_i_glide_confnum>  (128) 
1

>  <i_i_glide_posenum>  (128) 
40

>  <r_i_glide_eff_state_penalty>  (128) 
0

>  <ligand_id>  (128) 
41

>  <original_smiles>  (128) 
CC1=C2C(Cl)CC3(C)C(CC(=O)C2C2(C)C(O)CCC32O)CC1(C)O

>  <smiles>  (128) 
[H]OC1([H])C([H])([H])C([H])([H])C2(O[H])C1(C([H])([H])[H])C1([H])C(=O)C([H])([H])C3([H])C([H])([H])C(O[H])(C([H])([H])[H])C(C([H])([H])[H])=C1C([H])(Cl)C([H])([H])C32C([H])([H])[H]

$$$$
42:0:0
     RDKit          3D

 67 73  0  0  1  0  0  0  0  0999 V2000
    4.7399   -0.8546   -2.2178 C   0  0  0  0  0  0  0  0  0  0  0  0
    4.3975   -2.3462   -1.9960 C   0  0  0  0  0  0  0  0  0  0  0  0
    3.2338   -2.5803   -3.0023 C   0  0  0  0  0  0  0  0  0  0  0  0
    5.5595   -3.2320   -2.4869 C   0  0  0  0  0  0  0  0  0  0  0  0
    6.8088   -3.1179   -1.6201 C   0  0  0  0  0  0  0  0  0  0  0  0
    6.4899   -3.4833   -0.1663 C   0  0  1  0  0  0  0  0  0  0  0  0
    7.7005   -3.3531    0.5494 O   0  0  0  0  0  0  0  0  0  0  0  0
    5.3302   -2.6587    0.4975 C   0  0  2  0  0  0  0  0  0  0  0  0
    5.8040   -1.1756    0.6837 C   0  0  0  0  0  0  0  0  0  0  0  0
    5.0300   -3.1618    1.9743 C   0  0  1  0  0  0  0  0  0  0  0  0
    3.7454   -2.5844    2.6350 C   0  0  0  0  0  0  0  0  0  0  0  0
    2.7401   -3.6578    3.1343 C   0  0  1  0  0  0  0  0  0  0  0  0
    2.1140   -4.2404    2.0011 O   0  0  0  0  0  0  0  0  0  0  0  0
    2.8658   -4.8418    0.9448 C   0  0  2  0  0  0  0  0  0  0  0  0
    1.7654   -5.8663    0.5386 C   0  0  0  0  0  0  0  0  0  0  0  0
    4.1068   -5.5430    1.5493 C   0  0  0  0  0  0  0  0  0  0  0  0
    3.9335   -6.8180    1.9494 C   0  0  0  0  0  0  0  0  0  0  0  0
    3.8424   -7.0667    3.4218 C   0  0  0  0  0  0  0  0  0  0  0  0
    4.0906   -5.8010    4.2609 C   0  0  1  0  0  0  0  0  0  0  0  0
    5.3582   -5.0104    3.8480 C   0  0  2  0  0  0  0  0  0  0  0  0
    6.6196   -5.8728    4.0894 C   0  0  0  0  0  0  0  0  0  0  0  0
    5.3261   -3.8024    4.8860 C   0  0  0  0  0  0  0  0  0  0  0  0
    3.9595   -3.9926    5.4908 C   0  0  1  0  0  0  0  0  0  0  0  0
    2.8378   -3.1730    5.8803 O   0  0  0  0  0  0  0  0  0  0  0  0
    2.0778   -4.2644    5.5092 C   0  0  0  0  0  0  0  0  0  0  0  0
    0.9857   -4.6695    5.9068 O   0  0  0  0  0  0  0  0  0  0  0  0
    3.0910   -4.6044    4.3892 C   0  0  1  0  0  0  0  0  0  0  0  0
    5.1610   -4.6735    2.2973 C   0  0  2  0  0  0  0  0  0  0  0  0
    3.1243   -3.9387   -0.3349 C   0  0  1  0  0  0  0  0  0  0  0  0
    1.8451   -3.4763   -0.7605 O   0  0  0  0  0  0  0  0  0  0  0  0
    4.0624   -2.6863   -0.4567 C   0  0  2  0  0  0  0  0  0  0  0  0
    4.5165   -0.5127   -3.2306 H   0  0  0  0  0  0  0  0  0  0  0  0
    5.7905   -0.6340   -2.0818 H   0  0  0  0  0  0  0  0  0  0  0  0
    4.1848   -0.2168   -1.5370 H   0  0  0  0  0  0  0  0  0  0  0  0
    2.9283   -3.6253   -3.0567 H   0  0  0  0  0  0  0  0  0  0  0  0
    3.5182   -2.3119   -4.0217 H   0  0  0  0  0  0  0  0  0  0  0  0
    2.3599   -1.9747   -2.7532 H   0  0  0  0  0  0  0  0  0  0  0  0
    5.2372   -4.2739   -2.4943 H   0  0  0  0  0  0  0  0  0  0  0  0
    5.8134   -2.9970   -3.5209 H   0  0  0  0  0  0  0  0  0  0  0  0
    7.5561   -3.8105   -2.0081 H   0  0  0  0  0  0  0  0  0  0  0  0
    7.2804   -2.1477   -1.7108 H   0  0  0  0  0  0  0  0  0  0  0  0
    6.2170   -4.5381   -0.1892 H   0  0  0  0  0  0  0  0  0  0  0  0
    7.5786   -3.7092    1.4196 H   0  0  0  0  0  0  0  0  0  0  0  0
    4.9651   -0.4840    0.7635 H   0  0  0  0  0  0  0  0  0  0  0  0
    6.4393   -0.8271   -0.1206 H   0  0  0  0  0  0  0  0  0  0  0  0
    6.4173   -1.0141    1.5701 H   0  0  0  0  0  0  0  0  0  0  0  0
    5.8724   -2.7602    2.5289 H   0  0  0  0  0  0  0  0  0  0  0  0
    3.9937   -1.9032    3.4480 H   0  0  0  0  0  0  0  0  0  0  0  0
    3.2124   -1.9312    1.9507 H   0  0  0  0  0  0  0  0  0  0  0  0
    1.9036   -3.0347    3.4596 H   0  0  0  0  0  0  0  0  0  0  0  0
    2.1356   -6.4695   -0.2615 H   0  0  0  0  0  0  0  0  0  0  0  0
    0.8576   -5.4557    0.1295 H   0  0  0  0  0  0  0  0  0  0  0  0
    1.4248   -6.5010    1.3586 H   0  0  0  0  0  0  0  0  0  0  0  0
    3.2715   -7.5124    1.4612 H   0  0  0  0  0  0  0  0  0  0  0  0
    2.8541   -7.4635    3.6562 H   0  0  0  0  0  0  0  0  0  0  0  0
    4.5634   -7.8433    3.6787 H   0  0  0  0  0  0  0  0  0  0  0  0
    4.2429   -6.2755    5.2328 H   0  0  0  0  0  0  0  0  0  0  0  0
    7.5340   -5.3208    3.8988 H   0  0  0  0  0  0  0  0  0  0  0  0
    6.6454   -6.7496    3.4435 H   0  0  0  0  0  0  0  0  0  0  0  0
    6.6636   -6.2194    5.1238 H   0  0  0  0  0  0  0  0  0  0  0  0
    6.0753   -3.9484    5.6623 H   0  0  0  0  0  0  0  0  0  0  0  0
    5.5146   -2.7989    4.5349 H   0  0  0  0  0  0  0  0  0  0  0  0
    4.1388   -4.6584    6.3500 H   0  0  0  0  0  0  0  0  0  0  0  0
    6.0994   -5.0138    1.8697 H   0  0  0  0  0  0  0  0  0  0  0  0
    3.4846   -4.6481   -1.0814 H   0  0  0  0  0  0  0  0  0  0  0  0
    1.8025   -2.5214   -0.7210 H   0  0  0  0  0  0  0  0  0  0  0  0
    3.4428   -1.8517   -0.1328 H   0  0  0  0  0  0  0  0  0  0  0  0
  1  2  1  0
  1 32  1  0
  1 33  1  0
  1 34  1  0
  2 31  1  0
  2  3  1  0
  2  4  1  0
  3 35  1  0
  3 36  1  0
  3 37  1  0
  4  5  1  0
  4 38  1  0
  4 39  1  0
  5  6  1  0
  5 40  1  0
  5 41  1  0
  6  7  1  0
  6  8  1  0
  6 42  1  6
  7 43  1  0
  8 31  1  0
  8  9  1  1
  8 10  1  0
  9 44  1  0
  9 45  1  0
  9 46  1  0
 10 28  1  0
 10 11  1  0
 10 47  1  1
 11 12  1  0
 11 48  1  0
 11 49  1  0
 12 27  1  0
 12 13  1  0
 12 50  1  1
 13 14  1  0
 14 15  1  6
 14 16  1  0
 14 29  1  0
 15 51  1  0
 15 52  1  0
 15 53  1  0
 16 28  1  0
 16 17  2  0
 17 18  1  0
 17 54  1  0
 18 19  1  0
 18 55  1  0
 18 56  1  0
 19 27  1  0
 19 20  1  0
 19 57  1  1
 20 21  1  6
 20 22  1  0
 20 28  1  0
 21 58  1  0
 21 59  1  0
 21 60  1  0
 22 23  1  0
 22 61  1  0
 22 62  1  0
 23 27  1  0
 23 24  1  0
 23 63  1  1
 24 25  1  0
 25 26  2  0
 27 25  1  1
 28 64  1  6
 29 30  1  0
 29 31  1  0
 29 65  1  6
 30 66  1  0
 31 67  1  1
M  END
>  <i_m_ct_stereo_status>  (129) 
1

>  <s_m_source_file>  (129) 
/var/tmp/pbs.5076255.sched01/tmpr6ewtwjb/42o4phu6d4.sdf

>  <i_m_source_file_index>  (129) 
19

>  <i_lp_mmshare_version>  (129) 
48012

>  <i_f3d_flags>  (129) 
1

>  <s_epik_input>  (129) 
W09IXVtDQEBIXTFbQ0gyXVtDSDJdQyhbQ0gzXSkoW0NIM10pW0NASF0oW0NAQF0xKFtDSDNdKVtDQEhdMltDSDJdW0NAQEhdM1tDQEBdNDU2KVtDQEhdKFtPSF0pW0NAQF0oTzMpKFtDSDNdKUM9N1tDQEBIXTJbQ0BdKFtDSDNdKShbQ0BASF00W0NIMl1bQ0hdNylbQ0gyXVtDQEhdNU9DNj1P

>  <s_epik_cmdline>  (129) 
J2VwaWtfcHl0aG9uJywgJy1waHQnLCAnMi4wJywgJy1waCcsICc3LjAnLCAnLXRuJywgJzgnLCAnLW1hJywgJzIwMCcsICctaW1hZScsICc8aW5maWxlLm1hZT4nLCAnLW9tYWUnLCAnPG91dGZpbGUubWFlPic=

>  <r_lp_tautomer_probability>  (129) 
1

>  <r_epik_Ionization_Penalty>  (129) 
1.4e-06

>  <r_epik_Ionization_Penalty_Charging>  (129) 
0

>  <r_epik_Ionization_Penalty_Neutral>  (129) 
1.4e-06

>  <r_epik_State_Penalty>  (129) 
-0

>  <r_epik_Charging_Adjusted_Penalty>  (129) 
0

>  <i_epik_Tot_Q>  (129) 
0

>  <i_epik_Tot_abs_Q>  (129) 
0

>  <s_epik_Chemistry_Notes>  (129) 
This compound has an ester and may undergo hydrolysis at high or low pH.

>  <s_lp_Force_Field>  (129) 
OPLS3e

>  <r_lp_Energy>  (129) 
203.85

>  <b_lp_Chiralities_Consistent>  (129) 
1

>  <s_lp_Variant>  (129) 
42:0-1

>  <s_i_glide_gridfile>  (129) 
pfpi4k_grid

>  <i_i_glide_lignum>  (129) 
19

>  <i_i_glide_rotatable_bonds>  (129) 
2

>  <r_i_docking_score>  (129) 
-2.73425

>  <r_i_glide_ligand_efficiency>  (129) 
-0.0882018

>  <r_i_glide_ligand_efficiency_sa>  (129) 
-0.277075

>  <r_i_glide_ligand_efficiency_ln>  (129) 
-0.616658

>  <r_i_glide_gscore>  (129) 
-2.73425

>  <r_i_glide_lipo>  (129) 
-0.70577

>  <r_i_glide_hbond>  (129) 
0

>  <r_i_glide_metal>  (129) 
-0

>  <r_i_glide_rewards>  (129) 
-0.487084

>  <r_i_glide_evdw>  (129) 
-23.5621

>  <r_i_glide_ecoul>  (129) 
-2.42198

>  <r_i_glide_erotb>  (129) 
0

>  <r_i_glide_esite>  (129) 
0

>  <r_i_glide_emodel>  (129) 
-29.4303

>  <r_i_glide_energy>  (129) 
-25.9841

>  <r_i_glide_einternal>  (129) 
1.69924

>  <r_i_glide_intrahb_reward>  (129) 
-0

>  <i_i_glide_confnum>  (129) 
1

>  <i_i_glide_posenum>  (129) 
31

>  <r_i_glide_eff_state_penalty>  (129) 
0

>  <ligand_id>  (129) 
42

>  <original_smiles>  (129) 
CC1(C)CCC(O)C2(C)C3CC4OC(C)(C5=CCC6C(C)(CC7OC(=O)C746)C53)C(O)C12

>  <smiles>  (129) 
[H]OC1([H])C2(C([H])([H])[H])OC3([H])C([H])([H])C([H])(C4([H])C2=C([H])C([H])([H])C2([H])C35C(=O)OC5([H])C([H])([H])C42C([H])([H])[H])C2(C([H])([H])[H])C([H])(O[H])C([H])([H])C([H])([H])C(C([H])([H])[H])(C([H])([H])[H])C12[H]

$$$$
42:0:1
     RDKit          3D

 67 73  0  0  1  0  0  0  0  0999 V2000
    4.7307   -0.8338   -2.2059 C   0  0  0  0  0  0  0  0  0  0  0  0
    4.3911   -2.3299   -1.9898 C   0  0  0  0  0  0  0  0  0  0  0  0
    3.2247   -2.5621   -2.9942 C   0  0  0  0  0  0  0  0  0  0  0  0
    5.5527   -3.2092   -2.4857 C   0  0  0  0  0  0  0  0  0  0  0  0
    6.8040   -3.0917   -1.6252 C   0  0  0  0  0  0  0  0  0  0  0  0
    6.4909   -3.4636   -0.1713 C   0  0  1  0  0  0  0  0  0  0  0  0
    7.6969   -3.3242    0.5497 O   0  0  0  0  0  0  0  0  0  0  0  0
    5.3295   -2.6468    0.4997 C   0  0  2  0  0  0  0  0  0  0  0  0
    5.7959   -1.1620    0.6928 C   0  0  0  0  0  0  0  0  0  0  0  0
    5.0345   -3.1562    1.9763 C   0  0  1  0  0  0  0  0  0  0  0  0
    3.7490   -2.5885    2.6434 C   0  0  0  0  0  0  0  0  0  0  0  0
    2.7496   -3.6689    3.1408 C   0  0  1  0  0  0  0  0  0  0  0  0
    2.1238   -4.2468    2.0056 O   0  0  0  0  0  0  0  0  0  0  0  0
    2.8763   -4.8416    0.9462 C   0  0  2  0  0  0  0  0  0  0  0  0
    1.7785   -5.8684    0.5390 C   0  0  0  0  0  0  0  0  0  0  0  0
    4.1221   -5.5412    1.5450 C   0  0  0  0  0  0  0  0  0  0  0  0
    3.9550   -6.8174    1.9403 C   0  0  0  0  0  0  0  0  0  0  0  0
    3.8683   -7.0726    3.4124 C   0  0  0  0  0  0  0  0  0  0  0  0
    4.1119   -5.8101    4.2556 C   0  0  1  0  0  0  0  0  0  0  0  0
    5.3751   -5.0128    3.8436 C   0  0  2  0  0  0  0  0  0  0  0  0
    6.6400   -5.8697    4.0793 C   0  0  0  0  0  0  0  0  0  0  0  0
    5.3389   -3.8084    4.8868 C   0  0  0  0  0  0  0  0  0  0  0  0
    3.9748   -4.0079    5.4927 C   0  0  1  0  0  0  0  0  0  0  0  0
    2.8515   -3.1947    5.8881 O   0  0  0  0  0  0  0  0  0  0  0  0
    2.0955   -4.2878    5.5146 C   0  0  0  0  0  0  0  0  0  0  0  0
    1.0058   -4.7010    5.9138 O   0  0  0  0  0  0  0  0  0  0  0  0
    3.1087   -4.6180    4.3913 C   0  0  1  0  0  0  0  0  0  0  0  0
    5.1736   -4.6684    2.2942 C   0  0  2  0  0  0  0  0  0  0  0  0
    3.1280   -3.9337   -0.3309 C   0  0  1  0  0  0  0  0  0  0  0  0
    1.8459   -3.4766   -0.7532 O   0  0  0  0  0  0  0  0  0  0  0  0
    4.0598   -2.6760   -0.4507 C   0  0  2  0  0  0  0  0  0  0  0  0
    4.4953   -0.4855   -3.2155 H   0  0  0  0  0  0  0  0  0  0  0  0
    5.7833   -0.6119   -2.0761 H   0  0  0  0  0  0  0  0  0  0  0  0
    4.1992   -0.1969   -1.5075 H   0  0  0  0  0  0  0  0  0  0  0  0
    2.9246   -3.6087   -3.0517 H   0  0  0  0  0  0  0  0  0  0  0  0
    3.5053   -2.2885   -4.0130 H   0  0  0  0  0  0  0  0  0  0  0  0
    2.3487   -1.9622   -2.7393 H   0  0  0  0  0  0  0  0  0  0  0  0
    5.2364   -4.2516   -2.4977 H   0  0  0  0  0  0  0  0  0  0  0  0
    5.8019   -2.9669   -3.5209 H   0  0  0  0  0  0  0  0  0  0  0  0
    7.5531   -3.7772   -2.0235 H   0  0  0  0  0  0  0  0  0  0  0  0
    7.2682   -2.1172   -1.7127 H   0  0  0  0  0  0  0  0  0  0  0  0
    6.2208   -4.5190   -0.1929 H   0  0  0  0  0  0  0  0  0  0  0  0
    8.3254   -3.9402    0.2010 H   0  0  0  0  0  0  0  0  0  0  0  0
    4.9537   -0.4752    0.7789 H   0  0  0  0  0  0  0  0  0  0  0  0
    6.4283   -0.8051   -0.1109 H   0  0  0  0  0  0  0  0  0  0  0  0
    6.4104   -1.0030    1.5790 H   0  0  0  0  0  0  0  0  0  0  0  0
    5.8806   -2.7578    2.5282 H   0  0  0  0  0  0  0  0  0  0  0  0
    3.9964   -1.9100    3.4588 H   0  0  0  0  0  0  0  0  0  0  0  0
    3.2115   -1.9349    1.9635 H   0  0  0  0  0  0  0  0  0  0  0  0
    1.9109   -3.0513    3.4707 H   0  0  0  0  0  0  0  0  0  0  0  0
    2.1504   -6.4635   -0.2656 H   0  0  0  0  0  0  0  0  0  0  0  0
    0.8677   -5.4578    0.1363 H   0  0  0  0  0  0  0  0  0  0  0  0
    1.4447   -6.5103    1.3567 H   0  0  0  0  0  0  0  0  0  0  0  0
    3.2950   -7.5137    1.4512 H   0  0  0  0  0  0  0  0  0  0  0  0
    2.8831   -7.4761    3.6476 H   0  0  0  0  0  0  0  0  0  0  0  0
    4.5941   -7.8470    3.6647 H   0  0  0  0  0  0  0  0  0  0  0  0
    4.2689   -6.2871    5.2254 H   0  0  0  0  0  0  0  0  0  0  0  0
    7.5504   -5.3137    3.8877 H   0  0  0  0  0  0  0  0  0  0  0  0
    6.6690   -6.7441    3.4296 H   0  0  0  0  0  0  0  0  0  0  0  0
    6.6889   -6.2209    5.1119 H   0  0  0  0  0  0  0  0  0  0  0  0
    6.0922   -3.9534    5.6601 H   0  0  0  0  0  0  0  0  0  0  0  0
    5.5236   -2.8024    4.5367 H   0  0  0  0  0  0  0  0  0  0  0  0
    4.1599   -4.6755    6.3491 H   0  0  0  0  0  0  0  0  0  0  0  0
    6.1171   -4.9951    1.8659 H   0  0  0  0  0  0  0  0  0  0  0  0
    3.4909   -4.6397   -1.0788 H   0  0  0  0  0  0  0  0  0  0  0  0
    1.8009   -2.5220   -0.7206 H   0  0  0  0  0  0  0  0  0  0  0  0
    3.4367   -1.8464   -0.1210 H   0  0  0  0  0  0  0  0  0  0  0  0
  1  2  1  0
  1 32  1  0
  1 33  1  0
  1 34  1  0
  2 31  1  0
  2  3  1  0
  2  4  1  0
  3 35  1  0
  3 36  1  0
  3 37  1  0
  4  5  1  0
  4 38  1  0
  4 39  1  0
  5  6  1  0
  5 40  1  0
  5 41  1  0
  6  7  1  0
  6  8  1  0
  6 42  1  6
  7 43  1  0
  8 31  1  0
  8  9  1  1
  8 10  1  0
  9 44  1  0
  9 45  1  0
  9 46  1  0
 10 28  1  0
 10 11  1  0
 10 47  1  1
 11 12  1  0
 11 48  1  0
 11 49  1  0
 12 27  1  0
 12 13  1  0
 12 50  1  1
 13 14  1  0
 14 15  1  6
 14 16  1  0
 14 29  1  0
 15 51  1  0
 15 52  1  0
 15 53  1  0
 16 28  1  0
 16 17  2  0
 17 18  1  0
 17 54  1  0
 18 19  1  0
 18 55  1  0
 18 56  1  0
 19 27  1  0
 19 20  1  0
 19 57  1  1
 20 21  1  6
 20 22  1  0
 20 28  1  0
 21 58  1  0
 21 59  1  0
 21 60  1  0
 22 23  1  0
 22 61  1  0
 22 62  1  0
 23 27  1  0
 23 24  1  0
 23 63  1  1
 24 25  1  0
 25 26  2  0
 27 25  1  1
 28 64  1  6
 29 30  1  0
 29 31  1  0
 29 65  1  6
 30 66  1  0
 31 67  1  1
M  END
>  <i_m_ct_stereo_status>  (130) 
1

>  <s_m_source_file>  (130) 
/var/tmp/pbs.5076255.sched01/tmpr6ewtwjb/42o4phu6d4.sdf

>  <i_m_source_file_index>  (130) 
19

>  <i_lp_mmshare_version>  (130) 
48012

>  <i_f3d_flags>  (130) 
1

>  <s_epik_input>  (130) 
W09IXVtDQEBIXTFbQ0gyXVtDSDJdQyhbQ0gzXSkoW0NIM10pW0NASF0oW0NAQF0xKFtDSDNdKVtDQEhdMltDSDJdW0NAQEhdM1tDQEBdNDU2KVtDQEhdKFtPSF0pW0NAQF0oTzMpKFtDSDNdKUM9N1tDQEBIXTJbQ0BdKFtDSDNdKShbQ0BASF00W0NIMl1bQ0hdNylbQ0gyXVtDQEhdNU9DNj1P

>  <s_epik_cmdline>  (130) 
J2VwaWtfcHl0aG9uJywgJy1waHQnLCAnMi4wJywgJy1waCcsICc3LjAnLCAnLXRuJywgJzgnLCAnLW1hJywgJzIwMCcsICctaW1hZScsICc8aW5maWxlLm1hZT4nLCAnLW9tYWUnLCAnPG91dGZpbGUubWFlPic=

>  <r_lp_tautomer_probability>  (130) 
1

>  <r_epik_Ionization_Penalty>  (130) 
1.4e-06

>  <r_epik_Ionization_Penalty_Charging>  (130) 
0

>  <r_epik_Ionization_Penalty_Neutral>  (130) 
1.4e-06

>  <r_epik_State_Penalty>  (130) 
-0

>  <r_epik_Charging_Adjusted_Penalty>  (130) 
0

>  <i_epik_Tot_Q>  (130) 
0

>  <i_epik_Tot_abs_Q>  (130) 
0

>  <s_epik_Chemistry_Notes>  (130) 
This compound has an ester and may undergo hydrolysis at high or low pH.

>  <s_lp_Force_Field>  (130) 
OPLS3e

>  <r_lp_Energy>  (130) 
203.85

>  <b_lp_Chiralities_Consistent>  (130) 
1

>  <s_lp_Variant>  (130) 
42:0-1

>  <s_i_glide_gridfile>  (130) 
pfpi4k_grid

>  <i_i_glide_lignum>  (130) 
19

>  <i_i_glide_rotatable_bonds>  (130) 
2

>  <r_i_docking_score>  (130) 
-2.63663

>  <r_i_glide_ligand_efficiency>  (130) 
-0.0850525

>  <r_i_glide_ligand_efficiency_sa>  (130) 
-0.267182

>  <r_i_glide_ligand_efficiency_ln>  (130) 
-0.594641

>  <r_i_glide_gscore>  (130) 
-2.63663

>  <r_i_glide_lipo>  (130) 
-0.68743

>  <r_i_glide_hbond>  (130) 
0

>  <r_i_glide_metal>  (130) 
-0

>  <r_i_glide_rewards>  (130) 
-0.487084

>  <r_i_glide_evdw>  (130) 
-23.6982

>  <r_i_glide_ecoul>  (130) 
-1.84802

>  <r_i_glide_erotb>  (130) 
0

>  <r_i_glide_esite>  (130) 
0

>  <r_i_glide_emodel>  (130) 
-28.8221

>  <r_i_glide_energy>  (130) 
-25.5463

>  <r_i_glide_einternal>  (130) 
1.72237

>  <r_i_glide_intrahb_reward>  (130) 
-0

>  <i_i_glide_confnum>  (130) 
1

>  <i_i_glide_posenum>  (130) 
9

>  <r_i_glide_eff_state_penalty>  (130) 
0

>  <ligand_id>  (130) 
42

>  <original_smiles>  (130) 
CC1(C)CCC(O)C2(C)C3CC4OC(C)(C5=CCC6C(C)(CC7OC(=O)C746)C53)C(O)C12

>  <smiles>  (130) 
[H]OC1([H])C2(C([H])([H])[H])OC3([H])C([H])([H])C([H])(C4([H])C2=C([H])C([H])([H])C2([H])C35C(=O)OC5([H])C([H])([H])C42C([H])([H])[H])C2(C([H])([H])[H])C([H])(O[H])C([H])([H])C([H])([H])C(C([H])([H])[H])(C([H])([H])[H])C12[H]

$$$$
42:0:2
     RDKit          3D

 67 73  0  0  1  0  0  0  0  0999 V2000
    4.7753   -0.8848   -2.1158 C   0  0  0  0  0  0  0  0  0  0  0  0
    4.4488   -2.3733   -1.8720 C   0  0  0  0  0  0  0  0  0  0  0  0
    3.3368   -2.6422   -2.9253 C   0  0  0  0  0  0  0  0  0  0  0  0
    5.6419   -3.2610   -2.2867 C   0  0  0  0  0  0  0  0  0  0  0  0
    6.8486   -3.1200   -1.3594 C   0  0  0  0  0  0  0  0  0  0  0  0
    6.4634   -3.4430    0.0910 C   0  0  1  0  0  0  0  0  0  0  0  0
    7.6305   -3.3071    0.8750 O   0  0  0  0  0  0  0  0  0  0  0  0
    5.2687   -2.6046    0.6735 C   0  0  2  0  0  0  0  0  0  0  0  0
    5.7251   -1.1129    0.8385 C   0  0  0  0  0  0  0  0  0  0  0  0
    4.8991   -3.0647    2.1491 C   0  0  1  0  0  0  0  0  0  0  0  0
    3.5796   -2.4802    2.7306 C   0  0  0  0  0  0  0  0  0  0  0  0
    2.5570   -3.5474    3.2135 C   0  0  1  0  0  0  0  0  0  0  0  0
    1.9852   -4.1736    2.0760 O   0  0  0  0  0  0  0  0  0  0  0  0
    2.7944   -4.7954    1.0678 C   0  0  2  0  0  0  0  0  0  0  0  0
    1.7352   -5.8548    0.6378 C   0  0  0  0  0  0  0  0  0  0  0  0
    4.0120   -5.4646    1.7520 C   0  0  0  0  0  0  0  0  0  0  0  0
    3.8265   -6.7255    2.1827 C   0  0  0  0  0  0  0  0  0  0  0  0
    3.6655   -6.9320    3.6560 C   0  0  0  0  0  0  0  0  0  0  0  0
    3.8654   -5.6414    4.4683 C   0  0  1  0  0  0  0  0  0  0  0  0
    5.1442   -4.8540    4.0914 C   0  0  2  0  0  0  0  0  0  0  0  0
    6.3992   -5.6904    4.4228 C   0  0  0  0  0  0  0  0  0  0  0  0
    5.0588   -3.6158    5.0885 C   0  0  0  0  0  0  0  0  0  0  0  0
    3.6667   -3.7981    5.6357 C   0  0  1  0  0  0  0  0  0  0  0  0
    2.5242   -2.9764    5.9442 O   0  0  0  0  0  0  0  0  0  0  0  0
    1.7880   -4.0848    5.5751 C   0  0  0  0  0  0  0  0  0  0  0  0
    0.6837   -4.4859    5.9311 O   0  0  0  0  0  0  0  0  0  0  0  0
    2.8569   -4.4497    4.5125 C   0  0  1  0  0  0  0  0  0  0  0  0
    5.0203   -4.5632    2.5232 C   0  0  2  0  0  0  0  0  0  0  0  0
    3.1054   -3.9224   -0.2227 C   0  0  1  0  0  0  0  0  0  0  0  0
    1.8451   -3.4790   -0.7181 O   0  0  0  0  0  0  0  0  0  0  0  0
    4.0464   -2.6693   -0.3391 C   0  0  2  0  0  0  0  0  0  0  0  0
    4.6039   -0.5739   -3.1494 H   0  0  0  0  0  0  0  0  0  0  0  0
    5.8128   -0.6551   -1.9328 H   0  0  0  0  0  0  0  0  0  0  0  0
    4.1856   -0.2354   -1.4770 H   0  0  0  0  0  0  0  0  0  0  0  0
    3.0416   -3.6898   -2.9626 H   0  0  0  0  0  0  0  0  0  0  0  0
    3.6696   -2.4006   -3.9375 H   0  0  0  0  0  0  0  0  0  0  0  0
    2.4500   -2.0333   -2.7352 H   0  0  0  0  0  0  0  0  0  0  0  0
    5.3237   -4.3036   -2.2756 H   0  0  0  0  0  0  0  0  0  0  0  0
    5.9377   -3.0565   -3.3175 H   0  0  0  0  0  0  0  0  0  0  0  0
    7.6148   -3.8248   -1.6843 H   0  0  0  0  0  0  0  0  0  0  0  0
    7.3176   -2.1478   -1.4601 H   0  0  0  0  0  0  0  0  0  0  0  0
    6.1903   -4.4989    0.0830 H   0  0  0  0  0  0  0  0  0  0  0  0
    7.8875   -2.3919    0.8698 H   0  0  0  0  0  0  0  0  0  0  0  0
    4.8770   -0.4277    0.8584 H   0  0  0  0  0  0  0  0  0  0  0  0
    6.3942   -0.7769    0.0557 H   0  0  0  0  0  0  0  0  0  0  0  0
    6.2884   -0.9197    1.7520 H   0  0  0  0  0  0  0  0  0  0  0  0
    5.7170   -2.6465    2.7292 H   0  0  0  0  0  0  0  0  0  0  0  0
    3.7863   -1.7739    3.5336 H   0  0  0  0  0  0  0  0  0  0  0  0
    3.0754   -1.8509    2.0042 H   0  0  0  0  0  0  0  0  0  0  0  0
    1.7041   -2.9210    3.4848 H   0  0  0  0  0  0  0  0  0  0  0  0
    2.1668   -6.5198   -0.0818 H   0  0  0  0  0  0  0  0  0  0  0  0
    0.8523   -5.4660    0.1424 H   0  0  0  0  0  0  0  0  0  0  0  0
    1.3433   -6.4423    1.4691 H   0  0  0  0  0  0  0  0  0  0  0  0
    3.1934   -7.4452    1.6895 H   0  0  0  0  0  0  0  0  0  0  0  0
    2.6705   -7.3298    3.8545 H   0  0  0  0  0  0  0  0  0  0  0  0
    4.3781   -7.6958    3.9685 H   0  0  0  0  0  0  0  0  0  0  0  0
    3.9768   -6.0867    5.4598 H   0  0  0  0  0  0  0  0  0  0  0  0
    7.3023   -5.1060    4.2773 H   0  0  0  0  0  0  0  0  0  0  0  0
    6.4765   -6.5801    3.7981 H   0  0  0  0  0  0  0  0  0  0  0  0
    6.3951   -6.0136    5.4655 H   0  0  0  0  0  0  0  0  0  0  0  0
    5.7717   -3.7343    5.9038 H   0  0  0  0  0  0  0  0  0  0  0  0
    5.2612   -2.6207    4.7169 H   0  0  0  0  0  0  0  0  0  0  0  0
    3.8090   -4.4396    6.5211 H   0  0  0  0  0  0  0  0  0  0  0  0
    5.9822   -4.9036    2.1543 H   0  0  0  0  0  0  0  0  0  0  0  0
    3.4964   -4.6514   -0.9316 H   0  0  0  0  0  0  0  0  0  0  0  0
    1.8034   -2.5253   -0.7205 H   0  0  0  0  0  0  0  0  0  0  0  0
    3.4101   -1.8284   -0.0685 H   0  0  0  0  0  0  0  0  0  0  0  0
  1  2  1  0
  1 32  1  0
  1 33  1  0
  1 34  1  0
  2 31  1  0
  2  3  1  0
  2  4  1  0
  3 35  1  0
  3 36  1  0
  3 37  1  0
  4  5  1  0
  4 38  1  0
  4 39  1  0
  5  6  1  0
  5 40  1  0
  5 41  1  0
  6  7  1  0
  6  8  1  0
  6 42  1  6
  7 43  1  0
  8 31  1  0
  8  9  1  1
  8 10  1  0
  9 44  1  0
  9 45  1  0
  9 46  1  0
 10 28  1  0
 10 11  1  0
 10 47  1  1
 11 12  1  0
 11 48  1  0
 11 49  1  0
 12 27  1  0
 12 13  1  0
 12 50  1  1
 13 14  1  0
 14 15  1  6
 14 16  1  0
 14 29  1  0
 15 51  1  0
 15 52  1  0
 15 53  1  0
 16 28  1  0
 16 17  2  0
 17 18  1  0
 17 54  1  0
 18 19  1  0
 18 55  1  0
 18 56  1  0
 19 27  1  0
 19 20  1  0
 19 57  1  1
 20 21  1  6
 20 22  1  0
 20 28  1  0
 21 58  1  0
 21 59  1  0
 21 60  1  0
 22 23  1  0
 22 61  1  0
 22 62  1  0
 23 27  1  0
 23 24  1  0
 23 63  1  1
 24 25  1  0
 25 26  2  0
 27 25  1  1
 28 64  1  6
 29 30  1  0
 29 31  1  0
 29 65  1  6
 30 66  1  0
 31 67  1  1
M  END
>  <i_m_ct_stereo_status>  (131) 
1

>  <s_m_source_file>  (131) 
/var/tmp/pbs.5076255.sched01/tmpr6ewtwjb/42o4phu6d4.sdf

>  <i_m_source_file_index>  (131) 
19

>  <i_lp_mmshare_version>  (131) 
48012

>  <i_f3d_flags>  (131) 
1

>  <s_epik_input>  (131) 
W09IXVtDQEBIXTFbQ0gyXVtDSDJdQyhbQ0gzXSkoW0NIM10pW0NASF0oW0NAQF0xKFtDSDNdKVtDQEhdMltDSDJdW0NAQEhdM1tDQEBdNDU2KVtDQEhdKFtPSF0pW0NAQF0oTzMpKFtDSDNdKUM9N1tDQEBIXTJbQ0BdKFtDSDNdKShbQ0BASF00W0NIMl1bQ0hdNylbQ0gyXVtDQEhdNU9DNj1P

>  <s_epik_cmdline>  (131) 
J2VwaWtfcHl0aG9uJywgJy1waHQnLCAnMi4wJywgJy1waCcsICc3LjAnLCAnLXRuJywgJzgnLCAnLW1hJywgJzIwMCcsICctaW1hZScsICc8aW5maWxlLm1hZT4nLCAnLW9tYWUnLCAnPG91dGZpbGUubWFlPic=

>  <r_lp_tautomer_probability>  (131) 
1

>  <r_epik_Ionization_Penalty>  (131) 
1.4e-06

>  <r_epik_Ionization_Penalty_Charging>  (131) 
0

>  <r_epik_Ionization_Penalty_Neutral>  (131) 
1.4e-06

>  <r_epik_State_Penalty>  (131) 
-0

>  <r_epik_Charging_Adjusted_Penalty>  (131) 
0

>  <i_epik_Tot_Q>  (131) 
0

>  <i_epik_Tot_abs_Q>  (131) 
0

>  <s_epik_Chemistry_Notes>  (131) 
This compound has an ester and may undergo hydrolysis at high or low pH.

>  <s_lp_Force_Field>  (131) 
OPLS3e

>  <r_lp_Energy>  (131) 
203.85

>  <b_lp_Chiralities_Consistent>  (131) 
1

>  <s_lp_Variant>  (131) 
42:0-1

>  <s_i_glide_gridfile>  (131) 
pfpi4k_grid

>  <i_i_glide_lignum>  (131) 
19

>  <i_i_glide_rotatable_bonds>  (131) 
2

>  <r_i_docking_score>  (131) 
-2.57592

>  <r_i_glide_ligand_efficiency>  (131) 
-0.0830941

>  <r_i_glide_ligand_efficiency_sa>  (131) 
-0.26103

>  <r_i_glide_ligand_efficiency_ln>  (131) 
-0.580948

>  <r_i_glide_gscore>  (131) 
-2.57592

>  <r_i_glide_lipo>  (131) 
-0.647173

>  <r_i_glide_hbond>  (131) 
0

>  <r_i_glide_metal>  (131) 
-0

>  <r_i_glide_rewards>  (131) 
-0.487084

>  <r_i_glide_evdw>  (131) 
-23.1846

>  <r_i_glide_ecoul>  (131) 
-1.88286

>  <r_i_glide_erotb>  (131) 
0

>  <r_i_glide_esite>  (131) 
0

>  <r_i_glide_emodel>  (131) 
-28.4524

>  <r_i_glide_energy>  (131) 
-25.0675

>  <r_i_glide_einternal>  (131) 
1.38237

>  <r_i_glide_intrahb_reward>  (131) 
-0

>  <i_i_glide_confnum>  (131) 
1

>  <i_i_glide_posenum>  (131) 
25

>  <r_i_glide_eff_state_penalty>  (131) 
0

>  <ligand_id>  (131) 
42

>  <original_smiles>  (131) 
CC1(C)CCC(O)C2(C)C3CC4OC(C)(C5=CCC6C(C)(CC7OC(=O)C746)C53)C(O)C12

>  <smiles>  (131) 
[H]OC1([H])C2(C([H])([H])[H])OC3([H])C([H])([H])C([H])(C4([H])C2=C([H])C([H])([H])C2([H])C35C(=O)OC5([H])C([H])([H])C42C([H])([H])[H])C2(C([H])([H])[H])C([H])(O[H])C([H])([H])C([H])([H])C(C([H])([H])[H])(C([H])([H])[H])C12[H]

$$$$
44:0:0
     RDKit          3D

 44 47  0  0  1  0  0  0  0  0999 V2000
    8.3376   -4.6686    0.9520 C   0  0  0  0  0  0  0  0  0  0  0  0
    7.0731   -4.1535    0.2375 C   0  0  2  0  0  0  0  0  0  0  0  0
    7.4899   -3.0846   -0.7773 C   0  0  0  0  0  0  0  0  0  0  0  0
    6.2817   -2.6218   -1.5751 C   0  0  0  0  0  0  0  0  0  0  0  0
    5.1773   -2.0409   -0.6653 C   0  0  1  0  0  0  0  0  0  0  0  0
    3.9401   -1.5227   -1.4336 C   0  0  1  0  0  0  0  0  0  0  0  0
    4.2656   -0.6592   -2.6724 C   0  0  0  0  0  0  0  0  0  0  0  0
    2.9932   -2.6697   -1.8094 C   0  0  1  0  0  0  0  0  0  0  0  0
    3.5372   -3.4542   -2.8441 O   0  0  0  0  0  0  0  0  0  0  0  0
    2.6553   -3.4157   -0.6696 O   0  0  0  0  0  0  0  0  0  0  0  0
    3.7232   -4.0353   -0.0109 C   0  0  2  0  0  0  0  0  0  0  0  0
    3.2198   -4.8193    1.0459 O   0  0  0  0  0  0  0  0  0  0  0  0
    3.1343   -4.1411    2.2952 C   0  0  1  0  0  0  0  0  0  0  0  0
    1.9157   -4.6889    3.0455 C   0  0  0  0  0  0  0  0  0  0  0  0
    4.4110   -4.4051    3.1199 C   0  0  0  0  0  0  0  0  0  0  0  0
    5.6385   -4.7043    2.2562 C   0  0  0  0  0  0  0  0  0  0  0  0
    6.0000   -3.6196    1.2163 C   0  0  2  0  0  0  0  0  0  0  0  0
    4.7598   -2.9682    0.5084 C   0  0  1  0  0  0  0  0  0  0  0  0
    4.1714   -2.1311    1.5148 O   0  0  0  0  0  0  0  0  0  0  0  0
    2.9192   -2.7534    2.1050 O   0  0  0  0  0  0  0  0  0  0  0  0
    8.7536   -3.9030    1.6082 H   0  0  0  0  0  0  0  0  0  0  0  0
    9.1144   -4.9315    0.2346 H   0  0  0  0  0  0  0  0  0  0  0  0
    8.1516   -5.5592    1.5503 H   0  0  0  0  0  0  0  0  0  0  0  0
    6.6328   -4.9891   -0.3089 H   0  0  0  0  0  0  0  0  0  0  0  0
    7.9827   -2.2427   -0.2819 H   0  0  0  0  0  0  0  0  0  0  0  0
    8.2145   -3.4981   -1.4821 H   0  0  0  0  0  0  0  0  0  0  0  0
    6.6352   -1.8720   -2.2839 H   0  0  0  0  0  0  0  0  0  0  0  0
    5.9093   -3.4719   -2.1500 H   0  0  0  0  0  0  0  0  0  0  0  0
    5.6289   -1.1695   -0.1945 H   0  0  0  0  0  0  0  0  0  0  0  0
    3.3763   -0.8980   -0.7413 H   0  0  0  0  0  0  0  0  0  0  0  0
    4.7911   -1.2135   -3.4471 H   0  0  0  0  0  0  0  0  0  0  0  0
    4.9058    0.1675   -2.3761 H   0  0  0  0  0  0  0  0  0  0  0  0
    3.3667   -0.2243   -3.1206 H   0  0  0  0  0  0  0  0  0  0  0  0
    2.0508   -2.2648   -2.1864 H   0  0  0  0  0  0  0  0  0  0  0  0
    3.1810   -4.3330   -2.7607 H   0  0  0  0  0  0  0  0  0  0  0  0
    4.1943   -4.7297   -0.7098 H   0  0  0  0  0  0  0  0  0  0  0  0
    1.0017   -4.5386    2.4805 H   0  0  0  0  0  0  0  0  0  0  0  0
    1.7907   -4.1920    4.0092 H   0  0  0  0  0  0  0  0  0  0  0  0
    2.0092   -5.7606    3.2351 H   0  0  0  0  0  0  0  0  0  0  0  0
    4.6089   -3.5724    3.7977 H   0  0  0  0  0  0  0  0  0  0  0  0
    4.2726   -5.2785    3.7567 H   0  0  0  0  0  0  0  0  0  0  0  0
    6.4759   -4.8686    2.9334 H   0  0  0  0  0  0  0  0  0  0  0  0
    5.4755   -5.6587    1.7503 H   0  0  0  0  0  0  0  0  0  0  0  0
    6.4715   -2.8088    1.7748 H   0  0  0  0  0  0  0  0  0  0  0  0
  1  2  1  0
  1 21  1  0
  1 22  1  0
  1 23  1  0
  2 17  1  0
  2  3  1  0
  2 24  1  6
  3  4  1  0
  3 25  1  0
  3 26  1  0
  4  5  1  0
  4 27  1  0
  4 28  1  0
  5 18  1  0
  5  6  1  0
  5 29  1  1
  6  7  1  0
  6  8  1  0
  6 30  1  1
  7 31  1  0
  7 32  1  0
  7 33  1  0
  8  9  1  0
  8 10  1  0
  8 34  1  6
  9 35  1  0
 10 11  1  0
 11 18  1  0
 11 12  1  0
 11 36  1  6
 12 13  1  0
 13 20  1  0
 13 14  1  1
 13 15  1  0
 14 37  1  0
 14 38  1  0
 14 39  1  0
 15 16  1  0
 15 40  1  0
 15 41  1  0
 16 17  1  0
 16 42  1  0
 16 43  1  0
 17 18  1  0
 17 44  1  1
 18 19  1  1
 19 20  1  0
M  END
>  <i_m_ct_stereo_status>  (132) 
1

>  <s_m_source_file>  (132) 
/var/tmp/pbs.5076255.sched01/tmpr6ewtwjb/42o4phu6d4.sdf

>  <i_m_source_file_index>  (132) 
21

>  <i_lp_mmshare_version>  (132) 
48012

>  <i_f3d_flags>  (132) 
0

>  <s_epik_input>  (132) 
W0NAXTEyM1tDQEhdNFtDSDJdW0NIMl1bQ0BASF0oW0NIM10pW0NAQEhdMltDSDJdW0NIMl1bQ0BAXShbQ0gzXSkoT08zKU9bQ0BIXTFPW0NASF0oW09IXSlbQ0BASF00W0NIM10=

>  <s_epik_cmdline>  (132) 
J2VwaWtfcHl0aG9uJywgJy1waHQnLCAnMi4wJywgJy1waCcsICc3LjAnLCAnLXRuJywgJzgnLCAnLW1hJywgJzIwMCcsICctaW1hZScsICc8aW5maWxlLm1hZT4nLCAnLW9tYWUnLCAnPG91dGZpbGUubWFlPic=

>  <r_lp_tautomer_probability>  (132) 
1

>  <r_epik_Ionization_Penalty>  (132) 
3.16671e-07

>  <r_epik_Ionization_Penalty_Charging>  (132) 
0

>  <r_epik_Ionization_Penalty_Neutral>  (132) 
3.16671e-07

>  <r_epik_State_Penalty>  (132) 
-0

>  <r_epik_Charging_Adjusted_Penalty>  (132) 
0

>  <i_epik_Tot_Q>  (132) 
0

>  <i_epik_Tot_abs_Q>  (132) 
0

>  <s_epik_Chemistry_Notes>  (132) 
This compound contains an acetal/aminal-like group ( X-CH(R)-Y where X, Y are N, S, or O) that may be acid/base labile, releasing an aldehyde.

>  <s_lp_Force_Field>  (132) 
OPLS3e

>  <r_lp_Energy>  (132) 
38.2997

>  <b_lp_Chiralities_Consistent>  (132) 
1

>  <s_lp_Variant>  (132) 
44:0-1

>  <s_i_glide_gridfile>  (132) 
pfpi4k_grid

>  <i_i_glide_lignum>  (132) 
21

>  <i_i_glide_rotatable_bonds>  (132) 
1

>  <r_i_docking_score>  (132) 
-3.88187

>  <r_i_glide_ligand_efficiency>  (132) 
-0.194094

>  <r_i_glide_ligand_efficiency_sa>  (132) 
-0.526851

>  <r_i_glide_ligand_efficiency_ln>  (132) 
-0.971504

>  <r_i_glide_gscore>  (132) 
-3.88187

>  <r_i_glide_lipo>  (132) 
-0.47571

>  <r_i_glide_hbond>  (132) 
0

>  <r_i_glide_metal>  (132) 
-0

>  <r_i_glide_rewards>  (132) 
-1.4705

>  <r_i_glide_evdw>  (132) 
-23.6353

>  <r_i_glide_ecoul>  (132) 
-4.72279

>  <r_i_glide_erotb>  (132) 
0

>  <r_i_glide_esite>  (132) 
-0.0454736

>  <r_i_glide_emodel>  (132) 
-34.0389

>  <r_i_glide_energy>  (132) 
-28.3581

>  <r_i_glide_einternal>  (132) 
1.19966

>  <r_i_glide_intrahb_reward>  (132) 
-0

>  <i_i_glide_confnum>  (132) 
2

>  <i_i_glide_posenum>  (132) 
1

>  <r_i_glide_eff_state_penalty>  (132) 
0

>  <ligand_id>  (132) 
44

>  <original_smiles>  (132) 
CC1CCC2C(C)C(O)OC3OC4(C)CCC1C32OO4

>  <smiles>  (132) 
[H]OC1([H])OC2([H])OC3(C([H])([H])[H])OOC24C([H])(C([H])([H])C([H])([H])C([H])(C([H])([H])[H])C4([H])C([H])([H])C3([H])[H])C1([H])C([H])([H])[H]

$$$$
44:0:1
     RDKit          3D

 44 47  0  0  1  0  0  0  0  0999 V2000
    5.0404   -0.9078    3.3510 C   0  0  0  0  0  0  0  0  0  0  0  0
    5.0508   -1.5182    1.9400 C   0  0  2  0  0  0  0  0  0  0  0  0
    4.6979   -0.4229    0.9352 C   0  0  0  0  0  0  0  0  0  0  0  0
    4.7730   -0.9576   -0.4750 C   0  0  0  0  0  0  0  0  0  0  0  0
    3.8331   -2.1482   -0.7111 C   0  0  1  0  0  0  0  0  0  0  0  0
    3.8391   -2.6831   -2.1664 C   0  0  1  0  0  0  0  0  0  0  0  0
    3.7469   -1.6098   -3.2882 C   0  0  0  0  0  0  0  0  0  0  0  0
    5.0274   -3.6309   -2.3792 C   0  0  1  0  0  0  0  0  0  0  0  0
    6.2601   -2.9492   -2.4331 O   0  0  0  0  0  0  0  0  0  0  0  0
    5.0059   -4.6509   -1.4059 O   0  0  0  0  0  0  0  0  0  0  0  0
    5.1603   -4.2163   -0.0825 C   0  0  2  0  0  0  0  0  0  0  0  0
    5.2490   -5.3322    0.7636 O   0  0  0  0  0  0  0  0  0  0  0  0
    4.0004   -5.8034    1.2661 C   0  0  1  0  0  0  0  0  0  0  0  0
    4.0841   -7.3314    1.3808 C   0  0  0  0  0  0  0  0  0  0  0  0
    3.7324   -5.1721    2.6501 C   0  0  0  0  0  0  0  0  0  0  0  0
    4.4258   -3.8180    2.8446 C   0  0  0  0  0  0  0  0  0  0  0  0
    4.0986   -2.7380    1.7918 C   0  0  2  0  0  0  0  0  0  0  0  0
    3.9657   -3.2891    0.3288 C   0  0  1  0  0  0  0  0  0  0  0  0
    2.7249   -4.0087    0.3206 O   0  0  0  0  0  0  0  0  0  0  0  0
    2.9415   -5.5066    0.3717 O   0  0  0  0  0  0  0  0  0  0  0  0
    4.0240   -0.6535    3.6523 H   0  0  0  0  0  0  0  0  0  0  0  0
    5.6318    0.0122    3.3930 H   0  0  0  0  0  0  0  0  0  0  0  0
    5.4548   -1.5833    4.1001 H   0  0  0  0  0  0  0  0  0  0  0  0
    6.0635   -1.8540    1.7141 H   0  0  0  0  0  0  0  0  0  0  0  0
    3.7107   -0.0041    1.1329 H   0  0  0  0  0  0  0  0  0  0  0  0
    5.4115    0.3947    1.0082 H   0  0  0  0  0  0  0  0  0  0  0  0
    4.5221   -0.1289   -1.1310 H   0  0  0  0  0  0  0  0  0  0  0  0
    5.8166   -1.2064   -0.6612 H   0  0  0  0  0  0  0  0  0  0  0  0
    2.8396   -1.7444   -0.5532 H   0  0  0  0  0  0  0  0  0  0  0  0
    2.9632   -3.3268   -2.2646 H   0  0  0  0  0  0  0  0  0  0  0  0
    4.6118   -0.9505   -3.3132 H   0  0  0  0  0  0  0  0  0  0  0  0
    2.8636   -0.9842   -3.1499 H   0  0  0  0  0  0  0  0  0  0  0  0
    3.6601   -2.0619   -4.2838 H   0  0  0  0  0  0  0  0  0  0  0  0
    4.9300   -4.1542   -3.3226 H   0  0  0  0  0  0  0  0  0  0  0  0
    6.9281   -3.5177   -2.8174 H   0  0  0  0  0  0  0  0  0  0  0  0
    6.1099   -3.6941    0.0257 H   0  0  0  0  0  0  0  0  0  0  0  0
    4.2999   -7.7928    0.4111 H   0  0  0  0  0  0  0  0  0  0  0  0
    3.1429   -7.7460    1.7467 H   0  0  0  0  0  0  0  0  0  0  0  0
    4.8738   -7.6357    2.0715 H   0  0  0  0  0  0  0  0  0  0  0  0
    2.6605   -5.0822    2.8298 H   0  0  0  0  0  0  0  0  0  0  0  0
    4.1151   -5.8151    3.4425 H   0  0  0  0  0  0  0  0  0  0  0  0
    4.1540   -3.4658    3.8364 H   0  0  0  0  0  0  0  0  0  0  0  0
    5.5025   -3.9840    2.8671 H   0  0  0  0  0  0  0  0  0  0  0  0
    3.1012   -2.3661    2.0395 H   0  0  0  0  0  0  0  0  0  0  0  0
  1  2  1  0
  1 21  1  0
  1 22  1  0
  1 23  1  0
  2 17  1  0
  2  3  1  0
  2 24  1  6
  3  4  1  0
  3 25  1  0
  3 26  1  0
  4  5  1  0
  4 27  1  0
  4 28  1  0
  5 18  1  0
  5  6  1  0
  5 29  1  1
  6  7  1  0
  6  8  1  0
  6 30  1  1
  7 31  1  0
  7 32  1  0
  7 33  1  0
  8  9  1  0
  8 10  1  0
  8 34  1  6
  9 35  1  0
 10 11  1  0
 11 18  1  0
 11 12  1  0
 11 36  1  6
 12 13  1  0
 13 20  1  0
 13 14  1  1
 13 15  1  0
 14 37  1  0
 14 38  1  0
 14 39  1  0
 15 16  1  0
 15 40  1  0
 15 41  1  0
 16 17  1  0
 16 42  1  0
 16 43  1  0
 17 18  1  0
 17 44  1  1
 18 19  1  1
 19 20  1  0
M  END
>  <i_m_ct_stereo_status>  (133) 
1

>  <s_m_source_file>  (133) 
/var/tmp/pbs.5076255.sched01/tmpr6ewtwjb/42o4phu6d4.sdf

>  <i_m_source_file_index>  (133) 
21

>  <i_lp_mmshare_version>  (133) 
48012

>  <i_f3d_flags>  (133) 
0

>  <s_epik_input>  (133) 
W0NAXTEyM1tDQEhdNFtDSDJdW0NIMl1bQ0BASF0oW0NIM10pW0NAQEhdMltDSDJdW0NIMl1bQ0BAXShbQ0gzXSkoT08zKU9bQ0BIXTFPW0NASF0oW09IXSlbQ0BASF00W0NIM10=

>  <s_epik_cmdline>  (133) 
J2VwaWtfcHl0aG9uJywgJy1waHQnLCAnMi4wJywgJy1waCcsICc3LjAnLCAnLXRuJywgJzgnLCAnLW1hJywgJzIwMCcsICctaW1hZScsICc8aW5maWxlLm1hZT4nLCAnLW9tYWUnLCAnPG91dGZpbGUubWFlPic=

>  <r_lp_tautomer_probability>  (133) 
1

>  <r_epik_Ionization_Penalty>  (133) 
3.16671e-07

>  <r_epik_Ionization_Penalty_Charging>  (133) 
0

>  <r_epik_Ionization_Penalty_Neutral>  (133) 
3.16671e-07

>  <r_epik_State_Penalty>  (133) 
-0

>  <r_epik_Charging_Adjusted_Penalty>  (133) 
0

>  <i_epik_Tot_Q>  (133) 
0

>  <i_epik_Tot_abs_Q>  (133) 
0

>  <s_epik_Chemistry_Notes>  (133) 
This compound contains an acetal/aminal-like group ( X-CH(R)-Y where X, Y are N, S, or O) that may be acid/base labile, releasing an aldehyde.

>  <s_lp_Force_Field>  (133) 
OPLS3e

>  <r_lp_Energy>  (133) 
38.2997

>  <b_lp_Chiralities_Consistent>  (133) 
1

>  <s_lp_Variant>  (133) 
44:0-1

>  <s_i_glide_gridfile>  (133) 
pfpi4k_grid

>  <i_i_glide_lignum>  (133) 
21

>  <i_i_glide_rotatable_bonds>  (133) 
1

>  <r_i_docking_score>  (133) 
-3.576

>  <r_i_glide_ligand_efficiency>  (133) 
-0.1788

>  <r_i_glide_ligand_efficiency_sa>  (133) 
-0.485337

>  <r_i_glide_ligand_efficiency_ln>  (133) 
-0.894954

>  <r_i_glide_gscore>  (133) 
-3.576

>  <r_i_glide_lipo>  (133) 
-0.569987

>  <r_i_glide_hbond>  (133) 
0

>  <r_i_glide_metal>  (133) 
-0

>  <r_i_glide_rewards>  (133) 
-1.70628

>  <r_i_glide_evdw>  (133) 
-25.0479

>  <r_i_glide_ecoul>  (133) 
-0.31554

>  <r_i_glide_erotb>  (133) 
0

>  <r_i_glide_esite>  (133) 
0

>  <r_i_glide_emodel>  (133) 
-31.125

>  <r_i_glide_energy>  (133) 
-25.3635

>  <r_i_glide_einternal>  (133) 
0.414949

>  <r_i_glide_intrahb_reward>  (133) 
-0

>  <i_i_glide_confnum>  (133) 
1

>  <i_i_glide_posenum>  (133) 
33

>  <r_i_glide_eff_state_penalty>  (133) 
0

>  <ligand_id>  (133) 
44

>  <original_smiles>  (133) 
CC1CCC2C(C)C(O)OC3OC4(C)CCC1C32OO4

>  <smiles>  (133) 
[H]OC1([H])OC2([H])OC3(C([H])([H])[H])OOC24C([H])(C([H])([H])C([H])([H])C([H])(C([H])([H])[H])C4([H])C([H])([H])C3([H])[H])C1([H])C([H])([H])[H]

$$$$
44:0:2
     RDKit          3D

 44 47  0  0  1  0  0  0  0  0999 V2000
    4.4690   -1.5834    4.2180 C   0  0  0  0  0  0  0  0  0  0  0  0
    4.6969   -1.8903    2.7296 C   0  0  2  0  0  0  0  0  0  0  0  0
    4.3033   -0.6601    1.9115 C   0  0  0  0  0  0  0  0  0  0  0  0
    4.5880   -0.8803    0.4374 C   0  0  0  0  0  0  0  0  0  0  0  0
    3.8407   -2.1174   -0.1185 C   0  0  1  0  0  0  0  0  0  0  0  0
    4.0697   -2.3660   -1.6286 C   0  0  1  0  0  0  0  0  0  0  0  0
    3.9589   -1.1102   -2.5243 C   0  0  0  0  0  0  0  0  0  0  0  0
    5.4030   -3.1087   -1.8604 C   0  0  1  0  0  0  0  0  0  0  0  0
    6.5279   -2.2993   -1.5944 O   0  0  0  0  0  0  0  0  0  0  0  0
    5.4034   -4.2924   -1.1096 O   0  0  0  0  0  0  0  0  0  0  0  0
    5.3577   -4.1297    0.2846 C   0  0  2  0  0  0  0  0  0  0  0  0
    5.5123   -5.3670    0.9278 O   0  0  0  0  0  0  0  0  0  0  0  0
    4.2868   -6.0521    1.1788 C   0  0  1  0  0  0  0  0  0  0  0  0
    4.5656   -7.5534    1.0338 C   0  0  0  0  0  0  0  0  0  0  0  0
    3.8102   -5.7329    2.6088 C   0  0  0  0  0  0  0  0  0  0  0  0
    4.2963   -4.3747    3.1283 C   0  0  0  0  0  0  0  0  0  0  0  0
    3.9325   -3.1554    2.2524 C   0  0  2  0  0  0  0  0  0  0  0  0
    4.0201   -3.4198    0.7113 C   0  0  1  0  0  0  0  0  0  0  0  0
    2.8893   -4.2554    0.4245 O   0  0  0  0  0  0  0  0  0  0  0  0
    3.2955   -5.7017    0.2254 O   0  0  0  0  0  0  0  0  0  0  0  0
    3.4030   -1.5120    4.4347 H   0  0  0  0  0  0  0  0  0  0  0  0
    4.9155   -0.6296    4.5010 H   0  0  0  0  0  0  0  0  0  0  0  0
    4.8994   -2.3425    4.8761 H   0  0  0  0  0  0  0  0  0  0  0  0
    5.7666   -2.0625    2.5850 H   0  0  0  0  0  0  0  0  0  0  0  0
    3.2528   -0.4071    2.0682 H   0  0  0  0  0  0  0  0  0  0  0  0
    4.8879    0.1950    2.2512 H   0  0  0  0  0  0  0  0  0  0  0  0
    4.2872    0.0279   -0.0800 H   0  0  0  0  0  0  0  0  0  0  0  0
    5.6669   -0.9718    0.3274 H   0  0  0  0  0  0  0  0  0  0  0  0
    2.7893   -1.8538   -0.0215 H   0  0  0  0  0  0  0  0  0  0  0  0
    3.2884   -3.0562   -1.9607 H   0  0  0  0  0  0  0  0  0  0  0  0
    4.7098   -0.3524   -2.2899 H   0  0  0  0  0  0  0  0  0  0  0  0
    2.9841   -0.6469   -2.4008 H   0  0  0  0  0  0  0  0  0  0  0  0
    4.0514   -1.3499   -3.5851 H   0  0  0  0  0  0  0  0  0  0  0  0
    5.4761   -3.4285   -2.8943 H   0  0  0  0  0  0  0  0  0  0  0  0
    6.4649   -2.0244   -0.6948 H   0  0  0  0  0  0  0  0  0  0  0  0
    6.2215   -3.5405    0.5970 H   0  0  0  0  0  0  0  0  0  0  0  0
    4.9361   -7.7943    0.0378 H   0  0  0  0  0  0  0  0  0  0  0  0
    3.6573   -8.1353    1.2001 H   0  0  0  0  0  0  0  0  0  0  0  0
    5.3156   -7.8926    1.7512 H   0  0  0  0  0  0  0  0  0  0  0  0
    2.7254   -5.8038    2.6680 H   0  0  0  0  0  0  0  0  0  0  0  0
    4.1955   -6.4791    3.3053 H   0  0  0  0  0  0  0  0  0  0  0  0
    3.8859   -4.2459    4.1286 H   0  0  0  0  0  0  0  0  0  0  0  0
    5.3792   -4.4219    3.2529 H   0  0  0  0  0  0  0  0  0  0  0  0
    2.8779   -2.9510    2.4450 H   0  0  0  0  0  0  0  0  0  0  0  0
  1  2  1  0
  1 21  1  0
  1 22  1  0
  1 23  1  0
  2 17  1  0
  2  3  1  0
  2 24  1  1
  3  4  1  0
  3 25  1  0
  3 26  1  0
  4  5  1  0
  4 27  1  0
  4 28  1  0
  5 18  1  0
  5  6  1  0
  5 29  1  6
  6  7  1  0
  6  8  1  0
  6 30  1  6
  7 31  1  0
  7 32  1  0
  7 33  1  0
  8  9  1  0
  8 10  1  0
  8 34  1  6
  9 35  1  0
 10 11  1  0
 11 18  1  0
 11 12  1  0
 11 36  1  1
 12 13  1  0
 13 20  1  0
 13 14  1  1
 13 15  1  0
 14 37  1  0
 14 38  1  0
 14 39  1  0
 15 16  1  0
 15 40  1  0
 15 41  1  0
 16 17  1  0
 16 42  1  0
 16 43  1  0
 17 18  1  0
 17 44  1  6
 18 19  1  6
 19 20  1  0
M  END
>  <i_m_ct_stereo_status>  (134) 
1

>  <s_m_source_file>  (134) 
/var/tmp/pbs.5076255.sched01/tmpr6ewtwjb/42o4phu6d4.sdf

>  <i_m_source_file_index>  (134) 
21

>  <i_lp_mmshare_version>  (134) 
48012

>  <i_f3d_flags>  (134) 
0

>  <s_epik_input>  (134) 
W0NAXTEyM1tDQEhdNFtDSDJdW0NIMl1bQ0BASF0oW0NIM10pW0NAQEhdMltDSDJdW0NIMl1bQ0BAXShbQ0gzXSkoT08zKU9bQ0BIXTFPW0NASF0oW09IXSlbQ0BASF00W0NIM10=

>  <s_epik_cmdline>  (134) 
J2VwaWtfcHl0aG9uJywgJy1waHQnLCAnMi4wJywgJy1waCcsICc3LjAnLCAnLXRuJywgJzgnLCAnLW1hJywgJzIwMCcsICctaW1hZScsICc8aW5maWxlLm1hZT4nLCAnLW9tYWUnLCAnPG91dGZpbGUubWFlPic=

>  <r_lp_tautomer_probability>  (134) 
1

>  <r_epik_Ionization_Penalty>  (134) 
3.16671e-07

>  <r_epik_Ionization_Penalty_Charging>  (134) 
0

>  <r_epik_Ionization_Penalty_Neutral>  (134) 
3.16671e-07

>  <r_epik_State_Penalty>  (134) 
-0

>  <r_epik_Charging_Adjusted_Penalty>  (134) 
0

>  <i_epik_Tot_Q>  (134) 
0

>  <i_epik_Tot_abs_Q>  (134) 
0

>  <s_epik_Chemistry_Notes>  (134) 
This compound contains an acetal/aminal-like group ( X-CH(R)-Y where X, Y are N, S, or O) that may be acid/base labile, releasing an aldehyde.

>  <s_lp_Force_Field>  (134) 
OPLS3e

>  <r_lp_Energy>  (134) 
38.2997

>  <b_lp_Chiralities_Consistent>  (134) 
1

>  <s_lp_Variant>  (134) 
44:0-1

>  <s_i_glide_gridfile>  (134) 
pfpi4k_grid

>  <i_i_glide_lignum>  (134) 
21

>  <i_i_glide_rotatable_bonds>  (134) 
1

>  <r_i_docking_score>  (134) 
-3.28058

>  <r_i_glide_ligand_efficiency>  (134) 
-0.164029

>  <r_i_glide_ligand_efficiency_sa>  (134) 
-0.445243

>  <r_i_glide_ligand_efficiency_ln>  (134) 
-0.82102

>  <r_i_glide_gscore>  (134) 
-3.28058

>  <r_i_glide_lipo>  (134) 
-0.303692

>  <r_i_glide_hbond>  (134) 
0

>  <r_i_glide_metal>  (134) 
-0

>  <r_i_glide_rewards>  (134) 
-1.78366

>  <r_i_glide_evdw>  (134) 
-23.636

>  <r_i_glide_ecoul>  (134) 
-0.0761762

>  <r_i_glide_erotb>  (134) 
0

>  <r_i_glide_esite>  (134) 
0

>  <r_i_glide_emodel>  (134) 
-29.2077

>  <r_i_glide_energy>  (134) 
-23.7121

>  <r_i_glide_einternal>  (134) 
0.0658447

>  <r_i_glide_intrahb_reward>  (134) 
-0

>  <i_i_glide_confnum>  (134) 
2

>  <i_i_glide_posenum>  (134) 
34

>  <r_i_glide_eff_state_penalty>  (134) 
0

>  <ligand_id>  (134) 
44

>  <original_smiles>  (134) 
CC1CCC2C(C)C(O)OC3OC4(C)CCC1C32OO4

>  <smiles>  (134) 
[H]OC1([H])OC2([H])OC3(C([H])([H])[H])OOC24C([H])(C([H])([H])C([H])([H])C([H])(C([H])([H])[H])C4([H])C([H])([H])C3([H])[H])C1([H])C([H])([H])[H]

$$$$
45:0:0
     RDKit          3D

 54 57  0  0  1  0  0  0  0  0999 V2000
    4.2199   -6.2127    0.3152 C   0  0  0  0  0  0  0  0  0  0  0  0
    5.0477   -5.4529    1.3575 C   0  0  2  0  0  0  0  0  0  0  0  0
    4.5286   -5.7101    2.7666 C   0  0  0  0  0  0  0  0  0  0  0  0
    3.2505   -4.9213    3.0206 C   0  0  0  0  0  0  0  0  0  0  0  0
    3.4697   -3.4031    2.8023 C   0  0  2  0  0  0  0  0  0  0  0  0
    2.1997   -2.6172    3.2703 C   0  0  1  0  0  0  0  0  0  0  0  0
    1.6075   -3.0281    4.6456 C   0  0  0  0  0  0  0  0  0  0  0  0
    2.4693   -1.1069    3.2439 C   0  0  1  0  0  0  0  0  0  0  0  0
    3.4779   -0.7675    4.1849 O   0  0  0  0  0  0  0  0  0  0  0  0
    2.9357   -0.6928    1.8519 C   0  0  1  0  0  0  0  0  0  0  0  0
    3.0190    0.7213    1.8890 O   0  0  0  0  0  0  0  0  0  0  0  0
    4.2372   -1.4381    1.3922 C   0  0  2  0  0  0  0  0  0  0  0  0
    4.7611   -0.7876    0.0960 C   0  0  1  0  0  0  0  0  0  0  0  0
    6.1804   -0.7020    0.0799 O   0  0  0  0  0  0  0  0  0  0  0  0
    4.1201   -1.2664   -1.2202 C   0  0  1  0  0  0  0  0  0  0  0  0
    4.7058   -0.5220   -2.2742 O   0  0  0  0  0  0  0  0  0  0  0  0
    4.1731   -2.7630   -1.5666 C   0  0  1  0  0  0  0  0  0  0  0  0
    3.6991   -2.9252   -3.0500 C   0  0  0  0  0  0  0  0  0  0  0  0
    5.5257   -3.4756   -1.5076 C   0  0  0  0  0  0  0  0  0  0  0  0
    6.1550   -3.6915   -0.1282 C   0  0  0  0  0  0  0  0  0  0  0  0
    5.2508   -3.9395    1.0866 C   0  0  1  0  0  0  0  0  0  0  0  0
    4.0132   -3.0049    1.3564 C   0  0  1  0  0  0  0  0  0  0  0  0
    2.8464   -3.2032    0.5429 O   0  0  0  0  0  0  0  0  0  0  0  0
    3.2269   -3.6490   -0.9490 O   0  0  0  0  0  0  0  0  0  0  0  0
    3.1849   -5.8738    0.2942 H   0  0  0  0  0  0  0  0  0  0  0  0
    4.2102   -7.2840    0.5233 H   0  0  0  0  0  0  0  0  0  0  0  0
    4.6223   -6.0933   -0.6901 H   0  0  0  0  0  0  0  0  0  0  0  0
    6.0349   -5.9223    1.3280 H   0  0  0  0  0  0  0  0  0  0  0  0
    4.3674   -6.7789    2.9299 H   0  0  0  0  0  0  0  0  0  0  0  0
    5.2922   -5.4157    3.4931 H   0  0  0  0  0  0  0  0  0  0  0  0
    2.4493   -5.2953    2.3855 H   0  0  0  0  0  0  0  0  0  0  0  0
    2.9743   -5.1471    4.0505 H   0  0  0  0  0  0  0  0  0  0  0  0
    4.2500   -3.1446    3.5234 H   0  0  0  0  0  0  0  0  0  0  0  0
    1.4053   -2.8076    2.5520 H   0  0  0  0  0  0  0  0  0  0  0  0
    2.3598   -3.0334    5.4387 H   0  0  0  0  0  0  0  0  0  0  0  0
    1.1530   -4.0206    4.6028 H   0  0  0  0  0  0  0  0  0  0  0  0
    0.8115   -2.3443    4.9515 H   0  0  0  0  0  0  0  0  0  0  0  0
    1.5566   -0.5729    3.5048 H   0  0  0  0  0  0  0  0  0  0  0  0
    3.4797    0.1698    4.2856 H   0  0  0  0  0  0  0  0  0  0  0  0
    2.1377   -0.9201    1.1486 H   0  0  0  0  0  0  0  0  0  0  0  0
    3.7658    1.0095    2.3859 H   0  0  0  0  0  0  0  0  0  0  0  0
    4.9996   -1.2496    2.1481 H   0  0  0  0  0  0  0  0  0  0  0  0
    4.5229    0.2659    0.1226 H   0  0  0  0  0  0  0  0  0  0  0  0
    6.4742   -0.2293    0.8360 H   0  0  0  0  0  0  0  0  0  0  0  0
    3.0663   -0.9904   -1.2208 H   0  0  0  0  0  0  0  0  0  0  0  0
    4.6340    0.3913   -2.0453 H   0  0  0  0  0  0  0  0  0  0  0  0
    4.4212   -2.5173   -3.7639 H   0  0  0  0  0  0  0  0  0  0  0  0
    2.7435   -2.4226   -3.2412 H   0  0  0  0  0  0  0  0  0  0  0  0
    3.5635   -3.9743   -3.3437 H   0  0  0  0  0  0  0  0  0  0  0  0
    5.4097   -4.4590   -1.9700 H   0  0  0  0  0  0  0  0  0  0  0  0
    6.2432   -2.9456   -2.1374 H   0  0  0  0  0  0  0  0  0  0  0  0
    6.8273   -4.5409   -0.2243 H   0  0  0  0  0  0  0  0  0  0  0  0
    6.8655   -2.9085    0.1002 H   0  0  0  0  0  0  0  0  0  0  0  0
    5.9126   -3.6560    1.9089 H   0  0  0  0  0  0  0  0  0  0  0  0
  1  2  1  0
  1 25  1  0
  1 26  1  0
  1 27  1  0
  2 21  1  0
  2  3  1  0
  2 28  1  1
  3  4  1  0
  3 29  1  0
  3 30  1  0
  4  5  1  0
  4 31  1  0
  4 32  1  0
  5 22  1  0
  5  6  1  0
  5 33  1  1
  6  7  1  0
  6  8  1  0
  6 34  1  6
  7 35  1  0
  7 36  1  0
  7 37  1  0
  8  9  1  0
  8 10  1  0
  8 38  1  1
  9 39  1  0
 10 11  1  0
 10 12  1  0
 10 40  1  6
 11 41  1  0
 12 22  1  0
 12 13  1  0
 12 42  1  1
 13 14  1  0
 13 15  1  0
 13 43  1  1
 14 44  1  0
 15 16  1  0
 15 17  1  0
 15 45  1  1
 16 46  1  0
 17 24  1  0
 17 18  1  6
 17 19  1  0
 18 47  1  0
 18 48  1  0
 18 49  1  0
 19 20  1  0
 19 50  1  0
 19 51  1  0
 20 21  1  0
 20 52  1  0
 20 53  1  0
 21 22  1  0
 21 54  1  1
 22 23  1  6
 23 24  1  0
M  END
>  <i_m_ct_stereo_status>  (135) 
1

>  <s_m_source_file>  (135) 
/var/tmp/pbs.5076255.sched01/tmpr6ewtwjb/42o4phu6d4.sdf

>  <i_m_source_file_index>  (135) 
22

>  <i_lp_mmshare_version>  (135) 
48012

>  <i_f3d_flags>  (135) 
0

>  <s_epik_input>  (135) 
W0NAXTEyM1tDQEBIXTRbQ0gyXVtDSDJdW0NAQEhdKFtDSDNdKVtDQEhdMltDSDJdW0NIMl1bQ0BAXShbQ0gzXSkoT08zKVtDQEhdKFtPSF0pW0NASF0oW09IXSlbQ0BIXTFbQ0BIXShbT0hdKVtDQEhdKFtPSF0pW0NAQEhdNFtDSDNd

>  <s_epik_cmdline>  (135) 
J2VwaWtfcHl0aG9uJywgJy1waHQnLCAnMi4wJywgJy1waCcsICc3LjAnLCAnLXRuJywgJzgnLCAnLW1hJywgJzIwMCcsICctaW1hZScsICc8aW5maWxlLm1hZT4nLCAnLW9tYWUnLCAnPG91dGZpbGUubWFlPic=

>  <r_lp_tautomer_probability>  (135) 
1

>  <r_epik_Ionization_Penalty>  (135) 
3.65527e-07

>  <r_epik_Ionization_Penalty_Charging>  (135) 
0

>  <r_epik_Ionization_Penalty_Neutral>  (135) 
3.65527e-07

>  <r_epik_State_Penalty>  (135) 
-0

>  <r_epik_Charging_Adjusted_Penalty>  (135) 
0

>  <i_epik_Tot_Q>  (135) 
0

>  <i_epik_Tot_abs_Q>  (135) 
0

>  <s_lp_Force_Field>  (135) 
OPLS3e

>  <r_lp_Energy>  (135) 
51.5498

>  <b_lp_Chiralities_Consistent>  (135) 
1

>  <s_lp_Variant>  (135) 
45:0-1

>  <s_i_glide_gridfile>  (135) 
pfpi4k_grid

>  <i_i_glide_lignum>  (135) 
22

>  <i_i_glide_rotatable_bonds>  (135) 
4

>  <r_i_docking_score>  (135) 
-3.6278

>  <r_i_glide_ligand_efficiency>  (135) 
-0.151159

>  <r_i_glide_ligand_efficiency_sa>  (135) 
-0.436017

>  <r_i_glide_ligand_efficiency_ln>  (135) 
-0.8683

>  <r_i_glide_gscore>  (135) 
-3.6278

>  <r_i_glide_lipo>  (135) 
-0.485762

>  <r_i_glide_hbond>  (135) 
0

>  <r_i_glide_metal>  (135) 
-0

>  <r_i_glide_rewards>  (135) 
-1.07436

>  <r_i_glide_evdw>  (135) 
-26.4615

>  <r_i_glide_ecoul>  (135) 
-4.96406

>  <r_i_glide_erotb>  (135) 
0

>  <r_i_glide_esite>  (135) 
0

>  <r_i_glide_emodel>  (135) 
-36.749

>  <r_i_glide_energy>  (135) 
-31.4255

>  <r_i_glide_einternal>  (135) 
0.994968

>  <r_i_glide_intrahb_reward>  (135) 
-0

>  <i_i_glide_confnum>  (135) 
1

>  <i_i_glide_posenum>  (135) 
1

>  <r_i_glide_eff_state_penalty>  (135) 
0

>  <ligand_id>  (135) 
45

>  <original_smiles>  (135) 
CC1CCC2C(C)C(O)C(O)C3C(O)C(O)C4(C)CCC1C23OO4

>  <smiles>  (135) 
[H]OC1([H])C([H])(O[H])C2([H])C([H])(O[H])C([H])(O[H])C3(C([H])([H])[H])OOC24C([H])(C([H])([H])C3([H])[H])C([H])(C([H])([H])[H])C([H])([H])C([H])([H])C4([H])C1([H])C([H])([H])[H]

$$$$
45:0:1
     RDKit          3D

 54 57  0  0  1  0  0  0  0  0999 V2000
    4.2237   -6.2888    0.2115 C   0  0  0  0  0  0  0  0  0  0  0  0
    5.0486   -5.5493    1.2664 C   0  0  2  0  0  0  0  0  0  0  0  0
    4.5242   -5.8314    2.6700 C   0  0  0  0  0  0  0  0  0  0  0  0
    3.2488   -5.0474    2.9296 C   0  0  0  0  0  0  0  0  0  0  0  0
    3.4769   -3.5269    2.7401 C   0  0  2  0  0  0  0  0  0  0  0  0
    2.2042   -2.7511    3.2234 C   0  0  1  0  0  0  0  0  0  0  0  0
    1.6093   -3.1910    4.5930 C   0  0  0  0  0  0  0  0  0  0  0  0
    2.4603   -1.2408    3.2219 C   0  0  1  0  0  0  0  0  0  0  0  0
    3.4338   -0.8794    4.1925 O   0  0  0  0  0  0  0  0  0  0  0  0
    2.9404   -0.8108    1.8341 C   0  0  1  0  0  0  0  0  0  0  0  0
    3.0654    0.5937    1.8863 O   0  0  0  0  0  0  0  0  0  0  0  0
    4.2429   -1.5428    1.3709 C   0  0  2  0  0  0  0  0  0  0  0  0
    4.7675   -0.8669    0.0821 C   0  0  1  0  0  0  0  0  0  0  0  0
    6.1819   -0.7830    0.0753 O   0  0  0  0  0  0  0  0  0  0  0  0
    4.1194   -1.3275   -1.2420 C   0  0  1  0  0  0  0  0  0  0  0  0
    4.6795   -0.5686   -2.3076 O   0  0  0  0  0  0  0  0  0  0  0  0
    4.1767   -2.8085   -1.5989 C   0  0  1  0  0  0  0  0  0  0  0  0
    3.7019   -2.9542   -3.0813 C   0  0  0  0  0  0  0  0  0  0  0  0
    5.5250   -3.5236   -1.5648 C   0  0  0  0  0  0  0  0  0  0  0  0
    6.1565   -3.7625   -0.1870 C   0  0  0  0  0  0  0  0  0  0  0  0
    5.2539   -4.0347    1.0201 C   0  0  1  0  0  0  0  0  0  0  0  0
    4.0186   -3.1043    1.3024 C   0  0  1  0  0  0  0  0  0  0  0  0
    2.8489   -3.2967    0.4976 O   0  0  0  0  0  0  0  0  0  0  0  0
    3.2262   -3.7048   -1.0014 O   0  0  0  0  0  0  0  0  0  0  0  0
    3.1893   -5.9491    0.1886 H   0  0  0  0  0  0  0  0  0  0  0  0
    4.2126   -7.3635    0.4048 H   0  0  0  0  0  0  0  0  0  0  0  0
    4.6452   -6.1554   -0.7814 H   0  0  0  0  0  0  0  0  0  0  0  0
    6.0353   -6.0148    1.2275 H   0  0  0  0  0  0  0  0  0  0  0  0
    4.3628   -6.9040    2.8064 H   0  0  0  0  0  0  0  0  0  0  0  0
    5.2921   -5.5531    3.3995 H   0  0  0  0  0  0  0  0  0  0  0  0
    2.4510   -5.4111    2.2859 H   0  0  0  0  0  0  0  0  0  0  0  0
    2.9741   -5.2939    3.9583 H   0  0  0  0  0  0  0  0  0  0  0  0
    4.2532   -3.2874    3.4723 H   0  0  0  0  0  0  0  0  0  0  0  0
    1.4119   -2.9387    2.5057 H   0  0  0  0  0  0  0  0  0  0  0  0
    2.3623   -3.2089    5.3853 H   0  0  0  0  0  0  0  0  0  0  0  0
    1.1559   -4.1836    4.5318 H   0  0  0  0  0  0  0  0  0  0  0  0
    0.8129   -2.5106    4.9071 H   0  0  0  0  0  0  0  0  0  0  0  0
    1.5357   -0.7173    3.4735 H   0  0  0  0  0  0  0  0  0  0  0  0
    4.2283   -1.3738    4.0513 H   0  0  0  0  0  0  0  0  0  0  0  0
    2.1456   -1.0171    1.1215 H   0  0  0  0  0  0  0  0  0  0  0  0
    3.6495    0.8321    2.5924 H   0  0  0  0  0  0  0  0  0  0  0  0
    5.0025   -1.3571    2.1310 H   0  0  0  0  0  0  0  0  0  0  0  0
    4.5325    0.1863    0.1139 H   0  0  0  0  0  0  0  0  0  0  0  0
    6.4633   -0.3054    0.8279 H   0  0  0  0  0  0  0  0  0  0  0  0
    3.0594   -1.0667   -1.2216 H   0  0  0  0  0  0  0  0  0  0  0  0
    4.6394    0.3326   -2.0473 H   0  0  0  0  0  0  0  0  0  0  0  0
    4.4230   -2.5233   -3.7816 H   0  0  0  0  0  0  0  0  0  0  0  0
    2.7457   -2.4424   -3.2571 H   0  0  0  0  0  0  0  0  0  0  0  0
    3.5703   -3.9959   -3.4009 H   0  0  0  0  0  0  0  0  0  0  0  0
    5.4108   -4.5014   -2.0361 H   0  0  0  0  0  0  0  0  0  0  0  0
    6.2436   -2.9815   -2.1867 H   0  0  0  0  0  0  0  0  0  0  0  0
    6.8276   -4.6101   -0.2956 H   0  0  0  0  0  0  0  0  0  0  0  0
    6.8659   -2.9857    0.0576 H   0  0  0  0  0  0  0  0  0  0  0  0
    5.9115   -3.7629    1.8501 H   0  0  0  0  0  0  0  0  0  0  0  0
  1  2  1  0
  1 25  1  0
  1 26  1  0
  1 27  1  0
  2 21  1  0
  2  3  1  0
  2 28  1  1
  3  4  1  0
  3 29  1  0
  3 30  1  0
  4  5  1  0
  4 31  1  0
  4 32  1  0
  5 22  1  0
  5  6  1  0
  5 33  1  1
  6  7  1  0
  6  8  1  0
  6 34  1  6
  7 35  1  0
  7 36  1  0
  7 37  1  0
  8  9  1  0
  8 10  1  0
  8 38  1  1
  9 39  1  0
 10 11  1  0
 10 12  1  0
 10 40  1  6
 11 41  1  0
 12 22  1  0
 12 13  1  0
 12 42  1  1
 13 14  1  0
 13 15  1  0
 13 43  1  1
 14 44  1  0
 15 16  1  0
 15 17  1  0
 15 45  1  1
 16 46  1  0
 17 24  1  0
 17 18  1  6
 17 19  1  0
 18 47  1  0
 18 48  1  0
 18 49  1  0
 19 20  1  0
 19 50  1  0
 19 51  1  0
 20 21  1  0
 20 52  1  0
 20 53  1  0
 21 22  1  0
 21 54  1  1
 22 23  1  6
 23 24  1  0
M  END
>  <i_m_ct_stereo_status>  (136) 
1

>  <s_m_source_file>  (136) 
/var/tmp/pbs.5076255.sched01/tmpr6ewtwjb/42o4phu6d4.sdf

>  <i_m_source_file_index>  (136) 
22

>  <i_lp_mmshare_version>  (136) 
48012

>  <i_f3d_flags>  (136) 
0

>  <s_epik_input>  (136) 
W0NAXTEyM1tDQEBIXTRbQ0gyXVtDSDJdW0NAQEhdKFtDSDNdKVtDQEhdMltDSDJdW0NIMl1bQ0BAXShbQ0gzXSkoT08zKVtDQEhdKFtPSF0pW0NASF0oW09IXSlbQ0BIXTFbQ0BIXShbT0hdKVtDQEhdKFtPSF0pW0NAQEhdNFtDSDNd

>  <s_epik_cmdline>  (136) 
J2VwaWtfcHl0aG9uJywgJy1waHQnLCAnMi4wJywgJy1waCcsICc3LjAnLCAnLXRuJywgJzgnLCAnLW1hJywgJzIwMCcsICctaW1hZScsICc8aW5maWxlLm1hZT4nLCAnLW9tYWUnLCAnPG91dGZpbGUubWFlPic=

>  <r_lp_tautomer_probability>  (136) 
1

>  <r_epik_Ionization_Penalty>  (136) 
3.65527e-07

>  <r_epik_Ionization_Penalty_Charging>  (136) 
0

>  <r_epik_Ionization_Penalty_Neutral>  (136) 
3.65527e-07

>  <r_epik_State_Penalty>  (136) 
-0

>  <r_epik_Charging_Adjusted_Penalty>  (136) 
0

>  <i_epik_Tot_Q>  (136) 
0

>  <i_epik_Tot_abs_Q>  (136) 
0

>  <s_lp_Force_Field>  (136) 
OPLS3e

>  <r_lp_Energy>  (136) 
51.5498

>  <b_lp_Chiralities_Consistent>  (136) 
1

>  <s_lp_Variant>  (136) 
45:0-1

>  <s_i_glide_gridfile>  (136) 
pfpi4k_grid

>  <i_i_glide_lignum>  (136) 
22

>  <i_i_glide_rotatable_bonds>  (136) 
4

>  <r_i_docking_score>  (136) 
-3.52308

>  <r_i_glide_ligand_efficiency>  (136) 
-0.146795

>  <r_i_glide_ligand_efficiency_sa>  (136) 
-0.42343

>  <r_i_glide_ligand_efficiency_ln>  (136) 
-0.843235

>  <r_i_glide_gscore>  (136) 
-3.52308

>  <r_i_glide_lipo>  (136) 
-0.459978

>  <r_i_glide_hbond>  (136) 
0

>  <r_i_glide_metal>  (136) 
-0

>  <r_i_glide_rewards>  (136) 
-1.07436

>  <r_i_glide_evdw>  (136) 
-26.8943

>  <r_i_glide_ecoul>  (136) 
-4.29353

>  <r_i_glide_erotb>  (136) 
0

>  <r_i_glide_esite>  (136) 
0

>  <r_i_glide_emodel>  (136) 
-36.2513

>  <r_i_glide_energy>  (136) 
-31.1878

>  <r_i_glide_einternal>  (136) 
0.667469

>  <r_i_glide_intrahb_reward>  (136) 
-0

>  <i_i_glide_confnum>  (136) 
1

>  <i_i_glide_posenum>  (136) 
21

>  <r_i_glide_eff_state_penalty>  (136) 
0

>  <ligand_id>  (136) 
45

>  <original_smiles>  (136) 
CC1CCC2C(C)C(O)C(O)C3C(O)C(O)C4(C)CCC1C23OO4

>  <smiles>  (136) 
[H]OC1([H])C([H])(O[H])C2([H])C([H])(O[H])C([H])(O[H])C3(C([H])([H])[H])OOC24C([H])(C([H])([H])C3([H])[H])C([H])(C([H])([H])[H])C([H])([H])C([H])([H])C4([H])C1([H])C([H])([H])[H]

$$$$
45:0:2
     RDKit          3D

 54 57  0  0  1  0  0  0  0  0999 V2000
    3.8735   -6.2732    0.4780 C   0  0  0  0  0  0  0  0  0  0  0  0
    4.6644   -5.5397    1.5685 C   0  0  2  0  0  0  0  0  0  0  0  0
    4.0130   -5.7203    2.9363 C   0  0  0  0  0  0  0  0  0  0  0  0
    2.7703   -4.8440    3.0569 C   0  0  0  0  0  0  0  0  0  0  0  0
    3.1044   -3.3497    2.8218 C   0  0  2  0  0  0  0  0  0  0  0  0
    1.8559   -2.4677    3.1599 C   0  0  1  0  0  0  0  0  0  0  0  0
    1.1205   -2.7991    4.4866 C   0  0  0  0  0  0  0  0  0  0  0  0
    2.2161   -0.9864    3.1169 C   0  0  1  0  0  0  0  0  0  0  0  0
    3.1280   -0.6641    4.1555 O   0  0  0  0  0  0  0  0  0  0  0  0
    2.8311   -0.6521    1.7619 C   0  0  1  0  0  0  0  0  0  0  0  0
    3.0393    0.7420    1.7953 O   0  0  0  0  0  0  0  0  0  0  0  0
    4.1216   -1.4879    1.4306 C   0  0  2  0  0  0  0  0  0  0  0  0
    4.7932   -0.9071    0.1664 C   0  0  1  0  0  0  0  0  0  0  0  0
    6.2083   -0.9081    0.2431 O   0  0  0  0  0  0  0  0  0  0  0  0
    4.2400   -1.3845   -1.1949 C   0  0  1  0  0  0  0  0  0  0  0  0
    4.9857   -0.7147   -2.2039 O   0  0  0  0  0  0  0  0  0  0  0  0
    4.2123   -2.8974   -1.5090 C   0  0  1  0  0  0  0  0  0  0  0  0
    3.8620   -3.0598   -3.0152 C   0  0  0  0  0  0  0  0  0  0  0  0
    5.5124   -3.6819   -1.2966 C   0  0  0  0  0  0  0  0  0  0  0  0
    6.0068   -3.9018    0.1370 C   0  0  0  0  0  0  0  0  0  0  0  0
    4.9846   -4.0474    1.2774 C   0  0  1  0  0  0  0  0  0  0  0  0
    3.7839   -3.0331    1.4208 C   0  0  1  0  0  0  0  0  0  0  0  0
    2.7090   -3.1532    0.4777 O   0  0  0  0  0  0  0  0  0  0  0  0
    3.1921   -3.6998   -0.9072 O   0  0  0  0  0  0  0  0  0  0  0  0
    2.8695   -5.8703    0.3614 H   0  0  0  0  0  0  0  0  0  0  0  0
    3.7792   -7.3334    0.7141 H   0  0  0  0  0  0  0  0  0  0  0  0
    4.3662   -6.2145   -0.4842 H   0  0  0  0  0  0  0  0  0  0  0  0
    5.6129   -6.0725    1.6333 H   0  0  0  0  0  0  0  0  0  0  0  0
    3.7669   -6.7704    3.1113 H   0  0  0  0  0  0  0  0  0  0  0  0
    4.7264   -5.4504    3.7143 H   0  0  0  0  0  0  0  0  0  0  0  0
    2.0008   -5.1855    2.3637 H   0  0  0  0  0  0  0  0  0  0  0  0
    2.3918   -5.0196    4.0652 H   0  0  0  0  0  0  0  0  0  0  0  0
    3.8381   -3.1170    3.5968 H   0  0  0  0  0  0  0  0  0  0  0  0
    1.1145   -2.6301    2.3855 H   0  0  0  0  0  0  0  0  0  0  0  0
    1.8004   -2.8259    5.3459 H   0  0  0  0  0  0  0  0  0  0  0  0
    0.6074   -3.7638    4.4249 H   0  0  0  0  0  0  0  0  0  0  0  0
    0.3462   -2.0542    4.6995 H   0  0  0  0  0  0  0  0  0  0  0  0
    1.3204   -0.3876    3.2745 H   0  0  0  0  0  0  0  0  0  0  0  0
    3.3027    0.2653    4.0930 H   0  0  0  0  0  0  0  0  0  0  0  0
    2.0956   -0.8337    0.9833 H   0  0  0  0  0  0  0  0  0  0  0  0
    2.1928    1.1698    1.7159 H   0  0  0  0  0  0  0  0  0  0  0  0
    4.8189   -1.3169    2.2470 H   0  0  0  0  0  0  0  0  0  0  0  0
    4.6180    0.1582    0.1407 H   0  0  0  0  0  0  0  0  0  0  0  0
    6.4602   -0.4211    1.0197 H   0  0  0  0  0  0  0  0  0  0  0  0
    3.2138   -1.0259   -1.3030 H   0  0  0  0  0  0  0  0  0  0  0  0
    4.9077    0.2202   -2.0217 H   0  0  0  0  0  0  0  0  0  0  0  0
    4.6694   -2.7269   -3.6705 H   0  0  0  0  0  0  0  0  0  0  0  0
    2.9644   -2.5135   -3.3017 H   0  0  0  0  0  0  0  0  0  0  0  0
    3.6951   -4.1110   -3.2917 H   0  0  0  0  0  0  0  0  0  0  0  0
    5.3757   -4.6742   -1.7488 H   0  0  0  0  0  0  0  0  0  0  0  0
    6.3140   -3.2212   -1.8744 H   0  0  0  0  0  0  0  0  0  0  0  0
    6.6258   -4.7965    0.1166 H   0  0  0  0  0  0  0  0  0  0  0  0
    6.7443   -3.1598    0.4032 H   0  0  0  0  0  0  0  0  0  0  0  0
    5.5934   -3.7845    2.1404 H   0  0  0  0  0  0  0  0  0  0  0  0
  1  2  1  0
  1 25  1  0
  1 26  1  0
  1 27  1  0
  2 21  1  0
  2  3  1  0
  2 28  1  1
  3  4  1  0
  3 29  1  0
  3 30  1  0
  4  5  1  0
  4 31  1  0
  4 32  1  0
  5 22  1  0
  5  6  1  0
  5 33  1  1
  6  7  1  0
  6  8  1  0
  6 34  1  6
  7 35  1  0
  7 36  1  0
  7 37  1  0
  8  9  1  0
  8 10  1  0
  8 38  1  1
  9 39  1  0
 10 11  1  0
 10 12  1  0
 10 40  1  6
 11 41  1  0
 12 22  1  0
 12 13  1  0
 12 42  1  1
 13 14  1  0
 13 15  1  0
 13 43  1  1
 14 44  1  0
 15 16  1  0
 15 17  1  0
 15 45  1  1
 16 46  1  0
 17 24  1  0
 17 18  1  6
 17 19  1  0
 18 47  1  0
 18 48  1  0
 18 49  1  0
 19 20  1  0
 19 50  1  0
 19 51  1  0
 20 21  1  0
 20 52  1  0
 20 53  1  0
 21 22  1  0
 21 54  1  1
 22 23  1  6
 23 24  1  0
M  END
>  <i_m_ct_stereo_status>  (137) 
1

>  <s_m_source_file>  (137) 
/var/tmp/pbs.5076255.sched01/tmpr6ewtwjb/42o4phu6d4.sdf

>  <i_m_source_file_index>  (137) 
22

>  <i_lp_mmshare_version>  (137) 
48012

>  <i_f3d_flags>  (137) 
0

>  <s_epik_input>  (137) 
W0NAXTEyM1tDQEBIXTRbQ0gyXVtDSDJdW0NAQEhdKFtDSDNdKVtDQEhdMltDSDJdW0NIMl1bQ0BAXShbQ0gzXSkoT08zKVtDQEhdKFtPSF0pW0NASF0oW09IXSlbQ0BIXTFbQ0BIXShbT0hdKVtDQEhdKFtPSF0pW0NAQEhdNFtDSDNd

>  <s_epik_cmdline>  (137) 
J2VwaWtfcHl0aG9uJywgJy1waHQnLCAnMi4wJywgJy1waCcsICc3LjAnLCAnLXRuJywgJzgnLCAnLW1hJywgJzIwMCcsICctaW1hZScsICc8aW5maWxlLm1hZT4nLCAnLW9tYWUnLCAnPG91dGZpbGUubWFlPic=

>  <r_lp_tautomer_probability>  (137) 
1

>  <r_epik_Ionization_Penalty>  (137) 
3.65527e-07

>  <r_epik_Ionization_Penalty_Charging>  (137) 
0

>  <r_epik_Ionization_Penalty_Neutral>  (137) 
3.65527e-07

>  <r_epik_State_Penalty>  (137) 
-0

>  <r_epik_Charging_Adjusted_Penalty>  (137) 
0

>  <i_epik_Tot_Q>  (137) 
0

>  <i_epik_Tot_abs_Q>  (137) 
0

>  <s_lp_Force_Field>  (137) 
OPLS3e

>  <r_lp_Energy>  (137) 
51.5498

>  <b_lp_Chiralities_Consistent>  (137) 
1

>  <s_lp_Variant>  (137) 
45:0-1

>  <s_i_glide_gridfile>  (137) 
pfpi4k_grid

>  <i_i_glide_lignum>  (137) 
22

>  <i_i_glide_rotatable_bonds>  (137) 
4

>  <r_i_docking_score>  (137) 
-3.508

>  <r_i_glide_ligand_efficiency>  (137) 
-0.146167

>  <r_i_glide_ligand_efficiency_sa>  (137) 
-0.421617

>  <r_i_glide_ligand_efficiency_ln>  (137) 
-0.839625

>  <r_i_glide_gscore>  (137) 
-3.508

>  <r_i_glide_lipo>  (137) 
-0.387919

>  <r_i_glide_hbond>  (137) 
0

>  <r_i_glide_metal>  (137) 
-0

>  <r_i_glide_rewards>  (137) 
-1.07436

>  <r_i_glide_evdw>  (137) 
-26.5199

>  <r_i_glide_ecoul>  (137) 
-4.79814

>  <r_i_glide_erotb>  (137) 
0

>  <r_i_glide_esite>  (137) 
0

>  <r_i_glide_emodel>  (137) 
-37.1402

>  <r_i_glide_energy>  (137) 
-31.3181

>  <r_i_glide_einternal>  (137) 
1.40567

>  <r_i_glide_intrahb_reward>  (137) 
-0

>  <i_i_glide_confnum>  (137) 
2

>  <i_i_glide_posenum>  (137) 
3

>  <r_i_glide_eff_state_penalty>  (137) 
0

>  <ligand_id>  (137) 
45

>  <original_smiles>  (137) 
CC1CCC2C(C)C(O)C(O)C3C(O)C(O)C4(C)CCC1C23OO4

>  <smiles>  (137) 
[H]OC1([H])C([H])(O[H])C2([H])C([H])(O[H])C([H])(O[H])C3(C([H])([H])[H])OOC24C([H])(C([H])([H])C3([H])[H])C([H])(C([H])([H])[H])C([H])([H])C([H])([H])C4([H])C1([H])C([H])([H])[H]

$$$$
46:0:0
     RDKit          3D

 54 60  0  0  1  0  0  0  0  0999 V2000
    3.7668   -1.4081   -4.4070 C   0  0  0  0  0  0  0  0  0  0  0  0
    4.2026   -2.6168   -3.5990 C   0  0  0  0  0  0  0  0  0  0  0  0
    4.7474   -2.5949   -2.3736 C   0  0  0  0  0  0  0  0  0  0  0  0
    5.0517   -1.2227   -1.6159 C   0  0  0  0  0  0  0  0  0  0  0  0
    5.1469   -1.2627   -0.1027 N   0  0  0  0  0  0  0  0  0  0  0  0
    6.4046   -1.0267    0.5412 C   0  0  1  0  0  0  0  0  0  0  0  0
    6.0183   -1.2327    2.1885 C   0  0  0  0  0  0  0  0  0  0  0  0
    5.1671   -2.6299    2.5391 C   0  0  1  0  0  0  0  0  0  0  0  0
    4.3300   -3.0950    3.7487 C   0  0  0  0  0  0  0  0  0  0  0  0
    4.4079   -2.4876    4.8135 O   0  0  0  0  0  0  0  0  0  0  0  0
    3.4785   -4.3618    3.5479 C   0  0  0  0  0  0  0  0  0  0  0  0
    3.3623   -5.0034    2.3266 C   0  0  0  0  0  0  0  0  0  0  0  0
    4.1790   -4.5123    1.1217 C   0  0  1  0  0  0  0  0  0  0  0  0
    4.0281   -4.7003   -0.5244 C   0  0  2  0  0  0  0  0  0  0  0  0
    5.1848   -3.9266   -1.6673 C   0  0  2  0  0  0  0  0  0  0  0  0
    6.6587   -3.4262   -1.1536 C   0  0  1  0  0  0  0  0  0  0  0  0
    7.3183   -2.0654   -0.3849 C   0  0  2  0  0  0  0  0  0  0  0  0
    7.8648   -3.1191    0.4913 C   0  0  0  0  0  0  0  0  0  0  0  0
    6.4661   -3.5951    0.2358 C   0  0  1  0  0  0  0  0  0  0  0  0
    5.1384   -2.6179    0.4266 C   0  0  1  0  0  0  0  0  0  0  0  0
    4.2399   -3.0182    1.3897 C   0  0  2  0  0  0  0  0  0  0  0  0
    2.7545   -2.4773    1.1332 C   0  0  0  0  0  0  0  0  0  0  0  0
    2.2448   -2.8963   -0.2964 C   0  0  0  0  0  0  0  0  0  0  0  0
    2.6236   -4.2655   -0.8063 N   0  0  2  0  0  0  0  0  0  0  0  0
    1.5332   -5.2665   -0.5657 C   0  0  0  0  0  0  0  0  0  0  0  0
    4.2528   -1.3962   -5.3753 H   0  0  0  0  0  0  0  0  0  0  0  0
    4.0124   -0.4564   -3.9382 H   0  0  0  0  0  0  0  0  0  0  0  0
    2.6898   -1.4431   -4.5719 H   0  0  0  0  0  0  0  0  0  0  0  0
    4.0377   -3.5747   -4.0770 H   0  0  0  0  0  0  0  0  0  0  0  0
    5.9289   -0.7505   -2.0532 H   0  0  0  0  0  0  0  0  0  0  0  0
    4.2187   -0.5479   -1.8146 H   0  0  0  0  0  0  0  0  0  0  0  0
    6.7201   -0.0045    0.3792 H   0  0  0  0  0  0  0  0  0  0  0  0
    6.9582   -1.2098    2.7138 H   0  0  0  0  0  0  0  0  0  0  0  0
    5.4607   -0.3638    2.5572 H   0  0  0  0  0  0  0  0  0  0  0  0
    5.9426   -3.4035    2.5954 H   0  0  0  0  0  0  0  0  0  0  0  0
    2.9632   -4.7525    4.4144 H   0  0  0  0  0  0  0  0  0  0  0  0
    2.7841   -5.9106    2.2150 H   0  0  0  0  0  0  0  0  0  0  0  0
    4.9866   -5.1335    1.4478 H   0  0  0  0  0  0  0  0  0  0  0  0
    4.1036   -5.7808   -0.6694 H   0  0  0  0  0  0  0  0  0  0  0  0
    5.3279   -4.6594   -2.4632 H   0  0  0  0  0  0  0  0  0  0  0  0
    7.4973   -3.9011   -1.6707 H   0  0  0  0  0  0  0  0  0  0  0  0
    8.1438   -1.6485   -0.9504 H   0  0  0  0  0  0  0  0  0  0  0  0
    8.6745   -3.7151    0.0485 H   0  0  0  0  0  0  0  0  0  0  0  0
    7.9288   -2.9335    1.5426 H   0  0  0  0  0  0  0  0  0  0  0  0
    6.5119   -4.6509    0.4652 H   0  0  0  0  0  0  0  0  0  0  0  0
    4.3754   -2.5844   -0.2203 H   0  0  0  0  0  0  0  0  0  0  0  0
    2.0486   -2.8565    1.8750 H   0  0  0  0  0  0  0  0  0  0  0  0
    2.7155   -1.3870    1.2268 H   0  0  0  0  0  0  0  0  0  0  0  0
    1.1921   -2.9208   -0.3586 H   0  0  0  0  0  0  0  0  0  0  0  0
    2.6277   -2.1901   -1.0413 H   0  0  0  0  0  0  0  0  0  0  0  0
    1.3609   -5.4055    0.4904 H   0  0  0  0  0  0  0  0  0  0  0  0
    1.7408   -6.2422   -0.9640 H   0  0  0  0  0  0  0  0  0  0  0  0
    0.6354   -4.9278   -1.0799 H   0  0  0  0  0  0  0  0  0  0  0  0
    2.6101   -4.1457   -1.8127 H   0  0  0  0  0  0  0  0  0  0  0  0
  1  2  1  0
  1 26  1  0
  1 27  1  0
  1 28  1  0
  2  3  2  3
  2 29  1  0
  3 15  1  0
  3  4  1  0
  4  5  1  0
  4 30  1  0
  4 31  1  0
  5 20  1  0
  5  6  1  0
  6 17  1  0
  6  7  1  0
  6 32  1  1
  7  8  1  0
  7 33  1  0
  7 34  1  0
  8 21  1  0
  8  9  1  0
  8 35  1  6
  9 10  2  0
  9 11  1  0
 11 12  2  0
 11 36  1  0
 12 13  1  0
 12 37  1  0
 13 21  1  0
 13 14  1  0
 13 38  1  1
 14 24  1  0
 14 15  1  0
 14 39  1  1
 15 16  1  0
 15 40  1  6
 16 19  1  0
 16 17  1  0
 16 41  1  6
 17 18  1  0
 17 42  1  6
 18 19  1  0
 18 43  1  0
 18 44  1  0
 19 20  1  0
 19 45  1  6
 20 21  1  0
 20 46  1  6
 21 22  1  1
 22 23  1  0
 22 47  1  0
 22 48  1  0
 23 24  1  0
 23 49  1  0
 23 50  1  0
 24 25  1  0
 24 54  1  6
 25 51  1  0
 25 52  1  0
 25 53  1  0
M  CHG  1  24   1
M  END
>  <i_m_ct_stereo_status>  (138) 
1

>  <s_m_source_file>  (138) 
/var/tmp/pbs.5076255.sched01/tmpr6ewtwjb/42o4phu6d4.sdf

>  <i_m_source_file_index>  (138) 
23

>  <i_lp_mmshare_version>  (138) 
48012

>  <i_f3d_flags>  (138) 
0

>  <s_epik_input>  (138) 
Tz1DMVtDSF09W0NIXVtDQEhdMltDQEBIXShOKFtDSDNdKVtDSDJdW0NIMl0zKVtDQEBIXShDKFxbQ0gyXTQpPVtDSF1cW0NIM10pW0NAQEhdKFtDQEBIXTVbQ0gyXTYpW0NAQEhdNltDQEBIXTdONFtDQEhdNVtDSDJdW0NAQEhdMVtDQEBdMjM3

>  <s_epik_cmdline>  (138) 
J2VwaWtfcHl0aG9uJywgJy1waHQnLCAnMi4wJywgJy1waCcsICc3LjAnLCAnLXRuJywgJzgnLCAnLW1hJywgJzIwMCcsICctaW1hZScsICc8aW5maWxlLm1hZT4nLCAnLW9tYWUnLCAnPG91dGZpbGUubWFlPic=

>  <r_epik_Ionization_Penalty>  (138) 
0.208533

>  <r_epik_Ionization_Penalty_Charging>  (138) 
0.0196323

>  <r_epik_Ionization_Penalty_Neutral>  (138) 
0.1889

>  <r_epik_State_Penalty>  (138) 
0.446449

>  <r_epik_Charging_Adjusted_Penalty>  (138) 
0.466081

>  <i_epik_Tot_Q>  (138) 
1

>  <i_epik_Tot_abs_Q>  (138) 
1

>  <s_lp_Force_Field>  (138) 
OPLS3e

>  <r_lp_Energy>  (138) 
386.64

>  <b_lp_Chiralities_Consistent>  (138) 
1

>  <s_lp_Variant>  (138) 
46:0-1

>  <s_i_glide_gridfile>  (138) 
pfpi4k_grid

>  <i_i_glide_lignum>  (138) 
23

>  <i_i_glide_rotatable_bonds>  (138) 
0

>  <r_i_docking_score>  (138) 
-2.48223

>  <r_i_glide_ligand_efficiency>  (138) 
-0.0992893

>  <r_i_glide_ligand_efficiency_sa>  (138) 
-0.290324

>  <r_i_glide_ligand_efficiency_ln>  (138) 
-0.588364

>  <r_i_glide_gscore>  (138) 
-2.48223

>  <r_i_glide_lipo>  (138) 
-1.012

>  <r_i_glide_hbond>  (138) 
0

>  <r_i_glide_metal>  (138) 
-0

>  <r_i_glide_rewards>  (138) 
-1.12228

>  <r_i_glide_evdw>  (138) 
0.297575

>  <r_i_glide_ecoul>  (138) 
-2.06063

>  <r_i_glide_erotb>  (138) 
0

>  <r_i_glide_esite>  (138) 
-0.0537331

>  <r_i_glide_emodel>  (138) 
-7.22638

>  <r_i_glide_energy>  (138) 
-1.76305

>  <r_i_glide_einternal>  (138) 
0

>  <r_i_glide_intrahb_reward>  (138) 
-0

>  <i_i_glide_confnum>  (138) 
1

>  <i_i_glide_posenum>  (138) 
1

>  <r_i_glide_eff_state_penalty>  (138) 
0

>  <ligand_id>  (138) 
46

>  <original_smiles>  (138) 
CC=C1CN2C3CC4C(=O)C=CC5C6C1C1C3CC1C2C45CCN6C

>  <smiles>  (138) 
[H]C1=C([H])C2([H])C34C([H])([H])C([H])([H])[N+]([H])(C([H])([H])[H])C2([H])C2([H])C(=C([H])C([H])([H])[H])C([H])([H])N5C([H])(C([H])([H])C3([H])C1=O)C1([H])C([H])([H])C([H])(C54[H])C21[H]

$$$$
46:1:0
     RDKit          3D

 54 60  0  0  1  0  0  0  0  0999 V2000
    3.6444   -0.2082   -3.8855 C   0  0  0  0  0  0  0  0  0  0  0  0
    4.3387   -0.0649   -2.5298 C   0  0  0  0  0  0  0  0  0  0  0  0
    4.9588   -1.0076   -1.7936 C   0  0  0  0  0  0  0  0  0  0  0  0
    5.5538   -0.6159   -0.3514 C   0  0  0  0  0  0  0  0  0  0  0  0
    5.6963   -1.6920    0.6911 N   0  0  0  0  0  0  0  0  0  0  0  0
    7.0080   -2.1333    1.0398 C   0  0  1  0  0  0  0  0  0  0  0  0
    6.6704   -3.4987    2.0651 C   0  0  0  0  0  0  0  0  0  0  0  0
    5.6012   -4.6012    1.4503 C   0  0  1  0  0  0  0  0  0  0  0  0
    4.8331   -5.7374    2.1575 C   0  0  0  0  0  0  0  0  0  0  0  0
    5.0831   -6.0842    3.3097 O   0  0  0  0  0  0  0  0  0  0  0  0
    3.7687   -6.3782    1.2783 C   0  0  0  0  0  0  0  0  0  0  0  0
    3.4373   -5.8798    0.0390 C   0  0  0  0  0  0  0  0  0  0  0  0
    4.2404   -4.7534   -0.6302 C   0  0  1  0  0  0  0  0  0  0  0  0
    3.9808   -3.6567   -1.8897 C   0  0  2  0  0  0  0  0  0  0  0  0
    5.2243   -2.4482   -2.3203 C   0  0  2  0  0  0  0  0  0  0  0  0
    6.7891   -2.5986   -1.8191 C   0  0  1  0  0  0  0  0  0  0  0  0
    7.7054   -2.2571   -0.4362 C   0  0  2  0  0  0  0  0  0  0  0  0
    8.1188   -3.6727   -0.6299 C   0  0  0  0  0  0  0  0  0  0  0  0
    6.5936   -3.6543   -0.9291 C   0  0  1  0  0  0  0  0  0  0  0  0
    5.4511   -2.9781    0.0555 C   0  0  1  0  0  0  0  0  0  0  0  0
    4.5878   -3.9289    0.5891 C   0  0  2  0  0  0  0  0  0  0  0  0
    3.2307   -3.3014    1.0676 C   0  0  0  0  0  0  0  0  0  0  0  0
    2.5068   -2.5481   -0.0801 C   0  0  0  0  0  0  0  0  0  0  0  0
    2.6633   -3.0210   -1.5130 N   0  0  2  0  0  0  0  0  0  0  0  0
    1.5043   -3.8236   -1.9421 C   0  0  0  0  0  0  0  0  0  0  0  0
    2.6416    0.2270   -3.8072 H   0  0  0  0  0  0  0  0  0  0  0  0
    3.5524   -1.2363   -4.2269 H   0  0  0  0  0  0  0  0  0  0  0  0
    4.2100    0.3935   -4.5950 H   0  0  0  0  0  0  0  0  0  0  0  0
    4.2230    0.9407   -2.0844 H   0  0  0  0  0  0  0  0  0  0  0  0
    6.4916   -0.0621   -0.4084 H   0  0  0  0  0  0  0  0  0  0  0  0
    4.8532    0.0902    0.0956 H   0  0  0  0  0  0  0  0  0  0  0  0
    7.4665   -1.3333    1.6208 H   0  0  0  0  0  0  0  0  0  0  0  0
    7.5799   -4.0976    2.0802 H   0  0  0  0  0  0  0  0  0  0  0  0
    6.1777   -3.1381    2.9380 H   0  0  0  0  0  0  0  0  0  0  0  0
    6.2316   -5.2439    0.8460 H   0  0  0  0  0  0  0  0  0  0  0  0
    3.2360   -7.2312    1.6636 H   0  0  0  0  0  0  0  0  0  0  0  0
    2.6321   -6.2515   -0.5495 H   0  0  0  0  0  0  0  0  0  0  0  0
    4.9047   -5.5381   -0.9949 H   0  0  0  0  0  0  0  0  0  0  0  0
    3.8713   -4.2267   -2.8247 H   0  0  0  0  0  0  0  0  0  0  0  0
    5.2291   -2.3846   -3.4046 H   0  0  0  0  0  0  0  0  0  0  0  0
    7.4261   -2.8795   -2.6462 H   0  0  0  0  0  0  0  0  0  0  0  0
    8.5343   -1.5731   -0.6265 H   0  0  0  0  0  0  0  0  0  0  0  0
    8.8012   -3.8380   -1.4596 H   0  0  0  0  0  0  0  0  0  0  0  0
    8.5195   -4.1549    0.2522 H   0  0  0  0  0  0  0  0  0  0  0  0
    6.3100   -4.4375   -1.5834 H   0  0  0  0  0  0  0  0  0  0  0  0
    4.6528   -2.4627   -0.2404 H   0  0  0  0  0  0  0  0  0  0  0  0
    2.5228   -4.0452    1.4184 H   0  0  0  0  0  0  0  0  0  0  0  0
    3.3768   -2.6096    1.8947 H   0  0  0  0  0  0  0  0  0  0  0  0
    1.4724   -2.6618    0.2198 H   0  0  0  0  0  0  0  0  0  0  0  0
    2.8125   -1.5038   -0.0873 H   0  0  0  0  0  0  0  0  0  0  0  0
    1.3699   -4.7171   -1.3250 H   0  0  0  0  0  0  0  0  0  0  0  0
    1.6952   -4.1024   -2.9830 H   0  0  0  0  0  0  0  0  0  0  0  0
    0.5855   -3.2330   -1.9005 H   0  0  0  0  0  0  0  0  0  0  0  0
    2.5836   -2.2003   -2.1049 H   0  0  0  0  0  0  0  0  0  0  0  0
  1  2  1  0
  1 26  1  0
  1 27  1  0
  1 28  1  0
  2  3  2  3
  2 29  1  0
  3 15  1  0
  3  4  1  0
  4  5  1  0
  4 30  1  0
  4 31  1  0
  5 20  1  0
  5  6  1  0
  6 17  1  0
  6  7  1  0
  6 32  1  1
  7  8  1  0
  7 33  1  0
  7 34  1  0
  8 21  1  0
  8  9  1  0
  8 35  1  6
  9 10  2  0
  9 11  1  0
 11 12  2  0
 11 36  1  0
 12 13  1  0
 12 37  1  0
 13 21  1  0
 13 14  1  0
 13 38  1  6
 14 24  1  0
 14 15  1  0
 14 39  1  6
 15 16  1  0
 15 40  1  6
 16 19  1  0
 16 17  1  0
 16 41  1  6
 17 18  1  0
 17 42  1  6
 18 19  1  0
 18 43  1  0
 18 44  1  0
 19 20  1  0
 19 45  1  6
 20 21  1  0
 20 46  1  6
 21 22  1  1
 22 23  1  0
 22 47  1  0
 22 48  1  0
 23 24  1  0
 23 49  1  0
 23 50  1  0
 24 25  1  0
 24 54  1  6
 25 51  1  0
 25 52  1  0
 25 53  1  0
M  CHG  1  24   1
M  END
>  <i_m_ct_stereo_status>  (139) 
1

>  <s_m_source_file>  (139) 
/var/tmp/pbs.5076255.sched01/tmpr6ewtwjb/42o4phu6d4.sdf

>  <i_m_source_file_index>  (139) 
24

>  <i_lp_mmshare_version>  (139) 
48012

>  <i_f3d_flags>  (139) 
0

>  <s_epik_input>  (139) 
Tz1DMVtDSF09W0NIXVtDQEhdMltDQEBIXShOKFtDSDNdKVtDSDJdW0NIMl0zKVtDQEBIXShDKFxbQ0gyXTQpPVtDSF1cW0NIM10pW0NAQEhdKFtDQEBIXTVbQ0gyXTYpW0NAQEhdNltDQEBIXTdONFtDQEhdNVtDSDJdW0NAQEhdMVtDQEBdMjM3

>  <s_epik_cmdline>  (139) 
J2VwaWtfcHl0aG9uJywgJy1waHQnLCAnMi4wJywgJy1waCcsICc3LjAnLCAnLXRuJywgJzgnLCAnLW1hJywgJzIwMCcsICctaW1hZScsICc8aW5maWxlLm1hZT4nLCAnLW9tYWUnLCAnPG91dGZpbGUubWFlPic=

>  <r_epik_Ionization_Penalty>  (139) 
0.208533

>  <r_epik_Ionization_Penalty_Charging>  (139) 
0.0196323

>  <r_epik_Ionization_Penalty_Neutral>  (139) 
0.1889

>  <r_epik_State_Penalty>  (139) 
0.446449

>  <r_epik_Charging_Adjusted_Penalty>  (139) 
0.466081

>  <i_epik_Tot_Q>  (139) 
1

>  <i_epik_Tot_abs_Q>  (139) 
1

>  <s_lp_Force_Field>  (139) 
OPLS3e

>  <r_lp_Energy>  (139) 
387.402

>  <b_lp_Chiralities_Consistent>  (139) 
1

>  <s_lp_Variant>  (139) 
46:0-2

>  <s_i_glide_gridfile>  (139) 
pfpi4k_grid

>  <i_i_glide_lignum>  (139) 
24

>  <i_i_glide_rotatable_bonds>  (139) 
0

>  <r_i_docking_score>  (139) 
-2.76594

>  <r_i_glide_ligand_efficiency>  (139) 
-0.110638

>  <r_i_glide_ligand_efficiency_sa>  (139) 
-0.323507

>  <r_i_glide_ligand_efficiency_ln>  (139) 
-0.655612

>  <r_i_glide_gscore>  (139) 
-2.76594

>  <r_i_glide_lipo>  (139) 
-0.873133

>  <r_i_glide_hbond>  (139) 
0

>  <r_i_glide_metal>  (139) 
-0

>  <r_i_glide_rewards>  (139) 
-1.12472

>  <r_i_glide_evdw>  (139) 
3.85221

>  <r_i_glide_ecoul>  (139) 
-6.38238

>  <r_i_glide_erotb>  (139) 
0

>  <r_i_glide_esite>  (139) 
-0.00334418

>  <r_i_glide_emodel>  (139) 
-11.7408

>  <r_i_glide_energy>  (139) 
-2.53016

>  <r_i_glide_einternal>  (139) 
0

>  <r_i_glide_intrahb_reward>  (139) 
-0

>  <i_i_glide_confnum>  (139) 
2

>  <i_i_glide_posenum>  (139) 
19

>  <r_i_glide_eff_state_penalty>  (139) 
0

>  <ligand_id>  (139) 
46

>  <original_smiles>  (139) 
CC=C1CN2C3CC4C(=O)C=CC5C6C1C1C3CC1C2C45CCN6C

>  <smiles>  (139) 
[H]C1=C([H])C2([H])C34C([H])([H])C([H])([H])[N+]([H])(C([H])([H])[H])C2([H])C2([H])C(=C([H])C([H])([H])[H])C([H])([H])N5C([H])(C([H])([H])C3([H])C1=O)C1([H])C([H])([H])C([H])(C54[H])C21[H]

$$$$
46:2:0
     RDKit          3D

 54 60  0  0  1  0  0  0  0  0999 V2000
    3.8172   -0.3605   -3.1443 C   0  0  0  0  0  0  0  0  0  0  0  0
    4.8137   -0.5369   -2.0188 C   0  0  0  0  0  0  0  0  0  0  0  0
    4.5860   -0.9095   -0.7401 C   0  0  0  0  0  0  0  0  0  0  0  0
    3.1432   -1.2536   -0.1866 C   0  0  0  0  0  0  0  0  0  0  0  0
    3.0419   -2.2947    0.9502 N   0  0  2  0  0  0  0  0  0  0  0  0
    2.5673   -1.8986    2.2516 C   0  0  1  0  0  0  0  0  0  0  0  0
    2.7650   -3.3204    3.1741 C   0  0  0  0  0  0  0  0  0  0  0  0
    4.2260   -4.0959    3.0017 C   0  0  1  0  0  0  0  0  0  0  0  0
    4.7492   -5.4962    3.3824 C   0  0  0  0  0  0  0  0  0  0  0  0
    4.0778   -6.2265    4.0998 O   0  0  0  0  0  0  0  0  0  0  0  0
    6.1390   -5.8661    2.8325 C   0  0  0  0  0  0  0  0  0  0  0  0
    6.8542   -5.0516    1.9708 C   0  0  0  0  0  0  0  0  0  0  0  0
    6.2963   -3.6752    1.5758 C   0  0  1  0  0  0  0  0  0  0  0  0
    6.6299   -2.5619    0.3574 C   0  0  2  0  0  0  0  0  0  0  0  0
    5.7647   -0.9929    0.2910 C   0  0  2  0  0  0  0  0  0  0  0  0
    5.0215   -0.4035    1.6381 C   0  0  1  0  0  0  0  0  0  0  0  0
    3.5097   -0.5621    2.4196 C   0  0  2  0  0  0  0  0  0  0  0  0
    4.3749   -0.7686    3.5990 C   0  0  0  0  0  0  0  0  0  0  0  0
    5.0956   -1.5268    2.4694 C   0  0  1  0  0  0  0  0  0  0  0  0
    4.3650   -2.6430    1.4572 C   0  0  1  0  0  0  0  0  0  0  0  0
    4.7975   -3.9404    1.5960 C   0  0  2  0  0  0  0  0  0  0  0  0
    4.5009   -4.8760    0.3492 C   0  0  0  0  0  0  0  0  0  0  0  0
    5.5620   -4.6151   -0.7967 C   0  0  0  0  0  0  0  0  0  0  0  0
    6.3256   -3.3124   -0.8931 N   0  0  0  0  0  0  0  0  0  0  0  0
    7.5075   -3.3963   -1.7551 C   0  0  0  0  0  0  0  0  0  0  0  0
    3.9707    0.6143   -3.6107 H   0  0  0  0  0  0  0  0  0  0  0  0
    2.7709   -0.4162   -2.8340 H   0  0  0  0  0  0  0  0  0  0  0  0
    3.9997   -1.1095   -3.9161 H   0  0  0  0  0  0  0  0  0  0  0  0
    5.8193   -0.3224   -2.3108 H   0  0  0  0  0  0  0  0  0  0  0  0
    2.6551   -0.3250    0.0773 H   0  0  0  0  0  0  0  0  0  0  0  0
    2.5969   -1.7301   -1.0190 H   0  0  0  0  0  0  0  0  0  0  0  0
    1.5172   -1.6142    2.2006 H   0  0  0  0  0  0  0  0  0  0  0  0
    2.6059   -3.0983    4.2346 H   0  0  0  0  0  0  0  0  0  0  0  0
    1.9646   -4.0177    2.9051 H   0  0  0  0  0  0  0  0  0  0  0  0
    4.8508   -3.5381    3.7019 H   0  0  0  0  0  0  0  0  0  0  0  0
    6.5481   -6.8181    3.1320 H   0  0  0  0  0  0  0  0  0  0  0  0
    7.8310   -5.3325    1.6059 H   0  0  0  0  0  0  0  0  0  0  0  0
    6.6513   -3.2878    2.4751 H   0  0  0  0  0  0  0  0  0  0  0  0
    7.7047   -2.3384    0.4069 H   0  0  0  0  0  0  0  0  0  0  0  0
    6.5036   -0.2621   -0.0296 H   0  0  0  0  0  0  0  0  0  0  0  0
    5.5618    0.4691    2.0267 H   0  0  0  0  0  0  0  0  0  0  0  0
    2.9619    0.3773    2.4639 H   0  0  0  0  0  0  0  0  0  0  0  0
    4.8591    0.1365    3.9717 H   0  0  0  0  0  0  0  0  0  0  0  0
    3.9410   -1.3503    4.4080 H   0  0  0  0  0  0  0  0  0  0  0  0
    6.1328   -1.5414    2.8018 H   0  0  0  0  0  0  0  0  0  0  0  0
    4.4513   -2.7794    0.4372 H   0  0  0  0  0  0  0  0  0  0  0  0
    4.5431   -5.9323    0.6211 H   0  0  0  0  0  0  0  0  0  0  0  0
    3.4946   -4.7147   -0.0464 H   0  0  0  0  0  0  0  0  0  0  0  0
    6.2555   -5.4127   -0.5988 H   0  0  0  0  0  0  0  0  0  0  0  0
    5.1196   -4.8427   -1.7691 H   0  0  0  0  0  0  0  0  0  0  0  0
    7.2463   -3.8231   -2.7348 H   0  0  0  0  0  0  0  0  0  0  0  0
    8.2581   -4.0383   -1.2859 H   0  0  0  0  0  0  0  0  0  0  0  0
    7.9852   -2.4432   -1.9458 H   0  0  0  0  0  0  0  0  0  0  0  0
    2.5712   -3.1209    0.6296 H   0  0  0  0  0  0  0  0  0  0  0  0
  1  2  1  0
  1 26  1  0
  1 27  1  0
  1 28  1  0
  2  3  2  3
  2 29  1  0
  3 15  1  0
  3  4  1  0
  4  5  1  0
  4 30  1  0
  4 31  1  0
  5 20  1  0
  5  6  1  0
  5 54  1  6
  6 17  1  0
  6  7  1  0
  6 32  1  6
  7  8  1  0
  7 33  1  0
  7 34  1  0
  8 21  1  0
  8  9  1  0
  8 35  1  1
  9 10  2  0
  9 11  1  0
 11 12  2  0
 11 36  1  0
 12 13  1  0
 12 37  1  0
 13 21  1  0
 13 14  1  0
 13 38  1  1
 14 24  1  0
 14 15  1  0
 14 39  1  6
 15 16  1  0
 15 40  1  6
 16 19  1  0
 16 17  1  0
 16 41  1  1
 17 18  1  0
 17 42  1  1
 18 19  1  0
 18 43  1  0
 18 44  1  0
 19 20  1  0
 19 45  1  1
 20 21  1  0
 20 46  1  6
 21 22  1  6
 22 23  1  0
 22 47  1  0
 22 48  1  0
 23 24  1  0
 23 49  1  0
 23 50  1  0
 24 25  1  0
 25 51  1  0
 25 52  1  0
 25 53  1  0
M  CHG  1   5   1
M  END
>  <i_m_ct_stereo_status>  (140) 
1

>  <s_m_source_file>  (140) 
/var/tmp/pbs.5076255.sched01/tmpr6ewtwjb/42o4phu6d4.sdf

>  <i_m_source_file_index>  (140) 
25

>  <i_lp_mmshare_version>  (140) 
48012

>  <i_f3d_flags>  (140) 
0

>  <s_epik_input>  (140) 
Tz1DMVtDSF09W0NIXVtDQEhdMltDQEBIXShOKFtDSDNdKVtDSDJdW0NIMl0zKVtDQEBIXShDKFxbQ0gyXTQpPVtDSF1cW0NIM10pW0NAQEhdKFtDQEBIXTVbQ0gyXTYpW0NAQEhdNltDQEBIXTdONFtDQEhdNVtDSDJdW0NAQEhdMVtDQEBdMjM3

>  <s_epik_cmdline>  (140) 
J2VwaWtfcHl0aG9uJywgJy1waHQnLCAnMi4wJywgJy1waCcsICc3LjAnLCAnLXRuJywgJzgnLCAnLW1hJywgJzIwMCcsICctaW1hZScsICc8aW5maWxlLm1hZT4nLCAnLW9tYWUnLCAnPG91dGZpbGUubWFlPic=

>  <r_epik_Ionization_Penalty>  (140) 
0.474134

>  <r_epik_Ionization_Penalty_Charging>  (140) 
0.0162641

>  <r_epik_Ionization_Penalty_Neutral>  (140) 
0.45787

>  <r_epik_State_Penalty>  (140) 
0.744167

>  <r_epik_Charging_Adjusted_Penalty>  (140) 
0.760431

>  <i_epik_Tot_Q>  (140) 
1

>  <i_epik_Tot_abs_Q>  (140) 
1

>  <s_lp_Force_Field>  (140) 
OPLS3e

>  <r_lp_Energy>  (140) 
393.797

>  <b_lp_Chiralities_Consistent>  (140) 
1

>  <s_lp_Variant>  (140) 
46:0-3

>  <s_i_glide_gridfile>  (140) 
pfpi4k_grid

>  <i_i_glide_lignum>  (140) 
25

>  <i_i_glide_rotatable_bonds>  (140) 
0

>  <r_i_docking_score>  (140) 
-3.17917

>  <r_i_glide_ligand_efficiency>  (140) 
-0.127167

>  <r_i_glide_ligand_efficiency_sa>  (140) 
-0.371838

>  <r_i_glide_ligand_efficiency_ln>  (140) 
-0.753558

>  <r_i_glide_gscore>  (140) 
-3.17917

>  <r_i_glide_lipo>  (140) 
-0.903333

>  <r_i_glide_hbond>  (140) 
0

>  <r_i_glide_metal>  (140) 
-0

>  <r_i_glide_rewards>  (140) 
-1.1081

>  <r_i_glide_evdw>  (140) 
-13.7527

>  <r_i_glide_ecoul>  (140) 
-2.96474

>  <r_i_glide_erotb>  (140) 
0

>  <r_i_glide_esite>  (140) 
-0.035387

>  <r_i_glide_emodel>  (140) 
-17.2106

>  <r_i_glide_energy>  (140) 
-16.7174

>  <r_i_glide_einternal>  (140) 
0

>  <r_i_glide_intrahb_reward>  (140) 
-0

>  <i_i_glide_confnum>  (140) 
1

>  <i_i_glide_posenum>  (140) 
7

>  <r_i_glide_eff_state_penalty>  (140) 
0

>  <ligand_id>  (140) 
46

>  <original_smiles>  (140) 
CC=C1CN2C3CC4C(=O)C=CC5C6C1C1C3CC1C2C45CCN6C

>  <smiles>  (140) 
[H]C1=C([H])C2([H])C3([H])N(C([H])([H])[H])C([H])([H])C([H])([H])C24C([H])(C1=O)C([H])([H])C1([H])C2([H])C([H])([H])C5([H])C2([H])C3([H])C(=C([H])C([H])([H])[H])C([H])([H])[N+]1([H])C54[H]

$$$$
46:2:1
     RDKit          3D

 54 60  0  0  1  0  0  0  0  0999 V2000
    2.7194   -0.4697   -2.9570 C   0  0  0  0  0  0  0  0  0  0  0  0
    4.0376   -0.6284   -2.1953 C   0  0  0  0  0  0  0  0  0  0  0  0
    4.2491   -0.9392   -0.8980 C   0  0  0  0  0  0  0  0  0  0  0  0
    3.1329   -1.2344    0.1900 C   0  0  0  0  0  0  0  0  0  0  0  0
    3.4645   -2.2174    1.3370 N   0  0  2  0  0  0  0  0  0  0  0  0
    3.5283   -1.7645    2.7149 C   0  0  1  0  0  0  0  0  0  0  0  0
    4.0428   -3.1657    3.5187 C   0  0  0  0  0  0  0  0  0  0  0  0
    5.3159   -3.9915    2.8142 C   0  0  1  0  0  0  0  0  0  0  0  0
    5.9237   -5.3998    3.0124 C   0  0  0  0  0  0  0  0  0  0  0  0
    5.5752   -6.0821    3.9644 O   0  0  0  0  0  0  0  0  0  0  0  0
    6.9896   -5.8241    1.9876 C   0  0  0  0  0  0  0  0  0  0  0  0
    7.3384   -5.0463    0.8950 C   0  0  0  0  0  0  0  0  0  0  0  0
    6.7181   -3.6503    0.7104 C   0  0  1  0  0  0  0  0  0  0  0  0
    6.5427   -2.5831   -0.5872 C   0  0  2  0  0  0  0  0  0  0  0  0
    5.7199   -1.0249   -0.3893 C   0  0  2  0  0  0  0  0  0  0  0  0
    5.5473   -0.3786    1.1160 C   0  0  1  0  0  0  0  0  0  0  0  0
    4.4746   -0.4504    2.4260 C   0  0  2  0  0  0  0  0  0  0  0  0
    5.7285   -0.6541    3.1797 C   0  0  0  0  0  0  0  0  0  0  0  0
    5.9540   -1.4622    1.8976 C   0  0  1  0  0  0  0  0  0  0  0  0
    4.8915   -2.5990    1.2996 C   0  0  1  0  0  0  0  0  0  0  0  0
    5.3194   -3.8769    1.3155 C   0  0  2  0  0  0  0  0  0  0  0  0
    4.5489   -4.8407    0.3072 C   0  0  0  0  0  0  0  0  0  0  0  0
    5.0988   -4.6300   -1.1520 C   0  0  0  0  0  0  0  0  0  0  0  0
    5.7625   -3.3577   -1.5720 N   0  0  0  0  0  0  0  0  0  0  0  0
    6.4946   -3.5764   -2.8175 C   0  0  0  0  0  0  0  0  0  0  0  0
    2.7549    0.4660   -3.5961 H   0  0  0  0  0  0  0  0  0  0  0  0
    1.9010   -0.2849   -2.3200 H   0  0  0  0  0  0  0  0  0  0  0  0
    2.5615   -1.2956   -3.6660 H   0  0  0  0  0  0  0  0  0  0  0  0
    4.8979   -0.4368   -2.8242 H   0  0  0  0  0  0  0  0  0  0  0  0
    2.6379   -0.3242    0.5254 H   0  0  0  0  0  0  0  0  0  0  0  0
    2.4843   -1.9569   -0.2594 H   0  0  0  0  0  0  0  0  0  0  0  0
    2.5399   -1.4517    3.0383 H   0  0  0  0  0  0  0  0  0  0  0  0
    4.3155   -2.9132    4.5346 H   0  0  0  0  0  0  0  0  0  0  0  0
    3.1937   -3.8432    3.6054 H   0  0  0  0  0  0  0  0  0  0  0  0
    6.1702   -3.4290    3.1997 H   0  0  0  0  0  0  0  0  0  0  0  0
    7.4676   -6.7784    2.1415 H   0  0  0  0  0  0  0  0  0  0  0  0
    8.0907   -5.3722    0.1942 H   0  0  0  0  0  0  0  0  0  0  0  0
    7.4994   -3.2476    1.3343 H   0  0  0  0  0  0  0  0  0  0  0  0
    7.5354   -2.3953   -0.9876 H   0  0  0  0  0  0  0  0  0  0  0  0
    6.2198   -0.2991   -1.0073 H   0  0  0  0  0  0  0  0  0  0  0  0
    6.2084    0.5089    1.1922 H   0  0  0  0  0  0  0  0  0  0  0  0
    4.0132    0.4944    2.6397 H   0  0  0  0  0  0  0  0  0  0  0  0
    6.3423    0.2593    3.3080 H   0  0  0  0  0  0  0  0  0  0  0  0
    5.6282   -1.1927    4.1154 H   0  0  0  0  0  0  0  0  0  0  0  0
    7.0155   -1.4907    1.7670 H   0  0  0  0  0  0  0  0  0  0  0  0
    4.5491   -2.7642    0.3289 H   0  0  0  0  0  0  0  0  0  0  0  0
    4.6746   -5.8969    0.5646 H   0  0  0  0  0  0  0  0  0  0  0  0
    3.4768   -4.6634    0.3123 H   0  0  0  0  0  0  0  0  0  0  0  0
    5.7969   -5.4136   -1.1989 H   0  0  0  0  0  0  0  0  0  0  0  0
    4.3281   -4.8136   -1.8918 H   0  0  0  0  0  0  0  0  0  0  0  0
    5.8623   -4.0484   -3.5749 H   0  0  0  0  0  0  0  0  0  0  0  0
    7.4326   -4.1026   -2.7519 H   0  0  0  0  0  0  0  0  0  0  0  0
    6.8080   -2.6495   -3.2379 H   0  0  0  0  0  0  0  0  0  0  0  0
    2.8992   -3.0143    1.2499 H   0  0  0  0  0  0  0  0  0  0  0  0
  1  2  1  0
  1 26  1  0
  1 27  1  0
  1 28  1  0
  2  3  2  3
  2 29  1  0
  3 15  1  0
  3  4  1  0
  4  5  1  0
  4 30  1  0
  4 31  1  0
  5 20  1  0
  5  6  1  0
  5 54  1  1
  6 17  1  0
  6  7  1  0
  6 32  1  1
  7  8  1  0
  7 33  1  0
  7 34  1  0
  8 21  1  0
  8  9  1  0
  8 35  1  1
  9 10  2  0
  9 11  1  0
 11 12  2  0
 11 36  1  0
 12 13  1  0
 12 37  1  0
 13 21  1  0
 13 14  1  0
 13 38  1  1
 14 24  1  0
 14 15  1  0
 14 39  1  6
 15 16  1  0
 15 40  1  6
 16 19  1  0
 16 17  1  0
 16 41  1  6
 17 18  1  0
 17 42  1  1
 18 19  1  0
 18 43  1  0
 18 44  1  0
 19 20  1  0
 19 45  1  6
 20 21  1  0
 20 46  1  6
 21 22  1  6
 22 23  1  0
 22 47  1  0
 22 48  1  0
 23 24  1  0
 23 49  1  0
 23 50  1  0
 24 25  1  0
 25 51  1  0
 25 52  1  0
 25 53  1  0
M  CHG  1   5   1
M  END
>  <i_m_ct_stereo_status>  (141) 
1

>  <s_m_source_file>  (141) 
/var/tmp/pbs.5076255.sched01/tmpr6ewtwjb/42o4phu6d4.sdf

>  <i_m_source_file_index>  (141) 
25

>  <i_lp_mmshare_version>  (141) 
48012

>  <i_f3d_flags>  (141) 
0

>  <s_epik_input>  (141) 
Tz1DMVtDSF09W0NIXVtDQEhdMltDQEBIXShOKFtDSDNdKVtDSDJdW0NIMl0zKVtDQEBIXShDKFxbQ0gyXTQpPVtDSF1cW0NIM10pW0NAQEhdKFtDQEBIXTVbQ0gyXTYpW0NAQEhdNltDQEBIXTdONFtDQEhdNVtDSDJdW0NAQEhdMVtDQEBdMjM3

>  <s_epik_cmdline>  (141) 
J2VwaWtfcHl0aG9uJywgJy1waHQnLCAnMi4wJywgJy1waCcsICc3LjAnLCAnLXRuJywgJzgnLCAnLW1hJywgJzIwMCcsICctaW1hZScsICc8aW5maWxlLm1hZT4nLCAnLW9tYWUnLCAnPG91dGZpbGUubWFlPic=

>  <r_epik_Ionization_Penalty>  (141) 
0.474134

>  <r_epik_Ionization_Penalty_Charging>  (141) 
0.0162641

>  <r_epik_Ionization_Penalty_Neutral>  (141) 
0.45787

>  <r_epik_State_Penalty>  (141) 
0.744167

>  <r_epik_Charging_Adjusted_Penalty>  (141) 
0.760431

>  <i_epik_Tot_Q>  (141) 
1

>  <i_epik_Tot_abs_Q>  (141) 
1

>  <s_lp_Force_Field>  (141) 
OPLS3e

>  <r_lp_Energy>  (141) 
393.797

>  <b_lp_Chiralities_Consistent>  (141) 
1

>  <s_lp_Variant>  (141) 
46:0-3

>  <s_i_glide_gridfile>  (141) 
pfpi4k_grid

>  <i_i_glide_lignum>  (141) 
25

>  <i_i_glide_rotatable_bonds>  (141) 
0

>  <r_i_docking_score>  (141) 
-2.62677

>  <r_i_glide_ligand_efficiency>  (141) 
-0.105071

>  <r_i_glide_ligand_efficiency_sa>  (141) 
-0.307229

>  <r_i_glide_ligand_efficiency_ln>  (141) 
-0.622622

>  <r_i_glide_gscore>  (141) 
-2.62677

>  <r_i_glide_lipo>  (141) 
-0.966687

>  <r_i_glide_hbond>  (141) 
0

>  <r_i_glide_metal>  (141) 
-0

>  <r_i_glide_rewards>  (141) 
-1.12673

>  <r_i_glide_evdw>  (141) 
-1.23941

>  <r_i_glide_ecoul>  (141) 
-3.05465

>  <r_i_glide_erotb>  (141) 
0

>  <r_i_glide_esite>  (141) 
-0.0131857

>  <r_i_glide_emodel>  (141) 
-3.52645

>  <r_i_glide_energy>  (141) 
-4.29406

>  <r_i_glide_einternal>  (141) 
0

>  <r_i_glide_intrahb_reward>  (141) 
-0

>  <i_i_glide_confnum>  (141) 
1

>  <i_i_glide_posenum>  (141) 
13

>  <r_i_glide_eff_state_penalty>  (141) 
0

>  <ligand_id>  (141) 
46

>  <original_smiles>  (141) 
CC=C1CN2C3CC4C(=O)C=CC5C6C1C1C3CC1C2C45CCN6C

>  <smiles>  (141) 
[H]C1=C([H])C2([H])C3([H])N(C([H])([H])[H])C([H])([H])C([H])([H])C24C([H])(C1=O)C([H])([H])C1([H])C2([H])C([H])([H])C5([H])C2([H])C3([H])C(=C([H])C([H])([H])[H])C([H])([H])[N+]1([H])C54[H]

$$$$
46:2:2
     RDKit          3D

 54 60  0  0  1  0  0  0  0  0999 V2000
    2.9032   -5.8510    4.4328 C   0  0  0  0  0  0  0  0  0  0  0  0
    3.8792   -4.7706    4.0197 C   0  0  0  0  0  0  0  0  0  0  0  0
    4.4960   -4.6217    2.8218 C   0  0  0  0  0  0  0  0  0  0  0  0
    4.2555   -5.5996    1.5795 C   0  0  0  0  0  0  0  0  0  0  0  0
    4.3878   -4.9539    0.1734 N   0  0  2  0  0  0  0  0  0  0  0  0
    5.4248   -5.3563   -0.7176 C   0  0  1  0  0  0  0  0  0  0  0  0
    5.2701   -4.3127   -2.0776 C   0  0  0  0  0  0  0  0  0  0  0  0
    5.0517   -2.7359   -1.7109 C   0  0  1  0  0  0  0  0  0  0  0  0
    4.5725   -1.5583   -2.5572 C   0  0  0  0  0  0  0  0  0  0  0  0
    4.4305   -1.6866   -3.7778 O   0  0  0  0  0  0  0  0  0  0  0  0
    4.3495   -0.2652   -1.7702 C   0  0  0  0  0  0  0  0  0  0  0  0
    4.4198   -0.2376   -0.3806 C   0  0  0  0  0  0  0  0  0  0  0  0
    4.8891   -1.4240    0.4530 C   0  0  1  0  0  0  0  0  0  0  0  0
    4.7697   -1.8749    2.0688 C   0  0  2  0  0  0  0  0  0  0  0  0
    5.4920   -3.4253    2.6089 C   0  0  2  0  0  0  0  0  0  0  0  0
    6.6483   -4.1965    1.6835 C   0  0  1  0  0  0  0  0  0  0  0  0
    6.6791   -5.2491    0.3467 C   0  0  2  0  0  0  0  0  0  0  0  0
    7.6546   -4.2364   -0.1455 C   0  0  0  0  0  0  0  0  0  0  0  0
    6.5469   -3.4054    0.5251 C   0  0  1  0  0  0  0  0  0  0  0  0
    4.9047   -3.6023    0.2392 C   0  0  1  0  0  0  0  0  0  0  0  0
    4.3239   -2.5498   -0.3944 C   0  0  2  0  0  0  0  0  0  0  0  0
    2.7573   -2.5074   -0.2237 C   0  0  0  0  0  0  0  0  0  0  0  0
    2.3490   -1.8266    1.1652 C   0  0  0  0  0  0  0  0  0  0  0  0
    3.2951   -1.8960    2.3259 N   0  0  0  0  0  0  0  0  0  0  0  0
    2.9023   -0.9279    3.3493 C   0  0  0  0  0  0  0  0  0  0  0  0
    3.2292   -6.2881    5.3760 H   0  0  0  0  0  0  0  0  0  0  0  0
    2.8173   -6.6546    3.7045 H   0  0  0  0  0  0  0  0  0  0  0  0
    1.9202   -5.4132    4.5958 H   0  0  0  0  0  0  0  0  0  0  0  0
    4.0882   -4.0365    4.7857 H   0  0  0  0  0  0  0  0  0  0  0  0
    4.8779   -6.4880    1.6937 H   0  0  0  0  0  0  0  0  0  0  0  0
    3.2286   -5.9506    1.6266 H   0  0  0  0  0  0  0  0  0  0  0  0
    5.1846   -6.3809   -0.9623 H   0  0  0  0  0  0  0  0  0  0  0  0
    6.1572   -4.2631   -2.7281 H   0  0  0  0  0  0  0  0  0  0  0  0
    4.4270   -4.6318   -2.7041 H   0  0  0  0  0  0  0  0  0  0  0  0
    6.0851   -2.3983   -1.5940 H   0  0  0  0  0  0  0  0  0  0  0  0
    4.0859    0.5763   -2.3839 H   0  0  0  0  0  0  0  0  0  0  0  0
    4.1977    0.6748    0.1452 H   0  0  0  0  0  0  0  0  0  0  0  0
    5.8979   -1.0790    0.2633 H   0  0  0  0  0  0  0  0  0  0  0  0
    5.2284   -1.0715    2.6503 H   0  0  0  0  0  0  0  0  0  0  0  0
    5.8771   -3.2060    3.6019 H   0  0  0  0  0  0  0  0  0  0  0  0
    7.6321   -4.2535    2.1416 H   0  0  0  0  0  0  0  0  0  0  0  0
    7.1523   -6.2004    0.5955 H   0  0  0  0  0  0  0  0  0  0  0  0
    8.6292   -4.2490    0.3452 H   0  0  0  0  0  0  0  0  0  0  0  0
    7.7695   -4.0873   -1.2110 H   0  0  0  0  0  0  0  0  0  0  0  0
    7.0430   -2.4646    0.7557 H   0  0  0  0  0  0  0  0  0  0  0  0
    4.1094   -3.6129    0.9040 H   0  0  0  0  0  0  0  0  0  0  0  0
    2.4065   -1.9782   -1.0974 H   0  0  0  0  0  0  0  0  0  0  0  0
    2.2865   -3.4906   -0.3114 H   0  0  0  0  0  0  0  0  0  0  0  0
    2.1550   -0.7718    0.9731 H   0  0  0  0  0  0  0  0  0  0  0  0
    1.3983   -2.2319    1.5039 H   0  0  0  0  0  0  0  0  0  0  0  0
    1.8476   -1.0386    3.6012 H   0  0  0  0  0  0  0  0  0  0  0  0
    3.0514    0.0968    3.0059 H   0  0  0  0  0  0  0  0  0  0  0  0
    3.4759   -1.0665    4.2660 H   0  0  0  0  0  0  0  0  0  0  0  0
    3.5086   -4.9850   -0.3310 H   0  0  0  0  0  0  0  0  0  0  0  0
  1  2  1  0
  1 26  1  0
  1 27  1  0
  1 28  1  0
  2  3  2  3
  2 29  1  0
  3 15  1  0
  3  4  1  0
  4  5  1  0
  4 30  1  0
  4 31  1  0
  5 20  1  0
  5  6  1  0
  5 54  1  6
  6 17  1  0
  6  7  1  0
  6 32  1  6
  7  8  1  0
  7 33  1  0
  7 34  1  0
  8 21  1  0
  8  9  1  0
  8 35  1  1
  9 10  2  0
  9 11  1  0
 11 12  2  0
 11 36  1  0
 12 13  1  0
 12 37  1  0
 13 21  1  0
 13 14  1  0
 13 38  1  6
 14 24  1  0
 14 15  1  0
 14 39  1  1
 15 16  1  0
 15 40  1  1
 16 19  1  0
 16 17  1  0
 16 41  1  1
 17 18  1  0
 17 42  1  1
 18 19  1  0
 18 43  1  0
 18 44  1  0
 19 20  1  0
 19 45  1  1
 20 21  1  0
 20 46  1  1
 21 22  1  6
 22 23  1  0
 22 47  1  0
 22 48  1  0
 23 24  1  0
 23 49  1  0
 23 50  1  0
 24 25  1  0
 25 51  1  0
 25 52  1  0
 25 53  1  0
M  CHG  1   5   1
M  END
>  <i_m_ct_stereo_status>  (142) 
1

>  <s_m_source_file>  (142) 
/var/tmp/pbs.5076255.sched01/tmpr6ewtwjb/42o4phu6d4.sdf

>  <i_m_source_file_index>  (142) 
25

>  <i_lp_mmshare_version>  (142) 
48012

>  <i_f3d_flags>  (142) 
0

>  <s_epik_input>  (142) 
Tz1DMVtDSF09W0NIXVtDQEhdMltDQEBIXShOKFtDSDNdKVtDSDJdW0NIMl0zKVtDQEBIXShDKFxbQ0gyXTQpPVtDSF1cW0NIM10pW0NAQEhdKFtDQEBIXTVbQ0gyXTYpW0NAQEhdNltDQEBIXTdONFtDQEhdNVtDSDJdW0NAQEhdMVtDQEBdMjM3

>  <s_epik_cmdline>  (142) 
J2VwaWtfcHl0aG9uJywgJy1waHQnLCAnMi4wJywgJy1waCcsICc3LjAnLCAnLXRuJywgJzgnLCAnLW1hJywgJzIwMCcsICctaW1hZScsICc8aW5maWxlLm1hZT4nLCAnLW9tYWUnLCAnPG91dGZpbGUubWFlPic=

>  <r_epik_Ionization_Penalty>  (142) 
0.474134

>  <r_epik_Ionization_Penalty_Charging>  (142) 
0.0162641

>  <r_epik_Ionization_Penalty_Neutral>  (142) 
0.45787

>  <r_epik_State_Penalty>  (142) 
0.744167

>  <r_epik_Charging_Adjusted_Penalty>  (142) 
0.760431

>  <i_epik_Tot_Q>  (142) 
1

>  <i_epik_Tot_abs_Q>  (142) 
1

>  <s_lp_Force_Field>  (142) 
OPLS3e

>  <r_lp_Energy>  (142) 
393.797

>  <b_lp_Chiralities_Consistent>  (142) 
1

>  <s_lp_Variant>  (142) 
46:0-3

>  <s_i_glide_gridfile>  (142) 
pfpi4k_grid

>  <i_i_glide_lignum>  (142) 
25

>  <i_i_glide_rotatable_bonds>  (142) 
0

>  <r_i_docking_score>  (142) 
-2.59945

>  <r_i_glide_ligand_efficiency>  (142) 
-0.103978

>  <r_i_glide_ligand_efficiency_sa>  (142) 
-0.304033

>  <r_i_glide_ligand_efficiency_ln>  (142) 
-0.616147

>  <r_i_glide_gscore>  (142) 
-2.59945

>  <r_i_glide_lipo>  (142) 
-0.558874

>  <r_i_glide_hbond>  (142) 
0

>  <r_i_glide_metal>  (142) 
-0

>  <r_i_glide_rewards>  (142) 
-1.1081

>  <r_i_glide_evdw>  (142) 
-3.09729

>  <r_i_glide_ecoul>  (142) 
-5.01386

>  <r_i_glide_erotb>  (142) 
0

>  <r_i_glide_esite>  (142) 
-0.025531

>  <r_i_glide_emodel>  (142) 
-7.65819

>  <r_i_glide_energy>  (142) 
-8.11115

>  <r_i_glide_einternal>  (142) 
0

>  <r_i_glide_intrahb_reward>  (142) 
-0

>  <i_i_glide_confnum>  (142) 
2

>  <i_i_glide_posenum>  (142) 
14

>  <r_i_glide_eff_state_penalty>  (142) 
0

>  <ligand_id>  (142) 
46

>  <original_smiles>  (142) 
CC=C1CN2C3CC4C(=O)C=CC5C6C1C1C3CC1C2C45CCN6C

>  <smiles>  (142) 
[H]C1=C([H])C2([H])C3([H])N(C([H])([H])[H])C([H])([H])C([H])([H])C24C([H])(C1=O)C([H])([H])C1([H])C2([H])C([H])([H])C5([H])C2([H])C3([H])C(=C([H])C([H])([H])[H])C([H])([H])[N+]1([H])C54[H]

$$$$
46:3:0
     RDKit          3D

 54 60  0  0  1  0  0  0  0  0999 V2000
    4.1608   -0.5133   -4.1255 C   0  0  0  0  0  0  0  0  0  0  0  0
    4.3540   -0.1946   -2.6542 C   0  0  0  0  0  0  0  0  0  0  0  0
    4.8809   -0.9597   -1.6760 C   0  0  0  0  0  0  0  0  0  0  0  0
    4.9102   -0.4714   -0.1528 C   0  0  0  0  0  0  0  0  0  0  0  0
    4.8184   -1.5593    0.9255 N   0  0  2  0  0  0  0  0  0  0  0  0
    5.9074   -1.7806    1.8338 C   0  0  1  0  0  0  0  0  0  0  0  0
    5.3733   -3.1192    2.7420 C   0  0  0  0  0  0  0  0  0  0  0  0
    4.7035   -4.3585    1.8914 C   0  0  1  0  0  0  0  0  0  0  0  0
    3.8731   -5.6054    2.2984 C   0  0  0  0  0  0  0  0  0  0  0  0
    3.7201   -5.9478    3.4516 O   0  0  0  0  0  0  0  0  0  0  0  0
    3.3229   -6.3853    1.1877 C   0  0  0  0  0  0  0  0  0  0  0  0
    3.4810   -5.9631   -0.0941 C   0  0  0  0  0  0  0  0  0  0  0  0
    4.2911   -4.7301   -0.5739 C   0  0  1  0  0  0  0  0  0  0  0  0
    4.3538   -3.7414   -1.9522 C   0  0  2  0  0  0  0  0  0  0  0  0
    5.4983   -2.3703   -1.9634 C   0  0  2  0  0  0  0  0  0  0  0  0
    6.7864   -2.3382   -0.9250 C   0  0  1  0  0  0  0  0  0  0  0  0
    7.0816   -1.8585    0.6897 C   0  0  2  0  0  0  0  0  0  0  0  0
    7.7030   -3.1934    0.7668 C   0  0  0  0  0  0  0  0  0  0  0  0
    6.4242   -3.3997   -0.0756 C   0  0  1  0  0  0  0  0  0  0  0  0
    4.8972   -2.8824    0.3537 C   0  0  1  0  0  0  0  0  0  0  0  0
    4.0073   -3.8773    0.6333 C   0  0  2  0  0  0  0  0  0  0  0  0
    2.4750   -3.4499    0.5100 C   0  0  0  0  0  0  0  0  0  0  0  0
    1.9963   -3.4733   -1.0111 C   0  0  0  0  0  0  0  0  0  0  0  0
    2.9722   -3.2006   -2.1073 N   0  0  0  0  0  0  0  0  0  0  0  0
    2.3376   -3.5670   -3.4009 C   0  0  0  0  0  0  0  0  0  0  0  0
    3.1139   -0.4076   -4.4018 H   0  0  0  0  0  0  0  0  0  0  0  0
    4.4920   -1.5099   -4.3905 H   0  0  0  0  0  0  0  0  0  0  0  0
    4.6465    0.2078   -4.7684 H   0  0  0  0  0  0  0  0  0  0  0  0
    3.9912    0.7828   -2.4403 H   0  0  0  0  0  0  0  0  0  0  0  0
    5.7668    0.1473    0.0590 H   0  0  0  0  0  0  0  0  0  0  0  0
    4.0684    0.1842    0.0142 H   0  0  0  0  0  0  0  0  0  0  0  0
    6.0560   -0.9148    2.4804 H   0  0  0  0  0  0  0  0  0  0  0  0
    6.1641   -3.5385    3.3441 H   0  0  0  0  0  0  0  0  0  0  0  0
    4.6589   -2.7742    3.4820 H   0  0  0  0  0  0  0  0  0  0  0  0
    5.5861   -4.9196    1.5811 H   0  0  0  0  0  0  0  0  0  0  0  0
    2.7535   -7.3126    1.3111 H   0  0  0  0  0  0  0  0  0  0  0  0
    2.9944   -6.6572   -0.7035 H   0  0  0  0  0  0  0  0  0  0  0  0
    5.1283   -5.4107   -0.6587 H   0  0  0  0  0  0  0  0  0  0  0  0
    4.5928   -4.3479   -2.8221 H   0  0  0  0  0  0  0  0  0  0  0  0
    5.8927   -2.3319   -2.9736 H   0  0  0  0  0  0  0  0  0  0  0  0
    7.7242   -2.4750   -1.4665 H   0  0  0  0  0  0  0  0  0  0  0  0
    7.8296   -1.0773    0.7755 H   0  0  0  0  0  0  0  0  0  0  0  0
    8.6802   -3.3219    0.2837 H   0  0  0  0  0  0  0  0  0  0  0  0
    7.6893   -3.6668    1.7376 H   0  0  0  0  0  0  0  0  0  0  0  0
    6.6405   -4.2875   -0.6333 H   0  0  0  0  0  0  0  0  0  0  0  0
    4.1438   -2.4387   -0.2110 H   0  0  0  0  0  0  0  0  0  0  0  0
    1.8316   -4.1264    1.0617 H   0  0  0  0  0  0  0  0  0  0  0  0
    2.2991   -2.4817    0.9780 H   0  0  0  0  0  0  0  0  0  0  0  0
    1.4582   -4.4116   -1.1680 H   0  0  0  0  0  0  0  0  0  0  0  0
    1.2160   -2.7721   -1.1902 H   0  0  0  0  0  0  0  0  0  0  0  0
    1.3618   -3.0774   -3.5335 H   0  0  0  0  0  0  0  0  0  0  0  0
    2.1052   -4.6243   -3.5440 H   0  0  0  0  0  0  0  0  0  0  0  0
    2.9774   -3.3306   -4.2565 H   0  0  0  0  0  0  0  0  0  0  0  0
    3.9600   -1.4453    1.4326 H   0  0  0  0  0  0  0  0  0  0  0  0
  1  2  1  0
  1 26  1  0
  1 27  1  0
  1 28  1  0
  2  3  2  3
  2 29  1  0
  3 15  1  0
  3  4  1  0
  4  5  1  0
  4 30  1  0
  4 31  1  0
  5 20  1  0
  5  6  1  0
  5 54  1  1
  6 17  1  0
  6  7  1  0
  6 32  1  1
  7  8  1  0
  7 33  1  0
  7 34  1  0
  8 21  1  0
  8  9  1  0
  8 35  1  6
  9 10  2  0
  9 11  1  0
 11 12  2  0
 11 36  1  0
 12 13  1  0
 12 37  1  0
 13 21  1  0
 13 14  1  0
 13 38  1  1
 14 24  1  0
 14 15  1  0
 14 39  1  6
 15 16  1  0
 15 40  1  6
 16 19  1  0
 16 17  1  0
 16 41  1  6
 17 18  1  0
 17 42  1  6
 18 19  1  0
 18 43  1  0
 18 44  1  0
 19 20  1  0
 19 45  1  6
 20 21  1  0
 20 46  1  6
 21 22  1  1
 22 23  1  0
 22 47  1  0
 22 48  1  0
 23 24  1  0
 23 49  1  0
 23 50  1  0
 24 25  1  0
 25 51  1  0
 25 52  1  0
 25 53  1  0
M  CHG  1   5   1
M  END
>  <i_m_ct_stereo_status>  (143) 
1

>  <s_m_source_file>  (143) 
/var/tmp/pbs.5076255.sched01/tmpr6ewtwjb/42o4phu6d4.sdf

>  <i_m_source_file_index>  (143) 
26

>  <i_lp_mmshare_version>  (143) 
48012

>  <i_f3d_flags>  (143) 
0

>  <s_epik_input>  (143) 
Tz1DMVtDSF09W0NIXVtDQEhdMltDQEBIXShOKFtDSDNdKVtDSDJdW0NIMl0zKVtDQEBIXShDKFxbQ0gyXTQpPVtDSF1cW0NIM10pW0NAQEhdKFtDQEBIXTVbQ0gyXTYpW0NAQEhdNltDQEBIXTdONFtDQEhdNVtDSDJdW0NAQEhdMVtDQEBdMjM3

>  <s_epik_cmdline>  (143) 
J2VwaWtfcHl0aG9uJywgJy1waHQnLCAnMi4wJywgJy1waCcsICc3LjAnLCAnLXRuJywgJzgnLCAnLW1hJywgJzIwMCcsICctaW1hZScsICc8aW5maWxlLm1hZT4nLCAnLW9tYWUnLCAnPG91dGZpbGUubWFlPic=

>  <r_epik_Ionization_Penalty>  (143) 
0.474134

>  <r_epik_Ionization_Penalty_Charging>  (143) 
0.0162641

>  <r_epik_Ionization_Penalty_Neutral>  (143) 
0.45787

>  <r_epik_State_Penalty>  (143) 
0.744167

>  <r_epik_Charging_Adjusted_Penalty>  (143) 
0.760431

>  <i_epik_Tot_Q>  (143) 
1

>  <i_epik_Tot_abs_Q>  (143) 
1

>  <s_lp_Force_Field>  (143) 
OPLS3e

>  <r_lp_Energy>  (143) 
393.606

>  <b_lp_Chiralities_Consistent>  (143) 
1

>  <s_lp_Variant>  (143) 
46:0-4

>  <s_i_glide_gridfile>  (143) 
pfpi4k_grid

>  <i_i_glide_lignum>  (143) 
26

>  <i_i_glide_rotatable_bonds>  (143) 
0

>  <r_i_docking_score>  (143) 
-2.51315

>  <r_i_glide_ligand_efficiency>  (143) 
-0.100526

>  <r_i_glide_ligand_efficiency_sa>  (143) 
-0.293939

>  <r_i_glide_ligand_efficiency_ln>  (143) 
-0.595691

>  <r_i_glide_gscore>  (143) 
-2.51315

>  <r_i_glide_lipo>  (143) 
-1.00804

>  <r_i_glide_hbond>  (143) 
0

>  <r_i_glide_metal>  (143) 
-0

>  <r_i_glide_rewards>  (143) 
-1.11151

>  <r_i_glide_evdw>  (143) 
0.275684

>  <r_i_glide_ecoul>  (143) 
-2.71586

>  <r_i_glide_erotb>  (143) 
0

>  <r_i_glide_esite>  (143) 
0

>  <r_i_glide_emodel>  (143) 
-9.48405

>  <r_i_glide_energy>  (143) 
-2.44017

>  <r_i_glide_einternal>  (143) 
0

>  <r_i_glide_intrahb_reward>  (143) 
-0

>  <i_i_glide_confnum>  (143) 
2

>  <i_i_glide_posenum>  (143) 
26

>  <r_i_glide_eff_state_penalty>  (143) 
0

>  <ligand_id>  (143) 
46

>  <original_smiles>  (143) 
CC=C1CN2C3CC4C(=O)C=CC5C6C1C1C3CC1C2C45CCN6C

>  <smiles>  (143) 
[H]C1=C([H])C2([H])C3([H])N(C([H])([H])[H])C([H])([H])C([H])([H])C24C([H])(C1=O)C([H])([H])C1([H])C2([H])C([H])([H])C5([H])C2([H])C3([H])C(=C([H])C([H])([H])[H])C([H])([H])[N+]1([H])C54[H]

$$$$
46:4:0
     RDKit          3D

 55 61  0  0  1  0  0  0  0  0999 V2000
    3.0648   -3.2097   -3.5280 C   0  0  0  0  0  0  0  0  0  0  0  0
    4.1152   -3.6595   -2.5256 C   0  0  0  0  0  0  0  0  0  0  0  0
    4.4799   -3.0435   -1.3848 C   0  0  0  0  0  0  0  0  0  0  0  0
    3.8793   -1.6427   -0.9053 C   0  0  0  0  0  0  0  0  0  0  0  0
    3.8605   -1.3944    0.6283 N   0  0  2  0  0  0  0  0  0  0  0  0
    4.6554   -0.3468    1.2012 C   0  0  1  0  0  0  0  0  0  0  0  0
    4.3823   -0.5247    2.8778 C   0  0  0  0  0  0  0  0  0  0  0  0
    4.4553   -2.0908    3.4566 C   0  0  1  0  0  0  0  0  0  0  0  0
    4.0138   -2.7678    4.7708 C   0  0  0  0  0  0  0  0  0  0  0  0
    3.6319   -2.0806    5.7185 O   0  0  0  0  0  0  0  0  0  0  0  0
    4.1231   -4.2949    4.8070 C   0  0  0  0  0  0  0  0  0  0  0  0
    4.4835   -5.0585    3.7046 C   0  0  0  0  0  0  0  0  0  0  0  0
    4.8957   -4.3788    2.3839 C   0  0  1  0  0  0  0  0  0  0  0  0
    4.9818   -4.8529    0.7729 C   0  0  2  0  0  0  0  0  0  0  0  0
    5.5687   -3.7019   -0.4727 C   0  0  2  0  0  0  0  0  0  0  0  0
    6.4205   -2.3521   -0.0451 C   0  0  1  0  0  0  0  0  0  0  0  0
    6.0583   -0.7529    0.4537 C   0  0  2  0  0  0  0  0  0  0  0  0
    7.0327   -1.0873    1.5061 C   0  0  0  0  0  0  0  0  0  0  0  0
    6.2297   -2.3852    1.3494 C   0  0  1  0  0  0  0  0  0  0  0  0
    4.5735   -2.4287    1.3837 C   0  0  1  0  0  0  0  0  0  0  0  0
    4.0196   -3.1303    2.4249 C   0  0  2  0  0  0  0  0  0  0  0  0
    2.5256   -3.6491    2.1724 C   0  0  0  0  0  0  0  0  0  0  0  0
    2.4014   -4.5518    0.8653 C   0  0  0  0  0  0  0  0  0  0  0  0
    3.6005   -5.3957    0.4632 N   0  0  2  0  0  0  0  0  0  0  0  0
    3.4061   -6.7901    0.9105 C   0  0  0  0  0  0  0  0  0  0  0  0
    3.4735   -3.2641   -4.5361 H   0  0  0  0  0  0  0  0  0  0  0  0
    2.7067   -2.1945   -3.3588 H   0  0  0  0  0  0  0  0  0  0  0  0
    2.2049   -3.8799   -3.4993 H   0  0  0  0  0  0  0  0  0  0  0  0
    4.5904   -4.6083   -2.7696 H   0  0  0  0  0  0  0  0  0  0  0  0
    4.3615   -0.8319   -1.4509 H   0  0  0  0  0  0  0  0  0  0  0  0
    2.8417   -1.6278   -1.2144 H   0  0  0  0  0  0  0  0  0  0  0  0
    4.3164    0.6244    0.8534 H   0  0  0  0  0  0  0  0  0  0  0  0
    5.0847    0.0909    3.4398 H   0  0  0  0  0  0  0  0  0  0  0  0
    3.3962   -0.1139    3.1038 H   0  0  0  0  0  0  0  0  0  0  0  0
    5.5298   -2.2078    3.6223 H   0  0  0  0  0  0  0  0  0  0  0  0
    3.8972   -4.7807    5.7439 H   0  0  0  0  0  0  0  0  0  0  0  0
    4.5695   -6.1316    3.7909 H   0  0  0  0  0  0  0  0  0  0  0  0
    5.9029   -4.3271    2.7745 H   0  0  0  0  0  0  0  0  0  0  0  0
    5.6792   -5.6923    0.7266 H   0  0  0  0  0  0  0  0  0  0  0  0
    6.1982   -4.2859   -1.1427 H   0  0  0  0  0  0  0  0  0  0  0  0
    7.4683   -2.4456   -0.3538 H   0  0  0  0  0  0  0  0  0  0  0  0
    6.4431    0.0000   -0.2293 H   0  0  0  0  0  0  0  0  0  0  0  0
    8.0761   -1.1031    1.1744 H   0  0  0  0  0  0  0  0  0  0  0  0
    6.9253   -0.5990    2.4675 H   0  0  0  0  0  0  0  0  0  0  0  0
    6.8949   -3.1613    1.7062 H   0  0  0  0  0  0  0  0  0  0  0  0
    3.9438   -2.9147    0.7636 H   0  0  0  0  0  0  0  0  0  0  0  0
    2.1570   -4.2412    3.0122 H   0  0  0  0  0  0  0  0  0  0  0  0
    1.8400   -2.8024    2.1008 H   0  0  0  0  0  0  0  0  0  0  0  0
    1.5045   -5.1688    0.9275 H   0  0  0  0  0  0  0  0  0  0  0  0
    2.2040   -3.8901    0.0185 H   0  0  0  0  0  0  0  0  0  0  0  0
    3.3378   -6.8571    1.9935 H   0  0  0  0  0  0  0  0  0  0  0  0
    4.1927   -7.4570    0.5539 H   0  0  0  0  0  0  0  0  0  0  0  0
    2.4519   -7.1348    0.5216 H   0  0  0  0  0  0  0  0  0  0  0  0
    2.9014   -1.3076    0.9503 H   0  0  0  0  0  0  0  0  0  0  0  0
    3.5544   -5.4622   -0.5488 H   0  0  0  0  0  0  0  0  0  0  0  0
  1  2  1  0
  1 26  1  0
  1 27  1  0
  1 28  1  0
  2  3  2  3
  2 29  1  0
  3 15  1  0
  3  4  1  0
  4  5  1  0
  4 30  1  0
  4 31  1  0
  5 20  1  0
  5  6  1  0
  5 54  1  1
  6 17  1  0
  6  7  1  0
  6 32  1  6
  7  8  1  0
  7 33  1  0
  7 34  1  0
  8 21  1  0
  8  9  1  0
  8 35  1  1
  9 10  2  0
  9 11  1  0
 11 12  2  0
 11 36  1  0
 12 13  1  0
 12 37  1  0
 13 21  1  0
 13 14  1  0
 13 38  1  1
 14 24  1  0
 14 15  1  0
 14 39  1  1
 15 16  1  0
 15 40  1  6
 16 19  1  0
 16 17  1  0
 16 41  1  1
 17 18  1  0
 17 42  1  6
 18 19  1  0
 18 43  1  0
 18 44  1  0
 19 20  1  0
 19 45  1  1
 20 21  1  0
 20 46  1  6
 21 22  1  6
 22 23  1  0
 22 47  1  0
 22 48  1  0
 23 24  1  0
 23 49  1  0
 23 50  1  0
 24 25  1  0
 24 55  1  6
 25 51  1  0
 25 52  1  0
 25 53  1  0
M  CHG  2   5   1  24   1
M  END
>  <i_m_ct_stereo_status>  (144) 
1

>  <s_m_source_file>  (144) 
/var/tmp/pbs.5076255.sched01/tmpr6ewtwjb/42o4phu6d4.sdf

>  <i_m_source_file_index>  (144) 
27

>  <i_lp_mmshare_version>  (144) 
48012

>  <i_f3d_flags>  (144) 
0

>  <s_epik_input>  (144) 
Tz1DMVtDSF09W0NIXVtDQEhdMltDQEBIXShOKFtDSDNdKVtDSDJdW0NIMl0zKVtDQEBIXShDKFxbQ0gyXTQpPVtDSF1cW0NIM10pW0NAQEhdKFtDQEBIXTVbQ0gyXTYpW0NAQEhdNltDQEBIXTdONFtDQEhdNVtDSDJdW0NAQEhdMVtDQEBdMjM3

>  <s_epik_cmdline>  (144) 
J2VwaWtfcHl0aG9uJywgJy1waHQnLCAnMi4wJywgJy1waCcsICc3LjAnLCAnLXRuJywgJzgnLCAnLW1hJywgJzIwMCcsICctaW1hZScsICc8aW5maWxlLm1hZT4nLCAnLW9tYWUnLCAnPG91dGZpbGUubWFlPic=

>  <r_epik_Ionization_Penalty>  (144) 
1.13619

>  <r_epik_Ionization_Penalty_Charging>  (144) 
1.13619

>  <r_epik_Ionization_Penalty_Neutral>  (144) 
0

>  <r_epik_State_Penalty>  (144) 
0.856433

>  <r_epik_Charging_Adjusted_Penalty>  (144) 
1.99262

>  <i_epik_Tot_Q>  (144) 
2

>  <i_epik_Tot_abs_Q>  (144) 
2

>  <s_lp_Force_Field>  (144) 
OPLS3e

>  <r_lp_Energy>  (144) 
405.264

>  <b_lp_Chiralities_Consistent>  (144) 
1

>  <s_lp_Variant>  (144) 
46:0-5

>  <s_i_glide_gridfile>  (144) 
pfpi4k_grid

>  <i_i_glide_lignum>  (144) 
27

>  <i_i_glide_rotatable_bonds>  (144) 
0

>  <r_i_docking_score>  (144) 
-3.66631

>  <r_i_glide_ligand_efficiency>  (144) 
-0.146652

>  <r_i_glide_ligand_efficiency_sa>  (144) 
-0.428815

>  <r_i_glide_ligand_efficiency_ln>  (144) 
-0.869026

>  <r_i_glide_gscore>  (144) 
-3.66631

>  <r_i_glide_lipo>  (144) 
-0.882325

>  <r_i_glide_hbond>  (144) 
0

>  <r_i_glide_metal>  (144) 
-0

>  <r_i_glide_rewards>  (144) 
-1.10123

>  <r_i_glide_evdw>  (144) 
-15.2904

>  <r_i_glide_ecoul>  (144) 
-5.84288

>  <r_i_glide_erotb>  (144) 
0

>  <r_i_glide_esite>  (144) 
-0.0418067

>  <r_i_glide_emodel>  (144) 
-25.422

>  <r_i_glide_energy>  (144) 
-21.1333

>  <r_i_glide_einternal>  (144) 
0

>  <r_i_glide_intrahb_reward>  (144) 
-0

>  <i_i_glide_confnum>  (144) 
2

>  <i_i_glide_posenum>  (144) 
31

>  <r_i_glide_eff_state_penalty>  (144) 
0

>  <ligand_id>  (144) 
46

>  <original_smiles>  (144) 
CC=C1CN2C3CC4C(=O)C=CC5C6C1C1C3CC1C2C45CCN6C

>  <smiles>  (144) 
[H]C1=C([H])C2([H])C34C([H])([H])C([H])([H])[N+]([H])(C([H])([H])[H])C2([H])C2([H])C(=C([H])C([H])([H])[H])C([H])([H])[N+]5([H])C([H])(C([H])([H])C3([H])C1=O)C1([H])C([H])([H])C([H])(C21[H])C45[H]

$$$$
49:2:0
     RDKit          3D

 61 67  0  0  1  0  0  0  0  0999 V2000
    2.4141    7.3083    4.8143 C   0  0  0  0  0  0  0  0  0  0  0  0
    1.5388    6.8463    5.8530 O   0  0  0  0  0  0  0  0  0  0  0  0
    0.6860    5.7905    5.7174 C   0  0  0  0  0  0  0  0  0  0  0  0
   -0.1755    5.5189    6.5547 O   0  0  0  0  0  0  0  0  0  0  0  0
    0.7877    4.9516    4.4195 C   0  0  2  0  0  0  0  0  0  0  0  0
   -0.6182    4.2928    4.0074 C   0  0  0  0  0  0  0  0  0  0  0  0
   -1.0152    2.9208    4.6599 C   0  0  1  0  0  0  0  0  0  0  0  0
   -1.7596    1.8106    3.7790 C   0  0  0  0  0  0  0  0  0  0  0  0
   -1.2658    0.2425    3.9535 C   0  0  0  0  0  0  0  0  0  0  0  0
    0.0777   -0.1974    4.5534 N   0  0  0  0  0  0  0  0  0  0  0  0
    0.1668   -1.6082    4.8640 C   0  0  0  0  0  0  0  0  0  0  0  0
    1.3939    0.3688    4.0895 C   0  0  2  0  0  0  0  0  0  0  0  0
    2.6510    0.7538    5.0119 C   0  0  0  0  0  0  0  0  0  0  0  0
    2.6955    2.2011    5.7719 C   0  0  1  0  0  0  0  0  0  0  0  0
    3.5554    2.0995    6.8741 O   0  0  0  0  0  0  0  0  0  0  0  0
    4.9328    1.9158    6.5840 C   0  0  0  0  0  0  0  0  0  0  0  0
    3.0388    3.3795    5.0626 O   0  0  0  0  0  0  0  0  0  0  0  0
    2.2601    4.2441    4.1643 C   0  0  1  0  0  0  0  0  0  0  0  0
    2.3145    3.5897    2.8678 C   0  0  0  0  0  0  0  0  0  0  0  0
    1.8167    2.3785    2.7131 C   0  0  0  0  0  0  0  0  0  0  0  0
    0.9440    1.6778    3.7538 C   0  0  2  0  0  0  0  0  0  0  0  0
    0.3432    2.3435    5.1297 C   0  0  2  0  0  0  0  0  0  0  0  0
   -0.5843    1.8929    6.2478 C   0  0  0  0  0  0  0  0  0  0  0  0
   -1.7055    2.7089    5.9992 C   0  0  0  0  0  0  0  0  0  0  0  0
   -2.4871    3.2031    7.0383 C   0  0  0  0  0  0  0  0  0  0  0  0
   -2.1753    2.6760    8.3435 C   0  0  0  0  0  0  0  0  0  0  0  0
   -0.9816    1.8854    8.5717 C   0  0  0  0  0  0  0  0  0  0  0  0
   -0.5185    1.5286    9.8287 O   0  0  0  0  0  0  0  0  0  0  0  0
   -1.1468    2.0532   10.9874 C   0  0  0  0  0  0  0  0  0  0  0  0
   -0.1543    1.5554    7.5031 C   0  0  0  0  0  0  0  0  0  0  0  0
    1.1817    1.6321    7.4583 O   0  0  0  0  0  0  0  0  0  0  0  0
    1.3731    2.5020    6.3156 C   0  0  1  0  0  0  0  0  0  0  0  0
    2.9201    8.2264    5.1152 H   0  0  0  0  0  0  0  0  0  0  0  0
    1.8402    7.4974    3.9006 H   0  0  0  0  0  0  0  0  0  0  0  0
    3.1977    6.6168    4.6512 H   0  0  0  0  0  0  0  0  0  0  0  0
    0.8001    5.7265    3.6494 H   0  0  0  0  0  0  0  0  0  0  0  0
   -1.4435    5.0104    4.0351 H   0  0  0  0  0  0  0  0  0  0  0  0
   -0.5058    4.1049    2.9312 H   0  0  0  0  0  0  0  0  0  0  0  0
   -2.8340    1.8737    3.9560 H   0  0  0  0  0  0  0  0  0  0  0  0
   -1.7055    2.0747    2.7263 H   0  0  0  0  0  0  0  0  0  0  0  0
   -2.0326   -0.2433    4.5439 H   0  0  0  0  0  0  0  0  0  0  0  0
   -1.3559   -0.2175    2.9730 H   0  0  0  0  0  0  0  0  0  0  0  0
    0.2544   -2.2384    3.9799 H   0  0  0  0  0  0  0  0  0  0  0  0
   -0.7095   -1.9227    5.4239 H   0  0  0  0  0  0  0  0  0  0  0  0
    1.0307   -1.7886    5.4992 H   0  0  0  0  0  0  0  0  0  0  0  0
    1.7353   -0.1442    3.1841 H   0  0  0  0  0  0  0  0  0  0  0  0
    2.7550   -0.0159    5.7703 H   0  0  0  0  0  0  0  0  0  0  0  0
    3.5503    0.7269    4.3998 H   0  0  0  0  0  0  0  0  0  0  0  0
    5.5046    1.9880    7.5085 H   0  0  0  0  0  0  0  0  0  0  0  0
    5.3182    2.6738    5.9019 H   0  0  0  0  0  0  0  0  0  0  0  0
    5.1264    0.9304    6.1633 H   0  0  0  0  0  0  0  0  0  0  0  0
    2.9910    4.9632    3.9438 H   0  0  0  0  0  0  0  0  0  0  0  0
    2.8909    4.0915    2.1016 H   0  0  0  0  0  0  0  0  0  0  0  0
    1.9923    1.9078    1.7570 H   0  0  0  0  0  0  0  0  0  0  0  0
    0.2932    1.5944    2.8959 H   0  0  0  0  0  0  0  0  0  0  0  0
   -3.2724    3.9512    6.9220 H   0  0  0  0  0  0  0  0  0  0  0  0
   -2.7852    2.9644    9.1660 H   0  0  0  0  0  0  0  0  0  0  0  0
   -0.6493    1.6639   11.8787 H   0  0  0  0  0  0  0  0  0  0  0  0
   -2.1900    1.7522   11.0398 H   0  0  0  0  0  0  0  0  0  0  0  0
   -1.0863    3.1424   11.0309 H   0  0  0  0  0  0  0  0  0  0  0  0
    1.3799    3.4977    6.7433 H   0  0  0  0  0  0  0  0  0  0  0  0
  1  2  1  0
  1 33  1  0
  1 34  1  0
  1 35  1  0
  2  3  1  0
  3  4  2  0
  3  5  1  0
  5 18  1  0
  5  6  1  0
  5 36  1  6
  6  7  1  0
  6 37  1  0
  6 38  1  0
  7 22  1  0
  7 24  1  0
  7  8  1  6
  8  9  1  0
  8 39  1  0
  8 40  1  0
  9 10  1  0
  9 41  1  0
  9 42  1  0
 10 11  1  0
 10 12  1  0
 11 43  1  0
 11 44  1  0
 11 45  1  0
 12 21  1  0
 12 13  1  0
 12 46  1  6
 13 14  1  0
 13 47  1  0
 13 48  1  0
 14 32  1  0
 14 15  1  1
 14 17  1  0
 15 16  1  0
 16 49  1  0
 16 50  1  0
 16 51  1  0
 17 18  1  0
 18 19  1  0
 18 52  1  6
 19 20  2  3
 19 53  1  0
 20 21  1  0
 20 54  1  0
 21 22  1  0
 21 55  1  6
 22 32  1  0
 22 23  1  1
 23 30  1  0
 23 24  2  0
 24 25  1  0
 25 26  2  0
 25 56  1  0
 26 27  1  0
 26 57  1  0
 27 28  1  0
 27 30  2  0
 28 29  1  0
 29 58  1  0
 29 59  1  0
 29 60  1  0
 30 31  1  0
 31 32  1  0
 32 61  1  1
M  END
>  <i_m_ct_stereo_status>  (145) 
1

>  <s_m_source_file>  (145) 
/var/tmp/pbs.5076255.sched01/tmpr6ewtwjb/42o4phu6d4.sdf

>  <i_m_source_file_index>  (145) 
33

>  <i_lp_mmshare_version>  (145) 
48012

>  <i_f3d_flags>  (145) 
0

>  <s_epik_input>  (145) 
W0NIM11PQyg9TylbQ0BIXShbQ0gyXTEpW0NASF0oL1tDSF09W0NIXVwyKU9bQ0BdKE9bQ0gzXSkoW0NIMl1bQ0BIXShbQ0BIXTJbQ0BAXTM0W0NAQF0xNTYpTihbQ0gzXSlbQ0gyXVtDSDJdNSlbQ0BASF00T2M3YzNjNltjSF1bY0hdYzdPW0NIM10=

>  <s_epik_cmdline>  (145) 
J2VwaWtfcHl0aG9uJywgJy1waHQnLCAnMi4wJywgJy1waCcsICc3LjAnLCAnLXRuJywgJzgnLCAnLW1hJywgJzIwMCcsICctaW1hZScsICc8aW5maWxlLm1hZT4nLCAnLW9tYWUnLCAnPG91dGZpbGUubWFlPic=

>  <r_lp_tautomer_probability>  (145) 
1

>  <r_epik_Ionization_Penalty>  (145) 
1.31237

>  <r_epik_Ionization_Penalty_Charging>  (145) 
0

>  <r_epik_Ionization_Penalty_Neutral>  (145) 
1.31237

>  <r_epik_State_Penalty>  (145) 
1.38725

>  <r_epik_Charging_Adjusted_Penalty>  (145) 
1.38725

>  <i_epik_Tot_Q>  (145) 
0

>  <i_epik_Tot_abs_Q>  (145) 
0

>  <s_epik_Chemistry_Notes>  (145) 
This compound has an ester and may undergo hydrolysis at high or low pH.

>  <s_lp_Force_Field>  (145) 
OPLS3e

>  <r_lp_Energy>  (145) 
265.273

>  <b_lp_Chiralities_Consistent>  (145) 
1

>  <s_lp_Variant>  (145) 
49:0-3

>  <s_i_glide_gridfile>  (145) 
pfpi4k_grid

>  <i_i_glide_lignum>  (145) 
33

>  <i_i_glide_rotatable_bonds>  (145) 
4

>  <r_i_docking_score>  (145) 
-2.13894

>  <r_i_glide_ligand_efficiency>  (145) 
-0.0668417

>  <r_i_glide_ligand_efficiency_sa>  (145) 
-0.212209

>  <r_i_glide_ligand_efficiency_ln>  (145) 
-0.478966

>  <r_i_glide_gscore>  (145) 
-2.13894

>  <r_i_glide_lipo>  (145) 
-0.176002

>  <r_i_glide_hbond>  (145) 
0

>  <r_i_glide_metal>  (145) 
-0

>  <r_i_glide_rewards>  (145) 
-0.412494

>  <r_i_glide_evdw>  (145) 
-22.3333

>  <r_i_glide_ecoul>  (145) 
-3.47472

>  <r_i_glide_erotb>  (145) 
0.103327

>  <r_i_glide_esite>  (145) 
-0.0158962

>  <r_i_glide_emodel>  (145) 
-24.7525

>  <r_i_glide_energy>  (145) 
-25.808

>  <r_i_glide_einternal>  (145) 
5.53515

>  <r_i_glide_intrahb_reward>  (145) 
-0

>  <i_i_glide_confnum>  (145) 
3

>  <i_i_glide_posenum>  (145) 
27

>  <r_i_glide_eff_state_penalty>  (145) 
0

>  <ligand_id>  (145) 
49

>  <original_smiles>  (145) 
COC(=O)C1CC23CCN(C)C4CC5(OC)OC1C=CC4C21c2c3ccc(OC)c2OC51

>  <smiles>  (145) 
[H]C1=C([H])C2([H])C3([H])N(C([H])([H])[H])C([H])([H])C([H])([H])C45c6c([H])c([H])c(OC([H])([H])[H])c7c6C24C([H])(O7)C(OC([H])([H])[H])(OC1([H])C([H])(C(=O)OC([H])([H])[H])C5([H])[H])C3([H])[H]

$$$$
49:2:1
     RDKit          3D

 61 67  0  0  1  0  0  0  0  0999 V2000
    3.8746    4.5288    7.4558 C   0  0  0  0  0  0  0  0  0  0  0  0
    3.2912    3.3626    6.9776 O   0  0  0  0  0  0  0  0  0  0  0  0
    3.8916    2.3286    6.4458 C   0  0  0  0  0  0  0  0  0  0  0  0
    5.1005    2.1999    6.3251 O   0  0  0  0  0  0  0  0  0  0  0  0
    2.8942    1.2605    5.9176 C   0  0  2  0  0  0  0  0  0  0  0  0
    2.5952    1.4155    4.3328 C   0  0  0  0  0  0  0  0  0  0  0  0
    1.4457    2.3765    3.8753 C   0  0  1  0  0  0  0  0  0  0  0  0
    0.5169    1.9786    2.6098 C   0  0  0  0  0  0  0  0  0  0  0  0
   -1.1111    2.2449    2.7366 C   0  0  0  0  0  0  0  0  0  0  0  0
   -1.8672    2.4440    4.0599 N   0  0  0  0  0  0  0  0  0  0  0  0
   -3.2098    2.9694    3.9097 C   0  0  0  0  0  0  0  0  0  0  0  0
   -1.7358    1.4942    5.2238 C   0  0  2  0  0  0  0  0  0  0  0  0
   -1.6825    1.8793    6.7899 C   0  0  0  0  0  0  0  0  0  0  0  0
   -0.2667    2.3405    7.4419 C   0  0  1  0  0  0  0  0  0  0  0  0
   -0.5365    3.1137    8.5711 O   0  0  0  0  0  0  0  0  0  0  0  0
   -1.1115    2.4566    9.6783 C   0  0  0  0  0  0  0  0  0  0  0  0
    0.7675    1.3897    7.7938 O   0  0  0  0  0  0  0  0  0  0  0  0
    1.7979    0.6971    6.9854 C   0  0  1  0  0  0  0  0  0  0  0  0
    1.0471   -0.4620    6.4462 C   0  0  0  0  0  0  0  0  0  0  0  0
    0.0072   -0.2474    5.6515 C   0  0  0  0  0  0  0  0  0  0  0  0
   -0.3655    1.0976    5.0240 C   0  0  2  0  0  0  0  0  0  0  0  0
    0.5380    2.4638    5.1436 C   0  0  2  0  0  0  0  0  0  0  0  0
    0.4709    3.8752    4.5739 C   0  0  0  0  0  0  0  0  0  0  0  0
    1.5700    3.8671    3.7108 C   0  0  0  0  0  0  0  0  0  0  0  0
    2.3314    5.0163    3.4482 C   0  0  0  0  0  0  0  0  0  0  0  0
    1.8295    6.2153    4.0542 C   0  0  0  0  0  0  0  0  0  0  0  0
    0.7390    6.1852    5.0192 C   0  0  0  0  0  0  0  0  0  0  0  0
    0.3628    7.2823    5.7856 O   0  0  0  0  0  0  0  0  0  0  0  0
    1.0329    8.5238    5.6314 C   0  0  0  0  0  0  0  0  0  0  0  0
    0.1107    4.9824    5.3061 C   0  0  0  0  0  0  0  0  0  0  0  0
   -0.3812    4.4933    6.4492 O   0  0  0  0  0  0  0  0  0  0  0  0
    0.3612    3.2513    6.5180 C   0  0  1  0  0  0  0  0  0  0  0  0
    3.0841    5.2063    7.7690 H   0  0  0  0  0  0  0  0  0  0  0  0
    4.4461    5.0468    6.6891 H   0  0  0  0  0  0  0  0  0  0  0  0
    4.4856    4.3270    8.3311 H   0  0  0  0  0  0  0  0  0  0  0  0
    3.5720    0.4013    5.8959 H   0  0  0  0  0  0  0  0  0  0  0  0
    3.5157    1.5694    3.7727 H   0  0  0  0  0  0  0  0  0  0  0  0
    2.2980    0.4006    4.0353 H   0  0  0  0  0  0  0  0  0  0  0  0
    0.8995    2.4694    1.7148 H   0  0  0  0  0  0  0  0  0  0  0  0
    0.6759    0.9262    2.3504 H   0  0  0  0  0  0  0  0  0  0  0  0
   -1.3135    3.1281    2.1433 H   0  0  0  0  0  0  0  0  0  0  0  0
   -1.6100    1.4517    2.1901 H   0  0  0  0  0  0  0  0  0  0  0  0
   -3.8974    2.2297    3.5232 H   0  0  0  0  0  0  0  0  0  0  0  0
   -3.2084    3.8182    3.2333 H   0  0  0  0  0  0  0  0  0  0  0  0
   -3.5762    3.3162    4.8730 H   0  0  0  0  0  0  0  0  0  0  0  0
   -2.3973    0.6394    5.0783 H   0  0  0  0  0  0  0  0  0  0  0  0
   -2.3779    2.7080    6.9519 H   0  0  0  0  0  0  0  0  0  0  0  0
   -2.0211    1.0239    7.3873 H   0  0  0  0  0  0  0  0  0  0  0  0
   -1.1216    3.1312   10.5333 H   0  0  0  0  0  0  0  0  0  0  0  0
   -0.5635    1.5630    9.9612 H   0  0  0  0  0  0  0  0  0  0  0  0
   -2.1379    2.1966    9.4516 H   0  0  0  0  0  0  0  0  0  0  0  0
    2.4057    0.2378    7.7672 H   0  0  0  0  0  0  0  0  0  0  0  0
    1.2609   -1.4499    6.8168 H   0  0  0  0  0  0  0  0  0  0  0  0
   -0.5840   -1.0988    5.3473 H   0  0  0  0  0  0  0  0  0  0  0  0
   -0.3486    0.5211    4.0929 H   0  0  0  0  0  0  0  0  0  0  0  0
    3.2456    5.0144    2.8649 H   0  0  0  0  0  0  0  0  0  0  0  0
    2.3307    7.1253    3.8523 H   0  0  0  0  0  0  0  0  0  0  0  0
    0.6042    9.2500    6.3258 H   0  0  0  0  0  0  0  0  0  0  0  0
    0.9052    8.9233    4.6230 H   0  0  0  0  0  0  0  0  0  0  0  0
    2.0985    8.4498    5.8643 H   0  0  0  0  0  0  0  0  0  0  0  0
    1.2163    3.5576    6.9871 H   0  0  0  0  0  0  0  0  0  0  0  0
  1  2  1  0
  1 33  1  0
  1 34  1  0
  1 35  1  0
  2  3  1  0
  3  4  2  0
  3  5  1  0
  5 18  1  0
  5  6  1  0
  5 36  1  6
  6  7  1  0
  6 37  1  0
  6 38  1  0
  7 22  1  0
  7 24  1  0
  7  8  1  6
  8  9  1  0
  8 39  1  0
  8 40  1  0
  9 10  1  0
  9 41  1  0
  9 42  1  0
 10 11  1  0
 10 12  1  0
 11 43  1  0
 11 44  1  0
 11 45  1  0
 12 21  1  0
 12 13  1  0
 12 46  1  1
 13 14  1  0
 13 47  1  0
 13 48  1  0
 14 32  1  0
 14 15  1  1
 14 17  1  0
 15 16  1  0
 16 49  1  0
 16 50  1  0
 16 51  1  0
 17 18  1  0
 18 19  1  0
 18 52  1  1
 19 20  2  3
 19 53  1  0
 20 21  1  0
 20 54  1  0
 21 22  1  0
 21 55  1  6
 22 32  1  0
 22 23  1  6
 23 30  1  0
 23 24  2  0
 24 25  1  0
 25 26  2  0
 25 56  1  0
 26 27  1  0
 26 57  1  0
 27 28  1  0
 27 30  2  0
 28 29  1  0
 29 58  1  0
 29 59  1  0
 29 60  1  0
 30 31  1  0
 31 32  1  0
 32 61  1  1
M  END
>  <i_m_ct_stereo_status>  (146) 
1

>  <s_m_source_file>  (146) 
/var/tmp/pbs.5076255.sched01/tmpr6ewtwjb/42o4phu6d4.sdf

>  <i_m_source_file_index>  (146) 
33

>  <i_lp_mmshare_version>  (146) 
48012

>  <i_f3d_flags>  (146) 
0

>  <s_epik_input>  (146) 
W0NIM11PQyg9TylbQ0BIXShbQ0gyXTEpW0NASF0oL1tDSF09W0NIXVwyKU9bQ0BdKE9bQ0gzXSkoW0NIMl1bQ0BIXShbQ0BIXTJbQ0BAXTM0W0NAQF0xNTYpTihbQ0gzXSlbQ0gyXVtDSDJdNSlbQ0BASF00T2M3YzNjNltjSF1bY0hdYzdPW0NIM10=

>  <s_epik_cmdline>  (146) 
J2VwaWtfcHl0aG9uJywgJy1waHQnLCAnMi4wJywgJy1waCcsICc3LjAnLCAnLXRuJywgJzgnLCAnLW1hJywgJzIwMCcsICctaW1hZScsICc8aW5maWxlLm1hZT4nLCAnLW9tYWUnLCAnPG91dGZpbGUubWFlPic=

>  <r_lp_tautomer_probability>  (146) 
1

>  <r_epik_Ionization_Penalty>  (146) 
1.31237

>  <r_epik_Ionization_Penalty_Charging>  (146) 
0

>  <r_epik_Ionization_Penalty_Neutral>  (146) 
1.31237

>  <r_epik_State_Penalty>  (146) 
1.38725

>  <r_epik_Charging_Adjusted_Penalty>  (146) 
1.38725

>  <i_epik_Tot_Q>  (146) 
0

>  <i_epik_Tot_abs_Q>  (146) 
0

>  <s_epik_Chemistry_Notes>  (146) 
This compound has an ester and may undergo hydrolysis at high or low pH.

>  <s_lp_Force_Field>  (146) 
OPLS3e

>  <r_lp_Energy>  (146) 
265.273

>  <b_lp_Chiralities_Consistent>  (146) 
1

>  <s_lp_Variant>  (146) 
49:0-3

>  <s_i_glide_gridfile>  (146) 
pfpi4k_grid

>  <i_i_glide_lignum>  (146) 
33

>  <i_i_glide_rotatable_bonds>  (146) 
4

>  <r_i_docking_score>  (146) 
-1.48514

>  <r_i_glide_ligand_efficiency>  (146) 
-0.0464106

>  <r_i_glide_ligand_efficiency_sa>  (146) 
-0.147344

>  <r_i_glide_ligand_efficiency_ln>  (146) 
-0.332563

>  <r_i_glide_gscore>  (146) 
-1.48514

>  <r_i_glide_lipo>  (146) 
0

>  <r_i_glide_hbond>  (146) 
0

>  <r_i_glide_metal>  (146) 
-0

>  <r_i_glide_rewards>  (146) 
-0.412494

>  <r_i_glide_evdw>  (146) 
-22.021

>  <r_i_glide_ecoul>  (146) 
-1.72637

>  <r_i_glide_erotb>  (146) 
0.103327

>  <r_i_glide_esite>  (146) 
-0.0025513

>  <r_i_glide_emodel>  (146) 
-21.7843

>  <r_i_glide_energy>  (146) 
-23.7473

>  <r_i_glide_einternal>  (146) 
0.500755

>  <r_i_glide_intrahb_reward>  (146) 
-0

>  <i_i_glide_confnum>  (146) 
3

>  <i_i_glide_posenum>  (146) 
11

>  <r_i_glide_eff_state_penalty>  (146) 
0

>  <ligand_id>  (146) 
49

>  <original_smiles>  (146) 
COC(=O)C1CC23CCN(C)C4CC5(OC)OC1C=CC4C21c2c3ccc(OC)c2OC51

>  <smiles>  (146) 
[H]C1=C([H])C2([H])C3([H])N(C([H])([H])[H])C([H])([H])C([H])([H])C45c6c([H])c([H])c(OC([H])([H])[H])c7c6C24C([H])(O7)C(OC([H])([H])[H])(OC1([H])C([H])(C(=O)OC([H])([H])[H])C5([H])[H])C3([H])[H]

$$$$
50:0:0
     RDKit          3D

 39 43  0  0  1  0  0  0  0  0999 V2000
    2.2165   -3.4443   -3.4868 C   0  0  0  0  0  0  0  0  0  0  0  0
    3.5606   -3.4125   -3.0932 O   0  0  0  0  0  0  0  0  0  0  0  0
    3.8367   -2.5200   -2.0176 C   0  0  1  0  0  0  0  0  0  0  0  0
    3.1181   -2.8770   -0.6701 C   0  0  1  0  0  0  0  0  0  0  0  0
    3.4254   -4.3017   -0.1562 C   0  0  0  0  0  0  0  0  0  0  0  0
    4.2017   -4.1793    1.1747 C   0  0  0  0  0  0  0  0  0  0  0  0
    4.5744   -2.7114    1.3047 C   0  0  1  0  0  0  0  0  0  0  0  0
    5.7357   -2.1173    0.4811 C   0  0  1  0  0  0  0  0  0  0  0  0
    6.2300   -2.8289   -0.7879 C   0  0  0  0  0  0  0  0  0  0  0  0
    5.3687   -2.2315   -1.9066 C   0  0  2  0  0  0  0  0  0  0  0  0
    4.9194   -0.8367   -1.4888 C   0  0  2  0  0  0  0  0  0  0  0  0
    4.7873   -0.9923    0.0365 C   0  0  1  0  0  0  0  0  0  0  0  0
    3.6293   -1.9229    0.4234 C   0  0  1  0  0  0  0  0  0  0  0  0
    3.6837   -1.0166   -2.4189 C   0  0  1  0  0  0  0  0  0  0  0  0
    3.7695   -0.4552   -3.8695 C   0  0  2  0  0  0  0  0  0  0  0  0
    2.4470   -0.1324   -4.5816 C   0  0  0  0  0  0  0  0  0  0  0  0
    4.3085   -1.4245   -4.6927 O   0  0  0  0  0  0  0  0  0  0  0  0
    2.1462   -3.9533   -4.4428 H   0  0  0  0  0  0  0  0  0  0  0  0
    1.7564   -2.4893   -3.5757 H   0  0  0  0  0  0  0  0  0  0  0  0
    1.6191   -4.0024   -2.7419 H   0  0  0  0  0  0  0  0  0  0  0  0
    2.0503   -2.7590   -0.7890 H   0  0  0  0  0  0  0  0  0  0  0  0
    2.5001   -4.8574   -0.0120 H   0  0  0  0  0  0  0  0  0  0  0  0
    4.0124   -4.8528   -0.8886 H   0  0  0  0  0  0  0  0  0  0  0  0
    3.5582   -4.4767    1.9989 H   0  0  0  0  0  0  0  0  0  0  0  0
    5.0749   -4.8315    1.1960 H   0  0  0  0  0  0  0  0  0  0  0  0
    4.5992   -2.3278    2.3308 H   0  0  0  0  0  0  0  0  0  0  0  0
    6.5364   -1.7499    1.1238 H   0  0  0  0  0  0  0  0  0  0  0  0
    7.2765   -2.6080   -0.9615 H   0  0  0  0  0  0  0  0  0  0  0  0
    6.1396   -3.9098   -0.7423 H   0  0  0  0  0  0  0  0  0  0  0  0
    5.8625   -2.2498   -2.8862 H   0  0  0  0  0  0  0  0  0  0  0  0
    5.6331   -0.0804   -1.8034 H   0  0  0  0  0  0  0  0  0  0  0  0
    4.8465   -0.0788    0.6417 H   0  0  0  0  0  0  0  0  0  0  0  0
    2.8487   -1.4162    0.9972 H   0  0  0  0  0  0  0  0  0  0  0  0
    2.8097   -0.6375   -1.9200 H   0  0  0  0  0  0  0  0  0  0  0  0
    4.3915    0.4267   -3.8534 H   0  0  0  0  0  0  0  0  0  0  0  0
    1.9105    0.5954   -4.0015 H   0  0  0  0  0  0  0  0  0  0  0  0
    1.7548   -0.9572   -4.7292 H   0  0  0  0  0  0  0  0  0  0  0  0
    2.6655    0.3114   -5.5482 H   0  0  0  0  0  0  0  0  0  0  0  0
    4.1369   -2.2625   -4.2661 H   0  0  0  0  0  0  0  0  0  0  0  0
  1  2  1  0
  1 18  1  0
  1 19  1  0
  1 20  1  0
  3  2  1  6
  3 10  1  0
  3 14  1  0
  3  4  1  0
  4 13  1  0
  4  5  1  0
  4 21  1  6
  5  6  1  0
  5 22  1  0
  5 23  1  0
  6  7  1  0
  6 24  1  0
  6 25  1  0
  7 13  1  0
  7  8  1  0
  7 26  1  1
  8 12  1  0
  8  9  1  0
  8 27  1  1
  9 10  1  0
  9 28  1  0
  9 29  1  0
 10 11  1  0
 10 30  1  6
 11 12  1  0
 11 14  1  0
 11 31  1  1
 12 13  1  0
 12 32  1  1
 13 33  1  1
 14 15  1  0
 14 34  1  1
 15 16  1  0
 15 17  1  0
 15 35  1  1
 16 36  1  0
 16 37  1  0
 16 38  1  0
 17 39  1  0
M  END
>  <i_m_ct_stereo_status>  (147) 
1

>  <s_m_source_file>  (147) 
/var/tmp/pbs.5076255.sched01/tmpr6ewtwjb/42o4phu6d4.sdf

>  <i_m_source_file_index>  (147) 
35

>  <i_lp_mmshare_version>  (147) 
48012

>  <i_f3d_flags>  (147) 
0

>  <s_epik_input>  (147) 
W0NIM11PW0NAQF0xMltDQEBIXTNbQ0BIXTRbQ0BASF0oW0NIMl1bQ0gyXTMpW0NAQEhdNVtDQEhdNFtDQEBIXShbQ0BIXTFbQ0gyXTUpW0NASF0yW0NASF0oW0NIM10pW09IXQ==

>  <s_epik_cmdline>  (147) 
J2VwaWtfcHl0aG9uJywgJy1waHQnLCAnMi4wJywgJy1waCcsICc3LjAnLCAnLXRuJywgJzgnLCAnLW1hJywgJzIwMCcsICctaW1hZScsICc8aW5maWxlLm1hZT4nLCAnLW9tYWUnLCAnPG91dGZpbGUubWFlPic=

>  <r_lp_tautomer_probability>  (147) 
1

>  <r_epik_Ionization_Penalty>  (147) 
3.91402e-07

>  <r_epik_Ionization_Penalty_Charging>  (147) 
0

>  <r_epik_Ionization_Penalty_Neutral>  (147) 
3.91402e-07

>  <r_epik_State_Penalty>  (147) 
-0

>  <r_epik_Charging_Adjusted_Penalty>  (147) 
0

>  <i_epik_Tot_Q>  (147) 
0

>  <i_epik_Tot_abs_Q>  (147) 
0

>  <s_lp_Force_Field>  (147) 
OPLS3e

>  <r_lp_Energy>  (147) 
61.7001

>  <b_lp_Chiralities_Consistent>  (147) 
1

>  <s_lp_Variant>  (147) 
50:0-1

>  <s_i_glide_gridfile>  (147) 
pfpi4k_grid

>  <i_i_glide_lignum>  (147) 
35

>  <i_i_glide_rotatable_bonds>  (147) 
3

>  <r_i_docking_score>  (147) 
-3.90035

>  <r_i_glide_ligand_efficiency>  (147) 
-0.229432

>  <r_i_glide_ligand_efficiency_sa>  (147) 
-0.589935

>  <r_i_glide_ligand_efficiency_ln>  (147) 
-1.01751

>  <r_i_glide_gscore>  (147) 
-3.90035

>  <r_i_glide_lipo>  (147) 
-0.620995

>  <r_i_glide_hbond>  (147) 
0

>  <r_i_glide_metal>  (147) 
-0

>  <r_i_glide_rewards>  (147) 
-2.31136

>  <r_i_glide_evdw>  (147) 
-12.11

>  <r_i_glide_ecoul>  (147) 
-4.50139

>  <r_i_glide_erotb>  (147) 
0.312716

>  <r_i_glide_esite>  (147) 
0

>  <r_i_glide_emodel>  (147) 
-21.1989

>  <r_i_glide_energy>  (147) 
-16.6114

>  <r_i_glide_einternal>  (147) 
6.12928

>  <r_i_glide_intrahb_reward>  (147) 
-0.5

>  <i_i_glide_confnum>  (147) 
3

>  <i_i_glide_posenum>  (147) 
17

>  <r_i_glide_eff_state_penalty>  (147) 
0

>  <ligand_id>  (147) 
50

>  <original_smiles>  (147) 
COC12C3CCC4C5CC1C(C5C43)C2C(C)O

>  <smiles>  (147) 
[H]OC([H])(C([H])([H])[H])C1([H])C2([H])C3([H])C4([H])C([H])([H])C2([H])C1(OC([H])([H])[H])C1([H])C([H])([H])C([H])([H])C4([H])C31[H]

$$$$
50:0:1
     RDKit          3D

 39 43  0  0  1  0  0  0  0  0999 V2000
    4.2912   -4.2829   -3.8315 C   0  0  0  0  0  0  0  0  0  0  0  0
    3.3531   -3.4495   -3.1240 O   0  0  0  0  0  0  0  0  0  0  0  0
    3.9129   -2.5855   -2.1285 C   0  0  1  0  0  0  0  0  0  0  0  0
    3.4906   -3.0287   -0.6866 C   0  0  1  0  0  0  0  0  0  0  0  0
    3.9519   -4.4516   -0.2969 C   0  0  0  0  0  0  0  0  0  0  0  0
    5.0223   -4.3221    0.8183 C   0  0  0  0  0  0  0  0  0  0  0  0
    5.3367   -2.8431    0.9380 C   0  0  1  0  0  0  0  0  0  0  0  0
    6.2531   -2.1423   -0.0798 C   0  0  1  0  0  0  0  0  0  0  0  0
    6.5056   -2.7831   -1.4492 C   0  0  0  0  0  0  0  0  0  0  0  0
    5.4257   -2.2099   -2.3368 C   0  0  2  0  0  0  0  0  0  0  0  0
    4.9752   -0.8591   -1.7718 C   0  0  2  0  0  0  0  0  0  0  0  0
    5.1837   -1.0653   -0.2625 C   0  0  1  0  0  0  0  0  0  0  0  0
    4.1806   -2.0792    0.3123 C   0  0  1  0  0  0  0  0  0  0  0  0
    3.6162   -1.0829   -2.4447 C   0  0  1  0  0  0  0  0  0  0  0  0
    3.3316   -0.4626   -3.8329 C   0  0  2  0  0  0  0  0  0  0  0  0
    3.8449   -1.2002   -5.0472 C   0  0  0  0  0  0  0  0  0  0  0  0
    3.8018    0.8317   -3.9359 O   0  0  0  0  0  0  0  0  0  0  0  0
    3.7313   -5.0520   -4.3506 H   0  0  0  0  0  0  0  0  0  0  0  0
    4.9925   -4.7987   -3.1694 H   0  0  0  0  0  0  0  0  0  0  0  0
    4.8606   -3.7313   -4.5837 H   0  0  0  0  0  0  0  0  0  0  0  0
    2.4065   -2.9575   -0.5850 H   0  0  0  0  0  0  0  0  0  0  0  0
    3.1141   -5.0707    0.0299 H   0  0  0  0  0  0  0  0  0  0  0  0
    4.3913   -4.9776   -1.1379 H   0  0  0  0  0  0  0  0  0  0  0  0
    4.6068   -4.7056    1.7536 H   0  0  0  0  0  0  0  0  0  0  0  0
    5.9049   -4.9281    0.5907 H   0  0  0  0  0  0  0  0  0  0  0  0
    5.5722   -2.5009    1.9468 H   0  0  0  0  0  0  0  0  0  0  0  0
    7.1594   -1.7522    0.3825 H   0  0  0  0  0  0  0  0  0  0  0  0
    7.4784   -2.5116   -1.8504 H   0  0  0  0  0  0  0  0  0  0  0  0
    6.4625   -3.8699   -1.4387 H   0  0  0  0  0  0  0  0  0  0  0  0
    5.7118   -2.2426   -3.3795 H   0  0  0  0  0  0  0  0  0  0  0  0
    5.5429   -0.0173   -2.1888 H   0  0  0  0  0  0  0  0  0  0  0  0
    5.3059   -0.1803    0.3534 H   0  0  0  0  0  0  0  0  0  0  0  0
    3.5144   -1.6539    1.0805 H   0  0  0  0  0  0  0  0  0  0  0  0
    2.8509   -0.7283   -1.7507 H   0  0  0  0  0  0  0  0  0  0  0  0
    2.2751   -0.4227   -3.9872 H   0  0  0  0  0  0  0  0  0  0  0  0
    3.3998   -2.1895   -5.1243 H   0  0  0  0  0  0  0  0  0  0  0  0
    4.9269   -1.2855   -4.9767 H   0  0  0  0  0  0  0  0  0  0  0  0
    3.6192   -0.6597   -5.9811 H   0  0  0  0  0  0  0  0  0  0  0  0
    3.2101    1.4146   -3.4625 H   0  0  0  0  0  0  0  0  0  0  0  0
  1  2  1  0
  1 18  1  0
  1 19  1  0
  1 20  1  0
  3  2  1  6
  3 10  1  0
  3 14  1  0
  3  4  1  0
  4 13  1  0
  4  5  1  0
  4 21  1  6
  5  6  1  0
  5 22  1  0
  5 23  1  0
  6  7  1  0
  6 24  1  0
  6 25  1  0
  7 13  1  0
  7  8  1  0
  7 26  1  1
  8 12  1  0
  8  9  1  0
  8 27  1  1
  9 10  1  0
  9 28  1  0
  9 29  1  0
 10 11  1  0
 10 30  1  6
 11 12  1  0
 11 14  1  0
 11 31  1  6
 12 13  1  0
 12 32  1  1
 13 33  1  1
 14 15  1  0
 14 34  1  1
 15 16  1  0
 15 17  1  0
 15 35  1  6
 16 36  1  0
 16 37  1  0
 16 38  1  0
 17 39  1  0
M  END
>  <i_m_ct_stereo_status>  (148) 
1

>  <s_m_source_file>  (148) 
/var/tmp/pbs.5076255.sched01/tmpr6ewtwjb/42o4phu6d4.sdf

>  <i_m_source_file_index>  (148) 
35

>  <i_lp_mmshare_version>  (148) 
48012

>  <i_f3d_flags>  (148) 
0

>  <s_epik_input>  (148) 
W0NIM11PW0NAQF0xMltDQEBIXTNbQ0BIXTRbQ0BASF0oW0NIMl1bQ0gyXTMpW0NAQEhdNVtDQEhdNFtDQEBIXShbQ0BIXTFbQ0gyXTUpW0NASF0yW0NASF0oW0NIM10pW09IXQ==

>  <s_epik_cmdline>  (148) 
J2VwaWtfcHl0aG9uJywgJy1waHQnLCAnMi4wJywgJy1waCcsICc3LjAnLCAnLXRuJywgJzgnLCAnLW1hJywgJzIwMCcsICctaW1hZScsICc8aW5maWxlLm1hZT4nLCAnLW9tYWUnLCAnPG91dGZpbGUubWFlPic=

>  <r_lp_tautomer_probability>  (148) 
1

>  <r_epik_Ionization_Penalty>  (148) 
3.91402e-07

>  <r_epik_Ionization_Penalty_Charging>  (148) 
0

>  <r_epik_Ionization_Penalty_Neutral>  (148) 
3.91402e-07

>  <r_epik_State_Penalty>  (148) 
-0

>  <r_epik_Charging_Adjusted_Penalty>  (148) 
0

>  <i_epik_Tot_Q>  (148) 
0

>  <i_epik_Tot_abs_Q>  (148) 
0

>  <s_lp_Force_Field>  (148) 
OPLS3e

>  <r_lp_Energy>  (148) 
61.7001

>  <b_lp_Chiralities_Consistent>  (148) 
1

>  <s_lp_Variant>  (148) 
50:0-1

>  <s_i_glide_gridfile>  (148) 
pfpi4k_grid

>  <i_i_glide_lignum>  (148) 
35

>  <i_i_glide_rotatable_bonds>  (148) 
3

>  <r_i_docking_score>  (148) 
-3.62166

>  <r_i_glide_ligand_efficiency>  (148) 
-0.213039

>  <r_i_glide_ligand_efficiency_sa>  (148) 
-0.547782

>  <r_i_glide_ligand_efficiency_ln>  (148) 
-0.944809

>  <r_i_glide_gscore>  (148) 
-3.62166

>  <r_i_glide_lipo>  (148) 
-0.369064

>  <r_i_glide_hbond>  (148) 
-0.32

>  <r_i_glide_metal>  (148) 
-0

>  <r_i_glide_rewards>  (148) 
-1.81136

>  <r_i_glide_evdw>  (148) 
-12.642

>  <r_i_glide_ecoul>  (148) 
-5.34566

>  <r_i_glide_erotb>  (148) 
0.312716

>  <r_i_glide_esite>  (148) 
0

>  <r_i_glide_emodel>  (148) 
-14.707

>  <r_i_glide_energy>  (148) 
-17.9877

>  <r_i_glide_einternal>  (148) 
13.7749

>  <r_i_glide_intrahb_reward>  (148) 
-0

>  <i_i_glide_confnum>  (148) 
6

>  <i_i_glide_posenum>  (148) 
22

>  <r_i_glide_eff_state_penalty>  (148) 
0

>  <ligand_id>  (148) 
50

>  <original_smiles>  (148) 
COC12C3CCC4C5CC1C(C5C43)C2C(C)O

>  <smiles>  (148) 
[H]OC([H])(C([H])([H])[H])C1([H])C2([H])C3([H])C4([H])C([H])([H])C2([H])C1(OC([H])([H])[H])C1([H])C([H])([H])C([H])([H])C4([H])C31[H]

$$$$
50:0:2
     RDKit          3D

 39 43  0  0  1  0  0  0  0  0999 V2000
    4.5886   -4.3173   -3.6933 C   0  0  0  0  0  0  0  0  0  0  0  0
    3.5330   -3.4563   -3.2707 O   0  0  0  0  0  0  0  0  0  0  0  0
    3.8050   -2.5873   -2.1717 C   0  0  1  0  0  0  0  0  0  0  0  0
    2.9860   -3.0120   -0.9143 C   0  0  1  0  0  0  0  0  0  0  0  0
    3.3044   -4.4279   -0.3665 C   0  0  0  0  0  0  0  0  0  0  0  0
    4.0040   -4.2904    0.9987 C   0  0  0  0  0  0  0  0  0  0  0  0
    4.2883   -2.8088    1.1637 C   0  0  1  0  0  0  0  0  0  0  0  0
    5.4625   -2.1337    0.4364 C   0  0  1  0  0  0  0  0  0  0  0  0
    6.0984   -2.7785   -0.8062 C   0  0  0  0  0  0  0  0  0  0  0  0
    5.2955   -2.1729   -1.9513 C   0  0  2  0  0  0  0  0  0  0  0  0
    4.7057   -0.8438   -1.5312 C   0  0  2  0  0  0  0  0  0  0  0  0
    4.4874   -1.0495   -0.0395 C   0  0  1  0  0  0  0  0  0  0  0  0
    3.3716   -2.0615    0.2321 C   0  0  1  0  0  0  0  0  0  0  0  0
    3.5674   -1.0797   -2.5268 C   0  0  1  0  0  0  0  0  0  0  0  0
    3.6926   -0.4276   -3.9281 C   0  0  2  0  0  0  0  0  0  0  0  0
    2.3880   -0.1935   -4.6712 C   0  0  0  0  0  0  0  0  0  0  0  0
    4.3517   -1.2942   -4.7420 O   0  0  0  0  0  0  0  0  0  0  0  0
    4.1932   -5.0615   -4.3831 H   0  0  0  0  0  0  0  0  0  0  0  0
    5.0265   -4.8728   -2.8657 H   0  0  0  0  0  0  0  0  0  0  0  0
    5.3960   -3.8124   -4.2228 H   0  0  0  0  0  0  0  0  0  0  0  0
    1.9191   -2.9625   -1.1427 H   0  0  0  0  0  0  0  0  0  0  0  0
    2.3978   -5.0312   -0.3002 H   0  0  0  0  0  0  0  0  0  0  0  0
    3.9772   -4.9611   -1.0209 H   0  0  0  0  0  0  0  0  0  0  0  0
    3.3335   -4.6506    1.7780 H   0  0  0  0  0  0  0  0  0  0  0  0
    4.9112   -4.8981    1.0389 H   0  0  0  0  0  0  0  0  0  0  0  0
    4.2245   -2.4244    2.1811 H   0  0  0  0  0  0  0  0  0  0  0  0
    6.1746   -1.7387    1.1539 H   0  0  0  0  0  0  0  0  0  0  0  0
    7.1516   -2.5065   -0.8950 H   0  0  0  0  0  0  0  0  0  0  0  0
    6.0531   -3.8683   -0.8056 H   0  0  0  0  0  0  0  0  0  0  0  0
    5.8463   -2.0996   -2.8750 H   0  0  0  0  0  0  0  0  0  0  0  0
    5.3678   -0.0464   -1.8315 H   0  0  0  0  0  0  0  0  0  0  0  0
    4.4399   -0.1665    0.5947 H   0  0  0  0  0  0  0  0  0  0  0  0
    2.5441   -1.6125    0.7774 H   0  0  0  0  0  0  0  0  0  0  0  0
    2.6535   -0.7421   -2.0589 H   0  0  0  0  0  0  0  0  0  0  0  0
    4.2457    0.5141   -3.8733 H   0  0  0  0  0  0  0  0  0  0  0  0
    1.7986    0.5696   -4.1812 H   0  0  0  0  0  0  0  0  0  0  0  0
    1.8321   -1.1311   -4.6921 H   0  0  0  0  0  0  0  0  0  0  0  0
    2.5659    0.1250   -5.7036 H   0  0  0  0  0  0  0  0  0  0  0  0
    4.9721   -1.7364   -4.1926 H   0  0  0  0  0  0  0  0  0  0  0  0
  1  2  1  0
  1 18  1  0
  1 19  1  0
  1 20  1  0
  3  2  1  6
  3 10  1  0
  3 14  1  0
  3  4  1  0
  4 13  1  0
  4  5  1  0
  4 21  1  6
  5  6  1  0
  5 22  1  0
  5 23  1  0
  6  7  1  0
  6 24  1  0
  6 25  1  0
  7 13  1  0
  7  8  1  0
  7 26  1  1
  8 12  1  0
  8  9  1  0
  8 27  1  1
  9 10  1  0
  9 28  1  0
  9 29  1  0
 10 11  1  0
 10 30  1  6
 11 12  1  0
 11 14  1  0
 11 31  1  1
 12 13  1  0
 12 32  1  1
 13 33  1  1
 14 15  1  0
 14 34  1  1
 15 16  1  0
 15 17  1  0
 15 35  1  1
 16 36  1  0
 16 37  1  0
 16 38  1  0
 17 39  1  0
M  END
>  <i_m_ct_stereo_status>  (149) 
1

>  <s_m_source_file>  (149) 
/var/tmp/pbs.5076255.sched01/tmpr6ewtwjb/42o4phu6d4.sdf

>  <i_m_source_file_index>  (149) 
35

>  <i_lp_mmshare_version>  (149) 
48012

>  <i_f3d_flags>  (149) 
0

>  <s_epik_input>  (149) 
W0NIM11PW0NAQF0xMltDQEBIXTNbQ0BIXTRbQ0BASF0oW0NIMl1bQ0gyXTMpW0NAQEhdNVtDQEhdNFtDQEBIXShbQ0BIXTFbQ0gyXTUpW0NASF0yW0NASF0oW0NIM10pW09IXQ==

>  <s_epik_cmdline>  (149) 
J2VwaWtfcHl0aG9uJywgJy1waHQnLCAnMi4wJywgJy1waCcsICc3LjAnLCAnLXRuJywgJzgnLCAnLW1hJywgJzIwMCcsICctaW1hZScsICc8aW5maWxlLm1hZT4nLCAnLW9tYWUnLCAnPG91dGZpbGUubWFlPic=

>  <r_lp_tautomer_probability>  (149) 
1

>  <r_epik_Ionization_Penalty>  (149) 
3.91402e-07

>  <r_epik_Ionization_Penalty_Charging>  (149) 
0

>  <r_epik_Ionization_Penalty_Neutral>  (149) 
3.91402e-07

>  <r_epik_State_Penalty>  (149) 
-0

>  <r_epik_Charging_Adjusted_Penalty>  (149) 
0

>  <i_epik_Tot_Q>  (149) 
0

>  <i_epik_Tot_abs_Q>  (149) 
0

>  <s_lp_Force_Field>  (149) 
OPLS3e

>  <r_lp_Energy>  (149) 
61.7001

>  <b_lp_Chiralities_Consistent>  (149) 
1

>  <s_lp_Variant>  (149) 
50:0-1

>  <s_i_glide_gridfile>  (149) 
pfpi4k_grid

>  <i_i_glide_lignum>  (149) 
35

>  <i_i_glide_rotatable_bonds>  (149) 
3

>  <r_i_docking_score>  (149) 
-2.97884

>  <r_i_glide_ligand_efficiency>  (149) 
-0.175226

>  <r_i_glide_ligand_efficiency_sa>  (149) 
-0.450556

>  <r_i_glide_ligand_efficiency_ln>  (149) 
-0.777114

>  <r_i_glide_gscore>  (149) 
-2.97884

>  <r_i_glide_lipo>  (149) 
-0.391856

>  <r_i_glide_hbond>  (149) 
0

>  <r_i_glide_metal>  (149) 
-0

>  <r_i_glide_rewards>  (149) 
-1.81136

>  <r_i_glide_evdw>  (149) 
-12.5087

>  <r_i_glide_ecoul>  (149) 
-3.08606

>  <r_i_glide_erotb>  (149) 
0.312716

>  <r_i_glide_esite>  (149) 
0

>  <r_i_glide_emodel>  (149) 
-13.532

>  <r_i_glide_energy>  (149) 
-15.5948

>  <r_i_glide_einternal>  (149) 
9.84378

>  <r_i_glide_intrahb_reward>  (149) 
-0

>  <i_i_glide_confnum>  (149) 
3

>  <i_i_glide_posenum>  (149) 
37

>  <r_i_glide_eff_state_penalty>  (149) 
0

>  <ligand_id>  (149) 
50

>  <original_smiles>  (149) 
COC12C3CCC4C5CC1C(C5C43)C2C(C)O

>  <smiles>  (149) 
[H]OC([H])(C([H])([H])[H])C1([H])C2([H])C3([H])C4([H])C([H])([H])C2([H])C1(OC([H])([H])[H])C1([H])C([H])([H])C([H])([H])C4([H])C31[H]

$$$$
51:0:0
     RDKit          3D

 40 45  0  0  1  0  0  0  0  0999 V2000
    7.7286   -2.4210   -0.0503 C   0  0  0  0  0  0  0  0  0  0  0  0
    6.6108   -1.7911   -0.8895 C   0  0  0  0  0  0  0  0  0  0  0  0
    5.2030   -2.3931   -0.6696 C   0  0  2  0  0  0  0  0  0  0  0  0
    5.1276   -4.0647   -1.1728 C   0  0  1  0  0  0  0  0  0  0  0  0
    4.2406   -4.8497   -0.1546 C   0  0  0  0  0  0  0  0  0  0  0  0
    2.7425   -4.4711   -0.3143 C   0  0  0  0  0  0  0  0  0  0  0  0
    1.8645   -5.1029    0.2708 O   0  0  0  0  0  0  0  0  0  0  0  0
    2.4771   -3.4572   -1.1965 N   0  0  0  0  0  0  0  0  0  0  0  0
    2.6524   -3.6668   -2.6308 C   0  0  2  0  0  0  0  0  0  0  0  0
    4.2254   -4.1646   -2.5820 C   0  0  1  0  0  0  0  0  0  0  0  0
    4.3474   -2.8377   -2.9326 C   0  0  1  0  0  0  0  0  0  0  0  0
    3.6567   -2.3736   -4.2194 C   0  0  2  0  0  0  0  0  0  0  0  0
    4.0983   -0.9811   -4.6814 C   0  0  0  0  0  0  0  0  0  0  0  0
    3.8034   -0.0120   -3.5386 C   0  0  0  0  0  0  0  0  0  0  0  0
    3.0425   -0.8552   -2.5278 C   0  0  1  0  0  0  0  0  0  0  0  0
    2.4516   -2.1962   -3.4477 C   0  0  2  0  0  0  0  0  0  0  0  0
    3.9574   -1.2697   -1.1030 C   0  0  2  0  0  0  0  0  0  0  0  0
    3.4180   -0.6927    0.0843 O   0  0  0  0  0  0  0  0  0  0  0  0
    3.5038   -2.4933   -1.4455 C   0  0  2  0  0  0  0  0  0  0  0  0
    8.6944   -1.9635   -0.2761 H   0  0  0  0  0  0  0  0  0  0  0  0
    7.8278   -3.4876   -0.2468 H   0  0  0  0  0  0  0  0  0  0  0  0
    7.5387   -2.2899    1.0138 H   0  0  0  0  0  0  0  0  0  0  0  0
    6.5423   -0.7358   -0.6307 H   0  0  0  0  0  0  0  0  0  0  0  0
    6.9168   -1.8550   -1.9314 H   0  0  0  0  0  0  0  0  0  0  0  0
    5.1479   -2.4424    0.4207 H   0  0  0  0  0  0  0  0  0  0  0  0
    6.1166   -4.5212   -1.2355 H   0  0  0  0  0  0  0  0  0  0  0  0
    4.3270   -5.9219   -0.3295 H   0  0  0  0  0  0  0  0  0  0  0  0
    4.5628   -4.6714    0.8728 H   0  0  0  0  0  0  0  0  0  0  0  0
    1.8845   -4.3353   -3.0104 H   0  0  0  0  0  0  0  0  0  0  0  0
    4.6200   -4.8066   -3.3735 H   0  0  0  0  0  0  0  0  0  0  0  0
    5.4014   -2.5963   -3.0750 H   0  0  0  0  0  0  0  0  0  0  0  0
    3.5772   -3.1285   -5.0017 H   0  0  0  0  0  0  0  0  0  0  0  0
    5.1501   -1.0001   -4.8722 H   0  0  0  0  0  0  0  0  0  0  0  0
    3.5808   -0.6618   -5.5919 H   0  0  0  0  0  0  0  0  0  0  0  0
    4.6810    0.4223   -3.0691 H   0  0  0  0  0  0  0  0  0  0  0  0
    3.1900    0.8040   -3.9185 H   0  0  0  0  0  0  0  0  0  0  0  0
    2.2109   -0.2582   -2.2394 H   0  0  0  0  0  0  0  0  0  0  0  0
    1.5480   -2.1134   -4.0538 H   0  0  0  0  0  0  0  0  0  0  0  0
    2.4697   -0.6573   -0.0170 H   0  0  0  0  0  0  0  0  0  0  0  0
    2.4739   -2.1978   -1.1012 H   0  0  0  0  0  0  0  0  0  0  0  0
  1  2  1  0
  1 20  1  0
  1 21  1  0
  1 22  1  0
  2  3  1  0
  2 23  1  0
  2 24  1  0
  3 17  1  0
  3  4  1  0
  3 25  1  1
  4 10  1  0
  4  5  1  0
  4 26  1  6
  5  6  1  0
  5 27  1  0
  5 28  1  0
  6  7  2  0
  6  8  1  0
  8 19  1  0
  8  9  1  0
  9 16  1  0
  9 10  1  0
  9 29  1  6
 10 11  1  0
 10 30  1  6
 11 19  1  0
 11 12  1  0
 11 31  1  1
 12 16  1  0
 12 13  1  0
 12 32  1  6
 13 14  1  0
 13 33  1  0
 13 34  1  0
 14 15  1  0
 14 35  1  0
 14 36  1  0
 15 16  1  0
 15 17  1  0
 15 37  1  1
 16 38  1  6
 17 18  1  6
 17 19  1  0
 18 39  1  0
 19 40  1  1
M  END
>  <i_m_ct_stereo_status>  (150) 
1

>  <s_m_source_file>  (150) 
/var/tmp/pbs.5076255.sched01/tmpr6ewtwjb/42o4phu6d4.sdf

>  <i_m_source_file_index>  (150) 
36

>  <i_lp_mmshare_version>  (150) 
48012

>  <i_f3d_flags>  (150) 
2

>  <s_epik_input>  (150) 
W0NIM11bQ0gyXVtDQEBIXTFbQ0BASF0oW0NIMl1DMj1PKVtDQEBIXTNbQ0BASF0oW0NASF00W0NIMl1bQ0gyXTUpW0NAQEhdNk4yW0NASF0zW0NAQEhdNFtDSF01W0NAQF0xNltPSF0=

>  <s_epik_cmdline>  (150) 
J2VwaWtfcHl0aG9uJywgJy1waHQnLCAnMi4wJywgJy1waCcsICc3LjAnLCAnLXRuJywgJzgnLCAnLW1hJywgJzIwMCcsICctaW1hZScsICc8aW5maWxlLm1hZT4nLCAnLW9tYWUnLCAnPG91dGZpbGUubWFlPic=

>  <r_lp_tautomer_probability>  (150) 
1

>  <r_epik_Ionization_Penalty>  (150) 
3.13853e-06

>  <r_epik_Ionization_Penalty_Charging>  (150) 
0

>  <r_epik_Ionization_Penalty_Neutral>  (150) 
3.13853e-06

>  <r_epik_State_Penalty>  (150) 
-0

>  <r_epik_Charging_Adjusted_Penalty>  (150) 
0

>  <i_epik_Tot_Q>  (150) 
0

>  <i_epik_Tot_abs_Q>  (150) 
0

>  <s_lp_Force_Field>  (150) 
OPLS3e

>  <r_lp_Energy>  (150) 
474.639

>  <b_lp_Chiralities_Consistent>  (150) 
0

>  <s_lp_Variant>  (150) 
51:0-1

>  <s_i_glide_gridfile>  (150) 
pfpi4k_grid

>  <i_i_glide_lignum>  (150) 
36

>  <i_i_glide_rotatable_bonds>  (150) 
2

>  <r_i_docking_score>  (150) 
-3.50118

>  <r_i_glide_ligand_efficiency>  (150) 
-0.184273

>  <r_i_glide_ligand_efficiency_sa>  (150) 
-0.491714

>  <r_i_glide_ligand_efficiency_ln>  (150) 
-0.887625

>  <r_i_glide_gscore>  (150) 
-3.50118

>  <r_i_glide_lipo>  (150) 
-0.444195

>  <r_i_glide_hbond>  (150) 
-0.23495

>  <r_i_glide_metal>  (150) 
-0

>  <r_i_glide_rewards>  (150) 
-1.66646

>  <r_i_glide_evdw>  (150) 
-4.32268

>  <r_i_glide_ecoul>  (150) 
-5.91193

>  <r_i_glide_erotb>  (150) 
0

>  <r_i_glide_esite>  (150) 
-0.0526526

>  <r_i_glide_emodel>  (150) 
-14.1336

>  <r_i_glide_energy>  (150) 
-10.2346

>  <r_i_glide_einternal>  (150) 
0.421209

>  <r_i_glide_intrahb_reward>  (150) 
-0

>  <i_i_glide_confnum>  (150) 
2

>  <i_i_glide_posenum>  (150) 
18

>  <r_i_glide_eff_state_penalty>  (150) 
0

>  <ligand_id>  (150) 
51

>  <original_smiles>  (150) 
CCC1C2CC(=O)N3C4C2C2C5CCC(C54)C1(O)C23

>  <smiles>  (150) 
[H]OC12C3([H])N4C(=O)C([H])([H])C([H])(C5([H])C4([H])C4([H])C([H])(C([H])([H])C([H])([H])C41[H])C35[H])C2([H])C([H])([H])C([H])([H])[H]

$$$$
51:0:1
     RDKit          3D

 40 45  0  0  1  0  0  0  0  0999 V2000
    7.3441   -2.2618   -1.5468 C   0  0  0  0  0  0  0  0  0  0  0  0
    6.4834   -2.0251   -0.2933 C   0  0  0  0  0  0  0  0  0  0  0  0
    5.0279   -2.5724   -0.3305 C   0  0  2  0  0  0  0  0  0  0  0  0
    4.9167   -4.2176   -0.8869 C   0  0  1  0  0  0  0  0  0  0  0  0
    3.9256   -5.0047    0.0313 C   0  0  0  0  0  0  0  0  0  0  0  0
    2.4472   -4.6725   -0.2555 C   0  0  0  0  0  0  0  0  0  0  0  0
    1.5757   -5.4559    0.1086 O   0  0  0  0  0  0  0  0  0  0  0  0
    2.2503   -3.5717   -1.0600 N   0  0  0  0  0  0  0  0  0  0  0  0
    2.5713   -3.6673   -2.4969 C   0  0  2  0  0  0  0  0  0  0  0  0
    4.1316   -4.2365   -2.3608 C   0  0  1  0  0  0  0  0  0  0  0  0
    4.3150   -2.9167   -2.6352 C   0  0  1  0  0  0  0  0  0  0  0  0
    3.7431   -2.3742   -3.9562 C   0  0  2  0  0  0  0  0  0  0  0  0
    4.2525   -0.9825   -4.3411 C   0  0  0  0  0  0  0  0  0  0  0  0
    3.9687   -0.0496   -3.1439 C   0  0  0  0  0  0  0  0  0  0  0  0
    3.0660   -0.8869   -2.2561 C   0  0  1  0  0  0  0  0  0  0  0  0
    2.5100   -2.1551   -3.2707 C   0  0  2  0  0  0  0  0  0  0  0  0
    3.8282   -1.4240   -0.7892 C   0  0  2  0  0  0  0  0  0  0  0  0
    3.2724   -0.8257    0.3702 O   0  0  0  0  0  0  0  0  0  0  0  0
    3.3195   -2.6084   -1.1981 C   0  0  2  0  0  0  0  0  0  0  0  0
    8.4087   -1.9487   -1.4585 H   0  0  0  0  0  0  0  0  0  0  0  0
    6.8318   -1.6288   -2.2703 H   0  0  0  0  0  0  0  0  0  0  0  0
    7.3056   -3.3113   -1.8842 H   0  0  0  0  0  0  0  0  0  0  0  0
    6.9965   -2.4741    0.5550 H   0  0  0  0  0  0  0  0  0  0  0  0
    6.4153   -0.9451   -0.0972 H   0  0  0  0  0  0  0  0  0  0  0  0
    4.8292   -2.6638    0.7323 H   0  0  0  0  0  0  0  0  0  0  0  0
    5.8904   -4.7177   -0.8799 H   0  0  0  0  0  0  0  0  0  0  0  0
    3.9873   -6.0672   -0.1948 H   0  0  0  0  0  0  0  0  0  0  0  0
    4.1339   -4.8830    1.0940 H   0  0  0  0  0  0  0  0  0  0  0  0
    1.8224   -4.2689   -2.9957 H   0  0  0  0  0  0  0  0  0  0  0  0
    4.6343   -4.7822   -3.1623 H   0  0  0  0  0  0  0  0  0  0  0  0
    5.3583   -2.7978   -2.7512 H   0  0  0  0  0  0  0  0  0  0  0  0
    3.6971   -3.1089   -4.7619 H   0  0  0  0  0  0  0  0  0  0  0  0
    5.2948   -1.0937   -4.5629 H   0  0  0  0  0  0  0  0  0  0  0  0
    3.8029   -0.5611   -5.2526 H   0  0  0  0  0  0  0  0  0  0  0  0
    4.8573    0.3173   -2.6177 H   0  0  0  0  0  0  0  0  0  0  0  0
    3.4186    0.8221   -3.5161 H   0  0  0  0  0  0  0  0  0  0  0  0
    2.2172   -0.2917   -2.0107 H   0  0  0  0  0  0  0  0  0  0  0  0
    1.6946   -1.9630   -3.9765 H   0  0  0  0  0  0  0  0  0  0  0  0
    2.3527   -0.6970    0.1784 H   0  0  0  0  0  0  0  0  0  0  0  0
    2.2737   -2.2562   -0.9355 H   0  0  0  0  0  0  0  0  0  0  0  0
  1  2  1  0
  1 20  1  0
  1 21  1  0
  1 22  1  0
  2  3  1  0
  2 23  1  0
  2 24  1  0
  3 17  1  0
  3  4  1  0
  3 25  1  1
  4 10  1  0
  4  5  1  0
  4 26  1  6
  5  6  1  0
  5 27  1  0
  5 28  1  0
  6  7  2  0
  6  8  1  0
  8 19  1  0
  8  9  1  0
  9 16  1  0
  9 10  1  0
  9 29  1  6
 10 11  1  0
 10 30  1  6
 11 19  1  0
 11 12  1  0
 11 31  1  1
 12 16  1  0
 12 13  1  0
 12 32  1  6
 13 14  1  0
 13 33  1  0
 13 34  1  0
 14 15  1  0
 14 35  1  0
 14 36  1  0
 15 16  1  0
 15 17  1  0
 15 37  1  1
 16 38  1  6
 17 18  1  6
 17 19  1  0
 18 39  1  0
 19 40  1  1
M  END
>  <i_m_ct_stereo_status>  (151) 
1

>  <s_m_source_file>  (151) 
/var/tmp/pbs.5076255.sched01/tmpr6ewtwjb/42o4phu6d4.sdf

>  <i_m_source_file_index>  (151) 
36

>  <i_lp_mmshare_version>  (151) 
48012

>  <i_f3d_flags>  (151) 
2

>  <s_epik_input>  (151) 
W0NIM11bQ0gyXVtDQEBIXTFbQ0BASF0oW0NIMl1DMj1PKVtDQEBIXTNbQ0BASF0oW0NASF00W0NIMl1bQ0gyXTUpW0NAQEhdNk4yW0NASF0zW0NAQEhdNFtDSF01W0NAQF0xNltPSF0=

>  <s_epik_cmdline>  (151) 
J2VwaWtfcHl0aG9uJywgJy1waHQnLCAnMi4wJywgJy1waCcsICc3LjAnLCAnLXRuJywgJzgnLCAnLW1hJywgJzIwMCcsICctaW1hZScsICc8aW5maWxlLm1hZT4nLCAnLW9tYWUnLCAnPG91dGZpbGUubWFlPic=

>  <r_lp_tautomer_probability>  (151) 
1

>  <r_epik_Ionization_Penalty>  (151) 
3.13853e-06

>  <r_epik_Ionization_Penalty_Charging>  (151) 
0

>  <r_epik_Ionization_Penalty_Neutral>  (151) 
3.13853e-06

>  <r_epik_State_Penalty>  (151) 
-0

>  <r_epik_Charging_Adjusted_Penalty>  (151) 
0

>  <i_epik_Tot_Q>  (151) 
0

>  <i_epik_Tot_abs_Q>  (151) 
0

>  <s_lp_Force_Field>  (151) 
OPLS3e

>  <r_lp_Energy>  (151) 
474.639

>  <b_lp_Chiralities_Consistent>  (151) 
0

>  <s_lp_Variant>  (151) 
51:0-1

>  <s_i_glide_gridfile>  (151) 
pfpi4k_grid

>  <i_i_glide_lignum>  (151) 
36

>  <i_i_glide_rotatable_bonds>  (151) 
2

>  <r_i_docking_score>  (151) 
-3.31386

>  <r_i_glide_ligand_efficiency>  (151) 
-0.174414

>  <r_i_glide_ligand_efficiency_sa>  (151) 
-0.465406

>  <r_i_glide_ligand_efficiency_ln>  (151) 
-0.840135

>  <r_i_glide_gscore>  (151) 
-3.31386

>  <r_i_glide_lipo>  (151) 
-0.357344

>  <r_i_glide_hbond>  (151) 
-0.270154

>  <r_i_glide_metal>  (151) 
-0

>  <r_i_glide_rewards>  (151) 
-1.64084

>  <r_i_glide_evdw>  (151) 
2.66987

>  <r_i_glide_ecoul>  (151) 
-7.28419

>  <r_i_glide_erotb>  (151) 
0

>  <r_i_glide_esite>  (151) 
-0.0863876

>  <r_i_glide_emodel>  (151) 
-5.19736

>  <r_i_glide_energy>  (151) 
-4.61432

>  <r_i_glide_einternal>  (151) 
1.78662

>  <r_i_glide_intrahb_reward>  (151) 
-0

>  <i_i_glide_confnum>  (151) 
1

>  <i_i_glide_posenum>  (151) 
16

>  <r_i_glide_eff_state_penalty>  (151) 
0

>  <ligand_id>  (151) 
51

>  <original_smiles>  (151) 
CCC1C2CC(=O)N3C4C2C2C5CCC(C54)C1(O)C23

>  <smiles>  (151) 
[H]OC12C3([H])N4C(=O)C([H])([H])C([H])(C5([H])C4([H])C4([H])C([H])(C([H])([H])C([H])([H])C41[H])C35[H])C2([H])C([H])([H])C([H])([H])[H]

$$$$
51:0:2
     RDKit          3D

 40 45  0  0  1  0  0  0  0  0999 V2000
    7.8354   -2.5108   -1.0699 C   0  0  0  0  0  0  0  0  0  0  0  0
    7.4268   -2.4236    0.4154 C   0  0  0  0  0  0  0  0  0  0  0  0
    5.9594   -2.7916    0.8143 C   0  0  2  0  0  0  0  0  0  0  0  0
    5.6143   -4.5049    0.7893 C   0  0  1  0  0  0  0  0  0  0  0  0
    4.7763   -4.8942    2.0659 C   0  0  0  0  0  0  0  0  0  0  0  0
    3.2995   -4.3843    1.9750 C   0  0  0  0  0  0  0  0  0  0  0  0
    2.4564   -4.7387    2.7974 O   0  0  0  0  0  0  0  0  0  0  0  0
    3.0138   -3.5847    0.9112 N   0  0  0  0  0  0  0  0  0  0  0  0
    3.0240   -4.1501   -0.4544 C   0  0  2  0  0  0  0  0  0  0  0  0
    4.5132   -4.8397   -0.4234 C   0  0  1  0  0  0  0  0  0  0  0  0
    4.7547   -3.6618   -1.1000 C   0  0  1  0  0  0  0  0  0  0  0  0
    4.0221   -3.3780   -2.4169 C   0  0  2  0  0  0  0  0  0  0  0  0
    4.6153   -2.2056   -3.2233 C   0  0  0  0  0  0  0  0  0  0  0  0
    4.5272   -0.9542   -2.3336 C   0  0  0  0  0  0  0  0  0  0  0  0
    3.7765   -1.4540   -1.0976 C   0  0  1  0  0  0  0  0  0  0  0  0
    2.9253   -2.8685   -1.6103 C   0  0  2  0  0  0  0  0  0  0  0  0
    4.7759   -1.6672    0.2916 C   0  0  2  0  0  0  0  0  0  0  0  0
    4.5371   -0.7085    1.3056 O   0  0  0  0  0  0  0  0  0  0  0  0
    4.1112   -2.8518    0.3325 C   0  0  2  0  0  0  0  0  0  0  0  0
    8.8328   -2.1058   -1.2776 H   0  0  0  0  0  0  0  0  0  0  0  0
    7.1144   -1.9569   -1.6657 H   0  0  0  0  0  0  0  0  0  0  0  0
    7.8087   -3.5530   -1.4070 H   0  0  0  0  0  0  0  0  0  0  0  0
    8.1045   -3.0660    0.9792 H   0  0  0  0  0  0  0  0  0  0  0  0
    7.6183   -1.4090    0.7693 H   0  0  0  0  0  0  0  0  0  0  0  0
    6.0107   -2.6010    1.8818 H   0  0  0  0  0  0  0  0  0  0  0  0
    6.5465   -5.0891    0.7394 H   0  0  0  0  0  0  0  0  0  0  0  0
    4.7322   -5.9807    2.1579 H   0  0  0  0  0  0  0  0  0  0  0  0
    5.2342   -4.5299    2.9894 H   0  0  0  0  0  0  0  0  0  0  0  0
    2.2662   -4.9245   -0.5970 H   0  0  0  0  0  0  0  0  0  0  0  0
    4.7306   -5.7009   -1.0667 H   0  0  0  0  0  0  0  0  0  0  0  0
    5.8086   -3.6869   -1.3960 H   0  0  0  0  0  0  0  0  0  0  0  0
    3.8097   -4.2568   -3.0269 H   0  0  0  0  0  0  0  0  0  0  0  0
    5.6390   -2.4387   -3.5057 H   0  0  0  0  0  0  0  0  0  0  0  0
    4.0531   -2.0384   -4.1469 H   0  0  0  0  0  0  0  0  0  0  0  0
    5.4891   -0.5091   -2.0720 H   0  0  0  0  0  0  0  0  0  0  0  0
    3.9542   -0.1742   -2.8416 H   0  0  0  0  0  0  0  0  0  0  0  0
    3.0348   -0.6914   -0.8392 H   0  0  0  0  0  0  0  0  0  0  0  0
    1.9704   -2.7115   -2.1340 H   0  0  0  0  0  0  0  0  0  0  0  0
    3.6077   -0.5154    1.2983 H   0  0  0  0  0  0  0  0  0  0  0  0
    3.1562   -2.2918    0.6680 H   0  0  0  0  0  0  0  0  0  0  0  0
  1  2  1  0
  1 20  1  0
  1 21  1  0
  1 22  1  0
  2  3  1  0
  2 23  1  0
  2 24  1  0
  3 17  1  0
  3  4  1  0
  3 25  1  1
  4 10  1  0
  4  5  1  0
  4 26  1  6
  5  6  1  0
  5 27  1  0
  5 28  1  0
  6  7  2  0
  6  8  1  0
  8 19  1  0
  8  9  1  0
  9 16  1  0
  9 10  1  0
  9 29  1  1
 10 11  1  0
 10 30  1  6
 11 19  1  0
 11 12  1  0
 11 31  1  6
 12 16  1  0
 12 13  1  0
 12 32  1  6
 13 14  1  0
 13 33  1  0
 13 34  1  0
 14 15  1  0
 14 35  1  0
 14 36  1  0
 15 16  1  0
 15 17  1  0
 15 37  1  1
 16 38  1  6
 17 18  1  6
 17 19  1  0
 18 39  1  0
 19 40  1  1
M  END
>  <i_m_ct_stereo_status>  (152) 
1

>  <s_m_source_file>  (152) 
/var/tmp/pbs.5076255.sched01/tmpr6ewtwjb/42o4phu6d4.sdf

>  <i_m_source_file_index>  (152) 
36

>  <i_lp_mmshare_version>  (152) 
48012

>  <i_f3d_flags>  (152) 
2

>  <s_epik_input>  (152) 
W0NIM11bQ0gyXVtDQEBIXTFbQ0BASF0oW0NIMl1DMj1PKVtDQEBIXTNbQ0BASF0oW0NASF00W0NIMl1bQ0gyXTUpW0NAQEhdNk4yW0NASF0zW0NAQEhdNFtDSF01W0NAQF0xNltPSF0=

>  <s_epik_cmdline>  (152) 
J2VwaWtfcHl0aG9uJywgJy1waHQnLCAnMi4wJywgJy1waCcsICc3LjAnLCAnLXRuJywgJzgnLCAnLW1hJywgJzIwMCcsICctaW1hZScsICc8aW5maWxlLm1hZT4nLCAnLW9tYWUnLCAnPG91dGZpbGUubWFlPic=

>  <r_lp_tautomer_probability>  (152) 
1

>  <r_epik_Ionization_Penalty>  (152) 
3.13853e-06

>  <r_epik_Ionization_Penalty_Charging>  (152) 
0

>  <r_epik_Ionization_Penalty_Neutral>  (152) 
3.13853e-06

>  <r_epik_State_Penalty>  (152) 
-0

>  <r_epik_Charging_Adjusted_Penalty>  (152) 
0

>  <i_epik_Tot_Q>  (152) 
0

>  <i_epik_Tot_abs_Q>  (152) 
0

>  <s_lp_Force_Field>  (152) 
OPLS3e

>  <r_lp_Energy>  (152) 
474.639

>  <b_lp_Chiralities_Consistent>  (152) 
0

>  <s_lp_Variant>  (152) 
51:0-1

>  <s_i_glide_gridfile>  (152) 
pfpi4k_grid

>  <i_i_glide_lignum>  (152) 
36

>  <i_i_glide_rotatable_bonds>  (152) 
2

>  <r_i_docking_score>  (152) 
-3.15959

>  <r_i_glide_ligand_efficiency>  (152) 
-0.166294

>  <r_i_glide_ligand_efficiency_sa>  (152) 
-0.44374

>  <r_i_glide_ligand_efficiency_ln>  (152) 
-0.801025

>  <r_i_glide_gscore>  (152) 
-3.15959

>  <r_i_glide_lipo>  (152) 
-0.418261

>  <r_i_glide_hbond>  (152) 
0

>  <r_i_glide_metal>  (152) 
-0

>  <r_i_glide_rewards>  (152) 
-1.64294

>  <r_i_glide_evdw>  (152) 
-19.0162

>  <r_i_glide_ecoul>  (152) 
-0.928889

>  <r_i_glide_erotb>  (152) 
0

>  <r_i_glide_esite>  (152) 
-0.00825048

>  <r_i_glide_emodel>  (152) 
-22.4609

>  <r_i_glide_energy>  (152) 
-19.9451

>  <r_i_glide_einternal>  (152) 
0.682445

>  <r_i_glide_intrahb_reward>  (152) 
-0

>  <i_i_glide_confnum>  (152) 
1

>  <i_i_glide_posenum>  (152) 
34

>  <r_i_glide_eff_state_penalty>  (152) 
0

>  <ligand_id>  (152) 
51

>  <original_smiles>  (152) 
CCC1C2CC(=O)N3C4C2C2C5CCC(C54)C1(O)C23

>  <smiles>  (152) 
[H]OC12C3([H])N4C(=O)C([H])([H])C([H])(C5([H])C4([H])C4([H])C([H])(C([H])([H])C([H])([H])C41[H])C35[H])C2([H])C([H])([H])C([H])([H])[H]

$$$$
52:0:0
     RDKit          3D

 59 63  0  0  1  0  0  0  0  0999 V2000
    4.9194   -2.3303   -2.7150 C   0  0  0  0  0  0  0  0  0  0  0  0
    4.4571   -3.2044   -1.5335 C   0  0  2  0  0  0  0  0  0  0  0  0
    3.1366   -2.6679   -0.8499 C   0  0  0  0  0  0  0  0  0  0  0  0
    2.9307   -2.6042    0.7528 C   0  0  0  0  0  0  0  0  0  0  0  0
    4.1141   -2.2378    1.8241 C   0  0  1  0  0  0  0  0  0  0  0  0
    5.4594   -3.0145    2.2349 C   0  0  0  0  0  0  0  0  0  0  0  0
    5.6673   -4.3888    1.6762 C   0  0  2  0  0  0  0  0  0  0  0  0
    7.0209   -4.4172    0.9362 C   0  0  0  0  0  0  0  0  0  0  0  0
    6.8721   -3.8212   -0.2835 C   0  0  0  0  0  0  0  0  0  0  0  0
    5.4443   -3.2818   -0.3872 C   0  0  1  0  0  0  0  0  0  0  0  0
    5.5538   -1.8343   -0.0132 O   0  0  0  0  0  0  0  0  0  0  0  0
    4.8533   -1.1449    1.0373 C   0  0  1  0  0  0  0  0  0  0  0  0
    3.9998   -0.1363    0.5573 O   0  0  0  0  0  0  0  0  0  0  0  0
    4.8667   -4.5218    0.4334 C   0  0  1  0  0  0  0  0  0  0  0  0
    5.0325   -5.7983   -0.1925 O   0  0  0  0  0  0  0  0  0  0  0  0
    5.1838   -5.2884    2.8356 C   0  0  0  0  0  0  0  0  0  0  0  0
    3.7357   -4.8428    3.3444 C   0  0  0  0  0  0  0  0  0  0  0  0
    3.3780   -3.4396    4.0761 C   0  0  1  0  0  0  0  0  0  0  0  0
    3.7480   -3.3748    5.6190 C   0  0  0  0  0  0  0  0  0  0  0  0
    2.5991   -2.7198    6.4336 C   0  0  0  0  0  0  0  0  0  0  0  0
    3.9659   -4.7750    6.2600 C   0  0  0  0  0  0  0  0  0  0  0  0
    4.9975   -2.5033    5.8479 C   0  0  0  0  0  0  0  0  0  0  0  0
    5.8967   -2.8733    6.6024 O   0  0  0  0  0  0  0  0  0  0  0  0
    5.0480   -1.2065    5.1728 C   0  0  0  0  0  0  0  0  0  0  0  0
    4.3645   -0.9877    4.0378 C   0  0  0  0  0  0  0  0  0  0  0  0
    3.5013   -2.0077    3.2795 C   0  0  1  0  0  0  0  0  0  0  0  0
    2.0950   -1.3381    3.2440 C   0  0  0  0  0  0  0  0  0  0  0  0
    5.0905   -1.2954   -2.4169 H   0  0  0  0  0  0  0  0  0  0  0  0
    4.1664   -2.3180   -3.5042 H   0  0  0  0  0  0  0  0  0  0  0  0
    5.8448   -2.7131   -3.1447 H   0  0  0  0  0  0  0  0  0  0  0  0
    4.2641   -4.1915   -1.9537 H   0  0  0  0  0  0  0  0  0  0  0  0
    2.9813   -1.6633   -1.2389 H   0  0  0  0  0  0  0  0  0  0  0  0
    2.3000   -3.2316   -1.2607 H   0  0  0  0  0  0  0  0  0  0  0  0
    2.1725   -1.8313    0.8328 H   0  0  0  0  0  0  0  0  0  0  0  0
    2.3397   -3.4465    1.1062 H   0  0  0  0  0  0  0  0  0  0  0  0
    6.3838   -2.4551    2.0681 H   0  0  0  0  0  0  0  0  0  0  0  0
    5.6522   -3.0580    3.3000 H   0  0  0  0  0  0  0  0  0  0  0  0
    7.9123   -4.8833    1.3221 H   0  0  0  0  0  0  0  0  0  0  0  0
    7.6247   -3.7104   -1.0486 H   0  0  0  0  0  0  0  0  0  0  0  0
    5.5984   -0.6078    1.6261 H   0  0  0  0  0  0  0  0  0  0  0  0
    3.2932   -0.5678    0.0979 H   0  0  0  0  0  0  0  0  0  0  0  0
    3.8225   -4.6803    0.5934 H   0  0  0  0  0  0  0  0  0  0  0  0
    4.4797   -5.8271   -0.9629 H   0  0  0  0  0  0  0  0  0  0  0  0
    5.1485   -6.3217    2.4938 H   0  0  0  0  0  0  0  0  0  0  0  0
    5.8989   -5.2722    3.6570 H   0  0  0  0  0  0  0  0  0  0  0  0
    3.0406   -4.9533    2.5192 H   0  0  0  0  0  0  0  0  0  0  0  0
    3.3948   -5.6577    3.9768 H   0  0  0  0  0  0  0  0  0  0  0  0
    2.2988   -3.5880    4.1198 H   0  0  0  0  0  0  0  0  0  0  0  0
    1.6409   -3.2216    6.2781 H   0  0  0  0  0  0  0  0  0  0  0  0
    2.4618   -1.6673    6.1885 H   0  0  0  0  0  0  0  0  0  0  0  0
    2.8033   -2.7532    7.5064 H   0  0  0  0  0  0  0  0  0  0  0  0
    3.0768   -5.4057    6.1884 H   0  0  0  0  0  0  0  0  0  0  0  0
    4.2043   -4.7048    7.3241 H   0  0  0  0  0  0  0  0  0  0  0  0
    4.7996   -5.3081    5.7983 H   0  0  0  0  0  0  0  0  0  0  0  0
    5.6407   -0.4242    5.6234 H   0  0  0  0  0  0  0  0  0  0  0  0
    4.4110   -0.0044    3.5884 H   0  0  0  0  0  0  0  0  0  0  0  0
    1.3093   -1.9876    2.8553 H   0  0  0  0  0  0  0  0  0  0  0  0
    2.1039   -0.4284    2.6427 H   0  0  0  0  0  0  0  0  0  0  0  0
    1.7663   -1.0288    4.2337 H   0  0  0  0  0  0  0  0  0  0  0  0
  1  2  1  0
  1 28  1  0
  1 29  1  0
  1 30  1  0
  2 10  1  0
  2  3  1  0
  2 31  1  6
  3  4  1  0
  3 32  1  0
  3 33  1  0
  5  4  1  6
  4 34  1  0
  4 35  1  0
  5 12  1  0
  5 26  1  0
  5  6  1  0
  6  7  1  0
  6 36  1  0
  6 37  1  0
  7 14  1  0
  7  8  1  0
  7 16  1  1
  8  9  2  0
  8 38  1  0
 10  9  1  6
  9 39  1  0
 10 11  1  0
 10 14  1  0
 11 12  1  0
 12 13  1  0
 12 40  1  1
 13 41  1  0
 14 15  1  0
 14 42  1  1
 15 43  1  0
 16 17  1  0
 16 44  1  0
 16 45  1  0
 17 18  1  0
 17 46  1  0
 17 47  1  0
 18 26  1  0
 18 19  1  0
 18 48  1  1
 19 20  1  0
 19 21  1  0
 19 22  1  0
 20 49  1  0
 20 50  1  0
 20 51  1  0
 21 52  1  0
 21 53  1  0
 21 54  1  0
 22 23  2  0
 22 24  1  0
 24 25  2  0
 24 55  1  0
 25 26  1  0
 25 56  1  0
 26 27  1  6
 27 57  1  0
 27 58  1  0
 27 59  1  0
M  END
>  <i_m_ct_stereo_status>  (153) 
1

>  <s_m_source_file>  (153) 
/var/tmp/pbs.5076255.sched01/tmpr6ewtwjb/42o4phu6d4.sdf

>  <i_m_source_file_index>  (153) 
37

>  <i_lp_mmshare_version>  (153) 
48012

>  <i_f3d_flags>  (153) 
0

>  <s_epik_input>  (153) 
W0NIMl0xW0NIMl1bQ0BASF0oW0NIM10pW0NAXShbQ0BIXTJbT0hdKShPW0NASF0zW09IXSlbQ0hdPVtDSF1bQ0BdMihbQ0gyXTQpW0NIMl1bQ0gyXVtDQEhdKFtDQEBdNShbQ0BAXTEzNClbQ0gzXSlDKFtDSDNdKShbQ0gzXSlDKD1PKVtDSF09W0NIXTU=

>  <s_epik_cmdline>  (153) 
J2VwaWtfcHl0aG9uJywgJy1waHQnLCAnMi4wJywgJy1waCcsICc3LjAnLCAnLXRuJywgJzgnLCAnLW1hJywgJzIwMCcsICctaW1hZScsICc8aW5maWxlLm1hZT4nLCAnLW9tYWUnLCAnPG91dGZpbGUubWFlPic=

>  <r_lp_tautomer_probability>  (153) 
1

>  <r_epik_Ionization_Penalty>  (153) 
1.77053e-07

>  <r_epik_Ionization_Penalty_Charging>  (153) 
0

>  <r_epik_Ionization_Penalty_Neutral>  (153) 
1.77053e-07

>  <r_epik_State_Penalty>  (153) 
-0

>  <r_epik_Charging_Adjusted_Penalty>  (153) 
0

>  <i_epik_Tot_Q>  (153) 
0

>  <i_epik_Tot_abs_Q>  (153) 
0

>  <s_epik_Chemistry_Notes>  (153) 
This compound contains an acetal/aminal-like group ( X-CH(R)-Y where X, Y are N, S, or O) that may be acid/base labile, releasing an aldehyde.

>  <s_lp_Force_Field>  (153) 
OPLS3e

>  <r_lp_Energy>  (153) 
210.048

>  <b_lp_Chiralities_Consistent>  (153) 
1

>  <s_lp_Variant>  (153) 
52:0-1

>  <s_i_glide_gridfile>  (153) 
pfpi4k_grid

>  <i_i_glide_lignum>  (153) 
37

>  <i_i_glide_rotatable_bonds>  (153) 
2

>  <r_i_docking_score>  (153) 
-3.5463

>  <r_i_glide_ligand_efficiency>  (153) 
-0.131344

>  <r_i_glide_ligand_efficiency_sa>  (153) 
-0.394033

>  <r_i_glide_ligand_efficiency_ln>  (153) 
-0.82552

>  <r_i_glide_gscore>  (153) 
-3.5463

>  <r_i_glide_lipo>  (153) 
-0.619145

>  <r_i_glide_hbond>  (153) 
-0.158473

>  <r_i_glide_metal>  (153) 
-0

>  <r_i_glide_rewards>  (153) 
-0.988221

>  <r_i_glide_evdw>  (153) 
-23.1649

>  <r_i_glide_ecoul>  (153) 
-4.14812

>  <r_i_glide_erotb>  (153) 
0

>  <r_i_glide_esite>  (153) 
0

>  <r_i_glide_emodel>  (153) 
-33.1322

>  <r_i_glide_energy>  (153) 
-27.313

>  <r_i_glide_einternal>  (153) 
0.359615

>  <r_i_glide_intrahb_reward>  (153) 
-0

>  <i_i_glide_confnum>  (153) 
2

>  <i_i_glide_posenum>  (153) 
7

>  <r_i_glide_eff_state_penalty>  (153) 
0

>  <ligand_id>  (153) 
52

>  <original_smiles>  (153) 
CC1CCC23CC4(C=CC1(OC2O)C4O)CCC1C(C)(C)C(=O)C=CC13C

>  <smiles>  (153) 
[H]OC1([H])OC23C([H])=C([H])C4(C([H])([H])C([H])([H])C5([H])C(C([H])([H])[H])(C([H])([H])[H])C(=O)C([H])=C([H])C5(C([H])([H])[H])C1(C([H])([H])C([H])([H])C2([H])C([H])([H])[H])C4([H])[H])C3([H])O[H]

$$$$
52:0:1
     RDKit          3D

 59 63  0  0  1  0  0  0  0  0999 V2000
    3.2943   -1.2069   -2.3817 C   0  0  0  0  0  0  0  0  0  0  0  0
    3.8976   -2.4611   -1.7443 C   0  0  2  0  0  0  0  0  0  0  0  0
    2.8250   -3.4552   -1.1439 C   0  0  0  0  0  0  0  0  0  0  0  0
    3.0275   -4.2103    0.2704 C   0  0  0  0  0  0  0  0  0  0  0  0
    3.7319   -3.5294    1.5870 C   0  0  1  0  0  0  0  0  0  0  0  0
    5.2433   -3.0527    1.8818 C   0  0  0  0  0  0  0  0  0  0  0  0
    6.2714   -3.3541    0.8373 C   0  0  2  0  0  0  0  0  0  0  0  0
    6.9126   -2.0084    0.4306 C   0  0  0  0  0  0  0  0  0  0  0  0
    6.0678   -1.3633   -0.3810 C   0  0  0  0  0  0  0  0  0  0  0  0
    4.7833   -2.1657   -0.5524 C   0  0  1  0  0  0  0  0  0  0  0  0
    3.8780   -1.4948    0.4003 O   0  0  0  0  0  0  0  0  0  0  0  0
    3.1979   -2.0916    1.4949 C   0  0  1  0  0  0  0  0  0  0  0  0
    1.8186   -2.0008    1.2781 O   0  0  0  0  0  0  0  0  0  0  0  0
    5.5736   -3.5268   -0.4593 C   0  0  1  0  0  0  0  0  0  0  0  0
    6.4853   -3.6116   -1.5565 O   0  0  0  0  0  0  0  0  0  0  0  0
    6.9216   -4.6505    1.3599 C   0  0  0  0  0  0  0  0  0  0  0  0
    5.8210   -5.7344    1.7656 C   0  0  0  0  0  0  0  0  0  0  0  0
    4.7228   -5.5798    2.9555 C   0  0  1  0  0  0  0  0  0  0  0  0
    5.2550   -5.8616    4.4247 C   0  0  0  0  0  0  0  0  0  0  0  0
    4.2534   -6.7470    5.2152 C   0  0  0  0  0  0  0  0  0  0  0  0
    6.5966   -6.6490    4.4490 C   0  0  0  0  0  0  0  0  0  0  0  0
    5.4045   -4.5586    5.2190 C   0  0  0  0  0  0  0  0  0  0  0  0
    6.4089   -4.3581    5.9087 O   0  0  0  0  0  0  0  0  0  0  0  0
    4.3033   -3.5893    5.1686 C   0  0  0  0  0  0  0  0  0  0  0  0
    3.4592   -3.5755    4.1268 C   0  0  0  0  0  0  0  0  0  0  0  0
    3.5251   -4.4535    2.8733 C   0  0  1  0  0  0  0  0  0  0  0  0
    2.1566   -5.1949    2.8622 C   0  0  0  0  0  0  0  0  0  0  0  0
    2.7420   -0.6928   -1.6182 H   0  0  0  0  0  0  0  0  0  0  0  0
    2.6037   -1.4585   -3.1888 H   0  0  0  0  0  0  0  0  0  0  0  0
    4.0387   -0.5073   -2.7648 H   0  0  0  0  0  0  0  0  0  0  0  0
    4.4203   -2.9582   -2.5679 H   0  0  0  0  0  0  0  0  0  0  0  0
    1.8660   -2.9480   -1.0998 H   0  0  0  0  0  0  0  0  0  0  0  0
    2.6456   -4.2187   -1.8875 H   0  0  0  0  0  0  0  0  0  0  0  0
    1.9939   -4.4362    0.5246 H   0  0  0  0  0  0  0  0  0  0  0  0
    3.3906   -5.2241    0.1177 H   0  0  0  0  0  0  0  0  0  0  0  0
    5.3486   -1.9965    2.1355 H   0  0  0  0  0  0  0  0  0  0  0  0
    5.6486   -3.3483    2.8344 H   0  0  0  0  0  0  0  0  0  0  0  0
    7.9156   -1.7071    0.7298 H   0  0  0  0  0  0  0  0  0  0  0  0
    6.1862   -0.4063   -0.8772 H   0  0  0  0  0  0  0  0  0  0  0  0
    3.3830   -1.4751    2.3711 H   0  0  0  0  0  0  0  0  0  0  0  0
    1.6519   -1.5502    0.4454 H   0  0  0  0  0  0  0  0  0  0  0  0
    5.1314   -4.5052   -0.5981 H   0  0  0  0  0  0  0  0  0  0  0  0
    6.0285   -4.0560   -2.2479 H   0  0  0  0  0  0  0  0  0  0  0  0
    7.5959   -5.0602    0.6080 H   0  0  0  0  0  0  0  0  0  0  0  0
    7.5600   -4.4564    2.2098 H   0  0  0  0  0  0  0  0  0  0  0  0
    5.2792   -6.0113    0.8683 H   0  0  0  0  0  0  0  0  0  0  0  0
    6.3804   -6.6444    1.9404 H   0  0  0  0  0  0  0  0  0  0  0  0
    4.1855   -6.5032    2.7470 H   0  0  0  0  0  0  0  0  0  0  0  0
    4.0113   -7.6786    4.6967 H   0  0  0  0  0  0  0  0  0  0  0  0
    3.3165   -6.2312    5.4143 H   0  0  0  0  0  0  0  0  0  0  0  0
    4.6514   -7.0239    6.1951 H   0  0  0  0  0  0  0  0  0  0  0  0
    6.5169   -7.6243    3.9630 H   0  0  0  0  0  0  0  0  0  0  0  0
    6.9366   -6.8459    5.4694 H   0  0  0  0  0  0  0  0  0  0  0  0
    7.4013   -6.0900    3.9668 H   0  0  0  0  0  0  0  0  0  0  0  0
    4.1766   -2.9236    6.0109 H   0  0  0  0  0  0  0  0  0  0  0  0
    2.6267   -2.8756    4.1372 H   0  0  0  0  0  0  0  0  0  0  0  0
    2.0805   -5.9761    2.1065 H   0  0  0  0  0  0  0  0  0  0  0  0
    1.3340   -4.4971    2.7162 H   0  0  0  0  0  0  0  0  0  0  0  0
    1.9521   -5.6803    3.8125 H   0  0  0  0  0  0  0  0  0  0  0  0
  1  2  1  0
  1 28  1  0
  1 29  1  0
  1 30  1  0
  2 10  1  0
  2  3  1  0
  2 31  1  6
  3  4  1  0
  3 32  1  0
  3 33  1  0
  5  4  1  6
  4 34  1  0
  4 35  1  0
  5 12  1  0
  5 26  1  0
  5  6  1  0
  6  7  1  0
  6 36  1  0
  6 37  1  0
  7 14  1  0
  7  8  1  0
  7 16  1  1
  8  9  2  0
  8 38  1  0
 10  9  1  6
  9 39  1  0
 10 11  1  0
 10 14  1  0
 11 12  1  0
 12 13  1  0
 12 40  1  1
 13 41  1  0
 14 15  1  0
 14 42  1  1
 15 43  1  0
 16 17  1  0
 16 44  1  0
 16 45  1  0
 17 18  1  0
 17 46  1  0
 17 47  1  0
 18 26  1  0
 18 19  1  0
 18 48  1  6
 19 20  1  0
 19 21  1  0
 19 22  1  0
 20 49  1  0
 20 50  1  0
 20 51  1  0
 21 52  1  0
 21 53  1  0
 21 54  1  0
 22 23  2  0
 22 24  1  0
 24 25  2  0
 24 55  1  0
 25 26  1  0
 25 56  1  0
 26 27  1  6
 27 57  1  0
 27 58  1  0
 27 59  1  0
M  END
>  <i_m_ct_stereo_status>  (154) 
1

>  <s_m_source_file>  (154) 
/var/tmp/pbs.5076255.sched01/tmpr6ewtwjb/42o4phu6d4.sdf

>  <i_m_source_file_index>  (154) 
37

>  <i_lp_mmshare_version>  (154) 
48012

>  <i_f3d_flags>  (154) 
0

>  <s_epik_input>  (154) 
W0NIMl0xW0NIMl1bQ0BASF0oW0NIM10pW0NAXShbQ0BIXTJbT0hdKShPW0NASF0zW09IXSlbQ0hdPVtDSF1bQ0BdMihbQ0gyXTQpW0NIMl1bQ0gyXVtDQEhdKFtDQEBdNShbQ0BAXTEzNClbQ0gzXSlDKFtDSDNdKShbQ0gzXSlDKD1PKVtDSF09W0NIXTU=

>  <s_epik_cmdline>  (154) 
J2VwaWtfcHl0aG9uJywgJy1waHQnLCAnMi4wJywgJy1waCcsICc3LjAnLCAnLXRuJywgJzgnLCAnLW1hJywgJzIwMCcsICctaW1hZScsICc8aW5maWxlLm1hZT4nLCAnLW9tYWUnLCAnPG91dGZpbGUubWFlPic=

>  <r_lp_tautomer_probability>  (154) 
1

>  <r_epik_Ionization_Penalty>  (154) 
1.77053e-07

>  <r_epik_Ionization_Penalty_Charging>  (154) 
0

>  <r_epik_Ionization_Penalty_Neutral>  (154) 
1.77053e-07

>  <r_epik_State_Penalty>  (154) 
-0

>  <r_epik_Charging_Adjusted_Penalty>  (154) 
0

>  <i_epik_Tot_Q>  (154) 
0

>  <i_epik_Tot_abs_Q>  (154) 
0

>  <s_epik_Chemistry_Notes>  (154) 
This compound contains an acetal/aminal-like group ( X-CH(R)-Y where X, Y are N, S, or O) that may be acid/base labile, releasing an aldehyde.

>  <s_lp_Force_Field>  (154) 
OPLS3e

>  <r_lp_Energy>  (154) 
210.048

>  <b_lp_Chiralities_Consistent>  (154) 
1

>  <s_lp_Variant>  (154) 
52:0-1

>  <s_i_glide_gridfile>  (154) 
pfpi4k_grid

>  <i_i_glide_lignum>  (154) 
37

>  <i_i_glide_rotatable_bonds>  (154) 
2

>  <r_i_docking_score>  (154) 
-2.73418

>  <r_i_glide_ligand_efficiency>  (154) 
-0.101266

>  <r_i_glide_ligand_efficiency_sa>  (154) 
-0.303798

>  <r_i_glide_ligand_efficiency_ln>  (154) 
-0.636473

>  <r_i_glide_gscore>  (154) 
-2.73418

>  <r_i_glide_lipo>  (154) 
-0.449712

>  <r_i_glide_hbond>  (154) 
0

>  <r_i_glide_metal>  (154) 
-0

>  <r_i_glide_rewards>  (154) 
-0.871864

>  <r_i_glide_evdw>  (154) 
-14.407

>  <r_i_glide_ecoul>  (154) 
-4.50259

>  <r_i_glide_erotb>  (154) 
0

>  <r_i_glide_esite>  (154) 
-0.0168715

>  <r_i_glide_emodel>  (154) 
-21.6722

>  <r_i_glide_energy>  (154) 
-18.9096

>  <r_i_glide_einternal>  (154) 
2.58029

>  <r_i_glide_intrahb_reward>  (154) 
-0

>  <i_i_glide_confnum>  (154) 
2

>  <i_i_glide_posenum>  (154) 
21

>  <r_i_glide_eff_state_penalty>  (154) 
0

>  <ligand_id>  (154) 
52

>  <original_smiles>  (154) 
CC1CCC23CC4(C=CC1(OC2O)C4O)CCC1C(C)(C)C(=O)C=CC13C

>  <smiles>  (154) 
[H]OC1([H])OC23C([H])=C([H])C4(C([H])([H])C([H])([H])C5([H])C(C([H])([H])[H])(C([H])([H])[H])C(=O)C([H])=C([H])C5(C([H])([H])[H])C1(C([H])([H])C([H])([H])C2([H])C([H])([H])[H])C4([H])[H])C3([H])O[H]

$$$$
52:0:2
     RDKit          3D

 59 63  0  0  1  0  0  0  0  0999 V2000
    3.0873   -1.0656   -2.3915 C   0  0  0  0  0  0  0  0  0  0  0  0
    3.5029   -2.4660   -2.0028 C   0  0  2  0  0  0  0  0  0  0  0  0
    2.3246   -3.3792   -1.4648 C   0  0  0  0  0  0  0  0  0  0  0  0
    2.4472   -4.3128   -0.1468 C   0  0  0  0  0  0  0  0  0  0  0  0
    3.3253   -3.9342    1.1893 C   0  0  1  0  0  0  0  0  0  0  0  0
    4.9246   -3.7847    1.4115 C   0  0  0  0  0  0  0  0  0  0  0  0
    5.8099   -4.0977    0.2409 C   0  0  2  0  0  0  0  0  0  0  0  0
    6.6888   -2.8677   -0.0602 C   0  0  0  0  0  0  0  0  0  0  0  0
    5.9404   -1.9481   -0.7357 C   0  0  0  0  0  0  0  0  0  0  0  0
    4.5061   -2.4705   -0.8534 C   0  0  1  0  0  0  0  0  0  0  0  0
    3.8106   -1.7864    0.2787 O   0  0  0  0  0  0  0  0  0  0  0  0
    3.0876   -2.4128    1.3341 C   0  0  1  0  0  0  0  0  0  0  0  0
    1.7673   -2.0181    1.3375 O   0  0  0  0  0  0  0  0  0  0  0  0
    5.0130   -3.9386   -0.9885 C   0  0  1  0  0  0  0  0  0  0  0  0
    5.6834   -4.0586   -2.2365 O   0  0  0  0  0  0  0  0  0  0  0  0
    6.2473   -5.5383    0.5767 C   0  0  0  0  0  0  0  0  0  0  0  0
    4.9960   -6.4755    0.8844 C   0  0  0  0  0  0  0  0  0  0  0  0
    4.0026   -6.3267    2.1561 C   0  0  1  0  0  0  0  0  0  0  0  0
    4.5707   -6.9299    3.5122 C   0  0  0  0  0  0  0  0  0  0  0  0
    3.4726   -7.7278    4.2655 C   0  0  0  0  0  0  0  0  0  0  0  0
    5.7501   -7.9257    3.3072 C   0  0  0  0  0  0  0  0  0  0  0  0
    5.0213   -5.8006    4.4632 C   0  0  0  0  0  0  0  0  0  0  0  0
    6.0892   -5.8727    5.0734 O   0  0  0  0  0  0  0  0  0  0  0  0
    4.1106   -4.6654    4.6567 C   0  0  0  0  0  0  0  0  0  0  0  0
    3.2174   -4.3341    3.7060 C   0  0  0  0  0  0  0  0  0  0  0  0
    3.0409   -5.0024    2.3383 C   0  0  1  0  0  0  0  0  0  0  0  0
    1.5743   -5.5029    2.3716 C   0  0  0  0  0  0  0  0  0  0  0  0
    2.6310   -0.6894   -1.4827 H   0  0  0  0  0  0  0  0  0  0  0  0
    2.3157   -1.0545   -3.1640 H   0  0  0  0  0  0  0  0  0  0  0  0
    3.9093   -0.4254   -2.7047 H   0  0  0  0  0  0  0  0  0  0  0  0
    3.8715   -2.8872   -2.9445 H   0  0  0  0  0  0  0  0  0  0  0  0
    1.4934   -2.7238   -1.2870 H   0  0  0  0  0  0  0  0  0  0  0  0
    1.9543   -3.9697   -2.2965 H   0  0  0  0  0  0  0  0  0  0  0  0
    1.4246   -4.4165    0.1350 H   0  0  0  0  0  0  0  0  0  0  0  0
    2.6196   -5.3433   -0.4333 H   0  0  0  0  0  0  0  0  0  0  0  0
    5.2613   -2.8150    1.7925 H   0  0  0  0  0  0  0  0  0  0  0  0
    5.3209   -4.2880    2.2815 H   0  0  0  0  0  0  0  0  0  0  0  0
    7.7344   -2.7819    0.1960 H   0  0  0  0  0  0  0  0  0  0  0  0
    6.2102   -0.9851   -1.1187 H   0  0  0  0  0  0  0  0  0  0  0  0
    3.4819   -2.0197    2.2812 H   0  0  0  0  0  0  0  0  0  0  0  0
    1.6011   -1.5661    0.5185 H   0  0  0  0  0  0  0  0  0  0  0  0
    4.3811   -4.8057   -1.1929 H   0  0  0  0  0  0  0  0  0  0  0  0
    5.7483   -4.9726   -2.3997 H   0  0  0  0  0  0  0  0  0  0  0  0
    6.7859   -5.9354   -0.2729 H   0  0  0  0  0  0  0  0  0  0  0  0
    6.9542   -5.5487    1.4109 H   0  0  0  0  0  0  0  0  0  0  0  0
    4.3666   -6.5110   -0.0034 H   0  0  0  0  0  0  0  0  0  0  0  0
    5.3812   -7.4855    0.8647 H   0  0  0  0  0  0  0  0  0  0  0  0
    3.3000   -7.1057    1.8644 H   0  0  0  0  0  0  0  0  0  0  0  0
    3.0347   -8.5155    3.6419 H   0  0  0  0  0  0  0  0  0  0  0  0
    2.6617   -7.0945    4.6178 H   0  0  0  0  0  0  0  0  0  0  0  0
    3.8790   -8.2197    5.1570 H   0  0  0  0  0  0  0  0  0  0  0  0
    5.4549   -8.7839    2.7006 H   0  0  0  0  0  0  0  0  0  0  0  0
    6.1075   -8.3293    4.2577 H   0  0  0  0  0  0  0  0  0  0  0  0
    6.6048   -7.4484    2.8387 H   0  0  0  0  0  0  0  0  0  0  0  0
    4.1579   -4.1204    5.5837 H   0  0  0  0  0  0  0  0  0  0  0  0
    2.5320   -3.5183    3.8881 H   0  0  0  0  0  0  0  0  0  0  0  0
    1.2825   -6.1181    1.5082 H   0  0  0  0  0  0  0  0  0  0  0  0
    0.8958   -4.6527    2.4565 H   0  0  0  0  0  0  0  0  0  0  0  0
    1.3468   -6.1072    3.2461 H   0  0  0  0  0  0  0  0  0  0  0  0
  1  2  1  0
  1 28  1  0
  1 29  1  0
  1 30  1  0
  2 10  1  0
  2  3  1  0
  2 31  1  6
  3  4  1  0
  3 32  1  0
  3 33  1  0
  5  4  1  6
  4 34  1  0
  4 35  1  0
  5 12  1  0
  5 26  1  0
  5  6  1  0
  6  7  1  0
  6 36  1  0
  6 37  1  0
  7 14  1  0
  7  8  1  0
  7 16  1  1
  8  9  2  0
  8 38  1  0
 10  9  1  6
  9 39  1  0
 10 11  1  0
 10 14  1  0
 11 12  1  0
 12 13  1  0
 12 40  1  1
 13 41  1  0
 14 15  1  0
 14 42  1  6
 15 43  1  0
 16 17  1  0
 16 44  1  0
 16 45  1  0
 17 18  1  0
 17 46  1  0
 17 47  1  0
 18 26  1  0
 18 19  1  0
 18 48  1  6
 19 20  1  0
 19 21  1  0
 19 22  1  0
 20 49  1  0
 20 50  1  0
 20 51  1  0
 21 52  1  0
 21 53  1  0
 21 54  1  0
 22 23  2  0
 22 24  1  0
 24 25  2  0
 24 55  1  0
 25 26  1  0
 25 56  1  0
 26 27  1  6
 27 57  1  0
 27 58  1  0
 27 59  1  0
M  END
>  <i_m_ct_stereo_status>  (155) 
1

>  <s_m_source_file>  (155) 
/var/tmp/pbs.5076255.sched01/tmpr6ewtwjb/42o4phu6d4.sdf

>  <i_m_source_file_index>  (155) 
37

>  <i_lp_mmshare_version>  (155) 
48012

>  <i_f3d_flags>  (155) 
0

>  <s_epik_input>  (155) 
W0NIMl0xW0NIMl1bQ0BASF0oW0NIM10pW0NAXShbQ0BIXTJbT0hdKShPW0NASF0zW09IXSlbQ0hdPVtDSF1bQ0BdMihbQ0gyXTQpW0NIMl1bQ0gyXVtDQEhdKFtDQEBdNShbQ0BAXTEzNClbQ0gzXSlDKFtDSDNdKShbQ0gzXSlDKD1PKVtDSF09W0NIXTU=

>  <s_epik_cmdline>  (155) 
J2VwaWtfcHl0aG9uJywgJy1waHQnLCAnMi4wJywgJy1waCcsICc3LjAnLCAnLXRuJywgJzgnLCAnLW1hJywgJzIwMCcsICctaW1hZScsICc8aW5maWxlLm1hZT4nLCAnLW9tYWUnLCAnPG91dGZpbGUubWFlPic=

>  <r_lp_tautomer_probability>  (155) 
1

>  <r_epik_Ionization_Penalty>  (155) 
1.77053e-07

>  <r_epik_Ionization_Penalty_Charging>  (155) 
0

>  <r_epik_Ionization_Penalty_Neutral>  (155) 
1.77053e-07

>  <r_epik_State_Penalty>  (155) 
-0

>  <r_epik_Charging_Adjusted_Penalty>  (155) 
0

>  <i_epik_Tot_Q>  (155) 
0

>  <i_epik_Tot_abs_Q>  (155) 
0

>  <s_epik_Chemistry_Notes>  (155) 
This compound contains an acetal/aminal-like group ( X-CH(R)-Y where X, Y are N, S, or O) that may be acid/base labile, releasing an aldehyde.

>  <s_lp_Force_Field>  (155) 
OPLS3e

>  <r_lp_Energy>  (155) 
210.048

>  <b_lp_Chiralities_Consistent>  (155) 
1

>  <s_lp_Variant>  (155) 
52:0-1

>  <s_i_glide_gridfile>  (155) 
pfpi4k_grid

>  <i_i_glide_lignum>  (155) 
37

>  <i_i_glide_rotatable_bonds>  (155) 
2

>  <r_i_docking_score>  (155) 
-2.20008

>  <r_i_glide_ligand_efficiency>  (155) 
-0.0814845

>  <r_i_glide_ligand_efficiency_sa>  (155) 
-0.244453

>  <r_i_glide_ligand_efficiency_ln>  (155) 
-0.512143

>  <r_i_glide_gscore>  (155) 
-2.20008

>  <r_i_glide_lipo>  (155) 
-0.52531

>  <r_i_glide_hbond>  (155) 
0

>  <r_i_glide_metal>  (155) 
-0

>  <r_i_glide_rewards>  (155) 
-0.869333

>  <r_i_glide_evdw>  (155) 
-4.57199

>  <r_i_glide_ecoul>  (155) 
-3.73459

>  <r_i_glide_erotb>  (155) 
0

>  <r_i_glide_esite>  (155) 
-0.0166509

>  <r_i_glide_emodel>  (155) 
-9.45466

>  <r_i_glide_energy>  (155) 
-8.30657

>  <r_i_glide_einternal>  (155) 
3.17267

>  <r_i_glide_intrahb_reward>  (155) 
-0

>  <i_i_glide_confnum>  (155) 
1

>  <i_i_glide_posenum>  (155) 
9

>  <r_i_glide_eff_state_penalty>  (155) 
0

>  <ligand_id>  (155) 
52

>  <original_smiles>  (155) 
CC1CCC23CC4(C=CC1(OC2O)C4O)CCC1C(C)(C)C(=O)C=CC13C

>  <smiles>  (155) 
[H]OC1([H])OC23C([H])=C([H])C4(C([H])([H])C([H])([H])C5([H])C(C([H])([H])[H])(C([H])([H])[H])C(=O)C([H])=C([H])C5(C([H])([H])[H])C1(C([H])([H])C([H])([H])C2([H])C([H])([H])[H])C4([H])[H])C3([H])O[H]

$$$$
53:0:0
     RDKit          3D

 81 87  0  0  1  0  0  0  0  0999 V2000
    5.1904   -2.3280    8.4694 C   0  0  0  0  0  0  0  0  0  0  0  0
    4.8672   -0.9817    8.1020 O   0  0  0  0  0  0  0  0  0  0  0  0
    3.6220   -0.6468    7.4455 C   0  0  1  0  0  0  0  0  0  0  0  0
    2.5054   -1.5164    8.0192 C   0  0  0  0  0  0  0  0  0  0  0  0
    1.1808   -1.2213    7.3474 C   0  0  0  0  0  0  0  0  0  0  0  0
    1.0638    0.2258    6.8041 C   0  0  1  0  0  0  0  0  0  0  0  0
   -0.4662    0.5534    7.2382 C   0  0  2  0  0  0  0  0  0  0  0  0
   -1.2897   -0.3090    6.4769 O   0  0  0  0  0  0  0  0  0  0  0  0
   -1.1359    1.9286    7.0962 C   0  0  0  0  0  0  0  0  0  0  0  0
   -1.6499    2.7000    8.0802 C   0  0  0  0  0  0  0  0  0  0  0  0
   -1.6700    2.3665    9.5737 C   0  0  0  0  0  0  0  0  0  0  0  0
   -2.1774    4.0897    7.7893 C   0  0  0  0  0  0  0  0  0  0  0  0
    2.4652    1.1073    6.8169 C   0  0  1  0  0  0  0  0  0  0  0  0
    1.6676    2.1267    6.3302 C   0  0  2  0  0  0  0  0  0  0  0  0
    1.6720    2.6579    7.8396 C   0  0  0  0  0  0  0  0  0  0  0  0
    2.5677    1.7663    8.8123 C   0  0  1  0  0  0  0  0  0  0  0  0
    1.8184    1.0591    9.9532 C   0  0  0  0  0  0  0  0  0  0  0  0
    3.4374    0.9288    7.8348 C   0  0  1  0  0  0  0  0  0  0  0  0
    4.7722    1.7272    7.6681 C   0  0  0  0  0  0  0  0  0  0  0  0
    1.4186    0.6657    5.4264 C   0  0  2  0  0  0  0  0  0  0  0  0
    0.3329    0.8072    4.5410 O   0  0  0  0  0  0  0  0  0  0  0  0
    2.6372   -0.3352    4.7026 C   0  0  2  0  0  0  0  0  0  0  0  0
    3.5450    0.5926    3.8001 C   0  0  0  0  0  0  0  0  0  0  0  0
    3.3361    1.7930    3.7108 O   0  0  0  0  0  0  0  0  0  0  0  0
    4.6377   -0.0101    3.0355 C   0  0  0  0  0  0  0  0  0  0  0  0
    4.2180   -0.8904    2.1266 C   0  0  0  0  0  0  0  0  0  0  0  0
    2.9921   -0.7862    1.2451 C   0  0  1  0  0  0  0  0  0  0  0  0
    3.2124   -1.9696    0.2659 C   0  0  1  0  0  0  0  0  0  0  0  0
    4.1332   -1.6190   -0.9204 C   0  0  0  0  0  0  0  0  0  0  0  0
    3.8255   -3.0745    1.1531 C   0  0  0  0  0  0  0  0  0  0  0  0
    4.1865   -2.3476    2.4647 C   0  0  1  0  0  0  0  0  0  0  0  0
    5.4173   -2.8125    2.9656 O   0  0  0  0  0  0  0  0  0  0  0  0
    3.1299   -2.5388    3.3929 O   0  0  0  0  0  0  0  0  0  0  0  0
    2.1199   -1.4902    3.6394 C   0  0  1  0  0  0  0  0  0  0  0  0
    0.9707   -2.3955    4.1425 C   0  0  0  0  0  0  0  0  0  0  0  0
    1.7546   -1.0374    2.1482 C   0  0  1  0  0  0  0  0  0  0  0  0
    0.8961    0.0738    2.0132 O   0  0  0  0  0  0  0  0  0  0  0  0
    3.6747   -0.9934    5.8359 C   0  0  0  0  0  0  0  0  0  0  0  0
    4.5912   -1.7412    5.4663 O   0  0  0  0  0  0  0  0  0  0  0  0
    6.1957   -2.3609    8.8855 H   0  0  0  0  0  0  0  0  0  0  0  0
    5.1744   -3.0003    7.6128 H   0  0  0  0  0  0  0  0  0  0  0  0
    4.5134   -2.7180    9.2411 H   0  0  0  0  0  0  0  0  0  0  0  0
    2.6841   -2.5774    7.8516 H   0  0  0  0  0  0  0  0  0  0  0  0
    2.4508   -1.3679    9.0938 H   0  0  0  0  0  0  0  0  0  0  0  0
    1.0335   -1.9435    6.5598 H   0  0  0  0  0  0  0  0  0  0  0  0
    0.4106   -1.5032    8.0634 H   0  0  0  0  0  0  0  0  0  0  0  0
   -0.6433    0.2521    8.2627 H   0  0  0  0  0  0  0  0  0  0  0  0
   -1.1432   -0.1006    5.5713 H   0  0  0  0  0  0  0  0  0  0  0  0
   -1.1876    2.2909    6.0778 H   0  0  0  0  0  0  0  0  0  0  0  0
   -2.6468    2.5613   10.0074 H   0  0  0  0  0  0  0  0  0  0  0  0
   -0.9588    3.0149   10.0842 H   0  0  0  0  0  0  0  0  0  0  0  0
   -1.3915    1.3441    9.8176 H   0  0  0  0  0  0  0  0  0  0  0  0
   -3.2058    4.2141    8.1150 H   0  0  0  0  0  0  0  0  0  0  0  0
   -2.1053    4.2989    6.7254 H   0  0  0  0  0  0  0  0  0  0  0  0
   -1.5701    4.8251    8.3180 H   0  0  0  0  0  0  0  0  0  0  0  0
    3.2273    1.3860    6.0841 H   0  0  0  0  0  0  0  0  0  0  0  0
    2.1165    2.8767    5.6690 H   0  0  0  0  0  0  0  0  0  0  0  0
    2.1243    3.6540    7.8265 H   0  0  0  0  0  0  0  0  0  0  0  0
    0.7573    2.8042    8.3492 H   0  0  0  0  0  0  0  0  0  0  0  0
    3.2180    2.4620    9.3515 H   0  0  0  0  0  0  0  0  0  0  0  0
    1.0996    0.3121    9.6184 H   0  0  0  0  0  0  0  0  0  0  0  0
    1.2450    1.7866   10.5350 H   0  0  0  0  0  0  0  0  0  0  0  0
    2.5133    0.5799   10.6461 H   0  0  0  0  0  0  0  0  0  0  0  0
    4.5694    2.7882    7.4794 H   0  0  0  0  0  0  0  0  0  0  0  0
    5.4000    1.3528    6.8488 H   0  0  0  0  0  0  0  0  0  0  0  0
    5.3539    1.6734    8.5990 H   0  0  0  0  0  0  0  0  0  0  0  0
    0.6736    1.1671    3.7335 H   0  0  0  0  0  0  0  0  0  0  0  0
    5.4767   -0.2964    3.6483 H   0  0  0  0  0  0  0  0  0  0  0  0
    2.9656    0.1635    0.7246 H   0  0  0  0  0  0  0  0  0  0  0  0
    2.2772   -2.3369   -0.1570 H   0  0  0  0  0  0  0  0  0  0  0  0
    5.1084   -1.2740   -0.5754 H   0  0  0  0  0  0  0  0  0  0  0  0
    3.7026   -0.8280   -1.5318 H   0  0  0  0  0  0  0  0  0  0  0  0
    4.3038   -2.4792   -1.5699 H   0  0  0  0  0  0  0  0  0  0  0  0
    3.1212   -3.8829    1.3536 H   0  0  0  0  0  0  0  0  0  0  0  0
    4.7200   -3.5052    0.6949 H   0  0  0  0  0  0  0  0  0  0  0  0
    5.5306   -2.3933    3.8036 H   0  0  0  0  0  0  0  0  0  0  0  0
    0.1310   -1.8278    4.5382 H   0  0  0  0  0  0  0  0  0  0  0  0
    1.3458   -3.0902    4.8918 H   0  0  0  0  0  0  0  0  0  0  0  0
    0.5792   -3.0363    3.3478 H   0  0  0  0  0  0  0  0  0  0  0  0
    1.1841   -1.8347    1.6740 H   0  0  0  0  0  0  0  0  0  0  0  0
    0.6586    0.1469    1.0891 H   0  0  0  0  0  0  0  0  0  0  0  0
  1  2  1  0
  1 40  1  0
  1 41  1  0
  1 42  1  0
  3  2  1  1
  3 18  1  0
  3 38  1  0
  3  4  1  0
  4  5  1  0
  4 43  1  0
  4 44  1  0
  6  5  1  6
  5 45  1  0
  5 46  1  0
  6 20  1  0
  6  7  1  0
  6 13  1  0
  7  8  1  0
  7  9  1  0
  7 47  1  1
  8 48  1  0
  9 10  2  3
  9 49  1  0
 10 11  1  0
 10 12  1  0
 11 50  1  0
 11 51  1  0
 11 52  1  0
 12 53  1  0
 12 54  1  0
 12 55  1  0
 13 18  1  0
 13 14  1  0
 13 56  1  6
 14 15  1  0
 14 20  1  0
 14 57  1  6
 15 16  1  0
 15 58  1  0
 15 59  1  0
 16 17  1  0
 16 18  1  0
 16 60  1  1
 17 61  1  0
 17 62  1  0
 17 63  1  0
 18 19  1  6
 19 64  1  0
 19 65  1  0
 19 66  1  0
 20 21  1  6
 20 22  1  0
 21 67  1  0
 22 34  1  0
 22 23  1  6
 22 38  1  0
 23 24  2  0
 23 25  1  0
 25 26  2  0
 25 68  1  0
 26 31  1  0
 26 27  1  0
 27 36  1  0
 27 28  1  0
 27 69  1  6
 28 29  1  0
 28 30  1  0
 28 70  1  6
 29 71  1  0
 29 72  1  0
 29 73  1  0
 30 31  1  0
 30 74  1  0
 30 75  1  0
 31 32  1  1
 31 33  1  0
 32 76  1  0
 33 34  1  0
 34 35  1  1
 34 36  1  0
 35 77  1  0
 35 78  1  0
 35 79  1  0
 36 37  1  0
 36 80  1  6
 37 81  1  0
 38 39  2  0
M  END
>  <i_m_ct_stereo_status>  (156) 
1

>  <s_m_source_file>  (156) 
/var/tmp/pbs.5076255.sched01/tmpr6ewtwjb/42o4phu6d4.sdf

>  <i_m_source_file_index>  (156) 
38

>  <i_lp_mmshare_version>  (156) 
48012

>  <i_f3d_flags>  (156) 
0

>  <s_epik_input>  (156) 
W0NIM11PW0NAQF0oQzE9TykoW0NIMl1bQ0gyXTIpW0NAXTMoW0NIM10pW0NASF0oW0NIM10pW0NIMl1bQ0BIXTRbQ0BASF0zW0NAQF0yKFtDQEhdKFtPSF0pW0NIXT1DKFtDSDNdKVtDSDNdKVtDQF00KFtPSF0pW0NAXTE1W0NAXTYoW0NIM10pT1tDQF03KFtPSF0pQyg9W0NIXUM1PU8pW0NAQEhdKFtDQEBIXShbQ0gzXSlbQ0gyXTcpW0NAQEhdNltPSF0=

>  <s_epik_cmdline>  (156) 
J2VwaWtfcHl0aG9uJywgJy1waHQnLCAnMi4wJywgJy1waCcsICc3LjAnLCAnLXRuJywgJzgnLCAnLW1hJywgJzIwMCcsICctaW1hZScsICc8aW5maWxlLm1hZT4nLCAnLW9tYWUnLCAnPG91dGZpbGUubWFlPic=

>  <r_lp_tautomer_probability>  (156) 
1

>  <r_epik_Ionization_Penalty>  (156) 
2.96038e-05

>  <r_epik_Ionization_Penalty_Charging>  (156) 
0

>  <r_epik_Ionization_Penalty_Neutral>  (156) 
2.96038e-05

>  <r_epik_State_Penalty>  (156) 
-0

>  <r_epik_Charging_Adjusted_Penalty>  (156) 
0

>  <i_epik_Tot_Q>  (156) 
0

>  <i_epik_Tot_abs_Q>  (156) 
0

>  <s_lp_Force_Field>  (156) 
OPLS3e

>  <r_lp_Energy>  (156) 
362.289

>  <b_lp_Chiralities_Consistent>  (156) 
1

>  <s_lp_Variant>  (156) 
53:0-1

>  <s_i_glide_gridfile>  (156) 
pfpi4k_grid

>  <i_i_glide_lignum>  (156) 
38

>  <i_i_glide_rotatable_bonds>  (156) 
7

>  <r_i_docking_score>  (156) 
-3.11977

>  <r_i_glide_ligand_efficiency>  (156) 
-0.0799942

>  <r_i_glide_ligand_efficiency_sa>  (156) 
-0.271277

>  <r_i_glide_ligand_efficiency_ln>  (156) 
-0.668968

>  <r_i_glide_gscore>  (156) 
-3.11977

>  <r_i_glide_lipo>  (156) 
-0.152028

>  <r_i_glide_hbond>  (156) 
0

>  <r_i_glide_metal>  (156) 
-0

>  <r_i_glide_rewards>  (156) 
-1.50643

>  <r_i_glide_evdw>  (156) 
-17.2495

>  <r_i_glide_ecoul>  (156) 
-4.90865

>  <r_i_glide_erotb>  (156) 
0.140503

>  <r_i_glide_esite>  (156) 
-0.00304639

>  <r_i_glide_emodel>  (156) 
-37.877

>  <r_i_glide_energy>  (156) 
-22.1582

>  <r_i_glide_einternal>  (156) 
8.64705

>  <r_i_glide_intrahb_reward>  (156) 
-1.5

>  <i_i_glide_confnum>  (156) 
1

>  <i_i_glide_posenum>  (156) 
17

>  <r_i_glide_eff_state_penalty>  (156) 
0

>  <ligand_id>  (156) 
53

>  <original_smiles>  (156) 
COC12CCC3(C(O)C=C(C)C)C4C(CC(C)C41C)C3(O)C1(C(=O)C=C3C4C(C)CC3(O)OC1(C)C4O)C2=O

>  <smiles>  (156) 
[H]OC([H])(C([H])=C(C([H])([H])[H])C([H])([H])[H])C12C([H])([H])C([H])([H])C3(OC([H])([H])[H])C(=O)C4(C(=O)C([H])=C5C6(O[H])OC4(C([H])([H])[H])C([H])(O[H])C5([H])C([H])(C([H])([H])[H])C6([H])[H])C1(O[H])C1([H])C([H])([H])C([H])(C([H])([H])[H])C3(C([H])([H])[H])C12[H]

$$$$
53:0:1
     RDKit          3D

 81 87  0  0  1  0  0  0  0  0999 V2000
    6.8177   -1.8443    7.6306 C   0  0  0  0  0  0  0  0  0  0  0  0
    6.1305   -0.6115    7.3932 O   0  0  0  0  0  0  0  0  0  0  0  0
    4.7260   -0.5810    7.0346 C   0  0  1  0  0  0  0  0  0  0  0  0
    3.9920   -1.6390    7.8436 C   0  0  0  0  0  0  0  0  0  0  0  0
    2.5303   -1.6525    7.5080 C   0  0  0  0  0  0  0  0  0  0  0  0
    1.9599   -0.3045    7.0034 C   0  0  1  0  0  0  0  0  0  0  0  0
    0.5467   -0.2876    7.8174 C   0  0  2  0  0  0  0  0  0  0  0  0
   -0.1086   -1.5102    7.5301 O   0  0  0  0  0  0  0  0  0  0  0  0
   -0.5357    0.7856    7.5765 C   0  0  0  0  0  0  0  0  0  0  0  0
   -1.1105    1.6310    8.4632 C   0  0  0  0  0  0  0  0  0  0  0  0
   -0.7780    1.7294    9.9458 C   0  0  0  0  0  0  0  0  0  0  0  0
   -2.1478    2.6495    8.0171 C   0  0  0  0  0  0  0  0  0  0  0  0
    3.1063    0.8682    6.6974 C   0  0  1  0  0  0  0  0  0  0  0  0
    2.0150    1.6596    6.4315 C   0  0  2  0  0  0  0  0  0  0  0  0
    2.2009    2.2070    7.9095 C   0  0  0  0  0  0  0  0  0  0  0  0
    3.4786    1.5903    8.6350 C   0  0  1  0  0  0  0  0  0  0  0  0
    3.2105    0.8016    9.9312 C   0  0  0  0  0  0  0  0  0  0  0  0
    4.2897    0.9328    7.4802 C   0  0  1  0  0  0  0  0  0  0  0  0
    5.3484    1.9936    7.0298 C   0  0  0  0  0  0  0  0  0  0  0  0
    1.9061    0.1475    5.5994 C   0  0  2  0  0  0  0  0  0  0  0  0
    0.6538   -0.0229    4.9854 O   0  0  0  0  0  0  0  0  0  0  0  0
    3.0972   -0.5778    4.5935 C   0  0  2  0  0  0  0  0  0  0  0  0
    3.5372    0.4918    3.5202 C   0  0  0  0  0  0  0  0  0  0  0  0
    3.0189    1.5978    3.4767 O   0  0  0  0  0  0  0  0  0  0  0  0
    4.5468    0.1076    2.5335 C   0  0  0  0  0  0  0  0  0  0  0  0
    4.1259   -0.8803    1.7265 C   0  0  0  0  0  0  0  0  0  0  0  0
    2.7546   -1.0639    1.1512 C   0  0  1  0  0  0  0  0  0  0  0  0
    2.9774   -2.2126    0.1298 C   0  0  1  0  0  0  0  0  0  0  0  0
    3.5117   -1.7268   -1.2334 C   0  0  0  0  0  0  0  0  0  0  0  0
    3.9874   -3.1317    0.8364 C   0  0  0  0  0  0  0  0  0  0  0  0
    4.4782   -2.2912    2.0266 C   0  0  1  0  0  0  0  0  0  0  0  0
    5.8609   -2.4376    2.1962 O   0  0  0  0  0  0  0  0  0  0  0  0
    3.7462   -2.6731    3.1729 O   0  0  0  0  0  0  0  0  0  0  0  0
    2.6151   -1.8530    3.6675 C   0  0  1  0  0  0  0  0  0  0  0  0
    1.8201   -2.9561    4.4170 C   0  0  0  0  0  0  0  0  0  0  0  0
    1.8334   -1.5234    2.3103 C   0  0  1  0  0  0  0  0  0  0  0  0
    0.8347   -0.5319    2.3723 O   0  0  0  0  0  0  0  0  0  0  0  0
    4.4753   -0.9653    5.4553 C   0  0  0  0  0  0  0  0  0  0  0  0
    5.4055   -1.5469    4.8817 O   0  0  0  0  0  0  0  0  0  0  0  0
    7.8792   -1.6423    7.7823 H   0  0  0  0  0  0  0  0  0  0  0  0
    6.7452   -2.5310    6.7878 H   0  0  0  0  0  0  0  0  0  0  0  0
    6.4711   -2.3562    8.5372 H   0  0  0  0  0  0  0  0  0  0  0  0
    4.3216   -2.6488    7.6144 H   0  0  0  0  0  0  0  0  0  0  0  0
    4.1583   -1.4691    8.9048 H   0  0  0  0  0  0  0  0  0  0  0  0
    2.3542   -2.4282    6.7849 H   0  0  0  0  0  0  0  0  0  0  0  0
    2.0644   -2.0338    8.4157 H   0  0  0  0  0  0  0  0  0  0  0  0
    0.7455   -0.3131    8.8853 H   0  0  0  0  0  0  0  0  0  0  0  0
    0.0587   -1.7069    6.6176 H   0  0  0  0  0  0  0  0  0  0  0  0
   -0.8944    0.8524    6.5602 H   0  0  0  0  0  0  0  0  0  0  0  0
   -1.6796    1.7410   10.5548 H   0  0  0  0  0  0  0  0  0  0  0  0
   -0.2552    2.6693   10.1365 H   0  0  0  0  0  0  0  0  0  0  0  0
   -0.1436    0.9248   10.3131 H   0  0  0  0  0  0  0  0  0  0  0  0
   -3.0667    2.5372    8.5871 H   0  0  0  0  0  0  0  0  0  0  0  0
   -2.3815    2.5661    6.9580 H   0  0  0  0  0  0  0  0  0  0  0  0
   -1.7700    3.6559    8.1981 H   0  0  0  0  0  0  0  0  0  0  0  0
    3.5955    1.2915    5.8080 H   0  0  0  0  0  0  0  0  0  0  0  0
    2.1127    2.4776    5.7161 H   0  0  0  0  0  0  0  0  0  0  0  0
    2.3558    3.2786    7.8535 H   0  0  0  0  0  0  0  0  0  0  0  0
    1.3608    2.1119    8.5723 H   0  0  0  0  0  0  0  0  0  0  0  0
    4.0441    2.4447    9.0094 H   0  0  0  0  0  0  0  0  0  0  0  0
    2.6421   -0.1109    9.7799 H   0  0  0  0  0  0  0  0  0  0  0  0
    2.6402    1.4090   10.6389 H   0  0  0  0  0  0  0  0  0  0  0  0
    4.1497    0.5296   10.4231 H   0  0  0  0  0  0  0  0  0  0  0  0
    4.8861    2.9800    6.9037 H   0  0  0  0  0  0  0  0  0  0  0  0
    5.8316    1.7241    6.0840 H   0  0  0  0  0  0  0  0  0  0  0  0
    6.1266    2.0901    7.7981 H   0  0  0  0  0  0  0  0  0  0  0  0
    0.7098    0.3820    4.1377 H   0  0  0  0  0  0  0  0  0  0  0  0
    5.5454    0.0200    2.9376 H   0  0  0  0  0  0  0  0  0  0  0  0
    2.4217   -0.1505    0.6617 H   0  0  0  0  0  0  0  0  0  0  0  0
    2.0571   -2.7701   -0.0724 H   0  0  0  0  0  0  0  0  0  0  0  0
    4.4431   -1.1734   -1.1155 H   0  0  0  0  0  0  0  0  0  0  0  0
    2.8074   -1.0662   -1.7351 H   0  0  0  0  0  0  0  0  0  0  0  0
    3.7064   -2.5616   -1.9121 H   0  0  0  0  0  0  0  0  0  0  0  0
    3.5343   -4.0644    1.1841 H   0  0  0  0  0  0  0  0  0  0  0  0
    4.8227   -3.3819    0.1786 H   0  0  0  0  0  0  0  0  0  0  0  0
    6.0744   -2.0098    3.0122 H   0  0  0  0  0  0  0  0  0  0  0  0
    0.9911   -2.5702    5.0062 H   0  0  0  0  0  0  0  0  0  0  0  0
    2.4964   -3.5271    5.0507 H   0  0  0  0  0  0  0  0  0  0  0  0
    1.4010   -3.6948    3.7290 H   0  0  0  0  0  0  0  0  0  0  0  0
    1.3366   -2.4293    1.9751 H   0  0  0  0  0  0  0  0  0  0  0  0
    0.5913   -0.3242    1.4724 H   0  0  0  0  0  0  0  0  0  0  0  0
  1  2  1  0
  1 40  1  0
  1 41  1  0
  1 42  1  0
  3  2  1  1
  3 18  1  0
  3 38  1  0
  3  4  1  0
  4  5  1  0
  4 43  1  0
  4 44  1  0
  6  5  1  6
  5 45  1  0
  5 46  1  0
  6 20  1  0
  6  7  1  0
  6 13  1  0
  7  8  1  0
  7  9  1  0
  7 47  1  1
  8 48  1  0
  9 10  2  3
  9 49  1  0
 10 11  1  0
 10 12  1  0
 11 50  1  0
 11 51  1  0
 11 52  1  0
 12 53  1  0
 12 54  1  0
 12 55  1  0
 13 18  1  0
 13 14  1  0
 13 56  1  6
 14 15  1  0
 14 20  1  0
 14 57  1  6
 15 16  1  0
 15 58  1  0
 15 59  1  0
 16 17  1  0
 16 18  1  0
 16 60  1  1
 17 61  1  0
 17 62  1  0
 17 63  1  0
 18 19  1  6
 19 64  1  0
 19 65  1  0
 19 66  1  0
 20 21  1  6
 20 22  1  0
 21 67  1  0
 22 34  1  0
 22 23  1  6
 22 38  1  0
 23 24  2  0
 23 25  1  0
 25 26  2  0
 25 68  1  0
 26 31  1  0
 26 27  1  0
 27 36  1  0
 27 28  1  0
 27 69  1  6
 28 29  1  0
 28 30  1  0
 28 70  1  6
 29 71  1  0
 29 72  1  0
 29 73  1  0
 30 31  1  0
 30 74  1  0
 30 75  1  0
 31 32  1  1
 31 33  1  0
 32 76  1  0
 33 34  1  0
 34 35  1  1
 34 36  1  0
 35 77  1  0
 35 78  1  0
 35 79  1  0
 36 37  1  0
 36 80  1  6
 37 81  1  0
 38 39  2  0
M  END
>  <i_m_ct_stereo_status>  (157) 
1

>  <s_m_source_file>  (157) 
/var/tmp/pbs.5076255.sched01/tmpr6ewtwjb/42o4phu6d4.sdf

>  <i_m_source_file_index>  (157) 
38

>  <i_lp_mmshare_version>  (157) 
48012

>  <i_f3d_flags>  (157) 
0

>  <s_epik_input>  (157) 
W0NIM11PW0NAQF0oQzE9TykoW0NIMl1bQ0gyXTIpW0NAXTMoW0NIM10pW0NASF0oW0NIM10pW0NIMl1bQ0BIXTRbQ0BASF0zW0NAQF0yKFtDQEhdKFtPSF0pW0NIXT1DKFtDSDNdKVtDSDNdKVtDQF00KFtPSF0pW0NAXTE1W0NAXTYoW0NIM10pT1tDQF03KFtPSF0pQyg9W0NIXUM1PU8pW0NAQEhdKFtDQEBIXShbQ0gzXSlbQ0gyXTcpW0NAQEhdNltPSF0=

>  <s_epik_cmdline>  (157) 
J2VwaWtfcHl0aG9uJywgJy1waHQnLCAnMi4wJywgJy1waCcsICc3LjAnLCAnLXRuJywgJzgnLCAnLW1hJywgJzIwMCcsICctaW1hZScsICc8aW5maWxlLm1hZT4nLCAnLW9tYWUnLCAnPG91dGZpbGUubWFlPic=

>  <r_lp_tautomer_probability>  (157) 
1

>  <r_epik_Ionization_Penalty>  (157) 
2.96038e-05

>  <r_epik_Ionization_Penalty_Charging>  (157) 
0

>  <r_epik_Ionization_Penalty_Neutral>  (157) 
2.96038e-05

>  <r_epik_State_Penalty>  (157) 
-0

>  <r_epik_Charging_Adjusted_Penalty>  (157) 
0

>  <i_epik_Tot_Q>  (157) 
0

>  <i_epik_Tot_abs_Q>  (157) 
0

>  <s_lp_Force_Field>  (157) 
OPLS3e

>  <r_lp_Energy>  (157) 
362.289

>  <b_lp_Chiralities_Consistent>  (157) 
1

>  <s_lp_Variant>  (157) 
53:0-1

>  <s_i_glide_gridfile>  (157) 
pfpi4k_grid

>  <i_i_glide_lignum>  (157) 
38

>  <i_i_glide_rotatable_bonds>  (157) 
7

>  <r_i_docking_score>  (157) 
-2.93465

>  <r_i_glide_ligand_efficiency>  (157) 
-0.0752473

>  <r_i_glide_ligand_efficiency_sa>  (157) 
-0.25518

>  <r_i_glide_ligand_efficiency_ln>  (157) 
-0.629271

>  <r_i_glide_gscore>  (157) 
-2.93465

>  <r_i_glide_lipo>  (157) 
-0.14938

>  <r_i_glide_hbond>  (157) 
0

>  <r_i_glide_metal>  (157) 
-0

>  <r_i_glide_rewards>  (157) 
-1.54394

>  <r_i_glide_evdw>  (157) 
-16.938

>  <r_i_glide_ecoul>  (157) 
-3.53864

>  <r_i_glide_erotb>  (157) 
0.140503

>  <r_i_glide_esite>  (157) 
-0.00412865

>  <r_i_glide_emodel>  (157) 
-35.5316

>  <r_i_glide_energy>  (157) 
-20.4767

>  <r_i_glide_einternal>  (157) 
9.37584

>  <r_i_glide_intrahb_reward>  (157) 
-1.5

>  <i_i_glide_confnum>  (157) 
1

>  <i_i_glide_posenum>  (157) 
21

>  <r_i_glide_eff_state_penalty>  (157) 
0

>  <ligand_id>  (157) 
53

>  <original_smiles>  (157) 
COC12CCC3(C(O)C=C(C)C)C4C(CC(C)C41C)C3(O)C1(C(=O)C=C3C4C(C)CC3(O)OC1(C)C4O)C2=O

>  <smiles>  (157) 
[H]OC([H])(C([H])=C(C([H])([H])[H])C([H])([H])[H])C12C([H])([H])C([H])([H])C3(OC([H])([H])[H])C(=O)C4(C(=O)C([H])=C5C6(O[H])OC4(C([H])([H])[H])C([H])(O[H])C5([H])C([H])(C([H])([H])[H])C6([H])[H])C1(O[H])C1([H])C([H])([H])C([H])(C([H])([H])[H])C3(C([H])([H])[H])C12[H]

$$$$
53:0:2
     RDKit          3D

 81 87  0  0  1  0  0  0  0  0999 V2000
    1.3870   -1.5923   10.6763 C   0  0  0  0  0  0  0  0  0  0  0  0
    0.7807   -1.0235    9.5121 O   0  0  0  0  0  0  0  0  0  0  0  0
    1.4874   -1.0894    8.2600 C   0  0  1  0  0  0  0  0  0  0  0  0
    2.8416   -0.4091    8.4364 C   0  0  0  0  0  0  0  0  0  0  0  0
    3.5430   -0.2797    7.0875 C   0  0  0  0  0  0  0  0  0  0  0  0
    3.1331   -1.3726    6.0524 C   0  0  1  0  0  0  0  0  0  0  0  0
    4.5949   -1.7295    5.4062 C   0  0  2  0  0  0  0  0  0  0  0  0
    5.1132   -0.5144    4.8922 O   0  0  0  0  0  0  0  0  0  0  0  0
    4.8012   -2.7644    4.2769 C   0  0  0  0  0  0  0  0  0  0  0  0
    5.4852   -3.9412    4.3042 C   0  0  0  0  0  0  0  0  0  0  0  0
    6.2061   -4.5330    5.5160 C   0  0  0  0  0  0  0  0  0  0  0  0
    5.5133   -4.8695    3.1009 C   0  0  0  0  0  0  0  0  0  0  0  0
    1.8377   -2.3075    6.5060 C   0  0  1  0  0  0  0  0  0  0  0  0
    2.0670   -2.9781    5.3216 C   0  0  2  0  0  0  0  0  0  0  0  0
    2.7704   -4.0551    6.2428 C   0  0  0  0  0  0  0  0  0  0  0  0
    2.7311   -3.7204    7.7901 C   0  0  1  0  0  0  0  0  0  0  0  0
    4.0846   -3.4603    8.4874 C   0  0  0  0  0  0  0  0  0  0  0  0
    1.6139   -2.6570    7.8609 C   0  0  1  0  0  0  0  0  0  0  0  0
    0.2999   -3.4357    8.1679 C   0  0  0  0  0  0  0  0  0  0  0  0
    2.0287   -1.2667    5.0541 C   0  0  2  0  0  0  0  0  0  0  0  0
    2.4422   -0.9381    3.7590 O   0  0  0  0  0  0  0  0  0  0  0  0
    0.7905   -0.1767    5.5484 C   0  0  2  0  0  0  0  0  0  0  0  0
   -0.5985   -0.7328    5.0464 C   0  0  0  0  0  0  0  0  0  0  0  0
   -0.6770   -1.8198    4.4707 O   0  0  0  0  0  0  0  0  0  0  0  0
   -1.8123    0.0427    5.3191 C   0  0  0  0  0  0  0  0  0  0  0  0
   -1.7949    1.2328    4.7283 C   0  0  0  0  0  0  0  0  0  0  0  0
   -1.2921    1.5730    3.3450 C   0  0  1  0  0  0  0  0  0  0  0  0
   -1.8080    3.0230    3.1713 C   0  0  1  0  0  0  0  0  0  0  0  0
   -3.2673    3.0933    2.6707 C   0  0  0  0  0  0  0  0  0  0  0  0
   -1.6509    3.6360    4.5749 C   0  0  0  0  0  0  0  0  0  0  0  0
   -1.3617    2.4373    5.4981 C   0  0  1  0  0  0  0  0  0  0  0  0
   -2.0677    2.5609    6.7174 O   0  0  0  0  0  0  0  0  0  0  0  0
    0.0426    2.3186    5.6655 O   0  0  0  0  0  0  0  0  0  0  0  0
    0.8330    1.3473    4.8956 C   0  0  1  0  0  0  0  0  0  0  0  0
    2.1992    2.0632    4.9768 C   0  0  0  0  0  0  0  0  0  0  0  0
    0.2577    1.5466    3.4100 C   0  0  1  0  0  0  0  0  0  0  0  0
    0.6926    0.6254    2.4349 O   0  0  0  0  0  0  0  0  0  0  0  0
    0.6559   -0.1145    7.2127 C   0  0  0  0  0  0  0  0  0  0  0  0
   -0.1649    0.6313    7.7328 O   0  0  0  0  0  0  0  0  0  0  0  0
    0.6450   -1.6176   11.4740 H   0  0  0  0  0  0  0  0  0  0  0  0
    2.2190   -0.9915   11.0406 H   0  0  0  0  0  0  0  0  0  0  0  0
    1.7376   -2.6156   10.5415 H   0  0  0  0  0  0  0  0  0  0  0  0
    2.7097    0.5783    8.8761 H   0  0  0  0  0  0  0  0  0  0  0  0
    3.4753   -0.9571    9.1296 H   0  0  0  0  0  0  0  0  0  0  0  0
    3.3714    0.7134    6.7036 H   0  0  0  0  0  0  0  0  0  0  0  0
    4.6126   -0.2560    7.3067 H   0  0  0  0  0  0  0  0  0  0  0  0
    5.3077   -1.9850    6.1862 H   0  0  0  0  0  0  0  0  0  0  0  0
    4.5432   -0.2368    4.1864 H   0  0  0  0  0  0  0  0  0  0  0  0
    4.3378   -2.4928    3.3384 H   0  0  0  0  0  0  0  0  0  0  0  0
    7.2056   -4.8878    5.2846 H   0  0  0  0  0  0  0  0  0  0  0  0
    5.6542   -5.4074    5.8782 H   0  0  0  0  0  0  0  0  0  0  0  0
    6.2772   -3.8408    6.3554 H   0  0  0  0  0  0  0  0  0  0  0  0
    6.5376   -5.1131    2.8292 H   0  0  0  0  0  0  0  0  0  0  0  0
    5.0113   -4.4408    2.2401 H   0  0  0  0  0  0  0  0  0  0  0  0
    5.0080   -5.8021    3.3543 H   0  0  0  0  0  0  0  0  0  0  0  0
    0.7685   -2.3575    6.2685 H   0  0  0  0  0  0  0  0  0  0  0  0
    1.2195   -3.4251    4.7895 H   0  0  0  0  0  0  0  0  0  0  0  0
    2.3103   -5.0252    6.0708 H   0  0  0  0  0  0  0  0  0  0  0  0
    3.7883   -4.2139    6.0645 H   0  0  0  0  0  0  0  0  0  0  0  0
    2.3889   -4.6354    8.2826 H   0  0  0  0  0  0  0  0  0  0  0  0
    4.6122   -2.5781    8.1339 H   0  0  0  0  0  0  0  0  0  0  0  0
    4.7635   -4.3014    8.3348 H   0  0  0  0  0  0  0  0  0  0  0  0
    3.9572   -3.3584    9.5654 H   0  0  0  0  0  0  0  0  0  0  0  0
    0.1974   -4.3128    7.5212 H   0  0  0  0  0  0  0  0  0  0  0  0
   -0.5897   -2.8139    8.0488 H   0  0  0  0  0  0  0  0  0  0  0  0
    0.3167   -3.8115    9.1978 H   0  0  0  0  0  0  0  0  0  0  0  0
    1.6739   -0.9302    3.1995 H   0  0  0  0  0  0  0  0  0  0  0  0
   -2.1157    0.0224    6.3542 H   0  0  0  0  0  0  0  0  0  0  0  0
   -1.7047    0.9141    2.5882 H   0  0  0  0  0  0  0  0  0  0  0  0
   -1.1957    3.5969    2.4767 H   0  0  0  0  0  0  0  0  0  0  0  0
   -3.9376    2.5640    3.3478 H   0  0  0  0  0  0  0  0  0  0  0  0
   -3.3813    2.6318    1.6905 H   0  0  0  0  0  0  0  0  0  0  0  0
   -3.6274    4.1190    2.5914 H   0  0  0  0  0  0  0  0  0  0  0  0
   -0.8373    4.3565    4.6326 H   0  0  0  0  0  0  0  0  0  0  0  0
   -2.5793    4.1226    4.8936 H   0  0  0  0  0  0  0  0  0  0  0  0
   -1.7128    3.3123    7.1686 H   0  0  0  0  0  0  0  0  0  0  0  0
    3.0221    1.4606    4.5967 H   0  0  0  0  0  0  0  0  0  0  0  0
    2.4037    2.3801    5.9979 H   0  0  0  0  0  0  0  0  0  0  0  0
    2.1990    2.9917    4.4030 H   0  0  0  0  0  0  0  0  0  0  0  0
    0.6076    2.5104    3.0358 H   0  0  0  0  0  0  0  0  0  0  0  0
    0.4375    0.9517    1.5769 H   0  0  0  0  0  0  0  0  0  0  0  0
  1  2  1  0
  1 40  1  0
  1 41  1  0
  1 42  1  0
  3  2  1  1
  3 18  1  0
  3 38  1  0
  3  4  1  0
  4  5  1  0
  4 43  1  0
  4 44  1  0
  6  5  1  1
  5 45  1  0
  5 46  1  0
  6 20  1  0
  6  7  1  0
  6 13  1  0
  7  8  1  0
  7  9  1  0
  7 47  1  1
  8 48  1  0
  9 10  2  3
  9 49  1  0
 10 11  1  0
 10 12  1  0
 11 50  1  0
 11 51  1  0
 11 52  1  0
 12 53  1  0
 12 54  1  0
 12 55  1  0
 13 18  1  0
 13 14  1  0
 13 56  1  6
 14 15  1  0
 14 20  1  0
 14 57  1  6
 15 16  1  0
 15 58  1  0
 15 59  1  0
 16 17  1  0
 16 18  1  0
 16 60  1  1
 17 61  1  0
 17 62  1  0
 17 63  1  0
 18 19  1  6
 19 64  1  0
 19 65  1  0
 19 66  1  0
 20 21  1  6
 20 22  1  0
 21 67  1  0
 22 34  1  0
 22 23  1  6
 22 38  1  0
 23 24  2  0
 23 25  1  0
 25 26  2  0
 25 68  1  0
 26 31  1  0
 26 27  1  0
 27 36  1  0
 27 28  1  0
 27 69  1  6
 28 29  1  0
 28 30  1  0
 28 70  1  6
 29 71  1  0
 29 72  1  0
 29 73  1  0
 30 31  1  0
 30 74  1  0
 30 75  1  0
 31 32  1  1
 31 33  1  0
 32 76  1  0
 33 34  1  0
 34 35  1  6
 34 36  1  0
 35 77  1  0
 35 78  1  0
 35 79  1  0
 36 37  1  0
 36 80  1  6
 37 81  1  0
 38 39  2  0
M  END
>  <i_m_ct_stereo_status>  (158) 
1

>  <s_m_source_file>  (158) 
/var/tmp/pbs.5076255.sched01/tmpr6ewtwjb/42o4phu6d4.sdf

>  <i_m_source_file_index>  (158) 
38

>  <i_lp_mmshare_version>  (158) 
48012

>  <i_f3d_flags>  (158) 
0

>  <s_epik_input>  (158) 
W0NIM11PW0NAQF0oQzE9TykoW0NIMl1bQ0gyXTIpW0NAXTMoW0NIM10pW0NASF0oW0NIM10pW0NIMl1bQ0BIXTRbQ0BASF0zW0NAQF0yKFtDQEhdKFtPSF0pW0NIXT1DKFtDSDNdKVtDSDNdKVtDQF00KFtPSF0pW0NAXTE1W0NAXTYoW0NIM10pT1tDQF03KFtPSF0pQyg9W0NIXUM1PU8pW0NAQEhdKFtDQEBIXShbQ0gzXSlbQ0gyXTcpW0NAQEhdNltPSF0=

>  <s_epik_cmdline>  (158) 
J2VwaWtfcHl0aG9uJywgJy1waHQnLCAnMi4wJywgJy1waCcsICc3LjAnLCAnLXRuJywgJzgnLCAnLW1hJywgJzIwMCcsICctaW1hZScsICc8aW5maWxlLm1hZT4nLCAnLW9tYWUnLCAnPG91dGZpbGUubWFlPic=

>  <r_lp_tautomer_probability>  (158) 
1

>  <r_epik_Ionization_Penalty>  (158) 
2.96038e-05

>  <r_epik_Ionization_Penalty_Charging>  (158) 
0

>  <r_epik_Ionization_Penalty_Neutral>  (158) 
2.96038e-05

>  <r_epik_State_Penalty>  (158) 
-0

>  <r_epik_Charging_Adjusted_Penalty>  (158) 
0

>  <i_epik_Tot_Q>  (158) 
0

>  <i_epik_Tot_abs_Q>  (158) 
0

>  <s_lp_Force_Field>  (158) 
OPLS3e

>  <r_lp_Energy>  (158) 
362.289

>  <b_lp_Chiralities_Consistent>  (158) 
1

>  <s_lp_Variant>  (158) 
53:0-1

>  <s_i_glide_gridfile>  (158) 
pfpi4k_grid

>  <i_i_glide_lignum>  (158) 
38

>  <i_i_glide_rotatable_bonds>  (158) 
7

>  <r_i_docking_score>  (158) 
-2.1169

>  <r_i_glide_ligand_efficiency>  (158) 
-0.0542794

>  <r_i_glide_ligand_efficiency_sa>  (158) 
-0.184073

>  <r_i_glide_ligand_efficiency_ln>  (158) 
-0.453923

>  <r_i_glide_gscore>  (158) 
-2.1169

>  <r_i_glide_lipo>  (158) 
-0.0722401

>  <r_i_glide_hbond>  (158) 
0

>  <r_i_glide_metal>  (158) 
-0

>  <r_i_glide_rewards>  (158) 
-1.00788

>  <r_i_glide_evdw>  (158) 
-23.1173

>  <r_i_glide_ecoul>  (158) 
0.141726

>  <r_i_glide_erotb>  (158) 
0.140503

>  <r_i_glide_esite>  (158) 
-0.0426753

>  <r_i_glide_emodel>  (158) 
-34.3711

>  <r_i_glide_energy>  (158) 
-22.9756

>  <r_i_glide_einternal>  (158) 
2.82669

>  <r_i_glide_intrahb_reward>  (158) 
-1

>  <i_i_glide_confnum>  (158) 
1

>  <i_i_glide_posenum>  (158) 
2

>  <r_i_glide_eff_state_penalty>  (158) 
0

>  <ligand_id>  (158) 
53

>  <original_smiles>  (158) 
COC12CCC3(C(O)C=C(C)C)C4C(CC(C)C41C)C3(O)C1(C(=O)C=C3C4C(C)CC3(O)OC1(C)C4O)C2=O

>  <smiles>  (158) 
[H]OC([H])(C([H])=C(C([H])([H])[H])C([H])([H])[H])C12C([H])([H])C([H])([H])C3(OC([H])([H])[H])C(=O)C4(C(=O)C([H])=C5C6(O[H])OC4(C([H])([H])[H])C([H])(O[H])C5([H])C([H])(C([H])([H])[H])C6([H])[H])C1(O[H])C1([H])C([H])([H])C([H])(C([H])([H])[H])C3(C([H])([H])[H])C12[H]

$$$$
54:0:0
     RDKit          3D

 44 47  0  0  1  0  0  0  0  0999 V2000
   -0.3699   -2.4569    5.2719 C   0  0  0  0  0  0  0  0  0  0  0  0
    0.4806   -1.2332    5.0091 C   0  0  0  0  0  0  0  0  0  0  0  0
    1.8349   -1.2779    4.9552 C   0  0  0  0  0  0  0  0  0  0  0  0
    2.6090   -0.0613    4.6896 C   0  0  0  0  0  0  0  0  0  0  0  0
    3.7619   -0.0259    4.2742 O   0  0  0  0  0  0  0  0  0  0  0  0
    1.8942    1.1294    4.8800 N   0  0  0  0  0  0  0  0  0  0  0  0
    2.0197    2.4657    4.3231 C   0  0  1  0  0  0  0  0  0  0  0  0
    2.2062    2.5747    2.7965 C   0  0  0  0  0  0  0  0  0  0  0  0
    2.2591    3.9368    2.4184 O   0  0  0  0  0  0  0  0  0  0  0  0
    0.6175    2.7094    4.9716 C   0  0  1  0  0  0  0  0  0  0  0  0
   -0.5150    3.4078    4.2384 C   0  0  0  0  0  0  0  0  0  0  0  0
   -0.2967    4.6953    3.7090 C   0  0  0  0  0  0  0  0  0  0  0  0
   -1.2891    5.3234    2.9491 C   0  0  0  0  0  0  0  0  0  0  0  0
   -2.5695    4.7413    2.7849 C   0  0  0  0  0  0  0  0  0  0  0  0
   -3.6603    5.4760    2.0767 C   0  0  0  0  0  0  0  0  0  0  0  0
   -5.0013    5.0207    2.0637 C   0  0  0  0  0  0  0  0  0  0  0  0
   -5.9847    5.7524    1.3654 C   0  0  0  0  0  0  0  0  0  0  0  0
   -5.7305    6.8834    0.6851 N   0  0  0  0  0  0  0  0  0  0  0  0
   -4.4601    7.3307    0.6775 C   0  0  0  0  0  0  0  0  0  0  0  0
   -3.4136    6.6758    1.3561 C   0  0  0  0  0  0  0  0  0  0  0  0
   -2.7782    3.4578    3.3482 C   0  0  0  0  0  0  0  0  0  0  0  0
   -1.7817    2.8132    4.0811 C   0  0  0  0  0  0  0  0  0  0  0  0
    0.5659    1.2210    5.4170 C   0  0  1  0  0  0  0  0  0  0  0  0
   -0.2609    0.0808    4.7955 C   0  0  0  0  0  0  0  0  0  0  0  0
   -1.0106   -2.3362    6.1500 H   0  0  0  0  0  0  0  0  0  0  0  0
    0.2454   -3.3463    5.4031 H   0  0  0  0  0  0  0  0  0  0  0  0
   -0.9909   -2.6172    4.3966 H   0  0  0  0  0  0  0  0  0  0  0  0
    2.3407   -2.2171    5.1383 H   0  0  0  0  0  0  0  0  0  0  0  0
    2.8087    2.9749    4.8792 H   0  0  0  0  0  0  0  0  0  0  0  0
    3.1458    2.1266    2.4680 H   0  0  0  0  0  0  0  0  0  0  0  0
    1.3937    2.0960    2.2470 H   0  0  0  0  0  0  0  0  0  0  0  0
    1.5325    4.1389    1.8243 H   0  0  0  0  0  0  0  0  0  0  0  0
    0.7837    3.3081    5.8709 H   0  0  0  0  0  0  0  0  0  0  0  0
    0.6516    5.1970    3.8511 H   0  0  0  0  0  0  0  0  0  0  0  0
   -1.0196    6.2881    2.5494 H   0  0  0  0  0  0  0  0  0  0  0  0
   -5.3247    4.1244    2.5594 H   0  0  0  0  0  0  0  0  0  0  0  0
   -7.0033    5.3966    1.3590 H   0  0  0  0  0  0  0  0  0  0  0  0
   -4.2676    8.2296    0.1189 H   0  0  0  0  0  0  0  0  0  0  0  0
   -2.4341    7.1196    1.2649 H   0  0  0  0  0  0  0  0  0  0  0  0
   -3.7253    2.9481    3.2877 H   0  0  0  0  0  0  0  0  0  0  0  0
   -2.0249    1.8558    4.5082 H   0  0  0  0  0  0  0  0  0  0  0  0
    0.6442    1.1459    6.5009 H   0  0  0  0  0  0  0  0  0  0  0  0
   -0.4242    0.2213    3.7217 H   0  0  0  0  0  0  0  0  0  0  0  0
   -1.2367    0.0188    5.2713 H   0  0  0  0  0  0  0  0  0  0  0  0
  1  2  1  0
  1 25  1  0
  1 26  1  0
  1 27  1  0
  2 24  1  0
  2  3  2  0
  3  4  1  0
  3 28  1  0
  4  5  2  0
  4  6  1  0
  6 23  1  0
  6  7  1  0
  7  8  1  0
  7 10  1  0
  7 29  1  1
  8  9  1  0
  8 30  1  0
  8 31  1  0
  9 32  1  0
 10 11  1  0
 10 23  1  0
 10 33  1  1
 11 22  1  0
 11 12  2  0
 12 13  1  0
 12 34  1  0
 13 14  2  0
 13 35  1  0
 14 15  1  0
 14 21  1  0
 15 20  1  0
 15 16  2  0
 16 17  1  0
 16 36  1  0
 17 18  2  0
 17 37  1  0
 18 19  1  0
 19 20  2  0
 19 38  1  0
 20 39  1  0
 21 22  2  0
 21 40  1  0
 22 41  1  0
 23 24  1  0
 23 42  1  1
 24 43  1  0
 24 44  1  0
M  END
>  <i_m_ct_stereo_status>  (159) 
1

>  <s_m_source_file>  (159) 
/var/tmp/pbs.5076255.sched01/tmpr6ewtwjb/42o4phu6d4.sdf

>  <i_m_source_file_index>  (159) 
39

>  <i_lp_mmshare_version>  (159) 
48012

>  <i_f3d_flags>  (159) 
0

>  <s_epik_input>  (159) 
Tz1DMVtDSF09QyhbQ0gzXSlbQ0gyXVtDQEBIXShOMTIpW0NAQEhdKFtDQEBIXTJbQ0gyXVtPSF0pYzNbY0hdW2NIXWMoW2NIXVtjSF0zKS1jNFtjSF1bY0hdbltjSF1bY0hdNA==

>  <s_epik_cmdline>  (159) 
J2VwaWtfcHl0aG9uJywgJy1waHQnLCAnMi4wJywgJy1waCcsICc3LjAnLCAnLXRuJywgJzgnLCAnLW1hJywgJzIwMCcsICctaW1hZScsICc8aW5maWxlLm1hZT4nLCAnLW9tYWUnLCAnPG91dGZpbGUubWFlPic=

>  <r_epik_Ionization_Penalty>  (159) 
0.0111391

>  <r_epik_Ionization_Penalty_Charging>  (159) 
0

>  <r_epik_Ionization_Penalty_Neutral>  (159) 
0.0111391

>  <r_epik_State_Penalty>  (159) 
0.00855121

>  <r_epik_Charging_Adjusted_Penalty>  (159) 
0.00855121

>  <i_epik_Tot_Q>  (159) 
0

>  <i_epik_Tot_abs_Q>  (159) 
0

>  <s_lp_Force_Field>  (159) 
OPLS3e

>  <r_lp_Energy>  (159) 
43.6689

>  <b_lp_Chiralities_Consistent>  (159) 
1

>  <s_lp_Variant>  (159) 
54:0-1

>  <s_i_glide_gridfile>  (159) 
pfpi4k_grid

>  <i_i_glide_lignum>  (159) 
39

>  <i_i_glide_rotatable_bonds>  (159) 
4

>  <r_i_docking_score>  (159) 
-2.87073

>  <r_i_glide_ligand_efficiency>  (159) 
-0.119614

>  <r_i_glide_ligand_efficiency_sa>  (159) 
-0.345025

>  <r_i_glide_ligand_efficiency_ln>  (159) 
-0.687097

>  <r_i_glide_gscore>  (159) 
-2.87073

>  <r_i_glide_lipo>  (159) 
-0.327612

>  <r_i_glide_hbond>  (159) 
-0.16

>  <r_i_glide_metal>  (159) 
-0

>  <r_i_glide_rewards>  (159) 
-1.22465

>  <r_i_glide_evdw>  (159) 
-17.1758

>  <r_i_glide_ecoul>  (159) 
-5.6309

>  <r_i_glide_erotb>  (159) 
0.545718

>  <r_i_glide_esite>  (159) 
-0.000759152

>  <r_i_glide_emodel>  (159) 
-24.0466

>  <r_i_glide_energy>  (159) 
-22.8067

>  <r_i_glide_einternal>  (159) 
2.27496

>  <r_i_glide_intrahb_reward>  (159) 
-0

>  <i_i_glide_confnum>  (159) 
6

>  <i_i_glide_posenum>  (159) 
40

>  <r_i_glide_eff_state_penalty>  (159) 
0

>  <ligand_id>  (159) 
54

>  <original_smiles>  (159) 
CC1=CC(=O)N2C(CO)C(c3ccc(-c4ccncc4)cc3)C2C1

>  <smiles>  (159) 
[H]OC([H])([H])C1([H])N2C(=O)C([H])=C(C([H])([H])[H])C([H])([H])C2([H])C1([H])c1c([H])c([H])c(-c2c([H])c([H])nc([H])c2[H])c([H])c1[H]

$$$$
54:0:1
     RDKit          3D

 44 47  0  0  1  0  0  0  0  0999 V2000
   -1.5131   -4.3601    7.2326 C   0  0  0  0  0  0  0  0  0  0  0  0
   -0.4693   -3.7450    6.3115 C   0  0  0  0  0  0  0  0  0  0  0  0
    0.5801   -4.4553    5.8305 C   0  0  0  0  0  0  0  0  0  0  0  0
    1.5436   -3.8071    4.9253 C   0  0  0  0  0  0  0  0  0  0  0  0
    2.2967   -4.4042    4.1509 O   0  0  0  0  0  0  0  0  0  0  0  0
    1.5128   -2.4178    4.9227 N   0  0  0  0  0  0  0  0  0  0  0  0
    1.9025   -1.4053    3.9426 C   0  0  1  0  0  0  0  0  0  0  0  0
    1.4594   -1.6916    2.4882 C   0  0  0  0  0  0  0  0  0  0  0  0
    2.0820   -0.8213    1.5771 O   0  0  0  0  0  0  0  0  0  0  0  0
    1.1279   -0.4187    4.8945 C   0  0  1  0  0  0  0  0  0  0  0  0
    0.1348    0.6406    4.3918 C   0  0  0  0  0  0  0  0  0  0  0  0
    0.3598    1.2687    3.1736 C   0  0  0  0  0  0  0  0  0  0  0  0
   -0.5813    2.1542    2.6506 C   0  0  0  0  0  0  0  0  0  0  0  0
   -1.6862    2.5727    3.4199 C   0  0  0  0  0  0  0  0  0  0  0  0
   -2.5895    3.6219    2.9101 C   0  0  0  0  0  0  0  0  0  0  0  0
   -2.1578    4.9390    2.6416 C   0  0  0  0  0  0  0  0  0  0  0  0
   -3.0679    5.8484    2.0790 C   0  0  0  0  0  0  0  0  0  0  0  0
   -4.3707    5.5876    1.8308 N   0  0  0  0  0  0  0  0  0  0  0  0
   -4.7749    4.3323    2.0717 C   0  0  0  0  0  0  0  0  0  0  0  0
   -3.9205    3.3431    2.5893 C   0  0  0  0  0  0  0  0  0  0  0  0
   -1.8623    2.0229    4.7017 C   0  0  0  0  0  0  0  0  0  0  0  0
   -0.9767    1.0279    5.2029 C   0  0  0  0  0  0  0  0  0  0  0  0
    0.7238   -1.6101    5.8107 C   0  0  1  0  0  0  0  0  0  0  0  0
   -0.6579   -2.2744    5.9234 C   0  0  0  0  0  0  0  0  0  0  0  0
   -1.5656   -3.8484    8.1933 H   0  0  0  0  0  0  0  0  0  0  0  0
   -1.2795   -5.4063    7.4310 H   0  0  0  0  0  0  0  0  0  0  0  0
   -2.4969   -4.3266    6.7676 H   0  0  0  0  0  0  0  0  0  0  0  0
    0.7236   -5.4852    6.1301 H   0  0  0  0  0  0  0  0  0  0  0  0
    2.9797   -1.2817    4.0292 H   0  0  0  0  0  0  0  0  0  0  0  0
    1.7171   -2.6883    2.1342 H   0  0  0  0  0  0  0  0  0  0  0  0
    0.3871   -1.5703    2.4201 H   0  0  0  0  0  0  0  0  0  0  0  0
    1.5446   -0.7269    0.7717 H   0  0  0  0  0  0  0  0  0  0  0  0
    1.8862    0.1529    5.4447 H   0  0  0  0  0  0  0  0  0  0  0  0
    1.2616    1.1413    2.6086 H   0  0  0  0  0  0  0  0  0  0  0  0
   -0.4052    2.5462    1.6909 H   0  0  0  0  0  0  0  0  0  0  0  0
   -1.1216    5.2016    2.7655 H   0  0  0  0  0  0  0  0  0  0  0  0
   -2.7512    6.8575    1.8458 H   0  0  0  0  0  0  0  0  0  0  0  0
   -5.8002    4.1000    1.8639 H   0  0  0  0  0  0  0  0  0  0  0  0
   -4.2778    2.3432    2.7409 H   0  0  0  0  0  0  0  0  0  0  0  0
   -2.6891    2.3917    5.3089 H   0  0  0  0  0  0  0  0  0  0  0  0
   -1.1296    0.6292    6.2005 H   0  0  0  0  0  0  0  0  0  0  0  0
    1.2539   -1.5702    6.7613 H   0  0  0  0  0  0  0  0  0  0  0  0
   -1.2160   -2.2237    4.9860 H   0  0  0  0  0  0  0  0  0  0  0  0
   -1.2503   -1.7542    6.6690 H   0  0  0  0  0  0  0  0  0  0  0  0
  1  2  1  0
  1 25  1  0
  1 26  1  0
  1 27  1  0
  2 24  1  0
  2  3  2  0
  3  4  1  0
  3 28  1  0
  4  5  2  0
  4  6  1  0
  6 23  1  0
  6  7  1  0
  7  8  1  0
  7 10  1  0
  7 29  1  6
  8  9  1  0
  8 30  1  0
  8 31  1  0
  9 32  1  0
 10 11  1  0
 10 23  1  0
 10 33  1  1
 11 22  1  0
 11 12  2  0
 12 13  1  0
 12 34  1  0
 13 14  2  0
 13 35  1  0
 14 15  1  0
 14 21  1  0
 15 20  1  0
 15 16  2  0
 16 17  1  0
 16 36  1  0
 17 18  2  0
 17 37  1  0
 18 19  1  0
 19 20  2  0
 19 38  1  0
 20 39  1  0
 21 22  2  0
 21 40  1  0
 22 41  1  0
 23 24  1  0
 23 42  1  1
 24 43  1  0
 24 44  1  0
M  END
>  <i_m_ct_stereo_status>  (160) 
1

>  <s_m_source_file>  (160) 
/var/tmp/pbs.5076255.sched01/tmpr6ewtwjb/42o4phu6d4.sdf

>  <i_m_source_file_index>  (160) 
39

>  <i_lp_mmshare_version>  (160) 
48012

>  <i_f3d_flags>  (160) 
0

>  <s_epik_input>  (160) 
Tz1DMVtDSF09QyhbQ0gzXSlbQ0gyXVtDQEBIXShOMTIpW0NAQEhdKFtDQEBIXTJbQ0gyXVtPSF0pYzNbY0hdW2NIXWMoW2NIXVtjSF0zKS1jNFtjSF1bY0hdbltjSF1bY0hdNA==

>  <s_epik_cmdline>  (160) 
J2VwaWtfcHl0aG9uJywgJy1waHQnLCAnMi4wJywgJy1waCcsICc3LjAnLCAnLXRuJywgJzgnLCAnLW1hJywgJzIwMCcsICctaW1hZScsICc8aW5maWxlLm1hZT4nLCAnLW9tYWUnLCAnPG91dGZpbGUubWFlPic=

>  <r_epik_Ionization_Penalty>  (160) 
0.0111391

>  <r_epik_Ionization_Penalty_Charging>  (160) 
0

>  <r_epik_Ionization_Penalty_Neutral>  (160) 
0.0111391

>  <r_epik_State_Penalty>  (160) 
0.00855121

>  <r_epik_Charging_Adjusted_Penalty>  (160) 
0.00855121

>  <i_epik_Tot_Q>  (160) 
0

>  <i_epik_Tot_abs_Q>  (160) 
0

>  <s_lp_Force_Field>  (160) 
OPLS3e

>  <r_lp_Energy>  (160) 
43.6689

>  <b_lp_Chiralities_Consistent>  (160) 
1

>  <s_lp_Variant>  (160) 
54:0-1

>  <s_i_glide_gridfile>  (160) 
pfpi4k_grid

>  <i_i_glide_lignum>  (160) 
39

>  <i_i_glide_rotatable_bonds>  (160) 
4

>  <r_i_docking_score>  (160) 
-2.58343

>  <r_i_glide_ligand_efficiency>  (160) 
-0.107643

>  <r_i_glide_ligand_efficiency_sa>  (160) 
-0.310496

>  <r_i_glide_ligand_efficiency_ln>  (160) 
-0.618334

>  <r_i_glide_gscore>  (160) 
-2.58343

>  <r_i_glide_lipo>  (160) 
-0.292604

>  <r_i_glide_hbond>  (160) 
-0.16

>  <r_i_glide_metal>  (160) 
-0

>  <r_i_glide_rewards>  (160) 
-1.23111

>  <r_i_glide_evdw>  (160) 
-13.1179

>  <r_i_glide_ecoul>  (160) 
-5.26362

>  <r_i_glide_erotb>  (160) 
0.545718

>  <r_i_glide_esite>  (160) 
0

>  <r_i_glide_emodel>  (160) 
-19.3635

>  <r_i_glide_energy>  (160) 
-18.3815

>  <r_i_glide_einternal>  (160) 
2.55993

>  <r_i_glide_intrahb_reward>  (160) 
-0

>  <i_i_glide_confnum>  (160) 
6

>  <i_i_glide_posenum>  (160) 
9

>  <r_i_glide_eff_state_penalty>  (160) 
0

>  <ligand_id>  (160) 
54

>  <original_smiles>  (160) 
CC1=CC(=O)N2C(CO)C(c3ccc(-c4ccncc4)cc3)C2C1

>  <smiles>  (160) 
[H]OC([H])([H])C1([H])N2C(=O)C([H])=C(C([H])([H])[H])C([H])([H])C2([H])C1([H])c1c([H])c([H])c(-c2c([H])c([H])nc([H])c2[H])c([H])c1[H]

$$$$
54:0:2
     RDKit          3D

 44 47  0  0  1  0  0  0  0  0999 V2000
   -0.6899   -3.3174    6.7347 C   0  0  0  0  0  0  0  0  0  0  0  0
    0.3407   -2.4838    5.9947 C   0  0  0  0  0  0  0  0  0  0  0  0
    1.5580   -2.9669    5.6519 C   0  0  0  0  0  0  0  0  0  0  0  0
    2.5001   -2.1244    4.9014 C   0  0  0  0  0  0  0  0  0  0  0  0
    3.4592   -2.5416    4.2431 O   0  0  0  0  0  0  0  0  0  0  0  0
    2.2050   -0.7681    4.9180 N   0  0  0  0  0  0  0  0  0  0  0  0
    2.5175    0.3340    4.0193 C   0  0  1  0  0  0  0  0  0  0  0  0
    2.2997    0.1092    2.5161 C   0  0  0  0  0  0  0  0  0  0  0  0
    2.6142    1.3188    1.8521 O   0  0  0  0  0  0  0  0  0  0  0  0
    1.4673    1.1145    4.8678 C   0  0  1  0  0  0  0  0  0  0  0  0
    0.3568    1.9724    4.2637 C   0  0  0  0  0  0  0  0  0  0  0  0
    0.3298    3.3561    4.5374 C   0  0  0  0  0  0  0  0  0  0  0  0
   -0.6766    4.1647    3.9793 C   0  0  0  0  0  0  0  0  0  0  0  0
   -1.6792    3.6131    3.1505 C   0  0  0  0  0  0  0  0  0  0  0  0
   -2.7169    4.4530    2.5294 C   0  0  0  0  0  0  0  0  0  0  0  0
   -4.0397    3.9926    2.3561 C   0  0  0  0  0  0  0  0  0  0  0  0
   -5.0021    4.8536    1.7965 C   0  0  0  0  0  0  0  0  0  0  0  0
   -4.7359    6.1138    1.3978 N   0  0  0  0  0  0  0  0  0  0  0  0
   -3.4625    6.5458    1.5030 C   0  0  0  0  0  0  0  0  0  0  0  0
   -2.4373    5.7659    2.0848 C   0  0  0  0  0  0  0  0  0  0  0  0
   -1.6440    2.2294    2.8890 C   0  0  0  0  0  0  0  0  0  0  0  0
   -0.6422    1.4128    3.4351 C   0  0  0  0  0  0  0  0  0  0  0  0
    1.1656   -0.1582    5.6989 C   0  0  1  0  0  0  0  0  0  0  0  0
   -0.0737   -1.0629    5.6207 C   0  0  0  0  0  0  0  0  0  0  0  0
   -0.9645   -2.8499    7.6787 H   0  0  0  0  0  0  0  0  0  0  0  0
   -0.2976   -4.3103    6.9527 H   0  0  0  0  0  0  0  0  0  0  0  0
   -1.5857   -3.4285    6.1264 H   0  0  0  0  0  0  0  0  0  0  0  0
    1.8447   -3.9648    5.9503 H   0  0  0  0  0  0  0  0  0  0  0  0
    3.5344    0.6583    4.2494 H   0  0  0  0  0  0  0  0  0  0  0  0
    2.9101   -0.7015    2.1128 H   0  0  0  0  0  0  0  0  0  0  0  0
    1.2683   -0.1367    2.2744 H   0  0  0  0  0  0  0  0  0  0  0  0
    3.4942    1.5912    2.0604 H   0  0  0  0  0  0  0  0  0  0  0  0
    2.0449    1.7765    5.5197 H   0  0  0  0  0  0  0  0  0  0  0  0
    1.0923    3.8082    5.1580 H   0  0  0  0  0  0  0  0  0  0  0  0
   -0.6568    5.2215    4.1782 H   0  0  0  0  0  0  0  0  0  0  0  0
   -4.3210    3.0013    2.6887 H   0  0  0  0  0  0  0  0  0  0  0  0
   -6.0375    4.5544    1.7122 H   0  0  0  0  0  0  0  0  0  0  0  0
   -3.2765    7.5562    1.1700 H   0  0  0  0  0  0  0  0  0  0  0  0
   -1.4351    6.1715    2.1107 H   0  0  0  0  0  0  0  0  0  0  0  0
   -2.3606    1.7846    2.2215 H   0  0  0  0  0  0  0  0  0  0  0  0
   -0.6393    0.3733    3.1553 H   0  0  0  0  0  0  0  0  0  0  0  0
    1.5489   -0.0433    6.7123 H   0  0  0  0  0  0  0  0  0  0  0  0
   -0.4969   -1.1317    4.6193 H   0  0  0  0  0  0  0  0  0  0  0  0
   -0.8545   -0.6787    6.2742 H   0  0  0  0  0  0  0  0  0  0  0  0
  1  2  1  0
  1 25  1  0
  1 26  1  0
  1 27  1  0
  2 24  1  0
  2  3  2  0
  3  4  1  0
  3 28  1  0
  4  5  2  0
  4  6  1  0
  6 23  1  0
  6  7  1  0
  7  8  1  0
  7 10  1  0
  7 29  1  6
  8  9  1  0
  8 30  1  0
  8 31  1  0
  9 32  1  0
 10 11  1  0
 10 23  1  0
 10 33  1  1
 11 22  1  0
 11 12  2  0
 12 13  1  0
 12 34  1  0
 13 14  2  0
 13 35  1  0
 14 15  1  0
 14 21  1  0
 15 20  1  0
 15 16  2  0
 16 17  1  0
 16 36  1  0
 17 18  2  0
 17 37  1  0
 18 19  1  0
 19 20  2  0
 19 38  1  0
 20 39  1  0
 21 22  2  0
 21 40  1  0
 22 41  1  0
 23 24  1  0
 23 42  1  1
 24 43  1  0
 24 44  1  0
M  END
>  <i_m_ct_stereo_status>  (161) 
1

>  <s_m_source_file>  (161) 
/var/tmp/pbs.5076255.sched01/tmpr6ewtwjb/42o4phu6d4.sdf

>  <i_m_source_file_index>  (161) 
39

>  <i_lp_mmshare_version>  (161) 
48012

>  <i_f3d_flags>  (161) 
0

>  <s_epik_input>  (161) 
Tz1DMVtDSF09QyhbQ0gzXSlbQ0gyXVtDQEBIXShOMTIpW0NAQEhdKFtDQEBIXTJbQ0gyXVtPSF0pYzNbY0hdW2NIXWMoW2NIXVtjSF0zKS1jNFtjSF1bY0hdbltjSF1bY0hdNA==

>  <s_epik_cmdline>  (161) 
J2VwaWtfcHl0aG9uJywgJy1waHQnLCAnMi4wJywgJy1waCcsICc3LjAnLCAnLXRuJywgJzgnLCAnLW1hJywgJzIwMCcsICctaW1hZScsICc8aW5maWxlLm1hZT4nLCAnLW9tYWUnLCAnPG91dGZpbGUubWFlPic=

>  <r_epik_Ionization_Penalty>  (161) 
0.0111391

>  <r_epik_Ionization_Penalty_Charging>  (161) 
0

>  <r_epik_Ionization_Penalty_Neutral>  (161) 
0.0111391

>  <r_epik_State_Penalty>  (161) 
0.00855121

>  <r_epik_Charging_Adjusted_Penalty>  (161) 
0.00855121

>  <i_epik_Tot_Q>  (161) 
0

>  <i_epik_Tot_abs_Q>  (161) 
0

>  <s_lp_Force_Field>  (161) 
OPLS3e

>  <r_lp_Energy>  (161) 
43.6689

>  <b_lp_Chiralities_Consistent>  (161) 
1

>  <s_lp_Variant>  (161) 
54:0-1

>  <s_i_glide_gridfile>  (161) 
pfpi4k_grid

>  <i_i_glide_lignum>  (161) 
39

>  <i_i_glide_rotatable_bonds>  (161) 
4

>  <r_i_docking_score>  (161) 
-2.2717

>  <r_i_glide_ligand_efficiency>  (161) 
-0.0946543

>  <r_i_glide_ligand_efficiency_sa>  (161) 
-0.27303

>  <r_i_glide_ligand_efficiency_ln>  (161) 
-0.543723

>  <r_i_glide_gscore>  (161) 
-2.2717

>  <r_i_glide_lipo>  (161) 
-0.260526

>  <r_i_glide_hbond>  (161) 
-0.153743

>  <r_i_glide_metal>  (161) 
-0

>  <r_i_glide_rewards>  (161) 
-1.22465

>  <r_i_glide_evdw>  (161) 
-14.0094

>  <r_i_glide_ecoul>  (161) 
-3.1869

>  <r_i_glide_erotb>  (161) 
0.545718

>  <r_i_glide_esite>  (161) 
0

>  <r_i_glide_emodel>  (161) 
-19.433

>  <r_i_glide_energy>  (161) 
-17.1963

>  <r_i_glide_einternal>  (161) 
0.412609

>  <r_i_glide_intrahb_reward>  (161) 
-0

>  <i_i_glide_confnum>  (161) 
6

>  <i_i_glide_posenum>  (161) 
6

>  <r_i_glide_eff_state_penalty>  (161) 
0

>  <ligand_id>  (161) 
54

>  <original_smiles>  (161) 
CC1=CC(=O)N2C(CO)C(c3ccc(-c4ccncc4)cc3)C2C1

>  <smiles>  (161) 
[H]OC([H])([H])C1([H])N2C(=O)C([H])=C(C([H])([H])[H])C([H])([H])C2([H])C1([H])c1c([H])c([H])c(-c2c([H])c([H])nc([H])c2[H])c([H])c1[H]

$$$$
54:1:0
     RDKit          3D

 45 48  0  0  1  0  0  0  0  0999 V2000
    1.1672   -0.2923    2.3485 C   0  0  0  0  0  0  0  0  0  0  0  0
    0.7422   -0.8723    3.6771 C   0  0  0  0  0  0  0  0  0  0  0  0
    0.0030   -0.1691    4.5651 C   0  0  0  0  0  0  0  0  0  0  0  0
   -0.4139   -0.7856    5.8220 C   0  0  0  0  0  0  0  0  0  0  0  0
   -1.3779   -0.4057    6.4762 O   0  0  0  0  0  0  0  0  0  0  0  0
    0.3154   -1.9305    6.1829 N   0  0  0  0  0  0  0  0  0  0  0  0
    0.0295   -3.0760    7.0330 C   0  0  1  0  0  0  0  0  0  0  0  0
   -1.3217   -3.7879    6.8169 C   0  0  0  0  0  0  0  0  0  0  0  0
   -1.7634   -4.3692    8.0251 O   0  0  0  0  0  0  0  0  0  0  0  0
    1.3339   -3.6660    6.3993 C   0  0  1  0  0  0  0  0  0  0  0  0
    1.4183   -5.0958    5.8717 C   0  0  0  0  0  0  0  0  0  0  0  0
    0.9644   -6.1592    6.6758 C   0  0  0  0  0  0  0  0  0  0  0  0
    1.0403   -7.4853    6.2089 C   0  0  0  0  0  0  0  0  0  0  0  0
    1.5708   -7.7958    4.9324 C   0  0  0  0  0  0  0  0  0  0  0  0
    1.6526   -9.1985    4.4418 C   0  0  0  0  0  0  0  0  0  0  0  0
    2.4991   -9.5773    3.3675 C   0  0  0  0  0  0  0  0  0  0  0  0
    2.5547  -10.9160    2.9235 C   0  0  0  0  0  0  0  0  0  0  0  0
    1.7995  -11.8590    3.5326 N   0  0  0  0  0  0  0  0  0  0  0  0
    0.9806  -11.5554    4.5579 C   0  0  0  0  0  0  0  0  0  0  0  0
    0.8864  -10.2338    5.0284 C   0  0  0  0  0  0  0  0  0  0  0  0
    2.0363   -6.7144    4.1484 C   0  0  0  0  0  0  0  0  0  0  0  0
    1.9794   -5.3888    4.6116 C   0  0  0  0  0  0  0  0  0  0  0  0
    1.4760   -2.4157    5.4884 C   0  0  1  0  0  0  0  0  0  0  0  0
    1.1784   -2.3030    3.9853 C   0  0  0  0  0  0  0  0  0  0  0  0
    2.2564   -0.2787    2.2448 H   0  0  0  0  0  0  0  0  0  0  0  0
    0.7961    0.7284    2.2266 H   0  0  0  0  0  0  0  0  0  0  0  0
    0.7509   -0.8991    1.5448 H   0  0  0  0  0  0  0  0  0  0  0  0
   -0.2837    0.8508    4.3465 H   0  0  0  0  0  0  0  0  0  0  0  0
    0.1999   -2.7697    8.0669 H   0  0  0  0  0  0  0  0  0  0  0  0
   -2.1033   -3.1282    6.4449 H   0  0  0  0  0  0  0  0  0  0  0  0
   -1.2252   -4.5873    6.0851 H   0  0  0  0  0  0  0  0  0  0  0  0
   -2.4967   -4.9485    7.8542 H   0  0  0  0  0  0  0  0  0  0  0  0
    2.1221   -3.6127    7.1559 H   0  0  0  0  0  0  0  0  0  0  0  0
    0.5585   -5.9562    7.6601 H   0  0  0  0  0  0  0  0  0  0  0  0
    0.6875   -8.2566    6.8725 H   0  0  0  0  0  0  0  0  0  0  0  0
    3.1292   -8.8597    2.8678 H   0  0  0  0  0  0  0  0  0  0  0  0
    3.1856  -11.2534    2.1084 H   0  0  0  0  0  0  0  0  0  0  0  0
    0.4177  -12.3770    4.9816 H   0  0  0  0  0  0  0  0  0  0  0  0
    0.2032  -10.0590    5.8446 H   0  0  0  0  0  0  0  0  0  0  0  0
    2.4562   -6.8688    3.1686 H   0  0  0  0  0  0  0  0  0  0  0  0
    2.3754   -4.6123    3.9741 H   0  0  0  0  0  0  0  0  0  0  0  0
    2.3288   -1.8164    5.8053 H   0  0  0  0  0  0  0  0  0  0  0  0
    0.3900   -2.9885    3.6654 H   0  0  0  0  0  0  0  0  0  0  0  0
    2.0701   -2.5318    3.4054 H   0  0  0  0  0  0  0  0  0  0  0  0
    1.8473  -12.8417    3.2297 H   0  0  0  0  0  0  0  0  0  0  0  0
  1  2  1  0
  1 25  1  0
  1 26  1  0
  1 27  1  0
  2 24  1  0
  2  3  2  0
  3  4  1  0
  3 28  1  0
  4  5  2  0
  4  6  1  0
  6 23  1  0
  6  7  1  0
  7  8  1  0
  7 10  1  0
  7 29  1  1
  8  9  1  0
  8 30  1  0
  8 31  1  0
  9 32  1  0
 10 11  1  0
 10 23  1  0
 10 33  1  1
 11 22  1  0
 11 12  2  0
 12 13  1  0
 12 34  1  0
 13 14  2  0
 13 35  1  0
 14 15  1  0
 14 21  1  0
 15 20  1  0
 15 16  2  0
 16 17  1  0
 16 36  1  0
 17 18  2  0
 17 37  1  0
 18 19  1  0
 18 45  1  0
 19 20  2  0
 19 38  1  0
 20 39  1  0
 21 22  2  0
 21 40  1  0
 22 41  1  0
 23 24  1  0
 23 42  1  6
 24 43  1  0
 24 44  1  0
M  CHG  1  18   1
M  END
>  <i_m_ct_stereo_status>  (162) 
1

>  <s_m_source_file>  (162) 
/var/tmp/pbs.5076255.sched01/tmpr6ewtwjb/42o4phu6d4.sdf

>  <i_m_source_file_index>  (162) 
40

>  <i_lp_mmshare_version>  (162) 
48012

>  <i_f3d_flags>  (162) 
0

>  <s_epik_input>  (162) 
Tz1DMVtDSF09QyhbQ0gzXSlbQ0gyXVtDQEBIXShOMTIpW0NAQEhdKFtDQEBIXTJbQ0gyXVtPSF0pYzNbY0hdW2NIXWMoW2NIXVtjSF0zKS1jNFtjSF1bY0hdbltjSF1bY0hdNA==

>  <s_epik_cmdline>  (162) 
J2VwaWtfcHl0aG9uJywgJy1waHQnLCAnMi4wJywgJy1waCcsICc3LjAnLCAnLXRuJywgJzgnLCAnLW1hJywgJzIwMCcsICctaW1hZScsICc8aW5maWxlLm1hZT4nLCAnLW9tYWUnLCAnPG91dGZpbGUubWFlPic=

>  <r_epik_Ionization_Penalty>  (162) 
2.36038

>  <r_epik_Ionization_Penalty_Charging>  (162) 
2.36037

>  <r_epik_Ionization_Penalty_Neutral>  (162) 
6.66456e-06

>  <r_epik_State_Penalty>  (162) 
2.51538

>  <r_epik_Charging_Adjusted_Penalty>  (162) 
4.87574

>  <i_epik_Tot_Q>  (162) 
1

>  <i_epik_Tot_abs_Q>  (162) 
1

>  <s_lp_Force_Field>  (162) 
OPLS3e

>  <r_lp_Energy>  (162) 
49.7582

>  <b_lp_Chiralities_Consistent>  (162) 
1

>  <s_lp_Variant>  (162) 
54:0-2

>  <s_i_glide_gridfile>  (162) 
pfpi4k_grid

>  <i_i_glide_lignum>  (162) 
40

>  <i_i_glide_rotatable_bonds>  (162) 
4

>  <r_i_docking_score>  (162) 
-3.54318

>  <r_i_glide_ligand_efficiency>  (162) 
-0.147632

>  <r_i_glide_ligand_efficiency_sa>  (162) 
-0.425845

>  <r_i_glide_ligand_efficiency_ln>  (162) 
-0.848045

>  <r_i_glide_gscore>  (162) 
-3.54318

>  <r_i_glide_lipo>  (162) 
-0.0254807

>  <r_i_glide_hbond>  (162) 
-0.11488

>  <r_i_glide_metal>  (162) 
-0

>  <r_i_glide_rewards>  (162) 
-1.21778

>  <r_i_glide_evdw>  (162) 
-18.4066

>  <r_i_glide_ecoul>  (162) 
-11.6158

>  <r_i_glide_erotb>  (162) 
0.542705

>  <r_i_glide_esite>  (162) 
-0.0650507

>  <r_i_glide_emodel>  (162) 
-37.3379

>  <r_i_glide_energy>  (162) 
-30.0224

>  <r_i_glide_einternal>  (162) 
2.8737

>  <r_i_glide_intrahb_reward>  (162) 
-0

>  <i_i_glide_confnum>  (162) 
6

>  <i_i_glide_posenum>  (162) 
35

>  <r_i_glide_eff_state_penalty>  (162) 
0

>  <ligand_id>  (162) 
54

>  <original_smiles>  (162) 
CC1=CC(=O)N2C(CO)C(c3ccc(-c4ccncc4)cc3)C2C1

>  <smiles>  (162) 
[H]OC([H])([H])C1([H])N2C(=O)C([H])=C(C([H])([H])[H])C([H])([H])C2([H])C1([H])c1c([H])c([H])c(-c2c([H])c([H])[n+]([H])c([H])c2[H])c([H])c1[H]

$$$$
54:1:1
     RDKit          3D

 45 48  0  0  1  0  0  0  0  0999 V2000
    1.3442   -0.3423    2.2429 C   0  0  0  0  0  0  0  0  0  0  0  0
    0.9408   -0.9021    3.5947 C   0  0  0  0  0  0  0  0  0  0  0  0
    0.2239   -0.1909    4.4915 C   0  0  0  0  0  0  0  0  0  0  0  0
   -0.1445   -0.7923    5.7760 C   0  0  0  0  0  0  0  0  0  0  0  0
   -1.0713   -0.4083    6.4832 O   0  0  0  0  0  0  0  0  0  0  0  0
    0.5890   -1.9321    6.1159 N   0  0  0  0  0  0  0  0  0  0  0  0
    0.3247   -3.0598    6.9902 C   0  0  1  0  0  0  0  0  0  0  0  0
   -1.0303   -3.7594    6.8090 C   0  0  0  0  0  0  0  0  0  0  0  0
   -1.3526   -4.4695    7.9810 O   0  0  0  0  0  0  0  0  0  0  0  0
    1.6112   -3.6597    6.3328 C   0  0  1  0  0  0  0  0  0  0  0  0
    1.6770   -5.0948    5.8242 C   0  0  0  0  0  0  0  0  0  0  0  0
    1.1775   -6.1425    6.6250 C   0  0  0  0  0  0  0  0  0  0  0  0
    1.2232   -7.4732    6.1716 C   0  0  0  0  0  0  0  0  0  0  0  0
    1.7914   -7.8030    4.9220 C   0  0  0  0  0  0  0  0  0  0  0  0
    1.8554   -9.2057    4.4566 C   0  0  0  0  0  0  0  0  0  0  0  0
    2.8335   -9.6403    3.5312 C   0  0  0  0  0  0  0  0  0  0  0  0
    2.8708  -10.9805    3.1030 C   0  0  0  0  0  0  0  0  0  0  0  0
    1.9648  -11.8521    3.5853 N   0  0  0  0  0  0  0  0  0  0  0  0
    1.0181  -11.5052    4.4756 C   0  0  0  0  0  0  0  0  0  0  0  0
    0.9361  -10.1762    4.9271 C   0  0  0  0  0  0  0  0  0  0  0  0
    2.3175   -6.7481    4.1423 C   0  0  0  0  0  0  0  0  0  0  0  0
    2.2730   -5.4119    4.5848 C   0  0  0  0  0  0  0  0  0  0  0  0
    1.7327   -2.4241    5.3982 C   0  0  1  0  0  0  0  0  0  0  0  0
    1.3930   -2.3294    3.9035 C   0  0  0  0  0  0  0  0  0  0  0  0
    2.4299   -0.3332    2.1112 H   0  0  0  0  0  0  0  0  0  0  0  0
    0.9737    0.6766    2.1102 H   0  0  0  0  0  0  0  0  0  0  0  0
    0.9128   -0.9596    1.4569 H   0  0  0  0  0  0  0  0  0  0  0  0
   -0.0660    0.8305    4.2618 H   0  0  0  0  0  0  0  0  0  0  0  0
    0.5145   -2.7231    8.0105 H   0  0  0  0  0  0  0  0  0  0  0  0
   -1.8552   -3.0751    6.6156 H   0  0  0  0  0  0  0  0  0  0  0  0
   -0.9848   -4.4554    5.9761 H   0  0  0  0  0  0  0  0  0  0  0  0
   -0.7084   -5.1483    8.1204 H   0  0  0  0  0  0  0  0  0  0  0  0
    2.4158   -3.5940    7.0694 H   0  0  0  0  0  0  0  0  0  0  0  0
    0.7702   -5.9335    7.6027 H   0  0  0  0  0  0  0  0  0  0  0  0
    0.8296   -8.2366    6.8234 H   0  0  0  0  0  0  0  0  0  0  0  0
    3.5786   -8.9620    3.1432 H   0  0  0  0  0  0  0  0  0  0  0  0
    3.5970  -11.3851    2.4110 H   0  0  0  0  0  0  0  0  0  0  0  0
    0.3514  -12.2962    4.8069 H   0  0  0  0  0  0  0  0  0  0  0  0
    0.1528   -9.9424    5.6303 H   0  0  0  0  0  0  0  0  0  0  0  0
    2.7688   -6.9420    3.1830 H   0  0  0  0  0  0  0  0  0  0  0  0
    2.7058   -4.6435    3.9593 H   0  0  0  0  0  0  0  0  0  0  0  0
    2.5870   -1.8167    5.6897 H   0  0  0  0  0  0  0  0  0  0  0  0
    0.5977   -3.0182    3.6124 H   0  0  0  0  0  0  0  0  0  0  0  0
    2.2667   -2.5705    3.3101 H   0  0  0  0  0  0  0  0  0  0  0  0
    2.0007  -12.8457    3.2810 H   0  0  0  0  0  0  0  0  0  0  0  0
  1  2  1  0
  1 25  1  0
  1 26  1  0
  1 27  1  0
  2 24  1  0
  2  3  2  0
  3  4  1  0
  3 28  1  0
  4  5  2  0
  4  6  1  0
  6 23  1  0
  6  7  1  0
  7  8  1  0
  7 10  1  0
  7 29  1  1
  8  9  1  0
  8 30  1  0
  8 31  1  0
  9 32  1  0
 10 11  1  0
 10 23  1  0
 10 33  1  1
 11 22  1  0
 11 12  2  0
 12 13  1  0
 12 34  1  0
 13 14  2  0
 13 35  1  0
 14 15  1  0
 14 21  1  0
 15 20  1  0
 15 16  2  0
 16 17  1  0
 16 36  1  0
 17 18  2  0
 17 37  1  0
 18 19  1  0
 18 45  1  0
 19 20  2  0
 19 38  1  0
 20 39  1  0
 21 22  2  0
 21 40  1  0
 22 41  1  0
 23 24  1  0
 23 42  1  6
 24 43  1  0
 24 44  1  0
M  CHG  1  18   1
M  END
>  <i_m_ct_stereo_status>  (163) 
1

>  <s_m_source_file>  (163) 
/var/tmp/pbs.5076255.sched01/tmpr6ewtwjb/42o4phu6d4.sdf

>  <i_m_source_file_index>  (163) 
40

>  <i_lp_mmshare_version>  (163) 
48012

>  <i_f3d_flags>  (163) 
0

>  <s_epik_input>  (163) 
Tz1DMVtDSF09QyhbQ0gzXSlbQ0gyXVtDQEBIXShOMTIpW0NAQEhdKFtDQEBIXTJbQ0gyXVtPSF0pYzNbY0hdW2NIXWMoW2NIXVtjSF0zKS1jNFtjSF1bY0hdbltjSF1bY0hdNA==

>  <s_epik_cmdline>  (163) 
J2VwaWtfcHl0aG9uJywgJy1waHQnLCAnMi4wJywgJy1waCcsICc3LjAnLCAnLXRuJywgJzgnLCAnLW1hJywgJzIwMCcsICctaW1hZScsICc8aW5maWxlLm1hZT4nLCAnLW9tYWUnLCAnPG91dGZpbGUubWFlPic=

>  <r_epik_Ionization_Penalty>  (163) 
2.36038

>  <r_epik_Ionization_Penalty_Charging>  (163) 
2.36037

>  <r_epik_Ionization_Penalty_Neutral>  (163) 
6.66456e-06

>  <r_epik_State_Penalty>  (163) 
2.51538

>  <r_epik_Charging_Adjusted_Penalty>  (163) 
4.87574

>  <i_epik_Tot_Q>  (163) 
1

>  <i_epik_Tot_abs_Q>  (163) 
1

>  <s_lp_Force_Field>  (163) 
OPLS3e

>  <r_lp_Energy>  (163) 
49.7582

>  <b_lp_Chiralities_Consistent>  (163) 
1

>  <s_lp_Variant>  (163) 
54:0-2

>  <s_i_glide_gridfile>  (163) 
pfpi4k_grid

>  <i_i_glide_lignum>  (163) 
40

>  <i_i_glide_rotatable_bonds>  (163) 
4

>  <r_i_docking_score>  (163) 
-3.28842

>  <r_i_glide_ligand_efficiency>  (163) 
-0.137017

>  <r_i_glide_ligand_efficiency_sa>  (163) 
-0.395226

>  <r_i_glide_ligand_efficiency_ln>  (163) 
-0.787069

>  <r_i_glide_gscore>  (163) 
-3.28842

>  <r_i_glide_lipo>  (163) 
-0.0645875

>  <r_i_glide_hbond>  (163) 
-0.10311

>  <r_i_glide_metal>  (163) 
-0

>  <r_i_glide_rewards>  (163) 
-1.21778

>  <r_i_glide_evdw>  (163) 
-19.1883

>  <r_i_glide_ecoul>  (163) 
-9.547

>  <r_i_glide_erotb>  (163) 
0.542705

>  <r_i_glide_esite>  (163) 
-0.0541825

>  <r_i_glide_emodel>  (163) 
-36.4873

>  <r_i_glide_energy>  (163) 
-28.7353

>  <r_i_glide_einternal>  (163) 
1.25808

>  <r_i_glide_intrahb_reward>  (163) 
-0

>  <i_i_glide_confnum>  (163) 
6

>  <i_i_glide_posenum>  (163) 
1

>  <r_i_glide_eff_state_penalty>  (163) 
0

>  <ligand_id>  (163) 
54

>  <original_smiles>  (163) 
CC1=CC(=O)N2C(CO)C(c3ccc(-c4ccncc4)cc3)C2C1

>  <smiles>  (163) 
[H]OC([H])([H])C1([H])N2C(=O)C([H])=C(C([H])([H])[H])C([H])([H])C2([H])C1([H])c1c([H])c([H])c(-c2c([H])c([H])[n+]([H])c([H])c2[H])c([H])c1[H]

$$$$
54:1:2
     RDKit          3D

 45 48  0  0  1  0  0  0  0  0999 V2000
   -2.4964    3.5407    2.8830 C   0  0  0  0  0  0  0  0  0  0  0  0
   -1.7955    2.6632    3.9055 C   0  0  0  0  0  0  0  0  0  0  0  0
   -2.2285    2.5240    5.1846 C   0  0  0  0  0  0  0  0  0  0  0  0
   -1.5348    1.6181    6.1130 C   0  0  0  0  0  0  0  0  0  0  0  0
   -2.0586    1.0479    7.0777 O   0  0  0  0  0  0  0  0  0  0  0  0
   -0.2170    1.3287    5.7519 N   0  0  0  0  0  0  0  0  0  0  0  0
    0.5996    0.1523    5.9719 C   0  0  1  0  0  0  0  0  0  0  0  0
   -0.0443   -1.2432    5.8671 C   0  0  0  0  0  0  0  0  0  0  0  0
   -0.6263   -1.4699    4.6041 O   0  0  0  0  0  0  0  0  0  0  0  0
    1.5085    0.7420    4.8529 C   0  0  1  0  0  0  0  0  0  0  0  0
    2.1242   -0.1295    3.7693 C   0  0  0  0  0  0  0  0  0  0  0  0
    2.7465   -1.3445    4.1208 C   0  0  0  0  0  0  0  0  0  0  0  0
    3.2985   -2.1732    3.1248 C   0  0  0  0  0  0  0  0  0  0  0  0
    3.2795   -1.7945    1.7652 C   0  0  0  0  0  0  0  0  0  0  0  0
    3.8803   -2.6536    0.7179 C   0  0  0  0  0  0  0  0  0  0  0  0
    3.4263   -2.6133   -0.6189 C   0  0  0  0  0  0  0  0  0  0  0  0
    4.0088   -3.4500   -1.5937 C   0  0  0  0  0  0  0  0  0  0  0  0
    5.0083   -4.2837   -1.2449 N   0  0  0  0  0  0  0  0  0  0  0  0
    5.4974   -4.3571    0.0123 C   0  0  0  0  0  0  0  0  0  0  0  0
    4.9391   -3.5420    1.0185 C   0  0  0  0  0  0  0  0  0  0  0  0
    2.6821   -0.5613    1.4383 C   0  0  0  0  0  0  0  0  0  0  0  0
    2.1111    0.2718    2.4196 C   0  0  0  0  0  0  0  0  0  0  0  0
    0.4527    1.8529    4.5867 C   0  0  1  0  0  0  0  0  0  0  0  0
   -0.5502    1.9263    3.4261 C   0  0  0  0  0  0  0  0  0  0  0  0
   -1.8163    4.3120    2.4991 H   0  0  0  0  0  0  0  0  0  0  0  0
   -3.3852    4.0250    3.2824 H   0  0  0  0  0  0  0  0  0  0  0  0
   -2.8255    2.9148    2.0559 H   0  0  0  0  0  0  0  0  0  0  0  0
   -3.1227    3.0499    5.5004 H   0  0  0  0  0  0  0  0  0  0  0  0
    1.0709    0.3017    6.9429 H   0  0  0  0  0  0  0  0  0  0  0  0
    0.7274   -1.9963    5.9868 H   0  0  0  0  0  0  0  0  0  0  0  0
   -0.7500   -1.4561    6.6685 H   0  0  0  0  0  0  0  0  0  0  0  0
    0.0189   -1.2580    3.9411 H   0  0  0  0  0  0  0  0  0  0  0  0
    2.3618    1.2150    5.3383 H   0  0  0  0  0  0  0  0  0  0  0  0
    2.8032   -1.6552    5.1557 H   0  0  0  0  0  0  0  0  0  0  0  0
    3.7285   -3.1085    3.4312 H   0  0  0  0  0  0  0  0  0  0  0  0
    2.6190   -1.9657   -0.9201 H   0  0  0  0  0  0  0  0  0  0  0  0
    3.6955   -3.4963   -2.6327 H   0  0  0  0  0  0  0  0  0  0  0  0
    6.2959   -5.0622    0.1768 H   0  0  0  0  0  0  0  0  0  0  0  0
    5.3422   -3.6077    2.0170 H   0  0  0  0  0  0  0  0  0  0  0  0
    2.6396   -0.2276    0.4164 H   0  0  0  0  0  0  0  0  0  0  0  0
    1.6631    1.2089    2.1204 H   0  0  0  0  0  0  0  0  0  0  0  0
    0.8517    2.8286    4.8810 H   0  0  0  0  0  0  0  0  0  0  0  0
   -0.8502    0.9466    3.0466 H   0  0  0  0  0  0  0  0  0  0  0  0
   -0.1147    2.4725    2.5940 H   0  0  0  0  0  0  0  0  0  0  0  0
    5.4025   -4.8996   -1.9678 H   0  0  0  0  0  0  0  0  0  0  0  0
  1  2  1  0
  1 25  1  0
  1 26  1  0
  1 27  1  0
  2 24  1  0
  2  3  2  0
  3  4  1  0
  3 28  1  0
  4  5  2  0
  4  6  1  0
  6 23  1  0
  6  7  1  0
  7  8  1  0
  7 10  1  0
  7 29  1  1
  8  9  1  0
  8 30  1  0
  8 31  1  0
  9 32  1  0
 10 11  1  0
 10 23  1  0
 10 33  1  1
 11 22  1  0
 11 12  2  0
 12 13  1  0
 12 34  1  0
 13 14  2  0
 13 35  1  0
 14 15  1  0
 14 21  1  0
 15 20  1  0
 15 16  2  0
 16 17  1  0
 16 36  1  0
 17 18  2  0
 17 37  1  0
 18 19  1  0
 18 45  1  0
 19 20  2  0
 19 38  1  0
 20 39  1  0
 21 22  2  0
 21 40  1  0
 22 41  1  0
 23 24  1  0
 23 42  1  1
 24 43  1  0
 24 44  1  0
M  CHG  1  18   1
M  END
>  <i_m_ct_stereo_status>  (164) 
1

>  <s_m_source_file>  (164) 
/var/tmp/pbs.5076255.sched01/tmpr6ewtwjb/42o4phu6d4.sdf

>  <i_m_source_file_index>  (164) 
40

>  <i_lp_mmshare_version>  (164) 
48012

>  <i_f3d_flags>  (164) 
0

>  <s_epik_input>  (164) 
Tz1DMVtDSF09QyhbQ0gzXSlbQ0gyXVtDQEBIXShOMTIpW0NAQEhdKFtDQEBIXTJbQ0gyXVtPSF0pYzNbY0hdW2NIXWMoW2NIXVtjSF0zKS1jNFtjSF1bY0hdbltjSF1bY0hdNA==

>  <s_epik_cmdline>  (164) 
J2VwaWtfcHl0aG9uJywgJy1waHQnLCAnMi4wJywgJy1waCcsICc3LjAnLCAnLXRuJywgJzgnLCAnLW1hJywgJzIwMCcsICctaW1hZScsICc8aW5maWxlLm1hZT4nLCAnLW9tYWUnLCAnPG91dGZpbGUubWFlPic=

>  <r_epik_Ionization_Penalty>  (164) 
2.36038

>  <r_epik_Ionization_Penalty_Charging>  (164) 
2.36037

>  <r_epik_Ionization_Penalty_Neutral>  (164) 
6.66456e-06

>  <r_epik_State_Penalty>  (164) 
2.51538

>  <r_epik_Charging_Adjusted_Penalty>  (164) 
4.87574

>  <i_epik_Tot_Q>  (164) 
1

>  <i_epik_Tot_abs_Q>  (164) 
1

>  <s_lp_Force_Field>  (164) 
OPLS3e

>  <r_lp_Energy>  (164) 
49.7582

>  <b_lp_Chiralities_Consistent>  (164) 
1

>  <s_lp_Variant>  (164) 
54:0-2

>  <s_i_glide_gridfile>  (164) 
pfpi4k_grid

>  <i_i_glide_lignum>  (164) 
40

>  <i_i_glide_rotatable_bonds>  (164) 
4

>  <r_i_docking_score>  (164) 
-3.1323

>  <r_i_glide_ligand_efficiency>  (164) 
-0.130513

>  <r_i_glide_ligand_efficiency_sa>  (164) 
-0.376464

>  <r_i_glide_ligand_efficiency_ln>  (164) 
-0.749704

>  <r_i_glide_gscore>  (164) 
-3.1323

>  <r_i_glide_lipo>  (164) 
-0.0952451

>  <r_i_glide_hbond>  (164) 
-0.16

>  <r_i_glide_metal>  (164) 
-0

>  <r_i_glide_rewards>  (164) 
-1.21778

>  <r_i_glide_evdw>  (164) 
-23.4711

>  <r_i_glide_ecoul>  (164) 
-6.53598

>  <r_i_glide_erotb>  (164) 
0.542705

>  <r_i_glide_esite>  (164) 
-0.0480372

>  <r_i_glide_emodel>  (164) 
-33.1278

>  <r_i_glide_energy>  (164) 
-30.0071

>  <r_i_glide_einternal>  (164) 
9.30114

>  <r_i_glide_intrahb_reward>  (164) 
-0

>  <i_i_glide_confnum>  (164) 
5

>  <i_i_glide_posenum>  (164) 
2

>  <r_i_glide_eff_state_penalty>  (164) 
0

>  <ligand_id>  (164) 
54

>  <original_smiles>  (164) 
CC1=CC(=O)N2C(CO)C(c3ccc(-c4ccncc4)cc3)C2C1

>  <smiles>  (164) 
[H]OC([H])([H])C1([H])N2C(=O)C([H])=C(C([H])([H])[H])C([H])([H])C2([H])C1([H])c1c([H])c([H])c(-c2c([H])c([H])[n+]([H])c([H])c2[H])c([H])c1[H]

$$$$
56:0:0
     RDKit          3D

 44 50  0  0  1  0  0  0  0  0999 V2000
    0.7524    3.1718    3.9556 O   0  0  0  0  0  0  0  0  0  0  0  0
    0.5215    1.9742    3.7780 C   0  0  0  0  0  0  0  0  0  0  0  0
    1.2832    1.1574    2.7445 C   0  0  2  0  0  0  0  0  0  0  0  0
    0.6956   -0.2789    2.9483 C   0  0  2  0  0  0  0  0  0  0  0  0
   -0.3308   -0.0747    4.0601 C   0  0  0  0  0  0  0  0  0  0  0  0
   -1.0309   -0.9942    4.4869 O   0  0  0  0  0  0  0  0  0  0  0  0
   -0.3564    1.2118    4.4502 N   0  0  0  0  0  0  0  0  0  0  0  0
   -1.2104    1.7189    5.4708 C   0  0  0  0  0  0  0  0  0  0  0  0
   -1.4099    1.0708    6.6271 N   0  0  0  0  0  0  0  0  0  0  0  0
   -2.2369    1.7891    7.4882 C   0  0  0  0  0  0  0  0  0  0  0  0
   -2.6946    2.9685    6.9560 C   0  0  0  0  0  0  0  0  0  0  0  0
   -2.0913    3.2417    5.3509 S   0  0  0  0  0  0  0  0  0  0  0  0
    1.8237   -1.3125    3.2886 C   0  0  2  0  0  0  0  0  0  0  0  0
    2.5784   -0.7707    4.5107 C   0  0  0  0  0  0  0  0  0  0  0  0
    2.7463   -1.4604    5.7255 C   0  0  0  0  0  0  0  0  0  0  0  0
    3.4609   -0.8286    6.7650 C   0  0  0  0  0  0  0  0  0  0  0  0
    3.9972    0.4670    6.5885 C   0  0  0  0  0  0  0  0  0  0  0  0
    3.8274    1.1575    5.3691 C   0  0  0  0  0  0  0  0  0  0  0  0
    3.1116    0.5290    4.3336 C   0  0  0  0  0  0  0  0  0  0  0  0
    2.8336    1.1460    2.9522 C   0  0  1  0  0  0  0  0  0  0  0  0
    3.3043    0.0922    1.9896 C   0  0  0  0  0  0  0  0  0  0  0  0
    4.1445    0.1428    0.8985 N   0  0  0  0  0  0  0  0  0  0  0  0
    4.1934   -1.1165    0.3113 C   0  0  0  0  0  0  0  0  0  0  0  0
    4.8862   -1.6007   -0.8103 C   0  0  0  0  0  0  0  0  0  0  0  0
    4.7578   -2.9505   -1.1859 C   0  0  0  0  0  0  0  0  0  0  0  0
    3.9223   -3.8029   -0.4390 C   0  0  0  0  0  0  0  0  0  0  0  0
    3.2162   -3.3127    0.6777 C   0  0  0  0  0  0  0  0  0  0  0  0
    3.3388   -1.9657    1.0863 C   0  0  0  0  0  0  0  0  0  0  0  0
    2.7974   -1.1628    2.1411 C   0  0  0  0  0  0  0  0  0  0  0  0
    4.6083    0.9826    0.5758 H   0  0  0  0  0  0  0  0  0  0  0  0
    1.0307    1.5372    1.7504 H   0  0  0  0  0  0  0  0  0  0  0  0
    0.1873   -0.5905    2.0369 H   0  0  0  0  0  0  0  0  0  0  0  0
   -2.4591    1.3728    8.4626 H   0  0  0  0  0  0  0  0  0  0  0  0
   -3.3502    3.6923    7.4171 H   0  0  0  0  0  0  0  0  0  0  0  0
    1.4603   -2.3316    3.4139 H   0  0  0  0  0  0  0  0  0  0  0  0
    2.3356   -2.4525    5.8593 H   0  0  0  0  0  0  0  0  0  0  0  0
    3.5934   -1.3374    7.7070 H   0  0  0  0  0  0  0  0  0  0  0  0
    4.5338    0.9367    7.3970 H   0  0  0  0  0  0  0  0  0  0  0  0
    4.2362    2.1495    5.2315 H   0  0  0  0  0  0  0  0  0  0  0  0
    3.3049    2.1167    2.8018 H   0  0  0  0  0  0  0  0  0  0  0  0
    5.5051   -0.9249   -1.3724 H   0  0  0  0  0  0  0  0  0  0  0  0
    5.2946   -3.3300   -2.0406 H   0  0  0  0  0  0  0  0  0  0  0  0
    3.8142   -4.8410   -0.7210 H   0  0  0  0  0  0  0  0  0  0  0  0
    2.5758   -3.9691    1.2441 H   0  0  0  0  0  0  0  0  0  0  0  0
  1  2  2  0
  2  3  1  0
  2  7  1  0
  3 20  1  0
  3 31  1  6
  3  4  1  0
  4 13  1  0
  4 32  1  6
  4  5  1  0
  5  6  2  0
  5  7  1  0
  7  8  1  0
  8 12  1  0
  8  9  2  0
  9 10  1  0
 10 11  2  0
 10 33  1  0
 11 12  1  0
 11 34  1  0
 13 29  1  0
 13 14  1  0
 13 35  1  1
 14 19  2  0
 14 15  1  0
 15 16  2  0
 15 36  1  0
 16 17  1  0
 16 37  1  0
 17 18  2  0
 17 38  1  0
 18 19  1  0
 18 39  1  0
 19 20  1  0
 20 21  1  0
 20 40  1  6
 21 29  2  0
 21 22  1  0
 22 30  1  0
 22 23  1  0
 23 28  2  0
 23 24  1  0
 24 25  2  0
 24 41  1  0
 25 26  1  0
 25 42  1  0
 26 27  2  0
 26 43  1  0
 27 28  1  0
 27 44  1  0
 28 29  1  0
M  END
>  <i_m_ct_stereo_status>  (165) 
1

>  <s_m_source_file>  (165) 
/var/tmp/pbs.5076255.sched01/tmpr6ewtwjb/42o4phu6d4.sdf

>  <i_m_source_file_index>  (165) 
42

>  <i_lp_mmshare_version>  (165) 
48012

>  <i_f3d_flags>  (165) 
0

>  <s_epik_input>  (165) 
czFbY0hdW2NIXW5jMS1uKGMyW09IXSljKFtPSF0pYyhjMjMpW0NAQEhdNGM1YyhbY0hdW2NIXVtjSF1bY0hdNSlbQ0BIXTNjNmM0YzdjKFtuSF02KVtjSF1bY0hdW2NIXVtjSF03

>  <s_epik_cmdline>  (165) 
J2VwaWtfcHl0aG9uJywgJy1waHQnLCAnMi4wJywgJy1waCcsICc3LjAnLCAnLXRuJywgJzgnLCAnLW1hJywgJzIwMCcsICctaW1hZScsICc8aW5maWxlLm1hZT4nLCAnLW9tYWUnLCAnPG91dGZpbGUubWFlPic=

>  <r_lp_tautomer_probability>  (165) 
1

>  <r_epik_Ionization_Penalty>  (165) 
0.000138112

>  <r_epik_Ionization_Penalty_Charging>  (165) 
0

>  <r_epik_Ionization_Penalty_Neutral>  (165) 
0.000138112

>  <r_epik_State_Penalty>  (165) 
-0

>  <r_epik_Charging_Adjusted_Penalty>  (165) 
0

>  <i_epik_Tot_Q>  (165) 
0

>  <i_epik_Tot_abs_Q>  (165) 
0

>  <s_lp_Force_Field>  (165) 
OPLS3e

>  <r_lp_Energy>  (165) 
69.9122

>  <b_lp_Chiralities_Consistent>  (165) 
1

>  <s_lp_Variant>  (165) 
56:0-1

>  <s_i_glide_gridfile>  (165) 
pfpi4k_grid

>  <i_i_glide_lignum>  (165) 
42

>  <i_i_glide_rotatable_bonds>  (165) 
1

>  <r_i_docking_score>  (165) 
-3.16984

>  <r_i_glide_ligand_efficiency>  (165) 
-0.109305

>  <r_i_glide_ligand_efficiency_sa>  (165) 
-0.335819

>  <r_i_glide_ligand_efficiency_ln>  (165) 
-0.725813

>  <r_i_glide_gscore>  (165) 
-3.16984

>  <r_i_glide_lipo>  (165) 
-0.186692

>  <r_i_glide_hbond>  (165) 
-0.265805

>  <r_i_glide_metal>  (165) 
-0

>  <r_i_glide_rewards>  (165) 
-0.699204

>  <r_i_glide_evdw>  (165) 
-30.8966

>  <r_i_glide_ecoul>  (165) 
-3.561

>  <r_i_glide_erotb>  (165) 
0.123918

>  <r_i_glide_esite>  (165) 
-0.0630786

>  <r_i_glide_emodel>  (165) 
-41.4264

>  <r_i_glide_energy>  (165) 
-34.4576

>  <r_i_glide_einternal>  (165) 
0.0542586

>  <r_i_glide_intrahb_reward>  (165) 
-0

>  <i_i_glide_confnum>  (165) 
2

>  <i_i_glide_posenum>  (165) 
18

>  <r_i_glide_eff_state_penalty>  (165) 
0

>  <ligand_id>  (165) 
56

>  <original_smiles>  (165) 
Oc1c2c(c(O)n1-c1nccs1)C1c3ccccc3C2c2[nH]c3ccccc3c21

>  <smiles>  (165) 
[H]c1nc(N2C(=O)C3([H])C4([H])c5c([H])c([H])c([H])c([H])c5C([H])(c5c4c4c([H])c([H])c([H])c([H])c4n5[H])C3([H])C2=O)sc1[H]

$$$$
56:0:1
     RDKit          3D

 44 50  0  0  1  0  0  0  0  0999 V2000
    2.5408    2.6066    4.7194 O   0  0  0  0  0  0  0  0  0  0  0  0
    2.0418    1.9091    3.8335 C   0  0  0  0  0  0  0  0  0  0  0  0
    2.9017    1.1688    2.8264 C   0  0  2  0  0  0  0  0  0  0  0  0
    1.8537    0.4547    1.9114 C   0  0  2  0  0  0  0  0  0  0  0  0
    0.5359    0.9040    2.5280 C   0  0  0  0  0  0  0  0  0  0  0  0
   -0.5473    0.5422    2.0896 O   0  0  0  0  0  0  0  0  0  0  0  0
    0.7389    1.7071    3.5902 N   0  0  0  0  0  0  0  0  0  0  0  0
   -0.3226    2.2543    4.3521 C   0  0  0  0  0  0  0  0  0  0  0  0
   -0.3072    2.2489    5.6927 N   0  0  0  0  0  0  0  0  0  0  0  0
   -1.4481    2.8377    6.2352 C   0  0  0  0  0  0  0  0  0  0  0  0
   -2.3527    3.2541    5.2876 C   0  0  0  0  0  0  0  0  0  0  0  0
   -1.7857    2.9602    3.6676 S   0  0  0  0  0  0  0  0  0  0  0  0
    2.0996   -1.0939    1.9084 C   0  0  2  0  0  0  0  0  0  0  0  0
    2.1000   -1.5651    3.3717 C   0  0  0  0  0  0  0  0  0  0  0  0
    1.2472   -2.5492    3.9035 C   0  0  0  0  0  0  0  0  0  0  0  0
    1.3658   -2.8743    5.2706 C   0  0  0  0  0  0  0  0  0  0  0  0
    2.3220   -2.2257    6.0861 C   0  0  0  0  0  0  0  0  0  0  0  0
    3.1773   -1.2405    5.5509 C   0  0  0  0  0  0  0  0  0  0  0  0
    3.0584   -0.9154    4.1888 C   0  0  0  0  0  0  0  0  0  0  0  0
    3.9043    0.1363    3.4527 C   0  0  1  0  0  0  0  0  0  0  0  0
    4.4403   -0.5990    2.2562 C   0  0  0  0  0  0  0  0  0  0  0  0
    5.7110   -0.7326    1.7382 N   0  0  0  0  0  0  0  0  0  0  0  0
    5.6413   -1.4796    0.5675 C   0  0  0  0  0  0  0  0  0  0  0  0
    6.6355   -1.9112   -0.3258 C   0  0  0  0  0  0  0  0  0  0  0  0
    6.2809   -2.6703   -1.4578 C   0  0  0  0  0  0  0  0  0  0  0  0
    4.9305   -2.9924   -1.6840 C   0  0  0  0  0  0  0  0  0  0  0  0
    3.9333   -2.5541   -0.7877 C   0  0  0  0  0  0  0  0  0  0  0  0
    4.2612   -1.7981    0.3619 C   0  0  0  0  0  0  0  0  0  0  0  0
    3.5351   -1.2260    1.4568 C   0  0  0  0  0  0  0  0  0  0  0  0
    6.5416   -0.3295    2.1547 H   0  0  0  0  0  0  0  0  0  0  0  0
    3.4185    1.9263    2.2334 H   0  0  0  0  0  0  0  0  0  0  0  0
    1.8968    0.8446    0.8889 H   0  0  0  0  0  0  0  0  0  0  0  0
   -1.5325    2.9052    7.3122 H   0  0  0  0  0  0  0  0  0  0  0  0
   -3.3156    3.7063    5.4401 H   0  0  0  0  0  0  0  0  0  0  0  0
    1.4033   -1.6401    1.2824 H   0  0  0  0  0  0  0  0  0  0  0  0
    0.5189   -3.0446    3.2760 H   0  0  0  0  0  0  0  0  0  0  0  0
    0.7189   -3.6208    5.7003 H   0  0  0  0  0  0  0  0  0  0  0  0
    2.3959   -2.4802    7.1303 H   0  0  0  0  0  0  0  0  0  0  0  0
    3.9098   -0.7417    6.1713 H   0  0  0  0  0  0  0  0  0  0  0  0
    4.6869    0.5883    4.0668 H   0  0  0  0  0  0  0  0  0  0  0  0
    7.6627   -1.6782   -0.1122 H   0  0  0  0  0  0  0  0  0  0  0  0
    7.0441   -3.0215   -2.1392 H   0  0  0  0  0  0  0  0  0  0  0  0
    4.6466   -3.5937   -2.5360 H   0  0  0  0  0  0  0  0  0  0  0  0
    2.8981   -2.8008   -0.9633 H   0  0  0  0  0  0  0  0  0  0  0  0
  1  2  2  0
  2  3  1  0
  2  7  1  0
  3 20  1  0
  3 31  1  6
  3  4  1  0
  4 13  1  0
  4 32  1  6
  4  5  1  0
  5  6  2  0
  5  7  1  0
  7  8  1  0
  8 12  1  0
  8  9  2  0
  9 10  1  0
 10 11  2  0
 10 33  1  0
 11 12  1  0
 11 34  1  0
 13 29  1  0
 13 14  1  0
 13 35  1  6
 14 19  2  0
 14 15  1  0
 15 16  2  0
 15 36  1  0
 16 17  1  0
 16 37  1  0
 17 18  2  0
 17 38  1  0
 18 19  1  0
 18 39  1  0
 19 20  1  0
 20 21  1  0
 20 40  1  1
 21 29  2  0
 21 22  1  0
 22 30  1  0
 22 23  1  0
 23 28  2  0
 23 24  1  0
 24 25  2  0
 24 41  1  0
 25 26  1  0
 25 42  1  0
 26 27  2  0
 26 43  1  0
 27 28  1  0
 27 44  1  0
 28 29  1  0
M  END
>  <i_m_ct_stereo_status>  (166) 
1

>  <s_m_source_file>  (166) 
/var/tmp/pbs.5076255.sched01/tmpr6ewtwjb/42o4phu6d4.sdf

>  <i_m_source_file_index>  (166) 
42

>  <i_lp_mmshare_version>  (166) 
48012

>  <i_f3d_flags>  (166) 
0

>  <s_epik_input>  (166) 
czFbY0hdW2NIXW5jMS1uKGMyW09IXSljKFtPSF0pYyhjMjMpW0NAQEhdNGM1YyhbY0hdW2NIXVtjSF1bY0hdNSlbQ0BIXTNjNmM0YzdjKFtuSF02KVtjSF1bY0hdW2NIXVtjSF03

>  <s_epik_cmdline>  (166) 
J2VwaWtfcHl0aG9uJywgJy1waHQnLCAnMi4wJywgJy1waCcsICc3LjAnLCAnLXRuJywgJzgnLCAnLW1hJywgJzIwMCcsICctaW1hZScsICc8aW5maWxlLm1hZT4nLCAnLW9tYWUnLCAnPG91dGZpbGUubWFlPic=

>  <r_lp_tautomer_probability>  (166) 
1

>  <r_epik_Ionization_Penalty>  (166) 
0.000138112

>  <r_epik_Ionization_Penalty_Charging>  (166) 
0

>  <r_epik_Ionization_Penalty_Neutral>  (166) 
0.000138112

>  <r_epik_State_Penalty>  (166) 
-0

>  <r_epik_Charging_Adjusted_Penalty>  (166) 
0

>  <i_epik_Tot_Q>  (166) 
0

>  <i_epik_Tot_abs_Q>  (166) 
0

>  <s_lp_Force_Field>  (166) 
OPLS3e

>  <r_lp_Energy>  (166) 
69.9122

>  <b_lp_Chiralities_Consistent>  (166) 
1

>  <s_lp_Variant>  (166) 
56:0-1

>  <s_i_glide_gridfile>  (166) 
pfpi4k_grid

>  <i_i_glide_lignum>  (166) 
42

>  <i_i_glide_rotatable_bonds>  (166) 
1

>  <r_i_docking_score>  (166) 
-3.15639

>  <r_i_glide_ligand_efficiency>  (166) 
-0.108841

>  <r_i_glide_ligand_efficiency_sa>  (166) 
-0.334394

>  <r_i_glide_ligand_efficiency_ln>  (166) 
-0.722733

>  <r_i_glide_gscore>  (166) 
-3.15639

>  <r_i_glide_lipo>  (166) 
-0.263633

>  <r_i_glide_hbond>  (166) 
-0.180428

>  <r_i_glide_metal>  (166) 
-0

>  <r_i_glide_rewards>  (166) 
-0.699204

>  <r_i_glide_evdw>  (166) 
-32.0097

>  <r_i_glide_ecoul>  (166) 
-3.04373

>  <r_i_glide_erotb>  (166) 
0.123918

>  <r_i_glide_esite>  (166) 
-0.0799947

>  <r_i_glide_emodel>  (166) 
-42.0151

>  <r_i_glide_energy>  (166) 
-35.0534

>  <r_i_glide_einternal>  (166) 
0.0082806

>  <r_i_glide_intrahb_reward>  (166) 
-0

>  <i_i_glide_confnum>  (166) 
1

>  <i_i_glide_posenum>  (166) 
1

>  <r_i_glide_eff_state_penalty>  (166) 
0

>  <ligand_id>  (166) 
56

>  <original_smiles>  (166) 
Oc1c2c(c(O)n1-c1nccs1)C1c3ccccc3C2c2[nH]c3ccccc3c21

>  <smiles>  (166) 
[H]c1nc(N2C(=O)C3([H])C4([H])c5c([H])c([H])c([H])c([H])c5C([H])(c5c4c4c([H])c([H])c([H])c([H])c4n5[H])C3([H])C2=O)sc1[H]

$$$$
56:0:2
     RDKit          3D

 44 50  0  0  1  0  0  0  0  0999 V2000
    0.8220    3.2055    3.9662 O   0  0  0  0  0  0  0  0  0  0  0  0
    0.6000    2.0109    3.7768 C   0  0  0  0  0  0  0  0  0  0  0  0
    1.3593    1.1867    2.7440 C   0  0  2  0  0  0  0  0  0  0  0  0
    0.7604   -0.2521    2.9443 C   0  0  2  0  0  0  0  0  0  0  0  0
   -0.2580   -0.0366    4.0580 C   0  0  0  0  0  0  0  0  0  0  0  0
   -0.9575   -0.9497    4.5030 O   0  0  0  0  0  0  0  0  0  0  0  0
   -0.2784    1.2461    4.4413 N   0  0  0  0  0  0  0  0  0  0  0  0
   -1.0693    1.7119    5.5104 C   0  0  0  0  0  0  0  0  0  0  0  0
   -1.9490    2.7060    5.3629 N   0  0  0  0  0  0  0  0  0  0  0  0
   -2.6175    2.9720    6.5582 C   0  0  0  0  0  0  0  0  0  0  0  0
   -2.2309    2.1680    7.6023 C   0  0  0  0  0  0  0  0  0  0  0  0
   -0.9936    1.0452    7.1357 S   0  0  0  0  0  0  0  0  0  0  0  0
    1.8885   -1.2905    3.2870 C   0  0  2  0  0  0  0  0  0  0  0  0
    2.6488   -0.7518    4.5098 C   0  0  0  0  0  0  0  0  0  0  0  0
    2.8208   -1.4427    5.7249 C   0  0  0  0  0  0  0  0  0  0  0  0
    3.5443   -0.8159    6.7623 C   0  0  0  0  0  0  0  0  0  0  0  0
    4.0883    0.4767    6.5816 C   0  0  0  0  0  0  0  0  0  0  0  0
    3.9181    1.1667    5.3624 C   0  0  0  0  0  0  0  0  0  0  0  0
    3.1915    0.5441    4.3313 C   0  0  0  0  0  0  0  0  0  0  0  0
    2.9130    1.1611    2.9519 C   0  0  1  0  0  0  0  0  0  0  0  0
    3.3747    0.1001    1.9869 C   0  0  0  0  0  0  0  0  0  0  0  0
    4.2155    0.1406    0.8913 N   0  0  0  0  0  0  0  0  0  0  0  0
    4.2576   -1.1192    0.3072 C   0  0  0  0  0  0  0  0  0  0  0  0
    4.9455   -1.6034   -0.8160 C   0  0  0  0  0  0  0  0  0  0  0  0
    4.8087   -2.9535   -1.1907 C   0  0  0  0  0  0  0  0  0  0  0  0
    3.9694   -3.8012   -0.4421 C   0  0  0  0  0  0  0  0  0  0  0  0
    3.2680   -3.3059    0.6769 C   0  0  0  0  0  0  0  0  0  0  0  0
    3.3975   -1.9587    1.0839 C   0  0  0  0  0  0  0  0  0  0  0  0
    2.8607   -1.1508    2.1397 C   0  0  0  0  0  0  0  0  0  0  0  0
    4.6760    0.9790    0.5612 H   0  0  0  0  0  0  0  0  0  0  0  0
    1.1134    1.5663    1.7471 H   0  0  0  0  0  0  0  0  0  0  0  0
    0.2276   -0.5600    2.0409 H   0  0  0  0  0  0  0  0  0  0  0  0
   -3.3611    3.7542    6.5628 H   0  0  0  0  0  0  0  0  0  0  0  0
   -2.5945    2.1825    8.6181 H   0  0  0  0  0  0  0  0  0  0  0  0
    1.5217   -2.3068    3.4183 H   0  0  0  0  0  0  0  0  0  0  0  0
    2.4055   -2.4327    5.8612 H   0  0  0  0  0  0  0  0  0  0  0  0
    3.6750   -1.3241    7.7051 H   0  0  0  0  0  0  0  0  0  0  0  0
    4.6295    0.9435    7.3894 H   0  0  0  0  0  0  0  0  0  0  0  0
    4.3341    2.1543    5.2244 H   0  0  0  0  0  0  0  0  0  0  0  0
    3.3964    2.1258    2.7995 H   0  0  0  0  0  0  0  0  0  0  0  0
    5.5679   -0.9337   -1.3801 H   0  0  0  0  0  0  0  0  0  0  0  0
    5.3429   -3.3371   -2.0474 H   0  0  0  0  0  0  0  0  0  0  0  0
    3.8572   -4.8391   -0.7225 H   0  0  0  0  0  0  0  0  0  0  0  0
    2.6229   -3.9585    1.2453 H   0  0  0  0  0  0  0  0  0  0  0  0
  1  2  2  0
  2  3  1  0
  2  7  1  0
  3 20  1  0
  3 31  1  6
  3  4  1  0
  4 13  1  0
  4 32  1  6
  4  5  1  0
  5  6  2  0
  5  7  1  0
  7  8  1  0
  8 12  1  0
  8  9  2  0
  9 10  1  0
 10 11  2  0
 10 33  1  0
 11 12  1  0
 11 34  1  0
 13 29  1  0
 13 14  1  0
 13 35  1  1
 14 19  2  0
 14 15  1  0
 15 16  2  0
 15 36  1  0
 16 17  1  0
 16 37  1  0
 17 18  2  0
 17 38  1  0
 18 19  1  0
 18 39  1  0
 19 20  1  0
 20 21  1  0
 20 40  1  6
 21 29  2  0
 21 22  1  0
 22 30  1  0
 22 23  1  0
 23 28  2  0
 23 24  1  0
 24 25  2  0
 24 41  1  0
 25 26  1  0
 25 42  1  0
 26 27  2  0
 26 43  1  0
 27 28  1  0
 27 44  1  0
 28 29  1  0
M  END
>  <i_m_ct_stereo_status>  (167) 
1

>  <s_m_source_file>  (167) 
/var/tmp/pbs.5076255.sched01/tmpr6ewtwjb/42o4phu6d4.sdf

>  <i_m_source_file_index>  (167) 
42

>  <i_lp_mmshare_version>  (167) 
48012

>  <i_f3d_flags>  (167) 
0

>  <s_epik_input>  (167) 
czFbY0hdW2NIXW5jMS1uKGMyW09IXSljKFtPSF0pYyhjMjMpW0NAQEhdNGM1YyhbY0hdW2NIXVtjSF1bY0hdNSlbQ0BIXTNjNmM0YzdjKFtuSF02KVtjSF1bY0hdW2NIXVtjSF03

>  <s_epik_cmdline>  (167) 
J2VwaWtfcHl0aG9uJywgJy1waHQnLCAnMi4wJywgJy1waCcsICc3LjAnLCAnLXRuJywgJzgnLCAnLW1hJywgJzIwMCcsICctaW1hZScsICc8aW5maWxlLm1hZT4nLCAnLW9tYWUnLCAnPG91dGZpbGUubWFlPic=

>  <r_lp_tautomer_probability>  (167) 
1

>  <r_epik_Ionization_Penalty>  (167) 
0.000138112

>  <r_epik_Ionization_Penalty_Charging>  (167) 
0

>  <r_epik_Ionization_Penalty_Neutral>  (167) 
0.000138112

>  <r_epik_State_Penalty>  (167) 
-0

>  <r_epik_Charging_Adjusted_Penalty>  (167) 
0

>  <i_epik_Tot_Q>  (167) 
0

>  <i_epik_Tot_abs_Q>  (167) 
0

>  <s_lp_Force_Field>  (167) 
OPLS3e

>  <r_lp_Energy>  (167) 
69.9122

>  <b_lp_Chiralities_Consistent>  (167) 
1

>  <s_lp_Variant>  (167) 
56:0-1

>  <s_i_glide_gridfile>  (167) 
pfpi4k_grid

>  <i_i_glide_lignum>  (167) 
42

>  <i_i_glide_rotatable_bonds>  (167) 
1

>  <r_i_docking_score>  (167) 
-3.02741

>  <r_i_glide_ligand_efficiency>  (167) 
-0.104394

>  <r_i_glide_ligand_efficiency_sa>  (167) 
-0.32073

>  <r_i_glide_ligand_efficiency_ln>  (167) 
-0.6932

>  <r_i_glide_gscore>  (167) 
-3.02741

>  <r_i_glide_lipo>  (167) 
-0.181369

>  <r_i_glide_hbond>  (167) 
-0.277302

>  <r_i_glide_metal>  (167) 
-0

>  <r_i_glide_rewards>  (167) 
-0.699204

>  <r_i_glide_evdw>  (167) 
-29.973

>  <r_i_glide_ecoul>  (167) 
-2.88627

>  <r_i_glide_erotb>  (167) 
0.123918

>  <r_i_glide_esite>  (167) 
-0.0618647

>  <r_i_glide_emodel>  (167) 
-39.3256

>  <r_i_glide_energy>  (167) 
-32.8593

>  <r_i_glide_einternal>  (167) 
0.331311

>  <r_i_glide_intrahb_reward>  (167) 
-0

>  <i_i_glide_confnum>  (167) 
3

>  <i_i_glide_posenum>  (167) 
15

>  <r_i_glide_eff_state_penalty>  (167) 
0

>  <ligand_id>  (167) 
56

>  <original_smiles>  (167) 
Oc1c2c(c(O)n1-c1nccs1)C1c3ccccc3C2c2[nH]c3ccccc3c21

>  <smiles>  (167) 
[H]c1nc(N2C(=O)C3([H])C4([H])c5c([H])c([H])c([H])c([H])c5C([H])(c5c4c4c([H])c([H])c([H])c([H])c4n5[H])C3([H])C2=O)sc1[H]

$$$$
56:1:0
     RDKit          3D

 44 50  0  0  1  0  0  0  0  0999 V2000
    4.2401   -0.3188    0.2106 O   0  0  0  0  0  0  0  0  0  0  0  0
    3.8745   -1.2449    0.9288 C   0  0  0  0  0  0  0  0  0  0  0  0
    2.5759   -1.1951    1.6954 C   0  0  1  0  0  0  0  0  0  0  0  0
    2.5894   -2.5370    2.4880 C   0  0  1  0  0  0  0  0  0  0  0  0
    3.9046   -3.1619    2.0564 C   0  0  0  0  0  0  0  0  0  0  0  0
    4.2670   -4.2533    2.4745 O   0  0  0  0  0  0  0  0  0  0  0  0
    4.5536   -2.3742    1.1665 N   0  0  0  0  0  0  0  0  0  0  0  0
    5.7969   -2.7002    0.5393 C   0  0  0  0  0  0  0  0  0  0  0  0
    6.7989   -3.2818    1.2141 N   0  0  0  0  0  0  0  0  0  0  0  0
    7.9390   -3.4847    0.4337 C   0  0  0  0  0  0  0  0  0  0  0  0
    7.7936   -3.0375   -0.8636 C   0  0  0  0  0  0  0  0  0  0  0  0
    6.2099   -2.3844   -1.1614 S   0  0  0  0  0  0  0  0  0  0  0  0
    2.4802   -2.2710    4.0247 C   0  0  2  0  0  0  0  0  0  0  0  0
    1.1742   -1.4817    4.1476 C   0  0  0  0  0  0  0  0  0  0  0  0
    0.0506   -1.8907    4.8862 C   0  0  0  0  0  0  0  0  0  0  0  0
   -1.0922   -1.0580    4.8893 C   0  0  0  0  0  0  0  0  0  0  0  0
   -1.1032    0.1610    4.1647 C   0  0  0  0  0  0  0  0  0  0  0  0
    0.0251    0.5695    3.4191 C   0  0  0  0  0  0  0  0  0  0  0  0
    1.1610   -0.2598    3.4179 C   0  0  0  0  0  0  0  0  0  0  0  0
    2.4514    0.0274    2.6528 C   0  0  1  0  0  0  0  0  0  0  0  0
    3.5201   -0.1183    3.6954 C   0  0  0  0  0  0  0  0  0  0  0  0
    4.5582    0.7059    4.0797 N   0  0  0  0  0  0  0  0  0  0  0  0
    5.3097    0.0653    5.0604 C   0  0  0  0  0  0  0  0  0  0  0  0
    6.4657    0.4554    5.7736 C   0  0  0  0  0  0  0  0  0  0  0  0
    7.0300   -0.4121    6.7369 C   0  0  0  0  0  0  0  0  0  0  0  0
    6.4383   -1.6690    6.9617 C   0  0  0  0  0  0  0  0  0  0  0  0
    5.2854   -2.0583    6.2355 C   0  0  0  0  0  0  0  0  0  0  0  0
    4.6911   -1.2035    5.2760 C   0  0  0  0  0  0  0  0  0  0  0  0
    3.5583   -1.2801    4.3965 C   0  0  0  0  0  0  0  0  0  0  0  0
    4.7332    1.6112    3.6628 H   0  0  0  0  0  0  0  0  0  0  0  0
    1.7846   -1.1923    0.9566 H   0  0  0  0  0  0  0  0  0  0  0  0
    1.7836   -3.1964    2.1559 H   0  0  0  0  0  0  0  0  0  0  0  0
    8.8066   -3.9546    0.8917 H   0  0  0  0  0  0  0  0  0  0  0  0
    8.5073   -3.0676   -1.6715 H   0  0  0  0  0  0  0  0  0  0  0  0
    2.5038   -3.1710    4.6314 H   0  0  0  0  0  0  0  0  0  0  0  0
    0.0609   -2.8295    5.4338 H   0  0  0  0  0  0  0  0  0  0  0  0
   -1.9738   -1.3605    5.4359 H   0  0  0  0  0  0  0  0  0  0  0  0
   -1.9924    0.7768    4.1642 H   0  0  0  0  0  0  0  0  0  0  0  0
    0.0135    1.4986    2.8526 H   0  0  0  0  0  0  0  0  0  0  0  0
    2.4718    0.9952    2.1599 H   0  0  0  0  0  0  0  0  0  0  0  0
    6.9187    1.4130    5.5797 H   0  0  0  0  0  0  0  0  0  0  0  0
    7.9192   -0.1138    7.2835 H   0  0  0  0  0  0  0  0  0  0  0  0
    6.8662   -2.3492    7.6928 H   0  0  0  0  0  0  0  0  0  0  0  0
    4.8428   -3.0260    6.4165 H   0  0  0  0  0  0  0  0  0  0  0  0
  1  2  2  0
  2  3  1  0
  2  7  1  0
  3 20  1  0
  3 31  1  6
  3  4  1  0
  4 13  1  0
  4 32  1  6
  4  5  1  0
  5  6  2  0
  5  7  1  0
  7  8  1  0
  8 12  1  0
  8  9  2  0
  9 10  1  0
 10 11  2  0
 10 33  1  0
 11 12  1  0
 11 34  1  0
 13 29  1  0
 13 14  1  0
 13 35  1  1
 14 19  2  0
 14 15  1  0
 15 16  2  0
 15 36  1  0
 16 17  1  0
 16 37  1  0
 17 18  2  0
 17 38  1  0
 18 19  1  0
 18 39  1  0
 19 20  1  0
 20 21  1  0
 20 40  1  6
 21 29  2  0
 21 22  1  0
 22 30  1  0
 22 23  1  0
 23 28  2  0
 23 24  1  0
 24 25  2  0
 24 41  1  0
 25 26  1  0
 25 42  1  0
 26 27  2  0
 26 43  1  0
 27 28  1  0
 27 44  1  0
 28 29  1  0
M  END
>  <i_m_ct_stereo_status>  (168) 
1

>  <s_m_source_file>  (168) 
/var/tmp/pbs.5076255.sched01/tmpnszqc94g/84e4epk0lh.sdf

>  <i_m_source_file_index>  (168) 
1

>  <i_lp_mmshare_version>  (168) 
48012

>  <i_f3d_flags>  (168) 
0

>  <s_epik_input>  (168) 
czFbY0hdW2NIXW5jMS1uKGMyW09IXSljKFtPSF0pYyhjMjMpW0NAQEhdNGM1YyhbY0hdW2NIXVtjSF1bY0hdNSlbQ0BIXTNjNmM0YzdjKFtuSF02KVtjSF1bY0hdW2NIXVtjSF03

>  <s_epik_cmdline>  (168) 
J2VwaWtfcHl0aG9uJywgJy1waHQnLCAnMi4wJywgJy1waCcsICc3LjAnLCAnLXRuJywgJzgnLCAnLW1hJywgJzIwMCcsICctaW1hZScsICc8aW5maWxlLm1hZT4nLCAnLW9tYWUnLCAnPG91dGZpbGUubWFlPic=

>  <r_lp_tautomer_probability>  (168) 
1

>  <r_epik_Ionization_Penalty>  (168) 
0.000138112

>  <r_epik_Ionization_Penalty_Charging>  (168) 
0

>  <r_epik_Ionization_Penalty_Neutral>  (168) 
0.000138112

>  <r_epik_State_Penalty>  (168) 
-0

>  <r_epik_Charging_Adjusted_Penalty>  (168) 
0

>  <i_epik_Tot_Q>  (168) 
0

>  <i_epik_Tot_abs_Q>  (168) 
0

>  <s_lp_Force_Field>  (168) 
OPLS3e

>  <r_lp_Energy>  (168) 
69.5914

>  <b_lp_Chiralities_Consistent>  (168) 
1

>  <s_lp_Variant>  (168) 
56:0-2

>  <s_i_glide_gridfile>  (168) 
pfpi4k_grid

>  <i_i_glide_lignum>  (168) 
1

>  <i_i_glide_rotatable_bonds>  (168) 
1

>  <r_i_docking_score>  (168) 
-3.37971

>  <r_i_glide_ligand_efficiency>  (168) 
-0.116542

>  <r_i_glide_ligand_efficiency_sa>  (168) 
-0.358053

>  <r_i_glide_ligand_efficiency_ln>  (168) 
-0.773867

>  <r_i_glide_gscore>  (168) 
-3.37971

>  <r_i_glide_lipo>  (168) 
-0.641941

>  <r_i_glide_hbond>  (168) 
-0.276788

>  <r_i_glide_metal>  (168) 
-0

>  <r_i_glide_rewards>  (168) 
-0.719929

>  <r_i_glide_evdw>  (168) 
-28.3784

>  <r_i_glide_ecoul>  (168) 
-2.82428

>  <r_i_glide_erotb>  (168) 
0.123918

>  <r_i_glide_esite>  (168) 
-0.022405

>  <r_i_glide_emodel>  (168) 
-37.8863

>  <r_i_glide_energy>  (168) 
-31.2027

>  <r_i_glide_einternal>  (168) 
0.0969912

>  <r_i_glide_intrahb_reward>  (168) 
-0

>  <i_i_glide_confnum>  (168) 
1

>  <i_i_glide_posenum>  (168) 
18

>  <r_i_glide_eff_state_penalty>  (168) 
0

>  <ligand_id>  (168) 
56

>  <original_smiles>  (168) 
Oc1c2c(c(O)n1-c1nccs1)C1c3ccccc3C2c2[nH]c3ccccc3c21

>  <smiles>  (168) 
[H]c1nc(N2C(=O)C3([H])C4([H])c5c([H])c([H])c([H])c([H])c5C([H])(c5c4c4c([H])c([H])c([H])c([H])c4n5[H])C3([H])C2=O)sc1[H]

$$$$
56:1:1
     RDKit          3D

 44 50  0  0  1  0  0  0  0  0999 V2000
    4.5827   -0.3479    0.2188 O   0  0  0  0  0  0  0  0  0  0  0  0
    4.1880   -1.2190    0.9761 C   0  0  0  0  0  0  0  0  0  0  0  0
    2.8440   -1.1267    1.6737 C   0  0  1  0  0  0  0  0  0  0  0  0
    2.7874   -2.4534    2.4949 C   0  0  1  0  0  0  0  0  0  0  0  0
    4.1092   -3.1060    2.1533 C   0  0  0  0  0  0  0  0  0  0  0  0
    4.4363   -4.1742    2.6638 O   0  0  0  0  0  0  0  0  0  0  0  0
    4.8334   -2.3671    1.2940 N   0  0  0  0  0  0  0  0  0  0  0  0
    6.1075   -2.7627    0.7755 C   0  0  0  0  0  0  0  0  0  0  0  0
    7.0844   -1.8804    0.4884 N   0  0  0  0  0  0  0  0  0  0  0  0
    8.2584   -2.4850    0.0365 C   0  0  0  0  0  0  0  0  0  0  0  0
    8.1485   -3.8566   -0.0599 C   0  0  0  0  0  0  0  0  0  0  0  0
    6.5947   -4.4371    0.4471 S   0  0  0  0  0  0  0  0  0  0  0  0
    2.6180   -2.1585    4.0207 C   0  0  2  0  0  0  0  0  0  0  0  0
    1.3235   -1.3462    4.0701 C   0  0  0  0  0  0  0  0  0  0  0  0
    0.1602   -1.7241    4.7616 C   0  0  0  0  0  0  0  0  0  0  0  0
   -0.9664   -0.8733    4.6967 C   0  0  0  0  0  0  0  0  0  0  0  0
   -0.9224    0.3316    3.9476 C   0  0  0  0  0  0  0  0  0  0  0  0
    0.2470    0.7070    3.2487 C   0  0  0  0  0  0  0  0  0  0  0  0
    1.3680   -0.1386    3.3164 C   0  0  0  0  0  0  0  0  0  0  0  0
    2.7004    0.1133    2.6094 C   0  0  1  0  0  0  0  0  0  0  0  0
    3.7148   -0.0363    3.7020 C   0  0  0  0  0  0  0  0  0  0  0  0
    4.7464    0.7747    4.1200 N   0  0  0  0  0  0  0  0  0  0  0  0
    5.4395    0.1417    5.1483 C   0  0  0  0  0  0  0  0  0  0  0  0
    6.5694    0.5291    5.9093 C   0  0  0  0  0  0  0  0  0  0  0  0
    7.0711   -0.3313    6.9115 C   0  0  0  0  0  0  0  0  0  0  0  0
    6.4454   -1.5700    7.1364 C   0  0  0  0  0  0  0  0  0  0  0  0
    5.3189   -1.9544    6.3653 C   0  0  0  0  0  0  0  0  0  0  0  0
    4.7880   -1.1103    5.3603 C   0  0  0  0  0  0  0  0  0  0  0  0
    3.6961   -1.1828    4.4270 C   0  0  0  0  0  0  0  0  0  0  0  0
    4.9545    1.6726    3.7059 H   0  0  0  0  0  0  0  0  0  0  0  0
    2.0803   -1.1170    0.8955 H   0  0  0  0  0  0  0  0  0  0  0  0
    1.9894   -3.1059    2.1340 H   0  0  0  0  0  0  0  0  0  0  0  0
    9.1138   -1.8650   -0.2127 H   0  0  0  0  0  0  0  0  0  0  0  0
    8.8709   -4.5701   -0.4042 H   0  0  0  0  0  0  0  0  0  0  0  0
    2.5991   -3.0489    4.6432 H   0  0  0  0  0  0  0  0  0  0  0  0
    0.1284   -2.6528    5.3238 H   0  0  0  0  0  0  0  0  0  0  0  0
   -1.8783   -1.1491    5.2045 H   0  0  0  0  0  0  0  0  0  0  0  0
   -1.7993    0.9611    3.8906 H   0  0  0  0  0  0  0  0  0  0  0  0
    0.2789    1.6237    2.6642 H   0  0  0  0  0  0  0  0  0  0  0  0
    2.7613    1.0728    2.1021 H   0  0  0  0  0  0  0  0  0  0  0  0
    7.0440    1.4769    5.7227 H   0  0  0  0  0  0  0  0  0  0  0  0
    7.9332   -0.0343    7.4989 H   0  0  0  0  0  0  0  0  0  0  0  0
    6.8224   -2.2391    7.9038 H   0  0  0  0  0  0  0  0  0  0  0  0
    4.8507   -2.9083    6.5465 H   0  0  0  0  0  0  0  0  0  0  0  0
  1  2  2  0
  2  3  1  0
  2  7  1  0
  3 20  1  0
  3 31  1  6
  3  4  1  0
  4 13  1  0
  4 32  1  6
  4  5  1  0
  5  6  2  0
  5  7  1  0
  7  8  1  0
  8 12  1  0
  8  9  2  0
  9 10  1  0
 10 11  2  0
 10 33  1  0
 11 12  1  0
 11 34  1  0
 13 29  1  0
 13 14  1  0
 13 35  1  1
 14 19  2  0
 14 15  1  0
 15 16  2  0
 15 36  1  0
 16 17  1  0
 16 37  1  0
 17 18  2  0
 17 38  1  0
 18 19  1  0
 18 39  1  0
 19 20  1  0
 20 21  1  0
 20 40  1  6
 21 29  2  0
 21 22  1  0
 22 30  1  0
 22 23  1  0
 23 28  2  0
 23 24  1  0
 24 25  2  0
 24 41  1  0
 25 26  1  0
 25 42  1  0
 26 27  2  0
 26 43  1  0
 27 28  1  0
 27 44  1  0
 28 29  1  0
M  END
>  <i_m_ct_stereo_status>  (169) 
1

>  <s_m_source_file>  (169) 
/var/tmp/pbs.5076255.sched01/tmpnszqc94g/84e4epk0lh.sdf

>  <i_m_source_file_index>  (169) 
1

>  <i_lp_mmshare_version>  (169) 
48012

>  <i_f3d_flags>  (169) 
0

>  <s_epik_input>  (169) 
czFbY0hdW2NIXW5jMS1uKGMyW09IXSljKFtPSF0pYyhjMjMpW0NAQEhdNGM1YyhbY0hdW2NIXVtjSF1bY0hdNSlbQ0BIXTNjNmM0YzdjKFtuSF02KVtjSF1bY0hdW2NIXVtjSF03

>  <s_epik_cmdline>  (169) 
J2VwaWtfcHl0aG9uJywgJy1waHQnLCAnMi4wJywgJy1waCcsICc3LjAnLCAnLXRuJywgJzgnLCAnLW1hJywgJzIwMCcsICctaW1hZScsICc8aW5maWxlLm1hZT4nLCAnLW9tYWUnLCAnPG91dGZpbGUubWFlPic=

>  <r_lp_tautomer_probability>  (169) 
1

>  <r_epik_Ionization_Penalty>  (169) 
0.000138112

>  <r_epik_Ionization_Penalty_Charging>  (169) 
0

>  <r_epik_Ionization_Penalty_Neutral>  (169) 
0.000138112

>  <r_epik_State_Penalty>  (169) 
-0

>  <r_epik_Charging_Adjusted_Penalty>  (169) 
0

>  <i_epik_Tot_Q>  (169) 
0

>  <i_epik_Tot_abs_Q>  (169) 
0

>  <s_lp_Force_Field>  (169) 
OPLS3e

>  <r_lp_Energy>  (169) 
69.5914

>  <b_lp_Chiralities_Consistent>  (169) 
1

>  <s_lp_Variant>  (169) 
56:0-2

>  <s_i_glide_gridfile>  (169) 
pfpi4k_grid

>  <i_i_glide_lignum>  (169) 
1

>  <i_i_glide_rotatable_bonds>  (169) 
1

>  <r_i_docking_score>  (169) 
-3.36864

>  <r_i_glide_ligand_efficiency>  (169) 
-0.11616

>  <r_i_glide_ligand_efficiency_sa>  (169) 
-0.35688

>  <r_i_glide_ligand_efficiency_ln>  (169) 
-0.771333

>  <r_i_glide_gscore>  (169) 
-3.36864

>  <r_i_glide_lipo>  (169) 
-0.794054

>  <r_i_glide_hbond>  (169) 
-0.299061

>  <r_i_glide_metal>  (169) 
-0

>  <r_i_glide_rewards>  (169) 
-0.74084

>  <r_i_glide_evdw>  (169) 
-28.8046

>  <r_i_glide_ecoul>  (169) 
-1.42435

>  <r_i_glide_erotb>  (169) 
0.123918

>  <r_i_glide_esite>  (169) 
-0.00471961

>  <r_i_glide_emodel>  (169) 
-36.7106

>  <r_i_glide_energy>  (169) 
-30.2289

>  <r_i_glide_einternal>  (169) 
0.436718

>  <r_i_glide_intrahb_reward>  (169) 
-0

>  <i_i_glide_confnum>  (169) 
2

>  <i_i_glide_posenum>  (169) 
11

>  <r_i_glide_eff_state_penalty>  (169) 
0

>  <ligand_id>  (169) 
56

>  <original_smiles>  (169) 
Oc1c2c(c(O)n1-c1nccs1)C1c3ccccc3C2c2[nH]c3ccccc3c21

>  <smiles>  (169) 
[H]c1nc(N2C(=O)C3([H])C4([H])c5c([H])c([H])c([H])c([H])c5C([H])(c5c4c4c([H])c([H])c([H])c([H])c4n5[H])C3([H])C2=O)sc1[H]

$$$$
56:1:2
     RDKit          3D

 44 50  0  0  1  0  0  0  0  0999 V2000
    1.2522   -6.4173    0.8809 O   0  0  0  0  0  0  0  0  0  0  0  0
    1.8466   -5.7848    1.7531 C   0  0  0  0  0  0  0  0  0  0  0  0
    2.6144   -4.5079    1.4340 C   0  0  1  0  0  0  0  0  0  0  0  0
    3.0796   -4.0189    2.8495 C   0  0  1  0  0  0  0  0  0  0  0  0
    2.5157   -5.0934    3.7710 C   0  0  0  0  0  0  0  0  0  0  0  0
    2.6820   -5.0592    4.9913 O   0  0  0  0  0  0  0  0  0  0  0  0
    1.8481   -6.0252    3.0759 N   0  0  0  0  0  0  0  0  0  0  0  0
    1.1893   -7.1234    3.6884 C   0  0  0  0  0  0  0  0  0  0  0  0
    1.3730   -8.3801    3.2725 N   0  0  0  0  0  0  0  0  0  0  0  0
    0.6399   -9.2897    4.0330 C   0  0  0  0  0  0  0  0  0  0  0  0
   -0.1088   -8.6972    5.0231 C   0  0  0  0  0  0  0  0  0  0  0  0
    0.0733   -6.9714    5.0437 S   0  0  0  0  0  0  0  0  0  0  0  0
    4.6379   -3.8762    2.8984 C   0  0  2  0  0  0  0  0  0  0  0  0
    4.9384   -2.8930    1.7605 C   0  0  0  0  0  0  0  0  0  0  0  0
    5.5566   -1.6405    1.9211 C   0  0  0  0  0  0  0  0  0  0  0  0
    5.7425   -0.8347    0.7793 C   0  0  0  0  0  0  0  0  0  0  0  0
    5.3169   -1.2719   -0.4942 C   0  0  0  0  0  0  0  0  0  0  0  0
    4.6970   -2.5274   -0.6564 C   0  0  0  0  0  0  0  0  0  0  0  0
    4.5114   -3.3326    0.4803 C   0  0  0  0  0  0  0  0  0  0  0  0
    3.8352   -4.7059    0.4765 C   0  0  1  0  0  0  0  0  0  0  0  0
    4.8083   -5.5897    1.2006 C   0  0  0  0  0  0  0  0  0  0  0  0
    5.3557   -6.8118    0.8820 N   0  0  0  0  0  0  0  0  0  0  0  0
    6.1727   -7.2314    1.9249 C   0  0  0  0  0  0  0  0  0  0  0  0
    6.9567   -8.3860    2.1007 C   0  0  0  0  0  0  0  0  0  0  0  0
    7.6884   -8.5580    3.2899 C   0  0  0  0  0  0  0  0  0  0  0  0
    7.6272   -7.5757    4.2950 C   0  0  0  0  0  0  0  0  0  0  0  0
    6.8404   -6.4188    4.1167 C   0  0  0  0  0  0  0  0  0  0  0  0
    6.0991   -6.2136    2.9308 C   0  0  0  0  0  0  0  0  0  0  0  0
    5.2262   -5.1911    2.4299 C   0  0  0  0  0  0  0  0  0  0  0  0
    5.1688   -7.3017    0.0183 H   0  0  0  0  0  0  0  0  0  0  0  0
    1.9156   -3.7903    1.0020 H   0  0  0  0  0  0  0  0  0  0  0  0
    2.5981   -3.0704    3.1042 H   0  0  0  0  0  0  0  0  0  0  0  0
    0.7124  -10.3431    3.7964 H   0  0  0  0  0  0  0  0  0  0  0  0
   -0.7572   -9.1937    5.7328 H   0  0  0  0  0  0  0  0  0  0  0  0
    5.0180   -3.5573    3.8673 H   0  0  0  0  0  0  0  0  0  0  0  0
    5.8750   -1.3048    2.8988 H   0  0  0  0  0  0  0  0  0  0  0  0
    6.2030    0.1331    0.8789 H   0  0  0  0  0  0  0  0  0  0  0  0
    5.4478   -0.6329   -1.3504 H   0  0  0  0  0  0  0  0  0  0  0  0
    4.3604   -2.8606   -1.6284 H   0  0  0  0  0  0  0  0  0  0  0  0
    3.5709   -5.0662   -0.5172 H   0  0  0  0  0  0  0  0  0  0  0  0
    6.9914   -9.1349    1.3256 H   0  0  0  0  0  0  0  0  0  0  0  0
    8.2923   -9.4408    3.4283 H   0  0  0  0  0  0  0  0  0  0  0  0
    8.1866   -7.7060    5.2110 H   0  0  0  0  0  0  0  0  0  0  0  0
    6.7971   -5.6729    4.8947 H   0  0  0  0  0  0  0  0  0  0  0  0
  1  2  2  0
  2  3  1  0
  2  7  1  0
  3 20  1  0
  3 31  1  6
  3  4  1  0
  4 13  1  0
  4 32  1  1
  4  5  1  0
  5  6  2  0
  5  7  1  0
  7  8  1  0
  8 12  1  0
  8  9  2  0
  9 10  1  0
 10 11  2  0
 10 33  1  0
 11 12  1  0
 11 34  1  0
 13 29  1  0
 13 14  1  0
 13 35  1  1
 14 19  2  0
 14 15  1  0
 15 16  2  0
 15 36  1  0
 16 17  1  0
 16 37  1  0
 17 18  2  0
 17 38  1  0
 18 19  1  0
 18 39  1  0
 19 20  1  0
 20 21  1  0
 20 40  1  6
 21 29  2  0
 21 22  1  0
 22 30  1  0
 22 23  1  0
 23 28  2  0
 23 24  1  0
 24 25  2  0
 24 41  1  0
 25 26  1  0
 25 42  1  0
 26 27  2  0
 26 43  1  0
 27 28  1  0
 27 44  1  0
 28 29  1  0
M  END
>  <i_m_ct_stereo_status>  (170) 
1

>  <s_m_source_file>  (170) 
/var/tmp/pbs.5076255.sched01/tmpnszqc94g/84e4epk0lh.sdf

>  <i_m_source_file_index>  (170) 
1

>  <i_lp_mmshare_version>  (170) 
48012

>  <i_f3d_flags>  (170) 
0

>  <s_epik_input>  (170) 
czFbY0hdW2NIXW5jMS1uKGMyW09IXSljKFtPSF0pYyhjMjMpW0NAQEhdNGM1YyhbY0hdW2NIXVtjSF1bY0hdNSlbQ0BIXTNjNmM0YzdjKFtuSF02KVtjSF1bY0hdW2NIXVtjSF03

>  <s_epik_cmdline>  (170) 
J2VwaWtfcHl0aG9uJywgJy1waHQnLCAnMi4wJywgJy1waCcsICc3LjAnLCAnLXRuJywgJzgnLCAnLW1hJywgJzIwMCcsICctaW1hZScsICc8aW5maWxlLm1hZT4nLCAnLW9tYWUnLCAnPG91dGZpbGUubWFlPic=

>  <r_lp_tautomer_probability>  (170) 
1

>  <r_epik_Ionization_Penalty>  (170) 
0.000138112

>  <r_epik_Ionization_Penalty_Charging>  (170) 
0

>  <r_epik_Ionization_Penalty_Neutral>  (170) 
0.000138112

>  <r_epik_State_Penalty>  (170) 
-0

>  <r_epik_Charging_Adjusted_Penalty>  (170) 
0

>  <i_epik_Tot_Q>  (170) 
0

>  <i_epik_Tot_abs_Q>  (170) 
0

>  <s_lp_Force_Field>  (170) 
OPLS3e

>  <r_lp_Energy>  (170) 
69.5914

>  <b_lp_Chiralities_Consistent>  (170) 
1

>  <s_lp_Variant>  (170) 
56:0-2

>  <s_i_glide_gridfile>  (170) 
pfpi4k_grid

>  <i_i_glide_lignum>  (170) 
1

>  <i_i_glide_rotatable_bonds>  (170) 
1

>  <r_i_docking_score>  (170) 
-3.05273

>  <r_i_glide_ligand_efficiency>  (170) 
-0.105266

>  <r_i_glide_ligand_efficiency_sa>  (170) 
-0.323412

>  <r_i_glide_ligand_efficiency_ln>  (170) 
-0.698997

>  <r_i_glide_gscore>  (170) 
-3.05273

>  <r_i_glide_lipo>  (170) 
-0.563238

>  <r_i_glide_hbond>  (170) 
-0.0863307

>  <r_i_glide_metal>  (170) 
-0

>  <r_i_glide_rewards>  (170) 
-0.699204

>  <r_i_glide_evdw>  (170) 
-28.0208

>  <r_i_glide_ecoul>  (170) 
-2.46101

>  <r_i_glide_erotb>  (170) 
0.123918

>  <r_i_glide_esite>  (170) 
-0.0576779

>  <r_i_glide_emodel>  (170) 
-36.4924

>  <r_i_glide_energy>  (170) 
-30.4818

>  <r_i_glide_einternal>  (170) 
0.0931498

>  <r_i_glide_intrahb_reward>  (170) 
-0

>  <i_i_glide_confnum>  (170) 
2

>  <i_i_glide_posenum>  (170) 
4

>  <r_i_glide_eff_state_penalty>  (170) 
0

>  <ligand_id>  (170) 
56

>  <original_smiles>  (170) 
Oc1c2c(c(O)n1-c1nccs1)C1c3ccccc3C2c2[nH]c3ccccc3c21

>  <smiles>  (170) 
[H]c1nc(N2C(=O)C3([H])C4([H])c5c([H])c([H])c([H])c([H])c5C([H])(c5c4c4c([H])c([H])c([H])c([H])c4n5[H])C3([H])C2=O)sc1[H]

$$$$
58:0:0
     RDKit          3D

 32 35  0  0  1  0  0  0  0  0999 V2000
   -7.0582   -8.8200   -9.2443 C   0  0  0  0  0  0  0  0  0  0  0  0
   -6.7941   -9.2052   -7.8660 N   0  0  0  0  0  0  0  0  0  0  0  0
   -5.9070  -10.1017   -7.4109 C   0  0  0  0  0  0  0  0  0  0  0  0
   -5.0290  -10.6998   -8.0299 O   0  0  0  0  0  0  0  0  0  0  0  0
   -6.1341  -10.3621   -5.9544 C   0  0  1  0  0  0  0  0  0  0  0  0
   -4.8999  -10.4959   -5.2764 O   0  0  0  0  0  0  0  0  0  0  0  0
   -6.9463   -9.1396   -5.5228 C   0  0  1  0  0  0  0  0  0  0  0  0
   -6.0229   -8.0891   -5.1694 O   0  0  0  0  0  0  0  0  0  0  0  0
   -6.4928   -6.8124   -5.2180 C   0  0  0  0  0  0  0  0  0  0  0  0
   -5.8760   -5.8743   -4.3717 C   0  0  0  0  0  0  0  0  0  0  0  0
   -6.3066   -4.5545   -4.3286 C   0  0  0  0  0  0  0  0  0  0  0  0
   -7.3836   -4.1475   -5.1248 C   0  0  0  0  0  0  0  0  0  0  0  0
   -8.0089   -5.0366   -6.0204 C   0  0  0  0  0  0  0  0  0  0  0  0
   -9.0646   -4.6458   -6.8583 C   0  0  0  0  0  0  0  0  0  0  0  0
   -9.6748   -5.5580   -7.7363 C   0  0  0  0  0  0  0  0  0  0  0  0
   -9.2036   -6.8737   -7.7915 C   0  0  0  0  0  0  0  0  0  0  0  0
   -8.1416   -7.2866   -6.9626 C   0  0  0  0  0  0  0  0  0  0  0  0
   -7.5292   -6.3783   -6.0664 C   0  0  0  0  0  0  0  0  0  0  0  0
   -7.6875   -8.7441   -6.8216 C   0  0  1  0  0  0  0  0  0  0  0  0
   -6.2482   -9.1971   -9.8263 H   0  0  0  0  0  0  0  0  0  0  0  0
   -7.0733   -7.7370   -9.4077 H   0  0  0  0  0  0  0  0  0  0  0  0
   -7.9870   -9.2616   -9.6227 H   0  0  0  0  0  0  0  0  0  0  0  0
   -6.7400  -11.2519   -5.8906 H   0  0  0  0  0  0  0  0  0  0  0  0
   -5.0502  -10.6502   -4.3559 H   0  0  0  0  0  0  0  0  0  0  0  0
   -7.6040   -9.4687   -4.7310 H   0  0  0  0  0  0  0  0  0  0  0  0
   -5.0664   -6.2240   -3.7456 H   0  0  0  0  0  0  0  0  0  0  0  0
   -5.8184   -3.8266   -3.6937 H   0  0  0  0  0  0  0  0  0  0  0  0
   -7.7283   -3.1295   -5.0870 H   0  0  0  0  0  0  0  0  0  0  0  0
   -9.4176   -3.6252   -6.7951 H   0  0  0  0  0  0  0  0  0  0  0  0
  -10.5392   -5.2415   -8.3105 H   0  0  0  0  0  0  0  0  0  0  0  0
   -9.7273   -7.5854   -8.4104 H   0  0  0  0  0  0  0  0  0  0  0  0
   -8.5842   -9.3677   -6.8828 H   0  0  0  0  0  0  0  0  0  0  0  0
  1  2  1  0
  1 20  1  0
  1 21  1  0
  1 22  1  0
  2 19  1  0
  2  3  1  0
  3  4  2  0
  3  5  1  0
  5  6  1  0
  5  7  1  0
  5 23  1  6
  6 24  1  0
  7 19  1  0
  7  8  1  0
  7 25  1  1
  8  9  1  0
  9 18  2  0
  9 10  1  0
 10 11  2  0
 10 26  1  0
 11 12  1  0
 11 27  1  0
 12 13  2  0
 12 28  1  0
 13 18  1  0
 13 14  1  0
 14 15  2  0
 14 29  1  0
 15 16  1  0
 15 30  1  0
 16 17  2  0
 16 31  1  0
 17 18  1  0
 17 19  1  0
 19 32  1  6
M  END
>  <i_m_ct_stereo_status>  (171) 
1

>  <s_m_source_file>  (171) 
/var/tmp/pbs.5076255.sched01/tmpnszqc94g/84e4epk0lh.sdf

>  <i_m_source_file_index>  (171) 
3

>  <i_lp_mmshare_version>  (171) 
48012

>  <i_f3d_flags>  (171) 
0

>  <s_epik_input>  (171) 
W09IXVtDQEBIXTFDKD1PKU4oW0NIM10pW0NAQEhdKFtDQEBIXTEyKWMzYzRjKE8yKVtjSF1bY0hdW2NIXWM0W2NIXVtjSF1bY0hdMw==

>  <s_epik_cmdline>  (171) 
J2VwaWtfcHl0aG9uJywgJy1waHQnLCAnMi4wJywgJy1waCcsICc3LjAnLCAnLXRuJywgJzgnLCAnLW1hJywgJzIwMCcsICctaW1hZScsICc8aW5maWxlLm1hZT4nLCAnLW9tYWUnLCAnPG91dGZpbGUubWFlPic=

>  <r_epik_Ionization_Penalty>  (171) 
0.0164277

>  <r_epik_Ionization_Penalty_Charging>  (171) 
0

>  <r_epik_Ionization_Penalty_Neutral>  (171) 
0.0164277

>  <r_epik_State_Penalty>  (171) 
0.0129659

>  <r_epik_Charging_Adjusted_Penalty>  (171) 
0.0129659

>  <i_epik_Tot_Q>  (171) 
0

>  <i_epik_Tot_abs_Q>  (171) 
0

>  <s_lp_Force_Field>  (171) 
OPLS3e

>  <r_lp_Energy>  (171) 
27.0046

>  <b_lp_Chiralities_Consistent>  (171) 
1

>  <s_lp_Variant>  (171) 
58:0-1

>  <s_i_glide_gridfile>  (171) 
pfpi4k_grid

>  <i_i_glide_lignum>  (171) 
3

>  <i_i_glide_rotatable_bonds>  (171) 
1

>  <r_i_docking_score>  (171) 
-6.71901

>  <r_i_glide_ligand_efficiency>  (171) 
-0.353632

>  <r_i_glide_ligand_efficiency_sa>  (171) 
-0.943632

>  <r_i_glide_ligand_efficiency_ln>  (171) 
-1.70341

>  <r_i_glide_gscore>  (171) 
-6.71901

>  <r_i_glide_lipo>  (171) 
-2.94405

>  <r_i_glide_hbond>  (171) 
0

>  <r_i_glide_metal>  (171) 
-0

>  <r_i_glide_rewards>  (171) 
-2.89273

>  <r_i_glide_evdw>  (171) 
-11.6949

>  <r_i_glide_ecoul>  (171) 
-1.9832

>  <r_i_glide_erotb>  (171) 
0

>  <r_i_glide_esite>  (171) 
0

>  <r_i_glide_emodel>  (171) 
-24.4721

>  <r_i_glide_energy>  (171) 
-13.6781

>  <r_i_glide_einternal>  (171) 
0.129414

>  <r_i_glide_intrahb_reward>  (171) 
-0

>  <i_i_glide_confnum>  (171) 
1

>  <i_i_glide_posenum>  (171) 
5

>  <r_i_glide_eff_state_penalty>  (171) 
0

>  <ligand_id>  (171) 
58

>  <original_smiles>  (171) 
CN1C(=O)C(O)C2Oc3cccc4cccc(c34)C21

>  <smiles>  (171) 
[H]OC1([H])C(=O)N(C([H])([H])[H])C2([H])c3c([H])c([H])c([H])c4c([H])c([H])c([H])c(c34)OC12[H]

$$$$
58:0:1
     RDKit          3D

 32 35  0  0  1  0  0  0  0  0999 V2000
    3.6127   -3.6919    3.7596 C   0  0  0  0  0  0  0  0  0  0  0  0
    3.0207   -4.5671    2.7500 N   0  0  0  0  0  0  0  0  0  0  0  0
    1.8439   -5.1943    2.8699 C   0  0  0  0  0  0  0  0  0  0  0  0
    1.0029   -5.0143    3.7503 O   0  0  0  0  0  0  0  0  0  0  0  0
    1.7012   -6.2318    1.7639 C   0  0  1  0  0  0  0  0  0  0  0  0
    0.3682   -6.3995    1.3044 O   0  0  0  0  0  0  0  0  0  0  0  0
    2.6796   -5.7168    0.7010 C   0  0  1  0  0  0  0  0  0  0  0  0
    2.0089   -4.7526   -0.1047 O   0  0  0  0  0  0  0  0  0  0  0  0
    2.7941   -3.8521   -0.7724 C   0  0  0  0  0  0  0  0  0  0  0  0
    2.2921   -3.2773   -1.9606 C   0  0  0  0  0  0  0  0  0  0  0  0
    3.0355   -2.3577   -2.7169 C   0  0  0  0  0  0  0  0  0  0  0  0
    4.3153   -1.9919   -2.2811 C   0  0  0  0  0  0  0  0  0  0  0  0
    4.8597   -2.5398   -1.0987 C   0  0  0  0  0  0  0  0  0  0  0  0
    6.1430   -2.1866   -0.6361 C   0  0  0  0  0  0  0  0  0  0  0  0
    6.6847   -2.7354    0.5377 C   0  0  0  0  0  0  0  0  0  0  0  0
    5.9265   -3.6539    1.2763 C   0  0  0  0  0  0  0  0  0  0  0  0
    4.6314   -4.0130    0.8511 C   0  0  0  0  0  0  0  0  0  0  0  0
    4.0892   -3.4697   -0.3467 C   0  0  0  0  0  0  0  0  0  0  0  0
    3.7521   -5.0360    1.5679 C   0  0  1  0  0  0  0  0  0  0  0  0
    2.8994   -3.4386    4.5440 H   0  0  0  0  0  0  0  0  0  0  0  0
    3.9551   -2.7591    3.3135 H   0  0  0  0  0  0  0  0  0  0  0  0
    4.4589   -4.1859    4.2382 H   0  0  0  0  0  0  0  0  0  0  0  0
    2.0537   -7.1794    2.1754 H   0  0  0  0  0  0  0  0  0  0  0  0
    0.3247   -7.2109    0.8193 H   0  0  0  0  0  0  0  0  0  0  0  0
    3.0983   -6.5107    0.0840 H   0  0  0  0  0  0  0  0  0  0  0  0
    1.3106   -3.5578   -2.3104 H   0  0  0  0  0  0  0  0  0  0  0  0
    2.6177   -1.9319   -3.6179 H   0  0  0  0  0  0  0  0  0  0  0  0
    4.8783   -1.2734   -2.8591 H   0  0  0  0  0  0  0  0  0  0  0  0
    6.7162   -1.4743   -1.1996 H   0  0  0  0  0  0  0  0  0  0  0  0
    7.6730   -2.4499    0.8680 H   0  0  0  0  0  0  0  0  0  0  0  0
    6.3389   -4.0903    2.1745 H   0  0  0  0  0  0  0  0  0  0  0  0
    4.4248   -5.8163    1.9236 H   0  0  0  0  0  0  0  0  0  0  0  0
  1  2  1  0
  1 20  1  0
  1 21  1  0
  1 22  1  0
  2 19  1  0
  2  3  1  0
  3  4  2  0
  3  5  1  0
  5  6  1  0
  5  7  1  0
  5 23  1  1
  6 24  1  0
  7 19  1  0
  7  8  1  0
  7 25  1  6
  8  9  1  0
  9 18  2  0
  9 10  1  0
 10 11  2  0
 10 26  1  0
 11 12  1  0
 11 27  1  0
 12 13  2  0
 12 28  1  0
 13 18  1  0
 13 14  1  0
 14 15  2  0
 14 29  1  0
 15 16  1  0
 15 30  1  0
 16 17  2  0
 16 31  1  0
 17 18  1  0
 17 19  1  0
 19 32  1  1
M  END
>  <i_m_ct_stereo_status>  (172) 
1

>  <s_m_source_file>  (172) 
/var/tmp/pbs.5076255.sched01/tmpnszqc94g/84e4epk0lh.sdf

>  <i_m_source_file_index>  (172) 
3

>  <i_lp_mmshare_version>  (172) 
48012

>  <i_f3d_flags>  (172) 
0

>  <s_epik_input>  (172) 
W09IXVtDQEBIXTFDKD1PKU4oW0NIM10pW0NAQEhdKFtDQEBIXTEyKWMzYzRjKE8yKVtjSF1bY0hdW2NIXWM0W2NIXVtjSF1bY0hdMw==

>  <s_epik_cmdline>  (172) 
J2VwaWtfcHl0aG9uJywgJy1waHQnLCAnMi4wJywgJy1waCcsICc3LjAnLCAnLXRuJywgJzgnLCAnLW1hJywgJzIwMCcsICctaW1hZScsICc8aW5maWxlLm1hZT4nLCAnLW9tYWUnLCAnPG91dGZpbGUubWFlPic=

>  <r_epik_Ionization_Penalty>  (172) 
0.0164277

>  <r_epik_Ionization_Penalty_Charging>  (172) 
0

>  <r_epik_Ionization_Penalty_Neutral>  (172) 
0.0164277

>  <r_epik_State_Penalty>  (172) 
0.0129659

>  <r_epik_Charging_Adjusted_Penalty>  (172) 
0.0129659

>  <i_epik_Tot_Q>  (172) 
0

>  <i_epik_Tot_abs_Q>  (172) 
0

>  <s_lp_Force_Field>  (172) 
OPLS3e

>  <r_lp_Energy>  (172) 
27.0046

>  <b_lp_Chiralities_Consistent>  (172) 
1

>  <s_lp_Variant>  (172) 
58:0-1

>  <s_i_glide_gridfile>  (172) 
pfpi4k_grid

>  <i_i_glide_lignum>  (172) 
3

>  <i_i_glide_rotatable_bonds>  (172) 
1

>  <r_i_docking_score>  (172) 
-3.38446

>  <r_i_glide_ligand_efficiency>  (172) 
-0.178129

>  <r_i_glide_ligand_efficiency_sa>  (172) 
-0.475321

>  <r_i_glide_ligand_efficiency_ln>  (172) 
-0.858033

>  <r_i_glide_gscore>  (172) 
-3.38446

>  <r_i_glide_lipo>  (172) 
-0.398447

>  <r_i_glide_hbond>  (172) 
-0.0223825

>  <r_i_glide_metal>  (172) 
-0

>  <r_i_glide_rewards>  (172) 
-1.66862

>  <r_i_glide_evdw>  (172) 
-18.2092

>  <r_i_glide_ecoul>  (172) 
-2.44706

>  <r_i_glide_erotb>  (172) 
0

>  <r_i_glide_esite>  (172) 
-0.017487

>  <r_i_glide_emodel>  (172) 
-25.9492

>  <r_i_glide_energy>  (172) 
-20.6563

>  <r_i_glide_einternal>  (172) 
0.34573

>  <r_i_glide_intrahb_reward>  (172) 
-0

>  <i_i_glide_confnum>  (172) 
1

>  <i_i_glide_posenum>  (172) 
16

>  <r_i_glide_eff_state_penalty>  (172) 
0

>  <ligand_id>  (172) 
58

>  <original_smiles>  (172) 
CN1C(=O)C(O)C2Oc3cccc4cccc(c34)C21

>  <smiles>  (172) 
[H]OC1([H])C(=O)N(C([H])([H])[H])C2([H])c3c([H])c([H])c([H])c4c([H])c([H])c([H])c(c34)OC12[H]

$$$$
58:0:2
     RDKit          3D

 32 35  0  0  1  0  0  0  0  0999 V2000
    2.8519   -3.4670    3.9018 C   0  0  0  0  0  0  0  0  0  0  0  0
    2.7008   -4.4029    2.7904 N   0  0  0  0  0  0  0  0  0  0  0  0
    1.7255   -5.3127    2.6829 C   0  0  0  0  0  0  0  0  0  0  0  0
    0.7165   -5.4045    3.3830 O   0  0  0  0  0  0  0  0  0  0  0  0
    2.0439   -6.2794    1.5551 C   0  0  1  0  0  0  0  0  0  0  0  0
    0.8856   -6.7239    0.8776 O   0  0  0  0  0  0  0  0  0  0  0  0
    3.0294   -5.4754    0.6966 C   0  0  1  0  0  0  0  0  0  0  0  0
    2.2961   -4.6434   -0.2005 O   0  0  0  0  0  0  0  0  0  0  0  0
    2.9672   -3.5617   -0.7153 C   0  0  0  0  0  0  0  0  0  0  0  0
    2.5707   -3.0575   -1.9726 C   0  0  0  0  0  0  0  0  0  0  0  0
    3.1872   -1.9434   -2.5559 C   0  0  0  0  0  0  0  0  0  0  0  0
    4.2266   -1.3011   -1.8704 C   0  0  0  0  0  0  0  0  0  0  0  0
    4.6594   -1.7660   -0.6119 C   0  0  0  0  0  0  0  0  0  0  0  0
    5.6992   -1.1296    0.1000 C   0  0  0  0  0  0  0  0  0  0  0  0
    6.1272   -1.6002    1.3486 C   0  0  0  0  0  0  0  0  0  0  0  0
    5.4952   -2.7181    1.9168 C   0  0  0  0  0  0  0  0  0  0  0  0
    4.4394   -3.3595    1.2408 C   0  0  0  0  0  0  0  0  0  0  0  0
    4.0196   -2.9016   -0.0368 C   0  0  0  0  0  0  0  0  0  0  0  0
    3.7266   -4.6077    1.7625 C   0  0  1  0  0  0  0  0  0  0  0  0
    1.9648   -3.4387    4.5352 H   0  0  0  0  0  0  0  0  0  0  0  0
    3.0285   -2.4540    3.5424 H   0  0  0  0  0  0  0  0  0  0  0  0
    3.6901   -3.7654    4.5321 H   0  0  0  0  0  0  0  0  0  0  0  0
    2.5402   -7.1378    2.0100 H   0  0  0  0  0  0  0  0  0  0  0  0
    1.1065   -7.5114    0.3977 H   0  0  0  0  0  0  0  0  0  0  0  0
    3.7312   -6.1070    0.1491 H   0  0  0  0  0  0  0  0  0  0  0  0
    1.7617   -3.5458   -2.4986 H   0  0  0  0  0  0  0  0  0  0  0  0
    2.8394   -1.5689   -3.5089 H   0  0  0  0  0  0  0  0  0  0  0  0
    4.6778   -0.4231   -2.3121 H   0  0  0  0  0  0  0  0  0  0  0  0
    6.1749   -0.2570   -0.3200 H   0  0  0  0  0  0  0  0  0  0  0  0
    6.9339   -1.0997    1.8670 H   0  0  0  0  0  0  0  0  0  0  0  0
    5.8257   -3.0924    2.8760 H   0  0  0  0  0  0  0  0  0  0  0  0
    4.4940   -5.2202    2.2353 H   0  0  0  0  0  0  0  0  0  0  0  0
  1  2  1  0
  1 20  1  0
  1 21  1  0
  1 22  1  0
  2 19  1  0
  2  3  1  0
  3  4  2  0
  3  5  1  0
  5  6  1  0
  5  7  1  0
  5 23  1  1
  6 24  1  0
  7 19  1  0
  7  8  1  0
  7 25  1  6
  8  9  1  0
  9 18  2  0
  9 10  1  0
 10 11  2  0
 10 26  1  0
 11 12  1  0
 11 27  1  0
 12 13  2  0
 12 28  1  0
 13 18  1  0
 13 14  1  0
 14 15  2  0
 14 29  1  0
 15 16  1  0
 15 30  1  0
 16 17  2  0
 16 31  1  0
 17 18  1  0
 17 19  1  0
 19 32  1  1
M  END
>  <i_m_ct_stereo_status>  (173) 
1

>  <s_m_source_file>  (173) 
/var/tmp/pbs.5076255.sched01/tmpnszqc94g/84e4epk0lh.sdf

>  <i_m_source_file_index>  (173) 
3

>  <i_lp_mmshare_version>  (173) 
48012

>  <i_f3d_flags>  (173) 
0

>  <s_epik_input>  (173) 
W09IXVtDQEBIXTFDKD1PKU4oW0NIM10pW0NAQEhdKFtDQEBIXTEyKWMzYzRjKE8yKVtjSF1bY0hdW2NIXWM0W2NIXVtjSF1bY0hdMw==

>  <s_epik_cmdline>  (173) 
J2VwaWtfcHl0aG9uJywgJy1waHQnLCAnMi4wJywgJy1waCcsICc3LjAnLCAnLXRuJywgJzgnLCAnLW1hJywgJzIwMCcsICctaW1hZScsICc8aW5maWxlLm1hZT4nLCAnLW9tYWUnLCAnPG91dGZpbGUubWFlPic=

>  <r_epik_Ionization_Penalty>  (173) 
0.0164277

>  <r_epik_Ionization_Penalty_Charging>  (173) 
0

>  <r_epik_Ionization_Penalty_Neutral>  (173) 
0.0164277

>  <r_epik_State_Penalty>  (173) 
0.0129659

>  <r_epik_Charging_Adjusted_Penalty>  (173) 
0.0129659

>  <i_epik_Tot_Q>  (173) 
0

>  <i_epik_Tot_abs_Q>  (173) 
0

>  <s_lp_Force_Field>  (173) 
OPLS3e

>  <r_lp_Energy>  (173) 
27.0046

>  <b_lp_Chiralities_Consistent>  (173) 
1

>  <s_lp_Variant>  (173) 
58:0-1

>  <s_i_glide_gridfile>  (173) 
pfpi4k_grid

>  <i_i_glide_lignum>  (173) 
3

>  <i_i_glide_rotatable_bonds>  (173) 
1

>  <r_i_docking_score>  (173) 
-3.37428

>  <r_i_glide_ligand_efficiency>  (173) 
-0.177594

>  <r_i_glide_ligand_efficiency_sa>  (173) 
-0.473891

>  <r_i_glide_ligand_efficiency_ln>  (173) 
-0.855452

>  <r_i_glide_gscore>  (173) 
-3.37428

>  <r_i_glide_lipo>  (173) 
-0.308159

>  <r_i_glide_hbond>  (173) 
-0.00626021

>  <r_i_glide_metal>  (173) 
-0

>  <r_i_glide_rewards>  (173) 
-1.66862

>  <r_i_glide_evdw>  (173) 
-20.8778

>  <r_i_glide_ecoul>  (173) 
-2.11527

>  <r_i_glide_erotb>  (173) 
0

>  <r_i_glide_esite>  (173) 
-0.0300547

>  <r_i_glide_emodel>  (173) 
-28.1277

>  <r_i_glide_energy>  (173) 
-22.9931

>  <r_i_glide_einternal>  (173) 
0.510262

>  <r_i_glide_intrahb_reward>  (173) 
-0

>  <i_i_glide_confnum>  (173) 
2

>  <i_i_glide_posenum>  (173) 
1

>  <r_i_glide_eff_state_penalty>  (173) 
0

>  <ligand_id>  (173) 
58

>  <original_smiles>  (173) 
CN1C(=O)C(O)C2Oc3cccc4cccc(c34)C21

>  <smiles>  (173) 
[H]OC1([H])C(=O)N(C([H])([H])[H])C2([H])c3c([H])c([H])c([H])c4c([H])c([H])c([H])c(c34)OC12[H]

$$$$
58:1:0
     RDKit          3D

 31 34  0  0  1  0  0  0  0  0999 V2000
    4.6637   -3.7802    3.2494 C   0  0  0  0  0  0  0  0  0  0  0  0
    3.7772   -4.5551    2.3864 N   0  0  0  0  0  0  0  0  0  0  0  0
    2.5591   -5.0220    2.7358 C   0  0  0  0  0  0  0  0  0  0  0  0
    1.9534   -4.7344    3.7655 O   0  0  0  0  0  0  0  0  0  0  0  0
    2.0367   -6.0085    1.6813 C   0  0  1  0  0  0  0  0  0  0  0  0
    0.7477   -5.8620    1.4869 O   0  0  0  0  0  0  0  0  0  0  0  0
    2.8794   -5.5648    0.4593 C   0  0  1  0  0  0  0  0  0  0  0  0
    2.2215   -4.5009   -0.2378 O   0  0  0  0  0  0  0  0  0  0  0  0
    3.0044   -3.7229   -1.0482 C   0  0  0  0  0  0  0  0  0  0  0  0
    2.3903   -3.0598   -2.1276 C   0  0  0  0  0  0  0  0  0  0  0  0
    3.0987   -2.2289   -3.0045 C   0  0  0  0  0  0  0  0  0  0  0  0
    4.4761   -2.0543   -2.8123 C   0  0  0  0  0  0  0  0  0  0  0  0
    5.1465   -2.7015   -1.7525 C   0  0  0  0  0  0  0  0  0  0  0  0
    6.5340   -2.5466   -1.5366 C   0  0  0  0  0  0  0  0  0  0  0  0
    7.1938   -3.1858   -0.4739 C   0  0  0  0  0  0  0  0  0  0  0  0
    6.4559   -4.0036    0.3932 C   0  0  0  0  0  0  0  0  0  0  0  0
    5.0646   -4.1702    0.2159 C   0  0  0  0  0  0  0  0  0  0  0  0
    4.4032   -3.5333   -0.8658 C   0  0  0  0  0  0  0  0  0  0  0  0
    4.1928   -5.0772    1.0873 C   0  0  1  0  0  0  0  0  0  0  0  0
    4.1665   -3.4405    4.1570 H   0  0  0  0  0  0  0  0  0  0  0  0
    5.0400   -2.8947    2.7366 H   0  0  0  0  0  0  0  0  0  0  0  0
    5.5166   -4.3860    3.5577 H   0  0  0  0  0  0  0  0  0  0  0  0
    2.4495   -6.9710    2.0188 H   0  0  0  0  0  0  0  0  0  0  0  0
    3.0741   -6.3801   -0.2292 H   0  0  0  0  0  0  0  0  0  0  0  0
    1.3308   -3.1839   -2.2820 H   0  0  0  0  0  0  0  0  0  0  0  0
    2.5882   -1.7147   -3.8096 H   0  0  0  0  0  0  0  0  0  0  0  0
    5.0090   -1.4001   -3.4869 H   0  0  0  0  0  0  0  0  0  0  0  0
    7.1047   -1.9290   -2.2147 H   0  0  0  0  0  0  0  0  0  0  0  0
    8.2601   -3.0537   -0.3428 H   0  0  0  0  0  0  0  0  0  0  0  0
    6.9631   -4.5176    1.1970 H   0  0  0  0  0  0  0  0  0  0  0  0
    4.8154   -5.9441    1.3056 H   0  0  0  0  0  0  0  0  0  0  0  0
  1  2  1  0
  1 20  1  0
  1 21  1  0
  1 22  1  0
  2 19  1  0
  2  3  1  0
  3  4  2  0
  3  5  1  0
  5  6  1  0
  5  7  1  0
  5 23  1  1
  7 19  1  0
  7  8  1  0
  7 24  1  6
  8  9  1  0
  9 18  2  0
  9 10  1  0
 10 11  2  0
 10 25  1  0
 11 12  1  0
 11 26  1  0
 12 13  2  0
 12 27  1  0
 13 18  1  0
 13 14  1  0
 14 15  2  0
 14 28  1  0
 15 16  1  0
 15 29  1  0
 16 17  2  0
 16 30  1  0
 17 18  1  0
 17 19  1  0
 19 31  1  1
M  CHG  1   6  -1
M  END
>  <i_m_ct_stereo_status>  (174) 
1

>  <s_m_source_file>  (174) 
/var/tmp/pbs.5076255.sched01/tmpnszqc94g/84e4epk0lh.sdf

>  <i_m_source_file_index>  (174) 
4

>  <i_lp_mmshare_version>  (174) 
48012

>  <i_f3d_flags>  (174) 
0

>  <s_epik_input>  (174) 
W09IXVtDQEBIXTFDKD1PKU4oW0NIM10pW0NAQEhdKFtDQEBIXTEyKWMzYzRjKE8yKVtjSF1bY0hdW2NIXWM0W2NIXVtjSF1bY0hdMw==

>  <s_epik_cmdline>  (174) 
J2VwaWtfcHl0aG9uJywgJy1waHQnLCAnMi4wJywgJy1waCcsICc3LjAnLCAnLXRuJywgJzgnLCAnLW1hJywgJzIwMCcsICctaW1hZScsICc8aW5maWxlLm1hZT4nLCAnLW9tYWUnLCAnPG91dGZpbGUubWFlPic=

>  <r_epik_Ionization_Penalty>  (174) 
2.13247

>  <r_epik_Ionization_Penalty_Charging>  (174) 
2.13247

>  <r_epik_Ionization_Penalty_Neutral>  (174) 
1.07336e-07

>  <r_epik_State_Penalty>  (174) 
2.27095

>  <r_epik_Charging_Adjusted_Penalty>  (174) 
4.40342

>  <i_epik_Tot_Q>  (174) 
-1

>  <i_epik_Tot_abs_Q>  (174) 
1

>  <s_lp_Force_Field>  (174) 
OPLS3e

>  <r_lp_Energy>  (174) 
35.0772

>  <b_lp_Chiralities_Consistent>  (174) 
1

>  <s_lp_Variant>  (174) 
58:0-2

>  <s_i_glide_gridfile>  (174) 
pfpi4k_grid

>  <i_i_glide_lignum>  (174) 
4

>  <i_i_glide_rotatable_bonds>  (174) 
0

>  <r_i_docking_score>  (174) 
-3.50515

>  <r_i_glide_ligand_efficiency>  (174) 
-0.184481

>  <r_i_glide_ligand_efficiency_sa>  (174) 
-0.492271

>  <r_i_glide_ligand_efficiency_ln>  (174) 
-0.88863

>  <r_i_glide_gscore>  (174) 
-3.50515

>  <r_i_glide_lipo>  (174) 
-0.471379

>  <r_i_glide_hbond>  (174) 
-0.192032

>  <r_i_glide_metal>  (174) 
-0

>  <r_i_glide_rewards>  (174) 
-1.6755

>  <r_i_glide_evdw>  (174) 
-19.6973

>  <r_i_glide_ecoul>  (174) 
-1.17444

>  <r_i_glide_erotb>  (174) 
0

>  <r_i_glide_esite>  (174) 
-0.00521257

>  <r_i_glide_emodel>  (174) 
-29.4555

>  <r_i_glide_energy>  (174) 
-20.8717

>  <r_i_glide_einternal>  (174) 
0

>  <r_i_glide_intrahb_reward>  (174) 
-0

>  <i_i_glide_confnum>  (174) 
1

>  <i_i_glide_posenum>  (174) 
23

>  <r_i_glide_eff_state_penalty>  (174) 
0

>  <ligand_id>  (174) 
58

>  <original_smiles>  (174) 
CN1C(=O)C(O)C2Oc3cccc4cccc(c34)C21

>  <smiles>  (174) 
[H]c1c([H])c2c3c(c([H])c([H])c([H])c3c1[H])C1([H])N(C([H])([H])[H])C(=O)C([H])([O-])C1([H])O2

$$$$
58:1:1
     RDKit          3D

 31 34  0  0  1  0  0  0  0  0999 V2000
   -0.3442    2.6629    2.8776 C   0  0  0  0  0  0  0  0  0  0  0  0
   -0.4410    2.0275    4.2007 N   0  0  0  0  0  0  0  0  0  0  0  0
   -1.4523    2.1491    5.0512 C   0  0  0  0  0  0  0  0  0  0  0  0
   -2.5245    2.7212    4.8041 O   0  0  0  0  0  0  0  0  0  0  0  0
   -1.1253    1.5531    6.4191 C   0  0  1  0  0  0  0  0  0  0  0  0
   -2.1469    0.8755    6.8631 O   0  0  0  0  0  0  0  0  0  0  0  0
    0.0573    0.6303    6.0369 C   0  0  1  0  0  0  0  0  0  0  0  0
   -0.4289   -0.6537    5.6542 O   0  0  0  0  0  0  0  0  0  0  0  0
    0.3824   -1.4326    4.8664 C   0  0  0  0  0  0  0  0  0  0  0  0
    0.1981   -2.8325    4.9021 C   0  0  0  0  0  0  0  0  0  0  0  0
    0.9742   -3.7084    4.1273 C   0  0  0  0  0  0  0  0  0  0  0  0
    1.9573   -3.1797    3.2819 C   0  0  0  0  0  0  0  0  0  0  0  0
    2.1716   -1.7922    3.2039 C   0  0  0  0  0  0  0  0  0  0  0  0
    3.1575   -1.2466    2.3543 C   0  0  0  0  0  0  0  0  0  0  0  0
    3.3805    0.1372    2.2731 C   0  0  0  0  0  0  0  0  0  0  0  0
    2.5928    1.0040    3.0491 C   0  0  0  0  0  0  0  0  0  0  0  0
    1.5859    0.4845    3.8938 C   0  0  0  0  0  0  0  0  0  0  0  0
    1.3707   -0.9161    4.0003 C   0  0  0  0  0  0  0  0  0  0  0  0
    0.6900    1.3313    4.8123 C   0  0  1  0  0  0  0  0  0  0  0  0
   -1.2928    3.0913    2.5651 H   0  0  0  0  0  0  0  0  0  0  0  0
   -0.0444    1.9531    2.1123 H   0  0  0  0  0  0  0  0  0  0  0  0
    0.3803    3.4743    2.9001 H   0  0  0  0  0  0  0  0  0  0  0  0
   -0.6679    2.4059    6.9276 H   0  0  0  0  0  0  0  0  0  0  0  0
    0.7881    0.5192    6.8402 H   0  0  0  0  0  0  0  0  0  0  0  0
   -0.5681   -3.2357    5.5476 H   0  0  0  0  0  0  0  0  0  0  0  0
    0.7964   -4.7734    4.1743 H   0  0  0  0  0  0  0  0  0  0  0  0
    2.5397   -3.8613    2.6802 H   0  0  0  0  0  0  0  0  0  0  0  0
    3.7649   -1.9058    1.7423 H   0  0  0  0  0  0  0  0  0  0  0  0
    4.1473    0.5324    1.6240 H   0  0  0  0  0  0  0  0  0  0  0  0
    2.7662    2.0710    3.0047 H   0  0  0  0  0  0  0  0  0  0  0  0
    1.3489    2.1243    5.1775 H   0  0  0  0  0  0  0  0  0  0  0  0
  1  2  1  0
  1 20  1  0
  1 21  1  0
  1 22  1  0
  2 19  1  0
  2  3  1  0
  3  4  2  0
  3  5  1  0
  5  6  1  0
  5  7  1  0
  5 23  1  1
  7 19  1  0
  7  8  1  0
  7 24  1  1
  8  9  1  0
  9 18  2  0
  9 10  1  0
 10 11  2  0
 10 25  1  0
 11 12  1  0
 11 26  1  0
 12 13  2  0
 12 27  1  0
 13 18  1  0
 13 14  1  0
 14 15  2  0
 14 28  1  0
 15 16  1  0
 15 29  1  0
 16 17  2  0
 16 30  1  0
 17 18  1  0
 17 19  1  0
 19 31  1  1
M  CHG  1   6  -1
M  END
>  <i_m_ct_stereo_status>  (175) 
1

>  <s_m_source_file>  (175) 
/var/tmp/pbs.5076255.sched01/tmpnszqc94g/84e4epk0lh.sdf

>  <i_m_source_file_index>  (175) 
4

>  <i_lp_mmshare_version>  (175) 
48012

>  <i_f3d_flags>  (175) 
0

>  <s_epik_input>  (175) 
W09IXVtDQEBIXTFDKD1PKU4oW0NIM10pW0NAQEhdKFtDQEBIXTEyKWMzYzRjKE8yKVtjSF1bY0hdW2NIXWM0W2NIXVtjSF1bY0hdMw==

>  <s_epik_cmdline>  (175) 
J2VwaWtfcHl0aG9uJywgJy1waHQnLCAnMi4wJywgJy1waCcsICc3LjAnLCAnLXRuJywgJzgnLCAnLW1hJywgJzIwMCcsICctaW1hZScsICc8aW5maWxlLm1hZT4nLCAnLW9tYWUnLCAnPG91dGZpbGUubWFlPic=

>  <r_epik_Ionization_Penalty>  (175) 
2.13247

>  <r_epik_Ionization_Penalty_Charging>  (175) 
2.13247

>  <r_epik_Ionization_Penalty_Neutral>  (175) 
1.07336e-07

>  <r_epik_State_Penalty>  (175) 
2.27095

>  <r_epik_Charging_Adjusted_Penalty>  (175) 
4.40342

>  <i_epik_Tot_Q>  (175) 
-1

>  <i_epik_Tot_abs_Q>  (175) 
1

>  <s_lp_Force_Field>  (175) 
OPLS3e

>  <r_lp_Energy>  (175) 
35.0772

>  <b_lp_Chiralities_Consistent>  (175) 
1

>  <s_lp_Variant>  (175) 
58:0-2

>  <s_i_glide_gridfile>  (175) 
pfpi4k_grid

>  <i_i_glide_lignum>  (175) 
4

>  <i_i_glide_rotatable_bonds>  (175) 
0

>  <r_i_docking_score>  (175) 
-3.39085

>  <r_i_glide_ligand_efficiency>  (175) 
-0.178466

>  <r_i_glide_ligand_efficiency_sa>  (175) 
-0.476218

>  <r_i_glide_ligand_efficiency_ln>  (175) 
-0.859653

>  <r_i_glide_gscore>  (175) 
-3.39085

>  <r_i_glide_lipo>  (175) 
-0.0687234

>  <r_i_glide_hbond>  (175) 
-0.2

>  <r_i_glide_metal>  (175) 
-0

>  <r_i_glide_rewards>  (175) 
-1.6755

>  <r_i_glide_evdw>  (175) 
-17.5622

>  <r_i_glide_ecoul>  (175) 
-3.57147

>  <r_i_glide_erotb>  (175) 
0

>  <r_i_glide_esite>  (175) 
-0.0327976

>  <r_i_glide_emodel>  (175) 
-29.4497

>  <r_i_glide_energy>  (175) 
-21.1337

>  <r_i_glide_einternal>  (175) 
0

>  <r_i_glide_intrahb_reward>  (175) 
-0

>  <i_i_glide_confnum>  (175) 
2

>  <i_i_glide_posenum>  (175) 
2

>  <r_i_glide_eff_state_penalty>  (175) 
0

>  <ligand_id>  (175) 
58

>  <original_smiles>  (175) 
CN1C(=O)C(O)C2Oc3cccc4cccc(c34)C21

>  <smiles>  (175) 
[H]c1c([H])c2c3c(c([H])c([H])c([H])c3c1[H])C1([H])N(C([H])([H])[H])C(=O)C([H])([O-])C1([H])O2

$$$$
58:1:2
     RDKit          3D

 31 34  0  0  1  0  0  0  0  0999 V2000
    3.8238   -4.4262    3.9077 C   0  0  0  0  0  0  0  0  0  0  0  0
    3.1337   -5.0859    2.8009 N   0  0  0  0  0  0  0  0  0  0  0  0
    1.8596   -5.5579    2.8117 C   0  0  0  0  0  0  0  0  0  0  0  0
    1.0574   -5.3561    3.7150 O   0  0  0  0  0  0  0  0  0  0  0  0
    1.5749   -6.4324    1.5811 C   0  0  1  0  0  0  0  0  0  0  0  0
    0.3588   -6.2547    1.1311 O   0  0  0  0  0  0  0  0  0  0  0  0
    2.6597   -5.8612    0.6219 C   0  0  1  0  0  0  0  0  0  0  0  0
    2.1999   -4.7076   -0.0670 O   0  0  0  0  0  0  0  0  0  0  0  0
    3.1261   -3.8631   -0.6113 C   0  0  0  0  0  0  0  0  0  0  0  0
    2.7597   -3.0588   -1.7132 C   0  0  0  0  0  0  0  0  0  0  0  0
    3.6500   -2.1619   -2.3282 C   0  0  0  0  0  0  0  0  0  0  0  0
    4.9560   -2.0579   -1.8281 C   0  0  0  0  0  0  0  0  0  0  0  0
    5.3740   -2.8379   -0.7294 C   0  0  0  0  0  0  0  0  0  0  0  0
    6.6857   -2.7391   -0.2087 C   0  0  0  0  0  0  0  0  0  0  0  0
    7.1000   -3.5222    0.8838 C   0  0  0  0  0  0  0  0  0  0  0  0
    6.1927   -4.4031    1.4890 C   0  0  0  0  0  0  0  0  0  0  0  0
    4.8705   -4.5034    1.0020 C   0  0  0  0  0  0  0  0  0  0  0  0
    4.4526   -3.7387   -0.1184 C   0  0  0  0  0  0  0  0  0  0  0  0
    3.8138   -5.4604    1.5643 C   0  0  1  0  0  0  0  0  0  0  0  0
    3.1432   -4.1734    4.7188 H   0  0  0  0  0  0  0  0  0  0  0  0
    4.3025   -3.5051    3.5862 H   0  0  0  0  0  0  0  0  0  0  0  0
    4.5838   -5.0871    4.3214 H   0  0  0  0  0  0  0  0  0  0  0  0
    1.9304   -7.3997    1.8975 H   0  0  0  0  0  0  0  0  0  0  0  0
    3.0295   -6.6069   -0.0687 H   0  0  0  0  0  0  0  0  0  0  0  0
    1.7566   -3.1424   -2.1033 H   0  0  0  0  0  0  0  0  0  0  0  0
    3.3232   -1.5574   -3.1631 H   0  0  0  0  0  0  0  0  0  0  0  0
    5.6318   -1.3584   -2.2957 H   0  0  0  0  0  0  0  0  0  0  0  0
    7.3947   -2.0562   -0.6506 H   0  0  0  0  0  0  0  0  0  0  0  0
    8.1088   -3.4354    1.2678 H   0  0  0  0  0  0  0  0  0  0  0  0
    6.5063   -5.0092    2.3220 H   0  0  0  0  0  0  0  0  0  0  0  0
    4.3719   -6.3724    1.8142 H   0  0  0  0  0  0  0  0  0  0  0  0
  1  2  1  0
  1 20  1  0
  1 21  1  0
  1 22  1  0
  2 19  1  0
  2  3  1  0
  3  4  2  0
  3  5  1  0
  5  6  1  0
  5  7  1  0
  5 23  1  1
  7 19  1  0
  7  8  1  0
  7 24  1  6
  8  9  1  0
  9 18  2  0
  9 10  1  0
 10 11  2  0
 10 25  1  0
 11 12  1  0
 11 26  1  0
 12 13  2  0
 12 27  1  0
 13 18  1  0
 13 14  1  0
 14 15  2  0
 14 28  1  0
 15 16  1  0
 15 29  1  0
 16 17  2  0
 16 30  1  0
 17 18  1  0
 17 19  1  0
 19 31  1  1
M  CHG  1   6  -1
M  END
>  <i_m_ct_stereo_status>  (176) 
1

>  <s_m_source_file>  (176) 
/var/tmp/pbs.5076255.sched01/tmpnszqc94g/84e4epk0lh.sdf

>  <i_m_source_file_index>  (176) 
4

>  <i_lp_mmshare_version>  (176) 
48012

>  <i_f3d_flags>  (176) 
0

>  <s_epik_input>  (176) 
W09IXVtDQEBIXTFDKD1PKU4oW0NIM10pW0NAQEhdKFtDQEBIXTEyKWMzYzRjKE8yKVtjSF1bY0hdW2NIXWM0W2NIXVtjSF1bY0hdMw==

>  <s_epik_cmdline>  (176) 
J2VwaWtfcHl0aG9uJywgJy1waHQnLCAnMi4wJywgJy1waCcsICc3LjAnLCAnLXRuJywgJzgnLCAnLW1hJywgJzIwMCcsICctaW1hZScsICc8aW5maWxlLm1hZT4nLCAnLW9tYWUnLCAnPG91dGZpbGUubWFlPic=

>  <r_epik_Ionization_Penalty>  (176) 
2.13247

>  <r_epik_Ionization_Penalty_Charging>  (176) 
2.13247

>  <r_epik_Ionization_Penalty_Neutral>  (176) 
1.07336e-07

>  <r_epik_State_Penalty>  (176) 
2.27095

>  <r_epik_Charging_Adjusted_Penalty>  (176) 
4.40342

>  <i_epik_Tot_Q>  (176) 
-1

>  <i_epik_Tot_abs_Q>  (176) 
1

>  <s_lp_Force_Field>  (176) 
OPLS3e

>  <r_lp_Energy>  (176) 
35.0772

>  <b_lp_Chiralities_Consistent>  (176) 
1

>  <s_lp_Variant>  (176) 
58:0-2

>  <s_i_glide_gridfile>  (176) 
pfpi4k_grid

>  <i_i_glide_lignum>  (176) 
4

>  <i_i_glide_rotatable_bonds>  (176) 
0

>  <r_i_docking_score>  (176) 
-3.39069

>  <r_i_glide_ligand_efficiency>  (176) 
-0.178458

>  <r_i_glide_ligand_efficiency_sa>  (176) 
-0.476196

>  <r_i_glide_ligand_efficiency_ln>  (176) 
-0.859613

>  <r_i_glide_gscore>  (176) 
-3.39069

>  <r_i_glide_lipo>  (176) 
-0.291822

>  <r_i_glide_hbond>  (176) 
-0.205187

>  <r_i_glide_metal>  (176) 
-0

>  <r_i_glide_rewards>  (176) 
-1.6755

>  <r_i_glide_evdw>  (176) 
-19.5254

>  <r_i_glide_ecoul>  (176) 
-1.49023

>  <r_i_glide_erotb>  (176) 
0

>  <r_i_glide_esite>  (176) 
-0.0183855

>  <r_i_glide_emodel>  (176) 
-29.2669

>  <r_i_glide_energy>  (176) 
-21.0156

>  <r_i_glide_einternal>  (176) 
0

>  <r_i_glide_intrahb_reward>  (176) 
-0

>  <i_i_glide_confnum>  (176) 
1

>  <i_i_glide_posenum>  (176) 
3

>  <r_i_glide_eff_state_penalty>  (176) 
0

>  <ligand_id>  (176) 
58

>  <original_smiles>  (176) 
CN1C(=O)C(O)C2Oc3cccc4cccc(c34)C21

>  <smiles>  (176) 
[H]c1c([H])c2c3c(c([H])c([H])c([H])c3c1[H])C1([H])N(C([H])([H])[H])C(=O)C([H])([O-])C1([H])O2

$$$$
59:0:0
     RDKit          3D

 73 78  0  0  1  0  0  0  0  0999 V2000
    4.2282   -5.9538    0.9362 C   0  0  0  0  0  0  0  0  0  0  0  0
    3.6664   -6.6652    2.1926 C   0  0  1  0  0  0  0  0  0  0  0  0
    2.8695   -7.9234    1.7351 C   0  0  0  0  0  0  0  0  0  0  0  0
    3.7480   -9.0111    1.0748 C   0  0  0  0  0  0  0  0  0  0  0  0
    4.9445   -9.4217    1.9503 C   0  0  1  0  0  0  0  0  0  0  0  0
    5.8080  -10.2535    1.1935 O   0  0  0  0  0  0  0  0  0  0  0  0
    5.7371   -8.2061    2.4564 C   0  0  0  0  0  0  0  0  0  0  0  0
    4.8300   -7.1436    3.1254 C   0  0  2  0  0  0  0  0  0  0  0  0
    4.3134   -7.6235    4.4970 C   0  0  0  0  0  0  0  0  0  0  0  0
    3.4919   -6.5359    5.1916 C   0  0  0  0  0  0  0  0  0  0  0  0
    2.2811   -6.0998    4.3428 C   0  0  1  0  0  0  0  0  0  0  0  0
    1.5858   -4.8450    4.8869 C   0  0  0  0  0  0  0  0  0  0  0  0
    2.3566   -3.6160    4.3360 C   0  0  2  0  0  0  0  0  0  0  0  0
    3.2917   -2.9633    5.3835 C   0  0  0  0  0  0  0  0  0  0  0  0
    3.4071   -1.4718    5.0255 C   0  0  0  0  0  0  0  0  0  0  0  0
    2.4560   -1.2376    3.8378 C   0  0  1  0  0  0  0  0  0  0  0  0
    1.4592   -2.4128    3.9280 C   0  0  2  0  0  0  0  0  0  0  0  0
    0.3531   -2.0854    4.9653 C   0  0  0  0  0  0  0  0  0  0  0  0
   -0.3402   -0.7524    4.6861 C   0  0  0  0  0  0  0  0  0  0  0  0
    0.6582    0.4192    4.6957 C   0  0  2  0  0  0  0  0  0  0  0  0
   -0.0580    1.7727    4.4818 C   0  0  0  0  0  0  0  0  0  0  0  0
   -0.5574    1.9666    3.0377 C   0  0  1  0  0  0  0  0  0  0  0  0
   -1.0095    3.3020    2.8906 O   0  0  0  0  0  0  0  0  0  0  0  0
    0.5360    1.6770    1.9950 C   0  0  0  0  0  0  0  0  0  0  0  0
    1.2681    0.3470    2.2375 C   0  0  0  0  0  0  0  0  0  0  0  0
    1.8284    0.1935    3.6819 C   0  0  2  0  0  0  0  0  0  0  0  0
    2.9383    1.2577    3.8932 C   0  0  0  0  0  0  0  0  0  0  0  0
    3.1685   -4.2021    3.1392 C   0  0  0  0  0  0  0  0  0  0  0  0
    2.7033   -5.6660    2.9366 C   0  0  1  0  0  0  0  0  0  0  0  0
    3.4261   -5.5852    0.2992 H   0  0  0  0  0  0  0  0  0  0  0  0
    4.8410   -6.6128    0.3258 H   0  0  0  0  0  0  0  0  0  0  0  0
    4.8622   -5.1132    1.2117 H   0  0  0  0  0  0  0  0  0  0  0  0
    2.3649   -8.3775    2.5871 H   0  0  0  0  0  0  0  0  0  0  0  0
    2.0720   -7.6340    1.0521 H   0  0  0  0  0  0  0  0  0  0  0  0
    3.1226   -9.8828    0.8770 H   0  0  0  0  0  0  0  0  0  0  0  0
    4.1051   -8.6759    0.0998 H   0  0  0  0  0  0  0  0  0  0  0  0
    4.5851  -10.0047    2.7975 H   0  0  0  0  0  0  0  0  0  0  0  0
    5.2571  -10.9753    0.8748 H   0  0  0  0  0  0  0  0  0  0  0  0
    6.5026   -8.5379    3.1559 H   0  0  0  0  0  0  0  0  0  0  0  0
    6.2781   -7.7509    1.6300 H   0  0  0  0  0  0  0  0  0  0  0  0
    5.4701   -6.2868    3.3306 H   0  0  0  0  0  0  0  0  0  0  0  0
    3.7019   -8.5185    4.4014 H   0  0  0  0  0  0  0  0  0  0  0  0
    5.1543   -7.8947    5.1317 H   0  0  0  0  0  0  0  0  0  0  0  0
    3.1456   -6.9221    6.1498 H   0  0  0  0  0  0  0  0  0  0  0  0
    4.1403   -5.6851    5.4077 H   0  0  0  0  0  0  0  0  0  0  0  0
    1.5720   -6.9268    4.3127 H   0  0  0  0  0  0  0  0  0  0  0  0
    0.5694   -4.8372    4.4915 H   0  0  0  0  0  0  0  0  0  0  0  0
    1.4945   -4.8630    5.9721 H   0  0  0  0  0  0  0  0  0  0  0  0
    2.8503   -3.0404    6.3781 H   0  0  0  0  0  0  0  0  0  0  0  0
    4.2718   -3.4333    5.4513 H   0  0  0  0  0  0  0  0  0  0  0  0
    3.1395   -0.8712    5.8960 H   0  0  0  0  0  0  0  0  0  0  0  0
    4.4292   -1.2103    4.7546 H   0  0  0  0  0  0  0  0  0  0  0  0
    3.0710   -1.4022    2.9546 H   0  0  0  0  0  0  0  0  0  0  0  0
    0.9906   -2.6061    2.9638 H   0  0  0  0  0  0  0  0  0  0  0  0
   -0.4103   -2.8594    4.9527 H   0  0  0  0  0  0  0  0  0  0  0  0
    0.7654   -2.0655    5.9756 H   0  0  0  0  0  0  0  0  0  0  0  0
   -0.8506   -0.8182    3.7291 H   0  0  0  0  0  0  0  0  0  0  0  0
   -1.1110   -0.5815    5.4339 H   0  0  0  0  0  0  0  0  0  0  0  0
    1.0793    0.4518    5.7003 H   0  0  0  0  0  0  0  0  0  0  0  0
   -0.8933    1.8688    5.1748 H   0  0  0  0  0  0  0  0  0  0  0  0
    0.6208    2.5824    4.7389 H   0  0  0  0  0  0  0  0  0  0  0  0
   -1.4051    1.3010    2.8596 H   0  0  0  0  0  0  0  0  0  0  0  0
   -0.5746    3.6972    2.1210 H   0  0  0  0  0  0  0  0  0  0  0  0
    0.0757    1.6513    1.0075 H   0  0  0  0  0  0  0  0  0  0  0  0
    1.2531    2.4966    1.9634 H   0  0  0  0  0  0  0  0  0  0  0  0
    0.5759   -0.4645    2.0192 H   0  0  0  0  0  0  0  0  0  0  0  0
    2.0712    0.2408    1.5087 H   0  0  0  0  0  0  0  0  0  0  0  0
    2.5828    2.2671    3.6979 H   0  0  0  0  0  0  0  0  0  0  0  0
    3.7797    1.0883    3.2239 H   0  0  0  0  0  0  0  0  0  0  0  0
    3.3087    1.2610    4.9171 H   0  0  0  0  0  0  0  0  0  0  0  0
    3.0382   -3.6282    2.2233 H   0  0  0  0  0  0  0  0  0  0  0  0
    4.2372   -4.1690    3.3547 H   0  0  0  0  0  0  0  0  0  0  0  0
    1.7930   -5.6040    2.3434 H   0  0  0  0  0  0  0  0  0  0  0  0
  2  1  1  6
  1 30  1  0
  1 31  1  0
  1 32  1  0
  2  8  1  0
  2 29  1  0
  2  3  1  0
  3  4  1  0
  3 33  1  0
  3 34  1  0
  4  5  1  0
  4 35  1  0
  4 36  1  0
  5  6  1  0
  5  7  1  0
  5 37  1  1
  6 38  1  0
  7  8  1  0
  7 39  1  0
  7 40  1  0
  8  9  1  0
  8 41  1  1
  9 10  1  0
  9 42  1  0
  9 43  1  0
 10 11  1  0
 10 44  1  0
 10 45  1  0
 11 29  1  0
 11 12  1  0
 11 46  1  6
 13 12  1  1
 12 47  1  0
 12 48  1  0
 13 17  1  0
 13 14  1  0
 13 28  1  0
 14 15  1  0
 14 49  1  0
 14 50  1  0
 15 16  1  0
 15 51  1  0
 15 52  1  0
 16 26  1  0
 16 17  1  0
 16 53  1  6
 17 18  1  0
 17 54  1  6
 18 19  1  0
 18 55  1  0
 18 56  1  0
 19 20  1  0
 19 57  1  0
 19 58  1  0
 20 26  1  0
 20 21  1  0
 20 59  1  1
 21 22  1  0
 21 60  1  0
 21 61  1  0
 22 23  1  0
 22 24  1  0
 22 62  1  6
 23 63  1  0
 24 25  1  0
 24 64  1  0
 24 65  1  0
 25 26  1  0
 25 66  1  0
 25 67  1  0
 26 27  1  1
 27 68  1  0
 27 69  1  0
 27 70  1  0
 28 29  1  0
 28 71  1  0
 28 72  1  0
 29 73  1  6
M  END
>  <i_m_ct_stereo_status>  (177) 
1

>  <s_m_source_file>  (177) 
/var/tmp/pbs.5076255.sched01/tmpnszqc94g/84e4epk0lh.sdf

>  <i_m_source_file_index>  (177) 
5

>  <i_lp_mmshare_version>  (177) 
48012

>  <i_f3d_flags>  (177) 
0

>  <s_epik_input>  (177) 
W0NIMl0xW0NIMl1bQ0BASF0oW09IXSlbQ0gyXVtDQEhdKFtDSDJdW0NIMl0yKVtDQF0xKFtDSDNdKVtDQEhdKFtDSDJdMylbQ0BASF0yW0NIMl1bQ0BdMzRbQ0BASF01W0NASF0oW0NIMl1bQ0gyXTQpW0NAXTYoW0NIM10pW0NASF0oW0NIMl1bQ0gyXTUpW0NIMl1bQ0BASF0oW09IXSlbQ0gyXVtDSDJdNg==

>  <s_epik_cmdline>  (177) 
J2VwaWtfcHl0aG9uJywgJy1waHQnLCAnMi4wJywgJy1waCcsICc3LjAnLCAnLXRuJywgJzgnLCAnLW1hJywgJzIwMCcsICctaW1hZScsICc8aW5maWxlLm1hZT4nLCAnLW9tYWUnLCAnPG91dGZpbGUubWFlPic=

>  <r_lp_tautomer_probability>  (177) 
1

>  <r_epik_Ionization_Penalty>  (177) 
6.31874e-06

>  <r_epik_Ionization_Penalty_Charging>  (177) 
0

>  <r_epik_Ionization_Penalty_Neutral>  (177) 
6.31874e-06

>  <r_epik_State_Penalty>  (177) 
-0

>  <r_epik_Charging_Adjusted_Penalty>  (177) 
0

>  <i_epik_Tot_Q>  (177) 
0

>  <i_epik_Tot_abs_Q>  (177) 
0

>  <s_lp_Force_Field>  (177) 
OPLS3e

>  <r_lp_Energy>  (177) 
62.1425

>  <b_lp_Chiralities_Consistent>  (177) 
1

>  <s_lp_Variant>  (177) 
59:0-1

>  <s_i_glide_gridfile>  (177) 
pfpi4k_grid

>  <i_i_glide_lignum>  (177) 
5

>  <i_i_glide_rotatable_bonds>  (177) 
2

>  <r_i_docking_score>  (177) 
-3.82941

>  <r_i_glide_ligand_efficiency>  (177) 
-0.132049

>  <r_i_glide_ligand_efficiency_sa>  (177) 
-0.405695

>  <r_i_glide_ligand_efficiency_ln>  (177) 
-0.876838

>  <r_i_glide_gscore>  (177) 
-3.82941

>  <r_i_glide_lipo>  (177) 
-0.131032

>  <r_i_glide_hbond>  (177) 
-0.304

>  <r_i_glide_metal>  (177) 
-0

>  <r_i_glide_rewards>  (177) 
-0.677475

>  <r_i_glide_evdw>  (177) 
-24.1453

>  <r_i_glide_ecoul>  (177) 
-10.0643

>  <r_i_glide_erotb>  (177) 
0

>  <r_i_glide_esite>  (177) 
0

>  <r_i_glide_emodel>  (177) 
-42.6142

>  <r_i_glide_energy>  (177) 
-34.2096

>  <r_i_glide_einternal>  (177) 
1.78684

>  <r_i_glide_intrahb_reward>  (177) 
-0

>  <i_i_glide_confnum>  (177) 
1

>  <i_i_glide_posenum>  (177) 
34

>  <r_i_glide_eff_state_penalty>  (177) 
0

>  <ligand_id>  (177) 
59

>  <original_smiles>  (177) 
CC12CCC(O)CC1CCC1CC3(CCC4C3CCC3CC(O)CCC34C)CC12

>  <smiles>  (177) 
[H]OC1([H])C([H])([H])C([H])([H])C2(C([H])([H])[H])C([H])(C([H])([H])C([H])([H])C3([H])C([H])([H])C4(C([H])([H])C([H])([H])C5([H])C4([H])C([H])([H])C([H])([H])C4([H])C([H])([H])C([H])(O[H])C([H])([H])C([H])([H])C45C([H])([H])[H])C([H])([H])C32[H])C1([H])[H]

$$$$
59:0:1
     RDKit          3D

 73 78  0  0  1  0  0  0  0  0999 V2000
    4.7202   -5.6793    0.8539 C   0  0  0  0  0  0  0  0  0  0  0  0
    4.2076   -6.4449    2.0991 C   0  0  1  0  0  0  0  0  0  0  0  0
    3.4965   -7.7463    1.6250 C   0  0  0  0  0  0  0  0  0  0  0  0
    4.4413   -8.7610    0.9440 C   0  0  0  0  0  0  0  0  0  0  0  0
    5.6717   -9.0918    1.8062 C   0  0  1  0  0  0  0  0  0  0  0  0
    6.6061   -9.8343    1.0504 O   0  0  0  0  0  0  0  0  0  0  0  0
    6.3710   -7.8339    2.3453 C   0  0  0  0  0  0  0  0  0  0  0  0
    5.3972   -6.8440    3.0287 C   0  0  2  0  0  0  0  0  0  0  0  0
    4.9130   -7.3788    4.3928 C   0  0  0  0  0  0  0  0  0  0  0  0
    4.0130   -6.3620    5.0990 C   0  0  0  0  0  0  0  0  0  0  0  0
    2.7798   -6.0025    4.2487 C   0  0  1  0  0  0  0  0  0  0  0  0
    1.9943   -4.8071    4.8034 C   0  0  0  0  0  0  0  0  0  0  0  0
    2.6786   -3.5215    4.2691 C   0  0  2  0  0  0  0  0  0  0  0  0
    3.5616   -2.8158    5.3291 C   0  0  0  0  0  0  0  0  0  0  0  0
    3.5710   -1.3141    4.9884 C   0  0  0  0  0  0  0  0  0  0  0  0
    2.6070   -1.1321    3.7974 C   0  0  1  0  0  0  0  0  0  0  0  0
    1.6969   -2.3793    3.8753 C   0  0  2  0  0  0  0  0  0  0  0  0
    0.5675   -2.1490    4.9112 C   0  0  0  0  0  0  0  0  0  0  0  0
   -0.2179   -0.8620    4.6480 C   0  0  0  0  0  0  0  0  0  0  0  0
    0.6959    0.3786    4.6728 C   0  0  2  0  0  0  0  0  0  0  0  0
   -0.1144    1.6809    4.4673 C   0  0  0  0  0  0  0  0  0  0  0  0
   -0.6214    1.8581    3.0262 C   0  0  1  0  0  0  0  0  0  0  0  0
   -1.1508    3.1643    2.8847 O   0  0  0  0  0  0  0  0  0  0  0  0
    0.4879    1.6545    1.9849 C   0  0  0  0  0  0  0  0  0  0  0  0
    1.3110    0.3752    2.2160 C   0  0  0  0  0  0  0  0  0  0  0  0
    1.8739    0.2491    3.6590 C   0  0  2  0  0  0  0  0  0  0  0  0
    2.9080    1.3839    3.8844 C   0  0  0  0  0  0  0  0  0  0  0  0
    3.5330   -4.0364    3.0688 C   0  0  0  0  0  0  0  0  0  0  0  0
    3.1752   -5.5271    2.8463 C   0  0  1  0  0  0  0  0  0  0  0  0
    3.8970   -5.3594    0.2152 H   0  0  0  0  0  0  0  0  0  0  0  0
    5.3809   -6.2817    0.2330 H   0  0  0  0  0  0  0  0  0  0  0  0
    5.2917   -4.7971    1.1355 H   0  0  0  0  0  0  0  0  0  0  0  0
    3.0241   -8.2493    2.4694 H   0  0  0  0  0  0  0  0  0  0  0  0
    2.6821   -7.5017    0.9427 H   0  0  0  0  0  0  0  0  0  0  0  0
    3.8954   -9.6847    0.7423 H   0  0  0  0  0  0  0  0  0  0  0  0
    4.7386   -8.3824   -0.0317 H   0  0  0  0  0  0  0  0  0  0  0  0
    5.3545   -9.7124    2.6457 H   0  0  0  0  0  0  0  0  0  0  0  0
    6.9234   -9.2827    0.3496 H   0  0  0  0  0  0  0  0  0  0  0  0
    7.1551   -8.1213    3.0469 H   0  0  0  0  0  0  0  0  0  0  0  0
    6.8917   -7.3199    1.5377 H   0  0  0  0  0  0  0  0  0  0  0  0
    5.9741   -5.9421    3.2467 H   0  0  0  0  0  0  0  0  0  0  0  0
    4.3712   -8.3176    4.2830 H   0  0  0  0  0  0  0  0  0  0  0  0
    5.7710   -7.6000    5.0263 H   0  0  0  0  0  0  0  0  0  0  0  0
    3.6950   -6.7782    6.0563 H   0  0  0  0  0  0  0  0  0  0  0  0
    4.6013   -5.4742    5.3243 H   0  0  0  0  0  0  0  0  0  0  0  0
    2.1317   -6.8799    4.2013 H   0  0  0  0  0  0  0  0  0  0  0  0
    0.9842   -4.8713    4.4042 H   0  0  0  0  0  0  0  0  0  0  0  0
    1.9012   -4.8435    5.8907 H   0  0  0  0  0  0  0  0  0  0  0  0
    3.1235   -2.9352    6.3225 H   0  0  0  0  0  0  0  0  0  0  0  0
    4.5729   -3.2163    5.3958 H   0  0  0  0  0  0  0  0  0  0  0  0
    3.2570   -0.7435    5.8628 H   0  0  0  0  0  0  0  0  0  0  0  0
    4.5743   -0.9780    4.7232 H   0  0  0  0  0  0  0  0  0  0  0  0
    3.2356   -1.2468    2.9121 H   0  0  0  0  0  0  0  0  0  0  0  0
    1.2449   -2.5919    2.9062 H   0  0  0  0  0  0  0  0  0  0  0  0
   -0.1383   -2.9778    4.8909 H   0  0  0  0  0  0  0  0  0  0  0  0
    0.9734   -2.1101    5.9217 H   0  0  0  0  0  0  0  0  0  0  0  0
   -0.7257   -0.9518    3.6910 H   0  0  0  0  0  0  0  0  0  0  0  0
   -0.9970   -0.7550    5.3988 H   0  0  0  0  0  0  0  0  0  0  0  0
    1.1189    0.4280    5.6790 H   0  0  0  0  0  0  0  0  0  0  0  0
   -0.9550    1.7056    5.1613 H   0  0  0  0  0  0  0  0  0  0  0  0
    0.5059    2.5333    4.7448 H   0  0  0  0  0  0  0  0  0  0  0  0
   -1.4236    1.1453    2.8408 H   0  0  0  0  0  0  0  0  0  0  0  0
   -0.6732    3.6041    2.1686 H   0  0  0  0  0  0  0  0  0  0  0  0
    0.0346    1.6106    0.9939 H   0  0  0  0  0  0  0  0  0  0  0  0
    1.1491    2.5205    1.9619 H   0  0  0  0  0  0  0  0  0  0  0  0
    0.6748   -0.4798    1.9830 H   0  0  0  0  0  0  0  0  0  0  0  0
    2.1194    0.3353    1.4846 H   0  0  0  0  0  0  0  0  0  0  0  0
    2.4878    2.3721    3.6989 H   0  0  0  0  0  0  0  0  0  0  0  0
    3.7660    1.2854    3.2195 H   0  0  0  0  0  0  0  0  0  0  0  0
    3.2772    1.4056    4.9087 H   0  0  0  0  0  0  0  0  0  0  0  0
    3.3605   -3.4606    2.1600 H   0  0  0  0  0  0  0  0  0  0  0  0
    4.5945   -3.9320    3.2890 H   0  0  0  0  0  0  0  0  0  0  0  0
    2.2586   -5.5197    2.2517 H   0  0  0  0  0  0  0  0  0  0  0  0
  2  1  1  6
  1 30  1  0
  1 31  1  0
  1 32  1  0
  2  8  1  0
  2 29  1  0
  2  3  1  0
  3  4  1  0
  3 33  1  0
  3 34  1  0
  4  5  1  0
  4 35  1  0
  4 36  1  0
  5  6  1  0
  5  7  1  0
  5 37  1  1
  6 38  1  0
  7  8  1  0
  7 39  1  0
  7 40  1  0
  8  9  1  0
  8 41  1  1
  9 10  1  0
  9 42  1  0
  9 43  1  0
 10 11  1  0
 10 44  1  0
 10 45  1  0
 11 29  1  0
 11 12  1  0
 11 46  1  6
 13 12  1  1
 12 47  1  0
 12 48  1  0
 13 17  1  0
 13 14  1  0
 13 28  1  0
 14 15  1  0
 14 49  1  0
 14 50  1  0
 15 16  1  0
 15 51  1  0
 15 52  1  0
 16 26  1  0
 16 17  1  0
 16 53  1  6
 17 18  1  0
 17 54  1  6
 18 19  1  0
 18 55  1  0
 18 56  1  0
 19 20  1  0
 19 57  1  0
 19 58  1  0
 20 26  1  0
 20 21  1  0
 20 59  1  1
 21 22  1  0
 21 60  1  0
 21 61  1  0
 22 23  1  0
 22 24  1  0
 22 62  1  6
 23 63  1  0
 24 25  1  0
 24 64  1  0
 24 65  1  0
 25 26  1  0
 25 66  1  0
 25 67  1  0
 26 27  1  1
 27 68  1  0
 27 69  1  0
 27 70  1  0
 28 29  1  0
 28 71  1  0
 28 72  1  0
 29 73  1  6
M  END
>  <i_m_ct_stereo_status>  (178) 
1

>  <s_m_source_file>  (178) 
/var/tmp/pbs.5076255.sched01/tmpnszqc94g/84e4epk0lh.sdf

>  <i_m_source_file_index>  (178) 
5

>  <i_lp_mmshare_version>  (178) 
48012

>  <i_f3d_flags>  (178) 
0

>  <s_epik_input>  (178) 
W0NIMl0xW0NIMl1bQ0BASF0oW09IXSlbQ0gyXVtDQEhdKFtDSDJdW0NIMl0yKVtDQF0xKFtDSDNdKVtDQEhdKFtDSDJdMylbQ0BASF0yW0NIMl1bQ0BdMzRbQ0BASF01W0NASF0oW0NIMl1bQ0gyXTQpW0NAXTYoW0NIM10pW0NASF0oW0NIMl1bQ0gyXTUpW0NIMl1bQ0BASF0oW09IXSlbQ0gyXVtDSDJdNg==

>  <s_epik_cmdline>  (178) 
J2VwaWtfcHl0aG9uJywgJy1waHQnLCAnMi4wJywgJy1waCcsICc3LjAnLCAnLXRuJywgJzgnLCAnLW1hJywgJzIwMCcsICctaW1hZScsICc8aW5maWxlLm1hZT4nLCAnLW9tYWUnLCAnPG91dGZpbGUubWFlPic=

>  <r_lp_tautomer_probability>  (178) 
1

>  <r_epik_Ionization_Penalty>  (178) 
6.31874e-06

>  <r_epik_Ionization_Penalty_Charging>  (178) 
0

>  <r_epik_Ionization_Penalty_Neutral>  (178) 
6.31874e-06

>  <r_epik_State_Penalty>  (178) 
-0

>  <r_epik_Charging_Adjusted_Penalty>  (178) 
0

>  <i_epik_Tot_Q>  (178) 
0

>  <i_epik_Tot_abs_Q>  (178) 
0

>  <s_lp_Force_Field>  (178) 
OPLS3e

>  <r_lp_Energy>  (178) 
62.1425

>  <b_lp_Chiralities_Consistent>  (178) 
1

>  <s_lp_Variant>  (178) 
59:0-1

>  <s_i_glide_gridfile>  (178) 
pfpi4k_grid

>  <i_i_glide_lignum>  (178) 
5

>  <i_i_glide_rotatable_bonds>  (178) 
2

>  <r_i_docking_score>  (178) 
-2.99672

>  <r_i_glide_ligand_efficiency>  (178) 
-0.103335

>  <r_i_glide_ligand_efficiency_sa>  (178) 
-0.317479

>  <r_i_glide_ligand_efficiency_ln>  (178) 
-0.686173

>  <r_i_glide_gscore>  (178) 
-2.99672

>  <r_i_glide_lipo>  (178) 
-0.175554

>  <r_i_glide_hbond>  (178) 
-0.16

>  <r_i_glide_metal>  (178) 
-0

>  <r_i_glide_rewards>  (178) 
-0.677475

>  <r_i_glide_evdw>  (178) 
-25.7959

>  <r_i_glide_ecoul>  (178) 
-4.626

>  <r_i_glide_erotb>  (178) 
0

>  <r_i_glide_esite>  (178) 
0

>  <r_i_glide_emodel>  (178) 
-36.7628

>  <r_i_glide_energy>  (178) 
-30.4219

>  <r_i_glide_einternal>  (178) 
1.46085

>  <r_i_glide_intrahb_reward>  (178) 
-0

>  <i_i_glide_confnum>  (178) 
1

>  <i_i_glide_posenum>  (178) 
1

>  <r_i_glide_eff_state_penalty>  (178) 
0

>  <ligand_id>  (178) 
59

>  <original_smiles>  (178) 
CC12CCC(O)CC1CCC1CC3(CCC4C3CCC3CC(O)CCC34C)CC12

>  <smiles>  (178) 
[H]OC1([H])C([H])([H])C([H])([H])C2(C([H])([H])[H])C([H])(C([H])([H])C([H])([H])C3([H])C([H])([H])C4(C([H])([H])C([H])([H])C5([H])C4([H])C([H])([H])C([H])([H])C4([H])C([H])([H])C([H])(O[H])C([H])([H])C([H])([H])C45C([H])([H])[H])C([H])([H])C32[H])C1([H])[H]

$$$$
59:0:2
     RDKit          3D

 73 78  0  0  1  0  0  0  0  0999 V2000
    1.2284   -7.3883    3.6574 C   0  0  0  0  0  0  0  0  0  0  0  0
    1.8758   -6.4990    4.7446 C   0  0  1  0  0  0  0  0  0  0  0  0
    0.7970   -6.1469    5.8093 C   0  0  0  0  0  0  0  0  0  0  0  0
    0.2939   -7.3671    6.6054 C   0  0  0  0  0  0  0  0  0  0  0  0
    1.4214   -8.1944    7.2329 C   0  0  1  0  0  0  0  0  0  0  0  0
    0.8638   -9.3781    7.7779 O   0  0  0  0  0  0  0  0  0  0  0  0
    2.5427   -8.5134    6.2297 C   0  0  0  0  0  0  0  0  0  0  0  0
    3.0395   -7.2617    5.4588 C   0  0  2  0  0  0  0  0  0  0  0  0
    3.8670   -6.3277    6.3698 C   0  0  0  0  0  0  0  0  0  0  0  0
    4.4249   -5.1349    5.5898 C   0  0  0  0  0  0  0  0  0  0  0  0
    3.3024   -4.3098    4.9318 C   0  0  1  0  0  0  0  0  0  0  0  0
    3.8276   -3.2729    3.9335 C   0  0  0  0  0  0  0  0  0  0  0  0
    4.0179   -3.9950    2.5737 C   0  0  2  0  0  0  0  0  0  0  0  0
    5.4949   -4.3292    2.2602 C   0  0  0  0  0  0  0  0  0  0  0  0
    5.6531   -4.3347    0.7309 C   0  0  0  0  0  0  0  0  0  0  0  0
    4.2909   -3.9017    0.1528 C   0  0  1  0  0  0  0  0  0  0  0  0
    3.6293   -3.1476    1.3309 C   0  0  2  0  0  0  0  0  0  0  0  0
    4.1434   -1.6864    1.3965 C   0  0  0  0  0  0  0  0  0  0  0  0
    3.9918   -0.9546    0.0649 C   0  0  0  0  0  0  0  0  0  0  0  0
    4.7382   -1.6715   -1.0729 C   0  0  2  0  0  0  0  0  0  0  0  0
    4.6050   -0.9136   -2.4139 C   0  0  0  0  0  0  0  0  0  0  0  0
    3.2165   -1.0095   -3.0586 C   0  0  1  0  0  0  0  0  0  0  0  0
    3.3056   -0.4835   -4.3658 O   0  0  0  0  0  0  0  0  0  0  0  0
    2.6954   -2.4460   -3.1407 C   0  0  0  0  0  0  0  0  0  0  0  0
    2.8464   -3.1815   -1.7986 C   0  0  0  0  0  0  0  0  0  0  0  0
    4.2898   -3.1494   -1.2236 C   0  0  2  0  0  0  0  0  0  0  0  0
    5.2471   -3.8708   -2.1977 C   0  0  0  0  0  0  0  0  0  0  0  0
    3.1630   -5.2909    2.7295 C   0  0  0  0  0  0  0  0  0  0  0  0
    2.3825   -5.1774    4.0616 C   0  0  1  0  0  0  0  0  0  0  0  0
    0.4432   -6.8514    3.1225 H   0  0  0  0  0  0  0  0  0  0  0  0
    0.7737   -8.2883    4.0673 H   0  0  0  0  0  0  0  0  0  0  0  0
    1.9649   -7.7217    2.9269 H   0  0  0  0  0  0  0  0  0  0  0  0
    1.1853   -5.4191    6.5217 H   0  0  0  0  0  0  0  0  0  0  0  0
   -0.0555   -5.6558    5.3368 H   0  0  0  0  0  0  0  0  0  0  0  0
   -0.3481   -7.0140    7.4110 H   0  0  0  0  0  0  0  0  0  0  0  0
   -0.3216   -8.0038    5.9705 H   0  0  0  0  0  0  0  0  0  0  0  0
    1.8451   -7.6308    8.0623 H   0  0  0  0  0  0  0  0  0  0  0  0
    1.1850  -10.1418    7.3116 H   0  0  0  0  0  0  0  0  0  0  0  0
    3.3785   -8.9811    6.7496 H   0  0  0  0  0  0  0  0  0  0  0  0
    2.1971   -9.2590    5.5155 H   0  0  0  0  0  0  0  0  0  0  0  0
    3.7260   -7.6228    4.6912 H   0  0  0  0  0  0  0  0  0  0  0  0
    3.2795   -5.9583    7.2095 H   0  0  0  0  0  0  0  0  0  0  0  0
    4.6929   -6.8857    6.8109 H   0  0  0  0  0  0  0  0  0  0  0  0
    5.0070   -4.5052    6.2636 H   0  0  0  0  0  0  0  0  0  0  0  0
    5.1186   -5.5093    4.8389 H   0  0  0  0  0  0  0  0  0  0  0  0
    2.7396   -3.8125    5.7241 H   0  0  0  0  0  0  0  0  0  0  0  0
    3.0602   -2.5065    3.8348 H   0  0  0  0  0  0  0  0  0  0  0  0
    4.7224   -2.7636    4.2964 H   0  0  0  0  0  0  0  0  0  0  0  0
    6.1413   -3.5461    2.6589 H   0  0  0  0  0  0  0  0  0  0  0  0
    5.8400   -5.2612    2.7079 H   0  0  0  0  0  0  0  0  0  0  0  0
    6.4549   -3.6511    0.4487 H   0  0  0  0  0  0  0  0  0  0  0  0
    5.9204   -5.3287    0.3678 H   0  0  0  0  0  0  0  0  0  0  0  0
    3.7347   -4.8329    0.0084 H   0  0  0  0  0  0  0  0  0  0  0  0
    2.5455   -3.1235    1.2176 H   0  0  0  0  0  0  0  0  0  0  0  0
    3.5987   -1.1207    2.1501 H   0  0  0  0  0  0  0  0  0  0  0  0
    5.1939   -1.6626    1.6872 H   0  0  0  0  0  0  0  0  0  0  0  0
    2.9327   -0.8652   -0.1564 H   0  0  0  0  0  0  0  0  0  0  0  0
    4.3626    0.0646    0.1635 H   0  0  0  0  0  0  0  0  0  0  0  0
    5.7976   -1.6541   -0.8052 H   0  0  0  0  0  0  0  0  0  0  0  0
    4.8761    0.1342   -2.2887 H   0  0  0  0  0  0  0  0  0  0  0  0
    5.3349   -1.3207   -3.1119 H   0  0  0  0  0  0  0  0  0  0  0  0
    2.5160   -0.3987   -2.4881 H   0  0  0  0  0  0  0  0  0  0  0  0
    2.4382   -0.4944   -4.7533 H   0  0  0  0  0  0  0  0  0  0  0  0
    1.6449   -2.4362   -3.4242 H   0  0  0  0  0  0  0  0  0  0  0  0
    3.2011   -2.9839   -3.9400 H   0  0  0  0  0  0  0  0  0  0  0  0
    2.1636   -2.7293   -1.0829 H   0  0  0  0  0  0  0  0  0  0  0  0
    2.4952   -4.2066   -1.9089 H   0  0  0  0  0  0  0  0  0  0  0  0
    5.2027   -3.4876   -3.2147 H   0  0  0  0  0  0  0  0  0  0  0  0
    5.0157   -4.9352   -2.2622 H   0  0  0  0  0  0  0  0  0  0  0  0
    6.2875   -3.7869   -1.8827 H   0  0  0  0  0  0  0  0  0  0  0  0
    2.4764   -5.4369    1.8958 H   0  0  0  0  0  0  0  0  0  0  0  0
    3.8074   -6.1695    2.7454 H   0  0  0  0  0  0  0  0  0  0  0  0
    1.5024   -4.5669    3.8368 H   0  0  0  0  0  0  0  0  0  0  0  0
  2  1  1  6
  1 30  1  0
  1 31  1  0
  1 32  1  0
  2  8  1  0
  2 29  1  0
  2  3  1  0
  3  4  1  0
  3 33  1  0
  3 34  1  0
  4  5  1  0
  4 35  1  0
  4 36  1  0
  5  6  1  0
  5  7  1  0
  5 37  1  1
  6 38  1  0
  7  8  1  0
  7 39  1  0
  7 40  1  0
  8  9  1  0
  8 41  1  6
  9 10  1  0
  9 42  1  0
  9 43  1  0
 10 11  1  0
 10 44  1  0
 10 45  1  0
 11 29  1  0
 11 12  1  0
 11 46  1  1
 13 12  1  1
 12 47  1  0
 12 48  1  0
 13 17  1  0
 13 14  1  0
 13 28  1  0
 14 15  1  0
 14 49  1  0
 14 50  1  0
 15 16  1  0
 15 51  1  0
 15 52  1  0
 16 26  1  0
 16 17  1  0
 16 53  1  6
 17 18  1  0
 17 54  1  6
 18 19  1  0
 18 55  1  0
 18 56  1  0
 19 20  1  0
 19 57  1  0
 19 58  1  0
 20 26  1  0
 20 21  1  0
 20 59  1  1
 21 22  1  0
 21 60  1  0
 21 61  1  0
 22 23  1  0
 22 24  1  0
 22 62  1  1
 23 63  1  0
 24 25  1  0
 24 64  1  0
 24 65  1  0
 25 26  1  0
 25 66  1  0
 25 67  1  0
 26 27  1  6
 27 68  1  0
 27 69  1  0
 27 70  1  0
 28 29  1  0
 28 71  1  0
 28 72  1  0
 29 73  1  6
M  END
>  <i_m_ct_stereo_status>  (179) 
1

>  <s_m_source_file>  (179) 
/var/tmp/pbs.5076255.sched01/tmpnszqc94g/84e4epk0lh.sdf

>  <i_m_source_file_index>  (179) 
5

>  <i_lp_mmshare_version>  (179) 
48012

>  <i_f3d_flags>  (179) 
0

>  <s_epik_input>  (179) 
W0NIMl0xW0NIMl1bQ0BASF0oW09IXSlbQ0gyXVtDQEhdKFtDSDJdW0NIMl0yKVtDQF0xKFtDSDNdKVtDQEhdKFtDSDJdMylbQ0BASF0yW0NIMl1bQ0BdMzRbQ0BASF01W0NASF0oW0NIMl1bQ0gyXTQpW0NAXTYoW0NIM10pW0NASF0oW0NIMl1bQ0gyXTUpW0NIMl1bQ0BASF0oW09IXSlbQ0gyXVtDSDJdNg==

>  <s_epik_cmdline>  (179) 
J2VwaWtfcHl0aG9uJywgJy1waHQnLCAnMi4wJywgJy1waCcsICc3LjAnLCAnLXRuJywgJzgnLCAnLW1hJywgJzIwMCcsICctaW1hZScsICc8aW5maWxlLm1hZT4nLCAnLW9tYWUnLCAnPG91dGZpbGUubWFlPic=

>  <r_lp_tautomer_probability>  (179) 
1

>  <r_epik_Ionization_Penalty>  (179) 
6.31874e-06

>  <r_epik_Ionization_Penalty_Charging>  (179) 
0

>  <r_epik_Ionization_Penalty_Neutral>  (179) 
6.31874e-06

>  <r_epik_State_Penalty>  (179) 
-0

>  <r_epik_Charging_Adjusted_Penalty>  (179) 
0

>  <i_epik_Tot_Q>  (179) 
0

>  <i_epik_Tot_abs_Q>  (179) 
0

>  <s_lp_Force_Field>  (179) 
OPLS3e

>  <r_lp_Energy>  (179) 
62.1425

>  <b_lp_Chiralities_Consistent>  (179) 
1

>  <s_lp_Variant>  (179) 
59:0-1

>  <s_i_glide_gridfile>  (179) 
pfpi4k_grid

>  <i_i_glide_lignum>  (179) 
5

>  <i_i_glide_rotatable_bonds>  (179) 
2

>  <r_i_docking_score>  (179) 
-2.9876

>  <r_i_glide_ligand_efficiency>  (179) 
-0.103021

>  <r_i_glide_ligand_efficiency_sa>  (179) 
-0.316512

>  <r_i_glide_ligand_efficiency_ln>  (179) 
-0.684084

>  <r_i_glide_gscore>  (179) 
-2.9876

>  <r_i_glide_lipo>  (179) 
-0.255141

>  <r_i_glide_hbond>  (179) 
-0.0634767

>  <r_i_glide_metal>  (179) 
-0

>  <r_i_glide_rewards>  (179) 
-0.677475

>  <r_i_glide_evdw>  (179) 
-27.3958

>  <r_i_glide_ecoul>  (179) 
-4.14477

>  <r_i_glide_erotb>  (179) 
0

>  <r_i_glide_esite>  (179) 
0

>  <r_i_glide_emodel>  (179) 
-37.2274

>  <r_i_glide_energy>  (179) 
-31.5405

>  <r_i_glide_einternal>  (179) 
1.68941

>  <r_i_glide_intrahb_reward>  (179) 
-0

>  <i_i_glide_confnum>  (179) 
1

>  <i_i_glide_posenum>  (179) 
40

>  <r_i_glide_eff_state_penalty>  (179) 
0

>  <ligand_id>  (179) 
59

>  <original_smiles>  (179) 
CC12CCC(O)CC1CCC1CC3(CCC4C3CCC3CC(O)CCC34C)CC12

>  <smiles>  (179) 
[H]OC1([H])C([H])([H])C([H])([H])C2(C([H])([H])[H])C([H])(C([H])([H])C([H])([H])C3([H])C([H])([H])C4(C([H])([H])C([H])([H])C5([H])C4([H])C([H])([H])C([H])([H])C4([H])C([H])([H])C([H])(O[H])C([H])([H])C([H])([H])C45C([H])([H])[H])C([H])([H])C32[H])C1([H])[H]

$$$$
60:0:0
     RDKit          3D

 72 77  0  0  1  0  0  0  0  0999 V2000
    3.7205   -6.5554    1.1915 C   0  0  0  0  0  0  0  0  0  0  0  0
    3.6877   -5.1344    0.5938 C   0  0  0  0  0  0  0  0  0  0  0  0
    4.9423   -4.8743   -0.2618 C   0  0  0  0  0  0  0  0  0  0  0  0
    3.5149   -4.0669    1.7155 C   0  0  1  0  0  0  0  0  0  0  0  0
    3.4125   -2.5978    1.2811 C   0  0  0  0  0  0  0  0  0  0  0  0
    3.9176   -1.8789    2.5574 C   0  0  1  0  0  0  0  0  0  0  0  0
    5.2952   -1.2502    2.2196 C   0  0  0  0  0  0  0  0  0  0  0  0
    2.9494   -0.7678    3.1025 C   0  0  1  0  0  0  0  0  0  0  0  0
    2.2462    0.1059    2.0458 C   0  0  0  0  0  0  0  0  0  0  0  0
    1.6258    1.3852    2.6687 C   0  0  1  0  0  0  0  0  0  0  0  0
    0.5254    1.7530    1.8480 O   0  0  0  0  0  0  0  0  0  0  0  0
    1.2371    1.2413    4.1849 C   0  0  2  0  0  0  0  0  0  0  0  0
    0.8413   -0.2189    4.5498 C   0  0  1  0  0  0  0  0  0  0  0  0
   -0.5788   -0.5296    4.0574 C   0  0  0  0  0  0  0  0  0  0  0  0
   -1.6179    0.4477    4.6339 C   0  0  1  0  0  0  0  0  0  0  0  0
   -1.7956    0.2161    5.9375 F   0  0  0  0  0  0  0  0  0  0  0  0
   -1.2187    1.9068    4.3759 C   0  0  0  0  0  0  0  0  0  0  0  0
   -2.0697    2.7536    3.7458 C   0  0  0  0  0  0  0  0  0  0  0  0
   -1.6921    4.1189    3.3865 C   0  0  0  0  0  0  0  0  0  0  0  0
   -2.5015    4.8879    2.8699 O   0  0  0  0  0  0  0  0  0  0  0  0
   -0.3256    4.5429    3.6818 C   0  0  0  0  0  0  0  0  0  0  0  0
    0.5558    3.7078    4.2780 C   0  0  0  0  0  0  0  0  0  0  0  0
    0.2290    2.2979    4.7681 C   0  0  2  0  0  0  0  0  0  0  0  0
    0.3305    2.3810    6.3095 C   0  0  0  0  0  0  0  0  0  0  0  0
    1.9480   -1.2577    4.1955 C   0  0  1  0  0  0  0  0  0  0  0  0
    1.4721   -2.7177    3.9897 C   0  0  0  0  0  0  0  0  0  0  0  0
    2.6230   -3.7170    3.7285 C   0  0  1  0  0  0  0  0  0  0  0  0
    2.3876   -4.3490    2.4725 O   0  0  0  0  0  0  0  0  0  0  0  0
    4.0374   -3.1039    3.5191 C   0  0  2  0  0  0  0  0  0  0  0  0
    4.9758   -2.9859    4.7769 C   0  0  0  0  0  0  0  0  0  0  0  0
    5.1922   -4.3134    5.5286 C   0  0  0  0  0  0  0  0  0  0  0  0
    4.6186   -1.9200    5.8285 C   0  0  0  0  0  0  0  0  0  0  0  0
    4.5537   -4.0764    2.6228 O   0  0  0  0  0  0  0  0  0  0  0  0
    4.5663   -6.6834    1.8658 H   0  0  0  0  0  0  0  0  0  0  0  0
    3.8143   -7.3088    0.4064 H   0  0  0  0  0  0  0  0  0  0  0  0
    2.8115   -6.7857    1.7462 H   0  0  0  0  0  0  0  0  0  0  0  0
    2.8135   -5.0628   -0.0538 H   0  0  0  0  0  0  0  0  0  0  0  0
    5.8496   -4.9103    0.3422 H   0  0  0  0  0  0  0  0  0  0  0  0
    4.9126   -3.9123   -0.7728 H   0  0  0  0  0  0  0  0  0  0  0  0
    5.0283   -5.6283   -1.0462 H   0  0  0  0  0  0  0  0  0  0  0  0
    4.0555   -2.3898    0.4292 H   0  0  0  0  0  0  0  0  0  0  0  0
    2.3804   -2.3957    0.9937 H   0  0  0  0  0  0  0  0  0  0  0  0
    5.7744   -0.8115    3.0927 H   0  0  0  0  0  0  0  0  0  0  0  0
    5.2021   -0.4603    1.4713 H   0  0  0  0  0  0  0  0  0  0  0  0
    5.9887   -1.9909    1.8141 H   0  0  0  0  0  0  0  0  0  0  0  0
    3.6003   -0.0659    3.6150 H   0  0  0  0  0  0  0  0  0  0  0  0
    2.9403    0.3887    1.2451 H   0  0  0  0  0  0  0  0  0  0  0  0
    1.4623   -0.4855    1.5743 H   0  0  0  0  0  0  0  0  0  0  0  0
    2.3672    2.1861    2.5925 H   0  0  0  0  0  0  0  0  0  0  0  0
    0.5711    2.6776    1.6445 H   0  0  0  0  0  0  0  0  0  0  0  0
    2.1669    1.4194    4.7229 H   0  0  0  0  0  0  0  0  0  0  0  0
    0.7634   -0.2798    5.6295 H   0  0  0  0  0  0  0  0  0  0  0  0
   -0.5853   -0.4810    2.9683 H   0  0  0  0  0  0  0  0  0  0  0  0
   -0.8828   -1.5376    4.3449 H   0  0  0  0  0  0  0  0  0  0  0  0
   -2.5747    0.2641    4.1716 H   0  0  0  0  0  0  0  0  0  0  0  0
   -3.0561    2.4126    3.4620 H   0  0  0  0  0  0  0  0  0  0  0  0
   -0.0137    5.5280    3.3548 H   0  0  0  0  0  0  0  0  0  0  0  0
    1.5715    4.0472    4.4389 H   0  0  0  0  0  0  0  0  0  0  0  0
   -0.3780    3.1101    6.7078 H   0  0  0  0  0  0  0  0  0  0  0  0
    1.3243    2.6961    6.6244 H   0  0  0  0  0  0  0  0  0  0  0  0
    0.1221    1.4382    6.8123 H   0  0  0  0  0  0  0  0  0  0  0  0
    2.4903   -1.2747    5.1207 H   0  0  0  0  0  0  0  0  0  0  0  0
    0.9479   -3.0331    4.8900 H   0  0  0  0  0  0  0  0  0  0  0  0
    0.7482   -2.7902    3.1783 H   0  0  0  0  0  0  0  0  0  0  0  0
    2.6314   -4.5192    4.4642 H   0  0  0  0  0  0  0  0  0  0  0  0
    5.9533   -2.7001    4.3932 H   0  0  0  0  0  0  0  0  0  0  0  0
    4.2716   -4.6684    5.9919 H   0  0  0  0  0  0  0  0  0  0  0  0
    5.9122   -4.1736    6.3364 H   0  0  0  0  0  0  0  0  0  0  0  0
    5.5779   -5.0934    4.8739 H   0  0  0  0  0  0  0  0  0  0  0  0
    3.6626   -2.1535    6.2961 H   0  0  0  0  0  0  0  0  0  0  0  0
    4.5464   -0.9280    5.3895 H   0  0  0  0  0  0  0  0  0  0  0  0
    5.3801   -1.8503    6.6073 H   0  0  0  0  0  0  0  0  0  0  0  0
  1  2  1  0
  1 34  1  0
  1 35  1  0
  1 36  1  0
  2  3  1  0
  4  2  1  6
  2 37  1  0
  3 38  1  0
  3 39  1  0
  3 40  1  0
  4 28  1  0
  4 33  1  0
  4  5  1  0
  5  6  1  0
  5 41  1  0
  5 42  1  0
  6 29  1  0
  6  7  1  6
  6  8  1  0
  7 43  1  0
  7 44  1  0
  7 45  1  0
  8 25  1  0
  8  9  1  0
  8 46  1  1
  9 10  1  0
  9 47  1  0
  9 48  1  0
 10 11  1  0
 10 12  1  0
 10 49  1  1
 11 50  1  0
 12 23  1  0
 12 13  1  0
 12 51  1  1
 13 14  1  0
 13 25  1  0
 13 52  1  1
 14 15  1  0
 14 53  1  0
 14 54  1  0
 15 16  1  0
 15 17  1  0
 15 55  1  6
 17 23  1  0
 17 18  2  0
 18 19  1  0
 18 56  1  0
 19 20  2  0
 19 21  1  0
 21 22  2  0
 21 57  1  0
 22 23  1  0
 22 58  1  0
 23 24  1  1
 24 59  1  0
 24 60  1  0
 24 61  1  0
 25 26  1  0
 25 62  1  1
 26 27  1  0
 26 63  1  0
 26 64  1  0
 27 28  1  0
 27 29  1  0
 27 65  1  1
 29 30  1  1
 29 33  1  0
 30 31  1  0
 30 32  1  0
 30 66  1  0
 31 67  1  0
 31 68  1  0
 31 69  1  0
 32 70  1  0
 32 71  1  0
 32 72  1  0
M  END
>  <i_m_ct_stereo_status>  (180) 
1

>  <s_m_source_file>  (180) 
/var/tmp/pbs.5076255.sched01/tmpnszqc94g/84e4epk0lh.sdf

>  <i_m_source_file_index>  (180) 
6

>  <i_lp_mmshare_version>  (180) 
48012

>  <i_f3d_flags>  (180) 
0

>  <s_epik_input>  (180) 
W0NIM11bQ0hdKFtDSDNdKVtDQEBdMTJbQ0gyXVtDQEBdMyhbQ0gzXSlbQ0BASF00W0NASF0oW0NIMl1bQ0BASF0oTzEpW0NAXTMoTzIpW0NIXShbQ0gzXSlbQ0gzXSlbQ0BIXTVbQ0BASF0oW0NAQEhdKFtDSDJdNClbT0hdKVtDQF02KFtDSDNdKUMoW0NASF0oRilbQ0gyXTUpPVtDSF1DKD1PKVtDSF09W0NIXTY=

>  <s_epik_cmdline>  (180) 
J2VwaWtfcHl0aG9uJywgJy1waHQnLCAnMi4wJywgJy1waCcsICc3LjAnLCAnLXRuJywgJzgnLCAnLW1hJywgJzIwMCcsICctaW1hZScsICc8aW5maWxlLm1hZT4nLCAnLW9tYWUnLCAnPG91dGZpbGUubWFlPic=

>  <r_lp_tautomer_probability>  (180) 
1

>  <r_epik_Ionization_Penalty>  (180) 
6.639e-08

>  <r_epik_Ionization_Penalty_Charging>  (180) 
0

>  <r_epik_Ionization_Penalty_Neutral>  (180) 
6.639e-08

>  <r_epik_State_Penalty>  (180) 
-0

>  <r_epik_Charging_Adjusted_Penalty>  (180) 
0

>  <i_epik_Tot_Q>  (180) 
0

>  <i_epik_Tot_abs_Q>  (180) 
0

>  <s_lp_Force_Field>  (180) 
OPLS3e

>  <r_lp_Energy>  (180) 
52.7652

>  <b_lp_Chiralities_Consistent>  (180) 
1

>  <s_lp_Variant>  (180) 
60:0-1

>  <s_i_glide_gridfile>  (180) 
pfpi4k_grid

>  <i_i_glide_lignum>  (180) 
6

>  <i_i_glide_rotatable_bonds>  (180) 
3

>  <r_i_docking_score>  (180) 
-3.34755

>  <r_i_glide_ligand_efficiency>  (180) 
-0.101441

>  <r_i_glide_ligand_efficiency_sa>  (180) 
-0.325375

>  <r_i_glide_ligand_efficiency_ln>  (180) 
-0.744478

>  <r_i_glide_gscore>  (180) 
-3.34755

>  <r_i_glide_lipo>  (180) 
-0.240185

>  <r_i_glide_hbond>  (180) 
-0.32

>  <r_i_glide_metal>  (180) 
-0

>  <r_i_glide_rewards>  (180) 
-0.288134

>  <r_i_glide_evdw>  (180) 
-21.9425

>  <r_i_glide_ecoul>  (180) 
-8.11955

>  <r_i_glide_erotb>  (180) 
0

>  <r_i_glide_esite>  (180) 
-0.184172

>  <r_i_glide_emodel>  (180) 
-34.3999

>  <r_i_glide_energy>  (180) 
-30.0621

>  <r_i_glide_einternal>  (180) 
2.19918

>  <r_i_glide_intrahb_reward>  (180) 
-0

>  <i_i_glide_confnum>  (180) 
1

>  <i_i_glide_posenum>  (180) 
5

>  <r_i_glide_eff_state_penalty>  (180) 
0

>  <ligand_id>  (180) 
60

>  <original_smiles>  (180) 
CC(C)C12CC3(C)C4CC(O)C5C(CC(F)C6=CC(=O)C=CC65C)C4CC(O1)C3(C(C)C)O2

>  <smiles>  (180) 
[H]OC1([H])C([H])([H])C2([H])C([H])(C([H])([H])C3([H])OC4(C([H])(C([H])([H])[H])C([H])([H])[H])OC3(C([H])(C([H])([H])[H])C([H])([H])[H])C2(C([H])([H])[H])C4([H])[H])C2([H])C([H])([H])C([H])(F)C3=C([H])C(=O)C([H])=C([H])C3(C([H])([H])[H])C12[H]

$$$$
60:0:1
     RDKit          3D

 72 77  0  0  1  0  0  0  0  0999 V2000
    2.8435   -7.3670    1.6814 C   0  0  0  0  0  0  0  0  0  0  0  0
    2.9925   -6.0009    0.9805 C   0  0  0  0  0  0  0  0  0  0  0  0
    4.2461   -5.9809    0.0814 C   0  0  0  0  0  0  0  0  0  0  0  0
    3.0083   -4.8403    2.0138 C   0  0  1  0  0  0  0  0  0  0  0  0
    2.9246   -3.4102    1.4634 C   0  0  0  0  0  0  0  0  0  0  0  0
    3.6134   -2.6153    2.5981 C   0  0  1  0  0  0  0  0  0  0  0  0
    4.9566   -2.0846    2.0370 C   0  0  0  0  0  0  0  0  0  0  0  0
    2.7712   -1.4147    3.1627 C   0  0  1  0  0  0  0  0  0  0  0  0
    1.9718   -0.5997    2.1299 C   0  0  0  0  0  0  0  0  0  0  0  0
    1.4795    0.7503    2.7086 C   0  0  1  0  0  0  0  0  0  0  0  0
    0.2794    1.0529    2.0205 O   0  0  0  0  0  0  0  0  0  0  0  0
    1.2930    0.7567    4.2687 C   0  0  2  0  0  0  0  0  0  0  0  0
    0.8842   -0.6381    4.8127 C   0  0  1  0  0  0  0  0  0  0  0  0
   -0.5997   -0.9164    4.5280 C   0  0  0  0  0  0  0  0  0  0  0  0
   -1.5213    0.1622    5.1242 C   0  0  1  0  0  0  0  0  0  0  0  0
   -1.5528    0.0637    6.4565 F   0  0  0  0  0  0  0  0  0  0  0  0
   -1.0835    1.5690    4.7044 C   0  0  0  0  0  0  0  0  0  0  0  0
   -1.9690    2.4211    4.1176 C   0  0  0  0  0  0  0  0  0  0  0  0
   -1.5904    3.7455    3.6297 C   0  0  0  0  0  0  0  0  0  0  0  0
   -2.4356    4.5348    3.2174 O   0  0  0  0  0  0  0  0  0  0  0  0
   -0.1734    4.0906    3.6682 C   0  0  0  0  0  0  0  0  0  0  0  0
    0.7392    3.2565    4.2208 C   0  0  0  0  0  0  0  0  0  0  0  0
    0.4145    1.9094    4.8777 C   0  0  2  0  0  0  0  0  0  0  0  0
    0.7172    2.1198    6.3833 C   0  0  0  0  0  0  0  0  0  0  0  0
    1.8975   -1.7589    4.4155 C   0  0  1  0  0  0  0  0  0  0  0  0
    1.3371   -3.2035    4.3972 C   0  0  0  0  0  0  0  0  0  0  0  0
    2.3996   -4.2763    4.0815 C   0  0  1  0  0  0  0  0  0  0  0  0
    1.9729   -4.9864    2.9242 O   0  0  0  0  0  0  0  0  0  0  0  0
    3.7989   -3.7606    3.6448 C   0  0  2  0  0  0  0  0  0  0  0  0
    4.9001   -3.5884    4.7542 C   0  0  0  0  0  0  0  0  0  0  0  0
    5.1985   -4.8739    5.5488 C   0  0  0  0  0  0  0  0  0  0  0  0
    4.6969   -2.4541    5.7740 C   0  0  0  0  0  0  0  0  0  0  0  0
    4.1502   -4.8333    2.7880 O   0  0  0  0  0  0  0  0  0  0  0  0
    3.6807   -7.5622    2.3508 H   0  0  0  0  0  0  0  0  0  0  0  0
    2.8081   -8.1820    0.9571 H   0  0  0  0  0  0  0  0  0  0  0  0
    1.9255   -7.4250    2.2663 H   0  0  0  0  0  0  0  0  0  0  0  0
    2.1156   -5.8552    0.3494 H   0  0  0  0  0  0  0  0  0  0  0  0
    5.1560   -6.1071    0.6711 H   0  0  0  0  0  0  0  0  0  0  0  0
    4.3378   -5.0539   -0.4836 H   0  0  0  0  0  0  0  0  0  0  0  0
    4.2154   -6.7905   -0.6478 H   0  0  0  0  0  0  0  0  0  0  0  0
    3.4584   -3.3288    0.5167 H   0  0  0  0  0  0  0  0  0  0  0  0
    1.8760   -3.1731    1.2918 H   0  0  0  0  0  0  0  0  0  0  0  0
    5.5582   -1.5977    2.8014 H   0  0  0  0  0  0  0  0  0  0  0  0
    4.7941   -1.3569    1.2388 H   0  0  0  0  0  0  0  0  0  0  0  0
    5.5579   -2.8922    1.6154 H   0  0  0  0  0  0  0  0  0  0  0  0
    3.5093   -0.7078    3.5350 H   0  0  0  0  0  0  0  0  0  0  0  0
    2.5620   -0.4187    1.2273 H   0  0  0  0  0  0  0  0  0  0  0  0
    1.1141   -1.1897    1.8131 H   0  0  0  0  0  0  0  0  0  0  0  0
    2.2185    1.5207    2.4619 H   0  0  0  0  0  0  0  0  0  0  0  0
    0.4465    1.0154    1.0830 H   0  0  0  0  0  0  0  0  0  0  0  0
    2.2872    0.9371    4.6653 H   0  0  0  0  0  0  0  0  0  0  0  0
    0.9440   -0.6015    5.8951 H   0  0  0  0  0  0  0  0  0  0  0  0
   -0.7363   -0.9649    3.4504 H   0  0  0  0  0  0  0  0  0  0  0  0
   -0.9063   -1.8765    4.9403 H   0  0  0  0  0  0  0  0  0  0  0  0
   -2.5420   -0.0109    4.7853 H   0  0  0  0  0  0  0  0  0  0  0  0
   -2.9895    2.1113    3.9833 H   0  0  0  0  0  0  0  0  0  0  0  0
    0.1277    5.0272    3.2288 H   0  0  0  0  0  0  0  0  0  0  0  0
    1.7797    3.5565    4.2269 H   0  0  0  0  0  0  0  0  0  0  0  0
    0.0959    2.9165    6.7995 H   0  0  0  0  0  0  0  0  0  0  0  0
    1.7539    2.4083    6.5394 H   0  0  0  0  0  0  0  0  0  0  0  0
    0.5357    1.2350    6.9880 H   0  0  0  0  0  0  0  0  0  0  0  0
    2.5657   -1.7327    5.2623 H   0  0  0  0  0  0  0  0  0  0  0  0
    0.9187   -3.4146    5.3777 H   0  0  0  0  0  0  0  0  0  0  0  0
    0.5123   -3.3012    3.6930 H   0  0  0  0  0  0  0  0  0  0  0  0
    2.4739   -5.0134    4.8772 H   0  0  0  0  0  0  0  0  0  0  0  0
    5.8154   -3.3551    4.2260 H   0  0  0  0  0  0  0  0  0  0  0  0
    4.3438   -5.1870    6.1467 H   0  0  0  0  0  0  0  0  0  0  0  0
    6.0233   -4.7034    6.2445 H   0  0  0  0  0  0  0  0  0  0  0  0
    5.4883   -5.6957    4.8955 H   0  0  0  0  0  0  0  0  0  0  0  0
    3.7991   -2.6330    6.3696 H   0  0  0  0  0  0  0  0  0  0  0  0
    4.5837   -1.4853    5.2876 H   0  0  0  0  0  0  0  0  0  0  0  0
    5.5434   -2.3702    6.4535 H   0  0  0  0  0  0  0  0  0  0  0  0
  1  2  1  0
  1 34  1  0
  1 35  1  0
  1 36  1  0
  2  3  1  0
  4  2  1  6
  2 37  1  0
  3 38  1  0
  3 39  1  0
  3 40  1  0
  4 28  1  0
  4 33  1  0
  4  5  1  0
  5  6  1  0
  5 41  1  0
  5 42  1  0
  6 29  1  0
  6  7  1  6
  6  8  1  0
  7 43  1  0
  7 44  1  0
  7 45  1  0
  8 25  1  0
  8  9  1  0
  8 46  1  1
  9 10  1  0
  9 47  1  0
  9 48  1  0
 10 11  1  0
 10 12  1  0
 10 49  1  1
 11 50  1  0
 12 23  1  0
 12 13  1  0
 12 51  1  1
 13 14  1  0
 13 25  1  0
 13 52  1  1
 14 15  1  0
 14 53  1  0
 14 54  1  0
 15 16  1  0
 15 17  1  0
 15 55  1  6
 17 23  1  0
 17 18  2  0
 18 19  1  0
 18 56  1  0
 19 20  2  0
 19 21  1  0
 21 22  2  0
 21 57  1  0
 22 23  1  0
 22 58  1  0
 23 24  1  1
 24 59  1  0
 24 60  1  0
 24 61  1  0
 25 26  1  0
 25 62  1  1
 26 27  1  0
 26 63  1  0
 26 64  1  0
 27 28  1  0
 27 29  1  0
 27 65  1  1
 29 30  1  1
 29 33  1  0
 30 31  1  0
 30 32  1  0
 30 66  1  0
 31 67  1  0
 31 68  1  0
 31 69  1  0
 32 70  1  0
 32 71  1  0
 32 72  1  0
M  END
>  <i_m_ct_stereo_status>  (181) 
1

>  <s_m_source_file>  (181) 
/var/tmp/pbs.5076255.sched01/tmpnszqc94g/84e4epk0lh.sdf

>  <i_m_source_file_index>  (181) 
6

>  <i_lp_mmshare_version>  (181) 
48012

>  <i_f3d_flags>  (181) 
0

>  <s_epik_input>  (181) 
W0NIM11bQ0hdKFtDSDNdKVtDQEBdMTJbQ0gyXVtDQEBdMyhbQ0gzXSlbQ0BASF00W0NASF0oW0NIMl1bQ0BASF0oTzEpW0NAXTMoTzIpW0NIXShbQ0gzXSlbQ0gzXSlbQ0BIXTVbQ0BASF0oW0NAQEhdKFtDSDJdNClbT0hdKVtDQF02KFtDSDNdKUMoW0NASF0oRilbQ0gyXTUpPVtDSF1DKD1PKVtDSF09W0NIXTY=

>  <s_epik_cmdline>  (181) 
J2VwaWtfcHl0aG9uJywgJy1waHQnLCAnMi4wJywgJy1waCcsICc3LjAnLCAnLXRuJywgJzgnLCAnLW1hJywgJzIwMCcsICctaW1hZScsICc8aW5maWxlLm1hZT4nLCAnLW9tYWUnLCAnPG91dGZpbGUubWFlPic=

>  <r_lp_tautomer_probability>  (181) 
1

>  <r_epik_Ionization_Penalty>  (181) 
6.639e-08

>  <r_epik_Ionization_Penalty_Charging>  (181) 
0

>  <r_epik_Ionization_Penalty_Neutral>  (181) 
6.639e-08

>  <r_epik_State_Penalty>  (181) 
-0

>  <r_epik_Charging_Adjusted_Penalty>  (181) 
0

>  <i_epik_Tot_Q>  (181) 
0

>  <i_epik_Tot_abs_Q>  (181) 
0

>  <s_lp_Force_Field>  (181) 
OPLS3e

>  <r_lp_Energy>  (181) 
52.7652

>  <b_lp_Chiralities_Consistent>  (181) 
1

>  <s_lp_Variant>  (181) 
60:0-1

>  <s_i_glide_gridfile>  (181) 
pfpi4k_grid

>  <i_i_glide_lignum>  (181) 
6

>  <i_i_glide_rotatable_bonds>  (181) 
3

>  <r_i_docking_score>  (181) 
-2.82914

>  <r_i_glide_ligand_efficiency>  (181) 
-0.0857314

>  <r_i_glide_ligand_efficiency_sa>  (181) 
-0.274987

>  <r_i_glide_ligand_efficiency_ln>  (181) 
-0.629185

>  <r_i_glide_gscore>  (181) 
-2.82914

>  <r_i_glide_lipo>  (181) 
-0.154312

>  <r_i_glide_hbond>  (181) 
-0.16

>  <r_i_glide_metal>  (181) 
-0

>  <r_i_glide_rewards>  (181) 
-0.282237

>  <r_i_glide_evdw>  (181) 
-22.8441

>  <r_i_glide_ecoul>  (181) 
-6.06135

>  <r_i_glide_erotb>  (181) 
0

>  <r_i_glide_esite>  (181) 
-0.181179

>  <r_i_glide_emodel>  (181) 
-32.8201

>  <r_i_glide_energy>  (181) 
-28.9055

>  <r_i_glide_einternal>  (181) 
1.24654

>  <r_i_glide_intrahb_reward>  (181) 
-0

>  <i_i_glide_confnum>  (181) 
1

>  <i_i_glide_posenum>  (181) 
36

>  <r_i_glide_eff_state_penalty>  (181) 
0

>  <ligand_id>  (181) 
60

>  <original_smiles>  (181) 
CC(C)C12CC3(C)C4CC(O)C5C(CC(F)C6=CC(=O)C=CC65C)C4CC(O1)C3(C(C)C)O2

>  <smiles>  (181) 
[H]OC1([H])C([H])([H])C2([H])C([H])(C([H])([H])C3([H])OC4(C([H])(C([H])([H])[H])C([H])([H])[H])OC3(C([H])(C([H])([H])[H])C([H])([H])[H])C2(C([H])([H])[H])C4([H])[H])C2([H])C([H])([H])C([H])(F)C3=C([H])C(=O)C([H])=C([H])C3(C([H])([H])[H])C12[H]

$$$$
60:0:2
     RDKit          3D

 72 77  0  0  1  0  0  0  0  0999 V2000
   -1.2551   -8.1444    4.7953 C   0  0  0  0  0  0  0  0  0  0  0  0
   -0.0149   -8.8690    5.3511 C   0  0  0  0  0  0  0  0  0  0  0  0
   -0.0689   -9.0047    6.8839 C   0  0  0  0  0  0  0  0  0  0  0  0
    1.2854   -8.1508    4.9101 C   0  0  1  0  0  0  0  0  0  0  0  0
    1.5126   -8.0195    3.3924 C   0  0  0  0  0  0  0  0  0  0  0  0
    3.0538   -7.9461    3.3186 C   0  0  1  0  0  0  0  0  0  0  0  0
    3.5364   -9.2245    2.5914 C   0  0  0  0  0  0  0  0  0  0  0  0
    3.6506   -6.7044    2.5647 C   0  0  1  0  0  0  0  0  0  0  0  0
    2.8846   -6.2639    1.3062 C   0  0  0  0  0  0  0  0  0  0  0  0
    3.6941   -5.2935    0.4155 C   0  0  1  0  0  0  0  0  0  0  0  0
    2.7475   -4.5316   -0.3175 O   0  0  0  0  0  0  0  0  0  0  0  0
    4.7524   -4.4438    1.2026 C   0  0  2  0  0  0  0  0  0  0  0  0
    4.3040   -4.1711    2.6686 C   0  0  1  0  0  0  0  0  0  0  0  0
    3.2169   -3.0693    2.6792 C   0  0  0  0  0  0  0  0  0  0  0  0
    3.7086   -1.7711    2.0122 C   0  0  1  0  0  0  0  0  0  0  0  0
    4.6057   -1.1763    2.8031 F   0  0  0  0  0  0  0  0  0  0  0  0
    4.2755   -2.0116    0.6123 C   0  0  0  0  0  0  0  0  0  0  0  0
    3.8145   -1.3119   -0.4405 C   0  0  0  0  0  0  0  0  0  0  0  0
    4.2558   -1.5641   -1.8184 C   0  0  0  0  0  0  0  0  0  0  0  0
    3.9086   -0.8427   -2.7550 O   0  0  0  0  0  0  0  0  0  0  0  0
    5.1424   -2.7093   -2.0367 C   0  0  0  0  0  0  0  0  0  0  0  0
    5.5934   -3.4369   -0.9965 C   0  0  0  0  0  0  0  0  0  0  0  0
    5.2946   -3.1594    0.4803 C   0  0  2  0  0  0  0  0  0  0  0  0
    6.6427   -2.7068    1.0848 C   0  0  0  0  0  0  0  0  0  0  0  0
    3.9905   -5.4865    3.4636 C   0  0  1  0  0  0  0  0  0  0  0  0
    3.0192   -5.3187    4.6495 C   0  0  0  0  0  0  0  0  0  0  0  0
    2.7644   -6.6135    5.4532 C   0  0  1  0  0  0  0  0  0  0  0  0
    1.3666   -6.8794    5.4500 O   0  0  0  0  0  0  0  0  0  0  0  0
    3.3681   -7.9287    4.8531 C   0  0  2  0  0  0  0  0  0  0  0  0
    4.8248   -8.3152    5.3031 C   0  0  0  0  0  0  0  0  0  0  0  0
    5.0931   -9.8393    5.3703 C   0  0  0  0  0  0  0  0  0  0  0  0
    5.2636   -7.7151    6.6558 C   0  0  0  0  0  0  0  0  0  0  0  0
    2.4032   -8.8262    5.3580 O   0  0  0  0  0  0  0  0  0  0  0  0
   -1.3244   -7.1222    5.1699 H   0  0  0  0  0  0  0  0  0  0  0  0
   -2.1664   -8.6648    5.0858 H   0  0  0  0  0  0  0  0  0  0  0  0
   -1.2496   -8.1109    3.7064 H   0  0  0  0  0  0  0  0  0  0  0  0
    0.0120   -9.8732    4.9280 H   0  0  0  0  0  0  0  0  0  0  0  0
   -0.0805   -8.0308    7.3742 H   0  0  0  0  0  0  0  0  0  0  0  0
    0.7872   -9.5626    7.2657 H   0  0  0  0  0  0  0  0  0  0  0  0
   -0.9659   -9.5432    7.1904 H   0  0  0  0  0  0  0  0  0  0  0  0
    1.1137   -8.9057    2.8924 H   0  0  0  0  0  0  0  0  0  0  0  0
    0.9832   -7.1376    3.0345 H   0  0  0  0  0  0  0  0  0  0  0  0
    4.6240   -9.2836    2.5708 H   0  0  0  0  0  0  0  0  0  0  0  0
    3.1967   -9.2663    1.5560 H   0  0  0  0  0  0  0  0  0  0  0  0
    3.1554  -10.1208    3.0847 H   0  0  0  0  0  0  0  0  0  0  0  0
    4.6189   -7.0395    2.1954 H   0  0  0  0  0  0  0  0  0  0  0  0
    2.5898   -7.1334    0.7273 H   0  0  0  0  0  0  0  0  0  0  0  0
    1.9592   -5.7796    1.6139 H   0  0  0  0  0  0  0  0  0  0  0  0
    4.2426   -5.8786   -0.3243 H   0  0  0  0  0  0  0  0  0  0  0  0
    2.6755   -4.9039   -1.1901 H   0  0  0  0  0  0  0  0  0  0  0  0
    5.6181   -5.0977    1.2846 H   0  0  0  0  0  0  0  0  0  0  0  0
    5.1474   -3.7358    3.2022 H   0  0  0  0  0  0  0  0  0  0  0  0
    2.3207   -3.4252    2.1673 H   0  0  0  0  0  0  0  0  0  0  0  0
    2.9202   -2.8260    3.6974 H   0  0  0  0  0  0  0  0  0  0  0  0
    2.8768   -1.0670    1.9425 H   0  0  0  0  0  0  0  0  0  0  0  0
    3.0526   -0.5641   -0.2937 H   0  0  0  0  0  0  0  0  0  0  0  0
    5.4144   -2.9462   -3.0542 H   0  0  0  0  0  0  0  0  0  0  0  0
    6.2459   -4.2678   -1.1856 H   0  0  0  0  0  0  0  0  0  0  0  0
    7.0161   -1.8057    0.5929 H   0  0  0  0  0  0  0  0  0  0  0  0
    7.4049   -3.4769    0.9756 H   0  0  0  0  0  0  0  0  0  0  0  0
    6.5712   -2.4703    2.1424 H   0  0  0  0  0  0  0  0  0  0  0  0
    4.9390   -5.7440    3.9331 H   0  0  0  0  0  0  0  0  0  0  0  0
    3.4155   -4.5604    5.3274 H   0  0  0  0  0  0  0  0  0  0  0  0
    2.0645   -4.9343    4.2874 H   0  0  0  0  0  0  0  0  0  0  0  0
    3.0138   -6.4718    6.5029 H   0  0  0  0  0  0  0  0  0  0  0  0
    5.5032   -7.8959    4.5621 H   0  0  0  0  0  0  0  0  0  0  0  0
    4.4738  -10.3095    6.1352 H   0  0  0  0  0  0  0  0  0  0  0  0
    6.1355  -10.0313    5.6294 H   0  0  0  0  0  0  0  0  0  0  0  0
    4.9146  -10.3731    4.4421 H   0  0  0  0  0  0  0  0  0  0  0  0
    4.6358   -8.0741    7.4729 H   0  0  0  0  0  0  0  0  0  0  0  0
    5.2451   -6.6247    6.6588 H   0  0  0  0  0  0  0  0  0  0  0  0
    6.2902   -8.0020    6.8880 H   0  0  0  0  0  0  0  0  0  0  0  0
  1  2  1  0
  1 34  1  0
  1 35  1  0
  1 36  1  0
  2  3  1  0
  4  2  1  6
  2 37  1  0
  3 38  1  0
  3 39  1  0
  3 40  1  0
  4 28  1  0
  4 33  1  0
  4  5  1  0
  5  6  1  0
  5 41  1  0
  5 42  1  0
  6 29  1  0
  6  7  1  6
  6  8  1  0
  7 43  1  0
  7 44  1  0
  7 45  1  0
  8 25  1  0
  8  9  1  0
  8 46  1  6
  9 10  1  0
  9 47  1  0
  9 48  1  0
 10 11  1  0
 10 12  1  0
 10 49  1  6
 11 50  1  0
 12 23  1  0
 12 13  1  0
 12 51  1  1
 13 14  1  0
 13 25  1  0
 13 52  1  1
 14 15  1  0
 14 53  1  0
 14 54  1  0
 15 16  1  0
 15 17  1  0
 15 55  1  6
 17 23  1  0
 17 18  2  0
 18 19  1  0
 18 56  1  0
 19 20  2  0
 19 21  1  0
 21 22  2  0
 21 57  1  0
 22 23  1  0
 22 58  1  0
 23 24  1  1
 24 59  1  0
 24 60  1  0
 24 61  1  0
 25 26  1  0
 25 62  1  1
 26 27  1  0
 26 63  1  0
 26 64  1  0
 27 28  1  0
 27 29  1  0
 27 65  1  1
 29 30  1  6
 29 33  1  0
 30 31  1  0
 30 32  1  0
 30 66  1  0
 31 67  1  0
 31 68  1  0
 31 69  1  0
 32 70  1  0
 32 71  1  0
 32 72  1  0
M  END
>  <i_m_ct_stereo_status>  (182) 
1

>  <s_m_source_file>  (182) 
/var/tmp/pbs.5076255.sched01/tmpnszqc94g/84e4epk0lh.sdf

>  <i_m_source_file_index>  (182) 
6

>  <i_lp_mmshare_version>  (182) 
48012

>  <i_f3d_flags>  (182) 
0

>  <s_epik_input>  (182) 
W0NIM11bQ0hdKFtDSDNdKVtDQEBdMTJbQ0gyXVtDQEBdMyhbQ0gzXSlbQ0BASF00W0NASF0oW0NIMl1bQ0BASF0oTzEpW0NAXTMoTzIpW0NIXShbQ0gzXSlbQ0gzXSlbQ0BIXTVbQ0BASF0oW0NAQEhdKFtDSDJdNClbT0hdKVtDQF02KFtDSDNdKUMoW0NASF0oRilbQ0gyXTUpPVtDSF1DKD1PKVtDSF09W0NIXTY=

>  <s_epik_cmdline>  (182) 
J2VwaWtfcHl0aG9uJywgJy1waHQnLCAnMi4wJywgJy1waCcsICc3LjAnLCAnLXRuJywgJzgnLCAnLW1hJywgJzIwMCcsICctaW1hZScsICc8aW5maWxlLm1hZT4nLCAnLW9tYWUnLCAnPG91dGZpbGUubWFlPic=

>  <r_lp_tautomer_probability>  (182) 
1

>  <r_epik_Ionization_Penalty>  (182) 
6.639e-08

>  <r_epik_Ionization_Penalty_Charging>  (182) 
0

>  <r_epik_Ionization_Penalty_Neutral>  (182) 
6.639e-08

>  <r_epik_State_Penalty>  (182) 
-0

>  <r_epik_Charging_Adjusted_Penalty>  (182) 
0

>  <i_epik_Tot_Q>  (182) 
0

>  <i_epik_Tot_abs_Q>  (182) 
0

>  <s_lp_Force_Field>  (182) 
OPLS3e

>  <r_lp_Energy>  (182) 
52.7652

>  <b_lp_Chiralities_Consistent>  (182) 
1

>  <s_lp_Variant>  (182) 
60:0-1

>  <s_i_glide_gridfile>  (182) 
pfpi4k_grid

>  <i_i_glide_lignum>  (182) 
6

>  <i_i_glide_rotatable_bonds>  (182) 
3

>  <r_i_docking_score>  (182) 
-2.80388

>  <r_i_glide_ligand_efficiency>  (182) 
-0.0849661

>  <r_i_glide_ligand_efficiency_sa>  (182) 
-0.272532

>  <r_i_glide_ligand_efficiency_ln>  (182) 
-0.623569

>  <r_i_glide_gscore>  (182) 
-2.80388

>  <r_i_glide_lipo>  (182) 
-0.314727

>  <r_i_glide_hbond>  (182) 
-0.32

>  <r_i_glide_metal>  (182) 
-0

>  <r_i_glide_rewards>  (182) 
-0.360884

>  <r_i_glide_evdw>  (182) 
-24.0896

>  <r_i_glide_ecoul>  (182) 
-3.67106

>  <r_i_glide_erotb>  (182) 
0

>  <r_i_glide_esite>  (182) 
-0.0531339

>  <r_i_glide_emodel>  (182) 
-31.3114

>  <r_i_glide_energy>  (182) 
-27.7606

>  <r_i_glide_einternal>  (182) 
3.45755

>  <r_i_glide_intrahb_reward>  (182) 
-0

>  <i_i_glide_confnum>  (182) 
1

>  <i_i_glide_posenum>  (182) 
2

>  <r_i_glide_eff_state_penalty>  (182) 
0

>  <ligand_id>  (182) 
60

>  <original_smiles>  (182) 
CC(C)C12CC3(C)C4CC(O)C5C(CC(F)C6=CC(=O)C=CC65C)C4CC(O1)C3(C(C)C)O2

>  <smiles>  (182) 
[H]OC1([H])C([H])([H])C2([H])C([H])(C([H])([H])C3([H])OC4(C([H])(C([H])([H])[H])C([H])([H])[H])OC3(C([H])(C([H])([H])[H])C([H])([H])[H])C2(C([H])([H])[H])C4([H])[H])C2([H])C([H])([H])C([H])(F)C3=C([H])C(=O)C([H])=C([H])C3(C([H])([H])[H])C12[H]

$$$$
61:0:0
     RDKit          3D

 57 62  0  0  1  0  0  0  0  0999 V2000
    3.3489   -0.3383    1.3847 C   0  0  0  0  0  0  0  0  0  0  0  0
    4.0575   -1.4118    0.9707 C   0  0  0  0  0  0  0  0  0  0  0  0
    5.5445   -1.2795    0.9468 C   0  0  0  0  0  0  0  0  0  0  0  0
    5.9913   -2.2967   -0.0444 C   0  0  2  0  0  0  0  0  0  0  0  0
    7.2914   -1.8735   -0.4163 O   0  0  0  0  0  0  0  0  0  0  0  0
    5.0760   -2.0503   -1.3664 C   0  0  0  0  0  0  0  0  0  0  0  0
    3.4981   -2.1694   -1.1459 C   0  0  1  0  0  0  0  0  0  0  0  0
    2.7672   -2.9008   -2.2891 C   0  0  0  0  0  0  0  0  0  0  0  0
    3.3467   -2.6938    0.3075 C   0  0  2  0  0  0  0  0  0  0  0  0
    2.2539   -2.7912    1.2444 O   0  0  0  0  0  0  0  0  0  0  0  0
    2.8135   -3.1242    2.4922 C   0  0  0  0  0  0  0  0  0  0  0  0
    3.7849   -4.0724    2.4292 C   0  0  0  0  0  0  0  0  0  0  0  0
    5.3576   -3.9510    2.2568 C   0  0  1  0  0  0  0  0  0  0  0  0
    5.7429   -5.3327    2.5944 N   0  0  0  0  0  0  0  0  0  0  0  0
    6.0765   -5.5443    4.0149 C   0  0  0  0  0  0  0  0  0  0  0  0
    4.8441   -6.0822    4.7331 C   0  0  0  0  0  0  0  0  0  0  0  0
    4.1363   -6.7578    3.6014 C   0  0  0  0  0  0  0  0  0  0  0  0
    3.3530   -7.6911    3.7684 O   0  0  0  0  0  0  0  0  0  0  0  0
    4.5864   -6.1945    2.2318 C   0  0  2  0  0  0  0  0  0  0  0  0
    5.0315   -7.4470    1.4269 C   0  0  0  0  0  0  0  0  0  0  0  0
    3.5261   -5.1952    1.5331 C   0  0  1  0  0  0  0  0  0  0  0  0
    2.0670   -5.7746    1.5402 C   0  0  0  0  0  0  0  0  0  0  0  0
    1.2476   -5.8213    2.8317 C   0  0  0  0  0  0  0  0  0  0  0  0
    1.5358   -6.1862    0.5072 O   0  0  0  0  0  0  0  0  0  0  0  0
    3.7643   -4.3184    0.2153 C   0  0  2  0  0  0  0  0  0  0  0  0
    5.1715   -4.5946   -0.2393 C   0  0  0  0  0  0  0  0  0  0  0  0
    6.0031   -3.7452    0.7051 C   0  0  1  0  0  0  0  0  0  0  0  0
    7.4566   -4.3191    0.6401 C   0  0  0  0  0  0  0  0  0  0  0  0
    2.2670   -0.3277    1.3333 H   0  0  0  0  0  0  0  0  0  0  0  0
    3.8371    0.5512    1.7577 H   0  0  0  0  0  0  0  0  0  0  0  0
    5.7884   -0.2710    0.6090 H   0  0  0  0  0  0  0  0  0  0  0  0
    5.9860   -1.3860    1.9358 H   0  0  0  0  0  0  0  0  0  0  0  0
    7.8634   -2.0161    0.3242 H   0  0  0  0  0  0  0  0  0  0  0  0
    5.2528   -1.0252   -1.6987 H   0  0  0  0  0  0  0  0  0  0  0  0
    5.4081   -2.6328   -2.2287 H   0  0  0  0  0  0  0  0  0  0  0  0
    3.0791   -1.1606   -1.1879 H   0  0  0  0  0  0  0  0  0  0  0  0
    3.2280   -3.8527   -2.5444 H   0  0  0  0  0  0  0  0  0  0  0  0
    2.7796   -2.3013   -3.1997 H   0  0  0  0  0  0  0  0  0  0  0  0
    1.7212   -3.0782   -2.0380 H   0  0  0  0  0  0  0  0  0  0  0  0
    3.0001   -2.2165    3.0402 H   0  0  0  0  0  0  0  0  0  0  0  0
    5.7782   -3.2425    2.9694 H   0  0  0  0  0  0  0  0  0  0  0  0
    6.8612   -6.3051    4.0614 H   0  0  0  0  0  0  0  0  0  0  0  0
    6.4650   -4.6530    4.5083 H   0  0  0  0  0  0  0  0  0  0  0  0
    5.1037   -6.7945    5.5151 H   0  0  0  0  0  0  0  0  0  0  0  0
    4.2255   -5.2944    5.1576 H   0  0  0  0  0  0  0  0  0  0  0  0
    4.2554   -7.7868    0.7387 H   0  0  0  0  0  0  0  0  0  0  0  0
    5.2683   -8.2971    2.0657 H   0  0  0  0  0  0  0  0  0  0  0  0
    5.9552   -7.2962    0.8786 H   0  0  0  0  0  0  0  0  0  0  0  0
    1.7929   -5.3999    3.6741 H   0  0  0  0  0  0  0  0  0  0  0  0
    1.0013   -6.8573    3.0600 H   0  0  0  0  0  0  0  0  0  0  0  0
    0.3188   -5.2674    2.7204 H   0  0  0  0  0  0  0  0  0  0  0  0
    3.1410   -4.7537   -0.5604 H   0  0  0  0  0  0  0  0  0  0  0  0
    5.3971   -5.6443   -0.1925 H   0  0  0  0  0  0  0  0  0  0  0  0
    5.3438   -4.4402   -1.2972 H   0  0  0  0  0  0  0  0  0  0  0  0
    7.5146   -5.3775    0.8957 H   0  0  0  0  0  0  0  0  0  0  0  0
    8.1342   -3.7860    1.3070 H   0  0  0  0  0  0  0  0  0  0  0  0
    7.8612   -4.2704   -0.3714 H   0  0  0  0  0  0  0  0  0  0  0  0
  1  2  2  0
  1 29  1  0
  1 30  1  0
  2  9  1  0
  2  3  1  0
  3  4  1  0
  3 31  1  0
  3 32  1  0
  4 27  1  0
  4  5  1  6
  4  6  1  0
  5 33  1  0
  6  7  1  0
  6 34  1  0
  6 35  1  0
  7  8  1  0
  7  9  1  0
  7 36  1  1
  8 37  1  0
  8 38  1  0
  8 39  1  0
  9 25  1  0
  9 10  1  1
 10 11  1  0
 11 12  2  0
 11 40  1  0
 12 21  1  0
 12 13  1  0
 13 27  1  0
 13 14  1  0
 13 41  1  1
 14 19  1  0
 14 15  1  0
 15 16  1  0
 15 42  1  0
 15 43  1  0
 16 17  1  0
 16 44  1  0
 16 45  1  0
 17 18  2  0
 17 19  1  0
 19 20  1  6
 19 21  1  0
 20 46  1  0
 20 47  1  0
 20 48  1  0
 21 22  1  6
 21 25  1  0
 22 23  1  0
 22 24  2  0
 23 49  1  0
 23 50  1  0
 23 51  1  0
 25 26  1  0
 25 52  1  6
 26 27  1  0
 26 53  1  0
 26 54  1  0
 27 28  1  1
 28 55  1  0
 28 56  1  0
 28 57  1  0
M  END
>  <i_m_ct_stereo_status>  (183) 
1

>  <s_m_source_file>  (183) 
/var/tmp/pbs.5076255.sched01/tmpnszqc94g/84e4epk0lh.sdf

>  <i_m_source_file_index>  (183) 
7

>  <i_lp_mmshare_version>  (183) 
48012

>  <i_f3d_flags>  (183) 
0

>  <s_epik_input>  (183) 
W0NIMl09QzFbQ0gyXVtDQF0oW09IXSkoW0NIMl1bQ0BIXTJbQ0gzXSlbQ0BAXShbQ0gyXTMpKFtDSDNdKVtDQEBIXShDKD1bQ0hdTzQpW0NAXTUoW0NASF0zW0NAQF0xMjQpQyg9TylbQ0gzXSlONltDQEBdNShbQ0gzXSlDKD1PKVtDSDJdW0NIMl02

>  <s_epik_cmdline>  (183) 
J2VwaWtfcHl0aG9uJywgJy1waHQnLCAnMi4wJywgJy1waCcsICc3LjAnLCAnLXRuJywgJzgnLCAnLW1hJywgJzIwMCcsICctaW1hZScsICc8aW5maWxlLm1hZT4nLCAnLW9tYWUnLCAnPG91dGZpbGUubWFlPic=

>  <r_lp_tautomer_probability>  (183) 
0.9999

>  <r_epik_Ionization_Penalty>  (183) 
0.00849675

>  <r_epik_Ionization_Penalty_Charging>  (183) 
0

>  <r_epik_Ionization_Penalty_Neutral>  (183) 
0.00849675

>  <r_epik_State_Penalty>  (183) 
0.00640574

>  <r_epik_Charging_Adjusted_Penalty>  (183) 
0.00640574

>  <i_epik_Tot_Q>  (183) 
0

>  <i_epik_Tot_abs_Q>  (183) 
0

>  <s_lp_Force_Field>  (183) 
OPLS3e

>  <r_lp_Energy>  (183) 
219.341

>  <b_lp_Chiralities_Consistent>  (183) 
1

>  <s_lp_Variant>  (183) 
61:0-1

>  <s_i_glide_gridfile>  (183) 
pfpi4k_grid

>  <i_i_glide_lignum>  (183) 
7

>  <i_i_glide_rotatable_bonds>  (183) 
2

>  <r_i_docking_score>  (183) 
-3.6502

>  <r_i_glide_ligand_efficiency>  (183) 
-0.130364

>  <r_i_glide_ligand_efficiency_sa>  (183) 
-0.395862

>  <r_i_glide_ligand_efficiency_ln>  (183) 
-0.842573

>  <r_i_glide_gscore>  (183) 
-3.6502

>  <r_i_glide_lipo>  (183) 
-0.533681

>  <r_i_glide_hbond>  (183) 
-0.237625

>  <r_i_glide_metal>  (183) 
-0

>  <r_i_glide_rewards>  (183) 
-0.79445

>  <r_i_glide_evdw>  (183) 
-28.7102

>  <r_i_glide_ecoul>  (183) 
-4.09269

>  <r_i_glide_erotb>  (183) 
0

>  <r_i_glide_esite>  (183) 
-0.0350286

>  <r_i_glide_emodel>  (183) 
-38.8067

>  <r_i_glide_energy>  (183) 
-32.8029

>  <r_i_glide_einternal>  (183) 
3.06033

>  <r_i_glide_intrahb_reward>  (183) 
-0

>  <i_i_glide_confnum>  (183) 
2

>  <i_i_glide_posenum>  (183) 
36

>  <r_i_glide_eff_state_penalty>  (183) 
0

>  <ligand_id>  (183) 
61

>  <original_smiles>  (183) 
C=C1CC2(O)CC(C)C13OC=C1C4N5CCC(=O)C5(C)C1(C(C)=O)C3CC42C

>  <smiles>  (183) 
[H]OC12C([H])([H])C(=C([H])[H])C3(OC([H])=C4C5([H])N6C([H])([H])C([H])([H])C(=O)C6(C([H])([H])[H])C4(C(=O)C([H])([H])[H])C3([H])C([H])([H])C51C([H])([H])[H])C([H])(C([H])([H])[H])C2([H])[H]

$$$$
61:0:1
     RDKit          3D

 57 62  0  0  1  0  0  0  0  0999 V2000
    3.6458   -0.1855    1.4121 C   0  0  0  0  0  0  0  0  0  0  0  0
    4.2475   -1.3312    1.0300 C   0  0  0  0  0  0  0  0  0  0  0  0
    5.7389   -1.3294    0.9319 C   0  0  0  0  0  0  0  0  0  0  0  0
    6.0507   -2.4356   -0.0170 C   0  0  2  0  0  0  0  0  0  0  0  0
    7.3634   -2.1564   -0.4755 O   0  0  0  0  0  0  0  0  0  0  0  0
    5.0978   -2.1784   -1.3098 C   0  0  0  0  0  0  0  0  0  0  0  0
    3.5288   -2.1414   -1.0155 C   0  0  1  0  0  0  0  0  0  0  0  0
    2.6918   -2.8647   -2.0888 C   0  0  0  0  0  0  0  0  0  0  0  0
    3.3995   -2.5766    0.4687 C   0  0  2  0  0  0  0  0  0  0  0  0
    2.3460   -2.5328    1.4539 O   0  0  0  0  0  0  0  0  0  0  0  0
    2.9347   -2.8448    2.6953 C   0  0  0  0  0  0  0  0  0  0  0  0
    3.8159   -3.8754    2.6442 C   0  0  0  0  0  0  0  0  0  0  0  0
    5.3807   -3.9028    2.4005 C   0  0  1  0  0  0  0  0  0  0  0  0
    5.6615   -5.2920    2.8006 N   0  0  0  0  0  0  0  0  0  0  0  0
    6.0342   -5.4676    4.2151 C   0  0  0  0  0  0  0  0  0  0  0  0
    4.7902   -5.8453    5.0108 C   0  0  0  0  0  0  0  0  0  0  0  0
    3.9532   -6.4858    3.9452 C   0  0  0  0  0  0  0  0  0  0  0  0
    3.0476   -7.2803    4.1873 O   0  0  0  0  0  0  0  0  0  0  0  0
    4.4210   -6.0602    2.5294 C   0  0  2  0  0  0  0  0  0  0  0  0
    4.7302   -7.3933    1.7914 C   0  0  0  0  0  0  0  0  0  0  0  0
    3.4285   -5.0125    1.8162 C   0  0  1  0  0  0  0  0  0  0  0  0
    1.9437   -5.4892    1.9374 C   0  0  0  0  0  0  0  0  0  0  0  0
    1.4148   -6.4274    0.8552 C   0  0  0  0  0  0  0  0  0  0  0  0
    1.2051   -5.1770    2.8751 O   0  0  0  0  0  0  0  0  0  0  0  0
    3.6687   -4.2305    0.4476 C   0  0  2  0  0  0  0  0  0  0  0  0
    5.0247   -4.6574   -0.0472 C   0  0  0  0  0  0  0  0  0  0  0  0
    5.9700   -3.8365    0.8140 C   0  0  1  0  0  0  0  0  0  0  0  0
    7.3645   -4.5403    0.7220 C   0  0  0  0  0  0  0  0  0  0  0  0
    2.5689   -0.0865    1.4079 H   0  0  0  0  0  0  0  0  0  0  0  0
    4.2157    0.6779    1.7156 H   0  0  0  0  0  0  0  0  0  0  0  0
    6.0550   -0.3661    0.5287 H   0  0  0  0  0  0  0  0  0  0  0  0
    6.2196   -1.4249    1.9026 H   0  0  0  0  0  0  0  0  0  0  0  0
    7.6667   -2.9062   -0.9702 H   0  0  0  0  0  0  0  0  0  0  0  0
    5.3463   -1.1923   -1.7059 H   0  0  0  0  0  0  0  0  0  0  0  0
    5.3341   -2.8309   -2.1537 H   0  0  0  0  0  0  0  0  0  0  0  0
    3.1977   -1.1039   -1.0936 H   0  0  0  0  0  0  0  0  0  0  0  0
    3.0770   -3.8571   -2.3132 H   0  0  0  0  0  0  0  0  0  0  0  0
    2.7069   -2.3109   -3.0279 H   0  0  0  0  0  0  0  0  0  0  0  0
    1.6480   -2.9657   -1.7910 H   0  0  0  0  0  0  0  0  0  0  0  0
    3.2214   -1.9300    3.1858 H   0  0  0  0  0  0  0  0  0  0  0  0
    5.8789   -3.1919    3.0541 H   0  0  0  0  0  0  0  0  0  0  0  0
    6.7505   -6.2917    4.2715 H   0  0  0  0  0  0  0  0  0  0  0  0
    6.5283   -4.6025    4.6522 H   0  0  0  0  0  0  0  0  0  0  0  0
    5.0194   -6.5449    5.8136 H   0  0  0  0  0  0  0  0  0  0  0  0
    4.2812   -4.9784    5.4299 H   0  0  0  0  0  0  0  0  0  0  0  0
    3.9037   -7.7156    1.1579 H   0  0  0  0  0  0  0  0  0  0  0  0
    4.9195   -8.2154    2.4813 H   0  0  0  0  0  0  0  0  0  0  0  0
    5.6324   -7.3537    1.1874 H   0  0  0  0  0  0  0  0  0  0  0  0
    2.1903   -6.6414    0.1210 H   0  0  0  0  0  0  0  0  0  0  0  0
    0.5809   -5.9784    0.3159 H   0  0  0  0  0  0  0  0  0  0  0  0
    1.0794   -7.3753    1.2807 H   0  0  0  0  0  0  0  0  0  0  0  0
    2.9581   -4.6428   -0.2616 H   0  0  0  0  0  0  0  0  0  0  0  0
    5.1631   -5.7184    0.0528 H   0  0  0  0  0  0  0  0  0  0  0  0
    5.1604   -4.5752   -1.1183 H   0  0  0  0  0  0  0  0  0  0  0  0
    7.3463   -5.5812    1.0430 H   0  0  0  0  0  0  0  0  0  0  0  0
    8.1139   -4.0245    1.3239 H   0  0  0  0  0  0  0  0  0  0  0  0
    7.7252   -4.5963   -0.3049 H   0  0  0  0  0  0  0  0  0  0  0  0
  1  2  2  0
  1 29  1  0
  1 30  1  0
  2  9  1  0
  2  3  1  0
  3  4  1  0
  3 31  1  0
  3 32  1  0
  4 27  1  0
  4  5  1  6
  4  6  1  0
  5 33  1  0
  6  7  1  0
  6 34  1  0
  6 35  1  0
  7  8  1  0
  7  9  1  0
  7 36  1  1
  8 37  1  0
  8 38  1  0
  8 39  1  0
  9 25  1  0
  9 10  1  1
 10 11  1  0
 11 12  2  0
 11 40  1  0
 12 21  1  0
 12 13  1  0
 13 27  1  0
 13 14  1  0
 13 41  1  1
 14 19  1  0
 14 15  1  0
 15 16  1  0
 15 42  1  0
 15 43  1  0
 16 17  1  0
 16 44  1  0
 16 45  1  0
 17 18  2  0
 17 19  1  0
 19 20  1  6
 19 21  1  0
 20 46  1  0
 20 47  1  0
 20 48  1  0
 21 22  1  1
 21 25  1  0
 22 23  1  0
 22 24  2  0
 23 49  1  0
 23 50  1  0
 23 51  1  0
 25 26  1  0
 25 52  1  6
 26 27  1  0
 26 53  1  0
 26 54  1  0
 27 28  1  1
 28 55  1  0
 28 56  1  0
 28 57  1  0
M  END
>  <i_m_ct_stereo_status>  (184) 
1

>  <s_m_source_file>  (184) 
/var/tmp/pbs.5076255.sched01/tmpnszqc94g/84e4epk0lh.sdf

>  <i_m_source_file_index>  (184) 
7

>  <i_lp_mmshare_version>  (184) 
48012

>  <i_f3d_flags>  (184) 
0

>  <s_epik_input>  (184) 
W0NIMl09QzFbQ0gyXVtDQF0oW09IXSkoW0NIMl1bQ0BIXTJbQ0gzXSlbQ0BAXShbQ0gyXTMpKFtDSDNdKVtDQEBIXShDKD1bQ0hdTzQpW0NAXTUoW0NASF0zW0NAQF0xMjQpQyg9TylbQ0gzXSlONltDQEBdNShbQ0gzXSlDKD1PKVtDSDJdW0NIMl02

>  <s_epik_cmdline>  (184) 
J2VwaWtfcHl0aG9uJywgJy1waHQnLCAnMi4wJywgJy1waCcsICc3LjAnLCAnLXRuJywgJzgnLCAnLW1hJywgJzIwMCcsICctaW1hZScsICc8aW5maWxlLm1hZT4nLCAnLW9tYWUnLCAnPG91dGZpbGUubWFlPic=

>  <r_lp_tautomer_probability>  (184) 
0.9999

>  <r_epik_Ionization_Penalty>  (184) 
0.00849675

>  <r_epik_Ionization_Penalty_Charging>  (184) 
0

>  <r_epik_Ionization_Penalty_Neutral>  (184) 
0.00849675

>  <r_epik_State_Penalty>  (184) 
0.00640574

>  <r_epik_Charging_Adjusted_Penalty>  (184) 
0.00640574

>  <i_epik_Tot_Q>  (184) 
0

>  <i_epik_Tot_abs_Q>  (184) 
0

>  <s_lp_Force_Field>  (184) 
OPLS3e

>  <r_lp_Energy>  (184) 
219.341

>  <b_lp_Chiralities_Consistent>  (184) 
1

>  <s_lp_Variant>  (184) 
61:0-1

>  <s_i_glide_gridfile>  (184) 
pfpi4k_grid

>  <i_i_glide_lignum>  (184) 
7

>  <i_i_glide_rotatable_bonds>  (184) 
2

>  <r_i_docking_score>  (184) 
-2.94488

>  <r_i_glide_ligand_efficiency>  (184) 
-0.105174

>  <r_i_glide_ligand_efficiency_sa>  (184) 
-0.319371

>  <r_i_glide_ligand_efficiency_ln>  (184) 
-0.679765

>  <r_i_glide_gscore>  (184) 
-2.94488

>  <r_i_glide_lipo>  (184) 
-0.500261

>  <r_i_glide_hbond>  (184) 
-0.16

>  <r_i_glide_metal>  (184) 
-0

>  <r_i_glide_rewards>  (184) 
-0.79445

>  <r_i_glide_evdw>  (184) 
-26.7379

>  <r_i_glide_ecoul>  (184) 
-0.766235

>  <r_i_glide_erotb>  (184) 
0

>  <r_i_glide_esite>  (184) 
-0.0383418

>  <r_i_glide_emodel>  (184) 
-33.5145

>  <r_i_glide_energy>  (184) 
-27.5041

>  <r_i_glide_einternal>  (184) 
0.357418

>  <r_i_glide_intrahb_reward>  (184) 
-0

>  <i_i_glide_confnum>  (184) 
2

>  <i_i_glide_posenum>  (184) 
1

>  <r_i_glide_eff_state_penalty>  (184) 
0

>  <ligand_id>  (184) 
61

>  <original_smiles>  (184) 
C=C1CC2(O)CC(C)C13OC=C1C4N5CCC(=O)C5(C)C1(C(C)=O)C3CC42C

>  <smiles>  (184) 
[H]OC12C([H])([H])C(=C([H])[H])C3(OC([H])=C4C5([H])N6C([H])([H])C([H])([H])C(=O)C6(C([H])([H])[H])C4(C(=O)C([H])([H])[H])C3([H])C([H])([H])C51C([H])([H])[H])C([H])(C([H])([H])[H])C2([H])[H]

$$$$
61:0:2
     RDKit          3D

 57 62  0  0  1  0  0  0  0  0999 V2000
    3.4076   -0.0597    1.3918 C   0  0  0  0  0  0  0  0  0  0  0  0
    4.0747   -1.1881    1.0645 C   0  0  0  0  0  0  0  0  0  0  0  0
    5.5658   -1.1144    1.0264 C   0  0  0  0  0  0  0  0  0  0  0  0
    5.9701   -2.2241    0.1179 C   0  0  2  0  0  0  0  0  0  0  0  0
    7.2836   -1.8794   -0.2940 O   0  0  0  0  0  0  0  0  0  0  0  0
    5.0602   -2.0477   -1.2171 C   0  0  0  0  0  0  0  0  0  0  0  0
    3.4803   -2.0859   -0.9872 C   0  0  1  0  0  0  0  0  0  0  0  0
    2.7234   -2.8815   -2.0721 C   0  0  0  0  0  0  0  0  0  0  0  0
    3.3127   -2.4877    0.5038 C   0  0  2  0  0  0  0  0  0  0  0  0
    2.2191   -2.4744    1.4447 O   0  0  0  0  0  0  0  0  0  0  0  0
    2.7711   -2.7256    2.7163 C   0  0  0  0  0  0  0  0  0  0  0  0
    3.7048   -3.7121    2.7266 C   0  0  0  0  0  0  0  0  0  0  0  0
    5.2792   -3.6681    2.5449 C   0  0  1  0  0  0  0  0  0  0  0  0
    5.6069   -5.0321    2.9941 N   0  0  0  0  0  0  0  0  0  0  0  0
    5.9241   -5.1484    4.4291 C   0  0  0  0  0  0  0  0  0  0  0  0
    4.6717   -5.5728    5.1843 C   0  0  0  0  0  0  0  0  0  0  0  0
    3.9131   -6.2800    4.1025 C   0  0  0  0  0  0  0  0  0  0  0  0
    3.0376   -7.1142    4.3306 O   0  0  0  0  0  0  0  0  0  0  0  0
    4.4169   -5.8673    2.6957 C   0  0  2  0  0  0  0  0  0  0  0  0
    4.8219   -7.2003    2.0057 C   0  0  0  0  0  0  0  0  0  0  0  0
    3.4050   -4.8879    1.9138 C   0  0  1  0  0  0  0  0  0  0  0  0
    1.9440   -5.4438    1.9828 C   0  0  0  0  0  0  0  0  0  0  0  0
    1.5083   -6.4310    0.9004 C   0  0  0  0  0  0  0  0  0  0  0  0
    1.1519   -5.1499    2.8810 O   0  0  0  0  0  0  0  0  0  0  0  0
    3.6630   -4.1269    0.5363 C   0  0  2  0  0  0  0  0  0  0  0  0
    5.0566   -4.4968    0.1060 C   0  0  0  0  0  0  0  0  0  0  0  0
    5.9259   -3.6099    0.9796 C   0  0  1  0  0  0  0  0  0  0  0  0
    7.3522   -4.2514    0.9513 C   0  0  0  0  0  0  0  0  0  0  0  0
    2.3278   -0.0116    1.3416 H   0  0  0  0  0  0  0  0  0  0  0  0
    3.9261    0.8390    1.6917 H   0  0  0  0  0  0  0  0  0  0  0  0
    5.8475   -0.1447    0.6109 H   0  0  0  0  0  0  0  0  0  0  0  0
    6.0076   -1.1613    2.0201 H   0  0  0  0  0  0  0  0  0  0  0  0
    7.8441   -1.9132    0.4681 H   0  0  0  0  0  0  0  0  0  0  0  0
    5.2759   -1.0621   -1.6324 H   0  0  0  0  0  0  0  0  0  0  0  0
    5.3673   -2.7083   -2.0300 H   0  0  0  0  0  0  0  0  0  0  0  0
    3.1005   -1.0677   -1.1087 H   0  0  0  0  0  0  0  0  0  0  0  0
    3.1603   -3.8567   -2.2516 H   0  0  0  0  0  0  0  0  0  0  0  0
    2.7499   -2.3489   -3.0251 H   0  0  0  0  0  0  0  0  0  0  0  0
    1.6718   -3.0157   -1.8109 H   0  0  0  0  0  0  0  0  0  0  0  0
    2.9913   -1.7857    3.1932 H   0  0  0  0  0  0  0  0  0  0  0  0
    5.7344   -2.9263    3.1980 H   0  0  0  0  0  0  0  0  0  0  0  0
    6.6809   -5.9295    4.5366 H   0  0  0  0  0  0  0  0  0  0  0  0
    6.3469   -4.2438    4.8644 H   0  0  0  0  0  0  0  0  0  0  0  0
    4.9055   -6.2381    6.0151 H   0  0  0  0  0  0  0  0  0  0  0  0
    4.1041   -4.7222    5.5594 H   0  0  0  0  0  0  0  0  0  0  0  0
    4.0384   -7.5787    1.3497 H   0  0  0  0  0  0  0  0  0  0  0  0
    5.0244   -7.9952    2.7237 H   0  0  0  0  0  0  0  0  0  0  0  0
    5.7443   -7.1287    1.4355 H   0  0  0  0  0  0  0  0  0  0  0  0
    2.3289   -6.6306    0.2118 H   0  0  0  0  0  0  0  0  0  0  0  0
    0.6737   -6.0384    0.3203 H   0  0  0  0  0  0  0  0  0  0  0  0
    1.2006   -7.3794    1.3426 H   0  0  0  0  0  0  0  0  0  0  0  0
    3.0029   -4.5928   -0.1886 H   0  0  0  0  0  0  0  0  0  0  0  0
    5.2429   -5.5467    0.2402 H   0  0  0  0  0  0  0  0  0  0  0  0
    5.2333   -4.4339   -0.9602 H   0  0  0  0  0  0  0  0  0  0  0  0
    7.3689   -5.2837    1.2988 H   0  0  0  0  0  0  0  0  0  0  0  0
    8.0568   -3.6995    1.5710 H   0  0  0  0  0  0  0  0  0  0  0  0
    7.7524   -4.3059   -0.0619 H   0  0  0  0  0  0  0  0  0  0  0  0
  1  2  2  0
  1 29  1  0
  1 30  1  0
  2  9  1  0
  2  3  1  0
  3  4  1  0
  3 31  1  0
  3 32  1  0
  4 27  1  0
  4  5  1  6
  4  6  1  0
  5 33  1  0
  6  7  1  0
  6 34  1  0
  6 35  1  0
  7  8  1  0
  7  9  1  0
  7 36  1  1
  8 37  1  0
  8 38  1  0
  8 39  1  0
  9 25  1  0
  9 10  1  1
 10 11  1  0
 11 12  2  0
 11 40  1  0
 12 21  1  0
 12 13  1  0
 13 27  1  0
 13 14  1  0
 13 41  1  1
 14 19  1  0
 14 15  1  0
 15 16  1  0
 15 42  1  0
 15 43  1  0
 16 17  1  0
 16 44  1  0
 16 45  1  0
 17 18  2  0
 17 19  1  0
 19 20  1  6
 19 21  1  0
 20 46  1  0
 20 47  1  0
 20 48  1  0
 21 22  1  6
 21 25  1  0
 22 23  1  0
 22 24  2  0
 23 49  1  0
 23 50  1  0
 23 51  1  0
 25 26  1  0
 25 52  1  6
 26 27  1  0
 26 53  1  0
 26 54  1  0
 27 28  1  1
 28 55  1  0
 28 56  1  0
 28 57  1  0
M  END
>  <i_m_ct_stereo_status>  (185) 
1

>  <s_m_source_file>  (185) 
/var/tmp/pbs.5076255.sched01/tmpnszqc94g/84e4epk0lh.sdf

>  <i_m_source_file_index>  (185) 
7

>  <i_lp_mmshare_version>  (185) 
48012

>  <i_f3d_flags>  (185) 
0

>  <s_epik_input>  (185) 
W0NIMl09QzFbQ0gyXVtDQF0oW09IXSkoW0NIMl1bQ0BIXTJbQ0gzXSlbQ0BAXShbQ0gyXTMpKFtDSDNdKVtDQEBIXShDKD1bQ0hdTzQpW0NAXTUoW0NASF0zW0NAQF0xMjQpQyg9TylbQ0gzXSlONltDQEBdNShbQ0gzXSlDKD1PKVtDSDJdW0NIMl02

>  <s_epik_cmdline>  (185) 
J2VwaWtfcHl0aG9uJywgJy1waHQnLCAnMi4wJywgJy1waCcsICc3LjAnLCAnLXRuJywgJzgnLCAnLW1hJywgJzIwMCcsICctaW1hZScsICc8aW5maWxlLm1hZT4nLCAnLW9tYWUnLCAnPG91dGZpbGUubWFlPic=

>  <r_lp_tautomer_probability>  (185) 
0.9999

>  <r_epik_Ionization_Penalty>  (185) 
0.00849675

>  <r_epik_Ionization_Penalty_Charging>  (185) 
0

>  <r_epik_Ionization_Penalty_Neutral>  (185) 
0.00849675

>  <r_epik_State_Penalty>  (185) 
0.00640574

>  <r_epik_Charging_Adjusted_Penalty>  (185) 
0.00640574

>  <i_epik_Tot_Q>  (185) 
0

>  <i_epik_Tot_abs_Q>  (185) 
0

>  <s_lp_Force_Field>  (185) 
OPLS3e

>  <r_lp_Energy>  (185) 
219.341

>  <b_lp_Chiralities_Consistent>  (185) 
1

>  <s_lp_Variant>  (185) 
61:0-1

>  <s_i_glide_gridfile>  (185) 
pfpi4k_grid

>  <i_i_glide_lignum>  (185) 
7

>  <i_i_glide_rotatable_bonds>  (185) 
2

>  <r_i_docking_score>  (185) 
-2.92928

>  <r_i_glide_ligand_efficiency>  (185) 
-0.104617

>  <r_i_glide_ligand_efficiency_sa>  (185) 
-0.317679

>  <r_i_glide_ligand_efficiency_ln>  (185) 
-0.676163

>  <r_i_glide_gscore>  (185) 
-2.92928

>  <r_i_glide_lipo>  (185) 
-0.475142

>  <r_i_glide_hbond>  (185) 
-0.150609

>  <r_i_glide_metal>  (185) 
-0

>  <r_i_glide_rewards>  (185) 
-0.79445

>  <r_i_glide_evdw>  (185) 
-26.0299

>  <r_i_glide_ecoul>  (185) 
-1.13392

>  <r_i_glide_erotb>  (185) 
0

>  <r_i_glide_esite>  (185) 
-0.0374933

>  <r_i_glide_emodel>  (185) 
-33.2163

>  <r_i_glide_energy>  (185) 
-27.1638

>  <r_i_glide_einternal>  (185) 
0.24462

>  <r_i_glide_intrahb_reward>  (185) 
-0

>  <i_i_glide_confnum>  (185) 
2

>  <i_i_glide_posenum>  (185) 
7

>  <r_i_glide_eff_state_penalty>  (185) 
0

>  <ligand_id>  (185) 
61

>  <original_smiles>  (185) 
C=C1CC2(O)CC(C)C13OC=C1C4N5CCC(=O)C5(C)C1(C(C)=O)C3CC42C

>  <smiles>  (185) 
[H]OC12C([H])([H])C(=C([H])[H])C3(OC([H])=C4C5([H])N6C([H])([H])C([H])([H])C(=O)C6(C([H])([H])[H])C4(C(=O)C([H])([H])[H])C3([H])C([H])([H])C51C([H])([H])[H])C([H])(C([H])([H])[H])C2([H])[H]

$$$$
61:1:0
     RDKit          3D

 58 63  0  0  1  0  0  0  0  0999 V2000
    3.4599   -0.4074    1.5460 C   0  0  0  0  0  0  0  0  0  0  0  0
    4.1568   -1.4681    1.0748 C   0  0  0  0  0  0  0  0  0  0  0  0
    5.6440   -1.3746    1.1014 C   0  0  0  0  0  0  0  0  0  0  0  0
    6.0873   -2.3202    0.0364 C   0  0  2  0  0  0  0  0  0  0  0  0
    7.4016   -1.8925   -0.3061 O   0  0  0  0  0  0  0  0  0  0  0  0
    5.1987   -1.9739   -1.2797 C   0  0  0  0  0  0  0  0  0  0  0  0
    3.6175   -2.0570   -1.0950 C   0  0  1  0  0  0  0  0  0  0  0  0
    2.8853   -2.6730   -2.3033 C   0  0  0  0  0  0  0  0  0  0  0  0
    3.4344   -2.6855    0.3140 C   0  0  2  0  0  0  0  0  0  0  0  0
    2.3413   -2.8150    1.2479 O   0  0  0  0  0  0  0  0  0  0  0  0
    2.8900   -3.2595    2.4721 C   0  0  0  0  0  0  0  0  0  0  0  0
    3.8134   -4.2395    2.3170 C   0  0  0  0  0  0  0  0  0  0  0  0
    5.4021   -4.1860    2.1793 C   0  0  1  0  0  0  0  0  0  0  0  0
    5.6557   -5.6579    2.3935 N   0  0  1  0  0  0  0  0  0  0  0  0
    6.0322   -6.0194    3.7935 C   0  0  0  0  0  0  0  0  0  0  0  0
    4.7479   -6.4451    4.4866 C   0  0  0  0  0  0  0  0  0  0  0  0
    3.9905   -7.0147    3.3099 C   0  0  0  0  0  0  0  0  0  0  0  0
    3.1926   -7.9427    3.4308 O   0  0  0  0  0  0  0  0  0  0  0  0
    4.4341   -6.3991    1.9489 C   0  0  2  0  0  0  0  0  0  0  0  0
    4.6601   -7.6578    1.0577 C   0  0  0  0  0  0  0  0  0  0  0  0
    3.4652   -5.2730    1.3388 C   0  0  1  0  0  0  0  0  0  0  0  0
    1.9685   -5.7402    1.2718 C   0  0  0  0  0  0  0  0  0  0  0  0
    1.1338   -5.9658    2.5364 C   0  0  0  0  0  0  0  0  0  0  0  0
    1.4039   -5.9017    0.1825 O   0  0  0  0  0  0  0  0  0  0  0  0
    3.8218   -4.3119    0.1036 C   0  0  2  0  0  0  0  0  0  0  0  0
    5.2562   -4.5893   -0.3148 C   0  0  0  0  0  0  0  0  0  0  0  0
    6.0795   -3.8177    0.6871 C   0  0  1  0  0  0  0  0  0  0  0  0
    7.5292   -4.3935    0.6322 C   0  0  0  0  0  0  0  0  0  0  0  0
    2.3811   -0.3726    1.4759 H   0  0  0  0  0  0  0  0  0  0  0  0
    3.9585    0.4424    1.9921 H   0  0  0  0  0  0  0  0  0  0  0  0
    5.9227   -0.3489    0.8487 H   0  0  0  0  0  0  0  0  0  0  0  0
    6.0527   -1.5802    2.0905 H   0  0  0  0  0  0  0  0  0  0  0  0
    7.9511   -1.9768    0.4512 H   0  0  0  0  0  0  0  0  0  0  0  0
    5.4085   -0.9385   -1.5461 H   0  0  0  0  0  0  0  0  0  0  0  0
    5.5303   -2.5090   -2.1717 H   0  0  0  0  0  0  0  0  0  0  0  0
    3.2273   -1.0377   -1.0633 H   0  0  0  0  0  0  0  0  0  0  0  0
    3.3212   -3.6149   -2.6341 H   0  0  0  0  0  0  0  0  0  0  0  0
    2.9162   -1.9939   -3.1569 H   0  0  0  0  0  0  0  0  0  0  0  0
    1.8329   -2.8432   -2.0747 H   0  0  0  0  0  0  0  0  0  0  0  0
    3.1176   -2.3990    3.0764 H   0  0  0  0  0  0  0  0  0  0  0  0
    5.8166   -3.5912    2.9822 H   0  0  0  0  0  0  0  0  0  0  0  0
    6.6863   -6.8944    3.7392 H   0  0  0  0  0  0  0  0  0  0  0  0
    6.5616   -5.2278    4.3281 H   0  0  0  0  0  0  0  0  0  0  0  0
    4.9285   -7.1978    5.2566 H   0  0  0  0  0  0  0  0  0  0  0  0
    4.2134   -5.5999    4.9331 H   0  0  0  0  0  0  0  0  0  0  0  0
    3.7529   -8.2599    1.0139 H   0  0  0  0  0  0  0  0  0  0  0  0
    5.4327   -8.3036    1.4815 H   0  0  0  0  0  0  0  0  0  0  0  0
    4.9092   -7.4861    0.0199 H   0  0  0  0  0  0  0  0  0  0  0  0
    1.4330   -5.2852    3.3316 H   0  0  0  0  0  0  0  0  0  0  0  0
    1.2471   -7.0007    2.8749 H   0  0  0  0  0  0  0  0  0  0  0  0
    0.0865   -5.7588    2.3100 H   0  0  0  0  0  0  0  0  0  0  0  0
    3.2296   -4.6613   -0.7351 H   0  0  0  0  0  0  0  0  0  0  0  0
    5.5069   -5.6341   -0.3020 H   0  0  0  0  0  0  0  0  0  0  0  0
    5.4625   -4.3736   -1.3572 H   0  0  0  0  0  0  0  0  0  0  0  0
    7.5934   -5.4638    0.8296 H   0  0  0  0  0  0  0  0  0  0  0  0
    8.1911   -3.8847    1.3336 H   0  0  0  0  0  0  0  0  0  0  0  0
    7.9511   -4.2818   -0.3664 H   0  0  0  0  0  0  0  0  0  0  0  0
    6.4262   -5.9238    1.7789 H   0  0  0  0  0  0  0  0  0  0  0  0
  1  2  2  0
  1 29  1  0
  1 30  1  0
  2  9  1  0
  2  3  1  0
  3  4  1  0
  3 31  1  0
  3 32  1  0
  4 27  1  0
  4  5  1  6
  4  6  1  0
  5 33  1  0
  6  7  1  0
  6 34  1  0
  6 35  1  0
  7  8  1  0
  7  9  1  0
  7 36  1  1
  8 37  1  0
  8 38  1  0
  8 39  1  0
  9 25  1  0
  9 10  1  1
 10 11  1  0
 11 12  2  0
 11 40  1  0
 12 21  1  0
 12 13  1  0
 13 27  1  0
 13 14  1  0
 13 41  1  1
 14 19  1  0
 14 15  1  0
 14 58  1  6
 15 16  1  0
 15 42  1  0
 15 43  1  0
 16 17  1  0
 16 44  1  0
 16 45  1  0
 17 18  2  0
 17 19  1  0
 19 20  1  6
 19 21  1  0
 20 46  1  0
 20 47  1  0
 20 48  1  0
 21 22  1  6
 21 25  1  0
 22 23  1  0
 22 24  2  0
 23 49  1  0
 23 50  1  0
 23 51  1  0
 25 26  1  0
 25 52  1  6
 26 27  1  0
 26 53  1  0
 26 54  1  0
 27 28  1  1
 28 55  1  0
 28 56  1  0
 28 57  1  0
M  CHG  1  14   1
M  END
>  <i_m_ct_stereo_status>  (186) 
1

>  <s_m_source_file>  (186) 
/var/tmp/pbs.5076255.sched01/tmpnszqc94g/84e4epk0lh.sdf

>  <i_m_source_file_index>  (186) 
8

>  <i_lp_mmshare_version>  (186) 
48012

>  <i_f3d_flags>  (186) 
0

>  <s_epik_input>  (186) 
W0NIMl09QzFbQ0gyXVtDQF0oW09IXSkoW0NIMl1bQ0BIXTJbQ0gzXSlbQ0BAXShbQ0gyXTMpKFtDSDNdKVtDQEBIXShDKD1bQ0hdTzQpW0NAXTUoW0NASF0zW0NAQF0xMjQpQyg9TylbQ0gzXSlONltDQEBdNShbQ0gzXSlDKD1PKVtDSDJdW0NIMl02

>  <s_epik_cmdline>  (186) 
J2VwaWtfcHl0aG9uJywgJy1waHQnLCAnMi4wJywgJy1waCcsICc3LjAnLCAnLXRuJywgJzgnLCAnLW1hJywgJzIwMCcsICctaW1hZScsICc8aW5maWxlLm1hZT4nLCAnLW9tYWUnLCAnPG91dGZpbGUubWFlPic=

>  <r_lp_tautomer_probability>  (186) 
0.9999

>  <r_epik_Ionization_Penalty>  (186) 
2.52088

>  <r_epik_Ionization_Penalty_Charging>  (186) 
2.51914

>  <r_epik_Ionization_Penalty_Neutral>  (186) 
0.00174704

>  <r_epik_State_Penalty>  (186) 
2.68546

>  <r_epik_Charging_Adjusted_Penalty>  (186) 
5.2046

>  <i_epik_Tot_Q>  (186) 
1

>  <i_epik_Tot_abs_Q>  (186) 
1

>  <s_lp_Force_Field>  (186) 
OPLS3e

>  <r_lp_Energy>  (186) 
219.475

>  <b_lp_Chiralities_Consistent>  (186) 
1

>  <s_lp_Variant>  (186) 
61:0-2

>  <s_i_glide_gridfile>  (186) 
pfpi4k_grid

>  <i_i_glide_lignum>  (186) 
8

>  <i_i_glide_rotatable_bonds>  (186) 
2

>  <r_i_docking_score>  (186) 
-3.97112

>  <r_i_glide_ligand_efficiency>  (186) 
-0.141826

>  <r_i_glide_ligand_efficiency_sa>  (186) 
-0.430666

>  <r_i_glide_ligand_efficiency_ln>  (186) 
-0.91665

>  <r_i_glide_gscore>  (186) 
-3.97112

>  <r_i_glide_lipo>  (186) 
-0.558862

>  <r_i_glide_hbond>  (186) 
-0.355456

>  <r_i_glide_metal>  (186) 
-0

>  <r_i_glide_rewards>  (186) 
-0.787578

>  <r_i_glide_evdw>  (186) 
-29.2227

>  <r_i_glide_ecoul>  (186) 
-5.05346

>  <r_i_glide_erotb>  (186) 
0

>  <r_i_glide_esite>  (186) 
-0.0500665

>  <r_i_glide_emodel>  (186) 
-41.1007

>  <r_i_glide_energy>  (186) 
-34.2762

>  <r_i_glide_einternal>  (186) 
3.4712

>  <r_i_glide_intrahb_reward>  (186) 
-0

>  <i_i_glide_confnum>  (186) 
1

>  <i_i_glide_posenum>  (186) 
36

>  <r_i_glide_eff_state_penalty>  (186) 
0

>  <ligand_id>  (186) 
61

>  <original_smiles>  (186) 
C=C1CC2(O)CC(C)C13OC=C1C4N5CCC(=O)C5(C)C1(C(C)=O)C3CC42C

>  <smiles>  (186) 
[H]OC12C([H])([H])C(=C([H])[H])C3(OC([H])=C4C5(C(=O)C([H])([H])[H])C3([H])C([H])([H])C1(C([H])([H])[H])C4([H])[N+]1([H])C([H])([H])C([H])([H])C(=O)C51C([H])([H])[H])C([H])(C([H])([H])[H])C2([H])[H]

$$$$
61:1:1
     RDKit          3D

 58 63  0  0  1  0  0  0  0  0999 V2000
    3.5123   -0.4035    1.5643 C   0  0  0  0  0  0  0  0  0  0  0  0
    4.1429   -1.5335    1.1617 C   0  0  0  0  0  0  0  0  0  0  0  0
    5.6264   -1.4928    1.0737 C   0  0  0  0  0  0  0  0  0  0  0  0
    5.9630   -2.5643    0.1006 C   0  0  2  0  0  0  0  0  0  0  0  0
    7.2631   -2.2239   -0.3627 O   0  0  0  0  0  0  0  0  0  0  0  0
    4.9886   -2.3310   -1.1830 C   0  0  0  0  0  0  0  0  0  0  0  0
    3.4244   -2.3183   -0.8759 C   0  0  1  0  0  0  0  0  0  0  0  0
    2.5909   -3.0366   -1.9495 C   0  0  0  0  0  0  0  0  0  0  0  0
    3.3206   -2.7890    0.6004 C   0  0  2  0  0  0  0  0  0  0  0  0
    2.2974   -2.7786    1.6141 O   0  0  0  0  0  0  0  0  0  0  0  0
    2.9343   -3.1016    2.8310 C   0  0  0  0  0  0  0  0  0  0  0  0
    3.7994   -4.1405    2.7083 C   0  0  0  0  0  0  0  0  0  0  0  0
    5.3698   -4.1579    2.4815 C   0  0  1  0  0  0  0  0  0  0  0  0
    5.5945   -5.5951    2.8240 N   0  0  1  0  0  0  0  0  0  0  0  0
    6.0512   -5.8269    4.2138 C   0  0  0  0  0  0  0  0  0  0  0  0
    4.8115   -6.1386    5.0479 C   0  0  0  0  0  0  0  0  0  0  0  0
    3.9074   -6.7233    3.9884 C   0  0  0  0  0  0  0  0  0  0  0  0
    2.9530   -7.4591    4.2639 O   0  0  0  0  0  0  0  0  0  0  0  0
    4.3357   -6.3393    2.5425 C   0  0  2  0  0  0  0  0  0  0  0  0
    4.5253   -7.7146    1.8274 C   0  0  0  0  0  0  0  0  0  0  0  0
    3.3605   -5.2579    1.8702 C   0  0  1  0  0  0  0  0  0  0  0  0
    1.8643   -5.7053    1.9901 C   0  0  0  0  0  0  0  0  0  0  0  0
    1.3636   -6.7798    1.0266 C   0  0  0  0  0  0  0  0  0  0  0  0
    1.0899   -5.2864    2.8534 O   0  0  0  0  0  0  0  0  0  0  0  0
    3.6370   -4.4497    0.5288 C   0  0  2  0  0  0  0  0  0  0  0  0
    5.0305   -4.8278    0.0501 C   0  0  0  0  0  0  0  0  0  0  0  0
    5.9457   -3.9868    0.9062 C   0  0  1  0  0  0  0  0  0  0  0  0
    7.3773   -4.6088    0.8179 C   0  0  0  0  0  0  0  0  0  0  0  0
    2.4325   -0.3378    1.5658 H   0  0  0  0  0  0  0  0  0  0  0  0
    4.0630    0.4730    1.8770 H   0  0  0  0  0  0  0  0  0  0  0  0
    5.9162   -0.5119    0.6902 H   0  0  0  0  0  0  0  0  0  0  0  0
    6.1030   -1.6013    2.0475 H   0  0  0  0  0  0  0  0  0  0  0  0
    7.5682   -2.9189   -0.9187 H   0  0  0  0  0  0  0  0  0  0  0  0
    5.2111   -1.3319   -1.5752 H   0  0  0  0  0  0  0  0  0  0  0  0
    5.2324   -2.9674   -2.0391 H   0  0  0  0  0  0  0  0  0  0  0  0
    3.0730   -1.2861   -0.9289 H   0  0  0  0  0  0  0  0  0  0  0  0
    2.9973   -4.0028   -2.1985 H   0  0  0  0  0  0  0  0  0  0  0  0
    2.5751   -2.4534   -2.8735 H   0  0  0  0  0  0  0  0  0  0  0  0
    1.5505   -3.1521   -1.6324 H   0  0  0  0  0  0  0  0  0  0  0  0
    3.2347   -2.1966    3.3283 H   0  0  0  0  0  0  0  0  0  0  0  0
    5.8491   -3.4790    3.1767 H   0  0  0  0  0  0  0  0  0  0  0  0
    6.6787   -6.7292    4.2270 H   0  0  0  0  0  0  0  0  0  0  0  0
    6.6292   -5.0116    4.6464 H   0  0  0  0  0  0  0  0  0  0  0  0
    5.0052   -6.8362    5.8580 H   0  0  0  0  0  0  0  0  0  0  0  0
    4.3579   -5.2262    5.4602 H   0  0  0  0  0  0  0  0  0  0  0  0
    3.6616   -8.3580    1.9916 H   0  0  0  0  0  0  0  0  0  0  0  0
    5.3574   -8.2766    2.2487 H   0  0  0  0  0  0  0  0  0  0  0  0
    4.6433   -7.6848    0.7508 H   0  0  0  0  0  0  0  0  0  0  0  0
    2.1242   -7.5373    0.8749 H   0  0  0  0  0  0  0  0  0  0  0  0
    1.0855   -6.3620    0.0560 H   0  0  0  0  0  0  0  0  0  0  0  0
    0.5033   -7.3084    1.4491 H   0  0  0  0  0  0  0  0  0  0  0  0
    2.9450   -4.8826   -0.1957 H   0  0  0  0  0  0  0  0  0  0  0  0
    5.2581   -5.8734    0.1633 H   0  0  0  0  0  0  0  0  0  0  0  0
    5.1732   -4.7338   -1.0201 H   0  0  0  0  0  0  0  0  0  0  0  0
    7.4325   -5.6518    1.1350 H   0  0  0  0  0  0  0  0  0  0  0  0
    8.1004   -4.0411    1.4042 H   0  0  0  0  0  0  0  0  0  0  0  0
    7.7306   -4.6349   -0.2147 H   0  0  0  0  0  0  0  0  0  0  0  0
    6.3181   -5.9491    2.2060 H   0  0  0  0  0  0  0  0  0  0  0  0
  1  2  2  0
  1 29  1  0
  1 30  1  0
  2  9  1  0
  2  3  1  0
  3  4  1  0
  3 31  1  0
  3 32  1  0
  4 27  1  0
  4  5  1  6
  4  6  1  0
  5 33  1  0
  6  7  1  0
  6 34  1  0
  6 35  1  0
  7  8  1  0
  7  9  1  0
  7 36  1  1
  8 37  1  0
  8 38  1  0
  8 39  1  0
  9 25  1  0
  9 10  1  1
 10 11  1  0
 11 12  2  0
 11 40  1  0
 12 21  1  0
 12 13  1  0
 13 27  1  0
 13 14  1  0
 13 41  1  1
 14 19  1  0
 14 15  1  0
 14 58  1  6
 15 16  1  0
 15 42  1  0
 15 43  1  0
 16 17  1  0
 16 44  1  0
 16 45  1  0
 17 18  2  0
 17 19  1  0
 19 20  1  6
 19 21  1  0
 20 46  1  0
 20 47  1  0
 20 48  1  0
 21 22  1  1
 21 25  1  0
 22 23  1  0
 22 24  2  0
 23 49  1  0
 23 50  1  0
 23 51  1  0
 25 26  1  0
 25 52  1  6
 26 27  1  0
 26 53  1  0
 26 54  1  0
 27 28  1  1
 28 55  1  0
 28 56  1  0
 28 57  1  0
M  CHG  1  14   1
M  END
>  <i_m_ct_stereo_status>  (187) 
1

>  <s_m_source_file>  (187) 
/var/tmp/pbs.5076255.sched01/tmpnszqc94g/84e4epk0lh.sdf

>  <i_m_source_file_index>  (187) 
8

>  <i_lp_mmshare_version>  (187) 
48012

>  <i_f3d_flags>  (187) 
0

>  <s_epik_input>  (187) 
W0NIMl09QzFbQ0gyXVtDQF0oW09IXSkoW0NIMl1bQ0BIXTJbQ0gzXSlbQ0BAXShbQ0gyXTMpKFtDSDNdKVtDQEBIXShDKD1bQ0hdTzQpW0NAXTUoW0NASF0zW0NAQF0xMjQpQyg9TylbQ0gzXSlONltDQEBdNShbQ0gzXSlDKD1PKVtDSDJdW0NIMl02

>  <s_epik_cmdline>  (187) 
J2VwaWtfcHl0aG9uJywgJy1waHQnLCAnMi4wJywgJy1waCcsICc3LjAnLCAnLXRuJywgJzgnLCAnLW1hJywgJzIwMCcsICctaW1hZScsICc8aW5maWxlLm1hZT4nLCAnLW9tYWUnLCAnPG91dGZpbGUubWFlPic=

>  <r_lp_tautomer_probability>  (187) 
0.9999

>  <r_epik_Ionization_Penalty>  (187) 
2.52088

>  <r_epik_Ionization_Penalty_Charging>  (187) 
2.51914

>  <r_epik_Ionization_Penalty_Neutral>  (187) 
0.00174704

>  <r_epik_State_Penalty>  (187) 
2.68546

>  <r_epik_Charging_Adjusted_Penalty>  (187) 
5.2046

>  <i_epik_Tot_Q>  (187) 
1

>  <i_epik_Tot_abs_Q>  (187) 
1

>  <s_lp_Force_Field>  (187) 
OPLS3e

>  <r_lp_Energy>  (187) 
219.475

>  <b_lp_Chiralities_Consistent>  (187) 
1

>  <s_lp_Variant>  (187) 
61:0-2

>  <s_i_glide_gridfile>  (187) 
pfpi4k_grid

>  <i_i_glide_lignum>  (187) 
8

>  <i_i_glide_rotatable_bonds>  (187) 
2

>  <r_i_docking_score>  (187) 
-2.98483

>  <r_i_glide_ligand_efficiency>  (187) 
-0.106601

>  <r_i_glide_ligand_efficiency_sa>  (187) 
-0.323703

>  <r_i_glide_ligand_efficiency_ln>  (187) 
-0.688986

>  <r_i_glide_gscore>  (187) 
-2.98483

>  <r_i_glide_lipo>  (187) 
-0.476171

>  <r_i_glide_hbond>  (187) 
-0.117313

>  <r_i_glide_metal>  (187) 
-0

>  <r_i_glide_rewards>  (187) 
-0.787578

>  <r_i_glide_evdw>  (187) 
-26.2928

>  <r_i_glide_ecoul>  (187) 
-1.67076

>  <r_i_glide_erotb>  (187) 
0

>  <r_i_glide_esite>  (187) 
-0.0385117

>  <r_i_glide_emodel>  (187) 
-34.1558

>  <r_i_glide_energy>  (187) 
-27.9636

>  <r_i_glide_einternal>  (187) 
0.547502

>  <r_i_glide_intrahb_reward>  (187) 
-0

>  <i_i_glide_confnum>  (187) 
1

>  <i_i_glide_posenum>  (187) 
3

>  <r_i_glide_eff_state_penalty>  (187) 
0

>  <ligand_id>  (187) 
61

>  <original_smiles>  (187) 
C=C1CC2(O)CC(C)C13OC=C1C4N5CCC(=O)C5(C)C1(C(C)=O)C3CC42C

>  <smiles>  (187) 
[H]OC12C([H])([H])C(=C([H])[H])C3(OC([H])=C4C5(C(=O)C([H])([H])[H])C3([H])C([H])([H])C1(C([H])([H])[H])C4([H])[N+]1([H])C([H])([H])C([H])([H])C(=O)C51C([H])([H])[H])C([H])(C([H])([H])[H])C2([H])[H]

$$$$
61:1:2
     RDKit          3D

 58 63  0  0  1  0  0  0  0  0999 V2000
    5.5436   -7.8375    1.5065 C   0  0  0  0  0  0  0  0  0  0  0  0
    4.8859   -6.7871    2.1002 C   0  0  0  0  0  0  0  0  0  0  0  0
    5.3052   -6.4224    3.4710 C   0  0  0  0  0  0  0  0  0  0  0  0
    4.1056   -5.7320    4.0263 C   0  0  2  0  0  0  0  0  0  0  0  0
    4.2832   -5.8091    5.4280 O   0  0  0  0  0  0  0  0  0  0  0  0
    2.8352   -6.7055    3.7073 C   0  0  0  0  0  0  0  0  0  0  0  0
    2.6024   -7.0628    2.1725 C   0  0  1  0  0  0  0  0  0  0  0  0
    1.1181   -7.0721    1.7604 C   0  0  0  0  0  0  0  0  0  0  0  0
    3.5902   -6.1359    1.4235 C   0  0  2  0  0  0  0  0  0  0  0  0
    4.1150   -6.0743    0.0862 O   0  0  0  0  0  0  0  0  0  0  0  0
    5.1896   -5.1647    0.1061 C   0  0  0  0  0  0  0  0  0  0  0  0
    4.9120   -4.0229    0.8165 C   0  0  0  0  0  0  0  0  0  0  0  0
    5.1868   -3.6483    2.3301 C   0  0  1  0  0  0  0  0  0  0  0  0
    4.8909   -2.1759    2.2206 N   0  0  1  0  0  0  0  0  0  0  0  0
    6.0721   -1.2922    2.0216 C   0  0  0  0  0  0  0  0  0  0  0  0
    6.2631   -1.1150    0.5376 C   0  0  0  0  0  0  0  0  0  0  0  0
    4.8257   -1.2124    0.1140 C   0  0  0  0  0  0  0  0  0  0  0  0
    4.4278   -0.6611   -0.8954 O   0  0  0  0  0  0  0  0  0  0  0  0
    3.9282   -2.0001    1.0898 C   0  0  2  0  0  0  0  0  0  0  0  0
    2.7528   -1.0221    1.4026 C   0  0  0  0  0  0  0  0  0  0  0  0
    3.5732   -3.4857    0.6023 C   0  0  1  0  0  0  0  0  0  0  0  0
    3.0011   -3.5451   -0.8648 C   0  0  0  0  0  0  0  0  0  0  0  0
    3.8403   -3.2209   -2.1181 C   0  0  0  0  0  0  0  0  0  0  0  0
    1.8267   -3.8730   -1.0463 O   0  0  0  0  0  0  0  0  0  0  0  0
    2.8952   -4.6005    1.5258 C   0  0  2  0  0  0  0  0  0  0  0  0
    2.7534   -4.0421    2.9291 C   0  0  0  0  0  0  0  0  0  0  0  0
    4.1369   -4.1950    3.5094 C   0  0  1  0  0  0  0  0  0  0  0  0
    4.2208   -3.2574    4.7540 C   0  0  0  0  0  0  0  0  0  0  0  0
    5.2293   -8.2032    0.5484 H   0  0  0  0  0  0  0  0  0  0  0  0
    6.3649   -8.3121    1.9997 H   0  0  0  0  0  0  0  0  0  0  0  0
    5.5184   -7.3440    4.0123 H   0  0  0  0  0  0  0  0  0  0  0  0
    6.2137   -5.8247    3.4851 H   0  0  0  0  0  0  0  0  0  0  0  0
    4.3247   -6.7193    5.6685 H   0  0  0  0  0  0  0  0  0  0  0  0
    3.0274   -7.6587    4.1967 H   0  0  0  0  0  0  0  0  0  0  0  0
    1.9129   -6.3918    4.2018 H   0  0  0  0  0  0  0  0  0  0  0  0
    2.9237   -8.0967    2.0168 H   0  0  0  0  0  0  0  0  0  0  0  0
    0.5804   -6.1844    2.0966 H   0  0  0  0  0  0  0  0  0  0  0  0
    0.6109   -7.9269    2.2134 H   0  0  0  0  0  0  0  0  0  0  0  0
    1.0031   -7.1743    0.6805 H   0  0  0  0  0  0  0  0  0  0  0  0
    6.1046   -5.6913    0.3015 H   0  0  0  0  0  0  0  0  0  0  0  0
    6.2184   -3.8276    2.5727 H   0  0  0  0  0  0  0  0  0  0  0  0
    5.8489   -0.3150    2.4446 H   0  0  0  0  0  0  0  0  0  0  0  0
    6.9774   -1.6566    2.4470 H   0  0  0  0  0  0  0  0  0  0  0  0
    6.6986   -0.1433    0.2955 H   0  0  0  0  0  0  0  0  0  0  0  0
    6.8528   -1.9156    0.0718 H   0  0  0  0  0  0  0  0  0  0  0  0
    2.3023   -0.6994    0.5008 H   0  0  0  0  0  0  0  0  0  0  0  0
    3.1108   -0.0928    1.8756 H   0  0  0  0  0  0  0  0  0  0  0  0
    1.9082   -1.4144    1.9644 H   0  0  0  0  0  0  0  0  0  0  0  0
    4.8935   -3.4744   -1.9748 H   0  0  0  0  0  0  0  0  0  0  0  0
    3.7243   -2.1727   -2.3841 H   0  0  0  0  0  0  0  0  0  0  0  0
    3.4680   -3.8419   -2.9492 H   0  0  0  0  0  0  0  0  0  0  0  0
    1.8772   -4.7037    1.1888 H   0  0  0  0  0  0  0  0  0  0  0  0
    2.4387   -3.0156    2.9578 H   0  0  0  0  0  0  0  0  0  0  0  0
    1.9469   -4.4780    3.5158 H   0  0  0  0  0  0  0  0  0  0  0  0
    4.0241   -2.2097    4.5454 H   0  0  0  0  0  0  0  0  0  0  0  0
    5.1940   -3.3334    5.2397 H   0  0  0  0  0  0  0  0  0  0  0  0
    3.4585   -3.5237    5.4895 H   0  0  0  0  0  0  0  0  0  0  0  0
    4.4077   -1.8875    3.0734 H   0  0  0  0  0  0  0  0  0  0  0  0
  1  2  2  0
  1 29  1  0
  1 30  1  0
  2  9  1  0
  2  3  1  0
  3  4  1  0
  3 31  1  0
  3 32  1  0
  4 27  1  0
  4  5  1  1
  4  6  1  0
  5 33  1  0
  6  7  1  0
  6 34  1  0
  6 35  1  0
  7  8  1  0
  7  9  1  0
  7 36  1  1
  8 37  1  0
  8 38  1  0
  8 39  1  0
  9 25  1  0
  9 10  1  6
 10 11  1  0
 11 12  2  0
 11 40  1  0
 12 21  1  0
 12 13  1  0
 13 27  1  0
 13 14  1  0
 13 41  1  1
 14 19  1  0
 14 15  1  0
 14 58  1  1
 15 16  1  0
 15 42  1  0
 15 43  1  0
 16 17  1  0
 16 44  1  0
 16 45  1  0
 17 18  2  0
 17 19  1  0
 19 20  1  1
 19 21  1  0
 20 46  1  0
 20 47  1  0
 20 48  1  0
 21 22  1  6
 21 25  1  0
 22 23  1  0
 22 24  2  0
 23 49  1  0
 23 50  1  0
 23 51  1  0
 25 26  1  0
 25 52  1  6
 26 27  1  0
 26 53  1  0
 26 54  1  0
 27 28  1  1
 28 55  1  0
 28 56  1  0
 28 57  1  0
M  CHG  1  14   1
M  END
>  <i_m_ct_stereo_status>  (188) 
1

>  <s_m_source_file>  (188) 
/var/tmp/pbs.5076255.sched01/tmpnszqc94g/84e4epk0lh.sdf

>  <i_m_source_file_index>  (188) 
8

>  <i_lp_mmshare_version>  (188) 
48012

>  <i_f3d_flags>  (188) 
0

>  <s_epik_input>  (188) 
W0NIMl09QzFbQ0gyXVtDQF0oW09IXSkoW0NIMl1bQ0BIXTJbQ0gzXSlbQ0BAXShbQ0gyXTMpKFtDSDNdKVtDQEBIXShDKD1bQ0hdTzQpW0NAXTUoW0NASF0zW0NAQF0xMjQpQyg9TylbQ0gzXSlONltDQEBdNShbQ0gzXSlDKD1PKVtDSDJdW0NIMl02

>  <s_epik_cmdline>  (188) 
J2VwaWtfcHl0aG9uJywgJy1waHQnLCAnMi4wJywgJy1waCcsICc3LjAnLCAnLXRuJywgJzgnLCAnLW1hJywgJzIwMCcsICctaW1hZScsICc8aW5maWxlLm1hZT4nLCAnLW9tYWUnLCAnPG91dGZpbGUubWFlPic=

>  <r_lp_tautomer_probability>  (188) 
0.9999

>  <r_epik_Ionization_Penalty>  (188) 
2.52088

>  <r_epik_Ionization_Penalty_Charging>  (188) 
2.51914

>  <r_epik_Ionization_Penalty_Neutral>  (188) 
0.00174704

>  <r_epik_State_Penalty>  (188) 
2.68546

>  <r_epik_Charging_Adjusted_Penalty>  (188) 
5.2046

>  <i_epik_Tot_Q>  (188) 
1

>  <i_epik_Tot_abs_Q>  (188) 
1

>  <s_lp_Force_Field>  (188) 
OPLS3e

>  <r_lp_Energy>  (188) 
219.475

>  <b_lp_Chiralities_Consistent>  (188) 
1

>  <s_lp_Variant>  (188) 
61:0-2

>  <s_i_glide_gridfile>  (188) 
pfpi4k_grid

>  <i_i_glide_lignum>  (188) 
8

>  <i_i_glide_rotatable_bonds>  (188) 
2

>  <r_i_docking_score>  (188) 
-2.61263

>  <r_i_glide_ligand_efficiency>  (188) 
-0.0933082

>  <r_i_glide_ligand_efficiency_sa>  (188) 
-0.283339

>  <r_i_glide_ligand_efficiency_ln>  (188) 
-0.603072

>  <r_i_glide_gscore>  (188) 
-2.61263

>  <r_i_glide_lipo>  (188) 
-0.529508

>  <r_i_glide_hbond>  (188) 
-0.00935913

>  <r_i_glide_metal>  (188) 
-0

>  <r_i_glide_rewards>  (188) 
-0.823786

>  <r_i_glide_evdw>  (188) 
-22.1461

>  <r_i_glide_ecoul>  (188) 
-0.951164

>  <r_i_glide_erotb>  (188) 
0

>  <r_i_glide_esite>  (188) 
0

>  <r_i_glide_emodel>  (188) 
-26.5158

>  <r_i_glide_energy>  (188) 
-23.0972

>  <r_i_glide_einternal>  (188) 
3.55103

>  <r_i_glide_intrahb_reward>  (188) 
-0

>  <i_i_glide_confnum>  (188) 
1

>  <i_i_glide_posenum>  (188) 
17

>  <r_i_glide_eff_state_penalty>  (188) 
0

>  <ligand_id>  (188) 
61

>  <original_smiles>  (188) 
C=C1CC2(O)CC(C)C13OC=C1C4N5CCC(=O)C5(C)C1(C(C)=O)C3CC42C

>  <smiles>  (188) 
[H]OC12C([H])([H])C(=C([H])[H])C3(OC([H])=C4C5(C(=O)C([H])([H])[H])C3([H])C([H])([H])C1(C([H])([H])[H])C4([H])[N+]1([H])C([H])([H])C([H])([H])C(=O)C51C([H])([H])[H])C([H])(C([H])([H])[H])C2([H])[H]

$$$$
62:0:0
     RDKit          3D

 80 85  0  0  1  0  0  0  0  0999 V2000
    3.1547   -8.5165    3.8609 C   0  0  0  0  0  0  0  0  0  0  0  0
    2.9047   -8.0011    2.6340 C   0  0  0  0  0  0  0  0  0  0  0  0
    2.3996   -8.9710    1.5680 C   0  0  0  0  0  0  0  0  0  0  0  0
    3.0760   -6.5055    2.1912 C   0  0  1  0  0  0  0  0  0  0  0  0
    1.9650   -6.2779    1.3316 O   0  0  0  0  0  0  0  0  0  0  0  0
    2.9009   -5.4502    3.3630 C   0  0  2  0  0  0  0  0  0  0  0  0
    1.4977   -4.9631    3.7873 C   0  0  1  0  0  0  0  0  0  0  0  0
    0.4632   -6.0779    4.0829 C   0  0  0  0  0  0  0  0  0  0  0  0
    1.7934   -4.0458    5.0008 C   0  0  1  0  0  0  0  0  0  0  0  0
    1.1233   -4.4081    6.3495 C   0  0  0  0  0  0  0  0  0  0  0  0
    3.3391   -3.8762    5.0671 C   0  0  1  0  0  0  0  0  0  0  0  0
    3.8883   -4.6400    6.1319 O   0  0  0  0  0  0  0  0  0  0  0  0
    3.9355   -4.3017    3.6605 C   0  0  1  0  0  0  0  0  0  0  0  0
    5.3220   -5.0116    3.7993 C   0  0  0  0  0  0  0  0  0  0  0  0
    6.0554   -4.9946    2.5788 O   0  0  0  0  0  0  0  0  0  0  0  0
    5.2673   -4.9663    1.3933 C   0  0  1  0  0  0  0  0  0  0  0  0
    4.4466   -6.3373    1.3667 C   0  0  1  0  0  0  0  0  0  0  0  0
    5.4759   -7.4786    1.6235 C   0  0  0  0  0  0  0  0  0  0  0  0
    4.2130   -6.6737    0.0170 O   0  0  0  0  0  0  0  0  0  0  0  0
    4.6386   -3.5060    1.1902 C   0  0  1  0  0  0  0  0  0  0  0  0
    3.5033   -3.7271    0.1006 C   0  0  1  0  0  0  0  0  0  0  0  0
    2.3416   -2.9572    0.0710 O   0  0  0  0  0  0  0  0  0  0  0  0
    3.9498   -3.8627   -1.3625 C   0  0  0  0  0  0  0  0  0  0  0  0
    4.6270   -2.6458   -1.8857 C   0  0  0  0  0  0  0  0  0  0  0  0
    4.2443   -2.1384   -2.9336 O   0  0  0  0  0  0  0  0  0  0  0  0
    5.7436   -2.2362   -1.0171 C   0  0  1  0  0  0  0  0  0  0  0  0
    5.6922   -0.8145   -0.8791 O   0  0  0  0  0  0  0  0  0  0  0  0
    5.3152   -0.9651    0.4984 C   0  0  1  0  0  0  0  0  0  0  0  0
    3.8951   -0.3854    0.6645 C   0  0  0  0  0  0  0  0  0  0  0  0
    3.1975   -0.5746    2.0453 C   0  0  1  0  0  0  0  0  0  0  0  0
    1.8341    0.1391    2.0117 C   0  0  0  0  0  0  0  0  0  0  0  0
    2.9813   -2.0061    2.6385 C   0  0  0  0  0  0  0  0  0  0  0  0
    4.1661   -3.0288    2.6745 C   0  0  1  0  0  0  0  0  0  0  0  0
    5.2433   -2.1670    3.4333 C   0  0  0  0  0  0  0  0  0  0  0  0
    5.6715   -2.4718    0.5095 C   0  0  1  0  0  0  0  0  0  0  0  0
    7.1119   -2.7887    0.9072 C   0  0  0  0  0  0  0  0  0  0  0  0
    2.9612   -9.5638    4.0357 H   0  0  0  0  0  0  0  0  0  0  0  0
    3.5314   -7.9775    4.7115 H   0  0  0  0  0  0  0  0  0  0  0  0
    3.0035   -8.9591    0.6654 H   0  0  0  0  0  0  0  0  0  0  0  0
    1.3632   -8.7756    1.2960 H   0  0  0  0  0  0  0  0  0  0  0  0
    2.4449   -9.9990    1.9257 H   0  0  0  0  0  0  0  0  0  0  0  0
    2.0094   -6.9432    0.6575 H   0  0  0  0  0  0  0  0  0  0  0  0
    3.0873   -6.0699    4.2208 H   0  0  0  0  0  0  0  0  0  0  0  0
    1.0824   -4.3409    2.9904 H   0  0  0  0  0  0  0  0  0  0  0  0
    0.8134   -6.7675    4.8540 H   0  0  0  0  0  0  0  0  0  0  0  0
    0.2411   -6.6714    3.1969 H   0  0  0  0  0  0  0  0  0  0  0  0
   -0.4860   -5.6615    4.4238 H   0  0  0  0  0  0  0  0  0  0  0  0
    1.3670   -3.0814    4.7424 H   0  0  0  0  0  0  0  0  0  0  0  0
    1.3996   -5.4024    6.7066 H   0  0  0  0  0  0  0  0  0  0  0  0
    0.0354   -4.3709    6.2721 H   0  0  0  0  0  0  0  0  0  0  0  0
    1.4071   -3.6960    7.1255 H   0  0  0  0  0  0  0  0  0  0  0  0
    3.5545   -2.8573    5.3730 H   0  0  0  0  0  0  0  0  0  0  0  0
    3.6730   -5.5501    5.9985 H   0  0  0  0  0  0  0  0  0  0  0  0
    5.9464   -4.5777    4.5762 H   0  0  0  0  0  0  0  0  0  0  0  0
    5.2078   -6.0437    4.1277 H   0  0  0  0  0  0  0  0  0  0  0  0
    5.9729   -5.0931    0.5745 H   0  0  0  0  0  0  0  0  0  0  0  0
    5.7713   -7.5610    2.6671 H   0  0  0  0  0  0  0  0  0  0  0  0
    6.3799   -7.3153    1.0366 H   0  0  0  0  0  0  0  0  0  0  0  0
    5.1080   -8.4576    1.3173 H   0  0  0  0  0  0  0  0  0  0  0  0
    3.7089   -5.9906   -0.4071 H   0  0  0  0  0  0  0  0  0  0  0  0
    2.9935   -4.6129    0.3324 H   0  0  0  0  0  0  0  0  0  0  0  0
    2.4783   -2.1409   -0.3922 H   0  0  0  0  0  0  0  0  0  0  0  0
    4.6202   -4.7124   -1.4988 H   0  0  0  0  0  0  0  0  0  0  0  0
    3.0701   -3.9479   -1.9913 H   0  0  0  0  0  0  0  0  0  0  0  0
    6.7000   -2.5734   -1.4185 H   0  0  0  0  0  0  0  0  0  0  0  0
    6.0378   -0.4227    1.1014 H   0  0  0  0  0  0  0  0  0  0  0  0
    3.9801    0.6923    0.5171 H   0  0  0  0  0  0  0  0  0  0  0  0
    3.2391   -0.6808   -0.1483 H   0  0  0  0  0  0  0  0  0  0  0  0
    3.7908   -0.0178    2.7688 H   0  0  0  0  0  0  0  0  0  0  0  0
    1.1676   -0.3327    1.2888 H   0  0  0  0  0  0  0  0  0  0  0  0
    1.9408    1.1873    1.7180 H   0  0  0  0  0  0  0  0  0  0  0  0
    1.3424    0.1144    2.9861 H   0  0  0  0  0  0  0  0  0  0  0  0
    2.7116   -1.7761    3.6657 H   0  0  0  0  0  0  0  0  0  0  0  0
    2.0654   -2.4677    2.2876 H   0  0  0  0  0  0  0  0  0  0  0  0
    5.6097   -1.2994    2.9121 H   0  0  0  0  0  0  0  0  0  0  0  0
    6.1336   -2.7000    3.7014 H   0  0  0  0  0  0  0  0  0  0  0  0
    4.8947   -1.7408    4.3708 H   0  0  0  0  0  0  0  0  0  0  0  0
    7.7812   -1.9527    0.6914 H   0  0  0  0  0  0  0  0  0  0  0  0
    7.5387   -3.6397    0.3828 H   0  0  0  0  0  0  0  0  0  0  0  0
    7.1647   -3.0344    1.9374 H   0  0  0  0  0  0  0  0  0  0  0  0
  1  2  2  0
  1 37  1  0
  1 38  1  0
  2  3  1  0
  2  4  1  0
  3 39  1  0
  3 40  1  0
  3 41  1  0
  4 17  1  0
  4  5  1  6
  4  6  1  0
  5 42  1  0
  6 13  1  0
  6  7  1  0
  6 43  1  1
  7  8  1  0
  7  9  1  0
  7 44  1  6
  8 45  1  0
  8 46  1  0
  8 47  1  0
  9 10  1  0
  9 11  1  0
  9 48  1  6
 10 49  1  0
 10 50  1  0
 10 51  1  0
 11 12  1  0
 11 13  1  0
 11 52  1  1
 12 53  1  0
 13 33  1  0
 13 14  1  1
 14 15  1  0
 14 54  1  0
 14 55  1  0
 15 16  1  0
 16 17  1  0
 16 20  1  0
 16 56  1  6
 17 18  1  0
 17 19  1  6
 18 57  1  0
 18 58  1  0
 18 59  1  0
 19 60  1  0
 20 33  1  1
 20 35  1  0
 20 21  1  0
 21 22  1  0
 21 23  1  0
 21 61  1  1
 22 62  1  0
 23 24  1  0
 23 63  1  0
 23 64  1  0
 24 25  2  0
 24 26  1  0
 26 35  1  0
 26 27  1  0
 26 65  1  6
 27 28  1  0
 28 29  1  0
 28 35  1  0
 28 66  1  1
 29 30  1  0
 29 67  1  0
 29 68  1  0
 30 31  1  0
 30 32  1  0
 30 69  1  1
 31 70  1  0
 31 71  1  0
 31 72  1  0
 32 33  1  0
 32 73  1  0
 32 74  1  0
 33 34  1  1
 34 75  1  0
 34 76  1  0
 34 77  1  0
 35 36  1  1
 36 78  1  0
 36 79  1  0
 36 80  1  0
M  END
>  <i_m_ct_stereo_status>  (189) 
1

>  <s_m_source_file>  (189) 
/var/tmp/pbs.5076255.sched01/tmpnszqc94g/84e4epk0lh.sdf

>  <i_m_source_file_index>  (189) 
9

>  <i_lp_mmshare_version>  (189) 
48012

>  <i_f3d_flags>  (189) 
0

>  <s_epik_input>  (189) 
W09IXVtDQEBIXTFbQ0BIXShbQ0gzXSlbQ0BIXShbQ0gzXSlbQ0BIXShbQ0BAXTEyMylbQ0BdKFtPSF0pKEMoPVtDSDJdKVtDSDNdKVtDQEBdKFtDSDNdKShbT0hdKVtDQEhdKE9bQ0gyXTIpW0NAXTQ1W0NAQF0zKFtDSDNdKVtDSDJdW0NASF0oW0NIM10pW0NIMl1bQ0BIXTZbQ0BdNShbQ0gzXSlbQ0BIXShPNilDKD1PKVtDSDJdW0NAQEhdNFtPSF0=

>  <s_epik_cmdline>  (189) 
J2VwaWtfcHl0aG9uJywgJy1waHQnLCAnMi4wJywgJy1waCcsICc3LjAnLCAnLXRuJywgJzgnLCAnLW1hJywgJzIwMCcsICctaW1hZScsICc8aW5maWxlLm1hZT4nLCAnLW9tYWUnLCAnPG91dGZpbGUubWFlPic=

>  <r_lp_tautomer_probability>  (189) 
1

>  <r_epik_Ionization_Penalty>  (189) 
4.79501e-07

>  <r_epik_Ionization_Penalty_Charging>  (189) 
0

>  <r_epik_Ionization_Penalty_Neutral>  (189) 
4.79501e-07

>  <r_epik_State_Penalty>  (189) 
-0

>  <r_epik_Charging_Adjusted_Penalty>  (189) 
0

>  <i_epik_Tot_Q>  (189) 
0

>  <i_epik_Tot_abs_Q>  (189) 
0

>  <s_lp_Force_Field>  (189) 
OPLS3e

>  <r_lp_Energy>  (189) 
162.577

>  <b_lp_Chiralities_Consistent>  (189) 
1

>  <s_lp_Variant>  (189) 
62:0-1

>  <s_i_glide_gridfile>  (189) 
pfpi4k_grid

>  <i_i_glide_lignum>  (189) 
9

>  <i_i_glide_rotatable_bonds>  (189) 
5

>  <r_i_docking_score>  (189) 
-2.40785

>  <r_i_glide_ligand_efficiency>  (189) 
-0.0668848

>  <r_i_glide_ligand_efficiency_sa>  (189) 
-0.220849

>  <r_i_glide_ligand_efficiency_ln>  (189) 
-0.525329

>  <r_i_glide_gscore>  (189) 
-2.40785

>  <r_i_glide_lipo>  (189) 
-0.577151

>  <r_i_glide_hbond>  (189) 
-0.0776753

>  <r_i_glide_metal>  (189) 
-0

>  <r_i_glide_rewards>  (189) 
0

>  <r_i_glide_evdw>  (189) 
-21.0304

>  <r_i_glide_ecoul>  (189) 
-5.20082

>  <r_i_glide_erotb>  (189) 
0.0802903

>  <r_i_glide_esite>  (189) 
-0.0016764

>  <r_i_glide_emodel>  (189) 
-29.0769

>  <r_i_glide_energy>  (189) 
-26.2312

>  <r_i_glide_einternal>  (189) 
0.464065

>  <r_i_glide_intrahb_reward>  (189) 
-0

>  <i_i_glide_confnum>  (189) 
3

>  <i_i_glide_posenum>  (189) 
10

>  <r_i_glide_eff_state_penalty>  (189) 
0

>  <ligand_id>  (189) 
62

>  <original_smiles>  (189) 
C=C(C)C1(O)C2C(C)C(C)C(O)C23COC(C1(C)O)C12C(O)CC(=O)C4OC(CC(C)CC31C)C42C

>  <smiles>  (189) 
[H]OC1([H])C([H])(C([H])([H])[H])C([H])(C([H])([H])[H])C2([H])C(O[H])(C(=C([H])[H])C([H])([H])[H])C(O[H])(C([H])([H])[H])C3([H])OC([H])([H])C12C1(C([H])([H])[H])C([H])([H])C([H])(C([H])([H])[H])C([H])([H])C2([H])OC4([H])C(=O)C([H])([H])C([H])(O[H])C31C42C([H])([H])[H]

$$$$
62:0:1
     RDKit          3D

 80 85  0  0  1  0  0  0  0  0999 V2000
    0.1902   -9.1019    4.6810 C   0  0  0  0  0  0  0  0  0  0  0  0
    0.0269   -8.1491    3.7389 C   0  0  0  0  0  0  0  0  0  0  0  0
   -1.2626   -8.1880    2.9103 C   0  0  0  0  0  0  0  0  0  0  0  0
    1.0470   -7.0122    3.4083 C   0  0  1  0  0  0  0  0  0  0  0  0
    0.2243   -5.9031    3.0920 O   0  0  0  0  0  0  0  0  0  0  0  0
    1.8659   -6.4897    4.6692 C   0  0  2  0  0  0  0  0  0  0  0  0
    1.2698   -5.4160    5.6149 C   0  0  1  0  0  0  0  0  0  0  0  0
   -0.1506   -5.7211    6.1489 C   0  0  0  0  0  0  0  0  0  0  0  0
    2.3464   -5.2695    6.7212 C   0  0  1  0  0  0  0  0  0  0  0  0
    1.9056   -5.5509    8.1780 C   0  0  0  0  0  0  0  0  0  0  0  0
    3.5852   -6.0856    6.2440 C   0  0  1  0  0  0  0  0  0  0  0  0
    3.7080   -7.3006    6.9713 O   0  0  0  0  0  0  0  0  0  0  0  0
    3.4336   -6.3305    4.6854 C   0  0  1  0  0  0  0  0  0  0  0  0
    3.9930   -7.7166    4.2340 C   0  0  0  0  0  0  0  0  0  0  0  0
    4.2729   -7.7470    2.8330 O   0  0  0  0  0  0  0  0  0  0  0  0
    3.4559   -6.9000    2.0196 C   0  0  1  0  0  0  0  0  0  0  0  0
    1.9452   -7.4224    2.1371 C   0  0  1  0  0  0  0  0  0  0  0  0
    2.0031   -8.9664    1.9026 C   0  0  0  0  0  0  0  0  0  0  0  0
    1.2338   -7.0715    0.9535 O   0  0  0  0  0  0  0  0  0  0  0  0
    3.9293   -5.3768    2.2078 C   0  0  1  0  0  0  0  0  0  0  0  0
    2.7294   -4.5123    1.5891 C   0  0  1  0  0  0  0  0  0  0  0  0
    2.4613   -3.1867    1.9913 O   0  0  0  0  0  0  0  0  0  0  0  0
    2.6302   -4.5266    0.0514 C   0  0  0  0  0  0  0  0  0  0  0  0
    3.8151   -3.8288   -0.5577 C   0  0  0  0  0  0  0  0  0  0  0  0
    3.6525   -2.8714   -1.3103 O   0  0  0  0  0  0  0  0  0  0  0  0
    5.1010   -4.4286   -0.1171 C   0  0  1  0  0  0  0  0  0  0  0  0
    6.0352   -3.3692    0.1666 O   0  0  0  0  0  0  0  0  0  0  0  0
    5.9745   -3.6825    1.5743 C   0  0  1  0  0  0  0  0  0  0  0  0
    5.3616   -2.4664    2.2908 C   0  0  0  0  0  0  0  0  0  0  0  0
    4.9946   -2.6101    3.7996 C   0  0  1  0  0  0  0  0  0  0  0  0
    4.4815   -1.2550    4.3187 C   0  0  0  0  0  0  0  0  0  0  0  0
    4.0314   -3.7406    4.2934 C   0  0  0  0  0  0  0  0  0  0  0  0
    4.2295   -5.2157    3.8056 C   0  0  1  0  0  0  0  0  0  0  0  0
    5.7497   -5.4621    4.1918 C   0  0  0  0  0  0  0  0  0  0  0  0
    5.2372   -5.0292    1.3136 C   0  0  1  0  0  0  0  0  0  0  0  0
    6.2035   -6.2334    1.1604 C   0  0  0  0  0  0  0  0  0  0  0  0
   -0.5842   -9.8334    4.8394 H   0  0  0  0  0  0  0  0  0  0  0  0
    1.0606   -9.2058    5.3072 H   0  0  0  0  0  0  0  0  0  0  0  0
   -1.0552   -8.1644    1.8399 H   0  0  0  0  0  0  0  0  0  0  0  0
   -1.9185   -7.3518    3.1523 H   0  0  0  0  0  0  0  0  0  0  0  0
   -1.8252   -9.1028    3.1027 H   0  0  0  0  0  0  0  0  0  0  0  0
    0.7158   -5.1183    3.2758 H   0  0  0  0  0  0  0  0  0  0  0  0
    1.7608   -7.3260    5.3418 H   0  0  0  0  0  0  0  0  0  0  0  0
    1.2123   -4.4675    5.0808 H   0  0  0  0  0  0  0  0  0  0  0  0
   -0.1841   -6.6751    6.6748 H   0  0  0  0  0  0  0  0  0  0  0  0
   -0.8903   -5.7665    5.3518 H   0  0  0  0  0  0  0  0  0  0  0  0
   -0.4899   -4.9456    6.8347 H   0  0  0  0  0  0  0  0  0  0  0  0
    2.6226   -4.2178    6.7290 H   0  0  0  0  0  0  0  0  0  0  0  0
    1.5259   -6.5650    8.3103 H   0  0  0  0  0  0  0  0  0  0  0  0
    1.1274   -4.8581    8.4991 H   0  0  0  0  0  0  0  0  0  0  0  0
    2.7399   -5.4227    8.8681 H   0  0  0  0  0  0  0  0  0  0  0  0
    4.4757   -5.5420    6.5356 H   0  0  0  0  0  0  0  0  0  0  0  0
    2.9569   -7.8458    6.7969 H   0  0  0  0  0  0  0  0  0  0  0  0
    4.8990   -7.9930    4.7698 H   0  0  0  0  0  0  0  0  0  0  0  0
    3.3134   -8.5277    4.4859 H   0  0  0  0  0  0  0  0  0  0  0  0
    3.7231   -7.1631    0.9970 H   0  0  0  0  0  0  0  0  0  0  0  0
    2.3992   -9.5087    2.7582 H   0  0  0  0  0  0  0  0  0  0  0  0
    2.6365   -9.2249    1.0523 H   0  0  0  0  0  0  0  0  0  0  0  0
    1.0300   -9.4090    1.6892 H   0  0  0  0  0  0  0  0  0  0  0  0
    0.6384   -7.7828    0.7614 H   0  0  0  0  0  0  0  0  0  0  0  0
    1.8169   -4.9234    1.9104 H   0  0  0  0  0  0  0  0  0  0  0  0
    3.1040   -2.6095    1.6063 H   0  0  0  0  0  0  0  0  0  0  0  0
    2.6239   -5.5498   -0.3203 H   0  0  0  0  0  0  0  0  0  0  0  0
    1.7218   -4.0414   -0.3010 H   0  0  0  0  0  0  0  0  0  0  0  0
    5.4928   -5.1008   -0.8809 H   0  0  0  0  0  0  0  0  0  0  0  0
    6.9929   -3.8698    1.9150 H   0  0  0  0  0  0  0  0  0  0  0  0
    6.0920   -1.6590    2.2208 H   0  0  0  0  0  0  0  0  0  0  0  0
    4.5354   -2.0582    1.7184 H   0  0  0  0  0  0  0  0  0  0  0  0
    5.9265   -2.7766    4.3306 H   0  0  0  0  0  0  0  0  0  0  0  0
    3.5336   -0.9886    3.8490 H   0  0  0  0  0  0  0  0  0  0  0  0
    5.1930   -0.4543    4.1096 H   0  0  0  0  0  0  0  0  0  0  0  0
    4.3241   -1.2762    5.3987 H   0  0  0  0  0  0  0  0  0  0  0  0
    4.2102   -3.7190    5.3635 H   0  0  0  0  0  0  0  0  0  0  0  0
    2.9915   -3.4423    4.2392 H   0  0  0  0  0  0  0  0  0  0  0  0
    6.4651   -4.8686    3.6528 H   0  0  0  0  0  0  0  0  0  0  0  0
    6.1181   -6.4725    4.0697 H   0  0  0  0  0  0  0  0  0  0  0  0
    5.9841   -5.2147    5.2230 H   0  0  0  0  0  0  0  0  0  0  0  0
    7.1434   -5.9198    0.7028 H   0  0  0  0  0  0  0  0  0  0  0  0
    5.8097   -6.9926    0.4904 H   0  0  0  0  0  0  0  0  0  0  0  0
    6.4871   -6.7383    2.0694 H   0  0  0  0  0  0  0  0  0  0  0  0
  1  2  2  0
  1 37  1  0
  1 38  1  0
  2  3  1  0
  2  4  1  0
  3 39  1  0
  3 40  1  0
  3 41  1  0
  4 17  1  0
  4  5  1  6
  4  6  1  0
  5 42  1  0
  6 13  1  0
  6  7  1  0
  6 43  1  1
  7  8  1  0
  7  9  1  0
  7 44  1  6
  8 45  1  0
  8 46  1  0
  8 47  1  0
  9 10  1  0
  9 11  1  0
  9 48  1  1
 10 49  1  0
 10 50  1  0
 10 51  1  0
 11 12  1  0
 11 13  1  0
 11 52  1  6
 12 53  1  0
 13 33  1  0
 13 14  1  1
 14 15  1  0
 14 54  1  0
 14 55  1  0
 15 16  1  0
 16 17  1  0
 16 20  1  0
 16 56  1  6
 17 18  1  0
 17 19  1  6
 18 57  1  0
 18 58  1  0
 18 59  1  0
 19 60  1  0
 20 33  1  1
 20 35  1  0
 20 21  1  0
 21 22  1  0
 21 23  1  0
 21 61  1  1
 22 62  1  0
 23 24  1  0
 23 63  1  0
 23 64  1  0
 24 25  2  0
 24 26  1  0
 26 35  1  0
 26 27  1  0
 26 65  1  6
 27 28  1  0
 28 29  1  0
 28 35  1  0
 28 66  1  1
 29 30  1  0
 29 67  1  0
 29 68  1  0
 30 31  1  0
 30 32  1  0
 30 69  1  1
 31 70  1  0
 31 71  1  0
 31 72  1  0
 32 33  1  0
 32 73  1  0
 32 74  1  0
 33 34  1  6
 34 75  1  0
 34 76  1  0
 34 77  1  0
 35 36  1  6
 36 78  1  0
 36 79  1  0
 36 80  1  0
M  END
>  <i_m_ct_stereo_status>  (190) 
1

>  <s_m_source_file>  (190) 
/var/tmp/pbs.5076255.sched01/tmpnszqc94g/84e4epk0lh.sdf

>  <i_m_source_file_index>  (190) 
9

>  <i_lp_mmshare_version>  (190) 
48012

>  <i_f3d_flags>  (190) 
0

>  <s_epik_input>  (190) 
W09IXVtDQEBIXTFbQ0BIXShbQ0gzXSlbQ0BIXShbQ0gzXSlbQ0BIXShbQ0BAXTEyMylbQ0BdKFtPSF0pKEMoPVtDSDJdKVtDSDNdKVtDQEBdKFtDSDNdKShbT0hdKVtDQEhdKE9bQ0gyXTIpW0NAXTQ1W0NAQF0zKFtDSDNdKVtDSDJdW0NASF0oW0NIM10pW0NIMl1bQ0BIXTZbQ0BdNShbQ0gzXSlbQ0BIXShPNilDKD1PKVtDSDJdW0NAQEhdNFtPSF0=

>  <s_epik_cmdline>  (190) 
J2VwaWtfcHl0aG9uJywgJy1waHQnLCAnMi4wJywgJy1waCcsICc3LjAnLCAnLXRuJywgJzgnLCAnLW1hJywgJzIwMCcsICctaW1hZScsICc8aW5maWxlLm1hZT4nLCAnLW9tYWUnLCAnPG91dGZpbGUubWFlPic=

>  <r_lp_tautomer_probability>  (190) 
1

>  <r_epik_Ionization_Penalty>  (190) 
4.79501e-07

>  <r_epik_Ionization_Penalty_Charging>  (190) 
0

>  <r_epik_Ionization_Penalty_Neutral>  (190) 
4.79501e-07

>  <r_epik_State_Penalty>  (190) 
-0

>  <r_epik_Charging_Adjusted_Penalty>  (190) 
0

>  <i_epik_Tot_Q>  (190) 
0

>  <i_epik_Tot_abs_Q>  (190) 
0

>  <s_lp_Force_Field>  (190) 
OPLS3e

>  <r_lp_Energy>  (190) 
162.577

>  <b_lp_Chiralities_Consistent>  (190) 
1

>  <s_lp_Variant>  (190) 
62:0-1

>  <s_i_glide_gridfile>  (190) 
pfpi4k_grid

>  <i_i_glide_lignum>  (190) 
9

>  <i_i_glide_rotatable_bonds>  (190) 
5

>  <r_i_docking_score>  (190) 
-2.12774

>  <r_i_glide_ligand_efficiency>  (190) 
-0.0591038

>  <r_i_glide_ligand_efficiency_sa>  (190) 
-0.195156

>  <r_i_glide_ligand_efficiency_ln>  (190) 
-0.464214

>  <r_i_glide_gscore>  (190) 
-2.12774

>  <r_i_glide_lipo>  (190) 
-0.435965

>  <r_i_glide_hbond>  (190) 
0

>  <r_i_glide_metal>  (190) 
-0

>  <r_i_glide_rewards>  (190) 
0

>  <r_i_glide_evdw>  (190) 
-20.6326

>  <r_i_glide_ecoul>  (190) 
-4.88555

>  <r_i_glide_erotb>  (190) 
0.0802903

>  <r_i_glide_esite>  (190) 
-0.00759861

>  <r_i_glide_emodel>  (190) 
-28.5827

>  <r_i_glide_energy>  (190) 
-25.5181

>  <r_i_glide_einternal>  (190) 
1.02943

>  <r_i_glide_intrahb_reward>  (190) 
-0

>  <i_i_glide_confnum>  (190) 
3

>  <i_i_glide_posenum>  (190) 
1

>  <r_i_glide_eff_state_penalty>  (190) 
0

>  <ligand_id>  (190) 
62

>  <original_smiles>  (190) 
C=C(C)C1(O)C2C(C)C(C)C(O)C23COC(C1(C)O)C12C(O)CC(=O)C4OC(CC(C)CC31C)C42C

>  <smiles>  (190) 
[H]OC1([H])C([H])(C([H])([H])[H])C([H])(C([H])([H])[H])C2([H])C(O[H])(C(=C([H])[H])C([H])([H])[H])C(O[H])(C([H])([H])[H])C3([H])OC([H])([H])C12C1(C([H])([H])[H])C([H])([H])C([H])(C([H])([H])[H])C([H])([H])C2([H])OC4([H])C(=O)C([H])([H])C([H])(O[H])C31C42C([H])([H])[H]

$$$$
62:0:2
     RDKit          3D

 80 85  0  0  1  0  0  0  0  0999 V2000
    3.4040   -8.6329    1.2907 C   0  0  0  0  0  0  0  0  0  0  0  0
    3.4300   -7.3169    1.5799 C   0  0  0  0  0  0  0  0  0  0  0  0
    4.0842   -6.3758    0.5620 C   0  0  0  0  0  0  0  0  0  0  0  0
    2.8580   -6.6621    2.8830 C   0  0  1  0  0  0  0  0  0  0  0  0
    2.4136   -5.3836    2.4499 O   0  0  0  0  0  0  0  0  0  0  0  0
    1.5285   -7.3510    3.4174 C   0  0  2  0  0  0  0  0  0  0  0  0
    0.1496   -6.9353    2.8535 C   0  0  1  0  0  0  0  0  0  0  0  0
    0.0382   -6.9571    1.3110 C   0  0  0  0  0  0  0  0  0  0  0  0
   -0.8447   -7.8779    3.5849 C   0  0  1  0  0  0  0  0  0  0  0  0
   -1.7166   -8.8076    2.7061 C   0  0  0  0  0  0  0  0  0  0  0  0
   -0.0230   -8.6076    4.6878 C   0  0  1  0  0  0  0  0  0  0  0  0
    0.2317   -9.9456    4.2984 O   0  0  0  0  0  0  0  0  0  0  0  0
    1.3149   -7.7920    4.9169 C   0  0  1  0  0  0  0  0  0  0  0  0
    2.5346   -8.7091    5.2495 C   0  0  0  0  0  0  0  0  0  0  0  0
    3.5871   -7.9820    5.8887 O   0  0  0  0  0  0  0  0  0  0  0  0
    3.6822   -6.5982    5.5403 C   0  0  1  0  0  0  0  0  0  0  0  0
    4.0285   -6.5101    3.9775 C   0  0  1  0  0  0  0  0  0  0  0  0
    5.2244   -7.4872    3.7451 C   0  0  0  0  0  0  0  0  0  0  0  0
    4.7206   -5.2938    3.7212 O   0  0  0  0  0  0  0  0  0  0  0  0
    2.5082   -5.7872    6.2774 C   0  0  1  0  0  0  0  0  0  0  0  0
    2.4711   -4.3723    5.5202 C   0  0  1  0  0  0  0  0  0  0  0  0
    1.3196   -3.5546    5.4971 O   0  0  0  0  0  0  0  0  0  0  0  0
    3.6375   -3.4171    5.8467 C   0  0  0  0  0  0  0  0  0  0  0  0
    3.5535   -2.9661    7.2810 C   0  0  0  0  0  0  0  0  0  0  0  0
    3.4976   -1.7691    7.5463 O   0  0  0  0  0  0  0  0  0  0  0  0
    3.5429   -4.1171    8.2277 C   0  0  1  0  0  0  0  0  0  0  0  0
    2.5764   -3.8624    9.2630 O   0  0  0  0  0  0  0  0  0  0  0  0
    1.7370   -4.9174    8.7477 C   0  0  1  0  0  0  0  0  0  0  0  0
    0.4354   -4.2635    8.2568 C   0  0  0  0  0  0  0  0  0  0  0  0
   -0.5783   -5.1543    7.4789 C   0  0  1  0  0  0  0  0  0  0  0  0
   -1.8324   -4.3191    7.1634 C   0  0  0  0  0  0  0  0  0  0  0  0
   -0.1357   -5.9071    6.1764 C   0  0  0  0  0  0  0  0  0  0  0  0
    1.1895   -6.7422    6.1584 C   0  0  1  0  0  0  0  0  0  0  0  0
    0.9699   -7.6861    7.4174 C   0  0  0  0  0  0  0  0  0  0  0  0
    2.8671   -5.4601    7.8244 C   0  0  1  0  0  0  0  0  0  0  0  0
    3.7223   -6.5681    8.4980 C   0  0  0  0  0  0  0  0  0  0  0  0
    3.8188   -8.9993    0.3633 H   0  0  0  0  0  0  0  0  0  0  0  0
    2.9928   -9.3873    1.9429 H   0  0  0  0  0  0  0  0  0  0  0  0
    4.8355   -5.7357    1.0248 H   0  0  0  0  0  0  0  0  0  0  0  0
    3.3426   -5.7437    0.0746 H   0  0  0  0  0  0  0  0  0  0  0  0
    4.5889   -6.9360   -0.2262 H   0  0  0  0  0  0  0  0  0  0  0  0
    3.1760   -4.8879    2.1885 H   0  0  0  0  0  0  0  0  0  0  0  0
    1.5858   -8.3178    2.9390 H   0  0  0  0  0  0  0  0  0  0  0  0
   -0.0524   -5.9166    3.1797 H   0  0  0  0  0  0  0  0  0  0  0  0
    0.2882   -7.9330    0.9060 H   0  0  0  0  0  0  0  0  0  0  0  0
    0.7103   -6.2513    0.8292 H   0  0  0  0  0  0  0  0  0  0  0  0
   -0.9693   -6.7100    0.9894 H   0  0  0  0  0  0  0  0  0  0  0  0
   -1.5662   -7.2295    4.0798 H   0  0  0  0  0  0  0  0  0  0  0  0
   -1.1190   -9.4708    2.0785 H   0  0  0  0  0  0  0  0  0  0  0  0
   -2.3746   -8.2346    2.0578 H   0  0  0  0  0  0  0  0  0  0  0  0
   -2.3629   -9.4362    3.3179 H   0  0  0  0  0  0  0  0  0  0  0  0
   -0.6478   -8.7249    5.5665 H   0  0  0  0  0  0  0  0  0  0  0  0
   -0.5377  -10.4587    4.5276 H   0  0  0  0  0  0  0  0  0  0  0  0
    2.2634   -9.5508    5.8854 H   0  0  0  0  0  0  0  0  0  0  0  0
    2.9232   -9.1998    4.3608 H   0  0  0  0  0  0  0  0  0  0  0  0
    4.6027   -6.2605    6.0139 H   0  0  0  0  0  0  0  0  0  0  0  0
    4.9240   -8.5339    3.7552 H   0  0  0  0  0  0  0  0  0  0  0  0
    5.9865   -7.3775    4.5181 H   0  0  0  0  0  0  0  0  0  0  0  0
    5.7394   -7.3222    2.7971 H   0  0  0  0  0  0  0  0  0  0  0  0
    5.1320   -5.3590    2.8732 H   0  0  0  0  0  0  0  0  0  0  0  0
    2.5423   -4.5341    4.4821 H   0  0  0  0  0  0  0  0  0  0  0  0
    1.4663   -2.8634    4.8694 H   0  0  0  0  0  0  0  0  0  0  0  0
    4.6019   -3.9077    5.7212 H   0  0  0  0  0  0  0  0  0  0  0  0
    3.6234   -2.5431    5.1929 H   0  0  0  0  0  0  0  0  0  0  0  0
    4.5328   -4.2763    8.6570 H   0  0  0  0  0  0  0  0  0  0  0  0
    1.5414   -5.6156    9.5622 H   0  0  0  0  0  0  0  0  0  0  0  0
   -0.0844   -3.8916    9.1402 H   0  0  0  0  0  0  0  0  0  0  0  0
    0.6446   -3.3408    7.7263 H   0  0  0  0  0  0  0  0  0  0  0  0
   -0.9100   -5.9117    8.1869 H   0  0  0  0  0  0  0  0  0  0  0  0
   -1.5956   -3.5092    6.4721 H   0  0  0  0  0  0  0  0  0  0  0  0
   -2.2502   -3.8765    8.0668 H   0  0  0  0  0  0  0  0  0  0  0  0
   -2.6167   -4.9306    6.7125 H   0  0  0  0  0  0  0  0  0  0  0  0
   -0.9564   -6.5961    6.0269 H   0  0  0  0  0  0  0  0  0  0  0  0
   -0.2177   -5.2826    5.2941 H   0  0  0  0  0  0  0  0  0  0  0  0
    0.9224   -7.1905    8.3712 H   0  0  0  0  0  0  0  0  0  0  0  0
    1.7095   -8.4628    7.5648 H   0  0  0  0  0  0  0  0  0  0  0  0
    0.0261   -8.2210    7.4009 H   0  0  0  0  0  0  0  0  0  0  0  0
    3.7925   -6.4016    9.5743 H   0  0  0  0  0  0  0  0  0  0  0  0
    4.7549   -6.5661    8.1554 H   0  0  0  0  0  0  0  0  0  0  0  0
    3.3638   -7.5790    8.3924 H   0  0  0  0  0  0  0  0  0  0  0  0
  1  2  2  0
  1 37  1  0
  1 38  1  0
  2  3  1  0
  2  4  1  0
  3 39  1  0
  3 40  1  0
  3 41  1  0
  4 17  1  0
  4  5  1  6
  4  6  1  0
  5 42  1  0
  6 13  1  0
  6  7  1  0
  6 43  1  6
  7  8  1  0
  7  9  1  0
  7 44  1  1
  8 45  1  0
  8 46  1  0
  8 47  1  0
  9 10  1  0
  9 11  1  0
  9 48  1  1
 10 49  1  0
 10 50  1  0
 10 51  1  0
 11 12  1  0
 11 13  1  0
 11 52  1  1
 12 53  1  0
 13 33  1  0
 13 14  1  1
 14 15  1  0
 14 54  1  0
 14 55  1  0
 15 16  1  0
 16 17  1  0
 16 20  1  0
 16 56  1  1
 17 18  1  0
 17 19  1  1
 18 57  1  0
 18 58  1  0
 18 59  1  0
 19 60  1  0
 20 33  1  1
 20 35  1  0
 20 21  1  0
 21 22  1  0
 21 23  1  0
 21 61  1  6
 22 62  1  0
 23 24  1  0
 23 63  1  0
 23 64  1  0
 24 25  2  0
 24 26  1  0
 26 35  1  0
 26 27  1  0
 26 65  1  1
 27 28  1  0
 28 29  1  0
 28 35  1  0
 28 66  1  1
 29 30  1  0
 29 67  1  0
 29 68  1  0
 30 31  1  0
 30 32  1  0
 30 69  1  1
 31 70  1  0
 31 71  1  0
 31 72  1  0
 32 33  1  0
 32 73  1  0
 32 74  1  0
 33 34  1  1
 34 75  1  0
 34 76  1  0
 34 77  1  0
 35 36  1  1
 36 78  1  0
 36 79  1  0
 36 80  1  0
M  END
>  <i_m_ct_stereo_status>  (191) 
1

>  <s_m_source_file>  (191) 
/var/tmp/pbs.5076255.sched01/tmpnszqc94g/84e4epk0lh.sdf

>  <i_m_source_file_index>  (191) 
9

>  <i_lp_mmshare_version>  (191) 
48012

>  <i_f3d_flags>  (191) 
0

>  <s_epik_input>  (191) 
W09IXVtDQEBIXTFbQ0BIXShbQ0gzXSlbQ0BIXShbQ0gzXSlbQ0BIXShbQ0BAXTEyMylbQ0BdKFtPSF0pKEMoPVtDSDJdKVtDSDNdKVtDQEBdKFtDSDNdKShbT0hdKVtDQEhdKE9bQ0gyXTIpW0NAXTQ1W0NAQF0zKFtDSDNdKVtDSDJdW0NASF0oW0NIM10pW0NIMl1bQ0BIXTZbQ0BdNShbQ0gzXSlbQ0BIXShPNilDKD1PKVtDSDJdW0NAQEhdNFtPSF0=

>  <s_epik_cmdline>  (191) 
J2VwaWtfcHl0aG9uJywgJy1waHQnLCAnMi4wJywgJy1waCcsICc3LjAnLCAnLXRuJywgJzgnLCAnLW1hJywgJzIwMCcsICctaW1hZScsICc8aW5maWxlLm1hZT4nLCAnLW9tYWUnLCAnPG91dGZpbGUubWFlPic=

>  <r_lp_tautomer_probability>  (191) 
1

>  <r_epik_Ionization_Penalty>  (191) 
4.79501e-07

>  <r_epik_Ionization_Penalty_Charging>  (191) 
0

>  <r_epik_Ionization_Penalty_Neutral>  (191) 
4.79501e-07

>  <r_epik_State_Penalty>  (191) 
-0

>  <r_epik_Charging_Adjusted_Penalty>  (191) 
0

>  <i_epik_Tot_Q>  (191) 
0

>  <i_epik_Tot_abs_Q>  (191) 
0

>  <s_lp_Force_Field>  (191) 
OPLS3e

>  <r_lp_Energy>  (191) 
162.577

>  <b_lp_Chiralities_Consistent>  (191) 
1

>  <s_lp_Variant>  (191) 
62:0-1

>  <s_i_glide_gridfile>  (191) 
pfpi4k_grid

>  <i_i_glide_lignum>  (191) 
9

>  <i_i_glide_rotatable_bonds>  (191) 
5

>  <r_i_docking_score>  (191) 
-1.92481

>  <r_i_glide_ligand_efficiency>  (191) 
-0.053467

>  <r_i_glide_ligand_efficiency_sa>  (191) 
-0.176544

>  <r_i_glide_ligand_efficiency_ln>  (191) 
-0.419942

>  <r_i_glide_gscore>  (191) 
-1.92481

>  <r_i_glide_lipo>  (191) 
-0.408281

>  <r_i_glide_hbond>  (191) 
-0.16

>  <r_i_glide_metal>  (191) 
-0

>  <r_i_glide_rewards>  (191) 
0

>  <r_i_glide_evdw>  (191) 
-21.8105

>  <r_i_glide_ecoul>  (191) 
-2.30865

>  <r_i_glide_erotb>  (191) 
0.0802903

>  <r_i_glide_esite>  (191) 
0

>  <r_i_glide_emodel>  (191) 
-26.6914

>  <r_i_glide_energy>  (191) 
-24.1192

>  <r_i_glide_einternal>  (191) 
1.08483

>  <r_i_glide_intrahb_reward>  (191) 
-0

>  <i_i_glide_confnum>  (191) 
1

>  <i_i_glide_posenum>  (191) 
26

>  <r_i_glide_eff_state_penalty>  (191) 
0

>  <ligand_id>  (191) 
62

>  <original_smiles>  (191) 
C=C(C)C1(O)C2C(C)C(C)C(O)C23COC(C1(C)O)C12C(O)CC(=O)C4OC(CC(C)CC31C)C42C

>  <smiles>  (191) 
[H]OC1([H])C([H])(C([H])([H])[H])C([H])(C([H])([H])[H])C2([H])C(O[H])(C(=C([H])[H])C([H])([H])[H])C(O[H])(C([H])([H])[H])C3([H])OC([H])([H])C12C1(C([H])([H])[H])C([H])([H])C([H])(C([H])([H])[H])C([H])([H])C2([H])OC4([H])C(=O)C([H])([H])C([H])(O[H])C31C42C([H])([H])[H]

$$$$
63:0:0
     RDKit          3D

 37 39  0  0  1  0  0  0  0  0999 V2000
   -6.7922   -4.3281   -4.3531 C   0  0  0  0  0  0  0  0  0  0  0  0
   -5.8542   -4.8137   -5.4657 C   0  0  0  0  0  0  0  0  0  0  0  0
   -5.0894   -6.0894   -5.1186 C   0  0  0  0  0  0  0  0  0  0  0  0
   -5.9698   -7.3481   -4.9774 C   0  0  0  0  0  0  0  0  0  0  0  0
   -6.7546   -7.6619   -6.1881 N   0  0  0  0  0  0  0  0  0  0  0  0
   -7.7556   -6.9811   -6.7354 C   0  0  0  0  0  0  0  0  0  0  0  0
   -8.3408   -5.9121   -6.3850 O   0  0  0  0  0  0  0  0  0  0  0  0
   -8.1328   -7.6108   -8.0223 C   0  0  2  0  0  0  0  0  0  0  0  0
   -7.7892   -6.6643   -9.1748 C   0  0  0  0  0  0  0  0  0  0  0  0
   -9.1472   -6.5553   -9.8770 C   0  0  1  0  0  0  0  0  0  0  0  0
   -9.4447   -7.9000  -10.5642 C   0  0  0  0  0  0  0  0  0  0  0  0
   -9.8243   -8.8211   -9.3878 C   0  0  0  0  0  0  0  0  0  0  0  0
   -9.6305   -7.9009   -8.1767 C   0  0  2  0  0  0  0  0  0  0  0  0
  -10.1436   -6.5681   -8.7178 C   0  0  0  0  0  0  0  0  0  0  0  0
   -7.3021   -8.7769   -7.9575 N   0  0  0  0  0  0  0  0  0  0  0  0
   -6.4785   -8.8318   -6.9091 C   0  0  0  0  0  0  0  0  0  0  0  0
   -5.4307  -10.0850   -6.6537 S   0  0  0  0  0  0  0  0  0  0  0  0
   -7.3855   -3.4788   -4.6909 H   0  0  0  0  0  0  0  0  0  0  0  0
   -6.1912   -4.0166   -3.5040 H   0  0  0  0  0  0  0  0  0  0  0  0
   -7.4927   -5.0939   -4.0104 H   0  0  0  0  0  0  0  0  0  0  0  0
   -6.3661   -4.9523   -6.3867 H   0  0  0  0  0  0  0  0  0  0  0  0
   -5.2140   -4.0258   -5.8254 H   0  0  0  0  0  0  0  0  0  0  0  0
   -4.3159   -6.2653   -5.8661 H   0  0  0  0  0  0  0  0  0  0  0  0
   -4.5799   -5.9048   -4.1784 H   0  0  0  0  0  0  0  0  0  0  0  0
   -5.3215   -8.1604   -4.6452 H   0  0  0  0  0  0  0  0  0  0  0  0
   -6.6752   -7.2269   -4.1650 H   0  0  0  0  0  0  0  0  0  0  0  0
   -7.4638   -5.6802   -8.8222 H   0  0  0  0  0  0  0  0  0  0  0  0
   -6.9902   -7.0598   -9.7971 H   0  0  0  0  0  0  0  0  0  0  0  0
   -9.2127   -5.6899  -10.5314 H   0  0  0  0  0  0  0  0  0  0  0  0
  -10.2812   -7.8020  -11.2522 H   0  0  0  0  0  0  0  0  0  0  0  0
   -8.5849   -8.2729  -11.1220 H   0  0  0  0  0  0  0  0  0  0  0  0
  -10.8634   -9.1340   -9.4579 H   0  0  0  0  0  0  0  0  0  0  0  0
   -9.2148   -9.7234   -9.3403 H   0  0  0  0  0  0  0  0  0  0  0  0
  -10.1184   -8.2598   -7.2697 H   0  0  0  0  0  0  0  0  0  0  0  0
  -10.0337   -5.7230   -8.0402 H   0  0  0  0  0  0  0  0  0  0  0  0
  -11.1857   -6.6038   -9.0259 H   0  0  0  0  0  0  0  0  0  0  0  0
   -7.3572   -9.5234   -8.6423 H   0  0  0  0  0  0  0  0  0  0  0  0
  1  2  1  0
  1 18  1  0
  1 19  1  0
  1 20  1  0
  2  3  1  0
  2 21  1  0
  2 22  1  0
  3  4  1  0
  3 23  1  0
  3 24  1  0
  4  5  1  0
  4 25  1  0
  4 26  1  0
  5 16  1  0
  5  6  1  0
  6  7  2  0
  6  8  1  0
  8 13  1  0
  8  9  1  0
  8 15  1  6
  9 10  1  0
  9 27  1  0
  9 28  1  0
 10 14  1  0
 10 11  1  0
 10 29  1  6
 11 12  1  0
 11 30  1  0
 11 31  1  0
 12 13  1  0
 12 32  1  0
 12 33  1  0
 13 14  1  0
 13 34  1  1
 14 35  1  0
 14 36  1  0
 15 16  1  0
 15 37  1  0
 16 17  2  0
M  END
>  <i_m_ct_stereo_status>  (192) 
1

>  <s_m_source_file>  (192) 
/var/tmp/pbs.5076255.sched01/tmpnszqc94g/84e4epk0lh.sdf

>  <i_m_source_file_index>  (192) 
10

>  <i_lp_mmshare_version>  (192) 
48012

>  <i_f3d_flags>  (192) 
0

>  <s_epik_input>  (192) 
W0NIM11bQ0gyXVtDSDJdW0NIMl1OKEMoPVMpW05IXTEpQyg9TylbQ0BdMTJbQ0BASF0zW0NIMl1bQ0gyXVtDQEhdKFtDSDJdMilbQ0gyXTM=

>  <s_epik_cmdline>  (192) 
J2VwaWtfcHl0aG9uJywgJy1waHQnLCAnMi4wJywgJy1waCcsICc3LjAnLCAnLXRuJywgJzgnLCAnLW1hJywgJzIwMCcsICctaW1hZScsICc8aW5maWxlLm1hZT4nLCAnLW9tYWUnLCAnPG91dGZpbGUubWFlPic=

>  <r_lp_tautomer_probability>  (192) 
1

>  <r_epik_Ionization_Penalty>  (192) 
1.07481e-06

>  <r_epik_Ionization_Penalty_Charging>  (192) 
0

>  <r_epik_Ionization_Penalty_Neutral>  (192) 
1.07481e-06

>  <r_epik_State_Penalty>  (192) 
-0

>  <r_epik_Charging_Adjusted_Penalty>  (192) 
0

>  <i_epik_Tot_Q>  (192) 
0

>  <i_epik_Tot_abs_Q>  (192) 
0

>  <s_lp_Force_Field>  (192) 
OPLS3e

>  <r_lp_Energy>  (192) 
37.4198

>  <b_lp_Chiralities_Consistent>  (192) 
1

>  <s_lp_Variant>  (192) 
63:0-1

>  <s_i_glide_gridfile>  (192) 
pfpi4k_grid

>  <i_i_glide_lignum>  (192) 
10

>  <i_i_glide_rotatable_bonds>  (192) 
3

>  <r_i_docking_score>  (192) 
-4.50831

>  <r_i_glide_ligand_efficiency>  (192) 
-0.265195

>  <r_i_glide_ligand_efficiency_sa>  (192) 
-0.681891

>  <r_i_glide_ligand_efficiency_ln>  (192) 
-1.17612

>  <r_i_glide_gscore>  (192) 
-4.50831

>  <r_i_glide_lipo>  (192) 
-1.50546

>  <r_i_glide_hbond>  (192) 
0

>  <r_i_glide_metal>  (192) 
-0

>  <r_i_glide_rewards>  (192) 
-2.18263

>  <r_i_glide_evdw>  (192) 
-23.6012

>  <r_i_glide_ecoul>  (192) 
0.562241

>  <r_i_glide_erotb>  (192) 
0.275492

>  <r_i_glide_esite>  (192) 
0

>  <r_i_glide_emodel>  (192) 
-23.8692

>  <r_i_glide_energy>  (192) 
-23.0389

>  <r_i_glide_einternal>  (192) 
3.24496

>  <r_i_glide_intrahb_reward>  (192) 
-0

>  <i_i_glide_confnum>  (192) 
3

>  <i_i_glide_posenum>  (192) 
3

>  <r_i_glide_eff_state_penalty>  (192) 
0

>  <ligand_id>  (192) 
63

>  <original_smiles>  (192) 
CCCCN1C(=O)C2(CC3CCC2C3)NC1=S

>  <smiles>  (192) 
[H]N1C(=S)N(C([H])([H])C([H])([H])C([H])([H])C([H])([H])[H])C(=O)C12C([H])([H])C1([H])C([H])([H])C([H])([H])C2([H])C1([H])[H]

$$$$
63:0:1
     RDKit          3D

 37 39  0  0  1  0  0  0  0  0999 V2000
   -4.2503   -7.5098   -5.4984 C   0  0  0  0  0  0  0  0  0  0  0  0
   -4.9607   -8.8133   -5.1205 C   0  0  0  0  0  0  0  0  0  0  0  0
   -6.4017   -8.8711   -5.6328 C   0  0  0  0  0  0  0  0  0  0  0  0
   -6.4789   -8.9358   -7.1738 C   0  0  0  0  0  0  0  0  0  0  0  0
   -7.8568   -8.8636   -7.6702 N   0  0  0  0  0  0  0  0  0  0  0  0
   -8.3790   -7.7004   -8.2256 C   0  0  0  0  0  0  0  0  0  0  0  0
   -7.8876   -6.5807   -8.3934 O   0  0  0  0  0  0  0  0  0  0  0  0
   -9.7677   -8.0903   -8.7004 C   0  0  2  0  0  0  0  0  0  0  0  0
   -9.8275   -7.9197  -10.2302 C   0  0  0  0  0  0  0  0  0  0  0  0
  -11.0407   -6.9958  -10.3966 C   0  0  1  0  0  0  0  0  0  0  0  0
  -12.3157   -7.8067  -10.0892 C   0  0  0  0  0  0  0  0  0  0  0  0
  -12.2878   -7.9412   -8.5551 C   0  0  0  0  0  0  0  0  0  0  0  0
  -10.9625   -7.2394   -8.1876 C   0  0  2  0  0  0  0  0  0  0  0  0
  -10.9169   -6.0917   -9.1770 C   0  0  0  0  0  0  0  0  0  0  0  0
   -9.8366   -9.4667   -8.2835 N   0  0  0  0  0  0  0  0  0  0  0  0
   -8.7288   -9.9228   -7.6902 C   0  0  0  0  0  0  0  0  0  0  0  0
   -8.5153  -11.4688   -7.1315 S   0  0  0  0  0  0  0  0  0  0  0  0
   -3.2318   -7.4994   -5.1156 H   0  0  0  0  0  0  0  0  0  0  0  0
   -4.7758   -6.6418   -5.1002 H   0  0  0  0  0  0  0  0  0  0  0  0
   -4.1858   -7.3924   -6.5778 H   0  0  0  0  0  0  0  0  0  0  0  0
   -4.3967   -9.6656   -5.4992 H   0  0  0  0  0  0  0  0  0  0  0  0
   -4.9603   -8.9123   -4.0382 H   0  0  0  0  0  0  0  0  0  0  0  0
   -6.8969   -9.7453   -5.2109 H   0  0  0  0  0  0  0  0  0  0  0  0
   -6.9655   -8.0083   -5.2796 H   0  0  0  0  0  0  0  0  0  0  0  0
   -5.8887   -8.1221   -7.6249 H   0  0  0  0  0  0  0  0  0  0  0  0
   -6.0024   -9.8536   -7.5314 H   0  0  0  0  0  0  0  0  0  0  0  0
   -8.9290   -7.4290  -10.6147 H   0  0  0  0  0  0  0  0  0  0  0  0
   -9.9204   -8.8747  -10.7518 H   0  0  0  0  0  0  0  0  0  0  0  0
  -11.0545   -6.4797  -11.3563 H   0  0  0  0  0  0  0  0  0  0  0  0
  -13.2039   -7.2639  -10.4061 H   0  0  0  0  0  0  0  0  0  0  0  0
  -12.3092   -8.7769  -10.5893 H   0  0  0  0  0  0  0  0  0  0  0  0
  -13.1331   -7.4245   -8.1037 H   0  0  0  0  0  0  0  0  0  0  0  0
  -12.3375   -8.9764   -8.2160 H   0  0  0  0  0  0  0  0  0  0  0  0
  -10.9154   -6.9424   -7.1419 H   0  0  0  0  0  0  0  0  0  0  0  0
  -10.0196   -5.4861   -9.1372 H   0  0  0  0  0  0  0  0  0  0  0  0
  -11.7100   -5.3971   -9.0653 H   0  0  0  0  0  0  0  0  0  0  0  0
  -10.6497  -10.0425   -8.3754 H   0  0  0  0  0  0  0  0  0  0  0  0
  1  2  1  0
  1 18  1  0
  1 19  1  0
  1 20  1  0
  2  3  1  0
  2 21  1  0
  2 22  1  0
  3  4  1  0
  3 23  1  0
  3 24  1  0
  4  5  1  0
  4 25  1  0
  4 26  1  0
  5 16  1  0
  5  6  1  0
  6  7  2  0
  6  8  1  0
  8 13  1  0
  8  9  1  0
  8 15  1  6
  9 10  1  0
  9 27  1  0
  9 28  1  0
 10 14  1  0
 10 11  1  0
 10 29  1  6
 11 12  1  0
 11 30  1  0
 11 31  1  0
 12 13  1  0
 12 32  1  0
 12 33  1  0
 13 14  1  0
 13 34  1  1
 14 35  1  0
 14 36  1  0
 15 16  1  0
 15 37  1  0
 16 17  2  0
M  END
>  <i_m_ct_stereo_status>  (193) 
1

>  <s_m_source_file>  (193) 
/var/tmp/pbs.5076255.sched01/tmpnszqc94g/84e4epk0lh.sdf

>  <i_m_source_file_index>  (193) 
10

>  <i_lp_mmshare_version>  (193) 
48012

>  <i_f3d_flags>  (193) 
0

>  <s_epik_input>  (193) 
W0NIM11bQ0gyXVtDSDJdW0NIMl1OKEMoPVMpW05IXTEpQyg9TylbQ0BdMTJbQ0BASF0zW0NIMl1bQ0gyXVtDQEhdKFtDSDJdMilbQ0gyXTM=

>  <s_epik_cmdline>  (193) 
J2VwaWtfcHl0aG9uJywgJy1waHQnLCAnMi4wJywgJy1waCcsICc3LjAnLCAnLXRuJywgJzgnLCAnLW1hJywgJzIwMCcsICctaW1hZScsICc8aW5maWxlLm1hZT4nLCAnLW9tYWUnLCAnPG91dGZpbGUubWFlPic=

>  <r_lp_tautomer_probability>  (193) 
1

>  <r_epik_Ionization_Penalty>  (193) 
1.07481e-06

>  <r_epik_Ionization_Penalty_Charging>  (193) 
0

>  <r_epik_Ionization_Penalty_Neutral>  (193) 
1.07481e-06

>  <r_epik_State_Penalty>  (193) 
-0

>  <r_epik_Charging_Adjusted_Penalty>  (193) 
0

>  <i_epik_Tot_Q>  (193) 
0

>  <i_epik_Tot_abs_Q>  (193) 
0

>  <s_lp_Force_Field>  (193) 
OPLS3e

>  <r_lp_Energy>  (193) 
37.4198

>  <b_lp_Chiralities_Consistent>  (193) 
1

>  <s_lp_Variant>  (193) 
63:0-1

>  <s_i_glide_gridfile>  (193) 
pfpi4k_grid

>  <i_i_glide_lignum>  (193) 
10

>  <i_i_glide_rotatable_bonds>  (193) 
3

>  <r_i_docking_score>  (193) 
-4.2041

>  <r_i_glide_ligand_efficiency>  (193) 
-0.2473

>  <r_i_glide_ligand_efficiency_sa>  (193) 
-0.635878

>  <r_i_glide_ligand_efficiency_ln>  (193) 
-1.09676

>  <r_i_glide_gscore>  (193) 
-4.2041

>  <r_i_glide_lipo>  (193) 
-0.73883

>  <r_i_glide_hbond>  (193) 
0

>  <r_i_glide_metal>  (193) 
-0

>  <r_i_glide_rewards>  (193) 
-2.48205

>  <r_i_glide_evdw>  (193) 
-21.3917

>  <r_i_glide_ecoul>  (193) 
-1.2609

>  <r_i_glide_erotb>  (193) 
0.275492

>  <r_i_glide_esite>  (193) 
0

>  <r_i_glide_emodel>  (193) 
-27.1556

>  <r_i_glide_energy>  (193) 
-22.6526

>  <r_i_glide_einternal>  (193) 
1.16005

>  <r_i_glide_intrahb_reward>  (193) 
-0

>  <i_i_glide_confnum>  (193) 
2

>  <i_i_glide_posenum>  (193) 
12

>  <r_i_glide_eff_state_penalty>  (193) 
0

>  <ligand_id>  (193) 
63

>  <original_smiles>  (193) 
CCCCN1C(=O)C2(CC3CCC2C3)NC1=S

>  <smiles>  (193) 
[H]N1C(=S)N(C([H])([H])C([H])([H])C([H])([H])C([H])([H])[H])C(=O)C12C([H])([H])C1([H])C([H])([H])C([H])([H])C2([H])C1([H])[H]

$$$$
65:0:0
     RDKit          3D

 75 79  0  0  1  0  0  0  0  0999 V2000
   -0.9433    1.5484    2.2759 C   0  0  0  0  0  0  0  0  0  0  0  0
   -0.4639    1.7188    3.5200 C   0  0  0  0  0  0  0  0  0  0  0  0
   -1.2971    2.3488    4.6351 C   0  0  1  0  0  0  0  0  0  0  0  0
   -2.6479    2.9453    4.1961 C   0  0  0  0  0  0  0  0  0  0  0  0
   -1.4749    1.3290    5.7733 C   0  0  0  0  0  0  0  0  0  0  0  0
   -0.1535    0.6644    6.2457 C   0  0  1  0  0  0  0  0  0  0  0  0
   -0.5737   -0.2440    7.2244 O   0  0  0  0  0  0  0  0  0  0  0  0
    0.7102    0.0324    5.0725 C   0  0  1  0  0  0  0  0  0  0  0  0
   -0.0914   -0.9335    4.4337 O   0  0  0  0  0  0  0  0  0  0  0  0
    0.8792    1.2091    4.0699 C   0  0  1  0  0  0  0  0  0  0  0  0
    2.1743    1.0134    3.2253 C   0  0  1  0  0  0  0  0  0  0  0  0
    2.0699    1.0101    1.6801 C   0  0  0  0  0  0  0  0  0  0  0  0
    3.0047    2.1528    3.4772 O   0  0  0  0  0  0  0  0  0  0  0  0
    2.8463   -0.2637    3.8453 C   0  0  2  0  0  0  0  0  0  0  0  0
    4.2477   -0.0443    3.9211 O   0  0  0  0  0  0  0  0  0  0  0  0
    2.6599   -1.4933    2.9074 C   0  0  0  0  0  0  0  0  0  0  0  0
    3.1857   -2.8331    3.4156 C   0  0  1  0  0  0  0  0  0  0  0  0
    3.1389   -3.8626    2.2594 C   0  0  0  0  0  0  0  0  0  0  0  0
    4.5836   -2.7788    3.6341 O   0  0  0  0  0  0  0  0  0  0  0  0
    2.4798   -3.2070    4.7825 C   0  0  2  0  0  0  0  0  0  0  0  0
    1.0768   -3.9065    4.6516 C   0  0  1  0  0  0  0  0  0  0  0  0
    1.0152   -5.0532    3.7919 O   0  0  0  0  0  0  0  0  0  0  0  0
    1.6845   -6.2084    4.0394 C   0  0  0  0  0  0  0  0  0  0  0  0
    1.4537   -7.2350    2.9449 C   0  0  0  0  0  0  0  0  0  0  0  0
    2.4358   -6.4362    4.9795 O   0  0  0  0  0  0  0  0  0  0  0  0
    0.4308   -4.2612    5.9806 C   0  0  2  0  0  0  0  0  0  0  0  0
   -0.5689   -3.3628    6.6296 C   0  0  1  0  0  0  0  0  0  0  0  0
   -1.5656   -4.0824    7.3132 O   0  0  0  0  0  0  0  0  0  0  0  0
    0.8097   -3.5023    7.2283 C   0  0  2  0  0  0  0  0  0  0  0  0
    1.8495   -2.3908    7.2332 C   0  0  1  0  0  0  0  0  0  0  0  0
    2.8385   -2.6403    8.4028 C   0  0  0  0  0  0  0  0  0  0  0  0
    2.4924   -2.0067    5.8262 C   0  0  1  0  0  0  0  0  0  0  0  0
    3.8808   -1.9665    6.1127 O   0  0  0  0  0  0  0  0  0  0  0  0
    2.2076   -0.4972    5.2920 C   0  0  2  0  0  0  0  0  0  0  0  0
    2.8553    0.5055    6.3114 C   0  0  0  0  0  0  0  0  0  0  0  0
   -0.4109    1.0713    1.4721 H   0  0  0  0  0  0  0  0  0  0  0  0
   -1.9297    1.9045    2.0169 H   0  0  0  0  0  0  0  0  0  0  0  0
   -0.7140    3.1835    5.0243 H   0  0  0  0  0  0  0  0  0  0  0  0
   -2.5261    3.7141    3.4401 H   0  0  0  0  0  0  0  0  0  0  0  0
   -3.1656    3.3780    5.0462 H   0  0  0  0  0  0  0  0  0  0  0  0
   -3.3106    2.1788    3.7811 H   0  0  0  0  0  0  0  0  0  0  0  0
   -1.9447    1.8202    6.6263 H   0  0  0  0  0  0  0  0  0  0  0  0
   -2.1662    0.5520    5.4471 H   0  0  0  0  0  0  0  0  0  0  0  0
    0.4281    1.4283    6.7605 H   0  0  0  0  0  0  0  0  0  0  0  0
    0.2127   -0.6354    7.5918 H   0  0  0  0  0  0  0  0  0  0  0  0
    0.2529   -1.0889    3.5570 H   0  0  0  0  0  0  0  0  0  0  0  0
    1.1397    2.0688    4.6860 H   0  0  0  0  0  0  0  0  0  0  0  0
    1.4687    0.2009    1.2807 H   0  0  0  0  0  0  0  0  0  0  0  0
    3.0526    0.9225    1.2280 H   0  0  0  0  0  0  0  0  0  0  0  0
    1.6497    1.9469    1.3307 H   0  0  0  0  0  0  0  0  0  0  0  0
    3.7105    2.1833    2.8574 H   0  0  0  0  0  0  0  0  0  0  0  0
    4.5747    0.0796    3.0371 H   0  0  0  0  0  0  0  0  0  0  0  0
    1.6131   -1.6330    2.6696 H   0  0  0  0  0  0  0  0  0  0  0  0
    3.1543   -1.3035    1.9549 H   0  0  0  0  0  0  0  0  0  0  0  0
    2.1434   -3.9609    1.8264 H   0  0  0  0  0  0  0  0  0  0  0  0
    3.4971   -4.8409    2.5733 H   0  0  0  0  0  0  0  0  0  0  0  0
    3.7983   -3.5790    1.4337 H   0  0  0  0  0  0  0  0  0  0  0  0
    5.0188   -2.6335    2.8001 H   0  0  0  0  0  0  0  0  0  0  0  0
    3.1194   -3.9675    5.2283 H   0  0  0  0  0  0  0  0  0  0  0  0
    0.3979   -3.2166    4.1619 H   0  0  0  0  0  0  0  0  0  0  0  0
    0.3882   -7.4031    2.8069 H   0  0  0  0  0  0  0  0  0  0  0  0
    1.9298   -8.1640    3.2439 H   0  0  0  0  0  0  0  0  0  0  0  0
    1.8933   -6.8946    2.0084 H   0  0  0  0  0  0  0  0  0  0  0  0
    0.2554   -5.3228    6.1468 H   0  0  0  0  0  0  0  0  0  0  0  0
   -0.9201   -2.4790    6.1135 H   0  0  0  0  0  0  0  0  0  0  0  0
   -1.2246   -4.9482    7.5426 H   0  0  0  0  0  0  0  0  0  0  0  0
    0.8787   -4.1472    8.1068 H   0  0  0  0  0  0  0  0  0  0  0  0
    1.3406   -1.5172    7.5910 H   0  0  0  0  0  0  0  0  0  0  0  0
    3.4796   -3.5044    8.2335 H   0  0  0  0  0  0  0  0  0  0  0  0
    2.2985   -2.8088    9.3340 H   0  0  0  0  0  0  0  0  0  0  0  0
    3.4755   -1.7729    8.5785 H   0  0  0  0  0  0  0  0  0  0  0  0
    4.3480   -1.8619    5.2842 H   0  0  0  0  0  0  0  0  0  0  0  0
    3.9365    0.4124    6.4037 H   0  0  0  0  0  0  0  0  0  0  0  0
    2.4573    0.3725    7.3169 H   0  0  0  0  0  0  0  0  0  0  0  0
    2.7019    1.5513    6.0511 H   0  0  0  0  0  0  0  0  0  0  0  0
  1  2  2  0
  1 36  1  0
  1 37  1  0
  2 10  1  0
  2  3  1  0
  3  4  1  0
  3  5  1  0
  3 38  1  1
  4 39  1  0
  4 40  1  0
  4 41  1  0
  5  6  1  0
  5 42  1  0
  5 43  1  0
  6  7  1  0
  6  8  1  0
  6 44  1  1
  7 45  1  0
  8 34  1  0
  8  9  1  6
  8 10  1  0
  9 46  1  0
 10 11  1  0
 10 47  1  1
 11 12  1  0
 11 13  1  6
 11 14  1  0
 12 48  1  0
 12 49  1  0
 12 50  1  0
 13 51  1  0
 14 34  1  0
 14 15  1  1
 14 16  1  0
 15 52  1  0
 16 17  1  0
 16 53  1  0
 16 54  1  0
 17 18  1  0
 17 19  1  1
 17 20  1  0
 18 55  1  0
 18 56  1  0
 18 57  1  0
 19 58  1  0
 20 32  1  0
 20 21  1  0
 20 59  1  1
 21 22  1  0
 21 26  1  0
 21 60  1  6
 22 23  1  0
 23 24  1  0
 23 25  2  0
 24 61  1  0
 24 62  1  0
 24 63  1  0
 26 29  1  0
 26 27  1  0
 26 64  1  1
 27 28  1  0
 27 29  1  0
 27 65  1  6
 28 66  1  0
 29 30  1  0
 29 67  1  1
 30 31  1  0
 30 32  1  0
 30 68  1  1
 31 69  1  0
 31 70  1  0
 31 71  1  0
 32 33  1  1
 32 34  1  0
 33 72  1  0
 34 35  1  1
 35 73  1  0
 35 74  1  0
 35 75  1  0
M  END
>  <i_m_ct_stereo_status>  (194) 
1

>  <s_m_source_file>  (194) 
/var/tmp/pbs.5076255.sched01/tmpnszqc94g/84e4epk0lh.sdf

>  <i_m_source_file_index>  (194) 
12

>  <i_lp_mmshare_version>  (194) 
48012

>  <i_f3d_flags>  (194) 
0

>  <s_epik_input>  (194) 
W09IXVtDQEBIXTFbQ0gyXVtDQEhdKFtDSDNdKUMoPVtDSDJdKVtDQEBIXShbQ0BdMTJbT0hdKVtDQEBdKFtDSDNdKShbT0hdKVtDQEBdMyhbT0hdKVtDQF0yKFtDSDNdKVtDQF00KFtPSF0pW0NASF0oW0NAXShbQ0gyXTMpKFtDSDNdKVtPSF0pW0NAQEhdKE9DKD1PKVtDSDNdKVtDQEhdNVtDQEhdKFtDQEBIXTVbT0hdKVtDQEhdNFtDSDNd

>  <s_epik_cmdline>  (194) 
J2VwaWtfcHl0aG9uJywgJy1waHQnLCAnMi4wJywgJy1waCcsICc3LjAnLCAnLXRuJywgJzgnLCAnLW1hJywgJzIwMCcsICctaW1hZScsICc8aW5maWxlLm1hZT4nLCAnLW9tYWUnLCAnPG91dGZpbGUubWFlPic=

>  <r_lp_tautomer_probability>  (194) 
1

>  <r_epik_Ionization_Penalty>  (194) 
2.06681e-06

>  <r_epik_Ionization_Penalty_Charging>  (194) 
0

>  <r_epik_Ionization_Penalty_Neutral>  (194) 
2.06681e-06

>  <r_epik_State_Penalty>  (194) 
-0

>  <r_epik_Charging_Adjusted_Penalty>  (194) 
0

>  <i_epik_Tot_Q>  (194) 
0

>  <i_epik_Tot_abs_Q>  (194) 
0

>  <s_epik_Chemistry_Notes>  (194) 
This compound has an ester and may undergo hydrolysis at high or low pH.

>  <s_lp_Force_Field>  (194) 
OPLS3e

>  <r_lp_Energy>  (194) 
88.8105

>  <b_lp_Chiralities_Consistent>  (194) 
1

>  <s_lp_Variant>  (194) 
65:0-1

>  <s_i_glide_gridfile>  (194) 
pfpi4k_grid

>  <i_i_glide_lignum>  (194) 
12

>  <i_i_glide_rotatable_bonds>  (194) 
9

>  <r_i_docking_score>  (194) 
-3.03156

>  <r_i_glide_ligand_efficiency>  (194) 
-0.086616

>  <r_i_glide_ligand_efficiency_sa>  (194) 
-0.283327

>  <r_i_glide_ligand_efficiency_ln>  (194) 
-0.665494

>  <r_i_glide_gscore>  (194) 
-3.03156

>  <r_i_glide_lipo>  (194) 
-0.010287

>  <r_i_glide_hbond>  (194) 
0

>  <r_i_glide_metal>  (194) 
-0

>  <r_i_glide_rewards>  (194) 
-0.523247

>  <r_i_glide_evdw>  (194) 
-27.2763

>  <r_i_glide_ecoul>  (194) 
-8.07636

>  <r_i_glide_erotb>  (194) 
0.0826973

>  <r_i_glide_esite>  (194) 
-0.00545397

>  <r_i_glide_emodel>  (194) 
-45.1017

>  <r_i_glide_energy>  (194) 
-35.3526

>  <r_i_glide_einternal>  (194) 
4.10042

>  <r_i_glide_intrahb_reward>  (194) 
-0.5

>  <i_i_glide_confnum>  (194) 
2

>  <i_i_glide_posenum>  (194) 
35

>  <r_i_glide_eff_state_penalty>  (194) 
0

>  <ligand_id>  (194) 
65

>  <original_smiles>  (194) 
C=C1C(C)CC(O)C2(O)C1C(C)(O)C1(O)CC(C)(O)C3C(OC(C)=O)C4C(O)C4C(C)C3(O)C21C

>  <smiles>  (194) 
[H]OC1([H])C2([H])C([H])(OC(=O)C([H])([H])[H])C3([H])C(O[H])(C([H])([H])[H])C([H])([H])C4(O[H])C(O[H])(C([H])([H])[H])C5([H])C(=C([H])[H])C([H])(C([H])([H])[H])C([H])([H])C([H])(O[H])C5(O[H])C4(C([H])([H])[H])C3(O[H])C([H])(C([H])([H])[H])C12[H]

$$$$
65:0:1
     RDKit          3D

 75 79  0  0  1  0  0  0  0  0999 V2000
   -0.8117   -6.2849    5.2672 C   0  0  0  0  0  0  0  0  0  0  0  0
    0.0709   -6.9836    4.5386 C   0  0  0  0  0  0  0  0  0  0  0  0
   -0.3348   -7.9222    3.3954 C   0  0  1  0  0  0  0  0  0  0  0  0
   -1.8393   -8.1415    3.2335 C   0  0  0  0  0  0  0  0  0  0  0  0
    0.2919   -7.4200    2.0901 C   0  0  0  0  0  0  0  0  0  0  0  0
    1.8136   -7.1161    2.1813 C   0  0  1  0  0  0  0  0  0  0  0  0
    2.0681   -6.5342    0.9313 O   0  0  0  0  0  0  0  0  0  0  0  0
    2.2238   -6.1892    3.3903 C   0  0  1  0  0  0  0  0  0  0  0  0
    1.5234   -4.9818    3.2754 O   0  0  0  0  0  0  0  0  0  0  0  0
    1.6057   -6.8911    4.6181 C   0  0  1  0  0  0  0  0  0  0  0  0
    2.3924   -6.4980    5.8953 C   0  0  1  0  0  0  0  0  0  0  0  0
    1.6634   -5.8773    7.1005 C   0  0  0  0  0  0  0  0  0  0  0  0
    2.8666   -7.7286    6.4138 O   0  0  0  0  0  0  0  0  0  0  0  0
    3.6031   -5.6468    5.3520 C   0  0  2  0  0  0  0  0  0  0  0  0
    4.7352   -6.0560    6.1060 O   0  0  0  0  0  0  0  0  0  0  0  0
    3.3988   -4.1265    5.6559 C   0  0  0  0  0  0  0  0  0  0  0  0
    4.4458   -3.1488    5.1080 C   0  0  1  0  0  0  0  0  0  0  0  0
    4.1884   -1.7273    5.6658 C   0  0  0  0  0  0  0  0  0  0  0  0
    5.7105   -3.3683    5.7000 O   0  0  0  0  0  0  0  0  0  0  0  0
    4.5271   -3.2741    3.5489 C   0  0  2  0  0  0  0  0  0  0  0  0
    3.4244   -2.4900    2.7681 C   0  0  1  0  0  0  0  0  0  0  0  0
    3.3885   -1.0956    3.0305 O   0  0  0  0  0  0  0  0  0  0  0  0
    2.1999   -0.4397    3.0292 C   0  0  0  0  0  0  0  0  0  0  0  0
    2.3318    1.0349    3.3618 C   0  0  0  0  0  0  0  0  0  0  0  0
    1.0953   -0.9525    2.8103 O   0  0  0  0  0  0  0  0  0  0  0  0
    3.6392   -2.5849    1.2814 C   0  0  2  0  0  0  0  0  0  0  0  0
    2.8100   -3.5183    0.4629 C   0  0  1  0  0  0  0  0  0  0  0  0
    2.6054   -2.9310   -0.7966 O   0  0  0  0  0  0  0  0  0  0  0  0
    4.2615   -3.8066    0.6614 C   0  0  2  0  0  0  0  0  0  0  0  0
    4.8267   -4.9419    1.4967 C   0  0  1  0  0  0  0  0  0  0  0  0
    6.2442   -5.2839    0.9703 C   0  0  0  0  0  0  0  0  0  0  0  0
    4.6573   -4.7887    3.0810 C   0  0  1  0  0  0  0  0  0  0  0  0
    5.9545   -5.0567    3.5813 O   0  0  0  0  0  0  0  0  0  0  0  0
    3.7529   -5.9412    3.7941 C   0  0  2  0  0  0  0  0  0  0  0  0
    4.4795   -7.3242    3.5861 C   0  0  0  0  0  0  0  0  0  0  0  0
   -0.5383   -5.5720    6.0217 H   0  0  0  0  0  0  0  0  0  0  0  0
   -1.8721   -6.4195    5.1074 H   0  0  0  0  0  0  0  0  0  0  0  0
    0.0990   -8.8961    3.6269 H   0  0  0  0  0  0  0  0  0  0  0  0
   -2.2606   -8.5641    4.1436 H   0  0  0  0  0  0  0  0  0  0  0  0
   -2.0407   -8.8479    2.4326 H   0  0  0  0  0  0  0  0  0  0  0  0
   -2.3670   -7.2185    2.9995 H   0  0  0  0  0  0  0  0  0  0  0  0
    0.1251   -8.1560    1.3056 H   0  0  0  0  0  0  0  0  0  0  0  0
   -0.2184   -6.5142    1.7713 H   0  0  0  0  0  0  0  0  0  0  0  0
    2.3254   -8.0823    2.2305 H   0  0  0  0  0  0  0  0  0  0  0  0
    3.0047   -6.5796    0.7662 H   0  0  0  0  0  0  0  0  0  0  0  0
    1.8910   -4.5291    2.5272 H   0  0  0  0  0  0  0  0  0  0  0  0
    1.8461   -7.9486    4.4743 H   0  0  0  0  0  0  0  0  0  0  0  0
    1.2158   -4.9029    6.9038 H   0  0  0  0  0  0  0  0  0  0  0  0
    2.3537   -5.7230    7.9361 H   0  0  0  0  0  0  0  0  0  0  0  0
    0.8770   -6.5365    7.4765 H   0  0  0  0  0  0  0  0  0  0  0  0
    2.1362   -8.2288    6.7434 H   0  0  0  0  0  0  0  0  0  0  0  0
    5.5118   -5.6706    5.7237 H   0  0  0  0  0  0  0  0  0  0  0  0
    2.4284   -3.7915    5.3132 H   0  0  0  0  0  0  0  0  0  0  0  0
    3.4027   -3.9910    6.7326 H   0  0  0  0  0  0  0  0  0  0  0  0
    3.1569   -1.3954    5.5361 H   0  0  0  0  0  0  0  0  0  0  0  0
    4.8624   -1.0042    5.2076 H   0  0  0  0  0  0  0  0  0  0  0  0
    4.3801   -1.7013    6.7434 H   0  0  0  0  0  0  0  0  0  0  0  0
    6.1757   -4.0004    5.1439 H   0  0  0  0  0  0  0  0  0  0  0  0
    5.4435   -2.7607    3.2564 H   0  0  0  0  0  0  0  0  0  0  0  0
    2.4550   -2.9056    3.0102 H   0  0  0  0  0  0  0  0  0  0  0  0
    2.8777    1.1520    4.2983 H   0  0  0  0  0  0  0  0  0  0  0  0
    1.3560    1.5057    3.4646 H   0  0  0  0  0  0  0  0  0  0  0  0
    2.8859    1.5399    2.5708 H   0  0  0  0  0  0  0  0  0  0  0  0
    3.8780   -1.6340    0.7925 H   0  0  0  0  0  0  0  0  0  0  0  0
    2.0100   -4.0791    0.9317 H   0  0  0  0  0  0  0  0  0  0  0  0
    1.9151   -2.2889   -0.7311 H   0  0  0  0  0  0  0  0  0  0  0  0
    4.8553   -3.5981   -0.2229 H   0  0  0  0  0  0  0  0  0  0  0  0
    4.2904   -5.8299    1.1792 H   0  0  0  0  0  0  0  0  0  0  0  0
    6.9548   -4.4910    1.1644 H   0  0  0  0  0  0  0  0  0  0  0  0
    6.2110   -5.4322   -0.1095 H   0  0  0  0  0  0  0  0  0  0  0  0
    6.6208   -6.2100    1.3854 H   0  0  0  0  0  0  0  0  0  0  0  0
    6.2083   -5.9160    3.2484 H   0  0  0  0  0  0  0  0  0  0  0  0
    5.4681   -7.3947    4.0416 H   0  0  0  0  0  0  0  0  0  0  0  0
    4.6038   -7.5651    2.5327 H   0  0  0  0  0  0  0  0  0  0  0  0
    3.9293   -8.1513    4.0299 H   0  0  0  0  0  0  0  0  0  0  0  0
  1  2  2  0
  1 36  1  0
  1 37  1  0
  2 10  1  0
  2  3  1  0
  3  4  1  0
  3  5  1  0
  3 38  1  1
  4 39  1  0
  4 40  1  0
  4 41  1  0
  5  6  1  0
  5 42  1  0
  5 43  1  0
  6  7  1  0
  6  8  1  0
  6 44  1  6
  7 45  1  0
  8 34  1  0
  8  9  1  6
  8 10  1  0
  9 46  1  0
 10 11  1  0
 10 47  1  6
 11 12  1  0
 11 13  1  1
 11 14  1  0
 12 48  1  0
 12 49  1  0
 12 50  1  0
 13 51  1  0
 14 34  1  0
 14 15  1  1
 14 16  1  0
 15 52  1  0
 16 17  1  0
 16 53  1  0
 16 54  1  0
 17 18  1  0
 17 19  1  1
 17 20  1  0
 18 55  1  0
 18 56  1  0
 18 57  1  0
 19 58  1  0
 20 32  1  0
 20 21  1  0
 20 59  1  6
 21 22  1  0
 21 26  1  0
 21 60  1  6
 22 23  1  0
 23 24  1  0
 23 25  2  0
 24 61  1  0
 24 62  1  0
 24 63  1  0
 26 29  1  0
 26 27  1  0
 26 64  1  6
 27 28  1  0
 27 29  1  0
 27 65  1  1
 28 66  1  0
 29 30  1  0
 29 67  1  6
 30 31  1  0
 30 32  1  0
 30 68  1  6
 31 69  1  0
 31 70  1  0
 31 71  1  0
 32 33  1  1
 32 34  1  0
 33 72  1  0
 34 35  1  1
 35 73  1  0
 35 74  1  0
 35 75  1  0
M  END
>  <i_m_ct_stereo_status>  (195) 
1

>  <s_m_source_file>  (195) 
/var/tmp/pbs.5076255.sched01/tmpnszqc94g/84e4epk0lh.sdf

>  <i_m_source_file_index>  (195) 
12

>  <i_lp_mmshare_version>  (195) 
48012

>  <i_f3d_flags>  (195) 
0

>  <s_epik_input>  (195) 
W09IXVtDQEBIXTFbQ0gyXVtDQEhdKFtDSDNdKUMoPVtDSDJdKVtDQEBIXShbQ0BdMTJbT0hdKVtDQEBdKFtDSDNdKShbT0hdKVtDQEBdMyhbT0hdKVtDQF0yKFtDSDNdKVtDQF00KFtPSF0pW0NASF0oW0NAXShbQ0gyXTMpKFtDSDNdKVtPSF0pW0NAQEhdKE9DKD1PKVtDSDNdKVtDQEhdNVtDQEhdKFtDQEBIXTVbT0hdKVtDQEhdNFtDSDNd

>  <s_epik_cmdline>  (195) 
J2VwaWtfcHl0aG9uJywgJy1waHQnLCAnMi4wJywgJy1waCcsICc3LjAnLCAnLXRuJywgJzgnLCAnLW1hJywgJzIwMCcsICctaW1hZScsICc8aW5maWxlLm1hZT4nLCAnLW9tYWUnLCAnPG91dGZpbGUubWFlPic=

>  <r_lp_tautomer_probability>  (195) 
1

>  <r_epik_Ionization_Penalty>  (195) 
2.06681e-06

>  <r_epik_Ionization_Penalty_Charging>  (195) 
0

>  <r_epik_Ionization_Penalty_Neutral>  (195) 
2.06681e-06

>  <r_epik_State_Penalty>  (195) 
-0

>  <r_epik_Charging_Adjusted_Penalty>  (195) 
0

>  <i_epik_Tot_Q>  (195) 
0

>  <i_epik_Tot_abs_Q>  (195) 
0

>  <s_epik_Chemistry_Notes>  (195) 
This compound has an ester and may undergo hydrolysis at high or low pH.

>  <s_lp_Force_Field>  (195) 
OPLS3e

>  <r_lp_Energy>  (195) 
88.8105

>  <b_lp_Chiralities_Consistent>  (195) 
1

>  <s_lp_Variant>  (195) 
65:0-1

>  <s_i_glide_gridfile>  (195) 
pfpi4k_grid

>  <i_i_glide_lignum>  (195) 
12

>  <i_i_glide_rotatable_bonds>  (195) 
9

>  <r_i_docking_score>  (195) 
-3.00724

>  <r_i_glide_ligand_efficiency>  (195) 
-0.0859212

>  <r_i_glide_ligand_efficiency_sa>  (195) 
-0.281054

>  <r_i_glide_ligand_efficiency_ln>  (195) 
-0.660157

>  <r_i_glide_gscore>  (195) 
-3.00724

>  <r_i_glide_lipo>  (195) 
-0.194247

>  <r_i_glide_hbond>  (195) 
-0.16

>  <r_i_glide_metal>  (195) 
-0

>  <r_i_glide_rewards>  (195) 
-1.02325

>  <r_i_glide_evdw>  (195) 
-26.2247

>  <r_i_glide_ecoul>  (195) 
-2.61482

>  <r_i_glide_erotb>  (195) 
0.0826973

>  <r_i_glide_esite>  (195) 
-0.0089903

>  <r_i_glide_emodel>  (195) 
-44.8952

>  <r_i_glide_energy>  (195) 
-28.8395

>  <r_i_glide_einternal>  (195) 
0.873774

>  <r_i_glide_intrahb_reward>  (195) 
-1

>  <i_i_glide_confnum>  (195) 
1

>  <i_i_glide_posenum>  (195) 
6

>  <r_i_glide_eff_state_penalty>  (195) 
0

>  <ligand_id>  (195) 
65

>  <original_smiles>  (195) 
C=C1C(C)CC(O)C2(O)C1C(C)(O)C1(O)CC(C)(O)C3C(OC(C)=O)C4C(O)C4C(C)C3(O)C21C

>  <smiles>  (195) 
[H]OC1([H])C2([H])C([H])(OC(=O)C([H])([H])[H])C3([H])C(O[H])(C([H])([H])[H])C([H])([H])C4(O[H])C(O[H])(C([H])([H])[H])C5([H])C(=C([H])[H])C([H])(C([H])([H])[H])C([H])([H])C([H])(O[H])C5(O[H])C4(C([H])([H])[H])C3(O[H])C([H])(C([H])([H])[H])C12[H]

$$$$
65:0:2
     RDKit          3D

 75 79  0  0  1  0  0  0  0  0999 V2000
   -0.7986   -6.2881    5.2661 C   0  0  0  0  0  0  0  0  0  0  0  0
    0.0913   -6.9763    4.5368 C   0  0  0  0  0  0  0  0  0  0  0  0
   -0.3154   -7.9162    3.3931 C   0  0  1  0  0  0  0  0  0  0  0  0
   -1.8249   -8.1382    3.2225 C   0  0  0  0  0  0  0  0  0  0  0  0
    0.3165   -7.4172    2.0867 C   0  0  0  0  0  0  0  0  0  0  0  0
    1.8324   -7.1169    2.1788 C   0  0  1  0  0  0  0  0  0  0  0  0
    2.0924   -6.5408    0.9329 O   0  0  0  0  0  0  0  0  0  0  0  0
    2.2357   -6.1907    3.3950 C   0  0  1  0  0  0  0  0  0  0  0  0
    1.5367   -4.9845    3.2761 O   0  0  0  0  0  0  0  0  0  0  0  0
    1.6259   -6.8860    4.6286 C   0  0  1  0  0  0  0  0  0  0  0  0
    2.4425   -6.4749    5.8824 C   0  0  1  0  0  0  0  0  0  0  0  0
    1.6795   -5.8728    7.0992 C   0  0  0  0  0  0  0  0  0  0  0  0
    2.9669   -7.6818    6.4056 O   0  0  0  0  0  0  0  0  0  0  0  0
    3.6394   -5.6179    5.3303 C   0  0  2  0  0  0  0  0  0  0  0  0
    4.8331   -5.9762    6.0020 O   0  0  0  0  0  0  0  0  0  0  0  0
    3.4314   -4.1054    5.6474 C   0  0  0  0  0  0  0  0  0  0  0  0
    4.4682   -3.1234    5.0982 C   0  0  1  0  0  0  0  0  0  0  0  0
    4.1870   -1.7151    5.6627 C   0  0  0  0  0  0  0  0  0  0  0  0
    5.7372   -3.2695    5.7203 O   0  0  0  0  0  0  0  0  0  0  0  0
    4.5366   -3.2604    3.5341 C   0  0  2  0  0  0  0  0  0  0  0  0
    3.4358   -2.4887    2.7619 C   0  0  1  0  0  0  0  0  0  0  0  0
    3.3900   -1.0838    3.0239 O   0  0  0  0  0  0  0  0  0  0  0  0
    2.2000   -0.4444    3.0468 C   0  0  0  0  0  0  0  0  0  0  0  0
    2.3390    1.0447    3.3253 C   0  0  0  0  0  0  0  0  0  0  0  0
    1.0946   -0.9679    2.8836 O   0  0  0  0  0  0  0  0  0  0  0  0
    3.6379   -2.5800    1.2644 C   0  0  2  0  0  0  0  0  0  0  0  0
    2.8063   -3.5494    0.4824 C   0  0  1  0  0  0  0  0  0  0  0  0
    2.5331   -3.1364   -0.8222 O   0  0  0  0  0  0  0  0  0  0  0  0
    4.2666   -3.8022    0.6473 C   0  0  2  0  0  0  0  0  0  0  0  0
    4.8377   -4.9385    1.4779 C   0  0  1  0  0  0  0  0  0  0  0  0
    6.2602   -5.2781    0.9423 C   0  0  0  0  0  0  0  0  0  0  0  0
    4.6644   -4.7844    3.0507 C   0  0  1  0  0  0  0  0  0  0  0  0
    5.9687   -5.0676    3.4987 O   0  0  0  0  0  0  0  0  0  0  0  0
    3.7629   -5.9321    3.7797 C   0  0  2  0  0  0  0  0  0  0  0  0
    4.4941   -7.3161    3.5892 C   0  0  0  0  0  0  0  0  0  0  0  0
   -0.5361   -5.5749    6.0221 H   0  0  0  0  0  0  0  0  0  0  0  0
   -1.8579   -6.4239    5.1009 H   0  0  0  0  0  0  0  0  0  0  0  0
    0.1109   -8.8948    3.6213 H   0  0  0  0  0  0  0  0  0  0  0  0
   -2.2544   -8.5622    4.1290 H   0  0  0  0  0  0  0  0  0  0  0  0
   -2.0238   -8.8488    2.4201 H   0  0  0  0  0  0  0  0  0  0  0  0
   -2.3536   -7.2167    2.9810 H   0  0  0  0  0  0  0  0  0  0  0  0
    0.1467   -8.1578    1.3023 H   0  0  0  0  0  0  0  0  0  0  0  0
   -0.2014   -6.5165    1.7593 H   0  0  0  0  0  0  0  0  0  0  0  0
    2.3446   -8.0841    2.2346 H   0  0  0  0  0  0  0  0  0  0  0  0
    3.0366   -6.5778    0.7771 H   0  0  0  0  0  0  0  0  0  0  0  0
    1.9102   -4.5321    2.5221 H   0  0  0  0  0  0  0  0  0  0  0  0
    1.8654   -7.9404    4.4887 H   0  0  0  0  0  0  0  0  0  0  0  0
    1.2213   -4.9045    6.8939 H   0  0  0  0  0  0  0  0  0  0  0  0
    2.3505   -5.7141    7.9431 H   0  0  0  0  0  0  0  0  0  0  0  0
    0.8929   -6.5338    7.4609 H   0  0  0  0  0  0  0  0  0  0  0  0
    2.2291   -8.2042    6.7114 H   0  0  0  0  0  0  0  0  0  0  0  0
    4.8101   -6.9439    6.0526 H   0  0  0  0  0  0  0  0  0  0  0  0
    2.4461   -3.7961    5.2972 H   0  0  0  0  0  0  0  0  0  0  0  0
    3.4120   -3.9816    6.7310 H   0  0  0  0  0  0  0  0  0  0  0  0
    3.1531   -1.3928    5.5359 H   0  0  0  0  0  0  0  0  0  0  0  0
    4.8596   -0.9883    5.2120 H   0  0  0  0  0  0  0  0  0  0  0  0
    4.3773   -1.6935    6.7408 H   0  0  0  0  0  0  0  0  0  0  0  0
    5.9601   -4.2017    5.7811 H   0  0  0  0  0  0  0  0  0  0  0  0
    5.4565   -2.7476    3.2501 H   0  0  0  0  0  0  0  0  0  0  0  0
    2.4691   -2.9045    3.0034 H   0  0  0  0  0  0  0  0  0  0  0  0
    2.9302    1.1956    4.2276 H   0  0  0  0  0  0  0  0  0  0  0  0
    1.3636    1.5133    3.4566 H   0  0  0  0  0  0  0  0  0  0  0  0
    2.8508    1.5168    2.4886 H   0  0  0  0  0  0  0  0  0  0  0  0
    3.8889   -1.6368    0.7838 H   0  0  0  0  0  0  0  0  0  0  0  0
    2.0278   -4.1128    0.9712 H   0  0  0  0  0  0  0  0  0  0  0  0
    2.0031   -2.3478   -0.7467 H   0  0  0  0  0  0  0  0  0  0  0  0
    4.8710   -3.5787   -0.2295 H   0  0  0  0  0  0  0  0  0  0  0  0
    4.3039   -5.8260    1.1686 H   0  0  0  0  0  0  0  0  0  0  0  0
    6.9799   -4.4877    1.1569 H   0  0  0  0  0  0  0  0  0  0  0  0
    6.2365   -5.4388   -0.1337 H   0  0  0  0  0  0  0  0  0  0  0  0
    6.6339   -6.2024    1.3815 H   0  0  0  0  0  0  0  0  0  0  0  0
    5.9031   -5.3455    4.4092 H   0  0  0  0  0  0  0  0  0  0  0  0
    5.4913   -7.3795    4.0301 H   0  0  0  0  0  0  0  0  0  0  0  0
    4.6160   -7.5568    2.5359 H   0  0  0  0  0  0  0  0  0  0  0  0
    3.9480   -8.1438    4.0346 H   0  0  0  0  0  0  0  0  0  0  0  0
  1  2  2  0
  1 36  1  0
  1 37  1  0
  2 10  1  0
  2  3  1  0
  3  4  1  0
  3  5  1  0
  3 38  1  1
  4 39  1  0
  4 40  1  0
  4 41  1  0
  5  6  1  0
  5 42  1  0
  5 43  1  0
  6  7  1  0
  6  8  1  0
  6 44  1  1
  7 45  1  0
  8 34  1  0
  8  9  1  6
  8 10  1  0
  9 46  1  0
 10 11  1  0
 10 47  1  6
 11 12  1  0
 11 13  1  1
 11 14  1  0
 12 48  1  0
 12 49  1  0
 12 50  1  0
 13 51  1  0
 14 34  1  0
 14 15  1  1
 14 16  1  0
 15 52  1  0
 16 17  1  0
 16 53  1  0
 16 54  1  0
 17 18  1  0
 17 19  1  1
 17 20  1  0
 18 55  1  0
 18 56  1  0
 18 57  1  0
 19 58  1  0
 20 32  1  0
 20 21  1  0
 20 59  1  6
 21 22  1  0
 21 26  1  0
 21 60  1  6
 22 23  1  0
 23 24  1  0
 23 25  2  0
 24 61  1  0
 24 62  1  0
 24 63  1  0
 26 29  1  0
 26 27  1  0
 26 64  1  6
 27 28  1  0
 27 29  1  0
 27 65  1  1
 28 66  1  0
 29 30  1  0
 29 67  1  6
 30 31  1  0
 30 32  1  0
 30 68  1  6
 31 69  1  0
 31 70  1  0
 31 71  1  0
 32 33  1  1
 32 34  1  0
 33 72  1  0
 34 35  1  1
 35 73  1  0
 35 74  1  0
 35 75  1  0
M  END
>  <i_m_ct_stereo_status>  (196) 
1

>  <s_m_source_file>  (196) 
/var/tmp/pbs.5076255.sched01/tmpnszqc94g/84e4epk0lh.sdf

>  <i_m_source_file_index>  (196) 
12

>  <i_lp_mmshare_version>  (196) 
48012

>  <i_f3d_flags>  (196) 
0

>  <s_epik_input>  (196) 
W09IXVtDQEBIXTFbQ0gyXVtDQEhdKFtDSDNdKUMoPVtDSDJdKVtDQEBIXShbQ0BdMTJbT0hdKVtDQEBdKFtDSDNdKShbT0hdKVtDQEBdMyhbT0hdKVtDQF0yKFtDSDNdKVtDQF00KFtPSF0pW0NASF0oW0NAXShbQ0gyXTMpKFtDSDNdKVtPSF0pW0NAQEhdKE9DKD1PKVtDSDNdKVtDQEhdNVtDQEhdKFtDQEBIXTVbT0hdKVtDQEhdNFtDSDNd

>  <s_epik_cmdline>  (196) 
J2VwaWtfcHl0aG9uJywgJy1waHQnLCAnMi4wJywgJy1waCcsICc3LjAnLCAnLXRuJywgJzgnLCAnLW1hJywgJzIwMCcsICctaW1hZScsICc8aW5maWxlLm1hZT4nLCAnLW9tYWUnLCAnPG91dGZpbGUubWFlPic=

>  <r_lp_tautomer_probability>  (196) 
1

>  <r_epik_Ionization_Penalty>  (196) 
2.06681e-06

>  <r_epik_Ionization_Penalty_Charging>  (196) 
0

>  <r_epik_Ionization_Penalty_Neutral>  (196) 
2.06681e-06

>  <r_epik_State_Penalty>  (196) 
-0

>  <r_epik_Charging_Adjusted_Penalty>  (196) 
0

>  <i_epik_Tot_Q>  (196) 
0

>  <i_epik_Tot_abs_Q>  (196) 
0

>  <s_epik_Chemistry_Notes>  (196) 
This compound has an ester and may undergo hydrolysis at high or low pH.

>  <s_lp_Force_Field>  (196) 
OPLS3e

>  <r_lp_Energy>  (196) 
88.8105

>  <b_lp_Chiralities_Consistent>  (196) 
1

>  <s_lp_Variant>  (196) 
65:0-1

>  <s_i_glide_gridfile>  (196) 
pfpi4k_grid

>  <i_i_glide_lignum>  (196) 
12

>  <i_i_glide_rotatable_bonds>  (196) 
9

>  <r_i_docking_score>  (196) 
-2.50246

>  <r_i_glide_ligand_efficiency>  (196) 
-0.0714988

>  <r_i_glide_ligand_efficiency_sa>  (196) 
-0.233877

>  <r_i_glide_ligand_efficiency_ln>  (196) 
-0.549345

>  <r_i_glide_gscore>  (196) 
-2.50246

>  <r_i_glide_lipo>  (196) 
-0.198059

>  <r_i_glide_hbond>  (196) 
-0.16

>  <r_i_glide_metal>  (196) 
-0

>  <r_i_glide_rewards>  (196) 
-0.523247

>  <r_i_glide_evdw>  (196) 
-26.8761

>  <r_i_glide_ecoul>  (196) 
-2.34307

>  <r_i_glide_erotb>  (196) 
0.0826973

>  <r_i_glide_esite>  (196) 
-0.00858377

>  <r_i_glide_emodel>  (196) 
-38.2505

>  <r_i_glide_energy>  (196) 
-29.2192

>  <r_i_glide_einternal>  (196) 
0.946849

>  <r_i_glide_intrahb_reward>  (196) 
-0.5

>  <i_i_glide_confnum>  (196) 
1

>  <i_i_glide_posenum>  (196) 
3

>  <r_i_glide_eff_state_penalty>  (196) 
0

>  <ligand_id>  (196) 
65

>  <original_smiles>  (196) 
C=C1C(C)CC(O)C2(O)C1C(C)(O)C1(O)CC(C)(O)C3C(OC(C)=O)C4C(O)C4C(C)C3(O)C21C

>  <smiles>  (196) 
[H]OC1([H])C2([H])C([H])(OC(=O)C([H])([H])[H])C3([H])C(O[H])(C([H])([H])[H])C([H])([H])C4(O[H])C(O[H])(C([H])([H])[H])C5([H])C(=C([H])[H])C([H])(C([H])([H])[H])C([H])([H])C([H])(O[H])C5(O[H])C4(C([H])([H])[H])C3(O[H])C([H])(C([H])([H])[H])C12[H]

$$$$
66:0:0
     RDKit          3D

 65 69  0  0  1  0  0  0  0  0999 V2000
    6.6406   -2.4965    0.8850 C   0  0  0  0  0  0  0  0  0  0  0  0
    5.1114   -2.2596    0.7831 C   0  0  1  0  0  0  0  0  0  0  0  0
    4.8613   -1.1386   -0.2725 C   0  0  0  0  0  0  0  0  0  0  0  0
    5.2157   -1.5254   -1.7245 C   0  0  0  0  0  0  0  0  0  0  0  0
    4.6421   -2.8822   -2.1152 C   0  0  0  0  0  0  0  0  0  0  0  0
    4.0963   -3.0578   -3.2046 O   0  0  0  0  0  0  0  0  0  0  0  0
    4.8686   -4.0134   -1.1213 C   0  0  0  0  0  0  0  0  0  0  0  0
    4.4738   -3.5682    0.2794 C   0  0  0  0  0  0  0  0  0  0  0  0
    3.5850   -4.2693    1.0043 C   0  0  0  0  0  0  0  0  0  0  0  0
    3.0730   -3.8518    2.3673 C   0  0  0  0  0  0  0  0  0  0  0  0
    3.1337   -2.3132    2.6037 C   0  0  2  0  0  0  0  0  0  0  0  0
    2.0987   -1.6618    1.6682 C   0  0  0  0  0  0  0  0  0  0  0  0
    4.5874   -1.8778    2.2250 C   0  0  2  0  0  0  0  0  0  0  0  0
    4.8611   -0.4174    2.6390 C   0  0  0  0  0  0  0  0  0  0  0  0
    4.6713   -0.2674    4.1521 C   0  0  1  0  0  0  0  0  0  0  0  0
    5.2601    0.9290    4.6235 O   0  0  0  0  0  0  0  0  0  0  0  0
    3.2063   -0.5327    4.6360 C   0  0  1  0  0  0  0  0  0  0  0  0
    3.3113   -0.5419    6.1893 C   0  0  0  0  0  0  0  0  0  0  0  0
    2.1256    0.5313    4.2570 C   0  0  0  0  0  0  0  0  0  0  0  0
    2.3776    1.8482    4.0951 C   0  0  0  0  0  0  0  0  0  0  0  0
    1.3442    2.9395    3.8604 C   0  0  1  0  0  0  0  0  0  0  0  0
    1.8102    3.8574    2.8849 O   0  0  0  0  0  0  0  0  0  0  0  0
   -0.0853    2.4190    3.6032 C   0  0  1  0  0  0  0  0  0  0  0  0
   -0.2574    2.0633    2.2382 O   0  0  0  0  0  0  0  0  0  0  0  0
   -0.3401    1.1640    4.4739 C   0  0  1  0  0  0  0  0  0  0  0  0
   -1.6785    0.7343    4.3231 O   0  0  0  0  0  0  0  0  0  0  0  0
    0.6701    0.0332    4.1497 C   0  0  2  0  0  0  0  0  0  0  0  0
    0.4043   -1.2630    4.9419 C   0  0  0  0  0  0  0  0  0  0  0  0
    1.3972   -2.3754    4.5901 C   0  0  0  0  0  0  0  0  0  0  0  0
    1.0605   -3.5525    4.7057 O   0  0  0  0  0  0  0  0  0  0  0  0
    2.8216   -1.9758    4.1275 C   0  0  1  0  0  0  0  0  0  0  0  0
    7.1600   -1.6151    1.2619 H   0  0  0  0  0  0  0  0  0  0  0  0
    7.1033   -2.7512   -0.0681 H   0  0  0  0  0  0  0  0  0  0  0  0
    6.8619   -3.3198    1.5685 H   0  0  0  0  0  0  0  0  0  0  0  0
    3.8205   -0.8244   -0.2647 H   0  0  0  0  0  0  0  0  0  0  0  0
    5.4381   -0.2513   -0.0096 H   0  0  0  0  0  0  0  0  0  0  0  0
    4.8649   -0.7607   -2.4167 H   0  0  0  0  0  0  0  0  0  0  0  0
    6.2950   -1.5944   -1.8481 H   0  0  0  0  0  0  0  0  0  0  0  0
    4.2879   -4.8841   -1.4152 H   0  0  0  0  0  0  0  0  0  0  0  0
    5.9155   -4.3018   -1.1451 H   0  0  0  0  0  0  0  0  0  0  0  0
    3.1776   -5.1905    0.6064 H   0  0  0  0  0  0  0  0  0  0  0  0
    2.0482   -4.2155    2.4436 H   0  0  0  0  0  0  0  0  0  0  0  0
    3.6585   -4.3843    3.1188 H   0  0  0  0  0  0  0  0  0  0  0  0
    2.1613   -0.5739    1.6502 H   0  0  0  0  0  0  0  0  0  0  0  0
    1.0766   -1.9518    1.9130 H   0  0  0  0  0  0  0  0  0  0  0  0
    2.2288   -1.9960    0.6408 H   0  0  0  0  0  0  0  0  0  0  0  0
    5.2052   -2.4802    2.8904 H   0  0  0  0  0  0  0  0  0  0  0  0
    5.8890   -0.1581    2.3841 H   0  0  0  0  0  0  0  0  0  0  0  0
    4.2180    0.2800    2.0987 H   0  0  0  0  0  0  0  0  0  0  0  0
    5.2937   -1.0429    4.6039 H   0  0  0  0  0  0  0  0  0  0  0  0
    4.8788    1.6553    4.1515 H   0  0  0  0  0  0  0  0  0  0  0  0
    4.0403   -1.2739    6.5430 H   0  0  0  0  0  0  0  0  0  0  0  0
    2.3760   -0.7573    6.7014 H   0  0  0  0  0  0  0  0  0  0  0  0
    3.6319    0.4316    6.5637 H   0  0  0  0  0  0  0  0  0  0  0  0
    3.3638    2.2557    4.2133 H   0  0  0  0  0  0  0  0  0  0  0  0
    1.3165    3.4921    4.7968 H   0  0  0  0  0  0  0  0  0  0  0  0
    1.1695    3.9655    2.1830 H   0  0  0  0  0  0  0  0  0  0  0  0
   -0.8063    3.2030    3.8478 H   0  0  0  0  0  0  0  0  0  0  0  0
   -0.1997    2.8465    1.6910 H   0  0  0  0  0  0  0  0  0  0  0  0
   -0.2227    1.4346    5.5238 H   0  0  0  0  0  0  0  0  0  0  0  0
   -1.9003    0.7735    3.3970 H   0  0  0  0  0  0  0  0  0  0  0  0
    0.5069   -0.2179    3.1058 H   0  0  0  0  0  0  0  0  0  0  0  0
    0.4368   -1.0743    6.0145 H   0  0  0  0  0  0  0  0  0  0  0  0
   -0.6043   -1.6256    4.7416 H   0  0  0  0  0  0  0  0  0  0  0  0
    3.4701   -2.6521    4.6848 H   0  0  0  0  0  0  0  0  0  0  0  0
  2  1  1  1
  1 32  1  0
  1 33  1  0
  1 34  1  0
  2  8  1  0
  2 13  1  0
  2  3  1  0
  3  4  1  0
  3 35  1  0
  3 36  1  0
  4  5  1  0
  4 37  1  0
  4 38  1  0
  5  6  2  0
  5  7  1  0
  7  8  1  0
  7 39  1  0
  7 40  1  0
  8  9  2  0
  9 10  1  0
  9 41  1  0
 10 11  1  0
 10 42  1  0
 10 43  1  0
 11 31  1  0
 11 12  1  6
 11 13  1  0
 12 44  1  0
 12 45  1  0
 12 46  1  0
 13 14  1  0
 13 47  1  1
 14 15  1  0
 14 48  1  0
 14 49  1  0
 15 16  1  0
 15 17  1  0
 15 50  1  1
 16 51  1  0
 17 31  1  0
 17 18  1  1
 17 19  1  0
 18 52  1  0
 18 53  1  0
 18 54  1  0
 19 27  1  0
 19 20  2  0
 20 21  1  0
 20 55  1  0
 21 22  1  0
 21 23  1  0
 21 56  1  1
 22 57  1  0
 23 24  1  0
 23 25  1  0
 23 58  1  1
 24 59  1  0
 25 26  1  0
 25 27  1  0
 25 60  1  1
 26 61  1  0
 27 28  1  0
 27 62  1  6
 28 29  1  0
 28 63  1  0
 28 64  1  0
 29 30  2  0
 29 31  1  0
 31 65  1  1
M  END
>  <i_m_ct_stereo_status>  (197) 
1

>  <s_m_source_file>  (197) 
/var/tmp/pbs.5076255.sched01/tmpnszqc94g/84e4epk0lh.sdf

>  <i_m_source_file_index>  (197) 
13

>  <i_lp_mmshare_version>  (197) 
48012

>  <i_f3d_flags>  (197) 
0

>  <s_epik_input>  (197) 
W0NIMl0xW0NIMl1DKD1PKVtDSDJdQyhbQ0BAXTEyW0NIM10pPVtDSF1bQ0gyXVtDQF0zKFtDSDNdKVtDQEBIXTJbQ0gyXVtDQEBIXShbT0hdKVtDQEBdNChbQ0gzXSlDPTVbQ0BASF0oW0NIMl1DKD1PKVtDQEBIXTM0KVtDQEhdKFtPSF0pW0NASF0oW09IXSlbQ0BASF0oW0NIXTUpW09IXQ==

>  <s_epik_cmdline>  (197) 
J2VwaWtfcHl0aG9uJywgJy1waHQnLCAnMi4wJywgJy1waCcsICc3LjAnLCAnLXRuJywgJzgnLCAnLW1hJywgJzIwMCcsICctaW1hZScsICc8aW5maWxlLm1hZT4nLCAnLW9tYWUnLCAnPG91dGZpbGUubWFlPic=

>  <r_lp_tautomer_probability>  (197) 
1

>  <r_epik_Ionization_Penalty>  (197) 
2.8574e-07

>  <r_epik_Ionization_Penalty_Charging>  (197) 
0

>  <r_epik_Ionization_Penalty_Neutral>  (197) 
2.8574e-07

>  <r_epik_State_Penalty>  (197) 
-0

>  <r_epik_Charging_Adjusted_Penalty>  (197) 
0

>  <i_epik_Tot_Q>  (197) 
0

>  <i_epik_Tot_abs_Q>  (197) 
0

>  <s_lp_Force_Field>  (197) 
OPLS3e

>  <r_lp_Energy>  (197) 
55.4498

>  <b_lp_Chiralities_Consistent>  (197) 
1

>  <s_lp_Variant>  (197) 
66:0-1

>  <s_i_glide_gridfile>  (197) 
pfpi4k_grid

>  <i_i_glide_lignum>  (197) 
13

>  <i_i_glide_rotatable_bonds>  (197) 
4

>  <r_i_docking_score>  (197) 
-3.60831

>  <r_i_glide_ligand_efficiency>  (197) 
-0.116397

>  <r_i_glide_ligand_efficiency_sa>  (197) 
-0.365648

>  <r_i_glide_ligand_efficiency_ln>  (197) 
-0.813785

>  <r_i_glide_gscore>  (197) 
-3.60831

>  <r_i_glide_lipo>  (197) 
-0.357989

>  <r_i_glide_hbond>  (197) 
-0.0129089

>  <r_i_glide_metal>  (197) 
-0

>  <r_i_glide_rewards>  (197) 
-0.520209

>  <r_i_glide_evdw>  (197) 
-30.0554

>  <r_i_glide_ecoul>  (197) 
-8.09624

>  <r_i_glide_erotb>  (197) 
0

>  <r_i_glide_esite>  (197) 
0

>  <r_i_glide_emodel>  (197) 
-46.3649

>  <r_i_glide_energy>  (197) 
-38.1516

>  <r_i_glide_einternal>  (197) 
1.66454

>  <r_i_glide_intrahb_reward>  (197) 
-0

>  <i_i_glide_confnum>  (197) 
1

>  <i_i_glide_posenum>  (197) 
28

>  <r_i_glide_eff_state_penalty>  (197) 
0

>  <ligand_id>  (197) 
66

>  <original_smiles>  (197) 
CC12CCC(=O)CC1=CCC1(C)C2CC(O)C2(C)C3=CC(O)C(O)C(O)C3CC(=O)C12

>  <smiles>  (197) 
[H]OC1([H])C([H])=C2C([H])(C([H])([H])C(=O)C3([H])C2(C([H])([H])[H])C([H])(O[H])C([H])([H])C2([H])C4(C([H])([H])[H])C(=C([H])C([H])([H])C32C([H])([H])[H])C([H])([H])C(=O)C([H])([H])C4([H])[H])C([H])(O[H])C1([H])O[H]

$$$$
66:0:1
     RDKit          3D

 65 69  0  0  1  0  0  0  0  0999 V2000
    6.8338   -2.5041    0.6897 C   0  0  0  0  0  0  0  0  0  0  0  0
    5.2988   -2.3084    0.5816 C   0  0  1  0  0  0  0  0  0  0  0  0
    5.0174   -1.1550   -0.4309 C   0  0  0  0  0  0  0  0  0  0  0  0
    5.3860   -1.4811   -1.8926 C   0  0  0  0  0  0  0  0  0  0  0  0
    4.8531   -2.8371   -2.3385 C   0  0  0  0  0  0  0  0  0  0  0  0
    4.3223   -2.9915   -3.4384 O   0  0  0  0  0  0  0  0  0  0  0  0
    5.1171   -3.9964   -1.3872 C   0  0  0  0  0  0  0  0  0  0  0  0
    4.7009   -3.6146    0.0289 C   0  0  0  0  0  0  0  0  0  0  0  0
    3.8274   -4.3680    0.7149 C   0  0  0  0  0  0  0  0  0  0  0  0
    3.2947   -4.0144    2.0919 C   0  0  0  0  0  0  0  0  0  0  0  0
    3.3095   -2.4868    2.3791 C   0  0  2  0  0  0  0  0  0  0  0  0
    2.2672   -1.8357    1.4500 C   0  0  0  0  0  0  0  0  0  0  0  0
    4.7531   -1.9983    2.0330 C   0  0  2  0  0  0  0  0  0  0  0  0
    4.9848   -0.5505    2.5017 C   0  0  0  0  0  0  0  0  0  0  0  0
    4.7826   -0.4670    4.0146 C   0  0  1  0  0  0  0  0  0  0  0  0
    5.3286    0.7337    4.5064 O   0  0  0  0  0  0  0  0  0  0  0  0
    3.3223   -0.7817    4.4808 C   0  0  1  0  0  0  0  0  0  0  0  0
    3.4189   -0.8444    6.0356 C   0  0  0  0  0  0  0  0  0  0  0  0
    2.2162    0.2645    4.1322 C   0  0  0  0  0  0  0  0  0  0  0  0
    2.4354    1.5950    4.0166 C   0  0  0  0  0  0  0  0  0  0  0  0
    1.3706    2.6634    3.8187 C   0  0  1  0  0  0  0  0  0  0  0  0
    1.8108    3.6315    2.8875 O   0  0  0  0  0  0  0  0  0  0  0  0
   -0.0420    2.1077    3.5325 C   0  0  1  0  0  0  0  0  0  0  0  0
   -0.1995    1.8028    2.1538 O   0  0  0  0  0  0  0  0  0  0  0  0
   -0.2644    0.8190    4.3588 C   0  0  1  0  0  0  0  0  0  0  0  0
   -1.5869    0.3556    4.1829 O   0  0  0  0  0  0  0  0  0  0  0  0
    0.7758   -0.2700    3.9995 C   0  0  2  0  0  0  0  0  0  0  0  0
    0.5407   -1.5993    4.7409 C   0  0  0  0  0  0  0  0  0  0  0  0
    1.5643   -2.6704    4.3531 C   0  0  0  0  0  0  0  0  0  0  0  0
    1.2617   -3.8607    4.4241 O   0  0  0  0  0  0  0  0  0  0  0  0
    2.9778   -2.2125    3.9139 C   0  0  1  0  0  0  0  0  0  0  0  0
    7.3271   -1.6233    1.0980 H   0  0  0  0  0  0  0  0  0  0  0  0
    7.3069   -2.7107   -0.2694 H   0  0  0  0  0  0  0  0  0  0  0  0
    7.0737   -3.3459    1.3416 H   0  0  0  0  0  0  0  0  0  0  0  0
    3.9686   -0.8691   -0.4151 H   0  0  0  0  0  0  0  0  0  0  0  0
    5.5646   -0.2582   -0.1340 H   0  0  0  0  0  0  0  0  0  0  0  0
    5.0186   -0.7015   -2.5590 H   0  0  0  0  0  0  0  0  0  0  0  0
    6.4672   -1.5240   -2.0022 H   0  0  0  0  0  0  0  0  0  0  0  0
    4.5929   -4.8863   -1.7200 H   0  0  0  0  0  0  0  0  0  0  0  0
    6.1744   -4.2398   -1.4102 H   0  0  0  0  0  0  0  0  0  0  0  0
    3.4462   -5.2811    0.2815 H   0  0  0  0  0  0  0  0  0  0  0  0
    2.2797   -4.4085    2.1450 H   0  0  0  0  0  0  0  0  0  0  0  0
    3.8921   -4.5565    2.8276 H   0  0  0  0  0  0  0  0  0  0  0  0
    2.2943   -0.7467    1.4733 H   0  0  0  0  0  0  0  0  0  0  0  0
    1.2593   -2.1605    1.6941 H   0  0  0  0  0  0  0  0  0  0  0  0
    2.4102   -2.1338    0.4138 H   0  0  0  0  0  0  0  0  0  0  0  0
    5.3854   -2.6081    2.6808 H   0  0  0  0  0  0  0  0  0  0  0  0
    6.0053   -0.2519    2.2683 H   0  0  0  0  0  0  0  0  0  0  0  0
    4.3276    0.1551    1.9913 H   0  0  0  0  0  0  0  0  0  0  0  0
    5.4271   -1.2337    4.4504 H   0  0  0  0  0  0  0  0  0  0  0  0
    5.3150    0.6978    5.4519 H   0  0  0  0  0  0  0  0  0  0  0  0
    4.1647   -1.5689    6.3680 H   0  0  0  0  0  0  0  0  0  0  0  0
    2.4864   -1.1084    6.5288 H   0  0  0  0  0  0  0  0  0  0  0  0
    3.7015    0.1233    6.4506 H   0  0  0  0  0  0  0  0  0  0  0  0
    3.4133    2.0185    4.1440 H   0  0  0  0  0  0  0  0  0  0  0  0
    1.3158    3.1760    4.7782 H   0  0  0  0  0  0  0  0  0  0  0  0
    1.1574    3.7702    2.2040 H   0  0  0  0  0  0  0  0  0  0  0  0
   -0.7875    2.8600    3.7990 H   0  0  0  0  0  0  0  0  0  0  0  0
   -0.1800    2.6147    1.6509 H   0  0  0  0  0  0  0  0  0  0  0  0
   -0.1622    1.0565    5.4176 H   0  0  0  0  0  0  0  0  0  0  0  0
   -1.8556    0.5447    3.2894 H   0  0  0  0  0  0  0  0  0  0  0  0
    0.6264   -0.4832    2.9453 H   0  0  0  0  0  0  0  0  0  0  0  0
    0.5592   -1.4493    5.8185 H   0  0  0  0  0  0  0  0  0  0  0  0
   -0.4550   -1.9799    4.5175 H   0  0  0  0  0  0  0  0  0  0  0  0
    3.6425   -2.8905    4.4483 H   0  0  0  0  0  0  0  0  0  0  0  0
  2  1  1  1
  1 32  1  0
  1 33  1  0
  1 34  1  0
  2  8  1  0
  2 13  1  0
  2  3  1  0
  3  4  1  0
  3 35  1  0
  3 36  1  0
  4  5  1  0
  4 37  1  0
  4 38  1  0
  5  6  2  0
  5  7  1  0
  7  8  1  0
  7 39  1  0
  7 40  1  0
  8  9  2  0
  9 10  1  0
  9 41  1  0
 10 11  1  0
 10 42  1  0
 10 43  1  0
 11 31  1  0
 11 12  1  6
 11 13  1  0
 12 44  1  0
 12 45  1  0
 12 46  1  0
 13 14  1  0
 13 47  1  1
 14 15  1  0
 14 48  1  0
 14 49  1  0
 15 16  1  0
 15 17  1  0
 15 50  1  1
 16 51  1  0
 17 31  1  0
 17 18  1  1
 17 19  1  0
 18 52  1  0
 18 53  1  0
 18 54  1  0
 19 27  1  0
 19 20  2  0
 20 21  1  0
 20 55  1  0
 21 22  1  0
 21 23  1  0
 21 56  1  1
 22 57  1  0
 23 24  1  0
 23 25  1  0
 23 58  1  1
 24 59  1  0
 25 26  1  0
 25 27  1  0
 25 60  1  1
 26 61  1  0
 27 28  1  0
 27 62  1  6
 28 29  1  0
 28 63  1  0
 28 64  1  0
 29 30  2  0
 29 31  1  0
 31 65  1  1
M  END
>  <i_m_ct_stereo_status>  (198) 
1

>  <s_m_source_file>  (198) 
/var/tmp/pbs.5076255.sched01/tmpnszqc94g/84e4epk0lh.sdf

>  <i_m_source_file_index>  (198) 
13

>  <i_lp_mmshare_version>  (198) 
48012

>  <i_f3d_flags>  (198) 
0

>  <s_epik_input>  (198) 
W0NIMl0xW0NIMl1DKD1PKVtDSDJdQyhbQ0BAXTEyW0NIM10pPVtDSF1bQ0gyXVtDQF0zKFtDSDNdKVtDQEBIXTJbQ0gyXVtDQEBIXShbT0hdKVtDQEBdNChbQ0gzXSlDPTVbQ0BASF0oW0NIMl1DKD1PKVtDQEBIXTM0KVtDQEhdKFtPSF0pW0NASF0oW09IXSlbQ0BASF0oW0NIXTUpW09IXQ==

>  <s_epik_cmdline>  (198) 
J2VwaWtfcHl0aG9uJywgJy1waHQnLCAnMi4wJywgJy1waCcsICc3LjAnLCAnLXRuJywgJzgnLCAnLW1hJywgJzIwMCcsICctaW1hZScsICc8aW5maWxlLm1hZT4nLCAnLW9tYWUnLCAnPG91dGZpbGUubWFlPic=

>  <r_lp_tautomer_probability>  (198) 
1

>  <r_epik_Ionization_Penalty>  (198) 
2.8574e-07

>  <r_epik_Ionization_Penalty_Charging>  (198) 
0

>  <r_epik_Ionization_Penalty_Neutral>  (198) 
2.8574e-07

>  <r_epik_State_Penalty>  (198) 
-0

>  <r_epik_Charging_Adjusted_Penalty>  (198) 
0

>  <i_epik_Tot_Q>  (198) 
0

>  <i_epik_Tot_abs_Q>  (198) 
0

>  <s_lp_Force_Field>  (198) 
OPLS3e

>  <r_lp_Energy>  (198) 
55.4498

>  <b_lp_Chiralities_Consistent>  (198) 
1

>  <s_lp_Variant>  (198) 
66:0-1

>  <s_i_glide_gridfile>  (198) 
pfpi4k_grid

>  <i_i_glide_lignum>  (198) 
13

>  <i_i_glide_rotatable_bonds>  (198) 
4

>  <r_i_docking_score>  (198) 
-3.53907

>  <r_i_glide_ligand_efficiency>  (198) 
-0.114163

>  <r_i_glide_ligand_efficiency_sa>  (198) 
-0.358631

>  <r_i_glide_ligand_efficiency_ln>  (198) 
-0.798168

>  <r_i_glide_gscore>  (198) 
-3.53907

>  <r_i_glide_lipo>  (198) 
-0.414491

>  <r_i_glide_hbond>  (198) 
0

>  <r_i_glide_metal>  (198) 
-0

>  <r_i_glide_rewards>  (198) 
-0.616187

>  <r_i_glide_evdw>  (198) 
-31.1891

>  <r_i_glide_ecoul>  (198) 
-6.32623

>  <r_i_glide_erotb>  (198) 
0

>  <r_i_glide_esite>  (198) 
0

>  <r_i_glide_emodel>  (198) 
-45.2001

>  <r_i_glide_energy>  (198) 
-37.5153

>  <r_i_glide_einternal>  (198) 
2.34427

>  <r_i_glide_intrahb_reward>  (198) 
-0

>  <i_i_glide_confnum>  (198) 
1

>  <i_i_glide_posenum>  (198) 
21

>  <r_i_glide_eff_state_penalty>  (198) 
0

>  <ligand_id>  (198) 
66

>  <original_smiles>  (198) 
CC12CCC(=O)CC1=CCC1(C)C2CC(O)C2(C)C3=CC(O)C(O)C(O)C3CC(=O)C12

>  <smiles>  (198) 
[H]OC1([H])C([H])=C2C([H])(C([H])([H])C(=O)C3([H])C2(C([H])([H])[H])C([H])(O[H])C([H])([H])C2([H])C4(C([H])([H])[H])C(=C([H])C([H])([H])C32C([H])([H])[H])C([H])([H])C(=O)C([H])([H])C4([H])[H])C([H])(O[H])C1([H])O[H]

$$$$
66:0:2
     RDKit          3D

 65 69  0  0  1  0  0  0  0  0999 V2000
    6.7912   -2.4952    0.7818 C   0  0  0  0  0  0  0  0  0  0  0  0
    5.2577   -2.2889    0.6670 C   0  0  1  0  0  0  0  0  0  0  0  0
    4.9895   -1.1477   -0.3615 C   0  0  0  0  0  0  0  0  0  0  0  0
    5.3597   -1.4952   -1.8183 C   0  0  0  0  0  0  0  0  0  0  0  0
    4.8141   -2.8516   -2.2477 C   0  0  0  0  0  0  0  0  0  0  0  0
    4.2845   -3.0148   -3.3454 O   0  0  0  0  0  0  0  0  0  0  0  0
    5.0652   -4.0013   -1.2776 C   0  0  0  0  0  0  0  0  0  0  0  0
    4.6527   -3.5948    0.1307 C   0  0  0  0  0  0  0  0  0  0  0  0
    3.7719   -4.3361    0.8280 C   0  0  0  0  0  0  0  0  0  0  0  0
    3.2402   -3.9594    2.1978 C   0  0  0  0  0  0  0  0  0  0  0  0
    3.2644   -2.4269    2.4622 C   0  0  2  0  0  0  0  0  0  0  0  0
    2.2258   -1.7805    1.5233 C   0  0  0  0  0  0  0  0  0  0  0  0
    4.7120   -1.9549    2.1123 C   0  0  2  0  0  0  0  0  0  0  0  0
    4.9572   -0.5032    2.5589 C   0  0  0  0  0  0  0  0  0  0  0  0
    4.7527   -0.4020    4.0725 C   0  0  1  0  0  0  0  0  0  0  0  0
    5.3146    0.7947    4.5645 O   0  0  0  0  0  0  0  0  0  0  0  0
    3.2914   -0.6980    4.5414 C   0  0  1  0  0  0  0  0  0  0  0  0
    3.3851   -0.7382    6.0971 C   0  0  0  0  0  0  0  0  0  0  0  0
    2.1912    0.3503    4.1807 C   0  0  0  0  0  0  0  0  0  0  0  0
    2.4228    1.6778    4.0490 C   0  0  0  0  0  0  0  0  0  0  0  0
    1.3660    2.7530    3.8331 C   0  0  1  0  0  0  0  0  0  0  0  0
    1.8154    3.7033    2.8814 O   0  0  0  0  0  0  0  0  0  0  0  0
   -0.0553    2.2031    3.5542 C   0  0  1  0  0  0  0  0  0  0  0  0
   -0.2128    1.8855    2.1797 O   0  0  0  0  0  0  0  0  0  0  0  0
   -0.2874    0.9259    4.3943 C   0  0  1  0  0  0  0  0  0  0  0  0
   -1.6111    0.4625    4.2225 O   0  0  0  0  0  0  0  0  0  0  0  0
    0.7495   -0.1726    4.0532 C   0  0  2  0  0  0  0  0  0  0  0  0
    0.5028   -1.4897    4.8125 C   0  0  0  0  0  0  0  0  0  0  0  0
    1.5196   -2.5726    4.4386 C   0  0  0  0  0  0  0  0  0  0  0  0
    1.2072   -3.7582    4.5247 O   0  0  0  0  0  0  0  0  0  0  0  0
    2.9354   -2.1318    3.9941 C   0  0  1  0  0  0  0  0  0  0  0  0
    7.2915   -1.6138    1.1795 H   0  0  0  0  0  0  0  0  0  0  0  0
    7.2652   -2.7168   -0.1746 H   0  0  0  0  0  0  0  0  0  0  0  0
    7.0246   -3.3298    1.4450 H   0  0  0  0  0  0  0  0  0  0  0  0
    3.9430   -0.8549   -0.3539 H   0  0  0  0  0  0  0  0  0  0  0  0
    5.5437   -0.2541   -0.0763 H   0  0  0  0  0  0  0  0  0  0  0  0
    4.9990   -0.7218   -2.4980 H   0  0  0  0  0  0  0  0  0  0  0  0
    6.4401   -1.5446   -1.9278 H   0  0  0  0  0  0  0  0  0  0  0  0
    4.5220   -4.8877   -1.5917 H   0  0  0  0  0  0  0  0  0  0  0  0
    6.1208   -4.2546   -1.2979 H   0  0  0  0  0  0  0  0  0  0  0  0
    3.3873   -5.2533    0.4044 H   0  0  0  0  0  0  0  0  0  0  0  0
    2.2237   -4.3483    2.2563 H   0  0  0  0  0  0  0  0  0  0  0  0
    3.8320   -4.4963    2.9431 H   0  0  0  0  0  0  0  0  0  0  0  0
    2.2631   -0.6917    1.5359 H   0  0  0  0  0  0  0  0  0  0  0  0
    1.2121   -2.0933    1.7641 H   0  0  0  0  0  0  0  0  0  0  0  0
    2.3707   -2.0864    0.4888 H   0  0  0  0  0  0  0  0  0  0  0  0
    5.3378   -2.5596    2.7697 H   0  0  0  0  0  0  0  0  0  0  0  0
    5.9794   -0.2174    2.3162 H   0  0  0  0  0  0  0  0  0  0  0  0
    4.3050    0.1989    2.0375 H   0  0  0  0  0  0  0  0  0  0  0  0
    5.3940   -1.1670    4.5184 H   0  0  0  0  0  0  0  0  0  0  0  0
    6.2278    0.8118    4.3266 H   0  0  0  0  0  0  0  0  0  0  0  0
    4.1272   -1.4623    6.4419 H   0  0  0  0  0  0  0  0  0  0  0  0
    2.4514   -0.9863    6.5951 H   0  0  0  0  0  0  0  0  0  0  0  0
    3.6815    0.2344    6.4939 H   0  0  0  0  0  0  0  0  0  0  0  0
    3.4060    2.0905    4.1791 H   0  0  0  0  0  0  0  0  0  0  0  0
    1.3137    3.2837    4.7859 H   0  0  0  0  0  0  0  0  0  0  0  0
    1.1730    3.8042    2.1822 H   0  0  0  0  0  0  0  0  0  0  0  0
   -0.7940    2.9647    3.8124 H   0  0  0  0  0  0  0  0  0  0  0  0
   -0.1910    2.6891    1.6635 H   0  0  0  0  0  0  0  0  0  0  0  0
   -0.1864    1.1767    5.4503 H   0  0  0  0  0  0  0  0  0  0  0  0
   -1.8511    0.5711    3.3097 H   0  0  0  0  0  0  0  0  0  0  0  0
    0.5986   -0.4006    3.0021 H   0  0  0  0  0  0  0  0  0  0  0  0
    0.5221   -1.3267    5.8881 H   0  0  0  0  0  0  0  0  0  0  0  0
   -0.4956   -1.8667    4.5934 H   0  0  0  0  0  0  0  0  0  0  0  0
    3.5947   -2.8066    4.5408 H   0  0  0  0  0  0  0  0  0  0  0  0
  2  1  1  1
  1 32  1  0
  1 33  1  0
  1 34  1  0
  2  8  1  0
  2 13  1  0
  2  3  1  0
  3  4  1  0
  3 35  1  0
  3 36  1  0
  4  5  1  0
  4 37  1  0
  4 38  1  0
  5  6  2  0
  5  7  1  0
  7  8  1  0
  7 39  1  0
  7 40  1  0
  8  9  2  0
  9 10  1  0
  9 41  1  0
 10 11  1  0
 10 42  1  0
 10 43  1  0
 11 31  1  0
 11 12  1  6
 11 13  1  0
 12 44  1  0
 12 45  1  0
 12 46  1  0
 13 14  1  0
 13 47  1  1
 14 15  1  0
 14 48  1  0
 14 49  1  0
 15 16  1  0
 15 17  1  0
 15 50  1  1
 16 51  1  0
 17 31  1  0
 17 18  1  1
 17 19  1  0
 18 52  1  0
 18 53  1  0
 18 54  1  0
 19 27  1  0
 19 20  2  0
 20 21  1  0
 20 55  1  0
 21 22  1  0
 21 23  1  0
 21 56  1  1
 22 57  1  0
 23 24  1  0
 23 25  1  0
 23 58  1  1
 24 59  1  0
 25 26  1  0
 25 27  1  0
 25 60  1  1
 26 61  1  0
 27 28  1  0
 27 62  1  6
 28 29  1  0
 28 63  1  0
 28 64  1  0
 29 30  2  0
 29 31  1  0
 31 65  1  1
M  END
>  <i_m_ct_stereo_status>  (199) 
1

>  <s_m_source_file>  (199) 
/var/tmp/pbs.5076255.sched01/tmpnszqc94g/84e4epk0lh.sdf

>  <i_m_source_file_index>  (199) 
13

>  <i_lp_mmshare_version>  (199) 
48012

>  <i_f3d_flags>  (199) 
0

>  <s_epik_input>  (199) 
W0NIMl0xW0NIMl1DKD1PKVtDSDJdQyhbQ0BAXTEyW0NIM10pPVtDSF1bQ0gyXVtDQF0zKFtDSDNdKVtDQEBIXTJbQ0gyXVtDQEBIXShbT0hdKVtDQEBdNChbQ0gzXSlDPTVbQ0BASF0oW0NIMl1DKD1PKVtDQEBIXTM0KVtDQEhdKFtPSF0pW0NASF0oW09IXSlbQ0BASF0oW0NIXTUpW09IXQ==

>  <s_epik_cmdline>  (199) 
J2VwaWtfcHl0aG9uJywgJy1waHQnLCAnMi4wJywgJy1waCcsICc3LjAnLCAnLXRuJywgJzgnLCAnLW1hJywgJzIwMCcsICctaW1hZScsICc8aW5maWxlLm1hZT4nLCAnLW9tYWUnLCAnPG91dGZpbGUubWFlPic=

>  <r_lp_tautomer_probability>  (199) 
1

>  <r_epik_Ionization_Penalty>  (199) 
2.8574e-07

>  <r_epik_Ionization_Penalty_Charging>  (199) 
0

>  <r_epik_Ionization_Penalty_Neutral>  (199) 
2.8574e-07

>  <r_epik_State_Penalty>  (199) 
-0

>  <r_epik_Charging_Adjusted_Penalty>  (199) 
0

>  <i_epik_Tot_Q>  (199) 
0

>  <i_epik_Tot_abs_Q>  (199) 
0

>  <s_lp_Force_Field>  (199) 
OPLS3e

>  <r_lp_Energy>  (199) 
55.4498

>  <b_lp_Chiralities_Consistent>  (199) 
1

>  <s_lp_Variant>  (199) 
66:0-1

>  <s_i_glide_gridfile>  (199) 
pfpi4k_grid

>  <i_i_glide_lignum>  (199) 
13

>  <i_i_glide_rotatable_bonds>  (199) 
4

>  <r_i_docking_score>  (199) 
-3.44826

>  <r_i_glide_ligand_efficiency>  (199) 
-0.111234

>  <r_i_glide_ligand_efficiency_sa>  (199) 
-0.349428

>  <r_i_glide_ligand_efficiency_ln>  (199) 
-0.777687

>  <r_i_glide_gscore>  (199) 
-3.44826

>  <r_i_glide_lipo>  (199) 
-0.399461

>  <r_i_glide_hbond>  (199) 
0

>  <r_i_glide_metal>  (199) 
-0

>  <r_i_glide_rewards>  (199) 
-0.585395

>  <r_i_glide_evdw>  (199) 
-30.7159

>  <r_i_glide_ecoul>  (199) 
-6.18404

>  <r_i_glide_erotb>  (199) 
0

>  <r_i_glide_esite>  (199) 
0

>  <r_i_glide_emodel>  (199) 
-44.4925

>  <r_i_glide_energy>  (199) 
-36.8999

>  <r_i_glide_einternal>  (199) 
2.09564

>  <r_i_glide_intrahb_reward>  (199) 
-0

>  <i_i_glide_confnum>  (199) 
2

>  <i_i_glide_posenum>  (199) 
23

>  <r_i_glide_eff_state_penalty>  (199) 
0

>  <ligand_id>  (199) 
66

>  <original_smiles>  (199) 
CC12CCC(=O)CC1=CCC1(C)C2CC(O)C2(C)C3=CC(O)C(O)C(O)C3CC(=O)C12

>  <smiles>  (199) 
[H]OC1([H])C([H])=C2C([H])(C([H])([H])C(=O)C3([H])C2(C([H])([H])[H])C([H])(O[H])C([H])([H])C2([H])C4(C([H])([H])[H])C(=C([H])C([H])([H])C32C([H])([H])[H])C([H])([H])C(=O)C([H])([H])C4([H])[H])C([H])(O[H])C1([H])O[H]

$$$$
67:0:0
     RDKit          3D

 61 66  0  0  1  0  0  0  0  0999 V2000
    3.7643   -3.3665   -3.6079 C   0  0  0  0  0  0  0  0  0  0  0  0
    4.0463   -2.0540   -2.8913 C   0  0  0  0  0  0  0  0  0  0  0  0
    3.8678   -0.9042   -3.8887 C   0  0  0  0  0  0  0  0  0  0  0  0
    3.0915   -1.8903   -1.8272 O   0  0  0  0  0  0  0  0  0  0  0  0
    4.1340   -1.3948   -0.9509 C   0  0  2  0  0  0  0  0  0  0  0  0
    5.1883   -1.9758   -1.8734 C   0  0  1  0  0  0  0  0  0  0  0  0
    5.8942   -3.2262   -1.3857 C   0  0  1  0  0  0  0  0  0  0  0  0
    7.1185   -2.8557   -0.7846 O   0  0  0  0  0  0  0  0  0  0  0  0
    5.0305   -4.0683   -0.4391 C   0  0  0  0  0  0  0  0  0  0  0  0
    4.9240   -5.3932   -0.6361 C   0  0  0  0  0  0  0  0  0  0  0  0
    4.1190   -6.2715    0.1646 C   0  0  0  0  0  0  0  0  0  0  0  0
    3.1434   -5.7451    0.8990 C   0  0  0  0  0  0  0  0  0  0  0  0
    2.1391   -6.4641    1.7053 C   0  0  2  0  0  0  0  0  0  0  0  0
    1.4793   -5.4577    2.6135 C   0  0  2  0  0  0  0  0  0  0  0  0
    2.0678   -4.0837    2.2836 C   0  0  1  0  0  0  0  0  0  0  0  0
    2.6862   -3.6093    3.4548 O   0  0  0  0  0  0  0  0  0  0  0  0
    2.8972   -4.2562    0.9504 C   0  0  2  0  0  0  0  0  0  0  0  0
    1.9624   -4.0793   -0.2875 C   0  0  0  0  0  0  0  0  0  0  0  0
    4.2677   -3.4318    0.7555 C   0  0  1  0  0  0  0  0  0  0  0  0
    5.2541   -3.5532    1.9925 C   0  0  1  0  0  0  0  0  0  0  0  0
    6.4798   -4.2333    1.7415 O   0  0  0  0  0  0  0  0  0  0  0  0
    5.5691   -2.1507    2.4761 C   0  0  0  0  0  0  0  0  0  0  0  0
    5.2531   -1.3114    1.2640 C   0  0  0  0  0  0  0  0  0  0  0  0
    5.8265   -0.2996    0.9448 O   0  0  0  0  0  0  0  0  0  0  0  0
    4.0566   -1.8724    0.5287 C   0  0  1  0  0  0  0  0  0  0  0  0
    2.8959   -1.1700    1.2767 C   0  0  0  0  0  0  0  0  0  0  0  0
    2.1880   -6.6845    3.1890 C   0  0  0  0  0  0  0  0  0  0  0  0
    1.3213   -7.7518    3.8291 C   0  0  0  0  0  0  0  0  0  0  0  0
    3.5110   -6.6065    3.8947 C   0  0  0  0  0  0  0  0  0  0  0  0
    4.5043   -3.5661   -4.3786 H   0  0  0  0  0  0  0  0  0  0  0  0
    2.7727   -3.3799   -4.0645 H   0  0  0  0  0  0  0  0  0  0  0  0
    3.8233   -4.2042   -2.9232 H   0  0  0  0  0  0  0  0  0  0  0  0
    4.5933   -0.9844   -4.6961 H   0  0  0  0  0  0  0  0  0  0  0  0
    3.9979    0.0744   -3.4284 H   0  0  0  0  0  0  0  0  0  0  0  0
    2.8778   -0.9199   -4.3436 H   0  0  0  0  0  0  0  0  0  0  0  0
    4.2082   -0.3073   -1.0298 H   0  0  0  0  0  0  0  0  0  0  0  0
    5.8511   -1.1782   -2.2032 H   0  0  0  0  0  0  0  0  0  0  0  0
    6.1433   -3.8360   -2.2489 H   0  0  0  0  0  0  0  0  0  0  0  0
    7.8138   -3.0549   -1.3961 H   0  0  0  0  0  0  0  0  0  0  0  0
    5.3781   -5.8179   -1.5047 H   0  0  0  0  0  0  0  0  0  0  0  0
    4.2534   -7.3419    0.1180 H   0  0  0  0  0  0  0  0  0  0  0  0
    1.5029   -7.1023    1.1068 H   0  0  0  0  0  0  0  0  0  0  0  0
    0.4024   -5.4979    2.6800 H   0  0  0  0  0  0  0  0  0  0  0  0
    1.2904   -3.3407    2.1409 H   0  0  0  0  0  0  0  0  0  0  0  0
    3.3434   -4.2413    3.7089 H   0  0  0  0  0  0  0  0  0  0  0  0
    1.5256   -3.0872   -0.3457 H   0  0  0  0  0  0  0  0  0  0  0  0
    1.1820   -4.8381   -0.3440 H   0  0  0  0  0  0  0  0  0  0  0  0
    2.4616   -4.2420   -1.2311 H   0  0  0  0  0  0  0  0  0  0  0  0
    4.8522   -4.1159    2.8149 H   0  0  0  0  0  0  0  0  0  0  0  0
    6.9557   -3.7611    1.0676 H   0  0  0  0  0  0  0  0  0  0  0  0
    4.9243   -1.8626    3.2903 H   0  0  0  0  0  0  0  0  0  0  0  0
    6.5997   -2.0143    2.8193 H   0  0  0  0  0  0  0  0  0  0  0  0
    1.9130   -1.4365    0.9003 H   0  0  0  0  0  0  0  0  0  0  0  0
    2.9729   -0.0809    1.1887 H   0  0  0  0  0  0  0  0  0  0  0  0
    2.8965   -1.3793    2.3430 H   0  0  0  0  0  0  0  0  0  0  0  0
    1.1209   -7.4951    4.8697 H   0  0  0  0  0  0  0  0  0  0  0  0
    1.8175   -8.7233    3.7963 H   0  0  0  0  0  0  0  0  0  0  0  0
    0.3680   -7.8429    3.3115 H   0  0  0  0  0  0  0  0  0  0  0  0
    3.3904   -6.1210    4.8637 H   0  0  0  0  0  0  0  0  0  0  0  0
    4.2105   -6.0425    3.2878 H   0  0  0  0  0  0  0  0  0  0  0  0
    3.9363   -7.6037    4.0213 H   0  0  0  0  0  0  0  0  0  0  0  0
  1  2  1  0
  1 30  1  0
  1 31  1  0
  1 32  1  0
  2  6  1  0
  2  3  1  0
  2  4  1  0
  3 33  1  0
  3 34  1  0
  3 35  1  0
  4  5  1  0
  5 25  1  0
  5  6  1  0
  5 36  1  1
  6  7  1  0
  6 37  1  6
  7  8  1  0
  7  9  1  0
  7 38  1  6
  8 39  1  0
 19  9  1  6
  9 10  2  0
 10 11  1  0
 10 40  1  0
 11 12  2  0
 11 41  1  0
 12 17  1  0
 12 13  1  0
 13 27  1  0
 13 14  1  0
 13 42  1  6
 14 15  1  0
 14 27  1  0
 14 43  1  6
 15 16  1  0
 15 17  1  0
 15 44  1  6
 16 45  1  0
 17 18  1  6
 17 19  1  0
 18 46  1  0
 18 47  1  0
 18 48  1  0
 19 25  1  0
 19 20  1  0
 20 21  1  0
 20 22  1  0
 20 49  1  1
 21 50  1  0
 22 23  1  0
 22 51  1  0
 22 52  1  0
 23 24  2  0
 23 25  1  0
 25 26  1  1
 26 53  1  0
 26 54  1  0
 26 55  1  0
 27 28  1  0
 27 29  1  0
 28 56  1  0
 28 57  1  0
 28 58  1  0
 29 59  1  0
 29 60  1  0
 29 61  1  0
M  END
>  <i_m_ct_stereo_status>  (200) 
1

>  <s_m_source_file>  (200) 
/var/tmp/pbs.5076255.sched01/tmpnszqc94g/84e4epk0lh.sdf

>  <i_m_source_file_index>  (200) 
14

>  <i_lp_mmshare_version>  (200) 
48012

>  <i_f3d_flags>  (200) 
2

>  <s_epik_input>  (200) 
W09IXVtDQEhdMVtDSDJdQyg9TylbQ0BdMihbQ0gzXSlbQ0BASF0oT0MzKFtDSDNdKVtDSDNdKVtDQEhdM1tDQEBIXShbT0hdKUMoW0NAQF0xMjQpPVtDSF1bQ0hdPUM1W0NASF02W0NAQEhdKEM2KFtDSDNdKVtDSDNdKVtDQEBIXShbT0hdKVtDQEBdNDVbQ0gzXQ==

>  <s_epik_cmdline>  (200) 
J2VwaWtfcHl0aG9uJywgJy1waHQnLCAnMi4wJywgJy1waCcsICc3LjAnLCAnLXRuJywgJzgnLCAnLW1hJywgJzIwMCcsICctaW1hZScsICc8aW5maWxlLm1hZT4nLCAnLW9tYWUnLCAnPG91dGZpbGUubWFlPic=

>  <r_lp_tautomer_probability>  (200) 
1

>  <r_epik_Ionization_Penalty>  (200) 
5.54836e-07

>  <r_epik_Ionization_Penalty_Charging>  (200) 
0

>  <r_epik_Ionization_Penalty_Neutral>  (200) 
5.54836e-07

>  <r_epik_State_Penalty>  (200) 
-0

>  <r_epik_Charging_Adjusted_Penalty>  (200) 
0

>  <i_epik_Tot_Q>  (200) 
0

>  <i_epik_Tot_abs_Q>  (200) 
0

>  <s_lp_Force_Field>  (200) 
OPLS3e

>  <r_lp_Energy>  (200) 
60.8224

>  <b_lp_Chiralities_Consistent>  (200) 
0

>  <s_lp_Variant>  (200) 
67:0-1

>  <s_i_glide_gridfile>  (200) 
pfpi4k_grid

>  <i_i_glide_lignum>  (200) 
14

>  <i_i_glide_rotatable_bonds>  (200) 
3

>  <r_i_docking_score>  (200) 
-3.11298

>  <r_i_glide_ligand_efficiency>  (200) 
-0.107344

>  <r_i_glide_ligand_efficiency_sa>  (200) 
-0.329796

>  <r_i_glide_ligand_efficiency_ln>  (200) 
-0.712795

>  <r_i_glide_gscore>  (200) 
-3.11298

>  <r_i_glide_lipo>  (200) 
-0.824078

>  <r_i_glide_hbond>  (200) 
-0.118194

>  <r_i_glide_metal>  (200) 
-0

>  <r_i_glide_rewards>  (200) 
-1.32106

>  <r_i_glide_evdw>  (200) 
-19.1344

>  <r_i_glide_ecoul>  (200) 
0.71382

>  <r_i_glide_erotb>  (200) 
0

>  <r_i_glide_esite>  (200) 
0

>  <r_i_glide_emodel>  (200) 
-25.9916

>  <r_i_glide_energy>  (200) 
-18.4206

>  <r_i_glide_einternal>  (200) 
0.922809

>  <r_i_glide_intrahb_reward>  (200) 
-0.5

>  <i_i_glide_confnum>  (200) 
1

>  <i_i_glide_posenum>  (200) 
30

>  <r_i_glide_eff_state_penalty>  (200) 
0

>  <ligand_id>  (200) 
67

>  <original_smiles>  (200) 
CC1(C)OC2C1C(O)C1=CC=C3C4C(C(O)C3(C)C13C(O)CC(=O)C23C)C4(C)C

>  <smiles>  (200) 
[H]OC1([H])C2=C([H])C([H])=C3C4([H])C([H])(C([H])(O[H])C3(C([H])([H])[H])C23C([H])(O[H])C([H])([H])C(=O)C3(C([H])([H])[H])C2([H])OC(C([H])([H])[H])(C([H])([H])[H])C12[H])C4(C([H])([H])[H])C([H])([H])[H]

$$$$
67:0:1
     RDKit          3D

 61 66  0  0  1  0  0  0  0  0999 V2000
    4.4104   -0.4410    4.9063 C   0  0  0  0  0  0  0  0  0  0  0  0
    3.6392   -1.7028    5.2930 C   0  0  0  0  0  0  0  0  0  0  0  0
    3.0203   -1.4975    6.6758 C   0  0  0  0  0  0  0  0  0  0  0  0
    2.5898   -1.9973    4.3319 O   0  0  0  0  0  0  0  0  0  0  0  0
    2.9445   -3.3987    4.3787 C   0  0  2  0  0  0  0  0  0  0  0  0
    4.2459   -3.0767    5.0276 C   0  0  1  0  0  0  0  0  0  0  0  0
    5.4515   -3.2916    4.1429 C   0  0  1  0  0  0  0  0  0  0  0  0
    5.8954   -4.6354    4.3396 O   0  0  0  0  0  0  0  0  0  0  0  0
    5.1946   -2.9363    2.6459 C   0  0  0  0  0  0  0  0  0  0  0  0
    5.9699   -2.0251    1.9839 C   0  0  0  0  0  0  0  0  0  0  0  0
    5.7654   -1.6975    0.5780 C   0  0  0  0  0  0  0  0  0  0  0  0
    4.5678   -1.9482    0.0320 C   0  0  0  0  0  0  0  0  0  0  0  0
    4.1456   -1.5599   -1.3369 C   0  0  2  0  0  0  0  0  0  0  0  0
    2.8673   -2.3374   -1.6218 C   0  0  2  0  0  0  0  0  0  0  0  0
    2.4795   -3.0403   -0.3130 C   0  0  1  0  0  0  0  0  0  0  0  0
    2.3362   -4.4042   -0.5824 O   0  0  0  0  0  0  0  0  0  0  0  0
    3.4433   -2.5655    0.8205 C   0  0  2  0  0  0  0  0  0  0  0  0
    2.7805   -1.3141    1.4863 C   0  0  0  0  0  0  0  0  0  0  0  0
    4.0198   -3.6150    1.9341 C   0  0  1  0  0  0  0  0  0  0  0  0
    4.6042   -4.9390    1.2600 C   0  0  1  0  0  0  0  0  0  0  0  0
    6.0072   -5.1314    1.4054 O   0  0  0  0  0  0  0  0  0  0  0  0
    3.9073   -6.1553    1.8844 C   0  0  0  0  0  0  0  0  0  0  0  0
    3.3647   -5.5888    3.1671 C   0  0  0  0  0  0  0  0  0  0  0  0
    3.3150   -6.2129    4.2404 O   0  0  0  0  0  0  0  0  0  0  0  0
    2.9430   -4.1399    3.0080 C   0  0  1  0  0  0  0  0  0  0  0  0
    1.5081   -4.2838    2.5473 C   0  0  0  0  0  0  0  0  0  0  0  0
    4.0849   -2.4879   -2.5150 C   0  0  0  0  0  0  0  0  0  0  0  0
    3.9019   -1.9188   -3.9016 C   0  0  0  0  0  0  0  0  0  0  0  0
    4.8793   -3.7514   -2.5551 C   0  0  0  0  0  0  0  0  0  0  0  0
    5.2443   -0.2651    5.5904 H   0  0  0  0  0  0  0  0  0  0  0  0
    3.7591    0.4278    4.9428 H   0  0  0  0  0  0  0  0  0  0  0  0
    4.8219   -0.4995    3.9031 H   0  0  0  0  0  0  0  0  0  0  0  0
    3.7968   -1.3354    7.4317 H   0  0  0  0  0  0  0  0  0  0  0  0
    2.4273   -2.3554    7.0061 H   0  0  0  0  0  0  0  0  0  0  0  0
    2.3753   -0.6234    6.6823 H   0  0  0  0  0  0  0  0  0  0  0  0
    2.3136   -3.9105    5.1115 H   0  0  0  0  0  0  0  0  0  0  0  0
    4.3390   -3.6204    5.9743 H   0  0  0  0  0  0  0  0  0  0  0  0
    6.2132   -2.6162    4.5040 H   0  0  0  0  0  0  0  0  0  0  0  0
    5.1440   -5.2194    4.3986 H   0  0  0  0  0  0  0  0  0  0  0  0
    6.7577   -1.5156    2.4779 H   0  0  0  0  0  0  0  0  0  0  0  0
    6.5441   -1.2507   -0.0004 H   0  0  0  0  0  0  0  0  0  0  0  0
    4.1190   -0.4901   -1.4917 H   0  0  0  0  0  0  0  0  0  0  0  0
    2.0671   -2.0274   -2.2962 H   0  0  0  0  0  0  0  0  0  0  0  0
    1.4835   -2.7248   -0.0140 H   0  0  0  0  0  0  0  0  0  0  0  0
    2.9635   -4.6081   -1.2709 H   0  0  0  0  0  0  0  0  0  0  0  0
    1.8409   -1.4996    1.9998 H   0  0  0  0  0  0  0  0  0  0  0  0
    2.5333   -0.5553    0.7324 H   0  0  0  0  0  0  0  0  0  0  0  0
    3.4456   -0.8257    2.1971 H   0  0  0  0  0  0  0  0  0  0  0  0
    4.4590   -4.9942    0.1959 H   0  0  0  0  0  0  0  0  0  0  0  0
    6.2270   -5.0626    2.3297 H   0  0  0  0  0  0  0  0  0  0  0  0
    3.0604   -6.4704    1.2672 H   0  0  0  0  0  0  0  0  0  0  0  0
    4.5576   -7.0177    2.0409 H   0  0  0  0  0  0  0  0  0  0  0  0
    1.0670   -3.3005    2.4553 H   0  0  0  0  0  0  0  0  0  0  0  0
    0.8805   -4.7987    3.2792 H   0  0  0  0  0  0  0  0  0  0  0  0
    1.4264   -4.8542    1.6196 H   0  0  0  0  0  0  0  0  0  0  0  0
    3.3625   -2.6216   -4.5354 H   0  0  0  0  0  0  0  0  0  0  0  0
    4.8618   -1.6755   -4.3343 H   0  0  0  0  0  0  0  0  0  0  0  0
    3.3124   -1.0043   -3.8717 H   0  0  0  0  0  0  0  0  0  0  0  0
    4.2764   -4.5199   -3.0412 H   0  0  0  0  0  0  0  0  0  0  0  0
    5.1210   -4.0335   -1.5300 H   0  0  0  0  0  0  0  0  0  0  0  0
    5.8020   -3.5867   -3.1203 H   0  0  0  0  0  0  0  0  0  0  0  0
  1  2  1  0
  1 30  1  0
  1 31  1  0
  1 32  1  0
  2  6  1  0
  2  3  1  0
  2  4  1  0
  3 33  1  0
  3 34  1  0
  3 35  1  0
  4  5  1  0
  5 25  1  0
  5  6  1  0
  5 36  1  1
  6  7  1  0
  6 37  1  1
  7  8  1  0
  7  9  1  0
  7 38  1  1
  8 39  1  0
 19  9  1  1
  9 10  2  0
 10 11  1  0
 10 40  1  0
 11 12  2  0
 11 41  1  0
 12 17  1  0
 12 13  1  0
 13 27  1  0
 13 14  1  0
 13 42  1  6
 14 15  1  0
 14 27  1  0
 14 43  1  6
 15 16  1  0
 15 17  1  0
 15 44  1  1
 16 45  1  0
 17 18  1  1
 17 19  1  0
 18 46  1  0
 18 47  1  0
 18 48  1  0
 19 25  1  0
 19 20  1  0
 20 21  1  0
 20 22  1  0
 20 49  1  6
 21 50  1  0
 22 23  1  0
 22 51  1  0
 22 52  1  0
 23 24  2  0
 23 25  1  0
 25 26  1  6
 26 53  1  0
 26 54  1  0
 26 55  1  0
 27 28  1  0
 27 29  1  0
 28 56  1  0
 28 57  1  0
 28 58  1  0
 29 59  1  0
 29 60  1  0
 29 61  1  0
M  END
>  <i_m_ct_stereo_status>  (201) 
1

>  <s_m_source_file>  (201) 
/var/tmp/pbs.5076255.sched01/tmpnszqc94g/84e4epk0lh.sdf

>  <i_m_source_file_index>  (201) 
14

>  <i_lp_mmshare_version>  (201) 
48012

>  <i_f3d_flags>  (201) 
2

>  <s_epik_input>  (201) 
W09IXVtDQEhdMVtDSDJdQyg9TylbQ0BdMihbQ0gzXSlbQ0BASF0oT0MzKFtDSDNdKVtDSDNdKVtDQEhdM1tDQEBIXShbT0hdKUMoW0NAQF0xMjQpPVtDSF1bQ0hdPUM1W0NASF02W0NAQEhdKEM2KFtDSDNdKVtDSDNdKVtDQEBIXShbT0hdKVtDQEBdNDVbQ0gzXQ==

>  <s_epik_cmdline>  (201) 
J2VwaWtfcHl0aG9uJywgJy1waHQnLCAnMi4wJywgJy1waCcsICc3LjAnLCAnLXRuJywgJzgnLCAnLW1hJywgJzIwMCcsICctaW1hZScsICc8aW5maWxlLm1hZT4nLCAnLW9tYWUnLCAnPG91dGZpbGUubWFlPic=

>  <r_lp_tautomer_probability>  (201) 
1

>  <r_epik_Ionization_Penalty>  (201) 
5.54836e-07

>  <r_epik_Ionization_Penalty_Charging>  (201) 
0

>  <r_epik_Ionization_Penalty_Neutral>  (201) 
5.54836e-07

>  <r_epik_State_Penalty>  (201) 
-0

>  <r_epik_Charging_Adjusted_Penalty>  (201) 
0

>  <i_epik_Tot_Q>  (201) 
0

>  <i_epik_Tot_abs_Q>  (201) 
0

>  <s_lp_Force_Field>  (201) 
OPLS3e

>  <r_lp_Energy>  (201) 
60.8224

>  <b_lp_Chiralities_Consistent>  (201) 
0

>  <s_lp_Variant>  (201) 
67:0-1

>  <s_i_glide_gridfile>  (201) 
pfpi4k_grid

>  <i_i_glide_lignum>  (201) 
14

>  <i_i_glide_rotatable_bonds>  (201) 
3

>  <r_i_docking_score>  (201) 
-2.81968

>  <r_i_glide_ligand_efficiency>  (201) 
-0.0972304

>  <r_i_glide_ligand_efficiency_sa>  (201) 
-0.298723

>  <r_i_glide_ligand_efficiency_ln>  (201) 
-0.645635

>  <r_i_glide_gscore>  (201) 
-2.81968

>  <r_i_glide_lipo>  (201) 
-0.485077

>  <r_i_glide_hbond>  (201) 
-0.186844

>  <r_i_glide_metal>  (201) 
-0

>  <r_i_glide_rewards>  (201) 
-1.17836

>  <r_i_glide_evdw>  (201) 
-10.9399

>  <r_i_glide_ecoul>  (201) 
-2.81607

>  <r_i_glide_erotb>  (201) 
0

>  <r_i_glide_esite>  (201) 
0

>  <r_i_glide_emodel>  (201) 
-19.8879

>  <r_i_glide_energy>  (201) 
-13.756

>  <r_i_glide_einternal>  (201) 
0.5459

>  <r_i_glide_intrahb_reward>  (201) 
-0.5

>  <i_i_glide_confnum>  (201) 
1

>  <i_i_glide_posenum>  (201) 
8

>  <r_i_glide_eff_state_penalty>  (201) 
0

>  <ligand_id>  (201) 
67

>  <original_smiles>  (201) 
CC1(C)OC2C1C(O)C1=CC=C3C4C(C(O)C3(C)C13C(O)CC(=O)C23C)C4(C)C

>  <smiles>  (201) 
[H]OC1([H])C2=C([H])C([H])=C3C4([H])C([H])(C([H])(O[H])C3(C([H])([H])[H])C23C([H])(O[H])C([H])([H])C(=O)C3(C([H])([H])[H])C2([H])OC(C([H])([H])[H])(C([H])([H])[H])C12[H])C4(C([H])([H])[H])C([H])([H])[H]

$$$$
67:0:2
     RDKit          3D

 61 66  0  0  1  0  0  0  0  0999 V2000
    1.9642   -3.7919    5.9671 C   0  0  0  0  0  0  0  0  0  0  0  0
    1.9282   -5.2694    5.5762 C   0  0  0  0  0  0  0  0  0  0  0  0
    0.8925   -5.9834    6.4534 C   0  0  0  0  0  0  0  0  0  0  0  0
    1.5435   -5.4163    4.1776 O   0  0  0  0  0  0  0  0  0  0  0  0
    2.5648   -6.4375    4.0054 C   0  0  2  0  0  0  0  0  0  0  0  0
    3.2454   -6.0053    5.2867 C   0  0  1  0  0  0  0  0  0  0  0  0
    4.5528   -5.2295    5.1444 C   0  0  1  0  0  0  0  0  0  0  0  0
    5.6220   -6.1405    5.2751 O   0  0  0  0  0  0  0  0  0  0  0  0
    4.6407   -4.4133    3.8437 C   0  0  0  0  0  0  0  0  0  0  0  0
    5.0025   -3.1140    3.9101 C   0  0  0  0  0  0  0  0  0  0  0  0
    5.0568   -2.2649    2.7387 C   0  0  0  0  0  0  0  0  0  0  0  0
    4.3820   -2.6162    1.6309 C   0  0  0  0  0  0  0  0  0  0  0  0
    4.2322   -1.8411    0.3772 C   0  0  2  0  0  0  0  0  0  0  0  0
    3.6618   -2.7672   -0.6637 C   0  0  2  0  0  0  0  0  0  0  0  0
    3.4007   -4.1208   -0.0012 C   0  0  1  0  0  0  0  0  0  0  0  0
    4.2118   -5.0571   -0.6626 O   0  0  0  0  0  0  0  0  0  0  0  0
    3.5928   -3.9148    1.5506 C   0  0  2  0  0  0  0  0  0  0  0  0
    2.2106   -3.4670    2.0979 C   0  0  0  0  0  0  0  0  0  0  0  0
    4.2589   -5.0710    2.4693 C   0  0  1  0  0  0  0  0  0  0  0  0
    5.6206   -5.6297    1.8519 C   0  0  1  0  0  0  0  0  0  0  0  0
    6.7822   -5.4374    2.6403 O   0  0  0  0  0  0  0  0  0  0  0  0
    5.5246   -7.1425    1.6963 C   0  0  0  0  0  0  0  0  0  0  0  0
    4.4079   -7.4649    2.6442 C   0  0  0  0  0  0  0  0  0  0  0  0
    4.3815   -8.5023    3.3297 O   0  0  0  0  0  0  0  0  0  0  0  0
    3.3453   -6.3748    2.6686 C   0  0  1  0  0  0  0  0  0  0  0  0
    2.4236   -6.7910    1.4907 C   0  0  0  0  0  0  0  0  0  0  0  0
    4.9932   -2.0723   -0.8930 C   0  0  0  0  0  0  0  0  0  0  0  0
    5.0282   -0.9923   -1.9552 C   0  0  0  0  0  0  0  0  0  0  0  0
    6.3328   -2.7814   -0.8394 C   0  0  0  0  0  0  0  0  0  0  0  0
    2.3198   -3.6690    6.9890 H   0  0  0  0  0  0  0  0  0  0  0  0
    0.9761   -3.3306    5.9008 H   0  0  0  0  0  0  0  0  0  0  0  0
    2.6261   -3.2103    5.3316 H   0  0  0  0  0  0  0  0  0  0  0  0
    1.1795   -5.9396    7.5024 H   0  0  0  0  0  0  0  0  0  0  0  0
    0.7826   -7.0363    6.1961 H   0  0  0  0  0  0  0  0  0  0  0  0
   -0.0913   -5.5217    6.3691 H   0  0  0  0  0  0  0  0  0  0  0  0
    2.1135   -7.4169    4.1632 H   0  0  0  0  0  0  0  0  0  0  0  0
    3.3222   -6.8428    5.9774 H   0  0  0  0  0  0  0  0  0  0  0  0
    4.6499   -4.5473    5.9880 H   0  0  0  0  0  0  0  0  0  0  0  0
    5.5572   -6.7900    4.5914 H   0  0  0  0  0  0  0  0  0  0  0  0
    5.2582   -2.6809    4.8686 H   0  0  0  0  0  0  0  0  0  0  0  0
    5.5974   -1.3302    2.7593 H   0  0  0  0  0  0  0  0  0  0  0  0
    3.7377   -0.8990    0.5235 H   0  0  0  0  0  0  0  0  0  0  0  0
    2.8371   -2.4002   -1.2641 H   0  0  0  0  0  0  0  0  0  0  0  0
    2.3670   -4.4195   -0.2180 H   0  0  0  0  0  0  0  0  0  0  0  0
    3.7691   -5.3408   -1.4614 H   0  0  0  0  0  0  0  0  0  0  0  0
    1.4455   -4.2267    2.0484 H   0  0  0  0  0  0  0  0  0  0  0  0
    1.8219   -2.6058    1.5477 H   0  0  0  0  0  0  0  0  0  0  0  0
    2.2628   -3.1522    3.1392 H   0  0  0  0  0  0  0  0  0  0  0  0
    5.8884   -5.1963    0.9010 H   0  0  0  0  0  0  0  0  0  0  0  0
    7.5296   -5.7695    2.1671 H   0  0  0  0  0  0  0  0  0  0  0  0
    5.2213   -7.4038    0.6837 H   0  0  0  0  0  0  0  0  0  0  0  0
    6.4540   -7.6759    1.9269 H   0  0  0  0  0  0  0  0  0  0  0  0
    1.5745   -6.1416    1.3366 H   0  0  0  0  0  0  0  0  0  0  0  0
    2.0047   -7.7817    1.6665 H   0  0  0  0  0  0  0  0  0  0  0  0
    2.9669   -6.8572    0.5520 H   0  0  0  0  0  0  0  0  0  0  0  0
    5.1853   -1.4408   -2.9338 H   0  0  0  0  0  0  0  0  0  0  0  0
    5.8040   -0.2734   -1.7493 H   0  0  0  0  0  0  0  0  0  0  0  0
    4.0840   -0.4516   -1.9875 H   0  0  0  0  0  0  0  0  0  0  0  0
    6.4466   -3.4353   -1.7046 H   0  0  0  0  0  0  0  0  0  0  0  0
    6.3919   -3.3716    0.0634 H   0  0  0  0  0  0  0  0  0  0  0  0
    7.1546   -2.0626   -0.8023 H   0  0  0  0  0  0  0  0  0  0  0  0
  1  2  1  0
  1 30  1  0
  1 31  1  0
  1 32  1  0
  2  6  1  0
  2  3  1  0
  2  4  1  0
  3 33  1  0
  3 34  1  0
  3 35  1  0
  4  5  1  0
  5 25  1  0
  5  6  1  0
  5 36  1  1
  6  7  1  0
  6 37  1  1
  7  8  1  0
  7  9  1  0
  7 38  1  1
  8 39  1  0
 19  9  1  1
  9 10  2  0
 10 11  1  0
 10 40  1  0
 11 12  2  0
 11 41  1  0
 12 17  1  0
 12 13  1  0
 13 27  1  0
 13 14  1  0
 13 42  1  1
 14 15  1  0
 14 27  1  0
 14 43  1  6
 15 16  1  0
 15 17  1  0
 15 44  1  1
 16 45  1  0
 17 18  1  1
 17 19  1  0
 18 46  1  0
 18 47  1  0
 18 48  1  0
 19 25  1  0
 19 20  1  0
 20 21  1  0
 20 22  1  0
 20 49  1  6
 21 50  1  0
 22 23  1  0
 22 51  1  0
 22 52  1  0
 23 24  2  0
 23 25  1  0
 25 26  1  6
 26 53  1  0
 26 54  1  0
 26 55  1  0
 27 28  1  0
 27 29  1  0
 28 56  1  0
 28 57  1  0
 28 58  1  0
 29 59  1  0
 29 60  1  0
 29 61  1  0
M  END
>  <i_m_ct_stereo_status>  (202) 
1

>  <s_m_source_file>  (202) 
/var/tmp/pbs.5076255.sched01/tmpnszqc94g/84e4epk0lh.sdf

>  <i_m_source_file_index>  (202) 
14

>  <i_lp_mmshare_version>  (202) 
48012

>  <i_f3d_flags>  (202) 
2

>  <s_epik_input>  (202) 
W09IXVtDQEhdMVtDSDJdQyg9TylbQ0BdMihbQ0gzXSlbQ0BASF0oT0MzKFtDSDNdKVtDSDNdKVtDQEhdM1tDQEBIXShbT0hdKUMoW0NAQF0xMjQpPVtDSF1bQ0hdPUM1W0NASF02W0NAQEhdKEM2KFtDSDNdKVtDSDNdKVtDQEBIXShbT0hdKVtDQEBdNDVbQ0gzXQ==

>  <s_epik_cmdline>  (202) 
J2VwaWtfcHl0aG9uJywgJy1waHQnLCAnMi4wJywgJy1waCcsICc3LjAnLCAnLXRuJywgJzgnLCAnLW1hJywgJzIwMCcsICctaW1hZScsICc8aW5maWxlLm1hZT4nLCAnLW9tYWUnLCAnPG91dGZpbGUubWFlPic=

>  <r_lp_tautomer_probability>  (202) 
1

>  <r_epik_Ionization_Penalty>  (202) 
5.54836e-07

>  <r_epik_Ionization_Penalty_Charging>  (202) 
0

>  <r_epik_Ionization_Penalty_Neutral>  (202) 
5.54836e-07

>  <r_epik_State_Penalty>  (202) 
-0

>  <r_epik_Charging_Adjusted_Penalty>  (202) 
0

>  <i_epik_Tot_Q>  (202) 
0

>  <i_epik_Tot_abs_Q>  (202) 
0

>  <s_lp_Force_Field>  (202) 
OPLS3e

>  <r_lp_Energy>  (202) 
60.8224

>  <b_lp_Chiralities_Consistent>  (202) 
0

>  <s_lp_Variant>  (202) 
67:0-1

>  <s_i_glide_gridfile>  (202) 
pfpi4k_grid

>  <i_i_glide_lignum>  (202) 
14

>  <i_i_glide_rotatable_bonds>  (202) 
3

>  <r_i_docking_score>  (202) 
-2.68819

>  <r_i_glide_ligand_efficiency>  (202) 
-0.0926962

>  <r_i_glide_ligand_efficiency_sa>  (202) 
-0.284792

>  <r_i_glide_ligand_efficiency_ln>  (202) 
-0.615528

>  <r_i_glide_gscore>  (202) 
-2.68819

>  <r_i_glide_lipo>  (202) 
-0.243378

>  <r_i_glide_hbond>  (202) 
-0.32

>  <r_i_glide_metal>  (202) 
-0

>  <r_i_glide_rewards>  (202) 
-0.678355

>  <r_i_glide_evdw>  (202) 
-14.6851

>  <r_i_glide_ecoul>  (202) 
-4.74612

>  <r_i_glide_erotb>  (202) 
0

>  <r_i_glide_esite>  (202) 
-0.000282781

>  <r_i_glide_emodel>  (202) 
-21.5452

>  <r_i_glide_energy>  (202) 
-19.4313

>  <r_i_glide_einternal>  (202) 
1.09772

>  <r_i_glide_intrahb_reward>  (202) 
-0

>  <i_i_glide_confnum>  (202) 
2

>  <i_i_glide_posenum>  (202) 
36

>  <r_i_glide_eff_state_penalty>  (202) 
0

>  <ligand_id>  (202) 
67

>  <original_smiles>  (202) 
CC1(C)OC2C1C(O)C1=CC=C3C4C(C(O)C3(C)C13C(O)CC(=O)C23C)C4(C)C

>  <smiles>  (202) 
[H]OC1([H])C2=C([H])C([H])=C3C4([H])C([H])(C([H])(O[H])C3(C([H])([H])[H])C23C([H])(O[H])C([H])([H])C(=O)C3(C([H])([H])[H])C2([H])OC(C([H])([H])[H])(C([H])([H])[H])C12[H])C4(C([H])([H])[H])C([H])([H])[H]

$$$$
68:0:0
     RDKit          3D

 32 35  0  0  1  0  0  0  0  0999 V2000
   -9.5018   -7.7443  -11.3010 O   0  0  0  0  0  0  0  0  0  0  0  0
   -9.0191   -6.6685  -10.8764 C   0  0  0  0  0  0  0  0  0  0  0  0
   -9.2478   -5.5454  -11.3814 O   0  0  0  0  0  0  0  0  0  0  0  0
   -8.0969   -6.7023   -9.6360 C   0  0  2  0  0  0  0  0  0  0  0  0
   -7.2910   -8.0436   -9.5008 C   0  0  0  0  0  0  0  0  0  0  0  0
   -7.6232   -8.7233   -8.1523 C   0  0  2  0  0  0  0  0  0  0  0  0
   -9.1312   -8.9097   -8.0795 C   0  0  0  0  0  0  0  0  0  0  0  0
   -9.8148  -10.1331   -7.9582 C   0  0  0  0  0  0  0  0  0  0  0  0
  -11.2248  -10.1190   -7.9210 C   0  0  0  0  0  0  0  0  0  0  0  0
  -11.9324   -8.8957   -8.0072 C   0  0  0  0  0  0  0  0  0  0  0  0
  -11.2422   -7.6739   -8.1345 C   0  0  0  0  0  0  0  0  0  0  0  0
   -9.8352   -7.6998   -8.1627 C   0  0  0  0  0  0  0  0  0  0  0  0
   -8.9149   -6.4966   -8.3212 C   0  0  1  0  0  0  0  0  0  0  0  0
   -7.9342   -6.5184   -7.1283 C   0  0  0  0  0  0  0  0  0  0  0  0
   -7.7725   -5.4678   -6.2132 C   0  0  0  0  0  0  0  0  0  0  0  0
   -6.8250   -5.7447   -5.1941 C   0  0  0  0  0  0  0  0  0  0  0  0
   -6.1118   -6.9740   -5.1128 C   0  0  0  0  0  0  0  0  0  0  0  0
   -6.2890   -8.0325   -6.0386 C   0  0  0  0  0  0  0  0  0  0  0  0
   -7.2238   -7.7443   -7.0403 C   0  0  0  0  0  0  0  0  0  0  0  0
   -7.3952   -5.8748   -9.7371 H   0  0  0  0  0  0  0  0  0  0  0  0
   -7.4977   -8.7417  -10.3118 H   0  0  0  0  0  0  0  0  0  0  0  0
   -6.2189   -7.8521   -9.5609 H   0  0  0  0  0  0  0  0  0  0  0  0
   -7.1068   -9.6731   -8.0454 H   0  0  0  0  0  0  0  0  0  0  0  0
   -9.2692  -11.0610   -7.9023 H   0  0  0  0  0  0  0  0  0  0  0  0
  -11.7699  -11.0463   -7.8226 H   0  0  0  0  0  0  0  0  0  0  0  0
  -13.0105   -8.8898   -7.9769 H   0  0  0  0  0  0  0  0  0  0  0  0
  -11.7786   -6.7385   -8.2103 H   0  0  0  0  0  0  0  0  0  0  0  0
   -9.4856   -5.5684   -8.3292 H   0  0  0  0  0  0  0  0  0  0  0  0
   -8.3248   -4.5385   -6.2688 H   0  0  0  0  0  0  0  0  0  0  0  0
   -6.6372   -4.9894   -4.4426 H   0  0  0  0  0  0  0  0  0  0  0  0
   -5.4069   -7.1132   -4.3048 H   0  0  0  0  0  0  0  0  0  0  0  0
   -5.7598   -8.9739   -5.9687 H   0  0  0  0  0  0  0  0  0  0  0  0
  1  2  2  0
  2  3  1  0
  2  4  1  0
  4 13  1  0
  4  5  1  0
  4 20  1  6
  5  6  1  0
  5 21  1  0
  5 22  1  0
  6 19  1  0
  6  7  1  0
  6 23  1  1
  7 12  2  0
  7  8  1  0
  8  9  2  0
  8 24  1  0
  9 10  1  0
  9 25  1  0
 10 11  2  0
 10 26  1  0
 11 12  1  0
 11 27  1  0
 12 13  1  0
 13 14  1  0
 13 28  1  6
 14 19  2  0
 14 15  1  0
 15 16  2  0
 15 29  1  0
 16 17  1  0
 16 30  1  0
 17 18  2  0
 17 31  1  0
 18 19  1  0
 18 32  1  0
M  CHG  1   3  -1
M  END
>  <i_m_ct_stereo_status>  (203) 
1

>  <s_m_source_file>  (203) 
/var/tmp/pbs.5076255.sched01/tmpnszqc94g/84e4epk0lh.sdf

>  <i_m_source_file_index>  (203) 
15

>  <i_lp_mmshare_version>  (203) 
48012

>  <i_f3d_flags>  (203) 
0

>  <s_epik_input>  (203) 
W2NIXTFbY0hdW2NIXVtjSF1jKGMxW0NAQEhdMjMpW0NASF0oW0NAQEhdKFtDSDJdMilDKD1PKVtPSF0pYzRjM1tjSF1bY0hdW2NIXVtjSF00

>  <s_epik_cmdline>  (203) 
J2VwaWtfcHl0aG9uJywgJy1waHQnLCAnMi4wJywgJy1waCcsICc3LjAnLCAnLXRuJywgJzgnLCAnLW1hJywgJzIwMCcsICctaW1hZScsICc8aW5maWxlLm1hZT4nLCAnLW9tYWUnLCAnPG91dGZpbGUubWFlPic=

>  <r_epik_Ionization_Penalty>  (203) 
0.00181875

>  <r_epik_Ionization_Penalty_Charging>  (203) 
0.00181875

>  <r_epik_Ionization_Penalty_Neutral>  (203) 
0

>  <r_epik_State_Penalty>  (203) 
0.00123443

>  <r_epik_Charging_Adjusted_Penalty>  (203) 
0.00305318

>  <i_epik_Tot_Q>  (203) 
-1

>  <i_epik_Tot_abs_Q>  (203) 
1

>  <s_lp_Force_Field>  (203) 
OPLS3e

>  <r_lp_Energy>  (203) 
45.8772

>  <b_lp_Chiralities_Consistent>  (203) 
1

>  <s_lp_Variant>  (203) 
68:0-1

>  <s_i_glide_gridfile>  (203) 
pfpi4k_grid

>  <i_i_glide_lignum>  (203) 
15

>  <i_i_glide_rotatable_bonds>  (203) 
1

>  <r_i_docking_score>  (203) 
-6.2337

>  <r_i_glide_ligand_efficiency>  (203) 
-0.328089

>  <r_i_glide_ligand_efficiency_sa>  (203) 
-0.875474

>  <r_i_glide_ligand_efficiency_ln>  (203) 
-1.58038

>  <r_i_glide_gscore>  (203) 
-6.2337

>  <r_i_glide_lipo>  (203) 
-2.2688

>  <r_i_glide_hbond>  (203) 
0

>  <r_i_glide_metal>  (203) 
-0

>  <r_i_glide_rewards>  (203) 
-2.53521

>  <r_i_glide_evdw>  (203) 
-24.6111

>  <r_i_glide_ecoul>  (203) 
-1.32752

>  <r_i_glide_erotb>  (203) 
0

>  <r_i_glide_esite>  (203) 
0

>  <r_i_glide_emodel>  (203) 
-37.448

>  <r_i_glide_energy>  (203) 
-25.9387

>  <r_i_glide_einternal>  (203) 
0.521638

>  <r_i_glide_intrahb_reward>  (203) 
-0

>  <i_i_glide_confnum>  (203) 
1

>  <i_i_glide_posenum>  (203) 
32

>  <r_i_glide_eff_state_penalty>  (203) 
0

>  <ligand_id>  (203) 
68

>  <original_smiles>  (203) 
O=C(O)C1CC2c3ccccc3C1c1ccccc12

>  <smiles>  (203) 
[H]c1c([H])c([H])c2c(c1[H])C1([H])c3c([H])c([H])c([H])c([H])c3C2([H])C([H])(C(=O)[O-])C1([H])[H]

$$$$
68:0:1
     RDKit          3D

 32 35  0  0  1  0  0  0  0  0999 V2000
   -8.7373   -7.8399  -10.9874 O   0  0  0  0  0  0  0  0  0  0  0  0
   -8.2208   -8.6189  -10.1330 C   0  0  0  0  0  0  0  0  0  0  0  0
   -8.2564   -9.8634  -10.2192 O   0  0  0  0  0  0  0  0  0  0  0  0
   -7.5091   -7.9423   -8.9353 C   0  0  2  0  0  0  0  0  0  0  0  0
   -6.1071   -8.5686   -8.6506 C   0  0  0  0  0  0  0  0  0  0  0  0
   -5.9613   -9.1026   -7.2265 C   0  0  2  0  0  0  0  0  0  0  0  0
   -7.0943  -10.0881   -7.0076 C   0  0  0  0  0  0  0  0  0  0  0  0
   -6.9702  -11.4546   -6.7172 C   0  0  0  0  0  0  0  0  0  0  0  0
   -8.1253  -12.2494   -6.6280 C   0  0  0  0  0  0  0  0  0  0  0  0
   -9.4041  -11.6571   -6.8242 C   0  0  0  0  0  0  0  0  0  0  0  0
   -9.5115  -10.2891   -7.1258 C   0  0  0  0  0  0  0  0  0  0  0  0
   -8.3503   -9.5045   -7.2047 C   0  0  0  0  0  0  0  0  0  0  0  0
   -8.2762   -8.0280   -7.6010 C   0  0  1  0  0  0  0  0  0  0  0  0
   -7.4254   -7.3028   -6.5382 C   0  0  0  0  0  0  0  0  0  0  0  0
   -7.8658   -6.1841   -5.8222 C   0  0  0  0  0  0  0  0  0  0  0  0
   -6.9448   -5.7551   -4.8341 C   0  0  0  0  0  0  0  0  0  0  0  0
   -5.6812   -6.3719   -4.6399 C   0  0  0  0  0  0  0  0  0  0  0  0
   -5.2339   -7.4959   -5.3699 C   0  0  0  0  0  0  0  0  0  0  0  0
   -6.1722   -7.9218   -6.3127 C   0  0  0  0  0  0  0  0  0  0  0  0
   -7.3892   -6.8860   -9.1959 H   0  0  0  0  0  0  0  0  0  0  0  0
   -5.9772   -9.4528   -9.2468 H   0  0  0  0  0  0  0  0  0  0  0  0
   -5.2999   -7.8631   -8.8708 H   0  0  0  0  0  0  0  0  0  0  0  0
   -4.9945   -9.5934   -7.0658 H   0  0  0  0  0  0  0  0  0  0  0  0
   -6.0063  -11.8982   -6.5831 H   0  0  0  0  0  0  0  0  0  0  0  0
   -8.0553  -13.2963   -6.3738 H   0  0  0  0  0  0  0  0  0  0  0  0
  -10.3029  -12.2488   -6.7429 H   0  0  0  0  0  0  0  0  0  0  0  0
  -10.4700   -9.8491   -7.3078 H   0  0  0  0  0  0  0  0  0  0  0  0
   -9.2786   -7.5914   -7.6813 H   0  0  0  0  0  0  0  0  0  0  0  0
   -8.8561   -5.7584   -5.9456 H   0  0  0  0  0  0  0  0  0  0  0  0
   -7.2376   -4.9481   -4.1796 H   0  0  0  0  0  0  0  0  0  0  0  0
   -5.0253   -5.9783   -3.8897 H   0  0  0  0  0  0  0  0  0  0  0  0
   -4.2832   -7.9826   -5.2057 H   0  0  0  0  0  0  0  0  0  0  0  0
  1  2  2  0
  2  3  1  0
  2  4  1  0
  4 13  1  0
  4  5  1  0
  4 20  1  6
  5  6  1  0
  5 21  1  0
  5 22  1  0
  6 19  1  0
  6  7  1  0
  6 23  1  6
  7 12  2  0
  7  8  1  0
  8  9  2  0
  8 24  1  0
  9 10  1  0
  9 25  1  0
 10 11  2  0
 10 26  1  0
 11 12  1  0
 11 27  1  0
 12 13  1  0
 13 14  1  0
 13 28  1  6
 14 19  2  0
 14 15  1  0
 15 16  2  0
 15 29  1  0
 16 17  1  0
 16 30  1  0
 17 18  2  0
 17 31  1  0
 18 19  1  0
 18 32  1  0
M  CHG  1   3  -1
M  END
>  <i_m_ct_stereo_status>  (204) 
1

>  <s_m_source_file>  (204) 
/var/tmp/pbs.5076255.sched01/tmpnszqc94g/84e4epk0lh.sdf

>  <i_m_source_file_index>  (204) 
15

>  <i_lp_mmshare_version>  (204) 
48012

>  <i_f3d_flags>  (204) 
0

>  <s_epik_input>  (204) 
W2NIXTFbY0hdW2NIXVtjSF1jKGMxW0NAQEhdMjMpW0NASF0oW0NAQEhdKFtDSDJdMilDKD1PKVtPSF0pYzRjM1tjSF1bY0hdW2NIXVtjSF00

>  <s_epik_cmdline>  (204) 
J2VwaWtfcHl0aG9uJywgJy1waHQnLCAnMi4wJywgJy1waCcsICc3LjAnLCAnLXRuJywgJzgnLCAnLW1hJywgJzIwMCcsICctaW1hZScsICc8aW5maWxlLm1hZT4nLCAnLW9tYWUnLCAnPG91dGZpbGUubWFlPic=

>  <r_epik_Ionization_Penalty>  (204) 
0.00181875

>  <r_epik_Ionization_Penalty_Charging>  (204) 
0.00181875

>  <r_epik_Ionization_Penalty_Neutral>  (204) 
0

>  <r_epik_State_Penalty>  (204) 
0.00123443

>  <r_epik_Charging_Adjusted_Penalty>  (204) 
0.00305318

>  <i_epik_Tot_Q>  (204) 
-1

>  <i_epik_Tot_abs_Q>  (204) 
1

>  <s_lp_Force_Field>  (204) 
OPLS3e

>  <r_lp_Energy>  (204) 
45.8772

>  <b_lp_Chiralities_Consistent>  (204) 
1

>  <s_lp_Variant>  (204) 
68:0-1

>  <s_i_glide_gridfile>  (204) 
pfpi4k_grid

>  <i_i_glide_lignum>  (204) 
15

>  <i_i_glide_rotatable_bonds>  (204) 
1

>  <r_i_docking_score>  (204) 
-6.20674

>  <r_i_glide_ligand_efficiency>  (204) 
-0.326671

>  <r_i_glide_ligand_efficiency_sa>  (204) 
-0.871688

>  <r_i_glide_ligand_efficiency_ln>  (204) 
-1.57354

>  <r_i_glide_gscore>  (204) 
-6.20674

>  <r_i_glide_lipo>  (204) 
-2.87698

>  <r_i_glide_hbond>  (204) 
0

>  <r_i_glide_metal>  (204) 
-0

>  <r_i_glide_rewards>  (204) 
-2.46529

>  <r_i_glide_evdw>  (204) 
-17.2331

>  <r_i_glide_ecoul>  (204) 
-0.0187451

>  <r_i_glide_erotb>  (204) 
0

>  <r_i_glide_esite>  (204) 
0

>  <r_i_glide_emodel>  (204) 
-28.1781

>  <r_i_glide_energy>  (204) 
-17.2518

>  <r_i_glide_einternal>  (204) 
1.10016

>  <r_i_glide_intrahb_reward>  (204) 
-0

>  <i_i_glide_confnum>  (204) 
1

>  <i_i_glide_posenum>  (204) 
22

>  <r_i_glide_eff_state_penalty>  (204) 
0

>  <ligand_id>  (204) 
68

>  <original_smiles>  (204) 
O=C(O)C1CC2c3ccccc3C1c1ccccc12

>  <smiles>  (204) 
[H]c1c([H])c([H])c2c(c1[H])C1([H])c3c([H])c([H])c([H])c([H])c3C2([H])C([H])(C(=O)[O-])C1([H])[H]

$$$$
68:0:2
     RDKit          3D

 32 35  0  0  1  0  0  0  0  0999 V2000
  -10.6994   -9.0012  -11.2502 O   0  0  0  0  0  0  0  0  0  0  0  0
   -9.5340   -9.0248  -10.7955 C   0  0  0  0  0  0  0  0  0  0  0  0
   -8.7280   -9.9735  -10.9220 O   0  0  0  0  0  0  0  0  0  0  0  0
   -9.0822   -7.8275   -9.9586 C   0  0  2  0  0  0  0  0  0  0  0  0
   -7.5571   -7.7981   -9.5811 C   0  0  0  0  0  0  0  0  0  0  0  0
   -7.4040   -7.8367   -8.0311 C   0  0  2  0  0  0  0  0  0  0  0  0
   -8.1403   -9.0728   -7.5341 C   0  0  0  0  0  0  0  0  0  0  0  0
   -7.5790  -10.1471   -6.8222 C   0  0  0  0  0  0  0  0  0  0  0  0
   -8.3900  -11.2467   -6.4981 C   0  0  0  0  0  0  0  0  0  0  0  0
   -9.7637  -11.2611   -6.8551 C   0  0  0  0  0  0  0  0  0  0  0  0
  -10.3271  -10.1604   -7.5359 C   0  0  0  0  0  0  0  0  0  0  0  0
   -9.4976   -9.0706   -7.8723 C   0  0  0  0  0  0  0  0  0  0  0  0
   -9.8995   -7.8214   -8.6575 C   0  0  1  0  0  0  0  0  0  0  0  0
   -9.4817   -6.5660   -7.8636 C   0  0  0  0  0  0  0  0  0  0  0  0
  -10.3706   -5.5664   -7.4492 C   0  0  0  0  0  0  0  0  0  0  0  0
   -9.7859   -4.5825   -6.6025 C   0  0  0  0  0  0  0  0  0  0  0  0
   -8.4110   -4.6081   -6.2263 C   0  0  0  0  0  0  0  0  0  0  0  0
   -7.5329   -5.6464   -6.6370 C   0  0  0  0  0  0  0  0  0  0  0  0
   -8.1304   -6.6033   -7.4684 C   0  0  0  0  0  0  0  0  0  0  0  0
   -9.3145   -6.9216  -10.5146 H   0  0  0  0  0  0  0  0  0  0  0  0
   -7.0239   -8.6553  -10.0127 H   0  0  0  0  0  0  0  0  0  0  0  0
   -7.0989   -6.8564   -9.9204 H   0  0  0  0  0  0  0  0  0  0  0  0
   -6.3679   -7.8530   -7.6850 H   0  0  0  0  0  0  0  0  0  0  0  0
   -6.5494  -10.1480   -6.5575 H   0  0  0  0  0  0  0  0  0  0  0  0
   -7.9819  -12.0788   -5.9457 H   0  0  0  0  0  0  0  0  0  0  0  0
  -10.3680  -12.1260   -6.5819 H   0  0  0  0  0  0  0  0  0  0  0  0
  -11.3630  -10.1705   -7.8158 H   0  0  0  0  0  0  0  0  0  0  0  0
  -10.9735   -7.8205   -8.8201 H   0  0  0  0  0  0  0  0  0  0  0  0
  -11.4344   -5.5884   -7.6710 H   0  0  0  0  0  0  0  0  0  0  0  0
  -10.4054   -3.7961   -6.1819 H   0  0  0  0  0  0  0  0  0  0  0  0
   -8.0182   -3.8216   -5.5885 H   0  0  0  0  0  0  0  0  0  0  0  0
   -6.4886   -5.6795   -6.3335 H   0  0  0  0  0  0  0  0  0  0  0  0
  1  2  2  0
  2  3  1  0
  2  4  1  0
  4 13  1  0
  4  5  1  0
  4 20  1  6
  5  6  1  0
  5 21  1  0
  5 22  1  0
  6 19  1  0
  6  7  1  0
  6 23  1  6
  7 12  2  0
  7  8  1  0
  8  9  2  0
  8 24  1  0
  9 10  1  0
  9 25  1  0
 10 11  2  0
 10 26  1  0
 11 12  1  0
 11 27  1  0
 12 13  1  0
 13 14  1  0
 13 28  1  6
 14 19  2  0
 14 15  1  0
 15 16  2  0
 15 29  1  0
 16 17  1  0
 16 30  1  0
 17 18  2  0
 17 31  1  0
 18 19  1  0
 18 32  1  0
M  CHG  1   3  -1
M  END
>  <i_m_ct_stereo_status>  (205) 
1

>  <s_m_source_file>  (205) 
/var/tmp/pbs.5076255.sched01/tmpnszqc94g/84e4epk0lh.sdf

>  <i_m_source_file_index>  (205) 
15

>  <i_lp_mmshare_version>  (205) 
48012

>  <i_f3d_flags>  (205) 
0

>  <s_epik_input>  (205) 
W2NIXTFbY0hdW2NIXVtjSF1jKGMxW0NAQEhdMjMpW0NASF0oW0NAQEhdKFtDSDJdMilDKD1PKVtPSF0pYzRjM1tjSF1bY0hdW2NIXVtjSF00

>  <s_epik_cmdline>  (205) 
J2VwaWtfcHl0aG9uJywgJy1waHQnLCAnMi4wJywgJy1waCcsICc3LjAnLCAnLXRuJywgJzgnLCAnLW1hJywgJzIwMCcsICctaW1hZScsICc8aW5maWxlLm1hZT4nLCAnLW9tYWUnLCAnPG91dGZpbGUubWFlPic=

>  <r_epik_Ionization_Penalty>  (205) 
0.00181875

>  <r_epik_Ionization_Penalty_Charging>  (205) 
0.00181875

>  <r_epik_Ionization_Penalty_Neutral>  (205) 
0

>  <r_epik_State_Penalty>  (205) 
0.00123443

>  <r_epik_Charging_Adjusted_Penalty>  (205) 
0.00305318

>  <i_epik_Tot_Q>  (205) 
-1

>  <i_epik_Tot_abs_Q>  (205) 
1

>  <s_lp_Force_Field>  (205) 
OPLS3e

>  <r_lp_Energy>  (205) 
45.8772

>  <b_lp_Chiralities_Consistent>  (205) 
1

>  <s_lp_Variant>  (205) 
68:0-1

>  <s_i_glide_gridfile>  (205) 
pfpi4k_grid

>  <i_i_glide_lignum>  (205) 
15

>  <i_i_glide_rotatable_bonds>  (205) 
1

>  <r_i_docking_score>  (205) 
-5.07729

>  <r_i_glide_ligand_efficiency>  (205) 
-0.267226

>  <r_i_glide_ligand_efficiency_sa>  (205) 
-0.713066

>  <r_i_glide_ligand_efficiency_ln>  (205) 
-1.2872

>  <r_i_glide_gscore>  (205) 
-5.07729

>  <r_i_glide_lipo>  (205) 
-1.97133

>  <r_i_glide_hbond>  (205) 
0

>  <r_i_glide_metal>  (205) 
-0

>  <r_i_glide_rewards>  (205) 
-2.18107

>  <r_i_glide_evdw>  (205) 
-18.4502

>  <r_i_glide_ecoul>  (205) 
-0.0159107

>  <r_i_glide_erotb>  (205) 
0

>  <r_i_glide_esite>  (205) 
0

>  <r_i_glide_emodel>  (205) 
-26.317

>  <r_i_glide_energy>  (205) 
-18.4661

>  <r_i_glide_einternal>  (205) 
3.03879

>  <r_i_glide_intrahb_reward>  (205) 
-0

>  <i_i_glide_confnum>  (205) 
2

>  <i_i_glide_posenum>  (205) 
20

>  <r_i_glide_eff_state_penalty>  (205) 
0

>  <ligand_id>  (205) 
68

>  <original_smiles>  (205) 
O=C(O)C1CC2c3ccccc3C1c1ccccc12

>  <smiles>  (205) 
[H]c1c([H])c([H])c2c(c1[H])C1([H])c3c([H])c([H])c([H])c([H])c3C2([H])C([H])(C(=O)[O-])C1([H])[H]

$$$$
69:0:0
     RDKit          3D

 29 32  0  0  1  0  0  0  0  0999 V2000
    3.8511   -0.7560    1.5807 C   0  0  0  0  0  0  0  0  0  0  0  0
    4.7315   -0.6901    2.5724 N   0  0  0  0  0  0  0  0  0  0  0  0
    5.9216   -1.0058    1.9607 N   0  0  0  0  0  0  0  0  0  0  0  0
    5.7575   -1.2091    0.6873 N   0  0  0  0  0  0  0  0  0  0  0  0
    4.4220   -1.0771    0.4342 N   0  0  0  0  0  0  0  0  0  0  0  0
    3.8213   -1.3557   -0.8687 C   0  0  2  0  0  0  0  0  0  0  0  0
    3.3120   -2.8101   -0.9952 C   0  0  1  0  0  0  0  0  0  0  0  0
    2.5716   -2.9900   -2.3486 C   0  0  0  0  0  0  0  0  0  0  0  0
    3.5125   -2.6706   -3.5333 C   0  0  2  0  0  0  0  0  0  0  0  0
    4.7301   -3.6054   -3.4633 C   0  0  0  0  0  0  0  0  0  0  0  0
    5.4461   -3.3638   -2.1289 C   0  0  2  0  0  0  0  0  0  0  0  0
    4.5302   -3.7487   -0.9517 C   0  0  0  0  0  0  0  0  0  0  0  0
    5.8326   -1.9930   -2.0605 O   0  0  0  0  0  0  0  0  0  0  0  0
    4.7432   -1.0738   -2.0689 C   0  0  1  0  0  0  0  0  0  0  0  0
    3.9986   -1.2171   -3.4062 C   0  0  0  0  0  0  0  0  0  0  0  0
    2.7910   -0.5996    1.7100 H   0  0  0  0  0  0  0  0  0  0  0  0
    2.9772   -0.6744   -0.9520 H   0  0  0  0  0  0  0  0  0  0  0  0
    2.6238   -3.0401   -0.1765 H   0  0  0  0  0  0  0  0  0  0  0  0
    2.1846   -4.0026   -2.4390 H   0  0  0  0  0  0  0  0  0  0  0  0
    1.7041   -2.3359   -2.3915 H   0  0  0  0  0  0  0  0  0  0  0  0
    2.9889   -2.8055   -4.4808 H   0  0  0  0  0  0  0  0  0  0  0  0
    4.4207   -4.6505   -3.5322 H   0  0  0  0  0  0  0  0  0  0  0  0
    5.4069   -3.4590   -4.2988 H   0  0  0  0  0  0  0  0  0  0  0  0
    6.3564   -3.9378   -2.0796 H   0  0  0  0  0  0  0  0  0  0  0  0
    5.0561   -3.6781   -0.0016 H   0  0  0  0  0  0  0  0  0  0  0  0
    4.2137   -4.7895   -1.0375 H   0  0  0  0  0  0  0  0  0  0  0  0
    5.1391   -0.0679   -1.9921 H   0  0  0  0  0  0  0  0  0  0  0  0
    4.6591   -0.9599   -4.2344 H   0  0  0  0  0  0  0  0  0  0  0  0
    3.1577   -0.5194   -3.4447 H   0  0  0  0  0  0  0  0  0  0  0  0
  1  5  1  0
  1  2  2  0
  1 16  1  0
  2  3  1  0
  3  4  2  0
  4  5  1  0
  5  6  1  0
  6 14  1  0
  6  7  1  0
  6 17  1  6
  7 12  1  0
  7  8  1  0
  7 18  1  1
  8  9  1  0
  8 19  1  0
  8 20  1  0
  9 15  1  0
  9 10  1  0
  9 21  1  6
 10 11  1  0
 10 22  1  0
 10 23  1  0
 11 12  1  0
 11 13  1  0
 11 24  1  6
 12 25  1  0
 12 26  1  0
 13 14  1  0
 14 15  1  0
 14 27  1  1
 15 28  1  0
 15 29  1  0
M  END
>  <i_m_ct_stereo_status>  (206) 
1

>  <s_m_source_file>  (206) 
/var/tmp/pbs.5076255.sched01/tmpnszqc94g/84e4epk0lh.sdf

>  <i_m_source_file_index>  (206) 
16

>  <i_lp_mmshare_version>  (206) 
48012

>  <i_f3d_flags>  (206) 
0

>  <s_epik_input>  (206) 
bjFubltjSF1uMVtDQEhdKFtDQEBIXTIzKVtDQEhdNE9bQ0BASF0oW0NIMl0zKVtDSDJdW0NAQEhdKFtDSDJdMilbQ0gyXTQ=

>  <s_epik_cmdline>  (206) 
J2VwaWtfcHl0aG9uJywgJy1waHQnLCAnMi4wJywgJy1waCcsICc3LjAnLCAnLXRuJywgJzgnLCAnLW1hJywgJzIwMCcsICctaW1hZScsICc8aW5maWxlLm1hZT4nLCAnLW9tYWUnLCAnPG91dGZpbGUubWFlPic=

>  <r_lp_tautomer_probability>  (206) 
1

>  <r_epik_Ionization_Penalty>  (206) 
6.95849e-09

>  <r_epik_Ionization_Penalty_Charging>  (206) 
0

>  <r_epik_Ionization_Penalty_Neutral>  (206) 
6.95849e-09

>  <r_epik_State_Penalty>  (206) 
-0

>  <r_epik_Charging_Adjusted_Penalty>  (206) 
0

>  <i_epik_Tot_Q>  (206) 
0

>  <i_epik_Tot_abs_Q>  (206) 
0

>  <s_lp_Force_Field>  (206) 
OPLS3e

>  <r_lp_Energy>  (206) 
2.09177

>  <b_lp_Chiralities_Consistent>  (206) 
1

>  <s_lp_Variant>  (206) 
69:0-1

>  <s_i_glide_gridfile>  (206) 
pfpi4k_grid

>  <i_i_glide_lignum>  (206) 
16

>  <i_i_glide_rotatable_bonds>  (206) 
1

>  <r_i_docking_score>  (206) 
-4.03342

>  <r_i_glide_ligand_efficiency>  (206) 
-0.268895

>  <r_i_glide_ligand_efficiency_sa>  (206) 
-0.663152

>  <r_i_glide_ligand_efficiency_ln>  (206) 
-1.08775

>  <r_i_glide_gscore>  (206) 
-4.03342

>  <r_i_glide_lipo>  (206) 
-0.697214

>  <r_i_glide_hbond>  (206) 
-0.0130972

>  <r_i_glide_metal>  (206) 
-0

>  <r_i_glide_rewards>  (206) 
-2.04284

>  <r_i_glide_evdw>  (206) 
-23.4162

>  <r_i_glide_ecoul>  (206) 
-3.31573

>  <r_i_glide_erotb>  (206) 
0.387897

>  <r_i_glide_esite>  (206) 
0

>  <r_i_glide_emodel>  (206) 
-33.3379

>  <r_i_glide_energy>  (206) 
-26.7319

>  <r_i_glide_einternal>  (206) 
0.27988

>  <r_i_glide_intrahb_reward>  (206) 
-0

>  <i_i_glide_confnum>  (206) 
5

>  <i_i_glide_posenum>  (206) 
32

>  <r_i_glide_eff_state_penalty>  (206) 
0

>  <ligand_id>  (206) 
69

>  <original_smiles>  (206) 
c1nnnn1C1C2CC3CC(C2)OC1C3

>  <smiles>  (206) 
[H]c1nnnn1C1([H])C2([H])OC3([H])C([H])([H])C([H])(C2([H])[H])C([H])([H])C1([H])C3([H])[H]

$$$$
69:0:1
     RDKit          3D

 29 32  0  0  1  0  0  0  0  0999 V2000
    5.5234   -0.6575    0.7700 C   0  0  0  0  0  0  0  0  0  0  0  0
    5.7551   -0.6846    2.0733 N   0  0  0  0  0  0  0  0  0  0  0  0
    4.6483   -1.3334    2.5788 N   0  0  0  0  0  0  0  0  0  0  0  0
    3.8103   -1.6504    1.6296 N   0  0  0  0  0  0  0  0  0  0  0  0
    4.3755   -1.2547    0.4570 N   0  0  0  0  0  0  0  0  0  0  0  0
    3.7084   -1.4487   -0.8245 C   0  0  2  0  0  0  0  0  0  0  0  0
    3.1860   -2.8962   -1.0183 C   0  0  1  0  0  0  0  0  0  0  0  0
    2.4648   -3.0212   -2.3882 C   0  0  0  0  0  0  0  0  0  0  0  0
    3.4271   -2.6682   -3.5456 C   0  0  2  0  0  0  0  0  0  0  0  0
    4.6375   -3.6174   -3.4915 C   0  0  0  0  0  0  0  0  0  0  0  0
    5.3396   -3.4319   -2.1346 C   0  0  2  0  0  0  0  0  0  0  0  0
    4.4034   -3.8399   -0.9833 C   0  0  0  0  0  0  0  0  0  0  0  0
    5.7484   -2.0629   -1.9876 O   0  0  0  0  0  0  0  0  0  0  0  0
    4.6500   -1.1409   -2.0116 C   0  0  1  0  0  0  0  0  0  0  0  0
    3.9264   -1.2266   -3.3629 C   0  0  0  0  0  0  0  0  0  0  0  0
    6.1890   -0.1978    0.0564 H   0  0  0  0  0  0  0  0  0  0  0  0
    2.8828   -0.7427   -0.8597 H   0  0  0  0  0  0  0  0  0  0  0  0
    2.4804   -3.1574   -0.2227 H   0  0  0  0  0  0  0  0  0  0  0  0
    2.0631   -4.0242   -2.5192 H   0  0  0  0  0  0  0  0  0  0  0  0
    1.6083   -2.3508   -2.4161 H   0  0  0  0  0  0  0  0  0  0  0  0
    2.9149   -2.7590   -4.5050 H   0  0  0  0  0  0  0  0  0  0  0  0
    4.3080   -4.6495   -3.6025 H   0  0  0  0  0  0  0  0  0  0  0  0
    5.3326   -3.4512   -4.3093 H   0  0  0  0  0  0  0  0  0  0  0  0
    6.2276   -4.0428   -2.0968 H   0  0  0  0  0  0  0  0  0  0  0  0
    4.9222   -3.7891   -0.0255 H   0  0  0  0  0  0  0  0  0  0  0  0
    4.0876   -4.8757   -1.1019 H   0  0  0  0  0  0  0  0  0  0  0  0
    5.0438   -0.1361   -1.9243 H   0  0  0  0  0  0  0  0  0  0  0  0
    4.6102   -0.9464   -4.1654 H   0  0  0  0  0  0  0  0  0  0  0  0
    3.0969   -0.5145   -3.3857 H   0  0  0  0  0  0  0  0  0  0  0  0
  1  5  1  0
  1  2  2  0
  1 16  1  0
  2  3  1  0
  3  4  2  0
  4  5  1  0
  5  6  1  0
  6 14  1  0
  6  7  1  0
  6 17  1  1
  7 12  1  0
  7  8  1  0
  7 18  1  1
  8  9  1  0
  8 19  1  0
  8 20  1  0
  9 15  1  0
  9 10  1  0
  9 21  1  6
 10 11  1  0
 10 22  1  0
 10 23  1  0
 11 12  1  0
 11 13  1  0
 11 24  1  6
 12 25  1  0
 12 26  1  0
 13 14  1  0
 14 15  1  0
 14 27  1  1
 15 28  1  0
 15 29  1  0
M  END
>  <i_m_ct_stereo_status>  (207) 
1

>  <s_m_source_file>  (207) 
/var/tmp/pbs.5076255.sched01/tmpnszqc94g/84e4epk0lh.sdf

>  <i_m_source_file_index>  (207) 
16

>  <i_lp_mmshare_version>  (207) 
48012

>  <i_f3d_flags>  (207) 
0

>  <s_epik_input>  (207) 
bjFubltjSF1uMVtDQEhdKFtDQEBIXTIzKVtDQEhdNE9bQ0BASF0oW0NIMl0zKVtDSDJdW0NAQEhdKFtDSDJdMilbQ0gyXTQ=

>  <s_epik_cmdline>  (207) 
J2VwaWtfcHl0aG9uJywgJy1waHQnLCAnMi4wJywgJy1waCcsICc3LjAnLCAnLXRuJywgJzgnLCAnLW1hJywgJzIwMCcsICctaW1hZScsICc8aW5maWxlLm1hZT4nLCAnLW9tYWUnLCAnPG91dGZpbGUubWFlPic=

>  <r_lp_tautomer_probability>  (207) 
1

>  <r_epik_Ionization_Penalty>  (207) 
6.95849e-09

>  <r_epik_Ionization_Penalty_Charging>  (207) 
0

>  <r_epik_Ionization_Penalty_Neutral>  (207) 
6.95849e-09

>  <r_epik_State_Penalty>  (207) 
-0

>  <r_epik_Charging_Adjusted_Penalty>  (207) 
0

>  <i_epik_Tot_Q>  (207) 
0

>  <i_epik_Tot_abs_Q>  (207) 
0

>  <s_lp_Force_Field>  (207) 
OPLS3e

>  <r_lp_Energy>  (207) 
2.09177

>  <b_lp_Chiralities_Consistent>  (207) 
1

>  <s_lp_Variant>  (207) 
69:0-1

>  <s_i_glide_gridfile>  (207) 
pfpi4k_grid

>  <i_i_glide_lignum>  (207) 
16

>  <i_i_glide_rotatable_bonds>  (207) 
1

>  <r_i_docking_score>  (207) 
-3.94866

>  <r_i_glide_ligand_efficiency>  (207) 
-0.263244

>  <r_i_glide_ligand_efficiency_sa>  (207) 
-0.649216

>  <r_i_glide_ligand_efficiency_ln>  (207) 
-1.06489

>  <r_i_glide_gscore>  (207) 
-3.94866

>  <r_i_glide_lipo>  (207) 
-0.664848

>  <r_i_glide_hbond>  (207) 
0

>  <r_i_glide_metal>  (207) 
-0

>  <r_i_glide_rewards>  (207) 
-2.1789

>  <r_i_glide_evdw>  (207) 
-22.1581

>  <r_i_glide_ecoul>  (207) 
-2.45922

>  <r_i_glide_erotb>  (207) 
0.387897

>  <r_i_glide_esite>  (207) 
-0.0160173

>  <r_i_glide_emodel>  (207) 
-31.2364

>  <r_i_glide_energy>  (207) 
-24.6174

>  <r_i_glide_einternal>  (207) 
0.139934

>  <r_i_glide_intrahb_reward>  (207) 
-0

>  <i_i_glide_confnum>  (207) 
2

>  <i_i_glide_posenum>  (207) 
27

>  <r_i_glide_eff_state_penalty>  (207) 
0

>  <ligand_id>  (207) 
69

>  <original_smiles>  (207) 
c1nnnn1C1C2CC3CC(C2)OC1C3

>  <smiles>  (207) 
[H]c1nnnn1C1([H])C2([H])OC3([H])C([H])([H])C([H])(C2([H])[H])C([H])([H])C1([H])C3([H])[H]

$$$$
69:0:2
     RDKit          3D

 29 32  0  0  1  0  0  0  0  0999 V2000
    4.0270   -3.1073    1.6208 C   0  0  0  0  0  0  0  0  0  0  0  0
    4.7060   -3.2954    2.7428 N   0  0  0  0  0  0  0  0  0  0  0  0
    5.7303   -4.1423    2.3545 N   0  0  0  0  0  0  0  0  0  0  0  0
    5.6534   -4.4313    1.0884 N   0  0  0  0  0  0  0  0  0  0  0  0
    4.5835   -3.7586    0.5921 N   0  0  0  0  0  0  0  0  0  0  0  0
    4.1956   -3.8629   -0.8080 C   0  0  2  0  0  0  0  0  0  0  0  0
    5.3636   -3.5385   -1.7732 C   0  0  1  0  0  0  0  0  0  0  0  0
    4.8998   -3.6784   -3.2472 C   0  0  0  0  0  0  0  0  0  0  0  0
    3.7138   -2.7221   -3.5368 C   0  0  2  0  0  0  0  0  0  0  0  0
    4.1658   -1.2773   -3.2697 C   0  0  0  0  0  0  0  0  0  0  0  0
    4.6122   -1.1745   -1.7988 C   0  0  2  0  0  0  0  0  0  0  0  0
    5.8175   -2.0928   -1.5226 C   0  0  0  0  0  0  0  0  0  0  0  0
    3.5225   -1.5377   -0.9466 O   0  0  0  0  0  0  0  0  0  0  0  0
    3.0527   -2.8783   -1.1437 C   0  0  1  0  0  0  0  0  0  0  0  0
    2.5510   -3.0372   -2.5856 C   0  0  0  0  0  0  0  0  0  0  0  0
    3.1422   -2.4930    1.5527 H   0  0  0  0  0  0  0  0  0  0  0  0
    3.8645   -4.8867   -0.9735 H   0  0  0  0  0  0  0  0  0  0  0  0
    6.1987   -4.2182   -1.5932 H   0  0  0  0  0  0  0  0  0  0  0  0
    5.7292   -3.4656   -3.9190 H   0  0  0  0  0  0  0  0  0  0  0  0
    4.6138   -4.7105   -3.4448 H   0  0  0  0  0  0  0  0  0  0  0  0
    3.3725   -2.8250   -4.5677 H   0  0  0  0  0  0  0  0  0  0  0  0
    4.9963   -1.0277   -3.9285 H   0  0  0  0  0  0  0  0  0  0  0  0
    3.3607   -0.5689   -3.4675 H   0  0  0  0  0  0  0  0  0  0  0  0
    4.8799   -0.1523   -1.5688 H   0  0  0  0  0  0  0  0  0  0  0  0
    6.1742   -1.9556   -0.5026 H   0  0  0  0  0  0  0  0  0  0  0  0
    6.6524   -1.8569   -2.1812 H   0  0  0  0  0  0  0  0  0  0  0  0
    2.2087   -3.0481   -0.4781 H   0  0  0  0  0  0  0  0  0  0  0  0
    1.7188   -2.3541   -2.7508 H   0  0  0  0  0  0  0  0  0  0  0  0
    2.1648   -4.0402   -2.7507 H   0  0  0  0  0  0  0  0  0  0  0  0
  1  5  1  0
  1  2  2  0
  1 16  1  0
  2  3  1  0
  3  4  2  0
  4  5  1  0
  5  6  1  0
  6 14  1  0
  6  7  1  0
  6 17  1  6
  7 12  1  0
  7  8  1  0
  7 18  1  1
  8  9  1  0
  8 19  1  0
  8 20  1  0
  9 15  1  0
  9 10  1  0
  9 21  1  6
 10 11  1  0
 10 22  1  0
 10 23  1  0
 11 12  1  0
 11 13  1  0
 11 24  1  1
 12 25  1  0
 12 26  1  0
 13 14  1  0
 14 15  1  0
 14 27  1  1
 15 28  1  0
 15 29  1  0
M  END
>  <i_m_ct_stereo_status>  (208) 
1

>  <s_m_source_file>  (208) 
/var/tmp/pbs.5076255.sched01/tmpnszqc94g/84e4epk0lh.sdf

>  <i_m_source_file_index>  (208) 
16

>  <i_lp_mmshare_version>  (208) 
48012

>  <i_f3d_flags>  (208) 
0

>  <s_epik_input>  (208) 
bjFubltjSF1uMVtDQEhdKFtDQEBIXTIzKVtDQEhdNE9bQ0BASF0oW0NIMl0zKVtDSDJdW0NAQEhdKFtDSDJdMilbQ0gyXTQ=

>  <s_epik_cmdline>  (208) 
J2VwaWtfcHl0aG9uJywgJy1waHQnLCAnMi4wJywgJy1waCcsICc3LjAnLCAnLXRuJywgJzgnLCAnLW1hJywgJzIwMCcsICctaW1hZScsICc8aW5maWxlLm1hZT4nLCAnLW9tYWUnLCAnPG91dGZpbGUubWFlPic=

>  <r_lp_tautomer_probability>  (208) 
1

>  <r_epik_Ionization_Penalty>  (208) 
6.95849e-09

>  <r_epik_Ionization_Penalty_Charging>  (208) 
0

>  <r_epik_Ionization_Penalty_Neutral>  (208) 
6.95849e-09

>  <r_epik_State_Penalty>  (208) 
-0

>  <r_epik_Charging_Adjusted_Penalty>  (208) 
0

>  <i_epik_Tot_Q>  (208) 
0

>  <i_epik_Tot_abs_Q>  (208) 
0

>  <s_lp_Force_Field>  (208) 
OPLS3e

>  <r_lp_Energy>  (208) 
2.09177

>  <b_lp_Chiralities_Consistent>  (208) 
1

>  <s_lp_Variant>  (208) 
69:0-1

>  <s_i_glide_gridfile>  (208) 
pfpi4k_grid

>  <i_i_glide_lignum>  (208) 
16

>  <i_i_glide_rotatable_bonds>  (208) 
1

>  <r_i_docking_score>  (208) 
-3.31954

>  <r_i_glide_ligand_efficiency>  (208) 
-0.221303

>  <r_i_glide_ligand_efficiency_sa>  (208) 
-0.54578

>  <r_i_glide_ligand_efficiency_ln>  (208) 
-0.895226

>  <r_i_glide_gscore>  (208) 
-3.31954

>  <r_i_glide_lipo>  (208) 
-0.520087

>  <r_i_glide_hbond>  (208) 
0

>  <r_i_glide_metal>  (208) 
-0

>  <r_i_glide_rewards>  (208) 
-2.04967

>  <r_i_glide_evdw>  (208) 
-20.22

>  <r_i_glide_ecoul>  (208) 
-0.844505

>  <r_i_glide_erotb>  (208) 
0.387897

>  <r_i_glide_esite>  (208) 
0

>  <r_i_glide_emodel>  (208) 
-26.5898

>  <r_i_glide_energy>  (208) 
-21.0646

>  <r_i_glide_einternal>  (208) 
0.154726

>  <r_i_glide_intrahb_reward>  (208) 
-0

>  <i_i_glide_confnum>  (208) 
2

>  <i_i_glide_posenum>  (208) 
18

>  <r_i_glide_eff_state_penalty>  (208) 
0

>  <ligand_id>  (208) 
69

>  <original_smiles>  (208) 
c1nnnn1C1C2CC3CC(C2)OC1C3

>  <smiles>  (208) 
[H]c1nnnn1C1([H])C2([H])OC3([H])C([H])([H])C([H])(C2([H])[H])C([H])([H])C1([H])C3([H])[H]

$$$$
70:0:0
     RDKit          3D

 60 64  0  0  1  0  0  0  0  0999 V2000
    8.1222   -4.0019   -0.2051 C   0  0  0  0  0  0  0  0  0  0  0  0
    6.7945   -3.9685   -0.0232 C   0  0  0  0  0  0  0  0  0  0  0  0
    5.9781   -5.2972    0.2401 C   0  0  0  0  0  0  0  0  0  0  0  0
    4.5952   -5.3128    1.0436 C   0  0  1  0  0  0  0  0  0  0  0  0
    4.7940   -4.4801    2.3061 C   0  0  0  0  0  0  0  0  0  0  0  0
    4.0442   -5.0056    3.5707 C   0  0  0  0  0  0  0  0  0  0  0  0
    6.1973   -4.2624    2.8767 C   0  0  0  0  0  0  0  0  0  0  0  0
    4.1869   -3.2496    1.6303 C   0  0  2  0  0  0  0  0  0  0  0  0
    2.8832   -3.8187    1.5097 O   0  0  0  0  0  0  0  0  0  0  0  0
    3.1090   -4.7641    0.4908 C   0  0  2  0  0  0  0  0  0  0  0  0
    2.0442   -5.9017    0.5756 C   0  0  0  0  0  0  0  0  0  0  0  0
    1.8353   -6.5545    1.8982 C   0  0  0  0  0  0  0  0  0  0  0  0
    2.2960   -7.7239    2.3617 C   0  0  0  0  0  0  0  0  0  0  0  0
    3.0875   -8.7337    1.5547 C   0  0  0  0  0  0  0  0  0  0  0  0
    2.0334   -8.1086    3.8012 C   0  0  0  0  0  0  0  0  0  0  0  0
    2.9821   -3.6252   -0.7129 C   0  0  2  0  0  0  0  0  0  0  0  0
    1.7569   -3.7988   -1.6196 C   0  0  0  0  0  0  0  0  0  0  0  0
    1.6153   -2.9594   -2.9176 C   0  0  0  0  0  0  0  0  0  0  0  0
    0.8176   -4.5657   -1.4716 O   0  0  0  0  0  0  0  0  0  0  0  0
    4.3307   -3.5822   -1.3091 C   0  0  1  0  0  0  0  0  0  0  0  0
    4.5992   -2.8005   -2.6071 C   0  0  0  0  0  0  0  0  0  0  0  0
    4.2004   -1.5383   -2.6803 C   0  0  0  0  0  0  0  0  0  0  0  0
    4.1896   -0.6556   -3.9051 C   0  0  0  0  0  0  0  0  0  0  0  0
    3.5963   -0.9750   -1.4350 C   0  0  0  0  0  0  0  0  0  0  0  0
    3.4134   -2.0836   -0.3953 C   0  0  2  0  0  0  0  0  0  0  0  0
    4.6381   -2.8416    0.1198 C   0  0  1  0  0  0  0  0  0  0  0  0
    6.0937   -2.6266   -0.0125 C   0  0  0  0  0  0  0  0  0  0  0  0
    6.6551   -1.5433   -0.1643 O   0  0  0  0  0  0  0  0  0  0  0  0
    8.7166   -3.1126   -0.3722 H   0  0  0  0  0  0  0  0  0  0  0  0
    8.6533   -4.9435   -0.1931 H   0  0  0  0  0  0  0  0  0  0  0  0
    5.8506   -5.8494   -0.6877 H   0  0  0  0  0  0  0  0  0  0  0  0
    6.6682   -5.9354    0.7933 H   0  0  0  0  0  0  0  0  0  0  0  0
    4.4920   -6.3558    1.3260 H   0  0  0  0  0  0  0  0  0  0  0  0
    4.0106   -4.2389    4.3524 H   0  0  0  0  0  0  0  0  0  0  0  0
    4.5510   -5.9008    3.9586 H   0  0  0  0  0  0  0  0  0  0  0  0
    3.0147   -5.2365    3.4151 H   0  0  0  0  0  0  0  0  0  0  0  0
    6.1156   -3.9012    3.8978 H   0  0  0  0  0  0  0  0  0  0  0  0
    6.6875   -3.4635    2.3498 H   0  0  0  0  0  0  0  0  0  0  0  0
    6.8112   -5.1654    2.9125 H   0  0  0  0  0  0  0  0  0  0  0  0
    4.1412   -2.3946    2.3048 H   0  0  0  0  0  0  0  0  0  0  0  0
    1.0256   -5.5720    0.4892 H   0  0  0  0  0  0  0  0  0  0  0  0
    2.2664   -6.6066   -0.2024 H   0  0  0  0  0  0  0  0  0  0  0  0
    1.2118   -5.9406    2.5415 H   0  0  0  0  0  0  0  0  0  0  0  0
    2.5711   -9.6970    1.5588 H   0  0  0  0  0  0  0  0  0  0  0  0
    4.0681   -8.8552    2.0084 H   0  0  0  0  0  0  0  0  0  0  0  0
    3.2628   -8.4417    0.5200 H   0  0  0  0  0  0  0  0  0  0  0  0
    1.4601   -9.0296    3.8602 H   0  0  0  0  0  0  0  0  0  0  0  0
    1.5037   -7.3180    4.3324 H   0  0  0  0  0  0  0  0  0  0  0  0
    2.9915   -8.2474    4.2942 H   0  0  0  0  0  0  0  0  0  0  0  0
    1.6237   -1.9138   -2.7005 H   0  0  0  0  0  0  0  0  0  0  0  0
    0.6260   -3.0628   -3.3572 H   0  0  0  0  0  0  0  0  0  0  0  0
    2.3478   -3.2215   -3.6830 H   0  0  0  0  0  0  0  0  0  0  0  0
    4.6023   -4.5991   -1.5552 H   0  0  0  0  0  0  0  0  0  0  0  0
    5.0236   -3.3000   -3.4611 H   0  0  0  0  0  0  0  0  0  0  0  0
    4.6007    0.2824   -3.5597 H   0  0  0  0  0  0  0  0  0  0  0  0
    3.1974   -0.3746   -4.2603 H   0  0  0  0  0  0  0  0  0  0  0  0
    4.7487   -1.1319   -4.7171 H   0  0  0  0  0  0  0  0  0  0  0  0
    4.2430   -0.1891   -1.0307 H   0  0  0  0  0  0  0  0  0  0  0  0
    2.6470   -0.5654   -1.7704 H   0  0  0  0  0  0  0  0  0  0  0  0
    2.8033   -1.6868    0.4245 H   0  0  0  0  0  0  0  0  0  0  0  0
  1  2  2  0
  1 29  1  0
  1 30  1  0
  2 27  1  0
  2  3  1  0
  3  4  1  0
  3 31  1  0
  3 32  1  0
  4 10  1  0
  4  5  1  0
  4 33  1  1
  5  6  1  0
  5  7  1  0
  5  8  1  0
  6 34  1  0
  6 35  1  0
  6 36  1  0
  7 37  1  0
  7 38  1  0
  7 39  1  0
  8 26  1  0
  8  9  1  0
  8 40  1  1
  9 10  1  0
 10 11  1  6
 10 16  1  0
 11 12  1  0
 11 41  1  0
 11 42  1  0
 12 13  2  3
 12 43  1  0
 13 14  1  0
 13 15  1  0
 14 44  1  0
 14 45  1  0
 14 46  1  0
 15 47  1  0
 15 48  1  0
 15 49  1  0
 16 25  1  0
 16 17  1  6
 16 20  1  0
 17 18  1  0
 17 19  2  0
 18 50  1  0
 18 51  1  0
 18 52  1  0
 20 26  1  0
 20 21  1  0
 20 53  1  6
 21 22  2  0
 21 54  1  0
 22 23  1  0
 22 24  1  0
 23 55  1  0
 23 56  1  0
 23 57  1  0
 24 25  1  0
 24 58  1  0
 24 59  1  0
 25 26  1  0
 25 60  1  1
 26 27  1  1
 27 28  2  0
M  END
>  <i_m_ct_stereo_status>  (209) 
1

>  <s_m_source_file>  (209) 
/var/tmp/pbs.5076255.sched01/tmpnszqc94g/84e4epk0lh.sdf

>  <i_m_source_file_index>  (209) 
17

>  <i_lp_mmshare_version>  (209) 
48012

>  <i_f3d_flags>  (209) 
0

>  <s_epik_input>  (209) 
Tz1DMUMoPVtDSDJdKVtDSDJdW0NAQEhdKEMoW0NIM10pKFtDSDNdKVtDQEhdMltDQEBdMTM0KVtDQF0oTzIpKFtDSDJdW0NIXT1DKFtDSDNdKVtDSDNdKVtDQF01KEMoPU8pW0NIM10pW0NASF0zW0NIXT1DKFtDSDNdKVtDSDJdW0NASF00NQ==

>  <s_epik_cmdline>  (209) 
J2VwaWtfcHl0aG9uJywgJy1waHQnLCAnMi4wJywgJy1waCcsICc3LjAnLCAnLXRuJywgJzgnLCAnLW1hJywgJzIwMCcsICctaW1hZScsICc8aW5maWxlLm1hZT4nLCAnLW9tYWUnLCAnPG91dGZpbGUubWFlPic=

>  <r_lp_tautomer_probability>  (209) 
1

>  <r_epik_Ionization_Penalty>  (209) 
2.76312e-12

>  <r_epik_Ionization_Penalty_Charging>  (209) 
0

>  <r_epik_Ionization_Penalty_Neutral>  (209) 
2.76312e-12

>  <r_epik_State_Penalty>  (209) 
-0

>  <r_epik_Charging_Adjusted_Penalty>  (209) 
0

>  <i_epik_Tot_Q>  (209) 
0

>  <i_epik_Tot_abs_Q>  (209) 
0

>  <s_lp_Force_Field>  (209) 
OPLS3e

>  <r_lp_Energy>  (209) 
153.648

>  <b_lp_Chiralities_Consistent>  (209) 
1

>  <s_lp_Variant>  (209) 
70:0-1

>  <s_i_glide_gridfile>  (209) 
pfpi4k_grid

>  <i_i_glide_lignum>  (209) 
17

>  <i_i_glide_rotatable_bonds>  (209) 
3

>  <r_i_docking_score>  (209) 
-1.90455

>  <r_i_glide_ligand_efficiency>  (209) 
-0.0680196

>  <r_i_glide_ligand_efficiency_sa>  (209) 
-0.206548

>  <r_i_glide_ligand_efficiency_ln>  (209) 
-0.439626

>  <r_i_glide_gscore>  (209) 
-1.90455

>  <r_i_glide_lipo>  (209) 
-0.790962

>  <r_i_glide_hbond>  (209) 
-0.189336

>  <r_i_glide_metal>  (209) 
-0

>  <r_i_glide_rewards>  (209) 
-0.847609

>  <r_i_glide_evdw>  (209) 
-1.01582

>  <r_i_glide_ecoul>  (209) 
-1.73065

>  <r_i_glide_erotb>  (209) 
0.267983

>  <r_i_glide_esite>  (209) 
-0.0342367

>  <r_i_glide_emodel>  (209) 
4.85607

>  <r_i_glide_energy>  (209) 
-2.74647

>  <r_i_glide_einternal>  (209) 
10.0238

>  <r_i_glide_intrahb_reward>  (209) 
-0

>  <i_i_glide_confnum>  (209) 
1

>  <i_i_glide_posenum>  (209) 
17

>  <r_i_glide_eff_state_penalty>  (209) 
0

>  <ligand_id>  (209) 
70

>  <original_smiles>  (209) 
C=C1CC2C(C)(C)C3OC2(CC=C(C)C)C2(C(C)=O)C4C=C(C)CC2C34C1=O

>  <smiles>  (209) 
[H]C([H])=C1C(=O)C23C4([H])OC(C([H])([H])C([H])=C(C([H])([H])[H])C([H])([H])[H])(C([H])(C1([H])[H])C4(C([H])([H])[H])C([H])([H])[H])C1(C(=O)C([H])([H])[H])C2([H])C([H])=C(C([H])([H])[H])C([H])([H])C31[H]

$$$$
70:0:1
     RDKit          3D

 60 64  0  0  1  0  0  0  0  0999 V2000
    8.0210   -4.2417   -0.3022 C   0  0  0  0  0  0  0  0  0  0  0  0
    6.6955   -4.1235   -0.1299 C   0  0  0  0  0  0  0  0  0  0  0  0
    5.8055   -5.3767    0.2151 C   0  0  0  0  0  0  0  0  0  0  0  0
    4.4118   -5.2347    0.9989 C   0  0  1  0  0  0  0  0  0  0  0  0
    4.6699   -4.3196    2.2054 C   0  0  0  0  0  0  0  0  0  0  0  0
    3.8812   -4.7393    3.4884 C   0  0  0  0  0  0  0  0  0  0  0  0
    6.0791   -4.1347    2.7854 C   0  0  0  0  0  0  0  0  0  0  0  0
    4.1337   -3.1108    1.4369 C   0  0  2  0  0  0  0  0  0  0  0  0
    2.8013   -3.6162    1.3375 O   0  0  0  0  0  0  0  0  0  0  0  0
    2.9786   -4.6365    0.3955 C   0  0  2  0  0  0  0  0  0  0  0  0
    1.8423   -5.7163    0.5621 C   0  0  0  0  0  0  0  0  0  0  0  0
    1.2684   -5.8579    1.9437 C   0  0  0  0  0  0  0  0  0  0  0  0
    0.9736   -6.9673    2.6348 C   0  0  0  0  0  0  0  0  0  0  0  0
    1.0861   -8.3712    2.0763 C   0  0  0  0  0  0  0  0  0  0  0  0
    0.4610   -6.8563    4.0482 C   0  0  0  0  0  0  0  0  0  0  0  0
    2.9150   -3.5665   -0.8640 C   0  0  2  0  0  0  0  0  0  0  0  0
    1.6622   -3.6851   -1.7567 C   0  0  0  0  0  0  0  0  0  0  0  0
    1.6028   -2.9694   -3.1121 C   0  0  0  0  0  0  0  0  0  0  0  0
    0.6231   -4.2773   -1.5186 O   0  0  0  0  0  0  0  0  0  0  0  0
    4.2728   -3.6470   -1.4602 C   0  0  1  0  0  0  0  0  0  0  0  0
    4.5636   -2.9676   -2.8053 C   0  0  0  0  0  0  0  0  0  0  0  0
    4.2149   -1.6909   -2.9751 C   0  0  0  0  0  0  0  0  0  0  0  0
    4.2829   -0.9455   -4.2774 C   0  0  0  0  0  0  0  0  0  0  0  0
    3.6204   -0.9926   -1.7854 C   0  0  0  0  0  0  0  0  0  0  0  0
    3.4310   -2.0240   -0.6486 C   0  0  2  0  0  0  0  0  0  0  0  0
    4.6119   -2.8239   -0.0984 C   0  0  1  0  0  0  0  0  0  0  0  0
    6.0848   -2.7415   -0.2273 C   0  0  0  0  0  0  0  0  0  0  0  0
    6.7108   -1.7153   -0.4475 O   0  0  0  0  0  0  0  0  0  0  0  0
    8.6604   -3.4069   -0.5291 H   0  0  0  0  0  0  0  0  0  0  0  0
    8.4980   -5.2072   -0.2166 H   0  0  0  0  0  0  0  0  0  0  0  0
    5.6756   -5.9997   -0.6652 H   0  0  0  0  0  0  0  0  0  0  0  0
    6.4452   -6.0027    0.8322 H   0  0  0  0  0  0  0  0  0  0  0  0
    4.2235   -6.2467    1.3697 H   0  0  0  0  0  0  0  0  0  0  0  0
    3.8127   -3.9150    4.2070 H   0  0  0  0  0  0  0  0  0  0  0  0
    4.3440   -5.6164    3.9668 H   0  0  0  0  0  0  0  0  0  0  0  0
    2.8614   -5.0227    3.3244 H   0  0  0  0  0  0  0  0  0  0  0  0
    5.9935   -3.7015    3.7830 H   0  0  0  0  0  0  0  0  0  0  0  0
    6.6624   -3.4186    2.2263 H   0  0  0  0  0  0  0  0  0  0  0  0
    6.6219   -5.0750    2.9005 H   0  0  0  0  0  0  0  0  0  0  0  0
    4.1277   -2.2135    2.0495 H   0  0  0  0  0  0  0  0  0  0  0  0
    0.8738   -5.5977    0.1496 H   0  0  0  0  0  0  0  0  0  0  0  0
    2.2064   -6.6384    0.0872 H   0  0  0  0  0  0  0  0  0  0  0  0
    1.0482   -4.8989    2.3871 H   0  0  0  0  0  0  0  0  0  0  0  0
    0.1119   -8.8651    2.1467 H   0  0  0  0  0  0  0  0  0  0  0  0
    1.8104   -8.9270    2.6603 H   0  0  0  0  0  0  0  0  0  0  0  0
    1.3934   -8.4000    1.0295 H   0  0  0  0  0  0  0  0  0  0  0  0
   -0.5340   -7.2903    4.1331 H   0  0  0  0  0  0  0  0  0  0  0  0
    0.4300   -5.8177    4.3838 H   0  0  0  0  0  0  0  0  0  0  0  0
    1.1453   -7.3923    4.6944 H   0  0  0  0  0  0  0  0  0  0  0  0
    1.6860   -1.8941   -2.9334 H   0  0  0  0  0  0  0  0  0  0  0  0
    0.6299   -3.0255   -3.5913 H   0  0  0  0  0  0  0  0  0  0  0  0
    2.3382   -3.3179   -3.8604 H   0  0  0  0  0  0  0  0  0  0  0  0
    4.4890   -4.6825   -1.6256 H   0  0  0  0  0  0  0  0  0  0  0  0
    4.9567   -3.5612   -3.6165 H   0  0  0  0  0  0  0  0  0  0  0  0
    4.9369   -0.1280   -4.0824 H   0  0  0  0  0  0  0  0  0  0  0  0
    3.3255   -0.5582   -4.6445 H   0  0  0  0  0  0  0  0  0  0  0  0
    4.7476   -1.5121   -5.0703 H   0  0  0  0  0  0  0  0  0  0  0  0
    4.2686   -0.1683   -1.4846 H   0  0  0  0  0  0  0  0  0  0  0  0
    2.6629   -0.5476   -2.0706 H   0  0  0  0  0  0  0  0  0  0  0  0
    2.8461   -1.5473    0.1300 H   0  0  0  0  0  0  0  0  0  0  0  0
  1  2  2  0
  1 29  1  0
  1 30  1  0
  2 27  1  0
  2  3  1  0
  3  4  1  0
  3 31  1  0
  3 32  1  0
  4 10  1  0
  4  5  1  0
  4 33  1  1
  5  6  1  0
  5  7  1  0
  5  8  1  0
  6 34  1  0
  6 35  1  0
  6 36  1  0
  7 37  1  0
  7 38  1  0
  7 39  1  0
  8 26  1  0
  8  9  1  0
  8 40  1  1
  9 10  1  0
 10 11  1  6
 10 16  1  0
 11 12  1  0
 11 41  1  0
 11 42  1  0
 12 13  2  3
 12 43  1  0
 13 14  1  0
 13 15  1  0
 14 44  1  0
 14 45  1  0
 14 46  1  0
 15 47  1  0
 15 48  1  0
 15 49  1  0
 16 25  1  0
 16 17  1  6
 16 20  1  0
 17 18  1  0
 17 19  2  0
 18 50  1  0
 18 51  1  0
 18 52  1  0
 20 26  1  0
 20 21  1  0
 20 53  1  1
 21 22  2  0
 21 54  1  0
 22 23  1  0
 22 24  1  0
 23 55  1  0
 23 56  1  0
 23 57  1  0
 24 25  1  0
 24 58  1  0
 24 59  1  0
 25 26  1  0
 25 60  1  1
 26 27  1  1
 27 28  2  0
M  END
>  <i_m_ct_stereo_status>  (210) 
1

>  <s_m_source_file>  (210) 
/var/tmp/pbs.5076255.sched01/tmpnszqc94g/84e4epk0lh.sdf

>  <i_m_source_file_index>  (210) 
17

>  <i_lp_mmshare_version>  (210) 
48012

>  <i_f3d_flags>  (210) 
0

>  <s_epik_input>  (210) 
Tz1DMUMoPVtDSDJdKVtDSDJdW0NAQEhdKEMoW0NIM10pKFtDSDNdKVtDQEhdMltDQEBdMTM0KVtDQF0oTzIpKFtDSDJdW0NIXT1DKFtDSDNdKVtDSDNdKVtDQF01KEMoPU8pW0NIM10pW0NASF0zW0NIXT1DKFtDSDNdKVtDSDJdW0NASF00NQ==

>  <s_epik_cmdline>  (210) 
J2VwaWtfcHl0aG9uJywgJy1waHQnLCAnMi4wJywgJy1waCcsICc3LjAnLCAnLXRuJywgJzgnLCAnLW1hJywgJzIwMCcsICctaW1hZScsICc8aW5maWxlLm1hZT4nLCAnLW9tYWUnLCAnPG91dGZpbGUubWFlPic=

>  <r_lp_tautomer_probability>  (210) 
1

>  <r_epik_Ionization_Penalty>  (210) 
2.76312e-12

>  <r_epik_Ionization_Penalty_Charging>  (210) 
0

>  <r_epik_Ionization_Penalty_Neutral>  (210) 
2.76312e-12

>  <r_epik_State_Penalty>  (210) 
-0

>  <r_epik_Charging_Adjusted_Penalty>  (210) 
0

>  <i_epik_Tot_Q>  (210) 
0

>  <i_epik_Tot_abs_Q>  (210) 
0

>  <s_lp_Force_Field>  (210) 
OPLS3e

>  <r_lp_Energy>  (210) 
153.648

>  <b_lp_Chiralities_Consistent>  (210) 
1

>  <s_lp_Variant>  (210) 
70:0-1

>  <s_i_glide_gridfile>  (210) 
pfpi4k_grid

>  <i_i_glide_lignum>  (210) 
17

>  <i_i_glide_rotatable_bonds>  (210) 
3

>  <r_i_docking_score>  (210) 
-1.63446

>  <r_i_glide_ligand_efficiency>  (210) 
-0.0583734

>  <r_i_glide_ligand_efficiency_sa>  (210) 
-0.177256

>  <r_i_glide_ligand_efficiency_ln>  (210) 
-0.37728

>  <r_i_glide_gscore>  (210) 
-1.63446

>  <r_i_glide_lipo>  (210) 
-0.596676

>  <r_i_glide_hbond>  (210) 
-0.141791

>  <r_i_glide_metal>  (210) 
-0

>  <r_i_glide_rewards>  (210) 
-0.835957

>  <r_i_glide_evdw>  (210) 
1.71152

>  <r_i_glide_ecoul>  (210) 
-2.57012

>  <r_i_glide_erotb>  (210) 
0.267983

>  <r_i_glide_esite>  (210) 
-0.0280733

>  <r_i_glide_emodel>  (210) 
8.45074

>  <r_i_glide_energy>  (210) 
-0.858601

>  <r_i_glide_einternal>  (210) 
11.8881

>  <r_i_glide_intrahb_reward>  (210) 
-0

>  <i_i_glide_confnum>  (210) 
1

>  <i_i_glide_posenum>  (210) 
20

>  <r_i_glide_eff_state_penalty>  (210) 
0

>  <ligand_id>  (210) 
70

>  <original_smiles>  (210) 
C=C1CC2C(C)(C)C3OC2(CC=C(C)C)C2(C(C)=O)C4C=C(C)CC2C34C1=O

>  <smiles>  (210) 
[H]C([H])=C1C(=O)C23C4([H])OC(C([H])([H])C([H])=C(C([H])([H])[H])C([H])([H])[H])(C([H])(C1([H])[H])C4(C([H])([H])[H])C([H])([H])[H])C1(C(=O)C([H])([H])[H])C2([H])C([H])=C(C([H])([H])[H])C([H])([H])C31[H]

$$$$
71:0:0
     RDKit          3D

 45 50  0  0  1  0  0  0  0  0999 V2000
    0.1811   -9.1136    6.8375 C   0  0  0  0  0  0  0  0  0  0  0  0
    1.7208   -9.2199    6.7375 C   0  0  2  0  0  0  0  0  0  0  0  0
    2.4701   -8.3530    7.7527 C   0  0  0  0  0  0  0  0  0  0  0  0
    2.0008   -7.9718    8.8290 O   0  0  0  0  0  0  0  0  0  0  0  0
    3.6661   -8.1062    7.2505 N   0  0  0  0  0  0  0  0  0  0  0  0
    4.6708   -7.2885    7.6724 C   0  0  0  0  0  0  0  0  0  0  0  0
    4.7726   -6.6916    8.7226 O   0  0  0  0  0  0  0  0  0  0  0  0
    5.5250   -7.2696    6.6132 O   0  0  0  0  0  0  0  0  0  0  0  0
    4.8965   -7.7115    5.4068 C   0  0  0  0  0  0  0  0  0  0  0  0
    3.8986   -8.7166    5.9766 C   0  0  2  0  0  0  0  0  0  0  0  0
    2.4806   -8.9567    5.3756 C   0  0  1  0  0  0  0  0  0  0  0  0
    2.4605  -10.2289    4.4632 C   0  0  0  0  0  0  0  0  0  0  0  0
    2.0144   -9.8644    3.0273 C   0  0  1  0  0  0  0  0  0  0  0  0
    0.6300   -9.2414    3.1275 C   0  0  0  0  0  0  0  0  0  0  0  0
   -0.5289   -9.7157    2.5051 C   0  0  0  0  0  0  0  0  0  0  0  0
   -1.7247   -9.0064    2.6830 C   0  0  0  0  0  0  0  0  0  0  0  0
   -1.7543   -7.8291    3.4869 C   0  0  0  0  0  0  0  0  0  0  0  0
   -0.5835   -7.3590    4.0949 C   0  0  0  0  0  0  0  0  0  0  0  0
    0.6086   -8.0839    3.9143 C   0  0  0  0  0  0  0  0  0  0  0  0
    1.9770   -7.7370    4.4975 C   0  0  2  0  0  0  0  0  0  0  0  0
    2.8970   -7.5985    3.2669 C   0  0  0  0  0  0  0  0  0  0  0  0
    3.6539   -6.4399    2.9474 C   0  0  0  0  0  0  0  0  0  0  0  0
    4.5020   -6.6058    1.8640 C   0  0  0  0  0  0  0  0  0  0  0  0
    4.5624   -7.8058    1.0687 C   0  0  0  0  0  0  0  0  0  0  0  0
    3.7734   -8.9394    1.3602 C   0  0  0  0  0  0  0  0  0  0  0  0
    2.9576   -8.7725    2.4906 C   0  0  0  0  0  0  0  0  0  0  0  0
   -0.1647   -9.4524    7.8128 H   0  0  0  0  0  0  0  0  0  0  0  0
   -0.3140   -9.7513    6.1044 H   0  0  0  0  0  0  0  0  0  0  0  0
   -0.1765   -8.0946    6.7094 H   0  0  0  0  0  0  0  0  0  0  0  0
    1.9477  -10.2416    7.0469 H   0  0  0  0  0  0  0  0  0  0  0  0
    4.4074   -6.8300    5.0087 H   0  0  0  0  0  0  0  0  0  0  0  0
    5.5527   -8.1470    4.6480 H   0  0  0  0  0  0  0  0  0  0  0  0
    4.3853   -9.6764    6.1953 H   0  0  0  0  0  0  0  0  0  0  0  0
    3.4418  -10.7038    4.4322 H   0  0  0  0  0  0  0  0  0  0  0  0
    1.7848  -10.9890    4.8596 H   0  0  0  0  0  0  0  0  0  0  0  0
    2.0171  -10.7488    2.3858 H   0  0  0  0  0  0  0  0  0  0  0  0
   -0.4950  -10.6087    1.9142 H   0  0  0  0  0  0  0  0  0  0  0  0
   -2.6310   -9.3714    2.2222 H   0  0  0  0  0  0  0  0  0  0  0  0
   -2.6886   -7.3109    3.6459 H   0  0  0  0  0  0  0  0  0  0  0  0
   -0.5860   -6.4824    4.7104 H   0  0  0  0  0  0  0  0  0  0  0  0
    1.9196   -6.8003    5.0664 H   0  0  0  0  0  0  0  0  0  0  0  0
    3.6133   -5.5249    3.5413 H   0  0  0  0  0  0  0  0  0  0  0  0
    5.1874   -5.8027    1.5980 H   0  0  0  0  0  0  0  0  0  0  0  0
    5.2519   -7.8385    0.2487 H   0  0  0  0  0  0  0  0  0  0  0  0
    3.8260   -9.8512    0.7876 H   0  0  0  0  0  0  0  0  0  0  0  0
  1  2  1  0
  1 27  1  0
  1 28  1  0
  1 29  1  0
  2 11  1  0
  2  3  1  0
  2 30  1  1
  3  4  2  0
  3  5  1  0
  5 10  1  0
  5  6  1  0
  6  7  2  0
  6  8  1  0
  8  9  1  0
  9 10  1  0
  9 31  1  0
  9 32  1  0
 10 11  1  0
 10 33  1  1
 11 20  1  0
 11 12  1  6
 12 13  1  0
 12 34  1  0
 12 35  1  0
 13 26  1  0
 13 14  1  0
 13 36  1  6
 14 19  2  0
 14 15  1  0
 15 16  2  0
 15 37  1  0
 16 17  1  0
 16 38  1  0
 17 18  2  0
 17 39  1  0
 18 19  1  0
 18 40  1  0
 19 20  1  0
 20 21  1  0
 20 41  1  1
 21 26  2  0
 21 22  1  0
 22 23  2  0
 22 42  1  0
 23 24  1  0
 23 43  1  0
 24 25  2  0
 24 44  1  0
 25 26  1  0
 25 45  1  0
M  END
>  <i_m_ct_stereo_status>  (211) 
1

>  <s_m_source_file>  (211) 
/var/tmp/pbs.5076255.sched01/tmpnszqc94g/84e4epk0lh.sdf

>  <i_m_source_file_index>  (211) 
18

>  <i_lp_mmshare_version>  (211) 
48012

>  <i_f3d_flags>  (211) 
0

>  <s_epik_input>  (211) 
W0NIM11bQ0BASF0xQyg9TylOKEMoPU8pT1tDSDJdMilbQ0BIXTJbQ0BdMTNbQ0BASF00YzVjKFtjSF1bY0hdW2NIXVtjSF01KVtDQEhdKFtDSDJdMyljNmM0W2NIXVtjSF1bY0hdW2NIXTY=

>  <s_epik_cmdline>  (211) 
J2VwaWtfcHl0aG9uJywgJy1waHQnLCAnMi4wJywgJy1waCcsICc3LjAnLCAnLXRuJywgJzgnLCAnLW1hJywgJzIwMCcsICctaW1hZScsICc8aW5maWxlLm1hZT4nLCAnLW9tYWUnLCAnPG91dGZpbGUubWFlPic=

>  <r_lp_tautomer_probability>  (211) 
1

>  <r_epik_Ionization_Penalty>  (211) 
1.78859e-07

>  <r_epik_Ionization_Penalty_Charging>  (211) 
0

>  <r_epik_Ionization_Penalty_Neutral>  (211) 
1.78859e-07

>  <r_epik_State_Penalty>  (211) 
-0

>  <r_epik_Charging_Adjusted_Penalty>  (211) 
0

>  <i_epik_Tot_Q>  (211) 
0

>  <i_epik_Tot_abs_Q>  (211) 
0

>  <s_epik_Chemistry_Notes>  (211) 
This compound has an ester and may undergo hydrolysis at high or low pH.

>  <s_lp_Force_Field>  (211) 
OPLS3e

>  <r_lp_Energy>  (211) 
56.9958

>  <b_lp_Chiralities_Consistent>  (211) 
1

>  <s_lp_Variant>  (211) 
71:0-1

>  <s_i_glide_gridfile>  (211) 
pfpi4k_grid

>  <i_i_glide_lignum>  (211) 
18

>  <i_i_glide_rotatable_bonds>  (211) 
0

>  <r_i_docking_score>  (211) 
-2.69675

>  <r_i_glide_ligand_efficiency>  (211) 
-0.103721

>  <r_i_glide_ligand_efficiency_sa>  (211) 
-0.307274

>  <r_i_glide_ligand_efficiency_ln>  (211) 
-0.633324

>  <r_i_glide_gscore>  (211) 
-2.69675

>  <r_i_glide_lipo>  (211) 
-0.278868

>  <r_i_glide_hbond>  (211) 
0

>  <r_i_glide_metal>  (211) 
-0

>  <r_i_glide_rewards>  (211) 
-1.05415

>  <r_i_glide_evdw>  (211) 
-23.1235

>  <r_i_glide_ecoul>  (211) 
-1.28285

>  <r_i_glide_erotb>  (211) 
0

>  <r_i_glide_esite>  (211) 
-0.0151353

>  <r_i_glide_emodel>  (211) 
-27.9342

>  <r_i_glide_energy>  (211) 
-24.4063

>  <r_i_glide_einternal>  (211) 
0

>  <r_i_glide_intrahb_reward>  (211) 
-0

>  <i_i_glide_confnum>  (211) 
1

>  <i_i_glide_posenum>  (211) 
4

>  <r_i_glide_eff_state_penalty>  (211) 
0

>  <ligand_id>  (211) 
71

>  <original_smiles>  (211) 
CC1C(=O)N2C(=O)OCC2C12CC1c3ccccc3C2c2ccccc21

>  <smiles>  (211) 
[H]c1c([H])c([H])c2c(c1[H])C1([H])c3c([H])c([H])c([H])c([H])c3C2([H])C2(C1([H])[H])C([H])(C([H])([H])[H])C(=O)N1C(=O)OC([H])([H])C12[H]

$$$$
71:0:1
     RDKit          3D

 45 50  0  0  1  0  0  0  0  0999 V2000
   -0.1816   -5.9414    5.8238 C   0  0  0  0  0  0  0  0  0  0  0  0
    0.9502   -4.9276    5.5389 C   0  0  2  0  0  0  0  0  0  0  0  0
    0.4680   -3.4916    5.3170 C   0  0  0  0  0  0  0  0  0  0  0  0
   -0.5803   -3.0265    5.7655 O   0  0  0  0  0  0  0  0  0  0  0  0
    1.3835   -2.8712    4.5679 N   0  0  0  0  0  0  0  0  0  0  0  0
    1.3956   -1.6683    3.9874 C   0  0  0  0  0  0  0  0  0  0  0  0
    0.5984   -0.7366    4.1287 O   0  0  0  0  0  0  0  0  0  0  0  0
    2.4863   -1.6992    3.1904 O   0  0  0  0  0  0  0  0  0  0  0  0
    2.9179   -3.0328    2.9456 C   0  0  0  0  0  0  0  0  0  0  0  0
    2.5157   -3.6942    4.2590 C   0  0  2  0  0  0  0  0  0  0  0  0
    2.0016   -5.1672    4.3780 C   0  0  1  0  0  0  0  0  0  0  0  0
    3.1523   -6.1347    4.8334 C   0  0  0  0  0  0  0  0  0  0  0  0
    3.3718   -7.2569    3.7910 C   0  0  1  0  0  0  0  0  0  0  0  0
    2.0536   -7.9968    3.6451 C   0  0  0  0  0  0  0  0  0  0  0  0
    1.8529   -9.3626    3.8802 C   0  0  0  0  0  0  0  0  0  0  0  0
    0.5654   -9.8990    3.6741 C   0  0  0  0  0  0  0  0  0  0  0  0
   -0.4947   -9.0741    3.2313 C   0  0  0  0  0  0  0  0  0  0  0  0
   -0.2778   -7.7050    2.9865 C   0  0  0  0  0  0  0  0  0  0  0  0
    1.0073   -7.1765    3.2083 C   0  0  0  0  0  0  0  0  0  0  0  0
    1.4348   -5.7307    3.0082 C   0  0  2  0  0  0  0  0  0  0  0  0
    2.5945   -5.8078    1.9750 C   0  0  0  0  0  0  0  0  0  0  0  0
    2.6145   -5.1356    0.7473 C   0  0  0  0  0  0  0  0  0  0  0  0
    3.8544   -5.2391    0.0712 C   0  0  0  0  0  0  0  0  0  0  0  0
    4.9312   -6.0459    0.5281 C   0  0  0  0  0  0  0  0  0  0  0  0
    4.8751   -6.7734    1.7341 C   0  0  0  0  0  0  0  0  0  0  0  0
    3.6752   -6.6052    2.4397 C   0  0  0  0  0  0  0  0  0  0  0  0
   -0.7162   -5.6703    6.7331 H   0  0  0  0  0  0  0  0  0  0  0  0
    0.2064   -6.9456    5.9876 H   0  0  0  0  0  0  0  0  0  0  0  0
   -0.9192   -5.9843    5.0274 H   0  0  0  0  0  0  0  0  0  0  0  0
    1.5131   -4.8691    6.4737 H   0  0  0  0  0  0  0  0  0  0  0  0
    2.2838   -3.3489    2.1343 H   0  0  0  0  0  0  0  0  0  0  0  0
    3.9699   -3.1843    2.6940 H   0  0  0  0  0  0  0  0  0  0  0  0
    3.2582   -3.4941    5.0432 H   0  0  0  0  0  0  0  0  0  0  0  0
    4.0804   -5.5838    4.9907 H   0  0  0  0  0  0  0  0  0  0  0  0
    2.9166   -6.5893    5.7965 H   0  0  0  0  0  0  0  0  0  0  0  0
    4.1799   -7.9216    4.1005 H   0  0  0  0  0  0  0  0  0  0  0  0
    2.6646   -9.9819    4.2140 H   0  0  0  0  0  0  0  0  0  0  0  0
    0.3884  -10.9474    3.8661 H   0  0  0  0  0  0  0  0  0  0  0  0
   -1.4796   -9.4972    3.0927 H   0  0  0  0  0  0  0  0  0  0  0  0
   -1.0802   -7.0736    2.6547 H   0  0  0  0  0  0  0  0  0  0  0  0
    0.6093   -5.1298    2.6242 H   0  0  0  0  0  0  0  0  0  0  0  0
    1.8094   -4.5174    0.3640 H   0  0  0  0  0  0  0  0  0  0  0  0
    3.9769   -4.6829   -0.8382 H   0  0  0  0  0  0  0  0  0  0  0  0
    5.8266   -6.0774   -0.0776 H   0  0  0  0  0  0  0  0  0  0  0  0
    5.6992   -7.3743    2.0908 H   0  0  0  0  0  0  0  0  0  0  0  0
  1  2  1  0
  1 27  1  0
  1 28  1  0
  1 29  1  0
  2 11  1  0
  2  3  1  0
  2 30  1  1
  3  4  2  0
  3  5  1  0
  5 10  1  0
  5  6  1  0
  6  7  2  0
  6  8  1  0
  8  9  1  0
  9 10  1  0
  9 31  1  0
  9 32  1  0
 10 11  1  0
 10 33  1  1
 11 20  1  0
 11 12  1  1
 12 13  1  0
 12 34  1  0
 12 35  1  0
 13 26  1  0
 13 14  1  0
 13 36  1  1
 14 19  2  0
 14 15  1  0
 15 16  2  0
 15 37  1  0
 16 17  1  0
 16 38  1  0
 17 18  2  0
 17 39  1  0
 18 19  1  0
 18 40  1  0
 19 20  1  0
 20 21  1  0
 20 41  1  6
 21 26  2  0
 21 22  1  0
 22 23  2  0
 22 42  1  0
 23 24  1  0
 23 43  1  0
 24 25  2  0
 24 44  1  0
 25 26  1  0
 25 45  1  0
M  END
>  <i_m_ct_stereo_status>  (212) 
1

>  <s_m_source_file>  (212) 
/var/tmp/pbs.5076255.sched01/tmpnszqc94g/84e4epk0lh.sdf

>  <i_m_source_file_index>  (212) 
18

>  <i_lp_mmshare_version>  (212) 
48012

>  <i_f3d_flags>  (212) 
0

>  <s_epik_input>  (212) 
W0NIM11bQ0BASF0xQyg9TylOKEMoPU8pT1tDSDJdMilbQ0BIXTJbQ0BdMTNbQ0BASF00YzVjKFtjSF1bY0hdW2NIXVtjSF01KVtDQEhdKFtDSDJdMyljNmM0W2NIXVtjSF1bY0hdW2NIXTY=

>  <s_epik_cmdline>  (212) 
J2VwaWtfcHl0aG9uJywgJy1waHQnLCAnMi4wJywgJy1waCcsICc3LjAnLCAnLXRuJywgJzgnLCAnLW1hJywgJzIwMCcsICctaW1hZScsICc8aW5maWxlLm1hZT4nLCAnLW9tYWUnLCAnPG91dGZpbGUubWFlPic=

>  <r_lp_tautomer_probability>  (212) 
1

>  <r_epik_Ionization_Penalty>  (212) 
1.78859e-07

>  <r_epik_Ionization_Penalty_Charging>  (212) 
0

>  <r_epik_Ionization_Penalty_Neutral>  (212) 
1.78859e-07

>  <r_epik_State_Penalty>  (212) 
-0

>  <r_epik_Charging_Adjusted_Penalty>  (212) 
0

>  <i_epik_Tot_Q>  (212) 
0

>  <i_epik_Tot_abs_Q>  (212) 
0

>  <s_epik_Chemistry_Notes>  (212) 
This compound has an ester and may undergo hydrolysis at high or low pH.

>  <s_lp_Force_Field>  (212) 
OPLS3e

>  <r_lp_Energy>  (212) 
56.9958

>  <b_lp_Chiralities_Consistent>  (212) 
1

>  <s_lp_Variant>  (212) 
71:0-1

>  <s_i_glide_gridfile>  (212) 
pfpi4k_grid

>  <i_i_glide_lignum>  (212) 
18

>  <i_i_glide_rotatable_bonds>  (212) 
0

>  <r_i_docking_score>  (212) 
-2.51279

>  <r_i_glide_ligand_efficiency>  (212) 
-0.0966456

>  <r_i_glide_ligand_efficiency_sa>  (212) 
-0.286312

>  <r_i_glide_ligand_efficiency_ln>  (212) 
-0.590119

>  <r_i_glide_gscore>  (212) 
-2.51279

>  <r_i_glide_lipo>  (212) 
-0.184053

>  <r_i_glide_hbond>  (212) 
0

>  <r_i_glide_metal>  (212) 
-0

>  <r_i_glide_rewards>  (212) 
-1.06605

>  <r_i_glide_evdw>  (212) 
-23.2642

>  <r_i_glide_ecoul>  (212) 
-0.638436

>  <r_i_glide_erotb>  (212) 
0

>  <r_i_glide_esite>  (212) 
-0.00371158

>  <r_i_glide_emodel>  (212) 
-27.3628

>  <r_i_glide_energy>  (212) 
-23.9026

>  <r_i_glide_einternal>  (212) 
0

>  <r_i_glide_intrahb_reward>  (212) 
-0

>  <i_i_glide_confnum>  (212) 
1

>  <i_i_glide_posenum>  (212) 
15

>  <r_i_glide_eff_state_penalty>  (212) 
0

>  <ligand_id>  (212) 
71

>  <original_smiles>  (212) 
CC1C(=O)N2C(=O)OCC2C12CC1c3ccccc3C2c2ccccc21

>  <smiles>  (212) 
[H]c1c([H])c([H])c2c(c1[H])C1([H])c3c([H])c([H])c([H])c([H])c3C2([H])C2(C1([H])[H])C([H])(C([H])([H])[H])C(=O)N1C(=O)OC([H])([H])C12[H]

$$$$
71:0:2
     RDKit          3D

 45 50  0  0  1  0  0  0  0  0999 V2000
    0.2984   -6.9908    6.1785 C   0  0  0  0  0  0  0  0  0  0  0  0
    1.8343   -7.0295    6.3533 C   0  0  2  0  0  0  0  0  0  0  0  0
    2.4522   -5.6980    6.7895 C   0  0  0  0  0  0  0  0  0  0  0  0
    1.8420   -4.8187    7.4023 O   0  0  0  0  0  0  0  0  0  0  0  0
    3.7141   -5.6963    6.3938 N   0  0  0  0  0  0  0  0  0  0  0  0
    4.6609   -4.7204    6.4093 C   0  0  0  0  0  0  0  0  0  0  0  0
    4.6230   -3.6334    6.9491 O   0  0  0  0  0  0  0  0  0  0  0  0
    5.6561   -5.2421    5.6503 O   0  0  0  0  0  0  0  0  0  0  0  0
    5.2024   -6.3199    4.8330 C   0  0  0  0  0  0  0  0  0  0  0  0
    4.1121   -6.8979    5.7289 C   0  0  2  0  0  0  0  0  0  0  0  0
    2.7864   -7.5264    5.1913 C   0  0  1  0  0  0  0  0  0  0  0  0
    2.8753   -9.0927    5.1534 C   0  0  0  0  0  0  0  0  0  0  0  0
    2.6437   -9.6232    3.7177 C   0  0  1  0  0  0  0  0  0  0  0  0
    1.2714   -9.1390    3.2788 C   0  0  0  0  0  0  0  0  0  0  0  0
    0.1995   -9.9496    2.8900 C   0  0  0  0  0  0  0  0  0  0  0  0
   -1.0024   -9.3398    2.4923 C   0  0  0  0  0  0  0  0  0  0  0  0
   -1.1217   -7.9225    2.4813 C   0  0  0  0  0  0  0  0  0  0  0  0
   -0.0343   -7.1230    2.8626 C   0  0  0  0  0  0  0  0  0  0  0  0
    1.1591   -7.7449    3.2702 C   0  0  0  0  0  0  0  0  0  0  0  0
    2.4323   -7.0402    3.7226 C   0  0  2  0  0  0  0  0  0  0  0  0
    3.5173   -7.5531    2.7474 C   0  0  0  0  0  0  0  0  0  0  0  0
    4.3256   -6.7253    1.9297 C   0  0  0  0  0  0  0  0  0  0  0  0
    5.3349   -7.4115    1.2599 C   0  0  0  0  0  0  0  0  0  0  0  0
    5.4884   -8.8411    1.2909 C   0  0  0  0  0  0  0  0  0  0  0  0
    4.6419   -9.6638    2.0644 C   0  0  0  0  0  0  0  0  0  0  0  0
    3.6722   -8.9557    2.7891 C   0  0  0  0  0  0  0  0  0  0  0  0
   -0.1790   -6.7460    7.1259 H   0  0  0  0  0  0  0  0  0  0  0  0
   -0.1000   -7.9598    5.8757 H   0  0  0  0  0  0  0  0  0  0  0  0
   -0.0261   -6.2420    5.4599 H   0  0  0  0  0  0  0  0  0  0  0  0
    2.0000   -7.6874    7.2111 H   0  0  0  0  0  0  0  0  0  0  0  0
    4.7878   -5.8253    3.9649 H   0  0  0  0  0  0  0  0  0  0  0  0
    5.9464   -7.0603    4.5283 H   0  0  0  0  0  0  0  0  0  0  0  0
    4.5450   -7.5393    6.5075 H   0  0  0  0  0  0  0  0  0  0  0  0
    3.8429   -9.4360    5.5204 H   0  0  0  0  0  0  0  0  0  0  0  0
    2.1377   -9.5453    5.8184 H   0  0  0  0  0  0  0  0  0  0  0  0
    2.7177  -10.7137    3.6859 H   0  0  0  0  0  0  0  0  0  0  0  0
    0.3002  -11.0164    2.9040 H   0  0  0  0  0  0  0  0  0  0  0  0
   -1.8416   -9.9529    2.1979 H   0  0  0  0  0  0  0  0  0  0  0  0
   -2.0593   -7.4727    2.1861 H   0  0  0  0  0  0  0  0  0  0  0  0
   -0.0907   -6.0540    2.8748 H   0  0  0  0  0  0  0  0  0  0  0  0
    2.3133   -5.9520    3.6536 H   0  0  0  0  0  0  0  0  0  0  0  0
    4.2222   -5.6409    1.8924 H   0  0  0  0  0  0  0  0  0  0  0  0
    6.0560   -6.8418    0.6839 H   0  0  0  0  0  0  0  0  0  0  0  0
    6.2879   -9.2892    0.7269 H   0  0  0  0  0  0  0  0  0  0  0  0
    4.7501  -10.7358    2.0985 H   0  0  0  0  0  0  0  0  0  0  0  0
  1  2  1  0
  1 27  1  0
  1 28  1  0
  1 29  1  0
  2 11  1  0
  2  3  1  0
  2 30  1  1
  3  4  2  0
  3  5  1  0
  5 10  1  0
  5  6  1  0
  6  7  2  0
  6  8  1  0
  8  9  1  0
  9 10  1  0
  9 31  1  0
  9 32  1  0
 10 11  1  0
 10 33  1  1
 11 20  1  0
 11 12  1  6
 12 13  1  0
 12 34  1  0
 12 35  1  0
 13 26  1  0
 13 14  1  0
 13 36  1  1
 14 19  2  0
 14 15  1  0
 15 16  2  0
 15 37  1  0
 16 17  1  0
 16 38  1  0
 17 18  2  0
 17 39  1  0
 18 19  1  0
 18 40  1  0
 19 20  1  0
 20 21  1  0
 20 41  1  1
 21 26  2  0
 21 22  1  0
 22 23  2  0
 22 42  1  0
 23 24  1  0
 23 43  1  0
 24 25  2  0
 24 44  1  0
 25 26  1  0
 25 45  1  0
M  END
>  <i_m_ct_stereo_status>  (213) 
1

>  <s_m_source_file>  (213) 
/var/tmp/pbs.5076255.sched01/tmpnszqc94g/84e4epk0lh.sdf

>  <i_m_source_file_index>  (213) 
18

>  <i_lp_mmshare_version>  (213) 
48012

>  <i_f3d_flags>  (213) 
0

>  <s_epik_input>  (213) 
W0NIM11bQ0BASF0xQyg9TylOKEMoPU8pT1tDSDJdMilbQ0BIXTJbQ0BdMTNbQ0BASF00YzVjKFtjSF1bY0hdW2NIXVtjSF01KVtDQEhdKFtDSDJdMyljNmM0W2NIXVtjSF1bY0hdW2NIXTY=

>  <s_epik_cmdline>  (213) 
J2VwaWtfcHl0aG9uJywgJy1waHQnLCAnMi4wJywgJy1waCcsICc3LjAnLCAnLXRuJywgJzgnLCAnLW1hJywgJzIwMCcsICctaW1hZScsICc8aW5maWxlLm1hZT4nLCAnLW9tYWUnLCAnPG91dGZpbGUubWFlPic=

>  <r_lp_tautomer_probability>  (213) 
1

>  <r_epik_Ionization_Penalty>  (213) 
1.78859e-07

>  <r_epik_Ionization_Penalty_Charging>  (213) 
0

>  <r_epik_Ionization_Penalty_Neutral>  (213) 
1.78859e-07

>  <r_epik_State_Penalty>  (213) 
-0

>  <r_epik_Charging_Adjusted_Penalty>  (213) 
0

>  <i_epik_Tot_Q>  (213) 
0

>  <i_epik_Tot_abs_Q>  (213) 
0

>  <s_epik_Chemistry_Notes>  (213) 
This compound has an ester and may undergo hydrolysis at high or low pH.

>  <s_lp_Force_Field>  (213) 
OPLS3e

>  <r_lp_Energy>  (213) 
56.9958

>  <b_lp_Chiralities_Consistent>  (213) 
1

>  <s_lp_Variant>  (213) 
71:0-1

>  <s_i_glide_gridfile>  (213) 
pfpi4k_grid

>  <i_i_glide_lignum>  (213) 
18

>  <i_i_glide_rotatable_bonds>  (213) 
0

>  <r_i_docking_score>  (213) 
-2.40574

>  <r_i_glide_ligand_efficiency>  (213) 
-0.0925284

>  <r_i_glide_ligand_efficiency_sa>  (213) 
-0.274115

>  <r_i_glide_ligand_efficiency_ln>  (213) 
-0.56498

>  <r_i_glide_gscore>  (213) 
-2.40574

>  <r_i_glide_lipo>  (213) 
-0.33495

>  <r_i_glide_hbond>  (213) 
0

>  <r_i_glide_metal>  (213) 
-0

>  <r_i_glide_rewards>  (213) 
-1.05415

>  <r_i_glide_evdw>  (213) 
-21.0259

>  <r_i_glide_ecoul>  (213) 
0.231057

>  <r_i_glide_erotb>  (213) 
0

>  <r_i_glide_esite>  (213) 
0

>  <r_i_glide_emodel>  (213) 
-23.9392

>  <r_i_glide_energy>  (213) 
-20.7949

>  <r_i_glide_einternal>  (213) 
0

>  <r_i_glide_intrahb_reward>  (213) 
-0

>  <i_i_glide_confnum>  (213) 
1

>  <i_i_glide_posenum>  (213) 
7

>  <r_i_glide_eff_state_penalty>  (213) 
0

>  <ligand_id>  (213) 
71

>  <original_smiles>  (213) 
CC1C(=O)N2C(=O)OCC2C12CC1c3ccccc3C2c2ccccc21

>  <smiles>  (213) 
[H]c1c([H])c([H])c2c(c1[H])C1([H])c3c([H])c([H])c([H])c([H])c3C2([H])C2(C1([H])[H])C([H])(C([H])([H])[H])C(=O)N1C(=O)OC([H])([H])C12[H]

$$$$
72:0:0
     RDKit          3D

 70 75  0  0  1  0  0  0  0  0999 V2000
   -2.8985    2.9632    3.6868 C   0  0  0  0  0  0  0  0  0  0  0  0
   -1.3995    3.0400    3.6612 C   0  0  0  0  0  0  0  0  0  0  0  0
   -0.6188    3.8811    4.3378 C   0  0  0  0  0  0  0  0  0  0  0  0
    0.8260    3.6909    3.9753 C   0  0  1  0  0  0  0  0  0  0  0  0
    1.8373    3.8459    5.1161 C   0  0  0  0  0  0  0  0  0  0  0  0
    3.1001    3.1064    4.6863 C   0  0  1  0  0  0  0  0  0  0  0  0
    4.2256    3.6591    5.3227 O   0  0  0  0  0  0  0  0  0  0  0  0
    2.9033    1.5374    4.6647 C   0  0  1  0  0  0  0  0  0  0  0  0
    3.5702    0.6339    5.8272 C   0  0  2  0  0  0  0  0  0  0  0  0
    3.9774    1.4881    7.0774 C   0  0  0  0  0  0  0  0  0  0  0  0
    4.9465    0.1075    5.3089 C   0  0  0  0  0  0  0  0  0  0  0  0
    4.9488   -0.7576    4.0486 C   0  0  0  0  0  0  0  0  0  0  0  0
    5.2898   -0.2636    2.9726 O   0  0  0  0  0  0  0  0  0  0  0  0
    4.6316   -2.2508    4.1707 C   0  0  2  0  0  0  0  0  0  0  0  0
    4.4214   -2.9246    2.8054 C   0  0  0  0  0  0  0  0  0  0  0  0
    3.0665   -2.6449    2.4735 O   0  0  0  0  0  0  0  0  0  0  0  0
    2.2899   -2.6400    3.6687 C   0  0  2  0  0  0  0  0  0  0  0  0
    1.1950   -1.5743    3.6028 C   0  0  0  0  0  0  0  0  0  0  0  0
    1.5916   -0.1436    3.1609 C   0  0  0  0  0  0  0  0  0  0  0  0
    1.4584    1.1034    4.1295 C   0  0  1  0  0  0  0  0  0  0  0  0
    0.5072    0.8191    5.3544 C   0  0  1  0  0  0  0  0  0  0  0  0
   -0.7447    0.2308    5.0274 O   0  0  0  0  0  0  0  0  0  0  0  0
    1.1586    0.1128    6.5658 C   0  0  1  0  0  0  0  0  0  0  0  0
    0.2340   -0.6024    7.3709 O   0  0  0  0  0  0  0  0  0  0  0  0
    2.6004   -0.4878    6.4136 C   0  0  1  0  0  0  0  0  0  0  0  0
    2.9086   -2.0585    6.2443 C   0  0  0  0  0  0  0  0  0  0  0  0
    4.0659   -2.4823    7.2075 C   0  0  0  0  0  0  0  0  0  0  0  0
    1.7496   -2.9530    6.7643 C   0  0  0  0  0  0  0  0  0  0  0  0
    3.3010   -2.5978    4.8274 C   0  0  2  0  0  0  0  0  0  0  0  0
    0.8603    2.3053    3.2479 C   0  0  2  0  0  0  0  0  0  0  0  0
    1.6432    2.4813    2.0790 O   0  0  0  0  0  0  0  0  0  0  0  0
   -0.6081    2.1321    2.7595 C   0  0  0  0  0  0  0  0  0  0  0  0
   -3.1659    1.9674    4.0128 H   0  0  0  0  0  0  0  0  0  0  0  0
   -3.3266    3.1470    2.6986 H   0  0  0  0  0  0  0  0  0  0  0  0
   -3.3055    3.6688    4.4025 H   0  0  0  0  0  0  0  0  0  0  0  0
   -0.9514    4.6452    5.0223 H   0  0  0  0  0  0  0  0  0  0  0  0
    1.0244    4.4867    3.2552 H   0  0  0  0  0  0  0  0  0  0  0  0
    2.0378    4.9073    5.2706 H   0  0  0  0  0  0  0  0  0  0  0  0
    1.4803    3.4682    6.0732 H   0  0  0  0  0  0  0  0  0  0  0  0
    3.3049    3.4194    3.6616 H   0  0  0  0  0  0  0  0  0  0  0  0
    4.2840    4.5730    5.0856 H   0  0  0  0  0  0  0  0  0  0  0  0
    3.5278    1.3656    3.7952 H   0  0  0  0  0  0  0  0  0  0  0  0
    4.2322    0.8938    7.9566 H   0  0  0  0  0  0  0  0  0  0  0  0
    3.1935    2.1872    7.3741 H   0  0  0  0  0  0  0  0  0  0  0  0
    4.8902    2.0603    6.9178 H   0  0  0  0  0  0  0  0  0  0  0  0
    5.5594    0.9742    5.0572 H   0  0  0  0  0  0  0  0  0  0  0  0
    5.5113   -0.3814    6.0950 H   0  0  0  0  0  0  0  0  0  0  0  0
    5.4625   -2.7239    4.6933 H   0  0  0  0  0  0  0  0  0  0  0  0
    5.1021   -2.5912    2.0214 H   0  0  0  0  0  0  0  0  0  0  0  0
    4.5444   -4.0053    2.9006 H   0  0  0  0  0  0  0  0  0  0  0  0
    1.7825   -3.6060    3.7197 H   0  0  0  0  0  0  0  0  0  0  0  0
    0.4824   -1.9385    2.8653 H   0  0  0  0  0  0  0  0  0  0  0  0
    0.6360   -1.6131    4.5231 H   0  0  0  0  0  0  0  0  0  0  0  0
    2.5709   -0.1670    2.6869 H   0  0  0  0  0  0  0  0  0  0  0  0
    0.9560    0.0319    2.2936 H   0  0  0  0  0  0  0  0  0  0  0  0
    0.1811    1.7736    5.7541 H   0  0  0  0  0  0  0  0  0  0  0  0
   -1.1430    0.7499    4.3460 H   0  0  0  0  0  0  0  0  0  0  0  0
    1.3258    0.9550    7.2378 H   0  0  0  0  0  0  0  0  0  0  0  0
    0.6691   -0.8336    8.1773 H   0  0  0  0  0  0  0  0  0  0  0  0
    2.8014   -0.4839    7.4819 H   0  0  0  0  0  0  0  0  0  0  0  0
    4.1950   -3.5653    7.2190 H   0  0  0  0  0  0  0  0  0  0  0  0
    3.8748   -2.1955    8.2425 H   0  0  0  0  0  0  0  0  0  0  0  0
    5.0402   -2.0885    6.9459 H   0  0  0  0  0  0  0  0  0  0  0  0
    1.9926   -4.0136    6.6948 H   0  0  0  0  0  0  0  0  0  0  0  0
    0.8188   -2.8285    6.2183 H   0  0  0  0  0  0  0  0  0  0  0  0
    1.5416   -2.7656    7.8181 H   0  0  0  0  0  0  0  0  0  0  0  0
    3.4583   -3.6623    5.0219 H   0  0  0  0  0  0  0  0  0  0  0  0
    1.2070    3.1419    1.5381 H   0  0  0  0  0  0  0  0  0  0  0  0
   -0.9814    1.1100    2.7355 H   0  0  0  0  0  0  0  0  0  0  0  0
   -0.7300    2.5119    1.7475 H   0  0  0  0  0  0  0  0  0  0  0  0
  1  2  1  0
  1 33  1  0
  1 34  1  0
  1 35  1  0
  2 32  1  0
  2  3  2  0
  3  4  1  0
  3 36  1  0
  4 30  1  0
  4  5  1  0
  4 37  1  6
  5  6  1  0
  5 38  1  0
  5 39  1  0
  6  7  1  0
  6  8  1  0
  6 40  1  6
  7 41  1  0
  8 20  1  0
  8  9  1  0
  8 42  1  6
  9 25  1  0
  9 10  1  1
  9 11  1  0
 10 43  1  0
 10 44  1  0
 10 45  1  0
 11 12  1  0
 11 46  1  0
 11 47  1  0
 12 13  2  0
 12 14  1  0
 14 29  1  0
 14 15  1  0
 14 48  1  1
 15 16  1  0
 15 49  1  0
 15 50  1  0
 16 17  1  0
 17 29  1  0
 17 18  1  0
 17 51  1  1
 18 19  1  0
 18 52  1  0
 18 53  1  0
 20 19  1  6
 19 54  1  0
 19 55  1  0
 20 21  1  0
 20 30  1  0
 21 22  1  0
 21 23  1  0
 21 56  1  1
 22 57  1  0
 23 24  1  0
 23 25  1  0
 23 58  1  1
 24 59  1  0
 25 26  1  0
 25 60  1  1
 26 27  1  0
 26 28  1  0
 26 29  1  0
 27 61  1  0
 27 62  1  0
 27 63  1  0
 28 64  1  0
 28 65  1  0
 28 66  1  0
 29 67  1  1
 30 31  1  6
 30 32  1  0
 31 68  1  0
 32 69  1  0
 32 70  1  0
M  END
>  <i_m_ct_stereo_status>  (214) 
1

>  <s_m_source_file>  (214) 
/var/tmp/pbs.5076255.sched01/tmpnszqc94g/84e4epk0lh.sdf

>  <i_m_source_file_index>  (214) 
19

>  <i_lp_mmshare_version>  (214) 
48012

>  <i_f3d_flags>  (214) 
0

>  <s_epik_input>  (214) 
W0NIM11DKD1bQ0hdMSlbQ0gyXVtDQEBdMihbT0hdKVtDQEBIXTFbQ0gyXVtDQEBIXShbT0hdKVtDQEhdKFtDQEBdMjM0KVtDQEBdNShbQ0gzXSlbQ0BASF0oW0NASF0oW09IXSlbQ0BASF00W09IXSlDKFtDSDNdKShbQ0gzXSlbQ0hdNltDQEhdKEMoPU8pW0NIMl01KVtDSDJdT1tDQEBIXTZbQ0gyXVtDSDJdMw==

>  <s_epik_cmdline>  (214) 
J2VwaWtfcHl0aG9uJywgJy1waHQnLCAnMi4wJywgJy1waCcsICc3LjAnLCAnLXRuJywgJzgnLCAnLW1hJywgJzIwMCcsICctaW1hZScsICc8aW5maWxlLm1hZT4nLCAnLW9tYWUnLCAnPG91dGZpbGUubWFlPic=

>  <r_lp_tautomer_probability>  (214) 
1

>  <r_epik_Ionization_Penalty>  (214) 
1.74961e-06

>  <r_epik_Ionization_Penalty_Charging>  (214) 
0

>  <r_epik_Ionization_Penalty_Neutral>  (214) 
1.74961e-06

>  <r_epik_State_Penalty>  (214) 
-0

>  <r_epik_Charging_Adjusted_Penalty>  (214) 
0

>  <i_epik_Tot_Q>  (214) 
0

>  <i_epik_Tot_abs_Q>  (214) 
0

>  <s_lp_Force_Field>  (214) 
OPLS3e

>  <r_lp_Energy>  (214) 
107.424

>  <b_lp_Chiralities_Consistent>  (214) 
1

>  <s_lp_Variant>  (214) 
72:0-1

>  <s_i_glide_gridfile>  (214) 
pfpi4k_grid

>  <i_i_glide_lignum>  (214) 
19

>  <i_i_glide_rotatable_bonds>  (214) 
4

>  <r_i_docking_score>  (214) 
-2.59988

>  <r_i_glide_ligand_efficiency>  (214) 
-0.0812463

>  <r_i_glide_ligand_efficiency_sa>  (214) 
-0.257941

>  <r_i_glide_ligand_efficiency_ln>  (214) 
-0.582185

>  <r_i_glide_gscore>  (214) 
-2.59988

>  <r_i_glide_lipo>  (214) 
-0.0828451

>  <r_i_glide_hbond>  (214) 
-0.180793

>  <r_i_glide_metal>  (214) 
-0

>  <r_i_glide_rewards>  (214) 
-0.469785

>  <r_i_glide_evdw>  (214) 
-22.4706

>  <r_i_glide_ecoul>  (214) 
-4.95288

>  <r_i_glide_erotb>  (214) 
0

>  <r_i_glide_esite>  (214) 
0

>  <r_i_glide_emodel>  (214) 
-31.8254

>  <r_i_glide_energy>  (214) 
-27.4234

>  <r_i_glide_einternal>  (214) 
1.0904

>  <r_i_glide_intrahb_reward>  (214) 
-0

>  <i_i_glide_confnum>  (214) 
1

>  <i_i_glide_posenum>  (214) 
15

>  <r_i_glide_eff_state_penalty>  (214) 
0

>  <ligand_id>  (214) 
72

>  <original_smiles>  (214) 
CC1=CC2CC(O)C3C4(C)CC(=O)C5COC6CCC3(C(O)C(O)C4C(C)(C)C65)C2(O)C1

>  <smiles>  (214) 
[H]OC1([H])C([H])(O[H])C23C([H])([H])C([H])([H])C4([H])OC([H])([H])C5([H])C(=O)C([H])([H])C(C([H])([H])[H])(C1([H])C(C([H])([H])[H])(C([H])([H])[H])C45[H])C2([H])C([H])(O[H])C([H])([H])C1([H])C([H])=C(C([H])([H])[H])C([H])([H])C13O[H]

$$$$
72:0:1
     RDKit          3D

 70 75  0  0  1  0  0  0  0  0999 V2000
   -2.8594    2.9588    3.2804 C   0  0  0  0  0  0  0  0  0  0  0  0
   -1.3564    2.9866    3.3736 C   0  0  0  0  0  0  0  0  0  0  0  0
   -0.5980    3.8772    4.0128 C   0  0  0  0  0  0  0  0  0  0  0  0
    0.8653    3.6111    3.7876 C   0  0  1  0  0  0  0  0  0  0  0  0
    1.7939    3.8775    4.9819 C   0  0  0  0  0  0  0  0  0  0  0  0
    3.0613    3.0604    4.7425 C   0  0  1  0  0  0  0  0  0  0  0  0
    4.1835    3.6477    5.3625 O   0  0  0  0  0  0  0  0  0  0  0  0
    2.8086    1.5069    4.8841 C   0  0  1  0  0  0  0  0  0  0  0  0
    3.3524    0.7337    6.1936 C   0  0  2  0  0  0  0  0  0  0  0  0
    3.6898    1.7212    7.3647 C   0  0  0  0  0  0  0  0  0  0  0  0
    4.7457    0.1177    5.8515 C   0  0  0  0  0  0  0  0  0  0  0  0
    4.8157   -0.8897    4.7038 C   0  0  0  0  0  0  0  0  0  0  0  0
    5.2498   -0.5315    3.6073 O   0  0  0  0  0  0  0  0  0  0  0  0
    4.4427   -2.3494    4.9704 C   0  0  2  0  0  0  0  0  0  0  0  0
    4.3150   -3.1727    3.6787 C   0  0  0  0  0  0  0  0  0  0  0  0
    2.9997   -2.9022    3.2086 O   0  0  0  0  0  0  0  0  0  0  0  0
    2.1332   -2.7405    4.3283 C   0  0  2  0  0  0  0  0  0  0  0  0
    1.0791   -1.6671    4.0485 C   0  0  0  0  0  0  0  0  0  0  0  0
    1.5583   -0.3073    3.4833 C   0  0  0  0  0  0  0  0  0  0  0  0
    1.3927    1.0483    4.2877 C   0  0  1  0  0  0  0  0  0  0  0  0
    0.3420    0.9334    5.4568 C   0  0  1  0  0  0  0  0  0  0  0  0
   -0.9006    0.3409    5.1034 O   0  0  0  0  0  0  0  0  0  0  0  0
    0.8760    0.3589    6.7888 C   0  0  1  0  0  0  0  0  0  0  0  0
   -0.1252   -0.2310    7.6044 O   0  0  0  0  0  0  0  0  0  0  0  0
    2.3043   -0.2885    6.8249 C   0  0  1  0  0  0  0  0  0  0  0  0
    2.5718   -1.8745    6.8620 C   0  0  0  0  0  0  0  0  0  0  0  0
    3.6364   -2.2097    7.9576 C   0  0  0  0  0  0  0  0  0  0  0  0
    1.3472   -2.6740    7.3871 C   0  0  0  0  0  0  0  0  0  0  0  0
    3.0536   -2.5849    5.5524 C   0  0  2  0  0  0  0  0  0  0  0  0
    0.9038    2.1503    3.2276 C   0  0  2  0  0  0  0  0  0  0  0  0
    1.7742    2.1479    2.1086 O   0  0  0  0  0  0  0  0  0  0  0  0
   -0.5306    1.9542    2.6473 C   0  0  0  0  0  0  0  0  0  0  0  0
   -3.2127    2.0295    3.7055 H   0  0  0  0  0  0  0  0  0  0  0  0
   -3.1967    3.0380    2.2460 H   0  0  0  0  0  0  0  0  0  0  0  0
   -3.3111    3.7454    3.8656 H   0  0  0  0  0  0  0  0  0  0  0  0
   -0.9511    4.7277    4.5719 H   0  0  0  0  0  0  0  0  0  0  0  0
    1.1422    4.3132    2.9985 H   0  0  0  0  0  0  0  0  0  0  0  0
    2.0176    4.9447    5.0244 H   0  0  0  0  0  0  0  0  0  0  0  0
    1.3457    3.6298    5.9429 H   0  0  0  0  0  0  0  0  0  0  0  0
    3.3369    3.2478    3.7053 H   0  0  0  0  0  0  0  0  0  0  0  0
    4.0655    3.6006    6.2984 H   0  0  0  0  0  0  0  0  0  0  0  0
    3.4897    1.2205    4.0910 H   0  0  0  0  0  0  0  0  0  0  0  0
    3.8515    1.2233    8.3220 H   0  0  0  0  0  0  0  0  0  0  0  0
    2.9066    2.4659    7.5196 H   0  0  0  0  0  0  0  0  0  0  0  0
    4.6363    2.2402    7.2194 H   0  0  0  0  0  0  0  0  0  0  0  0
    5.4035    0.9339    5.5499 H   0  0  0  0  0  0  0  0  0  0  0  0
    5.2310   -0.2882    6.7309 H   0  0  0  0  0  0  0  0  0  0  0  0
    5.2151   -2.7774    5.6084 H   0  0  0  0  0  0  0  0  0  0  0  0
    5.0652   -2.9494    2.9199 H   0  0  0  0  0  0  0  0  0  0  0  0
    4.3954   -4.2368    3.9084 H   0  0  0  0  0  0  0  0  0  0  0  0
    1.5929   -3.6817    4.4506 H   0  0  0  0  0  0  0  0  0  0  0  0
    0.4133   -2.0948    3.2983 H   0  0  0  0  0  0  0  0  0  0  0  0
    0.4513   -1.5832    4.9199 H   0  0  0  0  0  0  0  0  0  0  0  0
    2.5698   -0.4085    3.0953 H   0  0  0  0  0  0  0  0  0  0  0  0
    0.9961   -0.2191    2.5549 H   0  0  0  0  0  0  0  0  0  0  0  0
    0.0174    1.9357    5.7172 H   0  0  0  0  0  0  0  0  0  0  0  0
   -1.2487    0.8098    4.3611 H   0  0  0  0  0  0  0  0  0  0  0  0
    1.0173    1.2715    7.3679 H   0  0  0  0  0  0  0  0  0  0  0  0
    0.2259   -0.3047    8.4772 H   0  0  0  0  0  0  0  0  0  0  0  0
    2.4201   -0.1642    7.8979 H   0  0  0  0  0  0  0  0  0  0  0  0
    3.7289   -3.2868    8.1036 H   0  0  0  0  0  0  0  0  0  0  0  0
    3.3757   -1.7993    8.9344 H   0  0  0  0  0  0  0  0  0  0  0  0
    4.6404   -1.8722    7.7314 H   0  0  0  0  0  0  0  0  0  0  0  0
    1.5610   -3.7408    7.4599 H   0  0  0  0  0  0  0  0  0  0  0  0
    0.4659   -2.5921    6.7570 H   0  0  0  0  0  0  0  0  0  0  0  0
    1.0664   -2.3590    8.3927 H   0  0  0  0  0  0  0  0  0  0  0  0
    3.1610   -3.6224    5.8801 H   0  0  0  0  0  0  0  0  0  0  0  0
    1.4608    2.8085    1.5001 H   0  0  0  0  0  0  0  0  0  0  0  0
   -0.9355    0.9493    2.7180 H   0  0  0  0  0  0  0  0  0  0  0  0
   -0.5624    2.1989    1.5884 H   0  0  0  0  0  0  0  0  0  0  0  0
  1  2  1  0
  1 33  1  0
  1 34  1  0
  1 35  1  0
  2 32  1  0
  2  3  2  0
  3  4  1  0
  3 36  1  0
  4 30  1  0
  4  5  1  0
  4 37  1  6
  5  6  1  0
  5 38  1  0
  5 39  1  0
  6  7  1  0
  6  8  1  0
  6 40  1  6
  7 41  1  0
  8 20  1  0
  8  9  1  0
  8 42  1  6
  9 25  1  0
  9 10  1  1
  9 11  1  0
 10 43  1  0
 10 44  1  0
 10 45  1  0
 11 12  1  0
 11 46  1  0
 11 47  1  0
 12 13  2  0
 12 14  1  0
 14 29  1  0
 14 15  1  0
 14 48  1  1
 15 16  1  0
 15 49  1  0
 15 50  1  0
 16 17  1  0
 17 29  1  0
 17 18  1  0
 17 51  1  1
 18 19  1  0
 18 52  1  0
 18 53  1  0
 20 19  1  6
 19 54  1  0
 19 55  1  0
 20 21  1  0
 20 30  1  0
 21 22  1  0
 21 23  1  0
 21 56  1  1
 22 57  1  0
 23 24  1  0
 23 25  1  0
 23 58  1  1
 24 59  1  0
 25 26  1  0
 25 60  1  1
 26 27  1  0
 26 28  1  0
 26 29  1  0
 27 61  1  0
 27 62  1  0
 27 63  1  0
 28 64  1  0
 28 65  1  0
 28 66  1  0
 29 67  1  1
 30 31  1  6
 30 32  1  0
 31 68  1  0
 32 69  1  0
 32 70  1  0
M  END
>  <i_m_ct_stereo_status>  (215) 
1

>  <s_m_source_file>  (215) 
/var/tmp/pbs.5076255.sched01/tmpnszqc94g/84e4epk0lh.sdf

>  <i_m_source_file_index>  (215) 
19

>  <i_lp_mmshare_version>  (215) 
48012

>  <i_f3d_flags>  (215) 
0

>  <s_epik_input>  (215) 
W0NIM11DKD1bQ0hdMSlbQ0gyXVtDQEBdMihbT0hdKVtDQEBIXTFbQ0gyXVtDQEBIXShbT0hdKVtDQEhdKFtDQEBdMjM0KVtDQEBdNShbQ0gzXSlbQ0BASF0oW0NASF0oW09IXSlbQ0BASF00W09IXSlDKFtDSDNdKShbQ0gzXSlbQ0hdNltDQEhdKEMoPU8pW0NIMl01KVtDSDJdT1tDQEBIXTZbQ0gyXVtDSDJdMw==

>  <s_epik_cmdline>  (215) 
J2VwaWtfcHl0aG9uJywgJy1waHQnLCAnMi4wJywgJy1waCcsICc3LjAnLCAnLXRuJywgJzgnLCAnLW1hJywgJzIwMCcsICctaW1hZScsICc8aW5maWxlLm1hZT4nLCAnLW9tYWUnLCAnPG91dGZpbGUubWFlPic=

>  <r_lp_tautomer_probability>  (215) 
1

>  <r_epik_Ionization_Penalty>  (215) 
1.74961e-06

>  <r_epik_Ionization_Penalty_Charging>  (215) 
0

>  <r_epik_Ionization_Penalty_Neutral>  (215) 
1.74961e-06

>  <r_epik_State_Penalty>  (215) 
-0

>  <r_epik_Charging_Adjusted_Penalty>  (215) 
0

>  <i_epik_Tot_Q>  (215) 
0

>  <i_epik_Tot_abs_Q>  (215) 
0

>  <s_lp_Force_Field>  (215) 
OPLS3e

>  <r_lp_Energy>  (215) 
107.424

>  <b_lp_Chiralities_Consistent>  (215) 
1

>  <s_lp_Variant>  (215) 
72:0-1

>  <s_i_glide_gridfile>  (215) 
pfpi4k_grid

>  <i_i_glide_lignum>  (215) 
19

>  <i_i_glide_rotatable_bonds>  (215) 
4

>  <r_i_docking_score>  (215) 
-2.23185

>  <r_i_glide_ligand_efficiency>  (215) 
-0.0697452

>  <r_i_glide_ligand_efficiency_sa>  (215) 
-0.221427

>  <r_i_glide_ligand_efficiency_ln>  (215) 
-0.499771

>  <r_i_glide_gscore>  (215) 
-2.23185

>  <r_i_glide_lipo>  (215) 
-0.036931

>  <r_i_glide_hbond>  (215) 
-0.10797

>  <r_i_glide_metal>  (215) 
-0

>  <r_i_glide_rewards>  (215) 
-0.419355

>  <r_i_glide_evdw>  (215) 
-23.2001

>  <r_i_glide_ecoul>  (215) 
-3.38389

>  <r_i_glide_erotb>  (215) 
0

>  <r_i_glide_esite>  (215) 
0

>  <r_i_glide_emodel>  (215) 
-30.4765

>  <r_i_glide_energy>  (215) 
-26.584

>  <r_i_glide_einternal>  (215) 
0.701153

>  <r_i_glide_intrahb_reward>  (215) 
-0

>  <i_i_glide_confnum>  (215) 
1

>  <i_i_glide_posenum>  (215) 
21

>  <r_i_glide_eff_state_penalty>  (215) 
0

>  <ligand_id>  (215) 
72

>  <original_smiles>  (215) 
CC1=CC2CC(O)C3C4(C)CC(=O)C5COC6CCC3(C(O)C(O)C4C(C)(C)C65)C2(O)C1

>  <smiles>  (215) 
[H]OC1([H])C([H])(O[H])C23C([H])([H])C([H])([H])C4([H])OC([H])([H])C5([H])C(=O)C([H])([H])C(C([H])([H])[H])(C1([H])C(C([H])([H])[H])(C([H])([H])[H])C45[H])C2([H])C([H])(O[H])C([H])([H])C1([H])C([H])=C(C([H])([H])[H])C([H])([H])C13O[H]

$$$$
72:0:2
     RDKit          3D

 70 75  0  0  1  0  0  0  0  0999 V2000
    4.6751   -2.0096   -2.6210 C   0  0  0  0  0  0  0  0  0  0  0  0
    4.3849   -3.0432   -1.5633 C   0  0  0  0  0  0  0  0  0  0  0  0
    5.1921   -4.0178   -1.1454 C   0  0  0  0  0  0  0  0  0  0  0  0
    4.5200   -4.9030   -0.1354 C   0  0  1  0  0  0  0  0  0  0  0  0
    5.3932   -5.4424    1.0048 C   0  0  0  0  0  0  0  0  0  0  0  0
    4.4511   -5.8073    2.1513 C   0  0  1  0  0  0  0  0  0  0  0  0
    4.9684   -6.8406    2.9548 O   0  0  0  0  0  0  0  0  0  0  0  0
    3.8045   -4.5345    2.8261 C   0  0  1  0  0  0  0  0  0  0  0  0
    4.3149   -4.0634    4.2828 C   0  0  2  0  0  0  0  0  0  0  0  0
    5.6929   -4.7072    4.6521 C   0  0  0  0  0  0  0  0  0  0  0  0
    3.3612   -4.6733    5.3571 C   0  0  0  0  0  0  0  0  0  0  0  0
    1.8824   -4.2922    5.2911 C   0  0  0  0  0  0  0  0  0  0  0  0
    1.0680   -5.0806    4.8064 O   0  0  0  0  0  0  0  0  0  0  0  0
    1.4269   -2.9699    5.9100 C   0  0  2  0  0  0  0  0  0  0  0  0
   -0.0218   -2.6196    5.5443 C   0  0  0  0  0  0  0  0  0  0  0  0
    0.0685   -2.0220    4.2563 O   0  0  0  0  0  0  0  0  0  0  0  0
    1.2789   -1.2696    4.1809 C   0  0  2  0  0  0  0  0  0  0  0  0
    1.8948   -1.3486    2.7826 C   0  0  0  0  0  0  0  0  0  0  0  0
    2.0511   -2.7477    2.1435 C   0  0  0  0  0  0  0  0  0  0  0  0
    3.4403   -3.3912    1.7668 C   0  0  1  0  0  0  0  0  0  0  0  0
    4.5874   -2.3160    1.7224 C   0  0  1  0  0  0  0  0  0  0  0  0
    4.2991   -1.1398    0.9828 O   0  0  0  0  0  0  0  0  0  0  0  0
    5.2166   -1.9605    3.0856 C   0  0  1  0  0  0  0  0  0  0  0  0
    5.8008   -0.6665    3.1251 O   0  0  0  0  0  0  0  0  0  0  0  0
    4.5516   -2.4900    4.4048 C   0  0  1  0  0  0  0  0  0  0  0  0
    3.6810   -1.5721    5.4003 C   0  0  0  0  0  0  0  0  0  0  0  0
    4.1291   -1.8133    6.8783 C   0  0  0  0  0  0  0  0  0  0  0  0
    3.9926   -0.0584    5.2415 C   0  0  0  0  0  0  0  0  0  0  0  0
    2.1227   -1.7193    5.3863 C   0  0  2  0  0  0  0  0  0  0  0  0
    3.2774   -4.0730    0.3161 C   0  0  2  0  0  0  0  0  0  0  0  0
    2.1824   -4.9742    0.3166 O   0  0  0  0  0  0  0  0  0  0  0  0
    3.0411   -3.1055   -0.8872 C   0  0  0  0  0  0  0  0  0  0  0  0
    4.6154   -1.0097   -2.1886 H   0  0  0  0  0  0  0  0  0  0  0  0
    3.9617   -2.0815   -3.4431 H   0  0  0  0  0  0  0  0  0  0  0  0
    5.6773   -2.1753   -3.0116 H   0  0  0  0  0  0  0  0  0  0  0  0
    6.1840   -4.2148   -1.5191 H   0  0  0  0  0  0  0  0  0  0  0  0
    4.2014   -5.7725   -0.7139 H   0  0  0  0  0  0  0  0  0  0  0  0
    5.9295   -6.3227    0.6490 H   0  0  0  0  0  0  0  0  0  0  0  0
    6.1565   -4.7407    1.3359 H   0  0  0  0  0  0  0  0  0  0  0  0
    3.6405   -6.3736    1.6957 H   0  0  0  0  0  0  0  0  0  0  0  0
    5.7411   -6.5188    3.3940 H   0  0  0  0  0  0  0  0  0  0  0  0
    2.8377   -4.9895    3.0097 H   0  0  0  0  0  0  0  0  0  0  0  0
    6.1817   -4.2390    5.5081 H   0  0  0  0  0  0  0  0  0  0  0  0
    6.3891   -4.6615    3.8156 H   0  0  0  0  0  0  0  0  0  0  0  0
    5.6087   -5.7459    4.9719 H   0  0  0  0  0  0  0  0  0  0  0  0
    3.3828   -5.7585    5.2404 H   0  0  0  0  0  0  0  0  0  0  0  0
    3.7434   -4.5184    6.3600 H   0  0  0  0  0  0  0  0  0  0  0  0
    1.5313   -3.0558    6.9910 H   0  0  0  0  0  0  0  0  0  0  0  0
   -0.7054   -3.4679    5.5458 H   0  0  0  0  0  0  0  0  0  0  0  0
   -0.4175   -1.8867    6.2492 H   0  0  0  0  0  0  0  0  0  0  0  0
    1.0125   -0.2229    4.3439 H   0  0  0  0  0  0  0  0  0  0  0  0
    1.2214   -0.7862    2.1337 H   0  0  0  0  0  0  0  0  0  0  0  0
    2.7964   -0.7581    2.7739 H   0  0  0  0  0  0  0  0  0  0  0  0
    1.4120   -3.4616    2.6616 H   0  0  0  0  0  0  0  0  0  0  0  0
    1.5169   -2.6112    1.2096 H   0  0  0  0  0  0  0  0  0  0  0  0
    5.4051   -2.7262    1.1389 H   0  0  0  0  0  0  0  0  0  0  0  0
    3.7782   -1.3692    0.2272 H   0  0  0  0  0  0  0  0  0  0  0  0
    6.1322   -2.5461    3.0333 H   0  0  0  0  0  0  0  0  0  0  0  0
    6.3750   -0.5712    2.3813 H   0  0  0  0  0  0  0  0  0  0  0  0
    5.4629   -2.3996    4.9886 H   0  0  0  0  0  0  0  0  0  0  0  0
    3.6577   -1.0987    7.5546 H   0  0  0  0  0  0  0  0  0  0  0  0
    5.2041   -1.6861    7.0133 H   0  0  0  0  0  0  0  0  0  0  0  0
    3.8725   -2.7870    7.2770 H   0  0  0  0  0  0  0  0  0  0  0  0
    3.4399    0.5500    5.9574 H   0  0  0  0  0  0  0  0  0  0  0  0
    3.7445    0.3436    4.2637 H   0  0  0  0  0  0  0  0  0  0  0  0
    5.0478    0.1503    5.4207 H   0  0  0  0  0  0  0  0  0  0  0  0
    1.8170   -0.9985    6.1492 H   0  0  0  0  0  0  0  0  0  0  0  0
    2.1867   -5.4230   -0.5207 H   0  0  0  0  0  0  0  0  0  0  0  0
    2.6651   -2.1195   -0.6258 H   0  0  0  0  0  0  0  0  0  0  0  0
    2.3381   -3.5197   -1.6126 H   0  0  0  0  0  0  0  0  0  0  0  0
  1  2  1  0
  1 33  1  0
  1 34  1  0
  1 35  1  0
  2 32  1  0
  2  3  2  0
  3  4  1  0
  3 36  1  0
  4 30  1  0
  4  5  1  0
  4 37  1  6
  5  6  1  0
  5 38  1  0
  5 39  1  0
  6  7  1  0
  6  8  1  0
  6 40  1  6
  7 41  1  0
  8 20  1  0
  8  9  1  0
  8 42  1  1
  9 25  1  0
  9 10  1  1
  9 11  1  0
 10 43  1  0
 10 44  1  0
 10 45  1  0
 11 12  1  0
 11 46  1  0
 11 47  1  0
 12 13  2  0
 12 14  1  0
 14 29  1  0
 14 15  1  0
 14 48  1  1
 15 16  1  0
 15 49  1  0
 15 50  1  0
 16 17  1  0
 17 29  1  0
 17 18  1  0
 17 51  1  1
 18 19  1  0
 18 52  1  0
 18 53  1  0
 20 19  1  1
 19 54  1  0
 19 55  1  0
 20 21  1  0
 20 30  1  0
 21 22  1  0
 21 23  1  0
 21 56  1  6
 22 57  1  0
 23 24  1  0
 23 25  1  0
 23 58  1  6
 24 59  1  0
 25 26  1  0
 25 60  1  1
 26 27  1  0
 26 28  1  0
 26 29  1  0
 27 61  1  0
 27 62  1  0
 27 63  1  0
 28 64  1  0
 28 65  1  0
 28 66  1  0
 29 67  1  1
 30 31  1  1
 30 32  1  0
 31 68  1  0
 32 69  1  0
 32 70  1  0
M  END
>  <i_m_ct_stereo_status>  (216) 
1

>  <s_m_source_file>  (216) 
/var/tmp/pbs.5076255.sched01/tmpnszqc94g/84e4epk0lh.sdf

>  <i_m_source_file_index>  (216) 
19

>  <i_lp_mmshare_version>  (216) 
48012

>  <i_f3d_flags>  (216) 
0

>  <s_epik_input>  (216) 
W0NIM11DKD1bQ0hdMSlbQ0gyXVtDQEBdMihbT0hdKVtDQEBIXTFbQ0gyXVtDQEBIXShbT0hdKVtDQEhdKFtDQEBdMjM0KVtDQEBdNShbQ0gzXSlbQ0BASF0oW0NASF0oW09IXSlbQ0BASF00W09IXSlDKFtDSDNdKShbQ0gzXSlbQ0hdNltDQEhdKEMoPU8pW0NIMl01KVtDSDJdT1tDQEBIXTZbQ0gyXVtDSDJdMw==

>  <s_epik_cmdline>  (216) 
J2VwaWtfcHl0aG9uJywgJy1waHQnLCAnMi4wJywgJy1waCcsICc3LjAnLCAnLXRuJywgJzgnLCAnLW1hJywgJzIwMCcsICctaW1hZScsICc8aW5maWxlLm1hZT4nLCAnLW9tYWUnLCAnPG91dGZpbGUubWFlPic=

>  <r_lp_tautomer_probability>  (216) 
1

>  <r_epik_Ionization_Penalty>  (216) 
1.74961e-06

>  <r_epik_Ionization_Penalty_Charging>  (216) 
0

>  <r_epik_Ionization_Penalty_Neutral>  (216) 
1.74961e-06

>  <r_epik_State_Penalty>  (216) 
-0

>  <r_epik_Charging_Adjusted_Penalty>  (216) 
0

>  <i_epik_Tot_Q>  (216) 
0

>  <i_epik_Tot_abs_Q>  (216) 
0

>  <s_lp_Force_Field>  (216) 
OPLS3e

>  <r_lp_Energy>  (216) 
107.424

>  <b_lp_Chiralities_Consistent>  (216) 
1

>  <s_lp_Variant>  (216) 
72:0-1

>  <s_i_glide_gridfile>  (216) 
pfpi4k_grid

>  <i_i_glide_lignum>  (216) 
19

>  <i_i_glide_rotatable_bonds>  (216) 
4

>  <r_i_docking_score>  (216) 
-2.09736

>  <r_i_glide_ligand_efficiency>  (216) 
-0.0655425

>  <r_i_glide_ligand_efficiency_sa>  (216) 
-0.208084

>  <r_i_glide_ligand_efficiency_ln>  (216) 
-0.469656

>  <r_i_glide_gscore>  (216) 
-2.09736

>  <r_i_glide_lipo>  (216) 
-0.270299

>  <r_i_glide_hbond>  (216) 
-0.122152

>  <r_i_glide_metal>  (216) 
-0

>  <r_i_glide_rewards>  (216) 
-0.364452

>  <r_i_glide_evdw>  (216) 
-22.931

>  <r_i_glide_ecoul>  (216) 
-1.29272

>  <r_i_glide_erotb>  (216) 
0

>  <r_i_glide_esite>  (216) 
0

>  <r_i_glide_emodel>  (216) 
-27.5187

>  <r_i_glide_energy>  (216) 
-24.2237

>  <r_i_glide_einternal>  (216) 
1.06276

>  <r_i_glide_intrahb_reward>  (216) 
-0

>  <i_i_glide_confnum>  (216) 
1

>  <i_i_glide_posenum>  (216) 
7

>  <r_i_glide_eff_state_penalty>  (216) 
0

>  <ligand_id>  (216) 
72

>  <original_smiles>  (216) 
CC1=CC2CC(O)C3C4(C)CC(=O)C5COC6CCC3(C(O)C(O)C4C(C)(C)C65)C2(O)C1

>  <smiles>  (216) 
[H]OC1([H])C([H])(O[H])C23C([H])([H])C([H])([H])C4([H])OC([H])([H])C5([H])C(=O)C([H])([H])C(C([H])([H])[H])(C1([H])C(C([H])([H])[H])(C([H])([H])[H])C45[H])C2([H])C([H])(O[H])C([H])([H])C1([H])C([H])=C(C([H])([H])[H])C([H])([H])C13O[H]

$$$$
73:0:0
     RDKit          3D

 56 61  0  0  1  0  0  0  0  0999 V2000
    4.0611    0.0115    2.5632 O   0  0  0  0  0  0  0  0  0  0  0  0
    3.0586   -0.5030    2.0664 C   0  0  0  0  0  0  0  0  0  0  0  0
    1.8489    0.0159    2.2546 N   0  0  0  0  0  0  0  0  0  0  0  0
    1.6644    1.2844    2.9566 C   0  0  2  0  0  0  0  0  0  0  0  0
    1.9352    1.1845    4.4815 C   0  0  1  0  0  0  0  0  0  0  0  0
    1.7938    2.5872    5.1122 C   0  0  0  0  0  0  0  0  0  0  0  0
    0.3597    3.1002    4.8710 C   0  0  1  0  0  0  0  0  0  0  0  0
    0.0836    3.1849    3.3607 C   0  0  0  0  0  0  0  0  0  0  0  0
    0.2381    1.7855    2.7359 C   0  0  2  0  0  0  0  0  0  0  0  0
   -0.7675    0.8004    3.3664 C   0  0  0  0  0  0  0  0  0  0  0  0
   -0.5118    0.7112    4.8898 C   0  0  2  0  0  0  0  0  0  0  0  0
   -1.5107   -0.2725    5.5141 C   0  0  0  0  0  0  0  0  0  0  0  0
   -2.2116    0.1453    6.4816 O   0  0  0  0  0  0  0  0  0  0  0  0
   -1.5966   -1.4311    5.0646 O   0  0  0  0  0  0  0  0  0  0  0  0
   -0.6459    2.1283    5.5138 C   0  0  0  0  0  0  0  0  0  0  0  0
    0.9307    0.2047    5.1346 C   0  0  0  0  0  0  0  0  0  0  0  0
    3.1739   -1.7681    1.1843 C   0  0  2  0  0  0  0  0  0  0  0  0
    3.9267   -2.9565    1.8512 C   0  0  2  0  0  0  0  0  0  0  0  0
    5.4222   -2.6166    2.0801 C   0  0  0  0  0  0  0  0  0  0  0  0
    6.0705   -2.2450    0.7193 C   0  0  1  0  0  0  0  0  0  0  0  0
    6.0130   -3.4888   -0.1869 C   0  0  0  0  0  0  0  0  0  0  0  0
    4.5356   -3.8820   -0.4262 C   0  0  1  0  0  0  0  0  0  0  0  0
    3.8528   -4.1992    0.9232 C   0  0  0  0  0  0  0  0  0  0  0  0
    3.7861   -2.7136   -1.0977 C   0  0  0  0  0  0  0  0  0  0  0  0
    3.8512   -1.4633   -0.1831 C   0  0  2  0  0  0  0  0  0  0  0  0
    5.3398   -1.0740    0.0105 C   0  0  0  0  0  0  0  0  0  0  0  0
    1.0255   -0.4507    1.8904 H   0  0  0  0  0  0  0  0  0  0  0  0
    2.3534    2.0057    2.5164 H   0  0  0  0  0  0  0  0  0  0  0  0
    2.9510    0.8401    4.6858 H   0  0  0  0  0  0  0  0  0  0  0  0
    2.0079    2.5428    6.1810 H   0  0  0  0  0  0  0  0  0  0  0  0
    2.5222    3.2742    4.6754 H   0  0  0  0  0  0  0  0  0  0  0  0
    0.2437    4.0911    5.3107 H   0  0  0  0  0  0  0  0  0  0  0  0
   -0.9228    3.5584    3.1648 H   0  0  0  0  0  0  0  0  0  0  0  0
    0.7756    3.8828    2.8839 H   0  0  0  0  0  0  0  0  0  0  0  0
    0.0684    1.8511    1.6614 H   0  0  0  0  0  0  0  0  0  0  0  0
   -1.7842    1.1239    3.1398 H   0  0  0  0  0  0  0  0  0  0  0  0
   -0.6483   -0.1778    2.8970 H   0  0  0  0  0  0  0  0  0  0  0  0
   -0.4490    2.0863    6.5831 H   0  0  0  0  0  0  0  0  0  0  0  0
   -1.6552    2.5165    5.3849 H   0  0  0  0  0  0  0  0  0  0  0  0
    1.0751   -0.7991    4.7257 H   0  0  0  0  0  0  0  0  0  0  0  0
    1.1390    0.1281    6.2022 H   0  0  0  0  0  0  0  0  0  0  0  0
    2.1581   -2.0994    0.9808 H   0  0  0  0  0  0  0  0  0  0  0  0
    3.4434   -3.2079    2.7970 H   0  0  0  0  0  0  0  0  0  0  0  0
    5.5641   -1.8155    2.8083 H   0  0  0  0  0  0  0  0  0  0  0  0
    5.9226   -3.4859    2.5176 H   0  0  0  0  0  0  0  0  0  0  0  0
    7.1042   -1.9560    0.8912 H   0  0  0  0  0  0  0  0  0  0  0  0
    6.5153   -3.2935   -1.1355 H   0  0  0  0  0  0  0  0  0  0  0  0
    6.5462   -4.3135    0.2900 H   0  0  0  0  0  0  0  0  0  0  0  0
    4.5054   -4.7599   -1.0791 H   0  0  0  0  0  0  0  0  0  0  0  0
    4.3476   -5.0476    1.3934 H   0  0  0  0  0  0  0  0  0  0  0  0
    2.8229   -4.5167    0.7541 H   0  0  0  0  0  0  0  0  0  0  0  0
    4.2370   -2.4931   -2.0637 H   0  0  0  0  0  0  0  0  0  0  0  0
    2.7541   -2.9982   -1.3110 H   0  0  0  0  0  0  0  0  0  0  0  0
    3.3063   -0.6565   -0.6783 H   0  0  0  0  0  0  0  0  0  0  0  0
    5.4462   -0.1488    0.5810 H   0  0  0  0  0  0  0  0  0  0  0  0
    5.7849   -0.8633   -0.9655 H   0  0  0  0  0  0  0  0  0  0  0  0
  1  2  2  0
  2  3  1  0
  2 17  1  0
  3  4  1  0
  3 27  1  0
  4  9  1  0
  4  5  1  0
  4 28  1  6
  5 16  1  0
  5  6  1  0
  5 29  1  6
  6  7  1  0
  6 30  1  0
  6 31  1  0
  7 15  1  0
  7  8  1  0
  7 32  1  1
  8  9  1  0
  8 33  1  0
  8 34  1  0
  9 10  1  0
  9 35  1  6
 10 11  1  0
 10 36  1  0
 10 37  1  0
 11 12  1  1
 11 15  1  0
 11 16  1  0
 12 13  2  0
 12 14  1  0
 15 38  1  0
 15 39  1  0
 16 40  1  0
 16 41  1  0
 17 25  1  0
 17 18  1  0
 17 42  1  6
 18 23  1  0
 18 19  1  0
 18 43  1  1
 19 20  1  0
 19 44  1  0
 19 45  1  0
 20 26  1  0
 20 21  1  0
 20 46  1  1
 21 22  1  0
 21 47  1  0
 21 48  1  0
 22 23  1  0
 22 24  1  0
 22 49  1  6
 23 50  1  0
 23 51  1  0
 24 25  1  0
 24 52  1  0
 24 53  1  0
 25 26  1  0
 25 54  1  6
 26 55  1  0
 26 56  1  0
M  CHG  1  14  -1
M  END
>  <i_m_ct_stereo_status>  (217) 
1

>  <s_m_source_file>  (217) 
/var/tmp/pbs.5076255.sched01/tmpnszqc94g/84e4epk0lh.sdf

>  <i_m_source_file_index>  (217) 
20

>  <i_lp_mmshare_version>  (217) 
48012

>  <i_f3d_flags>  (217) 
0

>  <s_epik_input>  (217) 
W0NIMl0xW0NASF0oW0NIMl0yKVtDSDJdW0NAQEhdKFtDSDJdMylbQ0gyXVtDQEhdMltDQEBIXShbQ0BIXTEzKUMoPU8pW05IXVtDQEhdKFtDQEhdKFtDSDJdNClbQ0gyXVtDQEBIXShbQ0gyXTUpW0NIMl02KVtDQEhdNVtDSDJdW0NAQF00NkMoPU8pW09IXQ==

>  <s_epik_cmdline>  (217) 
J2VwaWtfcHl0aG9uJywgJy1waHQnLCAnMi4wJywgJy1waCcsICc3LjAnLCAnLXRuJywgJzgnLCAnLW1hJywgJzIwMCcsICctaW1hZScsICc8aW5maWxlLm1hZT4nLCAnLW9tYWUnLCAnPG91dGZpbGUubWFlPic=

>  <r_epik_Ionization_Penalty>  (217) 
0.00603876

>  <r_epik_Ionization_Penalty_Charging>  (217) 
0.00603856

>  <r_epik_Ionization_Penalty_Neutral>  (217) 
2.05358e-07

>  <r_epik_State_Penalty>  (217) 
0.00444692

>  <r_epik_Charging_Adjusted_Penalty>  (217) 
0.0104855

>  <i_epik_Tot_Q>  (217) 
-1

>  <i_epik_Tot_abs_Q>  (217) 
1

>  <s_lp_Force_Field>  (217) 
OPLS3e

>  <r_lp_Energy>  (217) 
18.8442

>  <b_lp_Chiralities_Consistent>  (217) 
1

>  <s_lp_Variant>  (217) 
73:0-1

>  <s_i_glide_gridfile>  (217) 
pfpi4k_grid

>  <i_i_glide_lignum>  (217) 
20

>  <i_i_glide_rotatable_bonds>  (217) 
4

>  <r_i_docking_score>  (217) 
-3.39193

>  <r_i_glide_ligand_efficiency>  (217) 
-0.130459

>  <r_i_glide_ligand_efficiency_sa>  (217) 
-0.386483

>  <r_i_glide_ligand_efficiency_ln>  (217) 
-0.796583

>  <r_i_glide_gscore>  (217) 
-3.39193

>  <r_i_glide_lipo>  (217) 
-0.243473

>  <r_i_glide_hbond>  (217) 
-0.2

>  <r_i_glide_metal>  (217) 
-0

>  <r_i_glide_rewards>  (217) 
-0.978556

>  <r_i_glide_evdw>  (217) 
-26.6331

>  <r_i_glide_ecoul>  (217) 
-6.50718

>  <r_i_glide_erotb>  (217) 
0.451683

>  <r_i_glide_esite>  (217) 
-0.113848

>  <r_i_glide_emodel>  (217) 
-39.94

>  <r_i_glide_energy>  (217) 
-33.1403

>  <r_i_glide_einternal>  (217) 
6.27659

>  <r_i_glide_intrahb_reward>  (217) 
-0

>  <i_i_glide_confnum>  (217) 
6

>  <i_i_glide_posenum>  (217) 
7

>  <r_i_glide_eff_state_penalty>  (217) 
0

>  <ligand_id>  (217) 
73

>  <original_smiles>  (217) 
O=C(NC1C2CC3CC1CC(C(=O)O)(C3)C2)C1C2CC3CC(C2)CC1C3

>  <smiles>  (217) 
[H]N(C(=O)C1([H])C2([H])C([H])([H])C3([H])C([H])([H])C([H])(C2([H])[H])C([H])([H])C1([H])C3([H])[H])C1([H])C2([H])C([H])([H])C3([H])C([H])([H])C1([H])C([H])([H])C(C(=O)[O-])(C3([H])[H])C2([H])[H]

$$$$
73:0:1
     RDKit          3D

 56 61  0  0  1  0  0  0  0  0999 V2000
    4.0775   -5.4579    3.0093 O   0  0  0  0  0  0  0  0  0  0  0  0
    3.5253   -5.6810    1.9270 C   0  0  0  0  0  0  0  0  0  0  0  0
    3.6333   -4.8521    0.8813 N   0  0  0  0  0  0  0  0  0  0  0  0
    4.2379   -3.5143    0.9460 C   0  0  2  0  0  0  0  0  0  0  0  0
    3.2918   -2.4786    0.3207 C   0  0  1  0  0  0  0  0  0  0  0  0
    3.9221   -1.0816    0.4823 C   0  0  0  0  0  0  0  0  0  0  0  0
    5.2785   -1.0565   -0.2554 C   0  0  1  0  0  0  0  0  0  0  0  0
    6.2295   -2.0982    0.3656 C   0  0  0  0  0  0  0  0  0  0  0  0
    5.5936   -3.4970    0.2184 C   0  0  2  0  0  0  0  0  0  0  0  0
    5.3898   -3.8378   -1.2748 C   0  0  0  0  0  0  0  0  0  0  0  0
    4.4356   -2.8006   -1.9246 C   0  0  2  0  0  0  0  0  0  0  0  0
    4.2163   -3.0886   -3.4251 C   0  0  0  0  0  0  0  0  0  0  0  0
    3.3102   -2.4534   -4.0105 O   0  0  0  0  0  0  0  0  0  0  0  0
    4.9499   -3.8987   -3.9977 O   0  0  0  0  0  0  0  0  0  0  0  0
    5.0502   -1.3890   -1.7515 C   0  0  0  0  0  0  0  0  0  0  0  0
    3.0822   -2.8263   -1.1758 C   0  0  0  0  0  0  0  0  0  0  0  0
    2.6796   -6.9453    1.7538 C   0  0  2  0  0  0  0  0  0  0  0  0
    1.5218   -7.0354    2.7858 C   0  0  2  0  0  0  0  0  0  0  0  0
    2.0723   -7.1883    4.2300 C   0  0  0  0  0  0  0  0  0  0  0  0
    2.9606   -8.4574    4.2966 C   0  0  1  0  0  0  0  0  0  0  0  0
    2.0735   -9.6857    3.9992 C   0  0  0  0  0  0  0  0  0  0  0  0
    1.4930   -9.5503    2.5780 C   0  0  1  0  0  0  0  0  0  0  0  0
    0.6372   -8.2690    2.4756 C   0  0  0  0  0  0  0  0  0  0  0  0
    2.6363   -9.4652    1.5524 C   0  0  0  0  0  0  0  0  0  0  0  0
    3.5280   -8.2373    1.8449 C   0  0  2  0  0  0  0  0  0  0  0  0
    4.1278   -8.3868    3.2678 C   0  0  0  0  0  0  0  0  0  0  0  0
    3.2845   -5.1258   -0.0471 H   0  0  0  0  0  0  0  0  0  0  0  0
    4.3983   -3.2178    1.9820 H   0  0  0  0  0  0  0  0  0  0  0  0
    2.3350   -2.4979    0.8513 H   0  0  0  0  0  0  0  0  0  0  0  0
    3.2470   -0.3313    0.0814 H   0  0  0  0  0  0  0  0  0  0  0  0
    4.0635   -0.8375    1.5401 H   0  0  0  0  0  0  0  0  0  0  0  0
    5.7312   -0.0696   -0.1498 H   0  0  0  0  0  0  0  0  0  0  0  0
    7.2019   -2.0829   -0.1279 H   0  0  0  0  0  0  0  0  0  0  0  0
    6.4146   -1.8657    1.4180 H   0  0  0  0  0  0  0  0  0  0  0  0
    6.2507   -4.2389    0.6892 H   0  0  0  0  0  0  0  0  0  0  0  0
    6.3634   -3.8353   -1.7595 H   0  0  0  0  0  0  0  0  0  0  0  0
    4.9893   -4.8461   -1.3663 H   0  0  0  0  0  0  0  0  0  0  0  0
    4.3894   -0.6399   -2.1882 H   0  0  0  0  0  0  0  0  0  0  0  0
    5.9912   -1.3383   -2.2897 H   0  0  0  0  0  0  0  0  0  0  0  0
    2.5880   -3.7945   -1.2882 H   0  0  0  0  0  0  0  0  0  0  0  0
    2.4167   -2.1002   -1.6231 H   0  0  0  0  0  0  0  0  0  0  0  0
    2.2383   -6.8986    0.7665 H   0  0  0  0  0  0  0  0  0  0  0  0
    0.9011   -6.1403    2.7178 H   0  0  0  0  0  0  0  0  0  0  0  0
    2.6417   -6.3077    4.5369 H   0  0  0  0  0  0  0  0  0  0  0  0
    1.2350   -7.2798    4.9261 H   0  0  0  0  0  0  0  0  0  0  0  0
    3.3819   -8.5420    5.2977 H   0  0  0  0  0  0  0  0  0  0  0  0
    2.6544  -10.5983    4.0897 H   0  0  0  0  0  0  0  0  0  0  0  0
    1.2722   -9.7463    4.7326 H   0  0  0  0  0  0  0  0  0  0  0  0
    0.8753  -10.4253    2.3627 H   0  0  0  0  0  0  0  0  0  0  0  0
   -0.1976   -8.3294    3.1747 H   0  0  0  0  0  0  0  0  0  0  0  0
    0.1875   -8.1996    1.4829 H   0  0  0  0  0  0  0  0  0  0  0  0
    3.2351  -10.3649    1.6235 H   0  0  0  0  0  0  0  0  0  0  0  0
    2.2358   -9.4487    0.5390 H   0  0  0  0  0  0  0  0  0  0  0  0
    4.3292   -8.2103    1.1028 H   0  0  0  0  0  0  0  0  0  0  0  0
    4.7824   -7.5451    3.4927 H   0  0  0  0  0  0  0  0  0  0  0  0
    4.7092   -9.3189    3.3105 H   0  0  0  0  0  0  0  0  0  0  0  0
  1  2  2  0
  2  3  1  0
  2 17  1  0
  3  4  1  0
  3 27  1  0
  4  9  1  0
  4  5  1  0
  4 28  1  1
  5 16  1  0
  5  6  1  0
  5 29  1  1
  6  7  1  0
  6 30  1  0
  6 31  1  0
  7 15  1  0
  7  8  1  0
  7 32  1  6
  8  9  1  0
  8 33  1  0
  8 34  1  0
  9 10  1  0
  9 35  1  1
 10 11  1  0
 10 36  1  0
 10 37  1  0
 11 12  1  6
 11 15  1  0
 11 16  1  0
 12 13  2  0
 12 14  1  0
 15 38  1  0
 15 39  1  0
 16 40  1  0
 16 41  1  0
 17 25  1  0
 17 18  1  0
 17 42  1  6
 18 23  1  0
 18 19  1  0
 18 43  1  1
 19 20  1  0
 19 44  1  0
 19 45  1  0
 20 26  1  0
 20 21  1  0
 20 46  1  1
 21 22  1  0
 21 47  1  0
 21 48  1  0
 22 23  1  0
 22 24  1  0
 22 49  1  6
 23 50  1  0
 23 51  1  0
 24 25  1  0
 24 52  1  0
 24 53  1  0
 25 26  1  0
 25 54  1  6
 26 55  1  0
 26 56  1  0
M  CHG  1  14  -1
M  END
>  <i_m_ct_stereo_status>  (218) 
1

>  <s_m_source_file>  (218) 
/var/tmp/pbs.5076255.sched01/tmpnszqc94g/84e4epk0lh.sdf

>  <i_m_source_file_index>  (218) 
20

>  <i_lp_mmshare_version>  (218) 
48012

>  <i_f3d_flags>  (218) 
0

>  <s_epik_input>  (218) 
W0NIMl0xW0NASF0oW0NIMl0yKVtDSDJdW0NAQEhdKFtDSDJdMylbQ0gyXVtDQEhdMltDQEBIXShbQ0BIXTEzKUMoPU8pW05IXVtDQEhdKFtDQEhdKFtDSDJdNClbQ0gyXVtDQEBIXShbQ0gyXTUpW0NIMl02KVtDQEhdNVtDSDJdW0NAQF00NkMoPU8pW09IXQ==

>  <s_epik_cmdline>  (218) 
J2VwaWtfcHl0aG9uJywgJy1waHQnLCAnMi4wJywgJy1waCcsICc3LjAnLCAnLXRuJywgJzgnLCAnLW1hJywgJzIwMCcsICctaW1hZScsICc8aW5maWxlLm1hZT4nLCAnLW9tYWUnLCAnPG91dGZpbGUubWFlPic=

>  <r_epik_Ionization_Penalty>  (218) 
0.00603876

>  <r_epik_Ionization_Penalty_Charging>  (218) 
0.00603856

>  <r_epik_Ionization_Penalty_Neutral>  (218) 
2.05358e-07

>  <r_epik_State_Penalty>  (218) 
0.00444692

>  <r_epik_Charging_Adjusted_Penalty>  (218) 
0.0104855

>  <i_epik_Tot_Q>  (218) 
-1

>  <i_epik_Tot_abs_Q>  (218) 
1

>  <s_lp_Force_Field>  (218) 
OPLS3e

>  <r_lp_Energy>  (218) 
18.8442

>  <b_lp_Chiralities_Consistent>  (218) 
1

>  <s_lp_Variant>  (218) 
73:0-1

>  <s_i_glide_gridfile>  (218) 
pfpi4k_grid

>  <i_i_glide_lignum>  (218) 
20

>  <i_i_glide_rotatable_bonds>  (218) 
4

>  <r_i_docking_score>  (218) 
-2.76387

>  <r_i_glide_ligand_efficiency>  (218) 
-0.106303

>  <r_i_glide_ligand_efficiency_sa>  (218) 
-0.314922

>  <r_i_glide_ligand_efficiency_ln>  (218) 
-0.649087

>  <r_i_glide_gscore>  (218) 
-2.76387

>  <r_i_glide_lipo>  (218) 
-0.246871

>  <r_i_glide_hbond>  (218) 
-0.0518447

>  <r_i_glide_metal>  (218) 
-0

>  <r_i_glide_rewards>  (218) 
-1.22192

>  <r_i_glide_evdw>  (218) 
-29.6807

>  <r_i_glide_ecoul>  (218) 
-1.40465

>  <r_i_glide_erotb>  (218) 
0.451683

>  <r_i_glide_esite>  (218) 
-0.000191647

>  <r_i_glide_emodel>  (218) 
-34.4532

>  <r_i_glide_energy>  (218) 
-31.0853

>  <r_i_glide_einternal>  (218) 
7.90002

>  <r_i_glide_intrahb_reward>  (218) 
-0

>  <i_i_glide_confnum>  (218) 
3

>  <i_i_glide_posenum>  (218) 
5

>  <r_i_glide_eff_state_penalty>  (218) 
0

>  <ligand_id>  (218) 
73

>  <original_smiles>  (218) 
O=C(NC1C2CC3CC1CC(C(=O)O)(C3)C2)C1C2CC3CC(C2)CC1C3

>  <smiles>  (218) 
[H]N(C(=O)C1([H])C2([H])C([H])([H])C3([H])C([H])([H])C([H])(C2([H])[H])C([H])([H])C1([H])C3([H])[H])C1([H])C2([H])C([H])([H])C3([H])C([H])([H])C1([H])C([H])([H])C(C(=O)[O-])(C3([H])[H])C2([H])[H]

$$$$
73:0:2
     RDKit          3D

 56 61  0  0  1  0  0  0  0  0999 V2000
    4.2251   -5.9557    2.6370 O   0  0  0  0  0  0  0  0  0  0  0  0
    3.2809   -5.2545    2.3064 C   0  0  0  0  0  0  0  0  0  0  0  0
    3.4754   -4.0485    1.7707 N   0  0  0  0  0  0  0  0  0  0  0  0
    4.8095   -3.4926    1.5304 C   0  0  2  0  0  0  0  0  0  0  0  0
    4.6757   -2.0315    1.0791 C   0  0  1  0  0  0  0  0  0  0  0  0
    6.0842   -1.4181    0.9130 C   0  0  0  0  0  0  0  0  0  0  0  0
    6.8656   -2.2152   -0.1552 C   0  0  1  0  0  0  0  0  0  0  0  0
    7.0053   -3.6801    0.2849 C   0  0  0  0  0  0  0  0  0  0  0  0
    5.5968   -4.2744    0.4473 C   0  0  2  0  0  0  0  0  0  0  0  0
    4.8278   -4.2447   -0.8876 C   0  0  0  0  0  0  0  0  0  0  0  0
    4.6873   -2.7738   -1.3573 C   0  0  2  0  0  0  0  0  0  0  0  0
    3.9018   -2.7312   -2.7066 C   0  0  0  0  0  0  0  0  0  0  0  0
    4.5310   -2.3872   -3.7401 O   0  0  0  0  0  0  0  0  0  0  0  0
    2.7062   -3.0514   -2.6747 O   0  0  0  0  0  0  0  0  0  0  0  0
    6.1050   -2.1602   -1.4988 C   0  0  0  0  0  0  0  0  0  0  0  0
    3.9129   -1.9707   -0.2710 C   0  0  0  0  0  0  0  0  0  0  0  0
    1.8257   -5.7288    2.4992 C   0  0  2  0  0  0  0  0  0  0  0  0
    1.5551   -6.2826    3.9287 C   0  0  2  0  0  0  0  0  0  0  0  0
    2.3521   -7.5897    4.1918 C   0  0  0  0  0  0  0  0  0  0  0  0
    1.9573   -8.6341    3.1178 C   0  0  1  0  0  0  0  0  0  0  0  0
    0.4585   -8.9574    3.2855 C   0  0  0  0  0  0  0  0  0  0  0  0
   -0.3693   -7.6711    3.0577 C   0  0  1  0  0  0  0  0  0  0  0  0
    0.0469   -6.5982    4.0876 C   0  0  0  0  0  0  0  0  0  0  0  0
   -0.1094   -7.1259    1.6360 C   0  0  0  0  0  0  0  0  0  0  0  0
    1.3974   -6.8081    1.4647 C   0  0  2  0  0  0  0  0  0  0  0  0
    2.2053   -8.1131    1.6827 C   0  0  0  0  0  0  0  0  0  0  0  0
    2.6954   -3.4864    1.4527 H   0  0  0  0  0  0  0  0  0  0  0  0
    5.3581   -3.5293    2.4701 H   0  0  0  0  0  0  0  0  0  0  0  0
    4.1248   -1.4687    1.8385 H   0  0  0  0  0  0  0  0  0  0  0  0
    5.9922   -0.3715    0.6190 H   0  0  0  0  0  0  0  0  0  0  0  0
    6.6161   -1.4371    1.8684 H   0  0  0  0  0  0  0  0  0  0  0  0
    7.8634   -1.7908   -0.2731 H   0  0  0  0  0  0  0  0  0  0  0  0
    7.5796   -4.2425   -0.4515 H   0  0  0  0  0  0  0  0  0  0  0  0
    7.5603   -3.7503    1.2223 H   0  0  0  0  0  0  0  0  0  0  0  0
    5.7350   -5.3190    0.7321 H   0  0  0  0  0  0  0  0  0  0  0  0
    5.3342   -4.8531   -1.6372 H   0  0  0  0  0  0  0  0  0  0  0  0
    3.8442   -4.7008   -0.7553 H   0  0  0  0  0  0  0  0  0  0  0  0
    5.9989   -1.1221   -1.8115 H   0  0  0  0  0  0  0  0  0  0  0  0
    6.6848   -2.6781   -2.2661 H   0  0  0  0  0  0  0  0  0  0  0  0
    2.9012   -2.3668   -0.1517 H   0  0  0  0  0  0  0  0  0  0  0  0
    3.7860   -0.9337   -0.5770 H   0  0  0  0  0  0  0  0  0  0  0  0
    1.1993   -4.8543    2.3584 H   0  0  0  0  0  0  0  0  0  0  0  0
    1.8305   -5.5199    4.6581 H   0  0  0  0  0  0  0  0  0  0  0  0
    3.4239   -7.4368    4.1983 H   0  0  0  0  0  0  0  0  0  0  0  0
    2.1042   -7.9615    5.1895 H   0  0  0  0  0  0  0  0  0  0  0  0
    2.5481   -9.5365    3.2676 H   0  0  0  0  0  0  0  0  0  0  0  0
    0.1583   -9.7409    2.5893 H   0  0  0  0  0  0  0  0  0  0  0  0
    0.2806   -9.3468    4.2897 H   0  0  0  0  0  0  0  0  0  0  0  0
   -1.4303   -7.9132    3.1758 H   0  0  0  0  0  0  0  0  0  0  0  0
   -0.1513   -6.9562    5.0942 H   0  0  0  0  0  0  0  0  0  0  0  0
   -0.5602   -5.7022    3.9777 H   0  0  0  0  0  0  0  0  0  0  0  0
   -0.4280   -7.8511    0.8899 H   0  0  0  0  0  0  0  0  0  0  0  0
   -0.7309   -6.2539    1.4462 H   0  0  0  0  0  0  0  0  0  0  0  0
    1.5522   -6.4337    0.4492 H   0  0  0  0  0  0  0  0  0  0  0  0
    3.2690   -7.9466    1.5102 H   0  0  0  0  0  0  0  0  0  0  0  0
    1.8951   -8.8603    0.9473 H   0  0  0  0  0  0  0  0  0  0  0  0
  1  2  2  0
  2  3  1  0
  2 17  1  0
  3  4  1  0
  3 27  1  0
  4  9  1  0
  4  5  1  0
  4 28  1  1
  5 16  1  0
  5  6  1  0
  5 29  1  1
  6  7  1  0
  6 30  1  0
  6 31  1  0
  7 15  1  0
  7  8  1  0
  7 32  1  6
  8  9  1  0
  8 33  1  0
  8 34  1  0
  9 10  1  0
  9 35  1  1
 10 11  1  0
 10 36  1  0
 10 37  1  0
 11 12  1  6
 11 15  1  0
 11 16  1  0
 12 13  2  0
 12 14  1  0
 15 38  1  0
 15 39  1  0
 16 40  1  0
 16 41  1  0
 17 25  1  0
 17 18  1  0
 17 42  1  6
 18 23  1  0
 18 19  1  0
 18 43  1  1
 19 20  1  0
 19 44  1  0
 19 45  1  0
 20 26  1  0
 20 21  1  0
 20 46  1  1
 21 22  1  0
 21 47  1  0
 21 48  1  0
 22 23  1  0
 22 24  1  0
 22 49  1  6
 23 50  1  0
 23 51  1  0
 24 25  1  0
 24 52  1  0
 24 53  1  0
 25 26  1  0
 25 54  1  6
 26 55  1  0
 26 56  1  0
M  CHG  1  14  -1
M  END
>  <i_m_ct_stereo_status>  (219) 
1

>  <s_m_source_file>  (219) 
/var/tmp/pbs.5076255.sched01/tmpnszqc94g/84e4epk0lh.sdf

>  <i_m_source_file_index>  (219) 
20

>  <i_lp_mmshare_version>  (219) 
48012

>  <i_f3d_flags>  (219) 
0

>  <s_epik_input>  (219) 
W0NIMl0xW0NASF0oW0NIMl0yKVtDSDJdW0NAQEhdKFtDSDJdMylbQ0gyXVtDQEhdMltDQEBIXShbQ0BIXTEzKUMoPU8pW05IXVtDQEhdKFtDQEhdKFtDSDJdNClbQ0gyXVtDQEBIXShbQ0gyXTUpW0NIMl02KVtDQEhdNVtDSDJdW0NAQF00NkMoPU8pW09IXQ==

>  <s_epik_cmdline>  (219) 
J2VwaWtfcHl0aG9uJywgJy1waHQnLCAnMi4wJywgJy1waCcsICc3LjAnLCAnLXRuJywgJzgnLCAnLW1hJywgJzIwMCcsICctaW1hZScsICc8aW5maWxlLm1hZT4nLCAnLW9tYWUnLCAnPG91dGZpbGUubWFlPic=

>  <r_epik_Ionization_Penalty>  (219) 
0.00603876

>  <r_epik_Ionization_Penalty_Charging>  (219) 
0.00603856

>  <r_epik_Ionization_Penalty_Neutral>  (219) 
2.05358e-07

>  <r_epik_State_Penalty>  (219) 
0.00444692

>  <r_epik_Charging_Adjusted_Penalty>  (219) 
0.0104855

>  <i_epik_Tot_Q>  (219) 
-1

>  <i_epik_Tot_abs_Q>  (219) 
1

>  <s_lp_Force_Field>  (219) 
OPLS3e

>  <r_lp_Energy>  (219) 
18.8442

>  <b_lp_Chiralities_Consistent>  (219) 
1

>  <s_lp_Variant>  (219) 
73:0-1

>  <s_i_glide_gridfile>  (219) 
pfpi4k_grid

>  <i_i_glide_lignum>  (219) 
20

>  <i_i_glide_rotatable_bonds>  (219) 
4

>  <r_i_docking_score>  (219) 
-2.51435

>  <r_i_glide_ligand_efficiency>  (219) 
-0.0967056

>  <r_i_glide_ligand_efficiency_sa>  (219) 
-0.28649

>  <r_i_glide_ligand_efficiency_ln>  (219) 
-0.590486

>  <r_i_glide_gscore>  (219) 
-2.51435

>  <r_i_glide_lipo>  (219) 
-0.411324

>  <r_i_glide_hbond>  (219) 
-0.00576492

>  <r_i_glide_metal>  (219) 
-0

>  <r_i_glide_rewards>  (219) 
-0.990512

>  <r_i_glide_evdw>  (219) 
-31.6494

>  <r_i_glide_ecoul>  (219) 
0.160262

>  <r_i_glide_erotb>  (219) 
0.451683

>  <r_i_glide_esite>  (219) 
0

>  <r_i_glide_emodel>  (219) 
-35.2385

>  <r_i_glide_energy>  (219) 
-31.4891

>  <r_i_glide_einternal>  (219) 
6.79228

>  <r_i_glide_intrahb_reward>  (219) 
-0

>  <i_i_glide_confnum>  (219) 
3

>  <i_i_glide_posenum>  (219) 
13

>  <r_i_glide_eff_state_penalty>  (219) 
0

>  <ligand_id>  (219) 
73

>  <original_smiles>  (219) 
O=C(NC1C2CC3CC1CC(C(=O)O)(C3)C2)C1C2CC3CC(C2)CC1C3

>  <smiles>  (219) 
[H]N(C(=O)C1([H])C2([H])C([H])([H])C3([H])C([H])([H])C([H])(C2([H])[H])C([H])([H])C1([H])C3([H])[H])C1([H])C2([H])C([H])([H])C3([H])C([H])([H])C1([H])C([H])([H])C(C(=O)[O-])(C3([H])[H])C2([H])[H]

$$$$
74:0:0
     RDKit          3D

 36 38  0  0  1  0  0  0  0  0999 V2000
    5.4067   -2.9498   -2.4305 C   0  0  0  0  0  0  0  0  0  0  0  0
    4.5582   -2.7060   -1.1725 C   0  0  0  0  0  0  0  0  0  0  0  0
    3.8502   -1.3398   -1.3382 C   0  0  0  0  0  0  0  0  0  0  0  0
    3.5162   -3.8213   -1.1135 C   0  0  0  0  0  0  0  0  0  0  0  0
    2.5820   -3.6531    0.0652 C   0  0  0  0  0  0  0  0  0  0  0  0
    3.2872   -3.7225    1.4144 C   0  0  0  0  0  0  0  0  0  0  0  0
    4.6904   -3.0518    1.5066 C   0  0  2  0  0  0  0  0  0  0  0  0
    5.5482   -3.9814    2.4065 C   0  0  0  0  0  0  0  0  0  0  0  0
    6.2899   -4.8366    1.9187 O   0  0  0  0  0  0  0  0  0  0  0  0
    5.3634   -3.8579    3.7455 O   0  0  0  0  0  0  0  0  0  0  0  0
    4.5146   -2.8703    4.3125 C   0  0  0  0  0  0  0  0  0  0  0  0
    4.8029   -1.5250    3.6616 C   0  0  0  0  0  0  0  0  0  0  0  0
    4.6377   -1.6075    2.1296 C   0  0  1  0  0  0  0  0  0  0  0  0
    5.7626   -0.8933    1.4306 C   0  0  0  0  0  0  0  0  0  0  0  0
    6.2076   -1.5561    0.3667 C   0  0  0  0  0  0  0  0  0  0  0  0
    5.4286   -2.8200    0.1152 C   0  0  2  0  0  0  0  0  0  0  0  0
    4.7879   -2.9133   -3.3302 H   0  0  0  0  0  0  0  0  0  0  0  0
    5.8913   -3.9265   -2.4131 H   0  0  0  0  0  0  0  0  0  0  0  0
    6.1898   -2.2011   -2.5357 H   0  0  0  0  0  0  0  0  0  0  0  0
    3.3309   -1.0266   -0.4351 H   0  0  0  0  0  0  0  0  0  0  0  0
    3.1019   -1.3843   -2.1313 H   0  0  0  0  0  0  0  0  0  0  0  0
    4.5507   -0.5405   -1.5988 H   0  0  0  0  0  0  0  0  0  0  0  0
    2.9382   -3.8475   -2.0394 H   0  0  0  0  0  0  0  0  0  0  0  0
    4.0180   -4.7751   -1.0255 H   0  0  0  0  0  0  0  0  0  0  0  0
    2.0118   -2.7290   -0.0172 H   0  0  0  0  0  0  0  0  0  0  0  0
    1.8493   -4.4589    0.0231 H   0  0  0  0  0  0  0  0  0  0  0  0
    2.6183   -3.2670    2.1421 H   0  0  0  0  0  0  0  0  0  0  0  0
    3.3449   -4.7730    1.6959 H   0  0  0  0  0  0  0  0  0  0  0  0
    3.4743   -3.1534    4.1927 H   0  0  0  0  0  0  0  0  0  0  0  0
    4.7023   -2.8229    5.3883 H   0  0  0  0  0  0  0  0  0  0  0  0
    4.1513   -0.7554    4.0744 H   0  0  0  0  0  0  0  0  0  0  0  0
    5.8089   -1.2167    3.9356 H   0  0  0  0  0  0  0  0  0  0  0  0
    3.7291   -1.0749    1.8475 H   0  0  0  0  0  0  0  0  0  0  0  0
    6.1385    0.0581    1.7709 H   0  0  0  0  0  0  0  0  0  0  0  0
    7.0079   -1.2443   -0.2850 H   0  0  0  0  0  0  0  0  0  0  0  0
    6.1618   -3.6004   -0.0843 H   0  0  0  0  0  0  0  0  0  0  0  0
  1  2  1  0
  1 17  1  0
  1 18  1  0
  1 19  1  0
  2 16  1  0
  2  3  1  0
  2  4  1  0
  3 20  1  0
  3 21  1  0
  3 22  1  0
  4  5  1  0
  4 23  1  0
  4 24  1  0
  5  6  1  0
  5 25  1  0
  5 26  1  0
  7  6  1  6
  6 27  1  0
  6 28  1  0
  7 13  1  0
  7 16  1  0
  7  8  1  0
  8  9  2  0
  8 10  1  0
 10 11  1  0
 11 12  1  0
 11 29  1  0
 11 30  1  0
 12 13  1  0
 12 31  1  0
 12 32  1  0
 13 14  1  0
 13 33  1  1
 14 15  2  0
 14 34  1  0
 15 16  1  0
 15 35  1  0
 16 36  1  6
M  END
>  <i_m_ct_stereo_status>  (220) 
1

>  <s_m_source_file>  (220) 
/var/tmp/pbs.5076255.sched01/tmpnszqc94g/84e4epk0lh.sdf

>  <i_m_source_file_index>  (220) 
21

>  <i_lp_mmshare_version>  (220) 
48012

>  <i_f3d_flags>  (220) 
0

>  <s_epik_input>  (220) 
W0NIMl0xW0NIMl1bQ0gyXUMoW0NIM10pKFtDSDNdKVtDQEhdMltDSF09W0NIXVtDQEBIXShbQ0BAXTEyMylbQ0gyXVtDSDJdT0MzPU8=

>  <s_epik_cmdline>  (220) 
J2VwaWtfcHl0aG9uJywgJy1waHQnLCAnMi4wJywgJy1waCcsICc3LjAnLCAnLXRuJywgJzgnLCAnLW1hJywgJzIwMCcsICctaW1hZScsICc8aW5maWxlLm1hZT4nLCAnLW9tYWUnLCAnPG91dGZpbGUubWFlPic=

>  <r_lp_tautomer_probability>  (220) 
1

>  <r_epik_Ionization_Penalty>  (220) 
0

>  <r_epik_Ionization_Penalty_Charging>  (220) 
0

>  <r_epik_Ionization_Penalty_Neutral>  (220) 
0

>  <r_epik_State_Penalty>  (220) 
-0

>  <r_epik_Charging_Adjusted_Penalty>  (220) 
0

>  <i_epik_Tot_Q>  (220) 
0

>  <i_epik_Tot_abs_Q>  (220) 
0

>  <s_epik_Chemistry_Notes>  (220) 
This compound has an ester and may undergo hydrolysis at high or low pH.

>  <s_lp_Force_Field>  (220) 
OPLS3e

>  <r_lp_Energy>  (220) 
29.032

>  <b_lp_Chiralities_Consistent>  (220) 
1

>  <s_lp_Variant>  (220) 
74:0-1

>  <s_i_glide_gridfile>  (220) 
pfpi4k_grid

>  <i_i_glide_lignum>  (220) 
21

>  <i_i_glide_rotatable_bonds>  (220) 
0

>  <r_i_docking_score>  (220) 
-3.18397

>  <r_i_glide_ligand_efficiency>  (220) 
-0.198998

>  <r_i_glide_ligand_efficiency_sa>  (220) 
-0.501444

>  <r_i_glide_ligand_efficiency_ln>  (220) 
-0.843975

>  <r_i_glide_gscore>  (220) 
-3.18397

>  <r_i_glide_lipo>  (220) 
-0.520267

>  <r_i_glide_hbond>  (220) 
0

>  <r_i_glide_metal>  (220) 
-0

>  <r_i_glide_rewards>  (220) 
-1.94166

>  <r_i_glide_evdw>  (220) 
-15.5048

>  <r_i_glide_ecoul>  (220) 
0.354651

>  <r_i_glide_erotb>  (220) 
0

>  <r_i_glide_esite>  (220) 
0

>  <r_i_glide_emodel>  (220) 
-18.8208

>  <r_i_glide_energy>  (220) 
-15.1502

>  <r_i_glide_einternal>  (220) 
0

>  <r_i_glide_intrahb_reward>  (220) 
-0

>  <i_i_glide_confnum>  (220) 
2

>  <i_i_glide_posenum>  (220) 
8

>  <r_i_glide_eff_state_penalty>  (220) 
0

>  <ligand_id>  (220) 
74

>  <original_smiles>  (220) 
CC1(C)CCCC23C(=O)OCCC2C=CC13

>  <smiles>  (220) 
[H]C1=C([H])C2([H])C3(C(=O)OC([H])([H])C([H])([H])C13[H])C([H])([H])C([H])([H])C([H])([H])C2(C([H])([H])[H])C([H])([H])[H]

$$$$
74:0:1
     RDKit          3D

 36 38  0  0  1  0  0  0  0  0999 V2000
    3.3916   -1.9751   -2.5792 C   0  0  0  0  0  0  0  0  0  0  0  0
    4.3321   -2.3380   -1.4074 C   0  0  0  0  0  0  0  0  0  0  0  0
    5.3367   -3.3953   -1.9349 C   0  0  0  0  0  0  0  0  0  0  0  0
    5.0714   -1.0578   -0.9971 C   0  0  0  0  0  0  0  0  0  0  0  0
    6.0888   -1.3357    0.1076 C   0  0  0  0  0  0  0  0  0  0  0  0
    5.4207   -1.8455    1.3915 C   0  0  0  0  0  0  0  0  0  0  0  0
    4.2140   -2.8320    1.2477 C   0  0  2  0  0  0  0  0  0  0  0  0
    3.1787   -2.4305    2.3528 C   0  0  0  0  0  0  0  0  0  0  0  0
    2.2232   -1.6929    2.1231 O   0  0  0  0  0  0  0  0  0  0  0  0
    3.4252   -2.8844    3.6080 O   0  0  0  0  0  0  0  0  0  0  0  0
    4.5150   -3.7454    3.8987 C   0  0  0  0  0  0  0  0  0  0  0  0
    4.5188   -4.8892    2.8861 C   0  0  0  0  0  0  0  0  0  0  0  0
    4.6017   -4.3458    1.4395 C   0  0  1  0  0  0  0  0  0  0  0  0
    3.6425   -5.0715    0.5259 C   0  0  0  0  0  0  0  0  0  0  0  0
    3.0355   -4.2420   -0.3204 C   0  0  0  0  0  0  0  0  0  0  0  0
    3.5065   -2.8188   -0.1716 C   0  0  2  0  0  0  0  0  0  0  0  0
    3.9597   -1.5974   -3.4301 H   0  0  0  0  0  0  0  0  0  0  0  0
    2.6772   -1.1986   -2.3012 H   0  0  0  0  0  0  0  0  0  0  0  0
    2.8205   -2.8375   -2.9243 H   0  0  0  0  0  0  0  0  0  0  0  0
    5.9436   -3.8246   -1.1387 H   0  0  0  0  0  0  0  0  0  0  0  0
    6.0186   -2.9519   -2.6628 H   0  0  0  0  0  0  0  0  0  0  0  0
    4.8311   -4.2265   -2.4301 H   0  0  0  0  0  0  0  0  0  0  0  0
    5.5578   -0.6099   -1.8627 H   0  0  0  0  0  0  0  0  0  0  0  0
    4.3538   -0.3201   -0.6338 H   0  0  0  0  0  0  0  0  0  0  0  0
    6.8581   -2.0271   -0.2329 H   0  0  0  0  0  0  0  0  0  0  0  0
    6.6180   -0.4109    0.3415 H   0  0  0  0  0  0  0  0  0  0  0  0
    6.1992   -2.3005    2.0039 H   0  0  0  0  0  0  0  0  0  0  0  0
    5.1114   -0.9566    1.9472 H   0  0  0  0  0  0  0  0  0  0  0  0
    5.4551   -3.1946    3.8872 H   0  0  0  0  0  0  0  0  0  0  0  0
    4.4002   -4.1400    4.9098 H   0  0  0  0  0  0  0  0  0  0  0  0
    5.3520   -5.5650    3.0815 H   0  0  0  0  0  0  0  0  0  0  0  0
    3.6111   -5.4772    3.0290 H   0  0  0  0  0  0  0  0  0  0  0  0
    5.6064   -4.5294    1.0563 H   0  0  0  0  0  0  0  0  0  0  0  0
    3.4881   -6.1402    0.5594 H   0  0  0  0  0  0  0  0  0  0  0  0
    2.3120   -4.5346   -1.0744 H   0  0  0  0  0  0  0  0  0  0  0  0
    2.6154   -2.1950   -0.1538 H   0  0  0  0  0  0  0  0  0  0  0  0
  1  2  1  0
  1 17  1  0
  1 18  1  0
  1 19  1  0
  2 16  1  0
  2  3  1  0
  2  4  1  0
  3 20  1  0
  3 21  1  0
  3 22  1  0
  4  5  1  0
  4 23  1  0
  4 24  1  0
  5  6  1  0
  5 25  1  0
  5 26  1  0
  7  6  1  6
  6 27  1  0
  6 28  1  0
  7 13  1  0
  7 16  1  0
  7  8  1  0
  8  9  2  0
  8 10  1  0
 10 11  1  0
 11 12  1  0
 11 29  1  0
 11 30  1  0
 12 13  1  0
 12 31  1  0
 12 32  1  0
 13 14  1  0
 13 33  1  6
 14 15  2  0
 14 34  1  0
 15 16  1  0
 15 35  1  0
 16 36  1  1
M  END
>  <i_m_ct_stereo_status>  (221) 
1

>  <s_m_source_file>  (221) 
/var/tmp/pbs.5076255.sched01/tmpnszqc94g/84e4epk0lh.sdf

>  <i_m_source_file_index>  (221) 
21

>  <i_lp_mmshare_version>  (221) 
48012

>  <i_f3d_flags>  (221) 
0

>  <s_epik_input>  (221) 
W0NIMl0xW0NIMl1bQ0gyXUMoW0NIM10pKFtDSDNdKVtDQEhdMltDSF09W0NIXVtDQEBIXShbQ0BAXTEyMylbQ0gyXVtDSDJdT0MzPU8=

>  <s_epik_cmdline>  (221) 
J2VwaWtfcHl0aG9uJywgJy1waHQnLCAnMi4wJywgJy1waCcsICc3LjAnLCAnLXRuJywgJzgnLCAnLW1hJywgJzIwMCcsICctaW1hZScsICc8aW5maWxlLm1hZT4nLCAnLW9tYWUnLCAnPG91dGZpbGUubWFlPic=

>  <r_lp_tautomer_probability>  (221) 
1

>  <r_epik_Ionization_Penalty>  (221) 
0

>  <r_epik_Ionization_Penalty_Charging>  (221) 
0

>  <r_epik_Ionization_Penalty_Neutral>  (221) 
0

>  <r_epik_State_Penalty>  (221) 
-0

>  <r_epik_Charging_Adjusted_Penalty>  (221) 
0

>  <i_epik_Tot_Q>  (221) 
0

>  <i_epik_Tot_abs_Q>  (221) 
0

>  <s_epik_Chemistry_Notes>  (221) 
This compound has an ester and may undergo hydrolysis at high or low pH.

>  <s_lp_Force_Field>  (221) 
OPLS3e

>  <r_lp_Energy>  (221) 
29.032

>  <b_lp_Chiralities_Consistent>  (221) 
1

>  <s_lp_Variant>  (221) 
74:0-1

>  <s_i_glide_gridfile>  (221) 
pfpi4k_grid

>  <i_i_glide_lignum>  (221) 
21

>  <i_i_glide_rotatable_bonds>  (221) 
0

>  <r_i_docking_score>  (221) 
-3.06596

>  <r_i_glide_ligand_efficiency>  (221) 
-0.191622

>  <r_i_glide_ligand_efficiency_sa>  (221) 
-0.482858

>  <r_i_glide_ligand_efficiency_ln>  (221) 
-0.812694

>  <r_i_glide_gscore>  (221) 
-3.06596

>  <r_i_glide_lipo>  (221) 
-0.298236

>  <r_i_glide_hbond>  (221) 
0

>  <r_i_glide_metal>  (221) 
-0

>  <r_i_glide_rewards>  (221) 
-1.907

>  <r_i_glide_evdw>  (221) 
-19.7262

>  <r_i_glide_ecoul>  (221) 
0.83951

>  <r_i_glide_erotb>  (221) 
0

>  <r_i_glide_esite>  (221) 
-0.000344871

>  <r_i_glide_emodel>  (221) 
-22.4441

>  <r_i_glide_energy>  (221) 
-18.8867

>  <r_i_glide_einternal>  (221) 
0

>  <r_i_glide_intrahb_reward>  (221) 
-0

>  <i_i_glide_confnum>  (221) 
1

>  <i_i_glide_posenum>  (221) 
1

>  <r_i_glide_eff_state_penalty>  (221) 
0

>  <ligand_id>  (221) 
74

>  <original_smiles>  (221) 
CC1(C)CCCC23C(=O)OCCC2C=CC13

>  <smiles>  (221) 
[H]C1=C([H])C2([H])C3(C(=O)OC([H])([H])C([H])([H])C13[H])C([H])([H])C([H])([H])C([H])([H])C2(C([H])([H])[H])C([H])([H])[H]

$$$$
74:0:2
     RDKit          3D

 36 38  0  0  1  0  0  0  0  0999 V2000
    4.2065   -1.3763   -2.4120 C   0  0  0  0  0  0  0  0  0  0  0  0
    4.7969   -2.4505   -1.4728 C   0  0  0  0  0  0  0  0  0  0  0  0
    4.9826   -3.7404   -2.3104 C   0  0  0  0  0  0  0  0  0  0  0  0
    6.1595   -1.9483   -0.9895 C   0  0  0  0  0  0  0  0  0  0  0  0
    6.8668   -2.9737   -0.1144 C   0  0  0  0  0  0  0  0  0  0  0  0
    6.0709   -3.2833    1.1598 C   0  0  0  0  0  0  0  0  0  0  0  0
    4.5102   -3.3532    1.0504 C   0  0  2  0  0  0  0  0  0  0  0  0
    3.9507   -2.6870    2.3528 C   0  0  0  0  0  0  0  0  0  0  0  0
    3.6172   -1.5046    2.3941 O   0  0  0  0  0  0  0  0  0  0  0  0
    3.9296   -3.4634    3.4689 O   0  0  0  0  0  0  0  0  0  0  0  0
    4.3165   -4.8273    3.4481 C   0  0  0  0  0  0  0  0  0  0  0  0
    3.6150   -5.5188    2.2820 C   0  0  0  0  0  0  0  0  0  0  0  0
    3.9481   -4.8213    0.9425 C   0  0  1  0  0  0  0  0  0  0  0  0
    2.7154   -4.6564    0.0878 C   0  0  0  0  0  0  0  0  0  0  0  0
    2.6733   -3.4737   -0.5203 C   0  0  0  0  0  0  0  0  0  0  0  0
    3.8854   -2.6316   -0.2175 C   0  0  2  0  0  0  0  0  0  0  0  0
    4.8529   -1.2180   -3.2778 H   0  0  0  0  0  0  0  0  0  0  0  0
    4.0986   -0.4140   -1.9104 H   0  0  0  0  0  0  0  0  0  0  0  0
    3.2244   -1.6651   -2.7900 H   0  0  0  0  0  0  0  0  0  0  0  0
    5.2424   -4.6022   -1.6967 H   0  0  0  0  0  0  0  0  0  0  0  0
    5.7732   -3.6164   -3.0550 H   0  0  0  0  0  0  0  0  0  0  0  0
    4.0729   -3.9999   -2.8520 H   0  0  0  0  0  0  0  0  0  0  0  0
    6.7795   -1.7250   -1.8552 H   0  0  0  0  0  0  0  0  0  0  0  0
    6.0330   -1.0242   -0.4221 H   0  0  0  0  0  0  0  0  0  0  0  0
    7.0705   -3.8832   -0.6766 H   0  0  0  0  0  0  0  0  0  0  0  0
    7.8501   -2.5917    0.1669 H   0  0  0  0  0  0  0  0  0  0  0  0
    6.4568   -4.2176    1.5638 H   0  0  0  0  0  0  0  0  0  0  0  0
    6.3599   -2.5250    1.8895 H   0  0  0  0  0  0  0  0  0  0  0  0
    5.3997   -4.9206    3.3760 H   0  0  0  0  0  0  0  0  0  0  0  0
    4.0321   -5.2959    4.3919 H   0  0  0  0  0  0  0  0  0  0  0  0
    3.8998   -6.5714    2.2402 H   0  0  0  0  0  0  0  0  0  0  0  0
    2.5417   -5.5058    2.4739 H   0  0  0  0  0  0  0  0  0  0  0  0
    4.6388   -5.4522    0.3844 H   0  0  0  0  0  0  0  0  0  0  0  0
    1.9719   -5.4366   -0.0249 H   0  0  0  0  0  0  0  0  0  0  0  0
    1.8947   -3.1360   -1.1934 H   0  0  0  0  0  0  0  0  0  0  0  0
    3.5078   -1.6418    0.0295 H   0  0  0  0  0  0  0  0  0  0  0  0
  1  2  1  0
  1 17  1  0
  1 18  1  0
  1 19  1  0
  2 16  1  0
  2  3  1  0
  2  4  1  0
  3 20  1  0
  3 21  1  0
  3 22  1  0
  4  5  1  0
  4 23  1  0
  4 24  1  0
  5  6  1  0
  5 25  1  0
  5 26  1  0
  7  6  1  6
  6 27  1  0
  6 28  1  0
  7 13  1  0
  7 16  1  0
  7  8  1  0
  8  9  2  0
  8 10  1  0
 10 11  1  0
 11 12  1  0
 11 29  1  0
 11 30  1  0
 12 13  1  0
 12 31  1  0
 12 32  1  0
 13 14  1  0
 13 33  1  6
 14 15  2  0
 14 34  1  0
 15 16  1  0
 15 35  1  0
 16 36  1  1
M  END
>  <i_m_ct_stereo_status>  (222) 
1

>  <s_m_source_file>  (222) 
/var/tmp/pbs.5076255.sched01/tmpnszqc94g/84e4epk0lh.sdf

>  <i_m_source_file_index>  (222) 
21

>  <i_lp_mmshare_version>  (222) 
48012

>  <i_f3d_flags>  (222) 
0

>  <s_epik_input>  (222) 
W0NIMl0xW0NIMl1bQ0gyXUMoW0NIM10pKFtDSDNdKVtDQEhdMltDSF09W0NIXVtDQEBIXShbQ0BAXTEyMylbQ0gyXVtDSDJdT0MzPU8=

>  <s_epik_cmdline>  (222) 
J2VwaWtfcHl0aG9uJywgJy1waHQnLCAnMi4wJywgJy1waCcsICc3LjAnLCAnLXRuJywgJzgnLCAnLW1hJywgJzIwMCcsICctaW1hZScsICc8aW5maWxlLm1hZT4nLCAnLW9tYWUnLCAnPG91dGZpbGUubWFlPic=

>  <r_lp_tautomer_probability>  (222) 
1

>  <r_epik_Ionization_Penalty>  (222) 
0

>  <r_epik_Ionization_Penalty_Charging>  (222) 
0

>  <r_epik_Ionization_Penalty_Neutral>  (222) 
0

>  <r_epik_State_Penalty>  (222) 
-0

>  <r_epik_Charging_Adjusted_Penalty>  (222) 
0

>  <i_epik_Tot_Q>  (222) 
0

>  <i_epik_Tot_abs_Q>  (222) 
0

>  <s_epik_Chemistry_Notes>  (222) 
This compound has an ester and may undergo hydrolysis at high or low pH.

>  <s_lp_Force_Field>  (222) 
OPLS3e

>  <r_lp_Energy>  (222) 
29.032

>  <b_lp_Chiralities_Consistent>  (222) 
1

>  <s_lp_Variant>  (222) 
74:0-1

>  <s_i_glide_gridfile>  (222) 
pfpi4k_grid

>  <i_i_glide_lignum>  (222) 
21

>  <i_i_glide_rotatable_bonds>  (222) 
0

>  <r_i_docking_score>  (222) 
-2.94974

>  <r_i_glide_ligand_efficiency>  (222) 
-0.184358

>  <r_i_glide_ligand_efficiency_sa>  (222) 
-0.464554

>  <r_i_glide_ligand_efficiency_ln>  (222) 
-0.781886

>  <r_i_glide_gscore>  (222) 
-2.94974

>  <r_i_glide_lipo>  (222) 
-0.231986

>  <r_i_glide_hbond>  (222) 
0

>  <r_i_glide_metal>  (222) 
-0

>  <r_i_glide_rewards>  (222) 
-1.90792

>  <r_i_glide_evdw>  (222) 
-18.8313

>  <r_i_glide_ecoul>  (222) 
0.878187

>  <r_i_glide_erotb>  (222) 
0

>  <r_i_glide_esite>  (222) 
0

>  <r_i_glide_emodel>  (222) 
-21.3618

>  <r_i_glide_energy>  (222) 
-17.9531

>  <r_i_glide_einternal>  (222) 
0

>  <r_i_glide_intrahb_reward>  (222) 
-0

>  <i_i_glide_confnum>  (222) 
1

>  <i_i_glide_posenum>  (222) 
25

>  <r_i_glide_eff_state_penalty>  (222) 
0

>  <ligand_id>  (222) 
74

>  <original_smiles>  (222) 
CC1(C)CCCC23C(=O)OCCC2C=CC13

>  <smiles>  (222) 
[H]C1=C([H])C2([H])C3(C(=O)OC([H])([H])C([H])([H])C13[H])C([H])([H])C([H])([H])C([H])([H])C2(C([H])([H])[H])C([H])([H])[H]

$$$$
75:0:0
     RDKit          3D

 56 61  0  0  1  0  0  0  0  0999 V2000
   -2.2811    3.7294    2.8420 C   0  0  0  0  0  0  0  0  0  0  0  0
   -2.1712    4.0052    4.2378 O   0  0  0  0  0  0  0  0  0  0  0  0
   -1.6846    2.9620    5.0309 C   0  0  0  0  0  0  0  0  0  0  0  0
   -1.4701    1.6915    4.6624 C   0  0  0  0  0  0  0  0  0  0  0  0
   -0.8328    0.6380    5.5678 C   0  0  2  0  0  0  0  0  0  0  0  0
   -2.0696    0.0568    5.9934 O   0  0  0  0  0  0  0  0  0  0  0  0
    0.0819    1.2430    6.7613 C   0  0  2  0  0  0  0  0  0  0  0  0
   -0.2968    0.7236    8.1731 C   0  0  0  0  0  0  0  0  0  0  0  0
   -0.0045    2.8094    6.8694 C   0  0  0  0  0  0  0  0  0  0  0  0
   -1.3259    3.4444    6.4230 C   0  0  0  0  0  0  0  0  0  0  0  0
    1.5869    0.8421    6.3314 C   0  0  1  0  0  0  0  0  0  0  0  0
    2.1013   -0.6724    6.5208 C   0  0  0  0  0  0  0  0  0  0  0  0
    1.4754   -1.7539    5.4958 C   0  0  1  0  0  0  0  0  0  0  0  0
    0.1631   -1.4263    5.8653 C   0  0  0  0  0  0  0  0  0  0  0  0
   -0.6077   -2.0204    6.6264 O   0  0  0  0  0  0  0  0  0  0  0  0
    0.2504   -0.1885    4.7512 C   0  0  1  0  0  0  0  0  0  0  0  0
    0.6741   -1.5232    4.0781 C   0  0  1  0  0  0  0  0  0  0  0  0
    1.3964   -1.5422    2.7611 C   0  0  0  0  0  0  0  0  0  0  0  0
    2.8368   -1.8321    2.9841 C   0  0  1  0  0  0  0  0  0  0  0  0
    3.8440   -1.7813    1.8184 C   0  0  1  0  0  0  0  0  0  0  0  0
    3.4377   -1.1729    0.4802 C   0  0  0  0  0  0  0  0  0  0  0  0
    4.6865   -0.7883    2.6846 C   0  0  0  0  0  0  0  0  0  0  0  0
    5.8283   -0.3687    2.6210 O   0  0  0  0  0  0  0  0  0  0  0  0
    3.5751   -0.7527    3.7822 C   0  0  1  0  0  0  0  0  0  0  0  0
    2.9503    0.6538    4.0520 C   0  0  1  0  0  0  0  0  0  0  0  0
    2.9005    1.3454    2.7903 O   0  0  0  0  0  0  0  0  0  0  0  0
    1.5052    0.8203    4.8168 C   0  0  2  0  0  0  0  0  0  0  0  0
    1.1929    2.1144    4.3291 O   0  0  0  0  0  0  0  0  0  0  0  0
   -2.5370    4.6223    2.2807 H   0  0  0  0  0  0  0  0  0  0  0  0
   -3.0537    2.9745    2.6586 H   0  0  0  0  0  0  0  0  0  0  0  0
   -1.3188    3.3652    2.4436 H   0  0  0  0  0  0  0  0  0  0  0  0
   -1.6696    1.2890    3.6713 H   0  0  0  0  0  0  0  0  0  0  0  0
   -2.5819   -0.0853    5.2198 H   0  0  0  0  0  0  0  0  0  0  0  0
    0.3334    1.1797    8.9285 H   0  0  0  0  0  0  0  0  0  0  0  0
   -0.1819   -0.3375    8.3164 H   0  0  0  0  0  0  0  0  0  0  0  0
   -1.3215    0.9730    8.4085 H   0  0  0  0  0  0  0  0  0  0  0  0
    0.1694    3.1129    7.9041 H   0  0  0  0  0  0  0  0  0  0  0  0
    0.8090    3.3022    6.3524 H   0  0  0  0  0  0  0  0  0  0  0  0
   -1.2572    4.5325    6.4271 H   0  0  0  0  0  0  0  0  0  0  0  0
   -2.1375    3.1908    7.1104 H   0  0  0  0  0  0  0  0  0  0  0  0
    2.3355    1.5473    6.7178 H   0  0  0  0  0  0  0  0  0  0  0  0
    3.1912   -0.6812    6.4539 H   0  0  0  0  0  0  0  0  0  0  0  0
    1.9296   -0.9836    7.5644 H   0  0  0  0  0  0  0  0  0  0  0  0
    1.7418   -2.8008    5.6688 H   0  0  0  0  0  0  0  0  0  0  0  0
   -0.1912   -2.1866    3.8538 H   0  0  0  0  0  0  0  0  0  0  0  0
    0.9997   -2.2877    2.0881 H   0  0  0  0  0  0  0  0  0  0  0  0
    1.2702   -0.5923    2.2410 H   0  0  0  0  0  0  0  0  0  0  0  0
    3.0309   -2.7701    3.4898 H   0  0  0  0  0  0  0  0  0  0  0  0
    4.3272   -2.7531    1.7139 H   0  0  0  0  0  0  0  0  0  0  0  0
    4.2601   -1.1097   -0.2353 H   0  0  0  0  0  0  0  0  0  0  0  0
    3.0097   -0.1701    0.5867 H   0  0  0  0  0  0  0  0  0  0  0  0
    2.6527   -1.7920    0.0266 H   0  0  0  0  0  0  0  0  0  0  0  0
    4.0057   -1.2224    4.6630 H   0  0  0  0  0  0  0  0  0  0  0  0
    3.6696    1.2309    4.6415 H   0  0  0  0  0  0  0  0  0  0  0  0
    3.7647    1.6919    2.6017 H   0  0  0  0  0  0  0  0  0  0  0  0
    1.3231    2.0850    3.3880 H   0  0  0  0  0  0  0  0  0  0  0  0
  1  2  1  0
  1 29  1  0
  1 30  1  0
  1 31  1  0
  2  3  1  0
  3 10  1  0
  3  4  2  0
  4  5  1  0
  4 32  1  0
  5 16  1  0
  5  6  1  1
  5  7  1  0
  6 33  1  0
  7  8  1  1
  7  9  1  0
  7 11  1  0
  8 34  1  0
  8 35  1  0
  8 36  1  0
  9 10  1  0
  9 37  1  0
  9 38  1  0
 10 39  1  0
 10 40  1  0
 11 27  1  0
 11 12  1  0
 11 41  1  6
 12 13  1  0
 12 42  1  0
 12 43  1  0
 13 17  1  0
 13 14  1  0
 13 44  1  6
 14 15  2  0
 16 14  1  1
 16 27  1  0
 16 17  1  0
 17 18  1  0
 17 45  1  6
 18 19  1  0
 18 46  1  0
 18 47  1  0
 19 24  1  0
 19 20  1  0
 19 48  1  1
 20 21  1  0
 20 22  1  0
 20 49  1  6
 21 50  1  0
 21 51  1  0
 21 52  1  0
 22 23  2  0
 22 24  1  0
 24 25  1  0
 24 53  1  1
 25 26  1  0
 25 27  1  0
 25 54  1  1
 26 55  1  0
 27 28  1  6
 28 56  1  0
M  END
>  <i_m_ct_stereo_status>  (223) 
1

>  <s_m_source_file>  (223) 
/var/tmp/pbs.5076255.sched01/tmpnszqc94g/84e4epk0lh.sdf

>  <i_m_source_file_index>  (223) 
22

>  <i_lp_mmshare_version>  (223) 
48012

>  <i_f3d_flags>  (223) 
0

>  <s_epik_input>  (223) 
W0NIM11PQyg9W0NIXTEpW0NIMl1bQ0gyXVtDQEBdKFtDSDNdKShbQ0BAXTEoW0NAQF0yMzQpW09IXSlbQ0BASF01W0NAQF00KFtPSF0pW0NASF0oW09IXSlbQ0BIXTZbQ0BIXShbQ0BASF0oW0NIM10pQzY9TylbQ0gyXVtDQEhdM1tDQEBIXShbQ0gyXTUpQzI9Tw==

>  <s_epik_cmdline>  (223) 
J2VwaWtfcHl0aG9uJywgJy1waHQnLCAnMi4wJywgJy1waCcsICc3LjAnLCAnLXRuJywgJzgnLCAnLW1hJywgJzIwMCcsICctaW1hZScsICc8aW5maWxlLm1hZT4nLCAnLW9tYWUnLCAnPG91dGZpbGUubWFlPic=

>  <r_lp_tautomer_probability>  (223) 
1

>  <r_epik_Ionization_Penalty>  (223) 
4.05032e-07

>  <r_epik_Ionization_Penalty_Charging>  (223) 
0

>  <r_epik_Ionization_Penalty_Neutral>  (223) 
4.05032e-07

>  <r_epik_State_Penalty>  (223) 
-0

>  <r_epik_Charging_Adjusted_Penalty>  (223) 
0

>  <i_epik_Tot_Q>  (223) 
0

>  <i_epik_Tot_abs_Q>  (223) 
0

>  <s_lp_Force_Field>  (223) 
OPLS3e

>  <r_lp_Energy>  (223) 
209.99

>  <b_lp_Chiralities_Consistent>  (223) 
1

>  <s_lp_Variant>  (223) 
75:0-1

>  <s_i_glide_gridfile>  (223) 
pfpi4k_grid

>  <i_i_glide_lignum>  (223) 
22

>  <i_i_glide_rotatable_bonds>  (223) 
4

>  <r_i_docking_score>  (223) 
-3.61089

>  <r_i_glide_ligand_efficiency>  (223) 
-0.12896

>  <r_i_glide_ligand_efficiency_sa>  (223) 
-0.3916

>  <r_i_glide_ligand_efficiency_ln>  (223) 
-0.8335

>  <r_i_glide_gscore>  (223) 
-3.61089

>  <r_i_glide_lipo>  (223) 
-0.0350773

>  <r_i_glide_hbond>  (223) 
-0.138271

>  <r_i_glide_metal>  (223) 
-0

>  <r_i_glide_rewards>  (223) 
-0.876516

>  <r_i_glide_evdw>  (223) 
-19.893

>  <r_i_glide_ecoul>  (223) 
-10.3139

>  <r_i_glide_erotb>  (223) 
0

>  <r_i_glide_esite>  (223) 
-0.01929

>  <r_i_glide_emodel>  (223) 
-36.3188

>  <r_i_glide_energy>  (223) 
-30.2069

>  <r_i_glide_einternal>  (223) 
0.969704

>  <r_i_glide_intrahb_reward>  (223) 
-0

>  <i_i_glide_confnum>  (223) 
2

>  <i_i_glide_posenum>  (223) 
28

>  <r_i_glide_eff_state_penalty>  (223) 
0

>  <ligand_id>  (223) 
75

>  <original_smiles>  (223) 
COC1=CC2(O)C(C)(CC1)C1CC3C(=O)C24C3CC2C(C)C(=O)C2C(O)C14O

>  <smiles>  (223) 
[H]OC1([H])C2([H])C(=O)C([H])(C([H])([H])[H])C2([H])C([H])([H])C2([H])C3([H])C(=O)C24C2(O[H])C([H])=C(OC([H])([H])[H])C([H])([H])C([H])([H])C2(C([H])([H])[H])C([H])(C3([H])[H])C14O[H]

$$$$
75:0:1
     RDKit          3D

 56 61  0  0  1  0  0  0  0  0999 V2000
   -1.6149   -8.5701    2.6917 C   0  0  0  0  0  0  0  0  0  0  0  0
   -0.7637   -7.6066    2.0818 O   0  0  0  0  0  0  0  0  0  0  0  0
    0.5698   -7.6846    2.4337 C   0  0  0  0  0  0  0  0  0  0  0  0
    1.5082   -7.4114    1.5141 C   0  0  0  0  0  0  0  0  0  0  0  0
    3.0160   -7.4169    1.8138 C   0  0  2  0  0  0  0  0  0  0  0  0
    3.2744   -8.7506    1.3761 O   0  0  0  0  0  0  0  0  0  0  0  0
    3.3770   -7.1070    3.3710 C   0  0  2  0  0  0  0  0  0  0  0  0
    4.2864   -8.1590    4.0643 C   0  0  0  0  0  0  0  0  0  0  0  0
    2.1035   -7.0408    4.2888 C   0  0  0  0  0  0  0  0  0  0  0  0
    0.9344   -7.9296    3.8853 C   0  0  0  0  0  0  0  0  0  0  0  0
    4.0609   -5.6348    3.3345 C   0  0  1  0  0  0  0  0  0  0  0  0
    5.5873   -5.4698    2.8492 C   0  0  0  0  0  0  0  0  0  0  0  0
    5.8310   -5.6819    1.2751 C   0  0  1  0  0  0  0  0  0  0  0  0
    5.2513   -6.9725    1.3007 C   0  0  0  0  0  0  0  0  0  0  0  0
    5.7939   -8.0765    1.3120 O   0  0  0  0  0  0  0  0  0  0  0  0
    3.7755   -6.2048    1.1275 C   0  0  1  0  0  0  0  0  0  0  0  0
    4.7553   -5.6888    0.0286 C   0  0  1  0  0  0  0  0  0  0  0  0
    4.4685   -4.4506   -0.7679 C   0  0  0  0  0  0  0  0  0  0  0  0
    5.3066   -3.3198   -0.2646 C   0  0  1  0  0  0  0  0  0  0  0  0
    5.1170   -1.8809   -0.8118 C   0  0  1  0  0  0  0  0  0  0  0  0
    3.8963   -1.5583   -1.6663 C   0  0  0  0  0  0  0  0  0  0  0  0
    4.9682   -1.4165    0.6672 C   0  0  0  0  0  0  0  0  0  0  0  0
    4.9819   -0.3139    1.2208 O   0  0  0  0  0  0  0  0  0  0  0  0
    5.0112   -2.8908    1.1804 C   0  0  1  0  0  0  0  0  0  0  0  0
    3.7334   -3.3910    1.9202 C   0  0  1  0  0  0  0  0  0  0  0  0
    2.6142   -2.7663    1.2778 O   0  0  0  0  0  0  0  0  0  0  0  0
    3.4077   -4.9960    2.1257 C   0  0  2  0  0  0  0  0  0  0  0  0
    2.0149   -4.8854    2.3841 O   0  0  0  0  0  0  0  0  0  0  0  0
   -2.5897   -8.5057    2.2241 H   0  0  0  0  0  0  0  0  0  0  0  0
   -1.7690   -8.4317    3.7611 H   0  0  0  0  0  0  0  0  0  0  0  0
   -1.2406   -9.5892    2.5149 H   0  0  0  0  0  0  0  0  0  0  0  0
    1.2301   -7.1842    0.4938 H   0  0  0  0  0  0  0  0  0  0  0  0
    2.8175   -9.3630    1.9157 H   0  0  0  0  0  0  0  0  0  0  0  0
    4.4493   -7.9032    5.1099 H   0  0  0  0  0  0  0  0  0  0  0  0
    5.2815   -8.2561    3.6532 H   0  0  0  0  0  0  0  0  0  0  0  0
    3.8392   -9.1453    4.0390 H   0  0  0  0  0  0  0  0  0  0  0  0
    2.3643   -7.3129    5.3175 H   0  0  0  0  0  0  0  0  0  0  0  0
    1.7315   -6.0393    4.4139 H   0  0  0  0  0  0  0  0  0  0  0  0
    0.0970   -7.6911    4.5425 H   0  0  0  0  0  0  0  0  0  0  0  0
    1.1457   -8.9975    4.0130 H   0  0  0  0  0  0  0  0  0  0  0  0
    3.9027   -5.0813    4.2705 H   0  0  0  0  0  0  0  0  0  0  0  0
    5.9383   -4.4858    3.1495 H   0  0  0  0  0  0  0  0  0  0  0  0
    6.2350   -6.1361    3.4415 H   0  0  0  0  0  0  0  0  0  0  0  0
    6.8708   -5.6752    0.9333 H   0  0  0  0  0  0  0  0  0  0  0  0
    4.8883   -6.4444   -0.7814 H   0  0  0  0  0  0  0  0  0  0  0  0
    4.6512   -4.6134   -1.8263 H   0  0  0  0  0  0  0  0  0  0  0  0
    3.4099   -4.2104   -0.7021 H   0  0  0  0  0  0  0  0  0  0  0  0
    6.3751   -3.5126   -0.3177 H   0  0  0  0  0  0  0  0  0  0  0  0
    6.0461   -1.5390   -1.2561 H   0  0  0  0  0  0  0  0  0  0  0  0
    3.8234   -0.5050   -1.9273 H   0  0  0  0  0  0  0  0  0  0  0  0
    2.9589   -1.8555   -1.1887 H   0  0  0  0  0  0  0  0  0  0  0  0
    3.9457   -2.1249   -2.6049 H   0  0  0  0  0  0  0  0  0  0  0  0
    5.9201   -2.9950    1.7668 H   0  0  0  0  0  0  0  0  0  0  0  0
    3.7383   -2.9553    2.9215 H   0  0  0  0  0  0  0  0  0  0  0  0
    2.7731   -1.8433    1.2031 H   0  0  0  0  0  0  0  0  0  0  0  0
    1.8768   -4.1885    2.9996 H   0  0  0  0  0  0  0  0  0  0  0  0
  1  2  1  0
  1 29  1  0
  1 30  1  0
  1 31  1  0
  2  3  1  0
  3 10  1  0
  3  4  2  0
  4  5  1  0
  4 32  1  0
  5 16  1  0
  5  6  1  6
  5  7  1  0
  6 33  1  0
  7  8  1  1
  7  9  1  0
  7 11  1  0
  8 34  1  0
  8 35  1  0
  8 36  1  0
  9 10  1  0
  9 37  1  0
  9 38  1  0
 10 39  1  0
 10 40  1  0
 11 27  1  0
 11 12  1  0
 11 41  1  1
 12 13  1  0
 12 42  1  0
 12 43  1  0
 13 17  1  0
 13 14  1  0
 13 44  1  6
 14 15  2  0
 16 14  1  1
 16 27  1  0
 16 17  1  0
 17 18  1  0
 17 45  1  6
 18 19  1  0
 18 46  1  0
 18 47  1  0
 19 24  1  0
 19 20  1  0
 19 48  1  1
 20 21  1  0
 20 22  1  0
 20 49  1  6
 21 50  1  0
 21 51  1  0
 21 52  1  0
 22 23  2  0
 22 24  1  0
 24 25  1  0
 24 53  1  1
 25 26  1  0
 25 27  1  0
 25 54  1  1
 26 55  1  0
 27 28  1  1
 28 56  1  0
M  END
>  <i_m_ct_stereo_status>  (224) 
1

>  <s_m_source_file>  (224) 
/var/tmp/pbs.5076255.sched01/tmpnszqc94g/84e4epk0lh.sdf

>  <i_m_source_file_index>  (224) 
22

>  <i_lp_mmshare_version>  (224) 
48012

>  <i_f3d_flags>  (224) 
0

>  <s_epik_input>  (224) 
W0NIM11PQyg9W0NIXTEpW0NIMl1bQ0gyXVtDQEBdKFtDSDNdKShbQ0BAXTEoW0NAQF0yMzQpW09IXSlbQ0BASF01W0NAQF00KFtPSF0pW0NASF0oW09IXSlbQ0BIXTZbQ0BIXShbQ0BASF0oW0NIM10pQzY9TylbQ0gyXVtDQEhdM1tDQEBIXShbQ0gyXTUpQzI9Tw==

>  <s_epik_cmdline>  (224) 
J2VwaWtfcHl0aG9uJywgJy1waHQnLCAnMi4wJywgJy1waCcsICc3LjAnLCAnLXRuJywgJzgnLCAnLW1hJywgJzIwMCcsICctaW1hZScsICc8aW5maWxlLm1hZT4nLCAnLW9tYWUnLCAnPG91dGZpbGUubWFlPic=

>  <r_lp_tautomer_probability>  (224) 
1

>  <r_epik_Ionization_Penalty>  (224) 
4.05032e-07

>  <r_epik_Ionization_Penalty_Charging>  (224) 
0

>  <r_epik_Ionization_Penalty_Neutral>  (224) 
4.05032e-07

>  <r_epik_State_Penalty>  (224) 
-0

>  <r_epik_Charging_Adjusted_Penalty>  (224) 
0

>  <i_epik_Tot_Q>  (224) 
0

>  <i_epik_Tot_abs_Q>  (224) 
0

>  <s_lp_Force_Field>  (224) 
OPLS3e

>  <r_lp_Energy>  (224) 
209.99

>  <b_lp_Chiralities_Consistent>  (224) 
1

>  <s_lp_Variant>  (224) 
75:0-1

>  <s_i_glide_gridfile>  (224) 
pfpi4k_grid

>  <i_i_glide_lignum>  (224) 
22

>  <i_i_glide_rotatable_bonds>  (224) 
4

>  <r_i_docking_score>  (224) 
-2.91713

>  <r_i_glide_ligand_efficiency>  (224) 
-0.104183

>  <r_i_glide_ligand_efficiency_sa>  (224) 
-0.316362

>  <r_i_glide_ligand_efficiency_ln>  (224) 
-0.67336

>  <r_i_glide_gscore>  (224) 
-2.91713

>  <r_i_glide_lipo>  (224) 
-0.321291

>  <r_i_glide_hbond>  (224) 
-0.0242875

>  <r_i_glide_metal>  (224) 
-0

>  <r_i_glide_rewards>  (224) 
-0.950795

>  <r_i_glide_evdw>  (224) 
-25.8277

>  <r_i_glide_ecoul>  (224) 
-2.19583

>  <r_i_glide_erotb>  (224) 
0

>  <r_i_glide_esite>  (224) 
0

>  <r_i_glide_emodel>  (224) 
-30.6327

>  <r_i_glide_energy>  (224) 
-28.0236

>  <r_i_glide_einternal>  (224) 
5.76367

>  <r_i_glide_intrahb_reward>  (224) 
-0

>  <i_i_glide_confnum>  (224) 
2

>  <i_i_glide_posenum>  (224) 
10

>  <r_i_glide_eff_state_penalty>  (224) 
0

>  <ligand_id>  (224) 
75

>  <original_smiles>  (224) 
COC1=CC2(O)C(C)(CC1)C1CC3C(=O)C24C3CC2C(C)C(=O)C2C(O)C14O

>  <smiles>  (224) 
[H]OC1([H])C2([H])C(=O)C([H])(C([H])([H])[H])C2([H])C([H])([H])C2([H])C3([H])C(=O)C24C2(O[H])C([H])=C(OC([H])([H])[H])C([H])([H])C([H])([H])C2(C([H])([H])[H])C([H])(C3([H])[H])C14O[H]

$$$$
75:0:2
     RDKit          3D

 56 61  0  0  1  0  0  0  0  0999 V2000
   -1.5972   -8.5306    2.8310 C   0  0  0  0  0  0  0  0  0  0  0  0
   -0.7350   -7.5833    2.2082 O   0  0  0  0  0  0  0  0  0  0  0  0
    0.6058   -7.6964    2.5242 C   0  0  0  0  0  0  0  0  0  0  0  0
    1.5281   -7.4220    1.5916 C   0  0  0  0  0  0  0  0  0  0  0  0
    3.0441   -7.4679    1.8519 C   0  0  2  0  0  0  0  0  0  0  0  0
    3.2632   -8.7976    1.3764 O   0  0  0  0  0  0  0  0  0  0  0  0
    3.4445   -7.1987    3.4061 C   0  0  2  0  0  0  0  0  0  0  0  0
    4.3467   -8.2850    4.0550 C   0  0  0  0  0  0  0  0  0  0  0  0
    2.1920   -7.1272    4.3546 C   0  0  0  0  0  0  0  0  0  0  0  0
    0.9977   -7.9831    3.9606 C   0  0  0  0  0  0  0  0  0  0  0  0
    4.1550   -5.7370    3.3853 C   0  0  1  0  0  0  0  0  0  0  0  0
    5.6743   -5.5923    2.8709 C   0  0  0  0  0  0  0  0  0  0  0  0
    5.8794   -5.7747    1.2880 C   0  0  1  0  0  0  0  0  0  0  0  0
    5.2750   -7.0536    1.3012 C   0  0  0  0  0  0  0  0  0  0  0  0
    5.7964   -8.1707    1.2827 O   0  0  0  0  0  0  0  0  0  0  0  0
    3.8097   -6.2551    1.1780 C   0  0  1  0  0  0  0  0  0  0  0  0
    4.7728   -5.7306    0.0686 C   0  0  1  0  0  0  0  0  0  0  0  0
    4.4938   -4.4673   -0.6904 C   0  0  0  0  0  0  0  0  0  0  0  0
    5.3599   -3.3598   -0.1759 C   0  0  1  0  0  0  0  0  0  0  0  0
    5.1808   -1.9043   -0.6844 C   0  0  1  0  0  0  0  0  0  0  0  0
    3.9516   -1.5426   -1.5064 C   0  0  0  0  0  0  0  0  0  0  0  0
    5.0788   -1.4673    0.8092 C   0  0  0  0  0  0  0  0  0  0  0  0
    5.1779   -0.3830    1.3815 O   0  0  0  0  0  0  0  0  0  0  0  0
    5.1018   -2.9573    1.2859 C   0  0  1  0  0  0  0  0  0  0  0  0
    3.8262   -3.4530    2.0279 C   0  0  1  0  0  0  0  0  0  0  0  0
    2.7151   -2.7579    1.4479 O   0  0  0  0  0  0  0  0  0  0  0  0
    3.4827   -5.0554    2.2086 C   0  0  2  0  0  0  0  0  0  0  0  0
    2.0964   -4.9263    2.5047 O   0  0  0  0  0  0  0  0  0  0  0  0
   -2.5853   -8.4367    2.3931 H   0  0  0  0  0  0  0  0  0  0  0  0
   -1.7204   -8.4001    3.9053 H   0  0  0  0  0  0  0  0  0  0  0  0
   -1.2542   -9.5572    2.6347 H   0  0  0  0  0  0  0  0  0  0  0  0
    1.2292   -7.1722    0.5815 H   0  0  0  0  0  0  0  0  0  0  0  0
    2.8226   -9.4198    1.9177 H   0  0  0  0  0  0  0  0  0  0  0  0
    4.5393   -8.0575    5.1026 H   0  0  0  0  0  0  0  0  0  0  0  0
    5.3314   -8.3908    3.6197 H   0  0  0  0  0  0  0  0  0  0  0  0
    3.8811   -9.2631    4.0170 H   0  0  0  0  0  0  0  0  0  0  0  0
    2.4725   -7.4291    5.3713 H   0  0  0  0  0  0  0  0  0  0  0  0
    1.8453   -6.1221    4.5211 H   0  0  0  0  0  0  0  0  0  0  0  0
    0.1827   -7.7423    4.6453 H   0  0  0  0  0  0  0  0  0  0  0  0
    1.1863   -9.0590    4.0606 H   0  0  0  0  0  0  0  0  0  0  0  0
    4.0292   -5.2044    4.3377 H   0  0  0  0  0  0  0  0  0  0  0  0
    6.0535   -4.6248    3.1869 H   0  0  0  0  0  0  0  0  0  0  0  0
    6.3236   -6.2826    3.4353 H   0  0  0  0  0  0  0  0  0  0  0  0
    6.9110   -5.7798    0.9240 H   0  0  0  0  0  0  0  0  0  0  0  0
    4.8739   -6.4717   -0.7625 H   0  0  0  0  0  0  0  0  0  0  0  0
    4.6544   -4.6024   -1.7565 H   0  0  0  0  0  0  0  0  0  0  0  0
    3.4393   -4.2148   -0.5997 H   0  0  0  0  0  0  0  0  0  0  0  0
    6.4225   -3.5719   -0.2608 H   0  0  0  0  0  0  0  0  0  0  0  0
    6.1057   -1.5662   -1.1366 H   0  0  0  0  0  0  0  0  0  0  0  0
    3.9021   -0.4838   -1.7467 H   0  0  0  0  0  0  0  0  0  0  0  0
    3.0133   -1.8228   -1.0214 H   0  0  0  0  0  0  0  0  0  0  0  0
    3.9756   -2.0887   -2.4580 H   0  0  0  0  0  0  0  0  0  0  0  0
    6.0176   -3.0913    1.8565 H   0  0  0  0  0  0  0  0  0  0  0  0
    3.8592   -3.0621    3.0455 H   0  0  0  0  0  0  0  0  0  0  0  0
    2.7394   -2.8504    0.5196 H   0  0  0  0  0  0  0  0  0  0  0  0
    1.7928   -5.7367    2.8462 H   0  0  0  0  0  0  0  0  0  0  0  0
  1  2  1  0
  1 29  1  0
  1 30  1  0
  1 31  1  0
  2  3  1  0
  3 10  1  0
  3  4  2  0
  4  5  1  0
  4 32  1  0
  5 16  1  0
  5  6  1  6
  5  7  1  0
  6 33  1  0
  7  8  1  1
  7  9  1  0
  7 11  1  0
  8 34  1  0
  8 35  1  0
  8 36  1  0
  9 10  1  0
  9 37  1  0
  9 38  1  0
 10 39  1  0
 10 40  1  0
 11 27  1  0
 11 12  1  0
 11 41  1  1
 12 13  1  0
 12 42  1  0
 12 43  1  0
 13 17  1  0
 13 14  1  0
 13 44  1  6
 14 15  2  0
 16 14  1  1
 16 27  1  0
 16 17  1  0
 17 18  1  0
 17 45  1  6
 18 19  1  0
 18 46  1  0
 18 47  1  0
 19 24  1  0
 19 20  1  0
 19 48  1  1
 20 21  1  0
 20 22  1  0
 20 49  1  6
 21 50  1  0
 21 51  1  0
 21 52  1  0
 22 23  2  0
 22 24  1  0
 24 25  1  0
 24 53  1  1
 25 26  1  0
 25 27  1  0
 25 54  1  1
 26 55  1  0
 27 28  1  1
 28 56  1  0
M  END
>  <i_m_ct_stereo_status>  (225) 
1

>  <s_m_source_file>  (225) 
/var/tmp/pbs.5076255.sched01/tmpnszqc94g/84e4epk0lh.sdf

>  <i_m_source_file_index>  (225) 
22

>  <i_lp_mmshare_version>  (225) 
48012

>  <i_f3d_flags>  (225) 
0

>  <s_epik_input>  (225) 
W0NIM11PQyg9W0NIXTEpW0NIMl1bQ0gyXVtDQEBdKFtDSDNdKShbQ0BAXTEoW0NAQF0yMzQpW09IXSlbQ0BASF01W0NAQF00KFtPSF0pW0NASF0oW09IXSlbQ0BIXTZbQ0BIXShbQ0BASF0oW0NIM10pQzY9TylbQ0gyXVtDQEhdM1tDQEBIXShbQ0gyXTUpQzI9Tw==

>  <s_epik_cmdline>  (225) 
J2VwaWtfcHl0aG9uJywgJy1waHQnLCAnMi4wJywgJy1waCcsICc3LjAnLCAnLXRuJywgJzgnLCAnLW1hJywgJzIwMCcsICctaW1hZScsICc8aW5maWxlLm1hZT4nLCAnLW9tYWUnLCAnPG91dGZpbGUubWFlPic=

>  <r_lp_tautomer_probability>  (225) 
1

>  <r_epik_Ionization_Penalty>  (225) 
4.05032e-07

>  <r_epik_Ionization_Penalty_Charging>  (225) 
0

>  <r_epik_Ionization_Penalty_Neutral>  (225) 
4.05032e-07

>  <r_epik_State_Penalty>  (225) 
-0

>  <r_epik_Charging_Adjusted_Penalty>  (225) 
0

>  <i_epik_Tot_Q>  (225) 
0

>  <i_epik_Tot_abs_Q>  (225) 
0

>  <s_lp_Force_Field>  (225) 
OPLS3e

>  <r_lp_Energy>  (225) 
209.99

>  <b_lp_Chiralities_Consistent>  (225) 
1

>  <s_lp_Variant>  (225) 
75:0-1

>  <s_i_glide_gridfile>  (225) 
pfpi4k_grid

>  <i_i_glide_lignum>  (225) 
22

>  <i_i_glide_rotatable_bonds>  (225) 
4

>  <r_i_docking_score>  (225) 
-2.79423

>  <r_i_glide_ligand_efficiency>  (225) 
-0.0997938

>  <r_i_glide_ligand_efficiency_sa>  (225) 
-0.303033

>  <r_i_glide_ligand_efficiency_ln>  (225) 
-0.644989

>  <r_i_glide_gscore>  (225) 
-2.79423

>  <r_i_glide_lipo>  (225) 
-0.315389

>  <r_i_glide_hbond>  (225) 
-0.0545345

>  <r_i_glide_metal>  (225) 
-0

>  <r_i_glide_rewards>  (225) 
-0.972795

>  <r_i_glide_evdw>  (225) 
-25.7701

>  <r_i_glide_ecoul>  (225) 
-1.08668

>  <r_i_glide_erotb>  (225) 
0

>  <r_i_glide_esite>  (225) 
0

>  <r_i_glide_emodel>  (225) 
-29.3098

>  <r_i_glide_energy>  (225) 
-26.8568

>  <r_i_glide_einternal>  (225) 
5.59188

>  <r_i_glide_intrahb_reward>  (225) 
-0

>  <i_i_glide_confnum>  (225) 
2

>  <i_i_glide_posenum>  (225) 
1

>  <r_i_glide_eff_state_penalty>  (225) 
0

>  <ligand_id>  (225) 
75

>  <original_smiles>  (225) 
COC1=CC2(O)C(C)(CC1)C1CC3C(=O)C24C3CC2C(C)C(=O)C2C(O)C14O

>  <smiles>  (225) 
[H]OC1([H])C2([H])C(=O)C([H])(C([H])([H])[H])C2([H])C([H])([H])C2([H])C3([H])C(=O)C24C2(O[H])C([H])=C(OC([H])([H])[H])C([H])([H])C([H])([H])C2(C([H])([H])[H])C([H])(C3([H])[H])C14O[H]

$$$$
76:0:0
     RDKit          3D

 66 71  0  0  1  0  0  0  0  0999 V2000
    1.1177   -7.8714    2.0811 C   0  0  0  0  0  0  0  0  0  0  0  0
    1.0177   -6.6134    2.9679 C   0  0  2  0  0  0  0  0  0  0  0  0
    2.1498   -5.6070    2.6866 C   0  0  0  0  0  0  0  0  0  0  0  0
    2.8431   -5.2104    4.0175 C   0  0  1  0  0  0  0  0  0  0  0  0
    4.0278   -4.2247    3.8514 C   0  0  0  0  0  0  0  0  0  0  0  0
    3.6726   -2.7389    4.1116 C   0  0  0  0  0  0  0  0  0  0  0  0
    2.1975   -2.4084    3.8101 C   0  0  2  0  0  0  0  0  0  0  0  0
    1.9036   -0.8712    3.7827 C   0  0  1  0  0  0  0  0  0  0  0  0
    1.1789   -0.4479    2.4820 C   0  0  0  0  0  0  0  0  0  0  0  0
    0.5984    0.9523    2.5221 C   0  0  0  0  0  0  0  0  0  0  0  0
    0.5495    1.7374    3.6149 C   0  0  0  0  0  0  0  0  0  0  0  0
    0.0808    3.1856    3.4891 C   0  0  0  0  0  0  0  0  0  0  0  0
   -0.7639    3.6525    4.6676 C   0  0  0  0  0  0  0  0  0  0  0  0
   -1.7708    4.3375    4.5060 O   0  0  0  0  0  0  0  0  0  0  0  0
   -0.2582    3.2724    6.0535 C   0  0  0  0  0  0  0  0  0  0  0  0
    0.0538    1.7676    6.1040 C   0  0  0  0  0  0  0  0  0  0  0  0
    1.0326    1.2690    4.9957 C   0  0  2  0  0  0  0  0  0  0  0  0
    2.4130    1.9334    5.2370 C   0  0  0  0  0  0  0  0  0  0  0  0
    1.2241   -0.2991    5.0540 C   0  0  1  0  0  0  0  0  0  0  0  0
   -0.0040   -1.1620    5.4536 C   0  0  1  0  0  0  0  0  0  0  0  0
   -1.0448   -1.1545    4.4968 O   0  0  0  0  0  0  0  0  0  0  0  0
    0.4388   -2.5983    5.7536 C   0  0  0  0  0  0  0  0  0  0  0  0
    1.1919   -3.3171    4.6084 C   0  0  2  0  0  0  0  0  0  0  0  0
    1.8014   -4.7012    5.0608 C   0  0  2  0  0  0  0  0  0  0  0  0
    2.4175   -4.6844    6.4908 C   0  0  0  0  0  0  0  0  0  0  0  0
    0.7296   -5.6527    5.1392 O   0  0  0  0  0  0  0  0  0  0  0  0
    0.9962   -6.9029    4.4889 C   0  0  1  0  0  0  0  0  0  0  0  0
   -0.0968   -7.8877    4.9339 C   0  0  0  0  0  0  0  0  0  0  0  0
    2.2706   -7.4242    4.8656 O   0  0  0  0  0  0  0  0  0  0  0  0
    3.3822   -6.4488    4.4835 O   0  0  0  0  0  0  0  0  0  0  0  0
    2.0188   -8.4481    2.2939 H   0  0  0  0  0  0  0  0  0  0  0  0
    1.1386   -7.6045    1.0254 H   0  0  0  0  0  0  0  0  0  0  0  0
    0.2631   -8.5343    2.2181 H   0  0  0  0  0  0  0  0  0  0  0  0
    0.0697   -6.1331    2.7306 H   0  0  0  0  0  0  0  0  0  0  0  0
    2.8871   -6.0402    2.0101 H   0  0  0  0  0  0  0  0  0  0  0  0
    1.7388   -4.7467    2.1665 H   0  0  0  0  0  0  0  0  0  0  0  0
    4.8372   -4.5086    4.5309 H   0  0  0  0  0  0  0  0  0  0  0  0
    4.4400   -4.3353    2.8479 H   0  0  0  0  0  0  0  0  0  0  0  0
    3.9021   -2.4699    5.1424 H   0  0  0  0  0  0  0  0  0  0  0  0
    4.3259   -2.1218    3.4934 H   0  0  0  0  0  0  0  0  0  0  0  0
    2.1010   -2.7093    2.7675 H   0  0  0  0  0  0  0  0  0  0  0  0
    2.8729   -0.3787    3.7212 H   0  0  0  0  0  0  0  0  0  0  0  0
    1.8928   -0.4786    1.6560 H   0  0  0  0  0  0  0  0  0  0  0  0
    0.3812   -1.1410    2.2280 H   0  0  0  0  0  0  0  0  0  0  0  0
    0.2577    1.3372    1.5703 H   0  0  0  0  0  0  0  0  0  0  0  0
    0.9469    3.8400    3.4123 H   0  0  0  0  0  0  0  0  0  0  0  0
   -0.4968    3.3093    2.5742 H   0  0  0  0  0  0  0  0  0  0  0  0
    0.6244    3.8681    6.2769 H   0  0  0  0  0  0  0  0  0  0  0  0
   -1.0065    3.5334    6.8010 H   0  0  0  0  0  0  0  0  0  0  0  0
    0.4382    1.5103    7.0924 H   0  0  0  0  0  0  0  0  0  0  0  0
   -0.9076    1.2680    6.0068 H   0  0  0  0  0  0  0  0  0  0  0  0
    2.8356    1.6520    6.2032 H   0  0  0  0  0  0  0  0  0  0  0  0
    2.3575    3.0230    5.2138 H   0  0  0  0  0  0  0  0  0  0  0  0
    3.1351    1.6587    4.4661 H   0  0  0  0  0  0  0  0  0  0  0  0
    1.9295   -0.4648    5.8698 H   0  0  0  0  0  0  0  0  0  0  0  0
   -0.4357   -0.7962    6.3838 H   0  0  0  0  0  0  0  0  0  0  0  0
   -0.6553   -1.2945    3.6464 H   0  0  0  0  0  0  0  0  0  0  0  0
    1.0714   -2.5296    6.6363 H   0  0  0  0  0  0  0  0  0  0  0  0
   -0.4244   -3.1995    6.0457 H   0  0  0  0  0  0  0  0  0  0  0  0
    0.4160   -3.5631    3.8801 H   0  0  0  0  0  0  0  0  0  0  0  0
    3.1439   -3.8882    6.6278 H   0  0  0  0  0  0  0  0  0  0  0  0
    2.9247   -5.6171    6.7351 H   0  0  0  0  0  0  0  0  0  0  0  0
    1.6489   -4.5633    7.2531 H   0  0  0  0  0  0  0  0  0  0  0  0
   -0.0917   -7.9969    6.0195 H   0  0  0  0  0  0  0  0  0  0  0  0
    0.0548   -8.8822    4.5109 H   0  0  0  0  0  0  0  0  0  0  0  0
   -1.0888   -7.5408    4.6369 H   0  0  0  0  0  0  0  0  0  0  0  0
  1  2  1  0
  1 31  1  0
  1 32  1  0
  1 33  1  0
  2 27  1  0
  2  3  1  0
  2 34  1  6
  3  4  1  0
  3 35  1  0
  3 36  1  0
  4 24  1  0
  4 30  1  0
  4  5  1  6
  5  6  1  0
  5 37  1  0
  5 38  1  0
  6  7  1  0
  6 39  1  0
  6 40  1  0
  7 23  1  0
  7  8  1  0
  7 41  1  6
  8 19  1  0
  8  9  1  0
  8 42  1  6
  9 10  1  0
  9 43  1  0
  9 44  1  0
 10 11  2  0
 10 45  1  0
 11 17  1  0
 11 12  1  0
 12 13  1  0
 12 46  1  0
 12 47  1  0
 13 14  2  0
 13 15  1  0
 15 16  1  0
 15 48  1  0
 15 49  1  0
 16 17  1  0
 16 50  1  0
 16 51  1  0
 17 18  1  1
 17 19  1  0
 18 52  1  0
 18 53  1  0
 18 54  1  0
 19 20  1  0
 19 55  1  1
 20 21  1  0
 20 22  1  0
 20 56  1  1
 21 57  1  0
 22 23  1  0
 22 58  1  0
 22 59  1  0
 23 24  1  0
 23 60  1  6
 24 25  1  1
 24 26  1  0
 25 61  1  0
 25 62  1  0
 25 63  1  0
 26 27  1  0
 27 28  1  6
 27 29  1  0
 28 64  1  0
 28 65  1  0
 28 66  1  0
 29 30  1  0
M  END
>  <i_m_ct_stereo_status>  (226) 
1

>  <s_m_source_file>  (226) 
/var/tmp/pbs.5076255.sched01/tmpnszqc94g/84e4epk0lh.sdf

>  <i_m_source_file_index>  (226) 
23

>  <i_lp_mmshare_version>  (226) 
48012

>  <i_f3d_flags>  (226) 
0

>  <s_epik_input>  (226) 
W0NIM11bQ0BIXShbQ0gyXTEpW0NAQF0oW0NIM10pKE9PMilPW0NAXShbQ0BdMTIzKShbQ0gzXSlbQ0BASF00W0NASF0oW0NIMl1bQ0gyXTMpW0NAQEhdNVtDQEhdKFtDQEBIXShbT0hdKVtDSDJdNClbQ0BAXTYoW0NIM10pQyg9W0NIXVtDSDJdNSlbQ0gyXUMoPU8pW0NIMl1bQ0gyXTY=

>  <s_epik_cmdline>  (226) 
J2VwaWtfcHl0aG9uJywgJy1waHQnLCAnMi4wJywgJy1waCcsICc3LjAnLCAnLXRuJywgJzgnLCAnLW1hJywgJzIwMCcsICctaW1hZScsICc8aW5maWxlLm1hZT4nLCAnLW9tYWUnLCAnPG91dGZpbGUubWFlPic=

>  <r_lp_tautomer_probability>  (226) 
1

>  <r_epik_Ionization_Penalty>  (226) 
6.66346e-07

>  <r_epik_Ionization_Penalty_Charging>  (226) 
0

>  <r_epik_Ionization_Penalty_Neutral>  (226) 
6.66346e-07

>  <r_epik_State_Penalty>  (226) 
-0

>  <r_epik_Charging_Adjusted_Penalty>  (226) 
0

>  <i_epik_Tot_Q>  (226) 
0

>  <i_epik_Tot_abs_Q>  (226) 
0

>  <s_lp_Force_Field>  (226) 
OPLS3e

>  <r_lp_Energy>  (226) 
60.5738

>  <b_lp_Chiralities_Consistent>  (226) 
1

>  <s_lp_Variant>  (226) 
76:0-1

>  <s_i_glide_gridfile>  (226) 
pfpi4k_grid

>  <i_i_glide_lignum>  (226) 
23

>  <i_i_glide_rotatable_bonds>  (226) 
1

>  <r_i_docking_score>  (226) 
-2.5659

>  <r_i_glide_ligand_efficiency>  (226) 
-0.0855299

>  <r_i_glide_ligand_efficiency_sa>  (226) 
-0.265761

>  <r_i_glide_ligand_efficiency_ln>  (226) 
-0.583

>  <r_i_glide_gscore>  (226) 
-2.5659

>  <r_i_glide_lipo>  (226) 
-0.0174907

>  <r_i_glide_hbond>  (226) 
-0.0630834

>  <r_i_glide_metal>  (226) 
-0

>  <r_i_glide_rewards>  (226) 
-0.568975

>  <r_i_glide_evdw>  (226) 
-23.0082

>  <r_i_glide_ecoul>  (226) 
-4.82638

>  <r_i_glide_erotb>  (226) 
0

>  <r_i_glide_esite>  (226) 
-0.0419832

>  <r_i_glide_emodel>  (226) 
-32.1566

>  <r_i_glide_energy>  (226) 
-27.8345

>  <r_i_glide_einternal>  (226) 
0.127221

>  <r_i_glide_intrahb_reward>  (226) 
-0

>  <i_i_glide_confnum>  (226) 
2

>  <i_i_glide_posenum>  (226) 
3

>  <r_i_glide_eff_state_penalty>  (226) 
0

>  <ligand_id>  (226) 
76

>  <original_smiles>  (226) 
CC1CC23CCC4C5CC=C6CC(=O)CCC6(C)C5C(O)CC4C2(C)OC1(C)OO3

>  <smiles>  (226) 
[H]OC1([H])C([H])([H])C2([H])C([H])(C([H])([H])C([H])([H])C34OOC(C([H])([H])[H])(OC23C([H])([H])[H])C([H])(C([H])([H])[H])C4([H])[H])C2([H])C([H])([H])C([H])=C3C([H])([H])C(=O)C([H])([H])C([H])([H])C3(C([H])([H])[H])C12[H]

$$$$
76:0:1
     RDKit          3D

 66 71  0  0  1  0  0  0  0  0999 V2000
   -2.2835    1.8515    7.2771 C   0  0  0  0  0  0  0  0  0  0  0  0
   -1.2880    1.6663    6.1128 C   0  0  2  0  0  0  0  0  0  0  0  0
    0.1320    1.3459    6.6053 C   0  0  0  0  0  0  0  0  0  0  0  0
    1.1481    2.3178    5.9481 C   0  0  1  0  0  0  0  0  0  0  0  0
    2.6159    2.1115    6.3993 C   0  0  0  0  0  0  0  0  0  0  0  0
    3.4786    1.2573    5.4341 C   0  0  0  0  0  0  0  0  0  0  0  0
    2.6470    0.2501    4.6187 C   0  0  2  0  0  0  0  0  0  0  0  0
    3.5271   -0.8032    3.8694 C   0  0  1  0  0  0  0  0  0  0  0  0
    3.0649   -2.2515    4.1567 C   0  0  0  0  0  0  0  0  0  0  0  0
    3.6771   -3.2935    3.2369 C   0  0  0  0  0  0  0  0  0  0  0  0
    4.4140   -3.0282    2.1481 C   0  0  0  0  0  0  0  0  0  0  0  0
    5.1049   -4.1639    1.3974 C   0  0  0  0  0  0  0  0  0  0  0  0
    5.1096   -3.9614   -0.1099 C   0  0  0  0  0  0  0  0  0  0  0  0
    4.9406   -4.8977   -0.8743 O   0  0  0  0  0  0  0  0  0  0  0  0
    5.4417   -2.5695   -0.6259 C   0  0  0  0  0  0  0  0  0  0  0  0
    4.5884   -1.5185    0.1014 C   0  0  0  0  0  0  0  0  0  0  0  0
    4.6691   -1.5935    1.6551 C   0  0  2  0  0  0  0  0  0  0  0  0
    6.1087   -1.2594    2.0612 C   0  0  0  0  0  0  0  0  0  0  0  0
    3.7195   -0.5459    2.3558 C   0  0  1  0  0  0  0  0  0  0  0  0
    2.3607   -0.2627    1.6772 C   0  0  1  0  0  0  0  0  0  0  0  0
    1.4622   -1.3515    1.6848 O   0  0  0  0  0  0  0  0  0  0  0  0
    1.7086    0.9815    2.2817 C   0  0  0  0  0  0  0  0  0  0  0  0
    1.4821    0.9246    3.8098 C   0  0  2  0  0  0  0  0  0  0  0  0
    1.0111    2.3099    4.3970 C   0  0  2  0  0  0  0  0  0  0  0  0
    1.7300    3.5410    3.7729 C   0  0  0  0  0  0  0  0  0  0  0  0
   -0.3677    2.4882    4.0608 O   0  0  0  0  0  0  0  0  0  0  0  0
   -1.2002    2.8772    5.1574 C   0  0  1  0  0  0  0  0  0  0  0  0
   -2.5445    3.3175    4.5669 C   0  0  0  0  0  0  0  0  0  0  0  0
   -0.6403    3.9777    5.8750 O   0  0  0  0  0  0  0  0  0  0  0  0
    0.7360    3.5972    6.4372 O   0  0  0  0  0  0  0  0  0  0  0  0
   -2.0311    2.7112    7.8985 H   0  0  0  0  0  0  0  0  0  0  0  0
   -2.2854    0.9759    7.9208 H   0  0  0  0  0  0  0  0  0  0  0  0
   -3.3056    1.9893    6.9239 H   0  0  0  0  0  0  0  0  0  0  0  0
   -1.6413    0.8260    5.5137 H   0  0  0  0  0  0  0  0  0  0  0  0
    0.1928    1.4385    7.6899 H   0  0  0  0  0  0  0  0  0  0  0  0
    0.3537    0.3060    6.3830 H   0  0  0  0  0  0  0  0  0  0  0  0
    3.1007    3.0826    6.5395 H   0  0  0  0  0  0  0  0  0  0  0  0
    2.6158    1.6481    7.3888 H   0  0  0  0  0  0  0  0  0  0  0  0
    4.0298    1.9065    4.7520 H   0  0  0  0  0  0  0  0  0  0  0  0
    4.2341    0.7325    6.0206 H   0  0  0  0  0  0  0  0  0  0  0  0
    2.1631   -0.3339    5.3998 H   0  0  0  0  0  0  0  0  0  0  0  0
    4.5184   -0.7419    4.3131 H   0  0  0  0  0  0  0  0  0  0  0  0
    3.3586   -2.5099    5.1765 H   0  0  0  0  0  0  0  0  0  0  0  0
    1.9802   -2.3458    4.0982 H   0  0  0  0  0  0  0  0  0  0  0  0
    3.5322   -4.3212    3.5509 H   0  0  0  0  0  0  0  0  0  0  0  0
    6.1385   -4.2436    1.7195 H   0  0  0  0  0  0  0  0  0  0  0  0
    4.6193   -5.1112    1.6276 H   0  0  0  0  0  0  0  0  0  0  0  0
    6.5066   -2.4032   -0.4799 H   0  0  0  0  0  0  0  0  0  0  0  0
    5.2621   -2.5273   -1.6989 H   0  0  0  0  0  0  0  0  0  0  0  0
    4.8664   -0.5195   -0.2455 H   0  0  0  0  0  0  0  0  0  0  0  0
    3.5646   -1.6885   -0.2283 H   0  0  0  0  0  0  0  0  0  0  0  0
    6.3891   -0.2575    1.7412 H   0  0  0  0  0  0  0  0  0  0  0  0
    6.8470   -1.9433    1.6474 H   0  0  0  0  0  0  0  0  0  0  0  0
    6.2085   -1.3060    3.1419 H   0  0  0  0  0  0  0  0  0  0  0  0
    4.2426    0.4104    2.2756 H   0  0  0  0  0  0  0  0  0  0  0  0
    2.5205   -0.0220    0.6270 H   0  0  0  0  0  0  0  0  0  0  0  0
    1.0914   -1.3371    0.7826 H   0  0  0  0  0  0  0  0  0  0  0  0
    2.3634    1.8115    2.0184 H   0  0  0  0  0  0  0  0  0  0  0  0
    0.7589    1.1779    1.7775 H   0  0  0  0  0  0  0  0  0  0  0  0
    0.6371    0.2474    3.9317 H   0  0  0  0  0  0  0  0  0  0  0  0
    2.8133    3.4599    3.8047 H   0  0  0  0  0  0  0  0  0  0  0  0
    1.4667    4.4725    4.2729 H   0  0  0  0  0  0  0  0  0  0  0  0
    1.4418    3.6797    2.7302 H   0  0  0  0  0  0  0  0  0  0  0  0
   -2.4013    4.1322    3.8558 H   0  0  0  0  0  0  0  0  0  0  0  0
   -3.2180    3.6665    5.3506 H   0  0  0  0  0  0  0  0  0  0  0  0
   -3.0319    2.4953    4.0365 H   0  0  0  0  0  0  0  0  0  0  0  0
  1  2  1  0
  1 31  1  0
  1 32  1  0
  1 33  1  0
  2 27  1  0
  2  3  1  0
  2 34  1  6
  3  4  1  0
  3 35  1  0
  3 36  1  0
  4 24  1  0
  4 30  1  0
  4  5  1  6
  5  6  1  0
  5 37  1  0
  5 38  1  0
  6  7  1  0
  6 39  1  0
  6 40  1  0
  7 23  1  0
  7  8  1  0
  7 41  1  1
  8 19  1  0
  8  9  1  0
  8 42  1  1
  9 10  1  0
  9 43  1  0
  9 44  1  0
 10 11  2  0
 10 45  1  0
 11 17  1  0
 11 12  1  0
 12 13  1  0
 12 46  1  0
 12 47  1  0
 13 14  2  0
 13 15  1  0
 15 16  1  0
 15 48  1  0
 15 49  1  0
 16 17  1  0
 16 50  1  0
 16 51  1  0
 17 18  1  6
 17 19  1  0
 18 52  1  0
 18 53  1  0
 18 54  1  0
 19 20  1  0
 19 55  1  1
 20 21  1  0
 20 22  1  0
 20 56  1  6
 21 57  1  0
 22 23  1  0
 22 58  1  0
 22 59  1  0
 23 24  1  0
 23 60  1  6
 24 25  1  6
 24 26  1  0
 25 61  1  0
 25 62  1  0
 25 63  1  0
 26 27  1  0
 27 28  1  6
 27 29  1  0
 28 64  1  0
 28 65  1  0
 28 66  1  0
 29 30  1  0
M  END
>  <i_m_ct_stereo_status>  (227) 
1

>  <s_m_source_file>  (227) 
/var/tmp/pbs.5076255.sched01/tmpnszqc94g/84e4epk0lh.sdf

>  <i_m_source_file_index>  (227) 
23

>  <i_lp_mmshare_version>  (227) 
48012

>  <i_f3d_flags>  (227) 
0

>  <s_epik_input>  (227) 
W0NIM11bQ0BIXShbQ0gyXTEpW0NAQF0oW0NIM10pKE9PMilPW0NAXShbQ0BdMTIzKShbQ0gzXSlbQ0BASF00W0NASF0oW0NIMl1bQ0gyXTMpW0NAQEhdNVtDQEhdKFtDQEBIXShbT0hdKVtDSDJdNClbQ0BAXTYoW0NIM10pQyg9W0NIXVtDSDJdNSlbQ0gyXUMoPU8pW0NIMl1bQ0gyXTY=

>  <s_epik_cmdline>  (227) 
J2VwaWtfcHl0aG9uJywgJy1waHQnLCAnMi4wJywgJy1waCcsICc3LjAnLCAnLXRuJywgJzgnLCAnLW1hJywgJzIwMCcsICctaW1hZScsICc8aW5maWxlLm1hZT4nLCAnLW9tYWUnLCAnPG91dGZpbGUubWFlPic=

>  <r_lp_tautomer_probability>  (227) 
1

>  <r_epik_Ionization_Penalty>  (227) 
6.66346e-07

>  <r_epik_Ionization_Penalty_Charging>  (227) 
0

>  <r_epik_Ionization_Penalty_Neutral>  (227) 
6.66346e-07

>  <r_epik_State_Penalty>  (227) 
-0

>  <r_epik_Charging_Adjusted_Penalty>  (227) 
0

>  <i_epik_Tot_Q>  (227) 
0

>  <i_epik_Tot_abs_Q>  (227) 
0

>  <s_lp_Force_Field>  (227) 
OPLS3e

>  <r_lp_Energy>  (227) 
60.5738

>  <b_lp_Chiralities_Consistent>  (227) 
1

>  <s_lp_Variant>  (227) 
76:0-1

>  <s_i_glide_gridfile>  (227) 
pfpi4k_grid

>  <i_i_glide_lignum>  (227) 
23

>  <i_i_glide_rotatable_bonds>  (227) 
1

>  <r_i_docking_score>  (227) 
-2.49444

>  <r_i_glide_ligand_efficiency>  (227) 
-0.083148

>  <r_i_glide_ligand_efficiency_sa>  (227) 
-0.25836

>  <r_i_glide_ligand_efficiency_ln>  (227) 
-0.566764

>  <r_i_glide_gscore>  (227) 
-2.49444

>  <r_i_glide_lipo>  (227) 
-0.269018

>  <r_i_glide_hbond>  (227) 
-0.16

>  <r_i_glide_metal>  (227) 
-0

>  <r_i_glide_rewards>  (227) 
-0.643663

>  <r_i_glide_evdw>  (227) 
-24.9068

>  <r_i_glide_ecoul>  (227) 
-1.12738

>  <r_i_glide_erotb>  (227) 
0

>  <r_i_glide_esite>  (227) 
-0.00731506

>  <r_i_glide_emodel>  (227) 
-29.398

>  <r_i_glide_energy>  (227) 
-26.0342

>  <r_i_glide_einternal>  (227) 
1.14943

>  <r_i_glide_intrahb_reward>  (227) 
-0

>  <i_i_glide_confnum>  (227) 
1

>  <i_i_glide_posenum>  (227) 
4

>  <r_i_glide_eff_state_penalty>  (227) 
0

>  <ligand_id>  (227) 
76

>  <original_smiles>  (227) 
CC1CC23CCC4C5CC=C6CC(=O)CCC6(C)C5C(O)CC4C2(C)OC1(C)OO3

>  <smiles>  (227) 
[H]OC1([H])C([H])([H])C2([H])C([H])(C([H])([H])C([H])([H])C34OOC(C([H])([H])[H])(OC23C([H])([H])[H])C([H])(C([H])([H])[H])C4([H])[H])C2([H])C([H])([H])C([H])=C3C([H])([H])C(=O)C([H])([H])C([H])([H])C3(C([H])([H])[H])C12[H]

$$$$
76:0:2
     RDKit          3D

 66 71  0  0  1  0  0  0  0  0999 V2000
    3.8453   -3.1023   -1.4248 C   0  0  0  0  0  0  0  0  0  0  0  0
    3.3400   -2.8096    0.0005 C   0  0  2  0  0  0  0  0  0  0  0  0
    3.9561   -1.5241    0.5786 C   0  0  0  0  0  0  0  0  0  0  0  0
    4.5578   -1.8185    1.9790 C   0  0  1  0  0  0  0  0  0  0  0  0
    5.2427   -0.6027    2.6468 C   0  0  0  0  0  0  0  0  0  0  0  0
    4.3581    0.1453    3.6781 C   0  0  0  0  0  0  0  0  0  0  0  0
    2.8521    0.0402    3.3686 C   0  0  2  0  0  0  0  0  0  0  0  0
    1.9779    1.0326    4.2068 C   0  0  1  0  0  0  0  0  0  0  0  0
    1.0252    1.8605    3.3090 C   0  0  0  0  0  0  0  0  0  0  0  0
   -0.0430    2.6176    4.0752 C   0  0  0  0  0  0  0  0  0  0  0  0
   -0.2948    2.4884    5.3920 C   0  0  0  0  0  0  0  0  0  0  0  0
   -1.3033    3.4156    6.0749 C   0  0  0  0  0  0  0  0  0  0  0  0
   -2.1446    2.7084    7.1354 C   0  0  0  0  0  0  0  0  0  0  0  0
   -3.3502    2.9021    7.2462 O   0  0  0  0  0  0  0  0  0  0  0  0
   -1.3988    1.7800    8.0805 C   0  0  0  0  0  0  0  0  0  0  0  0
   -0.5305    0.8004    7.2747 C   0  0  0  0  0  0  0  0  0  0  0  0
    0.4576    1.4832    6.2812 C   0  0  2  0  0  0  0  0  0  0  0  0
    1.4839    2.2960    7.1117 C   0  0  0  0  0  0  0  0  0  0  0  0
    1.2503    0.4133    5.4280 C   0  0  1  0  0  0  0  0  0  0  0  0
    0.4975   -0.8795    5.0120 C   0  0  1  0  0  0  0  0  0  0  0  0
   -0.5526   -0.6580    4.0923 O   0  0  0  0  0  0  0  0  0  0  0  0
    1.4897   -1.9142    4.4689 C   0  0  0  0  0  0  0  0  0  0  0  0
    2.3559   -1.4480    3.2741 C   0  0  2  0  0  0  0  0  0  0  0  0
    3.4984   -2.4774    2.9156 C   0  0  2  0  0  0  0  0  0  0  0  0
    4.1876   -3.1194    4.1555 C   0  0  0  0  0  0  0  0  0  0  0  0
    2.9008   -3.5836    2.2252 O   0  0  0  0  0  0  0  0  0  0  0  0
    3.5698   -3.9587    1.0142 C   0  0  1  0  0  0  0  0  0  0  0  0
    2.9956   -5.3176    0.5869 C   0  0  0  0  0  0  0  0  0  0  0  0
    4.9766   -4.0982    1.2191 O   0  0  0  0  0  0  0  0  0  0  0  0
    5.5794   -2.7787    1.6996 O   0  0  0  0  0  0  0  0  0  0  0  0
    4.9129   -3.3234   -1.4462 H   0  0  0  0  0  0  0  0  0  0  0  0
    3.6615   -2.2546   -2.0845 H   0  0  0  0  0  0  0  0  0  0  0  0
    3.3210   -3.9479   -1.8618 H   0  0  0  0  0  0  0  0  0  0  0  0
    2.2615   -2.6625   -0.0682 H   0  0  0  0  0  0  0  0  0  0  0  0
    4.7372   -1.1443   -0.0806 H   0  0  0  0  0  0  0  0  0  0  0  0
    3.1889   -0.7538    0.6040 H   0  0  0  0  0  0  0  0  0  0  0  0
    6.1614   -0.9239    3.1459 H   0  0  0  0  0  0  0  0  0  0  0  0
    5.5645    0.0848    1.8643 H   0  0  0  0  0  0  0  0  0  0  0  0
    4.5563   -0.2136    4.6863 H   0  0  0  0  0  0  0  0  0  0  0  0
    4.6502    1.1947    3.6870 H   0  0  0  0  0  0  0  0  0  0  0  0
    2.7919    0.4370    2.3557 H   0  0  0  0  0  0  0  0  0  0  0  0
    2.6672    1.7689    4.6191 H   0  0  0  0  0  0  0  0  0  0  0  0
    1.6173    2.6033    2.7705 H   0  0  0  0  0  0  0  0  0  0  0  0
    0.5379    1.2451    2.5525 H   0  0  0  0  0  0  0  0  0  0  0  0
   -0.5850    3.3465    3.4891 H   0  0  0  0  0  0  0  0  0  0  0  0
   -0.7690    4.2282    6.5621 H   0  0  0  0  0  0  0  0  0  0  0  0
   -1.9629    3.8613    5.3324 H   0  0  0  0  0  0  0  0  0  0  0  0
   -0.8016    2.3792    8.7641 H   0  0  0  0  0  0  0  0  0  0  0  0
   -2.1250    1.2520    8.6939 H   0  0  0  0  0  0  0  0  0  0  0  0
    0.0133    0.1496    7.9617 H   0  0  0  0  0  0  0  0  0  0  0  0
   -1.2227    0.1651    6.7270 H   0  0  0  0  0  0  0  0  0  0  0  0
    2.0672    1.6549    7.7759 H   0  0  0  0  0  0  0  0  0  0  0  0
    1.0062    3.0549    7.7344 H   0  0  0  0  0  0  0  0  0  0  0  0
    2.1842    2.8346    6.4711 H   0  0  0  0  0  0  0  0  0  0  0  0
    2.0363    0.0505    6.0933 H   0  0  0  0  0  0  0  0  0  0  0  0
    0.0455   -1.3500    5.8827 H   0  0  0  0  0  0  0  0  0  0  0  0
   -0.1952   -0.2090    3.3407 H   0  0  0  0  0  0  0  0  0  0  0  0
    2.1235   -2.1800    5.3126 H   0  0  0  0  0  0  0  0  0  0  0  0
    0.9585   -2.8263    4.1907 H   0  0  0  0  0  0  0  0  0  0  0  0
    1.6768   -1.4524    2.4178 H   0  0  0  0  0  0  0  0  0  0  0  0
    4.5540   -2.3827    4.8644 H   0  0  0  0  0  0  0  0  0  0  0  0
    5.0389   -3.7408    3.8802 H   0  0  0  0  0  0  0  0  0  0  0  0
    3.5050   -3.7792    4.6898 H   0  0  0  0  0  0  0  0  0  0  0  0
    3.1369   -6.0560    1.3786 H   0  0  0  0  0  0  0  0  0  0  0  0
    3.4884   -5.6974   -0.3101 H   0  0  0  0  0  0  0  0  0  0  0  0
    1.9262   -5.2464    0.3817 H   0  0  0  0  0  0  0  0  0  0  0  0
  1  2  1  0
  1 31  1  0
  1 32  1  0
  1 33  1  0
  2 27  1  0
  2  3  1  0
  2 34  1  6
  3  4  1  0
  3 35  1  0
  3 36  1  0
  4 24  1  0
  4 30  1  0
  4  5  1  1
  5  6  1  0
  5 37  1  0
  5 38  1  0
  6  7  1  0
  6 39  1  0
  6 40  1  0
  7 23  1  0
  7  8  1  0
  7 41  1  6
  8 19  1  0
  8  9  1  0
  8 42  1  1
  9 10  1  0
  9 43  1  0
  9 44  1  0
 10 11  2  0
 10 45  1  0
 11 17  1  0
 11 12  1  0
 12 13  1  0
 12 46  1  0
 12 47  1  0
 13 14  2  0
 13 15  1  0
 15 16  1  0
 15 48  1  0
 15 49  1  0
 16 17  1  0
 16 50  1  0
 16 51  1  0
 17 18  1  1
 17 19  1  0
 18 52  1  0
 18 53  1  0
 18 54  1  0
 19 20  1  0
 19 55  1  1
 20 21  1  0
 20 22  1  0
 20 56  1  1
 21 57  1  0
 22 23  1  0
 22 58  1  0
 22 59  1  0
 23 24  1  0
 23 60  1  6
 24 25  1  1
 24 26  1  0
 25 61  1  0
 25 62  1  0
 25 63  1  0
 26 27  1  0
 27 28  1  6
 27 29  1  0
 28 64  1  0
 28 65  1  0
 28 66  1  0
 29 30  1  0
M  END
>  <i_m_ct_stereo_status>  (228) 
1

>  <s_m_source_file>  (228) 
/var/tmp/pbs.5076255.sched01/tmpnszqc94g/84e4epk0lh.sdf

>  <i_m_source_file_index>  (228) 
23

>  <i_lp_mmshare_version>  (228) 
48012

>  <i_f3d_flags>  (228) 
0

>  <s_epik_input>  (228) 
W0NIM11bQ0BIXShbQ0gyXTEpW0NAQF0oW0NIM10pKE9PMilPW0NAXShbQ0BdMTIzKShbQ0gzXSlbQ0BASF00W0NASF0oW0NIMl1bQ0gyXTMpW0NAQEhdNVtDQEhdKFtDQEBIXShbT0hdKVtDSDJdNClbQ0BAXTYoW0NIM10pQyg9W0NIXVtDSDJdNSlbQ0gyXUMoPU8pW0NIMl1bQ0gyXTY=

>  <s_epik_cmdline>  (228) 
J2VwaWtfcHl0aG9uJywgJy1waHQnLCAnMi4wJywgJy1waCcsICc3LjAnLCAnLXRuJywgJzgnLCAnLW1hJywgJzIwMCcsICctaW1hZScsICc8aW5maWxlLm1hZT4nLCAnLW9tYWUnLCAnPG91dGZpbGUubWFlPic=

>  <r_lp_tautomer_probability>  (228) 
1

>  <r_epik_Ionization_Penalty>  (228) 
6.66346e-07

>  <r_epik_Ionization_Penalty_Charging>  (228) 
0

>  <r_epik_Ionization_Penalty_Neutral>  (228) 
6.66346e-07

>  <r_epik_State_Penalty>  (228) 
-0

>  <r_epik_Charging_Adjusted_Penalty>  (228) 
0

>  <i_epik_Tot_Q>  (228) 
0

>  <i_epik_Tot_abs_Q>  (228) 
0

>  <s_lp_Force_Field>  (228) 
OPLS3e

>  <r_lp_Energy>  (228) 
60.5738

>  <b_lp_Chiralities_Consistent>  (228) 
1

>  <s_lp_Variant>  (228) 
76:0-1

>  <s_i_glide_gridfile>  (228) 
pfpi4k_grid

>  <i_i_glide_lignum>  (228) 
23

>  <i_i_glide_rotatable_bonds>  (228) 
1

>  <r_i_docking_score>  (228) 
-2.3225

>  <r_i_glide_ligand_efficiency>  (228) 
-0.0774166

>  <r_i_glide_ligand_efficiency_sa>  (228) 
-0.240552

>  <r_i_glide_ligand_efficiency_ln>  (228) 
-0.527697

>  <r_i_glide_gscore>  (228) 
-2.3225

>  <r_i_glide_lipo>  (228) 
-0.185026

>  <r_i_glide_hbond>  (228) 
0

>  <r_i_glide_metal>  (228) 
-0

>  <r_i_glide_rewards>  (228) 
-0.686691

>  <r_i_glide_evdw>  (228) 
-27.3375

>  <r_i_glide_ecoul>  (228) 
-0.559387

>  <r_i_glide_erotb>  (228) 
0

>  <r_i_glide_esite>  (228) 
0

>  <r_i_glide_emodel>  (228) 
-31.8543

>  <r_i_glide_energy>  (228) 
-27.8969

>  <r_i_glide_einternal>  (228) 
0.0133294

>  <r_i_glide_intrahb_reward>  (228) 
-0

>  <i_i_glide_confnum>  (228) 
2

>  <i_i_glide_posenum>  (228) 
36

>  <r_i_glide_eff_state_penalty>  (228) 
0

>  <ligand_id>  (228) 
76

>  <original_smiles>  (228) 
CC1CC23CCC4C5CC=C6CC(=O)CCC6(C)C5C(O)CC4C2(C)OC1(C)OO3

>  <smiles>  (228) 
[H]OC1([H])C([H])([H])C2([H])C([H])(C([H])([H])C([H])([H])C34OOC(C([H])([H])[H])(OC23C([H])([H])[H])C([H])(C([H])([H])[H])C4([H])[H])C2([H])C([H])([H])C([H])=C3C([H])([H])C(=O)C([H])([H])C([H])([H])C3(C([H])([H])[H])C12[H]

$$$$
77:0:0
     RDKit          3D

 47 51  0  0  1  0  0  0  0  0999 V2000
    4.6860   -1.6297    3.9061 C   0  0  0  0  0  0  0  0  0  0  0  0
    4.0189   -2.9325    3.3890 C   0  0  2  0  0  0  0  0  0  0  0  0
    2.5895   -3.0047    4.0125 C   0  0  0  0  0  0  0  0  0  0  0  0
    2.5749   -3.2557    5.5300 C   0  0  0  0  0  0  0  0  0  0  0  0
    3.4128   -4.4778    5.8622 C   0  0  0  0  0  0  0  0  0  0  0  0
    2.9724   -5.3835    6.5732 O   0  0  0  0  0  0  0  0  0  0  0  0
    4.8369   -4.5022    5.3213 C   0  0  0  0  0  0  0  0  0  0  0  0
    4.9028   -4.1034    3.8452 C   0  0  0  0  0  0  0  0  0  0  0  0
    5.7776   -4.7197    3.0284 C   0  0  0  0  0  0  0  0  0  0  0  0
    6.0008   -4.2835    1.6352 C   0  0  0  0  0  0  0  0  0  0  0  0
    6.6924   -4.9599    0.8839 O   0  0  0  0  0  0  0  0  0  0  0  0
    5.3521   -2.9511    1.1548 C   0  0  2  0  0  0  0  0  0  0  0  0
    3.9472   -2.8661    1.8210 C   0  0  1  0  0  0  0  0  0  0  0  0
    3.0429   -3.8901    1.1425 C   0  0  1  0  0  0  0  0  0  0  0  0
    2.2529   -3.3430    0.0706 O   0  0  0  0  0  0  0  0  0  0  0  0
    3.2579   -4.2839   -0.3149 C   0  0  1  0  0  0  0  0  0  0  0  0
    4.4571   -3.8029   -1.1233 C   0  0  1  0  0  0  0  0  0  0  0  0
    4.0947   -3.4536   -2.5004 N   0  0  0  0  0  0  0  0  0  0  0  0
    4.0388   -2.2366   -3.0581 C   0  0  0  0  0  0  0  0  0  0  0  0
    3.6773   -2.0738   -4.2240 O   0  0  0  0  0  0  0  0  0  0  0  0
    4.5085   -1.0370   -2.2421 C   0  0  0  0  0  0  0  0  0  0  0  0
    4.6405   -1.3253   -0.7348 C   0  0  0  0  0  0  0  0  0  0  0  0
    5.3001   -2.7021   -0.4090 C   0  0  1  0  0  0  0  0  0  0  0  0
    6.7470   -2.6482   -0.9970 C   0  0  0  0  0  0  0  0  0  0  0  0
    4.1478   -0.7394    3.5729 H   0  0  0  0  0  0  0  0  0  0  0  0
    5.7158   -1.5376    3.5611 H   0  0  0  0  0  0  0  0  0  0  0  0
    4.7324   -1.5966    4.9955 H   0  0  0  0  0  0  0  0  0  0  0  0
    2.0354   -2.0897    3.7948 H   0  0  0  0  0  0  0  0  0  0  0  0
    2.0000   -3.8079    3.5783 H   0  0  0  0  0  0  0  0  0  0  0  0
    2.9812   -2.4057    6.0753 H   0  0  0  0  0  0  0  0  0  0  0  0
    1.5550   -3.3964    5.8877 H   0  0  0  0  0  0  0  0  0  0  0  0
    5.4303   -3.8034    5.9092 H   0  0  0  0  0  0  0  0  0  0  0  0
    5.2582   -5.4963    5.4551 H   0  0  0  0  0  0  0  0  0  0  0  0
    6.4093   -5.5133    3.4003 H   0  0  0  0  0  0  0  0  0  0  0  0
    5.9750   -2.1575    1.5608 H   0  0  0  0  0  0  0  0  0  0  0  0
    3.5007   -1.8951    1.6201 H   0  0  0  0  0  0  0  0  0  0  0  0
    2.5539   -4.6446    1.7481 H   0  0  0  0  0  0  0  0  0  0  0  0
    2.8512   -5.2418   -0.6182 H   0  0  0  0  0  0  0  0  0  0  0  0
    5.0985   -4.6826   -1.2295 H   0  0  0  0  0  0  0  0  0  0  0  0
    3.7431   -4.2244   -3.0521 H   0  0  0  0  0  0  0  0  0  0  0  0
    5.4616   -0.7263   -2.6451 H   0  0  0  0  0  0  0  0  0  0  0  0
    3.8331   -0.2039   -2.4112 H   0  0  0  0  0  0  0  0  0  0  0  0
    5.1812   -0.5151   -0.2433 H   0  0  0  0  0  0  0  0  0  0  0  0
    3.6183   -1.2794   -0.3646 H   0  0  0  0  0  0  0  0  0  0  0  0
    6.7632   -2.4395   -2.0654 H   0  0  0  0  0  0  0  0  0  0  0  0
    7.2963   -3.5832   -0.9147 H   0  0  0  0  0  0  0  0  0  0  0  0
    7.3389   -1.8834   -0.4945 H   0  0  0  0  0  0  0  0  0  0  0  0
  2  1  1  1
  1 25  1  0
  1 26  1  0
  1 27  1  0
  2  8  1  0
  2 13  1  0
  2  3  1  0
  3  4  1  0
  3 28  1  0
  3 29  1  0
  4  5  1  0
  4 30  1  0
  4 31  1  0
  5  6  2  0
  5  7  1  0
  7  8  1  0
  7 32  1  0
  7 33  1  0
  8  9  2  0
  9 10  1  0
  9 34  1  0
 10 11  2  0
 10 12  1  0
 12 23  1  0
 12 13  1  0
 12 35  1  1
 13 14  1  0
 13 36  1  1
 14 16  1  0
 14 15  1  0
 14 37  1  1
 15 16  1  0
 16 17  1  0
 16 38  1  1
 17 23  1  0
 17 18  1  0
 17 39  1  6
 18 19  1  0
 18 40  1  0
 19 20  2  0
 19 21  1  0
 21 22  1  0
 21 41  1  0
 21 42  1  0
 22 23  1  0
 22 43  1  0
 22 44  1  0
 23 24  1  6
 24 45  1  0
 24 46  1  0
 24 47  1  0
M  END
>  <i_m_ct_stereo_status>  (229) 
1

>  <s_m_source_file>  (229) 
/var/tmp/pbs.5076255.sched01/tmpnszqc94g/84e4epk0lh.sdf

>  <i_m_source_file_index>  (229) 
24

>  <i_lp_mmshare_version>  (229) 
48012

>  <i_f3d_flags>  (229) 
0

>  <s_epik_input>  (229) 
W0NIMl0xW0NIMl1DKD1PKVtDSDJdQyhbQ0BdMTJbQ0gzXSk9W0NIXUMoPU8pW0NAQEhdM1tDQEhdMltDQEBIXTRbQ0BASF0oTzQpW0NAQEhdNVtDQEBdMyhbQ0gzXSlbQ0gyXVtDSDJdQyg9TylbTkhdNQ==

>  <s_epik_cmdline>  (229) 
J2VwaWtfcHl0aG9uJywgJy1waHQnLCAnMi4wJywgJy1waCcsICc3LjAnLCAnLXRuJywgJzgnLCAnLW1hJywgJzIwMCcsICctaW1hZScsICc8aW5maWxlLm1hZT4nLCAnLW9tYWUnLCAnPG91dGZpbGUubWFlPic=

>  <r_lp_tautomer_probability>  (229) 
1

>  <r_epik_Ionization_Penalty>  (229) 
1.54001e-08

>  <r_epik_Ionization_Penalty_Charging>  (229) 
0

>  <r_epik_Ionization_Penalty_Neutral>  (229) 
1.54001e-08

>  <r_epik_State_Penalty>  (229) 
-0

>  <r_epik_Charging_Adjusted_Penalty>  (229) 
0

>  <i_epik_Tot_Q>  (229) 
0

>  <i_epik_Tot_abs_Q>  (229) 
0

>  <s_lp_Force_Field>  (229) 
OPLS3e

>  <r_lp_Energy>  (229) 
47.047

>  <b_lp_Chiralities_Consistent>  (229) 
1

>  <s_lp_Variant>  (229) 
77:0-1

>  <s_i_glide_gridfile>  (229) 
pfpi4k_grid

>  <i_i_glide_lignum>  (229) 
24

>  <i_i_glide_rotatable_bonds>  (229) 
0

>  <r_i_docking_score>  (229) 
-3.91442

>  <r_i_glide_ligand_efficiency>  (229) 
-0.163101

>  <r_i_glide_ligand_efficiency_sa>  (229) 
-0.470464

>  <r_i_glide_ligand_efficiency_ln>  (229) 
-0.936899

>  <r_i_glide_gscore>  (229) 
-3.91442

>  <r_i_glide_lipo>  (229) 
-0.11395

>  <r_i_glide_hbond>  (229) 
-0.519769

>  <r_i_glide_metal>  (229) 
-0

>  <r_i_glide_rewards>  (229) 
-1.42988

>  <r_i_glide_evdw>  (229) 
-24.0486

>  <r_i_glide_ecoul>  (229) 
-4.05244

>  <r_i_glide_erotb>  (229) 
0

>  <r_i_glide_esite>  (229) 
-0.0405207

>  <r_i_glide_emodel>  (229) 
-35.2899

>  <r_i_glide_energy>  (229) 
-28.101

>  <r_i_glide_einternal>  (229) 
0

>  <r_i_glide_intrahb_reward>  (229) 
-0

>  <i_i_glide_confnum>  (229) 
2

>  <i_i_glide_posenum>  (229) 
40

>  <r_i_glide_eff_state_penalty>  (229) 
0

>  <ligand_id>  (229) 
77

>  <original_smiles>  (229) 
CC12CCC(=O)CC1=CC(=O)C1C2C2OC2C2NC(=O)CCC21C

>  <smiles>  (229) 
[H]C1=C2C([H])([H])C(=O)C([H])([H])C([H])([H])C2(C([H])([H])[H])C2([H])C3([H])OC3([H])C3([H])N([H])C(=O)C([H])([H])C([H])([H])C3(C([H])([H])[H])C2([H])C1=O

$$$$
77:0:1
     RDKit          3D

 47 51  0  0  1  0  0  0  0  0999 V2000
    3.3933   -1.2657    3.8591 C   0  0  0  0  0  0  0  0  0  0  0  0
    3.1245   -2.7012    3.3369 C   0  0  2  0  0  0  0  0  0  0  0  0
    1.6406   -3.0551    3.6692 C   0  0  0  0  0  0  0  0  0  0  0  0
    1.3518   -3.2328    5.1682 C   0  0  0  0  0  0  0  0  0  0  0  0
    2.3260   -4.2325    5.7745 C   0  0  0  0  0  0  0  0  0  0  0  0
    1.9353   -5.1753    6.4589 O   0  0  0  0  0  0  0  0  0  0  0  0
    3.8077   -3.9711    5.5239 C   0  0  0  0  0  0  0  0  0  0  0  0
    4.1047   -3.6343    4.0633 C   0  0  0  0  0  0  0  0  0  0  0  0
    5.2434   -4.0777    3.4920 C   0  0  0  0  0  0  0  0  0  0  0  0
    5.6584   -3.6789    2.1339 C   0  0  0  0  0  0  0  0  0  0  0  0
    6.6028   -4.2457    1.5934 O   0  0  0  0  0  0  0  0  0  0  0  0
    4.8791   -2.5370    1.4232 C   0  0  2  0  0  0  0  0  0  0  0  0
    3.3788   -2.7237    1.7851 C   0  0  1  0  0  0  0  0  0  0  0  0
    2.8688   -3.9538    1.0334 C   0  0  1  0  0  0  0  0  0  0  0  0
    2.2485   -3.6406   -0.2229 O   0  0  0  0  0  0  0  0  0  0  0  0
    3.4726   -4.3637   -0.3019 C   0  0  1  0  0  0  0  0  0  0  0  0
    4.6934   -3.6716   -0.8984 C   0  0  1  0  0  0  0  0  0  0  0  0
    4.5770   -3.4815   -2.3531 N   0  0  0  0  0  0  0  0  0  0  0  0
    4.3802   -2.3256   -3.0080 C   0  0  0  0  0  0  0  0  0  0  0  0
    4.2031   -2.2938   -4.2237 O   0  0  0  0  0  0  0  0  0  0  0  0
    4.4400   -1.0082   -2.2278 C   0  0  0  0  0  0  0  0  0  0  0  0
    4.2838   -1.1934   -0.7085 C   0  0  0  0  0  0  0  0  0  0  0  0
    5.1181   -2.3784   -0.1351 C   0  0  1  0  0  0  0  0  0  0  0  0
    6.6134   -2.0422   -0.4161 C   0  0  0  0  0  0  0  0  0  0  0  0
    2.7728   -0.5280    3.3471 H   0  0  0  0  0  0  0  0  0  0  0  0
    4.4339   -0.9705    3.7221 H   0  0  0  0  0  0  0  0  0  0  0  0
    3.1963   -1.1738    4.9276 H   0  0  0  0  0  0  0  0  0  0  0  0
    0.9736   -2.2929    3.2616 H   0  0  0  0  0  0  0  0  0  0  0  0
    1.3334   -3.9850    3.1979 H   0  0  0  0  0  0  0  0  0  0  0  0
    1.4552   -2.2916    5.7042 H   0  0  0  0  0  0  0  0  0  0  0  0
    0.3289   -3.5752    5.3250 H   0  0  0  0  0  0  0  0  0  0  0  0
    4.1112   -3.1374    6.1553 H   0  0  0  0  0  0  0  0  0  0  0  0
    4.3854   -4.8420    5.8313 H   0  0  0  0  0  0  0  0  0  0  0  0
    5.9238   -4.7006    4.0534 H   0  0  0  0  0  0  0  0  0  0  0  0
    5.2310   -1.6114    1.8745 H   0  0  0  0  0  0  0  0  0  0  0  0
    2.7981   -1.8831    1.4111 H   0  0  0  0  0  0  0  0  0  0  0  0
    2.4235   -4.7677    1.5963 H   0  0  0  0  0  0  0  0  0  0  0  0
    3.3589   -5.4049   -0.5845 H   0  0  0  0  0  0  0  0  0  0  0  0
    5.5068   -4.3922   -0.7913 H   0  0  0  0  0  0  0  0  0  0  0  0
    4.4946   -4.3323   -2.8943 H   0  0  0  0  0  0  0  0  0  0  0  0
    5.3851   -0.5197   -2.4474 H   0  0  0  0  0  0  0  0  0  0  0  0
    3.6662   -0.3401   -2.5999 H   0  0  0  0  0  0  0  0  0  0  0  0
    4.5326   -0.2632   -0.1919 H   0  0  0  0  0  0  0  0  0  0  0  0
    3.2173   -1.3458   -0.5560 H   0  0  0  0  0  0  0  0  0  0  0  0
    6.8096   -1.8896   -1.4758 H   0  0  0  0  0  0  0  0  0  0  0  0
    7.3096   -2.8307   -0.1422 H   0  0  0  0  0  0  0  0  0  0  0  0
    6.9175   -1.1392    0.1158 H   0  0  0  0  0  0  0  0  0  0  0  0
  2  1  1  1
  1 25  1  0
  1 26  1  0
  1 27  1  0
  2  8  1  0
  2 13  1  0
  2  3  1  0
  3  4  1  0
  3 28  1  0
  3 29  1  0
  4  5  1  0
  4 30  1  0
  4 31  1  0
  5  6  2  0
  5  7  1  0
  7  8  1  0
  7 32  1  0
  7 33  1  0
  8  9  2  0
  9 10  1  0
  9 34  1  0
 10 11  2  0
 10 12  1  0
 12 23  1  0
 12 13  1  0
 12 35  1  1
 13 14  1  0
 13 36  1  6
 14 16  1  0
 14 15  1  0
 14 37  1  1
 15 16  1  0
 16 17  1  0
 16 38  1  1
 17 23  1  0
 17 18  1  0
 17 39  1  6
 18 19  1  0
 18 40  1  0
 19 20  2  0
 19 21  1  0
 21 22  1  0
 21 41  1  0
 21 42  1  0
 22 23  1  0
 22 43  1  0
 22 44  1  0
 23 24  1  1
 24 45  1  0
 24 46  1  0
 24 47  1  0
M  END
>  <i_m_ct_stereo_status>  (230) 
1

>  <s_m_source_file>  (230) 
/var/tmp/pbs.5076255.sched01/tmpnszqc94g/84e4epk0lh.sdf

>  <i_m_source_file_index>  (230) 
24

>  <i_lp_mmshare_version>  (230) 
48012

>  <i_f3d_flags>  (230) 
0

>  <s_epik_input>  (230) 
W0NIMl0xW0NIMl1DKD1PKVtDSDJdQyhbQ0BdMTJbQ0gzXSk9W0NIXUMoPU8pW0NAQEhdM1tDQEhdMltDQEBIXTRbQ0BASF0oTzQpW0NAQEhdNVtDQEBdMyhbQ0gzXSlbQ0gyXVtDSDJdQyg9TylbTkhdNQ==

>  <s_epik_cmdline>  (230) 
J2VwaWtfcHl0aG9uJywgJy1waHQnLCAnMi4wJywgJy1waCcsICc3LjAnLCAnLXRuJywgJzgnLCAnLW1hJywgJzIwMCcsICctaW1hZScsICc8aW5maWxlLm1hZT4nLCAnLW9tYWUnLCAnPG91dGZpbGUubWFlPic=

>  <r_lp_tautomer_probability>  (230) 
1

>  <r_epik_Ionization_Penalty>  (230) 
1.54001e-08

>  <r_epik_Ionization_Penalty_Charging>  (230) 
0

>  <r_epik_Ionization_Penalty_Neutral>  (230) 
1.54001e-08

>  <r_epik_State_Penalty>  (230) 
-0

>  <r_epik_Charging_Adjusted_Penalty>  (230) 
0

>  <i_epik_Tot_Q>  (230) 
0

>  <i_epik_Tot_abs_Q>  (230) 
0

>  <s_lp_Force_Field>  (230) 
OPLS3e

>  <r_lp_Energy>  (230) 
47.047

>  <b_lp_Chiralities_Consistent>  (230) 
1

>  <s_lp_Variant>  (230) 
77:0-1

>  <s_i_glide_gridfile>  (230) 
pfpi4k_grid

>  <i_i_glide_lignum>  (230) 
24

>  <i_i_glide_rotatable_bonds>  (230) 
0

>  <r_i_docking_score>  (230) 
-3.73995

>  <r_i_glide_ligand_efficiency>  (230) 
-0.155831

>  <r_i_glide_ligand_efficiency_sa>  (230) 
-0.449496

>  <r_i_glide_ligand_efficiency_ln>  (230) 
-0.895143

>  <r_i_glide_gscore>  (230) 
-3.73995

>  <r_i_glide_lipo>  (230) 
-0.0931154

>  <r_i_glide_hbond>  (230) 
-0.364459

>  <r_i_glide_metal>  (230) 
-0

>  <r_i_glide_rewards>  (230) 
-1.38254

>  <r_i_glide_evdw>  (230) 
-23.4203

>  <r_i_glide_ecoul>  (230) 
-4.8471

>  <r_i_glide_erotb>  (230) 
0

>  <r_i_glide_esite>  (230) 
-0.00176166

>  <r_i_glide_emodel>  (230) 
-35.1651

>  <r_i_glide_energy>  (230) 
-28.2674

>  <r_i_glide_einternal>  (230) 
0

>  <r_i_glide_intrahb_reward>  (230) 
-0

>  <i_i_glide_confnum>  (230) 
2

>  <i_i_glide_posenum>  (230) 
39

>  <r_i_glide_eff_state_penalty>  (230) 
0

>  <ligand_id>  (230) 
77

>  <original_smiles>  (230) 
CC12CCC(=O)CC1=CC(=O)C1C2C2OC2C2NC(=O)CCC21C

>  <smiles>  (230) 
[H]C1=C2C([H])([H])C(=O)C([H])([H])C([H])([H])C2(C([H])([H])[H])C2([H])C3([H])OC3([H])C3([H])N([H])C(=O)C([H])([H])C([H])([H])C3(C([H])([H])[H])C2([H])C1=O

$$$$
77:0:2
     RDKit          3D

 47 51  0  0  1  0  0  0  0  0999 V2000
    3.2525   -3.0094    2.7081 C   0  0  0  0  0  0  0  0  0  0  0  0
    3.4517   -1.6424    2.0019 C   0  0  2  0  0  0  0  0  0  0  0  0
    3.2990   -1.8805    0.4684 C   0  0  0  0  0  0  0  0  0  0  0  0
    4.4276   -2.7000   -0.1740 C   0  0  0  0  0  0  0  0  0  0  0  0
    5.7716   -2.0769    0.1650 C   0  0  0  0  0  0  0  0  0  0  0  0
    6.6137   -1.8449   -0.7038 O   0  0  0  0  0  0  0  0  0  0  0  0
    6.0387   -1.8189    1.6456 C   0  0  0  0  0  0  0  0  0  0  0  0
    4.8614   -1.1571    2.3574 C   0  0  0  0  0  0  0  0  0  0  0  0
    5.0947   -0.2504    3.3274 C   0  0  0  0  0  0  0  0  0  0  0  0
    4.0143    0.3439    4.1351 C   0  0  0  0  0  0  0  0  0  0  0  0
    4.2578    1.2940    4.8742 O   0  0  0  0  0  0  0  0  0  0  0  0
    2.5818   -0.2565    4.0268 C   0  0  2  0  0  0  0  0  0  0  0  0
    2.3628   -0.6428    2.5355 C   0  0  1  0  0  0  0  0  0  0  0  0
    2.1752    0.6495    1.7428 C   0  0  1  0  0  0  0  0  0  0  0  0
    0.7958    1.0203    1.6010 O   0  0  0  0  0  0  0  0  0  0  0  0
    1.5871    1.8982    2.3891 C   0  0  1  0  0  0  0  0  0  0  0  0
    1.2651    1.9762    3.8760 C   0  0  1  0  0  0  0  0  0  0  0  0
   -0.0038    2.6697    4.1347 N   0  0  0  0  0  0  0  0  0  0  0  0
   -1.1570    2.1291    4.5671 C   0  0  0  0  0  0  0  0  0  0  0  0
   -2.1807    2.8002    4.6752 O   0  0  0  0  0  0  0  0  0  0  0  0
   -1.1795    0.6544    4.9910 C   0  0  0  0  0  0  0  0  0  0  0  0
    0.0294   -0.1443    4.4663 C   0  0  0  0  0  0  0  0  0  0  0  0
    1.3891    0.6054    4.6194 C   0  0  1  0  0  0  0  0  0  0  0  0
    1.5953    0.8260    6.1518 C   0  0  0  0  0  0  0  0  0  0  0  0
    2.2462   -3.4036    2.5527 H   0  0  0  0  0  0  0  0  0  0  0  0
    3.4150   -2.9387    3.7842 H   0  0  0  0  0  0  0  0  0  0  0  0
    3.9568   -3.7610    2.3496 H   0  0  0  0  0  0  0  0  0  0  0  0
    2.3450   -2.3682    0.2621 H   0  0  0  0  0  0  0  0  0  0  0  0
    3.2600   -0.9447   -0.0837 H   0  0  0  0  0  0  0  0  0  0  0  0
    4.4216   -3.7277    0.1850 H   0  0  0  0  0  0  0  0  0  0  0  0
    4.3033   -2.7454   -1.2562 H   0  0  0  0  0  0  0  0  0  0  0  0
    6.2330   -2.7788    2.1216 H   0  0  0  0  0  0  0  0  0  0  0  0
    6.9323   -1.2056    1.7522 H   0  0  0  0  0  0  0  0  0  0  0  0
    6.1056    0.0409    3.5654 H   0  0  0  0  0  0  0  0  0  0  0  0
    2.6086   -1.1698    4.6171 H   0  0  0  0  0  0  0  0  0  0  0  0
    1.4290   -1.1912    2.4304 H   0  0  0  0  0  0  0  0  0  0  0  0
    2.8223    0.8492    0.8934 H   0  0  0  0  0  0  0  0  0  0  0  0
    1.7928    2.8530    1.9067 H   0  0  0  0  0  0  0  0  0  0  0  0
    2.0291    2.6365    4.2885 H   0  0  0  0  0  0  0  0  0  0  0  0
   -0.0413    3.6356    3.8437 H   0  0  0  0  0  0  0  0  0  0  0  0
   -1.2178    0.6124    6.0783 H   0  0  0  0  0  0  0  0  0  0  0  0
   -2.1044    0.1956    4.6439 H   0  0  0  0  0  0  0  0  0  0  0  0
    0.0750   -1.1215    4.9506 H   0  0  0  0  0  0  0  0  0  0  0  0
   -0.1987   -0.3404    3.4212 H   0  0  0  0  0  0  0  0  0  0  0  0
    0.7778    1.3756    6.6154 H   0  0  0  0  0  0  0  0  0  0  0  0
    2.4734    1.4170    6.4000 H   0  0  0  0  0  0  0  0  0  0  0  0
    1.6863   -0.1251    6.6776 H   0  0  0  0  0  0  0  0  0  0  0  0
  2  1  1  1
  1 25  1  0
  1 26  1  0
  1 27  1  0
  2  8  1  0
  2 13  1  0
  2  3  1  0
  3  4  1  0
  3 28  1  0
  3 29  1  0
  4  5  1  0
  4 30  1  0
  4 31  1  0
  5  6  2  0
  5  7  1  0
  7  8  1  0
  7 32  1  0
  7 33  1  0
  8  9  2  0
  9 10  1  0
  9 34  1  0
 10 11  2  0
 10 12  1  0
 12 23  1  0
 12 13  1  0
 12 35  1  1
 13 14  1  0
 13 36  1  1
 14 16  1  0
 14 15  1  0
 14 37  1  6
 15 16  1  0
 16 17  1  0
 16 38  1  6
 17 23  1  0
 17 18  1  0
 17 39  1  1
 18 19  1  0
 18 40  1  0
 19 20  2  0
 19 21  1  0
 21 22  1  0
 21 41  1  0
 21 42  1  0
 22 23  1  0
 22 43  1  0
 22 44  1  0
 23 24  1  1
 24 45  1  0
 24 46  1  0
 24 47  1  0
M  END
>  <i_m_ct_stereo_status>  (231) 
1

>  <s_m_source_file>  (231) 
/var/tmp/pbs.5076255.sched01/tmpnszqc94g/84e4epk0lh.sdf

>  <i_m_source_file_index>  (231) 
24

>  <i_lp_mmshare_version>  (231) 
48012

>  <i_f3d_flags>  (231) 
0

>  <s_epik_input>  (231) 
W0NIMl0xW0NIMl1DKD1PKVtDSDJdQyhbQ0BdMTJbQ0gzXSk9W0NIXUMoPU8pW0NAQEhdM1tDQEhdMltDQEBIXTRbQ0BASF0oTzQpW0NAQEhdNVtDQEBdMyhbQ0gzXSlbQ0gyXVtDSDJdQyg9TylbTkhdNQ==

>  <s_epik_cmdline>  (231) 
J2VwaWtfcHl0aG9uJywgJy1waHQnLCAnMi4wJywgJy1waCcsICc3LjAnLCAnLXRuJywgJzgnLCAnLW1hJywgJzIwMCcsICctaW1hZScsICc8aW5maWxlLm1hZT4nLCAnLW9tYWUnLCAnPG91dGZpbGUubWFlPic=

>  <r_lp_tautomer_probability>  (231) 
1

>  <r_epik_Ionization_Penalty>  (231) 
1.54001e-08

>  <r_epik_Ionization_Penalty_Charging>  (231) 
0

>  <r_epik_Ionization_Penalty_Neutral>  (231) 
1.54001e-08

>  <r_epik_State_Penalty>  (231) 
-0

>  <r_epik_Charging_Adjusted_Penalty>  (231) 
0

>  <i_epik_Tot_Q>  (231) 
0

>  <i_epik_Tot_abs_Q>  (231) 
0

>  <s_lp_Force_Field>  (231) 
OPLS3e

>  <r_lp_Energy>  (231) 
47.047

>  <b_lp_Chiralities_Consistent>  (231) 
1

>  <s_lp_Variant>  (231) 
77:0-1

>  <s_i_glide_gridfile>  (231) 
pfpi4k_grid

>  <i_i_glide_lignum>  (231) 
24

>  <i_i_glide_rotatable_bonds>  (231) 
0

>  <r_i_docking_score>  (231) 
-3.57168

>  <r_i_glide_ligand_efficiency>  (231) 
-0.14882

>  <r_i_glide_ligand_efficiency_sa>  (231) 
-0.429271

>  <r_i_glide_ligand_efficiency_ln>  (231) 
-0.854867

>  <r_i_glide_gscore>  (231) 
-3.57168

>  <r_i_glide_lipo>  (231) 
-0.364168

>  <r_i_glide_hbond>  (231) 
-0.158755

>  <r_i_glide_metal>  (231) 
-0

>  <r_i_glide_rewards>  (231) 
-1.19732

>  <r_i_glide_evdw>  (231) 
-25.7702

>  <r_i_glide_ecoul>  (231) 
-3.40647

>  <r_i_glide_erotb>  (231) 
0

>  <r_i_glide_esite>  (231) 
-0.051959

>  <r_i_glide_emodel>  (231) 
-35.7455

>  <r_i_glide_energy>  (231) 
-29.1766

>  <r_i_glide_einternal>  (231) 
0

>  <r_i_glide_intrahb_reward>  (231) 
-0

>  <i_i_glide_confnum>  (231) 
2

>  <i_i_glide_posenum>  (231) 
10

>  <r_i_glide_eff_state_penalty>  (231) 
0

>  <ligand_id>  (231) 
77

>  <original_smiles>  (231) 
CC12CCC(=O)CC1=CC(=O)C1C2C2OC2C2NC(=O)CCC21C

>  <smiles>  (231) 
[H]C1=C2C([H])([H])C(=O)C([H])([H])C([H])([H])C2(C([H])([H])[H])C2([H])C3([H])OC3([H])C3([H])N([H])C(=O)C([H])([H])C([H])([H])C3(C([H])([H])[H])C2([H])C1=O

$$$$
78:0:0
     RDKit          3D

 46 49  0  0  1  0  0  0  0  0999 V2000
    4.0011   -9.8117    2.6229 C   0  0  0  0  0  0  0  0  0  0  0  0
    3.0569   -8.8489    3.3702 C   0  0  2  0  0  0  0  0  0  0  0  0
    2.1693   -9.6635    4.3554 C   0  0  0  0  0  0  0  0  0  0  0  0
    0.9614   -8.9212    4.7526 N   0  0  0  0  0  0  0  0  0  0  0  0
    0.2202   -9.6499    5.7683 C   0  0  0  0  0  0  0  0  0  0  0  0
    0.1058   -8.7403    3.5686 C   0  0  0  0  0  0  0  0  0  0  0  0
    0.8468   -7.9754    2.5947 N   0  0  0  0  0  0  0  0  0  0  0  0
    0.2380   -7.2179    1.6554 N   0  0  0  0  0  0  0  0  0  0  0  0
    1.1564   -6.6743    0.9523 N   0  0  0  0  0  0  0  0  0  0  0  0
    2.4270   -7.1035    1.4110 C   0  0  0  0  0  0  0  0  0  0  0  0
    3.7539   -6.6569    0.8226 C   0  0  0  0  0  0  0  0  0  0  0  0
    4.6034   -7.5055    0.5472 O   0  0  0  0  0  0  0  0  0  0  0  0
    4.0023   -5.3387    0.6863 N   0  0  0  0  0  0  0  0  0  0  0  0
    5.3485   -4.8548    0.2618 C   0  0  0  0  0  0  0  0  0  0  0  0
    5.8507   -3.7575    1.2246 C   0  0  0  0  0  0  0  0  0  0  0  0
    4.7948   -2.6371    1.3443 C   0  0  0  0  0  0  0  0  0  0  0  0
    3.4293   -3.2116    1.7688 C   0  0  0  0  0  0  0  0  0  0  0  0
    2.9744   -4.2701    0.7705 C   0  0  0  0  0  0  0  0  0  0  0  0
    5.1968   -1.7231    2.3022 O   0  0  0  0  0  0  0  0  0  0  0  0
    4.7397   -0.4645    1.8412 C   0  0  0  0  0  0  0  0  0  0  0  0
    4.1199   -0.7162    0.4612 C   0  0  0  0  0  0  0  0  0  0  0  0
    4.6782   -1.9712    0.1314 O   0  0  0  0  0  0  0  0  0  0  0  0
    2.2177   -7.9787    2.4125 C   0  0  0  0  0  0  0  0  0  0  0  0
    4.7883   -9.2935    2.0785 H   0  0  0  0  0  0  0  0  0  0  0  0
    3.4464  -10.4252    1.9037 H   0  0  0  0  0  0  0  0  0  0  0  0
    4.5208  -10.4837    3.3127 H   0  0  0  0  0  0  0  0  0  0  0  0
    3.6668   -8.1763    3.9705 H   0  0  0  0  0  0  0  0  0  0  0  0
    1.8678  -10.6083    3.8888 H   0  0  0  0  0  0  0  0  0  0  0  0
    2.7497   -9.9217    5.2460 H   0  0  0  0  0  0  0  0  0  0  0  0
   -0.6710   -9.0857    6.0466 H   0  0  0  0  0  0  0  0  0  0  0  0
    0.8382   -9.7685    6.6567 H   0  0  0  0  0  0  0  0  0  0  0  0
   -0.0910  -10.6377    5.4248 H   0  0  0  0  0  0  0  0  0  0  0  0
   -0.1506   -9.6900    3.0949 H   0  0  0  0  0  0  0  0  0  0  0  0
   -0.8153   -8.2039    3.8045 H   0  0  0  0  0  0  0  0  0  0  0  0
    6.1042   -5.6444    0.2454 H   0  0  0  0  0  0  0  0  0  0  0  0
    5.2998   -4.4943   -0.7675 H   0  0  0  0  0  0  0  0  0  0  0  0
    6.0083   -4.1900    2.2158 H   0  0  0  0  0  0  0  0  0  0  0  0
    6.8095   -3.3449    0.8970 H   0  0  0  0  0  0  0  0  0  0  0  0
    3.5298   -3.6584    2.7589 H   0  0  0  0  0  0  0  0  0  0  0  0
    2.6562   -2.4480    1.8566 H   0  0  0  0  0  0  0  0  0  0  0  0
    2.8553   -3.8757   -0.2534 H   0  0  0  0  0  0  0  0  0  0  0  0
    2.0159   -4.5466    1.1711 H   0  0  0  0  0  0  0  0  0  0  0  0
    4.0296   -0.0190    2.5379 H   0  0  0  0  0  0  0  0  0  0  0  0
    5.6089    0.1802    1.7572 H   0  0  0  0  0  0  0  0  0  0  0  0
    3.0327   -0.7842    0.5125 H   0  0  0  0  0  0  0  0  0  0  0  0
    4.3404    0.0629   -0.2676 H   0  0  0  0  0  0  0  0  0  0  0  0
  1  2  1  0
  1 24  1  0
  1 25  1  0
  1 26  1  0
  2 23  1  0
  2  3  1  0
  2 27  1  1
  3  4  1  0
  3 28  1  0
  3 29  1  0
  4  5  1  0
  4  6  1  0
  5 30  1  0
  5 31  1  0
  5 32  1  0
  6  7  1  0
  6 33  1  0
  6 34  1  0
  7 23  1  0
  7  8  1  0
  8  9  2  0
  9 10  1  0
 10 11  1  0
 10 23  2  0
 11 12  2  0
 11 13  1  0
 13 18  1  0
 13 14  1  0
 14 15  1  0
 14 35  1  0
 14 36  1  0
 15 16  1  0
 15 37  1  0
 15 38  1  0
 16 22  1  0
 16 17  1  0
 16 19  1  0
 17 18  1  0
 17 39  1  0
 17 40  1  0
 18 41  1  0
 18 42  1  0
 19 20  1  0
 20 21  1  0
 20 43  1  0
 20 44  1  0
 21 22  1  0
 21 45  1  0
 21 46  1  0
M  END
>  <i_m_ct_stereo_status>  (232) 
1

>  <s_m_source_file>  (232) 
/var/tmp/pbs.5076255.sched01/tmpnszqc94g/84e4epk0lh.sdf

>  <i_m_source_file_index>  (232) 
25

>  <i_lp_mmshare_version>  (232) 
48012

>  <i_f3d_flags>  (232) 
0

>  <s_epik_input>  (232) 
W0NIM11OKFtDSDJdMSlbQ0gyXVtDQEBIXShbQ0gzXSljKG4xMiljKG5uMilDKD1PKU4oW0NIMl1bQ0gyXTMpW0NIMl1bQ0gyXUMzNE9bQ0gyXVtDSDJdTzQ=

>  <s_epik_cmdline>  (232) 
J2VwaWtfcHl0aG9uJywgJy1waHQnLCAnMi4wJywgJy1waCcsICc3LjAnLCAnLXRuJywgJzgnLCAnLW1hJywgJzIwMCcsICctaW1hZScsICc8aW5maWxlLm1hZT4nLCAnLW9tYWUnLCAnPG91dGZpbGUubWFlPic=

>  <r_lp_tautomer_probability>  (232) 
1

>  <r_epik_Ionization_Penalty>  (232) 
0.0010109

>  <r_epik_Ionization_Penalty_Charging>  (232) 
0

>  <r_epik_Ionization_Penalty_Neutral>  (232) 
0.0010109

>  <r_epik_State_Penalty>  (232) 
0.000659454

>  <r_epik_Charging_Adjusted_Penalty>  (232) 
0.000659454

>  <i_epik_Tot_Q>  (232) 
0

>  <i_epik_Tot_abs_Q>  (232) 
0

>  <s_epik_Chemistry_Notes>  (232) 
This compound contains an acetal/aminal-like group ( X-CH(R)-Y where X, Y are N, S, or O) that may be acid/base labile, releasing an aldehyde.

>  <s_lp_Force_Field>  (232) 
OPLS3e

>  <r_lp_Energy>  (232) 
13.6866

>  <b_lp_Chiralities_Consistent>  (232) 
1

>  <s_lp_Variant>  (232) 
78:0-1

>  <s_i_glide_gridfile>  (232) 
pfpi4k_grid

>  <i_i_glide_lignum>  (232) 
25

>  <i_i_glide_rotatable_bonds>  (232) 
2

>  <r_i_docking_score>  (232) 
-3.28651

>  <r_i_glide_ligand_efficiency>  (232) 
-0.142892

>  <r_i_glide_ligand_efficiency_sa>  (232) 
-0.406365

>  <r_i_glide_ligand_efficiency_ln>  (232) 
-0.794708

>  <r_i_glide_gscore>  (232) 
-3.28651

>  <r_i_glide_lipo>  (232) 
-0.340057

>  <r_i_glide_hbond>  (232) 
0

>  <r_i_glide_metal>  (232) 
-0

>  <r_i_glide_rewards>  (232) 
-1.40238

>  <r_i_glide_evdw>  (232) 
-23.1936

>  <r_i_glide_ecoul>  (232) 
-3.47516

>  <r_i_glide_erotb>  (232) 
0.361839

>  <r_i_glide_esite>  (232) 
-0.224959

>  <r_i_glide_emodel>  (232) 
-31.3613

>  <r_i_glide_energy>  (232) 
-26.6688

>  <r_i_glide_einternal>  (232) 
1.7468

>  <r_i_glide_intrahb_reward>  (232) 
-0

>  <i_i_glide_confnum>  (232) 
6

>  <i_i_glide_posenum>  (232) 
40

>  <r_i_glide_eff_state_penalty>  (232) 
0

>  <ligand_id>  (232) 
78

>  <original_smiles>  (232) 
CC1CN(C)Cn2nnc(C(=O)N3CCC4(CC3)OCCO4)c21

>  <smiles>  (232) 
[H]C([H])([H])N1C([H])([H])n2nnc(C(=O)N3C([H])([H])C([H])([H])C4(OC([H])([H])C([H])([H])O4)C([H])([H])C3([H])[H])c2C([H])(C([H])([H])[H])C1([H])[H]

$$$$
78:0:1
     RDKit          3D

 46 49  0  0  1  0  0  0  0  0999 V2000
    4.5496   -9.3920    1.7475 C   0  0  0  0  0  0  0  0  0  0  0  0
    3.4644   -8.7761    2.6741 C   0  0  2  0  0  0  0  0  0  0  0  0
    2.7128   -9.9455    3.4003 C   0  0  0  0  0  0  0  0  0  0  0  0
    1.4096   -9.5104    3.9283 N   0  0  0  0  0  0  0  0  0  0  0  0
    0.7750  -10.5617    4.6997 C   0  0  0  0  0  0  0  0  0  0  0  0
    0.5390   -9.1679    2.8016 C   0  0  0  0  0  0  0  0  0  0  0  0
    1.1489   -8.0877    2.0841 N   0  0  0  0  0  0  0  0  0  0  0  0
    0.4143   -7.2388    1.3396 N   0  0  0  0  0  0  0  0  0  0  0  0
    1.2473   -6.4140    0.7838 N   0  0  0  0  0  0  0  0  0  0  0  0
    2.5793   -6.7141    1.1687 C   0  0  0  0  0  0  0  0  0  0  0  0
    3.8157   -5.9419    0.7475 C   0  0  0  0  0  0  0  0  0  0  0  0
    4.8227   -6.5671    0.4015 O   0  0  0  0  0  0  0  0  0  0  0  0
    3.8395   -4.5945    0.8696 N   0  0  0  0  0  0  0  0  0  0  0  0
    5.1118   -3.8406    0.7261 C   0  0  0  0  0  0  0  0  0  0  0  0
    5.2948   -2.8714    1.9173 C   0  0  0  0  0  0  0  0  0  0  0  0
    4.0415   -1.9778    2.0728 C   0  0  0  0  0  0  0  0  0  0  0  0
    2.7721   -2.8377    2.1945 C   0  0  0  0  0  0  0  0  0  0  0  0
    2.6679   -3.7101    0.9631 C   0  0  0  0  0  0  0  0  0  0  0  0
    4.1562   -1.2017    3.2120 O   0  0  0  0  0  0  0  0  0  0  0  0
    3.5126    0.0239    2.9005 C   0  0  0  0  0  0  0  0  0  0  0  0
    3.1077   -0.0714    1.4239 C   0  0  0  0  0  0  0  0  0  0  0  0
    3.9297   -1.1307    0.9746 O   0  0  0  0  0  0  0  0  0  0  0  0
    2.5024   -7.8422    1.9493 C   0  0  0  0  0  0  0  0  0  0  0  0
    5.2658   -8.6567    1.3847 H   0  0  0  0  0  0  0  0  0  0  0  0
    4.0885   -9.8586    0.8718 H   0  0  0  0  0  0  0  0  0  0  0  0
    5.1644  -10.1340    2.2748 H   0  0  0  0  0  0  0  0  0  0  0  0
    3.9813   -8.2018    3.4506 H   0  0  0  0  0  0  0  0  0  0  0  0
    2.5633  -10.7766    2.6989 H   0  0  0  0  0  0  0  0  0  0  0  0
    3.3289  -10.3180    4.2263 H   0  0  0  0  0  0  0  0  0  0  0  0
   -0.1787  -10.2003    5.0796 H   0  0  0  0  0  0  0  0  0  0  0  0
    1.4045  -10.7943    5.5530 H   0  0  0  0  0  0  0  0  0  0  0  0
    0.6033  -11.4664    4.1133 H   0  0  0  0  0  0  0  0  0  0  0  0
    0.4254   -9.9924    2.0876 H   0  0  0  0  0  0  0  0  0  0  0  0
   -0.4600   -8.8400    3.1112 H   0  0  0  0  0  0  0  0  0  0  0  0
    6.0021   -4.4873    0.6907 H   0  0  0  0  0  0  0  0  0  0  0  0
    5.1092   -3.3093   -0.2302 H   0  0  0  0  0  0  0  0  0  0  0  0
    5.4167   -3.4483    2.8363 H   0  0  0  0  0  0  0  0  0  0  0  0
    6.1855   -2.2535    1.7937 H   0  0  0  0  0  0  0  0  0  0  0  0
    2.8397   -3.4457    3.1004 H   0  0  0  0  0  0  0  0  0  0  0  0
    1.8563   -2.2520    2.2927 H   0  0  0  0  0  0  0  0  0  0  0  0
    2.5651   -3.1786    0.0076 H   0  0  0  0  0  0  0  0  0  0  0  0
    1.7511   -4.2131    1.2192 H   0  0  0  0  0  0  0  0  0  0  0  0
    2.6563    0.1980    3.5504 H   0  0  0  0  0  0  0  0  0  0  0  0
    4.2225    0.8315    3.0487 H   0  0  0  0  0  0  0  0  0  0  0  0
    2.0540   -0.3326    1.3092 H   0  0  0  0  0  0  0  0  0  0  0  0
    3.2465    0.8571    0.8746 H   0  0  0  0  0  0  0  0  0  0  0  0
  1  2  1  0
  1 24  1  0
  1 25  1  0
  1 26  1  0
  2 23  1  0
  2  3  1  0
  2 27  1  1
  3  4  1  0
  3 28  1  0
  3 29  1  0
  4  5  1  0
  4  6  1  0
  5 30  1  0
  5 31  1  0
  5 32  1  0
  6  7  1  0
  6 33  1  0
  6 34  1  0
  7 23  1  0
  7  8  1  0
  8  9  2  0
  9 10  1  0
 10 11  1  0
 10 23  2  0
 11 12  2  0
 11 13  1  0
 13 18  1  0
 13 14  1  0
 14 15  1  0
 14 35  1  0
 14 36  1  0
 15 16  1  0
 15 37  1  0
 15 38  1  0
 16 22  1  0
 16 17  1  0
 16 19  1  0
 17 18  1  0
 17 39  1  0
 17 40  1  0
 18 41  1  0
 18 42  1  0
 19 20  1  0
 20 21  1  0
 20 43  1  0
 20 44  1  0
 21 22  1  0
 21 45  1  0
 21 46  1  0
M  END
>  <i_m_ct_stereo_status>  (233) 
1

>  <s_m_source_file>  (233) 
/var/tmp/pbs.5076255.sched01/tmpnszqc94g/84e4epk0lh.sdf

>  <i_m_source_file_index>  (233) 
25

>  <i_lp_mmshare_version>  (233) 
48012

>  <i_f3d_flags>  (233) 
0

>  <s_epik_input>  (233) 
W0NIM11OKFtDSDJdMSlbQ0gyXVtDQEBIXShbQ0gzXSljKG4xMiljKG5uMilDKD1PKU4oW0NIMl1bQ0gyXTMpW0NIMl1bQ0gyXUMzNE9bQ0gyXVtDSDJdTzQ=

>  <s_epik_cmdline>  (233) 
J2VwaWtfcHl0aG9uJywgJy1waHQnLCAnMi4wJywgJy1waCcsICc3LjAnLCAnLXRuJywgJzgnLCAnLW1hJywgJzIwMCcsICctaW1hZScsICc8aW5maWxlLm1hZT4nLCAnLW9tYWUnLCAnPG91dGZpbGUubWFlPic=

>  <r_lp_tautomer_probability>  (233) 
1

>  <r_epik_Ionization_Penalty>  (233) 
0.0010109

>  <r_epik_Ionization_Penalty_Charging>  (233) 
0

>  <r_epik_Ionization_Penalty_Neutral>  (233) 
0.0010109

>  <r_epik_State_Penalty>  (233) 
0.000659454

>  <r_epik_Charging_Adjusted_Penalty>  (233) 
0.000659454

>  <i_epik_Tot_Q>  (233) 
0

>  <i_epik_Tot_abs_Q>  (233) 
0

>  <s_epik_Chemistry_Notes>  (233) 
This compound contains an acetal/aminal-like group ( X-CH(R)-Y where X, Y are N, S, or O) that may be acid/base labile, releasing an aldehyde.

>  <s_lp_Force_Field>  (233) 
OPLS3e

>  <r_lp_Energy>  (233) 
13.6866

>  <b_lp_Chiralities_Consistent>  (233) 
1

>  <s_lp_Variant>  (233) 
78:0-1

>  <s_i_glide_gridfile>  (233) 
pfpi4k_grid

>  <i_i_glide_lignum>  (233) 
25

>  <i_i_glide_rotatable_bonds>  (233) 
2

>  <r_i_docking_score>  (233) 
-3.05015

>  <r_i_glide_ligand_efficiency>  (233) 
-0.132615

>  <r_i_glide_ligand_efficiency_sa>  (233) 
-0.377139

>  <r_i_glide_ligand_efficiency_ln>  (233) 
-0.737553

>  <r_i_glide_gscore>  (233) 
-3.05015

>  <r_i_glide_lipo>  (233) 
-0.0984868

>  <r_i_glide_hbond>  (233) 
0

>  <r_i_glide_metal>  (233) 
-0

>  <r_i_glide_rewards>  (233) 
-1.30098

>  <r_i_glide_evdw>  (233) 
-22.5178

>  <r_i_glide_ecoul>  (233) 
-4.43806

>  <r_i_glide_erotb>  (233) 
0.361839

>  <r_i_glide_esite>  (233) 
-0.220921

>  <r_i_glide_emodel>  (233) 
-30.8925

>  <r_i_glide_energy>  (233) 
-26.9558

>  <r_i_glide_einternal>  (233) 
2.15588

>  <r_i_glide_intrahb_reward>  (233) 
-0

>  <i_i_glide_confnum>  (233) 
6

>  <i_i_glide_posenum>  (233) 
36

>  <r_i_glide_eff_state_penalty>  (233) 
0

>  <ligand_id>  (233) 
78

>  <original_smiles>  (233) 
CC1CN(C)Cn2nnc(C(=O)N3CCC4(CC3)OCCO4)c21

>  <smiles>  (233) 
[H]C([H])([H])N1C([H])([H])n2nnc(C(=O)N3C([H])([H])C([H])([H])C4(OC([H])([H])C([H])([H])O4)C([H])([H])C3([H])[H])c2C([H])(C([H])([H])[H])C1([H])[H]

$$$$
78:0:2
     RDKit          3D

 46 49  0  0  1  0  0  0  0  0999 V2000
    8.9392   -5.6813    1.4378 C   0  0  0  0  0  0  0  0  0  0  0  0
    7.6123   -6.0412    2.1485 C   0  0  2  0  0  0  0  0  0  0  0  0
    7.6938   -7.5161    2.6693 C   0  0  0  0  0  0  0  0  0  0  0  0
    6.3608   -8.0724    2.9449 N   0  0  0  0  0  0  0  0  0  0  0  0
    6.4421   -9.3934    3.5378 C   0  0  0  0  0  0  0  0  0  0  0  0
    5.6152   -8.1725    1.6828 C   0  0  0  0  0  0  0  0  0  0  0  0
    5.4841   -6.8352    1.1497 N   0  0  0  0  0  0  0  0  0  0  0  0
    4.4818   -6.5273    0.3203 N   0  0  0  0  0  0  0  0  0  0  0  0
    4.6985   -5.2983   -0.0550 N   0  0  0  0  0  0  0  0  0  0  0  0
    5.8417   -4.7795    0.5556 C   0  0  0  0  0  0  0  0  0  0  0  0
    6.3255   -3.3551    0.4271 C   0  0  0  0  0  0  0  0  0  0  0  0
    7.5186   -3.1372    0.1486 O   0  0  0  0  0  0  0  0  0  0  0  0
    5.4883   -2.3420    0.7363 N   0  0  0  0  0  0  0  0  0  0  0  0
    6.0193   -0.9904    1.0512 C   0  0  0  0  0  0  0  0  0  0  0  0
    5.4125   -0.4630    2.3810 C   0  0  0  0  0  0  0  0  0  0  0  0
    3.8604   -0.5270    2.2990 C   0  0  0  0  0  0  0  0  0  0  0  0
    3.3922   -1.9566    1.9516 C   0  0  0  0  0  0  0  0  0  0  0  0
    4.0102   -2.3733    0.6280 C   0  0  0  0  0  0  0  0  0  0  0  0
    3.3181   -0.1611    3.5206 O   0  0  0  0  0  0  0  0  0  0  0  0
    2.1091    0.5187    3.2205 C   0  0  0  0  0  0  0  0  0  0  0  0
    2.0497    0.6111    1.6910 C   0  0  0  0  0  0  0  0  0  0  0  0
    3.3983    0.3683    1.3377 O   0  0  0  0  0  0  0  0  0  0  0  0
    6.3932   -5.8100    1.2804 C   0  0  0  0  0  0  0  0  0  0  0  0
    9.0312   -4.6159    1.2453 H   0  0  0  0  0  0  0  0  0  0  0  0
    9.0236   -6.2154    0.4828 H   0  0  0  0  0  0  0  0  0  0  0  0
    9.8078   -5.9214    2.0602 H   0  0  0  0  0  0  0  0  0  0  0  0
    7.5268   -5.4133    3.0379 H   0  0  0  0  0  0  0  0  0  0  0  0
    8.2059   -8.1412    1.9270 H   0  0  0  0  0  0  0  0  0  0  0  0
    8.2915   -7.5434    3.5882 H   0  0  0  0  0  0  0  0  0  0  0  0
    5.4368   -9.7724    3.7314 H   0  0  0  0  0  0  0  0  0  0  0  0
    6.9590   -9.3084    4.4908 H   0  0  0  0  0  0  0  0  0  0  0  0
    6.9705  -10.1032    2.8973 H   0  0  0  0  0  0  0  0  0  0  0  0
    6.1474   -8.7618    0.9249 H   0  0  0  0  0  0  0  0  0  0  0  0
    4.6119   -8.5882    1.8046 H   0  0  0  0  0  0  0  0  0  0  0  0
    7.1156   -0.9735    1.1748 H   0  0  0  0  0  0  0  0  0  0  0  0
    5.8146   -0.2991    0.2251 H   0  0  0  0  0  0  0  0  0  0  0  0
    5.7322   -1.1115    3.2091 H   0  0  0  0  0  0  0  0  0  0  0  0
    5.7432    0.5332    2.6146 H   0  0  0  0  0  0  0  0  0  0  0  0
    3.7015   -2.6194    2.7603 H   0  0  0  0  0  0  0  0  0  0  0  0
    2.3080   -2.0348    1.8837 H   0  0  0  0  0  0  0  0  0  0  0  0
    3.7464   -1.7163   -0.2093 H   0  0  0  0  0  0  0  0  0  0  0  0
    3.5397   -3.3322    0.4683 H   0  0  0  0  0  0  0  0  0  0  0  0
    1.2525   -0.0132    3.6337 H   0  0  0  0  0  0  0  0  0  0  0  0
    2.1464    1.5099    3.6659 H   0  0  0  0  0  0  0  0  0  0  0  0
    1.4066   -0.1630    1.2759 H   0  0  0  0  0  0  0  0  0  0  0  0
    1.6543    1.5573    1.3209 H   0  0  0  0  0  0  0  0  0  0  0  0
  1  2  1  0
  1 24  1  0
  1 25  1  0
  1 26  1  0
  2 23  1  0
  2  3  1  0
  2 27  1  1
  3  4  1  0
  3 28  1  0
  3 29  1  0
  4  5  1  0
  4  6  1  0
  5 30  1  0
  5 31  1  0
  5 32  1  0
  6  7  1  0
  6 33  1  0
  6 34  1  0
  7 23  1  0
  7  8  1  0
  8  9  2  0
  9 10  1  0
 10 11  1  0
 10 23  2  0
 11 12  2  0
 11 13  1  0
 13 18  1  0
 13 14  1  0
 14 15  1  0
 14 35  1  0
 14 36  1  0
 15 16  1  0
 15 37  1  0
 15 38  1  0
 16 22  1  0
 16 17  1  0
 16 19  1  0
 17 18  1  0
 17 39  1  0
 17 40  1  0
 18 41  1  0
 18 42  1  0
 19 20  1  0
 20 21  1  0
 20 43  1  0
 20 44  1  0
 21 22  1  0
 21 45  1  0
 21 46  1  0
M  END
>  <i_m_ct_stereo_status>  (234) 
1

>  <s_m_source_file>  (234) 
/var/tmp/pbs.5076255.sched01/tmpnszqc94g/84e4epk0lh.sdf

>  <i_m_source_file_index>  (234) 
25

>  <i_lp_mmshare_version>  (234) 
48012

>  <i_f3d_flags>  (234) 
0

>  <s_epik_input>  (234) 
W0NIM11OKFtDSDJdMSlbQ0gyXVtDQEBIXShbQ0gzXSljKG4xMiljKG5uMilDKD1PKU4oW0NIMl1bQ0gyXTMpW0NIMl1bQ0gyXUMzNE9bQ0gyXVtDSDJdTzQ=

>  <s_epik_cmdline>  (234) 
J2VwaWtfcHl0aG9uJywgJy1waHQnLCAnMi4wJywgJy1waCcsICc3LjAnLCAnLXRuJywgJzgnLCAnLW1hJywgJzIwMCcsICctaW1hZScsICc8aW5maWxlLm1hZT4nLCAnLW9tYWUnLCAnPG91dGZpbGUubWFlPic=

>  <r_lp_tautomer_probability>  (234) 
1

>  <r_epik_Ionization_Penalty>  (234) 
0.0010109

>  <r_epik_Ionization_Penalty_Charging>  (234) 
0

>  <r_epik_Ionization_Penalty_Neutral>  (234) 
0.0010109

>  <r_epik_State_Penalty>  (234) 
0.000659454

>  <r_epik_Charging_Adjusted_Penalty>  (234) 
0.000659454

>  <i_epik_Tot_Q>  (234) 
0

>  <i_epik_Tot_abs_Q>  (234) 
0

>  <s_epik_Chemistry_Notes>  (234) 
This compound contains an acetal/aminal-like group ( X-CH(R)-Y where X, Y are N, S, or O) that may be acid/base labile, releasing an aldehyde.

>  <s_lp_Force_Field>  (234) 
OPLS3e

>  <r_lp_Energy>  (234) 
13.6866

>  <b_lp_Chiralities_Consistent>  (234) 
1

>  <s_lp_Variant>  (234) 
78:0-1

>  <s_i_glide_gridfile>  (234) 
pfpi4k_grid

>  <i_i_glide_lignum>  (234) 
25

>  <i_i_glide_rotatable_bonds>  (234) 
2

>  <r_i_docking_score>  (234) 
-2.89651

>  <r_i_glide_ligand_efficiency>  (234) 
-0.125935

>  <r_i_glide_ligand_efficiency_sa>  (234) 
-0.358143

>  <r_i_glide_ligand_efficiency_ln>  (234) 
-0.700403

>  <r_i_glide_gscore>  (234) 
-2.89651

>  <r_i_glide_lipo>  (234) 
-0.417874

>  <r_i_glide_hbond>  (234) 
0

>  <r_i_glide_metal>  (234) 
-0

>  <r_i_glide_rewards>  (234) 
-1.66333

>  <r_i_glide_evdw>  (234) 
-23.3735

>  <r_i_glide_ecoul>  (234) 
-0.019682

>  <r_i_glide_erotb>  (234) 
0.361839

>  <r_i_glide_esite>  (234) 
-0.00552269

>  <r_i_glide_emodel>  (234) 
-27.032

>  <r_i_glide_energy>  (234) 
-23.3931

>  <r_i_glide_einternal>  (234) 
2.25874

>  <r_i_glide_intrahb_reward>  (234) 
-0

>  <i_i_glide_confnum>  (234) 
6

>  <i_i_glide_posenum>  (234) 
14

>  <r_i_glide_eff_state_penalty>  (234) 
0

>  <ligand_id>  (234) 
78

>  <original_smiles>  (234) 
CC1CN(C)Cn2nnc(C(=O)N3CCC4(CC3)OCCO4)c21

>  <smiles>  (234) 
[H]C([H])([H])N1C([H])([H])n2nnc(C(=O)N3C([H])([H])C([H])([H])C4(OC([H])([H])C([H])([H])O4)C([H])([H])C3([H])[H])c2C([H])(C([H])([H])[H])C1([H])[H]

$$$$
79:0:0
     RDKit          3D

 18 20  0  0  1  0  0  0  0  0999 V2000
   -1.4657   -0.5225    4.8042 C   0  0  0  0  0  0  0  0  0  0  0  0
   -1.7844   -0.2483    6.0766 N   0  0  0  0  0  0  0  0  0  0  0  0
   -1.6147    1.0145    6.4931 N   0  0  0  0  0  0  0  0  0  0  0  0
   -1.1340    1.9614    5.6428 C   0  0  0  0  0  0  0  0  0  0  0  0
   -0.9385    3.2912    6.0768 C   0  0  0  0  0  0  0  0  0  0  0  0
   -0.4398    4.2836    5.2066 C   0  0  0  0  0  0  0  0  0  0  0  0
   -0.1813    5.6311    5.4166 N   0  0  0  0  0  0  0  0  0  0  0  0
    0.2821    6.0136    4.2288 C   0  0  0  0  0  0  0  0  0  0  0  0
    0.3266    5.0614    3.2799 N   0  0  0  0  0  0  0  0  0  0  0  0
   -0.1374    3.9000    3.8704 C   0  0  0  0  0  0  0  0  0  0  0  0
   -0.3299    2.5889    3.4132 C   0  0  0  0  0  0  0  0  0  0  0  0
   -0.8182    1.6038    4.2962 C   0  0  0  0  0  0  0  0  0  0  0  0
   -0.9881    0.3254    3.8930 N   0  0  0  0  0  0  0  0  0  0  0  0
   -1.6301   -1.5365    4.4785 H   0  0  0  0  0  0  0  0  0  0  0  0
   -1.1696    3.5521    7.0999 H   0  0  0  0  0  0  0  0  0  0  0  0
    0.5714    7.0376    4.0430 H   0  0  0  0  0  0  0  0  0  0  0  0
   -0.0954    2.3346    2.3868 H   0  0  0  0  0  0  0  0  0  0  0  0
    0.5791    5.1717    2.2958 H   0  0  0  0  0  0  0  0  0  0  0  0
  1 13  2  0
  1  2  1  0
  1 14  1  0
  2  3  2  0
  3  4  1  0
  4 12  2  0
  4  5  1  0
  5  6  2  0
  5 15  1  0
  6 10  1  0
  6  7  1  0
  7  8  2  0
  8  9  1  0
  8 16  1  0
  9 10  1  0
  9 18  1  0
 10 11  2  0
 11 12  1  0
 11 17  1  0
 12 13  1  0
M  END
>  <i_m_ct_stereo_status>  (235) 
1

>  <s_m_source_file>  (235) 
/var/tmp/pbs.5076255.sched01/tmpnszqc94g/84e4epk0lh.sdf

>  <i_m_source_file_index>  (235) 
26

>  <i_lp_mmshare_version>  (235) 
48012

>  <i_f3d_flags>  (235) 
0

>  <s_epik_input>  (235) 
bjFuW2NIXW5jKGMxMilbY0hdYzNjKFtjSF0yKVtuSF1bY0hdbjM=

>  <s_epik_cmdline>  (235) 
J2VwaWtfcHl0aG9uJywgJy1waHQnLCAnMi4wJywgJy1waCcsICc3LjAnLCAnLXRuJywgJzgnLCAnLW1hJywgJzIwMCcsICctaW1hZScsICc8aW5maWxlLm1hZT4nLCAnLW9tYWUnLCAnPG91dGZpbGUubWFlPic=

>  <r_epik_Ionization_Penalty>  (235) 
0.000592343

>  <r_epik_Ionization_Penalty_Charging>  (235) 
0

>  <r_epik_Ionization_Penalty_Neutral>  (235) 
0.000592343

>  <r_epik_State_Penalty>  (235) 
0.322764

>  <r_epik_Charging_Adjusted_Penalty>  (235) 
0.322764

>  <i_epik_Tot_Q>  (235) 
0

>  <i_epik_Tot_abs_Q>  (235) 
0

>  <s_lp_Force_Field>  (235) 
OPLS3e

>  <r_lp_Energy>  (235) 
20.9533

>  <b_lp_Chiralities_Consistent>  (235) 
1

>  <s_lp_Variant>  (235) 
79:0-1

>  <s_i_glide_gridfile>  (235) 
pfpi4k_grid

>  <i_i_glide_lignum>  (235) 
26

>  <i_i_glide_rotatable_bonds>  (235) 
0

>  <r_i_docking_score>  (235) 
-4.52419

>  <r_i_glide_ligand_efficiency>  (235) 
-0.348015

>  <r_i_glide_ligand_efficiency_sa>  (235) 
-0.8183

>  <r_i_glide_ligand_efficiency_ln>  (235) 
-1.26908

>  <r_i_glide_gscore>  (235) 
-4.52419

>  <r_i_glide_lipo>  (235) 
0

>  <r_i_glide_hbond>  (235) 
-0.114208

>  <r_i_glide_metal>  (235) 
-0

>  <r_i_glide_rewards>  (235) 
-2.2421

>  <r_i_glide_evdw>  (235) 
-11.752

>  <r_i_glide_ecoul>  (235) 
-7.92667

>  <r_i_glide_erotb>  (235) 
0

>  <r_i_glide_esite>  (235) 
-0.391286

>  <r_i_glide_emodel>  (235) 
-27.1205

>  <r_i_glide_energy>  (235) 
-19.6787

>  <r_i_glide_einternal>  (235) 
0

>  <r_i_glide_intrahb_reward>  (235) 
-0

>  <i_i_glide_confnum>  (235) 
1

>  <i_i_glide_posenum>  (235) 
2

>  <r_i_glide_eff_state_penalty>  (235) 
0

>  <ligand_id>  (235) 
79

>  <original_smiles>  (235) 
c1nnc2cc3[nH]cnc3cc2n1

>  <smiles>  (235) 
[H]c1nnc2c([H])c3nc([H])n([H])c3c([H])c2n1

$$$$
79:0:1
     RDKit          3D

 18 20  0  0  1  0  0  0  0  0999 V2000
    3.1120   -4.2951    1.0765 C   0  0  0  0  0  0  0  0  0  0  0  0
    3.9581   -3.4256    1.6397 N   0  0  0  0  0  0  0  0  0  0  0  0
    4.3711   -2.3867    0.9010 N   0  0  0  0  0  0  0  0  0  0  0  0
    3.9362   -2.2472   -0.3755 C   0  0  0  0  0  0  0  0  0  0  0  0
    4.3699   -1.1610   -1.1620 C   0  0  0  0  0  0  0  0  0  0  0  0
    3.9190   -0.9989   -2.4874 C   0  0  0  0  0  0  0  0  0  0  0  0
    4.1840   -0.0064   -3.4135 N   0  0  0  0  0  0  0  0  0  0  0  0
    3.4860   -0.4083   -4.4643 C   0  0  0  0  0  0  0  0  0  0  0  0
    2.8027   -1.5475   -4.3063 N   0  0  0  0  0  0  0  0  0  0  0  0
    3.0345   -1.9766   -3.0191 C   0  0  0  0  0  0  0  0  0  0  0  0
    2.5894   -3.0600   -2.2542 C   0  0  0  0  0  0  0  0  0  0  0  0
    3.0308   -3.2053   -0.9218 C   0  0  0  0  0  0  0  0  0  0  0  0
    2.6142   -4.2369   -0.1564 N   0  0  0  0  0  0  0  0  0  0  0  0
    2.7827   -5.1208    1.6883 H   0  0  0  0  0  0  0  0  0  0  0  0
    5.0417   -0.4252   -0.7466 H   0  0  0  0  0  0  0  0  0  0  0  0
    3.4918    0.1282   -5.4007 H   0  0  0  0  0  0  0  0  0  0  0  0
    1.9101   -3.7817   -2.6849 H   0  0  0  0  0  0  0  0  0  0  0  0
    2.2072   -1.9569   -5.0201 H   0  0  0  0  0  0  0  0  0  0  0  0
  1 13  2  0
  1  2  1  0
  1 14  1  0
  2  3  2  0
  3  4  1  0
  4 12  2  0
  4  5  1  0
  5  6  2  0
  5 15  1  0
  6 10  1  0
  6  7  1  0
  7  8  2  0
  8  9  1  0
  8 16  1  0
  9 10  1  0
  9 18  1  0
 10 11  2  0
 11 12  1  0
 11 17  1  0
 12 13  1  0
M  END
>  <i_m_ct_stereo_status>  (236) 
1

>  <s_m_source_file>  (236) 
/var/tmp/pbs.5076255.sched01/tmpnszqc94g/84e4epk0lh.sdf

>  <i_m_source_file_index>  (236) 
26

>  <i_lp_mmshare_version>  (236) 
48012

>  <i_f3d_flags>  (236) 
0

>  <s_epik_input>  (236) 
bjFuW2NIXW5jKGMxMilbY0hdYzNjKFtjSF0yKVtuSF1bY0hdbjM=

>  <s_epik_cmdline>  (236) 
J2VwaWtfcHl0aG9uJywgJy1waHQnLCAnMi4wJywgJy1waCcsICc3LjAnLCAnLXRuJywgJzgnLCAnLW1hJywgJzIwMCcsICctaW1hZScsICc8aW5maWxlLm1hZT4nLCAnLW9tYWUnLCAnPG91dGZpbGUubWFlPic=

>  <r_epik_Ionization_Penalty>  (236) 
0.000592343

>  <r_epik_Ionization_Penalty_Charging>  (236) 
0

>  <r_epik_Ionization_Penalty_Neutral>  (236) 
0.000592343

>  <r_epik_State_Penalty>  (236) 
0.322764

>  <r_epik_Charging_Adjusted_Penalty>  (236) 
0.322764

>  <i_epik_Tot_Q>  (236) 
0

>  <i_epik_Tot_abs_Q>  (236) 
0

>  <s_lp_Force_Field>  (236) 
OPLS3e

>  <r_lp_Energy>  (236) 
20.9533

>  <b_lp_Chiralities_Consistent>  (236) 
1

>  <s_lp_Variant>  (236) 
79:0-1

>  <s_i_glide_gridfile>  (236) 
pfpi4k_grid

>  <i_i_glide_lignum>  (236) 
26

>  <i_i_glide_rotatable_bonds>  (236) 
0

>  <r_i_docking_score>  (236) 
-4.50237

>  <r_i_glide_ligand_efficiency>  (236) 
-0.346336

>  <r_i_glide_ligand_efficiency_sa>  (236) 
-0.814352

>  <r_i_glide_ligand_efficiency_ln>  (236) 
-1.26295

>  <r_i_glide_gscore>  (236) 
-4.50237

>  <r_i_glide_lipo>  (236) 
-0.0422491

>  <r_i_glide_hbond>  (236) 
-0.32

>  <r_i_glide_metal>  (236) 
-0

>  <r_i_glide_rewards>  (236) 
-2.68241

>  <r_i_glide_evdw>  (236) 
-17.112

>  <r_i_glide_ecoul>  (236) 
-3.88813

>  <r_i_glide_erotb>  (236) 
0

>  <r_i_glide_esite>  (236) 
-0.0188846

>  <r_i_glide_emodel>  (236) 
-28.4088

>  <r_i_glide_energy>  (236) 
-21.0001

>  <r_i_glide_einternal>  (236) 
0

>  <r_i_glide_intrahb_reward>  (236) 
-0

>  <i_i_glide_confnum>  (236) 
1

>  <i_i_glide_posenum>  (236) 
4

>  <r_i_glide_eff_state_penalty>  (236) 
0

>  <ligand_id>  (236) 
79

>  <original_smiles>  (236) 
c1nnc2cc3[nH]cnc3cc2n1

>  <smiles>  (236) 
[H]c1nnc2c([H])c3nc([H])n([H])c3c([H])c2n1

$$$$
79:0:2
     RDKit          3D

 18 20  0  0  1  0  0  0  0  0999 V2000
   -2.7241    2.9450    6.8690 C   0  0  0  0  0  0  0  0  0  0  0  0
   -2.4364    1.8030    7.4995 N   0  0  0  0  0  0  0  0  0  0  0  0
   -1.6409    0.9328    6.8680 N   0  0  0  0  0  0  0  0  0  0  0  0
   -1.1766    1.2022    5.6223 C   0  0  0  0  0  0  0  0  0  0  0  0
   -0.3450    0.2772    4.9516 C   0  0  0  0  0  0  0  0  0  0  0  0
    0.1489    0.5430    3.6590 C   0  0  0  0  0  0  0  0  0  0  0  0
    0.9685   -0.2092    2.8323 N   0  0  0  0  0  0  0  0  0  0  0  0
    1.0750    0.5803    1.7658 C   0  0  0  0  0  0  0  0  0  0  0  0
    0.4069    1.7437    1.8211 N   0  0  0  0  0  0  0  0  0  0  0  0
   -0.2215    1.7760    3.0498 C   0  0  0  0  0  0  0  0  0  0  0  0
   -1.0485    2.7074    3.6969 C   0  0  0  0  0  0  0  0  0  0  0  0
   -1.5346    2.4313    4.9913 C   0  0  0  0  0  0  0  0  0  0  0  0
   -2.3249    3.3111    5.6485 N   0  0  0  0  0  0  0  0  0  0  0  0
   -3.3697    3.6318    7.3936 H   0  0  0  0  0  0  0  0  0  0  0  0
   -0.0726   -0.6509    5.4334 H   0  0  0  0  0  0  0  0  0  0  0  0
    1.6520    0.2909    0.9009 H   0  0  0  0  0  0  0  0  0  0  0  0
   -1.3010    3.6347    3.2031 H   0  0  0  0  0  0  0  0  0  0  0  0
    0.3834    2.4632    1.1032 H   0  0  0  0  0  0  0  0  0  0  0  0
  1 13  2  0
  1  2  1  0
  1 14  1  0
  2  3  2  0
  3  4  1  0
  4 12  2  0
  4  5  1  0
  5  6  2  0
  5 15  1  0
  6 10  1  0
  6  7  1  0
  7  8  2  0
  8  9  1  0
  8 16  1  0
  9 10  1  0
  9 18  1  0
 10 11  2  0
 11 12  1  0
 11 17  1  0
 12 13  1  0
M  END
>  <i_m_ct_stereo_status>  (237) 
1

>  <s_m_source_file>  (237) 
/var/tmp/pbs.5076255.sched01/tmpnszqc94g/84e4epk0lh.sdf

>  <i_m_source_file_index>  (237) 
26

>  <i_lp_mmshare_version>  (237) 
48012

>  <i_f3d_flags>  (237) 
0

>  <s_epik_input>  (237) 
bjFuW2NIXW5jKGMxMilbY0hdYzNjKFtjSF0yKVtuSF1bY0hdbjM=

>  <s_epik_cmdline>  (237) 
J2VwaWtfcHl0aG9uJywgJy1waHQnLCAnMi4wJywgJy1waCcsICc3LjAnLCAnLXRuJywgJzgnLCAnLW1hJywgJzIwMCcsICctaW1hZScsICc8aW5maWxlLm1hZT4nLCAnLW9tYWUnLCAnPG91dGZpbGUubWFlPic=

>  <r_epik_Ionization_Penalty>  (237) 
0.000592343

>  <r_epik_Ionization_Penalty_Charging>  (237) 
0

>  <r_epik_Ionization_Penalty_Neutral>  (237) 
0.000592343

>  <r_epik_State_Penalty>  (237) 
0.322764

>  <r_epik_Charging_Adjusted_Penalty>  (237) 
0.322764

>  <i_epik_Tot_Q>  (237) 
0

>  <i_epik_Tot_abs_Q>  (237) 
0

>  <s_lp_Force_Field>  (237) 
OPLS3e

>  <r_lp_Energy>  (237) 
20.9533

>  <b_lp_Chiralities_Consistent>  (237) 
1

>  <s_lp_Variant>  (237) 
79:0-1

>  <s_i_glide_gridfile>  (237) 
pfpi4k_grid

>  <i_i_glide_lignum>  (237) 
26

>  <i_i_glide_rotatable_bonds>  (237) 
0

>  <r_i_docking_score>  (237) 
-4.24277

>  <r_i_glide_ligand_efficiency>  (237) 
-0.326367

>  <r_i_glide_ligand_efficiency_sa>  (237) 
-0.767398

>  <r_i_glide_ligand_efficiency_ln>  (237) 
-1.19014

>  <r_i_glide_gscore>  (237) 
-4.24277

>  <r_i_glide_lipo>  (237) 
0

>  <r_i_glide_hbond>  (237) 
-0.148896

>  <r_i_glide_metal>  (237) 
-0

>  <r_i_glide_rewards>  (237) 
-2.46606

>  <r_i_glide_evdw>  (237) 
-15.6365

>  <r_i_glide_ecoul>  (237) 
-3.79567

>  <r_i_glide_erotb>  (237) 
0

>  <r_i_glide_esite>  (237) 
-0.276638

>  <r_i_glide_emodel>  (237) 
-26.4177

>  <r_i_glide_energy>  (237) 
-19.4322

>  <r_i_glide_einternal>  (237) 
0

>  <r_i_glide_intrahb_reward>  (237) 
-0

>  <i_i_glide_confnum>  (237) 
2

>  <i_i_glide_posenum>  (237) 
1

>  <r_i_glide_eff_state_penalty>  (237) 
0

>  <ligand_id>  (237) 
79

>  <original_smiles>  (237) 
c1nnc2cc3[nH]cnc3cc2n1

>  <smiles>  (237) 
[H]c1nnc2c([H])c3nc([H])n([H])c3c([H])c2n1

$$$$
79:1:0
     RDKit          3D

 18 20  0  0  1  0  0  0  0  0999 V2000
   -2.1352    3.0058    5.6978 C   0  0  0  0  0  0  0  0  0  0  0  0
   -2.5789    3.4223    4.5091 N   0  0  0  0  0  0  0  0  0  0  0  0
   -2.0016    2.9145    3.4118 N   0  0  0  0  0  0  0  0  0  0  0  0
   -1.0031    2.0041    3.5344 C   0  0  0  0  0  0  0  0  0  0  0  0
   -0.3789    1.4471    2.4013 C   0  0  0  0  0  0  0  0  0  0  0  0
    0.6580    0.5161    2.5605 C   0  0  0  0  0  0  0  0  0  0  0  0
    1.4582   -0.1940    1.6809 N   0  0  0  0  0  0  0  0  0  0  0  0
    2.2689   -0.9520    2.4351 C   0  0  0  0  0  0  0  0  0  0  0  0
    2.1171   -0.8488    3.7525 N   0  0  0  0  0  0  0  0  0  0  0  0
    1.1002    0.0919    3.8450 C   0  0  0  0  0  0  0  0  0  0  0  0
    0.4673    0.6532    4.9738 C   0  0  0  0  0  0  0  0  0  0  0  0
   -0.5725    1.5977    4.8313 C   0  0  0  0  0  0  0  0  0  0  0  0
   -1.1714    2.1178    5.9230 N   0  0  0  0  0  0  0  0  0  0  0  0
    1.3831   -0.2448    0.6627 H   0  0  0  0  0  0  0  0  0  0  0  0
   -2.6046    3.4448    6.5611 H   0  0  0  0  0  0  0  0  0  0  0  0
   -0.6807    1.7384    1.4042 H   0  0  0  0  0  0  0  0  0  0  0  0
    2.9835   -1.6279    2.0002 H   0  0  0  0  0  0  0  0  0  0  0  0
    0.7893    0.3523    5.9606 H   0  0  0  0  0  0  0  0  0  0  0  0
  1 13  2  0
  1  2  1  0
  1 15  1  0
  2  3  2  0
  3  4  1  0
  4 12  2  0
  4  5  1  0
  5  6  2  0
  5 16  1  0
  6 10  1  0
  6  7  1  0
  7 14  1  0
  7  8  1  0
  8  9  2  0
  8 17  1  0
  9 10  1  0
 10 11  2  0
 11 12  1  0
 11 18  1  0
 12 13  1  0
M  END
>  <i_m_ct_stereo_status>  (238) 
1

>  <s_m_source_file>  (238) 
/var/tmp/pbs.5076255.sched01/tmpnszqc94g/84e4epk0lh.sdf

>  <i_m_source_file_index>  (238) 
27

>  <i_lp_mmshare_version>  (238) 
48012

>  <i_f3d_flags>  (238) 
0

>  <s_epik_input>  (238) 
bjFuW2NIXW5jKGMxMilbY0hdYzNjKFtjSF0yKVtuSF1bY0hdbjM=

>  <s_epik_cmdline>  (238) 
J2VwaWtfcHl0aG9uJywgJy1waHQnLCAnMi4wJywgJy1waCcsICc3LjAnLCAnLXRuJywgJzgnLCAnLW1hJywgJzIwMCcsICctaW1hZScsICc8aW5maWxlLm1hZT4nLCAnLW9tYWUnLCAnPG91dGZpbGUubWFlPic=

>  <r_epik_Ionization_Penalty>  (238) 
0.00082935

>  <r_epik_Ionization_Penalty_Charging>  (238) 
0

>  <r_epik_Ionization_Penalty_Neutral>  (238) 
0.00082935

>  <r_epik_State_Penalty>  (238) 
0.513953

>  <r_epik_Charging_Adjusted_Penalty>  (238) 
0.513953

>  <i_epik_Tot_Q>  (238) 
0

>  <i_epik_Tot_abs_Q>  (238) 
0

>  <s_lp_Force_Field>  (238) 
OPLS3e

>  <r_lp_Energy>  (238) 
21.3795

>  <b_lp_Chiralities_Consistent>  (238) 
1

>  <s_lp_Variant>  (238) 
79:0-2

>  <s_i_glide_gridfile>  (238) 
pfpi4k_grid

>  <i_i_glide_lignum>  (238) 
27

>  <i_i_glide_rotatable_bonds>  (238) 
0

>  <r_i_docking_score>  (238) 
-4.01208

>  <r_i_glide_ligand_efficiency>  (238) 
-0.308622

>  <r_i_glide_ligand_efficiency_sa>  (238) 
-0.725673

>  <r_i_glide_ligand_efficiency_ln>  (238) 
-1.12542

>  <r_i_glide_gscore>  (238) 
-4.01208

>  <r_i_glide_lipo>  (238) 
0

>  <r_i_glide_hbond>  (238) 
-0.16

>  <r_i_glide_metal>  (238) 
-0

>  <r_i_glide_rewards>  (238) 
-2.28365

>  <r_i_glide_evdw>  (238) 
-14.1191

>  <r_i_glide_ecoul>  (238) 
-4.40474

>  <r_i_glide_erotb>  (238) 
0

>  <r_i_glide_esite>  (238) 
-0.201768

>  <r_i_glide_emodel>  (238) 
-24.9293

>  <r_i_glide_energy>  (238) 
-18.5238

>  <r_i_glide_einternal>  (238) 
0

>  <r_i_glide_intrahb_reward>  (238) 
-0

>  <i_i_glide_confnum>  (238) 
2

>  <i_i_glide_posenum>  (238) 
7

>  <r_i_glide_eff_state_penalty>  (238) 
0

>  <ligand_id>  (238) 
79

>  <original_smiles>  (238) 
c1nnc2cc3[nH]cnc3cc2n1

>  <smiles>  (238) 
[H]c1nnc2c([H])c3c(nc([H])n3[H])c([H])c2n1

$$$$
79:1:1
     RDKit          3D

 18 20  0  0  1  0  0  0  0  0999 V2000
    0.8436   -5.7618    8.2889 C   0  0  0  0  0  0  0  0  0  0  0  0
    0.9213   -7.0141    8.7518 N   0  0  0  0  0  0  0  0  0  0  0  0
    0.6604   -8.0129    7.8971 N   0  0  0  0  0  0  0  0  0  0  0  0
    0.3193   -7.7379    6.6122 C   0  0  0  0  0  0  0  0  0  0  0  0
    0.0327   -8.7724    5.6983 C   0  0  0  0  0  0  0  0  0  0  0  0
   -0.3457   -8.4580    4.3817 C   0  0  0  0  0  0  0  0  0  0  0  0
   -0.6917   -9.2123    3.2731 N   0  0  0  0  0  0  0  0  0  0  0  0
   -0.9668   -8.3400    2.2906 C   0  0  0  0  0  0  0  0  0  0  0  0
   -0.8518   -7.0521    2.6023 N   0  0  0  0  0  0  0  0  0  0  0  0
   -0.4524   -7.1139    3.9311 C   0  0  0  0  0  0  0  0  0  0  0  0
   -0.1545   -6.0854    4.8534 C   0  0  0  0  0  0  0  0  0  0  0  0
    0.2247   -6.3823    6.1820 C   0  0  0  0  0  0  0  0  0  0  0  0
    0.4931   -5.3891    7.0577 N   0  0  0  0  0  0  0  0  0  0  0  0
   -0.7608  -10.2198    3.2052 H   0  0  0  0  0  0  0  0  0  0  0  0
    1.0664   -4.9703    8.9885 H   0  0  0  0  0  0  0  0  0  0  0  0
    0.0807   -9.8042    6.0104 H   0  0  0  0  0  0  0  0  0  0  0  0
   -1.2645   -8.6582    1.3027 H   0  0  0  0  0  0  0  0  0  0  0  0
   -0.2159   -5.0534    4.5377 H   0  0  0  0  0  0  0  0  0  0  0  0
  1 13  2  0
  1  2  1  0
  1 15  1  0
  2  3  2  0
  3  4  1  0
  4 12  2  0
  4  5  1  0
  5  6  2  0
  5 16  1  0
  6 10  1  0
  6  7  1  0
  7 14  1  0
  7  8  1  0
  8  9  2  0
  8 17  1  0
  9 10  1  0
 10 11  2  0
 11 12  1  0
 11 18  1  0
 12 13  1  0
M  END
>  <i_m_ct_stereo_status>  (239) 
1

>  <s_m_source_file>  (239) 
/var/tmp/pbs.5076255.sched01/tmpnszqc94g/84e4epk0lh.sdf

>  <i_m_source_file_index>  (239) 
27

>  <i_lp_mmshare_version>  (239) 
48012

>  <i_f3d_flags>  (239) 
0

>  <s_epik_input>  (239) 
bjFuW2NIXW5jKGMxMilbY0hdYzNjKFtjSF0yKVtuSF1bY0hdbjM=

>  <s_epik_cmdline>  (239) 
J2VwaWtfcHl0aG9uJywgJy1waHQnLCAnMi4wJywgJy1waCcsICc3LjAnLCAnLXRuJywgJzgnLCAnLW1hJywgJzIwMCcsICctaW1hZScsICc8aW5maWxlLm1hZT4nLCAnLW9tYWUnLCAnPG91dGZpbGUubWFlPic=

>  <r_epik_Ionization_Penalty>  (239) 
0.00082935

>  <r_epik_Ionization_Penalty_Charging>  (239) 
0

>  <r_epik_Ionization_Penalty_Neutral>  (239) 
0.00082935

>  <r_epik_State_Penalty>  (239) 
0.513953

>  <r_epik_Charging_Adjusted_Penalty>  (239) 
0.513953

>  <i_epik_Tot_Q>  (239) 
0

>  <i_epik_Tot_abs_Q>  (239) 
0

>  <s_lp_Force_Field>  (239) 
OPLS3e

>  <r_lp_Energy>  (239) 
21.3795

>  <b_lp_Chiralities_Consistent>  (239) 
1

>  <s_lp_Variant>  (239) 
79:0-2

>  <s_i_glide_gridfile>  (239) 
pfpi4k_grid

>  <i_i_glide_lignum>  (239) 
27

>  <i_i_glide_rotatable_bonds>  (239) 
0

>  <r_i_docking_score>  (239) 
-3.96684

>  <r_i_glide_ligand_efficiency>  (239) 
-0.305141

>  <r_i_glide_ligand_efficiency_sa>  (239) 
-0.71749

>  <r_i_glide_ligand_efficiency_ln>  (239) 
-1.11273

>  <r_i_glide_gscore>  (239) 
-3.96684

>  <r_i_glide_lipo>  (239) 
0

>  <r_i_glide_hbond>  (239) 
-0.16

>  <r_i_glide_metal>  (239) 
-0

>  <r_i_glide_rewards>  (239) 
-2.2421

>  <r_i_glide_evdw>  (239) 
-14.1994

>  <r_i_glide_ecoul>  (239) 
-4.71443

>  <r_i_glide_erotb>  (239) 
0

>  <r_i_glide_esite>  (239) 
-0.147606

>  <r_i_glide_emodel>  (239) 
-25.2627

>  <r_i_glide_energy>  (239) 
-18.9138

>  <r_i_glide_einternal>  (239) 
0

>  <r_i_glide_intrahb_reward>  (239) 
-0

>  <i_i_glide_confnum>  (239) 
1

>  <i_i_glide_posenum>  (239) 
3

>  <r_i_glide_eff_state_penalty>  (239) 
0

>  <ligand_id>  (239) 
79

>  <original_smiles>  (239) 
c1nnc2cc3[nH]cnc3cc2n1

>  <smiles>  (239) 
[H]c1nnc2c([H])c3c(nc([H])n3[H])c([H])c2n1

$$$$
79:1:2
     RDKit          3D

 18 20  0  0  1  0  0  0  0  0999 V2000
    3.2502   -1.5037   -3.6931 C   0  0  0  0  0  0  0  0  0  0  0  0
    4.2145   -0.7449   -3.1605 N   0  0  0  0  0  0  0  0  0  0  0  0
    4.5944   -1.0119   -1.9035 N   0  0  0  0  0  0  0  0  0  0  0  0
    3.9927   -2.0132   -1.2104 C   0  0  0  0  0  0  0  0  0  0  0  0
    4.3566   -2.2939    0.1226 C   0  0  0  0  0  0  0  0  0  0  0  0
    3.7329   -3.3475    0.8141 C   0  0  0  0  0  0  0  0  0  0  0  0
    3.8604   -3.8777    2.0883 N   0  0  0  0  0  0  0  0  0  0  0  0
    2.9811   -4.8907    2.1608 C   0  0  0  0  0  0  0  0  0  0  0  0
    2.2472   -5.1187    1.0743 N   0  0  0  0  0  0  0  0  0  0  0  0
    2.7209   -4.1435    0.2074 C   0  0  0  0  0  0  0  0  0  0  0  0
    2.3542   -3.8442   -1.1200 C   0  0  0  0  0  0  0  0  0  0  0  0
    2.9844   -2.8029   -1.8385 C   0  0  0  0  0  0  0  0  0  0  0  0
    2.6385   -2.5361   -3.1165 N   0  0  0  0  0  0  0  0  0  0  0  0
    4.4743   -3.5847    2.8339 H   0  0  0  0  0  0  0  0  0  0  0  0
    2.9828   -1.2867   -4.7165 H   0  0  0  0  0  0  0  0  0  0  0  0
    5.1165   -1.7023    0.6088 H   0  0  0  0  0  0  0  0  0  0  0  0
    2.8656   -5.4862    3.0543 H   0  0  0  0  0  0  0  0  0  0  0  0
    1.5909   -4.4340   -1.6062 H   0  0  0  0  0  0  0  0  0  0  0  0
  1 13  2  0
  1  2  1  0
  1 15  1  0
  2  3  2  0
  3  4  1  0
  4 12  2  0
  4  5  1  0
  5  6  2  0
  5 16  1  0
  6 10  1  0
  6  7  1  0
  7 14  1  0
  7  8  1  0
  8  9  2  0
  8 17  1  0
  9 10  1  0
 10 11  2  0
 11 12  1  0
 11 18  1  0
 12 13  1  0
M  END
>  <i_m_ct_stereo_status>  (240) 
1

>  <s_m_source_file>  (240) 
/var/tmp/pbs.5076255.sched01/tmpnszqc94g/84e4epk0lh.sdf

>  <i_m_source_file_index>  (240) 
27

>  <i_lp_mmshare_version>  (240) 
48012

>  <i_f3d_flags>  (240) 
0

>  <s_epik_input>  (240) 
bjFuW2NIXW5jKGMxMilbY0hdYzNjKFtjSF0yKVtuSF1bY0hdbjM=

>  <s_epik_cmdline>  (240) 
J2VwaWtfcHl0aG9uJywgJy1waHQnLCAnMi4wJywgJy1waCcsICc3LjAnLCAnLXRuJywgJzgnLCAnLW1hJywgJzIwMCcsICctaW1hZScsICc8aW5maWxlLm1hZT4nLCAnLW9tYWUnLCAnPG91dGZpbGUubWFlPic=

>  <r_epik_Ionization_Penalty>  (240) 
0.00082935

>  <r_epik_Ionization_Penalty_Charging>  (240) 
0

>  <r_epik_Ionization_Penalty_Neutral>  (240) 
0.00082935

>  <r_epik_State_Penalty>  (240) 
0.513953

>  <r_epik_Charging_Adjusted_Penalty>  (240) 
0.513953

>  <i_epik_Tot_Q>  (240) 
0

>  <i_epik_Tot_abs_Q>  (240) 
0

>  <s_lp_Force_Field>  (240) 
OPLS3e

>  <r_lp_Energy>  (240) 
21.3795

>  <b_lp_Chiralities_Consistent>  (240) 
1

>  <s_lp_Variant>  (240) 
79:0-2

>  <s_i_glide_gridfile>  (240) 
pfpi4k_grid

>  <i_i_glide_lignum>  (240) 
27

>  <i_i_glide_rotatable_bonds>  (240) 
0

>  <r_i_docking_score>  (240) 
-3.62654

>  <r_i_glide_ligand_efficiency>  (240) 
-0.278964

>  <r_i_glide_ligand_efficiency_sa>  (240) 
-0.655939

>  <r_i_glide_ligand_efficiency_ln>  (240) 
-1.01728

>  <r_i_glide_gscore>  (240) 
-3.62654

>  <r_i_glide_lipo>  (240) 
-0.00157329

>  <r_i_glide_hbond>  (240) 
-0.00936498

>  <r_i_glide_metal>  (240) 
-0

>  <r_i_glide_rewards>  (240) 
-2.52713

>  <r_i_glide_evdw>  (240) 
-18.2247

>  <r_i_glide_ecoul>  (240) 
-0.896751

>  <r_i_glide_erotb>  (240) 
0

>  <r_i_glide_esite>  (240) 
-0.0427267

>  <r_i_glide_emodel>  (240) 
-24.9262

>  <r_i_glide_energy>  (240) 
-19.1215

>  <r_i_glide_einternal>  (240) 
0

>  <r_i_glide_intrahb_reward>  (240) 
-0

>  <i_i_glide_confnum>  (240) 
1

>  <i_i_glide_posenum>  (240) 
6

>  <r_i_glide_eff_state_penalty>  (240) 
0

>  <ligand_id>  (240) 
79

>  <original_smiles>  (240) 
c1nnc2cc3[nH]cnc3cc2n1

>  <smiles>  (240) 
[H]c1nnc2c([H])c3c(nc([H])n3[H])c([H])c2n1

$$$$
80:0:0
     RDKit          3D

 45 48  0  0  1  0  0  0  0  0999 V2000
    7.9327   -3.2337   -1.3770 C   0  0  0  0  0  0  0  0  0  0  0  0
    6.5646   -2.7499   -0.8691 C   0  0  2  0  0  0  0  0  0  0  0  0
    6.0279   -2.0067   -1.9485 O   0  0  0  0  0  0  0  0  0  0  0  0
    4.6256   -2.2181   -2.0644 C   0  0  2  0  0  0  0  0  0  0  0  0
    4.2224   -2.0450   -3.5393 C   0  0  0  0  0  0  0  0  0  0  0  0
    4.5234   -0.7159   -3.9400 O   0  0  0  0  0  0  0  0  0  0  0  0
    3.7788   -0.1393   -4.9943 C   0  0  0  0  0  0  0  0  0  0  0  0
    2.3443    0.0405   -4.5417 C   0  0  0  0  0  0  0  0  0  0  0  0
    1.7503    1.1692   -5.1216 O   0  0  0  0  0  0  0  0  0  0  0  0
    3.8310   -1.2475   -1.1783 C   0  0  0  0  0  0  0  0  0  0  0  0
    4.3156   -0.9821    0.2633 C   0  0  1  0  0  0  0  0  0  0  0  0
    3.9591   -2.0428    1.3379 C   0  0  0  0  0  0  0  0  0  0  0  0
    5.0696   -3.0722    1.6696 C   0  0  2  0  0  0  0  0  0  0  0  0
    6.4753   -2.4636    1.6675 C   0  0  0  0  0  0  0  0  0  0  0  0
    6.7215   -1.7708    0.3368 C   0  0  2  0  0  0  0  0  0  0  0  0
    5.7891   -0.5588    0.3053 C   0  0  0  0  0  0  0  0  0  0  0  0
    5.1065   -4.2803    0.7389 C   0  0  0  0  0  0  0  0  0  0  0  0
    5.5437   -3.9212   -0.6848 C   0  0  1  0  0  0  0  0  0  0  0  0
    4.4084   -3.6499   -1.6347 C   0  0  0  0  0  0  0  0  0  0  0  0
    8.4554   -3.8265   -0.6274 H   0  0  0  0  0  0  0  0  0  0  0  0
    8.5772   -2.3987   -1.6486 H   0  0  0  0  0  0  0  0  0  0  0  0
    7.8276   -3.8388   -2.2760 H   0  0  0  0  0  0  0  0  0  0  0  0
    4.7488   -2.7332   -4.1965 H   0  0  0  0  0  0  0  0  0  0  0  0
    3.1673   -2.2899   -3.6200 H   0  0  0  0  0  0  0  0  0  0  0  0
    4.2287    0.8272   -5.2214 H   0  0  0  0  0  0  0  0  0  0  0  0
    3.8179   -0.7236   -5.9084 H   0  0  0  0  0  0  0  0  0  0  0  0
    1.8168   -0.8743   -4.7664 H   0  0  0  0  0  0  0  0  0  0  0  0
    2.3029    0.1563   -3.4587 H   0  0  0  0  0  0  0  0  0  0  0  0
    1.8462    1.8548   -4.4891 H   0  0  0  0  0  0  0  0  0  0  0  0
    3.8673   -0.2894   -1.6728 H   0  0  0  0  0  0  0  0  0  0  0  0
    2.7851   -1.5389   -1.1765 H   0  0  0  0  0  0  0  0  0  0  0  0
    3.7482   -0.1033    0.5573 H   0  0  0  0  0  0  0  0  0  0  0  0
    3.6899   -1.5272    2.2644 H   0  0  0  0  0  0  0  0  0  0  0  0
    3.0683   -2.5815    1.0256 H   0  0  0  0  0  0  0  0  0  0  0  0
    4.8665   -3.4627    2.6628 H   0  0  0  0  0  0  0  0  0  0  0  0
    6.5822   -1.7425    2.4783 H   0  0  0  0  0  0  0  0  0  0  0  0
    7.2192   -3.2509    1.7833 H   0  0  0  0  0  0  0  0  0  0  0  0
    7.7390   -1.3762    0.3377 H   0  0  0  0  0  0  0  0  0  0  0  0
    6.0274    0.0523   -0.5534 H   0  0  0  0  0  0  0  0  0  0  0  0
    5.9632    0.0744    1.1730 H   0  0  0  0  0  0  0  0  0  0  0  0
    5.8133   -5.0026    1.1556 H   0  0  0  0  0  0  0  0  0  0  0  0
    4.1397   -4.7855    0.7502 H   0  0  0  0  0  0  0  0  0  0  0  0
    5.9634   -4.8412   -1.0459 H   0  0  0  0  0  0  0  0  0  0  0  0
    3.4159   -3.8423   -1.2248 H   0  0  0  0  0  0  0  0  0  0  0  0
    4.5324   -4.3024   -2.4983 H   0  0  0  0  0  0  0  0  0  0  0  0
  2  1  1  6
  1 20  1  0
  1 21  1  0
  1 22  1  0
  2 15  1  0
  2 18  1  0
  2  3  1  0
  3  4  1  0
  4 19  1  0
  4  5  1  6
  4 10  1  0
  5  6  1  0
  5 23  1  0
  5 24  1  0
  6  7  1  0
  7  8  1  0
  7 25  1  0
  7 26  1  0
  8  9  1  0
  8 27  1  0
  8 28  1  0
  9 29  1  0
 10 11  1  0
 10 30  1  0
 10 31  1  0
 11 16  1  0
 11 12  1  0
 11 32  1  1
 12 13  1  0
 12 33  1  0
 12 34  1  0
 13 14  1  0
 13 17  1  0
 13 35  1  1
 14 15  1  0
 14 36  1  0
 14 37  1  0
 15 16  1  0
 15 38  1  1
 16 39  1  0
 16 40  1  0
 17 18  1  0
 17 41  1  0
 17 42  1  0
 18 19  1  0
 18 43  1  6
 19 44  1  0
 19 45  1  0
M  END
>  <i_m_ct_stereo_status>  (241) 
1

>  <s_m_source_file>  (241) 
/var/tmp/pbs.5076255.sched01/tmpnszqc94g/84e4epk0lh.sdf

>  <i_m_source_file_index>  (241) 
28

>  <i_lp_mmshare_version>  (241) 
48012

>  <i_f3d_flags>  (241) 
0

>  <s_epik_input>  (241) 
W0NIM11bQ0BAXTEyW0NAQEhdM1tDSDJdW0NASF00W0NIMl1bQ0BASF0oW0NIMl0zKVtDSDJdW0NAQF0oTzEpKFtDSDJdW0NAQEhdMltDSDJdNClbQ0gyXU9bQ0gyXVtDSDJdW09IXQ==

>  <s_epik_cmdline>  (241) 
J2VwaWtfcHl0aG9uJywgJy1waHQnLCAnMi4wJywgJy1waCcsICc3LjAnLCAnLXRuJywgJzgnLCAnLW1hJywgJzIwMCcsICctaW1hZScsICc8aW5maWxlLm1hZT4nLCAnLW9tYWUnLCAnPG91dGZpbGUubWFlPic=

>  <r_lp_tautomer_probability>  (241) 
1

>  <r_epik_Ionization_Penalty>  (241) 
8.06389e-08

>  <r_epik_Ionization_Penalty_Charging>  (241) 
0

>  <r_epik_Ionization_Penalty_Neutral>  (241) 
8.06389e-08

>  <r_epik_State_Penalty>  (241) 
-0

>  <r_epik_Charging_Adjusted_Penalty>  (241) 
0

>  <i_epik_Tot_Q>  (241) 
0

>  <i_epik_Tot_abs_Q>  (241) 
0

>  <s_lp_Force_Field>  (241) 
OPLS3e

>  <r_lp_Energy>  (241) 
31.223

>  <b_lp_Chiralities_Consistent>  (241) 
1

>  <s_lp_Variant>  (241) 
80:0-1

>  <s_i_glide_gridfile>  (241) 
pfpi4k_grid

>  <i_i_glide_lignum>  (241) 
28

>  <i_i_glide_rotatable_bonds>  (241) 
5

>  <r_i_docking_score>  (241) 
-3.21518

>  <r_i_glide_ligand_efficiency>  (241) 
-0.16922

>  <r_i_glide_ligand_efficiency_sa>  (241) 
-0.451548

>  <r_i_glide_ligand_efficiency_ln>  (241) 
-0.815118

>  <r_i_glide_gscore>  (241) 
-3.21518

>  <r_i_glide_lipo>  (241) 
-0.663927

>  <r_i_glide_hbond>  (241) 
-0.386277

>  <r_i_glide_metal>  (241) 
-0

>  <r_i_glide_rewards>  (241) 
-1.59289

>  <r_i_glide_evdw>  (241) 
-14.1322

>  <r_i_glide_ecoul>  (241) 
-5.7976

>  <r_i_glide_erotb>  (241) 
1.00416

>  <r_i_glide_esite>  (241) 
0

>  <r_i_glide_emodel>  (241) 
-21.8032

>  <r_i_glide_energy>  (241) 
-19.9298

>  <r_i_glide_einternal>  (241) 
4.32602

>  <r_i_glide_intrahb_reward>  (241) 
-0

>  <i_i_glide_confnum>  (241) 
5

>  <i_i_glide_posenum>  (241) 
2

>  <r_i_glide_eff_state_penalty>  (241) 
0

>  <ligand_id>  (241) 
80

>  <original_smiles>  (241) 
CC12OC3(COCCO)CC4CC(CC1C4)CC2C3

>  <smiles>  (241) 
[H]OC([H])([H])C([H])([H])OC([H])([H])C12OC3(C([H])([H])[H])C4([H])C([H])([H])C([H])(C([H])([H])C([H])(C4([H])[H])C1([H])[H])C([H])([H])C3([H])C2([H])[H]

$$$$
80:0:1
     RDKit          3D

 45 48  0  0  1  0  0  0  0  0999 V2000
    4.5586   -4.5697    2.4131 C   0  0  0  0  0  0  0  0  0  0  0  0
    4.5776   -3.4880    1.3231 C   0  0  2  0  0  0  0  0  0  0  0  0
    3.6950   -2.4832    1.8011 O   0  0  0  0  0  0  0  0  0  0  0  0
    4.1741   -1.1838    1.4507 C   0  0  2  0  0  0  0  0  0  0  0  0
    3.6163   -0.1964    2.5015 C   0  0  0  0  0  0  0  0  0  0  0  0
    2.2171   -0.0177    2.3268 O   0  0  0  0  0  0  0  0  0  0  0  0
    1.7089    1.2129    2.8075 C   0  0  0  0  0  0  0  0  0  0  0  0
    0.2223    1.3085    2.4395 C   0  0  0  0  0  0  0  0  0  0  0  0
   -0.3108    2.5452    2.8727 O   0  0  0  0  0  0  0  0  0  0  0  0
    3.7408   -0.7519    0.0352 C   0  0  0  0  0  0  0  0  0  0  0  0
    3.8244   -1.7691   -1.1212 C   0  0  1  0  0  0  0  0  0  0  0  0
    5.2188   -1.9949   -1.7593 C   0  0  0  0  0  0  0  0  0  0  0  0
    6.0146   -3.2353   -1.2615 C   0  0  2  0  0  0  0  0  0  0  0  0
    5.1153   -4.4502   -1.0087 C   0  0  0  0  0  0  0  0  0  0  0  0
    4.0103   -4.0442   -0.0300 C   0  0  2  0  0  0  0  0  0  0  0  0
    3.0903   -3.0687   -0.7793 C   0  0  0  0  0  0  0  0  0  0  0  0
    6.8314   -2.9974    0.0091 C   0  0  0  0  0  0  0  0  0  0  0  0
    5.9655   -2.7736    1.2607 C   0  0  1  0  0  0  0  0  0  0  0  0
    5.6889   -1.3122    1.5569 C   0  0  0  0  0  0  0  0  0  0  0  0
    5.2068   -5.4074    2.1619 H   0  0  0  0  0  0  0  0  0  0  0  0
    3.5496   -4.9533    2.5563 H   0  0  0  0  0  0  0  0  0  0  0  0
    4.8850   -4.1629    3.3686 H   0  0  0  0  0  0  0  0  0  0  0  0
    3.8016   -0.5483    3.5146 H   0  0  0  0  0  0  0  0  0  0  0  0
    4.1406    0.7512    2.3923 H   0  0  0  0  0  0  0  0  0  0  0  0
    1.8510    1.2766    3.8860 H   0  0  0  0  0  0  0  0  0  0  0  0
    2.2504    2.0381    2.3469 H   0  0  0  0  0  0  0  0  0  0  0  0
    0.0797    1.2170    1.3625 H   0  0  0  0  0  0  0  0  0  0  0  0
   -0.3385    0.5036    2.9131 H   0  0  0  0  0  0  0  0  0  0  0  0
   -0.1214    3.2076    2.2134 H   0  0  0  0  0  0  0  0  0  0  0  0
    2.6872   -0.4775    0.0799 H   0  0  0  0  0  0  0  0  0  0  0  0
    4.2626    0.1575   -0.2510 H   0  0  0  0  0  0  0  0  0  0  0  0
    3.2370   -1.2972   -1.9059 H   0  0  0  0  0  0  0  0  0  0  0  0
    5.0906   -2.0902   -2.8392 H   0  0  0  0  0  0  0  0  0  0  0  0
    5.8217   -1.1033   -1.6090 H   0  0  0  0  0  0  0  0  0  0  0  0
    6.7294   -3.4837   -2.0460 H   0  0  0  0  0  0  0  0  0  0  0  0
    4.6757   -4.7878   -1.9474 H   0  0  0  0  0  0  0  0  0  0  0  0
    5.6821   -5.2876   -0.6012 H   0  0  0  0  0  0  0  0  0  0  0  0
    3.4020   -4.9249    0.1870 H   0  0  0  0  0  0  0  0  0  0  0  0
    2.2038   -2.8508   -0.1879 H   0  0  0  0  0  0  0  0  0  0  0  0
    2.7276   -3.5394   -1.6967 H   0  0  0  0  0  0  0  0  0  0  0  0
    7.4569   -3.8789    0.1623 H   0  0  0  0  0  0  0  0  0  0  0  0
    7.5340   -2.1796   -0.1555 H   0  0  0  0  0  0  0  0  0  0  0  0
    6.5796   -3.1226    2.0840 H   0  0  0  0  0  0  0  0  0  0  0  0
    6.2223   -0.6144    0.9094 H   0  0  0  0  0  0  0  0  0  0  0  0
    6.0080   -1.1025    2.5772 H   0  0  0  0  0  0  0  0  0  0  0  0
  2  1  1  1
  1 20  1  0
  1 21  1  0
  1 22  1  0
  2 15  1  0
  2 18  1  0
  2  3  1  0
  3  4  1  0
  4 19  1  0
  4  5  1  1
  4 10  1  0
  5  6  1  0
  5 23  1  0
  5 24  1  0
  6  7  1  0
  7  8  1  0
  7 25  1  0
  7 26  1  0
  8  9  1  0
  8 27  1  0
  8 28  1  0
  9 29  1  0
 10 11  1  0
 10 30  1  0
 10 31  1  0
 11 16  1  0
 11 12  1  0
 11 32  1  6
 12 13  1  0
 12 33  1  0
 12 34  1  0
 13 14  1  0
 13 17  1  0
 13 35  1  6
 14 15  1  0
 14 36  1  0
 14 37  1  0
 15 16  1  0
 15 38  1  1
 16 39  1  0
 16 40  1  0
 17 18  1  0
 17 41  1  0
 17 42  1  0
 18 19  1  0
 18 43  1  1
 19 44  1  0
 19 45  1  0
M  END
>  <i_m_ct_stereo_status>  (242) 
1

>  <s_m_source_file>  (242) 
/var/tmp/pbs.5076255.sched01/tmpnszqc94g/84e4epk0lh.sdf

>  <i_m_source_file_index>  (242) 
28

>  <i_lp_mmshare_version>  (242) 
48012

>  <i_f3d_flags>  (242) 
0

>  <s_epik_input>  (242) 
W0NIM11bQ0BAXTEyW0NAQEhdM1tDSDJdW0NASF00W0NIMl1bQ0BASF0oW0NIMl0zKVtDSDJdW0NAQF0oTzEpKFtDSDJdW0NAQEhdMltDSDJdNClbQ0gyXU9bQ0gyXVtDSDJdW09IXQ==

>  <s_epik_cmdline>  (242) 
J2VwaWtfcHl0aG9uJywgJy1waHQnLCAnMi4wJywgJy1waCcsICc3LjAnLCAnLXRuJywgJzgnLCAnLW1hJywgJzIwMCcsICctaW1hZScsICc8aW5maWxlLm1hZT4nLCAnLW9tYWUnLCAnPG91dGZpbGUubWFlPic=

>  <r_lp_tautomer_probability>  (242) 
1

>  <r_epik_Ionization_Penalty>  (242) 
8.06389e-08

>  <r_epik_Ionization_Penalty_Charging>  (242) 
0

>  <r_epik_Ionization_Penalty_Neutral>  (242) 
8.06389e-08

>  <r_epik_State_Penalty>  (242) 
-0

>  <r_epik_Charging_Adjusted_Penalty>  (242) 
0

>  <i_epik_Tot_Q>  (242) 
0

>  <i_epik_Tot_abs_Q>  (242) 
0

>  <s_lp_Force_Field>  (242) 
OPLS3e

>  <r_lp_Energy>  (242) 
31.223

>  <b_lp_Chiralities_Consistent>  (242) 
1

>  <s_lp_Variant>  (242) 
80:0-1

>  <s_i_glide_gridfile>  (242) 
pfpi4k_grid

>  <i_i_glide_lignum>  (242) 
28

>  <i_i_glide_rotatable_bonds>  (242) 
5

>  <r_i_docking_score>  (242) 
-2.55787

>  <r_i_glide_ligand_efficiency>  (242) 
-0.134625

>  <r_i_glide_ligand_efficiency_sa>  (242) 
-0.359232

>  <r_i_glide_ligand_efficiency_ln>  (242) 
-0.648474

>  <r_i_glide_gscore>  (242) 
-2.55787

>  <r_i_glide_lipo>  (242) 
-0.503354

>  <r_i_glide_hbond>  (242) 
-0.16

>  <r_i_glide_metal>  (242) 
-0

>  <r_i_glide_rewards>  (242) 
-1.59289

>  <r_i_glide_evdw>  (242) 
-17.2189

>  <r_i_glide_ecoul>  (242) 
-2.96558

>  <r_i_glide_erotb>  (242) 
1.00416

>  <r_i_glide_esite>  (242) 
0

>  <r_i_glide_emodel>  (242) 
-22.7888

>  <r_i_glide_energy>  (242) 
-20.1845

>  <r_i_glide_einternal>  (242) 
1.73215

>  <r_i_glide_intrahb_reward>  (242) 
-0

>  <i_i_glide_confnum>  (242) 
1

>  <i_i_glide_posenum>  (242) 
28

>  <r_i_glide_eff_state_penalty>  (242) 
0

>  <ligand_id>  (242) 
80

>  <original_smiles>  (242) 
CC12OC3(COCCO)CC4CC(CC1C4)CC2C3

>  <smiles>  (242) 
[H]OC([H])([H])C([H])([H])OC([H])([H])C12OC3(C([H])([H])[H])C4([H])C([H])([H])C([H])(C([H])([H])C([H])(C4([H])[H])C1([H])[H])C([H])([H])C3([H])C2([H])[H]

$$$$
80:0:2
     RDKit          3D

 45 48  0  0  1  0  0  0  0  0999 V2000
    7.9309   -2.9483   -1.2137 C   0  0  0  0  0  0  0  0  0  0  0  0
    6.5315   -2.6889   -0.6295 C   0  0  2  0  0  0  0  0  0  0  0  0
    5.9502   -1.7129   -1.4724 O   0  0  0  0  0  0  0  0  0  0  0  0
    4.5581   -1.9785   -1.6313 C   0  0  2  0  0  0  0  0  0  0  0  0
    4.1579   -1.4106   -2.9961 C   0  0  0  0  0  0  0  0  0  0  0  0
    4.2320    0.0037   -2.9671 O   0  0  0  0  0  0  0  0  0  0  0  0
    3.8828    0.6560   -4.1701 C   0  0  0  0  0  0  0  0  0  0  0  0
    2.4217    0.4043   -4.4906 C   0  0  0  0  0  0  0  0  0  0  0  0
    1.9978    1.3464   -5.4064 O   0  0  0  0  0  0  0  0  0  0  0  0
    3.7090   -1.3680   -0.4954 C   0  0  0  0  0  0  0  0  0  0  0  0
    4.1814   -1.5027    0.9609 C   0  0  1  0  0  0  0  0  0  0  0  0
    3.8991   -2.8622    1.6534 C   0  0  0  0  0  0  0  0  0  0  0  0
    5.0715   -3.8676    1.6894 C   0  0  2  0  0  0  0  0  0  0  0  0
    6.4039   -3.1612    1.8972 C   0  0  0  0  0  0  0  0  0  0  0  0
    6.6309   -2.1034    0.8118 C   0  0  2  0  0  0  0  0  0  0  0  0
    5.6200   -0.9919    1.1131 C   0  0  0  0  0  0  0  0  0  0  0  0
    5.1908   -4.7292    0.4445 C   0  0  0  0  0  0  0  0  0  0  0  0
    5.6068   -3.9373   -0.8104 C   0  0  1  0  0  0  0  0  0  0  0  0
    4.4395   -3.4835   -1.6494 C   0  0  0  0  0  0  0  0  0  0  0  0
    8.4769   -3.7048   -0.6508 H   0  0  0  0  0  0  0  0  0  0  0  0
    8.5447   -2.0475   -1.2242 H   0  0  0  0  0  0  0  0  0  0  0  0
    7.8596   -3.2921   -2.2455 H   0  0  0  0  0  0  0  0  0  0  0  0
    4.8008   -1.7944   -3.7875 H   0  0  0  0  0  0  0  0  0  0  0  0
    3.1377   -1.7467   -3.1829 H   0  0  0  0  0  0  0  0  0  0  0  0
    4.0486    1.7175   -4.0000 H   0  0  0  0  0  0  0  0  0  0  0  0
    4.5166    0.3708   -5.0080 H   0  0  0  0  0  0  0  0  0  0  0  0
    2.2275   -0.5939   -4.8632 H   0  0  0  0  0  0  0  0  0  0  0  0
    1.8254    0.5506   -3.5866 H   0  0  0  0  0  0  0  0  0  0  0  0
    1.0614    1.2688   -5.4860 H   0  0  0  0  0  0  0  0  0  0  0  0
    3.6854   -0.3031   -0.6401 H   0  0  0  0  0  0  0  0  0  0  0  0
    2.6839   -1.7347   -0.5777 H   0  0  0  0  0  0  0  0  0  0  0  0
    3.5507   -0.7915    1.4861 H   0  0  0  0  0  0  0  0  0  0  0  0
    3.5939   -2.6602    2.6866 H   0  0  0  0  0  0  0  0  0  0  0  0
    3.0416   -3.3388    1.1896 H   0  0  0  0  0  0  0  0  0  0  0  0
    4.9049   -4.5414    2.5281 H   0  0  0  0  0  0  0  0  0  0  0  0
    6.3508   -2.6874    2.8897 H   0  0  0  0  0  0  0  0  0  0  0  0
    7.2209   -3.8844    1.8711 H   0  0  0  0  0  0  0  0  0  0  0  0
    7.6202   -1.6582    0.9371 H   0  0  0  0  0  0  0  0  0  0  0  0
    5.7925   -0.1250    0.4747 H   0  0  0  0  0  0  0  0  0  0  0  0
    5.7692   -0.6273    2.1355 H   0  0  0  0  0  0  0  0  0  0  0  0
    5.9465   -5.4945    0.6307 H   0  0  0  0  0  0  0  0  0  0  0  0
    4.2699   -5.2856    0.2872 H   0  0  0  0  0  0  0  0  0  0  0  0
    6.1260   -4.6243   -1.4532 H   0  0  0  0  0  0  0  0  0  0  0  0
    3.4680   -3.8412   -1.3216 H   0  0  0  0  0  0  0  0  0  0  0  0
    4.5868   -3.8696   -2.6511 H   0  0  0  0  0  0  0  0  0  0  0  0
  2  1  1  6
  1 20  1  0
  1 21  1  0
  1 22  1  0
  2 15  1  0
  2 18  1  0
  2  3  1  0
  3  4  1  0
  4 19  1  0
  4  5  1  6
  4 10  1  0
  5  6  1  0
  5 23  1  0
  5 24  1  0
  6  7  1  0
  7  8  1  0
  7 25  1  0
  7 26  1  0
  8  9  1  0
  8 27  1  0
  8 28  1  0
  9 29  1  0
 10 11  1  0
 10 30  1  0
 10 31  1  0
 11 16  1  0
 11 12  1  0
 11 32  1  1
 12 13  1  0
 12 33  1  0
 12 34  1  0
 13 14  1  0
 13 17  1  0
 13 35  1  1
 14 15  1  0
 14 36  1  0
 14 37  1  0
 15 16  1  0
 15 38  1  1
 16 39  1  0
 16 40  1  0
 17 18  1  0
 17 41  1  0
 17 42  1  0
 18 19  1  0
 18 43  1  6
 19 44  1  0
 19 45  1  0
M  END
>  <i_m_ct_stereo_status>  (243) 
1

>  <s_m_source_file>  (243) 
/var/tmp/pbs.5076255.sched01/tmpnszqc94g/84e4epk0lh.sdf

>  <i_m_source_file_index>  (243) 
28

>  <i_lp_mmshare_version>  (243) 
48012

>  <i_f3d_flags>  (243) 
0

>  <s_epik_input>  (243) 
W0NIM11bQ0BAXTEyW0NAQEhdM1tDSDJdW0NASF00W0NIMl1bQ0BASF0oW0NIMl0zKVtDSDJdW0NAQF0oTzEpKFtDSDJdW0NAQEhdMltDSDJdNClbQ0gyXU9bQ0gyXVtDSDJdW09IXQ==

>  <s_epik_cmdline>  (243) 
J2VwaWtfcHl0aG9uJywgJy1waHQnLCAnMi4wJywgJy1waCcsICc3LjAnLCAnLXRuJywgJzgnLCAnLW1hJywgJzIwMCcsICctaW1hZScsICc8aW5maWxlLm1hZT4nLCAnLW9tYWUnLCAnPG91dGZpbGUubWFlPic=

>  <r_lp_tautomer_probability>  (243) 
1

>  <r_epik_Ionization_Penalty>  (243) 
8.06389e-08

>  <r_epik_Ionization_Penalty_Charging>  (243) 
0

>  <r_epik_Ionization_Penalty_Neutral>  (243) 
8.06389e-08

>  <r_epik_State_Penalty>  (243) 
-0

>  <r_epik_Charging_Adjusted_Penalty>  (243) 
0

>  <i_epik_Tot_Q>  (243) 
0

>  <i_epik_Tot_abs_Q>  (243) 
0

>  <s_lp_Force_Field>  (243) 
OPLS3e

>  <r_lp_Energy>  (243) 
31.223

>  <b_lp_Chiralities_Consistent>  (243) 
1

>  <s_lp_Variant>  (243) 
80:0-1

>  <s_i_glide_gridfile>  (243) 
pfpi4k_grid

>  <i_i_glide_lignum>  (243) 
28

>  <i_i_glide_rotatable_bonds>  (243) 
5

>  <r_i_docking_score>  (243) 
-1.80746

>  <r_i_glide_ligand_efficiency>  (243) 
-0.0951293

>  <r_i_glide_ligand_efficiency_sa>  (243) 
-0.253843

>  <r_i_glide_ligand_efficiency_ln>  (243) 
-0.458229

>  <r_i_glide_gscore>  (243) 
-1.80746

>  <r_i_glide_lipo>  (243) 
-0.381416

>  <r_i_glide_hbond>  (243) 
-0.0944324

>  <r_i_glide_metal>  (243) 
-0

>  <r_i_glide_rewards>  (243) 
-1.59289

>  <r_i_glide_evdw>  (243) 
-8.91525

>  <r_i_glide_ecoul>  (243) 
-1.98078

>  <r_i_glide_erotb>  (243) 
1.00416

>  <r_i_glide_esite>  (243) 
0

>  <r_i_glide_emodel>  (243) 
-12.3061

>  <r_i_glide_energy>  (243) 
-10.896

>  <r_i_glide_einternal>  (243) 
1.6571

>  <r_i_glide_intrahb_reward>  (243) 
-0

>  <i_i_glide_confnum>  (243) 
5

>  <i_i_glide_posenum>  (243) 
8

>  <r_i_glide_eff_state_penalty>  (243) 
0

>  <ligand_id>  (243) 
80

>  <original_smiles>  (243) 
CC12OC3(COCCO)CC4CC(CC1C4)CC2C3

>  <smiles>  (243) 
[H]OC([H])([H])C([H])([H])OC([H])([H])C12OC3(C([H])([H])[H])C4([H])C([H])([H])C([H])(C([H])([H])C([H])(C4([H])[H])C1([H])[H])C([H])([H])C3([H])C2([H])[H]

$$$$
81:0:0
     RDKit          3D

111118  0  0  1  0  0  0  0  0999 V2000
    0.9065  -11.8905    4.3482 C   0  0  0  0  0  0  0  0  0  0  0  0
    1.2742  -10.3987    4.2660 C   0  0  0  0  0  0  0  0  0  0  0  0
    0.6855   -9.9729    2.8973 C   0  0  0  0  0  0  0  0  0  0  0  0
    0.4709   -9.6377    5.3605 C   0  0  1  0  0  0  0  0  0  0  0  0
    0.3686  -10.2170    6.6498 O   0  0  0  0  0  0  0  0  0  0  0  0
    0.5972   -8.1059    5.4777 C   0  0  0  0  0  0  0  0  0  0  0  0
    1.7899   -7.4458    6.2251 C   0  0  0  0  0  0  0  0  0  0  0  0
    3.2960   -7.3984    5.6853 C   0  0  2  0  0  0  0  0  0  0  0  0
    3.7276   -5.9538    6.0708 C   0  0  0  0  0  0  0  0  0  0  0  0
    3.3022   -7.6078    4.0791 C   0  0  2  0  0  0  0  0  0  0  0  0
    3.5540   -9.0763    3.6011 C   0  0  2  0  0  0  0  0  0  0  0  0
    2.8523  -10.2908    4.2857 C   0  0  1  0  0  0  0  0  0  0  0  0
    3.5840  -10.7731    5.5423 C   0  0  0  0  0  0  0  0  0  0  0  0
    3.6260   -9.8086    6.7069 C   0  0  0  0  0  0  0  0  0  0  0  0
    4.2496   -8.3826    6.5582 C   0  0  2  0  0  0  0  0  0  0  0  0
    4.2498   -7.9799    8.0871 C   0  0  0  0  0  0  0  0  0  0  0  0
    5.7999   -8.3201    6.2183 C   0  0  1  0  0  0  0  0  0  0  0  0
    6.8327   -9.3292    6.7886 C   0  0  1  0  0  0  0  0  0  0  0  0
    6.4568  -10.4295    7.5856 O   0  0  0  0  0  0  0  0  0  0  0  0
    7.1866   -9.6491    5.3518 C   0  0  0  0  0  0  0  0  0  0  0  0
    6.6556   -8.2620    4.8897 C   0  0  2  0  0  0  0  0  0  0  0  0
    7.8580   -7.2725    5.0581 C   0  0  0  0  0  0  0  0  0  0  0  0
    6.0788   -8.1712    3.3857 C   0  0  1  0  0  0  0  0  0  0  0  0
    7.2380   -8.5504    2.4013 C   0  0  0  0  0  0  0  0  0  0  0  0
    5.0041   -9.2727    3.0500 C   0  0  1  0  0  0  0  0  0  0  0  0
    5.4436  -10.6237    2.9986 O   0  0  0  0  0  0  0  0  0  0  0  0
    5.4780   -6.7658    2.8448 C   0  0  2  0  0  0  0  0  0  0  0  0
    6.2436   -5.4219    3.1282 C   0  0  1  0  0  0  0  0  0  0  0  0
    7.6088   -5.4923    2.7420 O   0  0  0  0  0  0  0  0  0  0  0  0
    5.7457   -4.1417    2.4008 C   0  0  0  0  0  0  0  0  0  0  0  0
    4.2547   -4.1417    2.0531 C   0  0  1  0  0  0  0  0  0  0  0  0
    3.5184   -5.0519    3.0912 C   0  0  1  0  0  0  0  0  0  0  0  0
    2.0071   -4.7398    3.1951 C   0  0  0  0  0  0  0  0  0  0  0  0
    1.7168   -3.2627    3.5417 C   0  0  0  0  0  0  0  0  0  0  0  0
    2.7836   -2.2388    3.0605 C   0  0  2  0  0  0  0  0  0  0  0  0
    3.7343   -2.2058    4.1209 O   0  0  0  0  0  0  0  0  0  0  0  0
    2.2489   -0.7570    2.9901 C   0  0  0  0  0  0  0  0  0  0  0  0
    1.1076   -0.5071    1.9825 C   0  0  0  0  0  0  0  0  0  0  0  0
    1.7093   -0.2622    4.3651 C   0  0  0  0  0  0  0  0  0  0  0  0
    3.3830    0.1666    2.5345 C   0  0  0  0  0  0  0  0  0  0  0  0
    3.3007    1.3396    2.8835 O   0  0  0  0  0  0  0  0  0  0  0  0
    4.4701   -0.3424    1.6766 C   0  0  0  0  0  0  0  0  0  0  0  0
    4.5709   -1.6644    1.3485 C   0  0  0  0  0  0  0  0  0  0  0  0
    3.5946   -2.7338    1.7883 C   0  0  1  0  0  0  0  0  0  0  0  0
    2.7023   -2.9090    0.5450 C   0  0  0  0  0  0  0  0  0  0  0  0
    3.9000   -6.5919    2.9724 C   0  0  2  0  0  0  0  0  0  0  0  0
    3.2295   -6.9973    1.5894 C   0  0  0  0  0  0  0  0  0  0  0  0
   -0.1639  -12.0426    4.2847 H   0  0  0  0  0  0  0  0  0  0  0  0
    1.2240  -12.3764    5.2702 H   0  0  0  0  0  0  0  0  0  0  0  0
    1.3269  -12.4403    3.5092 H   0  0  0  0  0  0  0  0  0  0  0  0
    0.7736   -8.9074    2.7069 H   0  0  0  0  0  0  0  0  0  0  0  0
   -0.3761  -10.2060    2.8284 H   0  0  0  0  0  0  0  0  0  0  0  0
    1.1707  -10.4973    2.0780 H   0  0  0  0  0  0  0  0  0  0  0  0
   -0.5689   -9.7534    5.0332 H   0  0  0  0  0  0  0  0  0  0  0  0
    0.7952  -11.0798    6.7116 H   0  0  0  0  0  0  0  0  0  0  0  0
    0.3725   -7.6229    4.5273 H   0  0  0  0  0  0  0  0  0  0  0  0
   -0.2664   -7.8165    6.0759 H   0  0  0  0  0  0  0  0  0  0  0  0
    1.4381   -6.4207    6.3331 H   0  0  0  0  0  0  0  0  0  0  0  0
    1.7256   -7.7901    7.2484 H   0  0  0  0  0  0  0  0  0  0  0  0
    4.7395   -5.7213    5.7529 H   0  0  0  0  0  0  0  0  0  0  0  0
    3.6681   -5.7396    7.1333 H   0  0  0  0  0  0  0  0  0  0  0  0
    3.0391   -5.2067    5.6920 H   0  0  0  0  0  0  0  0  0  0  0  0
    2.2689   -7.4641    3.8380 H   0  0  0  0  0  0  0  0  0  0  0  0
    3.0172   -9.1507    2.6672 H   0  0  0  0  0  0  0  0  0  0  0  0
    3.0896  -11.0891    3.5848 H   0  0  0  0  0  0  0  0  0  0  0  0
    3.1305  -11.6881    5.9008 H   0  0  0  0  0  0  0  0  0  0  0  0
    4.5966  -11.0837    5.2931 H   0  0  0  0  0  0  0  0  0  0  0  0
    2.6331   -9.7219    7.1211 H   0  0  0  0  0  0  0  0  0  0  0  0
    4.0963  -10.3595    7.5082 H   0  0  0  0  0  0  0  0  0  0  0  0
    4.8270   -8.6852    8.6832 H   0  0  0  0  0  0  0  0  0  0  0  0
    3.2728   -7.9652    8.5611 H   0  0  0  0  0  0  0  0  0  0  0  0
    4.7266   -7.0305    8.3099 H   0  0  0  0  0  0  0  0  0  0  0  0
    6.1155   -7.3955    6.6727 H   0  0  0  0  0  0  0  0  0  0  0  0
    7.6411   -8.8143    7.3029 H   0  0  0  0  0  0  0  0  0  0  0  0
    5.7441  -10.8454    7.1321 H   0  0  0  0  0  0  0  0  0  0  0  0
    8.2598   -9.7867    5.2041 H   0  0  0  0  0  0  0  0  0  0  0  0
    6.6473  -10.5222    5.0197 H   0  0  0  0  0  0  0  0  0  0  0  0
    8.5854   -7.3012    4.2521 H   0  0  0  0  0  0  0  0  0  0  0  0
    8.4781   -7.4930    5.9218 H   0  0  0  0  0  0  0  0  0  0  0  0
    7.5599   -6.2500    5.2472 H   0  0  0  0  0  0  0  0  0  0  0  0
    6.8770   -8.6698    1.3808 H   0  0  0  0  0  0  0  0  0  0  0  0
    7.7088   -9.4896    2.6862 H   0  0  0  0  0  0  0  0  0  0  0  0
    8.0371   -7.8290    2.3206 H   0  0  0  0  0  0  0  0  0  0  0  0
    4.8833   -9.1764    1.9749 H   0  0  0  0  0  0  0  0  0  0  0  0
    4.9261  -11.0964    2.3616 H   0  0  0  0  0  0  0  0  0  0  0  0
    5.6268   -6.8395    1.7645 H   0  0  0  0  0  0  0  0  0  0  0  0
    6.1679   -5.1955    4.1823 H   0  0  0  0  0  0  0  0  0  0  0  0
    7.6810   -5.8158    1.8688 H   0  0  0  0  0  0  0  0  0  0  0  0
    5.9916   -3.2539    2.9945 H   0  0  0  0  0  0  0  0  0  0  0  0
    6.2903   -4.0276    1.4696 H   0  0  0  0  0  0  0  0  0  0  0  0
    4.2877   -4.6191    1.0800 H   0  0  0  0  0  0  0  0  0  0  0  0
    3.9369   -4.6699    4.0029 H   0  0  0  0  0  0  0  0  0  0  0  0
    1.5142   -4.9901    2.2623 H   0  0  0  0  0  0  0  0  0  0  0  0
    1.5272   -5.3610    3.9544 H   0  0  0  0  0  0  0  0  0  0  0  0
    0.7230   -3.0172    3.1640 H   0  0  0  0  0  0  0  0  0  0  0  0
    1.6229   -3.1735    4.6246 H   0  0  0  0  0  0  0  0  0  0  0  0
    4.4901   -1.7354    3.8093 H   0  0  0  0  0  0  0  0  0  0  0  0
    0.5101   -1.3948    1.8165 H   0  0  0  0  0  0  0  0  0  0  0  0
    1.5006   -0.1889    1.0200 H   0  0  0  0  0  0  0  0  0  0  0  0
    0.4357    0.3114    2.2769 H   0  0  0  0  0  0  0  0  0  0  0  0
    0.8738   -0.8647    4.7331 H   0  0  0  0  0  0  0  0  0  0  0  0
    1.3455    0.7715    4.3121 H   0  0  0  0  0  0  0  0  0  0  0  0
    2.4914   -0.2522    5.1237 H   0  0  0  0  0  0  0  0  0  0  0  0
    5.1696    0.3704    1.2840 H   0  0  0  0  0  0  0  0  0  0  0  0
    5.3540   -1.9808    0.6888 H   0  0  0  0  0  0  0  0  0  0  0  0
    1.8303   -3.4748    0.8215 H   0  0  0  0  0  0  0  0  0  0  0  0
    3.1666   -3.4588   -0.2783 H   0  0  0  0  0  0  0  0  0  0  0  0
    2.3965   -1.9585    0.1180 H   0  0  0  0  0  0  0  0  0  0  0  0
    3.1952   -6.2378    0.8218 H   0  0  0  0  0  0  0  0  0  0  0  0
    2.1868   -7.2963    1.6984 H   0  0  0  0  0  0  0  0  0  0  0  0
    3.7272   -7.8071    1.0696 H   0  0  0  0  0  0  0  0  0  0  0  0
  1  2  1  0
  1 48  1  0
  1 49  1  0
  1 50  1  0
  2 12  1  0
  2  3  1  0
  2  4  1  0
  3 51  1  0
  3 52  1  0
  3 53  1  0
  4  5  1  0
  4  6  1  0
  4 54  1  6
  5 55  1  0
  6  7  1  0
  6 56  1  0
  6 57  1  0
  7  8  1  0
  7 58  1  0
  7 59  1  0
  8 15  1  0
  8  9  1  6
  8 10  1  0
  9 60  1  0
  9 61  1  0
  9 62  1  0
 10 46  1  0
 10 11  1  0
 10 63  1  6
 11 25  1  0
 11 12  1  0
 11 64  1  6
 12 13  1  0
 12 65  1  6
 13 14  1  0
 13 66  1  0
 13 67  1  0
 14 15  1  0
 14 68  1  0
 14 69  1  0
 15 16  1  1
 15 17  1  0
 16 70  1  0
 16 71  1  0
 16 72  1  0
 17 21  1  0
 17 18  1  0
 17 73  1  1
 18 19  1  0
 18 20  1  0
 18 74  1  1
 19 75  1  0
 20 21  1  0
 20 76  1  0
 20 77  1  0
 21 22  1  1
 21 23  1  0
 22 78  1  0
 22 79  1  0
 22 80  1  0
 23 24  1  6
 23 25  1  0
 23 27  1  0
 24 81  1  0
 24 82  1  0
 24 83  1  0
 25 26  1  0
 25 84  1  6
 26 85  1  0
 27 46  1  0
 27 28  1  0
 27 86  1  6
 28 29  1  0
 28 30  1  0
 28 87  1  1
 29 88  1  0
 30 31  1  0
 30 89  1  0
 30 90  1  0
 31 44  1  0
 31 32  1  0
 31 91  1  6
 32 33  1  0
 32 46  1  0
 32 92  1  1
 33 34  1  0
 33 93  1  0
 33 94  1  0
 34 35  1  0
 34 95  1  0
 34 96  1  0
 35 44  1  0
 35 36  1  1
 35 37  1  0
 36 97  1  0
 37 38  1  0
 37 39  1  0
 37 40  1  0
 38 98  1  0
 38 99  1  0
 38100  1  0
 39101  1  0
 39102  1  0
 39103  1  0
 40 41  2  0
 40 42  1  0
 42 43  2  0
 42104  1  0
 43 44  1  0
 43105  1  0
 44 45  1  6
 45106  1  0
 45107  1  0
 45108  1  0
 46 47  1  6
 47109  1  0
 47110  1  0
 47111  1  0
M  END
>  <i_m_ct_stereo_status>  (244) 
1

>  <s_m_source_file>  (244) 
/var/tmp/pbs.5076255.sched01/tmpnszqc94g/84e4epk0lh.sdf

>  <i_m_source_file_index>  (244) 
29

>  <i_lp_mmshare_version>  (244) 
48012

>  <i_f3d_flags>  (244) 
0

>  <s_epik_input>  (244) 
W0NIMl0xW0NIMl1bQ0BIXShbT0hdKUMoW0NIM10pKFtDSDNdKVtDQEBIXShbQ0BIXTJbQ0BIXTNbQ0BAXTE0W0NIM10pW0NIMl1bQ0gyXVtDQEBdNChbQ0gzXSlbQ0BASF01W0NAQF0oW0NIM10pKFtDSDJdW0NAQEhdNVtPSF0pW0NAQF0oW0NIM10pKFtDQEhdMltPSF0pW0NASF02W0NAXTMoW0NIM10pW0NASF03W0NASF0oW0NIMl1bQ0BASF02W09IXSlbQ0BAXTgoW0NIM10pW0NAXShbT0hdKShbQ0gyXVtDSDJdNylDKFtDSDNdKShbQ0gzXSlDKD1PKVtDSF09W0NIXTg=

>  <s_epik_cmdline>  (244) 
J2VwaWtfcHl0aG9uJywgJy1waHQnLCAnMi4wJywgJy1waCcsICc3LjAnLCAnLXRuJywgJzgnLCAnLW1hJywgJzIwMCcsICctaW1hZScsICc8aW5maWxlLm1hZT4nLCAnLW9tYWUnLCAnPG91dGZpbGUubWFlPic=

>  <r_lp_tautomer_probability>  (244) 
1

>  <r_epik_Ionization_Penalty>  (244) 
8.95614e-06

>  <r_epik_Ionization_Penalty_Charging>  (244) 
0

>  <r_epik_Ionization_Penalty_Neutral>  (244) 
8.95614e-06

>  <r_epik_State_Penalty>  (244) 
-0

>  <r_epik_Charging_Adjusted_Penalty>  (244) 
0

>  <i_epik_Tot_Q>  (244) 
0

>  <i_epik_Tot_abs_Q>  (244) 
0

>  <s_lp_Force_Field>  (244) 
OPLS3e

>  <r_lp_Energy>  (244) 
247.189

>  <b_lp_Chiralities_Consistent>  (244) 
1

>  <s_lp_Variant>  (244) 
81:0-1

>  <s_i_glide_gridfile>  (244) 
pfpi4k_grid

>  <i_i_glide_lignum>  (244) 
29

>  <i_i_glide_rotatable_bonds>  (244) 
5

>  <r_i_docking_score>  (244) 
-2.25122

>  <r_i_glide_ligand_efficiency>  (244) 
-0.0478983

>  <r_i_glide_ligand_efficiency_sa>  (244) 
-0.172857

>  <r_i_glide_ligand_efficiency_ln>  (244) 
-0.464155

>  <r_i_glide_gscore>  (244) 
-2.25122

>  <r_i_glide_lipo>  (244) 
-0.395917

>  <r_i_glide_hbond>  (244) 
-0.155493

>  <r_i_glide_metal>  (244) 
-0

>  <r_i_glide_rewards>  (244) 
-0.034818

>  <r_i_glide_evdw>  (244) 
-17.0678

>  <r_i_glide_ecoul>  (244) 
-5.41069

>  <r_i_glide_erotb>  (244) 
0

>  <r_i_glide_esite>  (244) 
0

>  <r_i_glide_emodel>  (244) 
-24.305

>  <r_i_glide_energy>  (244) 
-22.4785

>  <r_i_glide_einternal>  (244) 
1.87594

>  <r_i_glide_intrahb_reward>  (244) 
-0

>  <i_i_glide_confnum>  (244) 
2

>  <i_i_glide_posenum>  (244) 
15

>  <r_i_glide_eff_state_penalty>  (244) 
0

>  <ligand_id>  (244) 
81

>  <original_smiles>  (244) 
CC1(C)C(O)CCC2(C)C3C4C1CCC2(C)C1C(O)CC1(C)C(C)(C4O)C1C(O)CC2C(CCC4(O)C(C)(C)C(=O)C=CC24C)C31C

>  <smiles>  (244) 
[H]OC1([H])C([H])([H])C2(C([H])([H])[H])C1([H])C1(C([H])([H])[H])C([H])([H])C([H])([H])C3([H])C4([H])C([H])(O[H])C2(C([H])([H])[H])C2([H])C([H])(O[H])C([H])([H])C5([H])C([H])(C([H])([H])C([H])([H])C6(O[H])C(C([H])([H])[H])(C([H])([H])[H])C(=O)C([H])=C([H])C56C([H])([H])[H])C2(C([H])([H])[H])C4([H])C1(C([H])([H])[H])C([H])([H])C([H])([H])C([H])(O[H])C3(C([H])([H])[H])C([H])([H])[H]

$$$$
81:0:1
     RDKit          3D

111118  0  0  1  0  0  0  0  0999 V2000
   -0.6235    2.7848    3.6096 C   0  0  0  0  0  0  0  0  0  0  0  0
    0.0314    1.3737    3.6371 C   0  0  0  0  0  0  0  0  0  0  0  0
   -1.1686    0.4236    3.4035 C   0  0  0  0  0  0  0  0  0  0  0  0
    0.9680    1.2641    2.3847 C   0  0  1  0  0  0  0  0  0  0  0  0
    1.7949    2.3893    2.1458 O   0  0  0  0  0  0  0  0  0  0  0  0
    1.7129   -0.0643    2.1127 C   0  0  0  0  0  0  0  0  0  0  0  0
    3.0320   -0.4319    2.8577 C   0  0  0  0  0  0  0  0  0  0  0  0
    3.1473   -0.8631    4.3994 C   0  0  2  0  0  0  0  0  0  0  0  0
    4.1914   -2.0156    4.3395 C   0  0  0  0  0  0  0  0  0  0  0  0
    1.7060   -1.4004    4.9115 C   0  0  2  0  0  0  0  0  0  0  0  0
    0.8210   -0.3327    5.6355 C   0  0  2  0  0  0  0  0  0  0  0  0
    0.6681    1.1236    5.0767 C   0  0  1  0  0  0  0  0  0  0  0  0
    1.8066    2.0501    5.5185 C   0  0  0  0  0  0  0  0  0  0  0  0
    3.1888    1.7062    5.0029 C   0  0  0  0  0  0  0  0  0  0  0  0
    3.8448    0.3124    5.2742 C   0  0  2  0  0  0  0  0  0  0  0  0
    5.2959    0.6445    4.7399 C   0  0  0  0  0  0  0  0  0  0  0  0
    4.1551   -0.0457    6.7904 C   0  0  1  0  0  0  0  0  0  0  0  0
    4.6096    1.0230    7.8283 C   0  0  1  0  0  0  0  0  0  0  0  0
    4.7153    2.3935    7.5198 O   0  0  0  0  0  0  0  0  0  0  0  0
    3.4024    0.6253    8.6550 C   0  0  0  0  0  0  0  0  0  0  0  0
    3.3595   -0.7657    7.9581 C   0  0  2  0  0  0  0  0  0  0  0  0
    4.3234   -1.6806    8.7799 C   0  0  0  0  0  0  0  0  0  0  0  0
    1.9140   -1.4685    7.8299 C   0  0  1  0  0  0  0  0  0  0  0  0
    1.3511   -1.6889    9.2779 C   0  0  0  0  0  0  0  0  0  0  0  0
    0.8165   -0.5338    7.1846 C   0  0  1  0  0  0  0  0  0  0  0  0
    0.3950    0.5956    7.9287 O   0  0  0  0  0  0  0  0  0  0  0  0
    1.8005   -2.9092    7.0847 C   0  0  2  0  0  0  0  0  0  0  0  0
    2.8518   -4.0552    7.3827 C   0  0  1  0  0  0  0  0  0  0  0  0
    3.0278   -4.3144    8.7605 O   0  0  0  0  0  0  0  0  0  0  0  0
    2.5341   -5.4728    6.8223 C   0  0  0  0  0  0  0  0  0  0  0  0
    1.6962   -5.4846    5.5319 C   0  0  1  0  0  0  0  0  0  0  0  0
    1.9526   -4.1357    4.7844 C   0  0  1  0  0  0  0  0  0  0  0  0
    1.6159   -4.2342    3.2791 C   0  0  0  0  0  0  0  0  0  0  0  0
    2.3843   -5.3639    2.5511 C   0  0  0  0  0  0  0  0  0  0  0  0
    2.7602   -6.6039    3.4259 C   0  0  2  0  0  0  0  0  0  0  0  0
    4.0040   -6.2302    4.0135 O   0  0  0  0  0  0  0  0  0  0  0  0
    3.0723   -7.9257    2.5994 C   0  0  0  0  0  0  0  0  0  0  0  0
    1.8699   -8.4647    1.7682 C   0  0  0  0  0  0  0  0  0  0  0  0
    4.2417   -7.6885    1.5944 C   0  0  0  0  0  0  0  0  0  0  0  0
    3.4656   -9.0631    3.5810 C   0  0  0  0  0  0  0  0  0  0  0  0
    4.2162   -9.9586    3.2032 O   0  0  0  0  0  0  0  0  0  0  0  0
    2.9186   -9.0519    4.9524 C   0  0  0  0  0  0  0  0  0  0  0  0
    2.1585   -8.0409    5.4243 C   0  0  0  0  0  0  0  0  0  0  0  0
    1.7580   -6.7945    4.6328 C   0  0  1  0  0  0  0  0  0  0  0  0
    0.3057   -7.0946    4.1545 C   0  0  0  0  0  0  0  0  0  0  0  0
    1.3881   -2.8567    5.5459 C   0  0  2  0  0  0  0  0  0  0  0  0
   -0.1849   -3.0575    5.4294 C   0  0  0  0  0  0  0  0  0  0  0  0
   -1.1387    2.9640    2.6638 H   0  0  0  0  0  0  0  0  0  0  0  0
    0.0970    3.5937    3.7200 H   0  0  0  0  0  0  0  0  0  0  0  0
   -1.3678    2.9038    4.3972 H   0  0  0  0  0  0  0  0  0  0  0  0
   -0.8556   -0.6110    3.3007 H   0  0  0  0  0  0  0  0  0  0  0  0
   -1.7068    0.6783    2.4885 H   0  0  0  0  0  0  0  0  0  0  0  0
   -1.8939    0.4740    4.2161 H   0  0  0  0  0  0  0  0  0  0  0  0
    0.2913    1.3405    1.5303 H   0  0  0  0  0  0  0  0  0  0  0  0
    1.2556    3.0948    1.7956 H   0  0  0  0  0  0  0  0  0  0  0  0
    1.0131   -0.8963    2.0692 H   0  0  0  0  0  0  0  0  0  0  0  0
    2.0137    0.0110    1.0657 H   0  0  0  0  0  0  0  0  0  0  0  0
    3.3871   -1.2626    2.2502 H   0  0  0  0  0  0  0  0  0  0  0  0
    3.7448    0.3352    2.5864 H   0  0  0  0  0  0  0  0  0  0  0  0
    4.3825   -2.4566    5.3151 H   0  0  0  0  0  0  0  0  0  0  0  0
    5.1521   -1.7218    3.9270 H   0  0  0  0  0  0  0  0  0  0  0  0
    3.9132   -2.7853    3.6280 H   0  0  0  0  0  0  0  0  0  0  0  0
    1.1815   -1.5443    3.9873 H   0  0  0  0  0  0  0  0  0  0  0  0
   -0.1935   -0.6379    5.4239 H   0  0  0  0  0  0  0  0  0  0  0  0
   -0.1519    1.4973    5.6914 H   0  0  0  0  0  0  0  0  0  0  0  0
    1.5867    3.0676    5.2075 H   0  0  0  0  0  0  0  0  0  0  0  0
    1.8468    2.1236    6.5977 H   0  0  0  0  0  0  0  0  0  0  0  0
    3.2163    1.9008    3.9435 H   0  0  0  0  0  0  0  0  0  0  0  0
    3.8240    2.5177    5.3365 H   0  0  0  0  0  0  0  0  0  0  0  0
    5.7363    1.4775    5.2840 H   0  0  0  0  0  0  0  0  0  0  0  0
    5.3461    0.9377    3.6942 H   0  0  0  0  0  0  0  0  0  0  0  0
    6.0302   -0.1450    4.8806 H   0  0  0  0  0  0  0  0  0  0  0  0
    5.0216   -0.6972    6.7114 H   0  0  0  0  0  0  0  0  0  0  0  0
    5.5489    0.7410    8.3062 H   0  0  0  0  0  0  0  0  0  0  0  0
    3.9137    2.6420    7.0901 H   0  0  0  0  0  0  0  0  0  0  0  0
    3.6102    0.5891    9.7251 H   0  0  0  0  0  0  0  0  0  0  0  0
    2.5886    1.3131    8.4687 H   0  0  0  0  0  0  0  0  0  0  0  0
    3.8955   -2.0901    9.6891 H   0  0  0  0  0  0  0  0  0  0  0  0
    5.1956   -1.1505    9.1601 H   0  0  0  0  0  0  0  0  0  0  0  0
    4.7751   -2.4755    8.1982 H   0  0  0  0  0  0  0  0  0  0  0  0
    0.3097   -2.0095    9.2656 H   0  0  0  0  0  0  0  0  0  0  0  0
    1.3902   -0.7807    9.8807 H   0  0  0  0  0  0  0  0  0  0  0  0
    1.8616   -2.4591    9.8465 H   0  0  0  0  0  0  0  0  0  0  0  0
   -0.0989   -1.0815    7.3650 H   0  0  0  0  0  0  0  0  0  0  0  0
    1.0952    1.2304    7.9211 H   0  0  0  0  0  0  0  0  0  0  0  0
    0.9225   -3.3546    7.5550 H   0  0  0  0  0  0  0  0  0  0  0  0
    3.8061   -3.7745    6.9469 H   0  0  0  0  0  0  0  0  0  0  0  0
    3.7420   -4.9267    8.8624 H   0  0  0  0  0  0  0  0  0  0  0  0
    3.4750   -6.0045    6.6728 H   0  0  0  0  0  0  0  0  0  0  0  0
    1.9842   -6.0536    7.5674 H   0  0  0  0  0  0  0  0  0  0  0  0
    0.7046   -5.4963    5.9622 H   0  0  0  0  0  0  0  0  0  0  0  0
    3.0256   -4.1020    4.8246 H   0  0  0  0  0  0  0  0  0  0  0  0
    0.5483   -4.3821    3.1601 H   0  0  0  0  0  0  0  0  0  0  0  0
    1.8326   -3.2980    2.7679 H   0  0  0  0  0  0  0  0  0  0  0  0
    1.7936   -5.6575    1.6878 H   0  0  0  0  0  0  0  0  0  0  0  0
    3.2967   -4.9443    2.1228 H   0  0  0  0  0  0  0  0  0  0  0  0
    4.2684   -6.9131    4.6104 H   0  0  0  0  0  0  0  0  0  0  0  0
    1.2012   -7.6821    1.4083 H   0  0  0  0  0  0  0  0  0  0  0  0
    1.2594   -9.1802    2.3249 H   0  0  0  0  0  0  0  0  0  0  0  0
    2.2113   -9.0173    0.8894 H   0  0  0  0  0  0  0  0  0  0  0  0
    4.0049   -6.9062    0.8704 H   0  0  0  0  0  0  0  0  0  0  0  0
    4.4731   -8.5893    1.0222 H   0  0  0  0  0  0  0  0  0  0  0  0
    5.1684   -7.4055    2.1000 H   0  0  0  0  0  0  0  0  0  0  0  0
    3.1403   -9.9065    5.5727 H   0  0  0  0  0  0  0  0  0  0  0  0
    1.7723   -8.1182    6.4310 H   0  0  0  0  0  0  0  0  0  0  0  0
   -0.0280   -6.4553    3.3432 H   0  0  0  0  0  0  0  0  0  0  0  0
   -0.4224   -6.9987    4.9586 H   0  0  0  0  0  0  0  0  0  0  0  0
    0.1845   -8.1184    3.8147 H   0  0  0  0  0  0  0  0  0  0  0  0
   -0.5490   -4.0767    5.4296 H   0  0  0  0  0  0  0  0  0  0  0  0
   -0.5830   -2.6511    4.4996 H   0  0  0  0  0  0  0  0  0  0  0  0
   -0.7607   -2.6113    6.2336 H   0  0  0  0  0  0  0  0  0  0  0  0
  1  2  1  0
  1 48  1  0
  1 49  1  0
  1 50  1  0
  2 12  1  0
  2  3  1  0
  2  4  1  0
  3 51  1  0
  3 52  1  0
  3 53  1  0
  4  5  1  0
  4  6  1  0
  4 54  1  6
  5 55  1  0
  6  7  1  0
  6 56  1  0
  6 57  1  0
  7  8  1  0
  7 58  1  0
  7 59  1  0
  8 15  1  0
  8  9  1  6
  8 10  1  0
  9 60  1  0
  9 61  1  0
  9 62  1  0
 10 46  1  0
 10 11  1  0
 10 63  1  6
 11 25  1  0
 11 12  1  0
 11 64  1  6
 12 13  1  0
 12 65  1  1
 13 14  1  0
 13 66  1  0
 13 67  1  0
 14 15  1  0
 14 68  1  0
 14 69  1  0
 15 16  1  6
 15 17  1  0
 16 70  1  0
 16 71  1  0
 16 72  1  0
 17 21  1  0
 17 18  1  0
 17 73  1  6
 18 19  1  0
 18 20  1  0
 18 74  1  1
 19 75  1  0
 20 21  1  0
 20 76  1  0
 20 77  1  0
 21 22  1  1
 21 23  1  0
 22 78  1  0
 22 79  1  0
 22 80  1  0
 23 24  1  1
 23 25  1  0
 23 27  1  0
 24 81  1  0
 24 82  1  0
 24 83  1  0
 25 26  1  0
 25 84  1  6
 26 85  1  0
 27 46  1  0
 27 28  1  0
 27 86  1  1
 28 29  1  0
 28 30  1  0
 28 87  1  6
 29 88  1  0
 30 31  1  0
 30 89  1  0
 30 90  1  0
 31 44  1  0
 31 32  1  0
 31 91  1  1
 32 33  1  0
 32 46  1  0
 32 92  1  6
 33 34  1  0
 33 93  1  0
 33 94  1  0
 34 35  1  0
 34 95  1  0
 34 96  1  0
 35 44  1  0
 35 36  1  1
 35 37  1  0
 36 97  1  0
 37 38  1  0
 37 39  1  0
 37 40  1  0
 38 98  1  0
 38 99  1  0
 38100  1  0
 39101  1  0
 39102  1  0
 39103  1  0
 40 41  2  0
 40 42  1  0
 42 43  2  0
 42104  1  0
 43 44  1  0
 43105  1  0
 44 45  1  6
 45106  1  0
 45107  1  0
 45108  1  0
 46 47  1  1
 47109  1  0
 47110  1  0
 47111  1  0
M  END
>  <i_m_ct_stereo_status>  (245) 
1

>  <s_m_source_file>  (245) 
/var/tmp/pbs.5076255.sched01/tmpnszqc94g/84e4epk0lh.sdf

>  <i_m_source_file_index>  (245) 
29

>  <i_lp_mmshare_version>  (245) 
48012

>  <i_f3d_flags>  (245) 
0

>  <s_epik_input>  (245) 
W0NIMl0xW0NIMl1bQ0BIXShbT0hdKUMoW0NIM10pKFtDSDNdKVtDQEBIXShbQ0BIXTJbQ0BIXTNbQ0BAXTE0W0NIM10pW0NIMl1bQ0gyXVtDQEBdNChbQ0gzXSlbQ0BASF01W0NAQF0oW0NIM10pKFtDSDJdW0NAQEhdNVtPSF0pW0NAQF0oW0NIM10pKFtDQEhdMltPSF0pW0NASF02W0NAXTMoW0NIM10pW0NASF03W0NASF0oW0NIMl1bQ0BASF02W09IXSlbQ0BAXTgoW0NIM10pW0NAXShbT0hdKShbQ0gyXVtDSDJdNylDKFtDSDNdKShbQ0gzXSlDKD1PKVtDSF09W0NIXTg=

>  <s_epik_cmdline>  (245) 
J2VwaWtfcHl0aG9uJywgJy1waHQnLCAnMi4wJywgJy1waCcsICc3LjAnLCAnLXRuJywgJzgnLCAnLW1hJywgJzIwMCcsICctaW1hZScsICc8aW5maWxlLm1hZT4nLCAnLW9tYWUnLCAnPG91dGZpbGUubWFlPic=

>  <r_lp_tautomer_probability>  (245) 
1

>  <r_epik_Ionization_Penalty>  (245) 
8.95614e-06

>  <r_epik_Ionization_Penalty_Charging>  (245) 
0

>  <r_epik_Ionization_Penalty_Neutral>  (245) 
8.95614e-06

>  <r_epik_State_Penalty>  (245) 
-0

>  <r_epik_Charging_Adjusted_Penalty>  (245) 
0

>  <i_epik_Tot_Q>  (245) 
0

>  <i_epik_Tot_abs_Q>  (245) 
0

>  <s_lp_Force_Field>  (245) 
OPLS3e

>  <r_lp_Energy>  (245) 
247.189

>  <b_lp_Chiralities_Consistent>  (245) 
1

>  <s_lp_Variant>  (245) 
81:0-1

>  <s_i_glide_gridfile>  (245) 
pfpi4k_grid

>  <i_i_glide_lignum>  (245) 
29

>  <i_i_glide_rotatable_bonds>  (245) 
5

>  <r_i_docking_score>  (245) 
-2.05508

>  <r_i_glide_ligand_efficiency>  (245) 
-0.0437251

>  <r_i_glide_ligand_efficiency_sa>  (245) 
-0.157796

>  <r_i_glide_ligand_efficiency_ln>  (245) 
-0.423715

>  <r_i_glide_gscore>  (245) 
-2.05508

>  <r_i_glide_lipo>  (245) 
-0.143248

>  <r_i_glide_hbond>  (245) 
-0.16

>  <r_i_glide_metal>  (245) 
-0

>  <r_i_glide_rewards>  (245) 
0

>  <r_i_glide_evdw>  (245) 
-24.5505

>  <r_i_glide_ecoul>  (245) 
-3.46209

>  <r_i_glide_erotb>  (245) 
0

>  <r_i_glide_esite>  (245) 
-0.0049939

>  <r_i_glide_emodel>  (245) 
-30.9549

>  <r_i_glide_energy>  (245) 
-28.0126

>  <r_i_glide_einternal>  (245) 
0.982511

>  <r_i_glide_intrahb_reward>  (245) 
-0

>  <i_i_glide_confnum>  (245) 
2

>  <i_i_glide_posenum>  (245) 
6

>  <r_i_glide_eff_state_penalty>  (245) 
0

>  <ligand_id>  (245) 
81

>  <original_smiles>  (245) 
CC1(C)C(O)CCC2(C)C3C4C1CCC2(C)C1C(O)CC1(C)C(C)(C4O)C1C(O)CC2C(CCC4(O)C(C)(C)C(=O)C=CC24C)C31C

>  <smiles>  (245) 
[H]OC1([H])C([H])([H])C2(C([H])([H])[H])C1([H])C1(C([H])([H])[H])C([H])([H])C([H])([H])C3([H])C4([H])C([H])(O[H])C2(C([H])([H])[H])C2([H])C([H])(O[H])C([H])([H])C5([H])C([H])(C([H])([H])C([H])([H])C6(O[H])C(C([H])([H])[H])(C([H])([H])[H])C(=O)C([H])=C([H])C56C([H])([H])[H])C2(C([H])([H])[H])C4([H])C1(C([H])([H])[H])C([H])([H])C([H])([H])C([H])(O[H])C3(C([H])([H])[H])C([H])([H])[H]

$$$$
81:0:2
     RDKit          3D

111118  0  0  1  0  0  0  0  0999 V2000
    6.6671   -0.8834   10.0322 C   0  0  0  0  0  0  0  0  0  0  0  0
    6.0909   -2.0609    9.1966 C   0  0  0  0  0  0  0  0  0  0  0  0
    4.5579   -1.8242    9.2561 C   0  0  0  0  0  0  0  0  0  0  0  0
    6.5340   -1.8485    7.7125 C   0  0  1  0  0  0  0  0  0  0  0  0
    7.8931   -1.5036    7.5330 O   0  0  0  0  0  0  0  0  0  0  0  0
    6.0568   -2.8355    6.6279 C   0  0  0  0  0  0  0  0  0  0  0  0
    6.7623   -4.2070    6.4026 C   0  0  0  0  0  0  0  0  0  0  0  0
    6.6752   -5.4713    7.3829 C   0  0  2  0  0  0  0  0  0  0  0  0
    6.5530   -6.6509    6.3746 C   0  0  0  0  0  0  0  0  0  0  0  0
    5.3507   -5.3427    8.3044 C   0  0  2  0  0  0  0  0  0  0  0  0
    5.5849   -4.7089    9.7138 C   0  0  2  0  0  0  0  0  0  0  0  0
    6.4811   -3.4365    9.9033 C   0  0  1  0  0  0  0  0  0  0  0  0
    7.9703   -3.7761   10.0179 C   0  0  0  0  0  0  0  0  0  0  0  0
    8.6192   -4.3831    8.7940 C   0  0  0  0  0  0  0  0  0  0  0  0
    8.0862   -5.7010    8.1494 C   0  0  2  0  0  0  0  0  0  0  0  0
    9.2698   -5.9415    7.1274 C   0  0  0  0  0  0  0  0  0  0  0  0
    8.1817   -7.0140    9.0449 C   0  0  1  0  0  0  0  0  0  0  0  0
    9.3626   -7.2871   10.0165 C   0  0  1  0  0  0  0  0  0  0  0  0
   10.3972   -6.3540   10.2552 O   0  0  0  0  0  0  0  0  0  0  0  0
    8.3244   -7.3883   11.1122 C   0  0  0  0  0  0  0  0  0  0  0  0
    7.2201   -7.7381   10.0717 C   0  0  2  0  0  0  0  0  0  0  0  0
    7.2914   -9.2921    9.8860 C   0  0  0  0  0  0  0  0  0  0  0  0
    5.7111   -7.3044   10.4357 C   0  0  1  0  0  0  0  0  0  0  0  0
    5.3018   -8.0327   11.7640 C   0  0  0  0  0  0  0  0  0  0  0  0
    5.5717   -5.7858   10.8424 C   0  0  1  0  0  0  0  0  0  0  0  0
    6.1994   -5.3746   12.0430 O   0  0  0  0  0  0  0  0  0  0  0  0
    4.5170   -7.6139    9.3755 C   0  0  2  0  0  0  0  0  0  0  0  0
    4.4359   -9.0126    8.6469 C   0  0  1  0  0  0  0  0  0  0  0  0
    4.4792  -10.1095    9.5390 O   0  0  0  0  0  0  0  0  0  0  0  0
    3.1465   -9.3184    7.8317 C   0  0  0  0  0  0  0  0  0  0  0  0
    2.4433   -8.0795    7.2513 C   0  0  1  0  0  0  0  0  0  0  0  0
    3.5238   -6.9693    7.0478 C   0  0  1  0  0  0  0  0  0  0  0  0
    3.0853   -5.9091    6.0105 C   0  0  0  0  0  0  0  0  0  0  0  0
    2.7253   -6.5193    4.6336 C   0  0  0  0  0  0  0  0  0  0  0  0
    2.1723   -7.9789    4.6594 C   0  0  2  0  0  0  0  0  0  0  0  0
    3.3444   -8.7859    4.6135 O   0  0  0  0  0  0  0  0  0  0  0  0
    1.3541   -8.4043    3.3687 C   0  0  0  0  0  0  0  0  0  0  0  0
    0.0691   -7.5565    3.1092 C   0  0  0  0  0  0  0  0  0  0  0  0
    2.2263   -8.2587    2.0818 C   0  0  0  0  0  0  0  0  0  0  0  0
    0.8833   -9.8675    3.5194 C   0  0  0  0  0  0  0  0  0  0  0  0
    0.6633  -10.5311    2.4885 O   0  0  0  0  0  0  0  0  0  0  0  0
    0.6562  -10.4358    4.8496 C   0  0  0  0  0  0  0  0  0  0  0  0
    0.9080   -9.7284    5.9805 C   0  0  0  0  0  0  0  0  0  0  0  0
    1.4616   -8.3102    6.0334 C   0  0  1  0  0  0  0  0  0  0  0  0
    0.2152   -7.4130    6.2664 C   0  0  0  0  0  0  0  0  0  0  0  0
    4.1365   -6.4085    8.4053 C   0  0  2  0  0  0  0  0  0  0  0  0
    2.9062   -5.6182    9.0282 C   0  0  0  0  0  0  0  0  0  0  0  0
    6.3578    0.0826    9.6306 H   0  0  0  0  0  0  0  0  0  0  0  0
    7.7552   -0.8674   10.0710 H   0  0  0  0  0  0  0  0  0  0  0  0
    6.3174   -0.9104   11.0647 H   0  0  0  0  0  0  0  0  0  0  0  0
    4.0006   -2.5133    8.6264 H   0  0  0  0  0  0  0  0  0  0  0  0
    4.2918   -0.8233    8.9176 H   0  0  0  0  0  0  0  0  0  0  0  0
    4.1740   -1.9245   10.2720 H   0  0  0  0  0  0  0  0  0  0  0  0
    6.0569   -0.9115    7.4245 H   0  0  0  0  0  0  0  0  0  0  0  0
    8.1038   -0.8017    8.1303 H   0  0  0  0  0  0  0  0  0  0  0  0
    4.9716   -2.9223    6.6362 H   0  0  0  0  0  0  0  0  0  0  0  0
    6.2143   -2.2998    5.6912 H   0  0  0  0  0  0  0  0  0  0  0  0
    6.3532   -4.5011    5.4368 H   0  0  0  0  0  0  0  0  0  0  0  0
    7.7810   -3.9809    6.1272 H   0  0  0  0  0  0  0  0  0  0  0  0
    6.4522   -7.6126    6.8679 H   0  0  0  0  0  0  0  0  0  0  0  0
    7.3840   -6.7339    5.6818 H   0  0  0  0  0  0  0  0  0  0  0  0
    5.7399   -6.5092    5.6716 H   0  0  0  0  0  0  0  0  0  0  0  0
    4.8027   -4.5745    7.7949 H   0  0  0  0  0  0  0  0  0  0  0  0
    4.6523   -4.2162    9.9442 H   0  0  0  0  0  0  0  0  0  0  0  0
    6.2475   -3.1693   10.9324 H   0  0  0  0  0  0  0  0  0  0  0  0
    8.5289   -2.8844   10.2801 H   0  0  0  0  0  0  0  0  0  0  0  0
    8.1460   -4.4314   10.8672 H   0  0  0  0  0  0  0  0  0  0  0  0
    8.6910   -3.6289    8.0292 H   0  0  0  0  0  0  0  0  0  0  0  0
    9.6645   -4.4647    9.0539 H   0  0  0  0  0  0  0  0  0  0  0  0
   10.2303   -6.0148    7.6344 H   0  0  0  0  0  0  0  0  0  0  0  0
    9.4189   -5.1516    6.3966 H   0  0  0  0  0  0  0  0  0  0  0  0
    9.2167   -6.8743    6.5743 H   0  0  0  0  0  0  0  0  0  0  0  0
    8.2874   -7.8016    8.3137 H   0  0  0  0  0  0  0  0  0  0  0  0
    9.8331   -8.2550    9.8156 H   0  0  0  0  0  0  0  0  0  0  0  0
   11.0161   -6.4482    9.5492 H   0  0  0  0  0  0  0  0  0  0  0  0
    8.5327   -8.1836   11.8305 H   0  0  0  0  0  0  0  0  0  0  0  0
    8.2471   -6.4397   11.6240 H   0  0  0  0  0  0  0  0  0  0  0  0
    6.7835   -9.8646   10.6557 H   0  0  0  0  0  0  0  0  0  0  0  0
    8.3029   -9.6793    9.9444 H   0  0  0  0  0  0  0  0  0  0  0  0
    6.9707   -9.6260    8.9096 H   0  0  0  0  0  0  0  0  0  0  0  0
    4.3565   -7.6612   12.1571 H   0  0  0  0  0  0  0  0  0  0  0  0
    6.0417   -7.9108   12.5570 H   0  0  0  0  0  0  0  0  0  0  0  0
    5.1398   -9.0969   11.6592 H   0  0  0  0  0  0  0  0  0  0  0  0
    4.5639   -5.7245   11.2400 H   0  0  0  0  0  0  0  0  0  0  0  0
    5.9441   -5.9662   12.7308 H   0  0  0  0  0  0  0  0  0  0  0  0
    3.6397   -7.6980   10.0222 H   0  0  0  0  0  0  0  0  0  0  0  0
    5.2491   -9.0914    7.9343 H   0  0  0  0  0  0  0  0  0  0  0  0
    4.3652  -10.9083    9.0424 H   0  0  0  0  0  0  0  0  0  0  0  0
    3.3837  -10.0410    7.0429 H   0  0  0  0  0  0  0  0  0  0  0  0
    2.4221   -9.8203    8.4689 H   0  0  0  0  0  0  0  0  0  0  0  0
    1.7921   -7.8289    8.0819 H   0  0  0  0  0  0  0  0  0  0  0  0
    4.2850   -7.5382    6.5497 H   0  0  0  0  0  0  0  0  0  0  0  0
    2.2364   -5.3509    6.3920 H   0  0  0  0  0  0  0  0  0  0  0  0
    3.8688   -5.1662    5.8542 H   0  0  0  0  0  0  0  0  0  0  0  0
    2.0290   -5.8362    4.1430 H   0  0  0  0  0  0  0  0  0  0  0  0
    3.6165   -6.4956    4.0027 H   0  0  0  0  0  0  0  0  0  0  0  0
    3.0872   -9.6855    4.7490 H   0  0  0  0  0  0  0  0  0  0  0  0
    0.1433   -6.5297    3.4702 H   0  0  0  0  0  0  0  0  0  0  0  0
   -0.8161   -7.9956    3.5727 H   0  0  0  0  0  0  0  0  0  0  0  0
   -0.1785   -7.5004    2.0410 H   0  0  0  0  0  0  0  0  0  0  0  0
    2.5688   -7.2319    1.9271 H   0  0  0  0  0  0  0  0  0  0  0  0
    1.6822   -8.5507    1.1778 H   0  0  0  0  0  0  0  0  0  0  0  0
    3.1086   -8.8963    2.1105 H   0  0  0  0  0  0  0  0  0  0  0  0
    0.2443  -11.4262    4.9032 H   0  0  0  0  0  0  0  0  0  0  0  0
    0.6880  -10.1998    6.9205 H   0  0  0  0  0  0  0  0  0  0  0  0
    0.3741   -6.3614    6.0490 H   0  0  0  0  0  0  0  0  0  0  0  0
   -0.1474   -7.4844    7.2921 H   0  0  0  0  0  0  0  0  0  0  0  0
   -0.6200   -7.7376    5.6615 H   0  0  0  0  0  0  0  0  0  0  0  0
    1.9202   -6.0119    8.8292 H   0  0  0  0  0  0  0  0  0  0  0  0
    2.8403   -4.5929    8.6646 H   0  0  0  0  0  0  0  0  0  0  0  0
    2.9051   -5.5590   10.1108 H   0  0  0  0  0  0  0  0  0  0  0  0
  1  2  1  0
  1 48  1  0
  1 49  1  0
  1 50  1  0
  2 12  1  0
  2  3  1  0
  2  4  1  0
  3 51  1  0
  3 52  1  0
  3 53  1  0
  4  5  1  0
  4  6  1  0
  4 54  1  6
  5 55  1  0
  6  7  1  0
  6 56  1  0
  6 57  1  0
  7  8  1  0
  7 58  1  0
  7 59  1  0
  8 15  1  0
  8  9  1  6
  8 10  1  0
  9 60  1  0
  9 61  1  0
  9 62  1  0
 10 46  1  0
 10 11  1  0
 10 63  1  6
 11 25  1  0
 11 12  1  0
 11 64  1  1
 12 13  1  0
 12 65  1  1
 13 14  1  0
 13 66  1  0
 13 67  1  0
 14 15  1  0
 14 68  1  0
 14 69  1  0
 15 16  1  6
 15 17  1  0
 16 70  1  0
 16 71  1  0
 16 72  1  0
 17 21  1  0
 17 18  1  0
 17 73  1  6
 18 19  1  0
 18 20  1  0
 18 74  1  6
 19 75  1  0
 20 21  1  0
 20 76  1  0
 20 77  1  0
 21 22  1  6
 21 23  1  0
 22 78  1  0
 22 79  1  0
 22 80  1  0
 23 24  1  1
 23 25  1  0
 23 27  1  0
 24 81  1  0
 24 82  1  0
 24 83  1  0
 25 26  1  0
 25 84  1  1
 26 85  1  0
 27 46  1  0
 27 28  1  0
 27 86  1  1
 28 29  1  0
 28 30  1  0
 28 87  1  6
 29 88  1  0
 30 31  1  0
 30 89  1  0
 30 90  1  0
 31 44  1  0
 31 32  1  0
 31 91  1  1
 32 33  1  0
 32 46  1  0
 32 92  1  6
 33 34  1  0
 33 93  1  0
 33 94  1  0
 34 35  1  0
 34 95  1  0
 34 96  1  0
 35 44  1  0
 35 36  1  1
 35 37  1  0
 36 97  1  0
 37 38  1  0
 37 39  1  0
 37 40  1  0
 38 98  1  0
 38 99  1  0
 38100  1  0
 39101  1  0
 39102  1  0
 39103  1  0
 40 41  2  0
 40 42  1  0
 42 43  2  0
 42104  1  0
 43 44  1  0
 43105  1  0
 44 45  1  1
 45106  1  0
 45107  1  0
 45108  1  0
 46 47  1  1
 47109  1  0
 47110  1  0
 47111  1  0
M  END
>  <i_m_ct_stereo_status>  (246) 
1

>  <s_m_source_file>  (246) 
/var/tmp/pbs.5076255.sched01/tmpnszqc94g/84e4epk0lh.sdf

>  <i_m_source_file_index>  (246) 
29

>  <i_lp_mmshare_version>  (246) 
48012

>  <i_f3d_flags>  (246) 
0

>  <s_epik_input>  (246) 
W0NIMl0xW0NIMl1bQ0BIXShbT0hdKUMoW0NIM10pKFtDSDNdKVtDQEBIXShbQ0BIXTJbQ0BIXTNbQ0BAXTE0W0NIM10pW0NIMl1bQ0gyXVtDQEBdNChbQ0gzXSlbQ0BASF01W0NAQF0oW0NIM10pKFtDSDJdW0NAQEhdNVtPSF0pW0NAQF0oW0NIM10pKFtDQEhdMltPSF0pW0NASF02W0NAXTMoW0NIM10pW0NASF03W0NASF0oW0NIMl1bQ0BASF02W09IXSlbQ0BAXTgoW0NIM10pW0NAXShbT0hdKShbQ0gyXVtDSDJdNylDKFtDSDNdKShbQ0gzXSlDKD1PKVtDSF09W0NIXTg=

>  <s_epik_cmdline>  (246) 
J2VwaWtfcHl0aG9uJywgJy1waHQnLCAnMi4wJywgJy1waCcsICc3LjAnLCAnLXRuJywgJzgnLCAnLW1hJywgJzIwMCcsICctaW1hZScsICc8aW5maWxlLm1hZT4nLCAnLW9tYWUnLCAnPG91dGZpbGUubWFlPic=

>  <r_lp_tautomer_probability>  (246) 
1

>  <r_epik_Ionization_Penalty>  (246) 
8.95614e-06

>  <r_epik_Ionization_Penalty_Charging>  (246) 
0

>  <r_epik_Ionization_Penalty_Neutral>  (246) 
8.95614e-06

>  <r_epik_State_Penalty>  (246) 
-0

>  <r_epik_Charging_Adjusted_Penalty>  (246) 
0

>  <i_epik_Tot_Q>  (246) 
0

>  <i_epik_Tot_abs_Q>  (246) 
0

>  <s_lp_Force_Field>  (246) 
OPLS3e

>  <r_lp_Energy>  (246) 
247.189

>  <b_lp_Chiralities_Consistent>  (246) 
1

>  <s_lp_Variant>  (246) 
81:0-1

>  <s_i_glide_gridfile>  (246) 
pfpi4k_grid

>  <i_i_glide_lignum>  (246) 
29

>  <i_i_glide_rotatable_bonds>  (246) 
5

>  <r_i_docking_score>  (246) 
-1.14305

>  <r_i_glide_ligand_efficiency>  (246) 
-0.0243202

>  <r_i_glide_ligand_efficiency_sa>  (246) 
-0.0877673

>  <r_i_glide_ligand_efficiency_ln>  (246) 
-0.235673

>  <r_i_glide_gscore>  (246) 
-1.14305

>  <r_i_glide_lipo>  (246) 
-0.110993

>  <r_i_glide_hbond>  (246) 
0

>  <r_i_glide_metal>  (246) 
-0

>  <r_i_glide_rewards>  (246) 
0

>  <r_i_glide_evdw>  (246) 
-17.9242

>  <r_i_glide_ecoul>  (246) 
-0.886182

>  <r_i_glide_erotb>  (246) 
0

>  <r_i_glide_esite>  (246) 
-0.00291749

>  <r_i_glide_emodel>  (246) 
-19.4542

>  <r_i_glide_energy>  (246) 
-18.8104

>  <r_i_glide_einternal>  (246) 
2.37374

>  <r_i_glide_intrahb_reward>  (246) 
-0

>  <i_i_glide_confnum>  (246) 
2

>  <i_i_glide_posenum>  (246) 
32

>  <r_i_glide_eff_state_penalty>  (246) 
0

>  <ligand_id>  (246) 
81

>  <original_smiles>  (246) 
CC1(C)C(O)CCC2(C)C3C4C1CCC2(C)C1C(O)CC1(C)C(C)(C4O)C1C(O)CC2C(CCC4(O)C(C)(C)C(=O)C=CC24C)C31C

>  <smiles>  (246) 
[H]OC1([H])C([H])([H])C2(C([H])([H])[H])C1([H])C1(C([H])([H])[H])C([H])([H])C([H])([H])C3([H])C4([H])C([H])(O[H])C2(C([H])([H])[H])C2([H])C([H])(O[H])C([H])([H])C5([H])C([H])(C([H])([H])C([H])([H])C6(O[H])C(C([H])([H])[H])(C([H])([H])[H])C(=O)C([H])=C([H])C56C([H])([H])[H])C2(C([H])([H])[H])C4([H])C1(C([H])([H])[H])C([H])([H])C([H])([H])C([H])(O[H])C3(C([H])([H])[H])C([H])([H])[H]

$$$$
82:0:0
     RDKit          3D

 84 92  0  0  1  0  0  0  0  0999 V2000
   -0.8447   -9.0010    2.2982 C   0  0  0  0  0  0  0  0  0  0  0  0
    0.1918   -8.2031    1.9804 C   0  0  0  0  0  0  0  0  0  0  0  0
    1.4288   -7.8963    2.8245 C   0  0  2  0  0  0  0  0  0  0  0  0
    2.7339   -8.0501    1.9513 C   0  0  0  0  0  0  0  0  0  0  0  0
    3.1684   -9.4399    1.5687 C   0  0  0  0  0  0  0  0  0  0  0  0
    4.4047   -9.7897    2.4233 C   0  0  2  0  0  0  0  0  0  0  0  0
    4.1318  -10.7038    3.6350 C   0  0  0  0  0  0  0  0  0  0  0  0
    4.5884  -10.1932    5.0083 C   0  0  1  0  0  0  0  0  0  0  0  0
    5.4449  -11.2781    5.7264 C   0  0  0  0  0  0  0  0  0  0  0  0
    6.6858  -10.7032    5.0236 C   0  0  0  0  0  0  0  0  0  0  0  0
    5.9449   -9.3636    5.0586 C   0  0  2  0  0  0  0  0  0  0  0  0
    6.0503   -8.7644    6.3556 O   0  0  0  0  0  0  0  0  0  0  0  0
    7.3008   -8.1598    6.6794 C   0  0  0  0  0  0  0  0  0  0  0  0
    5.9951   -8.2780    3.9734 C   0  0  1  0  0  0  0  0  0  0  0  0
    6.9185   -7.1795    3.6927 O   0  0  0  0  0  0  0  0  0  0  0  0
    6.3976   -6.4149    2.5711 C   0  0  1  0  0  0  0  0  0  0  0  0
    7.2742   -6.7344    1.2937 N   0  0  1  0  0  0  0  0  0  0  0  0
    8.4500   -5.8007    1.1757 C   0  0  0  0  0  0  0  0  0  0  0  0
    8.0337   -4.4453    0.6094 C   0  0  0  0  0  0  0  0  0  0  0  0
    8.6665   -3.9248   -0.6773 C   0  0  0  0  0  0  0  0  0  0  0  0
    9.0273   -3.2890    0.6329 C   0  0  0  0  0  0  0  0  0  0  0  0
    7.7679   -8.1290    1.3600 C   0  0  0  0  0  0  0  0  0  0  0  0
    6.5497   -9.0295    1.5582 C   0  0  0  0  0  0  0  0  0  0  0  0
    5.4462   -8.5844    2.5988 C   0  0  1  0  0  0  0  0  0  0  0  0
    4.9765   -7.0601    2.4058 C   0  0  1  0  0  0  0  0  0  0  0  0
    4.2965   -6.0377    3.4348 C   0  0  0  0  0  0  0  0  0  0  0  0
    3.7187   -4.9055    2.5814 C   0  0  0  0  0  0  0  0  0  0  0  0
    3.2259   -5.6045    1.4157 N   0  0  0  0  0  0  0  0  0  0  0  0
    2.2689   -5.1334    0.5887 C   0  0  0  0  0  0  0  0  0  0  0  0
    2.2469   -3.6315    0.2956 C   0  0  0  0  0  0  0  0  0  0  0  0
    1.4533   -5.8495    0.0291 O   0  0  0  0  0  0  0  0  0  0  0  0
    3.7677   -6.9600    1.3907 C   0  0  2  0  0  0  0  0  0  0  0  0
    3.2896   -9.6925    5.7570 C   0  0  0  0  0  0  0  0  0  0  0  0
    2.5227   -8.5253    5.1569 N   0  0  2  0  0  0  0  0  0  0  0  0
    1.5814   -7.9040    6.1068 C   0  0  0  0  0  0  0  0  0  0  0  0
    0.4149   -8.3362    5.2382 C   0  0  0  0  0  0  0  0  0  0  0  0
    1.4106   -8.7635    4.1697 C   0  0  1  0  0  0  0  0  0  0  0  0
   -0.9256   -9.5413    3.2358 H   0  0  0  0  0  0  0  0  0  0  0  0
   -1.6576   -9.1401    1.5962 H   0  0  0  0  0  0  0  0  0  0  0  0
    0.1575   -7.7276    1.0078 H   0  0  0  0  0  0  0  0  0  0  0  0
    1.3265   -6.8406    3.0832 H   0  0  0  0  0  0  0  0  0  0  0  0
    3.1248   -8.0953    2.9312 H   0  0  0  0  0  0  0  0  0  0  0  0
    2.3758  -10.1724    1.6880 H   0  0  0  0  0  0  0  0  0  0  0  0
    3.4291   -9.4504    0.5049 H   0  0  0  0  0  0  0  0  0  0  0  0
    4.8465  -10.5309    1.7651 H   0  0  0  0  0  0  0  0  0  0  0  0
    3.0928  -11.0365    3.6589 H   0  0  0  0  0  0  0  0  0  0  0  0
    4.6423  -11.6476    3.4103 H   0  0  0  0  0  0  0  0  0  0  0  0
    5.4745  -11.1600    6.8114 H   0  0  0  0  0  0  0  0  0  0  0  0
    5.2112  -12.3077    5.4586 H   0  0  0  0  0  0  0  0  0  0  0  0
    7.5913  -10.7683    5.6216 H   0  0  0  0  0  0  0  0  0  0  0  0
    6.8367  -11.0982    4.0202 H   0  0  0  0  0  0  0  0  0  0  0  0
    7.2803   -7.8484    7.7237 H   0  0  0  0  0  0  0  0  0  0  0  0
    7.4888   -7.2655    6.0859 H   0  0  0  0  0  0  0  0  0  0  0  0
    8.1469   -8.8387    6.5616 H   0  0  0  0  0  0  0  0  0  0  0  0
    5.2329   -7.7676    4.5402 H   0  0  0  0  0  0  0  0  0  0  0  0
    6.4351   -5.3320    2.7633 H   0  0  0  0  0  0  0  0  0  0  0  0
    8.8873   -5.6570    2.1665 H   0  0  0  0  0  0  0  0  0  0  0  0
    9.2198   -6.2169    0.5454 H   0  0  0  0  0  0  0  0  0  0  0  0
    7.0053   -4.1498    0.7963 H   0  0  0  0  0  0  0  0  0  0  0  0
    9.4150   -4.5361   -1.1714 H   0  0  0  0  0  0  0  0  0  0  0  0
    8.0353   -3.3493   -1.3498 H   0  0  0  0  0  0  0  0  0  0  0  0
    8.6280   -2.2922    0.8075 H   0  0  0  0  0  0  0  0  0  0  0  0
   10.0176   -3.4673    1.0446 H   0  0  0  0  0  0  0  0  0  0  0  0
    8.2799   -8.3792    0.4436 H   0  0  0  0  0  0  0  0  0  0  0  0
    8.4760   -8.2444    2.1764 H   0  0  0  0  0  0  0  0  0  0  0  0
    6.0819   -9.1481    0.5802 H   0  0  0  0  0  0  0  0  0  0  0  0
    6.9415  -10.0247    1.8128 H   0  0  0  0  0  0  0  0  0  0  0  0
    3.4795   -6.4353    4.0207 H   0  0  0  0  0  0  0  0  0  0  0  0
    4.9461   -5.6164    4.2151 H   0  0  0  0  0  0  0  0  0  0  0  0
    2.9320   -4.3694    3.1149 H   0  0  0  0  0  0  0  0  0  0  0  0
    4.4811   -4.1814    2.2812 H   0  0  0  0  0  0  0  0  0  0  0  0
    1.8360   -3.0502    1.1217 H   0  0  0  0  0  0  0  0  0  0  0  0
    1.6486   -3.4408   -0.5936 H   0  0  0  0  0  0  0  0  0  0  0  0
    3.2450   -3.2619    0.0721 H   0  0  0  0  0  0  0  0  0  0  0  0
    4.0825   -7.1997    0.3730 H   0  0  0  0  0  0  0  0  0  0  0  0
    2.6137  -10.5254    5.9575 H   0  0  0  0  0  0  0  0  0  0  0  0
    3.6000   -9.3579    6.7410 H   0  0  0  0  0  0  0  0  0  0  0  0
    1.5298   -8.3269    7.1078 H   0  0  0  0  0  0  0  0  0  0  0  0
    1.6908   -6.8205    6.1251 H   0  0  0  0  0  0  0  0  0  0  0  0
   -0.1649   -9.1691    5.6558 H   0  0  0  0  0  0  0  0  0  0  0  0
   -0.2248   -7.5015    4.9320 H   0  0  0  0  0  0  0  0  0  0  0  0
    1.2854   -9.8288    3.9874 H   0  0  0  0  0  0  0  0  0  0  0  0
    3.1417   -7.8209    4.8396 H   0  0  0  0  0  0  0  0  0  0  0  0
    6.7524   -6.6518    0.4454 H   0  0  0  0  0  0  0  0  0  0  0  0
  1  2  2  0
  1 38  1  0
  1 39  1  0
  2  3  1  0
  2 40  1  0
  3 37  1  0
  3  4  1  0
  3 41  1  1
  4 32  1  0
  4  5  1  0
  4 42  1  0
  5  6  1  0
  5 43  1  0
  5 44  1  0
  6 24  1  0
  6  7  1  0
  6 45  1  6
  7  8  1  0
  7 46  1  0
  7 47  1  0
  8 11  1  0
  8  9  1  1
  8 33  1  0
  9 10  1  0
  9 48  1  0
  9 49  1  0
 10 11  1  0
 10 50  1  0
 10 51  1  0
 11 12  1  1
 11 14  1  0
 12 13  1  0
 13 52  1  0
 13 53  1  0
 13 54  1  0
 14 24  1  0
 14 15  1  0
 14 55  1  1
 15 16  1  0
 16 25  1  0
 16 17  1  0
 16 56  1  1
 17 18  1  0
 17 22  1  0
 17 84  1  6
 18 19  1  0
 18 57  1  0
 18 58  1  0
 19 21  1  0
 19 20  1  0
 19 59  1  0
 20 21  1  0
 20 60  1  0
 20 61  1  0
 21 62  1  0
 21 63  1  0
 22 23  1  0
 22 64  1  0
 22 65  1  0
 24 23  1  6
 23 66  1  0
 23 67  1  0
 24 25  1  0
 25 32  1  0
 25 26  1  1
 26 27  1  0
 26 68  1  0
 26 69  1  0
 27 28  1  0
 27 70  1  0
 27 71  1  0
 28 29  1  0
 28 32  1  0
 29 30  1  0
 29 31  2  0
 30 72  1  0
 30 73  1  0
 30 74  1  0
 32 75  1  6
 33 34  1  0
 33 76  1  0
 33 77  1  0
 34 37  1  0
 34 35  1  0
 34 83  1  6
 35 36  1  0
 35 78  1  0
 35 79  1  0
 36 37  1  0
 36 80  1  0
 36 81  1  0
 37 82  1  6
M  CHG  2  17   1  34   1
M  END
>  <i_m_ct_stereo_status>  (247) 
1

>  <s_m_source_file>  (247) 
/var/tmp/pbs.5076255.sched01/tmpnszqc94g/84e4epk0lh.sdf

>  <i_m_source_file_index>  (247) 
30

>  <i_lp_mmshare_version>  (247) 
48012

>  <i_f3d_flags>  (247) 
0

>  <s_epik_input>  (247) 
W0NIMl0xW0NIMl1OKFtDSDJdMilbQ0BASF0xW0NASF0oW0NIXT1bQ0gyXSlbQ0BASF0oW0NIMl1bQ0BASF0zW0NIMl00KVtDQEBIXShOKFtDSDJdW0NIMl01KUMoPU8pW0NIM10pW0NAQF01KFtDQEBdMzZbQ0BIXTdbQ0BAXShbQ0BAXTI0OCkoW0NIMl1bQ0gyXTgpT1tDSDNdKVtDQEBIXShPNylOKFtDSDJdW0NIMl02KVtDSDJdW0NIXTlbQ0gyXVtDSDJdOQ==

>  <s_epik_cmdline>  (247) 
J2VwaWtfcHl0aG9uJywgJy1waHQnLCAnMi4wJywgJy1waCcsICc3LjAnLCAnLXRuJywgJzgnLCAnLW1hJywgJzIwMCcsICctaW1hZScsICc8aW5maWxlLm1hZT4nLCAnLW9tYWUnLCAnPG91dGZpbGUubWFlPic=

>  <r_epik_Ionization_Penalty>  (247) 
0.290862

>  <r_epik_Ionization_Penalty_Charging>  (247) 
0.29086

>  <r_epik_Ionization_Penalty_Neutral>  (247) 
1.45163e-06

>  <r_epik_State_Penalty>  (247) 
0.283503

>  <r_epik_Charging_Adjusted_Penalty>  (247) 
0.574363

>  <i_epik_Tot_Q>  (247) 
2

>  <i_epik_Tot_abs_Q>  (247) 
2

>  <s_epik_Chemistry_Notes>  (247) 
This compound contains an acetal/aminal-like group ( X-CH(R)-Y where X, Y are N, S, or O) that may be acid/base labile, releasing an aldehyde.

>  <s_lp_Force_Field>  (247) 
OPLS3e

>  <r_lp_Energy>  (247) 
209.312

>  <b_lp_Chiralities_Consistent>  (247) 
1

>  <s_lp_Variant>  (247) 
82:0-1

>  <s_i_glide_gridfile>  (247) 
pfpi4k_grid

>  <i_i_glide_lignum>  (247) 
30

>  <i_i_glide_rotatable_bonds>  (247) 
5

>  <r_i_docking_score>  (247) 
-2.80922

>  <r_i_glide_ligand_efficiency>  (247) 
-0.075925

>  <r_i_glide_ligand_efficiency_sa>  (247) 
-0.252999

>  <r_i_glide_ligand_efficiency_ln>  (247) 
-0.609255

>  <r_i_glide_gscore>  (247) 
-2.80922

>  <r_i_glide_lipo>  (247) 
-0.548154

>  <r_i_glide_hbond>  (247) 
-0.249353

>  <r_i_glide_metal>  (247) 
-0

>  <r_i_glide_rewards>  (247) 
-0.0433416

>  <r_i_glide_evdw>  (247) 
-26.3868

>  <r_i_glide_ecoul>  (247) 
-5.4954

>  <r_i_glide_erotb>  (247) 
0.236494

>  <r_i_glide_esite>  (247) 
-0.0612199

>  <r_i_glide_emodel>  (247) 
-33.6416

>  <r_i_glide_energy>  (247) 
-31.8822

>  <r_i_glide_einternal>  (247) 
6.22354

>  <r_i_glide_intrahb_reward>  (247) 
-0

>  <i_i_glide_confnum>  (247) 
5

>  <i_i_glide_posenum>  (247) 
9

>  <r_i_glide_eff_state_penalty>  (247) 
0

>  <ligand_id>  (247) 
82

>  <original_smiles>  (247) 
C=CC1C2CC3CC4(CCC4(OC)C4OC5N(CC6CC6)CCC34C53CCN(C(C)=O)C23)CN2CCC12

>  <smiles>  (247) 
[H]C([H])=C([H])C1([H])C2([H])C([H])([H])C3([H])C([H])([H])C4(C([H])([H])C([H])([H])C4(OC([H])([H])[H])C4([H])OC5([H])C6(C([H])([H])C([H])([H])N(C(=O)C([H])([H])[H])C26[H])C43C([H])([H])C([H])([H])[N+]5([H])C([H])([H])C2([H])C([H])([H])C2([H])[H])C([H])([H])[N+]2([H])C([H])([H])C([H])([H])C12[H]

$$$$
82:0:1
     RDKit          3D

 84 92  0  0  1  0  0  0  0  0999 V2000
    3.3472   -1.6444    7.5179 C   0  0  0  0  0  0  0  0  0  0  0  0
    3.9496   -1.8349    6.3297 C   0  0  0  0  0  0  0  0  0  0  0  0
    3.2600   -2.2876    5.0523 C   0  0  2  0  0  0  0  0  0  0  0  0
    3.8164   -3.6937    4.6089 C   0  0  0  0  0  0  0  0  0  0  0  0
    5.2174   -3.7640    4.0784 C   0  0  0  0  0  0  0  0  0  0  0  0
    5.1060   -3.9814    2.5535 C   0  0  2  0  0  0  0  0  0  0  0  0
    5.3395   -2.7342    1.6848 C   0  0  0  0  0  0  0  0  0  0  0  0
    4.2275   -2.3857    0.6846 C   0  0  1  0  0  0  0  0  0  0  0  0
    4.8391   -2.1808   -0.7301 C   0  0  0  0  0  0  0  0  0  0  0  0
    4.7084   -3.6923   -0.9648 C   0  0  0  0  0  0  0  0  0  0  0  0
    3.4921   -3.6115   -0.0285 C   0  0  2  0  0  0  0  0  0  0  0  0
    2.3482   -3.0631   -0.6864 O   0  0  0  0  0  0  0  0  0  0  0  0
    1.8005   -3.7863   -1.7857 C   0  0  0  0  0  0  0  0  0  0  0  0
    3.0325   -4.6722    0.9777 C   0  0  1  0  0  0  0  0  0  0  0  0
    2.1775   -5.8609    0.8884 O   0  0  0  0  0  0  0  0  0  0  0  0
    2.0600   -6.4400    2.2271 C   0  0  1  0  0  0  0  0  0  0  0  0
    2.9747   -7.7465    2.2650 N   0  0  1  0  0  0  0  0  0  0  0  0
    2.2013   -8.9517    1.8656 C   0  0  0  0  0  0  0  0  0  0  0  0
    1.3973   -9.5545    3.0004 C   0  0  0  0  0  0  0  0  0  0  0  0
    1.6040  -10.9973    3.4330 C   0  0  0  0  0  0  0  0  0  0  0  0
    0.3476  -10.6145    2.7211 C   0  0  0  0  0  0  0  0  0  0  0  0
    4.1527   -7.5785    1.4320 C   0  0  0  0  0  0  0  0  0  0  0  0
    4.8561   -6.2981    1.8403 C   0  0  0  0  0  0  0  0  0  0  0  0
    3.9641   -5.0218    2.1194 C   0  0  1  0  0  0  0  0  0  0  0  0
    2.7284   -5.3191    3.0935 C   0  0  1  0  0  0  0  0  0  0  0  0
    1.3498   -4.5292    3.2873 C   0  0  0  0  0  0  0  0  0  0  0  0
    0.7771   -4.9917    4.6245 C   0  0  0  0  0  0  0  0  0  0  0  0
    1.9477   -5.1308    5.4602 N   0  0  0  0  0  0  0  0  0  0  0  0
    1.9201   -5.1619    6.8073 C   0  0  0  0  0  0  0  0  0  0  0  0
    3.2404   -5.2567    7.5683 C   0  0  0  0  0  0  0  0  0  0  0  0
    0.8564   -5.1102    7.4351 O   0  0  0  0  0  0  0  0  0  0  0  0
    3.1361   -5.1423    4.6079 C   0  0  2  0  0  0  0  0  0  0  0  0
    3.4286   -1.1764    1.3235 C   0  0  0  0  0  0  0  0  0  0  0  0
    2.7171   -1.3653    2.6359 N   0  0  2  0  0  0  0  0  0  0  0  0
    1.7206   -0.3368    2.9181 C   0  0  0  0  0  0  0  0  0  0  0  0
    2.5248    0.0981    4.1284 C   0  0  0  0  0  0  0  0  0  0  0  0
    3.3973   -1.1366    3.9555 C   0  0  1  0  0  0  0  0  0  0  0  0
    2.2847   -1.8055    7.6483 H   0  0  0  0  0  0  0  0  0  0  0  0
    3.9138   -1.3254    8.3887 H   0  0  0  0  0  0  0  0  0  0  0  0
    5.0158   -1.6499    6.2719 H   0  0  0  0  0  0  0  0  0  0  0  0
    2.2039   -2.3969    5.3140 H   0  0  0  0  0  0  0  0  0  0  0  0
    3.3917   -3.3392    3.7101 H   0  0  0  0  0  0  0  0  0  0  0  0
    5.7773   -2.8605    4.3077 H   0  0  0  0  0  0  0  0  0  0  0  0
    5.7419   -4.6016    4.5575 H   0  0  0  0  0  0  0  0  0  0  0  0
    6.0676   -4.4519    2.4022 H   0  0  0  0  0  0  0  0  0  0  0  0
    5.6097   -1.8682    2.2879 H   0  0  0  0  0  0  0  0  0  0  0  0
    6.2752   -2.9187    1.1410 H   0  0  0  0  0  0  0  0  0  0  0  0
    4.1993   -1.5824   -1.3889 H   0  0  0  0  0  0  0  0  0  0  0  0
    5.8676   -1.8233   -0.7541 H   0  0  0  0  0  0  0  0  0  0  0  0
    4.5404   -3.9517   -2.0048 H   0  0  0  0  0  0  0  0  0  0  0  0
    5.5263   -4.2767   -0.5473 H   0  0  0  0  0  0  0  0  0  0  0  0
    0.9781   -3.2175   -2.2125 H   0  0  0  0  0  0  0  0  0  0  0  0
    1.4183   -4.7683   -1.4877 H   0  0  0  0  0  0  0  0  0  0  0  0
    2.4866   -3.8624   -2.6274 H   0  0  0  0  0  0  0  0  0  0  0  0
    2.3252   -3.9464    1.3469 H   0  0  0  0  0  0  0  0  0  0  0  0
    1.0270   -6.7158    2.4686 H   0  0  0  0  0  0  0  0  0  0  0  0
    1.5224   -8.6746    1.0550 H   0  0  0  0  0  0  0  0  0  0  0  0
    2.8329   -9.7470    1.4640 H   0  0  0  0  0  0  0  0  0  0  0  0
    1.0948   -8.8503    3.7850 H   0  0  0  0  0  0  0  0  0  0  0  0
    2.3264  -11.6109    2.8877 H   0  0  0  0  0  0  0  0  0  0  0  0
    1.5126  -11.2317    4.4927 H   0  0  0  0  0  0  0  0  0  0  0  0
   -0.5638  -10.5947    3.3181 H   0  0  0  0  0  0  0  0  0  0  0  0
    0.2160  -10.9700    1.6977 H   0  0  0  0  0  0  0  0  0  0  0  0
    4.8297   -8.4300    1.5198 H   0  0  0  0  0  0  0  0  0  0  0  0
    3.8786   -7.5267    0.3749 H   0  0  0  0  0  0  0  0  0  0  0  0
    5.4238   -6.5300    2.7444 H   0  0  0  0  0  0  0  0  0  0  0  0
    5.6011   -6.0869    1.0701 H   0  0  0  0  0  0  0  0  0  0  0  0
    1.4137   -3.4518    3.3544 H   0  0  0  0  0  0  0  0  0  0  0  0
    0.6015   -4.6802    2.5072 H   0  0  0  0  0  0  0  0  0  0  0  0
    0.0357   -4.2987    5.0288 H   0  0  0  0  0  0  0  0  0  0  0  0
    0.2877   -5.9655    4.5528 H   0  0  0  0  0  0  0  0  0  0  0  0
    3.6312   -6.2705    7.5156 H   0  0  0  0  0  0  0  0  0  0  0  0
    3.1123   -4.9803    8.6118 H   0  0  0  0  0  0  0  0  0  0  0  0
    3.9886   -4.5866    7.1517 H   0  0  0  0  0  0  0  0  0  0  0  0
    3.8279   -5.9262    4.9200 H   0  0  0  0  0  0  0  0  0  0  0  0
    4.0632   -0.2848    1.3696 H   0  0  0  0  0  0  0  0  0  0  0  0
    2.6641   -0.8922    0.6039 H   0  0  0  0  0  0  0  0  0  0  0  0
    1.6044    0.4694    2.1871 H   0  0  0  0  0  0  0  0  0  0  0  0
    0.7593   -0.7530    3.2016 H   0  0  0  0  0  0  0  0  0  0  0  0
    3.0550    1.0483    3.9845 H   0  0  0  0  0  0  0  0  0  0  0  0
    1.9381    0.0853    5.0529 H   0  0  0  0  0  0  0  0  0  0  0  0
    4.4212   -0.7861    3.8092 H   0  0  0  0  0  0  0  0  0  0  0  0
    2.2273   -2.2473    2.6346 H   0  0  0  0  0  0  0  0  0  0  0  0
    3.3127   -7.9473    3.2144 H   0  0  0  0  0  0  0  0  0  0  0  0
  1  2  2  0
  1 38  1  0
  1 39  1  0
  2  3  1  0
  2 40  1  0
  3 37  1  0
  3  4  1  0
  3 41  1  1
  4 32  1  0
  4  5  1  0
  4 42  1  0
  5  6  1  0
  5 43  1  0
  5 44  1  0
  6 24  1  0
  6  7  1  0
  6 45  1  6
  7  8  1  0
  7 46  1  0
  7 47  1  0
  8 11  1  0
  8  9  1  6
  8 33  1  0
  9 10  1  0
  9 48  1  0
  9 49  1  0
 10 11  1  0
 10 50  1  0
 10 51  1  0
 11 12  1  6
 11 14  1  0
 12 13  1  0
 13 52  1  0
 13 53  1  0
 13 54  1  0
 14 24  1  0
 14 15  1  0
 14 55  1  1
 15 16  1  0
 16 25  1  0
 16 17  1  0
 16 56  1  1
 17 18  1  0
 17 22  1  0
 17 84  1  1
 18 19  1  0
 18 57  1  0
 18 58  1  0
 19 21  1  0
 19 20  1  0
 19 59  1  0
 20 21  1  0
 20 60  1  0
 20 61  1  0
 21 62  1  0
 21 63  1  0
 22 23  1  0
 22 64  1  0
 22 65  1  0
 24 23  1  6
 23 66  1  0
 23 67  1  0
 24 25  1  0
 25 32  1  0
 25 26  1  6
 26 27  1  0
 26 68  1  0
 26 69  1  0
 27 28  1  0
 27 70  1  0
 27 71  1  0
 28 29  1  0
 28 32  1  0
 29 30  1  0
 29 31  2  0
 30 72  1  0
 30 73  1  0
 30 74  1  0
 32 75  1  1
 33 34  1  0
 33 76  1  0
 33 77  1  0
 34 37  1  0
 34 35  1  0
 34 83  1  1
 35 36  1  0
 35 78  1  0
 35 79  1  0
 36 37  1  0
 36 80  1  0
 36 81  1  0
 37 82  1  6
M  CHG  2  17   1  34   1
M  END
>  <i_m_ct_stereo_status>  (248) 
1

>  <s_m_source_file>  (248) 
/var/tmp/pbs.5076255.sched01/tmpnszqc94g/84e4epk0lh.sdf

>  <i_m_source_file_index>  (248) 
30

>  <i_lp_mmshare_version>  (248) 
48012

>  <i_f3d_flags>  (248) 
0

>  <s_epik_input>  (248) 
W0NIMl0xW0NIMl1OKFtDSDJdMilbQ0BASF0xW0NASF0oW0NIXT1bQ0gyXSlbQ0BASF0oW0NIMl1bQ0BASF0zW0NIMl00KVtDQEBIXShOKFtDSDJdW0NIMl01KUMoPU8pW0NIM10pW0NAQF01KFtDQEBdMzZbQ0BIXTdbQ0BAXShbQ0BAXTI0OCkoW0NIMl1bQ0gyXTgpT1tDSDNdKVtDQEBIXShPNylOKFtDSDJdW0NIMl02KVtDSDJdW0NIXTlbQ0gyXVtDSDJdOQ==

>  <s_epik_cmdline>  (248) 
J2VwaWtfcHl0aG9uJywgJy1waHQnLCAnMi4wJywgJy1waCcsICc3LjAnLCAnLXRuJywgJzgnLCAnLW1hJywgJzIwMCcsICctaW1hZScsICc8aW5maWxlLm1hZT4nLCAnLW9tYWUnLCAnPG91dGZpbGUubWFlPic=

>  <r_epik_Ionization_Penalty>  (248) 
0.290862

>  <r_epik_Ionization_Penalty_Charging>  (248) 
0.29086

>  <r_epik_Ionization_Penalty_Neutral>  (248) 
1.45163e-06

>  <r_epik_State_Penalty>  (248) 
0.283503

>  <r_epik_Charging_Adjusted_Penalty>  (248) 
0.574363

>  <i_epik_Tot_Q>  (248) 
2

>  <i_epik_Tot_abs_Q>  (248) 
2

>  <s_epik_Chemistry_Notes>  (248) 
This compound contains an acetal/aminal-like group ( X-CH(R)-Y where X, Y are N, S, or O) that may be acid/base labile, releasing an aldehyde.

>  <s_lp_Force_Field>  (248) 
OPLS3e

>  <r_lp_Energy>  (248) 
209.312

>  <b_lp_Chiralities_Consistent>  (248) 
1

>  <s_lp_Variant>  (248) 
82:0-1

>  <s_i_glide_gridfile>  (248) 
pfpi4k_grid

>  <i_i_glide_lignum>  (248) 
30

>  <i_i_glide_rotatable_bonds>  (248) 
5

>  <r_i_docking_score>  (248) 
-2.4375

>  <r_i_glide_ligand_efficiency>  (248) 
-0.0658783

>  <r_i_glide_ligand_efficiency_sa>  (248) 
-0.219521

>  <r_i_glide_ligand_efficiency_ln>  (248) 
-0.528636

>  <r_i_glide_gscore>  (248) 
-2.4375

>  <r_i_glide_lipo>  (248) 
-0.541173

>  <r_i_glide_hbond>  (248) 
0

>  <r_i_glide_metal>  (248) 
-0

>  <r_i_glide_rewards>  (248) 
0

>  <r_i_glide_evdw>  (248) 
-22.8118

>  <r_i_glide_ecoul>  (248) 
-6.42815

>  <r_i_glide_erotb>  (248) 
0.236494

>  <r_i_glide_esite>  (248) 
-0.028006

>  <r_i_glide_emodel>  (248) 
-33.1777

>  <r_i_glide_energy>  (248) 
-29.2399

>  <r_i_glide_einternal>  (248) 
2.80212

>  <r_i_glide_intrahb_reward>  (248) 
-0

>  <i_i_glide_confnum>  (248) 
5

>  <i_i_glide_posenum>  (248) 
30

>  <r_i_glide_eff_state_penalty>  (248) 
0

>  <ligand_id>  (248) 
82

>  <original_smiles>  (248) 
C=CC1C2CC3CC4(CCC4(OC)C4OC5N(CC6CC6)CCC34C53CCN(C(C)=O)C23)CN2CCC12

>  <smiles>  (248) 
[H]C([H])=C([H])C1([H])C2([H])C([H])([H])C3([H])C([H])([H])C4(C([H])([H])C([H])([H])C4(OC([H])([H])[H])C4([H])OC5([H])C6(C([H])([H])C([H])([H])N(C(=O)C([H])([H])[H])C26[H])C43C([H])([H])C([H])([H])[N+]5([H])C([H])([H])C2([H])C([H])([H])C2([H])[H])C([H])([H])[N+]2([H])C([H])([H])C([H])([H])C12[H]

$$$$
82:0:2
     RDKit          3D

 84 92  0  0  1  0  0  0  0  0999 V2000
    3.2735   -1.7098    7.6520 C   0  0  0  0  0  0  0  0  0  0  0  0
    3.8898   -1.8877    6.4690 C   0  0  0  0  0  0  0  0  0  0  0  0
    3.2181   -2.3336    5.1823 C   0  0  2  0  0  0  0  0  0  0  0  0
    3.7985   -3.7295    4.7411 C   0  0  0  0  0  0  0  0  0  0  0  0
    5.2049   -3.7794    4.2148 C   0  0  0  0  0  0  0  0  0  0  0  0
    5.1070   -3.9814    2.6870 C   0  0  2  0  0  0  0  0  0  0  0  0
    5.3364   -2.7257    1.8286 C   0  0  0  0  0  0  0  0  0  0  0  0
    4.2298   -2.3779    0.8223 C   0  0  1  0  0  0  0  0  0  0  0  0
    4.8485   -2.1550   -0.5867 C   0  0  0  0  0  0  0  0  0  0  0  0
    4.7264   -3.6643   -0.8410 C   0  0  0  0  0  0  0  0  0  0  0  0
    3.5114   -3.6035    0.0955 C   0  0  2  0  0  0  0  0  0  0  0  0
    2.3662   -3.0739   -0.5697 O   0  0  0  0  0  0  0  0  0  0  0  0
    1.7980   -3.8329   -1.6296 C   0  0  0  0  0  0  0  0  0  0  0  0
    3.0592   -4.6815    1.0848 C   0  0  1  0  0  0  0  0  0  0  0  0
    2.2201   -5.8798    0.9749 O   0  0  0  0  0  0  0  0  0  0  0  0
    2.0926   -6.4726    2.3073 C   0  0  1  0  0  0  0  0  0  0  0  0
    3.0208   -7.7692    2.3397 N   0  0  1  0  0  0  0  0  0  0  0  0
    2.2658   -8.9826    1.9210 C   0  0  0  0  0  0  0  0  0  0  0  0
    1.4400   -9.5967    3.0355 C   0  0  0  0  0  0  0  0  0  0  0  0
    1.6093  -11.0564    3.4276 C   0  0  0  0  0  0  0  0  0  0  0  0
    0.3591  -10.6218    2.7331 C   0  0  0  0  0  0  0  0  0  0  0  0
    4.2051   -7.5806    1.5193 C   0  0  0  0  0  0  0  0  0  0  0  0
    4.8901   -6.2950    1.9467 C   0  0  0  0  0  0  0  0  0  0  0  0
    3.9809   -5.0305    2.2328 C   0  0  1  0  0  0  0  0  0  0  0  0
    2.7401   -5.3512    3.1918 C   0  0  1  0  0  0  0  0  0  0  0  0
    1.3496   -4.5791    3.3743 C   0  0  0  0  0  0  0  0  0  0  0  0
    0.7564   -5.0645    4.6941 C   0  0  0  0  0  0  0  0  0  0  0  0
    1.9154   -5.1935    5.5518 N   0  0  0  0  0  0  0  0  0  0  0  0
    1.8959   -5.2460    6.8972 C   0  0  0  0  0  0  0  0  0  0  0  0
    0.5491   -5.3200    7.6172 C   0  0  0  0  0  0  0  0  0  0  0  0
    2.9357   -5.2379    7.5689 O   0  0  0  0  0  0  0  0  0  0  0  0
    3.1195   -5.1791    4.7185 C   0  0  2  0  0  0  0  0  0  0  0  0
    3.4155   -1.1855    1.4655 C   0  0  0  0  0  0  0  0  0  0  0  0
    2.6914   -1.3980    2.7664 N   0  0  2  0  0  0  0  0  0  0  0  0
    1.6797   -0.3833    3.0468 C   0  0  0  0  0  0  0  0  0  0  0  0
    2.4660    0.0502    4.2687 C   0  0  0  0  0  0  0  0  0  0  0  0
    3.3540   -1.1731    4.0958 C   0  0  1  0  0  0  0  0  0  0  0  0
    2.2109   -1.8798    7.7697 H   0  0  0  0  0  0  0  0  0  0  0  0
    3.8299   -1.3934    8.5299 H   0  0  0  0  0  0  0  0  0  0  0  0
    4.9554   -1.6963    6.4232 H   0  0  0  0  0  0  0  0  0  0  0  0
    2.1601   -2.4589    5.4317 H   0  0  0  0  0  0  0  0  0  0  0  0
    3.3759   -3.3738    3.8420 H   0  0  0  0  0  0  0  0  0  0  0  0
    5.7673   -2.8788    4.4526 H   0  0  0  0  0  0  0  0  0  0  0  0
    5.7331   -4.6173    4.6871 H   0  0  0  0  0  0  0  0  0  0  0  0
    6.0735   -4.4402    2.5360 H   0  0  0  0  0  0  0  0  0  0  0  0
    5.5897   -1.8619    2.4422 H   0  0  0  0  0  0  0  0  0  0  0  0
    6.2804   -2.8944    1.2920 H   0  0  0  0  0  0  0  0  0  0  0  0
    4.2093   -1.5546   -1.2440 H   0  0  0  0  0  0  0  0  0  0  0  0
    5.8747   -1.7896   -0.5986 H   0  0  0  0  0  0  0  0  0  0  0  0
    4.5504   -3.9082   -1.8842 H   0  0  0  0  0  0  0  0  0  0  0  0
    5.5526   -4.2455   -0.4339 H   0  0  0  0  0  0  0  0  0  0  0  0
    0.9834   -3.2691   -2.0793 H   0  0  0  0  0  0  0  0  0  0  0  0
    1.4024   -4.7928   -1.2894 H   0  0  0  0  0  0  0  0  0  0  0  0
    2.4830   -3.9718   -2.4607 H   0  0  0  0  0  0  0  0  0  0  0  0
    2.3383   -3.9688    1.4524 H   0  0  0  0  0  0  0  0  0  0  0  0
    1.0587   -6.7594    2.5311 H   0  0  0  0  0  0  0  0  0  0  0  0
    1.6028   -8.7108    1.0950 H   0  0  0  0  0  0  0  0  0  0  0  0
    2.9140   -9.7686    1.5309 H   0  0  0  0  0  0  0  0  0  0  0  0
    1.1645   -8.9093    3.8451 H   0  0  0  0  0  0  0  0  0  0  0  0
    2.3241  -11.6667    2.8697 H   0  0  0  0  0  0  0  0  0  0  0  0
    1.5216  -11.3139    4.4823 H   0  0  0  0  0  0  0  0  0  0  0  0
   -0.5465  -10.5930    3.3372 H   0  0  0  0  0  0  0  0  0  0  0  0
    0.2004  -10.9413    1.7003 H   0  0  0  0  0  0  0  0  0  0  0  0
    4.8921   -8.4223    1.6057 H   0  0  0  0  0  0  0  0  0  0  0  0
    3.9394   -7.5232    0.4597 H   0  0  0  0  0  0  0  0  0  0  0  0
    5.4532   -6.5280    2.8533 H   0  0  0  0  0  0  0  0  0  0  0  0
    5.6401   -6.0669    1.1853 H   0  0  0  0  0  0  0  0  0  0  0  0
    1.4025   -3.5025    3.4544 H   0  0  0  0  0  0  0  0  0  0  0  0
    0.6117   -4.7240    2.5802 H   0  0  0  0  0  0  0  0  0  0  0  0
    0.0043   -4.3802    5.0829 H   0  0  0  0  0  0  0  0  0  0  0  0
    0.2846   -6.0444    4.6040 H   0  0  0  0  0  0  0  0  0  0  0  0
    0.0353   -4.3614    7.5796 H   0  0  0  0  0  0  0  0  0  0  0  0
    0.6940   -5.5774    8.6616 H   0  0  0  0  0  0  0  0  0  0  0  0
   -0.0957   -6.0811    7.1786 H   0  0  0  0  0  0  0  0  0  0  0  0
    3.8154   -5.9556    5.0487 H   0  0  0  0  0  0  0  0  0  0  0  0
    4.0412   -0.2892    1.5273 H   0  0  0  0  0  0  0  0  0  0  0  0
    2.6620   -0.9009    0.7373 H   0  0  0  0  0  0  0  0  0  0  0  0
    1.5615    0.4291    2.3230 H   0  0  0  0  0  0  0  0  0  0  0  0
    0.7205   -0.8110    3.3190 H   0  0  0  0  0  0  0  0  0  0  0  0
    2.9869    1.0077    4.1380 H   0  0  0  0  0  0  0  0  0  0  0  0
    1.8694    0.0229    5.1871 H   0  0  0  0  0  0  0  0  0  0  0  0
    4.3752   -0.8085    3.9645 H   0  0  0  0  0  0  0  0  0  0  0  0
    2.2120   -2.2844    2.7527 H   0  0  0  0  0  0  0  0  0  0  0  0
    3.3555   -7.9741    3.2908 H   0  0  0  0  0  0  0  0  0  0  0  0
  1  2  2  0
  1 38  1  0
  1 39  1  0
  2  3  1  0
  2 40  1  0
  3 37  1  0
  3  4  1  0
  3 41  1  1
  4 32  1  0
  4  5  1  0
  4 42  1  0
  5  6  1  0
  5 43  1  0
  5 44  1  0
  6 24  1  0
  6  7  1  0
  6 45  1  6
  7  8  1  0
  7 46  1  0
  7 47  1  0
  8 11  1  0
  8  9  1  6
  8 33  1  0
  9 10  1  0
  9 48  1  0
  9 49  1  0
 10 11  1  0
 10 50  1  0
 10 51  1  0
 11 12  1  6
 11 14  1  0
 12 13  1  0
 13 52  1  0
 13 53  1  0
 13 54  1  0
 14 24  1  0
 14 15  1  0
 14 55  1  1
 15 16  1  0
 16 25  1  0
 16 17  1  0
 16 56  1  1
 17 18  1  0
 17 22  1  0
 17 84  1  1
 18 19  1  0
 18 57  1  0
 18 58  1  0
 19 21  1  0
 19 20  1  0
 19 59  1  0
 20 21  1  0
 20 60  1  0
 20 61  1  0
 21 62  1  0
 21 63  1  0
 22 23  1  0
 22 64  1  0
 22 65  1  0
 24 23  1  6
 23 66  1  0
 23 67  1  0
 24 25  1  0
 25 32  1  0
 25 26  1  6
 26 27  1  0
 26 68  1  0
 26 69  1  0
 27 28  1  0
 27 70  1  0
 27 71  1  0
 28 29  1  0
 28 32  1  0
 29 30  1  0
 29 31  2  0
 30 72  1  0
 30 73  1  0
 30 74  1  0
 32 75  1  1
 33 34  1  0
 33 76  1  0
 33 77  1  0
 34 37  1  0
 34 35  1  0
 34 83  1  1
 35 36  1  0
 35 78  1  0
 35 79  1  0
 36 37  1  0
 36 80  1  0
 36 81  1  0
 37 82  1  6
M  CHG  2  17   1  34   1
M  END
>  <i_m_ct_stereo_status>  (249) 
1

>  <s_m_source_file>  (249) 
/var/tmp/pbs.5076255.sched01/tmpnszqc94g/84e4epk0lh.sdf

>  <i_m_source_file_index>  (249) 
30

>  <i_lp_mmshare_version>  (249) 
48012

>  <i_f3d_flags>  (249) 
0

>  <s_epik_input>  (249) 
W0NIMl0xW0NIMl1OKFtDSDJdMilbQ0BASF0xW0NASF0oW0NIXT1bQ0gyXSlbQ0BASF0oW0NIMl1bQ0BASF0zW0NIMl00KVtDQEBIXShOKFtDSDJdW0NIMl01KUMoPU8pW0NIM10pW0NAQF01KFtDQEBdMzZbQ0BIXTdbQ0BAXShbQ0BAXTI0OCkoW0NIMl1bQ0gyXTgpT1tDSDNdKVtDQEBIXShPNylOKFtDSDJdW0NIMl02KVtDSDJdW0NIXTlbQ0gyXVtDSDJdOQ==

>  <s_epik_cmdline>  (249) 
J2VwaWtfcHl0aG9uJywgJy1waHQnLCAnMi4wJywgJy1waCcsICc3LjAnLCAnLXRuJywgJzgnLCAnLW1hJywgJzIwMCcsICctaW1hZScsICc8aW5maWxlLm1hZT4nLCAnLW9tYWUnLCAnPG91dGZpbGUubWFlPic=

>  <r_epik_Ionization_Penalty>  (249) 
0.290862

>  <r_epik_Ionization_Penalty_Charging>  (249) 
0.29086

>  <r_epik_Ionization_Penalty_Neutral>  (249) 
1.45163e-06

>  <r_epik_State_Penalty>  (249) 
0.283503

>  <r_epik_Charging_Adjusted_Penalty>  (249) 
0.574363

>  <i_epik_Tot_Q>  (249) 
2

>  <i_epik_Tot_abs_Q>  (249) 
2

>  <s_epik_Chemistry_Notes>  (249) 
This compound contains an acetal/aminal-like group ( X-CH(R)-Y where X, Y are N, S, or O) that may be acid/base labile, releasing an aldehyde.

>  <s_lp_Force_Field>  (249) 
OPLS3e

>  <r_lp_Energy>  (249) 
209.312

>  <b_lp_Chiralities_Consistent>  (249) 
1

>  <s_lp_Variant>  (249) 
82:0-1

>  <s_i_glide_gridfile>  (249) 
pfpi4k_grid

>  <i_i_glide_lignum>  (249) 
30

>  <i_i_glide_rotatable_bonds>  (249) 
5

>  <r_i_docking_score>  (249) 
-2.26972

>  <r_i_glide_ligand_efficiency>  (249) 
-0.0613439

>  <r_i_glide_ligand_efficiency_sa>  (249) 
-0.204411

>  <r_i_glide_ligand_efficiency_ln>  (249) 
-0.49225

>  <r_i_glide_gscore>  (249) 
-2.26972

>  <r_i_glide_lipo>  (249) 
-0.533969

>  <r_i_glide_hbond>  (249) 
0

>  <r_i_glide_metal>  (249) 
-0

>  <r_i_glide_rewards>  (249) 
0

>  <r_i_glide_evdw>  (249) 
-22.3039

>  <r_i_glide_ecoul>  (249) 
-5.54988

>  <r_i_glide_erotb>  (249) 
0.236494

>  <r_i_glide_esite>  (249) 
-0.0245741

>  <r_i_glide_emodel>  (249) 
-31.8277

>  <r_i_glide_energy>  (249) 
-27.8537

>  <r_i_glide_einternal>  (249) 
1.84212

>  <r_i_glide_intrahb_reward>  (249) 
-0

>  <i_i_glide_confnum>  (249) 
5

>  <i_i_glide_posenum>  (249) 
19

>  <r_i_glide_eff_state_penalty>  (249) 
0

>  <ligand_id>  (249) 
82

>  <original_smiles>  (249) 
C=CC1C2CC3CC4(CCC4(OC)C4OC5N(CC6CC6)CCC34C53CCN(C(C)=O)C23)CN2CCC12

>  <smiles>  (249) 
[H]C([H])=C([H])C1([H])C2([H])C([H])([H])C3([H])C([H])([H])C4(C([H])([H])C([H])([H])C4(OC([H])([H])[H])C4([H])OC5([H])C6(C([H])([H])C([H])([H])N(C(=O)C([H])([H])[H])C26[H])C43C([H])([H])C([H])([H])[N+]5([H])C([H])([H])C2([H])C([H])([H])C2([H])[H])C([H])([H])[N+]2([H])C([H])([H])C([H])([H])C12[H]

$$$$
82:1:0
     RDKit          3D

 84 92  0  0  1  0  0  0  0  0999 V2000
    5.4397   -8.0255   10.3513 C   0  0  0  0  0  0  0  0  0  0  0  0
    5.6072   -9.0862    9.5383 C   0  0  0  0  0  0  0  0  0  0  0  0
    5.4037   -9.0926    8.0230 C   0  0  2  0  0  0  0  0  0  0  0  0
    4.1471  -10.0368    7.7212 C   0  0  2  0  0  0  0  0  0  0  0  0
    4.6140  -11.4686    7.4740 C   0  0  0  0  0  0  0  0  0  0  0  0
    4.9943  -11.7420    6.0046 C   0  0  2  0  0  0  0  0  0  0  0  0
    6.4289  -12.1650    5.6549 C   0  0  0  0  0  0  0  0  0  0  0  0
    7.0495  -11.4028    4.4790 C   0  0  1  0  0  0  0  0  0  0  0  0
    7.7412  -12.3847    3.4994 C   0  0  0  0  0  0  0  0  0  0  0  0
    6.3916  -12.5237    2.7702 C   0  0  0  0  0  0  0  0  0  0  0  0
    6.1273  -11.0848    3.2284 C   0  0  2  0  0  0  0  0  0  0  0  0
    6.8245  -10.1567    2.3891 O   0  0  0  0  0  0  0  0  0  0  0  0
    6.3010   -9.9762    1.0762 C   0  0  0  0  0  0  0  0  0  0  0  0
    4.7988  -10.4710    3.6646 C   0  0  1  0  0  0  0  0  0  0  0  0
    3.6824   -9.8955    2.9291 O   0  0  0  0  0  0  0  0  0  0  0  0
    2.7029   -9.4527    3.8971 C   0  0  1  0  0  0  0  0  0  0  0  0
    1.4744  -10.4761    3.8411 N   0  0  1  0  0  0  0  0  0  0  0  0
    0.4270  -10.0412    2.8750 C   0  0  0  0  0  0  0  0  0  0  0  0
   -0.5108   -8.9845    3.4381 C   0  0  0  0  0  0  0  0  0  0  0  0
   -1.5880   -8.3641    2.5661 C   0  0  0  0  0  0  0  0  0  0  0  0
   -0.4163   -7.5318    3.0093 C   0  0  0  0  0  0  0  0  0  0  0  0
    1.9547  -11.8128    3.5455 C   0  0  0  0  0  0  0  0  0  0  0  0
    3.0565  -12.1595    4.5422 C   0  0  0  0  0  0  0  0  0  0  0  0
    4.1250  -11.0382    4.8971 C   0  0  1  0  0  0  0  0  0  0  0  0
    3.4622   -9.6733    5.2546 C   0  0  1  0  0  0  0  0  0  0  0  0
    4.0756   -8.2188    5.3234 C   0  0  0  0  0  0  0  0  0  0  0  0
    3.1072   -7.3979    6.1879 C   0  0  0  0  0  0  0  0  0  0  0  0
    2.3370   -8.4002    6.9236 N   0  0  0  0  0  0  0  0  0  0  0  0
    1.0307   -8.2033    7.1974 C   0  0  0  0  0  0  0  0  0  0  0  0
    0.0478   -9.3737    7.0697 C   0  0  0  0  0  0  0  0  0  0  0  0
    0.5898   -7.0775    7.4409 O   0  0  0  0  0  0  0  0  0  0  0  0
    2.9517   -9.7058    6.7024 C   0  0  2  0  0  0  0  0  0  0  0  0
    7.8645  -10.2485    5.1421 C   0  0  0  0  0  0  0  0  0  0  0  0
    7.0652   -9.2446    5.9352 N   0  0  2  0  0  0  0  0  0  0  0  0
    7.7877   -7.9916    6.1619 C   0  0  0  0  0  0  0  0  0  0  0  0
    7.9079   -8.3540    7.6272 C   0  0  0  0  0  0  0  0  0  0  0  0
    6.8337   -9.4207    7.4029 C   0  0  1  0  0  0  0  0  0  0  0  0
    5.1356   -7.0540    9.9763 H   0  0  0  0  0  0  0  0  0  0  0  0
    5.5999   -8.1205   11.4232 H   0  0  0  0  0  0  0  0  0  0  0  0
    5.9072  -10.0260    9.9867 H   0  0  0  0  0  0  0  0  0  0  0  0
    5.1370   -8.0570    7.8435 H   0  0  0  0  0  0  0  0  0  0  0  0
    3.6231  -10.0782    8.6802 H   0  0  0  0  0  0  0  0  0  0  0  0
    5.4225  -11.7507    8.1420 H   0  0  0  0  0  0  0  0  0  0  0  0
    3.7933  -12.1344    7.7624 H   0  0  0  0  0  0  0  0  0  0  0  0
    4.6288  -12.7667    6.0290 H   0  0  0  0  0  0  0  0  0  0  0  0
    7.0734  -12.1471    6.5350 H   0  0  0  0  0  0  0  0  0  0  0  0
    6.4187  -13.2386    5.4289 H   0  0  0  0  0  0  0  0  0  0  0  0
    8.5117  -11.9098    2.8883 H   0  0  0  0  0  0  0  0  0  0  0  0
    8.1087  -13.3099    3.9415 H   0  0  0  0  0  0  0  0  0  0  0  0
    6.4862  -12.6779    1.6998 H   0  0  0  0  0  0  0  0  0  0  0  0
    5.7231  -13.2591    3.2204 H   0  0  0  0  0  0  0  0  0  0  0  0
    6.9896   -9.3407    0.5178 H   0  0  0  0  0  0  0  0  0  0  0  0
    5.3279   -9.4857    1.0815 H   0  0  0  0  0  0  0  0  0  0  0  0
    6.2149  -10.9052    0.5133 H   0  0  0  0  0  0  0  0  0  0  0  0
    5.3188   -9.5671    3.9408 H   0  0  0  0  0  0  0  0  0  0  0  0
    2.3460   -8.4398    3.6986 H   0  0  0  0  0  0  0  0  0  0  0  0
    0.9011   -9.6697    1.9612 H   0  0  0  0  0  0  0  0  0  0  0  0
   -0.1865  -10.8868    2.5766 H   0  0  0  0  0  0  0  0  0  0  0  0
   -0.8588   -9.1835    4.4518 H   0  0  0  0  0  0  0  0  0  0  0  0
   -1.6342   -8.6676    1.5206 H   0  0  0  0  0  0  0  0  0  0  0  0
   -2.5464   -8.1491    3.0324 H   0  0  0  0  0  0  0  0  0  0  0  0
   -0.5927   -6.7829    3.7783 H   0  0  0  0  0  0  0  0  0  0  0  0
    0.3340   -7.2738    2.2628 H   0  0  0  0  0  0  0  0  0  0  0  0
    1.1218  -12.5111    3.6136 H   0  0  0  0  0  0  0  0  0  0  0  0
    2.3451  -11.8782    2.5225 H   0  0  0  0  0  0  0  0  0  0  0  0
    2.5488  -12.4605    5.4550 H   0  0  0  0  0  0  0  0  0  0  0  0
    3.5441  -13.0609    4.1686 H   0  0  0  0  0  0  0  0  0  0  0  0
    5.0280   -8.1580    5.7778 H   0  0  0  0  0  0  0  0  0  0  0  0
    4.2491   -7.7259    4.3614 H   0  0  0  0  0  0  0  0  0  0  0  0
    3.6113   -6.6812    6.8420 H   0  0  0  0  0  0  0  0  0  0  0  0
    2.4443   -6.8102    5.5439 H   0  0  0  0  0  0  0  0  0  0  0  0
    0.3280  -10.0419    6.2614 H   0  0  0  0  0  0  0  0  0  0  0  0
   -0.9514   -9.0485    6.8009 H   0  0  0  0  0  0  0  0  0  0  0  0
   -0.0018   -9.9505    7.9892 H   0  0  0  0  0  0  0  0  0  0  0  0
    2.2707  -10.5361    6.8367 H   0  0  0  0  0  0  0  0  0  0  0  0
    8.6870  -10.6387    5.7459 H   0  0  0  0  0  0  0  0  0  0  0  0
    8.3525   -9.6970    4.3397 H   0  0  0  0  0  0  0  0  0  0  0  0
    8.7575   -7.8713    5.6754 H   0  0  0  0  0  0  0  0  0  0  0  0
    7.1589   -7.1140    6.0092 H   0  0  0  0  0  0  0  0  0  0  0  0
    8.8853   -8.7632    7.8983 H   0  0  0  0  0  0  0  0  0  0  0  0
    7.6028   -7.5360    8.2867 H   0  0  0  0  0  0  0  0  0  0  0  0
    7.2462  -10.3639    7.7610 H   0  0  0  0  0  0  0  0  0  0  0  0
    6.2097   -9.0279    5.4526 H   0  0  0  0  0  0  0  0  0  0  0  0
    1.0109  -10.5369    4.7491 H   0  0  0  0  0  0  0  0  0  0  0  0
  1  2  2  0
  1 38  1  0
  1 39  1  0
  2  3  1  0
  2 40  1  0
  3 37  1  0
  3  4  1  0
  3 41  1  6
  4 32  1  0
  4  5  1  0
  4 42  1  1
  5  6  1  0
  5 43  1  0
  5 44  1  0
  6 24  1  0
  6  7  1  0
  6 45  1  6
  7  8  1  0
  7 46  1  0
  7 47  1  0
  8 11  1  0
  8  9  1  6
  8 33  1  0
  9 10  1  0
  9 48  1  0
  9 49  1  0
 10 11  1  0
 10 50  1  0
 10 51  1  0
 11 12  1  6
 11 14  1  0
 12 13  1  0
 13 52  1  0
 13 53  1  0
 13 54  1  0
 14 24  1  0
 14 15  1  0
 14 55  1  1
 15 16  1  0
 16 25  1  0
 16 17  1  0
 16 56  1  6
 17 18  1  0
 17 22  1  0
 17 84  1  1
 18 19  1  0
 18 57  1  0
 18 58  1  0
 19 21  1  0
 19 20  1  0
 19 59  1  0
 20 21  1  0
 20 60  1  0
 20 61  1  0
 21 62  1  0
 21 63  1  0
 22 23  1  0
 22 64  1  0
 22 65  1  0
 24 23  1  6
 23 66  1  0
 23 67  1  0
 24 25  1  0
 25 32  1  0
 25 26  1  1
 26 27  1  0
 26 68  1  0
 26 69  1  0
 27 28  1  0
 27 70  1  0
 27 71  1  0
 28 29  1  0
 28 32  1  0
 29 30  1  0
 29 31  2  0
 30 72  1  0
 30 73  1  0
 30 74  1  0
 32 75  1  6
 33 34  1  0
 33 76  1  0
 33 77  1  0
 34 37  1  0
 34 35  1  0
 34 83  1  6
 35 36  1  0
 35 78  1  0
 35 79  1  0
 36 37  1  0
 36 80  1  0
 36 81  1  0
 37 82  1  1
M  CHG  2  17   1  34   1
M  END
>  <i_m_ct_stereo_status>  (250) 
1

>  <s_m_source_file>  (250) 
/var/tmp/pbs.5076255.sched01/tmpnszqc94g/84e4epk0lh.sdf

>  <i_m_source_file_index>  (250) 
31

>  <i_lp_mmshare_version>  (250) 
48012

>  <i_f3d_flags>  (250) 
0

>  <s_epik_input>  (250) 
W0NIMl0xW0NIMl1OKFtDSDJdMilbQ0BASF0xW0NASF0oW0NIXT1bQ0gyXSlbQ0BASF0oW0NIMl1bQ0BASF0zW0NIMl00KVtDQEBIXShOKFtDSDJdW0NIMl01KUMoPU8pW0NIM10pW0NAQF01KFtDQEBdMzZbQ0BIXTdbQ0BAXShbQ0BAXTI0OCkoW0NIMl1bQ0gyXTgpT1tDSDNdKVtDQEBIXShPNylOKFtDSDJdW0NIMl02KVtDSDJdW0NIXTlbQ0gyXVtDSDJdOQ==

>  <s_epik_cmdline>  (250) 
J2VwaWtfcHl0aG9uJywgJy1waHQnLCAnMi4wJywgJy1waCcsICc3LjAnLCAnLXRuJywgJzgnLCAnLW1hJywgJzIwMCcsICctaW1hZScsICc8aW5maWxlLm1hZT4nLCAnLW9tYWUnLCAnPG91dGZpbGUubWFlPic=

>  <r_epik_Ionization_Penalty>  (250) 
0.290862

>  <r_epik_Ionization_Penalty_Charging>  (250) 
0.29086

>  <r_epik_Ionization_Penalty_Neutral>  (250) 
1.45163e-06

>  <r_epik_State_Penalty>  (250) 
0.283503

>  <r_epik_Charging_Adjusted_Penalty>  (250) 
0.574363

>  <i_epik_Tot_Q>  (250) 
2

>  <i_epik_Tot_abs_Q>  (250) 
2

>  <s_epik_Chemistry_Notes>  (250) 
This compound contains an acetal/aminal-like group ( X-CH(R)-Y where X, Y are N, S, or O) that may be acid/base labile, releasing an aldehyde.

>  <s_lp_Force_Field>  (250) 
OPLS3e

>  <r_lp_Energy>  (250) 
172.878

>  <b_lp_Chiralities_Consistent>  (250) 
1

>  <s_lp_Variant>  (250) 
82:0-2

>  <s_i_glide_gridfile>  (250) 
pfpi4k_grid

>  <i_i_glide_lignum>  (250) 
31

>  <i_i_glide_rotatable_bonds>  (250) 
5

>  <r_i_docking_score>  (250) 
-2.05498

>  <r_i_glide_ligand_efficiency>  (250) 
-0.05554

>  <r_i_glide_ligand_efficiency_sa>  (250) 
-0.185072

>  <r_i_glide_ligand_efficiency_ln>  (250) 
-0.445677

>  <r_i_glide_gscore>  (250) 
-2.05498

>  <r_i_glide_lipo>  (250) 
-0.108316

>  <r_i_glide_hbond>  (250) 
0

>  <r_i_glide_metal>  (250) 
-0

>  <r_i_glide_rewards>  (250) 
0

>  <r_i_glide_evdw>  (250) 
-21.8984

>  <r_i_glide_ecoul>  (250) 
-6.91885

>  <r_i_glide_erotb>  (250) 
0.236494

>  <r_i_glide_esite>  (250) 
-0.0504105

>  <r_i_glide_emodel>  (250) 
-30.0507

>  <r_i_glide_energy>  (250) 
-28.8173

>  <r_i_glide_einternal>  (250) 
5.75209

>  <r_i_glide_intrahb_reward>  (250) 
-0

>  <i_i_glide_confnum>  (250) 
1

>  <i_i_glide_posenum>  (250) 
20

>  <r_i_glide_eff_state_penalty>  (250) 
0

>  <ligand_id>  (250) 
82

>  <original_smiles>  (250) 
C=CC1C2CC3CC4(CCC4(OC)C4OC5N(CC6CC6)CCC34C53CCN(C(C)=O)C23)CN2CCC12

>  <smiles>  (250) 
[H]C([H])=C([H])C1([H])C2([H])C([H])([H])C3([H])C([H])([H])C4(C([H])([H])C([H])([H])C4(OC([H])([H])[H])C4([H])OC5([H])C6(C([H])([H])C([H])([H])N(C(=O)C([H])([H])[H])C26[H])C43C([H])([H])C([H])([H])[N+]5([H])C([H])([H])C2([H])C([H])([H])C2([H])[H])C([H])([H])[N+]2([H])C([H])([H])C([H])([H])C12[H]

$$$$
82:1:1
     RDKit          3D

 84 92  0  0  1  0  0  0  0  0999 V2000
    3.0302   -1.7690    7.7103 C   0  0  0  0  0  0  0  0  0  0  0  0
    3.7363   -1.9966    6.5857 C   0  0  0  0  0  0  0  0  0  0  0  0
    3.2017   -2.6320    5.3015 C   0  0  2  0  0  0  0  0  0  0  0  0
    3.9252   -4.0575    5.1421 C   0  0  2  0  0  0  0  0  0  0  0  0
    5.1942   -3.8968    4.3067 C   0  0  0  0  0  0  0  0  0  0  0  0
    4.9479   -3.9882    2.7861 C   0  0  2  0  0  0  0  0  0  0  0  0
    5.2732   -2.7899    1.8756 C   0  0  0  0  0  0  0  0  0  0  0  0
    4.1676   -2.4324    0.8729 C   0  0  1  0  0  0  0  0  0  0  0  0
    4.7626   -2.2047   -0.5417 C   0  0  0  0  0  0  0  0  0  0  0  0
    4.5973   -3.7145   -0.7973 C   0  0  0  0  0  0  0  0  0  0  0  0
    3.4027   -3.6272    0.1613 C   0  0  2  0  0  0  0  0  0  0  0  0
    2.2590   -3.0825   -0.4989 O   0  0  0  0  0  0  0  0  0  0  0  0
    1.6176   -3.8820   -1.4877 C   0  0  0  0  0  0  0  0  0  0  0  0
    2.9331   -4.6668    1.1754 C   0  0  1  0  0  0  0  0  0  0  0  0
    2.0815   -5.8458    1.0665 O   0  0  0  0  0  0  0  0  0  0  0  0
    1.9780   -6.4310    2.3903 C   0  0  1  0  0  0  0  0  0  0  0  0
    2.8700   -7.7556    2.4107 N   0  0  1  0  0  0  0  0  0  0  0  0
    2.0911   -8.9658    2.0354 C   0  0  0  0  0  0  0  0  0  0  0  0
    1.1940   -9.4623    3.1533 C   0  0  0  0  0  0  0  0  0  0  0  0
    0.2446  -10.6204    2.9087 C   0  0  0  0  0  0  0  0  0  0  0  0
   -0.3070   -9.2423    3.1214 C   0  0  0  0  0  0  0  0  0  0  0  0
    4.0385   -7.5853    1.5565 C   0  0  0  0  0  0  0  0  0  0  0  0
    4.7588   -6.3103    1.9757 C   0  0  0  0  0  0  0  0  0  0  0  0
    3.8705   -5.0308    2.3101 C   0  0  1  0  0  0  0  0  0  0  0  0
    2.6937   -5.3553    3.2830 C   0  0  1  0  0  0  0  0  0  0  0  0
    1.3949   -4.5270    3.6031 C   0  0  0  0  0  0  0  0  0  0  0  0
    0.8558   -5.0690    4.9273 C   0  0  0  0  0  0  0  0  0  0  0  0
    1.9998   -5.7414    5.5350 N   0  0  0  0  0  0  0  0  0  0  0  0
    1.8920   -6.8534    6.2981 C   0  0  0  0  0  0  0  0  0  0  0  0
    0.5220   -7.2606    6.8403 C   0  0  0  0  0  0  0  0  0  0  0  0
    2.8583   -7.5866    6.5305 O   0  0  0  0  0  0  0  0  0  0  0  0
    3.1915   -5.4382    4.7379 C   0  0  2  0  0  0  0  0  0  0  0  0
    3.3498   -1.2968    1.5717 C   0  0  0  0  0  0  0  0  0  0  0  0
    2.6666   -1.6712    2.8559 N   0  0  2  0  0  0  0  0  0  0  0  0
    1.5990   -0.7425    3.2330 C   0  0  0  0  0  0  0  0  0  0  0  0
    2.4626   -0.2634    4.3816 C   0  0  0  0  0  0  0  0  0  0  0  0
    3.3397   -1.5044    4.1825 C   0  0  1  0  0  0  0  0  0  0  0  0
    1.9806   -2.0277    7.7940 H   0  0  0  0  0  0  0  0  0  0  0  0
    3.5022   -1.3158    8.5787 H   0  0  0  0  0  0  0  0  0  0  0  0
    4.7814   -1.7096    6.5828 H   0  0  0  0  0  0  0  0  0  0  0  0
    2.1579   -2.7803    5.5675 H   0  0  0  0  0  0  0  0  0  0  0  0
    4.2888   -4.2725    6.1523 H   0  0  0  0  0  0  0  0  0  0  0  0
    5.7173   -2.9740    4.5465 H   0  0  0  0  0  0  0  0  0  0  0  0
    5.8899   -4.6889    4.6134 H   0  0  0  0  0  0  0  0  0  0  0  0
    5.8985   -4.4688    2.5886 H   0  0  0  0  0  0  0  0  0  0  0  0
    5.5910   -1.9226    2.4529 H   0  0  0  0  0  0  0  0  0  0  0  0
    6.1962   -3.0205    1.3261 H   0  0  0  0  0  0  0  0  0  0  0  0
    4.1272   -1.5835   -1.1813 H   0  0  0  0  0  0  0  0  0  0  0  0
    5.7960   -1.8584   -0.5646 H   0  0  0  0  0  0  0  0  0  0  0  0
    4.3789   -3.9540   -1.8338 H   0  0  0  0  0  0  0  0  0  0  0  0
    5.4189   -4.3193   -0.4158 H   0  0  0  0  0  0  0  0  0  0  0  0
    0.8423   -3.2949   -1.9751 H   0  0  0  0  0  0  0  0  0  0  0  0
    1.1480   -4.7704   -1.0657 H   0  0  0  0  0  0  0  0  0  0  0  0
    2.2845   -4.1918   -2.2825 H   0  0  0  0  0  0  0  0  0  0  0  0
    2.2112   -3.9579    1.5487 H   0  0  0  0  0  0  0  0  0  0  0  0
    0.9471   -6.6746    2.6593 H   0  0  0  0  0  0  0  0  0  0  0  0
    1.4817   -8.7443    1.1559 H   0  0  0  0  0  0  0  0  0  0  0  0
    2.7484   -9.7936    1.7618 H   0  0  0  0  0  0  0  0  0  0  0  0
    1.6729   -9.4934    4.1374 H   0  0  0  0  0  0  0  0  0  0  0  0
    0.1688  -11.0405    1.9055 H   0  0  0  0  0  0  0  0  0  0  0  0
    0.1110  -11.3351    3.7186 H   0  0  0  0  0  0  0  0  0  0  0  0
   -0.8112   -9.0565    4.0688 H   0  0  0  0  0  0  0  0  0  0  0  0
   -0.7331   -8.7339    2.2561 H   0  0  0  0  0  0  0  0  0  0  0  0
    4.7074   -8.4448    1.6316 H   0  0  0  0  0  0  0  0  0  0  0  0
    3.7463   -7.5237    0.5020 H   0  0  0  0  0  0  0  0  0  0  0  0
    5.3467   -6.5738    2.8575 H   0  0  0  0  0  0  0  0  0  0  0  0
    5.4885   -6.0913    1.1925 H   0  0  0  0  0  0  0  0  0  0  0  0
    1.5314   -3.4876    3.7281 H   0  0  0  0  0  0  0  0  0  0  0  0
    0.6106   -4.5685    2.8507 H   0  0  0  0  0  0  0  0  0  0  0  0
    0.4424   -4.2964    5.5796 H   0  0  0  0  0  0  0  0  0  0  0  0
    0.0497   -5.7748    4.7289 H   0  0  0  0  0  0  0  0  0  0  0  0
   -0.1022   -6.4041    7.0935 H   0  0  0  0  0  0  0  0  0  0  0  0
    0.6368   -7.8690    7.7326 H   0  0  0  0  0  0  0  0  0  0  0  0
    0.0034   -7.8656    6.0998 H   0  0  0  0  0  0  0  0  0  0  0  0
    3.9374   -6.2326    4.8222 H   0  0  0  0  0  0  0  0  0  0  0  0
    3.9581   -0.3988    1.7127 H   0  0  0  0  0  0  0  0  0  0  0  0
    2.5730   -0.9841    0.8781 H   0  0  0  0  0  0  0  0  0  0  0  0
    1.3502    0.0540    2.5265 H   0  0  0  0  0  0  0  0  0  0  0  0
    0.7025   -1.2518    3.5803 H   0  0  0  0  0  0  0  0  0  0  0  0
    2.9759    0.6820    4.1764 H   0  0  0  0  0  0  0  0  0  0  0  0
    1.9200   -0.2390    5.3320 H   0  0  0  0  0  0  0  0  0  0  0  0
    4.3613   -1.1434    4.0620 H   0  0  0  0  0  0  0  0  0  0  0  0
    2.2544   -2.5865    2.7675 H   0  0  0  0  0  0  0  0  0  0  0  0
    3.2137   -7.9415    3.3564 H   0  0  0  0  0  0  0  0  0  0  0  0
  1  2  2  0
  1 38  1  0
  1 39  1  0
  2  3  1  0
  2 40  1  0
  3 37  1  0
  3  4  1  0
  3 41  1  1
  4 32  1  0
  4  5  1  0
  4 42  1  1
  5  6  1  0
  5 43  1  0
  5 44  1  0
  6 24  1  0
  6  7  1  0
  6 45  1  6
  7  8  1  0
  7 46  1  0
  7 47  1  0
  8 11  1  0
  8  9  1  6
  8 33  1  0
  9 10  1  0
  9 48  1  0
  9 49  1  0
 10 11  1  0
 10 50  1  0
 10 51  1  0
 11 12  1  6
 11 14  1  0
 12 13  1  0
 13 52  1  0
 13 53  1  0
 13 54  1  0
 14 24  1  0
 14 15  1  0
 14 55  1  1
 15 16  1  0
 16 25  1  0
 16 17  1  0
 16 56  1  1
 17 18  1  0
 17 22  1  0
 17 84  1  1
 18 19  1  0
 18 57  1  0
 18 58  1  0
 19 21  1  0
 19 20  1  0
 19 59  1  0
 20 21  1  0
 20 60  1  0
 20 61  1  0
 21 62  1  0
 21 63  1  0
 22 23  1  0
 22 64  1  0
 22 65  1  0
 24 23  1  6
 23 66  1  0
 23 67  1  0
 24 25  1  0
 25 32  1  0
 25 26  1  1
 26 27  1  0
 26 68  1  0
 26 69  1  0
 27 28  1  0
 27 70  1  0
 27 71  1  0
 28 29  1  0
 28 32  1  0
 29 30  1  0
 29 31  2  0
 30 72  1  0
 30 73  1  0
 30 74  1  0
 32 75  1  6
 33 34  1  0
 33 76  1  0
 33 77  1  0
 34 37  1  0
 34 35  1  0
 34 83  1  6
 35 36  1  0
 35 78  1  0
 35 79  1  0
 36 37  1  0
 36 80  1  0
 36 81  1  0
 37 82  1  6
M  CHG  2  17   1  34   1
M  END
>  <i_m_ct_stereo_status>  (251) 
1

>  <s_m_source_file>  (251) 
/var/tmp/pbs.5076255.sched01/tmpnszqc94g/84e4epk0lh.sdf

>  <i_m_source_file_index>  (251) 
31

>  <i_lp_mmshare_version>  (251) 
48012

>  <i_f3d_flags>  (251) 
0

>  <s_epik_input>  (251) 
W0NIMl0xW0NIMl1OKFtDSDJdMilbQ0BASF0xW0NASF0oW0NIXT1bQ0gyXSlbQ0BASF0oW0NIMl1bQ0BASF0zW0NIMl00KVtDQEBIXShOKFtDSDJdW0NIMl01KUMoPU8pW0NIM10pW0NAQF01KFtDQEBdMzZbQ0BIXTdbQ0BAXShbQ0BAXTI0OCkoW0NIMl1bQ0gyXTgpT1tDSDNdKVtDQEBIXShPNylOKFtDSDJdW0NIMl02KVtDSDJdW0NIXTlbQ0gyXVtDSDJdOQ==

>  <s_epik_cmdline>  (251) 
J2VwaWtfcHl0aG9uJywgJy1waHQnLCAnMi4wJywgJy1waCcsICc3LjAnLCAnLXRuJywgJzgnLCAnLW1hJywgJzIwMCcsICctaW1hZScsICc8aW5maWxlLm1hZT4nLCAnLW9tYWUnLCAnPG91dGZpbGUubWFlPic=

>  <r_epik_Ionization_Penalty>  (251) 
0.290862

>  <r_epik_Ionization_Penalty_Charging>  (251) 
0.29086

>  <r_epik_Ionization_Penalty_Neutral>  (251) 
1.45163e-06

>  <r_epik_State_Penalty>  (251) 
0.283503

>  <r_epik_Charging_Adjusted_Penalty>  (251) 
0.574363

>  <i_epik_Tot_Q>  (251) 
2

>  <i_epik_Tot_abs_Q>  (251) 
2

>  <s_epik_Chemistry_Notes>  (251) 
This compound contains an acetal/aminal-like group ( X-CH(R)-Y where X, Y are N, S, or O) that may be acid/base labile, releasing an aldehyde.

>  <s_lp_Force_Field>  (251) 
OPLS3e

>  <r_lp_Energy>  (251) 
172.878

>  <b_lp_Chiralities_Consistent>  (251) 
1

>  <s_lp_Variant>  (251) 
82:0-2

>  <s_i_glide_gridfile>  (251) 
pfpi4k_grid

>  <i_i_glide_lignum>  (251) 
31

>  <i_i_glide_rotatable_bonds>  (251) 
5

>  <r_i_docking_score>  (251) 
-1.95256

>  <r_i_glide_ligand_efficiency>  (251) 
-0.0527718

>  <r_i_glide_ligand_efficiency_sa>  (251) 
-0.175847

>  <r_i_glide_ligand_efficiency_ln>  (251) 
-0.423464

>  <r_i_glide_gscore>  (251) 
-1.95256

>  <r_i_glide_lipo>  (251) 
-0.267957

>  <r_i_glide_hbond>  (251) 
-0.0178759

>  <r_i_glide_metal>  (251) 
-0

>  <r_i_glide_rewards>  (251) 
0

>  <r_i_glide_evdw>  (251) 
-21.9249

>  <r_i_glide_ecoul>  (251) 
-5.19539

>  <r_i_glide_erotb>  (251) 
0.236494

>  <r_i_glide_esite>  (251) 
-0.0276633

>  <r_i_glide_emodel>  (251) 
-30.7613

>  <r_i_glide_energy>  (251) 
-27.1203

>  <r_i_glide_einternal>  (251) 
0.445112

>  <r_i_glide_intrahb_reward>  (251) 
-0

>  <i_i_glide_confnum>  (251) 
1

>  <i_i_glide_posenum>  (251) 
29

>  <r_i_glide_eff_state_penalty>  (251) 
0

>  <ligand_id>  (251) 
82

>  <original_smiles>  (251) 
C=CC1C2CC3CC4(CCC4(OC)C4OC5N(CC6CC6)CCC34C53CCN(C(C)=O)C23)CN2CCC12

>  <smiles>  (251) 
[H]C([H])=C([H])C1([H])C2([H])C([H])([H])C3([H])C([H])([H])C4(C([H])([H])C([H])([H])C4(OC([H])([H])[H])C4([H])OC5([H])C6(C([H])([H])C([H])([H])N(C(=O)C([H])([H])[H])C26[H])C43C([H])([H])C([H])([H])[N+]5([H])C([H])([H])C2([H])C([H])([H])C2([H])[H])C([H])([H])[N+]2([H])C([H])([H])C([H])([H])C12[H]

$$$$
82:1:2
     RDKit          3D

 84 92  0  0  1  0  0  0  0  0999 V2000
    5.3531   -7.8277   10.4352 C   0  0  0  0  0  0  0  0  0  0  0  0
    5.4954   -8.8846    9.6118 C   0  0  0  0  0  0  0  0  0  0  0  0
    5.2455   -8.8890    8.1033 C   0  0  2  0  0  0  0  0  0  0  0  0
    3.9701   -9.8289    7.8373 C   0  0  2  0  0  0  0  0  0  0  0  0
    4.4369  -11.2584    7.5690 C   0  0  0  0  0  0  0  0  0  0  0  0
    4.7859  -11.5285    6.0921 C   0  0  2  0  0  0  0  0  0  0  0  0
    6.2131  -11.9476    5.6995 C   0  0  0  0  0  0  0  0  0  0  0  0
    6.8007  -11.1807    4.5087 C   0  0  1  0  0  0  0  0  0  0  0  0
    7.4681  -12.1571    3.5060 C   0  0  0  0  0  0  0  0  0  0  0  0
    6.1008  -12.2965    2.8128 C   0  0  0  0  0  0  0  0  0  0  0  0
    5.8463  -10.8599    3.2842 C   0  0  2  0  0  0  0  0  0  0  0  0
    6.5212   -9.9284    2.4275 O   0  0  0  0  0  0  0  0  0  0  0  0
    5.9430   -9.7274    1.1400 C   0  0  0  0  0  0  0  0  0  0  0  0
    4.5278  -10.2519    3.7630 C   0  0  1  0  0  0  0  0  0  0  0  0
    3.3868   -9.6820    3.0617 O   0  0  0  0  0  0  0  0  0  0  0  0
    2.4358   -9.2405    4.0608 C   0  0  1  0  0  0  0  0  0  0  0  0
    1.2021  -10.2586    4.0480 N   0  0  1  0  0  0  0  0  0  0  0  0
    0.1291   -9.8241    3.1142 C   0  0  0  0  0  0  0  0  0  0  0  0
   -0.6516   -8.6202    3.6176 C   0  0  0  0  0  0  0  0  0  0  0  0
   -1.6486   -7.9149    2.7143 C   0  0  0  0  0  0  0  0  0  0  0  0
   -0.3715   -7.2229    3.0924 C   0  0  0  0  0  0  0  0  0  0  0  0
    1.6778  -11.5959    3.7257 C   0  0  0  0  0  0  0  0  0  0  0  0
    2.8108  -11.9443    4.6845 C   0  0  0  0  0  0  0  0  0  0  0  0
    3.8868  -10.8215    5.0145 C   0  0  1  0  0  0  0  0  0  0  0  0
    3.2296   -9.4591    5.3946 C   0  0  1  0  0  0  0  0  0  0  0  0
    3.8564   -8.0155    5.4410 C   0  0  0  0  0  0  0  0  0  0  0  0
    2.9178   -7.1752    6.3064 C   0  0  0  0  0  0  0  0  0  0  0  0
    2.1506   -8.1542    7.0746 N   0  0  0  0  0  0  0  0  0  0  0  0
    0.8600   -7.9689    7.4382 C   0  0  0  0  0  0  0  0  0  0  0  0
    0.2474   -6.5737    7.3214 C   0  0  0  0  0  0  0  0  0  0  0  0
    0.1341   -8.8922    7.8193 O   0  0  0  0  0  0  0  0  0  0  0  0
    2.7397   -9.4734    6.8544 C   0  0  2  0  0  0  0  0  0  0  0  0
    7.6330  -10.0242    5.1526 C   0  0  0  0  0  0  0  0  0  0  0  0
    6.8580   -9.0293    5.9694 N   0  0  2  0  0  0  0  0  0  0  0  0
    7.5820   -7.7731    6.1805 C   0  0  0  0  0  0  0  0  0  0  0  0
    7.7412   -8.1434    7.6411 C   0  0  0  0  0  0  0  0  0  0  0  0
    6.6591   -9.2103    7.4414 C   0  0  1  0  0  0  0  0  0  0  0  0
    5.0392   -6.8545   10.0729 H   0  0  0  0  0  0  0  0  0  0  0  0
    5.5491   -7.9249   11.4995 H   0  0  0  0  0  0  0  0  0  0  0  0
    5.8133   -9.8246   10.0491 H   0  0  0  0  0  0  0  0  0  0  0  0
    4.9743   -7.8495    7.9376 H   0  0  0  0  0  0  0  0  0  0  0  0
    3.4802   -9.8814    8.8146 H   0  0  0  0  0  0  0  0  0  0  0  0
    5.2685  -11.5379    8.2100 H   0  0  0  0  0  0  0  0  0  0  0  0
    3.6261  -11.9272    7.8793 H   0  0  0  0  0  0  0  0  0  0  0  0
    4.4268  -12.5530    6.1222 H   0  0  0  0  0  0  0  0  0  0  0  0
    6.8830  -11.9332    6.5584 H   0  0  0  0  0  0  0  0  0  0  0  0
    6.1987  -13.0202    5.4658 H   0  0  0  0  0  0  0  0  0  0  0  0
    8.2232  -11.6727    2.8837 H   0  0  0  0  0  0  0  0  0  0  0  0
    7.8474  -13.0852    3.9348 H   0  0  0  0  0  0  0  0  0  0  0  0
    6.1703  -12.4484    1.7395 H   0  0  0  0  0  0  0  0  0  0  0  0
    5.4433  -13.0306    3.2757 H   0  0  0  0  0  0  0  0  0  0  0  0
    6.6116   -9.0974    0.5541 H   0  0  0  0  0  0  0  0  0  0  0  0
    4.9793   -9.2200    1.1933 H   0  0  0  0  0  0  0  0  0  0  0  0
    5.8177  -10.6530    0.5790 H   0  0  0  0  0  0  0  0  0  0  0  0
    5.0551   -9.3493    4.0256 H   0  0  0  0  0  0  0  0  0  0  0  0
    2.0857   -8.2230    3.8737 H   0  0  0  0  0  0  0  0  0  0  0  0
    0.5553   -9.5971    2.1313 H   0  0  0  0  0  0  0  0  0  0  0  0
   -0.5889  -10.6265    2.9630 H   0  0  0  0  0  0  0  0  0  0  0  0
   -0.9819   -8.7090    4.6573 H   0  0  0  0  0  0  0  0  0  0  0  0
   -1.7481   -8.2655    1.6869 H   0  0  0  0  0  0  0  0  0  0  0  0
   -2.5641   -7.5364    3.1655 H   0  0  0  0  0  0  0  0  0  0  0  0
   -0.4285   -6.4074    3.8111 H   0  0  0  0  0  0  0  0  0  0  0  0
    0.3968   -7.1174    2.3253 H   0  0  0  0  0  0  0  0  0  0  0  0
    0.8658  -12.3167    3.8060 H   0  0  0  0  0  0  0  0  0  0  0  0
    2.0364  -11.6439    2.6933 H   0  0  0  0  0  0  0  0  0  0  0  0
    2.3280  -12.2433    5.6142 H   0  0  0  0  0  0  0  0  0  0  0  0
    3.2894  -12.8484    4.3000 H   0  0  0  0  0  0  0  0  0  0  0  0
    4.8162   -7.9511    5.8762 H   0  0  0  0  0  0  0  0  0  0  0  0
    4.0066   -7.5235    4.4756 H   0  0  0  0  0  0  0  0  0  0  0  0
    3.4427   -6.4676    6.9529 H   0  0  0  0  0  0  0  0  0  0  0  0
    2.2668   -6.5880    5.6584 H   0  0  0  0  0  0  0  0  0  0  0  0
    0.9599   -5.7795    7.5423 H   0  0  0  0  0  0  0  0  0  0  0  0
   -0.5840   -6.4724    8.0128 H   0  0  0  0  0  0  0  0  0  0  0  0
   -0.1395   -6.4281    6.3148 H   0  0  0  0  0  0  0  0  0  0  0  0
    1.9888  -10.2566    6.9790 H   0  0  0  0  0  0  0  0  0  0  0  0
    8.4762  -10.4175    5.7278 H   0  0  0  0  0  0  0  0  0  0  0  0
    8.0981   -9.4731    4.3371 H   0  0  0  0  0  0  0  0  0  0  0  0
    8.5394   -7.6494    5.6678 H   0  0  0  0  0  0  0  0  0  0  0  0
    6.9502   -6.8966    6.0478 H   0  0  0  0  0  0  0  0  0  0  0  0
    8.7287   -8.5492    7.8830 H   0  0  0  0  0  0  0  0  0  0  0  0
    7.4565   -7.3257    8.3120 H   0  0  0  0  0  0  0  0  0  0  0  0
    7.0876  -10.1525    7.7837 H   0  0  0  0  0  0  0  0  0  0  0  0
    5.9881   -8.8102    5.5100 H   0  0  0  0  0  0  0  0  0  0  0  0
    0.7663  -10.3177    4.9710 H   0  0  0  0  0  0  0  0  0  0  0  0
  1  2  2  0
  1 38  1  0
  1 39  1  0
  2  3  1  0
  2 40  1  0
  3 37  1  0
  3  4  1  0
  3 41  1  6
  4 32  1  0
  4  5  1  0
  4 42  1  1
  5  6  1  0
  5 43  1  0
  5 44  1  0
  6 24  1  0
  6  7  1  0
  6 45  1  6
  7  8  1  0
  7 46  1  0
  7 47  1  0
  8 11  1  0
  8  9  1  6
  8 33  1  0
  9 10  1  0
  9 48  1  0
  9 49  1  0
 10 11  1  0
 10 50  1  0
 10 51  1  0
 11 12  1  6
 11 14  1  0
 12 13  1  0
 13 52  1  0
 13 53  1  0
 13 54  1  0
 14 24  1  0
 14 15  1  0
 14 55  1  1
 15 16  1  0
 16 25  1  0
 16 17  1  0
 16 56  1  6
 17 18  1  0
 17 22  1  0
 17 84  1  1
 18 19  1  0
 18 57  1  0
 18 58  1  0
 19 21  1  0
 19 20  1  0
 19 59  1  0
 20 21  1  0
 20 60  1  0
 20 61  1  0
 21 62  1  0
 21 63  1  0
 22 23  1  0
 22 64  1  0
 22 65  1  0
 24 23  1  6
 23 66  1  0
 23 67  1  0
 24 25  1  0
 25 32  1  0
 25 26  1  1
 26 27  1  0
 26 68  1  0
 26 69  1  0
 27 28  1  0
 27 70  1  0
 27 71  1  0
 28 29  1  0
 28 32  1  0
 29 30  1  0
 29 31  2  0
 30 72  1  0
 30 73  1  0
 30 74  1  0
 32 75  1  6
 33 34  1  0
 33 76  1  0
 33 77  1  0
 34 37  1  0
 34 35  1  0
 34 83  1  6
 35 36  1  0
 35 78  1  0
 35 79  1  0
 36 37  1  0
 36 80  1  0
 36 81  1  0
 37 82  1  1
M  CHG  2  17   1  34   1
M  END
>  <i_m_ct_stereo_status>  (252) 
1

>  <s_m_source_file>  (252) 
/var/tmp/pbs.5076255.sched01/tmpnszqc94g/84e4epk0lh.sdf

>  <i_m_source_file_index>  (252) 
31

>  <i_lp_mmshare_version>  (252) 
48012

>  <i_f3d_flags>  (252) 
0

>  <s_epik_input>  (252) 
W0NIMl0xW0NIMl1OKFtDSDJdMilbQ0BASF0xW0NASF0oW0NIXT1bQ0gyXSlbQ0BASF0oW0NIMl1bQ0BASF0zW0NIMl00KVtDQEBIXShOKFtDSDJdW0NIMl01KUMoPU8pW0NIM10pW0NAQF01KFtDQEBdMzZbQ0BIXTdbQ0BAXShbQ0BAXTI0OCkoW0NIMl1bQ0gyXTgpT1tDSDNdKVtDQEBIXShPNylOKFtDSDJdW0NIMl02KVtDSDJdW0NIXTlbQ0gyXVtDSDJdOQ==

>  <s_epik_cmdline>  (252) 
J2VwaWtfcHl0aG9uJywgJy1waHQnLCAnMi4wJywgJy1waCcsICc3LjAnLCAnLXRuJywgJzgnLCAnLW1hJywgJzIwMCcsICctaW1hZScsICc8aW5maWxlLm1hZT4nLCAnLW9tYWUnLCAnPG91dGZpbGUubWFlPic=

>  <r_epik_Ionization_Penalty>  (252) 
0.290862

>  <r_epik_Ionization_Penalty_Charging>  (252) 
0.29086

>  <r_epik_Ionization_Penalty_Neutral>  (252) 
1.45163e-06

>  <r_epik_State_Penalty>  (252) 
0.283503

>  <r_epik_Charging_Adjusted_Penalty>  (252) 
0.574363

>  <i_epik_Tot_Q>  (252) 
2

>  <i_epik_Tot_abs_Q>  (252) 
2

>  <s_epik_Chemistry_Notes>  (252) 
This compound contains an acetal/aminal-like group ( X-CH(R)-Y where X, Y are N, S, or O) that may be acid/base labile, releasing an aldehyde.

>  <s_lp_Force_Field>  (252) 
OPLS3e

>  <r_lp_Energy>  (252) 
172.878

>  <b_lp_Chiralities_Consistent>  (252) 
1

>  <s_lp_Variant>  (252) 
82:0-2

>  <s_i_glide_gridfile>  (252) 
pfpi4k_grid

>  <i_i_glide_lignum>  (252) 
31

>  <i_i_glide_rotatable_bonds>  (252) 
5

>  <r_i_docking_score>  (252) 
-1.81584

>  <r_i_glide_ligand_efficiency>  (252) 
-0.0490769

>  <r_i_glide_ligand_efficiency_sa>  (252) 
-0.163535

>  <r_i_glide_ligand_efficiency_ln>  (252) 
-0.393814

>  <r_i_glide_gscore>  (252) 
-1.81584

>  <r_i_glide_lipo>  (252) 
-0.0531411

>  <r_i_glide_hbond>  (252) 
0

>  <r_i_glide_metal>  (252) 
-0

>  <r_i_glide_rewards>  (252) 
0

>  <r_i_glide_evdw>  (252) 
-22.4257

>  <r_i_glide_ecoul>  (252) 
-5.49009

>  <r_i_glide_erotb>  (252) 
0.236494

>  <r_i_glide_esite>  (252) 
-0.0544008

>  <r_i_glide_emodel>  (252) 
-31.6013

>  <r_i_glide_energy>  (252) 
-27.9157

>  <r_i_glide_einternal>  (252) 
0.113111

>  <r_i_glide_intrahb_reward>  (252) 
-0

>  <i_i_glide_confnum>  (252) 
1

>  <i_i_glide_posenum>  (252) 
9

>  <r_i_glide_eff_state_penalty>  (252) 
0

>  <ligand_id>  (252) 
82

>  <original_smiles>  (252) 
C=CC1C2CC3CC4(CCC4(OC)C4OC5N(CC6CC6)CCC34C53CCN(C(C)=O)C23)CN2CCC12

>  <smiles>  (252) 
[H]C([H])=C([H])C1([H])C2([H])C([H])([H])C3([H])C([H])([H])C4(C([H])([H])C([H])([H])C4(OC([H])([H])[H])C4([H])OC5([H])C6(C([H])([H])C([H])([H])N(C(=O)C([H])([H])[H])C26[H])C43C([H])([H])C([H])([H])[N+]5([H])C([H])([H])C2([H])C([H])([H])C2([H])[H])C([H])([H])[N+]2([H])C([H])([H])C([H])([H])C12[H]

$$$$
82:2:0
     RDKit          3D

 83 91  0  0  1  0  0  0  0  0999 V2000
    3.7070   -1.1229    7.6023 C   0  0  0  0  0  0  0  0  0  0  0  0
    4.3545   -1.5282    6.4954 C   0  0  0  0  0  0  0  0  0  0  0  0
    3.6975   -1.8791    5.1706 C   0  0  2  0  0  0  0  0  0  0  0  0
    3.9814   -3.3841    4.8373 C   0  0  1  0  0  0  0  0  0  0  0  0
    5.3636   -3.7753    4.3982 C   0  0  0  0  0  0  0  0  0  0  0  0
    5.3227   -4.0269    2.8772 C   0  0  2  0  0  0  0  0  0  0  0  0
    5.8776   -2.8926    1.9886 C   0  0  0  0  0  0  0  0  0  0  0  0
    4.9553   -2.3558    0.8863 C   0  0  1  0  0  0  0  0  0  0  0  0
    5.6951   -2.3466   -0.4797 C   0  0  0  0  0  0  0  0  0  0  0  0
    5.2402   -3.7945   -0.6918 C   0  0  0  0  0  0  0  0  0  0  0  0
    4.0191   -3.4036    0.1513 C   0  0  2  0  0  0  0  0  0  0  0  0
    3.0712   -2.6658   -0.6342 O   0  0  0  0  0  0  0  0  0  0  0  0
    2.3762   -3.3842   -1.6532 C   0  0  0  0  0  0  0  0  0  0  0  0
    3.2886   -4.2971    1.1467 C   0  0  1  0  0  0  0  0  0  0  0  0
    2.2183   -5.2828    1.0147 O   0  0  0  0  0  0  0  0  0  0  0  0
    1.9157   -5.7770    2.3411 C   0  0  1  0  0  0  0  0  0  0  0  0
    2.3979   -7.1874    2.4070 N   0  0  0  0  0  0  0  0  0  0  0  0
    1.4380   -8.2615    2.0160 C   0  0  0  0  0  0  0  0  0  0  0  0
    0.4688   -8.6493    3.1130 C   0  0  0  0  0  0  0  0  0  0  0  0
   -0.9304   -9.0779    2.7351 C   0  0  0  0  0  0  0  0  0  0  0  0
   -0.7163   -7.7871    3.4892 C   0  0  0  0  0  0  0  0  0  0  0  0
    3.7031   -7.3780    1.7639 C   0  0  0  0  0  0  0  0  0  0  0  0
    4.6344   -6.2536    2.2044 C   0  0  0  0  0  0  0  0  0  0  0  0
    4.0267   -4.7980    2.3816 C   0  0  1  0  0  0  0  0  0  0  0  0
    2.6720   -4.7575    3.2511 C   0  0  1  0  0  0  0  0  0  0  0  0
    1.4852   -3.6984    3.3154 C   0  0  0  0  0  0  0  0  0  0  0  0
    0.7206   -3.9946    4.5940 C   0  0  0  0  0  0  0  0  0  0  0  0
    1.7639   -4.3614    5.5300 N   0  0  0  0  0  0  0  0  0  0  0  0
    1.6378   -4.3612    6.8827 C   0  0  0  0  0  0  0  0  0  0  0  0
    0.2557   -4.0892    7.4793 C   0  0  0  0  0  0  0  0  0  0  0  0
    2.5866   -4.5774    7.6296 O   0  0  0  0  0  0  0  0  0  0  0  0
    2.9934   -4.6484    4.7900 C   0  0  2  0  0  0  0  0  0  0  0  0
    4.3935   -0.9758    1.4305 C   0  0  0  0  0  0  0  0  0  0  0  0
    3.5507   -0.9713    2.6858 N   0  0  2  0  0  0  0  0  0  0  0  0
    2.7907    0.2657    2.8677 C   0  0  0  0  0  0  0  0  0  0  0  0
    3.5836    0.5735    4.1280 C   0  0  0  0  0  0  0  0  0  0  0  0
    4.1723   -0.8344    4.0520 C   0  0  1  0  0  0  0  0  0  0  0  0
    2.6274   -1.0105    7.6186 H   0  0  0  0  0  0  0  0  0  0  0  0
    4.2577   -0.9044    8.5115 H   0  0  0  0  0  0  0  0  0  0  0  0
    5.4317   -1.6235    6.5325 H   0  0  0  0  0  0  0  0  0  0  0  0
    2.6288   -1.7539    5.3288 H   0  0  0  0  0  0  0  0  0  0  0  0
    3.7129   -2.9791    3.9054 H   0  0  0  0  0  0  0  0  0  0  0  0
    6.0954   -3.0192    4.6773 H   0  0  0  0  0  0  0  0  0  0  0  0
    5.6584   -4.6818    4.9267 H   0  0  0  0  0  0  0  0  0  0  0  0
    6.1836   -4.6979    2.8120 H   0  0  0  0  0  0  0  0  0  0  0  0
    6.2659   -2.0649    2.5796 H   0  0  0  0  0  0  0  0  0  0  0  0
    6.7890   -3.2958    1.5308 H   0  0  0  0  0  0  0  0  0  0  0  0
    5.2555   -1.6440   -1.1912 H   0  0  0  0  0  0  0  0  0  0  0  0
    6.7775   -2.2249   -0.4230 H   0  0  0  0  0  0  0  0  0  0  0  0
    5.0673   -4.0321   -1.7368 H   0  0  0  0  0  0  0  0  0  0  0  0
    5.8844   -4.5327   -0.2169 H   0  0  0  0  0  0  0  0  0  0  0  0
    1.7596   -2.6728   -2.2032 H   0  0  0  0  0  0  0  0  0  0  0  0
    1.7211   -4.1545   -1.2435 H   0  0  0  0  0  0  0  0  0  0  0  0
    3.0364   -3.8418   -2.3914 H   0  0  0  0  0  0  0  0  0  0  0  0
    2.7126   -3.4311    1.4272 H   0  0  0  0  0  0  0  0  0  0  0  0
    0.8510   -5.8543    2.5141 H   0  0  0  0  0  0  0  0  0  0  0  0
    0.8710   -7.9090    1.1495 H   0  0  0  0  0  0  0  0  0  0  0  0
    1.9740   -9.1528    1.6883 H   0  0  0  0  0  0  0  0  0  0  0  0
    0.9399   -9.2111    3.9201 H   0  0  0  0  0  0  0  0  0  0  0  0
   -1.2120   -9.0114    1.6862 H   0  0  0  0  0  0  0  0  0  0  0  0
   -1.3823   -9.8980    3.2801 H   0  0  0  0  0  0  0  0  0  0  0  0
   -0.9771   -7.7650    4.5435 H   0  0  0  0  0  0  0  0  0  0  0  0
   -0.9403   -6.8809    2.9320 H   0  0  0  0  0  0  0  0  0  0  0  0
    4.1221   -8.3550    2.0117 H   0  0  0  0  0  0  0  0  0  0  0  0
    3.5742   -7.3498    0.6809 H   0  0  0  0  0  0  0  0  0  0  0  0
    5.0432   -6.5660    3.1669 H   0  0  0  0  0  0  0  0  0  0  0  0
    5.4782   -6.2518    1.5084 H   0  0  0  0  0  0  0  0  0  0  0  0
    1.7839   -2.6639    3.3542 H   0  0  0  0  0  0  0  0  0  0  0  0
    0.8047   -3.7295    2.4848 H   0  0  0  0  0  0  0  0  0  0  0  0
    0.1136   -3.1378    4.9113 H   0  0  0  0  0  0  0  0  0  0  0  0
    0.0597   -4.8616    4.4841 H   0  0  0  0  0  0  0  0  0  0  0  0
   -0.5263   -4.6606    6.9817 H   0  0  0  0  0  0  0  0  0  0  0  0
    0.0094   -3.0321    7.4184 H   0  0  0  0  0  0  0  0  0  0  0  0
    0.2443   -4.3727    8.5296 H   0  0  0  0  0  0  0  0  0  0  0  0
    3.4682   -5.5586    5.1700 H   0  0  0  0  0  0  0  0  0  0  0  0
    5.2083   -0.2533    1.5261 H   0  0  0  0  0  0  0  0  0  0  0  0
    3.7514   -0.5731    0.6510 H   0  0  0  0  0  0  0  0  0  0  0  0
    2.9019    1.0412    2.1045 H   0  0  0  0  0  0  0  0  0  0  0  0
    1.7392    0.0667    3.0927 H   0  0  0  0  0  0  0  0  0  0  0  0
    4.3207    1.3698    3.9839 H   0  0  0  0  0  0  0  0  0  0  0  0
    2.9395    0.7336    5.0006 H   0  0  0  0  0  0  0  0  0  0  0  0
    5.2577   -0.7267    3.9979 H   0  0  0  0  0  0  0  0  0  0  0  0
    2.8886   -1.7356    2.6748 H   0  0  0  0  0  0  0  0  0  0  0  0
  1  2  2  0
  1 38  1  0
  1 39  1  0
  2  3  1  0
  2 40  1  0
  3 37  1  0
  3  4  1  0
  3 41  1  1
  4 32  1  0
  4  5  1  0
  4 42  1  1
  5  6  1  0
  5 43  1  0
  5 44  1  0
  6 24  1  0
  6  7  1  0
  6 45  1  1
  7  8  1  0
  7 46  1  0
  7 47  1  0
  8 11  1  0
  8  9  1  6
  8 33  1  0
  9 10  1  0
  9 48  1  0
  9 49  1  0
 10 11  1  0
 10 50  1  0
 10 51  1  0
 11 12  1  6
 11 14  1  0
 12 13  1  0
 13 52  1  0
 13 53  1  0
 13 54  1  0
 14 24  1  0
 14 15  1  0
 14 55  1  1
 15 16  1  0
 16 25  1  0
 16 17  1  0
 16 56  1  1
 17 18  1  0
 17 22  1  0
 18 19  1  0
 18 57  1  0
 18 58  1  0
 19 21  1  0
 19 20  1  0
 19 59  1  0
 20 21  1  0
 20 60  1  0
 20 61  1  0
 21 62  1  0
 21 63  1  0
 22 23  1  0
 22 64  1  0
 22 65  1  0
 24 23  1  6
 23 66  1  0
 23 67  1  0
 24 25  1  0
 25 32  1  0
 25 26  1  6
 26 27  1  0
 26 68  1  0
 26 69  1  0
 27 28  1  0
 27 70  1  0
 27 71  1  0
 28 29  1  0
 28 32  1  0
 29 30  1  0
 29 31  2  0
 30 72  1  0
 30 73  1  0
 30 74  1  0
 32 75  1  1
 33 34  1  0
 33 76  1  0
 33 77  1  0
 34 37  1  0
 34 35  1  0
 34 83  1  1
 35 36  1  0
 35 78  1  0
 35 79  1  0
 36 37  1  0
 36 80  1  0
 36 81  1  0
 37 82  1  6
M  CHG  1  34   1
M  END
>  <i_m_ct_stereo_status>  (253) 
1

>  <s_m_source_file>  (253) 
/var/tmp/pbs.5076255.sched01/tmpnszqc94g/84e4epk0lh.sdf

>  <i_m_source_file_index>  (253) 
32

>  <i_lp_mmshare_version>  (253) 
48012

>  <i_f3d_flags>  (253) 
0

>  <s_epik_input>  (253) 
W0NIMl0xW0NIMl1OKFtDSDJdMilbQ0BASF0xW0NASF0oW0NIXT1bQ0gyXSlbQ0BASF0oW0NIMl1bQ0BASF0zW0NIMl00KVtDQEBIXShOKFtDSDJdW0NIMl01KUMoPU8pW0NIM10pW0NAQF01KFtDQEBdMzZbQ0BIXTdbQ0BAXShbQ0BAXTI0OCkoW0NIMl1bQ0gyXTgpT1tDSDNdKVtDQEBIXShPNylOKFtDSDJdW0NIMl02KVtDSDJdW0NIXTlbQ0gyXVtDSDJdOQ==

>  <s_epik_cmdline>  (253) 
J2VwaWtfcHl0aG9uJywgJy1waHQnLCAnMi4wJywgJy1waCcsICc3LjAnLCAnLXRuJywgJzgnLCAnLW1hJywgJzIwMCcsICctaW1hZScsICc8aW5maWxlLm1hZT4nLCAnLW9tYWUnLCAnPG91dGZpbGUubWFlPic=

>  <r_epik_Ionization_Penalty>  (253) 
0.561949

>  <r_epik_Ionization_Penalty_Charging>  (253) 
0.000320152

>  <r_epik_Ionization_Penalty_Neutral>  (253) 
0.561629

>  <r_epik_State_Penalty>  (253) 
0.572833

>  <r_epik_Charging_Adjusted_Penalty>  (253) 
0.573154

>  <i_epik_Tot_Q>  (253) 
1

>  <i_epik_Tot_abs_Q>  (253) 
1

>  <s_epik_Chemistry_Notes>  (253) 
This compound contains an acetal/aminal-like group ( X-CH(R)-Y where X, Y are N, S, or O) that may be acid/base labile, releasing an aldehyde.

>  <s_lp_Force_Field>  (253) 
OPLS3e

>  <r_lp_Energy>  (253) 
205.752

>  <b_lp_Chiralities_Consistent>  (253) 
1

>  <s_lp_Variant>  (253) 
82:0-3

>  <s_i_glide_gridfile>  (253) 
pfpi4k_grid

>  <i_i_glide_lignum>  (253) 
32

>  <i_i_glide_rotatable_bonds>  (253) 
5

>  <r_i_docking_score>  (253) 
-1.85938

>  <r_i_glide_ligand_efficiency>  (253) 
-0.0502536

>  <r_i_glide_ligand_efficiency_sa>  (253) 
-0.167456

>  <r_i_glide_ligand_efficiency_ln>  (253) 
-0.403257

>  <r_i_glide_gscore>  (253) 
-1.85938

>  <r_i_glide_lipo>  (253) 
-0.501013

>  <r_i_glide_hbond>  (253) 
-0.0101547

>  <r_i_glide_metal>  (253) 
-0

>  <r_i_glide_rewards>  (253) 
0

>  <r_i_glide_evdw>  (253) 
-22.8529

>  <r_i_glide_ecoul>  (253) 
-2.79114

>  <r_i_glide_erotb>  (253) 
0.237355

>  <r_i_glide_esite>  (253) 
-0.0242543

>  <r_i_glide_emodel>  (253) 
-28.4854

>  <r_i_glide_energy>  (253) 
-25.6441

>  <r_i_glide_einternal>  (253) 
0.803859

>  <r_i_glide_intrahb_reward>  (253) 
-0

>  <i_i_glide_confnum>  (253) 
3

>  <i_i_glide_posenum>  (253) 
8

>  <r_i_glide_eff_state_penalty>  (253) 
0

>  <ligand_id>  (253) 
82

>  <original_smiles>  (253) 
C=CC1C2CC3CC4(CCC4(OC)C4OC5N(CC6CC6)CCC34C53CCN(C(C)=O)C23)CN2CCC12

>  <smiles>  (253) 
[H]C([H])=C([H])C1([H])C2([H])C([H])([H])C3([H])C([H])([H])C4(C([H])([H])C([H])([H])C4(OC([H])([H])[H])C4([H])OC5([H])N(C([H])([H])C6([H])C([H])([H])C6([H])[H])C([H])([H])C([H])([H])C43C53C([H])([H])C([H])([H])N(C(=O)C([H])([H])[H])C23[H])C([H])([H])[N+]2([H])C([H])([H])C([H])([H])C12[H]

$$$$
82:2:1
     RDKit          3D

 83 91  0  0  1  0  0  0  0  0999 V2000
    2.1919    4.2419    2.5250 C   0  0  0  0  0  0  0  0  0  0  0  0
    1.8468    2.9654    2.3596 C   0  0  0  0  0  0  0  0  0  0  0  0
    1.5005    1.9458    3.4330 C   0  0  2  0  0  0  0  0  0  0  0  0
    1.4070    2.6222    4.8554 C   0  0  0  0  0  0  0  0  0  0  0  0
    2.6853    3.0705    5.5079 C   0  0  0  0  0  0  0  0  0  0  0  0
    2.9726    2.0939    6.6473 C   0  0  2  0  0  0  0  0  0  0  0  0
    4.0553    1.0383    6.3651 C   0  0  0  0  0  0  0  0  0  0  0  0
    3.6520   -0.4156    6.5869 C   0  0  1  0  0  0  0  0  0  0  0  0
    4.6747   -1.1460    7.4850 C   0  0  0  0  0  0  0  0  0  0  0  0
    3.8844   -0.6683    8.7086 C   0  0  0  0  0  0  0  0  0  0  0  0
    2.6789   -0.7371    7.7844 C   0  0  2  0  0  0  0  0  0  0  0  0
    2.1970   -2.0829    7.6588 O   0  0  0  0  0  0  0  0  0  0  0  0
    1.4964   -2.6197    8.7796 C   0  0  0  0  0  0  0  0  0  0  0  0
    1.5058    0.2099    7.8141 C   0  0  1  0  0  0  0  0  0  0  0  0
    0.3210    0.2252    8.6448 O   0  0  0  0  0  0  0  0  0  0  0  0
   -0.5138    1.3074    8.1763 C   0  0  1  0  0  0  0  0  0  0  0  0
   -0.5229    2.3828    9.1995 N   0  0  0  0  0  0  0  0  0  0  0  0
   -1.6111    2.4020   10.1987 C   0  0  0  0  0  0  0  0  0  0  0  0
   -2.9249    3.0462    9.7339 C   0  0  0  0  0  0  0  0  0  0  0  0
   -3.4085    3.0666    8.2854 C   0  0  0  0  0  0  0  0  0  0  0  0
   -2.9144    4.3297    8.9381 C   0  0  0  0  0  0  0  0  0  0  0  0
    0.8016    2.5642    9.8302 C   0  0  0  0  0  0  0  0  0  0  0  0
    1.8664    2.6113    8.7401 C   0  0  0  0  0  0  0  0  0  0  0  0
    1.6747    1.6655    7.4768 C   0  0  1  0  0  0  0  0  0  0  0  0
    0.1847    1.7213    6.8299 C   0  0  1  0  0  0  0  0  0  0  0  0
   -0.5934    0.6938    5.8762 C   0  0  0  0  0  0  0  0  0  0  0  0
   -1.6872    1.4834    5.1541 C   0  0  0  0  0  0  0  0  0  0  0  0
   -1.0824    2.7900    4.9694 N   0  0  0  0  0  0  0  0  0  0  0  0
   -1.5684    3.7463    4.1194 C   0  0  0  0  0  0  0  0  0  0  0  0
   -2.8134    3.4136    3.2872 C   0  0  0  0  0  0  0  0  0  0  0  0
   -1.0773    4.8642    4.0223 O   0  0  0  0  0  0  0  0  0  0  0  0
    0.1288    2.9107    5.7791 C   0  0  2  0  0  0  0  0  0  0  0  0
    3.3998   -1.0201    5.1587 C   0  0  0  0  0  0  0  0  0  0  0  0
    2.2756   -0.4448    4.3032 N   0  0  2  0  0  0  0  0  0  0  0  0
    1.8845   -1.3140    3.1626 C   0  0  0  0  0  0  0  0  0  0  0  0
    2.3712   -0.2656    2.1930 C   0  0  0  0  0  0  0  0  0  0  0  0
    2.5254    0.7118    3.3479 C   0  0  1  0  0  0  0  0  0  0  0  0
    2.2612    4.7232    3.4946 H   0  0  0  0  0  0  0  0  0  0  0  0
    2.4136    4.8579    1.6673 H   0  0  0  0  0  0  0  0  0  0  0  0
    1.8051    2.5811    1.3467 H   0  0  0  0  0  0  0  0  0  0  0  0
    0.5076    1.5895    3.1499 H   0  0  0  0  0  0  0  0  0  0  0  0
    1.5255    1.6028    5.1067 H   0  0  0  0  0  0  0  0  0  0  0  0
    3.5198    3.0788    4.8117 H   0  0  0  0  0  0  0  0  0  0  0  0
    2.5510    4.0958    5.8849 H   0  0  0  0  0  0  0  0  0  0  0  0
    3.5761    2.7562    7.2497 H   0  0  0  0  0  0  0  0  0  0  0  0
    4.5011    1.1651    5.3736 H   0  0  0  0  0  0  0  0  0  0  0  0
    4.8929    1.2827    7.0307 H   0  0  0  0  0  0  0  0  0  0  0  0
    4.6598   -2.2337    7.3817 H   0  0  0  0  0  0  0  0  0  0  0  0
    5.6824   -0.7477    7.4466 H   0  0  0  0  0  0  0  0  0  0  0  0
    3.8944   -1.3773    9.5341 H   0  0  0  0  0  0  0  0  0  0  0  0
    4.1400    0.3420    9.0307 H   0  0  0  0  0  0  0  0  0  0  0  0
    1.3045   -3.6717    8.5863 H   0  0  0  0  0  0  0  0  0  0  0  0
    0.5282   -2.1484    8.9335 H   0  0  0  0  0  0  0  0  0  0  0  0
    2.0570   -2.5651    9.7119 H   0  0  0  0  0  0  0  0  0  0  0  0
    1.1441   -0.3060    6.9395 H   0  0  0  0  0  0  0  0  0  0  0  0
   -1.5561    0.9610    8.0979 H   0  0  0  0  0  0  0  0  0  0  0  0
   -1.7874    1.3716   10.5081 H   0  0  0  0  0  0  0  0  0  0  0  0
   -1.2936    2.8956   11.1163 H   0  0  0  0  0  0  0  0  0  0  0  0
   -3.7103    2.9633   10.5007 H   0  0  0  0  0  0  0  0  0  0  0  0
   -2.7544    2.7787    7.4518 H   0  0  0  0  0  0  0  0  0  0  0  0
   -4.4825    2.9531    8.1549 H   0  0  0  0  0  0  0  0  0  0  0  0
   -3.6774    5.1090    9.0929 H   0  0  0  0  0  0  0  0  0  0  0  0
   -1.9555    4.6891    8.5913 H   0  0  0  0  0  0  0  0  0  0  0  0
    0.8251    3.4667   10.4411 H   0  0  0  0  0  0  0  0  0  0  0  0
    0.9928    1.7326   10.5032 H   0  0  0  0  0  0  0  0  0  0  0  0
    1.8860    3.6436    8.3862 H   0  0  0  0  0  0  0  0  0  0  0  0
    2.8349    2.4454    9.2283 H   0  0  0  0  0  0  0  0  0  0  0  0
   -0.0042    0.2392    5.0818 H   0  0  0  0  0  0  0  0  0  0  0  0
   -1.0148   -0.1690    6.3988 H   0  0  0  0  0  0  0  0  0  0  0  0
   -2.0088    1.0003    4.2293 H   0  0  0  0  0  0  0  0  0  0  0  0
   -2.5720    1.5857    5.7717 H   0  0  0  0  0  0  0  0  0  0  0  0
   -3.6088    2.9512    3.8747 H   0  0  0  0  0  0  0  0  0  0  0  0
   -2.5508    2.7344    2.4783 H   0  0  0  0  0  0  0  0  0  0  0  0
   -3.2299    4.3135    2.8271 H   0  0  0  0  0  0  0  0  0  0  0  0
    0.1929    3.8968    6.2610 H   0  0  0  0  0  0  0  0  0  0  0  0
    4.3164   -1.0604    4.5712 H   0  0  0  0  0  0  0  0  0  0  0  0
    3.1124   -2.0547    5.2811 H   0  0  0  0  0  0  0  0  0  0  0  0
    2.4103   -2.2625    3.0730 H   0  0  0  0  0  0  0  0  0  0  0  0
    0.8000   -1.4429    3.1219 H   0  0  0  0  0  0  0  0  0  0  0  0
    3.3150   -0.5475    1.7263 H   0  0  0  0  0  0  0  0  0  0  0  0
    1.5927    0.0112    1.4867 H   0  0  0  0  0  0  0  0  0  0  0  0
    3.5766    1.0160    3.3645 H   0  0  0  0  0  0  0  0  0  0  0  0
    1.4406   -0.2684    4.8329 H   0  0  0  0  0  0  0  0  0  0  0  0
  1  2  2  0
  1 38  1  0
  1 39  1  0
  2  3  1  0
  2 40  1  0
  3 37  1  0
  3  4  1  0
  3 41  1  6
  4 32  1  0
  4  5  1  0
  4 42  1  0
  5  6  1  0
  5 43  1  0
  5 44  1  0
  6 24  1  0
  6  7  1  0
  6 45  1  1
  7  8  1  0
  7 46  1  0
  7 47  1  0
  8 11  1  0
  8  9  1  1
  8 33  1  0
  9 10  1  0
  9 48  1  0
  9 49  1  0
 10 11  1  0
 10 50  1  0
 10 51  1  0
 11 12  1  6
 11 14  1  0
 12 13  1  0
 13 52  1  0
 13 53  1  0
 13 54  1  0
 14 24  1  0
 14 15  1  0
 14 55  1  6
 15 16  1  0
 16 25  1  0
 16 17  1  0
 16 56  1  6
 17 18  1  0
 17 22  1  0
 18 19  1  0
 18 57  1  0
 18 58  1  0
 19 21  1  0
 19 20  1  0
 19 59  1  0
 20 21  1  0
 20 60  1  0
 20 61  1  0
 21 62  1  0
 21 63  1  0
 22 23  1  0
 22 64  1  0
 22 65  1  0
 24 23  1  1
 23 66  1  0
 23 67  1  0
 24 25  1  0
 25 32  1  0
 25 26  1  6
 26 27  1  0
 26 68  1  0
 26 69  1  0
 27 28  1  0
 27 70  1  0
 27 71  1  0
 28 29  1  0
 28 32  1  0
 29 30  1  0
 29 31  2  0
 30 72  1  0
 30 73  1  0
 30 74  1  0
 32 75  1  1
 33 34  1  0
 33 76  1  0
 33 77  1  0
 34 37  1  0
 34 35  1  0
 34 83  1  1
 35 36  1  0
 35 78  1  0
 35 79  1  0
 36 37  1  0
 36 80  1  0
 36 81  1  0
 37 82  1  1
M  CHG  1  34   1
M  END
>  <i_m_ct_stereo_status>  (254) 
1

>  <s_m_source_file>  (254) 
/var/tmp/pbs.5076255.sched01/tmpnszqc94g/84e4epk0lh.sdf

>  <i_m_source_file_index>  (254) 
32

>  <i_lp_mmshare_version>  (254) 
48012

>  <i_f3d_flags>  (254) 
0

>  <s_epik_input>  (254) 
W0NIMl0xW0NIMl1OKFtDSDJdMilbQ0BASF0xW0NASF0oW0NIXT1bQ0gyXSlbQ0BASF0oW0NIMl1bQ0BASF0zW0NIMl00KVtDQEBIXShOKFtDSDJdW0NIMl01KUMoPU8pW0NIM10pW0NAQF01KFtDQEBdMzZbQ0BIXTdbQ0BAXShbQ0BAXTI0OCkoW0NIMl1bQ0gyXTgpT1tDSDNdKVtDQEBIXShPNylOKFtDSDJdW0NIMl02KVtDSDJdW0NIXTlbQ0gyXVtDSDJdOQ==

>  <s_epik_cmdline>  (254) 
J2VwaWtfcHl0aG9uJywgJy1waHQnLCAnMi4wJywgJy1waCcsICc3LjAnLCAnLXRuJywgJzgnLCAnLW1hJywgJzIwMCcsICctaW1hZScsICc8aW5maWxlLm1hZT4nLCAnLW9tYWUnLCAnPG91dGZpbGUubWFlPic=

>  <r_epik_Ionization_Penalty>  (254) 
0.561949

>  <r_epik_Ionization_Penalty_Charging>  (254) 
0.000320152

>  <r_epik_Ionization_Penalty_Neutral>  (254) 
0.561629

>  <r_epik_State_Penalty>  (254) 
0.572833

>  <r_epik_Charging_Adjusted_Penalty>  (254) 
0.573154

>  <i_epik_Tot_Q>  (254) 
1

>  <i_epik_Tot_abs_Q>  (254) 
1

>  <s_epik_Chemistry_Notes>  (254) 
This compound contains an acetal/aminal-like group ( X-CH(R)-Y where X, Y are N, S, or O) that may be acid/base labile, releasing an aldehyde.

>  <s_lp_Force_Field>  (254) 
OPLS3e

>  <r_lp_Energy>  (254) 
205.752

>  <b_lp_Chiralities_Consistent>  (254) 
1

>  <s_lp_Variant>  (254) 
82:0-3

>  <s_i_glide_gridfile>  (254) 
pfpi4k_grid

>  <i_i_glide_lignum>  (254) 
32

>  <i_i_glide_rotatable_bonds>  (254) 
5

>  <r_i_docking_score>  (254) 
-1.77975

>  <r_i_glide_ligand_efficiency>  (254) 
-0.0481014

>  <r_i_glide_ligand_efficiency_sa>  (254) 
-0.160285

>  <r_i_glide_ligand_efficiency_ln>  (254) 
-0.385987

>  <r_i_glide_gscore>  (254) 
-1.77975

>  <r_i_glide_lipo>  (254) 
-0.103455

>  <r_i_glide_hbond>  (254) 
-0.123234

>  <r_i_glide_metal>  (254) 
-0

>  <r_i_glide_rewards>  (254) 
0

>  <r_i_glide_evdw>  (254) 
-23.3195

>  <r_i_glide_ecoul>  (254) 
-3.48086

>  <r_i_glide_erotb>  (254) 
0.237355

>  <r_i_glide_esite>  (254) 
-0.102315

>  <r_i_glide_emodel>  (254) 
-28.414

>  <r_i_glide_energy>  (254) 
-26.8004

>  <r_i_glide_einternal>  (254) 
2.1125

>  <r_i_glide_intrahb_reward>  (254) 
-0

>  <i_i_glide_confnum>  (254) 
2

>  <i_i_glide_posenum>  (254) 
35

>  <r_i_glide_eff_state_penalty>  (254) 
0

>  <ligand_id>  (254) 
82

>  <original_smiles>  (254) 
C=CC1C2CC3CC4(CCC4(OC)C4OC5N(CC6CC6)CCC34C53CCN(C(C)=O)C23)CN2CCC12

>  <smiles>  (254) 
[H]C([H])=C([H])C1([H])C2([H])C([H])([H])C3([H])C([H])([H])C4(C([H])([H])C([H])([H])C4(OC([H])([H])[H])C4([H])OC5([H])N(C([H])([H])C6([H])C([H])([H])C6([H])[H])C([H])([H])C([H])([H])C43C53C([H])([H])C([H])([H])N(C(=O)C([H])([H])[H])C23[H])C([H])([H])[N+]2([H])C([H])([H])C([H])([H])C12[H]

$$$$
82:2:2
     RDKit          3D

 83 91  0  0  1  0  0  0  0  0999 V2000
    8.1080   -6.4595    2.1948 C   0  0  0  0  0  0  0  0  0  0  0  0
    7.1940   -7.3602    1.7874 C   0  0  0  0  0  0  0  0  0  0  0  0
    5.6796   -7.2612    1.9737 C   0  0  2  0  0  0  0  0  0  0  0  0
    5.2933   -6.0080    2.8247 C   0  0  0  0  0  0  0  0  0  0  0  0
    5.6148   -6.0122    4.2990 C   0  0  0  0  0  0  0  0  0  0  0  0
    4.2805   -6.1750    5.0390 C   0  0  2  0  0  0  0  0  0  0  0  0
    3.9818   -7.5919    5.5765 C   0  0  0  0  0  0  0  0  0  0  0  0
    2.6481   -8.2228    5.1437 C   0  0  1  0  0  0  0  0  0  0  0  0
    1.8734   -8.7440    6.3805 C   0  0  0  0  0  0  0  0  0  0  0  0
    1.2416   -7.3526    6.5256 C   0  0  0  0  0  0  0  0  0  0  0  0
    1.4077   -7.2435    5.0081 C   0  0  2  0  0  0  0  0  0  0  0  0
    0.3501   -7.9630    4.3459 O   0  0  0  0  0  0  0  0  0  0  0  0
   -0.9220   -7.3221    4.2922 C   0  0  0  0  0  0  0  0  0  0  0  0
    1.7365   -5.9855    4.2223 C   0  0  1  0  0  0  0  0  0  0  0  0
    0.9410   -4.8767    3.6996 O   0  0  0  0  0  0  0  0  0  0  0  0
    1.8289   -3.9944    2.9685 C   0  0  1  0  0  0  0  0  0  0  0  0
    1.9498   -2.7494    3.7868 N   0  0  0  0  0  0  0  0  0  0  0  0
    0.9659   -1.6597    3.4957 C   0  0  0  0  0  0  0  0  0  0  0  0
    1.3626   -0.7727    2.3466 C   0  0  0  0  0  0  0  0  0  0  0  0
    2.1067    0.5190    2.5915 C   0  0  0  0  0  0  0  0  0  0  0  0
    0.6554    0.5564    2.1747 C   0  0  0  0  0  0  0  0  0  0  0  0
    2.0595   -2.9969    5.2264 C   0  0  0  0  0  0  0  0  0  0  0  0
    3.0636   -4.1189    5.4543 C   0  0  0  0  0  0  0  0  0  0  0  0
    3.0938   -5.3229    4.4225 C   0  0  1  0  0  0  0  0  0  0  0  0
    3.1212   -4.8631    2.8833 C   0  0  1  0  0  0  0  0  0  0  0  0
    2.6634   -5.6009    1.5359 C   0  0  0  0  0  0  0  0  0  0  0  0
    3.3302   -4.8313    0.4041 C   0  0  0  0  0  0  0  0  0  0  0  0
    4.6221   -4.4553    0.9410 N   0  0  0  0  0  0  0  0  0  0  0  0
    5.6856   -4.0546    0.2125 C   0  0  0  0  0  0  0  0  0  0  0  0
    5.4920   -3.7672   -1.2759 C   0  0  0  0  0  0  0  0  0  0  0  0
    6.8022   -3.8850    0.7084 O   0  0  0  0  0  0  0  0  0  0  0  0
    4.5937   -4.6222    2.3953 C   0  0  2  0  0  0  0  0  0  0  0  0
    3.0094   -9.2587    3.9966 C   0  0  0  0  0  0  0  0  0  0  0  0
    3.6319   -8.7771    2.7214 N   0  0  2  0  0  0  0  0  0  0  0  0
    3.5418   -9.7171    1.6327 C   0  0  0  0  0  0  0  0  0  0  0  0
    5.0593   -9.8379    1.6048 C   0  0  0  0  0  0  0  0  0  0  0  0
    5.1153   -8.6427    2.5578 C   0  0  1  0  0  0  0  0  0  0  0  0
    7.8298   -5.5387    2.6980 H   0  0  0  0  0  0  0  0  0  0  0  0
    9.1630   -6.6259    2.0270 H   0  0  0  0  0  0  0  0  0  0  0  0
    7.5578   -8.2458    1.2783 H   0  0  0  0  0  0  0  0  0  0  0  0
    5.2957   -7.1367    0.9650 H   0  0  0  0  0  0  0  0  0  0  0  0
    4.4162   -6.5815    2.9014 H   0  0  0  0  0  0  0  0  0  0  0  0
    6.3217   -6.7988    4.5633 H   0  0  0  0  0  0  0  0  0  0  0  0
    6.0908   -5.0719    4.5596 H   0  0  0  0  0  0  0  0  0  0  0  0
    4.5908   -5.7203    5.9929 H   0  0  0  0  0  0  0  0  0  0  0  0
    4.8142   -8.2745    5.3945 H   0  0  0  0  0  0  0  0  0  0  0  0
    4.0040   -7.5109    6.6644 H   0  0  0  0  0  0  0  0  0  0  0  0
    1.1424   -9.5223    6.1424 H   0  0  0  0  0  0  0  0  0  0  0  0
    2.4931   -9.0474    7.2274 H   0  0  0  0  0  0  0  0  0  0  0  0
    0.2204   -7.3751    6.8973 H   0  0  0  0  0  0  0  0  0  0  0  0
    1.8629   -6.6491    7.0855 H   0  0  0  0  0  0  0  0  0  0  0  0
   -1.6495   -8.0212    3.8786 H   0  0  0  0  0  0  0  0  0  0  0  0
   -0.9118   -6.4556    3.6340 H   0  0  0  0  0  0  0  0  0  0  0  0
   -1.2855   -7.0064    5.2702 H   0  0  0  0  0  0  0  0  0  0  0  0
    1.8101   -6.6191    3.3584 H   0  0  0  0  0  0  0  0  0  0  0  0
    1.4102   -3.6272    2.0543 H   0  0  0  0  0  0  0  0  0  0  0  0
    0.0020   -2.1183    3.2788 H   0  0  0  0  0  0  0  0  0  0  0  0
    0.8291   -1.0537    4.3882 H   0  0  0  0  0  0  0  0  0  0  0  0
    1.5894   -1.3005    1.4201 H   0  0  0  0  0  0  0  0  0  0  0  0
    2.3486    0.7628    3.6259 H   0  0  0  0  0  0  0  0  0  0  0  0
    2.8418    0.8275    1.8546 H   0  0  0  0  0  0  0  0  0  0  0  0
    0.4382    0.8970    1.1667 H   0  0  0  0  0  0  0  0  0  0  0  0
   -0.0834    0.8326    2.9264 H   0  0  0  0  0  0  0  0  0  0  0  0
    2.3503   -2.0917    5.7560 H   0  0  0  0  0  0  0  0  0  0  0  0
    1.0788   -3.2919    5.6056 H   0  0  0  0  0  0  0  0  0  0  0  0
    4.0458   -3.6389    5.4441 H   0  0  0  0  0  0  0  0  0  0  0  0
    2.9141   -4.4719    6.4737 H   0  0  0  0  0  0  0  0  0  0  0  0
    3.0002   -6.6274    1.4403 H   0  0  0  0  0  0  0  0  0  0  0  0
    1.5929   -5.6800    1.3706 H   0  0  0  0  0  0  0  0  0  0  0  0
    3.4141   -5.4376   -0.4979 H   0  0  0  0  0  0  0  0  0  0  0  0
    2.7718   -3.9223    0.1542 H   0  0  0  0  0  0  0  0  0  0  0  0
    4.6123   -3.1490   -1.4514 H   0  0  0  0  0  0  0  0  0  0  0  0
    5.3860   -4.6820   -1.8548 H   0  0  0  0  0  0  0  0  0  0  0  0
    6.3532   -3.2286   -1.6708 H   0  0  0  0  0  0  0  0  0  0  0  0
    5.0544   -3.7678    2.8903 H   0  0  0  0  0  0  0  0  0  0  0  0
    3.5987  -10.0863    4.4147 H   0  0  0  0  0  0  0  0  0  0  0  0
    2.0624   -9.7372    3.7170 H   0  0  0  0  0  0  0  0  0  0  0  0
    3.0437  -10.6687    1.8446 H   0  0  0  0  0  0  0  0  0  0  0  0
    3.1574   -9.2761    0.7063 H   0  0  0  0  0  0  0  0  0  0  0  0
    5.4266  -10.7707    2.0321 H   0  0  0  0  0  0  0  0  0  0  0  0
    5.4844   -9.6264    0.6167 H   0  0  0  0  0  0  0  0  0  0  0  0
    5.6428   -8.9749    3.4631 H   0  0  0  0  0  0  0  0  0  0  0  0
    3.1667   -7.9175    2.4197 H   0  0  0  0  0  0  0  0  0  0  0  0
  1  2  2  0
  1 38  1  0
  1 39  1  0
  2  3  1  0
  2 40  1  0
  3 37  1  0
  3  4  1  0
  3 41  1  6
  4 32  1  0
  4  5  1  0
  4 42  1  0
  5  6  1  0
  5 43  1  0
  5 44  1  0
  6 24  1  0
  6  7  1  0
  6 45  1  1
  7  8  1  0
  7 46  1  0
  7 47  1  0
  8 11  1  0
  8  9  1  1
  8 33  1  0
  9 10  1  0
  9 48  1  0
  9 49  1  0
 10 11  1  0
 10 50  1  0
 10 51  1  0
 11 12  1  6
 11 14  1  0
 12 13  1  0
 13 52  1  0
 13 53  1  0
 13 54  1  0
 14 24  1  0
 14 15  1  0
 14 55  1  6
 15 16  1  0
 16 25  1  0
 16 17  1  0
 16 56  1  6
 17 18  1  0
 17 22  1  0
 18 19  1  0
 18 57  1  0
 18 58  1  0
 19 21  1  0
 19 20  1  0
 19 59  1  0
 20 21  1  0
 20 60  1  0
 20 61  1  0
 21 62  1  0
 21 63  1  0
 22 23  1  0
 22 64  1  0
 22 65  1  0
 24 23  1  1
 23 66  1  0
 23 67  1  0
 24 25  1  0
 25 32  1  0
 25 26  1  6
 26 27  1  0
 26 68  1  0
 26 69  1  0
 27 28  1  0
 27 70  1  0
 27 71  1  0
 28 29  1  0
 28 32  1  0
 29 30  1  0
 29 31  2  0
 30 72  1  0
 30 73  1  0
 30 74  1  0
 32 75  1  1
 33 34  1  0
 33 76  1  0
 33 77  1  0
 34 37  1  0
 34 35  1  0
 34 83  1  6
 35 36  1  0
 35 78  1  0
 35 79  1  0
 36 37  1  0
 36 80  1  0
 36 81  1  0
 37 82  1  1
M  CHG  1  34   1
M  END
>  <i_m_ct_stereo_status>  (255) 
1

>  <s_m_source_file>  (255) 
/var/tmp/pbs.5076255.sched01/tmpnszqc94g/84e4epk0lh.sdf

>  <i_m_source_file_index>  (255) 
32

>  <i_lp_mmshare_version>  (255) 
48012

>  <i_f3d_flags>  (255) 
0

>  <s_epik_input>  (255) 
W0NIMl0xW0NIMl1OKFtDSDJdMilbQ0BASF0xW0NASF0oW0NIXT1bQ0gyXSlbQ0BASF0oW0NIMl1bQ0BASF0zW0NIMl00KVtDQEBIXShOKFtDSDJdW0NIMl01KUMoPU8pW0NIM10pW0NAQF01KFtDQEBdMzZbQ0BIXTdbQ0BAXShbQ0BAXTI0OCkoW0NIMl1bQ0gyXTgpT1tDSDNdKVtDQEBIXShPNylOKFtDSDJdW0NIMl02KVtDSDJdW0NIXTlbQ0gyXVtDSDJdOQ==

>  <s_epik_cmdline>  (255) 
J2VwaWtfcHl0aG9uJywgJy1waHQnLCAnMi4wJywgJy1waCcsICc3LjAnLCAnLXRuJywgJzgnLCAnLW1hJywgJzIwMCcsICctaW1hZScsICc8aW5maWxlLm1hZT4nLCAnLW9tYWUnLCAnPG91dGZpbGUubWFlPic=

>  <r_epik_Ionization_Penalty>  (255) 
0.561949

>  <r_epik_Ionization_Penalty_Charging>  (255) 
0.000320152

>  <r_epik_Ionization_Penalty_Neutral>  (255) 
0.561629

>  <r_epik_State_Penalty>  (255) 
0.572833

>  <r_epik_Charging_Adjusted_Penalty>  (255) 
0.573154

>  <i_epik_Tot_Q>  (255) 
1

>  <i_epik_Tot_abs_Q>  (255) 
1

>  <s_epik_Chemistry_Notes>  (255) 
This compound contains an acetal/aminal-like group ( X-CH(R)-Y where X, Y are N, S, or O) that may be acid/base labile, releasing an aldehyde.

>  <s_lp_Force_Field>  (255) 
OPLS3e

>  <r_lp_Energy>  (255) 
205.752

>  <b_lp_Chiralities_Consistent>  (255) 
1

>  <s_lp_Variant>  (255) 
82:0-3

>  <s_i_glide_gridfile>  (255) 
pfpi4k_grid

>  <i_i_glide_lignum>  (255) 
32

>  <i_i_glide_rotatable_bonds>  (255) 
5

>  <r_i_docking_score>  (255) 
-1.71138

>  <r_i_glide_ligand_efficiency>  (255) 
-0.0462534

>  <r_i_glide_ligand_efficiency_sa>  (255) 
-0.154127

>  <r_i_glide_ligand_efficiency_ln>  (255) 
-0.371157

>  <r_i_glide_gscore>  (255) 
-1.71138

>  <r_i_glide_lipo>  (255) 
-0.149579

>  <r_i_glide_hbond>  (255) 
0

>  <r_i_glide_metal>  (255) 
-0

>  <r_i_glide_rewards>  (255) 
-0.138629

>  <r_i_glide_evdw>  (255) 
-24.0661

>  <r_i_glide_ecoul>  (255) 
-2.9466

>  <r_i_glide_erotb>  (255) 
0.237355

>  <r_i_glide_esite>  (255) 
-0.0152277

>  <r_i_glide_emodel>  (255) 
-28.9284

>  <r_i_glide_energy>  (255) 
-27.0127

>  <r_i_glide_einternal>  (255) 
1.92659

>  <r_i_glide_intrahb_reward>  (255) 
-0

>  <i_i_glide_confnum>  (255) 
2

>  <i_i_glide_posenum>  (255) 
1

>  <r_i_glide_eff_state_penalty>  (255) 
0

>  <ligand_id>  (255) 
82

>  <original_smiles>  (255) 
C=CC1C2CC3CC4(CCC4(OC)C4OC5N(CC6CC6)CCC34C53CCN(C(C)=O)C23)CN2CCC12

>  <smiles>  (255) 
[H]C([H])=C([H])C1([H])C2([H])C([H])([H])C3([H])C([H])([H])C4(C([H])([H])C([H])([H])C4(OC([H])([H])[H])C4([H])OC5([H])N(C([H])([H])C6([H])C([H])([H])C6([H])[H])C([H])([H])C([H])([H])C43C53C([H])([H])C([H])([H])N(C(=O)C([H])([H])[H])C23[H])C([H])([H])[N+]2([H])C([H])([H])C([H])([H])C12[H]

$$$$
82:3:0
     RDKit          3D

 83 91  0  0  1  0  0  0  0  0999 V2000
    2.1002    1.8385    6.6380 C   0  0  0  0  0  0  0  0  0  0  0  0
    3.0139    1.1963    5.8846 C   0  0  0  0  0  0  0  0  0  0  0  0
    2.7317    0.0884    4.8658 C   0  0  2  0  0  0  0  0  0  0  0  0
    3.4078   -1.2356    5.4359 C   0  0  2  0  0  0  0  0  0  0  0  0
    4.8239   -1.4313    4.9296 C   0  0  0  0  0  0  0  0  0  0  0  0
    4.8643   -2.1079    3.5642 C   0  0  2  0  0  0  0  0  0  0  0  0
    5.4806   -1.3699    2.3687 C   0  0  0  0  0  0  0  0  0  0  0  0
    4.6515   -1.4864    1.0882 C   0  0  1  0  0  0  0  0  0  0  0  0
    5.5560   -1.8218   -0.1192 C   0  0  0  0  0  0  0  0  0  0  0  0
    5.3694   -3.3075    0.2306 C   0  0  0  0  0  0  0  0  0  0  0  0
    3.9876   -2.8784    0.7520 C   0  0  2  0  0  0  0  0  0  0  0  0
    3.0597   -2.6697   -0.3219 O   0  0  0  0  0  0  0  0  0  0  0  0
    2.6716   -3.8157   -1.0703 C   0  0  0  0  0  0  0  0  0  0  0  0
    3.2240   -3.4189    1.9473 C   0  0  1  0  0  0  0  0  0  0  0  0
    2.3521   -4.5645    2.1186 O   0  0  0  0  0  0  0  0  0  0  0  0
    1.9570   -4.5772    3.5061 C   0  0  1  0  0  0  0  0  0  0  0  0
    2.6140   -5.7632    4.1197 N   0  0  0  0  0  0  0  0  0  0  0  0
    1.8843   -7.0648    4.0535 C   0  0  0  0  0  0  0  0  0  0  0  0
    0.8521   -7.2496    5.1458 C   0  0  0  0  0  0  0  0  0  0  0  0
   -0.3825   -8.0794    4.8674 C   0  0  0  0  0  0  0  0  0  0  0  0
   -0.5054   -6.5897    5.0917 C   0  0  0  0  0  0  0  0  0  0  0  0
    4.0109   -5.9208    3.7086 C   0  0  0  0  0  0  0  0  0  0  0  0
    4.6996   -4.5570    3.7501 C   0  0  0  0  0  0  0  0  0  0  0  0
    3.8555   -3.2694    3.3263 C   0  0  1  0  0  0  0  0  0  0  0  0
    2.4643   -3.1924    4.0493 C   0  0  1  0  0  0  0  0  0  0  0  0
    1.1506   -2.4020    3.7043 C   0  0  0  0  0  0  0  0  0  0  0  0
    0.3323   -2.4348    4.9923 C   0  0  0  0  0  0  0  0  0  0  0  0
    1.3139   -2.4498    6.0633 N   0  0  0  0  0  0  0  0  0  0  0  0
    1.0058   -2.3053    7.3693 C   0  0  0  0  0  0  0  0  0  0  0  0
    2.0785   -2.3568    8.4461 C   0  0  0  0  0  0  0  0  0  0  0  0
   -0.1770   -2.1365    7.7251 O   0  0  0  0  0  0  0  0  0  0  0  0
    2.6419   -2.6572    5.4970 C   0  0  2  0  0  0  0  0  0  0  0  0
    3.7542   -0.2095    1.0830 C   0  0  0  0  0  0  0  0  0  0  0  0
    2.7920   -0.0511    2.2225 N   0  0  2  0  0  0  0  0  0  0  0  0
    1.7255    0.9067    1.9482 C   0  0  0  0  0  0  0  0  0  0  0  0
    2.3533    1.8532    2.9459 C   0  0  0  0  0  0  0  0  0  0  0  0
    3.1764    0.6722    3.4660 C   0  0  1  0  0  0  0  0  0  0  0  0
    1.0399    1.6175    6.5729 H   0  0  0  0  0  0  0  0  0  0  0  0
    2.4094    2.6015    7.3448 H   0  0  0  0  0  0  0  0  0  0  0  0
    4.0525    1.4715    6.0115 H   0  0  0  0  0  0  0  0  0  0  0  0
    1.6509    0.0154    4.9325 H   0  0  0  0  0  0  0  0  0  0  0  0
    3.6212   -0.9596    6.4594 H   0  0  0  0  0  0  0  0  0  0  0  0
    5.3522   -0.4749    4.9004 H   0  0  0  0  0  0  0  0  0  0  0  0
    5.3572   -2.0385    5.6738 H   0  0  0  0  0  0  0  0  0  0  0  0
    5.7924   -2.6128    3.7844 H   0  0  0  0  0  0  0  0  0  0  0  0
    5.7050   -0.3306    2.6074 H   0  0  0  0  0  0  0  0  0  0  0  0
    6.4868   -1.7745    2.1871 H   0  0  0  0  0  0  0  0  0  0  0  0
    5.1153   -1.5422   -1.0811 H   0  0  0  0  0  0  0  0  0  0  0  0
    6.5905   -1.4841   -0.0344 H   0  0  0  0  0  0  0  0  0  0  0  0
    5.4129   -3.9533   -0.6416 H   0  0  0  0  0  0  0  0  0  0  0  0
    6.0325   -3.6687    1.0154 H   0  0  0  0  0  0  0  0  0  0  0  0
    2.0406   -3.5161   -1.9083 H   0  0  0  0  0  0  0  0  0  0  0  0
    2.1271   -4.5535   -0.4775 H   0  0  0  0  0  0  0  0  0  0  0  0
    3.5379   -4.2823   -1.5208 H   0  0  0  0  0  0  0  0  0  0  0  0
    2.4826   -2.6446    1.8439 H   0  0  0  0  0  0  0  0  0  0  0  0
    0.8988   -4.7683    3.6352 H   0  0  0  0  0  0  0  0  0  0  0  0
    1.3733   -7.1083    3.0873 H   0  0  0  0  0  0  0  0  0  0  0  0
    2.5842   -7.9056    4.0818 H   0  0  0  0  0  0  0  0  0  0  0  0
    1.2907   -7.3793    6.1332 H   0  0  0  0  0  0  0  0  0  0  0  0
   -0.5136   -8.4525    3.8529 H   0  0  0  0  0  0  0  0  0  0  0  0
   -0.7475   -8.7372    5.6499 H   0  0  0  0  0  0  0  0  0  0  0  0
   -0.9253   -6.2483    6.0322 H   0  0  0  0  0  0  0  0  0  0  0  0
   -0.7553   -5.9857    4.2242 H   0  0  0  0  0  0  0  0  0  0  0  0
    4.5287   -6.6540    4.3301 H   0  0  0  0  0  0  0  0  0  0  0  0
    4.0262   -6.3095    2.6900 H   0  0  0  0  0  0  0  0  0  0  0  0
    5.0226   -4.4346    4.7871 H   0  0  0  0  0  0  0  0  0  0  0  0
    5.6210   -4.6558    3.1667 H   0  0  0  0  0  0  0  0  0  0  0  0
    1.2906   -1.3767    3.4597 H   0  0  0  0  0  0  0  0  0  0  0  0
    0.5748   -2.7835    2.8684 H   0  0  0  0  0  0  0  0  0  0  0  0
   -0.3669   -1.5988    5.0562 H   0  0  0  0  0  0  0  0  0  0  0  0
   -0.2714   -3.3451    5.0424 H   0  0  0  0  0  0  0  0  0  0  0  0
    2.8971   -1.6709    8.2743 H   0  0  0  0  0  0  0  0  0  0  0  0
    2.4803   -3.3690    8.5291 H   0  0  0  0  0  0  0  0  0  0  0  0
    1.6650   -2.0665    9.4177 H   0  0  0  0  0  0  0  0  0  0  0  0
    3.1977   -3.3868    6.0901 H   0  0  0  0  0  0  0  0  0  0  0  0
    4.3518    0.6934    0.9513 H   0  0  0  0  0  0  0  0  0  0  0  0
    3.1523   -0.2727    0.1826 H   0  0  0  0  0  0  0  0  0  0  0  0
    1.6686    1.3286    0.9444 H   0  0  0  0  0  0  0  0  0  0  0  0
    0.7432    0.5616    2.2776 H   0  0  0  0  0  0  0  0  0  0  0  0
    2.9581    2.6411    2.4882 H   0  0  0  0  0  0  0  0  0  0  0  0
    1.6240    2.2374    3.6626 H   0  0  0  0  0  0  0  0  0  0  0  0
    4.2166    0.9946    3.4450 H   0  0  0  0  0  0  0  0  0  0  0  0
    2.3467   -0.9414    2.4309 H   0  0  0  0  0  0  0  0  0  0  0  0
  1  2  2  0
  1 38  1  0
  1 39  1  0
  2  3  1  0
  2 40  1  0
  3 37  1  0
  3  4  1  0
  3 41  1  6
  4 32  1  0
  4  5  1  0
  4 42  1  1
  5  6  1  0
  5 43  1  0
  5 44  1  0
  6 24  1  0
  6  7  1  0
  6 45  1  1
  7  8  1  0
  7 46  1  0
  7 47  1  0
  8 11  1  0
  8  9  1  6
  8 33  1  0
  9 10  1  0
  9 48  1  0
  9 49  1  0
 10 11  1  0
 10 50  1  0
 10 51  1  0
 11 12  1  6
 11 14  1  0
 12 13  1  0
 13 52  1  0
 13 53  1  0
 13 54  1  0
 14 24  1  0
 14 15  1  0
 14 55  1  1
 15 16  1  0
 16 25  1  0
 16 17  1  0
 16 56  1  6
 17 18  1  0
 17 22  1  0
 18 19  1  0
 18 57  1  0
 18 58  1  0
 19 21  1  0
 19 20  1  0
 19 59  1  0
 20 21  1  0
 20 60  1  0
 20 61  1  0
 21 62  1  0
 21 63  1  0
 22 23  1  0
 22 64  1  0
 22 65  1  0
 24 23  1  1
 23 66  1  0
 23 67  1  0
 24 25  1  0
 25 32  1  0
 25 26  1  6
 26 27  1  0
 26 68  1  0
 26 69  1  0
 27 28  1  0
 27 70  1  0
 27 71  1  0
 28 29  1  0
 28 32  1  0
 29 30  1  0
 29 31  2  0
 30 72  1  0
 30 73  1  0
 30 74  1  0
 32 75  1  1
 33 34  1  0
 33 76  1  0
 33 77  1  0
 34 37  1  0
 34 35  1  0
 34 83  1  1
 35 36  1  0
 35 78  1  0
 35 79  1  0
 36 37  1  0
 36 80  1  0
 36 81  1  0
 37 82  1  1
M  CHG  1  34   1
M  END
>  <i_m_ct_stereo_status>  (256) 
1

>  <s_m_source_file>  (256) 
/var/tmp/pbs.5076255.sched01/tmpnszqc94g/84e4epk0lh.sdf

>  <i_m_source_file_index>  (256) 
33

>  <i_lp_mmshare_version>  (256) 
48012

>  <i_f3d_flags>  (256) 
0

>  <s_epik_input>  (256) 
W0NIMl0xW0NIMl1OKFtDSDJdMilbQ0BASF0xW0NASF0oW0NIXT1bQ0gyXSlbQ0BASF0oW0NIMl1bQ0BASF0zW0NIMl00KVtDQEBIXShOKFtDSDJdW0NIMl01KUMoPU8pW0NIM10pW0NAQF01KFtDQEBdMzZbQ0BIXTdbQ0BAXShbQ0BAXTI0OCkoW0NIMl1bQ0gyXTgpT1tDSDNdKVtDQEBIXShPNylOKFtDSDJdW0NIMl02KVtDSDJdW0NIXTlbQ0gyXVtDSDJdOQ==

>  <s_epik_cmdline>  (256) 
J2VwaWtfcHl0aG9uJywgJy1waHQnLCAnMi4wJywgJy1waCcsICc3LjAnLCAnLXRuJywgJzgnLCAnLW1hJywgJzIwMCcsICctaW1hZScsICc8aW5maWxlLm1hZT4nLCAnLW9tYWUnLCAnPG91dGZpbGUubWFlPic=

>  <r_epik_Ionization_Penalty>  (256) 
0.561949

>  <r_epik_Ionization_Penalty_Charging>  (256) 
0.000320152

>  <r_epik_Ionization_Penalty_Neutral>  (256) 
0.561629

>  <r_epik_State_Penalty>  (256) 
0.572833

>  <r_epik_Charging_Adjusted_Penalty>  (256) 
0.573154

>  <i_epik_Tot_Q>  (256) 
1

>  <i_epik_Tot_abs_Q>  (256) 
1

>  <s_epik_Chemistry_Notes>  (256) 
This compound contains an acetal/aminal-like group ( X-CH(R)-Y where X, Y are N, S, or O) that may be acid/base labile, releasing an aldehyde.

>  <s_lp_Force_Field>  (256) 
OPLS3e

>  <r_lp_Energy>  (256) 
169.715

>  <b_lp_Chiralities_Consistent>  (256) 
1

>  <s_lp_Variant>  (256) 
82:0-4

>  <s_i_glide_gridfile>  (256) 
pfpi4k_grid

>  <i_i_glide_lignum>  (256) 
33

>  <i_i_glide_rotatable_bonds>  (256) 
5

>  <r_i_docking_score>  (256) 
-2.10987

>  <r_i_glide_ligand_efficiency>  (256) 
-0.0570235

>  <r_i_glide_ligand_efficiency_sa>  (256) 
-0.190015

>  <r_i_glide_ligand_efficiency_ln>  (256) 
-0.457581

>  <r_i_glide_gscore>  (256) 
-2.10987

>  <r_i_glide_lipo>  (256) 
-0.347848

>  <r_i_glide_hbond>  (256) 
-0.0813452

>  <r_i_glide_metal>  (256) 
-0

>  <r_i_glide_rewards>  (256) 
0

>  <r_i_glide_evdw>  (256) 
-21.2437

>  <r_i_glide_ecoul>  (256) 
-5.55972

>  <r_i_glide_erotb>  (256) 
0.237355

>  <r_i_glide_esite>  (256) 
-0.0218862

>  <r_i_glide_emodel>  (256) 
-29.6366

>  <r_i_glide_energy>  (256) 
-26.8035

>  <r_i_glide_einternal>  (256) 
1.55651

>  <r_i_glide_intrahb_reward>  (256) 
-0

>  <i_i_glide_confnum>  (256) 
2

>  <i_i_glide_posenum>  (256) 
3

>  <r_i_glide_eff_state_penalty>  (256) 
0

>  <ligand_id>  (256) 
82

>  <original_smiles>  (256) 
C=CC1C2CC3CC4(CCC4(OC)C4OC5N(CC6CC6)CCC34C53CCN(C(C)=O)C23)CN2CCC12

>  <smiles>  (256) 
[H]C([H])=C([H])C1([H])C2([H])C([H])([H])C3([H])C([H])([H])C4(C([H])([H])C([H])([H])C4(OC([H])([H])[H])C4([H])OC5([H])N(C([H])([H])C6([H])C([H])([H])C6([H])[H])C([H])([H])C([H])([H])C43C53C([H])([H])C([H])([H])N(C(=O)C([H])([H])[H])C23[H])C([H])([H])[N+]2([H])C([H])([H])C([H])([H])C12[H]

$$$$
82:3:1
     RDKit          3D

 83 91  0  0  1  0  0  0  0  0999 V2000
    3.4598   -1.1697    7.4673 C   0  0  0  0  0  0  0  0  0  0  0  0
    4.1873   -1.5990    6.4180 C   0  0  0  0  0  0  0  0  0  0  0  0
    3.6371   -2.1595    5.1113 C   0  0  2  0  0  0  0  0  0  0  0  0
    4.0526   -3.7079    5.0537 C   0  0  2  0  0  0  0  0  0  0  0  0
    5.3793   -3.8756    4.3318 C   0  0  0  0  0  0  0  0  0  0  0  0
    5.2391   -3.9644    2.8000 C   0  0  2  0  0  0  0  0  0  0  0  0
    5.8822   -2.9030    1.8912 C   0  0  0  0  0  0  0  0  0  0  0  0
    4.9735   -2.3660    0.7772 C   0  0  1  0  0  0  0  0  0  0  0  0
    5.7267   -2.3369   -0.5791 C   0  0  0  0  0  0  0  0  0  0  0  0
    5.2631   -3.7897   -0.8014 C   0  0  0  0  0  0  0  0  0  0  0  0
    4.0364   -3.3955    0.0298 C   0  0  2  0  0  0  0  0  0  0  0  0
    3.1098   -2.6570   -0.7751 O   0  0  0  0  0  0  0  0  0  0  0  0
    2.4103   -3.3667   -1.7955 C   0  0  0  0  0  0  0  0  0  0  0  0
    3.2705   -4.2422    1.0405 C   0  0  1  0  0  0  0  0  0  0  0  0
    2.2111   -5.2083    0.8756 O   0  0  0  0  0  0  0  0  0  0  0  0
    1.9073   -5.7156    2.1829 C   0  0  1  0  0  0  0  0  0  0  0  0
    2.3442   -7.1321    2.2004 N   0  0  0  0  0  0  0  0  0  0  0  0
    1.3712   -8.1685    1.7414 C   0  0  0  0  0  0  0  0  0  0  0  0
    0.4412   -8.6676    2.8345 C   0  0  0  0  0  0  0  0  0  0  0  0
   -1.0039   -8.9626    2.4944 C   0  0  0  0  0  0  0  0  0  0  0  0
   -0.6655   -7.8104    3.4065 C   0  0  0  0  0  0  0  0  0  0  0  0
    3.6611   -7.3266    1.5800 C   0  0  0  0  0  0  0  0  0  0  0  0
    4.6044   -6.2215    2.0561 C   0  0  0  0  0  0  0  0  0  0  0  0
    3.9953   -4.7556    2.2702 C   0  0  1  0  0  0  0  0  0  0  0  0
    2.6950   -4.7527    3.1495 C   0  0  1  0  0  0  0  0  0  0  0  0
    1.5571   -3.6937    3.3129 C   0  0  0  0  0  0  0  0  0  0  0  0
    0.7826   -4.1067    4.5577 C   0  0  0  0  0  0  0  0  0  0  0  0
    1.7866   -4.7141    5.4122 N   0  0  0  0  0  0  0  0  0  0  0  0
    1.5984   -5.0447    6.7072 C   0  0  0  0  0  0  0  0  0  0  0  0
    0.2066   -4.8564    7.3176 C   0  0  0  0  0  0  0  0  0  0  0  0
    2.5102   -5.4876    7.4192 O   0  0  0  0  0  0  0  0  0  0  0  0
    3.0349   -4.8791    4.6578 C   0  0  2  0  0  0  0  0  0  0  0  0
    4.3488   -1.0646    1.3729 C   0  0  0  0  0  0  0  0  0  0  0  0
    3.5040   -1.2385    2.6020 N   0  0  2  0  0  0  0  0  0  0  0  0
    2.6251   -0.0913    2.8601 C   0  0  0  0  0  0  0  0  0  0  0  0
    3.4843    0.2597    4.0557 C   0  0  0  0  0  0  0  0  0  0  0  0
    4.0909   -1.1435    3.9763 C   0  0  1  0  0  0  0  0  0  0  0  0
    2.3760   -1.1851    7.4595 H   0  0  0  0  0  0  0  0  0  0  0  0
    3.9480   -0.7974    8.3631 H   0  0  0  0  0  0  0  0  0  0  0  0
    5.2679   -1.5544    6.5019 H   0  0  0  0  0  0  0  0  0  0  0  0
    2.5637   -2.0779    5.2883 H   0  0  0  0  0  0  0  0  0  0  0  0
    4.2950   -3.9412    6.0961 H   0  0  0  0  0  0  0  0  0  0  0  0
    6.0639   -3.0810    4.6106 H   0  0  0  0  0  0  0  0  0  0  0  0
    5.8400   -4.8016    4.7070 H   0  0  0  0  0  0  0  0  0  0  0  0
    6.0709   -4.6462    2.6879 H   0  0  0  0  0  0  0  0  0  0  0  0
    6.3104   -2.0895    2.4719 H   0  0  0  0  0  0  0  0  0  0  0  0
    6.7815   -3.3440    1.4367 H   0  0  0  0  0  0  0  0  0  0  0  0
    5.2973   -1.6302   -1.2974 H   0  0  0  0  0  0  0  0  0  0  0  0
    6.8074   -2.2260   -0.5108 H   0  0  0  0  0  0  0  0  0  0  0  0
    5.0985   -4.0333   -1.8481 H   0  0  0  0  0  0  0  0  0  0  0  0
    5.8920   -4.5373   -0.3188 H   0  0  0  0  0  0  0  0  0  0  0  0
    1.8110   -2.6580   -2.3693 H   0  0  0  0  0  0  0  0  0  0  0  0
    1.7327   -4.1201   -1.3913 H   0  0  0  0  0  0  0  0  0  0  0  0
    3.0700   -3.8530   -2.5160 H   0  0  0  0  0  0  0  0  0  0  0  0
    2.6775   -3.3870    1.3307 H   0  0  0  0  0  0  0  0  0  0  0  0
    0.8362   -5.7641    2.3548 H   0  0  0  0  0  0  0  0  0  0  0  0
    0.7707   -7.7346    0.9441 H   0  0  0  0  0  0  0  0  0  0  0  0
    1.8883   -9.0314    1.3029 H   0  0  0  0  0  0  0  0  0  0  0  0
    0.9166   -9.3588    3.5216 H   0  0  0  0  0  0  0  0  0  0  0  0
   -1.3432   -8.7271    1.4884 H   0  0  0  0  0  0  0  0  0  0  0  0
   -1.4707   -9.8344    2.9491 H   0  0  0  0  0  0  0  0  0  0  0  0
   -0.8752   -7.9258    4.4675 H   0  0  0  0  0  0  0  0  0  0  0  0
   -0.8401   -6.8196    3.0057 H   0  0  0  0  0  0  0  0  0  0  0  0
    4.0588   -8.3209    1.8051 H   0  0  0  0  0  0  0  0  0  0  0  0
    3.5442   -7.2724    0.4987 H   0  0  0  0  0  0  0  0  0  0  0  0
    5.0058   -6.5741    3.0057 H   0  0  0  0  0  0  0  0  0  0  0  0
    5.4459   -6.2155    1.3567 H   0  0  0  0  0  0  0  0  0  0  0  0
    1.8775   -2.6999    3.4667 H   0  0  0  0  0  0  0  0  0  0  0  0
    0.8723   -3.6028    2.5060 H   0  0  0  0  0  0  0  0  0  0  0  0
    0.2750   -3.2633    5.0193 H   0  0  0  0  0  0  0  0  0  0  0  0
    0.0301   -4.8582    4.3251 H   0  0  0  0  0  0  0  0  0  0  0  0
   -0.5628   -5.3443    6.7174 H   0  0  0  0  0  0  0  0  0  0  0  0
   -0.0379   -3.7981    7.4050 H   0  0  0  0  0  0  0  0  0  0  0  0
    0.1702   -5.2888    8.3128 H   0  0  0  0  0  0  0  0  0  0  0  0
    3.4761   -5.8603    4.8736 H   0  0  0  0  0  0  0  0  0  0  0  0
    5.1163   -0.3038    1.5436 H   0  0  0  0  0  0  0  0  0  0  0  0
    3.7110   -0.6310    0.6072 H   0  0  0  0  0  0  0  0  0  0  0  0
    2.6010    0.7035    2.1091 H   0  0  0  0  0  0  0  0  0  0  0  0
    1.6210   -0.3862    3.1493 H   0  0  0  0  0  0  0  0  0  0  0  0
    4.1978    1.0669    3.8615 H   0  0  0  0  0  0  0  0  0  0  0  0
    2.8894    0.4421    4.9559 H   0  0  0  0  0  0  0  0  0  0  0  0
    5.1737   -1.0076    3.9354 H   0  0  0  0  0  0  0  0  0  0  0  0
    2.9161   -2.0544    2.5089 H   0  0  0  0  0  0  0  0  0  0  0  0
  1  2  2  0
  1 38  1  0
  1 39  1  0
  2  3  1  0
  2 40  1  0
  3 37  1  0
  3  4  1  0
  3 41  1  1
  4 32  1  0
  4  5  1  0
  4 42  1  1
  5  6  1  0
  5 43  1  0
  5 44  1  0
  6 24  1  0
  6  7  1  0
  6 45  1  6
  7  8  1  0
  7 46  1  0
  7 47  1  0
  8 11  1  0
  8  9  1  6
  8 33  1  0
  9 10  1  0
  9 48  1  0
  9 49  1  0
 10 11  1  0
 10 50  1  0
 10 51  1  0
 11 12  1  6
 11 14  1  0
 12 13  1  0
 13 52  1  0
 13 53  1  0
 13 54  1  0
 14 24  1  0
 14 15  1  0
 14 55  1  1
 15 16  1  0
 16 25  1  0
 16 17  1  0
 16 56  1  1
 17 18  1  0
 17 22  1  0
 18 19  1  0
 18 57  1  0
 18 58  1  0
 19 21  1  0
 19 20  1  0
 19 59  1  0
 20 21  1  0
 20 60  1  0
 20 61  1  0
 21 62  1  0
 21 63  1  0
 22 23  1  0
 22 64  1  0
 22 65  1  0
 24 23  1  6
 23 66  1  0
 23 67  1  0
 24 25  1  0
 25 32  1  0
 25 26  1  1
 26 27  1  0
 26 68  1  0
 26 69  1  0
 27 28  1  0
 27 70  1  0
 27 71  1  0
 28 29  1  0
 28 32  1  0
 29 30  1  0
 29 31  2  0
 30 72  1  0
 30 73  1  0
 30 74  1  0
 32 75  1  6
 33 34  1  0
 33 76  1  0
 33 77  1  0
 34 37  1  0
 34 35  1  0
 34 83  1  6
 35 36  1  0
 35 78  1  0
 35 79  1  0
 36 37  1  0
 36 80  1  0
 36 81  1  0
 37 82  1  6
M  CHG  1  34   1
M  END
>  <i_m_ct_stereo_status>  (257) 
1

>  <s_m_source_file>  (257) 
/var/tmp/pbs.5076255.sched01/tmpnszqc94g/84e4epk0lh.sdf

>  <i_m_source_file_index>  (257) 
33

>  <i_lp_mmshare_version>  (257) 
48012

>  <i_f3d_flags>  (257) 
0

>  <s_epik_input>  (257) 
W0NIMl0xW0NIMl1OKFtDSDJdMilbQ0BASF0xW0NASF0oW0NIXT1bQ0gyXSlbQ0BASF0oW0NIMl1bQ0BASF0zW0NIMl00KVtDQEBIXShOKFtDSDJdW0NIMl01KUMoPU8pW0NIM10pW0NAQF01KFtDQEBdMzZbQ0BIXTdbQ0BAXShbQ0BAXTI0OCkoW0NIMl1bQ0gyXTgpT1tDSDNdKVtDQEBIXShPNylOKFtDSDJdW0NIMl02KVtDSDJdW0NIXTlbQ0gyXVtDSDJdOQ==

>  <s_epik_cmdline>  (257) 
J2VwaWtfcHl0aG9uJywgJy1waHQnLCAnMi4wJywgJy1waCcsICc3LjAnLCAnLXRuJywgJzgnLCAnLW1hJywgJzIwMCcsICctaW1hZScsICc8aW5maWxlLm1hZT4nLCAnLW9tYWUnLCAnPG91dGZpbGUubWFlPic=

>  <r_epik_Ionization_Penalty>  (257) 
0.561949

>  <r_epik_Ionization_Penalty_Charging>  (257) 
0.000320152

>  <r_epik_Ionization_Penalty_Neutral>  (257) 
0.561629

>  <r_epik_State_Penalty>  (257) 
0.572833

>  <r_epik_Charging_Adjusted_Penalty>  (257) 
0.573154

>  <i_epik_Tot_Q>  (257) 
1

>  <i_epik_Tot_abs_Q>  (257) 
1

>  <s_epik_Chemistry_Notes>  (257) 
This compound contains an acetal/aminal-like group ( X-CH(R)-Y where X, Y are N, S, or O) that may be acid/base labile, releasing an aldehyde.

>  <s_lp_Force_Field>  (257) 
OPLS3e

>  <r_lp_Energy>  (257) 
169.715

>  <b_lp_Chiralities_Consistent>  (257) 
1

>  <s_lp_Variant>  (257) 
82:0-4

>  <s_i_glide_gridfile>  (257) 
pfpi4k_grid

>  <i_i_glide_lignum>  (257) 
33

>  <i_i_glide_rotatable_bonds>  (257) 
5

>  <r_i_docking_score>  (257) 
-1.98761

>  <r_i_glide_ligand_efficiency>  (257) 
-0.0537191

>  <r_i_glide_ligand_efficiency_sa>  (257) 
-0.179004

>  <r_i_glide_ligand_efficiency_ln>  (257) 
-0.431065

>  <r_i_glide_gscore>  (257) 
-1.98761

>  <r_i_glide_lipo>  (257) 
-0.582662

>  <r_i_glide_hbond>  (257) 
-0.0173036

>  <r_i_glide_metal>  (257) 
-0

>  <r_i_glide_rewards>  (257) 
0

>  <r_i_glide_evdw>  (257) 
-24.0067

>  <r_i_glide_ecoul>  (257) 
-2.62481

>  <r_i_glide_erotb>  (257) 
0.237355

>  <r_i_glide_esite>  (257) 
-0.0309412

>  <r_i_glide_emodel>  (257) 
-29.7506

>  <r_i_glide_energy>  (257) 
-26.6315

>  <r_i_glide_einternal>  (257) 
0.81315

>  <r_i_glide_intrahb_reward>  (257) 
-0

>  <i_i_glide_confnum>  (257) 
2

>  <i_i_glide_posenum>  (257) 
38

>  <r_i_glide_eff_state_penalty>  (257) 
0

>  <ligand_id>  (257) 
82

>  <original_smiles>  (257) 
C=CC1C2CC3CC4(CCC4(OC)C4OC5N(CC6CC6)CCC34C53CCN(C(C)=O)C23)CN2CCC12

>  <smiles>  (257) 
[H]C([H])=C([H])C1([H])C2([H])C([H])([H])C3([H])C([H])([H])C4(C([H])([H])C([H])([H])C4(OC([H])([H])[H])C4([H])OC5([H])N(C([H])([H])C6([H])C([H])([H])C6([H])[H])C([H])([H])C([H])([H])C43C53C([H])([H])C([H])([H])N(C(=O)C([H])([H])[H])C23[H])C([H])([H])[N+]2([H])C([H])([H])C([H])([H])C12[H]

$$$$
82:3:2
     RDKit          3D

 83 91  0  0  1  0  0  0  0  0999 V2000
    3.6293   -0.6805    7.4415 C   0  0  0  0  0  0  0  0  0  0  0  0
    4.3456   -1.2243    6.4378 C   0  0  0  0  0  0  0  0  0  0  0  0
    3.7765   -1.7929    5.1363 C   0  0  2  0  0  0  0  0  0  0  0  0
    4.0440   -3.3677    5.1623 C   0  0  2  0  0  0  0  0  0  0  0  0
    5.3688   -3.7048    4.4881 C   0  0  0  0  0  0  0  0  0  0  0  0
    5.2628   -3.8560    2.9615 C   0  0  2  0  0  0  0  0  0  0  0  0
    6.0295   -2.9034    2.0199 C   0  0  0  0  0  0  0  0  0  0  0  0
    5.2136   -2.3366    0.8536 C   0  0  1  0  0  0  0  0  0  0  0  0
    6.0059   -2.4436   -0.4736 C   0  0  0  0  0  0  0  0  0  0  0  0
    5.4037   -3.8527   -0.6467 C   0  0  0  0  0  0  0  0  0  0  0  0
    4.2002   -3.3041    0.1311 C   0  0  2  0  0  0  0  0  0  0  0  0
    3.3788   -2.5117   -0.7391 O   0  0  0  0  0  0  0  0  0  0  0  0
    2.5937   -3.2177   -1.6999 C   0  0  0  0  0  0  0  0  0  0  0  0
    3.3275   -4.0247    1.1502 C   0  0  1  0  0  0  0  0  0  0  0  0
    2.1901   -4.9050    1.0020 O   0  0  0  0  0  0  0  0  0  0  0  0
    1.7897   -5.3077    2.3268 C   0  0  1  0  0  0  0  0  0  0  0  0
    2.0924   -6.7612    2.4208 N   0  0  0  0  0  0  0  0  0  0  0  0
    1.0318   -7.7086    1.9605 C   0  0  0  0  0  0  0  0  0  0  0  0
    0.0443   -8.0922    3.0364 C   0  0  0  0  0  0  0  0  0  0  0  0
    0.1052   -9.4665    3.6637 C   0  0  0  0  0  0  0  0  0  0  0  0
   -1.0136   -9.1274    2.7099 C   0  0  0  0  0  0  0  0  0  0  0  0
    3.3985   -7.1054    1.8487 C   0  0  0  0  0  0  0  0  0  0  0  0
    4.4291   -6.0720    2.3039 C   0  0  0  0  0  0  0  0  0  0  0  0
    3.9687   -4.5493    2.4336 C   0  0  1  0  0  0  0  0  0  0  0  0
    2.6448   -4.3848    3.2636 C   0  0  1  0  0  0  0  0  0  0  0  0
    1.5990   -3.2091    3.3329 C   0  0  0  0  0  0  0  0  0  0  0  0
    0.7572   -3.4851    4.5726 C   0  0  0  0  0  0  0  0  0  0  0  0
    1.6750   -4.1398    5.4861 N   0  0  0  0  0  0  0  0  0  0  0  0
    1.4214   -4.3860    6.7879 C   0  0  0  0  0  0  0  0  0  0  0  0
    0.0404   -4.0369    7.3414 C   0  0  0  0  0  0  0  0  0  0  0  0
    2.2630   -4.8782    7.5396 O   0  0  0  0  0  0  0  0  0  0  0  0
    2.9220   -4.4587    4.7843 C   0  0  2  0  0  0  0  0  0  0  0  0
    4.6990   -0.9492    1.3746 C   0  0  0  0  0  0  0  0  0  0  0  0
    3.8045   -0.9779    2.5807 N   0  0  2  0  0  0  0  0  0  0  0  0
    3.0400    0.2519    2.7599 C   0  0  0  0  0  0  0  0  0  0  0  0
    3.8867    0.5779    3.9763 C   0  0  0  0  0  0  0  0  0  0  0  0
    4.3595   -0.8816    3.9673 C   0  0  1  0  0  0  0  0  0  0  0  0
    2.5477   -0.5986    7.3971 H   0  0  0  0  0  0  0  0  0  0  0  0
    4.1249   -0.3149    8.3349 H   0  0  0  0  0  0  0  0  0  0  0  0
    5.4212   -1.2768    6.5518 H   0  0  0  0  0  0  0  0  0  0  0  0
    2.7182   -1.6021    5.2684 H   0  0  0  0  0  0  0  0  0  0  0  0
    4.2302   -3.5842    6.2130 H   0  0  0  0  0  0  0  0  0  0  0  0
    6.1358   -2.9826    4.7668 H   0  0  0  0  0  0  0  0  0  0  0  0
    5.7158   -4.6446    4.9184 H   0  0  0  0  0  0  0  0  0  0  0  0
    6.0387   -4.6257    2.9115 H   0  0  0  0  0  0  0  0  0  0  0  0
    6.5222   -2.0959    2.5543 H   0  0  0  0  0  0  0  0  0  0  0  0
    6.8918   -3.4484    1.6196 H   0  0  0  0  0  0  0  0  0  0  0  0
    5.6739   -1.7318   -1.2340 H   0  0  0  0  0  0  0  0  0  0  0  0
    7.0927   -2.4298   -0.3729 H   0  0  0  0  0  0  0  0  0  0  0  0
    5.2300   -4.1258   -1.6848 H   0  0  0  0  0  0  0  0  0  0  0  0
    5.9439   -4.6389   -0.1182 H   0  0  0  0  0  0  0  0  0  0  0  0
    2.0943   -2.4921   -2.3430 H   0  0  0  0  0  0  0  0  0  0  0  0
    1.8184   -3.8256   -1.2345 H   0  0  0  0  0  0  0  0  0  0  0  0
    3.1882   -3.8568   -2.3533 H   0  0  0  0  0  0  0  0  0  0  0  0
    2.8171   -3.1043    1.3784 H   0  0  0  0  0  0  0  0  0  0  0  0
    0.7177   -5.2706    2.4753 H   0  0  0  0  0  0  0  0  0  0  0  0
    0.4865   -7.2547    1.1311 H   0  0  0  0  0  0  0  0  0  0  0  0
    1.4931   -8.6123    1.5643 H   0  0  0  0  0  0  0  0  0  0  0  0
   -0.2862   -7.2713    3.6696 H   0  0  0  0  0  0  0  0  0  0  0  0
    0.8865  -10.1415    3.3146 H   0  0  0  0  0  0  0  0  0  0  0  0
   -0.1541   -9.5613    4.7148 H   0  0  0  0  0  0  0  0  0  0  0  0
   -2.0047   -9.0075    3.1380 H   0  0  0  0  0  0  0  0  0  0  0  0
   -0.9900   -9.5778    1.7184 H   0  0  0  0  0  0  0  0  0  0  0  0
    3.6900   -8.1162    2.1311 H   0  0  0  0  0  0  0  0  0  0  0  0
    3.3169   -7.0907    0.7614 H   0  0  0  0  0  0  0  0  0  0  0  0
    4.7744   -6.4180    3.2801 H   0  0  0  0  0  0  0  0  0  0  0  0
    5.2836   -6.1797    1.6348 H   0  0  0  0  0  0  0  0  0  0  0  0
    2.0237   -2.2399    3.4535 H   0  0  0  0  0  0  0  0  0  0  0  0
    0.9591   -3.0802    2.4790 H   0  0  0  0  0  0  0  0  0  0  0  0
    0.3270   -2.5655    4.9729 H   0  0  0  0  0  0  0  0  0  0  0  0
   -0.0601   -4.1733    4.3426 H   0  0  0  0  0  0  0  0  0  0  0  0
   -0.7546   -4.4783    6.7410 H   0  0  0  0  0  0  0  0  0  0  0  0
   -0.1015   -2.9582    7.3747 H   0  0  0  0  0  0  0  0  0  0  0  0
   -0.0654   -4.4180    8.3555 H   0  0  0  0  0  0  0  0  0  0  0  0
    3.2651   -5.4593    5.0577 H   0  0  0  0  0  0  0  0  0  0  0  0
    5.5371   -0.2636    1.5427 H   0  0  0  0  0  0  0  0  0  0  0  0
    4.1279   -0.4914    0.5625 H   0  0  0  0  0  0  0  0  0  0  0  0
    3.1144    1.0085    1.9738 H   0  0  0  0  0  0  0  0  0  0  0  0
    1.9955    0.0658    3.0240 H   0  0  0  0  0  0  0  0  0  0  0  0
    4.6750    1.3022    3.7757 H   0  0  0  0  0  0  0  0  0  0  0  0
    3.2858    0.8585    4.8485 H   0  0  0  0  0  0  0  0  0  0  0  0
    5.4515   -0.8586    3.9599 H   0  0  0  0  0  0  0  0  0  0  0  0
    3.1467   -1.7513    2.5049 H   0  0  0  0  0  0  0  0  0  0  0  0
  1  2  2  0
  1 38  1  0
  1 39  1  0
  2  3  1  0
  2 40  1  0
  3 37  1  0
  3  4  1  0
  3 41  1  1
  4 32  1  0
  4  5  1  0
  4 42  1  1
  5  6  1  0
  5 43  1  0
  5 44  1  0
  6 24  1  0
  6  7  1  0
  6 45  1  1
  7  8  1  0
  7 46  1  0
  7 47  1  0
  8 11  1  0
  8  9  1  6
  8 33  1  0
  9 10  1  0
  9 48  1  0
  9 49  1  0
 10 11  1  0
 10 50  1  0
 10 51  1  0
 11 12  1  6
 11 14  1  0
 12 13  1  0
 13 52  1  0
 13 53  1  0
 13 54  1  0
 14 24  1  0
 14 15  1  0
 14 55  1  1
 15 16  1  0
 16 25  1  0
 16 17  1  0
 16 56  1  6
 17 18  1  0
 17 22  1  0
 18 19  1  0
 18 57  1  0
 18 58  1  0
 19 21  1  0
 19 20  1  0
 19 59  1  0
 20 21  1  0
 20 60  1  0
 20 61  1  0
 21 62  1  0
 21 63  1  0
 22 23  1  0
 22 64  1  0
 22 65  1  0
 24 23  1  6
 23 66  1  0
 23 67  1  0
 24 25  1  0
 25 32  1  0
 25 26  1  1
 26 27  1  0
 26 68  1  0
 26 69  1  0
 27 28  1  0
 27 70  1  0
 27 71  1  0
 28 29  1  0
 28 32  1  0
 29 30  1  0
 29 31  2  0
 30 72  1  0
 30 73  1  0
 30 74  1  0
 32 75  1  6
 33 34  1  0
 33 76  1  0
 33 77  1  0
 34 37  1  0
 34 35  1  0
 34 83  1  1
 35 36  1  0
 35 78  1  0
 35 79  1  0
 36 37  1  0
 36 80  1  0
 36 81  1  0
 37 82  1  6
M  CHG  1  34   1
M  END
>  <i_m_ct_stereo_status>  (258) 
1

>  <s_m_source_file>  (258) 
/var/tmp/pbs.5076255.sched01/tmpnszqc94g/84e4epk0lh.sdf

>  <i_m_source_file_index>  (258) 
33

>  <i_lp_mmshare_version>  (258) 
48012

>  <i_f3d_flags>  (258) 
0

>  <s_epik_input>  (258) 
W0NIMl0xW0NIMl1OKFtDSDJdMilbQ0BASF0xW0NASF0oW0NIXT1bQ0gyXSlbQ0BASF0oW0NIMl1bQ0BASF0zW0NIMl00KVtDQEBIXShOKFtDSDJdW0NIMl01KUMoPU8pW0NIM10pW0NAQF01KFtDQEBdMzZbQ0BIXTdbQ0BAXShbQ0BAXTI0OCkoW0NIMl1bQ0gyXTgpT1tDSDNdKVtDQEBIXShPNylOKFtDSDJdW0NIMl02KVtDSDJdW0NIXTlbQ0gyXVtDSDJdOQ==

>  <s_epik_cmdline>  (258) 
J2VwaWtfcHl0aG9uJywgJy1waHQnLCAnMi4wJywgJy1waCcsICc3LjAnLCAnLXRuJywgJzgnLCAnLW1hJywgJzIwMCcsICctaW1hZScsICc8aW5maWxlLm1hZT4nLCAnLW9tYWUnLCAnPG91dGZpbGUubWFlPic=

>  <r_epik_Ionization_Penalty>  (258) 
0.561949

>  <r_epik_Ionization_Penalty_Charging>  (258) 
0.000320152

>  <r_epik_Ionization_Penalty_Neutral>  (258) 
0.561629

>  <r_epik_State_Penalty>  (258) 
0.572833

>  <r_epik_Charging_Adjusted_Penalty>  (258) 
0.573154

>  <i_epik_Tot_Q>  (258) 
1

>  <i_epik_Tot_abs_Q>  (258) 
1

>  <s_epik_Chemistry_Notes>  (258) 
This compound contains an acetal/aminal-like group ( X-CH(R)-Y where X, Y are N, S, or O) that may be acid/base labile, releasing an aldehyde.

>  <s_lp_Force_Field>  (258) 
OPLS3e

>  <r_lp_Energy>  (258) 
169.715

>  <b_lp_Chiralities_Consistent>  (258) 
1

>  <s_lp_Variant>  (258) 
82:0-4

>  <s_i_glide_gridfile>  (258) 
pfpi4k_grid

>  <i_i_glide_lignum>  (258) 
33

>  <i_i_glide_rotatable_bonds>  (258) 
5

>  <r_i_docking_score>  (258) 
-1.9765

>  <r_i_glide_ligand_efficiency>  (258) 
-0.0534188

>  <r_i_glide_ligand_efficiency_sa>  (258) 
-0.178003

>  <r_i_glide_ligand_efficiency_ln>  (258) 
-0.428656

>  <r_i_glide_gscore>  (258) 
-1.9765

>  <r_i_glide_lipo>  (258) 
-0.560642

>  <r_i_glide_hbond>  (258) 
-0.0209691

>  <r_i_glide_metal>  (258) 
-0

>  <r_i_glide_rewards>  (258) 
0

>  <r_i_glide_evdw>  (258) 
-23.1486

>  <r_i_glide_ecoul>  (258) 
-2.93967

>  <r_i_glide_erotb>  (258) 
0.237355

>  <r_i_glide_esite>  (258) 
-0.0338588

>  <r_i_glide_emodel>  (258) 
-29.3665

>  <r_i_glide_energy>  (258) 
-26.0883

>  <r_i_glide_einternal>  (258) 
0.833295

>  <r_i_glide_intrahb_reward>  (258) 
-0

>  <i_i_glide_confnum>  (258) 
3

>  <i_i_glide_posenum>  (258) 
25

>  <r_i_glide_eff_state_penalty>  (258) 
0

>  <ligand_id>  (258) 
82

>  <original_smiles>  (258) 
C=CC1C2CC3CC4(CCC4(OC)C4OC5N(CC6CC6)CCC34C53CCN(C(C)=O)C23)CN2CCC12

>  <smiles>  (258) 
[H]C([H])=C([H])C1([H])C2([H])C([H])([H])C3([H])C([H])([H])C4(C([H])([H])C([H])([H])C4(OC([H])([H])[H])C4([H])OC5([H])N(C([H])([H])C6([H])C([H])([H])C6([H])[H])C([H])([H])C([H])([H])C43C53C([H])([H])C([H])([H])N(C(=O)C([H])([H])[H])C23[H])C([H])([H])[N+]2([H])C([H])([H])C([H])([H])C12[H]

$$$$
83:0:0
     RDKit          3D

 79 83  0  0  1  0  0  0  0  0999 V2000
   -1.8859    0.9004    6.8630 C   0  0  0  0  0  0  0  0  0  0  0  0
   -1.2423   -0.3446    6.8529 O   0  0  0  0  0  0  0  0  0  0  0  0
   -0.5327   -0.7118    5.7064 C   0  0  2  0  0  0  0  0  0  0  0  0
   -0.6827   -2.2265    5.4173 C   0  0  0  0  0  0  0  0  0  0  0  0
    0.2145   -2.7371    4.2463 C   0  0  0  0  0  0  0  0  0  0  0  0
    1.7091   -2.3952    4.4547 C   0  0  1  0  0  0  0  0  0  0  0  0
    2.2211   -3.2922    5.6090 C   0  0  0  0  0  0  0  0  0  0  0  0
    2.5647   -2.7465    3.1883 C   0  0  2  0  0  0  0  0  0  0  0  0
    4.0968   -2.8056    3.5131 C   0  0  0  0  0  0  0  0  0  0  0  0
    4.9387   -3.2945    2.3421 C   0  0  0  0  0  0  0  0  0  0  0  0
    4.7077   -2.4102    1.1284 C   0  0  2  0  0  0  0  0  0  0  0  0
    3.2323   -2.3838    0.7922 C   0  0  2  0  0  0  0  0  0  0  0  0
    3.2656   -1.6901   -0.5475 C   0  0  0  0  0  0  0  0  0  0  0  0
    4.5426   -2.1489   -1.2980 C   0  0  1  0  0  0  0  0  0  0  0  0
    4.1709   -3.1019   -2.4864 C   0  0  0  0  0  0  0  0  0  0  0  0
    3.3803   -2.3949   -3.6037 C   0  0  0  0  0  0  0  0  0  0  0  0
    4.1254   -1.1185   -4.0353 C   0  0  1  0  0  0  0  0  0  0  0  0
    3.3088   -0.2937   -5.0281 C   0  0  0  0  0  0  0  0  0  0  0  0
    4.4347   -0.2896   -2.8031 C   0  0  0  0  0  0  0  0  0  0  0  0
    5.2161   -1.0138   -1.8569 O   0  0  0  0  0  0  0  0  0  0  0  0
    5.4236   -2.8263   -0.1831 C   0  0  0  0  0  0  0  0  0  0  0  0
    6.8776   -2.3058   -0.1969 C   0  0  0  0  0  0  0  0  0  0  0  0
    5.4530   -4.3734   -0.3151 C   0  0  0  0  0  0  0  0  0  0  0  0
    2.3143   -1.8490    1.9383 C   0  0  2  0  0  0  0  0  0  0  0  0
    2.4404   -0.3575    2.3064 C   0  0  1  0  0  0  0  0  0  0  0  0
    2.0367    0.5131    1.2831 O   0  0  0  0  0  0  0  0  0  0  0  0
    1.5421   -0.0057    3.4796 C   0  0  0  0  0  0  0  0  0  0  0  0
    1.8450   -0.8492    4.7571 C   0  0  1  0  0  0  0  0  0  0  0  0
    0.9613   -0.3383    5.9599 C   0  0  0  0  0  0  0  0  0  0  0  0
    1.1276    1.2011    6.1052 C   0  0  0  0  0  0  0  0  0  0  0  0
    1.4795   -0.9161    7.3086 C   0  0  0  0  0  0  0  0  0  0  0  0
   -2.4239    0.9899    7.8010 H   0  0  0  0  0  0  0  0  0  0  0  0
   -2.6691    0.8851    6.1107 H   0  0  0  0  0  0  0  0  0  0  0  0
   -1.2054    1.7513    6.7935 H   0  0  0  0  0  0  0  0  0  0  0  0
   -0.9001   -0.2092    4.8093 H   0  0  0  0  0  0  0  0  0  0  0  0
   -0.4306   -2.8198    6.3057 H   0  0  0  0  0  0  0  0  0  0  0  0
   -1.7326   -2.4409    5.2088 H   0  0  0  0  0  0  0  0  0  0  0  0
    0.0849   -3.8209    4.0920 H   0  0  0  0  0  0  0  0  0  0  0  0
   -0.1338   -2.2831    3.3242 H   0  0  0  0  0  0  0  0  0  0  0  0
    3.1130   -2.8879    6.0595 H   0  0  0  0  0  0  0  0  0  0  0  0
    2.5209   -4.2606    5.2016 H   0  0  0  0  0  0  0  0  0  0  0  0
    1.5327   -3.4407    6.4359 H   0  0  0  0  0  0  0  0  0  0  0  0
    2.2644   -3.7439    2.8657 H   0  0  0  0  0  0  0  0  0  0  0  0
    4.4695   -1.8396    3.8594 H   0  0  0  0  0  0  0  0  0  0  0  0
    4.3287   -3.5436    4.2725 H   0  0  0  0  0  0  0  0  0  0  0  0
    5.9967   -3.3143    2.6177 H   0  0  0  0  0  0  0  0  0  0  0  0
    4.6248   -4.3199    2.1349 H   0  0  0  0  0  0  0  0  0  0  0  0
    5.0189   -1.3947    1.3789 H   0  0  0  0  0  0  0  0  0  0  0  0
    2.9074   -3.4079    0.6015 H   0  0  0  0  0  0  0  0  0  0  0  0
    2.4336   -2.0235   -1.1495 H   0  0  0  0  0  0  0  0  0  0  0  0
    3.2669   -0.6151   -0.3529 H   0  0  0  0  0  0  0  0  0  0  0  0
    5.0836   -3.5046   -2.9475 H   0  0  0  0  0  0  0  0  0  0  0  0
    3.6175   -3.9543   -2.0935 H   0  0  0  0  0  0  0  0  0  0  0  0
    3.2561   -3.0613   -4.4544 H   0  0  0  0  0  0  0  0  0  0  0  0
    2.3491   -2.1504   -3.3076 H   0  0  0  0  0  0  0  0  0  0  0  0
    5.0454   -1.3901   -4.5116 H   0  0  0  0  0  0  0  0  0  0  0  0
    2.3309   -0.0215   -4.6325 H   0  0  0  0  0  0  0  0  0  0  0  0
    3.1693   -0.8829   -5.9111 H   0  0  0  0  0  0  0  0  0  0  0  0
    3.7912    0.6210   -5.3340 H   0  0  0  0  0  0  0  0  0  0  0  0
    4.9139    0.6482   -3.0771 H   0  0  0  0  0  0  0  0  0  0  0  0
    3.4423   -0.0575   -2.4120 H   0  0  0  0  0  0  0  0  0  0  0  0
    7.3483   -2.4892   -1.1606 H   0  0  0  0  0  0  0  0  0  0  0  0
    7.4935   -2.7719    0.5703 H   0  0  0  0  0  0  0  0  0  0  0  0
    6.9171   -1.2351   -0.0110 H   0  0  0  0  0  0  0  0  0  0  0  0
    5.8752   -4.6812   -1.2557 H   0  0  0  0  0  0  0  0  0  0  0  0
    4.4434   -4.7819   -0.3241 H   0  0  0  0  0  0  0  0  0  0  0  0
    6.0505   -4.8383    0.4750 H   0  0  0  0  0  0  0  0  0  0  0  0
    1.2900   -1.9653    1.5878 H   0  0  0  0  0  0  0  0  0  0  0  0
    3.4663   -0.0867    2.5526 H   0  0  0  0  0  0  0  0  0  0  0  0
    1.4926    0.0346    0.6448 H   0  0  0  0  0  0  0  0  0  0  0  0
    1.7075    1.0521    3.6621 H   0  0  0  0  0  0  0  0  0  0  0  0
    0.5040   -0.0752    3.1566 H   0  0  0  0  0  0  0  0  0  0  0  0
    2.8973   -0.6380    4.9941 H   0  0  0  0  0  0  0  0  0  0  0  0
    2.1609    1.5130    5.9410 H   0  0  0  0  0  0  0  0  0  0  0  0
    0.7589    1.6034    7.0476 H   0  0  0  0  0  0  0  0  0  0  0  0
    0.5367    1.7492    5.3927 H   0  0  0  0  0  0  0  0  0  0  0  0
    2.5561   -1.0085    7.3418 H   0  0  0  0  0  0  0  0  0  0  0  0
    1.0952   -1.8967    7.5329 H   0  0  0  0  0  0  0  0  0  0  0  0
    1.2389   -0.2579    8.1391 H   0  0  0  0  0  0  0  0  0  0  0  0
  1  2  1  0
  1 32  1  0
  1 33  1  0
  1 34  1  0
  2  3  1  0
  3 29  1  0
  3  4  1  0
  3 35  1  6
  4  5  1  0
  4 36  1  0
  4 37  1  0
  5  6  1  0
  5 38  1  0
  5 39  1  0
  6 28  1  0
  6  7  1  1
  6  8  1  0
  7 40  1  0
  7 41  1  0
  7 42  1  0
  8 24  1  0
  8  9  1  0
  8 43  1  6
  9 10  1  0
  9 44  1  0
  9 45  1  0
 10 11  1  0
 10 46  1  0
 10 47  1  0
 11 21  1  0
 11 12  1  0
 11 48  1  1
 12 13  1  0
 12 24  1  0
 12 49  1  6
 13 14  1  0
 13 50  1  0
 13 51  1  0
 14 20  1  6
 14 15  1  0
 14 21  1  0
 15 16  1  0
 15 52  1  0
 15 53  1  0
 16 17  1  0
 16 54  1  0
 16 55  1  0
 17 18  1  0
 17 19  1  0
 17 56  1  6
 18 57  1  0
 18 58  1  0
 18 59  1  0
 19 20  1  0
 19 60  1  0
 19 61  1  0
 21 22  1  0
 21 23  1  0
 22 62  1  0
 22 63  1  0
 22 64  1  0
 23 65  1  0
 23 66  1  0
 23 67  1  0
 24 25  1  0
 24 68  1  6
 25 26  1  0
 25 27  1  0
 25 69  1  1
 26 70  1  0
 27 28  1  0
 27 71  1  0
 27 72  1  0
 28 29  1  0
 28 73  1  1
 29 30  1  0
 29 31  1  0
 30 74  1  0
 30 75  1  0
 30 76  1  0
 31 77  1  0
 31 78  1  0
 31 79  1  0
M  END
>  <i_m_ct_stereo_status>  (259) 
1

>  <s_m_source_file>  (259) 
/var/tmp/pbs.5076255.sched01/tmpnszqc94g/84e4epk0lh.sdf

>  <i_m_source_file_index>  (259) 
34

>  <i_lp_mmshare_version>  (259) 
48012

>  <i_f3d_flags>  (259) 
0

>  <s_epik_input>  (259) 
W0NIM11PW0NASF0oW0NIMl1bQ0gyXTEpQyhbQ0gzXSkoW0NIM10pW0NASF0oW0NIMl1bQ0BASF0oW0NASF0yMylbT0hdKVtDQF0xKFtDSDNdKVtDQEBIXTJbQ0gyXVtDSDJdW0NAQEhdKEM0KFtDSDNdKVtDSDNdKVtDQEBIXTNbQ0gyXVtDQF00NVtDSDJdW0NIMl1bQ0BASF0oW0NIM10pW0NIMl1PNQ==

>  <s_epik_cmdline>  (259) 
J2VwaWtfcHl0aG9uJywgJy1waHQnLCAnMi4wJywgJy1waCcsICc3LjAnLCAnLXRuJywgJzgnLCAnLW1hJywgJzIwMCcsICctaW1hZScsICc8aW5maWxlLm1hZT4nLCAnLW9tYWUnLCAnPG91dGZpbGUubWFlPic=

>  <r_lp_tautomer_probability>  (259) 
1

>  <r_epik_Ionization_Penalty>  (259) 
2.42663e-06

>  <r_epik_Ionization_Penalty_Charging>  (259) 
0

>  <r_epik_Ionization_Penalty_Neutral>  (259) 
2.42663e-06

>  <r_epik_State_Penalty>  (259) 
-0

>  <r_epik_Charging_Adjusted_Penalty>  (259) 
0

>  <i_epik_Tot_Q>  (259) 
0

>  <i_epik_Tot_abs_Q>  (259) 
0

>  <s_lp_Force_Field>  (259) 
OPLS3e

>  <r_lp_Energy>  (259) 
71.6921

>  <b_lp_Chiralities_Consistent>  (259) 
1

>  <s_lp_Variant>  (259) 
83:0-1

>  <s_i_glide_gridfile>  (259) 
pfpi4k_grid

>  <i_i_glide_lignum>  (259) 
34

>  <i_i_glide_rotatable_bonds>  (259) 
2

>  <r_i_docking_score>  (259) 
-3.17016

>  <r_i_glide_ligand_efficiency>  (259) 
-0.102263

>  <r_i_glide_ligand_efficiency_sa>  (259) 
-0.321247

>  <r_i_glide_ligand_efficiency_ln>  (259) 
-0.714967

>  <r_i_glide_gscore>  (259) 
-3.17016

>  <r_i_glide_lipo>  (259) 
-0.774705

>  <r_i_glide_hbond>  (259) 
-0.263671

>  <r_i_glide_metal>  (259) 
-0

>  <r_i_glide_rewards>  (259) 
-0.459007

>  <r_i_glide_evdw>  (259) 
-12.2262

>  <r_i_glide_ecoul>  (259) 
-7.07641

>  <r_i_glide_erotb>  (259) 
0

>  <r_i_glide_esite>  (259) 
0

>  <r_i_glide_emodel>  (259) 
-18.3598

>  <r_i_glide_energy>  (259) 
-19.3026

>  <r_i_glide_einternal>  (259) 
3.77123

>  <r_i_glide_intrahb_reward>  (259) 
-0

>  <i_i_glide_confnum>  (259) 
1

>  <i_i_glide_posenum>  (259) 
6

>  <r_i_glide_eff_state_penalty>  (259) 
0

>  <ligand_id>  (259) 
83

>  <original_smiles>  (259) 
COC1CCC2(C)C3CCC4C(CC5(CCC(C)CO5)C4(C)C)C3C(O)CC2C1(C)C

>  <smiles>  (259) 
[H]OC1([H])C([H])([H])C2([H])C(C([H])([H])[H])(C([H])([H])[H])C([H])(OC([H])([H])[H])C([H])([H])C([H])([H])C2(C([H])([H])[H])C2([H])C([H])([H])C([H])([H])C3([H])C([H])(C([H])([H])C4(OC([H])([H])C([H])(C([H])([H])[H])C([H])([H])C4([H])[H])C3(C([H])([H])[H])C([H])([H])[H])C12[H]

$$$$
83:0:1
     RDKit          3D

 79 83  0  0  1  0  0  0  0  0999 V2000
    4.1064   -0.0121   -3.4359 C   0  0  0  0  0  0  0  0  0  0  0  0
    4.9515   -0.2591   -2.3148 O   0  0  0  0  0  0  0  0  0  0  0  0
    4.4787   -1.1836   -1.3709 C   0  0  2  0  0  0  0  0  0  0  0  0
    4.4733   -0.5334    0.0350 C   0  0  0  0  0  0  0  0  0  0  0  0
    4.0895   -1.5469    1.1206 C   0  0  0  0  0  0  0  0  0  0  0  0
    5.0257   -2.7781    1.1080 C   0  0  1  0  0  0  0  0  0  0  0  0
    6.4299   -2.2760    1.5110 C   0  0  0  0  0  0  0  0  0  0  0  0
    4.5872   -3.8561    2.1653 C   0  0  2  0  0  0  0  0  0  0  0  0
    5.7234   -4.8850    2.4826 C   0  0  0  0  0  0  0  0  0  0  0  0
    5.3550   -5.8516    3.5975 C   0  0  0  0  0  0  0  0  0  0  0  0
    4.0747   -6.5984    3.2365 C   0  0  2  0  0  0  0  0  0  0  0  0
    2.9520   -5.6037    2.9585 C   0  0  2  0  0  0  0  0  0  0  0  0
    1.7414   -6.5096    2.8477 C   0  0  0  0  0  0  0  0  0  0  0  0
    1.9732   -7.6212    3.9089 C   0  0  1  0  0  0  0  0  0  0  0  0
    1.0503   -7.4566    5.1405 C   0  0  0  0  0  0  0  0  0  0  0  0
   -0.4152   -7.6342    4.7780 C   0  0  0  0  0  0  0  0  0  0  0  0
   -0.5984   -8.9582    4.0310 C   0  0  1  0  0  0  0  0  0  0  0  0
   -2.0314   -9.1154    3.5397 C   0  0  0  0  0  0  0  0  0  0  0  0
    0.3619   -9.0978    2.8402 C   0  0  0  0  0  0  0  0  0  0  0  0
    1.7057   -8.8856    3.2846 O   0  0  0  0  0  0  0  0  0  0  0  0
    3.4931   -7.5512    4.2988 C   0  0  0  0  0  0  0  0  0  0  0  0
    4.2055   -8.9202    4.2453 C   0  0  0  0  0  0  0  0  0  0  0  0
    3.7131   -6.9788    5.7227 C   0  0  0  0  0  0  0  0  0  0  0  0
    3.2593   -4.5944    1.8244 C   0  0  2  0  0  0  0  0  0  0  0  0
    3.3113   -5.1976    0.4144 C   0  0  1  0  0  0  0  0  0  0  0  0
    2.0612   -5.6969    0.0134 O   0  0  0  0  0  0  0  0  0  0  0  0
    3.6909   -4.1245   -0.5953 C   0  0  0  0  0  0  0  0  0  0  0  0
    5.0275   -3.4245   -0.3149 C   0  0  1  0  0  0  0  0  0  0  0  0
    5.3935   -2.4322   -1.4494 C   0  0  0  0  0  0  0  0  0  0  0  0
    5.2737   -3.0854   -2.8412 C   0  0  0  0  0  0  0  0  0  0  0  0
    6.8787   -2.0584   -1.3477 C   0  0  0  0  0  0  0  0  0  0  0  0
    4.5605    0.7101   -4.1068 H   0  0  0  0  0  0  0  0  0  0  0  0
    3.1733    0.4234   -3.1197 H   0  0  0  0  0  0  0  0  0  0  0  0
    3.8812   -0.9030   -4.0124 H   0  0  0  0  0  0  0  0  0  0  0  0
    3.4551   -1.4577   -1.6158 H   0  0  0  0  0  0  0  0  0  0  0  0
    5.4403   -0.0987    0.2437 H   0  0  0  0  0  0  0  0  0  0  0  0
    3.7767    0.2921    0.0932 H   0  0  0  0  0  0  0  0  0  0  0  0
    4.1077   -1.0578    2.0943 H   0  0  0  0  0  0  0  0  0  0  0  0
    3.0526   -1.8343    0.9689 H   0  0  0  0  0  0  0  0  0  0  0  0
    7.1993   -2.9829    1.1950 H   0  0  0  0  0  0  0  0  0  0  0  0
    6.4711   -2.2524    2.5787 H   0  0  0  0  0  0  0  0  0  0  0  0
    6.7294   -1.3240    1.1386 H   0  0  0  0  0  0  0  0  0  0  0  0
    4.3670   -3.3206    3.0893 H   0  0  0  0  0  0  0  0  0  0  0  0
    6.0237   -5.4368    1.5877 H   0  0  0  0  0  0  0  0  0  0  0  0
    6.6079   -4.4025    2.8686 H   0  0  0  0  0  0  0  0  0  0  0  0
    6.1805   -6.5436    3.7761 H   0  0  0  0  0  0  0  0  0  0  0  0
    5.2207   -5.2591    4.5013 H   0  0  0  0  0  0  0  0  0  0  0  0
    4.2671   -7.1730    2.3247 H   0  0  0  0  0  0  0  0  0  0  0  0
    2.8173   -4.9970    3.8531 H   0  0  0  0  0  0  0  0  0  0  0  0
    0.8212   -5.9410    2.9968 H   0  0  0  0  0  0  0  0  0  0  0  0
    1.7258   -6.9782    1.8603 H   0  0  0  0  0  0  0  0  0  0  0  0
    1.2938   -8.2192    5.8859 H   0  0  0  0  0  0  0  0  0  0  0  0
    1.2300   -6.4875    5.6029 H   0  0  0  0  0  0  0  0  0  0  0  0
   -0.9926   -7.6342    5.7047 H   0  0  0  0  0  0  0  0  0  0  0  0
   -0.7852   -6.8100    4.1594 H   0  0  0  0  0  0  0  0  0  0  0  0
   -0.3928   -9.7826    4.7226 H   0  0  0  0  0  0  0  0  0  0  0  0
   -2.3088   -8.2575    2.8839 H   0  0  0  0  0  0  0  0  0  0  0  0
   -2.6893   -9.0604    4.4064 H   0  0  0  0  0  0  0  0  0  0  0  0
   -2.1819   -9.9999    2.9734 H   0  0  0  0  0  0  0  0  0  0  0  0
    0.2751  -10.1004    2.4081 H   0  0  0  0  0  0  0  0  0  0  0  0
    0.0669   -8.4042    2.0415 H   0  0  0  0  0  0  0  0  0  0  0  0
    3.7416   -9.6312    4.9281 H   0  0  0  0  0  0  0  0  0  0  0  0
    5.2572   -8.8498    4.5195 H   0  0  0  0  0  0  0  0  0  0  0  0
    4.1779   -9.3687    3.2516 H   0  0  0  0  0  0  0  0  0  0  0  0
    3.3106   -7.6359    6.4910 H   0  0  0  0  0  0  0  0  0  0  0  0
    3.1836   -6.0334    5.8410 H   0  0  0  0  0  0  0  0  0  0  0  0
    4.7674   -6.8498    5.9655 H   0  0  0  0  0  0  0  0  0  0  0  0
    2.4297   -3.8854    1.8038 H   0  0  0  0  0  0  0  0  0  0  0  0
    4.0210   -6.0101    0.3529 H   0  0  0  0  0  0  0  0  0  0  0  0
    2.2028   -6.1037   -0.8312 H   0  0  0  0  0  0  0  0  0  0  0  0
    3.8236   -4.6178   -1.5452 H   0  0  0  0  0  0  0  0  0  0  0  0
    2.8571   -3.4406   -0.7342 H   0  0  0  0  0  0  0  0  0  0  0  0
    5.7751   -4.2226   -0.3303 H   0  0  0  0  0  0  0  0  0  0  0  0
    5.7470   -4.0608   -2.8801 H   0  0  0  0  0  0  0  0  0  0  0  0
    5.7738   -2.4974   -3.5950 H   0  0  0  0  0  0  0  0  0  0  0  0
    4.2460   -3.1947   -3.1784 H   0  0  0  0  0  0  0  0  0  0  0  0
    7.5016   -2.8467   -0.9333 H   0  0  0  0  0  0  0  0  0  0  0  0
    6.9850   -1.2229   -0.7095 H   0  0  0  0  0  0  0  0  0  0  0  0
    7.3400   -1.8823   -2.3050 H   0  0  0  0  0  0  0  0  0  0  0  0
  1  2  1  0
  1 32  1  0
  1 33  1  0
  1 34  1  0
  2  3  1  0
  3 29  1  0
  3  4  1  0
  3 35  1  6
  4  5  1  0
  4 36  1  0
  4 37  1  0
  5  6  1  0
  5 38  1  0
  5 39  1  0
  6 28  1  0
  6  7  1  1
  6  8  1  0
  7 40  1  0
  7 41  1  0
  7 42  1  0
  8 24  1  0
  8  9  1  0
  8 43  1  1
  9 10  1  0
  9 44  1  0
  9 45  1  0
 10 11  1  0
 10 46  1  0
 10 47  1  0
 11 21  1  0
 11 12  1  0
 11 48  1  6
 12 13  1  0
 12 24  1  0
 12 49  1  1
 13 14  1  0
 13 50  1  0
 13 51  1  0
 14 20  1  6
 14 15  1  0
 14 21  1  0
 15 16  1  0
 15 52  1  0
 15 53  1  0
 16 17  1  0
 16 54  1  0
 16 55  1  0
 17 18  1  0
 17 19  1  0
 17 56  1  1
 18 57  1  0
 18 58  1  0
 18 59  1  0
 19 20  1  0
 19 60  1  0
 19 61  1  0
 21 22  1  0
 21 23  1  0
 22 62  1  0
 22 63  1  0
 22 64  1  0
 23 65  1  0
 23 66  1  0
 23 67  1  0
 24 25  1  0
 24 68  1  6
 25 26  1  0
 25 27  1  0
 25 69  1  1
 26 70  1  0
 27 28  1  0
 27 71  1  0
 27 72  1  0
 28 29  1  0
 28 73  1  1
 29 30  1  0
 29 31  1  0
 30 74  1  0
 30 75  1  0
 30 76  1  0
 31 77  1  0
 31 78  1  0
 31 79  1  0
M  END
>  <i_m_ct_stereo_status>  (260) 
1

>  <s_m_source_file>  (260) 
/var/tmp/pbs.5076255.sched01/tmpnszqc94g/84e4epk0lh.sdf

>  <i_m_source_file_index>  (260) 
34

>  <i_lp_mmshare_version>  (260) 
48012

>  <i_f3d_flags>  (260) 
0

>  <s_epik_input>  (260) 
W0NIM11PW0NASF0oW0NIMl1bQ0gyXTEpQyhbQ0gzXSkoW0NIM10pW0NASF0oW0NIMl1bQ0BASF0oW0NASF0yMylbT0hdKVtDQF0xKFtDSDNdKVtDQEBIXTJbQ0gyXVtDSDJdW0NAQEhdKEM0KFtDSDNdKVtDSDNdKVtDQEBIXTNbQ0gyXVtDQF00NVtDSDJdW0NIMl1bQ0BASF0oW0NIM10pW0NIMl1PNQ==

>  <s_epik_cmdline>  (260) 
J2VwaWtfcHl0aG9uJywgJy1waHQnLCAnMi4wJywgJy1waCcsICc3LjAnLCAnLXRuJywgJzgnLCAnLW1hJywgJzIwMCcsICctaW1hZScsICc8aW5maWxlLm1hZT4nLCAnLW9tYWUnLCAnPG91dGZpbGUubWFlPic=

>  <r_lp_tautomer_probability>  (260) 
1

>  <r_epik_Ionization_Penalty>  (260) 
2.42663e-06

>  <r_epik_Ionization_Penalty_Charging>  (260) 
0

>  <r_epik_Ionization_Penalty_Neutral>  (260) 
2.42663e-06

>  <r_epik_State_Penalty>  (260) 
-0

>  <r_epik_Charging_Adjusted_Penalty>  (260) 
0

>  <i_epik_Tot_Q>  (260) 
0

>  <i_epik_Tot_abs_Q>  (260) 
0

>  <s_lp_Force_Field>  (260) 
OPLS3e

>  <r_lp_Energy>  (260) 
71.6921

>  <b_lp_Chiralities_Consistent>  (260) 
1

>  <s_lp_Variant>  (260) 
83:0-1

>  <s_i_glide_gridfile>  (260) 
pfpi4k_grid

>  <i_i_glide_lignum>  (260) 
34

>  <i_i_glide_rotatable_bonds>  (260) 
2

>  <r_i_docking_score>  (260) 
-2.52803

>  <r_i_glide_ligand_efficiency>  (260) 
-0.0815495

>  <r_i_glide_ligand_efficiency_sa>  (260) 
-0.256178

>  <r_i_glide_ligand_efficiency_ln>  (260) 
-0.570149

>  <r_i_glide_gscore>  (260) 
-2.52803

>  <r_i_glide_lipo>  (260) 
-0.536496

>  <r_i_glide_hbond>  (260) 
-0.32

>  <r_i_glide_metal>  (260) 
-0

>  <r_i_glide_rewards>  (260) 
-0.459007

>  <r_i_glide_evdw>  (260) 
-14.1921

>  <r_i_glide_ecoul>  (260) 
-3.35283

>  <r_i_glide_erotb>  (260) 
0

>  <r_i_glide_esite>  (260) 
0

>  <r_i_glide_emodel>  (260) 
-16.991

>  <r_i_glide_energy>  (260) 
-17.5449

>  <r_i_glide_einternal>  (260) 
1.89841

>  <r_i_glide_intrahb_reward>  (260) 
-0

>  <i_i_glide_confnum>  (260) 
2

>  <i_i_glide_posenum>  (260) 
15

>  <r_i_glide_eff_state_penalty>  (260) 
0

>  <ligand_id>  (260) 
83

>  <original_smiles>  (260) 
COC1CCC2(C)C3CCC4C(CC5(CCC(C)CO5)C4(C)C)C3C(O)CC2C1(C)C

>  <smiles>  (260) 
[H]OC1([H])C([H])([H])C2([H])C(C([H])([H])[H])(C([H])([H])[H])C([H])(OC([H])([H])[H])C([H])([H])C([H])([H])C2(C([H])([H])[H])C2([H])C([H])([H])C([H])([H])C3([H])C([H])(C([H])([H])C4(OC([H])([H])C([H])(C([H])([H])[H])C([H])([H])C4([H])[H])C3(C([H])([H])[H])C([H])([H])[H])C12[H]

$$$$
83:0:2
     RDKit          3D

 79 83  0  0  1  0  0  0  0  0999 V2000
    3.2698    3.0107    4.5305 C   0  0  0  0  0  0  0  0  0  0  0  0
    4.2204    2.0229    4.8879 O   0  0  0  0  0  0  0  0  0  0  0  0
    3.7254    0.6980    4.9824 C   0  0  2  0  0  0  0  0  0  0  0  0
    2.9908    0.5009    6.3274 C   0  0  0  0  0  0  0  0  0  0  0  0
    2.5441   -0.9604    6.5383 C   0  0  0  0  0  0  0  0  0  0  0  0
    3.7226   -1.9615    6.4072 C   0  0  1  0  0  0  0  0  0  0  0  0
    4.6811   -1.6722    7.6034 C   0  0  0  0  0  0  0  0  0  0  0  0
    3.2467   -3.4469    6.5557 C   0  0  2  0  0  0  0  0  0  0  0  0
    4.4103   -4.4264    6.9084 C   0  0  0  0  0  0  0  0  0  0  0  0
    3.9362   -5.8539    7.1630 C   0  0  0  0  0  0  0  0  0  0  0  0
    3.1582   -6.3692    5.9669 C   0  0  2  0  0  0  0  0  0  0  0  0
    1.9992   -5.4350    5.6598 C   0  0  2  0  0  0  0  0  0  0  0  0
    1.2116   -6.2201    4.6218 C   0  0  0  0  0  0  0  0  0  0  0  0
    1.3438   -7.7097    5.0514 C   0  0  1  0  0  0  0  0  0  0  0  0
    0.0253   -8.2614    5.6320 C   0  0  0  0  0  0  0  0  0  0  0  0
   -1.1024   -8.2843    4.6105 C   0  0  0  0  0  0  0  0  0  0  0  0
   -0.6317   -9.0717    3.3725 C   0  0  1  0  0  0  0  0  0  0  0  0
   -1.7027   -9.0072    2.2904 C   0  0  0  0  0  0  0  0  0  0  0  0
    0.6967   -8.5139    2.8425 C   0  0  0  0  0  0  0  0  0  0  0  0
    1.6779   -8.4858    3.8950 O   0  0  0  0  0  0  0  0  0  0  0  0
    2.5140   -7.7623    6.0950 C   0  0  0  0  0  0  0  0  0  0  0  0
    3.5398   -8.8751    5.7892 C   0  0  0  0  0  0  0  0  0  0  0  0
    2.0080   -8.0002    7.5422 C   0  0  0  0  0  0  0  0  0  0  0  0
    2.4171   -3.9700    5.3403 C   0  0  2  0  0  0  0  0  0  0  0  0
    3.1749   -3.7476    4.0112 C   0  0  1  0  0  0  0  0  0  0  0  0
    2.3757   -4.0605    2.8762 O   0  0  0  0  0  0  0  0  0  0  0  0
    3.5897   -2.2843    3.8545 C   0  0  0  0  0  0  0  0  0  0  0  0
    4.4477   -1.7521    5.0317 C   0  0  1  0  0  0  0  0  0  0  0  0
    4.9153   -0.2814    4.7984 C   0  0  0  0  0  0  0  0  0  0  0  0
    5.5087   -0.1280    3.3759 C   0  0  0  0  0  0  0  0  0  0  0  0
    6.0663    0.0835    5.7678 C   0  0  0  0  0  0  0  0  0  0  0  0
    3.7821    3.9696    4.4178 H   0  0  0  0  0  0  0  0  0  0  0  0
    2.5067    3.1291    5.2992 H   0  0  0  0  0  0  0  0  0  0  0  0
    2.7950    2.7690    3.5816 H   0  0  0  0  0  0  0  0  0  0  0  0
    3.0118    0.5309    4.1759 H   0  0  0  0  0  0  0  0  0  0  0  0
    3.6473    0.8029    7.1445 H   0  0  0  0  0  0  0  0  0  0  0  0
    2.1012    1.1520    6.3829 H   0  0  0  0  0  0  0  0  0  0  0  0
    2.0671   -1.0579    7.5095 H   0  0  0  0  0  0  0  0  0  0  0  0
    1.7678   -1.1889    5.8122 H   0  0  0  0  0  0  0  0  0  0  0  0
    5.6778   -2.0827    7.4139 H   0  0  0  0  0  0  0  0  0  0  0  0
    4.3241   -2.1950    8.5278 H   0  0  0  0  0  0  0  0  0  0  0  0
    4.8207   -0.6310    7.8632 H   0  0  0  0  0  0  0  0  0  0  0  0
    2.5574   -3.4705    7.4001 H   0  0  0  0  0  0  0  0  0  0  0  0
    5.1773   -4.4229    6.1276 H   0  0  0  0  0  0  0  0  0  0  0  0
    4.9065   -4.1740    7.8388 H   0  0  0  0  0  0  0  0  0  0  0  0
    4.7960   -6.4936    7.3870 H   0  0  0  0  0  0  0  0  0  0  0  0
    3.3197   -5.8166    8.0611 H   0  0  0  0  0  0  0  0  0  0  0  0
    3.8300   -6.3827    5.1033 H   0  0  0  0  0  0  0  0  0  0  0  0
    1.3685   -5.3772    6.5414 H   0  0  0  0  0  0  0  0  0  0  0  0
    0.1907   -5.8531    4.5511 H   0  0  0  0  0  0  0  0  0  0  0  0
    1.6935   -6.1029    3.6454 H   0  0  0  0  0  0  0  0  0  0  0  0
    0.1604   -9.2739    5.9967 H   0  0  0  0  0  0  0  0  0  0  0  0
   -0.2216   -7.6327    6.4997 H   0  0  0  0  0  0  0  0  0  0  0  0
   -1.9786   -8.7686    5.0416 H   0  0  0  0  0  0  0  0  0  0  0  0
   -1.4264   -7.2790    4.3239 H   0  0  0  0  0  0  0  0  0  0  0  0
   -0.4858  -10.1138    3.6582 H   0  0  0  0  0  0  0  0  0  0  0  0
   -1.8788   -7.9764    1.9858 H   0  0  0  0  0  0  0  0  0  0  0  0
   -2.6389   -9.4149    2.6604 H   0  0  0  0  0  0  0  0  0  0  0  0
   -1.4049   -9.5774    1.4123 H   0  0  0  0  0  0  0  0  0  0  0  0
    1.0747   -9.1482    2.0358 H   0  0  0  0  0  0  0  0  0  0  0  0
    0.5477   -7.5302    2.4040 H   0  0  0  0  0  0  0  0  0  0  0  0
    3.0697   -9.8564    5.7992 H   0  0  0  0  0  0  0  0  0  0  0  0
    4.3471   -8.8969    6.5314 H   0  0  0  0  0  0  0  0  0  0  0  0
    4.0136   -8.7486    4.8191 H   0  0  0  0  0  0  0  0  0  0  0  0
    1.5575   -8.9829    7.6734 H   0  0  0  0  0  0  0  0  0  0  0  0
    1.2467   -7.2700    7.8224 H   0  0  0  0  0  0  0  0  0  0  0  0
    2.8181   -7.9542    8.2936 H   0  0  0  0  0  0  0  0  0  0  0  0
    1.4921   -3.3969    5.2601 H   0  0  0  0  0  0  0  0  0  0  0  0
    4.0596   -4.3903    3.9695 H   0  0  0  0  0  0  0  0  0  0  0  0
    2.9361   -4.0273    2.1073 H   0  0  0  0  0  0  0  0  0  0  0  0
    4.1295   -2.2349    2.9133 H   0  0  0  0  0  0  0  0  0  0  0  0
    2.6821   -1.6928    3.7088 H   0  0  0  0  0  0  0  0  0  0  0  0
    5.3346   -2.3816    5.0239 H   0  0  0  0  0  0  0  0  0  0  0  0
    6.2088   -0.9326    3.1438 H   0  0  0  0  0  0  0  0  0  0  0  0
    6.0805    0.8034    3.2663 H   0  0  0  0  0  0  0  0  0  0  0  0
    4.7539   -0.1066    2.5990 H   0  0  0  0  0  0  0  0  0  0  0  0
    6.7143   -0.7687    5.9787 H   0  0  0  0  0  0  0  0  0  0  0  0
    5.7226    0.4515    6.7134 H   0  0  0  0  0  0  0  0  0  0  0  0
    6.7534    0.8714    5.3471 H   0  0  0  0  0  0  0  0  0  0  0  0
  1  2  1  0
  1 32  1  0
  1 33  1  0
  1 34  1  0
  2  3  1  0
  3 29  1  0
  3  4  1  0
  3 35  1  6
  4  5  1  0
  4 36  1  0
  4 37  1  0
  5  6  1  0
  5 38  1  0
  5 39  1  0
  6 28  1  0
  6  7  1  1
  6  8  1  0
  7 40  1  0
  7 41  1  0
  7 42  1  0
  8 24  1  0
  8  9  1  0
  8 43  1  1
  9 10  1  0
  9 44  1  0
  9 45  1  0
 10 11  1  0
 10 46  1  0
 10 47  1  0
 11 21  1  0
 11 12  1  0
 11 48  1  6
 12 13  1  0
 12 24  1  0
 12 49  1  1
 13 14  1  0
 13 50  1  0
 13 51  1  0
 14 20  1  6
 14 15  1  0
 14 21  1  0
 15 16  1  0
 15 52  1  0
 15 53  1  0
 16 17  1  0
 16 54  1  0
 16 55  1  0
 17 18  1  0
 17 19  1  0
 17 56  1  1
 18 57  1  0
 18 58  1  0
 18 59  1  0
 19 20  1  0
 19 60  1  0
 19 61  1  0
 21 22  1  0
 21 23  1  0
 22 62  1  0
 22 63  1  0
 22 64  1  0
 23 65  1  0
 23 66  1  0
 23 67  1  0
 24 25  1  0
 24 68  1  6
 25 26  1  0
 25 27  1  0
 25 69  1  1
 26 70  1  0
 27 28  1  0
 27 71  1  0
 27 72  1  0
 28 29  1  0
 28 73  1  1
 29 30  1  0
 29 31  1  0
 30 74  1  0
 30 75  1  0
 30 76  1  0
 31 77  1  0
 31 78  1  0
 31 79  1  0
M  END
>  <i_m_ct_stereo_status>  (261) 
1

>  <s_m_source_file>  (261) 
/var/tmp/pbs.5076255.sched01/tmpnszqc94g/84e4epk0lh.sdf

>  <i_m_source_file_index>  (261) 
34

>  <i_lp_mmshare_version>  (261) 
48012

>  <i_f3d_flags>  (261) 
0

>  <s_epik_input>  (261) 
W0NIM11PW0NASF0oW0NIMl1bQ0gyXTEpQyhbQ0gzXSkoW0NIM10pW0NASF0oW0NIMl1bQ0BASF0oW0NASF0yMylbT0hdKVtDQF0xKFtDSDNdKVtDQEBIXTJbQ0gyXVtDSDJdW0NAQEhdKEM0KFtDSDNdKVtDSDNdKVtDQEBIXTNbQ0gyXVtDQF00NVtDSDJdW0NIMl1bQ0BASF0oW0NIM10pW0NIMl1PNQ==

>  <s_epik_cmdline>  (261) 
J2VwaWtfcHl0aG9uJywgJy1waHQnLCAnMi4wJywgJy1waCcsICc3LjAnLCAnLXRuJywgJzgnLCAnLW1hJywgJzIwMCcsICctaW1hZScsICc8aW5maWxlLm1hZT4nLCAnLW9tYWUnLCAnPG91dGZpbGUubWFlPic=

>  <r_lp_tautomer_probability>  (261) 
1

>  <r_epik_Ionization_Penalty>  (261) 
2.42663e-06

>  <r_epik_Ionization_Penalty_Charging>  (261) 
0

>  <r_epik_Ionization_Penalty_Neutral>  (261) 
2.42663e-06

>  <r_epik_State_Penalty>  (261) 
-0

>  <r_epik_Charging_Adjusted_Penalty>  (261) 
0

>  <i_epik_Tot_Q>  (261) 
0

>  <i_epik_Tot_abs_Q>  (261) 
0

>  <s_lp_Force_Field>  (261) 
OPLS3e

>  <r_lp_Energy>  (261) 
71.6921

>  <b_lp_Chiralities_Consistent>  (261) 
1

>  <s_lp_Variant>  (261) 
83:0-1

>  <s_i_glide_gridfile>  (261) 
pfpi4k_grid

>  <i_i_glide_lignum>  (261) 
34

>  <i_i_glide_rotatable_bonds>  (261) 
2

>  <r_i_docking_score>  (261) 
-1.67358

>  <r_i_glide_ligand_efficiency>  (261) 
-0.0539865

>  <r_i_glide_ligand_efficiency_sa>  (261) 
-0.169592

>  <r_i_glide_ligand_efficiency_ln>  (261) 
-0.377444

>  <r_i_glide_gscore>  (261) 
-1.67358

>  <r_i_glide_lipo>  (261) 
-0.516158

>  <r_i_glide_hbond>  (261) 
0

>  <r_i_glide_metal>  (261) 
-0

>  <r_i_glide_rewards>  (261) 
-0.459007

>  <r_i_glide_evdw>  (261) 
-15.9072

>  <r_i_glide_ecoul>  (261) 
0.646305

>  <r_i_glide_erotb>  (261) 
0

>  <r_i_glide_esite>  (261) 
0

>  <r_i_glide_emodel>  (261) 
-14.699

>  <r_i_glide_energy>  (261) 
-15.2609

>  <r_i_glide_einternal>  (261) 
0.427681

>  <r_i_glide_intrahb_reward>  (261) 
-0

>  <i_i_glide_confnum>  (261) 
2

>  <i_i_glide_posenum>  (261) 
27

>  <r_i_glide_eff_state_penalty>  (261) 
0

>  <ligand_id>  (261) 
83

>  <original_smiles>  (261) 
COC1CCC2(C)C3CCC4C(CC5(CCC(C)CO5)C4(C)C)C3C(O)CC2C1(C)C

>  <smiles>  (261) 
[H]OC1([H])C([H])([H])C2([H])C(C([H])([H])[H])(C([H])([H])[H])C([H])(OC([H])([H])[H])C([H])([H])C([H])([H])C2(C([H])([H])[H])C2([H])C([H])([H])C([H])([H])C3([H])C([H])(C([H])([H])C4(OC([H])([H])C([H])(C([H])([H])[H])C([H])([H])C4([H])[H])C3(C([H])([H])[H])C([H])([H])[H])C12[H]

$$$$
84:0:0
     RDKit          3D

 53 58  0  0  1  0  0  0  0  0999 V2000
    2.7297   -3.3923    2.5026 C   0  0  0  0  0  0  0  0  0  0  0  0
    3.8735   -3.5979    1.4879 C   0  0  2  0  0  0  0  0  0  0  0  0
    4.6628   -2.3069    1.1976 C   0  0  1  0  0  0  0  0  0  0  0  0
    6.0757   -2.6956    0.7371 C   0  0  2  0  0  0  0  0  0  0  0  0
    6.9968   -1.5965    0.1799 C   0  0  0  0  0  0  0  0  0  0  0  0
    7.6044   -2.1638   -1.1106 C   0  0  0  0  0  0  0  0  0  0  0  0
    7.0202   -3.5286   -1.3723 C   0  0  2  0  0  0  0  0  0  0  0  0
    6.1205   -3.6383   -2.6258 C   0  0  0  0  0  0  0  0  0  0  0  0
    4.6928   -3.5902   -2.1470 N   0  0  1  0  0  0  0  0  0  0  0  0
    4.7620   -4.3533   -0.8169 C   0  0  1  0  0  0  0  0  0  0  0  0
    6.1091   -3.9149   -0.2094 C   0  0  2  0  0  0  0  0  0  0  0  0
    3.4834   -4.2255    0.1147 C   0  0  1  0  0  0  0  0  0  0  0  0
    2.9295   -5.5133    0.3415 O   0  0  0  0  0  0  0  0  0  0  0  0
    2.4450   -3.3185   -0.5362 C   0  0  0  0  0  0  0  0  0  0  0  0
    3.2230   -2.0281   -0.9163 C   0  0  1  0  0  0  0  0  0  0  0  0
    3.9668   -1.4401    0.2139 N   0  0  0  0  0  0  0  0  0  0  0  0
    3.2154   -0.4059    0.9191 C   0  0  0  0  0  0  0  0  0  0  0  0
    3.9915   -2.3285   -2.2155 C   0  0  0  0  0  0  0  0  0  0  0  0
    4.8060   -1.0352   -2.4713 C   0  0  0  0  0  0  0  0  0  0  0  0
    4.0103   -0.0940   -3.3144 C   0  0  0  0  0  0  0  0  0  0  0  0
    3.1786   -0.9774   -4.2193 C   0  0  0  0  0  0  0  0  0  0  0  0
    2.9985   -2.3084   -3.4572 C   0  0  0  0  0  0  0  0  0  0  0  0
    1.9928   -2.6505    2.1976 H   0  0  0  0  0  0  0  0  0  0  0  0
    3.1409   -3.0428    3.4500 H   0  0  0  0  0  0  0  0  0  0  0  0
    2.1977   -4.3244    2.6946 H   0  0  0  0  0  0  0  0  0  0  0  0
    4.5576   -4.2957    1.9811 H   0  0  0  0  0  0  0  0  0  0  0  0
    4.7818   -1.7328    2.1183 H   0  0  0  0  0  0  0  0  0  0  0  0
    6.5651   -3.0371    1.6489 H   0  0  0  0  0  0  0  0  0  0  0  0
    6.4981   -0.6382    0.0395 H   0  0  0  0  0  0  0  0  0  0  0  0
    7.7947   -1.3966    0.8953 H   0  0  0  0  0  0  0  0  0  0  0  0
    7.3815   -1.6137   -2.0087 H   0  0  0  0  0  0  0  0  0  0  0  0
    8.6920   -2.2179   -1.0358 H   0  0  0  0  0  0  0  0  0  0  0  0
    7.9129   -4.1544   -1.4177 H   0  0  0  0  0  0  0  0  0  0  0  0
    6.3938   -3.0294   -3.4947 H   0  0  0  0  0  0  0  0  0  0  0  0
    6.0423   -4.6217   -3.0302 H   0  0  0  0  0  0  0  0  0  0  0  0
    4.8663   -5.3953   -1.1137 H   0  0  0  0  0  0  0  0  0  0  0  0
    6.5322   -4.7664    0.3266 H   0  0  0  0  0  0  0  0  0  0  0  0
    2.8201   -5.9217   -0.5204 H   0  0  0  0  0  0  0  0  0  0  0  0
    1.9800   -3.8267   -1.3905 H   0  0  0  0  0  0  0  0  0  0  0  0
    1.6397   -3.0700    0.1407 H   0  0  0  0  0  0  0  0  0  0  0  0
    2.6731   -1.1732   -1.2854 H   0  0  0  0  0  0  0  0  0  0  0  0
    2.8284    0.2406    0.1669 H   0  0  0  0  0  0  0  0  0  0  0  0
    3.8712    0.1892    1.5581 H   0  0  0  0  0  0  0  0  0  0  0  0
    2.3290   -0.7196    1.4756 H   0  0  0  0  0  0  0  0  0  0  0  0
    5.2709   -0.5339   -1.6386 H   0  0  0  0  0  0  0  0  0  0  0  0
    5.5427   -1.3753   -3.1117 H   0  0  0  0  0  0  0  0  0  0  0  0
    3.3148    0.4090   -2.7043 H   0  0  0  0  0  0  0  0  0  0  0  0
    4.5893    0.6761   -3.8198 H   0  0  0  0  0  0  0  0  0  0  0  0
    2.2248   -0.4783   -4.4038 H   0  0  0  0  0  0  0  0  0  0  0  0
    3.6795   -1.1310   -5.1817 H   0  0  0  0  0  0  0  0  0  0  0  0
    3.2207   -3.1417   -4.1366 H   0  0  0  0  0  0  0  0  0  0  0  0
    1.9528   -2.4367   -3.1496 H   0  0  0  0  0  0  0  0  0  0  0  0
    4.1674   -4.2262   -2.7379 H   0  0  0  0  0  0  0  0  0  0  0  0
  1  2  1  0
  1 23  1  0
  1 24  1  0
  1 25  1  0
  2 12  1  0
  2  3  1  0
  2 26  1  1
  3 16  1  0
  3  4  1  0
  3 27  1  1
  4 11  1  0
  4  5  1  0
  4 28  1  1
  5  6  1  0
  5 29  1  0
  5 30  1  0
  6  7  1  0
  6 31  1  0
  6 32  1  0
  7 11  1  0
  7  8  1  0
  7 33  1  6
  8  9  1  0
  8 34  1  0
  8 35  1  0
  9 18  1  0
  9 10  1  0
  9 53  1  6
 10 11  1  0
 10 12  1  0
 10 36  1  6
 11 37  1  1
 12 13  1  1
 12 14  1  0
 13 38  1  0
 14 15  1  0
 14 39  1  0
 14 40  1  0
 15 16  1  0
 15 18  1  0
 15 41  1  6
 16 17  1  0
 17 42  1  0
 17 43  1  0
 17 44  1  0
 18 22  1  0
 18 19  1  0
 19 20  1  0
 19 45  1  0
 19 46  1  0
 20 21  1  0
 20 47  1  0
 20 48  1  0
 21 22  1  0
 21 49  1  0
 21 50  1  0
 22 51  1  0
 22 52  1  0
M  CHG  1   9   1
M  END
>  <i_m_ct_stereo_status>  (262) 
1

>  <s_m_source_file>  (262) 
/var/tmp/pbs.5076255.sched01/tmpnszqc94g/84e4epk0lh.sdf

>  <i_m_source_file_index>  (262) 
35

>  <i_lp_mmshare_version>  (262) 
48012

>  <i_f3d_flags>  (262) 
0

>  <s_epik_input>  (262) 
W0NIM11OMVtDQEBIXTJbQ0gyXVtDQF0zKFtPSF0pW0NASF0oW0NIM10pW0NASF0xW0NASF0oW0NIMl1bQ0gyXVtDQEBIXTRbQ0gyXTUpW0NASF00W0NAQEhdM041QzI2W0NIMl1bQ0gyXVtDSDJdW0NIMl02

>  <s_epik_cmdline>  (262) 
J2VwaWtfcHl0aG9uJywgJy1waHQnLCAnMi4wJywgJy1waCcsICc3LjAnLCAnLXRuJywgJzgnLCAnLW1hJywgJzIwMCcsICctaW1hZScsICc8aW5maWxlLm1hZT4nLCAnLW9tYWUnLCAnPG91dGZpbGUubWFlPic=

>  <r_epik_Ionization_Penalty>  (262) 
0.0092615

>  <r_epik_Ionization_Penalty_Charging>  (262) 
0.000111964

>  <r_epik_Ionization_Penalty_Neutral>  (262) 
0.00914953

>  <r_epik_State_Penalty>  (262) 
0.16961

>  <r_epik_Charging_Adjusted_Penalty>  (262) 
0.169722

>  <i_epik_Tot_Q>  (262) 
1

>  <i_epik_Tot_abs_Q>  (262) 
1

>  <s_lp_Force_Field>  (262) 
OPLS3e

>  <r_lp_Energy>  (262) 
62.5716

>  <b_lp_Chiralities_Consistent>  (262) 
1

>  <s_lp_Variant>  (262) 
84:0-1

>  <s_i_glide_gridfile>  (262) 
pfpi4k_grid

>  <i_i_glide_lignum>  (262) 
35

>  <i_i_glide_rotatable_bonds>  (262) 
1

>  <r_i_docking_score>  (262) 
-3.38175

>  <r_i_glide_ligand_efficiency>  (262) 
-0.153716

>  <r_i_glide_ligand_efficiency_sa>  (262) 
-0.430718

>  <r_i_glide_ligand_efficiency_ln>  (262) 
-0.826622

>  <r_i_glide_gscore>  (262) 
-3.38175

>  <r_i_glide_lipo>  (262) 
-0.987142

>  <r_i_glide_hbond>  (262) 
-0.287049

>  <r_i_glide_metal>  (262) 
-0

>  <r_i_glide_rewards>  (262) 
-1.34003

>  <r_i_glide_evdw>  (262) 
1.46225

>  <r_i_glide_ecoul>  (262) 
-5.59219

>  <r_i_glide_erotb>  (262) 
0

>  <r_i_glide_esite>  (262) 
-0.00181

>  <r_i_glide_emodel>  (262) 
-3.26672

>  <r_i_glide_energy>  (262) 
-4.12994

>  <r_i_glide_einternal>  (262) 
0.0844596

>  <r_i_glide_intrahb_reward>  (262) 
-0

>  <i_i_glide_confnum>  (262) 
4

>  <i_i_glide_posenum>  (262) 
1

>  <r_i_glide_eff_state_penalty>  (262) 
0

>  <ligand_id>  (262) 
84

>  <original_smiles>  (262) 
CC1C2C3CCC4CN5C(C43)C1(O)CC(N2C)C51CCCC1

>  <smiles>  (262) 
[H]OC12C([H])([H])C3([H])N(C([H])([H])[H])C([H])(C4([H])C([H])([H])C([H])([H])C5([H])C4([H])C1([H])[N+]([H])(C5([H])[H])C31C([H])([H])C([H])([H])C([H])([H])C1([H])[H])C2([H])C([H])([H])[H]

$$$$
84:0:1
     RDKit          3D

 53 58  0  0  1  0  0  0  0  0999 V2000
    3.6255   -3.0048    3.1267 C   0  0  0  0  0  0  0  0  0  0  0  0
    4.5286   -3.2861    1.9034 C   0  0  2  0  0  0  0  0  0  0  0  0
    5.2800   -2.0350    1.4016 C   0  0  1  0  0  0  0  0  0  0  0  0
    6.5653   -2.5399    0.7036 C   0  0  2  0  0  0  0  0  0  0  0  0
    7.4231   -1.5361   -0.0666 C   0  0  0  0  0  0  0  0  0  0  0  0
    7.8189   -2.2201   -1.3979 C   0  0  0  0  0  0  0  0  0  0  0  0
    7.0544   -3.5086   -1.4935 C   0  0  2  0  0  0  0  0  0  0  0  0
    5.8945   -3.5814   -2.5375 C   0  0  0  0  0  0  0  0  0  0  0  0
    4.6149   -3.4540   -1.7995 N   0  0  1  0  0  0  0  0  0  0  0  0
    4.8879   -4.1447   -0.4946 C   0  0  1  0  0  0  0  0  0  0  0  0
    6.3657   -3.7942   -0.1719 C   0  0  2  0  0  0  0  0  0  0  0  0
    3.8467   -3.9356    0.6708 C   0  0  1  0  0  0  0  0  0  0  0  0
    3.3216   -5.1891    1.0382 O   0  0  0  0  0  0  0  0  0  0  0  0
    2.7177   -3.0213    0.2426 C   0  0  0  0  0  0  0  0  0  0  0  0
    3.4131   -1.7815   -0.3473 C   0  0  1  0  0  0  0  0  0  0  0  0
    4.4267   -1.1700    0.5450 N   0  0  0  0  0  0  0  0  0  0  0  0
    3.9177   -0.0135    1.2739 C   0  0  0  0  0  0  0  0  0  0  0  0
    3.9237   -2.1166   -1.7731 C   0  0  0  0  0  0  0  0  0  0  0  0
    4.7352   -0.8995   -2.2763 C   0  0  0  0  0  0  0  0  0  0  0  0
    4.4407   -0.7519   -3.7692 C   0  0  0  0  0  0  0  0  0  0  0  0
    3.0247   -1.1595   -3.9146 C   0  0  0  0  0  0  0  0  0  0  0  0
    2.7367   -2.1703   -2.7874 C   0  0  0  0  0  0  0  0  0  0  0  0
    2.8800   -2.2330    2.9414 H   0  0  0  0  0  0  0  0  0  0  0  0
    4.2333   -2.6516    3.9586 H   0  0  0  0  0  0  0  0  0  0  0  0
    3.1020   -3.9023    3.4617 H   0  0  0  0  0  0  0  0  0  0  0  0
    5.2719   -4.0082    2.2836 H   0  0  0  0  0  0  0  0  0  0  0  0
    5.6162   -1.4571    2.2544 H   0  0  0  0  0  0  0  0  0  0  0  0
    7.2096   -2.8955    1.5154 H   0  0  0  0  0  0  0  0  0  0  0  0
    6.8898   -0.5964   -0.1721 H   0  0  0  0  0  0  0  0  0  0  0  0
    8.3274   -1.3040    0.4903 H   0  0  0  0  0  0  0  0  0  0  0  0
    7.5895   -1.7311   -2.3464 H   0  0  0  0  0  0  0  0  0  0  0  0
    8.9032   -2.3690   -1.4353 H   0  0  0  0  0  0  0  0  0  0  0  0
    7.9197   -4.1428   -1.6793 H   0  0  0  0  0  0  0  0  0  0  0  0
    6.0518   -3.0020   -3.4409 H   0  0  0  0  0  0  0  0  0  0  0  0
    5.7969   -4.6025   -2.9057 H   0  0  0  0  0  0  0  0  0  0  0  0
    4.8853   -5.2113   -0.7576 H   0  0  0  0  0  0  0  0  0  0  0  0
    6.8445   -4.6512    0.3019 H   0  0  0  0  0  0  0  0  0  0  0  0
    3.0639   -5.1438    1.9494 H   0  0  0  0  0  0  0  0  0  0  0  0
    2.1073   -3.4968   -0.5166 H   0  0  0  0  0  0  0  0  0  0  0  0
    2.0338   -2.7576    1.0461 H   0  0  0  0  0  0  0  0  0  0  0  0
    2.6332   -0.9991   -0.4689 H   0  0  0  0  0  0  0  0  0  0  0  0
    3.4946    0.7088    0.5747 H   0  0  0  0  0  0  0  0  0  0  0  0
    4.7199    0.5021    1.8053 H   0  0  0  0  0  0  0  0  0  0  0  0
    3.1405   -0.2830    1.9878 H   0  0  0  0  0  0  0  0  0  0  0  0
    4.3638    0.0258   -1.8248 H   0  0  0  0  0  0  0  0  0  0  0  0
    5.7839   -0.9595   -2.0125 H   0  0  0  0  0  0  0  0  0  0  0  0
    4.5657    0.2632   -4.1605 H   0  0  0  0  0  0  0  0  0  0  0  0
    5.0006   -1.4635   -4.3620 H   0  0  0  0  0  0  0  0  0  0  0  0
    2.4616   -0.2381   -3.7883 H   0  0  0  0  0  0  0  0  0  0  0  0
    2.8823   -1.5564   -4.9134 H   0  0  0  0  0  0  0  0  0  0  0  0
    2.5781   -3.1748   -3.2049 H   0  0  0  0  0  0  0  0  0  0  0  0
    1.7869   -1.8882   -2.3254 H   0  0  0  0  0  0  0  0  0  0  0  0
    3.9528   -4.0663   -2.2551 H   0  0  0  0  0  0  0  0  0  0  0  0
  1  2  1  0
  1 23  1  0
  1 24  1  0
  1 25  1  0
  2 12  1  0
  2  3  1  0
  2 26  1  1
  3 16  1  0
  3  4  1  0
  3 27  1  1
  4 11  1  0
  4  5  1  0
  4 28  1  1
  5  6  1  0
  5 29  1  0
  5 30  1  0
  6  7  1  0
  6 31  1  0
  6 32  1  0
  7 11  1  0
  7  8  1  0
  7 33  1  6
  8  9  1  0
  8 34  1  0
  8 35  1  0
  9 18  1  0
  9 10  1  0
  9 53  1  6
 10 11  1  0
 10 12  1  0
 10 36  1  6
 11 37  1  1
 12 13  1  1
 12 14  1  0
 13 38  1  0
 14 15  1  0
 14 39  1  0
 14 40  1  0
 15 16  1  0
 15 18  1  0
 15 41  1  6
 16 17  1  0
 17 42  1  0
 17 43  1  0
 17 44  1  0
 18 22  1  0
 18 19  1  0
 19 20  1  0
 19 45  1  0
 19 46  1  0
 20 21  1  0
 20 47  1  0
 20 48  1  0
 21 22  1  0
 21 49  1  0
 21 50  1  0
 22 51  1  0
 22 52  1  0
M  CHG  1   9   1
M  END
>  <i_m_ct_stereo_status>  (263) 
1

>  <s_m_source_file>  (263) 
/var/tmp/pbs.5076255.sched01/tmpnszqc94g/84e4epk0lh.sdf

>  <i_m_source_file_index>  (263) 
35

>  <i_lp_mmshare_version>  (263) 
48012

>  <i_f3d_flags>  (263) 
0

>  <s_epik_input>  (263) 
W0NIM11OMVtDQEBIXTJbQ0gyXVtDQF0zKFtPSF0pW0NASF0oW0NIM10pW0NASF0xW0NASF0oW0NIMl1bQ0gyXVtDQEBIXTRbQ0gyXTUpW0NASF00W0NAQEhdM041QzI2W0NIMl1bQ0gyXVtDSDJdW0NIMl02

>  <s_epik_cmdline>  (263) 
J2VwaWtfcHl0aG9uJywgJy1waHQnLCAnMi4wJywgJy1waCcsICc3LjAnLCAnLXRuJywgJzgnLCAnLW1hJywgJzIwMCcsICctaW1hZScsICc8aW5maWxlLm1hZT4nLCAnLW9tYWUnLCAnPG91dGZpbGUubWFlPic=

>  <r_epik_Ionization_Penalty>  (263) 
0.0092615

>  <r_epik_Ionization_Penalty_Charging>  (263) 
0.000111964

>  <r_epik_Ionization_Penalty_Neutral>  (263) 
0.00914953

>  <r_epik_State_Penalty>  (263) 
0.16961

>  <r_epik_Charging_Adjusted_Penalty>  (263) 
0.169722

>  <i_epik_Tot_Q>  (263) 
1

>  <i_epik_Tot_abs_Q>  (263) 
1

>  <s_lp_Force_Field>  (263) 
OPLS3e

>  <r_lp_Energy>  (263) 
62.5716

>  <b_lp_Chiralities_Consistent>  (263) 
1

>  <s_lp_Variant>  (263) 
84:0-1

>  <s_i_glide_gridfile>  (263) 
pfpi4k_grid

>  <i_i_glide_lignum>  (263) 
35

>  <i_i_glide_rotatable_bonds>  (263) 
1

>  <r_i_docking_score>  (263) 
-3.3459

>  <r_i_glide_ligand_efficiency>  (263) 
-0.152086

>  <r_i_glide_ligand_efficiency_sa>  (263) 
-0.426151

>  <r_i_glide_ligand_efficiency_ln>  (263) 
-0.817859

>  <r_i_glide_gscore>  (263) 
-3.3459

>  <r_i_glide_lipo>  (263) 
-0.995944

>  <r_i_glide_hbond>  (263) 
0

>  <r_i_glide_metal>  (263) 
-0

>  <r_i_glide_rewards>  (263) 
-1.34003

>  <r_i_glide_evdw>  (263) 
-6.59148

>  <r_i_glide_ecoul>  (263) 
-4.53102

>  <r_i_glide_erotb>  (263) 
0

>  <r_i_glide_esite>  (263) 
-0.000694099

>  <r_i_glide_emodel>  (263) 
-10.3209

>  <r_i_glide_energy>  (263) 
-11.1225

>  <r_i_glide_einternal>  (263) 
0.675889

>  <r_i_glide_intrahb_reward>  (263) 
-0

>  <i_i_glide_confnum>  (263) 
5

>  <i_i_glide_posenum>  (263) 
4

>  <r_i_glide_eff_state_penalty>  (263) 
0

>  <ligand_id>  (263) 
84

>  <original_smiles>  (263) 
CC1C2C3CCC4CN5C(C43)C1(O)CC(N2C)C51CCCC1

>  <smiles>  (263) 
[H]OC12C([H])([H])C3([H])N(C([H])([H])[H])C([H])(C4([H])C([H])([H])C([H])([H])C5([H])C4([H])C1([H])[N+]([H])(C5([H])[H])C31C([H])([H])C([H])([H])C([H])([H])C1([H])[H])C2([H])C([H])([H])[H]

$$$$
85:0:0
     RDKit          3D

 66 69  0  0  1  0  0  0  0  0999 V2000
   -1.0157    0.7718    2.5537 C   0  0  0  0  0  0  0  0  0  0  0  0
   -1.2579    1.7201    3.7100 C   0  0  0  0  0  0  0  0  0  0  0  0
   -1.8673    2.8829    3.3613 N   0  0  0  0  0  0  0  0  0  0  0  0
   -2.1102    3.7630    4.3142 C   0  0  0  0  0  0  0  0  0  0  0  0
   -1.8448    3.6463    5.6146 N   0  0  0  0  0  0  0  0  0  0  0  0
   -1.2513    2.5011    6.0098 C   0  0  0  0  0  0  0  0  0  0  0  0
   -0.9481    2.4239    7.5021 C   0  0  0  0  0  0  0  0  0  0  0  0
   -0.9096    1.4680    5.0850 C   0  0  0  0  0  0  0  0  0  0  0  0
   -0.2369    0.2047    5.5363 C   0  0  0  0  0  0  0  0  0  0  0  0
   -0.7432   -0.4489    6.4593 O   0  0  0  0  0  0  0  0  0  0  0  0
    0.9314   -0.1764    4.9259 N   0  0  0  0  0  0  0  0  0  0  0  0
    1.5954   -1.4555    5.1471 C   0  0  0  0  0  0  0  0  0  0  0  0
    3.0973   -1.2394    5.4446 C   0  0  0  0  0  0  0  0  0  0  0  0
    3.8155   -0.3970    4.3493 C   0  0  0  0  0  0  0  0  0  0  0  0
    5.2494   -0.0440    4.7947 C   0  0  0  0  0  0  0  0  0  0  0  0
    3.8713   -1.1834    3.0683 N   0  0  2  0  0  0  0  0  0  0  0  0
    4.9476   -2.2122    3.0211 C   0  0  0  0  0  0  0  0  0  0  0  0
    4.7355   -3.1589    1.8498 C   0  0  0  0  0  0  0  0  0  0  0  0
    4.6185   -2.4167    0.4963 C   0  0  1  0  0  0  0  0  0  0  0  0
    4.2348   -3.3731   -0.6465 C   0  0  1  0  0  0  0  0  0  0  0  0
    5.3174   -4.4202   -0.9174 C   0  0  0  0  0  0  0  0  0  0  0  0
    3.0614   -4.0761   -0.2343 O   0  0  0  0  0  0  0  0  0  0  0  0
    3.8801   -2.6344   -1.9295 C   0  0  0  0  0  0  0  0  0  0  0  0
    2.8643   -3.0468   -2.8186 C   0  0  0  0  0  0  0  0  0  0  0  0
    2.7190   -2.2202   -3.9196 C   0  0  0  0  0  0  0  0  0  0  0  0
    3.8127   -0.8756   -3.8572 S   0  0  0  0  0  0  0  0  0  0  0  0
    4.4964   -1.4643   -2.3700 C   0  0  0  0  0  0  0  0  0  0  0  0
    3.5772   -1.2845    0.6126 C   0  0  0  0  0  0  0  0  0  0  0  0
    3.8530   -0.3832    1.8011 C   0  0  0  0  0  0  0  0  0  0  0  0
    3.0349    0.9155    4.1799 C   0  0  0  0  0  0  0  0  0  0  0  0
    1.5796    0.6254    3.8739 C   0  0  0  0  0  0  0  0  0  0  0  0
   -1.2144   -0.2616    2.8799 H   0  0  0  0  0  0  0  0  0  0  0  0
   -0.0015    0.8602    2.1956 H   0  0  0  0  0  0  0  0  0  0  0  0
   -1.6237    1.0243    1.6884 H   0  0  0  0  0  0  0  0  0  0  0  0
   -2.5790    4.6899    3.9932 H   0  0  0  0  0  0  0  0  0  0  0  0
    0.0335    1.9915    7.6923 H   0  0  0  0  0  0  0  0  0  0  0  0
   -1.6986    1.8172    8.0089 H   0  0  0  0  0  0  0  0  0  0  0  0
   -0.9567    3.4161    7.9656 H   0  0  0  0  0  0  0  0  0  0  0  0
    1.1409   -2.0225    5.9662 H   0  0  0  0  0  0  0  0  0  0  0  0
    1.4767   -2.0921    4.2661 H   0  0  0  0  0  0  0  0  0  0  0  0
    3.1704   -0.7111    6.3943 H   0  0  0  0  0  0  0  0  0  0  0  0
    3.5899   -2.1981    5.5912 H   0  0  0  0  0  0  0  0  0  0  0  0
    5.2538    0.4112    5.7833 H   0  0  0  0  0  0  0  0  0  0  0  0
    5.6974    0.6591    4.0882 H   0  0  0  0  0  0  0  0  0  0  0  0
    5.8866   -0.9255    4.8540 H   0  0  0  0  0  0  0  0  0  0  0  0
    5.9417   -1.7455    2.9181 H   0  0  0  0  0  0  0  0  0  0  0  0
    4.9675   -2.8172    3.9399 H   0  0  0  0  0  0  0  0  0  0  0  0
    5.5620   -3.8666    1.8314 H   0  0  0  0  0  0  0  0  0  0  0  0
    3.8238   -3.7247    2.0574 H   0  0  0  0  0  0  0  0  0  0  0  0
    5.5899   -1.9648    0.2634 H   0  0  0  0  0  0  0  0  0  0  0  0
    6.2603   -3.9374   -1.1794 H   0  0  0  0  0  0  0  0  0  0  0  0
    5.0223   -5.0631   -1.7454 H   0  0  0  0  0  0  0  0  0  0  0  0
    5.4969   -5.0643   -0.0568 H   0  0  0  0  0  0  0  0  0  0  0  0
    2.8945   -4.7611   -0.8554 H   0  0  0  0  0  0  0  0  0  0  0  0
    2.2423   -3.9080   -2.6545 H   0  0  0  0  0  0  0  0  0  0  0  0
    2.0190   -2.3243   -4.7201 H   0  0  0  0  0  0  0  0  0  0  0  0
    5.2662   -0.9000   -1.8852 H   0  0  0  0  0  0  0  0  0  0  0  0
    3.5520   -0.6467   -0.2678 H   0  0  0  0  0  0  0  0  0  0  0  0
    2.5744   -1.7135    0.6936 H   0  0  0  0  0  0  0  0  0  0  0  0
    3.0599    0.3646    1.7437 H   0  0  0  0  0  0  0  0  0  0  0  0
    4.8006    0.1535    1.6739 H   0  0  0  0  0  0  0  0  0  0  0  0
    3.1000    1.5418    5.0671 H   0  0  0  0  0  0  0  0  0  0  0  0
    3.4498    1.5224    3.3684 H   0  0  0  0  0  0  0  0  0  0  0  0
    1.4966    0.0188    2.9693 H   0  0  0  0  0  0  0  0  0  0  0  0
    1.1294    1.5980    3.6960 H   0  0  0  0  0  0  0  0  0  0  0  0
    2.9942   -1.7118    3.0557 H   0  0  0  0  0  0  0  0  0  0  0  0
  1  2  1  0
  1 32  1  0
  1 33  1  0
  1 34  1  0
  2  8  2  0
  2  3  1  0
  3  4  2  0
  4  5  1  0
  4 35  1  0
  5  6  2  0
  6  7  1  0
  6  8  1  0
  7 36  1  0
  7 37  1  0
  7 38  1  0
  8  9  1  0
  9 10  2  0
  9 11  1  0
 11 31  1  0
 11 12  1  0
 12 13  1  0
 12 39  1  0
 12 40  1  0
 13 14  1  0
 13 41  1  0
 13 42  1  0
 14 15  1  0
 14 16  1  0
 14 30  1  0
 15 43  1  0
 15 44  1  0
 15 45  1  0
 16 29  1  0
 16 17  1  0
 16 66  1  6
 17 18  1  0
 17 46  1  0
 17 47  1  0
 18 19  1  0
 18 48  1  0
 18 49  1  0
 19 20  1  0
 19 28  1  0
 19 50  1  6
 20 21  1  0
 20 22  1  1
 20 23  1  0
 21 51  1  0
 21 52  1  0
 21 53  1  0
 22 54  1  0
 23 27  2  0
 23 24  1  0
 24 25  2  0
 24 55  1  0
 25 26  1  0
 25 56  1  0
 26 27  1  0
 27 57  1  0
 28 29  1  0
 28 58  1  0
 28 59  1  0
 29 60  1  0
 29 61  1  0
 30 31  1  0
 30 62  1  0
 30 63  1  0
 31 64  1  0
 31 65  1  0
M  CHG  1  16   1
M  END
>  <i_m_ct_stereo_status>  (264) 
1

>  <s_m_source_file>  (264) 
/var/tmp/pbs.5076255.sched01/tmpnszqc94g/84e4epk0lh.sdf

>  <i_m_source_file_index>  (264) 
37

>  <i_lp_mmshare_version>  (264) 
48012

>  <i_f3d_flags>  (264) 
0

>  <s_epik_input>  (264) 
W0NIM11jMW5bY0hdbmMoW0NIM10pYzFDKD1PKU4oW0NIMl1bQ0gyXTIpW0NIMl1bQ0gyXUMyKFtDSDNdKU4zW0NIMl1bQ0gyXVtDSF0oW0NIMl1bQ0gyXTMpW0NAQF0oW0NIM10pKFtPSF0pYzRbY0hdW2NIXXNbY0hdNA==

>  <s_epik_cmdline>  (264) 
J2VwaWtfcHl0aG9uJywgJy1waHQnLCAnMi4wJywgJy1waCcsICc3LjAnLCAnLXRuJywgJzgnLCAnLW1hJywgJzIwMCcsICctaW1hZScsICc8aW5maWxlLm1hZT4nLCAnLW9tYWUnLCAnPG91dGZpbGUubWFlPic=

>  <r_lp_tautomer_probability>  (264) 
1

>  <r_epik_Ionization_Penalty>  (264) 
0.00447374

>  <r_epik_Ionization_Penalty_Charging>  (264) 
0.00447295

>  <r_epik_Ionization_Penalty_Neutral>  (264) 
7.84185e-07

>  <r_epik_State_Penalty>  (264) 
0.00322709

>  <r_epik_Charging_Adjusted_Penalty>  (264) 
0.00770004

>  <i_epik_Tot_Q>  (264) 
1

>  <i_epik_Tot_abs_Q>  (264) 
1

>  <s_epik_Chemistry_Notes>  (264) 
This compound contains an electron-poor aromatic ring that is susceptible to covalent hydrolysis at low pH, typically resulting in measured values for nitrogen ring protonation that are around two units higher than predicted values.

>  <s_lp_Force_Field>  (264) 
OPLS3e

>  <r_lp_Energy>  (264) 
48.1256

>  <b_lp_Chiralities_Consistent>  (264) 
1

>  <s_lp_Variant>  (264) 
85:0-1

>  <s_i_glide_gridfile>  (264) 
pfpi4k_grid

>  <i_i_glide_lignum>  (264) 
37

>  <i_i_glide_rotatable_bonds>  (264) 
6

>  <r_i_docking_score>  (264) 
-3.63968

>  <r_i_glide_ligand_efficiency>  (264) 
-0.117409

>  <r_i_glide_ligand_efficiency_sa>  (264) 
-0.368826

>  <r_i_glide_ligand_efficiency_ln>  (264) 
-0.820858

>  <r_i_glide_gscore>  (264) 
-3.63968

>  <r_i_glide_lipo>  (264) 
-0.59941

>  <r_i_glide_hbond>  (264) 
-0.213896

>  <r_i_glide_metal>  (264) 
-0

>  <r_i_glide_rewards>  (264) 
-0.384366

>  <r_i_glide_evdw>  (264) 
-32.5297

>  <r_i_glide_ecoul>  (264) 
-8.35163

>  <r_i_glide_erotb>  (264) 
0.507947

>  <r_i_glide_esite>  (264) 
-0.0707189

>  <r_i_glide_emodel>  (264) 
-43.9831

>  <r_i_glide_energy>  (264) 
-40.8814

>  <r_i_glide_einternal>  (264) 
4.13116

>  <r_i_glide_intrahb_reward>  (264) 
-0

>  <i_i_glide_confnum>  (264) 
5

>  <i_i_glide_posenum>  (264) 
34

>  <r_i_glide_eff_state_penalty>  (264) 
0

>  <ligand_id>  (264) 
85

>  <original_smiles>  (264) 
Cc1ncnc(C)c1C(=O)N1CCC(C)(N2CCC(C(C)(O)c3ccsc3)CC2)CC1

>  <smiles>  (264) 
[H]OC(c1c([H])sc([H])c1[H])(C([H])([H])[H])C1([H])C([H])([H])C([H])([H])[N+]([H])(C2(C([H])([H])[H])C([H])([H])C([H])([H])N(C(=O)c3c(C([H])([H])[H])nc([H])nc3C([H])([H])[H])C([H])([H])C2([H])[H])C([H])([H])C1([H])[H]

$$$$
85:0:1
     RDKit          3D

 66 69  0  0  1  0  0  0  0  0999 V2000
   -1.1126    0.8101    2.6028 C   0  0  0  0  0  0  0  0  0  0  0  0
   -1.3096    1.7620    3.7635 C   0  0  0  0  0  0  0  0  0  0  0  0
   -1.9009    2.9166    3.4256 N   0  0  0  0  0  0  0  0  0  0  0  0
   -2.1105    3.8224    4.3703 C   0  0  0  0  0  0  0  0  0  0  0  0
   -1.8322    3.7054    5.6714 N   0  0  0  0  0  0  0  0  0  0  0  0
   -1.2453    2.5590    6.0604 C   0  0  0  0  0  0  0  0  0  0  0  0
   -0.9239    2.4967    7.5579 C   0  0  0  0  0  0  0  0  0  0  0  0
   -0.9272    1.5191    5.1386 C   0  0  0  0  0  0  0  0  0  0  0  0
   -0.2377    0.2624    5.5780 C   0  0  0  0  0  0  0  0  0  0  0  0
   -0.7553   -0.3989    6.5030 O   0  0  0  0  0  0  0  0  0  0  0  0
    0.9202   -0.1126    4.9774 N   0  0  0  0  0  0  0  0  0  0  0  0
    1.5811   -1.3974    5.2024 C   0  0  0  0  0  0  0  0  0  0  0  0
    3.0766   -1.1784    5.5221 C   0  0  0  0  0  0  0  0  0  0  0  0
    3.8247   -0.3461    4.4304 C   0  0  0  0  0  0  0  0  0  0  0  0
    5.2527    0.0198    4.8742 C   0  0  0  0  0  0  0  0  0  0  0  0
    3.8597   -1.1343    3.1536 N   0  0  2  0  0  0  0  0  0  0  0  0
    4.7931   -2.3141    3.1610 C   0  0  0  0  0  0  0  0  0  0  0  0
    4.5494   -3.2154    1.9604 C   0  0  0  0  0  0  0  0  0  0  0  0
    4.6408   -2.4324    0.6155 C   0  0  1  0  0  0  0  0  0  0  0  0
    4.2577   -3.3133   -0.6001 C   0  0  1  0  0  0  0  0  0  0  0  0
    5.3025   -4.3893   -0.8994 C   0  0  0  0  0  0  0  0  0  0  0  0
    3.0520   -3.9958   -0.2799 O   0  0  0  0  0  0  0  0  0  0  0  0
    3.9654   -2.5048   -1.8515 C   0  0  0  0  0  0  0  0  0  0  0  0
    3.0492   -2.9289   -2.8369 C   0  0  0  0  0  0  0  0  0  0  0  0
    2.8985   -2.0262   -3.8331 C   0  0  0  0  0  0  0  0  0  0  0  0
    3.8367   -0.5933   -3.6204 S   0  0  0  0  0  0  0  0  0  0  0  0
    4.5277   -1.2828   -2.1782 C   0  0  0  0  0  0  0  0  0  0  0  0
    3.7451   -1.1780    0.7202 C   0  0  0  0  0  0  0  0  0  0  0  0
    4.0696   -0.3411    1.9120 C   0  0  0  0  0  0  0  0  0  0  0  0
    3.0481    0.9859    4.2759 C   0  0  0  0  0  0  0  0  0  0  0  0
    1.6028    0.6827    3.9306 C   0  0  0  0  0  0  0  0  0  0  0  0
   -1.2746   -0.2039    2.9340 H   0  0  0  0  0  0  0  0  0  0  0  0
   -0.0994    0.8964    2.1908 H   0  0  0  0  0  0  0  0  0  0  0  0
   -1.7185    1.0614    1.7439 H   0  0  0  0  0  0  0  0  0  0  0  0
   -2.5667    4.7506    4.0479 H   0  0  0  0  0  0  0  0  0  0  0  0
    0.0578    2.0612    7.7322 H   0  0  0  0  0  0  0  0  0  0  0  0
   -1.6703    1.8960    8.0731 H   0  0  0  0  0  0  0  0  0  0  0  0
   -0.9240    3.4899    8.0068 H   0  0  0  0  0  0  0  0  0  0  0  0
    1.1217   -1.9630    6.0151 H   0  0  0  0  0  0  0  0  0  0  0  0
    1.4632   -2.0303    4.3184 H   0  0  0  0  0  0  0  0  0  0  0  0
    3.1448   -0.6445    6.4630 H   0  0  0  0  0  0  0  0  0  0  0  0
    3.5550   -2.1374    5.6922 H   0  0  0  0  0  0  0  0  0  0  0  0
    5.2434    0.4662    5.8628 H   0  0  0  0  0  0  0  0  0  0  0  0
    5.6923    0.7195    4.1538 H   0  0  0  0  0  0  0  0  0  0  0  0
    5.8929   -0.8563    4.9435 H   0  0  0  0  0  0  0  0  0  0  0  0
    5.8354   -1.9927    3.1351 H   0  0  0  0  0  0  0  0  0  0  0  0
    4.6445   -2.9179    4.0615 H   0  0  0  0  0  0  0  0  0  0  0  0
    5.2684   -4.0469    2.0018 H   0  0  0  0  0  0  0  0  0  0  0  0
    3.5533   -3.6309    2.1140 H   0  0  0  0  0  0  0  0  0  0  0  0
    5.6784   -2.1075    0.4963 H   0  0  0  0  0  0  0  0  0  0  0  0
    6.2585   -3.9308   -1.1399 H   0  0  0  0  0  0  0  0  0  0  0  0
    4.9867   -4.9819   -1.7578 H   0  0  0  0  0  0  0  0  0  0  0  0
    5.4470   -5.0754   -0.0667 H   0  0  0  0  0  0  0  0  0  0  0  0
    2.4172   -3.3609    0.0268 H   0  0  0  0  0  0  0  0  0  0  0  0
    2.4878   -3.8561   -2.7743 H   0  0  0  0  0  0  0  0  0  0  0  0
    2.2021   -2.1091   -4.6587 H   0  0  0  0  0  0  0  0  0  0  0  0
    5.2391   -0.7014   -1.6486 H   0  0  0  0  0  0  0  0  0  0  0  0
    3.8685   -0.4408   -0.0720 H   0  0  0  0  0  0  0  0  0  0  0  0
    2.6976   -1.4704    0.7060 H   0  0  0  0  0  0  0  0  0  0  0  0
    3.3731    0.4892    1.7858 H   0  0  0  0  0  0  0  0  0  0  0  0
    5.0821    0.0688    1.8749 H   0  0  0  0  0  0  0  0  0  0  0  0
    3.0813    1.5968    5.1657 H   0  0  0  0  0  0  0  0  0  0  0  0
    3.4456    1.6287    3.4898 H   0  0  0  0  0  0  0  0  0  0  0  0
    1.5614    0.0920    3.0134 H   0  0  0  0  0  0  0  0  0  0  0  0
    1.1928    1.6610    3.7531 H   0  0  0  0  0  0  0  0  0  0  0  0
    2.9391   -1.5197    3.0467 H   0  0  0  0  0  0  0  0  0  0  0  0
  1  2  1  0
  1 32  1  0
  1 33  1  0
  1 34  1  0
  2  8  2  0
  2  3  1  0
  3  4  2  0
  4  5  1  0
  4 35  1  0
  5  6  2  0
  6  7  1  0
  6  8  1  0
  7 36  1  0
  7 37  1  0
  7 38  1  0
  8  9  1  0
  9 10  2  0
  9 11  1  0
 11 31  1  0
 11 12  1  0
 12 13  1  0
 12 39  1  0
 12 40  1  0
 13 14  1  0
 13 41  1  0
 13 42  1  0
 14 15  1  0
 14 16  1  0
 14 30  1  0
 15 43  1  0
 15 44  1  0
 15 45  1  0
 16 29  1  0
 16 17  1  0
 16 66  1  6
 17 18  1  0
 17 46  1  0
 17 47  1  0
 18 19  1  0
 18 48  1  0
 18 49  1  0
 19 20  1  0
 19 28  1  0
 19 50  1  6
 20 21  1  0
 20 22  1  1
 20 23  1  0
 21 51  1  0
 21 52  1  0
 21 53  1  0
 22 54  1  0
 23 27  2  0
 23 24  1  0
 24 25  2  0
 24 55  1  0
 25 26  1  0
 25 56  1  0
 26 27  1  0
 27 57  1  0
 28 29  1  0
 28 58  1  0
 28 59  1  0
 29 60  1  0
 29 61  1  0
 30 31  1  0
 30 62  1  0
 30 63  1  0
 31 64  1  0
 31 65  1  0
M  CHG  1  16   1
M  END
>  <i_m_ct_stereo_status>  (265) 
1

>  <s_m_source_file>  (265) 
/var/tmp/pbs.5076255.sched01/tmpnszqc94g/84e4epk0lh.sdf

>  <i_m_source_file_index>  (265) 
37

>  <i_lp_mmshare_version>  (265) 
48012

>  <i_f3d_flags>  (265) 
0

>  <s_epik_input>  (265) 
W0NIM11jMW5bY0hdbmMoW0NIM10pYzFDKD1PKU4oW0NIMl1bQ0gyXTIpW0NIMl1bQ0gyXUMyKFtDSDNdKU4zW0NIMl1bQ0gyXVtDSF0oW0NIMl1bQ0gyXTMpW0NAQF0oW0NIM10pKFtPSF0pYzRbY0hdW2NIXXNbY0hdNA==

>  <s_epik_cmdline>  (265) 
J2VwaWtfcHl0aG9uJywgJy1waHQnLCAnMi4wJywgJy1waCcsICc3LjAnLCAnLXRuJywgJzgnLCAnLW1hJywgJzIwMCcsICctaW1hZScsICc8aW5maWxlLm1hZT4nLCAnLW9tYWUnLCAnPG91dGZpbGUubWFlPic=

>  <r_lp_tautomer_probability>  (265) 
1

>  <r_epik_Ionization_Penalty>  (265) 
0.00447374

>  <r_epik_Ionization_Penalty_Charging>  (265) 
0.00447295

>  <r_epik_Ionization_Penalty_Neutral>  (265) 
7.84185e-07

>  <r_epik_State_Penalty>  (265) 
0.00322709

>  <r_epik_Charging_Adjusted_Penalty>  (265) 
0.00770004

>  <i_epik_Tot_Q>  (265) 
1

>  <i_epik_Tot_abs_Q>  (265) 
1

>  <s_epik_Chemistry_Notes>  (265) 
This compound contains an electron-poor aromatic ring that is susceptible to covalent hydrolysis at low pH, typically resulting in measured values for nitrogen ring protonation that are around two units higher than predicted values.

>  <s_lp_Force_Field>  (265) 
OPLS3e

>  <r_lp_Energy>  (265) 
48.1256

>  <b_lp_Chiralities_Consistent>  (265) 
1

>  <s_lp_Variant>  (265) 
85:0-1

>  <s_i_glide_gridfile>  (265) 
pfpi4k_grid

>  <i_i_glide_lignum>  (265) 
37

>  <i_i_glide_rotatable_bonds>  (265) 
6

>  <r_i_docking_score>  (265) 
-3.26135

>  <r_i_glide_ligand_efficiency>  (265) 
-0.105205

>  <r_i_glide_ligand_efficiency_sa>  (265) 
-0.330488

>  <r_i_glide_ligand_efficiency_ln>  (265) 
-0.735533

>  <r_i_glide_gscore>  (265) 
-3.26135

>  <r_i_glide_lipo>  (265) 
-0.693165

>  <r_i_glide_hbond>  (265) 
-0.0412493

>  <r_i_glide_metal>  (265) 
-0

>  <r_i_glide_rewards>  (265) 
-0.384366

>  <r_i_glide_evdw>  (265) 
-32.6387

>  <r_i_glide_ecoul>  (265) 
-6.31094

>  <r_i_glide_erotb>  (265) 
0.507947

>  <r_i_glide_esite>  (265) 
-0.071937

>  <r_i_glide_emodel>  (265) 
-40.9296

>  <r_i_glide_energy>  (265) 
-38.9496

>  <r_i_glide_einternal>  (265) 
5.58924

>  <r_i_glide_intrahb_reward>  (265) 
-0

>  <i_i_glide_confnum>  (265) 
5

>  <i_i_glide_posenum>  (265) 
32

>  <r_i_glide_eff_state_penalty>  (265) 
0

>  <ligand_id>  (265) 
85

>  <original_smiles>  (265) 
Cc1ncnc(C)c1C(=O)N1CCC(C)(N2CCC(C(C)(O)c3ccsc3)CC2)CC1

>  <smiles>  (265) 
[H]OC(c1c([H])sc([H])c1[H])(C([H])([H])[H])C1([H])C([H])([H])C([H])([H])[N+]([H])(C2(C([H])([H])[H])C([H])([H])C([H])([H])N(C(=O)c3c(C([H])([H])[H])nc([H])nc3C([H])([H])[H])C([H])([H])C2([H])[H])C([H])([H])C1([H])[H]

$$$$
85:0:2
     RDKit          3D

 66 69  0  0  1  0  0  0  0  0999 V2000
   -1.0122    0.9723    2.6311 C   0  0  0  0  0  0  0  0  0  0  0  0
   -1.0981    2.0212    3.7350 C   0  0  0  0  0  0  0  0  0  0  0  0
   -1.2629    3.2767    3.2941 N   0  0  0  0  0  0  0  0  0  0  0  0
   -1.2663    4.2606    4.2011 C   0  0  0  0  0  0  0  0  0  0  0  0
   -1.2132    4.1234    5.5343 N   0  0  0  0  0  0  0  0  0  0  0  0
   -1.0968    2.8731    6.0008 C   0  0  0  0  0  0  0  0  0  0  0  0
   -1.0139    2.7774    7.5195 C   0  0  0  0  0  0  0  0  0  0  0  0
   -1.0075    1.7408    5.1404 C   0  0  0  0  0  0  0  0  0  0  0  0
   -0.8258    0.3545    5.6811 C   0  0  0  0  0  0  0  0  0  0  0  0
   -1.6825   -0.0701    6.4676 O   0  0  0  0  0  0  0  0  0  0  0  0
    0.2681   -0.3468    5.3110 N   0  0  0  0  0  0  0  0  0  0  0  0
    0.4657   -1.7683    5.6485 C   0  0  0  0  0  0  0  0  0  0  0  0
    1.8538   -1.9933    6.2878 C   0  0  0  0  0  0  0  0  0  0  0  0
    3.0253   -1.4431    5.4294 C   0  0  0  0  0  0  0  0  0  0  0  0
    4.3557   -1.5087    6.2067 C   0  0  0  0  0  0  0  0  0  0  0  0
    3.1272   -2.2441    4.1506 N   0  0  2  0  0  0  0  0  0  0  0  0
    3.7115   -3.6118    4.3195 C   0  0  0  0  0  0  0  0  0  0  0  0
    3.4629   -4.4773    3.0781 C   0  0  0  0  0  0  0  0  0  0  0  0
    4.0099   -3.8098    1.7949 C   0  0  1  0  0  0  0  0  0  0  0  0
    3.6328   -4.6145    0.5235 C   0  0  1  0  0  0  0  0  0  0  0  0
    4.1805   -6.0509    0.5687 C   0  0  0  0  0  0  0  0  0  0  0  0
    2.2102   -4.7098    0.4576 O   0  0  0  0  0  0  0  0  0  0  0  0
    4.0770   -3.8836   -0.7308 C   0  0  0  0  0  0  0  0  0  0  0  0
    3.2238   -3.0719   -1.5668 C   0  0  0  0  0  0  0  0  0  0  0  0
    3.8587   -2.5620   -2.6525 C   0  0  0  0  0  0  0  0  0  0  0  0
    5.5307   -3.0470   -2.7186 S   0  0  0  0  0  0  0  0  0  0  0  0
    5.3600   -3.8919   -1.2055 C   0  0  0  0  0  0  0  0  0  0  0  0
    3.5211   -2.3543    1.6965 C   0  0  0  0  0  0  0  0  0  0  0  0
    3.7702   -1.5567    2.9812 C   0  0  0  0  0  0  0  0  0  0  0  0
    2.7076    0.0404    5.1311 C   0  0  0  0  0  0  0  0  0  0  0  0
    1.3399    0.1833    4.4521 C   0  0  0  0  0  0  0  0  0  0  0  0
   -1.6525    0.1334    2.9016 H   0  0  0  0  0  0  0  0  0  0  0  0
    0.0141    0.6539    2.4877 H   0  0  0  0  0  0  0  0  0  0  0  0
   -1.4384    1.3850    1.6930 H   0  0  0  0  0  0  0  0  0  0  0  0
   -1.3658    5.2696    3.8202 H   0  0  0  0  0  0  0  0  0  0  0  0
   -0.2538    2.0636    7.8379 H   0  0  0  0  0  0  0  0  0  0  0  0
   -1.9749    2.4748    7.9427 H   0  0  0  0  0  0  0  0  0  0  0  0
   -0.7476    3.7445    7.9661 H   0  0  0  0  0  0  0  0  0  0  0  0
   -0.3122   -2.1418    6.3242 H   0  0  0  0  0  0  0  0  0  0  0  0
    0.3473   -2.3617    4.7408 H   0  0  0  0  0  0  0  0  0  0  0  0
    1.8544   -1.4714    7.2400 H   0  0  0  0  0  0  0  0  0  0  0  0
    1.9660   -3.0491    6.5341 H   0  0  0  0  0  0  0  0  0  0  0  0
    4.2597   -0.9929    7.1694 H   0  0  0  0  0  0  0  0  0  0  0  0
    5.1499   -0.9934    5.6486 H   0  0  0  0  0  0  0  0  0  0  0  0
    4.7053   -2.5403    6.3813 H   0  0  0  0  0  0  0  0  0  0  0  0
    4.7884   -3.5316    4.5151 H   0  0  0  0  0  0  0  0  0  0  0  0
    3.2326   -4.1254    5.1566 H   0  0  0  0  0  0  0  0  0  0  0  0
    3.9385   -5.4475    3.2549 H   0  0  0  0  0  0  0  0  0  0  0  0
    2.3827   -4.6706    2.9942 H   0  0  0  0  0  0  0  0  0  0  0  0
    5.0922   -3.7592    1.8849 H   0  0  0  0  0  0  0  0  0  0  0  0
    5.2658   -6.0751    0.6847 H   0  0  0  0  0  0  0  0  0  0  0  0
    3.9152   -6.5921   -0.3395 H   0  0  0  0  0  0  0  0  0  0  0  0
    3.7495   -6.6106    1.3989 H   0  0  0  0  0  0  0  0  0  0  0  0
    1.9277   -3.8229    0.5713 H   0  0  0  0  0  0  0  0  0  0  0  0
    2.1764   -2.9029   -1.3476 H   0  0  0  0  0  0  0  0  0  0  0  0
    3.4345   -1.9337   -3.4360 H   0  0  0  0  0  0  0  0  0  0  0  0
    6.2124   -4.3908   -0.7542 H   0  0  0  0  0  0  0  0  0  0  0  0
    4.0219   -1.8157    0.8963 H   0  0  0  0  0  0  0  0  0  0  0  0
    2.4496   -2.3220    1.4843 H   0  0  0  0  0  0  0  0  0  0  0  0
    3.3361   -0.5624    2.8206 H   0  0  0  0  0  0  0  0  0  0  0  0
    4.8433   -1.4263    3.1675 H   0  0  0  0  0  0  0  0  0  0  0  0
    2.7112    0.6192    6.0725 H   0  0  0  0  0  0  0  0  0  0  0  0
    3.4577    0.4803    4.4574 H   0  0  0  0  0  0  0  0  0  0  0  0
    1.2486   -0.3454    3.5026 H   0  0  0  0  0  0  0  0  0  0  0  0
    1.2461    1.2397    4.1969 H   0  0  0  0  0  0  0  0  0  0  0  0
    2.1680   -2.3979    3.8526 H   0  0  0  0  0  0  0  0  0  0  0  0
  1  2  1  0
  1 32  1  0
  1 33  1  0
  1 34  1  0
  2  8  2  0
  2  3  1  0
  3  4  2  0
  4  5  1  0
  4 35  1  0
  5  6  2  0
  6  7  1  0
  6  8  1  0
  7 36  1  0
  7 37  1  0
  7 38  1  0
  8  9  1  0
  9 10  2  0
  9 11  1  0
 11 31  1  0
 11 12  1  0
 12 13  1  0
 12 39  1  0
 12 40  1  0
 13 14  1  0
 13 41  1  0
 13 42  1  0
 14 15  1  0
 14 16  1  0
 14 30  1  0
 15 43  1  0
 15 44  1  0
 15 45  1  0
 16 29  1  0
 16 17  1  0
 16 66  1  6
 17 18  1  0
 17 46  1  0
 17 47  1  0
 18 19  1  0
 18 48  1  0
 18 49  1  0
 19 20  1  0
 19 28  1  0
 19 50  1  1
 20 21  1  0
 20 22  1  6
 20 23  1  0
 21 51  1  0
 21 52  1  0
 21 53  1  0
 22 54  1  0
 23 27  2  0
 23 24  1  0
 24 25  2  0
 24 55  1  0
 25 26  1  0
 25 56  1  0
 26 27  1  0
 27 57  1  0
 28 29  1  0
 28 58  1  0
 28 59  1  0
 29 60  1  0
 29 61  1  0
 30 31  1  0
 30 62  1  0
 30 63  1  0
 31 64  1  0
 31 65  1  0
M  CHG  1  16   1
M  END
>  <i_m_ct_stereo_status>  (266) 
1

>  <s_m_source_file>  (266) 
/var/tmp/pbs.5076255.sched01/tmpnszqc94g/84e4epk0lh.sdf

>  <i_m_source_file_index>  (266) 
37

>  <i_lp_mmshare_version>  (266) 
48012

>  <i_f3d_flags>  (266) 
0

>  <s_epik_input>  (266) 
W0NIM11jMW5bY0hdbmMoW0NIM10pYzFDKD1PKU4oW0NIMl1bQ0gyXTIpW0NIMl1bQ0gyXUMyKFtDSDNdKU4zW0NIMl1bQ0gyXVtDSF0oW0NIMl1bQ0gyXTMpW0NAQF0oW0NIM10pKFtPSF0pYzRbY0hdW2NIXXNbY0hdNA==

>  <s_epik_cmdline>  (266) 
J2VwaWtfcHl0aG9uJywgJy1waHQnLCAnMi4wJywgJy1waCcsICc3LjAnLCAnLXRuJywgJzgnLCAnLW1hJywgJzIwMCcsICctaW1hZScsICc8aW5maWxlLm1hZT4nLCAnLW9tYWUnLCAnPG91dGZpbGUubWFlPic=

>  <r_lp_tautomer_probability>  (266) 
1

>  <r_epik_Ionization_Penalty>  (266) 
0.00447374

>  <r_epik_Ionization_Penalty_Charging>  (266) 
0.00447295

>  <r_epik_Ionization_Penalty_Neutral>  (266) 
7.84185e-07

>  <r_epik_State_Penalty>  (266) 
0.00322709

>  <r_epik_Charging_Adjusted_Penalty>  (266) 
0.00770004

>  <i_epik_Tot_Q>  (266) 
1

>  <i_epik_Tot_abs_Q>  (266) 
1

>  <s_epik_Chemistry_Notes>  (266) 
This compound contains an electron-poor aromatic ring that is susceptible to covalent hydrolysis at low pH, typically resulting in measured values for nitrogen ring protonation that are around two units higher than predicted values.

>  <s_lp_Force_Field>  (266) 
OPLS3e

>  <r_lp_Energy>  (266) 
48.1256

>  <b_lp_Chiralities_Consistent>  (266) 
1

>  <s_lp_Variant>  (266) 
85:0-1

>  <s_i_glide_gridfile>  (266) 
pfpi4k_grid

>  <i_i_glide_lignum>  (266) 
37

>  <i_i_glide_rotatable_bonds>  (266) 
6

>  <r_i_docking_score>  (266) 
-2.87169

>  <r_i_glide_ligand_efficiency>  (266) 
-0.0926352

>  <r_i_glide_ligand_efficiency_sa>  (266) 
-0.291002

>  <r_i_glide_ligand_efficiency_ln>  (266) 
-0.647655

>  <r_i_glide_gscore>  (266) 
-2.87169

>  <r_i_glide_lipo>  (266) 
-0.380468

>  <r_i_glide_hbond>  (266) 
-0.174494

>  <r_i_glide_metal>  (266) 
-0

>  <r_i_glide_rewards>  (266) 
-0.384366

>  <r_i_glide_evdw>  (266) 
-26.1403

>  <r_i_glide_ecoul>  (266) 
-6.73045

>  <r_i_glide_erotb>  (266) 
0.507947

>  <r_i_glide_esite>  (266) 
-0.123727

>  <r_i_glide_emodel>  (266) 
-36.6821

>  <r_i_glide_energy>  (266) 
-32.8708

>  <r_i_glide_einternal>  (266) 
2.50299

>  <r_i_glide_intrahb_reward>  (266) 
-0

>  <i_i_glide_confnum>  (266) 
5

>  <i_i_glide_posenum>  (266) 
40

>  <r_i_glide_eff_state_penalty>  (266) 
0

>  <ligand_id>  (266) 
85

>  <original_smiles>  (266) 
Cc1ncnc(C)c1C(=O)N1CCC(C)(N2CCC(C(C)(O)c3ccsc3)CC2)CC1

>  <smiles>  (266) 
[H]OC(c1c([H])sc([H])c1[H])(C([H])([H])[H])C1([H])C([H])([H])C([H])([H])[N+]([H])(C2(C([H])([H])[H])C([H])([H])C([H])([H])N(C(=O)c3c(C([H])([H])[H])nc([H])nc3C([H])([H])[H])C([H])([H])C2([H])[H])C([H])([H])C1([H])[H]

$$$$
87:0:0
     RDKit          3D

 75 80  0  0  1  0  0  0  0  0999 V2000
    3.4682   -2.1232   -1.4024 C   0  0  0  0  0  0  0  0  0  0  0  0
    4.5948   -2.7800   -0.5917 C   0  0  2  0  0  0  0  0  0  0  0  0
    4.4293   -4.2894   -0.6882 C   0  0  0  0  0  0  0  0  0  0  0  0
    5.5285   -4.9816    0.1003 C   0  0  0  0  0  0  0  0  0  0  0  0
    5.4503   -4.7234    1.6223 C   0  0  1  0  0  0  0  0  0  0  0  0
    6.7545   -5.3757    2.1410 C   0  0  0  0  0  0  0  0  0  0  0  0
    5.5853   -3.1984    1.8048 C   0  0  2  0  0  0  0  0  0  0  0  0
    5.3479   -2.8261    3.2533 C   0  0  0  0  0  0  0  0  0  0  0  0
    4.7172   -3.6043    4.1745 C   0  0  0  0  0  0  0  0  0  0  0  0
    3.8819   -2.7916    5.1343 C   0  0  0  0  0  0  0  0  0  0  0  0
    2.5000   -3.4417    4.9464 C   0  0  0  0  0  0  0  0  0  0  0  0
    2.8599   -4.9328    4.9501 C   0  0  1  0  0  0  0  0  0  0  0  0
    3.0367   -5.2351    6.4878 C   0  0  0  0  0  0  0  0  0  0  0  0
    1.8519   -5.9368    4.4206 C   0  0  2  0  0  0  0  0  0  0  0  0
    0.3394   -5.9028    4.7461 C   0  0  0  0  0  0  0  0  0  0  0  0
   -0.1251   -5.0403    5.4873 O   0  0  0  0  0  0  0  0  0  0  0  0
   -0.3553   -6.8770    4.1172 O   0  0  0  0  0  0  0  0  0  0  0  0
    0.1729   -7.8656    3.2123 C   0  0  0  0  0  0  0  0  0  0  0  0
   -0.3917   -9.2541    3.6082 C   0  0  0  0  0  0  0  0  0  0  0  0
   -0.5554   -7.5163    1.8921 C   0  0  0  0  0  0  0  0  0  0  0  0
    1.7641   -7.9199    3.1292 C   0  0  1  0  0  0  0  0  0  0  0  0
    2.2893   -7.1863    1.8498 C   0  0  0  0  0  0  0  0  0  0  0  0
    3.7416   -6.6786    1.7926 C   0  0  0  0  0  0  0  0  0  0  0  0
    4.1076   -5.2496    2.3606 C   0  0  1  0  0  0  0  0  0  0  0  0
    4.1491   -5.0226    3.9752 C   0  0  1  0  0  0  0  0  0  0  0  0
    4.8737   -6.2514    4.5780 C   0  0  0  0  0  0  0  0  0  0  0  0
    3.9778   -7.5366    4.5924 C   0  0  0  0  0  0  0  0  0  0  0  0
    2.3961   -7.3990    4.4560 C   0  0  1  0  0  0  0  0  0  0  0  0
    1.8881   -8.2912    5.6521 C   0  0  0  0  0  0  0  0  0  0  0  0
    4.6369   -2.3242    0.8956 C   0  0  1  0  0  0  0  0  0  0  0  0
    5.0027   -0.8183    0.9586 C   0  0  0  0  0  0  0  0  0  0  0  0
    2.5124   -2.3060   -0.9125 H   0  0  0  0  0  0  0  0  0  0  0  0
    3.3913   -2.5382   -2.4076 H   0  0  0  0  0  0  0  0  0  0  0  0
    3.5848   -1.0459   -1.5085 H   0  0  0  0  0  0  0  0  0  0  0  0
    5.5328   -2.5161   -1.0752 H   0  0  0  0  0  0  0  0  0  0  0  0
    3.4450   -4.6036   -0.3387 H   0  0  0  0  0  0  0  0  0  0  0  0
    4.5068   -4.6024   -1.7306 H   0  0  0  0  0  0  0  0  0  0  0  0
    5.5916   -6.0385   -0.1439 H   0  0  0  0  0  0  0  0  0  0  0  0
    6.4731   -4.5821   -0.2864 H   0  0  0  0  0  0  0  0  0  0  0  0
    6.9880   -5.0692    3.1601 H   0  0  0  0  0  0  0  0  0  0  0  0
    7.6251   -5.0717    1.5592 H   0  0  0  0  0  0  0  0  0  0  0  0
    6.7218   -6.4629    2.0955 H   0  0  0  0  0  0  0  0  0  0  0  0
    6.6084   -2.9027    1.5685 H   0  0  0  0  0  0  0  0  0  0  0  0
    5.5377   -1.8022    3.4942 H   0  0  0  0  0  0  0  0  0  0  0  0
    4.2854   -2.8743    6.1469 H   0  0  0  0  0  0  0  0  0  0  0  0
    3.8504   -1.7356    4.9016 H   0  0  0  0  0  0  0  0  0  0  0  0
    1.7965   -3.1493    5.7211 H   0  0  0  0  0  0  0  0  0  0  0  0
    2.0870   -3.1472    3.9812 H   0  0  0  0  0  0  0  0  0  0  0  0
    3.2994   -6.2576    6.7314 H   0  0  0  0  0  0  0  0  0  0  0  0
    2.1068   -5.0430    7.0320 H   0  0  0  0  0  0  0  0  0  0  0  0
    3.8112   -4.6592    6.9911 H   0  0  0  0  0  0  0  0  0  0  0  0
    1.7786   -5.5659    3.4134 H   0  0  0  0  0  0  0  0  0  0  0  0
   -0.0723  -10.0409    2.9213 H   0  0  0  0  0  0  0  0  0  0  0  0
   -1.4812   -9.2607    3.6129 H   0  0  0  0  0  0  0  0  0  0  0  0
   -0.1016   -9.5840    4.6066 H   0  0  0  0  0  0  0  0  0  0  0  0
   -0.2119   -8.1204    1.0582 H   0  0  0  0  0  0  0  0  0  0  0  0
   -0.4428   -6.4683    1.6189 H   0  0  0  0  0  0  0  0  0  0  0  0
   -1.6257   -7.6937    1.9907 H   0  0  0  0  0  0  0  0  0  0  0  0
    2.0764   -8.9602    3.0009 H   0  0  0  0  0  0  0  0  0  0  0  0
    2.1542   -7.8839    1.0231 H   0  0  0  0  0  0  0  0  0  0  0  0
    1.6832   -6.3300    1.5674 H   0  0  0  0  0  0  0  0  0  0  0  0
    4.4814   -7.4334    2.0217 H   0  0  0  0  0  0  0  0  0  0  0  0
    3.8257   -6.6195    0.7107 H   0  0  0  0  0  0  0  0  0  0  0  0
    3.3127   -4.5933    2.0112 H   0  0  0  0  0  0  0  0  0  0  0  0
    5.7915   -6.5281    4.0830 H   0  0  0  0  0  0  0  0  0  0  0  0
    5.2267   -6.0245    5.5857 H   0  0  0  0  0  0  0  0  0  0  0  0
    4.3473   -8.2804    3.8757 H   0  0  0  0  0  0  0  0  0  0  0  0
    4.2438   -8.0376    5.5210 H   0  0  0  0  0  0  0  0  0  0  0  0
    2.0470   -9.3496    5.4245 H   0  0  0  0  0  0  0  0  0  0  0  0
    0.8370   -8.1764    5.9117 H   0  0  0  0  0  0  0  0  0  0  0  0
    2.4059   -8.1196    6.5920 H   0  0  0  0  0  0  0  0  0  0  0  0
    3.6291   -2.4234    1.2944 H   0  0  0  0  0  0  0  0  0  0  0  0
    5.9966   -0.6298    0.5500 H   0  0  0  0  0  0  0  0  0  0  0  0
    4.9777   -0.4192    1.9713 H   0  0  0  0  0  0  0  0  0  0  0  0
    4.2976   -0.2091    0.3914 H   0  0  0  0  0  0  0  0  0  0  0  0
  1  2  1  0
  1 32  1  0
  1 33  1  0
  1 34  1  0
  2 30  1  0
  2  3  1  0
  2 35  1  6
  3  4  1  0
  3 36  1  0
  3 37  1  0
  4  5  1  0
  4 38  1  0
  4 39  1  0
  5 24  1  0
  5  6  1  1
  5  7  1  0
  6 40  1  0
  6 41  1  0
  6 42  1  0
  7  8  1  0
  7 30  1  0
  7 43  1  6
  8  9  2  0
  8 44  1  0
  9 25  1  0
  9 10  1  0
 10 11  1  0
 10 45  1  0
 10 46  1  0
 11 12  1  0
 11 47  1  0
 11 48  1  0
 12 25  1  0
 12 13  1  1
 12 14  1  0
 13 49  1  0
 13 50  1  0
 13 51  1  0
 14 28  1  0
 14 15  1  0
 14 52  1  6
 15 16  2  0
 15 17  1  0
 17 18  1  0
 18 19  1  0
 18 20  1  0
 18 21  1  0
 19 53  1  0
 19 54  1  0
 19 55  1  0
 20 56  1  0
 20 57  1  0
 20 58  1  0
 21 28  1  0
 21 22  1  0
 21 59  1  6
 22 23  1  0
 22 60  1  0
 22 61  1  0
 23 24  1  0
 23 62  1  0
 23 63  1  0
 24 25  1  0
 24 64  1  6
 25 26  1  1
 26 27  1  0
 26 65  1  0
 26 66  1  0
 27 28  1  0
 27 67  1  0
 27 68  1  0
 28 29  1  1
 29 69  1  0
 29 70  1  0
 29 71  1  0
 30 31  1  0
 30 72  1  1
 31 73  1  0
 31 74  1  0
 31 75  1  0
M  END
>  <i_m_ct_stereo_status>  (267) 
1

>  <s_m_source_file>  (267) 
/var/tmp/pbs.5076255.sched01/tmpnszqc94g/84e4epk0lh.sdf

>  <i_m_source_file_index>  (267) 
39

>  <i_lp_mmshare_version>  (267) 
48012

>  <i_f3d_flags>  (267) 
0

>  <s_epik_input>  (267) 
W0NIM11bQ0BIXTFbQ0BIXShbQ0gzXSlbQ0gyXVtDSDJdW0NAQF0oW0NIM10pKFtDQEBIXTFbQ0hdPUMyW0NAQF0zNDUpW0NASF00W0NIMl1bQ0gyXVtDQEhdNltDQEBdKFtDSDNdKShbQ0gyXVtDSDJdNSlbQ0hdKFtDQF0zKFtDSDNdKVtDSDJdW0NIMl0yKUMoPU8pT0M2KFtDSDNdKVtDSDNd

>  <s_epik_cmdline>  (267) 
J2VwaWtfcHl0aG9uJywgJy1waHQnLCAnMi4wJywgJy1waCcsICc3LjAnLCAnLXRuJywgJzgnLCAnLW1hJywgJzIwMCcsICctaW1hZScsICc8aW5maWxlLm1hZT4nLCAnLW9tYWUnLCAnPG91dGZpbGUubWFlPic=

>  <r_lp_tautomer_probability>  (267) 
1

>  <r_epik_Ionization_Penalty>  (267) 
0

>  <r_epik_Ionization_Penalty_Charging>  (267) 
0

>  <r_epik_Ionization_Penalty_Neutral>  (267) 
0

>  <r_epik_State_Penalty>  (267) 
-0

>  <r_epik_Charging_Adjusted_Penalty>  (267) 
0

>  <i_epik_Tot_Q>  (267) 
0

>  <i_epik_Tot_abs_Q>  (267) 
0

>  <s_epik_Chemistry_Notes>  (267) 
This compound has an ester and may undergo hydrolysis at high or low pH.

>  <s_lp_Force_Field>  (267) 
OPLS3e

>  <r_lp_Energy>  (267) 
150.292

>  <b_lp_Chiralities_Consistent>  (267) 
1

>  <s_lp_Variant>  (267) 
87:0-1

>  <s_i_glide_gridfile>  (267) 
pfpi4k_grid

>  <i_i_glide_lignum>  (267) 
39

>  <i_i_glide_rotatable_bonds>  (267) 
0

>  <r_i_docking_score>  (267) 
-2.40399

>  <r_i_glide_ligand_efficiency>  (267) 
-0.077548

>  <r_i_glide_ligand_efficiency_sa>  (267) 
-0.243608

>  <r_i_glide_ligand_efficiency_ln>  (267) 
-0.542173

>  <r_i_glide_gscore>  (267) 
-2.40399

>  <r_i_glide_lipo>  (267) 
-0.447436

>  <r_i_glide_hbond>  (267) 
0

>  <r_i_glide_metal>  (267) 
-0

>  <r_i_glide_rewards>  (267) 
-0.513692

>  <r_i_glide_evdw>  (267) 
-25.5448

>  <r_i_glide_ecoul>  (267) 
-0.997221

>  <r_i_glide_erotb>  (267) 
0

>  <r_i_glide_esite>  (267) 
-0.0160364

>  <r_i_glide_emodel>  (267) 
-30.2602

>  <r_i_glide_energy>  (267) 
-26.542

>  <r_i_glide_einternal>  (267) 
0

>  <r_i_glide_intrahb_reward>  (267) 
-0

>  <i_i_glide_confnum>  (267) 
1

>  <i_i_glide_posenum>  (267) 
6

>  <r_i_glide_eff_state_penalty>  (267) 
0

>  <ligand_id>  (267) 
87

>  <original_smiles>  (267) 
CC1CCC2(C)C(C=C3CCC4(C)C5C(=O)OC(C)(C)C6CCC2C34CCC65C)C1C

>  <smiles>  (267) 
[H]C1=C2C([H])([H])C([H])([H])C3(C([H])([H])[H])C4([H])C(=O)OC(C([H])([H])[H])(C([H])([H])[H])C5([H])C([H])([H])C([H])([H])C([H])(C23C([H])([H])C([H])([H])C45C([H])([H])[H])C2(C([H])([H])[H])C([H])([H])C([H])([H])C([H])(C([H])([H])[H])C([H])(C([H])([H])[H])C12[H]

$$$$
87:0:1
     RDKit          3D

 75 80  0  0  1  0  0  0  0  0999 V2000
    3.3209   -3.5328   -3.7497 C   0  0  0  0  0  0  0  0  0  0  0  0
    4.4865   -3.0532   -2.8639 C   0  0  2  0  0  0  0  0  0  0  0  0
    4.9919   -4.1811   -1.9798 C   0  0  0  0  0  0  0  0  0  0  0  0
    6.1465   -3.7041   -1.1165 C   0  0  0  0  0  0  0  0  0  0  0  0
    5.7255   -2.6532   -0.0811 C   0  0  1  0  0  0  0  0  0  0  0  0
    7.0897   -2.2065    0.5038 C   0  0  0  0  0  0  0  0  0  0  0  0
    5.1469   -1.4778   -0.8823 C   0  0  2  0  0  0  0  0  0  0  0  0
    4.5377   -0.4892    0.0787 C   0  0  0  0  0  0  0  0  0  0  0  0
    4.1943   -0.6996    1.3622 C   0  0  0  0  0  0  0  0  0  0  0  0
    2.9499    0.0670    1.7265 C   0  0  0  0  0  0  0  0  0  0  0  0
    2.0279   -1.0692    2.1771 C   0  0  0  0  0  0  0  0  0  0  0  0
    2.9785   -1.9118    3.0288 C   0  0  1  0  0  0  0  0  0  0  0  0
    3.0312   -1.0943    4.3836 C   0  0  0  0  0  0  0  0  0  0  0  0
    2.6025   -3.3434    3.3762 C   0  0  2  0  0  0  0  0  0  0  0  0
    1.2362   -3.7287    3.8883 C   0  0  0  0  0  0  0  0  0  0  0  0
    0.4123   -2.8614    4.1396 O   0  0  0  0  0  0  0  0  0  0  0  0
    1.0951   -5.0851    4.0552 O   0  0  0  0  0  0  0  0  0  0  0  0
    2.1330   -6.0785    3.8677 C   0  0  0  0  0  0  0  0  0  0  0  0
    2.1473   -7.0039    5.1171 C   0  0  0  0  0  0  0  0  0  0  0  0
    1.5542   -6.9735    2.7400 C   0  0  0  0  0  0  0  0  0  0  0  0
    3.5857   -5.4794    3.5984 C   0  0  1  0  0  0  0  0  0  0  0  0
    3.9395   -5.5405    2.0817 C   0  0  0  0  0  0  0  0  0  0  0  0
    5.0196   -4.6078    1.5061 C   0  0  0  0  0  0  0  0  0  0  0  0
    4.6488   -3.1579    1.0168 C   0  0  1  0  0  0  0  0  0  0  0  0
    4.3144   -2.0133    2.1372 C   0  0  1  0  0  0  0  0  0  0  0  0
    5.3706   -2.1461    3.2362 C   0  0  0  0  0  0  0  0  0  0  0  0
    5.1382   -3.3830    4.1665 C   0  0  0  0  0  0  0  0  0  0  0  0
    3.6984   -4.0489    4.2153 C   0  0  1  0  0  0  0  0  0  0  0  0
    3.4515   -4.1383    5.7666 C   0  0  0  0  0  0  0  0  0  0  0  0
    4.0970   -1.8646   -1.9805 C   0  0  1  0  0  0  0  0  0  0  0  0
    3.7848   -0.7298   -2.9516 C   0  0  0  0  0  0  0  0  0  0  0  0
    2.4462   -3.7656   -3.1329 H   0  0  0  0  0  0  0  0  0  0  0  0
    3.5957   -4.4554   -4.2701 H   0  0  0  0  0  0  0  0  0  0  0  0
    3.0032   -2.8415   -4.5241 H   0  0  0  0  0  0  0  0  0  0  0  0
    5.3067   -2.7843   -3.5237 H   0  0  0  0  0  0  0  0  0  0  0  0
    4.2021   -4.5919   -1.3577 H   0  0  0  0  0  0  0  0  0  0  0  0
    5.3250   -4.9776   -2.6354 H   0  0  0  0  0  0  0  0  0  0  0  0
    6.6697   -4.5182   -0.6319 H   0  0  0  0  0  0  0  0  0  0  0  0
    6.8837   -3.2794   -1.7933 H   0  0  0  0  0  0  0  0  0  0  0  0
    7.0232   -1.2758    1.0722 H   0  0  0  0  0  0  0  0  0  0  0  0
    7.8286   -2.0070   -0.2689 H   0  0  0  0  0  0  0  0  0  0  0  0
    7.5234   -2.9836    1.1355 H   0  0  0  0  0  0  0  0  0  0  0  0
    5.9694   -0.9882   -1.4010 H   0  0  0  0  0  0  0  0  0  0  0  0
    4.2293    0.4170   -0.3570 H   0  0  0  0  0  0  0  0  0  0  0  0
    3.1836    0.8107    2.4829 H   0  0  0  0  0  0  0  0  0  0  0  0
    2.5059    0.6049    0.8877 H   0  0  0  0  0  0  0  0  0  0  0  0
    1.1462   -0.6928    2.7066 H   0  0  0  0  0  0  0  0  0  0  0  0
    1.6920   -1.6244    1.3013 H   0  0  0  0  0  0  0  0  0  0  0  0
    3.6656   -1.5146    5.1546 H   0  0  0  0  0  0  0  0  0  0  0  0
    2.0366   -1.0262    4.8334 H   0  0  0  0  0  0  0  0  0  0  0  0
    3.3969   -0.0703    4.2962 H   0  0  0  0  0  0  0  0  0  0  0  0
    2.5382   -3.7316    2.3758 H   0  0  0  0  0  0  0  0  0  0  0  0
    2.8766   -7.8120    5.0113 H   0  0  0  0  0  0  0  0  0  0  0  0
    1.1794   -7.4777    5.2884 H   0  0  0  0  0  0  0  0  0  0  0  0
    2.3942   -6.4954    6.0436 H   0  0  0  0  0  0  0  0  0  0  0  0
    2.2519   -7.7462    2.4100 H   0  0  0  0  0  0  0  0  0  0  0  0
    1.2506   -6.3900    1.8743 H   0  0  0  0  0  0  0  0  0  0  0  0
    0.6506   -7.4917    3.0701 H   0  0  0  0  0  0  0  0  0  0  0  0
    4.3255   -6.1204    4.0877 H   0  0  0  0  0  0  0  0  0  0  0  0
    4.2529   -6.5618    1.8667 H   0  0  0  0  0  0  0  0  0  0  0  0
    3.0789   -5.3954    1.4278 H   0  0  0  0  0  0  0  0  0  0  0  0
    5.9731   -4.6524    2.0226 H   0  0  0  0  0  0  0  0  0  0  0  0
    5.2330   -5.1857    0.6187 H   0  0  0  0  0  0  0  0  0  0  0  0
    3.7110   -3.2712    0.4691 H   0  0  0  0  0  0  0  0  0  0  0  0
    6.3464   -2.2381    2.8168 H   0  0  0  0  0  0  0  0  0  0  0  0
    5.4460   -1.2249    3.8178 H   0  0  0  0  0  0  0  0  0  0  0  0
    5.8781   -4.1639    3.9811 H   0  0  0  0  0  0  0  0  0  0  0  0
    5.4599   -3.0513    5.1584 H   0  0  0  0  0  0  0  0  0  0  0  0
    4.0875   -4.9122    6.2072 H   0  0  0  0  0  0  0  0  0  0  0  0
    2.4309   -4.3586    6.0719 H   0  0  0  0  0  0  0  0  0  0  0  0
    3.6872   -3.2270    6.3123 H   0  0  0  0  0  0  0  0  0  0  0  0
    3.1707   -2.1251   -1.4705 H   0  0  0  0  0  0  0  0  0  0  0  0
    4.6339   -0.4160   -3.5497 H   0  0  0  0  0  0  0  0  0  0  0  0
    3.4565    0.1027   -2.3964 H   0  0  0  0  0  0  0  0  0  0  0  0
    2.9740   -0.9532   -3.6405 H   0  0  0  0  0  0  0  0  0  0  0  0
  1  2  1  0
  1 32  1  0
  1 33  1  0
  1 34  1  0
  2 30  1  0
  2  3  1  0
  2 35  1  6
  3  4  1  0
  3 36  1  0
  3 37  1  0
  4  5  1  0
  4 38  1  0
  4 39  1  0
  5 24  1  0
  5  6  1  1
  5  7  1  0
  6 40  1  0
  6 41  1  0
  6 42  1  0
  7  8  1  0
  7 30  1  0
  7 43  1  6
  8  9  2  0
  8 44  1  0
  9 25  1  0
  9 10  1  0
 10 11  1  0
 10 45  1  0
 10 46  1  0
 11 12  1  0
 11 47  1  0
 11 48  1  0
 12 25  1  0
 12 13  1  1
 12 14  1  0
 13 49  1  0
 13 50  1  0
 13 51  1  0
 14 28  1  0
 14 15  1  0
 14 52  1  6
 15 16  2  0
 15 17  1  0
 17 18  1  0
 18 19  1  0
 18 20  1  0
 18 21  1  0
 19 53  1  0
 19 54  1  0
 19 55  1  0
 20 56  1  0
 20 57  1  0
 20 58  1  0
 21 28  1  0
 21 22  1  0
 21 59  1  1
 22 23  1  0
 22 60  1  0
 22 61  1  0
 23 24  1  0
 23 62  1  0
 23 63  1  0
 24 25  1  0
 24 64  1  6
 25 26  1  1
 26 27  1  0
 26 65  1  0
 26 66  1  0
 27 28  1  0
 27 67  1  0
 27 68  1  0
 28 29  1  1
 29 69  1  0
 29 70  1  0
 29 71  1  0
 30 31  1  0
 30 72  1  1
 31 73  1  0
 31 74  1  0
 31 75  1  0
M  END
>  <i_m_ct_stereo_status>  (268) 
1

>  <s_m_source_file>  (268) 
/var/tmp/pbs.5076255.sched01/tmpnszqc94g/84e4epk0lh.sdf

>  <i_m_source_file_index>  (268) 
39

>  <i_lp_mmshare_version>  (268) 
48012

>  <i_f3d_flags>  (268) 
0

>  <s_epik_input>  (268) 
W0NIM11bQ0BIXTFbQ0BIXShbQ0gzXSlbQ0gyXVtDSDJdW0NAQF0oW0NIM10pKFtDQEBIXTFbQ0hdPUMyW0NAQF0zNDUpW0NASF00W0NIMl1bQ0gyXVtDQEhdNltDQEBdKFtDSDNdKShbQ0gyXVtDSDJdNSlbQ0hdKFtDQF0zKFtDSDNdKVtDSDJdW0NIMl0yKUMoPU8pT0M2KFtDSDNdKVtDSDNd

>  <s_epik_cmdline>  (268) 
J2VwaWtfcHl0aG9uJywgJy1waHQnLCAnMi4wJywgJy1waCcsICc3LjAnLCAnLXRuJywgJzgnLCAnLW1hJywgJzIwMCcsICctaW1hZScsICc8aW5maWxlLm1hZT4nLCAnLW9tYWUnLCAnPG91dGZpbGUubWFlPic=

>  <r_lp_tautomer_probability>  (268) 
1

>  <r_epik_Ionization_Penalty>  (268) 
0

>  <r_epik_Ionization_Penalty_Charging>  (268) 
0

>  <r_epik_Ionization_Penalty_Neutral>  (268) 
0

>  <r_epik_State_Penalty>  (268) 
-0

>  <r_epik_Charging_Adjusted_Penalty>  (268) 
0

>  <i_epik_Tot_Q>  (268) 
0

>  <i_epik_Tot_abs_Q>  (268) 
0

>  <s_epik_Chemistry_Notes>  (268) 
This compound has an ester and may undergo hydrolysis at high or low pH.

>  <s_lp_Force_Field>  (268) 
OPLS3e

>  <r_lp_Energy>  (268) 
150.292

>  <b_lp_Chiralities_Consistent>  (268) 
1

>  <s_lp_Variant>  (268) 
87:0-1

>  <s_i_glide_gridfile>  (268) 
pfpi4k_grid

>  <i_i_glide_lignum>  (268) 
39

>  <i_i_glide_rotatable_bonds>  (268) 
0

>  <r_i_docking_score>  (268) 
-2.34857

>  <r_i_glide_ligand_efficiency>  (268) 
-0.0757603

>  <r_i_glide_ligand_efficiency_sa>  (268) 
-0.237992

>  <r_i_glide_ligand_efficiency_ln>  (268) 
-0.529674

>  <r_i_glide_gscore>  (268) 
-2.34857

>  <r_i_glide_lipo>  (268) 
-0.763199

>  <r_i_glide_hbond>  (268) 
0

>  <r_i_glide_metal>  (268) 
-0

>  <r_i_glide_rewards>  (268) 
-0.535343

>  <r_i_glide_evdw>  (268) 
-23.7604

>  <r_i_glide_ecoul>  (268) 
0.919949

>  <r_i_glide_erotb>  (268) 
0

>  <r_i_glide_esite>  (268) 
0

>  <r_i_glide_emodel>  (268) 
-26.3776

>  <r_i_glide_energy>  (268) 
-22.8404

>  <r_i_glide_einternal>  (268) 
0

>  <r_i_glide_intrahb_reward>  (268) 
-0

>  <i_i_glide_confnum>  (268) 
1

>  <i_i_glide_posenum>  (268) 
4

>  <r_i_glide_eff_state_penalty>  (268) 
0

>  <ligand_id>  (268) 
87

>  <original_smiles>  (268) 
CC1CCC2(C)C(C=C3CCC4(C)C5C(=O)OC(C)(C)C6CCC2C34CCC65C)C1C

>  <smiles>  (268) 
[H]C1=C2C([H])([H])C([H])([H])C3(C([H])([H])[H])C4([H])C(=O)OC(C([H])([H])[H])(C([H])([H])[H])C5([H])C([H])([H])C([H])([H])C([H])(C23C([H])([H])C([H])([H])C45C([H])([H])[H])C2(C([H])([H])[H])C([H])([H])C([H])([H])C([H])(C([H])([H])[H])C([H])(C([H])([H])[H])C12[H]

$$$$
87:0:2
     RDKit          3D

 75 80  0  0  1  0  0  0  0  0999 V2000
   -1.7578   -7.6182    3.2855 C   0  0  0  0  0  0  0  0  0  0  0  0
   -0.4788   -7.7493    4.1350 C   0  0  2  0  0  0  0  0  0  0  0  0
   -0.2707   -6.4542    4.9179 C   0  0  0  0  0  0  0  0  0  0  0  0
    0.9899   -6.5637    5.7647 C   0  0  0  0  0  0  0  0  0  0  0  0
    2.2873   -6.6793    4.9186 C   0  0  1  0  0  0  0  0  0  0  0  0
    3.3759   -6.9449    5.9886 C   0  0  0  0  0  0  0  0  0  0  0  0
    2.1446   -7.9690    4.0844 C   0  0  2  0  0  0  0  0  0  0  0  0
    3.2959   -8.0825    3.1036 C   0  0  0  0  0  0  0  0  0  0  0  0
    4.0824   -7.0567    2.6922 C   0  0  0  0  0  0  0  0  0  0  0  0
    4.4672   -7.1626    1.2349 C   0  0  0  0  0  0  0  0  0  0  0  0
    3.9620   -5.8156    0.6915 C   0  0  0  0  0  0  0  0  0  0  0  0
    4.4376   -4.8452    1.7807 C   0  0  1  0  0  0  0  0  0  0  0  0
    5.9665   -4.6660    1.4272 C   0  0  0  0  0  0  0  0  0  0  0  0
    3.8301   -3.4503    1.8479 C   0  0  2  0  0  0  0  0  0  0  0  0
    3.5881   -2.5543    0.6169 C   0  0  0  0  0  0  0  0  0  0  0  0
    3.8896   -2.9406   -0.5110 O   0  0  0  0  0  0  0  0  0  0  0  0
    3.0393   -1.3520    0.9363 O   0  0  0  0  0  0  0  0  0  0  0  0
    2.6187   -0.9153    2.2471 C   0  0  0  0  0  0  0  0  0  0  0  0
    3.1063    0.5419    2.4461 C   0  0  0  0  0  0  0  0  0  0  0  0
    1.0896   -0.7765    2.1129 C   0  0  0  0  0  0  0  0  0  0  0  0
    3.1049   -1.8516    3.4421 C   0  0  1  0  0  0  0  0  0  0  0  0
    1.9583   -2.7960    3.9432 C   0  0  0  0  0  0  0  0  0  0  0  0
    2.2976   -4.0849    4.7173 C   0  0  0  0  0  0  0  0  0  0  0  0
    2.6076   -5.4274    3.9417 C   0  0  1  0  0  0  0  0  0  0  0  0
    4.0317   -5.5851    3.1613 C   0  0  1  0  0  0  0  0  0  0  0  0
    5.1171   -5.0256    4.1129 C   0  0  0  0  0  0  0  0  0  0  0  0
    5.0936   -3.4597    4.1940 C   0  0  0  0  0  0  0  0  0  0  0  0
    4.3983   -2.6151    3.0370 C   0  0  1  0  0  0  0  0  0  0  0  0
    5.5059   -1.5629    2.6561 C   0  0  0  0  0  0  0  0  0  0  0  0
    0.7835   -8.1073    3.2997 C   0  0  1  0  0  0  0  0  0  0  0  0
    0.6113   -9.5262    2.7025 C   0  0  0  0  0  0  0  0  0  0  0  0
   -1.6315   -6.9016    2.4772 H   0  0  0  0  0  0  0  0  0  0  0  0
   -2.5829   -7.2738    3.9074 H   0  0  0  0  0  0  0  0  0  0  0  0
   -2.0706   -8.5667    2.8489 H   0  0  0  0  0  0  0  0  0  0  0  0
   -0.6589   -8.5458    4.8583 H   0  0  0  0  0  0  0  0  0  0  0  0
   -0.2097   -5.6011    4.2457 H   0  0  0  0  0  0  0  0  0  0  0  0
   -1.1221   -6.2705    5.5751 H   0  0  0  0  0  0  0  0  0  0  0  0
    1.0465   -5.7726    6.5088 H   0  0  0  0  0  0  0  0  0  0  0  0
    0.8765   -7.4659    6.3742 H   0  0  0  0  0  0  0  0  0  0  0  0
    4.3088   -7.3096    5.5582 H   0  0  0  0  0  0  0  0  0  0  0  0
    3.0758   -7.7253    6.6883 H   0  0  0  0  0  0  0  0  0  0  0  0
    3.5805   -6.0608    6.5912 H   0  0  0  0  0  0  0  0  0  0  0  0
    2.2136   -8.8300    4.7513 H   0  0  0  0  0  0  0  0  0  0  0  0
    3.3388   -9.0084    2.5636 H   0  0  0  0  0  0  0  0  0  0  0  0
    5.5441   -7.3120    1.1397 H   0  0  0  0  0  0  0  0  0  0  0  0
    3.9953   -7.9923    0.7202 H   0  0  0  0  0  0  0  0  0  0  0  0
    4.3462   -5.5985   -0.3044 H   0  0  0  0  0  0  0  0  0  0  0  0
    2.8735   -5.8259    0.6358 H   0  0  0  0  0  0  0  0  0  0  0  0
    6.5188   -4.0079    2.0850 H   0  0  0  0  0  0  0  0  0  0  0  0
    6.0885   -4.2403    0.4270 H   0  0  0  0  0  0  0  0  0  0  0  0
    6.5601   -5.5788    1.4453 H   0  0  0  0  0  0  0  0  0  0  0  0
    2.8051   -3.7339    2.0096 H   0  0  0  0  0  0  0  0  0  0  0  0
    2.7775    0.9502    3.4042 H   0  0  0  0  0  0  0  0  0  0  0  0
    2.7260    1.1993    1.6649 H   0  0  0  0  0  0  0  0  0  0  0  0
    4.1879    0.6375    2.4172 H   0  0  0  0  0  0  0  0  0  0  0  0
    0.5809   -0.5440    3.0486 H   0  0  0  0  0  0  0  0  0  0  0  0
    0.6907   -1.6998    1.7046 H   0  0  0  0  0  0  0  0  0  0  0  0
    0.8162   -0.0040    1.3913 H   0  0  0  0  0  0  0  0  0  0  0  0
    3.3495   -1.2239    4.3026 H   0  0  0  0  0  0  0  0  0  0  0  0
    1.3207   -2.1923    4.5884 H   0  0  0  0  0  0  0  0  0  0  0  0
    1.2891   -3.1174    3.1481 H   0  0  0  0  0  0  0  0  0  0  0  0
    2.9406   -3.9291    5.5738 H   0  0  0  0  0  0  0  0  0  0  0  0
    1.3371   -4.2156    5.2033 H   0  0  0  0  0  0  0  0  0  0  0  0
    1.8581   -5.4760    3.1535 H   0  0  0  0  0  0  0  0  0  0  0  0
    5.0594   -5.3828    5.1287 H   0  0  0  0  0  0  0  0  0  0  0  0
    6.1033   -5.3824    3.8122 H   0  0  0  0  0  0  0  0  0  0  0  0
    4.7471   -3.1173    5.1740 H   0  0  0  0  0  0  0  0  0  0  0  0
    6.1355   -3.1799    4.2937 H   0  0  0  0  0  0  0  0  0  0  0  0
    5.6247   -0.8342    3.4633 H   0  0  0  0  0  0  0  0  0  0  0  0
    5.3425   -1.0023    1.7395 H   0  0  0  0  0  0  0  0  0  0  0  0
    6.4890   -1.9933    2.4932 H   0  0  0  0  0  0  0  0  0  0  0  0
    0.8211   -7.4115    2.4635 H   0  0  0  0  0  0  0  0  0  0  0  0
    0.5413  -10.2880    3.4816 H   0  0  0  0  0  0  0  0  0  0  0  0
    1.4254   -9.8043    2.0333 H   0  0  0  0  0  0  0  0  0  0  0  0
   -0.2920   -9.6017    2.0956 H   0  0  0  0  0  0  0  0  0  0  0  0
  1  2  1  0
  1 32  1  0
  1 33  1  0
  1 34  1  0
  2 30  1  0
  2  3  1  0
  2 35  1  1
  3  4  1  0
  3 36  1  0
  3 37  1  0
  4  5  1  0
  4 38  1  0
  4 39  1  0
  5 24  1  0
  5  6  1  1
  5  7  1  0
  6 40  1  0
  6 41  1  0
  6 42  1  0
  7  8  1  0
  7 30  1  0
  7 43  1  1
  8  9  2  0
  8 44  1  0
  9 25  1  0
  9 10  1  0
 10 11  1  0
 10 45  1  0
 10 46  1  0
 11 12  1  0
 11 47  1  0
 11 48  1  0
 12 25  1  0
 12 13  1  1
 12 14  1  0
 13 49  1  0
 13 50  1  0
 13 51  1  0
 14 28  1  0
 14 15  1  0
 14 52  1  1
 15 16  2  0
 15 17  1  0
 17 18  1  0
 18 19  1  0
 18 20  1  0
 18 21  1  0
 19 53  1  0
 19 54  1  0
 19 55  1  0
 20 56  1  0
 20 57  1  0
 20 58  1  0
 21 28  1  0
 21 22  1  0
 21 59  1  1
 22 23  1  0
 22 60  1  0
 22 61  1  0
 23 24  1  0
 23 62  1  0
 23 63  1  0
 24 25  1  0
 24 64  1  6
 25 26  1  1
 26 27  1  0
 26 65  1  0
 26 66  1  0
 27 28  1  0
 27 67  1  0
 27 68  1  0
 28 29  1  6
 29 69  1  0
 29 70  1  0
 29 71  1  0
 30 31  1  0
 30 72  1  6
 31 73  1  0
 31 74  1  0
 31 75  1  0
M  END
>  <i_m_ct_stereo_status>  (269) 
1

>  <s_m_source_file>  (269) 
/var/tmp/pbs.5076255.sched01/tmpnszqc94g/84e4epk0lh.sdf

>  <i_m_source_file_index>  (269) 
39

>  <i_lp_mmshare_version>  (269) 
48012

>  <i_f3d_flags>  (269) 
0

>  <s_epik_input>  (269) 
W0NIM11bQ0BIXTFbQ0BIXShbQ0gzXSlbQ0gyXVtDSDJdW0NAQF0oW0NIM10pKFtDQEBIXTFbQ0hdPUMyW0NAQF0zNDUpW0NASF00W0NIMl1bQ0gyXVtDQEhdNltDQEBdKFtDSDNdKShbQ0gyXVtDSDJdNSlbQ0hdKFtDQF0zKFtDSDNdKVtDSDJdW0NIMl0yKUMoPU8pT0M2KFtDSDNdKVtDSDNd

>  <s_epik_cmdline>  (269) 
J2VwaWtfcHl0aG9uJywgJy1waHQnLCAnMi4wJywgJy1waCcsICc3LjAnLCAnLXRuJywgJzgnLCAnLW1hJywgJzIwMCcsICctaW1hZScsICc8aW5maWxlLm1hZT4nLCAnLW9tYWUnLCAnPG91dGZpbGUubWFlPic=

>  <r_lp_tautomer_probability>  (269) 
1

>  <r_epik_Ionization_Penalty>  (269) 
0

>  <r_epik_Ionization_Penalty_Charging>  (269) 
0

>  <r_epik_Ionization_Penalty_Neutral>  (269) 
0

>  <r_epik_State_Penalty>  (269) 
-0

>  <r_epik_Charging_Adjusted_Penalty>  (269) 
0

>  <i_epik_Tot_Q>  (269) 
0

>  <i_epik_Tot_abs_Q>  (269) 
0

>  <s_epik_Chemistry_Notes>  (269) 
This compound has an ester and may undergo hydrolysis at high or low pH.

>  <s_lp_Force_Field>  (269) 
OPLS3e

>  <r_lp_Energy>  (269) 
150.292

>  <b_lp_Chiralities_Consistent>  (269) 
1

>  <s_lp_Variant>  (269) 
87:0-1

>  <s_i_glide_gridfile>  (269) 
pfpi4k_grid

>  <i_i_glide_lignum>  (269) 
39

>  <i_i_glide_rotatable_bonds>  (269) 
0

>  <r_i_docking_score>  (269) 
-2.30008

>  <r_i_glide_ligand_efficiency>  (269) 
-0.0741962

>  <r_i_glide_ligand_efficiency_sa>  (269) 
-0.233079

>  <r_i_glide_ligand_efficiency_ln>  (269) 
-0.518739

>  <r_i_glide_gscore>  (269) 
-2.30008

>  <r_i_glide_lipo>  (269) 
-0.476862

>  <r_i_glide_hbond>  (269) 
0

>  <r_i_glide_metal>  (269) 
-0

>  <r_i_glide_rewards>  (269) 
-0.513692

>  <r_i_glide_evdw>  (269) 
-27.1373

>  <r_i_glide_ecoul>  (269) 
0.45322

>  <r_i_glide_erotb>  (269) 
0

>  <r_i_glide_esite>  (269) 
-0.0206444

>  <r_i_glide_emodel>  (269) 
-30.236

>  <r_i_glide_energy>  (269) 
-26.6841

>  <r_i_glide_einternal>  (269) 
0

>  <r_i_glide_intrahb_reward>  (269) 
-0

>  <i_i_glide_confnum>  (269) 
1

>  <i_i_glide_posenum>  (269) 
7

>  <r_i_glide_eff_state_penalty>  (269) 
0

>  <ligand_id>  (269) 
87

>  <original_smiles>  (269) 
CC1CCC2(C)C(C=C3CCC4(C)C5C(=O)OC(C)(C)C6CCC2C34CCC65C)C1C

>  <smiles>  (269) 
[H]C1=C2C([H])([H])C([H])([H])C3(C([H])([H])[H])C4([H])C(=O)OC(C([H])([H])[H])(C([H])([H])[H])C5([H])C([H])([H])C([H])([H])C([H])(C23C([H])([H])C([H])([H])C45C([H])([H])[H])C2(C([H])([H])[H])C([H])([H])C([H])([H])C([H])(C([H])([H])[H])C([H])(C([H])([H])[H])C12[H]

$$$$
87:1:0
     RDKit          3D

 75 80  0  0  1  0  0  0  0  0999 V2000
    5.4869   -3.0266   -0.3199 C   0  0  0  0  0  0  0  0  0  0  0  0
    4.4590   -2.4747    0.6899 C   0  0  2  0  0  0  0  0  0  0  0  0
    3.9279   -1.1084    0.2006 C   0  0  0  0  0  0  0  0  0  0  0  0
    3.5515   -0.1242    1.3230 C   0  0  0  0  0  0  0  0  0  0  0  0
    2.8751   -0.7725    2.5609 C   0  0  1  0  0  0  0  0  0  0  0  0
    1.6486   -1.5994    2.0956 C   0  0  0  0  0  0  0  0  0  0  0  0
    3.9591   -1.7446    3.1804 C   0  0  2  0  0  0  0  0  0  0  0  0
    4.7311   -1.0230    4.2751 C   0  0  0  0  0  0  0  0  0  0  0  0
    4.1359   -0.1549    5.1049 C   0  0  0  0  0  0  0  0  0  0  0  0
    4.8845    0.9668    5.8041 C   0  0  0  0  0  0  0  0  0  0  0  0
    3.8118    2.0590    5.9705 C   0  0  0  0  0  0  0  0  0  0  0  0
    2.5229    1.2417    6.2016 C   0  0  1  0  0  0  0  0  0  0  0  0
    2.7084    0.7091    7.6750 C   0  0  0  0  0  0  0  0  0  0  0  0
    1.1200    1.9295    6.2566 C   0  0  1  0  0  0  0  0  0  0  0  0
    0.9983    3.3396    5.6223 C   0  0  0  0  0  0  0  0  0  0  0  0
    1.8490    4.1980    5.8443 O   0  0  0  0  0  0  0  0  0  0  0  0
   -0.0707    3.6204    4.8354 O   0  0  0  0  0  0  0  0  0  0  0  0
   -1.2183    2.7949    4.6648 C   0  0  0  0  0  0  0  0  0  0  0  0
   -2.2774    3.3004    5.6758 C   0  0  0  0  0  0  0  0  0  0  0  0
   -1.7447    3.1729    3.2560 C   0  0  0  0  0  0  0  0  0  0  0  0
   -0.8779    1.2644    4.7875 C   0  0  1  0  0  0  0  0  0  0  0  0
   -0.2646    0.6452    3.5026 C   0  0  0  0  0  0  0  0  0  0  0  0
    1.1253    1.1588    3.0685 C   0  0  0  0  0  0  0  0  0  0  0  0
    2.4067    0.4119    3.5447 C   0  0  1  0  0  0  0  0  0  0  0  0
    2.6362    0.1218    5.0929 C   0  0  1  0  0  0  0  0  0  0  0  0
    1.7565   -1.0394    5.5928 C   0  0  0  0  0  0  0  0  0  0  0  0
    0.3449   -0.6191    6.0846 C   0  0  0  0  0  0  0  0  0  0  0  0
   -0.0698    0.9132    6.0804 C   0  0  1  0  0  0  0  0  0  0  0  0
   -0.9941    1.0302    7.3262 C   0  0  0  0  0  0  0  0  0  0  0  0
    4.9627   -2.4084    2.1594 C   0  0  1  0  0  0  0  0  0  0  0  0
    5.4085   -3.7985    2.6679 C   0  0  0  0  0  0  0  0  0  0  0  0
    6.4021   -2.4370   -0.3241 H   0  0  0  0  0  0  0  0  0  0  0  0
    5.0766   -3.0056   -1.3291 H   0  0  0  0  0  0  0  0  0  0  0  0
    5.7495   -4.0642   -0.1157 H   0  0  0  0  0  0  0  0  0  0  0  0
    3.6422   -3.1926    0.6571 H   0  0  0  0  0  0  0  0  0  0  0  0
    4.6617   -0.6254   -0.4462 H   0  0  0  0  0  0  0  0  0  0  0  0
    3.0508   -1.2809   -0.4247 H   0  0  0  0  0  0  0  0  0  0  0  0
    4.4679    0.3653    1.6567 H   0  0  0  0  0  0  0  0  0  0  0  0
    2.9365    0.6669    0.8971 H   0  0  0  0  0  0  0  0  0  0  0  0
    1.0523   -1.9949    2.9105 H   0  0  0  0  0  0  0  0  0  0  0  0
    1.9091   -2.4705    1.5082 H   0  0  0  0  0  0  0  0  0  0  0  0
    0.9892   -1.0068    1.4662 H   0  0  0  0  0  0  0  0  0  0  0  0
    3.4300   -2.5532    3.6834 H   0  0  0  0  0  0  0  0  0  0  0  0
    5.8080   -1.0728    4.2471 H   0  0  0  0  0  0  0  0  0  0  0  0
    5.2835    0.6332    6.7605 H   0  0  0  0  0  0  0  0  0  0  0  0
    5.7171    1.3239    5.2030 H   0  0  0  0  0  0  0  0  0  0  0  0
    4.0439    2.7605    6.7751 H   0  0  0  0  0  0  0  0  0  0  0  0
    3.7481    2.6394    5.0498 H   0  0  0  0  0  0  0  0  0  0  0  0
    1.8144    0.2443    8.0880 H   0  0  0  0  0  0  0  0  0  0  0  0
    2.9455    1.5266    8.3614 H   0  0  0  0  0  0  0  0  0  0  0  0
    3.4990   -0.0348    7.7871 H   0  0  0  0  0  0  0  0  0  0  0  0
    1.0374    2.2590    7.2900 H   0  0  0  0  0  0  0  0  0  0  0  0
   -2.9994    2.5319    5.9413 H   0  0  0  0  0  0  0  0  0  0  0  0
   -2.8465    4.1405    5.2822 H   0  0  0  0  0  0  0  0  0  0  0  0
   -1.8250    3.6811    6.5883 H   0  0  0  0  0  0  0  0  0  0  0  0
   -2.6059    2.5709    2.9589 H   0  0  0  0  0  0  0  0  0  0  0  0
   -0.9735    3.0560    2.4930 H   0  0  0  0  0  0  0  0  0  0  0  0
   -2.0392    4.2226    3.1999 H   0  0  0  0  0  0  0  0  0  0  0  0
   -1.8409    0.7565    4.8619 H   0  0  0  0  0  0  0  0  0  0  0  0
   -0.2727   -0.4365    3.5615 H   0  0  0  0  0  0  0  0  0  0  0  0
   -0.9490    0.8169    2.6712 H   0  0  0  0  0  0  0  0  0  0  0  0
    1.1173    1.1517    1.9803 H   0  0  0  0  0  0  0  0  0  0  0  0
    1.2300    2.2202    3.2625 H   0  0  0  0  0  0  0  0  0  0  0  0
    3.1476    1.1913    3.3492 H   0  0  0  0  0  0  0  0  0  0  0  0
    1.6785   -1.8447    4.8783 H   0  0  0  0  0  0  0  0  0  0  0  0
    2.2670   -1.5230    6.4237 H   0  0  0  0  0  0  0  0  0  0  0  0
   -0.4028   -1.2092    5.5546 H   0  0  0  0  0  0  0  0  0  0  0  0
    0.2751   -1.0348    7.0935 H   0  0  0  0  0  0  0  0  0  0  0  0
   -1.9676    0.5732    7.1435 H   0  0  0  0  0  0  0  0  0  0  0  0
   -1.1521    2.0510    7.6593 H   0  0  0  0  0  0  0  0  0  0  0  0
   -0.5632    0.5441    8.2050 H   0  0  0  0  0  0  0  0  0  0  0  0
    5.8585   -1.7866    2.1216 H   0  0  0  0  0  0  0  0  0  0  0  0
    4.5974   -4.5260    2.6091 H   0  0  0  0  0  0  0  0  0  0  0  0
    5.7378   -3.7578    3.7070 H   0  0  0  0  0  0  0  0  0  0  0  0
    6.2442   -4.1932    2.0875 H   0  0  0  0  0  0  0  0  0  0  0  0
  1  2  1  0
  1 32  1  0
  1 33  1  0
  1 34  1  0
  2 30  1  0
  2  3  1  0
  2 35  1  1
  3  4  1  0
  3 36  1  0
  3 37  1  0
  4  5  1  0
  4 38  1  0
  4 39  1  0
  5 24  1  0
  5  6  1  6
  5  7  1  0
  6 40  1  0
  6 41  1  0
  6 42  1  0
  7  8  1  0
  7 30  1  0
  7 43  1  1
  8  9  2  0
  8 44  1  0
  9 25  1  0
  9 10  1  0
 10 11  1  0
 10 45  1  0
 10 46  1  0
 11 12  1  0
 11 47  1  0
 11 48  1  0
 12 25  1  0
 12 13  1  1
 12 14  1  0
 13 49  1  0
 13 50  1  0
 13 51  1  0
 14 28  1  0
 14 15  1  0
 14 52  1  1
 15 16  2  0
 15 17  1  0
 17 18  1  0
 18 19  1  0
 18 20  1  0
 18 21  1  0
 19 53  1  0
 19 54  1  0
 19 55  1  0
 20 56  1  0
 20 57  1  0
 20 58  1  0
 21 28  1  0
 21 22  1  0
 21 59  1  1
 22 23  1  0
 22 60  1  0
 22 61  1  0
 23 24  1  0
 23 62  1  0
 23 63  1  0
 24 25  1  0
 24 64  1  6
 25 26  1  1
 26 27  1  0
 26 65  1  0
 26 66  1  0
 27 28  1  0
 27 67  1  0
 27 68  1  0
 28 29  1  1
 29 69  1  0
 29 70  1  0
 29 71  1  0
 30 31  1  0
 30 72  1  6
 31 73  1  0
 31 74  1  0
 31 75  1  0
M  END
>  <i_m_ct_stereo_status>  (270) 
1

>  <s_m_source_file>  (270) 
/var/tmp/pbs.5076255.sched01/tmpnszqc94g/84e4epk0lh.sdf

>  <i_m_source_file_index>  (270) 
40

>  <i_lp_mmshare_version>  (270) 
48012

>  <i_f3d_flags>  (270) 
0

>  <s_epik_input>  (270) 
W0NIM11bQ0BIXTFbQ0BIXShbQ0gzXSlbQ0gyXVtDSDJdW0NAQF0oW0NIM10pKFtDQEBIXTFbQ0hdPUMyW0NAQF0zNDUpW0NASF00W0NIMl1bQ0gyXVtDQEhdNltDQEBdKFtDSDNdKShbQ0gyXVtDSDJdNSlbQ0hdKFtDQF0zKFtDSDNdKVtDSDJdW0NIMl0yKUMoPU8pT0M2KFtDSDNdKVtDSDNd

>  <s_epik_cmdline>  (270) 
J2VwaWtfcHl0aG9uJywgJy1waHQnLCAnMi4wJywgJy1waCcsICc3LjAnLCAnLXRuJywgJzgnLCAnLW1hJywgJzIwMCcsICctaW1hZScsICc8aW5maWxlLm1hZT4nLCAnLW9tYWUnLCAnPG91dGZpbGUubWFlPic=

>  <r_lp_tautomer_probability>  (270) 
1

>  <r_epik_Ionization_Penalty>  (270) 
0

>  <r_epik_Ionization_Penalty_Charging>  (270) 
0

>  <r_epik_Ionization_Penalty_Neutral>  (270) 
0

>  <r_epik_State_Penalty>  (270) 
-0

>  <r_epik_Charging_Adjusted_Penalty>  (270) 
0

>  <i_epik_Tot_Q>  (270) 
0

>  <i_epik_Tot_abs_Q>  (270) 
0

>  <s_epik_Chemistry_Notes>  (270) 
This compound has an ester and may undergo hydrolysis at high or low pH.

>  <s_lp_Force_Field>  (270) 
OPLS3e

>  <r_lp_Energy>  (270) 
127.09

>  <b_lp_Chiralities_Consistent>  (270) 
1

>  <s_lp_Variant>  (270) 
87:0-2

>  <s_i_glide_gridfile>  (270) 
pfpi4k_grid

>  <i_i_glide_lignum>  (270) 
40

>  <i_i_glide_rotatable_bonds>  (270) 
0

>  <r_i_docking_score>  (270) 
-2.00018

>  <r_i_glide_ligand_efficiency>  (270) 
-0.064522

>  <r_i_glide_ligand_efficiency_sa>  (270) 
-0.202688

>  <r_i_glide_ligand_efficiency_ln>  (270) 
-0.451102

>  <r_i_glide_gscore>  (270) 
-2.00018

>  <r_i_glide_lipo>  (270) 
-0.175154

>  <r_i_glide_hbond>  (270) 
0

>  <r_i_glide_metal>  (270) 
-0

>  <r_i_glide_rewards>  (270) 
-0.513692

>  <r_i_glide_evdw>  (270) 
-27.2434

>  <r_i_glide_ecoul>  (270) 
0.343201

>  <r_i_glide_erotb>  (270) 
0

>  <r_i_glide_esite>  (270) 
-0.000646798

>  <r_i_glide_emodel>  (270) 
-29.8349

>  <r_i_glide_energy>  (270) 
-26.9002

>  <r_i_glide_einternal>  (270) 
0

>  <r_i_glide_intrahb_reward>  (270) 
-0

>  <i_i_glide_confnum>  (270) 
1

>  <i_i_glide_posenum>  (270) 
1

>  <r_i_glide_eff_state_penalty>  (270) 
0

>  <ligand_id>  (270) 
87

>  <original_smiles>  (270) 
CC1CCC2(C)C(C=C3CCC4(C)C5C(=O)OC(C)(C)C6CCC2C34CCC65C)C1C

>  <smiles>  (270) 
[H]C1=C2C([H])([H])C([H])([H])C3(C([H])([H])[H])C4([H])C(=O)OC(C([H])([H])[H])(C([H])([H])[H])C5([H])C([H])([H])C([H])([H])C([H])(C23C([H])([H])C([H])([H])C45C([H])([H])[H])C2(C([H])([H])[H])C([H])([H])C([H])([H])C([H])(C([H])([H])[H])C([H])(C([H])([H])[H])C12[H]

$$$$
90:0:0
     RDKit          3D

 57 64  0  0  1  0  0  0  0  0999 V2000
   -0.6381    0.5465    2.1799 C   0  0  0  0  0  0  0  0  0  0  0  0
   -0.0853    0.0627    3.3061 C   0  0  0  0  0  0  0  0  0  0  0  0
   -0.9809   -0.4167    4.4434 C   0  0  0  0  0  0  0  0  0  0  0  0
    1.4327    0.0492    3.6109 C   0  0  2  0  0  0  0  0  0  0  0  0
    1.9105   -0.7896    4.7764 C   0  0  1  0  0  0  0  0  0  0  0  0
    1.8842   -2.5669    4.2438 C   0  0  0  0  0  0  0  0  0  0  0  0
    2.8821   -3.0037    2.7440 C   0  0  2  0  0  0  0  0  0  0  0  0
    2.4025   -4.2154    1.9276 C   0  0  0  0  0  0  0  0  0  0  0  0
    3.6422   -5.0949    1.5689 C   0  0  1  0  0  0  0  0  0  0  0  0
    3.3408   -6.6027    1.7380 C   0  0  0  0  0  0  0  0  0  0  0  0
    4.1927   -4.8218    0.1526 C   0  0  0  0  0  0  0  0  0  0  0  0
    5.7081   -4.7776    0.3015 C   0  0  0  0  0  0  0  0  0  0  0  0
    5.9205   -4.1182    1.6570 C   0  0  0  0  0  0  0  0  0  0  0  0
    4.7601   -4.6277    2.5245 C   0  0  1  0  0  0  0  0  0  0  0  0
    4.0454   -3.6433    3.4585 C   0  0  1  0  0  0  0  0  0  0  0  0
    4.7400   -2.5107    4.1623 C   0  0  0  0  0  0  0  0  0  0  0  0
    3.9910   -1.2319    3.8974 N   0  0  0  0  0  0  0  0  0  0  0  0
    4.6749   -0.1878    3.8148 C   0  0  1  0  0  0  0  0  0  0  0  0
    4.8018   -0.6587    2.2150 C   0  0  0  0  0  0  0  0  0  0  0  0
    5.7347   -0.4037    1.4678 O   0  0  0  0  0  0  0  0  0  0  0  0
    3.5116   -1.5565    1.6533 C   0  0  2  0  0  0  0  0  0  0  0  0
    2.6877   -0.1372    1.7207 C   0  0  1  0  0  0  0  0  0  0  0  0
    2.2979    1.0421    2.8408 C   0  0  2  0  0  0  0  0  0  0  0  0
    3.0790    1.5398    4.0797 C   0  0  0  0  0  0  0  0  0  0  0  0
    3.4110    0.2182    4.8149 C   0  0  1  0  0  0  0  0  0  0  0  0
    2.4256   -0.7432    2.9227 C   0  0  2  0  0  0  0  0  0  0  0  0
   -1.7170    0.5651    2.0699 H   0  0  0  0  0  0  0  0  0  0  0  0
   -0.0674    0.9283    1.3441 H   0  0  0  0  0  0  0  0  0  0  0  0
   -0.7758    0.1660    5.3439 H   0  0  0  0  0  0  0  0  0  0  0  0
   -0.8093   -1.4697    4.6692 H   0  0  0  0  0  0  0  0  0  0  0  0
   -2.0456   -0.2944    4.2233 H   0  0  0  0  0  0  0  0  0  0  0  0
    1.3597   -0.6297    5.6845 H   0  0  0  0  0  0  0  0  0  0  0  0
    2.1443   -3.1716    5.1063 H   0  0  0  0  0  0  0  0  0  0  0  0
    0.8549   -2.8400    4.0206 H   0  0  0  0  0  0  0  0  0  0  0  0
    1.7156   -4.8039    2.5436 H   0  0  0  0  0  0  0  0  0  0  0  0
    1.8504   -3.9174    1.0377 H   0  0  0  0  0  0  0  0  0  0  0  0
    4.2157   -7.2098    1.5089 H   0  0  0  0  0  0  0  0  0  0  0  0
    2.5406   -6.9263    1.0732 H   0  0  0  0  0  0  0  0  0  0  0  0
    3.0398   -6.8423    2.7562 H   0  0  0  0  0  0  0  0  0  0  0  0
    3.8838   -5.5731   -0.5707 H   0  0  0  0  0  0  0  0  0  0  0  0
    3.8406   -3.8616   -0.2185 H   0  0  0  0  0  0  0  0  0  0  0  0
    6.1117   -5.7912    0.3161 H   0  0  0  0  0  0  0  0  0  0  0  0
    6.1938   -4.2348   -0.5072 H   0  0  0  0  0  0  0  0  0  0  0  0
    6.8956   -4.3667    2.0796 H   0  0  0  0  0  0  0  0  0  0  0  0
    5.8870   -3.0411    1.5329 H   0  0  0  0  0  0  0  0  0  0  0  0
    5.1324   -5.4661    3.1094 H   0  0  0  0  0  0  0  0  0  0  0  0
    3.6462   -4.3050    4.2267 H   0  0  0  0  0  0  0  0  0  0  0  0
    4.6929   -2.6552    5.2382 H   0  0  0  0  0  0  0  0  0  0  0  0
    5.8071   -2.4731    3.9020 H   0  0  0  0  0  0  0  0  0  0  0  0
    5.6141   -0.2718    4.3556 H   0  0  0  0  0  0  0  0  0  0  0  0
    3.7254   -1.8664    0.6369 H   0  0  0  0  0  0  0  0  0  0  0  0
    1.8951   -0.1138    0.9737 H   0  0  0  0  0  0  0  0  0  0  0  0
    1.7374    1.8467    2.3545 H   0  0  0  0  0  0  0  0  0  0  0  0
    3.9427    2.1653    3.8547 H   0  0  0  0  0  0  0  0  0  0  0  0
    2.4184    2.1234    4.7175 H   0  0  0  0  0  0  0  0  0  0  0  0
    3.7511    0.3803    5.8327 H   0  0  0  0  0  0  0  0  0  0  0  0
    1.5635   -1.3242    2.4782 H   0  0  0  0  0  0  0  0  0  0  0  0
  1  2  2  0
  1 27  1  0
  1 28  1  0
  2  3  1  0
  4  2  1  6
  3 29  1  0
  3 30  1  0
  3 31  1  0
  4 23  1  0
  4 26  1  0
  4  5  1  0
  5 25  1  0
  5  6  1  0
  5 32  1  1
  6  7  1  0
  6 33  1  0
  6 34  1  0
  7 15  1  0
  7 21  1  0
  7  8  1  6
  8  9  1  0
  8 35  1  0
  8 36  1  0
  9 14  1  0
  9 10  1  6
  9 11  1  0
 10 37  1  0
 10 38  1  0
 10 39  1  0
 11 12  1  0
 11 40  1  0
 11 41  1  0
 12 13  1  0
 12 42  1  0
 12 43  1  0
 13 14  1  0
 13 44  1  0
 13 45  1  0
 14 15  1  0
 14 46  1  1
 15 16  1  0
 15 47  1  1
 16 17  1  0
 16 48  1  0
 16 49  1  0
 17 26  1  0
 17 18  1  0
 18 25  1  0
 18 19  1  0
 18 50  1  1
 19 20  2  0
 19 21  1  0
 21 22  1  0
 21 51  1  6
 22 23  1  0
 22 26  1  0
 22 52  1  6
 23 24  1  0
 23 53  1  6
 24 25  1  0
 24 54  1  0
 24 55  1  0
 25 56  1  1
 26 57  1  6
M  END
>  <i_m_ct_stereo_status>  (271) 
1

>  <s_m_source_file>  (271) 
/var/tmp/pbs.5076255.sched01/tmpajq2dbrl/12675ddggds.sdf

>  <i_m_source_file_index>  (271) 
4

>  <i_lp_mmshare_version>  (271) 
48012

>  <i_f3d_flags>  (271) 
2

>  <s_epik_input>  (271) 
Tz1DMVtDQEBIXTJbQ0hdKFtDQEhdMzQpW0NASF0oW0NIMl01KVtDQEBdMyhDKD1bQ0gyXSlbQ0gzXSlbQ0hdKFtDSDJdNilbQ0BIXTVbQ0BIXTFONFtDSDJdW0NAQEhdKFtDQF0yNjcpW0NASF04W0NAXShbQ0gyXTcpKFtDSDNdKVtDSDJdW0NIMl1bQ0gyXTg=

>  <s_epik_cmdline>  (271) 
J2VwaWtfcHl0aG9uJywgJy1waHQnLCAnMi4wJywgJy1waCcsICc3LjAnLCAnLXRuJywgJzgnLCAnLW1hJywgJzIwMCcsICctaW1hZScsICc8aW5maWxlLm1hZT4nLCAnLW9tYWUnLCAnPG91dGZpbGUubWFlPic=

>  <r_lp_tautomer_probability>  (271) 
1

>  <r_epik_Ionization_Penalty>  (271) 
0.280862

>  <r_epik_Ionization_Penalty_Charging>  (271) 
0

>  <r_epik_Ionization_Penalty_Neutral>  (271) 
0.280862

>  <r_epik_State_Penalty>  (271) 
0.273437

>  <r_epik_Charging_Adjusted_Penalty>  (271) 
0.273437

>  <i_epik_Tot_Q>  (271) 
0

>  <i_epik_Tot_abs_Q>  (271) 
0

>  <s_lp_Force_Field>  (271) 
OPLS3e

>  <r_lp_Energy>  (271) 
738.686

>  <b_lp_Chiralities_Consistent>  (271) 
0

>  <s_lp_Variant>  (271) 
90:0-1

>  <s_i_glide_gridfile>  (271) 
pfpi4k_grid

>  <i_i_glide_lignum>  (271) 
4

>  <i_i_glide_rotatable_bonds>  (271) 
1

>  <r_i_docking_score>  (271) 
-2.74654

>  <r_i_glide_ligand_efficiency>  (271) 
-0.105636

>  <r_i_glide_ligand_efficiency_sa>  (271) 
-0.312946

>  <r_i_glide_ligand_efficiency_ln>  (271) 
-0.645015

>  <r_i_glide_gscore>  (271) 
-2.74654

>  <r_i_glide_lipo>  (271) 
-0.31305

>  <r_i_glide_hbond>  (271) 
-0.162045

>  <r_i_glide_metal>  (271) 
-0

>  <r_i_glide_rewards>  (271) 
-1.1742

>  <r_i_glide_evdw>  (271) 
-23.1846

>  <r_i_glide_ecoul>  (271) 
-0.626403

>  <r_i_glide_erotb>  (271) 
0.155944

>  <r_i_glide_esite>  (271) 
0

>  <r_i_glide_emodel>  (271) 
-25.656

>  <r_i_glide_energy>  (271) 
-23.811

>  <r_i_glide_einternal>  (271) 
3.10291

>  <r_i_glide_intrahb_reward>  (271) 
-0

>  <i_i_glide_confnum>  (271) 
6

>  <i_i_glide_posenum>  (271) 
1

>  <r_i_glide_eff_state_penalty>  (271) 
0

>  <ligand_id>  (271) 
90

>  <original_smiles>  (271) 
C=C(C)C12C3CC45CC6(C)CCCC6C4CN4C6C(=O)C5C(C1CC63)C42

>  <smiles>  (271) 
[H]C([H])=C(C([H])([H])[H])C12C3([H])N4C([H])([H])C5([H])C6([H])C([H])([H])C([H])([H])C([H])([H])C6(C([H])([H])[H])C([H])([H])C56C([H])([H])C1([H])C1([H])C4([H])C(=O)C6([H])C3([H])C2([H])C1([H])[H]

$$$$
90:0:1
     RDKit          3D

 57 64  0  0  1  0  0  0  0  0999 V2000
    0.6924   -6.1843    2.8820 C   0  0  0  0  0  0  0  0  0  0  0  0
    1.3315   -5.1167    3.3969 C   0  0  0  0  0  0  0  0  0  0  0  0
    0.6104   -4.2180    4.3888 C   0  0  0  0  0  0  0  0  0  0  0  0
    2.8212   -4.8008    3.1212 C   0  0  2  0  0  0  0  0  0  0  0  0
    3.6240   -5.7986    2.3030 C   0  0  1  0  0  0  0  0  0  0  0  0
    3.1478   -5.5801    0.5204 C   0  0  0  0  0  0  0  0  0  0  0  0
    3.3560   -3.8829   -0.2014 C   0  0  2  0  0  0  0  0  0  0  0  0
    2.4052   -3.5034   -1.3569 C   0  0  0  0  0  0  0  0  0  0  0  0
    3.2521   -2.8177   -2.4779 C   0  0  1  0  0  0  0  0  0  0  0  0
    2.8525   -3.2878   -3.8925 C   0  0  0  0  0  0  0  0  0  0  0  0
    3.1990   -1.2861   -2.4261 C   0  0  0  0  0  0  0  0  0  0  0  0
    4.6083   -0.8143   -2.6496 C   0  0  0  0  0  0  0  0  0  0  0  0
    5.4642   -1.8432   -1.9217 C   0  0  0  0  0  0  0  0  0  0  0  0
    4.7253   -3.1606   -2.1478 C   0  0  1  0  0  0  0  0  0  0  0  0
    4.6202   -4.1372   -0.9735 C   0  0  1  0  0  0  0  0  0  0  0  0
    5.6808   -4.3375    0.0681 C   0  0  0  0  0  0  0  0  0  0  0  0
    5.0573   -4.2236    1.4373 N   0  0  0  0  0  0  0  0  0  0  0  0
    5.7928   -3.7198    2.3173 C   0  0  1  0  0  0  0  0  0  0  0  0
    5.1724   -2.2854    1.7070 C   0  0  0  0  0  0  0  0  0  0  0  0
    5.7433   -1.1969    1.7586 O   0  0  0  0  0  0  0  0  0  0  0  0
    3.6590   -2.4282    1.0197 C   0  0  2  0  0  0  0  0  0  0  0  0
    3.1372   -2.6163    2.5684 C   0  0  1  0  0  0  0  0  0  0  0  0
    3.4370   -3.6224    3.8763 C   0  0  2  0  0  0  0  0  0  0  0  0
    4.7171   -4.3621    4.3144 C   0  0  0  0  0  0  0  0  0  0  0  0
    5.1332   -5.0857    3.0127 C   0  0  1  0  0  0  0  0  0  0  0  0
    3.3265   -3.8976    2.1086 C   0  0  2  0  0  0  0  0  0  0  0  0
   -0.3320   -6.4035    3.1484 H   0  0  0  0  0  0  0  0  0  0  0  0
    1.1705   -6.8762    2.1986 H   0  0  0  0  0  0  0  0  0  0  0  0
    0.6126   -3.1788    4.0597 H   0  0  0  0  0  0  0  0  0  0  0  0
    1.0770   -4.2953    5.3686 H   0  0  0  0  0  0  0  0  0  0  0  0
   -0.4235   -4.5226    4.5204 H   0  0  0  0  0  0  0  0  0  0  0  0
    3.4773   -6.8170    2.6508 H   0  0  0  0  0  0  0  0  0  0  0  0
    3.6737   -6.3380   -0.0578 H   0  0  0  0  0  0  0  0  0  0  0  0
    2.0943   -5.8465    0.4168 H   0  0  0  0  0  0  0  0  0  0  0  0
    1.9285   -4.3986   -1.7501 H   0  0  0  0  0  0  0  0  0  0  0  0
    1.5606   -2.9308   -1.0113 H   0  0  0  0  0  0  0  0  0  0  0  0
    3.4581   -2.8162   -4.6642 H   0  0  0  0  0  0  0  0  0  0  0  0
    1.8085   -3.0655   -4.1062 H   0  0  0  0  0  0  0  0  0  0  0  0
    2.9801   -4.3577   -4.0040 H   0  0  0  0  0  0  0  0  0  0  0  0
    2.5166   -0.8532   -3.1555 H   0  0  0  0  0  0  0  0  0  0  0  0
    2.8789   -0.9548   -1.4421 H   0  0  0  0  0  0  0  0  0  0  0  0
    4.8339   -0.8124   -3.7171 H   0  0  0  0  0  0  0  0  0  0  0  0
    4.7642    0.1887   -2.2710 H   0  0  0  0  0  0  0  0  0  0  0  0
    6.4830   -1.8847   -2.2992 H   0  0  0  0  0  0  0  0  0  0  0  0
    5.5127   -1.5810   -0.8685 H   0  0  0  0  0  0  0  0  0  0  0  0
    5.1970   -3.6642   -2.9929 H   0  0  0  0  0  0  0  0  0  0  0  0
    4.5490   -5.0852   -1.4944 H   0  0  0  0  0  0  0  0  0  0  0  0
    6.0784   -5.3514    0.0032 H   0  0  0  0  0  0  0  0  0  0  0  0
    6.5346   -3.6717   -0.1112 H   0  0  0  0  0  0  0  0  0  0  0  0
    6.8485   -3.8439    2.0703 H   0  0  0  0  0  0  0  0  0  0  0  0
    3.3657   -1.4694    0.6031 H   0  0  0  0  0  0  0  0  0  0  0  0
    2.1107   -2.2624    2.6714 H   0  0  0  0  0  0  0  0  0  0  0  0
    2.8941   -3.2540    4.7480 H   0  0  0  0  0  0  0  0  0  0  0  0
    5.4788   -3.7143    4.7529 H   0  0  0  0  0  0  0  0  0  0  0  0
    4.4659   -5.1160    5.0626 H   0  0  0  0  0  0  0  0  0  0  0  0
    5.8984   -5.8450    3.1925 H   0  0  0  0  0  0  0  0  0  0  0  0
    2.2962   -3.9357    1.6538 H   0  0  0  0  0  0  0  0  0  0  0  0
  1  2  2  0
  1 27  1  0
  1 28  1  0
  2  3  1  0
  4  2  1  6
  3 29  1  0
  3 30  1  0
  3 31  1  0
  4 23  1  0
  4 26  1  0
  4  5  1  0
  5 25  1  0
  5  6  1  0
  5 32  1  1
  6  7  1  0
  6 33  1  0
  6 34  1  0
  7 15  1  0
  7 21  1  0
  7  8  1  6
  8  9  1  0
  8 35  1  0
  8 36  1  0
  9 14  1  0
  9 10  1  6
  9 11  1  0
 10 37  1  0
 10 38  1  0
 10 39  1  0
 11 12  1  0
 11 40  1  0
 11 41  1  0
 12 13  1  0
 12 42  1  0
 12 43  1  0
 13 14  1  0
 13 44  1  0
 13 45  1  0
 14 15  1  0
 14 46  1  6
 15 16  1  0
 15 47  1  6
 16 17  1  0
 16 48  1  0
 16 49  1  0
 17 26  1  0
 17 18  1  0
 18 25  1  0
 18 19  1  0
 18 50  1  6
 19 20  2  0
 19 21  1  0
 21 22  1  0
 21 51  1  6
 22 23  1  0
 22 26  1  0
 22 52  1  1
 23 24  1  0
 23 53  1  1
 24 25  1  0
 24 54  1  0
 24 55  1  0
 25 56  1  1
 26 57  1  6
M  END
>  <i_m_ct_stereo_status>  (272) 
1

>  <s_m_source_file>  (272) 
/var/tmp/pbs.5076255.sched01/tmpajq2dbrl/12675ddggds.sdf

>  <i_m_source_file_index>  (272) 
4

>  <i_lp_mmshare_version>  (272) 
48012

>  <i_f3d_flags>  (272) 
2

>  <s_epik_input>  (272) 
Tz1DMVtDQEBIXTJbQ0hdKFtDQEhdMzQpW0NASF0oW0NIMl01KVtDQEBdMyhDKD1bQ0gyXSlbQ0gzXSlbQ0hdKFtDSDJdNilbQ0BIXTVbQ0BIXTFONFtDSDJdW0NAQEhdKFtDQF0yNjcpW0NASF04W0NAXShbQ0gyXTcpKFtDSDNdKVtDSDJdW0NIMl1bQ0gyXTg=

>  <s_epik_cmdline>  (272) 
J2VwaWtfcHl0aG9uJywgJy1waHQnLCAnMi4wJywgJy1waCcsICc3LjAnLCAnLXRuJywgJzgnLCAnLW1hJywgJzIwMCcsICctaW1hZScsICc8aW5maWxlLm1hZT4nLCAnLW9tYWUnLCAnPG91dGZpbGUubWFlPic=

>  <r_lp_tautomer_probability>  (272) 
1

>  <r_epik_Ionization_Penalty>  (272) 
0.280862

>  <r_epik_Ionization_Penalty_Charging>  (272) 
0

>  <r_epik_Ionization_Penalty_Neutral>  (272) 
0.280862

>  <r_epik_State_Penalty>  (272) 
0.273437

>  <r_epik_Charging_Adjusted_Penalty>  (272) 
0.273437

>  <i_epik_Tot_Q>  (272) 
0

>  <i_epik_Tot_abs_Q>  (272) 
0

>  <s_lp_Force_Field>  (272) 
OPLS3e

>  <r_lp_Energy>  (272) 
738.686

>  <b_lp_Chiralities_Consistent>  (272) 
0

>  <s_lp_Variant>  (272) 
90:0-1

>  <s_i_glide_gridfile>  (272) 
pfpi4k_grid

>  <i_i_glide_lignum>  (272) 
4

>  <i_i_glide_rotatable_bonds>  (272) 
1

>  <r_i_docking_score>  (272) 
-2.38435

>  <r_i_glide_ligand_efficiency>  (272) 
-0.0917056

>  <r_i_glide_ligand_efficiency_sa>  (272) 
-0.271678

>  <r_i_glide_ligand_efficiency_ln>  (272) 
-0.559956

>  <r_i_glide_gscore>  (272) 
-2.38435

>  <r_i_glide_lipo>  (272) 
-0.31303

>  <r_i_glide_hbond>  (272) 
0

>  <r_i_glide_metal>  (272) 
-0

>  <r_i_glide_rewards>  (272) 
-1.0998

>  <r_i_glide_evdw>  (272) 
-22.9768

>  <r_i_glide_ecoul>  (272) 
0.142494

>  <r_i_glide_erotb>  (272) 
0.155944

>  <r_i_glide_esite>  (272) 
0

>  <r_i_glide_emodel>  (272) 
-24.5268

>  <r_i_glide_energy>  (272) 
-22.8343

>  <r_i_glide_einternal>  (272) 
2.34194

>  <r_i_glide_intrahb_reward>  (272) 
-0

>  <i_i_glide_confnum>  (272) 
5

>  <i_i_glide_posenum>  (272) 
25

>  <r_i_glide_eff_state_penalty>  (272) 
0

>  <ligand_id>  (272) 
90

>  <original_smiles>  (272) 
C=C(C)C12C3CC45CC6(C)CCCC6C4CN4C6C(=O)C5C(C1CC63)C42

>  <smiles>  (272) 
[H]C([H])=C(C([H])([H])[H])C12C3([H])N4C([H])([H])C5([H])C6([H])C([H])([H])C([H])([H])C([H])([H])C6(C([H])([H])[H])C([H])([H])C56C([H])([H])C1([H])C1([H])C4([H])C(=O)C6([H])C3([H])C2([H])C1([H])[H]

$$$$
90:0:2
     RDKit          3D

 57 64  0  0  1  0  0  0  0  0999 V2000
    0.6097   -4.6704    4.3876 C   0  0  0  0  0  0  0  0  0  0  0  0
    1.3361   -5.1923    3.3748 C   0  0  0  0  0  0  0  0  0  0  0  0
    0.6775   -6.2541    2.5017 C   0  0  0  0  0  0  0  0  0  0  0  0
    2.8219   -4.8262    3.1097 C   0  0  2  0  0  0  0  0  0  0  0  0
    3.6518   -5.7994    2.2918 C   0  0  1  0  0  0  0  0  0  0  0  0
    3.2106   -5.5994    0.4929 C   0  0  0  0  0  0  0  0  0  0  0  0
    3.3831   -3.9010   -0.2088 C   0  0  2  0  0  0  0  0  0  0  0  0
    2.4198   -3.5229   -1.3628 C   0  0  0  0  0  0  0  0  0  0  0  0
    3.2649   -2.8389   -2.4844 C   0  0  1  0  0  0  0  0  0  0  0  0
    2.8700   -3.3102   -3.8988 C   0  0  0  0  0  0  0  0  0  0  0  0
    3.1983   -1.3130   -2.4347 C   0  0  0  0  0  0  0  0  0  0  0  0
    4.6162   -0.8307   -2.6552 C   0  0  0  0  0  0  0  0  0  0  0  0
    5.4663   -1.8489   -1.9219 C   0  0  0  0  0  0  0  0  0  0  0  0
    4.7397   -3.1692   -2.1519 C   0  0  1  0  0  0  0  0  0  0  0  0
    4.6490   -4.1381   -0.9794 C   0  0  1  0  0  0  0  0  0  0  0  0
    5.7175   -4.3229    0.0671 C   0  0  0  0  0  0  0  0  0  0  0  0
    5.0747   -4.2210    1.4308 N   0  0  0  0  0  0  0  0  0  0  0  0
    5.8042   -3.7152    2.3191 C   0  0  1  0  0  0  0  0  0  0  0  0
    5.1589   -2.2970    1.7057 C   0  0  0  0  0  0  0  0  0  0  0  0
    5.7296   -1.2025    1.7537 O   0  0  0  0  0  0  0  0  0  0  0  0
    3.6509   -2.4516    1.0196 C   0  0  2  0  0  0  0  0  0  0  0  0
    3.1127   -2.6464    2.5621 C   0  0  1  0  0  0  0  0  0  0  0  0
    3.4187   -3.6392    3.8705 C   0  0  2  0  0  0  0  0  0  0  0  0
    4.7162   -4.3489    4.3118 C   0  0  0  0  0  0  0  0  0  0  0  0
    5.1461   -5.0773    3.0148 C   0  0  1  0  0  0  0  0  0  0  0  0
    3.3322   -3.9231    2.0925 C   0  0  2  0  0  0  0  0  0  0  0  0
   -0.3982   -5.0105    4.5280 H   0  0  0  0  0  0  0  0  0  0  0  0
    0.9666   -3.9308    5.0794 H   0  0  0  0  0  0  0  0  0  0  0  0
    1.2896   -7.1521    2.4708 H   0  0  0  0  0  0  0  0  0  0  0  0
    0.5162   -5.8709    1.4942 H   0  0  0  0  0  0  0  0  0  0  0  0
   -0.2923   -6.5628    2.8944 H   0  0  0  0  0  0  0  0  0  0  0  0
    3.5516   -6.8234    2.6505 H   0  0  0  0  0  0  0  0  0  0  0  0
    3.8064   -6.3330   -0.0554 H   0  0  0  0  0  0  0  0  0  0  0  0
    2.1883   -5.9181    0.2749 H   0  0  0  0  0  0  0  0  0  0  0  0
    1.9372   -4.4166   -1.7433 H   0  0  0  0  0  0  0  0  0  0  0  0
    1.5671   -2.9658   -1.0092 H   0  0  0  0  0  0  0  0  0  0  0  0
    3.4751   -2.8330   -4.6675 H   0  0  0  0  0  0  0  0  0  0  0  0
    1.8243   -3.0941   -4.1162 H   0  0  0  0  0  0  0  0  0  0  0  0
    3.0058   -4.3780   -4.0183 H   0  0  0  0  0  0  0  0  0  0  0  0
    2.5242   -0.8853   -3.1702 H   0  0  0  0  0  0  0  0  0  0  0  0
    2.8786   -0.9839   -1.4516 H   0  0  0  0  0  0  0  0  0  0  0  0
    4.8317   -0.8300   -3.7215 H   0  0  0  0  0  0  0  0  0  0  0  0
    4.7522    0.1708   -2.2731 H   0  0  0  0  0  0  0  0  0  0  0  0
    6.4882   -1.8914   -2.2974 H   0  0  0  0  0  0  0  0  0  0  0  0
    5.5091   -1.5861   -0.8678 H   0  0  0  0  0  0  0  0  0  0  0  0
    5.2127   -3.6738   -2.9958 H   0  0  0  0  0  0  0  0  0  0  0  0
    4.5931   -5.0873   -1.5018 H   0  0  0  0  0  0  0  0  0  0  0  0
    6.0964   -5.3484    0.0101 H   0  0  0  0  0  0  0  0  0  0  0  0
    6.5749   -3.6577   -0.1231 H   0  0  0  0  0  0  0  0  0  0  0  0
    6.8570   -3.8528    2.0588 H   0  0  0  0  0  0  0  0  0  0  0  0
    3.3597   -1.4941    0.6053 H   0  0  0  0  0  0  0  0  0  0  0  0
    2.0728   -2.3253    2.6716 H   0  0  0  0  0  0  0  0  0  0  0  0
    2.8547   -3.2666    4.7248 H   0  0  0  0  0  0  0  0  0  0  0  0
    5.4739   -3.6941    4.7550 H   0  0  0  0  0  0  0  0  0  0  0  0
    4.4682   -5.1081    5.0575 H   0  0  0  0  0  0  0  0  0  0  0  0
    5.9135   -5.8342    3.2029 H   0  0  0  0  0  0  0  0  0  0  0  0
    2.3045   -3.9857    1.6263 H   0  0  0  0  0  0  0  0  0  0  0  0
  1  2  2  0
  1 27  1  0
  1 28  1  0
  2  3  1  0
  4  2  1  6
  3 29  1  0
  3 30  1  0
  3 31  1  0
  4 23  1  0
  4 26  1  0
  4  5  1  0
  5 25  1  0
  5  6  1  0
  5 32  1  1
  6  7  1  0
  6 33  1  0
  6 34  1  0
  7 15  1  0
  7 21  1  0
  7  8  1  6
  8  9  1  0
  8 35  1  0
  8 36  1  0
  9 14  1  0
  9 10  1  6
  9 11  1  0
 10 37  1  0
 10 38  1  0
 10 39  1  0
 11 12  1  0
 11 40  1  0
 11 41  1  0
 12 13  1  0
 12 42  1  0
 12 43  1  0
 13 14  1  0
 13 44  1  0
 13 45  1  0
 14 15  1  0
 14 46  1  6
 15 16  1  0
 15 47  1  6
 16 17  1  0
 16 48  1  0
 16 49  1  0
 17 26  1  0
 17 18  1  0
 18 25  1  0
 18 19  1  0
 18 50  1  6
 19 20  2  0
 19 21  1  0
 21 22  1  0
 21 51  1  6
 22 23  1  0
 22 26  1  0
 22 52  1  1
 23 24  1  0
 23 53  1  1
 24 25  1  0
 24 54  1  0
 24 55  1  0
 25 56  1  1
 26 57  1  6
M  END
>  <i_m_ct_stereo_status>  (273) 
1

>  <s_m_source_file>  (273) 
/var/tmp/pbs.5076255.sched01/tmpajq2dbrl/12675ddggds.sdf

>  <i_m_source_file_index>  (273) 
4

>  <i_lp_mmshare_version>  (273) 
48012

>  <i_f3d_flags>  (273) 
2

>  <s_epik_input>  (273) 
Tz1DMVtDQEBIXTJbQ0hdKFtDQEhdMzQpW0NASF0oW0NIMl01KVtDQEBdMyhDKD1bQ0gyXSlbQ0gzXSlbQ0hdKFtDSDJdNilbQ0BIXTVbQ0BIXTFONFtDSDJdW0NAQEhdKFtDQF0yNjcpW0NASF04W0NAXShbQ0gyXTcpKFtDSDNdKVtDSDJdW0NIMl1bQ0gyXTg=

>  <s_epik_cmdline>  (273) 
J2VwaWtfcHl0aG9uJywgJy1waHQnLCAnMi4wJywgJy1waCcsICc3LjAnLCAnLXRuJywgJzgnLCAnLW1hJywgJzIwMCcsICctaW1hZScsICc8aW5maWxlLm1hZT4nLCAnLW9tYWUnLCAnPG91dGZpbGUubWFlPic=

>  <r_lp_tautomer_probability>  (273) 
1

>  <r_epik_Ionization_Penalty>  (273) 
0.280862

>  <r_epik_Ionization_Penalty_Charging>  (273) 
0

>  <r_epik_Ionization_Penalty_Neutral>  (273) 
0.280862

>  <r_epik_State_Penalty>  (273) 
0.273437

>  <r_epik_Charging_Adjusted_Penalty>  (273) 
0.273437

>  <i_epik_Tot_Q>  (273) 
0

>  <i_epik_Tot_abs_Q>  (273) 
0

>  <s_lp_Force_Field>  (273) 
OPLS3e

>  <r_lp_Energy>  (273) 
738.686

>  <b_lp_Chiralities_Consistent>  (273) 
0

>  <s_lp_Variant>  (273) 
90:0-1

>  <s_i_glide_gridfile>  (273) 
pfpi4k_grid

>  <i_i_glide_lignum>  (273) 
4

>  <i_i_glide_rotatable_bonds>  (273) 
1

>  <r_i_docking_score>  (273) 
-2.37693

>  <r_i_glide_ligand_efficiency>  (273) 
-0.0914204

>  <r_i_glide_ligand_efficiency_sa>  (273) 
-0.270833

>  <r_i_glide_ligand_efficiency_ln>  (273) 
-0.558214

>  <r_i_glide_gscore>  (273) 
-2.37693

>  <r_i_glide_lipo>  (273) 
-0.310999

>  <r_i_glide_hbond>  (273) 
0

>  <r_i_glide_metal>  (273) 
-0

>  <r_i_glide_rewards>  (273) 
-1.0983

>  <r_i_glide_evdw>  (273) 
-24.1886

>  <r_i_glide_ecoul>  (273) 
0.572363

>  <r_i_glide_erotb>  (273) 
0.155944

>  <r_i_glide_esite>  (273) 
0

>  <r_i_glide_emodel>  (273) 
-24.9577

>  <r_i_glide_energy>  (273) 
-23.6163

>  <r_i_glide_einternal>  (273) 
2.84136

>  <r_i_glide_intrahb_reward>  (273) 
-0

>  <i_i_glide_confnum>  (273) 
3

>  <i_i_glide_posenum>  (273) 
35

>  <r_i_glide_eff_state_penalty>  (273) 
0

>  <ligand_id>  (273) 
90

>  <original_smiles>  (273) 
C=C(C)C12C3CC45CC6(C)CCCC6C4CN4C6C(=O)C5C(C1CC63)C42

>  <smiles>  (273) 
[H]C([H])=C(C([H])([H])[H])C12C3([H])N4C([H])([H])C5([H])C6([H])C([H])([H])C([H])([H])C([H])([H])C6(C([H])([H])[H])C([H])([H])C56C([H])([H])C1([H])C1([H])C4([H])C(=O)C6([H])C3([H])C2([H])C1([H])[H]

$$$$
90:1:0
     RDKit          3D

 58 65  0  0  1  0  0  0  0  0999 V2000
   -1.4277   -8.8055    2.3836 C   0  0  0  0  0  0  0  0  0  0  0  0
   -0.5228   -8.5020    3.3371 C   0  0  0  0  0  0  0  0  0  0  0  0
   -0.7869   -7.3151    4.2478 C   0  0  0  0  0  0  0  0  0  0  0  0
    0.7415   -9.3653    3.5751 C   0  0  2  0  0  0  0  0  0  0  0  0
    1.3678  -10.0397    2.3889 C   0  0  1  0  0  0  0  0  0  0  0  0
    2.3907   -8.7624    1.5111 C   0  0  0  0  0  0  0  0  0  0  0  0
    3.6758   -7.8515    2.5136 C   0  0  2  0  0  0  0  0  0  0  0  0
    3.9551   -6.3931    2.0963 C   0  0  0  0  0  0  0  0  0  0  0  0
    5.4956   -6.1668    2.1561 C   0  0  1  0  0  0  0  0  0  0  0  0
    5.9907   -5.3524    0.9399 C   0  0  0  0  0  0  0  0  0  0  0  0
    5.9618   -5.4961    3.4631 C   0  0  0  0  0  0  0  0  0  0  0  0
    7.2128   -6.2573    3.8983 C   0  0  0  0  0  0  0  0  0  0  0  0
    6.9251   -7.6993    3.4947 C   0  0  0  0  0  0  0  0  0  0  0  0
    6.1145   -7.5841    2.1927 C   0  0  1  0  0  0  0  0  0  0  0  0
    4.8974   -8.5102    1.9776 C   0  0  1  0  0  0  0  0  0  0  0  0
    4.7458   -9.9007    2.5439 C   0  0  0  0  0  0  0  0  0  0  0  0
    3.4276  -10.0796    3.3421 N   0  0  1  0  0  0  0  0  0  0  0  0
    3.5078  -10.9158    4.3324 C   0  0  1  0  0  0  0  0  0  0  0  0
    4.1181   -9.5492    5.0937 C   0  0  0  0  0  0  0  0  0  0  0  0
    4.8384   -9.5789    6.0890 O   0  0  0  0  0  0  0  0  0  0  0  0
    3.6382   -8.0830    4.4314 C   0  0  2  0  0  0  0  0  0  0  0  0
    2.2052   -8.4845    5.1085 C   0  0  1  0  0  0  0  0  0  0  0  0
    1.0587   -9.7001    5.0244 C   0  0  2  0  0  0  0  0  0  0  0  0
    1.2367  -11.2034    4.8198 C   0  0  0  0  0  0  0  0  0  0  0  0
    2.0816  -11.2557    3.5264 C   0  0  1  0  0  0  0  0  0  0  0  0
    2.0954   -8.8920    3.7965 C   0  0  2  0  0  0  0  0  0  0  0  0
   -2.3193   -8.2100    2.2528 H   0  0  0  0  0  0  0  0  0  0  0  0
   -1.3211   -9.6509    1.7190 H   0  0  0  0  0  0  0  0  0  0  0  0
    0.0460   -6.6156    4.2384 H   0  0  0  0  0  0  0  0  0  0  0  0
   -0.9614   -7.6582    5.2656 H   0  0  0  0  0  0  0  0  0  0  0  0
   -1.6789   -6.7686    3.9430 H   0  0  0  0  0  0  0  0  0  0  0  0
    0.6312  -10.5101    1.7414 H   0  0  0  0  0  0  0  0  0  0  0  0
    2.8311   -9.2421    0.6349 H   0  0  0  0  0  0  0  0  0  0  0  0
    1.7083   -8.0167    1.0961 H   0  0  0  0  0  0  0  0  0  0  0  0
    3.6065   -6.2519    1.0709 H   0  0  0  0  0  0  0  0  0  0  0  0
    3.4053   -5.6852    2.7149 H   0  0  0  0  0  0  0  0  0  0  0  0
    7.0701   -5.2037    0.9677 H   0  0  0  0  0  0  0  0  0  0  0  0
    5.5342   -4.3633    0.9108 H   0  0  0  0  0  0  0  0  0  0  0  0
    5.7568   -5.8454   -0.0035 H   0  0  0  0  0  0  0  0  0  0  0  0
    6.1534   -4.4304    3.3440 H   0  0  0  0  0  0  0  0  0  0  0  0
    5.2036   -5.5830    4.2384 H   0  0  0  0  0  0  0  0  0  0  0  0
    8.0836   -5.8821    3.3585 H   0  0  0  0  0  0  0  0  0  0  0  0
    7.4162   -6.1521    4.9638 H   0  0  0  0  0  0  0  0  0  0  0  0
    7.8450   -8.2720    3.3620 H   0  0  0  0  0  0  0  0  0  0  0  0
    6.3538   -8.1781    4.2825 H   0  0  0  0  0  0  0  0  0  0  0  0
    6.8185   -7.7075    1.3670 H   0  0  0  0  0  0  0  0  0  0  0  0
    4.8262   -8.5869    0.8889 H   0  0  0  0  0  0  0  0  0  0  0  0
    4.7273  -10.6148    1.7215 H   0  0  0  0  0  0  0  0  0  0  0  0
    5.6473  -10.1815    3.0975 H   0  0  0  0  0  0  0  0  0  0  0  0
    4.2674  -11.6807    4.1627 H   0  0  0  0  0  0  0  0  0  0  0  0
    4.1481   -7.2844    4.9605 H   0  0  0  0  0  0  0  0  0  0  0  0
    1.6758   -7.5774    5.3885 H   0  0  0  0  0  0  0  0  0  0  0  0
    0.2512   -9.4810    5.7186 H   0  0  0  0  0  0  0  0  0  0  0  0
    1.6851  -11.7029    5.6788 H   0  0  0  0  0  0  0  0  0  0  0  0
    0.2651  -11.6675    4.6434 H   0  0  0  0  0  0  0  0  0  0  0  0
    2.0924  -12.2596    3.0961 H   0  0  0  0  0  0  0  0  0  0  0  0
    1.7364   -7.8911    3.4340 H   0  0  0  0  0  0  0  0  0  0  0  0
    2.9276  -10.6183    2.6514 H   0  0  0  0  0  0  0  0  0  0  0  0
  1  2  2  0
  1 27  1  0
  1 28  1  0
  2  3  1  0
  4  2  1  1
  3 29  1  0
  3 30  1  0
  3 31  1  0
  4 23  1  0
  4 26  1  0
  4  5  1  0
  5 25  1  0
  5  6  1  0
  5 32  1  6
  6  7  1  0
  6 33  1  0
  6 34  1  0
  7 15  1  0
  7 21  1  0
  7  8  1  1
  8  9  1  0
  8 35  1  0
  8 36  1  0
  9 14  1  0
  9 10  1  6
  9 11  1  0
 10 37  1  0
 10 38  1  0
 10 39  1  0
 11 12  1  0
 11 40  1  0
 11 41  1  0
 12 13  1  0
 12 42  1  0
 12 43  1  0
 13 14  1  0
 13 44  1  0
 13 45  1  0
 14 15  1  0
 14 46  1  6
 15 16  1  0
 15 47  1  6
 16 17  1  0
 16 48  1  0
 16 49  1  0
 17 26  1  0
 17 18  1  0
 17 58  1  6
 18 25  1  0
 18 19  1  0
 18 50  1  6
 19 20  2  0
 19 21  1  0
 21 22  1  0
 21 51  1  1
 22 23  1  0
 22 26  1  0
 22 52  1  6
 23 24  1  0
 23 53  1  1
 24 25  1  0
 24 54  1  0
 24 55  1  0
 25 56  1  6
 26 57  1  6
M  CHG  1  17   1
M  END
>  <i_m_ct_stereo_status>  (274) 
1

>  <s_m_source_file>  (274) 
/var/tmp/pbs.5076255.sched01/tmpajq2dbrl/12675ddggds.sdf

>  <i_m_source_file_index>  (274) 
5

>  <i_lp_mmshare_version>  (274) 
48012

>  <i_f3d_flags>  (274) 
2

>  <s_epik_input>  (274) 
Tz1DMVtDQEBIXTJbQ0hdKFtDQEhdMzQpW0NASF0oW0NIMl01KVtDQEBdMyhDKD1bQ0gyXSlbQ0gzXSlbQ0hdKFtDSDJdNilbQ0BIXTVbQ0BIXTFONFtDSDJdW0NAQEhdKFtDQF0yNjcpW0NASF04W0NAXShbQ0gyXTcpKFtDSDNdKVtDSDJdW0NIMl1bQ0gyXTg=

>  <s_epik_cmdline>  (274) 
J2VwaWtfcHl0aG9uJywgJy1waHQnLCAnMi4wJywgJy1waCcsICc3LjAnLCAnLXRuJywgJzgnLCAnLW1hJywgJzIwMCcsICctaW1hZScsICc8aW5maWxlLm1hZT4nLCAnLW9tYWUnLCAnPG91dGZpbGUubWFlPic=

>  <r_lp_tautomer_probability>  (274) 
0.99995

>  <r_epik_Ionization_Penalty>  (274) 
0.577163

>  <r_epik_Ionization_Penalty_Charging>  (274) 
0.577163

>  <r_epik_Ionization_Penalty_Neutral>  (274) 
1.16468e-09

>  <r_epik_State_Penalty>  (274) 
0.589613

>  <r_epik_Charging_Adjusted_Penalty>  (274) 
1.16678

>  <i_epik_Tot_Q>  (274) 
1

>  <i_epik_Tot_abs_Q>  (274) 
1

>  <s_lp_Force_Field>  (274) 
OPLS3e

>  <r_lp_Energy>  (274) 
743.923

>  <b_lp_Chiralities_Consistent>  (274) 
0

>  <s_lp_Variant>  (274) 
90:0-2

>  <s_i_glide_gridfile>  (274) 
pfpi4k_grid

>  <i_i_glide_lignum>  (274) 
5

>  <i_i_glide_rotatable_bonds>  (274) 
1

>  <r_i_docking_score>  (274) 
-3.19708

>  <r_i_glide_ligand_efficiency>  (274) 
-0.122964

>  <r_i_glide_ligand_efficiency_sa>  (274) 
-0.364282

>  <r_i_glide_ligand_efficiency_ln>  (274) 
-0.750823

>  <r_i_glide_gscore>  (274) 
-3.19708

>  <r_i_glide_lipo>  (274) 
-0.608114

>  <r_i_glide_hbond>  (274) 
0

>  <r_i_glide_metal>  (274) 
-0

>  <r_i_glide_rewards>  (274) 
-1.0192

>  <r_i_glide_evdw>  (274) 
-23.0131

>  <r_i_glide_ecoul>  (274) 
-3.68844

>  <r_i_glide_erotb>  (274) 
0.155148

>  <r_i_glide_esite>  (274) 
-0.0209885

>  <r_i_glide_emodel>  (274) 
-33.2923

>  <r_i_glide_energy>  (274) 
-26.7015

>  <r_i_glide_einternal>  (274) 
0.969177

>  <r_i_glide_intrahb_reward>  (274) 
-0

>  <i_i_glide_confnum>  (274) 
2

>  <i_i_glide_posenum>  (274) 
9

>  <r_i_glide_eff_state_penalty>  (274) 
0

>  <ligand_id>  (274) 
90

>  <original_smiles>  (274) 
C=C(C)C12C3CC45CC6(C)CCCC6C4CN4C6C(=O)C5C(C1CC63)C42

>  <smiles>  (274) 
[H]C([H])=C(C([H])([H])[H])C12C3([H])C([H])([H])C45C([H])([H])C6(C([H])([H])[H])C([H])([H])C([H])([H])C([H])([H])C6([H])C4([H])C([H])([H])[N+]4([H])C6([H])C(=O)C5([H])C([H])(C1([H])C([H])([H])C36[H])C24[H]

$$$$
90:1:1
     RDKit          3D

 58 65  0  0  1  0  0  0  0  0999 V2000
    0.9124   -6.6421    3.5469 C   0  0  0  0  0  0  0  0  0  0  0  0
    0.5835   -7.9261    3.3095 C   0  0  0  0  0  0  0  0  0  0  0  0
   -0.7864   -8.2568    2.7211 C   0  0  0  0  0  0  0  0  0  0  0  0
    1.4630   -9.1720    3.5801 C   0  0  2  0  0  0  0  0  0  0  0  0
    2.1089   -9.8437    2.4031 C   0  0  1  0  0  0  0  0  0  0  0  0
    3.6524   -8.8858    2.0140 C   0  0  0  0  0  0  0  0  0  0  0  0
    4.8789   -8.6287    3.4005 C   0  0  2  0  0  0  0  0  0  0  0  0
    5.6805   -7.3099    3.3599 C   0  0  0  0  0  0  0  0  0  0  0  0
    7.1562   -7.6350    3.7386 C   0  0  1  0  0  0  0  0  0  0  0  0
    8.1489   -6.8791    2.8268 C   0  0  0  0  0  0  0  0  0  0  0  0
    7.4860   -7.3546    5.2182 C   0  0  0  0  0  0  0  0  0  0  0  0
    8.3008   -8.5562    5.6952 C   0  0  0  0  0  0  0  0  0  0  0  0
    7.6876   -9.7388    4.9545 C   0  0  0  0  0  0  0  0  0  0  0  0
    7.2823   -9.1687    3.5849 C   0  0  1  0  0  0  0  0  0  0  0  0
    5.9288   -9.5835    2.9644 C   0  0  1  0  0  0  0  0  0  0  0  0
    5.2276  -10.9039    3.1868 C   0  0  0  0  0  0  0  0  0  0  0  0
    3.7655  -10.7240    3.6853 N   0  0  1  0  0  0  0  0  0  0  0  0
    3.3536  -11.6681    4.4782 C   0  0  1  0  0  0  0  0  0  0  0  0
    4.1565  -10.7172    5.6043 C   0  0  0  0  0  0  0  0  0  0  0  0
    4.5947  -11.1324    6.6767 O   0  0  0  0  0  0  0  0  0  0  0  0
    4.3204   -9.0984    5.1917 C   0  0  2  0  0  0  0  0  0  0  0  0
    2.7115   -9.0645    5.4995 C   0  0  1  0  0  0  0  0  0  0  0  0
    1.3030   -9.7891    4.9634 C   0  0  2  0  0  0  0  0  0  0  0  0
    1.0531  -11.2229    4.4861 C   0  0  0  0  0  0  0  0  0  0  0  0
    2.1227  -11.3784    3.3785 C   0  0  1  0  0  0  0  0  0  0  0  0
    2.7991   -9.2303    4.1351 C   0  0  2  0  0  0  0  0  0  0  0  0
    0.2156   -5.8519    3.3110 H   0  0  0  0  0  0  0  0  0  0  0  0
    1.8522   -6.3301    3.9772 H   0  0  0  0  0  0  0  0  0  0  0  0
   -1.3345   -8.9526    3.3587 H   0  0  0  0  0  0  0  0  0  0  0  0
   -0.6889   -8.7073    1.7344 H   0  0  0  0  0  0  0  0  0  0  0  0
   -1.4096   -7.3697    2.6068 H   0  0  0  0  0  0  0  0  0  0  0  0
    1.4259   -9.8970    1.5593 H   0  0  0  0  0  0  0  0  0  0  0  0
    4.1201   -9.3471    1.1418 H   0  0  0  0  0  0  0  0  0  0  0  0
    3.3513   -7.8991    1.6557 H   0  0  0  0  0  0  0  0  0  0  0  0
    5.6444   -6.9137    2.3427 H   0  0  0  0  0  0  0  0  0  0  0  0
    5.2410   -6.5530    4.0067 H   0  0  0  0  0  0  0  0  0  0  0  0
    9.1833   -7.1164    3.0735 H   0  0  0  0  0  0  0  0  0  0  0  0
    8.0385   -5.8001    2.9266 H   0  0  0  0  0  0  0  0  0  0  0  0
    8.0091   -7.1250    1.7744 H   0  0  0  0  0  0  0  0  0  0  0  0
    8.0210   -6.4157    5.3643 H   0  0  0  0  0  0  0  0  0  0  0  0
    6.5760   -7.2856    5.8105 H   0  0  0  0  0  0  0  0  0  0  0  0
    9.3459   -8.4316    5.4066 H   0  0  0  0  0  0  0  0  0  0  0  0
    8.2686   -8.6777    6.7780 H   0  0  0  0  0  0  0  0  0  0  0  0
    8.3881  -10.5704    4.8666 H   0  0  0  0  0  0  0  0  0  0  0  0
    6.8275  -10.0958    5.5096 H   0  0  0  0  0  0  0  0  0  0  0  0
    8.0874   -9.4040    2.8897 H   0  0  0  0  0  0  0  0  0  0  0  0
    6.0967   -9.4796    1.8880 H   0  0  0  0  0  0  0  0  0  0  0  0
    5.1816  -11.4407    2.2419 H   0  0  0  0  0  0  0  0  0  0  0  0
    5.8407  -11.5514    3.8203 H   0  0  0  0  0  0  0  0  0  0  0  0
    3.8569  -12.6163    4.2874 H   0  0  0  0  0  0  0  0  0  0  0  0
    4.9095   -8.6065    5.9579 H   0  0  0  0  0  0  0  0  0  0  0  0
    2.4247   -8.0723    5.8457 H   0  0  0  0  0  0  0  0  0  0  0  0
    0.4661   -9.3852    5.5268 H   0  0  0  0  0  0  0  0  0  0  0  0
    1.0949  -11.9614    5.2844 H   0  0  0  0  0  0  0  0  0  0  0  0
    0.0597  -11.2912    4.0439 H   0  0  0  0  0  0  0  0  0  0  0  0
    1.9286  -12.2597    2.7651 H   0  0  0  0  0  0  0  0  0  0  0  0
    2.8717   -8.1340    3.9397 H   0  0  0  0  0  0  0  0  0  0  0  0
    3.3060  -10.9555    2.8154 H   0  0  0  0  0  0  0  0  0  0  0  0
  1  2  2  0
  1 27  1  0
  1 28  1  0
  2  3  1  0
  4  2  1  6
  3 29  1  0
  3 30  1  0
  3 31  1  0
  4 23  1  0
  4 26  1  0
  4  5  1  0
  5 25  1  0
  5  6  1  0
  5 32  1  6
  6  7  1  0
  6 33  1  0
  6 34  1  0
  7 15  1  0
  7 21  1  0
  7  8  1  1
  8  9  1  0
  8 35  1  0
  8 36  1  0
  9 14  1  0
  9 10  1  6
  9 11  1  0
 10 37  1  0
 10 38  1  0
 10 39  1  0
 11 12  1  0
 11 40  1  0
 11 41  1  0
 12 13  1  0
 12 42  1  0
 12 43  1  0
 13 14  1  0
 13 44  1  0
 13 45  1  0
 14 15  1  0
 14 46  1  6
 15 16  1  0
 15 47  1  6
 16 17  1  0
 16 48  1  0
 16 49  1  0
 17 26  1  0
 17 18  1  0
 17 58  1  6
 18 25  1  0
 18 19  1  0
 18 50  1  6
 19 20  2  0
 19 21  1  0
 21 22  1  0
 21 51  1  1
 22 23  1  0
 22 26  1  0
 22 52  1  6
 23 24  1  0
 23 53  1  1
 24 25  1  0
 24 54  1  0
 24 55  1  0
 25 56  1  6
 26 57  1  6
M  CHG  1  17   1
M  END
>  <i_m_ct_stereo_status>  (275) 
1

>  <s_m_source_file>  (275) 
/var/tmp/pbs.5076255.sched01/tmpajq2dbrl/12675ddggds.sdf

>  <i_m_source_file_index>  (275) 
5

>  <i_lp_mmshare_version>  (275) 
48012

>  <i_f3d_flags>  (275) 
2

>  <s_epik_input>  (275) 
Tz1DMVtDQEBIXTJbQ0hdKFtDQEhdMzQpW0NASF0oW0NIMl01KVtDQEBdMyhDKD1bQ0gyXSlbQ0gzXSlbQ0hdKFtDSDJdNilbQ0BIXTVbQ0BIXTFONFtDSDJdW0NAQEhdKFtDQF0yNjcpW0NASF04W0NAXShbQ0gyXTcpKFtDSDNdKVtDSDJdW0NIMl1bQ0gyXTg=

>  <s_epik_cmdline>  (275) 
J2VwaWtfcHl0aG9uJywgJy1waHQnLCAnMi4wJywgJy1waCcsICc3LjAnLCAnLXRuJywgJzgnLCAnLW1hJywgJzIwMCcsICctaW1hZScsICc8aW5maWxlLm1hZT4nLCAnLW9tYWUnLCAnPG91dGZpbGUubWFlPic=

>  <r_lp_tautomer_probability>  (275) 
0.99995

>  <r_epik_Ionization_Penalty>  (275) 
0.577163

>  <r_epik_Ionization_Penalty_Charging>  (275) 
0.577163

>  <r_epik_Ionization_Penalty_Neutral>  (275) 
1.16468e-09

>  <r_epik_State_Penalty>  (275) 
0.589613

>  <r_epik_Charging_Adjusted_Penalty>  (275) 
1.16678

>  <i_epik_Tot_Q>  (275) 
1

>  <i_epik_Tot_abs_Q>  (275) 
1

>  <s_lp_Force_Field>  (275) 
OPLS3e

>  <r_lp_Energy>  (275) 
743.923

>  <b_lp_Chiralities_Consistent>  (275) 
0

>  <s_lp_Variant>  (275) 
90:0-2

>  <s_i_glide_gridfile>  (275) 
pfpi4k_grid

>  <i_i_glide_lignum>  (275) 
5

>  <i_i_glide_rotatable_bonds>  (275) 
1

>  <r_i_docking_score>  (275) 
-2.85528

>  <r_i_glide_ligand_efficiency>  (275) 
-0.109819

>  <r_i_glide_ligand_efficiency_sa>  (275) 
-0.325337

>  <r_i_glide_ligand_efficiency_ln>  (275) 
-0.670554

>  <r_i_glide_gscore>  (275) 
-2.85528

>  <r_i_glide_lipo>  (275) 
-0.277959

>  <r_i_glide_hbond>  (275) 
0

>  <r_i_glide_metal>  (275) 
-0

>  <r_i_glide_rewards>  (275) 
-1.0192

>  <r_i_glide_evdw>  (275) 
-22.6423

>  <r_i_glide_ecoul>  (275) 
-3.56112

>  <r_i_glide_erotb>  (275) 
0.155148

>  <r_i_glide_esite>  (275) 
-0.0469893

>  <r_i_glide_emodel>  (275) 
-32.7313

>  <r_i_glide_energy>  (275) 
-26.2034

>  <r_i_glide_einternal>  (275) 
0.00482929

>  <r_i_glide_intrahb_reward>  (275) 
-0

>  <i_i_glide_confnum>  (275) 
5

>  <i_i_glide_posenum>  (275) 
31

>  <r_i_glide_eff_state_penalty>  (275) 
0

>  <ligand_id>  (275) 
90

>  <original_smiles>  (275) 
C=C(C)C12C3CC45CC6(C)CCCC6C4CN4C6C(=O)C5C(C1CC63)C42

>  <smiles>  (275) 
[H]C([H])=C(C([H])([H])[H])C12C3([H])C([H])([H])C45C([H])([H])C6(C([H])([H])[H])C([H])([H])C([H])([H])C([H])([H])C6([H])C4([H])C([H])([H])[N+]4([H])C6([H])C(=O)C5([H])C([H])(C1([H])C([H])([H])C36[H])C24[H]

$$$$
90:1:2
     RDKit          3D

 58 65  0  0  1  0  0  0  0  0999 V2000
    0.7046   -6.8608    3.6350 C   0  0  0  0  0  0  0  0  0  0  0  0
    0.5459   -8.1733    3.3866 C   0  0  0  0  0  0  0  0  0  0  0  0
   -0.8106   -8.6907    2.9122 C   0  0  0  0  0  0  0  0  0  0  0  0
    1.6196   -9.2787    3.5401 C   0  0  2  0  0  0  0  0  0  0  0  0
    2.1973   -9.8682    2.2890 C   0  0  1  0  0  0  0  0  0  0  0  0
    3.5285   -8.7139    1.7033 C   0  0  0  0  0  0  0  0  0  0  0  0
    4.8746   -8.2681    2.9194 C   0  0  2  0  0  0  0  0  0  0  0  0
    5.4700   -6.8517    2.7775 C   0  0  0  0  0  0  0  0  0  0  0  0
    7.0124   -6.9614    2.9622 C   0  0  1  0  0  0  0  0  0  0  0  0
    7.7653   -6.0927    1.9293 C   0  0  0  0  0  0  0  0  0  0  0  0
    7.4877   -6.6151    4.3871 C   0  0  0  0  0  0  0  0  0  0  0  0
    8.5184   -7.6823    4.7511 C   0  0  0  0  0  0  0  0  0  0  0  0
    7.9866   -8.9508    4.0941 C   0  0  0  0  0  0  0  0  0  0  0  0
    7.3301   -8.4631    2.7932 C   0  0  1  0  0  0  0  0  0  0  0  0
    5.9826   -9.0735    2.3493 C   0  0  1  0  0  0  0  0  0  0  0  0
    5.5078  -10.4760    2.6559 C   0  0  0  0  0  0  0  0  0  0  0  0
    4.1117  -10.4937    3.3394 N   0  0  1  0  0  0  0  0  0  0  0  0
    3.9412  -11.4722    4.1769 C   0  0  1  0  0  0  0  0  0  0  0  0
    4.7403  -10.4029    5.1924 C   0  0  0  0  0  0  0  0  0  0  0  0
    5.3553  -10.7406    6.2031 O   0  0  0  0  0  0  0  0  0  0  0  0
    4.6215   -8.7839    4.7665 C   0  0  2  0  0  0  0  0  0  0  0  0
    3.0774   -8.9708    5.2812 C   0  0  1  0  0  0  0  0  0  0  0  0
    1.7267   -9.8927    4.9299 C   0  0  2  0  0  0  0  0  0  0  0  0
    1.6188  -11.3551    4.4857 C   0  0  0  0  0  0  0  0  0  0  0  0
    2.5494  -11.3725    3.2497 C   0  0  1  0  0  0  0  0  0  0  0  0
    3.0110   -9.1408    3.9161 C   0  0  2  0  0  0  0  0  0  0  0  0
   -0.1230   -6.1839    3.4892 H   0  0  0  0  0  0  0  0  0  0  0  0
    1.6251   -6.4212    3.9877 H   0  0  0  0  0  0  0  0  0  0  0  0
   -1.1903   -9.4630    3.5808 H   0  0  0  0  0  0  0  0  0  0  0  0
   -0.7441   -9.1144    1.9116 H   0  0  0  0  0  0  0  0  0  0  0  0
   -1.5642   -7.9035    2.8802 H   0  0  0  0  0  0  0  0  0  0  0  0
    1.4276  -10.0345    1.5420 H   0  0  0  0  0  0  0  0  0  0  0  0
    3.9389   -9.1243    0.7782 H   0  0  0  0  0  0  0  0  0  0  0  0
    3.0492   -7.7854    1.3870 H   0  0  0  0  0  0  0  0  0  0  0  0
    5.2483   -6.4818    1.7738 H   0  0  0  0  0  0  0  0  0  0  0  0
    5.0155   -6.1528    3.4773 H   0  0  0  0  0  0  0  0  0  0  0  0
    8.8460   -6.1820    2.0416 H   0  0  0  0  0  0  0  0  0  0  0  0
    7.5187   -5.0380    2.0448 H   0  0  0  0  0  0  0  0  0  0  0  0
    7.5252   -6.3735    0.9041 H   0  0  0  0  0  0  0  0  0  0  0  0
    7.9008   -5.6096    4.4663 H   0  0  0  0  0  0  0  0  0  0  0  0
    6.6604   -6.6641    5.0920 H   0  0  0  0  0  0  0  0  0  0  0  0
    9.4897   -7.4188    4.3286 H   0  0  0  0  0  0  0  0  0  0  0  0
    8.6431   -7.7902    5.8284 H   0  0  0  0  0  0  0  0  0  0  0  0
    8.7822   -9.6754    3.9106 H   0  0  0  0  0  0  0  0  0  0  0  0
    7.2657   -9.4187    4.7556 H   0  0  0  0  0  0  0  0  0  0  0  0
    8.0651   -8.5885    1.9998 H   0  0  0  0  0  0  0  0  0  0  0  0
    5.9964   -8.9642    1.2596 H   0  0  0  0  0  0  0  0  0  0  0  0
    5.4148  -11.0275    1.7229 H   0  0  0  0  0  0  0  0  0  0  0  0
    6.2825  -11.0224    3.2022 H   0  0  0  0  0  0  0  0  0  0  0  0
    4.5423  -12.3435    3.9188 H   0  0  0  0  0  0  0  0  0  0  0  0
    5.2294   -8.2023    5.4517 H   0  0  0  0  0  0  0  0  0  0  0  0
    2.7009   -8.0240    5.6658 H   0  0  0  0  0  0  0  0  0  0  0  0
    0.9203   -9.6005    5.5989 H   0  0  0  0  0  0  0  0  0  0  0  0
    1.8673  -12.0709    5.2721 H   0  0  0  0  0  0  0  0  0  0  0  0
    0.5958  -11.5701    4.1753 H   0  0  0  0  0  0  0  0  0  0  0  0
    2.4071  -12.2791    2.6530 H   0  0  0  0  0  0  0  0  0  0  0  0
    2.9020   -8.0477    3.7143 H   0  0  0  0  0  0  0  0  0  0  0  0
    3.5820  -10.8071    2.5382 H   0  0  0  0  0  0  0  0  0  0  0  0
  1  2  2  0
  1 27  1  0
  1 28  1  0
  2  3  1  0
  4  2  1  6
  3 29  1  0
  3 30  1  0
  3 31  1  0
  4 23  1  0
  4 26  1  0
  4  5  1  0
  5 25  1  0
  5  6  1  0
  5 32  1  6
  6  7  1  0
  6 33  1  0
  6 34  1  0
  7 15  1  0
  7 21  1  0
  7  8  1  1
  8  9  1  0
  8 35  1  0
  8 36  1  0
  9 14  1  0
  9 10  1  6
  9 11  1  0
 10 37  1  0
 10 38  1  0
 10 39  1  0
 11 12  1  0
 11 40  1  0
 11 41  1  0
 12 13  1  0
 12 42  1  0
 12 43  1  0
 13 14  1  0
 13 44  1  0
 13 45  1  0
 14 15  1  0
 14 46  1  6
 15 16  1  0
 15 47  1  6
 16 17  1  0
 16 48  1  0
 16 49  1  0
 17 26  1  0
 17 18  1  0
 17 58  1  6
 18 25  1  0
 18 19  1  0
 18 50  1  6
 19 20  2  0
 19 21  1  0
 21 22  1  0
 21 51  1  1
 22 23  1  0
 22 26  1  0
 22 52  1  6
 23 24  1  0
 23 53  1  1
 24 25  1  0
 24 54  1  0
 24 55  1  0
 25 56  1  6
 26 57  1  6
M  CHG  1  17   1
M  END
>  <i_m_ct_stereo_status>  (276) 
1

>  <s_m_source_file>  (276) 
/var/tmp/pbs.5076255.sched01/tmpajq2dbrl/12675ddggds.sdf

>  <i_m_source_file_index>  (276) 
5

>  <i_lp_mmshare_version>  (276) 
48012

>  <i_f3d_flags>  (276) 
2

>  <s_epik_input>  (276) 
Tz1DMVtDQEBIXTJbQ0hdKFtDQEhdMzQpW0NASF0oW0NIMl01KVtDQEBdMyhDKD1bQ0gyXSlbQ0gzXSlbQ0hdKFtDSDJdNilbQ0BIXTVbQ0BIXTFONFtDSDJdW0NAQEhdKFtDQF0yNjcpW0NASF04W0NAXShbQ0gyXTcpKFtDSDNdKVtDSDJdW0NIMl1bQ0gyXTg=

>  <s_epik_cmdline>  (276) 
J2VwaWtfcHl0aG9uJywgJy1waHQnLCAnMi4wJywgJy1waCcsICc3LjAnLCAnLXRuJywgJzgnLCAnLW1hJywgJzIwMCcsICctaW1hZScsICc8aW5maWxlLm1hZT4nLCAnLW9tYWUnLCAnPG91dGZpbGUubWFlPic=

>  <r_lp_tautomer_probability>  (276) 
0.99995

>  <r_epik_Ionization_Penalty>  (276) 
0.577163

>  <r_epik_Ionization_Penalty_Charging>  (276) 
0.577163

>  <r_epik_Ionization_Penalty_Neutral>  (276) 
1.16468e-09

>  <r_epik_State_Penalty>  (276) 
0.589613

>  <r_epik_Charging_Adjusted_Penalty>  (276) 
1.16678

>  <i_epik_Tot_Q>  (276) 
1

>  <i_epik_Tot_abs_Q>  (276) 
1

>  <s_lp_Force_Field>  (276) 
OPLS3e

>  <r_lp_Energy>  (276) 
743.923

>  <b_lp_Chiralities_Consistent>  (276) 
0

>  <s_lp_Variant>  (276) 
90:0-2

>  <s_i_glide_gridfile>  (276) 
pfpi4k_grid

>  <i_i_glide_lignum>  (276) 
5

>  <i_i_glide_rotatable_bonds>  (276) 
1

>  <r_i_docking_score>  (276) 
-2.73315

>  <r_i_glide_ligand_efficiency>  (276) 
-0.105121

>  <r_i_glide_ligand_efficiency_sa>  (276) 
-0.311421

>  <r_i_glide_ligand_efficiency_ln>  (276) 
-0.641871

>  <r_i_glide_gscore>  (276) 
-2.73315

>  <r_i_glide_lipo>  (276) 
-0.12033

>  <r_i_glide_hbond>  (276) 
0

>  <r_i_glide_metal>  (276) 
-0

>  <r_i_glide_rewards>  (276) 
-1.0192

>  <r_i_glide_evdw>  (276) 
-23.6576

>  <r_i_glide_ecoul>  (276) 
-3.53882

>  <r_i_glide_erotb>  (276) 
0.155148

>  <r_i_glide_esite>  (276) 
-0.0350598

>  <r_i_glide_emodel>  (276) 
-33.4333

>  <r_i_glide_energy>  (276) 
-27.1964

>  <r_i_glide_einternal>  (276) 
0.0013004

>  <r_i_glide_intrahb_reward>  (276) 
-0

>  <i_i_glide_confnum>  (276) 
3

>  <i_i_glide_posenum>  (276) 
24

>  <r_i_glide_eff_state_penalty>  (276) 
0

>  <ligand_id>  (276) 
90

>  <original_smiles>  (276) 
C=C(C)C12C3CC45CC6(C)CCCC6C4CN4C6C(=O)C5C(C1CC63)C42

>  <smiles>  (276) 
[H]C([H])=C(C([H])([H])[H])C12C3([H])C([H])([H])C45C([H])([H])C6(C([H])([H])[H])C([H])([H])C([H])([H])C([H])([H])C6([H])C4([H])C([H])([H])[N+]4([H])C6([H])C(=O)C5([H])C([H])(C1([H])C([H])([H])C36[H])C24[H]

$$$$
91:0:0
     RDKit          3D

 69 74  0  0  1  0  0  0  0  0999 V2000
    5.5492   -5.4023    5.3536 C   0  0  0  0  0  0  0  0  0  0  0  0
    4.4605   -5.2135    4.4609 O   0  0  0  0  0  0  0  0  0  0  0  0
    4.4358   -3.9840    3.7440 C   0  0  2  0  0  0  0  0  0  0  0  0
    4.2141   -2.8232    4.7430 C   0  0  0  0  0  0  0  0  0  0  0  0
    3.8431   -1.4865    4.0946 C   0  0  0  0  0  0  0  0  0  0  0  0
    2.8177   -1.5870    2.9459 C   0  0  2  0  0  0  0  0  0  0  0  0
    2.5359   -0.1407    2.4281 C   0  0  0  0  0  0  0  0  0  0  0  0
    1.9324    0.6942    3.3964 O   0  0  0  0  0  0  0  0  0  0  0  0
    1.4282   -2.0919    3.4504 C   0  0  0  0  0  0  0  0  0  0  0  0
    1.2995   -3.5687    3.8544 C   0  0  0  0  0  0  0  0  0  0  0  0
    1.9891   -4.5259    2.8711 C   0  0  2  0  0  0  0  0  0  0  0  0
    1.8285   -6.0286    3.2528 C   0  0  1  0  0  0  0  0  0  0  0  0
    0.3824   -6.4556    3.5742 C   0  0  0  0  0  0  0  0  0  0  0  0
    2.3639   -6.9215    2.1255 C   0  0  0  0  0  0  0  0  0  0  0  0
    3.8063   -6.5667    1.7806 C   0  0  0  0  0  0  0  0  0  0  0  0
    4.0393   -5.0718    1.4552 C   0  0  1  0  0  0  0  0  0  0  0  0
    3.7416   -4.7157   -0.0174 C   0  0  1  0  0  0  0  0  0  0  0  0
    2.3540   -4.8785   -0.2849 O   0  0  0  0  0  0  0  0  0  0  0  0
    4.2206   -3.3057   -0.4809 C   0  0  2  0  0  0  0  0  0  0  0  0
    5.3729   -3.2789   -1.5172 C   0  0  0  0  0  0  0  0  0  0  0  0
    4.7391   -1.9921   -2.0501 C   0  0  2  0  0  0  0  0  0  0  0  0
    5.0215   -0.7375   -1.2577 C   0  0  0  0  0  0  0  0  0  0  0  0
    4.4235   -0.8517    0.1602 C   0  0  0  0  0  0  0  0  0  0  0  0
    4.4428   -2.3049    0.7503 C   0  0  2  0  0  0  0  0  0  0  0  0
    5.8984   -2.3918    1.3223 C   0  0  0  0  0  0  0  0  0  0  0  0
    3.3139   -2.6149    1.8441 C   0  0  1  0  0  0  0  0  0  0  0  0
    3.4469   -4.0576    2.5021 C   0  0  2  0  0  0  0  0  0  0  0  0
    3.4296   -2.6786   -1.6925 C   0  0  1  0  0  0  0  0  0  0  0  0
    2.8662   -3.4542   -2.7350 O   0  0  0  0  0  0  0  0  0  0  0  0
    5.5193   -6.4145    5.7574 H   0  0  0  0  0  0  0  0  0  0  0  0
    5.5081   -4.7208    6.2037 H   0  0  0  0  0  0  0  0  0  0  0  0
    6.5079   -5.2768    4.8472 H   0  0  0  0  0  0  0  0  0  0  0  0
    5.4418   -3.8618    3.3599 H   0  0  0  0  0  0  0  0  0  0  0  0
    3.4692   -3.0962    5.4836 H   0  0  0  0  0  0  0  0  0  0  0  0
    5.1193   -2.6696    5.3227 H   0  0  0  0  0  0  0  0  0  0  0  0
    3.4621   -0.8258    4.8746 H   0  0  0  0  0  0  0  0  0  0  0  0
    4.7378   -0.9913    3.7274 H   0  0  0  0  0  0  0  0  0  0  0  0
    3.4497    0.3791    2.1604 H   0  0  0  0  0  0  0  0  0  0  0  0
    1.8736   -0.1588    1.5607 H   0  0  0  0  0  0  0  0  0  0  0  0
    1.7794    1.5404    2.9988 H   0  0  0  0  0  0  0  0  0  0  0  0
    1.0793   -1.4885    4.2883 H   0  0  0  0  0  0  0  0  0  0  0  0
    0.7007   -1.9229    2.6547 H   0  0  0  0  0  0  0  0  0  0  0  0
    1.6388   -3.7543    4.8691 H   0  0  0  0  0  0  0  0  0  0  0  0
    0.2333   -3.7871    3.8886 H   0  0  0  0  0  0  0  0  0  0  0  0
    1.4084   -4.4372    1.9643 H   0  0  0  0  0  0  0  0  0  0  0  0
    2.3935   -6.2484    4.1569 H   0  0  0  0  0  0  0  0  0  0  0  0
   -0.2956   -6.2441    2.7474 H   0  0  0  0  0  0  0  0  0  0  0  0
    0.0103   -5.9659    4.4757 H   0  0  0  0  0  0  0  0  0  0  0  0
    0.3305   -7.5321    3.7597 H   0  0  0  0  0  0  0  0  0  0  0  0
    2.3174   -7.9731    2.4207 H   0  0  0  0  0  0  0  0  0  0  0  0
    1.7309   -6.8369    1.2389 H   0  0  0  0  0  0  0  0  0  0  0  0
    4.4347   -6.8496    2.6227 H   0  0  0  0  0  0  0  0  0  0  0  0
    4.1407   -7.1893    0.9491 H   0  0  0  0  0  0  0  0  0  0  0  0
    5.1205   -5.0265    1.5063 H   0  0  0  0  0  0  0  0  0  0  0  0
    4.2514   -5.4621   -0.6292 H   0  0  0  0  0  0  0  0  0  0  0  0
    2.2762   -5.1803   -1.1803 H   0  0  0  0  0  0  0  0  0  0  0  0
    6.3811   -3.1585   -1.1229 H   0  0  0  0  0  0  0  0  0  0  0  0
    5.3425   -4.1034   -2.2337 H   0  0  0  0  0  0  0  0  0  0  0  0
    4.8911   -1.8935   -3.1240 H   0  0  0  0  0  0  0  0  0  0  0  0
    6.0949   -0.6058   -1.1704 H   0  0  0  0  0  0  0  0  0  0  0  0
    4.6204    0.1346   -1.7814 H   0  0  0  0  0  0  0  0  0  0  0  0
    4.9626   -0.1449    0.7920 H   0  0  0  0  0  0  0  0  0  0  0  0
    3.4073   -0.4925    0.0765 H   0  0  0  0  0  0  0  0  0  0  0  0
    5.9826   -1.9397    2.3044 H   0  0  0  0  0  0  0  0  0  0  0  0
    6.6205   -1.8590    0.7102 H   0  0  0  0  0  0  0  0  0  0  0  0
    6.3091   -3.3959    1.3915 H   0  0  0  0  0  0  0  0  0  0  0  0
    2.4393   -2.6510    1.1896 H   0  0  0  0  0  0  0  0  0  0  0  0
    2.6587   -1.9828   -1.3722 H   0  0  0  0  0  0  0  0  0  0  0  0
    3.1114   -4.3758   -2.6084 H   0  0  0  0  0  0  0  0  0  0  0  0
  1  2  1  0
  1 30  1  0
  1 31  1  0
  1 32  1  0
  2  3  1  0
 27  3  1  1
  3  4  1  0
  3 33  1  6
  4  5  1  0
  4 34  1  0
  4 35  1  0
  5  6  1  0
  5 36  1  0
  5 37  1  0
  6 26  1  0
  6  7  1  6
  6  9  1  0
  7  8  1  0
  7 38  1  0
  7 39  1  0
  8 40  1  0
  9 10  1  0
  9 41  1  0
  9 42  1  0
 10 11  1  0
 10 43  1  0
 10 44  1  0
 11 27  1  0
 11 12  1  0
 11 45  1  6
 12 13  1  0
 12 14  1  0
 12 46  1  1
 13 47  1  0
 13 48  1  0
 13 49  1  0
 14 15  1  0
 14 50  1  0
 14 51  1  0
 15 16  1  0
 15 52  1  0
 15 53  1  0
 16 27  1  0
 16 17  1  0
 16 54  1  6
 17 18  1  0
 17 19  1  0
 17 55  1  6
 18 56  1  0
 19 24  1  0
 19 28  1  0
 19 20  1  6
 20 21  1  0
 20 57  1  0
 20 58  1  0
 21 22  1  0
 21 28  1  0
 21 59  1  6
 22 23  1  0
 22 60  1  0
 22 61  1  0
 23 24  1  0
 23 62  1  0
 23 63  1  0
 24 25  1  1
 24 26  1  0
 25 64  1  0
 25 65  1  0
 25 66  1  0
 26 27  1  0
 26 67  1  6
 28 29  1  0
 28 68  1  1
 29 69  1  0
M  END
>  <i_m_ct_stereo_status>  (277) 
1

>  <s_m_source_file>  (277) 
/var/tmp/pbs.5076255.sched01/tmpajq2dbrl/12675ddggds.sdf

>  <i_m_source_file_index>  (277) 
6

>  <i_lp_mmshare_version>  (277) 
48012

>  <i_f3d_flags>  (277) 
0

>  <s_epik_input>  (277) 
W0NIM11PW0NAQEhdMVtDSDJdW0NIMl1bQ0BdMihbQ0gyXVtPSF0pW0NIMl1bQ0gyXVtDQEhdKFtDQEBIXShbQ0gzXSlbQ0gyXVtDSDJdW0NASF0zW0NASF00W09IXSlbQ0BAXTEzW0NAQEhdMltDQF0oW0NAXTQ1NikoW0NIM10pW0NIMl1bQ0gyXVtDQEBIXShbQ0gyXTUpW0NASF02W09IXQ==

>  <s_epik_cmdline>  (277) 
J2VwaWtfcHl0aG9uJywgJy1waHQnLCAnMi4wJywgJy1waCcsICc3LjAnLCAnLXRuJywgJzgnLCAnLW1hJywgJzIwMCcsICctaW1hZScsICc8aW5maWxlLm1hZT4nLCAnLW9tYWUnLCAnPG91dGZpbGUubWFlPic=

>  <r_lp_tautomer_probability>  (277) 
1

>  <r_epik_Ionization_Penalty>  (277) 
3.1302e-06

>  <r_epik_Ionization_Penalty_Charging>  (277) 
0

>  <r_epik_Ionization_Penalty_Neutral>  (277) 
3.1302e-06

>  <r_epik_State_Penalty>  (277) 
-0

>  <r_epik_Charging_Adjusted_Penalty>  (277) 
0

>  <i_epik_Tot_Q>  (277) 
0

>  <i_epik_Tot_abs_Q>  (277) 
0

>  <s_lp_Force_Field>  (277) 
OPLS3e

>  <r_lp_Energy>  (277) 
114.664

>  <b_lp_Chiralities_Consistent>  (277) 
1

>  <s_lp_Variant>  (277) 
91:0-1

>  <s_i_glide_gridfile>  (277) 
pfpi4k_grid

>  <i_i_glide_lignum>  (277) 
6

>  <i_i_glide_rotatable_bonds>  (277) 
5

>  <r_i_docking_score>  (277) 
-3.07846

>  <r_i_glide_ligand_efficiency>  (277) 
-0.106154

>  <r_i_glide_ligand_efficiency_sa>  (277) 
-0.326138

>  <r_i_glide_ligand_efficiency_ln>  (277) 
-0.704889

>  <r_i_glide_gscore>  (277) 
-3.07846

>  <r_i_glide_lipo>  (277) 
-0.381418

>  <r_i_glide_hbond>  (277) 
0

>  <r_i_glide_metal>  (277) 
-0

>  <r_i_glide_rewards>  (277) 
-0.650572

>  <r_i_glide_evdw>  (277) 
-18.8683

>  <r_i_glide_ecoul>  (277) 
-8.15378

>  <r_i_glide_erotb>  (277) 
0.120012

>  <r_i_glide_esite>  (277) 
0

>  <r_i_glide_emodel>  (277) 
-30.5699

>  <r_i_glide_energy>  (277) 
-27.022

>  <r_i_glide_einternal>  (277) 
2.1925

>  <r_i_glide_intrahb_reward>  (277) 
-0

>  <i_i_glide_confnum>  (277) 
6

>  <i_i_glide_posenum>  (277) 
39

>  <r_i_glide_eff_state_penalty>  (277) 
0

>  <ligand_id>  (277) 
91

>  <original_smiles>  (277) 
COC1CCC2(CO)CCC3C(C)CCC4C(O)C56CC(CCC5(C)C2C134)C6O

>  <smiles>  (277) 
[H]OC([H])([H])C12C([H])([H])C([H])([H])C([H])(OC([H])([H])[H])C34C([H])(C([H])([H])C([H])([H])C([H])(C([H])([H])[H])C3([H])C([H])([H])C1([H])[H])C([H])(O[H])C13C([H])([H])C([H])(C([H])([H])C([H])([H])C1(C([H])([H])[H])C24[H])C3([H])O[H]

$$$$
91:0:1
     RDKit          3D

 69 74  0  0  1  0  0  0  0  0999 V2000
    5.9408   -6.2470    0.7898 C   0  0  0  0  0  0  0  0  0  0  0  0
    5.5053   -5.6876    2.0316 O   0  0  0  0  0  0  0  0  0  0  0  0
    4.3152   -6.1921    2.6551 C   0  0  2  0  0  0  0  0  0  0  0  0
    3.9448   -7.6360    2.1996 C   0  0  0  0  0  0  0  0  0  0  0  0
    2.5957   -8.1471    2.7009 C   0  0  0  0  0  0  0  0  0  0  0  0
    1.4586   -7.1050    2.6222 C   0  0  2  0  0  0  0  0  0  0  0  0
    0.1721   -7.8781    3.0431 C   0  0  0  0  0  0  0  0  0  0  0  0
   -1.0110   -7.0924    3.0122 O   0  0  0  0  0  0  0  0  0  0  0  0
    1.1710   -6.6719    1.1423 C   0  0  0  0  0  0  0  0  0  0  0  0
    2.1682   -5.7258    0.4484 C   0  0  0  0  0  0  0  0  0  0  0  0
    2.6748   -4.5903    1.3562 C   0  0  2  0  0  0  0  0  0  0  0  0
    3.6762   -3.6157    0.6512 C   0  0  1  0  0  0  0  0  0  0  0  0
    3.1920   -3.1169   -0.7216 C   0  0  0  0  0  0  0  0  0  0  0  0
    3.9745   -2.4149    1.5594 C   0  0  0  0  0  0  0  0  0  0  0  0
    4.5049   -2.8800    2.9165 C   0  0  0  0  0  0  0  0  0  0  0  0
    3.5960   -3.9044    3.6402 C   0  0  1  0  0  0  0  0  0  0  0  0
    2.4698   -3.2396    4.4766 C   0  0  1  0  0  0  0  0  0  0  0  0
    1.5713   -2.5527    3.6160 O   0  0  0  0  0  0  0  0  0  0  0  0
    1.6883   -4.1913    5.4388 C   0  0  2  0  0  0  0  0  0  0  0  0
    1.8762   -3.8998    6.9515 C   0  0  0  0  0  0  0  0  0  0  0  0
    0.4395   -4.4081    7.1271 C   0  0  2  0  0  0  0  0  0  0  0  0
    0.2682   -5.9069    7.1405 C   0  0  0  0  0  0  0  0  0  0  0  0
    0.6737   -6.4957    5.7617 C   0  0  0  0  0  0  0  0  0  0  0  0
    1.8445   -5.7211    5.0475 C   0  0  2  0  0  0  0  0  0  0  0  0
    3.1006   -6.3742    5.7151 C   0  0  0  0  0  0  0  0  0  0  0  0
    1.8517   -5.8108    3.4443 C   0  0  1  0  0  0  0  0  0  0  0  0
    3.1329   -5.1321    2.7633 C   0  0  2  0  0  0  0  0  0  0  0  0
    0.2173   -3.7292    5.7711 C   0  0  1  0  0  0  0  0  0  0  0  0
   -0.0878   -2.3587    5.8134 O   0  0  0  0  0  0  0  0  0  0  0  0
    6.8145   -5.7126    0.4296 H   0  0  0  0  0  0  0  0  0  0  0  0
    5.1781   -6.1496    0.0165 H   0  0  0  0  0  0  0  0  0  0  0  0
    6.1976   -7.3042    0.8915 H   0  0  0  0  0  0  0  0  0  0  0  0
    4.6742   -6.3260    3.6720 H   0  0  0  0  0  0  0  0  0  0  0  0
    3.9462   -7.7299    1.1110 H   0  0  0  0  0  0  0  0  0  0  0  0
    4.7210   -8.3247    2.5405 H   0  0  0  0  0  0  0  0  0  0  0  0
    2.3243   -9.0045    2.0891 H   0  0  0  0  0  0  0  0  0  0  0  0
    2.6675   -8.5646    3.7115 H   0  0  0  0  0  0  0  0  0  0  0  0
    0.0080   -8.7015    2.3385 H   0  0  0  0  0  0  0  0  0  0  0  0
    0.2771   -8.3560    4.0129 H   0  0  0  0  0  0  0  0  0  0  0  0
   -1.7004   -7.5903    3.4186 H   0  0  0  0  0  0  0  0  0  0  0  0
    1.0190   -7.5551    0.5261 H   0  0  0  0  0  0  0  0  0  0  0  0
    0.2184   -6.1527    1.1123 H   0  0  0  0  0  0  0  0  0  0  0  0
    3.0012   -6.2604    0.0172 H   0  0  0  0  0  0  0  0  0  0  0  0
    1.6503   -5.2987   -0.4099 H   0  0  0  0  0  0  0  0  0  0  0  0
    1.8090   -3.9644    1.5384 H   0  0  0  0  0  0  0  0  0  0  0  0
    4.6249   -4.0944    0.4610 H   0  0  0  0  0  0  0  0  0  0  0  0
    2.2100   -2.6591   -0.6598 H   0  0  0  0  0  0  0  0  0  0  0  0
    3.1437   -3.9273   -1.4479 H   0  0  0  0  0  0  0  0  0  0  0  0
    3.8746   -2.3700   -1.1275 H   0  0  0  0  0  0  0  0  0  0  0  0
    4.7288   -1.7822    1.0884 H   0  0  0  0  0  0  0  0  0  0  0  0
    3.0902   -1.7856    1.6731 H   0  0  0  0  0  0  0  0  0  0  0  0
    5.4843   -3.3278    2.7641 H   0  0  0  0  0  0  0  0  0  0  0  0
    4.6846   -2.0169    3.5539 H   0  0  0  0  0  0  0  0  0  0  0  0
    4.2774   -4.2711    4.3999 H   0  0  0  0  0  0  0  0  0  0  0  0
    2.9359   -2.4513    5.0689 H   0  0  0  0  0  0  0  0  0  0  0  0
    2.0678   -1.9795    3.0629 H   0  0  0  0  0  0  0  0  0  0  0  0
    2.6336   -4.4916    7.4733 H   0  0  0  0  0  0  0  0  0  0  0  0
    1.9937   -2.8445    7.1916 H   0  0  0  0  0  0  0  0  0  0  0  0
   -0.0752   -3.8855    7.9460 H   0  0  0  0  0  0  0  0  0  0  0  0
    0.8632   -6.3487    7.9435 H   0  0  0  0  0  0  0  0  0  0  0  0
   -0.7673   -6.1697    7.3623 H   0  0  0  0  0  0  0  0  0  0  0  0
    0.8971   -7.5585    5.8893 H   0  0  0  0  0  0  0  0  0  0  0  0
   -0.2304   -6.4341    5.1793 H   0  0  0  0  0  0  0  0  0  0  0  0
    3.3680   -7.3166    5.2545 H   0  0  0  0  0  0  0  0  0  0  0  0
    2.9281   -6.6124    6.7605 H   0  0  0  0  0  0  0  0  0  0  0  0
    3.9900   -5.7554    5.7336 H   0  0  0  0  0  0  0  0  0  0  0  0
    1.0090   -5.1530    3.2158 H   0  0  0  0  0  0  0  0  0  0  0  0
   -0.5266   -4.2250    5.1392 H   0  0  0  0  0  0  0  0  0  0  0  0
    0.3157   -2.0010    5.0310 H   0  0  0  0  0  0  0  0  0  0  0  0
  1  2  1  0
  1 30  1  0
  1 31  1  0
  1 32  1  0
  2  3  1  0
 27  3  1  6
  3  4  1  0
  3 33  1  1
  4  5  1  0
  4 34  1  0
  4 35  1  0
  5  6  1  0
  5 36  1  0
  5 37  1  0
  6 26  1  0
  6  7  1  1
  6  9  1  0
  7  8  1  0
  7 38  1  0
  7 39  1  0
  8 40  1  0
  9 10  1  0
  9 41  1  0
  9 42  1  0
 10 11  1  0
 10 43  1  0
 10 44  1  0
 11 27  1  0
 11 12  1  0
 11 45  1  1
 12 13  1  0
 12 14  1  0
 12 46  1  6
 13 47  1  0
 13 48  1  0
 13 49  1  0
 14 15  1  0
 14 50  1  0
 14 51  1  0
 15 16  1  0
 15 52  1  0
 15 53  1  0
 16 27  1  0
 16 17  1  0
 16 54  1  1
 17 18  1  0
 17 19  1  0
 17 55  1  1
 18 56  1  0
 19 24  1  0
 19 28  1  0
 19 20  1  1
 20 21  1  0
 20 57  1  0
 20 58  1  0
 21 22  1  0
 21 28  1  0
 21 59  1  1
 22 23  1  0
 22 60  1  0
 22 61  1  0
 23 24  1  0
 23 62  1  0
 23 63  1  0
 24 25  1  1
 24 26  1  0
 25 64  1  0
 25 65  1  0
 25 66  1  0
 26 27  1  0
 26 67  1  6
 28 29  1  0
 28 68  1  6
 29 69  1  0
M  END
>  <i_m_ct_stereo_status>  (278) 
1

>  <s_m_source_file>  (278) 
/var/tmp/pbs.5076255.sched01/tmpajq2dbrl/12675ddggds.sdf

>  <i_m_source_file_index>  (278) 
6

>  <i_lp_mmshare_version>  (278) 
48012

>  <i_f3d_flags>  (278) 
0

>  <s_epik_input>  (278) 
W0NIM11PW0NAQEhdMVtDSDJdW0NIMl1bQ0BdMihbQ0gyXVtPSF0pW0NIMl1bQ0gyXVtDQEhdKFtDQEBIXShbQ0gzXSlbQ0gyXVtDSDJdW0NASF0zW0NASF00W09IXSlbQ0BAXTEzW0NAQEhdMltDQF0oW0NAXTQ1NikoW0NIM10pW0NIMl1bQ0gyXVtDQEBIXShbQ0gyXTUpW0NASF02W09IXQ==

>  <s_epik_cmdline>  (278) 
J2VwaWtfcHl0aG9uJywgJy1waHQnLCAnMi4wJywgJy1waCcsICc3LjAnLCAnLXRuJywgJzgnLCAnLW1hJywgJzIwMCcsICctaW1hZScsICc8aW5maWxlLm1hZT4nLCAnLW9tYWUnLCAnPG91dGZpbGUubWFlPic=

>  <r_lp_tautomer_probability>  (278) 
1

>  <r_epik_Ionization_Penalty>  (278) 
3.1302e-06

>  <r_epik_Ionization_Penalty_Charging>  (278) 
0

>  <r_epik_Ionization_Penalty_Neutral>  (278) 
3.1302e-06

>  <r_epik_State_Penalty>  (278) 
-0

>  <r_epik_Charging_Adjusted_Penalty>  (278) 
0

>  <i_epik_Tot_Q>  (278) 
0

>  <i_epik_Tot_abs_Q>  (278) 
0

>  <s_lp_Force_Field>  (278) 
OPLS3e

>  <r_lp_Energy>  (278) 
114.664

>  <b_lp_Chiralities_Consistent>  (278) 
1

>  <s_lp_Variant>  (278) 
91:0-1

>  <s_i_glide_gridfile>  (278) 
pfpi4k_grid

>  <i_i_glide_lignum>  (278) 
6

>  <i_i_glide_rotatable_bonds>  (278) 
5

>  <r_i_docking_score>  (278) 
-2.62867

>  <r_i_glide_ligand_efficiency>  (278) 
-0.0906439

>  <r_i_glide_ligand_efficiency_sa>  (278) 
-0.278487

>  <r_i_glide_ligand_efficiency_ln>  (278) 
-0.601899

>  <r_i_glide_gscore>  (278) 
-2.62867

>  <r_i_glide_lipo>  (278) 
-0.0919985

>  <r_i_glide_hbond>  (278) 
-0.153796

>  <r_i_glide_metal>  (278) 
-0

>  <r_i_glide_rewards>  (278) 
-1.15057

>  <r_i_glide_evdw>  (278) 
-18.5114

>  <r_i_glide_ecoul>  (278) 
-2.84498

>  <r_i_glide_erotb>  (278) 
0.120012

>  <r_i_glide_esite>  (278) 
0

>  <r_i_glide_emodel>  (278) 
-25.2884

>  <r_i_glide_energy>  (278) 
-21.3564

>  <r_i_glide_einternal>  (278) 
10.0581

>  <r_i_glide_intrahb_reward>  (278) 
-0.5

>  <i_i_glide_confnum>  (278) 
1

>  <i_i_glide_posenum>  (278) 
23

>  <r_i_glide_eff_state_penalty>  (278) 
0

>  <ligand_id>  (278) 
91

>  <original_smiles>  (278) 
COC1CCC2(CO)CCC3C(C)CCC4C(O)C56CC(CCC5(C)C2C134)C6O

>  <smiles>  (278) 
[H]OC([H])([H])C12C([H])([H])C([H])([H])C([H])(OC([H])([H])[H])C34C([H])(C([H])([H])C([H])([H])C([H])(C([H])([H])[H])C3([H])C([H])([H])C1([H])[H])C([H])(O[H])C13C([H])([H])C([H])(C([H])([H])C([H])([H])C1(C([H])([H])[H])C24[H])C3([H])O[H]

$$$$
91:0:2
     RDKit          3D

 69 74  0  0  1  0  0  0  0  0999 V2000
    7.7355   -3.9948    0.4196 C   0  0  0  0  0  0  0  0  0  0  0  0
    6.3660   -3.6168    0.4409 O   0  0  0  0  0  0  0  0  0  0  0  0
    5.6135   -3.9916    1.5925 C   0  0  2  0  0  0  0  0  0  0  0  0
    5.5789   -5.5364    1.7069 C   0  0  0  0  0  0  0  0  0  0  0  0
    4.5422   -6.0873    2.6954 C   0  0  0  0  0  0  0  0  0  0  0  0
    3.1736   -5.3811    2.6576 C   0  0  2  0  0  0  0  0  0  0  0  0
    2.2603   -6.1421    3.6672 C   0  0  0  0  0  0  0  0  0  0  0  0
    0.9407   -5.6359    3.7204 O   0  0  0  0  0  0  0  0  0  0  0  0
    2.4779   -5.6404    1.2864 C   0  0  0  0  0  0  0  0  0  0  0  0
    3.0111   -4.8921    0.0611 C   0  0  0  0  0  0  0  0  0  0  0  0
    3.3407   -3.4188    0.3426 C   0  0  2  0  0  0  0  0  0  0  0  0
    3.8632   -2.6616   -0.9152 C   0  0  1  0  0  0  0  0  0  0  0  0
    2.9863   -2.8291   -2.1679 C   0  0  0  0  0  0  0  0  0  0  0  0
    4.0082   -1.1648   -0.6089 C   0  0  0  0  0  0  0  0  0  0  0  0
    4.8928   -0.9260    0.6090 C   0  0  0  0  0  0  0  0  0  0  0  0
    4.4746   -1.7150    1.8737 C   0  0  1  0  0  0  0  0  0  0  0  0
    3.3987   -0.9969    2.7242 C   0  0  1  0  0  0  0  0  0  0  0  0
    2.1963   -0.9658    1.9924 O   0  0  0  0  0  0  0  0  0  0  0  0
    3.1192   -1.5912    4.1337 C   0  0  2  0  0  0  0  0  0  0  0  0
    3.5101   -0.7060    5.3440 C   0  0  0  0  0  0  0  0  0  0  0  0
    2.3565   -1.3628    6.0958 C   0  0  2  0  0  0  0  0  0  0  0  0
    2.6406   -2.7429    6.6673 C   0  0  0  0  0  0  0  0  0  0  0  0
    2.9030   -3.7210    5.5024 C   0  0  0  0  0  0  0  0  0  0  0  0
    3.6196   -3.1049    4.2528 C   0  0  2  0  0  0  0  0  0  0  0  0
    5.1131   -3.1925    4.7034 C   0  0  0  0  0  0  0  0  0  0  0  0
    3.3397   -3.8200    2.8417 C   0  0  1  0  0  0  0  0  0  0  0  0
    4.2112   -3.2474    1.6470 C   0  0  2  0  0  0  0  0  0  0  0  0
    1.6833   -1.3396    4.7284 C   0  0  1  0  0  0  0  0  0  0  0  0
    0.9267   -0.1680    4.4176 O   0  0  0  0  0  0  0  0  0  0  0  0
    8.2270   -3.5557   -0.4482 H   0  0  0  0  0  0  0  0  0  0  0  0
    7.8664   -5.0740    0.3379 H   0  0  0  0  0  0  0  0  0  0  0  0
    8.2660   -3.6456    1.3045 H   0  0  0  0  0  0  0  0  0  0  0  0
    6.1975   -3.6501    2.4344 H   0  0  0  0  0  0  0  0  0  0  0  0
    5.4424   -5.9860    0.7278 H   0  0  0  0  0  0  0  0  0  0  0  0
    6.5585   -5.8964    2.0159 H   0  0  0  0  0  0  0  0  0  0  0  0
    4.4144   -7.1563    2.4993 H   0  0  0  0  0  0  0  0  0  0  0  0
    4.9427   -6.0373    3.7000 H   0  0  0  0  0  0  0  0  0  0  0  0
    2.1777   -7.1910    3.3465 H   0  0  0  0  0  0  0  0  0  0  0  0
    2.7025   -6.2227    4.6600 H   0  0  0  0  0  0  0  0  0  0  0  0
    0.9880   -4.7683    4.1202 H   0  0  0  0  0  0  0  0  0  0  0  0
    2.4459   -6.7100    1.0728 H   0  0  0  0  0  0  0  0  0  0  0  0
    1.4320   -5.3405    1.3498 H   0  0  0  0  0  0  0  0  0  0  0  0
    3.8559   -5.3954   -0.4018 H   0  0  0  0  0  0  0  0  0  0  0  0
    2.2192   -4.9400   -0.6853 H   0  0  0  0  0  0  0  0  0  0  0  0
    2.3627   -2.9682    0.5174 H   0  0  0  0  0  0  0  0  0  0  0  0
    4.8403   -3.0381   -1.2092 H   0  0  0  0  0  0  0  0  0  0  0  0
    1.9382   -2.5968   -1.9780 H   0  0  0  0  0  0  0  0  0  0  0  0
    3.0242   -3.8530   -2.5466 H   0  0  0  0  0  0  0  0  0  0  0  0
    3.3319   -2.1936   -2.9838 H   0  0  0  0  0  0  0  0  0  0  0  0
    4.4288   -0.6361   -1.4667 H   0  0  0  0  0  0  0  0  0  0  0  0
    3.0168   -0.7248   -0.4572 H   0  0  0  0  0  0  0  0  0  0  0  0
    5.9130   -1.1969    0.3424 H   0  0  0  0  0  0  0  0  0  0  0  0
    4.9262    0.1415    0.8237 H   0  0  0  0  0  0  0  0  0  0  0  0
    5.3692   -1.6021    2.4696 H   0  0  0  0  0  0  0  0  0  0  0  0
    3.7127    0.0442    2.8232 H   0  0  0  0  0  0  0  0  0  0  0  0
    2.3458   -0.6167    1.1129 H   0  0  0  0  0  0  0  0  0  0  0  0
    4.4923   -0.8929    5.7626 H   0  0  0  0  0  0  0  0  0  0  0  0
    3.3720    0.3744    5.1493 H   0  0  0  0  0  0  0  0  0  0  0  0
    1.9011   -0.6566    6.7770 H   0  0  0  0  0  0  0  0  0  0  0  0
    3.4788   -2.6949    7.3617 H   0  0  0  0  0  0  0  0  0  0  0  0
    1.7881   -3.0771    7.2491 H   0  0  0  0  0  0  0  0  0  0  0  0
    3.4327   -4.5760    5.9135 H   0  0  0  0  0  0  0  0  0  0  0  0
    1.9089   -4.0541    5.2667 H   0  0  0  0  0  0  0  0  0  0  0  0
    5.5347   -4.1746    4.5315 H   0  0  0  0  0  0  0  0  0  0  0  0
    5.2353   -3.0241    5.7721 H   0  0  0  0  0  0  0  0  0  0  0  0
    5.7824   -2.4669    4.2522 H   0  0  0  0  0  0  0  0  0  0  0  0
    2.3167   -3.4846    2.6680 H   0  0  0  0  0  0  0  0  0  0  0  0
    1.0321   -2.1879    4.5497 H   0  0  0  0  0  0  0  0  0  0  0  0
    1.5615    0.5328    4.3099 H   0  0  0  0  0  0  0  0  0  0  0  0
  1  2  1  0
  1 30  1  0
  1 31  1  0
  1 32  1  0
  2  3  1  0
 27  3  1  6
  3  4  1  0
  3 33  1  1
  4  5  1  0
  4 34  1  0
  4 35  1  0
  5  6  1  0
  5 36  1  0
  5 37  1  0
  6 26  1  0
  6  7  1  1
  6  9  1  0
  7  8  1  0
  7 38  1  0
  7 39  1  0
  8 40  1  0
  9 10  1  0
  9 41  1  0
  9 42  1  0
 10 11  1  0
 10 43  1  0
 10 44  1  0
 11 27  1  0
 11 12  1  0
 11 45  1  1
 12 13  1  0
 12 14  1  0
 12 46  1  6
 13 47  1  0
 13 48  1  0
 13 49  1  0
 14 15  1  0
 14 50  1  0
 14 51  1  0
 15 16  1  0
 15 52  1  0
 15 53  1  0
 16 27  1  0
 16 17  1  0
 16 54  1  1
 17 18  1  0
 17 19  1  0
 17 55  1  1
 18 56  1  0
 19 24  1  0
 19 28  1  0
 19 20  1  1
 20 21  1  0
 20 57  1  0
 20 58  1  0
 21 22  1  0
 21 28  1  0
 21 59  1  1
 22 23  1  0
 22 60  1  0
 22 61  1  0
 23 24  1  0
 23 62  1  0
 23 63  1  0
 24 25  1  1
 24 26  1  0
 25 64  1  0
 25 65  1  0
 25 66  1  0
 26 27  1  0
 26 67  1  6
 28 29  1  0
 28 68  1  1
 29 69  1  0
M  END
>  <i_m_ct_stereo_status>  (279) 
1

>  <s_m_source_file>  (279) 
/var/tmp/pbs.5076255.sched01/tmpajq2dbrl/12675ddggds.sdf

>  <i_m_source_file_index>  (279) 
6

>  <i_lp_mmshare_version>  (279) 
48012

>  <i_f3d_flags>  (279) 
0

>  <s_epik_input>  (279) 
W0NIM11PW0NAQEhdMVtDSDJdW0NIMl1bQ0BdMihbQ0gyXVtPSF0pW0NIMl1bQ0gyXVtDQEhdKFtDQEBIXShbQ0gzXSlbQ0gyXVtDSDJdW0NASF0zW0NASF00W09IXSlbQ0BAXTEzW0NAQEhdMltDQF0oW0NAXTQ1NikoW0NIM10pW0NIMl1bQ0gyXVtDQEBIXShbQ0gyXTUpW0NASF02W09IXQ==

>  <s_epik_cmdline>  (279) 
J2VwaWtfcHl0aG9uJywgJy1waHQnLCAnMi4wJywgJy1waCcsICc3LjAnLCAnLXRuJywgJzgnLCAnLW1hJywgJzIwMCcsICctaW1hZScsICc8aW5maWxlLm1hZT4nLCAnLW9tYWUnLCAnPG91dGZpbGUubWFlPic=

>  <r_lp_tautomer_probability>  (279) 
1

>  <r_epik_Ionization_Penalty>  (279) 
3.1302e-06

>  <r_epik_Ionization_Penalty_Charging>  (279) 
0

>  <r_epik_Ionization_Penalty_Neutral>  (279) 
3.1302e-06

>  <r_epik_State_Penalty>  (279) 
-0

>  <r_epik_Charging_Adjusted_Penalty>  (279) 
0

>  <i_epik_Tot_Q>  (279) 
0

>  <i_epik_Tot_abs_Q>  (279) 
0

>  <s_lp_Force_Field>  (279) 
OPLS3e

>  <r_lp_Energy>  (279) 
114.664

>  <b_lp_Chiralities_Consistent>  (279) 
1

>  <s_lp_Variant>  (279) 
91:0-1

>  <s_i_glide_gridfile>  (279) 
pfpi4k_grid

>  <i_i_glide_lignum>  (279) 
6

>  <i_i_glide_rotatable_bonds>  (279) 
5

>  <r_i_docking_score>  (279) 
-1.96254

>  <r_i_glide_ligand_efficiency>  (279) 
-0.0676736

>  <r_i_glide_ligand_efficiency_sa>  (279) 
-0.207915

>  <r_i_glide_ligand_efficiency_ln>  (279) 
-0.449371

>  <r_i_glide_gscore>  (279) 
-1.96254

>  <r_i_glide_lipo>  (279) 
-0.447612

>  <r_i_glide_hbond>  (279) 
0

>  <r_i_glide_metal>  (279) 
-0

>  <r_i_glide_rewards>  (279) 
-0.650572

>  <r_i_glide_evdw>  (279) 
-18.5065

>  <r_i_glide_ecoul>  (279) 
-0.393599

>  <r_i_glide_erotb>  (279) 
0.120012

>  <r_i_glide_esite>  (279) 
0

>  <r_i_glide_emodel>  (279) 
-21.5607

>  <r_i_glide_energy>  (279) 
-18.9001

>  <r_i_glide_einternal>  (279) 
0.535953

>  <r_i_glide_intrahb_reward>  (279) 
-0

>  <i_i_glide_confnum>  (279) 
4

>  <i_i_glide_posenum>  (279) 
13

>  <r_i_glide_eff_state_penalty>  (279) 
0

>  <ligand_id>  (279) 
91

>  <original_smiles>  (279) 
COC1CCC2(CO)CCC3C(C)CCC4C(O)C56CC(CCC5(C)C2C134)C6O

>  <smiles>  (279) 
[H]OC([H])([H])C12C([H])([H])C([H])([H])C([H])(OC([H])([H])[H])C34C([H])(C([H])([H])C([H])([H])C([H])(C([H])([H])[H])C3([H])C([H])([H])C1([H])[H])C([H])(O[H])C13C([H])([H])C([H])(C([H])([H])C([H])([H])C1(C([H])([H])[H])C24[H])C3([H])O[H]

$$$$
92:0:0
     RDKit          3D

 65 71  0  0  1  0  0  0  0  0999 V2000
   -2.8845    3.2732    3.7023 C   0  0  0  0  0  0  0  0  0  0  0  0
   -1.4020    2.8330    3.7874 C   0  0  2  0  0  0  0  0  0  0  0  0
   -1.1859    1.3656    4.3404 C   0  0  2  0  0  0  0  0  0  0  0  0
   -0.9271    1.1318    5.7297 O   0  0  0  0  0  0  0  0  0  0  0  0
   -0.8857    2.0710    6.7511 C   0  0  0  0  0  0  0  0  0  0  0  0
   -2.2297    2.8244    6.9040 C   0  0  0  0  0  0  0  0  0  0  0  0
   -0.7058    1.2811    8.0792 C   0  0  0  0  0  0  0  0  0  0  0  0
    0.1573    3.0057    6.6098 O   0  0  0  0  0  0  0  0  0  0  0  0
    1.3475    2.8370    5.7935 C   0  0  2  0  0  0  0  0  0  0  0  0
    0.9725    3.5053    4.6356 C   0  0  2  0  0  0  0  0  0  0  0  0
    1.9449    4.5389    4.4928 O   0  0  0  0  0  0  0  0  0  0  0  0
   -0.4355    3.9676    4.2427 C   0  0  1  0  0  0  0  0  0  0  0  0
   -0.4232    5.0020    3.2820 O   0  0  0  0  0  0  0  0  0  0  0  0
    1.6636    2.0923    4.3968 C   0  0  1  0  0  0  0  0  0  0  0  0
    1.3728    2.1316    2.8687 C   0  0  1  0  0  0  0  0  0  0  0  0
    2.5533    2.0081    2.1398 O   0  0  0  0  0  0  0  0  0  0  0  0
    0.4010    1.2084    2.4644 O   0  0  0  0  0  0  0  0  0  0  0  0
   -0.2502    0.4310    3.4469 C   0  0  1  0  0  0  0  0  0  0  0  0
    0.9050   -0.4830    4.0357 C   0  0  1  0  0  0  0  0  0  0  0  0
    1.4912   -1.3337    2.8008 C   0  0  1  0  0  0  0  0  0  0  0  0
    2.1247   -0.6859    1.7110 O   0  0  0  0  0  0  0  0  0  0  0  0
    2.4810   -2.4761    3.1178 C   0  0  0  0  0  0  0  0  0  0  0  0
    1.8595   -3.5099    4.0315 C   0  0  0  0  0  0  0  0  0  0  0  0
    1.8669   -4.6769    3.6665 O   0  0  0  0  0  0  0  0  0  0  0  0
    1.2189   -2.9447    5.2392 C   0  0  1  0  0  0  0  0  0  0  0  0
    2.2170   -2.3381    6.2108 C   0  0  0  0  0  0  0  0  0  0  0  0
    3.3269   -2.6365    6.6556 O   0  0  0  0  0  0  0  0  0  0  0  0
    1.2505   -1.1598    6.4310 C   0  0  1  0  0  0  0  0  0  0  0  0
    1.9262    0.1752    6.2725 C   0  0  0  0  0  0  0  0  0  0  0  0
    1.9165    0.5478    4.7422 C   0  0  2  0  0  0  0  0  0  0  0  0
    3.4348    0.3420    4.4217 C   0  0  0  0  0  0  0  0  0  0  0  0
    0.4898   -1.5560    5.1448 C   0  0  1  0  0  0  0  0  0  0  0  0
   -1.0148   -1.8372    5.1954 C   0  0  0  0  0  0  0  0  0  0  0  0
   -3.4534    3.1567    4.6216 H   0  0  0  0  0  0  0  0  0  0  0  0
   -3.4069    2.6866    2.9442 H   0  0  0  0  0  0  0  0  0  0  0  0
   -2.9342    4.3160    3.3825 H   0  0  0  0  0  0  0  0  0  0  0  0
   -1.2359    2.7705    2.7142 H   0  0  0  0  0  0  0  0  0  0  0  0
   -2.1752    0.9201    4.2277 H   0  0  0  0  0  0  0  0  0  0  0  0
   -2.2912    3.6906    6.2599 H   0  0  0  0  0  0  0  0  0  0  0  0
   -2.3210    3.2354    7.9097 H   0  0  0  0  0  0  0  0  0  0  0  0
   -3.0655    2.1509    6.7193 H   0  0  0  0  0  0  0  0  0  0  0  0
   -0.7341    0.2147    7.8787 H   0  0  0  0  0  0  0  0  0  0  0  0
   -1.5098    1.4805    8.7868 H   0  0  0  0  0  0  0  0  0  0  0  0
    0.2321    1.5375    8.5730 H   0  0  0  0  0  0  0  0  0  0  0  0
    2.2255    3.1566    6.3519 H   0  0  0  0  0  0  0  0  0  0  0  0
    1.8900    4.8545    3.6030 H   0  0  0  0  0  0  0  0  0  0  0  0
   -0.8105    4.5172    5.0937 H   0  0  0  0  0  0  0  0  0  0  0  0
   -0.1864    4.6848    2.3788 H   0  0  0  0  0  0  0  0  0  0  0  0
    1.0231    3.0799    2.4592 H   0  0  0  0  0  0  0  0  0  0  0  0
    2.8466    1.1144    2.2207 H   0  0  0  0  0  0  0  0  0  0  0  0
   -0.9339   -0.2203    2.9099 H   0  0  0  0  0  0  0  0  0  0  0  0
    0.6240   -1.8323    2.3599 H   0  0  0  0  0  0  0  0  0  0  0  0
    1.5180   -0.6229    0.9785 H   0  0  0  0  0  0  0  0  0  0  0  0
    2.7425   -2.9882    2.1845 H   0  0  0  0  0  0  0  0  0  0  0  0
    3.4264   -2.1269    3.5351 H   0  0  0  0  0  0  0  0  0  0  0  0
    0.6148   -3.6793    5.7542 H   0  0  0  0  0  0  0  0  0  0  0  0
    0.6546   -1.2928    7.3262 H   0  0  0  0  0  0  0  0  0  0  0  0
    1.4192    0.8449    6.9397 H   0  0  0  0  0  0  0  0  0  0  0  0
    2.9255    0.1746    6.7110 H   0  0  0  0  0  0  0  0  0  0  0  0
    3.8507   -0.5672    4.8558 H   0  0  0  0  0  0  0  0  0  0  0  0
    4.0120    1.1656    4.8428 H   0  0  0  0  0  0  0  0  0  0  0  0
    3.6902    0.3088    3.3716 H   0  0  0  0  0  0  0  0  0  0  0  0
   -1.2373   -2.6506    5.8897 H   0  0  0  0  0  0  0  0  0  0  0  0
   -1.3776   -2.1533    4.2272 H   0  0  0  0  0  0  0  0  0  0  0  0
   -1.6286   -1.0196    5.5356 H   0  0  0  0  0  0  0  0  0  0  0  0
  1  2  1  0
  1 34  1  0
  1 35  1  0
  1 36  1  0
  2 12  1  0
  2  3  1  0
  2 37  1  6
  3 18  1  0
  3  4  1  0
  3 38  1  1
  4  5  1  0
  5  6  1  0
  5  7  1  0
  5  8  1  0
  6 39  1  0
  6 40  1  0
  6 41  1  0
  7 42  1  0
  7 43  1  0
  7 44  1  0
  8  9  1  0
  9 14  1  0
  9 10  1  0
  9 45  1  1
 10 11  1  6
 10 12  1  0
 10 14  1  0
 11 46  1  0
 12 13  1  0
 12 47  1  1
 13 48  1  0
 14 30  1  1
 14 15  1  0
 15 16  1  0
 15 17  1  0
 15 49  1  1
 16 50  1  0
 17 18  1  0
 18 19  1  0
 18 51  1  6
 19 30  1  1
 19 32  1  0
 19 20  1  0
 20 21  1  0
 20 22  1  0
 20 52  1  6
 21 53  1  0
 22 23  1  0
 22 54  1  0
 22 55  1  0
 23 24  2  0
 23 25  1  0
 25 32  1  0
 25 26  1  0
 25 56  1  1
 26 27  2  0
 26 28  1  0
 28 29  1  0
 28 32  1  0
 28 57  1  1
 29 30  1  0
 29 58  1  0
 29 59  1  0
 30 31  1  6
 31 60  1  0
 31 61  1  0
 31 62  1  0
 32 33  1  1
 33 63  1  0
 33 64  1  0
 33 65  1  0
M  END
>  <i_m_ct_stereo_status>  (280) 
1

>  <s_m_source_file>  (280) 
/var/tmp/pbs.5076255.sched01/tmpajq2dbrl/12675ddggds.sdf

>  <i_m_source_file_index>  (280) 
7

>  <i_lp_mmshare_version>  (280) 
48012

>  <i_f3d_flags>  (280) 
2

>  <s_epik_input>  (280) 
QzEyM1tDQEhdNFtDQF0xKFtPSF0pW0NAQEhdKFtPSF0pW0NASF0oW0NIM10pW0NASF0oT0MoTzQpKFtDSDNdKVtDSDNdKVtDQEhdKE9bQ0BASF0yW09IXSlbQ0BAXTU2W0NAXTMoW0NIM10pW0NIMl1bQ0BIXTdbQ0BdNihbQ0gzXSlbQ0BIXShDNz1PKUMoPU8pW0NIMl1bQ0BASF01W09IXQ==

>  <s_epik_cmdline>  (280) 
J2VwaWtfcHl0aG9uJywgJy1waHQnLCAnMi4wJywgJy1waCcsICc3LjAnLCAnLXRuJywgJzgnLCAnLW1hJywgJzIwMCcsICctaW1hZScsICc8aW5maWxlLm1hZT4nLCAnLW9tYWUnLCAnPG91dGZpbGUubWFlPic=

>  <r_lp_tautomer_probability>  (280) 
1

>  <r_epik_Ionization_Penalty>  (280) 
0.00482485

>  <r_epik_Ionization_Penalty_Charging>  (280) 
0

>  <r_epik_Ionization_Penalty_Neutral>  (280) 
0.00482485

>  <r_epik_State_Penalty>  (280) 
-0

>  <r_epik_Charging_Adjusted_Penalty>  (280) 
0

>  <i_epik_Tot_Q>  (280) 
0

>  <i_epik_Tot_abs_Q>  (280) 
0

>  <s_epik_Chemistry_Notes>  (280) 
This compound contains an acetal/aminal-like group ( X-CH(R)-Y where X, Y are N, S, or O) that may be acid/base labile, releasing an aldehyde.

>  <s_lp_Force_Field>  (280) 
OPLS3e

>  <r_lp_Energy>  (280) 
197.136

>  <b_lp_Chiralities_Consistent>  (280) 
0

>  <s_lp_Variant>  (280) 
92:0-1

>  <s_i_glide_gridfile>  (280) 
pfpi4k_grid

>  <i_i_glide_lignum>  (280) 
7

>  <i_i_glide_rotatable_bonds>  (280) 
4

>  <r_i_docking_score>  (280) 
-3.42752

>  <r_i_glide_ligand_efficiency>  (280) 
-0.103864

>  <r_i_glide_ligand_efficiency_sa>  (280) 
-0.333149

>  <r_i_glide_ligand_efficiency_ln>  (280) 
-0.762264

>  <r_i_glide_gscore>  (280) 
-3.42752

>  <r_i_glide_lipo>  (280) 
-0.106473

>  <r_i_glide_hbond>  (280) 
0

>  <r_i_glide_metal>  (280) 
-0

>  <r_i_glide_rewards>  (280) 
-0.753247

>  <r_i_glide_evdw>  (280) 
-20.3044

>  <r_i_glide_ecoul>  (280) 
-9.96758

>  <r_i_glide_erotb>  (280) 
0

>  <r_i_glide_esite>  (280) 
-0.0574482

>  <r_i_glide_emodel>  (280) 
-40.8446

>  <r_i_glide_energy>  (280) 
-30.272

>  <r_i_glide_einternal>  (280) 
1.45276

>  <r_i_glide_intrahb_reward>  (280) 
-0.5

>  <i_i_glide_confnum>  (280) 
1

>  <i_i_glide_posenum>  (280) 
33

>  <r_i_glide_eff_state_penalty>  (280) 
0

>  <ligand_id>  (280) 
92

>  <original_smiles>  (280) 
CC1C2OC(C)(C)OC3C(O)(C1O)C31C(O)OC2C23C(O)CC(=O)C4C(=O)C(CC21C)C43C

>  <smiles>  (280) 
[H]OC1([H])OC2([H])C3([H])OC(C([H])([H])[H])(C([H])([H])[H])OC4([H])C(O[H])(C([H])(O[H])C3([H])C([H])([H])[H])C14C1(C([H])([H])[H])C([H])([H])C3([H])C(=O)C4([H])C(=O)C([H])([H])C([H])(O[H])C21C43C([H])([H])[H]

$$$$
92:0:1
     RDKit          3D

 65 71  0  0  1  0  0  0  0  0999 V2000
   -3.3711    3.2472    3.3983 C   0  0  0  0  0  0  0  0  0  0  0  0
   -1.8737    2.9875    3.6705 C   0  0  2  0  0  0  0  0  0  0  0  0
   -1.5615    1.6266    4.4205 C   0  0  2  0  0  0  0  0  0  0  0  0
   -1.4334    1.5717    5.8474 O   0  0  0  0  0  0  0  0  0  0  0  0
   -1.5786    2.6212    6.7545 C   0  0  0  0  0  0  0  0  0  0  0  0
   -2.9843    3.2522    6.6962 C   0  0  0  0  0  0  0  0  0  0  0  0
   -1.4575    2.0113    8.1772 C   0  0  0  0  0  0  0  0  0  0  0  0
   -0.6186    3.6323    6.5830 O   0  0  0  0  0  0  0  0  0  0  0  0
    0.6502    3.5129    5.8938 C   0  0  2  0  0  0  0  0  0  0  0  0
    0.3526    4.0114    4.6376 C   0  0  2  0  0  0  0  0  0  0  0  0
    1.1916    5.1322    4.4636 O   0  0  0  0  0  0  0  0  0  0  0  0
   -1.0737    4.2645    4.0742 C   0  0  1  0  0  0  0  0  0  0  0  0
   -1.0729    5.1942    2.9897 O   0  0  0  0  0  0  0  0  0  0  0  0
    1.1844    2.6610    4.6188 C   0  0  1  0  0  0  0  0  0  0  0  0
    1.0349    2.4906    3.0743 C   0  0  1  0  0  0  0  0  0  0  0  0
    2.2671    2.4721    2.4295 O   0  0  0  0  0  0  0  0  0  0  0  0
    0.2199    1.4069    2.7064 O   0  0  0  0  0  0  0  0  0  0  0  0
   -0.4625    0.6978    3.7408 C   0  0  1  0  0  0  0  0  0  0  0  0
    0.7152   -0.0126    4.5341 C   0  0  1  0  0  0  0  0  0  0  0  0
    1.4844   -0.9490    3.4830 C   0  0  1  0  0  0  0  0  0  0  0  0
    2.1203   -0.3834    2.3544 O   0  0  0  0  0  0  0  0  0  0  0  0
    2.5599   -1.9179    4.0136 C   0  0  0  0  0  0  0  0  0  0  0  0
    1.9611   -2.8946    4.9877 C   0  0  0  0  0  0  0  0  0  0  0  0
    2.1174   -4.1022    4.7938 O   0  0  0  0  0  0  0  0  0  0  0  0
    1.1461   -2.2705    6.0631 C   0  0  1  0  0  0  0  0  0  0  0  0
    1.9766   -1.4485    7.0421 C   0  0  0  0  0  0  0  0  0  0  0  0
    3.0513   -1.5778    7.6130 O   0  0  0  0  0  0  0  0  0  0  0  0
    0.8740   -0.3711    7.0151 C   0  0  1  0  0  0  0  0  0  0  0  0
    1.4306    1.0041    6.7552 C   0  0  0  0  0  0  0  0  0  0  0  0
    1.5362    1.2033    5.1984 C   0  0  2  0  0  0  0  0  0  0  0  0
    3.0881    1.1230    5.0260 C   0  0  0  0  0  0  0  0  0  0  0  0
    0.2970   -0.9910    5.7261 C   0  0  1  0  0  0  0  0  0  0  0  0
   -1.1750   -1.4363    5.6768 C   0  0  0  0  0  0  0  0  0  0  0  0
   -4.0128    3.1528    4.2705 H   0  0  0  0  0  0  0  0  0  0  0  0
   -3.7571    2.5327    2.6754 H   0  0  0  0  0  0  0  0  0  0  0  0
   -3.5262    4.2138    2.9176 H   0  0  0  0  0  0  0  0  0  0  0  0
   -1.5864    2.8178    2.6370 H   0  0  0  0  0  0  0  0  0  0  0  0
   -2.4859    1.0677    4.2872 H   0  0  0  0  0  0  0  0  0  0  0  0
   -3.0538    4.0120    5.9370 H   0  0  0  0  0  0  0  0  0  0  0  0
   -3.2101    3.7618    7.6360 H   0  0  0  0  0  0  0  0  0  0  0  0
   -3.7512    2.4999    6.5261 H   0  0  0  0  0  0  0  0  0  0  0  0
   -1.3652    0.9320    8.1147 H   0  0  0  0  0  0  0  0  0  0  0  0
   -2.3474    2.1951    8.7830 H   0  0  0  0  0  0  0  0  0  0  0  0
   -0.6080    2.4243    8.7203 H   0  0  0  0  0  0  0  0  0  0  0  0
    1.4338    3.9762    6.4888 H   0  0  0  0  0  0  0  0  0  0  0  0
    1.2355    5.3341    3.5418 H   0  0  0  0  0  0  0  0  0  0  0  0
   -1.5769    4.8553    4.8265 H   0  0  0  0  0  0  0  0  0  0  0  0
   -0.6054    4.8443    2.2248 H   0  0  0  0  0  0  0  0  0  0  0  0
    0.5957    3.3207    2.5255 H   0  0  0  0  0  0  0  0  0  0  0  0
    2.1053    2.7407    1.5395 H   0  0  0  0  0  0  0  0  0  0  0  0
   -1.0265   -0.0865    3.2378 H   0  0  0  0  0  0  0  0  0  0  0  0
    0.7158   -1.5831    3.0386 H   0  0  0  0  0  0  0  0  0  0  0  0
    1.4765    0.1081    1.8594 H   0  0  0  0  0  0  0  0  0  0  0  0
    2.9589   -2.4960    3.1789 H   0  0  0  0  0  0  0  0  0  0  0  0
    3.4148   -1.4137    4.4627 H   0  0  0  0  0  0  0  0  0  0  0  0
    0.5718   -3.0122    6.6092 H   0  0  0  0  0  0  0  0  0  0  0  0
    0.2186   -0.4640    7.8740 H   0  0  0  0  0  0  0  0  0  0  0  0
    0.7955    1.6819    7.2845 H   0  0  0  0  0  0  0  0  0  0  0  0
    2.3733    1.1671    7.2768 H   0  0  0  0  0  0  0  0  0  0  0  0
    3.5525    0.3202    5.5959 H   0  0  0  0  0  0  0  0  0  0  0  0
    3.5457    2.0439    5.3994 H   0  0  0  0  0  0  0  0  0  0  0  0
    3.4281    1.0184    4.0015 H   0  0  0  0  0  0  0  0  0  0  0  0
   -1.3829   -2.1858    6.4410 H   0  0  0  0  0  0  0  0  0  0  0  0
   -1.4053   -1.9052    4.7228 H   0  0  0  0  0  0  0  0  0  0  0  0
   -1.8989   -0.6559    5.8567 H   0  0  0  0  0  0  0  0  0  0  0  0
  1  2  1  0
  1 34  1  0
  1 35  1  0
  1 36  1  0
  2 12  1  0
  2  3  1  0
  2 37  1  6
  3 18  1  0
  3  4  1  0
  3 38  1  1
  4  5  1  0
  5  6  1  0
  5  7  1  0
  5  8  1  0
  6 39  1  0
  6 40  1  0
  6 41  1  0
  7 42  1  0
  7 43  1  0
  7 44  1  0
  8  9  1  0
  9 14  1  0
  9 10  1  0
  9 45  1  1
 10 11  1  1
 10 12  1  0
 10 14  1  0
 11 46  1  0
 12 13  1  0
 12 47  1  1
 13 48  1  0
 14 30  1  6
 14 15  1  0
 15 16  1  0
 15 17  1  0
 15 49  1  6
 16 50  1  0
 17 18  1  0
 18 19  1  0
 18 51  1  6
 19 30  1  1
 19 32  1  0
 19 20  1  0
 20 21  1  0
 20 22  1  0
 20 52  1  6
 21 53  1  0
 22 23  1  0
 22 54  1  0
 22 55  1  0
 23 24  2  0
 23 25  1  0
 25 32  1  0
 25 26  1  0
 25 56  1  1
 26 27  2  0
 26 28  1  0
 28 29  1  0
 28 32  1  0
 28 57  1  1
 29 30  1  0
 29 58  1  0
 29 59  1  0
 30 31  1  6
 31 60  1  0
 31 61  1  0
 31 62  1  0
 32 33  1  1
 33 63  1  0
 33 64  1  0
 33 65  1  0
M  END
>  <i_m_ct_stereo_status>  (281) 
1

>  <s_m_source_file>  (281) 
/var/tmp/pbs.5076255.sched01/tmpajq2dbrl/12675ddggds.sdf

>  <i_m_source_file_index>  (281) 
7

>  <i_lp_mmshare_version>  (281) 
48012

>  <i_f3d_flags>  (281) 
2

>  <s_epik_input>  (281) 
QzEyM1tDQEhdNFtDQF0xKFtPSF0pW0NAQEhdKFtPSF0pW0NASF0oW0NIM10pW0NASF0oT0MoTzQpKFtDSDNdKVtDSDNdKVtDQEhdKE9bQ0BASF0yW09IXSlbQ0BAXTU2W0NAXTMoW0NIM10pW0NIMl1bQ0BIXTdbQ0BdNihbQ0gzXSlbQ0BIXShDNz1PKUMoPU8pW0NIMl1bQ0BASF01W09IXQ==

>  <s_epik_cmdline>  (281) 
J2VwaWtfcHl0aG9uJywgJy1waHQnLCAnMi4wJywgJy1waCcsICc3LjAnLCAnLXRuJywgJzgnLCAnLW1hJywgJzIwMCcsICctaW1hZScsICc8aW5maWxlLm1hZT4nLCAnLW9tYWUnLCAnPG91dGZpbGUubWFlPic=

>  <r_lp_tautomer_probability>  (281) 
1

>  <r_epik_Ionization_Penalty>  (281) 
0.00482485

>  <r_epik_Ionization_Penalty_Charging>  (281) 
0

>  <r_epik_Ionization_Penalty_Neutral>  (281) 
0.00482485

>  <r_epik_State_Penalty>  (281) 
-0

>  <r_epik_Charging_Adjusted_Penalty>  (281) 
0

>  <i_epik_Tot_Q>  (281) 
0

>  <i_epik_Tot_abs_Q>  (281) 
0

>  <s_epik_Chemistry_Notes>  (281) 
This compound contains an acetal/aminal-like group ( X-CH(R)-Y where X, Y are N, S, or O) that may be acid/base labile, releasing an aldehyde.

>  <s_lp_Force_Field>  (281) 
OPLS3e

>  <r_lp_Energy>  (281) 
197.136

>  <b_lp_Chiralities_Consistent>  (281) 
0

>  <s_lp_Variant>  (281) 
92:0-1

>  <s_i_glide_gridfile>  (281) 
pfpi4k_grid

>  <i_i_glide_lignum>  (281) 
7

>  <i_i_glide_rotatable_bonds>  (281) 
4

>  <r_i_docking_score>  (281) 
-3.18017

>  <r_i_glide_ligand_efficiency>  (281) 
-0.0963689

>  <r_i_glide_ligand_efficiency_sa>  (281) 
-0.309107

>  <r_i_glide_ligand_efficiency_ln>  (281) 
-0.707254

>  <r_i_glide_gscore>  (281) 
-3.18017

>  <r_i_glide_lipo>  (281) 
-0.14085

>  <r_i_glide_hbond>  (281) 
0

>  <r_i_glide_metal>  (281) 
-0

>  <r_i_glide_rewards>  (281) 
-0.793186

>  <r_i_glide_evdw>  (281) 
-19.43

>  <r_i_glide_ecoul>  (281) 
-8.04339

>  <r_i_glide_erotb>  (281) 
0

>  <r_i_glide_esite>  (281) 
-0.0681291

>  <r_i_glide_emodel>  (281) 
-37.7139

>  <r_i_glide_energy>  (281) 
-27.4734

>  <r_i_glide_einternal>  (281) 
1.20569

>  <r_i_glide_intrahb_reward>  (281) 
-0.5

>  <i_i_glide_confnum>  (281) 
2

>  <i_i_glide_posenum>  (281) 
10

>  <r_i_glide_eff_state_penalty>  (281) 
0

>  <ligand_id>  (281) 
92

>  <original_smiles>  (281) 
CC1C2OC(C)(C)OC3C(O)(C1O)C31C(O)OC2C23C(O)CC(=O)C4C(=O)C(CC21C)C43C

>  <smiles>  (281) 
[H]OC1([H])OC2([H])C3([H])OC(C([H])([H])[H])(C([H])([H])[H])OC4([H])C(O[H])(C([H])(O[H])C3([H])C([H])([H])[H])C14C1(C([H])([H])[H])C([H])([H])C3([H])C(=O)C4([H])C(=O)C([H])([H])C([H])(O[H])C21C43C([H])([H])[H]

$$$$
92:0:2
     RDKit          3D

 65 71  0  0  1  0  0  0  0  0999 V2000
   -3.3046    3.2883    3.3128 C   0  0  0  0  0  0  0  0  0  0  0  0
   -1.8080    3.0352    3.6097 C   0  0  2  0  0  0  0  0  0  0  0  0
   -1.5075    1.6779    4.3703 C   0  0  2  0  0  0  0  0  0  0  0  0
   -1.4120    1.6255    5.8003 O   0  0  0  0  0  0  0  0  0  0  0  0
   -1.5785    2.6744    6.7051 C   0  0  0  0  0  0  0  0  0  0  0  0
   -2.9848    3.2972    6.6155 C   0  0  0  0  0  0  0  0  0  0  0  0
   -1.4963    2.0662    8.1303 C   0  0  0  0  0  0  0  0  0  0  0  0
   -0.6243    3.6909    6.5567 O   0  0  0  0  0  0  0  0  0  0  0  0
    0.6619    3.5780    5.9001 C   0  0  2  0  0  0  0  0  0  0  0  0
    0.3903    4.0660    4.6320 C   0  0  2  0  0  0  0  0  0  0  0  0
    1.2299    5.1890    4.4763 O   0  0  0  0  0  0  0  0  0  0  0  0
   -1.0194    4.3131    4.0326 C   0  0  1  0  0  0  0  0  0  0  0  0
   -1.0041    5.2547    2.9583 O   0  0  0  0  0  0  0  0  0  0  0  0
    1.2351    2.7212    4.6421 C   0  0  1  0  0  0  0  0  0  0  0  0
    1.1347    2.5394    3.0983 C   0  0  1  0  0  0  0  0  0  0  0  0
    2.3877    2.5049    2.4805 O   0  0  0  0  0  0  0  0  0  0  0  0
    0.3194    1.4684    2.7143 O   0  0  0  0  0  0  0  0  0  0  0  0
   -0.3865    0.7534    3.7244 C   0  0  1  0  0  0  0  0  0  0  0  0
    0.7741    0.0477    4.5490 C   0  0  1  0  0  0  0  0  0  0  0  0
    1.5875   -0.8775    3.5219 C   0  0  1  0  0  0  0  0  0  0  0  0
    2.2834   -0.3006    2.4311 O   0  0  0  0  0  0  0  0  0  0  0  0
    2.6381   -1.8546    4.0830 C   0  0  0  0  0  0  0  0  0  0  0  0
    2.0114   -2.8301    5.0401 C   0  0  0  0  0  0  0  0  0  0  0  0
    2.1799   -4.0402    4.8519 O   0  0  0  0  0  0  0  0  0  0  0  0
    1.1675   -2.2081    6.0888 C   0  0  1  0  0  0  0  0  0  0  0  0
    1.9722   -1.3817    7.0869 C   0  0  0  0  0  0  0  0  0  0  0  0
    3.0374   -1.5007    7.6745 O   0  0  0  0  0  0  0  0  0  0  0  0
    0.8681   -0.3077    7.0312 C   0  0  1  0  0  0  0  0  0  0  0  0
    1.4277    1.0690    6.7859 C   0  0  0  0  0  0  0  0  0  0  0  0
    1.5728    1.2670    5.2324 C   0  0  2  0  0  0  0  0  0  0  0  0
    3.1311    1.1918    5.1050 C   0  0  0  0  0  0  0  0  0  0  0  0
    0.3230   -0.9311    5.7289 C   0  0  1  0  0  0  0  0  0  0  0  0
   -1.1461   -1.3794    5.6424 C   0  0  0  0  0  0  0  0  0  0  0  0
   -3.9608    3.1798    4.1731 H   0  0  0  0  0  0  0  0  0  0  0  0
   -3.6644    2.5663    2.5769 H   0  0  0  0  0  0  0  0  0  0  0  0
   -3.4638    4.2785    2.8790 H   0  0  0  0  0  0  0  0  0  0  0  0
   -1.4964    2.8674    2.5823 H   0  0  0  0  0  0  0  0  0  0  0  0
   -2.4275    1.1153    4.2139 H   0  0  0  0  0  0  0  0  0  0  0  0
   -3.0466    4.0494    5.8486 H   0  0  0  0  0  0  0  0  0  0  0  0
   -3.2332    3.8087    7.5455 H   0  0  0  0  0  0  0  0  0  0  0  0
   -3.7425    2.5390    6.4485 H   0  0  0  0  0  0  0  0  0  0  0  0
   -1.4008    0.9872    8.0695 H   0  0  0  0  0  0  0  0  0  0  0  0
   -2.4021    2.2504    8.7120 H   0  0  0  0  0  0  0  0  0  0  0  0
   -0.6637    2.4861    8.6933 H   0  0  0  0  0  0  0  0  0  0  0  0
    1.4260    4.0504    6.5112 H   0  0  0  0  0  0  0  0  0  0  0  0
    1.2882    5.3932    3.5577 H   0  0  0  0  0  0  0  0  0  0  0  0
   -1.5444    4.8944    4.7750 H   0  0  0  0  0  0  0  0  0  0  0  0
   -0.5748    4.8935    2.1759 H   0  0  0  0  0  0  0  0  0  0  0  0
    0.7055    3.3556    2.5294 H   0  0  0  0  0  0  0  0  0  0  0  0
    2.2508    2.7828    1.5927 H   0  0  0  0  0  0  0  0  0  0  0  0
   -0.9333   -0.0287    3.1986 H   0  0  0  0  0  0  0  0  0  0  0  0
    0.8383   -1.5047    3.0363 H   0  0  0  0  0  0  0  0  0  0  0  0
    2.7918    0.4359    2.7393 H   0  0  0  0  0  0  0  0  0  0  0  0
    3.0530   -2.4338    3.2571 H   0  0  0  0  0  0  0  0  0  0  0  0
    3.4818   -1.3524    4.5551 H   0  0  0  0  0  0  0  0  0  0  0  0
    0.5810   -2.9477    6.6235 H   0  0  0  0  0  0  0  0  0  0  0  0
    0.1912   -0.4004    7.8733 H   0  0  0  0  0  0  0  0  0  0  0  0
    0.7795    1.7486    7.2971 H   0  0  0  0  0  0  0  0  0  0  0  0
    2.3583    1.2355    7.3285 H   0  0  0  0  0  0  0  0  0  0  0  0
    3.5825    0.3890    5.6857 H   0  0  0  0  0  0  0  0  0  0  0  0
    3.5693    2.1164    5.4917 H   0  0  0  0  0  0  0  0  0  0  0  0
    3.5146    1.0987    4.0959 H   0  0  0  0  0  0  0  0  0  0  0  0
   -1.3707   -2.1287    6.4021 H   0  0  0  0  0  0  0  0  0  0  0  0
   -1.3616   -1.8491    4.6841 H   0  0  0  0  0  0  0  0  0  0  0  0
   -1.8758   -0.6003    5.8062 H   0  0  0  0  0  0  0  0  0  0  0  0
  1  2  1  0
  1 34  1  0
  1 35  1  0
  1 36  1  0
  2 12  1  0
  2  3  1  0
  2 37  1  6
  3 18  1  0
  3  4  1  0
  3 38  1  1
  4  5  1  0
  5  6  1  0
  5  7  1  0
  5  8  1  0
  6 39  1  0
  6 40  1  0
  6 41  1  0
  7 42  1  0
  7 43  1  0
  7 44  1  0
  8  9  1  0
  9 14  1  0
  9 10  1  0
  9 45  1  1
 10 11  1  1
 10 12  1  0
 10 14  1  0
 11 46  1  0
 12 13  1  0
 12 47  1  1
 13 48  1  0
 14 30  1  6
 14 15  1  0
 15 16  1  0
 15 17  1  0
 15 49  1  6
 16 50  1  0
 17 18  1  0
 18 19  1  0
 18 51  1  6
 19 30  1  1
 19 32  1  0
 19 20  1  0
 20 21  1  0
 20 22  1  0
 20 52  1  6
 21 53  1  0
 22 23  1  0
 22 54  1  0
 22 55  1  0
 23 24  2  0
 23 25  1  0
 25 32  1  0
 25 26  1  0
 25 56  1  1
 26 27  2  0
 26 28  1  0
 28 29  1  0
 28 32  1  0
 28 57  1  1
 29 30  1  0
 29 58  1  0
 29 59  1  0
 30 31  1  1
 31 60  1  0
 31 61  1  0
 31 62  1  0
 32 33  1  1
 33 63  1  0
 33 64  1  0
 33 65  1  0
M  END
>  <i_m_ct_stereo_status>  (282) 
1

>  <s_m_source_file>  (282) 
/var/tmp/pbs.5076255.sched01/tmpajq2dbrl/12675ddggds.sdf

>  <i_m_source_file_index>  (282) 
7

>  <i_lp_mmshare_version>  (282) 
48012

>  <i_f3d_flags>  (282) 
2

>  <s_epik_input>  (282) 
QzEyM1tDQEhdNFtDQF0xKFtPSF0pW0NAQEhdKFtPSF0pW0NASF0oW0NIM10pW0NASF0oT0MoTzQpKFtDSDNdKVtDSDNdKVtDQEhdKE9bQ0BASF0yW09IXSlbQ0BAXTU2W0NAXTMoW0NIM10pW0NIMl1bQ0BIXTdbQ0BdNihbQ0gzXSlbQ0BIXShDNz1PKUMoPU8pW0NIMl1bQ0BASF01W09IXQ==

>  <s_epik_cmdline>  (282) 
J2VwaWtfcHl0aG9uJywgJy1waHQnLCAnMi4wJywgJy1waCcsICc3LjAnLCAnLXRuJywgJzgnLCAnLW1hJywgJzIwMCcsICctaW1hZScsICc8aW5maWxlLm1hZT4nLCAnLW9tYWUnLCAnPG91dGZpbGUubWFlPic=

>  <r_lp_tautomer_probability>  (282) 
1

>  <r_epik_Ionization_Penalty>  (282) 
0.00482485

>  <r_epik_Ionization_Penalty_Charging>  (282) 
0

>  <r_epik_Ionization_Penalty_Neutral>  (282) 
0.00482485

>  <r_epik_State_Penalty>  (282) 
-0

>  <r_epik_Charging_Adjusted_Penalty>  (282) 
0

>  <i_epik_Tot_Q>  (282) 
0

>  <i_epik_Tot_abs_Q>  (282) 
0

>  <s_epik_Chemistry_Notes>  (282) 
This compound contains an acetal/aminal-like group ( X-CH(R)-Y where X, Y are N, S, or O) that may be acid/base labile, releasing an aldehyde.

>  <s_lp_Force_Field>  (282) 
OPLS3e

>  <r_lp_Energy>  (282) 
197.136

>  <b_lp_Chiralities_Consistent>  (282) 
0

>  <s_lp_Variant>  (282) 
92:0-1

>  <s_i_glide_gridfile>  (282) 
pfpi4k_grid

>  <i_i_glide_lignum>  (282) 
7

>  <i_i_glide_rotatable_bonds>  (282) 
4

>  <r_i_docking_score>  (282) 
-3.0097

>  <r_i_glide_ligand_efficiency>  (282) 
-0.0912031

>  <r_i_glide_ligand_efficiency_sa>  (282) 
-0.292537

>  <r_i_glide_ligand_efficiency_ln>  (282) 
-0.669342

>  <r_i_glide_gscore>  (282) 
-3.0097

>  <r_i_glide_lipo>  (282) 
-0.135226

>  <r_i_glide_hbond>  (282) 
0

>  <r_i_glide_metal>  (282) 
-0

>  <r_i_glide_rewards>  (282) 
-0.798823

>  <r_i_glide_evdw>  (282) 
-19.6526

>  <r_i_glide_ecoul>  (282) 
-6.84694

>  <r_i_glide_erotb>  (282) 
0

>  <r_i_glide_esite>  (282) 
-0.0659806

>  <r_i_glide_emodel>  (282) 
-36.4703

>  <r_i_glide_energy>  (282) 
-26.4995

>  <r_i_glide_einternal>  (282) 
0.785437

>  <r_i_glide_intrahb_reward>  (282) 
-0.5

>  <i_i_glide_confnum>  (282) 
2

>  <i_i_glide_posenum>  (282) 
24

>  <r_i_glide_eff_state_penalty>  (282) 
0

>  <ligand_id>  (282) 
92

>  <original_smiles>  (282) 
CC1C2OC(C)(C)OC3C(O)(C1O)C31C(O)OC2C23C(O)CC(=O)C4C(=O)C(CC21C)C43C

>  <smiles>  (282) 
[H]OC1([H])OC2([H])C3([H])OC(C([H])([H])[H])(C([H])([H])[H])OC4([H])C(O[H])(C([H])(O[H])C3([H])C([H])([H])[H])C14C1(C([H])([H])[H])C([H])([H])C3([H])C(=O)C4([H])C(=O)C([H])([H])C([H])(O[H])C21C43C([H])([H])[H]

$$$$
93:0:0
     RDKit          3D

 79 85  0  0  1  0  0  0  0  0999 V2000
   -2.8248    2.9511    8.3312 C   0  0  0  0  0  0  0  0  0  0  0  0
   -1.3134    3.1796    8.1475 C   0  0  2  0  0  0  0  0  0  0  0  0
   -0.9653    4.3204    7.1735 C   0  0  0  0  0  0  0  0  0  0  0  0
    0.3700    3.9350    6.5082 C   0  0  0  0  0  0  0  0  0  0  0  0
    0.8146    2.6640    7.2424 C   0  0  2  0  0  0  0  0  0  0  0  0
    1.8833    1.7473    6.5701 C   0  0  1  0  0  0  0  0  0  0  0  0
    3.2266    2.5241    6.4543 C   0  0  1  0  0  0  0  0  0  0  0  0
    3.6117    3.1098    7.6883 O   0  0  0  0  0  0  0  0  0  0  0  0
    4.4442    1.7153    5.9970 C   0  0  0  0  0  0  0  0  0  0  0  0
    4.1833    0.7175    4.8598 C   0  0  2  0  0  0  0  0  0  0  0  0
    3.2842    1.2113    3.8631 O   0  0  0  0  0  0  0  0  0  0  0  0
    2.9570    0.4604    2.7588 C   0  0  0  0  0  0  0  0  0  0  0  0
    2.2017    0.8464    1.8918 O   0  0  0  0  0  0  0  0  0  0  0  0
    3.6598   -0.9344    2.6848 C   0  0  2  0  0  0  0  0  0  0  0  0
    5.0212   -0.7014    2.2884 O   0  0  0  0  0  0  0  0  0  0  0  0
    5.0635   -0.4537    0.8721 C   0  0  0  0  0  0  0  0  0  0  0  0
    4.0582   -1.4093    0.2811 C   0  0  1  0  0  0  0  0  0  0  0  0
    4.6429   -2.6495   -0.1102 O   0  0  0  0  0  0  0  0  0  0  0  0
    3.7388   -3.6086    0.3460 C   0  0  0  0  0  0  0  0  0  0  0  0
    2.5813   -3.7548   -0.6425 C   0  0  0  0  0  0  0  0  0  0  0  0
    4.4597   -4.9484    0.5347 C   0  0  0  0  0  0  0  0  0  0  0  0
    3.2491   -3.1531    1.5723 O   0  0  0  0  0  0  0  0  0  0  0  0
    3.1437   -1.7357    1.4475 C   0  0  1  0  0  0  0  0  0  0  0  0
    3.5863   -1.6369    4.0966 C   0  0  2  0  0  0  0  0  0  0  0  0
    4.6507   -2.7643    4.1693 C   0  0  0  0  0  0  0  0  0  0  0  0
    2.1684   -2.2002    4.3069 C   0  0  0  0  0  0  0  0  0  0  0  0
    1.4515   -1.2923    5.2972 C   0  0  0  0  0  0  0  0  0  0  0  0
    2.5283   -0.8444    6.3045 C   0  0  2  0  0  0  0  0  0  0  0  0
    2.8323   -2.0565    7.2280 C   0  0  0  0  0  0  0  0  0  0  0  0
    2.0693    0.3458    7.2605 C   0  0  2  0  0  0  0  0  0  0  0  0
    0.8256   -0.1135    8.1103 C   0  0  0  0  0  0  0  0  0  0  0  0
   -0.0987    0.9630    8.7029 C   0  0  0  0  0  0  0  0  0  0  0  0
   -0.4941    1.9781    7.6294 C   0  0  1  0  0  0  0  0  0  0  0  0
   -1.2156    1.3014    6.4369 C   0  0  0  0  0  0  0  0  0  0  0  0
    3.7817   -0.6805    5.3494 C   0  0  2  0  0  0  0  0  0  0  0  0
   -3.3352    2.7326    7.3920 H   0  0  0  0  0  0  0  0  0  0  0  0
   -3.3034    3.8315    8.7615 H   0  0  0  0  0  0  0  0  0  0  0  0
   -2.9970    2.1253    9.0175 H   0  0  0  0  0  0  0  0  0  0  0  0
   -0.9111    3.4576    9.1228 H   0  0  0  0  0  0  0  0  0  0  0  0
   -1.7278    4.4155    6.4016 H   0  0  0  0  0  0  0  0  0  0  0  0
   -0.9052    5.2727    7.7019 H   0  0  0  0  0  0  0  0  0  0  0  0
    0.2096    3.7323    5.4494 H   0  0  0  0  0  0  0  0  0  0  0  0
    1.1090    4.7327    6.5871 H   0  0  0  0  0  0  0  0  0  0  0  0
    1.2411    3.0169    8.1805 H   0  0  0  0  0  0  0  0  0  0  0  0
    1.5075    1.5653    5.5656 H   0  0  0  0  0  0  0  0  0  0  0  0
    3.0941    3.3526    5.7545 H   0  0  0  0  0  0  0  0  0  0  0  0
    4.3590    3.6602    7.5344 H   0  0  0  0  0  0  0  0  0  0  0  0
    5.1929    2.4346    5.6804 H   0  0  0  0  0  0  0  0  0  0  0  0
    4.8955    1.1898    6.8468 H   0  0  0  0  0  0  0  0  0  0  0  0
    5.1548    0.5965    4.3741 H   0  0  0  0  0  0  0  0  0  0  0  0
    4.6849    0.5447    0.6909 H   0  0  0  0  0  0  0  0  0  0  0  0
    6.0796   -0.5029    0.4880 H   0  0  0  0  0  0  0  0  0  0  0  0
    3.5164   -1.0144   -0.5765 H   0  0  0  0  0  0  0  0  0  0  0  0
    1.9987   -2.8479   -0.7884 H   0  0  0  0  0  0  0  0  0  0  0  0
    1.9351   -4.5275   -0.2591 H   0  0  0  0  0  0  0  0  0  0  0  0
    2.9892   -4.0605   -1.5893 H   0  0  0  0  0  0  0  0  0  0  0  0
    5.3228   -4.9109    1.2050 H   0  0  0  0  0  0  0  0  0  0  0  0
    4.7822   -5.2912   -0.4377 H   0  0  0  0  0  0  0  0  0  0  0  0
    3.7462   -5.6742    0.9045 H   0  0  0  0  0  0  0  0  0  0  0  0
    2.1123   -1.5218    1.1802 H   0  0  0  0  0  0  0  0  0  0  0  0
    4.7208   -3.2130    5.1614 H   0  0  0  0  0  0  0  0  0  0  0  0
    5.6450   -2.3974    3.9186 H   0  0  0  0  0  0  0  0  0  0  0  0
    4.4376   -3.5932    3.4967 H   0  0  0  0  0  0  0  0  0  0  0  0
    1.5727   -2.2759    3.4037 H   0  0  0  0  0  0  0  0  0  0  0  0
    2.2254   -3.2175    4.6994 H   0  0  0  0  0  0  0  0  0  0  0  0
    1.0383   -0.4437    4.7458 H   0  0  0  0  0  0  0  0  0  0  0  0
    0.6156   -1.8334    5.7373 H   0  0  0  0  0  0  0  0  0  0  0  0
    3.5376   -1.7868    8.0124 H   0  0  0  0  0  0  0  0  0  0  0  0
    3.2653   -2.8996    6.6974 H   0  0  0  0  0  0  0  0  0  0  0  0
    1.9379   -2.4557    7.7041 H   0  0  0  0  0  0  0  0  0  0  0  0
    2.8677    0.4866    8.0005 H   0  0  0  0  0  0  0  0  0  0  0  0
    0.2021   -0.8112    7.5508 H   0  0  0  0  0  0  0  0  0  0  0  0
    1.1860   -0.6852    8.9557 H   0  0  0  0  0  0  0  0  0  0  0  0
   -0.9847    0.5094    9.1487 H   0  0  0  0  0  0  0  0  0  0  0  0
    0.4086    1.4576    9.5334 H   0  0  0  0  0  0  0  0  0  0  0  0
   -0.5721    0.6093    5.9045 H   0  0  0  0  0  0  0  0  0  0  0  0
   -1.5583    2.0315    5.7044 H   0  0  0  0  0  0  0  0  0  0  0  0
   -2.0856    0.7398    6.7719 H   0  0  0  0  0  0  0  0  0  0  0  0
    4.6483   -1.0174    5.9277 H   0  0  0  0  0  0  0  0  0  0  0  0
  1  2  1  0
  1 36  1  0
  1 37  1  0
  1 38  1  0
  2 33  1  0
  2  3  1  0
  2 39  1  1
  3  4  1  0
  3 40  1  0
  3 41  1  0
  4  5  1  0
  4 42  1  0
  4 43  1  0
  5 33  1  0
  5  6  1  0
  5 44  1  1
  6 30  1  0
  6  7  1  0
  6 45  1  6
  7  8  1  0
  7  9  1  0
  7 46  1  6
  8 47  1  0
  9 10  1  0
  9 48  1  0
  9 49  1  0
 10 35  1  0
 10 11  1  0
 10 50  1  6
 11 12  1  0
 12 13  2  0
 12 14  1  0
 14 23  1  0
 14 15  1  6
 14 24  1  0
 15 16  1  0
 16 17  1  0
 16 51  1  0
 16 52  1  0
 17 23  1  0
 17 18  1  0
 17 53  1  6
 18 19  1  0
 19 20  1  0
 19 21  1  0
 19 22  1  0
 20 54  1  0
 20 55  1  0
 20 56  1  0
 21 57  1  0
 21 58  1  0
 21 59  1  0
 22 23  1  0
 23 60  1  6
 24 35  1  0
 24 25  1  6
 24 26  1  0
 25 61  1  0
 25 62  1  0
 25 63  1  0
 26 27  1  0
 26 64  1  0
 26 65  1  0
 27 28  1  0
 27 66  1  0
 27 67  1  0
 28 29  1  1
 28 30  1  0
 28 35  1  0
 29 68  1  0
 29 69  1  0
 29 70  1  0
 30 31  1  0
 30 71  1  1
 31 32  1  0
 31 72  1  0
 31 73  1  0
 32 33  1  0
 32 74  1  0
 32 75  1  0
 33 34  1  6
 34 76  1  0
 34 77  1  0
 34 78  1  0
 35 79  1  1
M  END
>  <i_m_ct_stereo_status>  (283) 
1

>  <s_m_source_file>  (283) 
/var/tmp/pbs.5076255.sched01/tmpajq2dbrl/12675ddggds.sdf

>  <i_m_source_file_index>  (283) 
8

>  <i_lp_mmshare_version>  (283) 
48012

>  <i_f3d_flags>  (283) 
0

>  <s_epik_input>  (283) 
W0NIMl0xW0NIMl1bQ0BdMihbQ0gzXSlbQ0BASF0zW0NIMl1bQ0gyXVtDQEBdKFtDSDNdKShbQ0BIXShbQ0gzXSlbQ0gyXVtDSDJdNClbQ0BIXTRbQ0BIXTNbQ0BASF0oW09IXSlbQ0gyXVtDQEhdKE9DNT1PKVtDQEBIXTJbQ0BdMShbQ0gzXSlbQ0BAXTU2W0NASF03W0NAQEhdKFtDSDJdTzYpT0MoTzcpKFtDSDNdKVtDSDNd

>  <s_epik_cmdline>  (283) 
J2VwaWtfcHl0aG9uJywgJy1waHQnLCAnMi4wJywgJy1waCcsICc3LjAnLCAnLXRuJywgJzgnLCAnLW1hJywgJzIwMCcsICctaW1hZScsICc8aW5maWxlLm1hZT4nLCAnLW9tYWUnLCAnPG91dGZpbGUubWFlPic=

>  <r_lp_tautomer_probability>  (283) 
1

>  <r_epik_Ionization_Penalty>  (283) 
5.19234e-07

>  <r_epik_Ionization_Penalty_Charging>  (283) 
0

>  <r_epik_Ionization_Penalty_Neutral>  (283) 
5.19234e-07

>  <r_epik_State_Penalty>  (283) 
-0

>  <r_epik_Charging_Adjusted_Penalty>  (283) 
0

>  <i_epik_Tot_Q>  (283) 
0

>  <i_epik_Tot_abs_Q>  (283) 
0

>  <s_epik_Chemistry_Notes>  (283) 
This compound has an ester and may undergo hydrolysis at high or low pH.

>  <s_lp_Force_Field>  (283) 
OPLS3e

>  <r_lp_Energy>  (283) 
55.4333

>  <b_lp_Chiralities_Consistent>  (283) 
1

>  <s_lp_Variant>  (283) 
93:0-1

>  <s_i_glide_gridfile>  (283) 
pfpi4k_grid

>  <i_i_glide_lignum>  (283) 
8

>  <i_i_glide_rotatable_bonds>  (283) 
1

>  <r_i_docking_score>  (283) 
-1.94932

>  <r_i_glide_ligand_efficiency>  (283) 
-0.0556949

>  <r_i_glide_ligand_efficiency_sa>  (283) 
-0.182182

>  <r_i_glide_ligand_efficiency_ln>  (283) 
-0.427919

>  <r_i_glide_gscore>  (283) 
-1.94932

>  <r_i_glide_lipo>  (283) 
-0.365552

>  <r_i_glide_hbond>  (283) 
0

>  <r_i_glide_metal>  (283) 
-0

>  <r_i_glide_rewards>  (283) 
-0.1211

>  <r_i_glide_evdw>  (283) 
-27.7562

>  <r_i_glide_ecoul>  (283) 
-0.499057

>  <r_i_glide_erotb>  (283) 
0

>  <r_i_glide_esite>  (283) 
0

>  <r_i_glide_emodel>  (283) 
-30.9266

>  <r_i_glide_energy>  (283) 
-28.2553

>  <r_i_glide_einternal>  (283) 
0.330057

>  <r_i_glide_intrahb_reward>  (283) 
-0

>  <i_i_glide_confnum>  (283) 
1

>  <i_i_glide_posenum>  (283) 
11

>  <r_i_glide_eff_state_penalty>  (283) 
0

>  <ligand_id>  (283) 
93

>  <original_smiles>  (283) 
CC1CCC2C3C(O)CC4OC(=O)C5(OCC6OC(C)(C)OC65)C5(C)CCC(C)(C3CCC12C)C45

>  <smiles>  (283) 
[H]OC1([H])C([H])([H])C2([H])OC(=O)C3(OC([H])([H])C4([H])OC(C([H])([H])[H])(C([H])([H])[H])OC43[H])C3(C([H])([H])[H])C([H])([H])C([H])([H])C(C([H])([H])[H])(C4([H])C([H])([H])C([H])([H])C5(C([H])([H])[H])C([H])(C([H])([H])[H])C([H])([H])C([H])([H])C5([H])C14[H])C23[H]

$$$$
93:0:1
     RDKit          3D

 79 85  0  0  1  0  0  0  0  0999 V2000
    0.2348   -9.4531    7.4501 C   0  0  0  0  0  0  0  0  0  0  0  0
    1.6897   -9.0092    7.2355 C   0  0  2  0  0  0  0  0  0  0  0  0
    2.1281   -7.8334    8.1371 C   0  0  0  0  0  0  0  0  0  0  0  0
    3.1725   -7.0385    7.3289 C   0  0  0  0  0  0  0  0  0  0  0  0
    3.4077   -7.8812    6.0685 C   0  0  2  0  0  0  0  0  0  0  0  0
    4.0639   -7.2039    4.8266 C   0  0  1  0  0  0  0  0  0  0  0  0
    5.5236   -6.7766    5.1838 C   0  0  1  0  0  0  0  0  0  0  0  0
    6.2653   -7.8199    5.7774 O   0  0  0  0  0  0  0  0  0  0  0  0
    6.3802   -6.2523    4.0352 C   0  0  0  0  0  0  0  0  0  0  0  0
    5.6479   -5.3329    3.0550 C   0  0  2  0  0  0  0  0  0  0  0  0
    4.7238   -4.4178    3.6816 O   0  0  0  0  0  0  0  0  0  0  0  0
    4.0133   -3.5156    2.9399 C   0  0  0  0  0  0  0  0  0  0  0  0
    3.1946   -2.7415    3.4503 O   0  0  0  0  0  0  0  0  0  0  0  0
    4.3542   -3.5290    1.4230 C   0  0  2  0  0  0  0  0  0  0  0  0
    5.6409   -2.8922    1.3462 O   0  0  0  0  0  0  0  0  0  0  0  0
    5.4746   -1.4549    1.4392 C   0  0  0  0  0  0  0  0  0  0  0  0
    4.1717   -1.1533    0.7045 C   0  0  1  0  0  0  0  0  0  0  0  0
    4.3857   -0.6901   -0.6449 O   0  0  0  0  0  0  0  0  0  0  0  0
    4.3588   -1.8487   -1.4620 C   0  0  0  0  0  0  0  0  0  0  0  0
    3.7659   -1.5420   -2.8496 C   0  0  0  0  0  0  0  0  0  0  0  0
    5.8031   -2.3645   -1.6616 C   0  0  0  0  0  0  0  0  0  0  0  0
    3.5395   -2.8109   -0.8107 O   0  0  0  0  0  0  0  0  0  0  0  0
    3.5045   -2.5203    0.5945 C   0  0  1  0  0  0  0  0  0  0  0  0
    4.3320   -5.0334    0.9125 C   0  0  2  0  0  0  0  0  0  0  0  0
    5.0351   -5.2056   -0.4386 C   0  0  0  0  0  0  0  0  0  0  0  0
    2.8837   -5.5275    0.7636 C   0  0  0  0  0  0  0  0  0  0  0  0
    2.6274   -6.4813    1.9127 C   0  0  0  0  0  0  0  0  0  0  0  0
    3.9565   -7.2373    2.1488 C   0  0  2  0  0  0  0  0  0  0  0  0
    4.1314   -8.2781    1.0070 C   0  0  0  0  0  0  0  0  0  0  0  0
    3.9970   -8.0581    3.5077 C   0  0  2  0  0  0  0  0  0  0  0  0
    2.8689   -9.1526    3.4924 C   0  0  0  0  0  0  0  0  0  0  0  0
    2.3694   -9.6997    4.8381 C   0  0  0  0  0  0  0  0  0  0  0  0
    2.0619   -8.5545    5.8073 C   0  0  1  0  0  0  0  0  0  0  0  0
    0.9819   -7.6011    5.2421 C   0  0  0  0  0  0  0  0  0  0  0  0
    4.9994   -6.0829    1.8841 C   0  0  2  0  0  0  0  0  0  0  0  0
   -0.4833   -8.6518    7.3019 H   0  0  0  0  0  0  0  0  0  0  0  0
    0.1182   -9.8205    8.4687 H   0  0  0  0  0  0  0  0  0  0  0  0
   -0.0301  -10.2675    6.7706 H   0  0  0  0  0  0  0  0  0  0  0  0
    2.3200   -9.8622    7.4905 H   0  0  0  0  0  0  0  0  0  0  0  0
    1.2865   -7.1851    8.3807 H   0  0  0  0  0  0  0  0  0  0  0  0
    2.5344   -8.2046    9.0787 H   0  0  0  0  0  0  0  0  0  0  0  0
    2.7751   -6.0575    7.0699 H   0  0  0  0  0  0  0  0  0  0  0  0
    4.0947   -6.8887    7.8908 H   0  0  0  0  0  0  0  0  0  0  0  0
    4.0778   -8.6818    6.3802 H   0  0  0  0  0  0  0  0  0  0  0  0
    3.4716   -6.3086    4.6501 H   0  0  0  0  0  0  0  0  0  0  0  0
    5.4673   -5.9845    5.9331 H   0  0  0  0  0  0  0  0  0  0  0  0
    6.3245   -8.5419    5.1497 H   0  0  0  0  0  0  0  0  0  0  0  0
    7.2100   -5.7122    4.4733 H   0  0  0  0  0  0  0  0  0  0  0  0
    6.8373   -7.0806    3.4798 H   0  0  0  0  0  0  0  0  0  0  0  0
    6.4452   -4.7400    2.6074 H   0  0  0  0  0  0  0  0  0  0  0  0
    5.3814   -1.1093    2.4747 H   0  0  0  0  0  0  0  0  0  0  0  0
    6.3249   -0.9550    0.9843 H   0  0  0  0  0  0  0  0  0  0  0  0
    3.5250   -0.4094    1.1956 H   0  0  0  0  0  0  0  0  0  0  0  0
    2.7542   -1.1534   -2.8376 H   0  0  0  0  0  0  0  0  0  0  0  0
    3.7802   -2.4722   -3.3901 H   0  0  0  0  0  0  0  0  0  0  0  0
    4.4300   -0.8514   -3.3271 H   0  0  0  0  0  0  0  0  0  0  0  0
    6.3403   -2.6342   -0.7569 H   0  0  0  0  0  0  0  0  0  0  0  0
    6.3239   -1.5525   -2.1437 H   0  0  0  0  0  0  0  0  0  0  0  0
    5.7477   -3.2134   -2.3292 H   0  0  0  0  0  0  0  0  0  0  0  0
    2.4585   -2.4446    0.9186 H   0  0  0  0  0  0  0  0  0  0  0  0
    5.1469   -6.2435   -0.7368 H   0  0  0  0  0  0  0  0  0  0  0  0
    6.0433   -4.7985   -0.4039 H   0  0  0  0  0  0  0  0  0  0  0  0
    4.4687   -4.7594   -1.2520 H   0  0  0  0  0  0  0  0  0  0  0  0
    2.1543   -4.7344    0.7486 H   0  0  0  0  0  0  0  0  0  0  0  0
    2.7664   -6.0557   -0.1795 H   0  0  0  0  0  0  0  0  0  0  0  0
    2.3488   -5.8857    2.7868 H   0  0  0  0  0  0  0  0  0  0  0  0
    1.7801   -7.1215    1.6732 H   0  0  0  0  0  0  0  0  0  0  0  0
    5.0113   -8.9023    1.1540 H   0  0  0  0  0  0  0  0  0  0  0  0
    4.2511   -7.8321    0.0312 H   0  0  0  0  0  0  0  0  0  0  0  0
    3.2640   -8.9243    0.8984 H   0  0  0  0  0  0  0  0  0  0  0  0
    4.9265   -8.6347    3.4888 H   0  0  0  0  0  0  0  0  0  0  0  0
    1.9913   -8.7979    2.9538 H   0  0  0  0  0  0  0  0  0  0  0  0
    3.2177  -10.0068    2.9223 H   0  0  0  0  0  0  0  0  0  0  0  0
    1.4894  -10.3258    4.6921 H   0  0  0  0  0  0  0  0  0  0  0  0
    3.1282  -10.3650    5.2560 H   0  0  0  0  0  0  0  0  0  0  0  0
    1.3158   -7.0879    4.3470 H   0  0  0  0  0  0  0  0  0  0  0  0
    0.7043   -6.8322    5.9621 H   0  0  0  0  0  0  0  0  0  0  0  0
    0.0819   -8.1547    4.9768 H   0  0  0  0  0  0  0  0  0  0  0  0
    5.8524   -6.5646    1.3857 H   0  0  0  0  0  0  0  0  0  0  0  0
  1  2  1  0
  1 36  1  0
  1 37  1  0
  1 38  1  0
  2 33  1  0
  2  3  1  0
  2 39  1  1
  3  4  1  0
  3 40  1  0
  3 41  1  0
  4  5  1  0
  4 42  1  0
  4 43  1  0
  5 33  1  0
  5  6  1  0
  5 44  1  1
  6 30  1  0
  6  7  1  0
  6 45  1  6
  7  8  1  0
  7  9  1  0
  7 46  1  1
  8 47  1  0
  9 10  1  0
  9 48  1  0
  9 49  1  0
 10 35  1  0
 10 11  1  0
 10 50  1  6
 11 12  1  0
 12 13  2  0
 12 14  1  0
 14 23  1  0
 14 15  1  1
 14 24  1  0
 15 16  1  0
 16 17  1  0
 16 51  1  0
 16 52  1  0
 17 23  1  0
 17 18  1  0
 17 53  1  1
 18 19  1  0
 19 20  1  0
 19 21  1  0
 19 22  1  0
 20 54  1  0
 20 55  1  0
 20 56  1  0
 21 57  1  0
 21 58  1  0
 21 59  1  0
 22 23  1  0
 23 60  1  1
 24 35  1  0
 24 25  1  6
 24 26  1  0
 25 61  1  0
 25 62  1  0
 25 63  1  0
 26 27  1  0
 26 64  1  0
 26 65  1  0
 27 28  1  0
 27 66  1  0
 27 67  1  0
 28 29  1  6
 28 30  1  0
 28 35  1  0
 29 68  1  0
 29 69  1  0
 29 70  1  0
 30 31  1  0
 30 71  1  6
 31 32  1  0
 31 72  1  0
 31 73  1  0
 32 33  1  0
 32 74  1  0
 32 75  1  0
 33 34  1  6
 34 76  1  0
 34 77  1  0
 34 78  1  0
 35 79  1  6
M  END
>  <i_m_ct_stereo_status>  (284) 
1

>  <s_m_source_file>  (284) 
/var/tmp/pbs.5076255.sched01/tmpajq2dbrl/12675ddggds.sdf

>  <i_m_source_file_index>  (284) 
8

>  <i_lp_mmshare_version>  (284) 
48012

>  <i_f3d_flags>  (284) 
0

>  <s_epik_input>  (284) 
W0NIMl0xW0NIMl1bQ0BdMihbQ0gzXSlbQ0BASF0zW0NIMl1bQ0gyXVtDQEBdKFtDSDNdKShbQ0BIXShbQ0gzXSlbQ0gyXVtDSDJdNClbQ0BIXTRbQ0BIXTNbQ0BASF0oW09IXSlbQ0gyXVtDQEhdKE9DNT1PKVtDQEBIXTJbQ0BdMShbQ0gzXSlbQ0BAXTU2W0NASF03W0NAQEhdKFtDSDJdTzYpT0MoTzcpKFtDSDNdKVtDSDNd

>  <s_epik_cmdline>  (284) 
J2VwaWtfcHl0aG9uJywgJy1waHQnLCAnMi4wJywgJy1waCcsICc3LjAnLCAnLXRuJywgJzgnLCAnLW1hJywgJzIwMCcsICctaW1hZScsICc8aW5maWxlLm1hZT4nLCAnLW9tYWUnLCAnPG91dGZpbGUubWFlPic=

>  <r_lp_tautomer_probability>  (284) 
1

>  <r_epik_Ionization_Penalty>  (284) 
5.19234e-07

>  <r_epik_Ionization_Penalty_Charging>  (284) 
0

>  <r_epik_Ionization_Penalty_Neutral>  (284) 
5.19234e-07

>  <r_epik_State_Penalty>  (284) 
-0

>  <r_epik_Charging_Adjusted_Penalty>  (284) 
0

>  <i_epik_Tot_Q>  (284) 
0

>  <i_epik_Tot_abs_Q>  (284) 
0

>  <s_epik_Chemistry_Notes>  (284) 
This compound has an ester and may undergo hydrolysis at high or low pH.

>  <s_lp_Force_Field>  (284) 
OPLS3e

>  <r_lp_Energy>  (284) 
55.4333

>  <b_lp_Chiralities_Consistent>  (284) 
1

>  <s_lp_Variant>  (284) 
93:0-1

>  <s_i_glide_gridfile>  (284) 
pfpi4k_grid

>  <i_i_glide_lignum>  (284) 
8

>  <i_i_glide_rotatable_bonds>  (284) 
1

>  <r_i_docking_score>  (284) 
-1.82568

>  <r_i_glide_ligand_efficiency>  (284) 
-0.0521622

>  <r_i_glide_ligand_efficiency_sa>  (284) 
-0.170626

>  <r_i_glide_ligand_efficiency_ln>  (284) 
-0.400776

>  <r_i_glide_gscore>  (284) 
-1.82568

>  <r_i_glide_lipo>  (284) 
-0.244979

>  <r_i_glide_hbond>  (284) 
0

>  <r_i_glide_metal>  (284) 
-0

>  <r_i_glide_rewards>  (284) 
-0.0786134

>  <r_i_glide_evdw>  (284) 
-31.7447

>  <r_i_glide_ecoul>  (284) 
0.803629

>  <r_i_glide_erotb>  (284) 
0

>  <r_i_glide_esite>  (284) 
-0.0353931

>  <r_i_glide_emodel>  (284) 
-32.1763

>  <r_i_glide_energy>  (284) 
-30.9411

>  <r_i_glide_einternal>  (284) 
0.00824275

>  <r_i_glide_intrahb_reward>  (284) 
-0

>  <i_i_glide_confnum>  (284) 
2

>  <i_i_glide_posenum>  (284) 
7

>  <r_i_glide_eff_state_penalty>  (284) 
0

>  <ligand_id>  (284) 
93

>  <original_smiles>  (284) 
CC1CCC2C3C(O)CC4OC(=O)C5(OCC6OC(C)(C)OC65)C5(C)CCC(C)(C3CCC12C)C45

>  <smiles>  (284) 
[H]OC1([H])C([H])([H])C2([H])OC(=O)C3(OC([H])([H])C4([H])OC(C([H])([H])[H])(C([H])([H])[H])OC43[H])C3(C([H])([H])[H])C([H])([H])C([H])([H])C(C([H])([H])[H])(C4([H])C([H])([H])C([H])([H])C5(C([H])([H])[H])C([H])(C([H])([H])[H])C([H])([H])C([H])([H])C5([H])C14[H])C23[H]

$$$$
93:0:2
     RDKit          3D

 79 85  0  0  1  0  0  0  0  0999 V2000
    0.0284   -9.8345    7.0616 C   0  0  0  0  0  0  0  0  0  0  0  0
    1.4826   -9.3609    6.9550 C   0  0  2  0  0  0  0  0  0  0  0  0
    1.8449   -8.2248    7.9399 C   0  0  0  0  0  0  0  0  0  0  0  0
    2.9115   -7.3714    7.2291 C   0  0  0  0  0  0  0  0  0  0  0  0
    3.2296   -8.1440    5.9412 C   0  0  2  0  0  0  0  0  0  0  0  0
    3.9336   -7.3898    4.7725 C   0  0  1  0  0  0  0  0  0  0  0  0
    5.3583   -6.9483    5.2291 C   0  0  1  0  0  0  0  0  0  0  0  0
    6.1023   -8.0240    5.7626 O   0  0  0  0  0  0  0  0  0  0  0  0
    6.2642   -6.3504    4.1582 C   0  0  0  0  0  0  0  0  0  0  0  0
    5.5634   -5.3990    3.1865 C   0  0  2  0  0  0  0  0  0  0  0  0
    4.5876   -4.5381    3.8038 O   0  0  0  0  0  0  0  0  0  0  0  0
    3.8967   -3.6122    3.0723 C   0  0  0  0  0  0  0  0  0  0  0  0
    3.0353   -2.8863    3.5748 O   0  0  0  0  0  0  0  0  0  0  0  0
    4.3218   -3.5446    1.5765 C   0  0  2  0  0  0  0  0  0  0  0  0
    5.5907   -2.8774    1.5979 O   0  0  0  0  0  0  0  0  0  0  0  0
    5.3865   -1.4517    1.7540 C   0  0  0  0  0  0  0  0  0  0  0  0
    4.1131   -1.1383    0.9676 C   0  0  1  0  0  0  0  0  0  0  0  0
    4.3843   -0.6065   -0.3423 O   0  0  0  0  0  0  0  0  0  0  0  0
    4.4265   -1.7216   -1.2147 C   0  0  0  0  0  0  0  0  0  0  0  0
    3.9009   -1.3526   -2.6193 C   0  0  0  0  0  0  0  0  0  0  0  0
    5.8923   -2.1981   -1.3643 C   0  0  0  0  0  0  0  0  0  0  0  0
    3.6022   -2.7341   -0.6592 O   0  0  0  0  0  0  0  0  0  0  0  0
    3.4862   -2.5137    0.7515 C   0  0  1  0  0  0  0  0  0  0  0  0
    4.3626   -5.0215    0.9891 C   0  0  2  0  0  0  0  0  0  0  0  0
    5.1498   -5.1126   -0.3261 C   0  0  0  0  0  0  0  0  0  0  0  0
    2.9348   -5.5355    0.7386 C   0  0  0  0  0  0  0  0  0  0  0  0
    2.6372   -6.5512    1.8246 C   0  0  0  0  0  0  0  0  0  0  0  0
    3.9681   -7.2919    2.0933 C   0  0  2  0  0  0  0  0  0  0  0  0
    4.2199   -8.2678    0.9127 C   0  0  0  0  0  0  0  0  0  0  0  0
    3.9579   -8.1793    3.4119 C   0  0  2  0  0  0  0  0  0  0  0  0
    2.8590   -9.2947    3.2809 C   0  0  0  0  0  0  0  0  0  0  0  0
    2.3005   -9.9191    4.5681 C   0  0  0  0  0  0  0  0  0  0  0  0
    1.9178   -8.8275    5.5731 C   0  0  1  0  0  0  0  0  0  0  0  0
    0.8449   -7.8717    4.9991 C   0  0  0  0  0  0  0  0  0  0  0  0
    4.9976   -6.1043    1.9450 C   0  0  2  0  0  0  0  0  0  0  0  0
   -0.6995   -9.0558    6.8945 H   0  0  0  0  0  0  0  0  0  0  0  0
   -0.1445  -10.2510    8.0559 H   0  0  0  0  0  0  0  0  0  0  0  0
   -0.1669  -10.6393    6.3410 H   0  0  0  0  0  0  0  0  0  0  0  0
    2.1199  -10.2081    7.2003 H   0  0  0  0  0  0  0  0  0  0  0  0
    0.9763   -7.6095    8.1691 H   0  0  0  0  0  0  0  0  0  0  0  0
    2.2088   -8.6398    8.8801 H   0  0  0  0  0  0  0  0  0  0  0  0
    2.5033   -6.3872    6.9967 H   0  0  0  0  0  0  0  0  0  0  0  0
    3.7978   -7.2284    7.8485 H   0  0  0  0  0  0  0  0  0  0  0  0
    3.8943   -8.9533    6.2439 H   0  0  0  0  0  0  0  0  0  0  0  0
    3.3292   -6.5010    4.6077 H   0  0  0  0  0  0  0  0  0  0  0  0
    5.2440   -6.2038    6.0204 H   0  0  0  0  0  0  0  0  0  0  0  0
    5.5662   -8.4559    6.4283 H   0  0  0  0  0  0  0  0  0  0  0  0
    7.0596   -5.8197    4.6662 H   0  0  0  0  0  0  0  0  0  0  0  0
    6.7641   -7.1452    3.5942 H   0  0  0  0  0  0  0  0  0  0  0  0
    6.3704   -4.7706    2.8125 H   0  0  0  0  0  0  0  0  0  0  0  0
    5.2285   -1.1588    2.8007 H   0  0  0  0  0  0  0  0  0  0  0  0
    6.2456   -0.9072    1.3710 H   0  0  0  0  0  0  0  0  0  0  0  0
    3.4247   -0.4348    1.4655 H   0  0  0  0  0  0  0  0  0  0  0  0
    2.8818   -0.9882   -2.6417 H   0  0  0  0  0  0  0  0  0  0  0  0
    3.9714   -2.2549   -3.2040 H   0  0  0  0  0  0  0  0  0  0  0  0
    4.5729   -0.6223   -3.0211 H   0  0  0  0  0  0  0  0  0  0  0  0
    6.3896   -2.4935   -0.4465 H   0  0  0  0  0  0  0  0  0  0  0  0
    6.4139   -1.3623   -1.7893 H   0  0  0  0  0  0  0  0  0  0  0  0
    5.8905   -3.0152   -2.0741 H   0  0  0  0  0  0  0  0  0  0  0  0
    2.4236   -2.4767    1.0301 H   0  0  0  0  0  0  0  0  0  0  0  0
    5.3136   -6.1334   -0.6625 H   0  0  0  0  0  0  0  0  0  0  0  0
    6.1431   -4.6773   -0.2226 H   0  0  0  0  0  0  0  0  0  0  0  0
    4.6089   -4.6461   -1.1476 H   0  0  0  0  0  0  0  0  0  0  0  0
    2.1873   -4.7583    0.7241 H   0  0  0  0  0  0  0  0  0  0  0  0
    2.8775   -6.0152   -0.2360 H   0  0  0  0  0  0  0  0  0  0  0  0
    2.2982   -6.0070    2.7099 H   0  0  0  0  0  0  0  0  0  0  0  0
    1.8196   -7.1962    1.5083 H   0  0  0  0  0  0  0  0  0  0  0  0
    5.1157   -8.8631    1.0638 H   0  0  0  0  0  0  0  0  0  0  0  0
    4.3394   -7.7674   -0.0410 H   0  0  0  0  0  0  0  0  0  0  0  0
    3.3847   -8.9469    0.7487 H   0  0  0  0  0  0  0  0  0  0  0  0
    4.9018   -8.7328    3.4184 H   0  0  0  0  0  0  0  0  0  0  0  0
    2.0031   -8.9321    2.7134 H   0  0  0  0  0  0  0  0  0  0  0  0
    3.2573  -10.1128    2.6884 H   0  0  0  0  0  0  0  0  0  0  0  0
    1.4449  -10.5545    4.3433 H   0  0  0  0  0  0  0  0  0  0  0  0
    3.0513  -10.5897    4.9915 H   0  0  0  0  0  0  0  0  0  0  0  0
    1.2126   -7.3069    4.1486 H   0  0  0  0  0  0  0  0  0  0  0  0
    0.5111   -7.1482    5.7412 H   0  0  0  0  0  0  0  0  0  0  0  0
   -0.0251   -8.4326    4.6597 H   0  0  0  0  0  0  0  0  0  0  0  0
    5.8875   -6.5442    1.4725 H   0  0  0  0  0  0  0  0  0  0  0  0
  1  2  1  0
  1 36  1  0
  1 37  1  0
  1 38  1  0
  2 33  1  0
  2  3  1  0
  2 39  1  1
  3  4  1  0
  3 40  1  0
  3 41  1  0
  4  5  1  0
  4 42  1  0
  4 43  1  0
  5 33  1  0
  5  6  1  0
  5 44  1  1
  6 30  1  0
  6  7  1  0
  6 45  1  6
  7  8  1  0
  7  9  1  0
  7 46  1  1
  8 47  1  0
  9 10  1  0
  9 48  1  0
  9 49  1  0
 10 35  1  0
 10 11  1  0
 10 50  1  6
 11 12  1  0
 12 13  2  0
 12 14  1  0
 14 23  1  0
 14 15  1  1
 14 24  1  0
 15 16  1  0
 16 17  1  0
 16 51  1  0
 16 52  1  0
 17 23  1  0
 17 18  1  0
 17 53  1  1
 18 19  1  0
 19 20  1  0
 19 21  1  0
 19 22  1  0
 20 54  1  0
 20 55  1  0
 20 56  1  0
 21 57  1  0
 21 58  1  0
 21 59  1  0
 22 23  1  0
 23 60  1  1
 24 35  1  0
 24 25  1  6
 24 26  1  0
 25 61  1  0
 25 62  1  0
 25 63  1  0
 26 27  1  0
 26 64  1  0
 26 65  1  0
 27 28  1  0
 27 66  1  0
 27 67  1  0
 28 29  1  6
 28 30  1  0
 28 35  1  0
 29 68  1  0
 29 69  1  0
 29 70  1  0
 30 31  1  0
 30 71  1  1
 31 32  1  0
 31 72  1  0
 31 73  1  0
 32 33  1  0
 32 74  1  0
 32 75  1  0
 33 34  1  6
 34 76  1  0
 34 77  1  0
 34 78  1  0
 35 79  1  6
M  END
>  <i_m_ct_stereo_status>  (285) 
1

>  <s_m_source_file>  (285) 
/var/tmp/pbs.5076255.sched01/tmpajq2dbrl/12675ddggds.sdf

>  <i_m_source_file_index>  (285) 
8

>  <i_lp_mmshare_version>  (285) 
48012

>  <i_f3d_flags>  (285) 
0

>  <s_epik_input>  (285) 
W0NIMl0xW0NIMl1bQ0BdMihbQ0gzXSlbQ0BASF0zW0NIMl1bQ0gyXVtDQEBdKFtDSDNdKShbQ0BIXShbQ0gzXSlbQ0gyXVtDSDJdNClbQ0BIXTRbQ0BIXTNbQ0BASF0oW09IXSlbQ0gyXVtDQEhdKE9DNT1PKVtDQEBIXTJbQ0BdMShbQ0gzXSlbQ0BAXTU2W0NASF03W0NAQEhdKFtDSDJdTzYpT0MoTzcpKFtDSDNdKVtDSDNd

>  <s_epik_cmdline>  (285) 
J2VwaWtfcHl0aG9uJywgJy1waHQnLCAnMi4wJywgJy1waCcsICc3LjAnLCAnLXRuJywgJzgnLCAnLW1hJywgJzIwMCcsICctaW1hZScsICc8aW5maWxlLm1hZT4nLCAnLW9tYWUnLCAnPG91dGZpbGUubWFlPic=

>  <r_lp_tautomer_probability>  (285) 
1

>  <r_epik_Ionization_Penalty>  (285) 
5.19234e-07

>  <r_epik_Ionization_Penalty_Charging>  (285) 
0

>  <r_epik_Ionization_Penalty_Neutral>  (285) 
5.19234e-07

>  <r_epik_State_Penalty>  (285) 
-0

>  <r_epik_Charging_Adjusted_Penalty>  (285) 
0

>  <i_epik_Tot_Q>  (285) 
0

>  <i_epik_Tot_abs_Q>  (285) 
0

>  <s_epik_Chemistry_Notes>  (285) 
This compound has an ester and may undergo hydrolysis at high or low pH.

>  <s_lp_Force_Field>  (285) 
OPLS3e

>  <r_lp_Energy>  (285) 
55.4333

>  <b_lp_Chiralities_Consistent>  (285) 
1

>  <s_lp_Variant>  (285) 
93:0-1

>  <s_i_glide_gridfile>  (285) 
pfpi4k_grid

>  <i_i_glide_lignum>  (285) 
8

>  <i_i_glide_rotatable_bonds>  (285) 
1

>  <r_i_docking_score>  (285) 
-1.7791

>  <r_i_glide_ligand_efficiency>  (285) 
-0.0508315

>  <r_i_glide_ligand_efficiency_sa>  (285) 
-0.166273

>  <r_i_glide_ligand_efficiency_ln>  (285) 
-0.390553

>  <r_i_glide_gscore>  (285) 
-1.7791

>  <r_i_glide_lipo>  (285) 
-0.226385

>  <r_i_glide_hbond>  (285) 
0

>  <r_i_glide_metal>  (285) 
-0

>  <r_i_glide_rewards>  (285) 
-0.078028

>  <r_i_glide_evdw>  (285) 
-31.2108

>  <r_i_glide_ecoul>  (285) 
0.817478

>  <r_i_glide_erotb>  (285) 
0

>  <r_i_glide_esite>  (285) 
-0.036775

>  <r_i_glide_emodel>  (285) 
-31.0771

>  <r_i_glide_energy>  (285) 
-30.3933

>  <r_i_glide_einternal>  (285) 
0.421473

>  <r_i_glide_intrahb_reward>  (285) 
-0

>  <i_i_glide_confnum>  (285) 
2

>  <i_i_glide_posenum>  (285) 
40

>  <r_i_glide_eff_state_penalty>  (285) 
0

>  <ligand_id>  (285) 
93

>  <original_smiles>  (285) 
CC1CCC2C3C(O)CC4OC(=O)C5(OCC6OC(C)(C)OC65)C5(C)CCC(C)(C3CCC12C)C45

>  <smiles>  (285) 
[H]OC1([H])C([H])([H])C2([H])OC(=O)C3(OC([H])([H])C4([H])OC(C([H])([H])[H])(C([H])([H])[H])OC43[H])C3(C([H])([H])[H])C([H])([H])C([H])([H])C(C([H])([H])[H])(C4([H])C([H])([H])C([H])([H])C5(C([H])([H])[H])C([H])(C([H])([H])[H])C([H])([H])C([H])([H])C5([H])C14[H])C23[H]

$$$$
94:0:0
     RDKit          3D

 86 92  0  0  1  0  0  0  0  0999 V2000
   -2.5304    3.0701    6.5480 C   0  0  0  0  0  0  0  0  0  0  0  0
   -1.5000    2.1706    7.2494 C   0  0  2  0  0  0  0  0  0  0  0  0
   -0.1911    2.9064    7.5538 C   0  0  0  0  0  0  0  0  0  0  0  0
    0.5497    3.2386    6.2542 C   0  0  0  0  0  0  0  0  0  0  0  0
    0.7608    1.9615    5.3834 C   0  0  2  0  0  0  0  0  0  0  0  0
   -0.4853    1.3420    5.2044 O   0  0  0  0  0  0  0  0  0  0  0  0
   -1.1664    0.9463    6.3935 C   0  0  0  0  0  0  0  0  0  0  0  0
    1.6123    1.0876    6.0713 O   0  0  0  0  0  0  0  0  0  0  0  0
    2.7755    0.7627    5.3292 C   0  0  1  0  0  0  0  0  0  0  0  0
    3.0676   -0.7370    5.2579 C   0  0  0  0  0  0  0  0  0  0  0  0
    2.2911   -1.3387    4.0610 C   0  0  1  0  0  0  0  0  0  0  0  0
    0.7908   -1.5091    4.4439 C   0  0  0  0  0  0  0  0  0  0  0  0
    2.3866   -0.1370    3.0617 C   0  0  2  0  0  0  0  0  0  0  0  0
    3.5933   -0.2128    2.1245 C   0  0  0  0  0  0  0  0  0  0  0  0
    3.5924   -1.5180    1.3687 C   0  0  0  0  0  0  0  0  0  0  0  0
    3.8558   -2.6836    2.3330 C   0  0  1  0  0  0  0  0  0  0  0  0
    2.8315   -2.7554    3.5019 C   0  0  1  0  0  0  0  0  0  0  0  0
    3.2385   -3.9098    4.5214 C   0  0  2  0  0  0  0  0  0  0  0  0
    2.0765   -4.1110    5.5334 C   0  0  0  0  0  0  0  0  0  0  0  0
    4.5488   -3.6390    5.3302 C   0  0  0  0  0  0  0  0  0  0  0  0
    4.9096   -4.7480    6.3401 C   0  0  0  0  0  0  0  0  0  0  0  0
    4.6106   -6.1369    5.8225 C   0  0  0  0  0  0  0  0  0  0  0  0
    3.9495   -6.3787    4.6775 C   0  0  0  0  0  0  0  0  0  0  0  0
    3.4233   -5.2834    3.7486 C   0  0  2  0  0  0  0  0  0  0  0  0
    4.2142   -5.2803    2.3778 C   0  0  1  0  0  0  0  0  0  0  0  0
    5.7516   -5.4440    2.5504 C   0  0  0  0  0  0  0  0  0  0  0  0
    3.7204   -6.3711    1.3785 C   0  0  1  0  0  0  0  0  0  0  0  0
    3.5434   -7.6823    1.8746 O   0  0  0  0  0  0  0  0  0  0  0  0
    2.4750   -5.8324    0.6710 C   0  0  1  0  0  0  0  0  0  0  0  0
    1.2793   -6.1320    1.3668 O   0  0  0  0  0  0  0  0  0  0  0  0
    2.7099   -4.3216    0.6227 C   0  0  0  0  0  0  0  0  0  0  0  0
    3.9247   -4.0143    1.5363 C   0  0  1  0  0  0  0  0  0  0  0  0
    2.5272    1.1736    3.8921 C   0  0  1  0  0  0  0  0  0  0  0  0
    1.4017    2.2229    3.9667 C   0  0  0  0  0  0  0  0  0  0  0  0
    0.3535    2.1415    2.8364 C   0  0  0  0  0  0  0  0  0  0  0  0
    2.0460    3.6385    3.8791 C   0  0  0  0  0  0  0  0  0  0  0  0
   -2.2099    3.3792    5.5527 H   0  0  0  0  0  0  0  0  0  0  0  0
   -2.7280    3.9784    7.1136 H   0  0  0  0  0  0  0  0  0  0  0  0
   -3.4786    2.5597    6.4171 H   0  0  0  0  0  0  0  0  0  0  0  0
   -1.9250    1.8474    8.1970 H   0  0  0  0  0  0  0  0  0  0  0  0
   -0.3856    3.8294    8.1011 H   0  0  0  0  0  0  0  0  0  0  0  0
    0.4519    2.2987    8.1961 H   0  0  0  0  0  0  0  0  0  0  0  0
   -0.0331    3.9631    5.6865 H   0  0  0  0  0  0  0  0  0  0  0  0
    1.5123    3.7033    6.5031 H   0  0  0  0  0  0  0  0  0  0  0  0
   -0.5676    0.2270    6.9601 H   0  0  0  0  0  0  0  0  0  0  0  0
   -2.0811    0.4230    6.1068 H   0  0  0  0  0  0  0  0  0  0  0  0
    3.6125    1.3053    5.7630 H   0  0  0  0  0  0  0  0  0  0  0  0
    4.1322   -0.8312    5.0581 H   0  0  0  0  0  0  0  0  0  0  0  0
    2.8600   -1.2211    6.2104 H   0  0  0  0  0  0  0  0  0  0  0  0
    0.2987   -2.3365    3.9344 H   0  0  0  0  0  0  0  0  0  0  0  0
    0.2056   -0.6393    4.1704 H   0  0  0  0  0  0  0  0  0  0  0  0
    0.6540   -1.6575    5.5133 H   0  0  0  0  0  0  0  0  0  0  0  0
    1.5206   -0.1307    2.4069 H   0  0  0  0  0  0  0  0  0  0  0  0
    3.5662    0.6122    1.4123 H   0  0  0  0  0  0  0  0  0  0  0  0
    4.5278   -0.1181    2.6778 H   0  0  0  0  0  0  0  0  0  0  0  0
    2.6384   -1.6205    0.8484 H   0  0  0  0  0  0  0  0  0  0  0  0
    4.3592   -1.4930    0.5935 H   0  0  0  0  0  0  0  0  0  0  0  0
    4.8427   -2.5012    2.7608 H   0  0  0  0  0  0  0  0  0  0  0  0
    1.9592   -3.1685    2.9967 H   0  0  0  0  0  0  0  0  0  0  0  0
    2.1945   -5.0086    6.1422 H   0  0  0  0  0  0  0  0  0  0  0  0
    1.1162   -4.2139    5.0302 H   0  0  0  0  0  0  0  0  0  0  0  0
    2.0157   -3.2832    6.2408 H   0  0  0  0  0  0  0  0  0  0  0  0
    5.3878   -3.4961    4.6558 H   0  0  0  0  0  0  0  0  0  0  0  0
    4.5002   -2.7281    5.9127 H   0  0  0  0  0  0  0  0  0  0  0  0
    5.9676   -4.6824    6.6028 H   0  0  0  0  0  0  0  0  0  0  0  0
    4.3343   -4.6170    7.2608 H   0  0  0  0  0  0  0  0  0  0  0  0
    4.9411   -6.9579    6.4433 H   0  0  0  0  0  0  0  0  0  0  0  0
    3.7649   -7.4019    4.3915 H   0  0  0  0  0  0  0  0  0  0  0  0
    2.4085   -5.5977    3.5194 H   0  0  0  0  0  0  0  0  0  0  0  0
    6.2551   -5.4984    1.5863 H   0  0  0  0  0  0  0  0  0  0  0  0
    6.0190   -6.3635    3.0721 H   0  0  0  0  0  0  0  0  0  0  0  0
    6.2150   -4.6165    3.0758 H   0  0  0  0  0  0  0  0  0  0  0  0
    4.4815   -6.4612    0.6029 H   0  0  0  0  0  0  0  0  0  0  0  0
    2.9362   -7.6541    2.5968 H   0  0  0  0  0  0  0  0  0  0  0  0
    2.3944   -6.2425   -0.3245 H   0  0  0  0  0  0  0  0  0  0  0  0
    1.2343   -7.0739    1.4489 H   0  0  0  0  0  0  0  0  0  0  0  0
    2.9595   -4.0285   -0.4009 H   0  0  0  0  0  0  0  0  0  0  0  0
    1.8129   -3.7678    0.8984 H   0  0  0  0  0  0  0  0  0  0  0  0
    4.7651   -3.8966    0.8491 H   0  0  0  0  0  0  0  0  0  0  0  0
    3.4371    1.6811    3.5491 H   0  0  0  0  0  0  0  0  0  0  0  0
    0.8121    2.2872    1.8593 H   0  0  0  0  0  0  0  0  0  0  0  0
   -0.3971    2.9231    2.9544 H   0  0  0  0  0  0  0  0  0  0  0  0
   -0.1867    1.1989    2.7896 H   0  0  0  0  0  0  0  0  0  0  0  0
    2.5396    3.7926    2.9164 H   0  0  0  0  0  0  0  0  0  0  0  0
    2.8005    3.7864    4.6545 H   0  0  0  0  0  0  0  0  0  0  0  0
    1.2965    4.4279    3.9675 H   0  0  0  0  0  0  0  0  0  0  0  0
  1  2  1  0
  1 37  1  0
  1 38  1  0
  1 39  1  0
  2  7  1  0
  2  3  1  0
  2 40  1  1
  3  4  1  0
  3 41  1  0
  3 42  1  0
  4  5  1  0
  4 43  1  0
  4 44  1  0
  5 34  1  0
  5  6  1  6
  5  8  1  0
  6  7  1  0
  7 45  1  0
  7 46  1  0
  8  9  1  0
  9 33  1  0
  9 10  1  0
  9 47  1  1
 10 11  1  0
 10 48  1  0
 10 49  1  0
 11 17  1  0
 11 12  1  1
 11 13  1  0
 12 50  1  0
 12 51  1  0
 12 52  1  0
 13 14  1  0
 13 33  1  0
 13 53  1  6
 14 15  1  0
 14 54  1  0
 14 55  1  0
 15 16  1  0
 15 56  1  0
 15 57  1  0
 16 32  1  0
 16 17  1  0
 16 58  1  1
 17 18  1  0
 17 59  1  6
 18 24  1  0
 18 19  1  1
 18 20  1  0
 19 60  1  0
 19 61  1  0
 19 62  1  0
 20 21  1  0
 20 63  1  0
 20 64  1  0
 21 22  1  0
 21 65  1  0
 21 66  1  0
 22 23  2  0
 22 67  1  0
 23 24  1  0
 23 68  1  0
 24 25  1  0
 24 69  1  6
 25 32  1  0
 25 26  1  1
 25 27  1  0
 26 70  1  0
 26 71  1  0
 26 72  1  0
 27 28  1  0
 27 29  1  0
 27 73  1  6
 28 74  1  0
 29 30  1  0
 29 31  1  0
 29 75  1  6
 30 76  1  0
 31 32  1  0
 31 77  1  0
 31 78  1  0
 32 79  1  6
 33 34  1  0
 33 80  1  6
 34 35  1  0
 34 36  1  0
 35 81  1  0
 35 82  1  0
 35 83  1  0
 36 84  1  0
 36 85  1  0
 36 86  1  0
M  END
>  <i_m_ct_stereo_status>  (286) 
1

>  <s_m_source_file>  (286) 
/var/tmp/pbs.5076255.sched01/tmpajq2dbrl/12675ddggds.sdf

>  <i_m_source_file_index>  (286) 
9

>  <i_lp_mmshare_version>  (286) 
48012

>  <i_f3d_flags>  (286) 
0

>  <s_epik_input>  (286) 
TzFbQ0gyXVtDQEhdKFtDSDNdKVtDSDJdW0NIMl1bQ0BAXTEyT1tDQEBIXTNbQ0BIXShDMihbQ0gzXSlbQ0gzXSlbQ0BASF00W0NAQF0oW0NIMl0zKShbQ0gzXSlbQ0BIXTVbQ0BIXShbQ0gyXVtDSDJdNClbQ0BIXTZbQ0BdKFtDSDNdKShbQ0BASF0oW09IXSlbQ0BASF0oW09IXSlbQ0gyXTYpW0NAQEhdN1tDQEBdNShbQ0gzXSlbQ0gyXVtDSDJdW0NIXT1bQ0hdNw==

>  <s_epik_cmdline>  (286) 
J2VwaWtfcHl0aG9uJywgJy1waHQnLCAnMi4wJywgJy1waCcsICc3LjAnLCAnLXRuJywgJzgnLCAnLW1hJywgJzIwMCcsICctaW1hZScsICc8aW5maWxlLm1hZT4nLCAnLW9tYWUnLCAnPG91dGZpbGUubWFlPic=

>  <r_lp_tautomer_probability>  (286) 
1

>  <r_epik_Ionization_Penalty>  (286) 
1.55931e-06

>  <r_epik_Ionization_Penalty_Charging>  (286) 
0

>  <r_epik_Ionization_Penalty_Neutral>  (286) 
1.55931e-06

>  <r_epik_State_Penalty>  (286) 
-0

>  <r_epik_Charging_Adjusted_Penalty>  (286) 
0

>  <i_epik_Tot_Q>  (286) 
0

>  <i_epik_Tot_abs_Q>  (286) 
0

>  <s_lp_Force_Field>  (286) 
OPLS3e

>  <r_lp_Energy>  (286) 
79.9566

>  <b_lp_Chiralities_Consistent>  (286) 
1

>  <s_lp_Variant>  (286) 
94:0-1

>  <s_i_glide_gridfile>  (286) 
pfpi4k_grid

>  <i_i_glide_lignum>  (286) 
9

>  <i_i_glide_rotatable_bonds>  (286) 
2

>  <r_i_docking_score>  (286) 
-2.02507

>  <r_i_glide_ligand_efficiency>  (286) 
-0.0562521

>  <r_i_glide_ligand_efficiency_sa>  (286) 
-0.18574

>  <r_i_glide_ligand_efficiency_ln>  (286) 
-0.441817

>  <r_i_glide_gscore>  (286) 
-2.02507

>  <r_i_glide_lipo>  (286) 
-0.243405

>  <r_i_glide_hbond>  (286) 
0

>  <r_i_glide_metal>  (286) 
-0

>  <r_i_glide_rewards>  (286) 
-0.00861136

>  <r_i_glide_evdw>  (286) 
-27.4759

>  <r_i_glide_ecoul>  (286) 
-2.65536

>  <r_i_glide_erotb>  (286) 
0

>  <r_i_glide_esite>  (286) 
-0.000960799

>  <r_i_glide_emodel>  (286) 
-33.5865

>  <r_i_glide_energy>  (286) 
-30.1312

>  <r_i_glide_einternal>  (286) 
0.370982

>  <r_i_glide_intrahb_reward>  (286) 
-0

>  <i_i_glide_confnum>  (286) 
4

>  <i_i_glide_posenum>  (286) 
20

>  <r_i_glide_eff_state_penalty>  (286) 
0

>  <ligand_id>  (286) 
94

>  <original_smiles>  (286) 
CC1CCC2(OC1)OC1CC3(C)C(CCC4C3C3(C)CCC=CC3C3(C)C(O)C(O)CC43)C1C2(C)C

>  <smiles>  (286) 
[H]OC1([H])C([H])([H])C2([H])C3([H])C([H])([H])C([H])([H])C4([H])C5([H])C([H])(OC6(OC([H])([H])C([H])(C([H])([H])[H])C([H])([H])C6([H])[H])C5(C([H])([H])[H])C([H])([H])[H])C([H])([H])C4(C([H])([H])[H])C3([H])C3(C([H])([H])[H])C([H])([H])C([H])([H])C([H])=C([H])C3([H])C2(C([H])([H])[H])C1([H])O[H]

$$$$
95:0:0
     RDKit          3D

 68 73  0  0  1  0  0  0  0  0999 V2000
    0.0581    5.7298    6.1169 C   0  0  0  0  0  0  0  0  0  0  0  0
    0.6323    4.3728    5.6669 C   0  0  2  0  0  0  0  0  0  0  0  0
   -0.1590    3.8279    4.4547 C   0  0  0  0  0  0  0  0  0  0  0  0
   -1.2946    2.8764    4.7957 C   0  0  0  0  0  0  0  0  0  0  0  0
   -1.1543    1.9239    5.7475 C   0  0  0  0  0  0  0  0  0  0  0  0
   -1.5183    2.3182    7.1835 C   0  0  2  0  0  0  0  0  0  0  0  0
   -2.8421    3.0976    7.3325 C   0  0  0  0  0  0  0  0  0  0  0  0
   -0.3326    3.1252    7.8170 C   0  0  1  0  0  0  0  0  0  0  0  0
    0.1598    2.5706    9.1857 C   0  0  0  0  0  0  0  0  0  0  0  0
    1.5026    1.8000    9.1054 C   0  0  0  0  0  0  0  0  0  0  0  0
    1.6459    1.0395    7.7615 C   0  0  2  0  0  0  0  0  0  0  0  0
    1.7640    2.1096    6.6245 C   0  0  1  0  0  0  0  0  0  0  0  0
    2.3842    1.7556    5.2120 C   0  0  0  0  0  0  0  0  0  0  0  0
    2.0301    0.5692    4.2285 C   0  0  2  0  0  0  0  0  0  0  0  0
    3.2043    0.5470    3.2148 C   0  0  0  0  0  0  0  0  0  0  0  0
    0.7613    0.6450    3.3315 C   0  0  0  0  0  0  0  0  0  0  0  0
   -0.5980    0.2215    3.9045 C   0  0  0  0  0  0  0  0  0  0  0  0
   -0.8105    0.4377    5.4074 C   0  0  1  0  0  0  0  0  0  0  0  0
    0.1273   -0.5277    6.2870 C   0  0  1  0  0  0  0  0  0  0  0  0
   -0.7501   -1.6350    6.4793 O   0  0  0  0  0  0  0  0  0  0  0  0
   -0.5811   -2.5461    5.3021 O   0  0  0  0  0  0  0  0  0  0  0  0
    0.8085   -2.7009    5.1477 C   0  0  0  0  0  0  0  0  0  0  0  0
    1.3020   -3.8701    6.0270 C   0  0  0  0  0  0  0  0  0  0  0  0
    1.1016   -3.0190    3.6731 C   0  0  0  0  0  0  0  0  0  0  0  0
    1.3117   -1.3268    5.6488 C   0  0  1  0  0  0  0  0  0  0  0  0
    2.2277   -0.7250    4.7562 O   0  0  0  0  0  0  0  0  0  0  0  0
    0.5298   -0.0444    7.7085 C   0  0  1  0  0  0  0  0  0  0  0  0
    0.8658   -1.1813    8.7046 C   0  0  0  0  0  0  0  0  0  0  0  0
   -0.0066   -1.9412    9.1216 O   0  0  0  0  0  0  0  0  0  0  0  0
    0.8816    3.3968    6.8645 C   0  0  1  0  0  0  0  0  0  0  0  0
   -0.9779    5.6464    6.4301 H   0  0  0  0  0  0  0  0  0  0  0  0
    0.1015    6.4540    5.3038 H   0  0  0  0  0  0  0  0  0  0  0  0
    0.6318    6.1545    6.9425 H   0  0  0  0  0  0  0  0  0  0  0  0
    1.6190    4.6311    5.2817 H   0  0  0  0  0  0  0  0  0  0  0  0
   -0.5738    4.6525    3.8689 H   0  0  0  0  0  0  0  0  0  0  0  0
    0.5378    3.3782    3.7672 H   0  0  0  0  0  0  0  0  0  0  0  0
   -1.9929    3.6451    5.0639 H   0  0  0  0  0  0  0  0  0  0  0  0
   -1.7705    1.4230    7.7291 H   0  0  0  0  0  0  0  0  0  0  0  0
   -3.6637    2.5779    6.8463 H   0  0  0  0  0  0  0  0  0  0  0  0
   -2.7998    4.1101    6.9351 H   0  0  0  0  0  0  0  0  0  0  0  0
   -3.1027    3.2022    8.3845 H   0  0  0  0  0  0  0  0  0  0  0  0
   -0.7355    4.1036    8.0788 H   0  0  0  0  0  0  0  0  0  0  0  0
    0.2839    3.3892    9.8978 H   0  0  0  0  0  0  0  0  0  0  0  0
   -0.6061    1.9344    9.6308 H   0  0  0  0  0  0  0  0  0  0  0  0
    2.3257    2.5116    9.1995 H   0  0  0  0  0  0  0  0  0  0  0  0
    1.6047    1.1364    9.9694 H   0  0  0  0  0  0  0  0  0  0  0  0
    2.6061    0.5219    7.7726 H   0  0  0  0  0  0  0  0  0  0  0  0
    2.6933    2.5582    6.9796 H   0  0  0  0  0  0  0  0  0  0  0  0
    2.4205    2.6630    4.6152 H   0  0  0  0  0  0  0  0  0  0  0  0
    3.4394    1.5928    5.4340 H   0  0  0  0  0  0  0  0  0  0  0  0
    3.2490    1.4636    2.6169 H   0  0  0  0  0  0  0  0  0  0  0  0
    3.1190   -0.2930    2.5180 H   0  0  0  0  0  0  0  0  0  0  0  0
    4.1716    0.4286    3.7090 H   0  0  0  0  0  0  0  0  0  0  0  0
    0.6888    1.6130    2.8509 H   0  0  0  0  0  0  0  0  0  0  0  0
    0.9083   -0.0105    2.4711 H   0  0  0  0  0  0  0  0  0  0  0  0
   -1.3864    0.7029    3.3267 H   0  0  0  0  0  0  0  0  0  0  0  0
   -0.7567   -0.8272    3.6854 H   0  0  0  0  0  0  0  0  0  0  0  0
   -1.8130    0.0390    5.5584 H   0  0  0  0  0  0  0  0  0  0  0  0
    2.3862   -3.9796    5.9415 H   0  0  0  0  0  0  0  0  0  0  0  0
    0.8601   -4.8178    5.7170 H   0  0  0  0  0  0  0  0  0  0  0  0
    1.0697   -3.7245    7.0808 H   0  0  0  0  0  0  0  0  0  0  0  0
    2.1725   -3.1157    3.4908 H   0  0  0  0  0  0  0  0  0  0  0  0
    0.7254   -2.2538    3.0013 H   0  0  0  0  0  0  0  0  0  0  0  0
    0.6296   -3.9572    3.3815 H   0  0  0  0  0  0  0  0  0  0  0  0
    2.0113   -1.5833    6.4399 H   0  0  0  0  0  0  0  0  0  0  0  0
   -0.3561    0.3113    8.1941 H   0  0  0  0  0  0  0  0  0  0  0  0
    1.9076   -1.2318    9.0300 H   0  0  0  0  0  0  0  0  0  0  0  0
    1.5076    4.0298    7.5032 H   0  0  0  0  0  0  0  0  0  0  0  0
  1  2  1  0
  1 31  1  0
  1 32  1  0
  1 33  1  0
  2 30  1  0
  2  3  1  0
  2 34  1  6
  3  4  1  0
  3 35  1  0
  3 36  1  0
  4  5  2  0
  4 37  1  0
  5 18  1  0
  5  6  1  0
  6  7  1  0
  6  8  1  0
  6 38  1  1
  7 39  1  0
  7 40  1  0
  7 41  1  0
  8 30  1  0
  8  9  1  0
  8 42  1  1
  9 10  1  0
  9 43  1  0
  9 44  1  0
 10 11  1  0
 10 45  1  0
 10 46  1  0
 11 27  1  0
 11 12  1  0
 11 47  1  1
 12 13  1  0
 12 30  1  0
 12 48  1  1
 13 14  1  0
 13 49  1  0
 13 50  1  0
 14 26  1  0
 14 15  1  6
 14 16  1  0
 15 51  1  0
 15 52  1  0
 15 53  1  0
 16 17  1  0
 16 54  1  0
 16 55  1  0
 17 18  1  0
 17 56  1  0
 17 57  1  0
 18 19  1  0
 18 58  1  6
 19 25  1  0
 19 20  1  1
 19 27  1  0
 20 21  1  0
 21 22  1  0
 22 23  1  0
 22 24  1  0
 22 25  1  0
 23 59  1  0
 23 60  1  0
 23 61  1  0
 24 62  1  0
 24 63  1  0
 24 64  1  0
 25 26  1  0
 25 65  1  1
 27 28  1  0
 27 66  1  1
 28 29  2  0
 28 67  1  0
 30 68  1  1
M  END
>  <i_m_ct_stereo_status>  (287) 
1

>  <s_m_source_file>  (287) 
/var/tmp/pbs.5076255.sched01/tmpajq2dbrl/12675ddggds.sdf

>  <i_m_source_file_index>  (287) 
10

>  <i_lp_mmshare_version>  (287) 
48012

>  <i_f3d_flags>  (287) 
0

>  <s_epik_input>  (287) 
W0NAXTEyM1tDQEhdNEM1PVtDSF1bQ0gyXVtDQEBIXShbQ0gzXSlbQ0BIXTZbQ0hdKFtDQEBIXTVbQ0gzXSlbQ0gyXVtDSDJdW0NAQEhdKFtDQEBIXTNbQ0hdPU8pW0NASF02W0NIMl1bQ0BdKFtDSDNdKShbQ0gyXVtDSDJdNClPW0NAQEhdMkMoT08xKShbQ0gzXSlbQ0gzXQ==

>  <s_epik_cmdline>  (287) 
J2VwaWtfcHl0aG9uJywgJy1waHQnLCAnMi4wJywgJy1waCcsICc3LjAnLCAnLXRuJywgJzgnLCAnLW1hJywgJzIwMCcsICctaW1hZScsICc8aW5maWxlLm1hZT4nLCAnLW9tYWUnLCAnPG91dGZpbGUubWFlPic=

>  <r_lp_tautomer_probability>  (287) 
1

>  <r_epik_Ionization_Penalty>  (287) 
9.9823e-07

>  <r_epik_Ionization_Penalty_Charging>  (287) 
0

>  <r_epik_Ionization_Penalty_Neutral>  (287) 
9.9823e-07

>  <r_epik_State_Penalty>  (287) 
-0

>  <r_epik_Charging_Adjusted_Penalty>  (287) 
0

>  <i_epik_Tot_Q>  (287) 
0

>  <i_epik_Tot_abs_Q>  (287) 
0

>  <s_lp_Force_Field>  (287) 
OPLS3e

>  <r_lp_Energy>  (287) 
159.45

>  <b_lp_Chiralities_Consistent>  (287) 
1

>  <s_lp_Variant>  (287) 
95:0-1

>  <s_i_glide_gridfile>  (287) 
pfpi4k_grid

>  <i_i_glide_lignum>  (287) 
10

>  <i_i_glide_rotatable_bonds>  (287) 
1

>  <r_i_docking_score>  (287) 
-2.5049

>  <r_i_glide_ligand_efficiency>  (287) 
-0.0834965

>  <r_i_glide_ligand_efficiency_sa>  (287) 
-0.259443

>  <r_i_glide_ligand_efficiency_ln>  (287) 
-0.56914

>  <r_i_glide_gscore>  (287) 
-2.5049

>  <r_i_glide_lipo>  (287) 
-0.222872

>  <r_i_glide_hbond>  (287) 
-0.16

>  <r_i_glide_metal>  (287) 
-0

>  <r_i_glide_rewards>  (287) 
-0.582426

>  <r_i_glide_evdw>  (287) 
-21.5786

>  <r_i_glide_ecoul>  (287) 
-2.89866

>  <r_i_glide_erotb>  (287) 
0

>  <r_i_glide_esite>  (287) 
-0.0258689

>  <r_i_glide_emodel>  (287) 
-28.292

>  <r_i_glide_energy>  (287) 
-24.4773

>  <r_i_glide_einternal>  (287) 
0.122892

>  <r_i_glide_intrahb_reward>  (287) 
-0

>  <i_i_glide_confnum>  (287) 
2

>  <i_i_glide_posenum>  (287) 
1

>  <r_i_glide_eff_state_penalty>  (287) 
0

>  <ligand_id>  (287) 
95

>  <original_smiles>  (287) 
CC1CC=C2C(C)C3CCC4C(CC5(C)CCC2C2(OOC(C)(C)C2O5)C4C=O)C13

>  <smiles>  (287) 
[H]C(=O)C1([H])C2([H])C([H])([H])C([H])([H])C3([H])C([H])(C([H])([H])[H])C4=C([H])C([H])([H])C([H])(C([H])([H])[H])C3([H])C2([H])C([H])([H])C2(C([H])([H])[H])OC3([H])C(C([H])([H])[H])(C([H])([H])[H])OOC31C4([H])C([H])([H])C2([H])[H]

$$$$
95:0:1
     RDKit          3D

 68 73  0  0  1  0  0  0  0  0999 V2000
   -2.3858    3.3126    3.2883 C   0  0  0  0  0  0  0  0  0  0  0  0
   -1.0319    2.5775    3.2170 C   0  0  2  0  0  0  0  0  0  0  0  0
   -1.1536    1.1549    3.8037 C   0  0  0  0  0  0  0  0  0  0  0  0
   -0.7944    1.0264    5.2706 C   0  0  0  0  0  0  0  0  0  0  0  0
    0.2810    1.6670    5.7854 C   0  0  0  0  0  0  0  0  0  0  0  0
    0.0507    3.0852    6.3223 C   0  0  2  0  0  0  0  0  0  0  0  0
   -1.2114    3.2579    7.2000 C   0  0  0  0  0  0  0  0  0  0  0  0
    0.0290    4.0987    5.1248 C   0  0  1  0  0  0  0  0  0  0  0  0
    1.0085    5.2995    5.2780 C   0  0  0  0  0  0  0  0  0  0  0  0
    2.2764    5.1937    4.3931 C   0  0  0  0  0  0  0  0  0  0  0  0
    2.7340    3.7216    4.2277 C   0  0  2  0  0  0  0  0  0  0  0  0
    1.6388    2.9829    3.3876 C   0  0  1  0  0  0  0  0  0  0  0  0
    1.9490    1.6371    2.6150 C   0  0  0  0  0  0  0  0  0  0  0  0
    2.6170    0.3060    3.1450 C   0  0  2  0  0  0  0  0  0  0  0  0
    2.9773   -0.4819    1.8573 C   0  0  0  0  0  0  0  0  0  0  0  0
    1.7903   -0.7069    3.9881 C   0  0  0  0  0  0  0  0  0  0  0  0
    1.6440   -0.4962    5.5027 C   0  0  0  0  0  0  0  0  0  0  0  0
    1.6583    0.9571    5.9998 C   0  0  1  0  0  0  0  0  0  0  0  0
    3.0999    1.6441    5.8058 C   0  0  1  0  0  0  0  0  0  0  0  0
    3.6964    1.3738    7.0729 O   0  0  0  0  0  0  0  0  0  0  0  0
    4.3284    0.0142    6.9837 O   0  0  0  0  0  0  0  0  0  0  0  0
    5.0673    0.0212    5.7866 C   0  0  0  0  0  0  0  0  0  0  0  0
    6.4834    0.5797    6.0524 C   0  0  0  0  0  0  0  0  0  0  0  0
    5.1734   -1.4260    5.2747 C   0  0  0  0  0  0  0  0  0  0  0  0
    4.2072    0.9724    4.9228 C   0  0  1  0  0  0  0  0  0  0  0  0
    3.9312    0.4420    3.6424 O   0  0  0  0  0  0  0  0  0  0  0  0
    3.1502    3.1882    5.6346 C   0  0  1  0  0  0  0  0  0  0  0  0
    4.4848    3.8494    6.0524 C   0  0  0  0  0  0  0  0  0  0  0  0
    4.8898    3.8327    7.2188 O   0  0  0  0  0  0  0  0  0  0  0  0
    0.1656    3.4585    3.7038 C   0  0  1  0  0  0  0  0  0  0  0  0
   -2.7398    3.4236    4.3131 H   0  0  0  0  0  0  0  0  0  0  0  0
   -3.1527    2.7619    2.7413 H   0  0  0  0  0  0  0  0  0  0  0  0
   -2.3249    4.3026    2.8349 H   0  0  0  0  0  0  0  0  0  0  0  0
   -0.8798    2.4463    2.1450 H   0  0  0  0  0  0  0  0  0  0  0  0
   -2.1720    0.7966    3.6863 H   0  0  0  0  0  0  0  0  0  0  0  0
   -0.5788    0.4849    3.1869 H   0  0  0  0  0  0  0  0  0  0  0  0
   -1.7282    1.4110    5.6313 H   0  0  0  0  0  0  0  0  0  0  0  0
    0.8172    3.2982    7.0538 H   0  0  0  0  0  0  0  0  0  0  0  0
   -1.2321    2.5236    8.0018 H   0  0  0  0  0  0  0  0  0  0  0  0
   -2.1487    3.1864    6.6499 H   0  0  0  0  0  0  0  0  0  0  0  0
   -1.2100    4.2425    7.6655 H   0  0  0  0  0  0  0  0  0  0  0  0
   -0.9517    4.5738    5.1476 H   0  0  0  0  0  0  0  0  0  0  0  0
    0.5019    6.2325    5.0229 H   0  0  0  0  0  0  0  0  0  0  0  0
    1.2960    5.4158    6.3235 H   0  0  0  0  0  0  0  0  0  0  0  0
    2.0574    5.6113    3.4075 H   0  0  0  0  0  0  0  0  0  0  0  0
    3.0684    5.8290    4.7970 H   0  0  0  0  0  0  0  0  0  0  0  0
    3.6257    3.7193    3.5994 H   0  0  0  0  0  0  0  0  0  0  0  0
    1.7477    3.5870    2.4836 H   0  0  0  0  0  0  0  0  0  0  0  0
    1.0641    1.3520    2.0515 H   0  0  0  0  0  0  0  0  0  0  0  0
    2.6201    1.9539    1.8171 H   0  0  0  0  0  0  0  0  0  0  0  0
    2.0886   -0.7669    1.2857 H   0  0  0  0  0  0  0  0  0  0  0  0
    3.5276   -1.3997    2.0876 H   0  0  0  0  0  0  0  0  0  0  0  0
    3.6241    0.0938    1.1909 H   0  0  0  0  0  0  0  0  0  0  0  0
    0.8253   -0.8856    3.5312 H   0  0  0  0  0  0  0  0  0  0  0  0
    2.2564   -1.6890    3.8955 H   0  0  0  0  0  0  0  0  0  0  0  0
    0.7463   -1.0122    5.8406 H   0  0  0  0  0  0  0  0  0  0  0  0
    2.4294   -1.0433    6.0128 H   0  0  0  0  0  0  0  0  0  0  0  0
    1.5749    0.8375    7.0804 H   0  0  0  0  0  0  0  0  0  0  0  0
    7.0607    0.6288    5.1262 H   0  0  0  0  0  0  0  0  0  0  0  0
    7.0383   -0.0552    6.7434 H   0  0  0  0  0  0  0  0  0  0  0  0
    6.4589    1.5831    6.4762 H   0  0  0  0  0  0  0  0  0  0  0  0
    5.7096   -1.4669    4.3269 H   0  0  0  0  0  0  0  0  0  0  0  0
    4.2049   -1.8878    5.1160 H   0  0  0  0  0  0  0  0  0  0  0  0
    5.7140   -2.0480    5.9880 H   0  0  0  0  0  0  0  0  0  0  0  0
    4.9081    1.7433    4.6231 H   0  0  0  0  0  0  0  0  0  0  0  0
    2.5299    3.6161    6.3965 H   0  0  0  0  0  0  0  0  0  0  0  0
    5.0248    4.3620    5.2586 H   0  0  0  0  0  0  0  0  0  0  0  0
    0.0319    4.3392    3.0671 H   0  0  0  0  0  0  0  0  0  0  0  0
  1  2  1  0
  1 31  1  0
  1 32  1  0
  1 33  1  0
  2 30  1  0
  2  3  1  0
  2 34  1  6
  3  4  1  0
  3 35  1  0
  3 36  1  0
  4  5  2  0
  4 37  1  0
  5 18  1  0
  5  6  1  0
  6  7  1  0
  6  8  1  0
  6 38  1  1
  7 39  1  0
  7 40  1  0
  7 41  1  0
  8 30  1  0
  8  9  1  0
  8 42  1  6
  9 10  1  0
  9 43  1  0
  9 44  1  0
 10 11  1  0
 10 45  1  0
 10 46  1  0
 11 27  1  0
 11 12  1  0
 11 47  1  6
 12 13  1  0
 12 30  1  0
 12 48  1  6
 13 14  1  0
 13 49  1  0
 13 50  1  0
 14 26  1  0
 14 15  1  6
 14 16  1  0
 15 51  1  0
 15 52  1  0
 15 53  1  0
 16 17  1  0
 16 54  1  0
 16 55  1  0
 17 18  1  0
 17 56  1  0
 17 57  1  0
 18 19  1  0
 18 58  1  1
 19 25  1  0
 19 20  1  1
 19 27  1  0
 20 21  1  0
 21 22  1  0
 22 23  1  0
 22 24  1  0
 22 25  1  0
 23 59  1  0
 23 60  1  0
 23 61  1  0
 24 62  1  0
 24 63  1  0
 24 64  1  0
 25 26  1  0
 25 65  1  6
 27 28  1  0
 27 66  1  1
 28 29  2  0
 28 67  1  0
 30 68  1  6
M  END
>  <i_m_ct_stereo_status>  (288) 
1

>  <s_m_source_file>  (288) 
/var/tmp/pbs.5076255.sched01/tmpajq2dbrl/12675ddggds.sdf

>  <i_m_source_file_index>  (288) 
10

>  <i_lp_mmshare_version>  (288) 
48012

>  <i_f3d_flags>  (288) 
0

>  <s_epik_input>  (288) 
W0NAXTEyM1tDQEhdNEM1PVtDSF1bQ0gyXVtDQEBIXShbQ0gzXSlbQ0BIXTZbQ0hdKFtDQEBIXTVbQ0gzXSlbQ0gyXVtDSDJdW0NAQEhdKFtDQEBIXTNbQ0hdPU8pW0NASF02W0NIMl1bQ0BdKFtDSDNdKShbQ0gyXVtDSDJdNClPW0NAQEhdMkMoT08xKShbQ0gzXSlbQ0gzXQ==

>  <s_epik_cmdline>  (288) 
J2VwaWtfcHl0aG9uJywgJy1waHQnLCAnMi4wJywgJy1waCcsICc3LjAnLCAnLXRuJywgJzgnLCAnLW1hJywgJzIwMCcsICctaW1hZScsICc8aW5maWxlLm1hZT4nLCAnLW9tYWUnLCAnPG91dGZpbGUubWFlPic=

>  <r_lp_tautomer_probability>  (288) 
1

>  <r_epik_Ionization_Penalty>  (288) 
9.9823e-07

>  <r_epik_Ionization_Penalty_Charging>  (288) 
0

>  <r_epik_Ionization_Penalty_Neutral>  (288) 
9.9823e-07

>  <r_epik_State_Penalty>  (288) 
-0

>  <r_epik_Charging_Adjusted_Penalty>  (288) 
0

>  <i_epik_Tot_Q>  (288) 
0

>  <i_epik_Tot_abs_Q>  (288) 
0

>  <s_lp_Force_Field>  (288) 
OPLS3e

>  <r_lp_Energy>  (288) 
159.45

>  <b_lp_Chiralities_Consistent>  (288) 
1

>  <s_lp_Variant>  (288) 
95:0-1

>  <s_i_glide_gridfile>  (288) 
pfpi4k_grid

>  <i_i_glide_lignum>  (288) 
10

>  <i_i_glide_rotatable_bonds>  (288) 
1

>  <r_i_docking_score>  (288) 
-2.22931

>  <r_i_glide_ligand_efficiency>  (288) 
-0.0743103

>  <r_i_glide_ligand_efficiency_sa>  (288) 
-0.230899

>  <r_i_glide_ligand_efficiency_ln>  (288) 
-0.506523

>  <r_i_glide_gscore>  (288) 
-2.22931

>  <r_i_glide_lipo>  (288) 
-0.237338

>  <r_i_glide_hbond>  (288) 
0

>  <r_i_glide_metal>  (288) 
-0

>  <r_i_glide_rewards>  (288) 
-0.584505

>  <r_i_glide_evdw>  (288) 
-25.872

>  <r_i_glide_ecoul>  (288) 
-0.759119

>  <r_i_glide_erotb>  (288) 
0

>  <r_i_glide_esite>  (288) 
0

>  <r_i_glide_emodel>  (288) 
-29.9516

>  <r_i_glide_energy>  (288) 
-26.6311

>  <r_i_glide_einternal>  (288) 
0.125615

>  <r_i_glide_intrahb_reward>  (288) 
-0

>  <i_i_glide_confnum>  (288) 
2

>  <i_i_glide_posenum>  (288) 
25

>  <r_i_glide_eff_state_penalty>  (288) 
0

>  <ligand_id>  (288) 
95

>  <original_smiles>  (288) 
CC1CC=C2C(C)C3CCC4C(CC5(C)CCC2C2(OOC(C)(C)C2O5)C4C=O)C13

>  <smiles>  (288) 
[H]C(=O)C1([H])C2([H])C([H])([H])C([H])([H])C3([H])C([H])(C([H])([H])[H])C4=C([H])C([H])([H])C([H])(C([H])([H])[H])C3([H])C2([H])C([H])([H])C2(C([H])([H])[H])OC3([H])C(C([H])([H])[H])(C([H])([H])[H])OOC31C4([H])C([H])([H])C2([H])[H]

$$$$
95:0:2
     RDKit          3D

 68 73  0  0  1  0  0  0  0  0999 V2000
    2.6218   -2.5569    1.5106 C   0  0  0  0  0  0  0  0  0  0  0  0
    1.8151   -1.4197    2.1706 C   0  0  2  0  0  0  0  0  0  0  0  0
    2.4104   -0.0452    1.7905 C   0  0  0  0  0  0  0  0  0  0  0  0
    3.4068    0.5206    2.7854 C   0  0  0  0  0  0  0  0  0  0  0  0
    3.2009    0.4316    4.1198 C   0  0  0  0  0  0  0  0  0  0  0  0
    3.7243   -0.8254    4.8213 C   0  0  2  0  0  0  0  0  0  0  0  0
    5.1539   -1.2411    4.4181 C   0  0  0  0  0  0  0  0  0  0  0  0
    2.7297   -2.0161    4.5930 C   0  0  1  0  0  0  0  0  0  0  0  0
    2.2666   -2.7222    5.8991 C   0  0  0  0  0  0  0  0  0  0  0  0
    0.8198   -2.3665    6.3244 C   0  0  0  0  0  0  0  0  0  0  0  0
    0.4613   -0.9045    5.9593 C   0  0  2  0  0  0  0  0  0  0  0  0
    0.4236   -0.7973    4.4013 C   0  0  1  0  0  0  0  0  0  0  0  0
   -0.3491    0.3741    3.6709 C   0  0  0  0  0  0  0  0  0  0  0  0
   -0.2551    1.9363    3.8953 C   0  0  2  0  0  0  0  0  0  0  0  0
   -1.4926    2.5079    3.1575 C   0  0  0  0  0  0  0  0  0  0  0  0
    0.9400    2.7387    3.3062 C   0  0  0  0  0  0  0  0  0  0  0  0
    2.2612    2.8219    4.0833 C   0  0  0  0  0  0  0  0  0  0  0  0
    2.6165    1.6121    4.9627 C   0  0  1  0  0  0  0  0  0  0  0  0
    1.6112    1.4505    6.2109 C   0  0  1  0  0  0  0  0  0  0  0  0
    2.3121    2.1654    7.2269 O   0  0  0  0  0  0  0  0  0  0  0  0
    1.9414    3.6127    7.0763 O   0  0  0  0  0  0  0  0  0  0  0  0
    0.5368    3.6325    6.9852 C   0  0  0  0  0  0  0  0  0  0  0  0
   -0.0640    3.6873    8.4060 C   0  0  0  0  0  0  0  0  0  0  0  0
    0.0983    4.8801    6.1942 C   0  0  0  0  0  0  0  0  0  0  0  0
    0.2818    2.2740    6.2885 C   0  0  1  0  0  0  0  0  0  0  0  0
   -0.6052    2.3762    5.1901 O   0  0  0  0  0  0  0  0  0  0  0  0
    1.3883    0.0291    6.7968 C   0  0  1  0  0  0  0  0  0  0  0  0
    0.9829    0.0272    8.2927 C   0  0  0  0  0  0  0  0  0  0  0  0
   -0.1712   -0.2155    8.6593 O   0  0  0  0  0  0  0  0  0  0  0  0
    1.5044   -1.6905    3.6773 C   0  0  1  0  0  0  0  0  0  0  0  0
    3.6634   -2.5623    1.8308 H   0  0  0  0  0  0  0  0  0  0  0  0
    2.6188   -2.4463    0.4245 H   0  0  0  0  0  0  0  0  0  0  0  0
    2.1972   -3.5363    1.7314 H   0  0  0  0  0  0  0  0  0  0  0  0
    0.8496   -1.4593    1.6656 H   0  0  0  0  0  0  0  0  0  0  0  0
    2.8987   -0.1077    0.8153 H   0  0  0  0  0  0  0  0  0  0  0  0
    1.5988    0.6397    1.6074 H   0  0  0  0  0  0  0  0  0  0  0  0
    4.2281   -0.0782    2.4397 H   0  0  0  0  0  0  0  0  0  0  0  0
    3.8865   -0.5876    5.8623 H   0  0  0  0  0  0  0  0  0  0  0  0
    5.8452   -0.4050    4.5207 H   0  0  0  0  0  0  0  0  0  0  0  0
    5.2407   -1.6280    3.4036 H   0  0  0  0  0  0  0  0  0  0  0  0
    5.5095   -2.0364    5.0725 H   0  0  0  0  0  0  0  0  0  0  0  0
    3.2968   -2.7926    4.0766 H   0  0  0  0  0  0  0  0  0  0  0  0
    2.3261   -3.8060    5.7763 H   0  0  0  0  0  0  0  0  0  0  0  0
    2.9618   -2.4987    6.7092 H   0  0  0  0  0  0  0  0  0  0  0  0
    0.1272   -3.0412    5.8203 H   0  0  0  0  0  0  0  0  0  0  0  0
    0.6909   -2.5671    7.3909 H   0  0  0  0  0  0  0  0  0  0  0  0
   -0.5654   -0.7179    6.2643 H   0  0  0  0  0  0  0  0  0  0  0  0
   -0.3961   -1.5028    4.2529 H   0  0  0  0  0  0  0  0  0  0  0  0
   -0.2946    0.2063    2.5988 H   0  0  0  0  0  0  0  0  0  0  0  0
   -1.3973    0.1530    3.8781 H   0  0  0  0  0  0  0  0  0  0  0  0
   -1.4415    2.3262    2.0802 H   0  0  0  0  0  0  0  0  0  0  0  0
   -1.5819    3.5877    3.3005 H   0  0  0  0  0  0  0  0  0  0  0  0
   -2.4275    2.0788    3.5237 H   0  0  0  0  0  0  0  0  0  0  0  0
    1.1181    2.4601    2.2749 H   0  0  0  0  0  0  0  0  0  0  0  0
    0.6293    3.7785    3.1909 H   0  0  0  0  0  0  0  0  0  0  0  0
    3.0650    3.0380    3.3779 H   0  0  0  0  0  0  0  0  0  0  0  0
    2.2547    3.7116    4.7039 H   0  0  0  0  0  0  0  0  0  0  0  0
    3.5551    1.9207    5.4222 H   0  0  0  0  0  0  0  0  0  0  0  0
   -1.1548    3.6513    8.3667 H   0  0  0  0  0  0  0  0  0  0  0  0
    0.2087    4.6105    8.9171 H   0  0  0  0  0  0  0  0  0  0  0  0
    0.2678    2.8564    9.0261 H   0  0  0  0  0  0  0  0  0  0  0  0
   -0.9854    4.9064    6.0798 H   0  0  0  0  0  0  0  0  0  0  0  0
    0.5272    4.9189    5.1972 H   0  0  0  0  0  0  0  0  0  0  0  0
    0.3972    5.7914    6.7098 H   0  0  0  0  0  0  0  0  0  0  0  0
   -0.3902    1.7615    6.9698 H   0  0  0  0  0  0  0  0  0  0  0  0
    2.3587   -0.4112    6.9176 H   0  0  0  0  0  0  0  0  0  0  0  0
    1.7977    0.2211    8.9910 H   0  0  0  0  0  0  0  0  0  0  0  0
    1.0310   -2.6753    3.6021 H   0  0  0  0  0  0  0  0  0  0  0  0
  1  2  1  0
  1 31  1  0
  1 32  1  0
  1 33  1  0
  2 30  1  0
  2  3  1  0
  2 34  1  6
  3  4  1  0
  3 35  1  0
  3 36  1  0
  4  5  2  0
  4 37  1  0
  5 18  1  0
  5  6  1  0
  6  7  1  0
  6  8  1  0
  6 38  1  1
  7 39  1  0
  7 40  1  0
  7 41  1  0
  8 30  1  0
  8  9  1  0
  8 42  1  6
  9 10  1  0
  9 43  1  0
  9 44  1  0
 10 11  1  0
 10 45  1  0
 10 46  1  0
 11 27  1  0
 11 12  1  0
 11 47  1  1
 12 13  1  0
 12 30  1  0
 12 48  1  6
 13 14  1  0
 13 49  1  0
 13 50  1  0
 14 26  1  0
 14 15  1  6
 14 16  1  0
 15 51  1  0
 15 52  1  0
 15 53  1  0
 16 17  1  0
 16 54  1  0
 16 55  1  0
 17 18  1  0
 17 56  1  0
 17 57  1  0
 18 19  1  0
 18 58  1  1
 19 25  1  0
 19 20  1  1
 19 27  1  0
 20 21  1  0
 21 22  1  0
 22 23  1  0
 22 24  1  0
 22 25  1  0
 23 59  1  0
 23 60  1  0
 23 61  1  0
 24 62  1  0
 24 63  1  0
 24 64  1  0
 25 26  1  0
 25 65  1  1
 27 28  1  0
 27 66  1  1
 28 29  2  0
 28 67  1  0
 30 68  1  6
M  END
>  <i_m_ct_stereo_status>  (289) 
1

>  <s_m_source_file>  (289) 
/var/tmp/pbs.5076255.sched01/tmpajq2dbrl/12675ddggds.sdf

>  <i_m_source_file_index>  (289) 
10

>  <i_lp_mmshare_version>  (289) 
48012

>  <i_f3d_flags>  (289) 
0

>  <s_epik_input>  (289) 
W0NAXTEyM1tDQEhdNEM1PVtDSF1bQ0gyXVtDQEBIXShbQ0gzXSlbQ0BIXTZbQ0hdKFtDQEBIXTVbQ0gzXSlbQ0gyXVtDSDJdW0NAQEhdKFtDQEBIXTNbQ0hdPU8pW0NASF02W0NIMl1bQ0BdKFtDSDNdKShbQ0gyXVtDSDJdNClPW0NAQEhdMkMoT08xKShbQ0gzXSlbQ0gzXQ==

>  <s_epik_cmdline>  (289) 
J2VwaWtfcHl0aG9uJywgJy1waHQnLCAnMi4wJywgJy1waCcsICc3LjAnLCAnLXRuJywgJzgnLCAnLW1hJywgJzIwMCcsICctaW1hZScsICc8aW5maWxlLm1hZT4nLCAnLW9tYWUnLCAnPG91dGZpbGUubWFlPic=

>  <r_lp_tautomer_probability>  (289) 
1

>  <r_epik_Ionization_Penalty>  (289) 
9.9823e-07

>  <r_epik_Ionization_Penalty_Charging>  (289) 
0

>  <r_epik_Ionization_Penalty_Neutral>  (289) 
9.9823e-07

>  <r_epik_State_Penalty>  (289) 
-0

>  <r_epik_Charging_Adjusted_Penalty>  (289) 
0

>  <i_epik_Tot_Q>  (289) 
0

>  <i_epik_Tot_abs_Q>  (289) 
0

>  <s_lp_Force_Field>  (289) 
OPLS3e

>  <r_lp_Energy>  (289) 
159.45

>  <b_lp_Chiralities_Consistent>  (289) 
1

>  <s_lp_Variant>  (289) 
95:0-1

>  <s_i_glide_gridfile>  (289) 
pfpi4k_grid

>  <i_i_glide_lignum>  (289) 
10

>  <i_i_glide_rotatable_bonds>  (289) 
1

>  <r_i_docking_score>  (289) 
-2.12187

>  <r_i_glide_ligand_efficiency>  (289) 
-0.070729

>  <r_i_glide_ligand_efficiency_sa>  (289) 
-0.219772

>  <r_i_glide_ligand_efficiency_ln>  (289) 
-0.482112

>  <r_i_glide_gscore>  (289) 
-2.12187

>  <r_i_glide_lipo>  (289) 
-0.0802211

>  <r_i_glide_hbond>  (289) 
-0.00824028

>  <r_i_glide_metal>  (289) 
-0

>  <r_i_glide_rewards>  (289) 
-0.582426

>  <r_i_glide_evdw>  (289) 
-21.9074

>  <r_i_glide_ecoul>  (289) 
-2.31528

>  <r_i_glide_erotb>  (289) 
0

>  <r_i_glide_esite>  (289) 
-0.00832092

>  <r_i_glide_emodel>  (289) 
-27.449

>  <r_i_glide_energy>  (289) 
-24.2227

>  <r_i_glide_einternal>  (289) 
0.10029

>  <r_i_glide_intrahb_reward>  (289) 
-0

>  <i_i_glide_confnum>  (289) 
1

>  <i_i_glide_posenum>  (289) 
33

>  <r_i_glide_eff_state_penalty>  (289) 
0

>  <ligand_id>  (289) 
95

>  <original_smiles>  (289) 
CC1CC=C2C(C)C3CCC4C(CC5(C)CCC2C2(OOC(C)(C)C2O5)C4C=O)C13

>  <smiles>  (289) 
[H]C(=O)C1([H])C2([H])C([H])([H])C([H])([H])C3([H])C([H])(C([H])([H])[H])C4=C([H])C([H])([H])C([H])(C([H])([H])[H])C3([H])C2([H])C([H])([H])C2(C([H])([H])[H])OC3([H])C(C([H])([H])[H])(C([H])([H])[H])OOC31C4([H])C([H])([H])C2([H])[H]

$$$$
95:1:0
     RDKit          3D

 68 73  0  0  1  0  0  0  0  0999 V2000
    2.5437    5.1105    3.3309 C   0  0  0  0  0  0  0  0  0  0  0  0
    2.7026    3.6286    3.7290 C   0  0  2  0  0  0  0  0  0  0  0  0
    2.0731    2.7148    2.6464 C   0  0  0  0  0  0  0  0  0  0  0  0
    0.6915    2.1446    2.9213 C   0  0  0  0  0  0  0  0  0  0  0  0
    0.2429    1.9097    4.1848 C   0  0  0  0  0  0  0  0  0  0  0  0
   -0.2164    3.1585    4.9633 C   0  0  1  0  0  0  0  0  0  0  0  0
   -1.6443    3.1322    5.5579 C   0  0  0  0  0  0  0  0  0  0  0  0
    0.9610    3.8609    5.7116 C   0  0  1  0  0  0  0  0  0  0  0  0
    0.9194    3.9820    7.2630 C   0  0  0  0  0  0  0  0  0  0  0  0
    1.9104    3.0358    7.9757 C   0  0  0  0  0  0  0  0  0  0  0  0
    2.0113    1.6830    7.2267 C   0  0  2  0  0  0  0  0  0  0  0  0
    2.7477    1.9708    5.8798 C   0  0  1  0  0  0  0  0  0  0  0  0
    3.4680    0.8267    5.0579 C   0  0  0  0  0  0  0  0  0  0  0  0
    2.9221   -0.6018    4.6527 C   0  0  2  0  0  0  0  0  0  0  0  0
    4.1885   -1.3973    4.2450 C   0  0  0  0  0  0  0  0  0  0  0  0
    1.9772   -0.7314    3.4258 C   0  0  0  0  0  0  0  0  0  0  0  0
    0.4640   -0.5739    3.6209 C   0  0  0  0  0  0  0  0  0  0  0  0
    0.0179    0.4526    4.6798 C   0  0  1  0  0  0  0  0  0  0  0  0
    0.3490   -0.0657    6.1615 C   0  0  1  0  0  0  0  0  0  0  0  0
   -0.8760   -0.7119    6.4904 O   0  0  0  0  0  0  0  0  0  0  0  0
   -0.7860   -2.1124    5.9977 O   0  0  0  0  0  0  0  0  0  0  0  0
    0.4667   -2.6042    6.4182 C   0  0  0  0  0  0  0  0  0  0  0  0
    0.3411   -3.2611    7.8209 C   0  0  0  0  0  0  0  0  0  0  0  0
    0.9584   -3.6924    5.4422 C   0  0  0  0  0  0  0  0  0  0  0  0
    1.2902   -1.2907    6.4165 C   0  0  1  0  0  0  0  0  0  0  0  0
    2.5250   -1.4375    5.7288 O   0  0  0  0  0  0  0  0  0  0  0  0
    0.5903    1.0378    7.2304 C   0  0  1  0  0  0  0  0  0  0  0  0
    0.2124    0.7096    8.6987 C   0  0  0  0  0  0  0  0  0  0  0  0
   -0.1190   -0.4311    9.0944 O   0  0  0  0  0  0  0  0  0  0  0  0
    2.3553    3.3589    5.2292 C   0  0  1  0  0  0  0  0  0  0  0  0
    1.4955    5.3979    3.2376 H   0  0  0  0  0  0  0  0  0  0  0  0
    3.0128    5.3021    2.3655 H   0  0  0  0  0  0  0  0  0  0  0  0
    3.0191    5.7747    4.0536 H   0  0  0  0  0  0  0  0  0  0  0  0
    3.7770    3.4633    3.6575 H   0  0  0  0  0  0  0  0  0  0  0  0
    2.0307    3.2451    1.6909 H   0  0  0  0  0  0  0  0  0  0  0  0
    2.7645    1.9088    2.4394 H   0  0  0  0  0  0  0  0  0  0  0  0
    0.1764    2.9908    2.5073 H   0  0  0  0  0  0  0  0  0  0  0  0
   -0.3911    3.9066    4.1917 H   0  0  0  0  0  0  0  0  0  0  0  0
   -2.3859    3.1164    4.7573 H   0  0  0  0  0  0  0  0  0  0  0  0
   -1.8368    4.0340    6.1396 H   0  0  0  0  0  0  0  0  0  0  0  0
   -1.8662    2.2739    6.1865 H   0  0  0  0  0  0  0  0  0  0  0  0
    0.8848    4.9020    5.4092 H   0  0  0  0  0  0  0  0  0  0  0  0
    1.1618    5.0065    7.5632 H   0  0  0  0  0  0  0  0  0  0  0  0
   -0.0887    3.8121    7.6367 H   0  0  0  0  0  0  0  0  0  0  0  0
    2.8909    3.5021    8.0146 H   0  0  0  0  0  0  0  0  0  0  0  0
    1.6470    2.9423    9.0269 H   0  0  0  0  0  0  0  0  0  0  0  0
    2.6658    1.0245    7.7928 H   0  0  0  0  0  0  0  0  0  0  0  0
    3.6823    2.3277    6.3152 H   0  0  0  0  0  0  0  0  0  0  0  0
    3.9142    1.2660    4.1677 H   0  0  0  0  0  0  0  0  0  0  0  0
    4.3497    0.6035    5.6603 H   0  0  0  0  0  0  0  0  0  0  0  0
    4.6787   -0.9694    3.3708 H   0  0  0  0  0  0  0  0  0  0  0  0
    3.9442   -2.4342    4.0111 H   0  0  0  0  0  0  0  0  0  0  0  0
    4.9212   -1.4398    5.0515 H   0  0  0  0  0  0  0  0  0  0  0  0
    2.3241   -0.0884    2.6268 H   0  0  0  0  0  0  0  0  0  0  0  0
    2.0983   -1.7251    2.9948 H   0  0  0  0  0  0  0  0  0  0  0  0
    0.0267   -0.3321    2.6513 H   0  0  0  0  0  0  0  0  0  0  0  0
    0.0215   -1.5350    3.8423 H   0  0  0  0  0  0  0  0  0  0  0  0
   -1.0719    0.4253    4.6066 H   0  0  0  0  0  0  0  0  0  0  0  0
    1.3238   -3.5935    8.1828 H   0  0  0  0  0  0  0  0  0  0  0  0
   -0.2938   -4.1546    7.7850 H   0  0  0  0  0  0  0  0  0  0  0  0
   -0.0789   -2.5990    8.5790 H   0  0  0  0  0  0  0  0  0  0  0  0
    1.9266   -4.0791    5.7540 H   0  0  0  0  0  0  0  0  0  0  0  0
    1.0646   -3.3341    4.4286 H   0  0  0  0  0  0  0  0  0  0  0  0
    0.2645   -4.5261    5.4285 H   0  0  0  0  0  0  0  0  0  0  0  0
    1.6624   -1.1987    7.4346 H   0  0  0  0  0  0  0  0  0  0  0  0
   -0.1335    1.7916    6.9971 H   0  0  0  0  0  0  0  0  0  0  0  0
    0.2348    1.5559    9.3838 H   0  0  0  0  0  0  0  0  0  0  0  0
    3.0190    4.0790    5.7163 H   0  0  0  0  0  0  0  0  0  0  0  0
  1  2  1  0
  1 31  1  0
  1 32  1  0
  1 33  1  0
  2 30  1  0
  2  3  1  0
  2 34  1  1
  3  4  1  0
  3 35  1  0
  3 36  1  0
  4  5  2  0
  4 37  1  0
  5 18  1  0
  5  6  1  0
  6  7  1  0
  6  8  1  0
  6 38  1  6
  7 39  1  0
  7 40  1  0
  7 41  1  0
  8 30  1  0
  8  9  1  0
  8 42  1  6
  9 10  1  0
  9 43  1  0
  9 44  1  0
 10 11  1  0
 10 45  1  0
 10 46  1  0
 11 27  1  0
 11 12  1  0
 11 47  1  1
 12 13  1  0
 12 30  1  0
 12 48  1  1
 13 14  1  0
 13 49  1  0
 13 50  1  0
 14 26  1  0
 14 15  1  6
 14 16  1  0
 15 51  1  0
 15 52  1  0
 15 53  1  0
 16 17  1  0
 16 54  1  0
 16 55  1  0
 17 18  1  0
 17 56  1  0
 17 57  1  0
 18 19  1  0
 18 58  1  1
 19 25  1  0
 19 20  1  1
 19 27  1  0
 20 21  1  0
 21 22  1  0
 22 23  1  0
 22 24  1  0
 22 25  1  0
 23 59  1  0
 23 60  1  0
 23 61  1  0
 24 62  1  0
 24 63  1  0
 24 64  1  0
 25 26  1  0
 25 65  1  1
 27 28  1  0
 27 66  1  6
 28 29  2  0
 28 67  1  0
 30 68  1  1
M  END
>  <i_m_ct_stereo_status>  (290) 
1

>  <s_m_source_file>  (290) 
/var/tmp/pbs.5076255.sched01/tmpajq2dbrl/12675ddggds.sdf

>  <i_m_source_file_index>  (290) 
11

>  <i_lp_mmshare_version>  (290) 
48012

>  <i_f3d_flags>  (290) 
0

>  <s_epik_input>  (290) 
W0NAXTEyM1tDQEhdNEM1PVtDSF1bQ0gyXVtDQEBIXShbQ0gzXSlbQ0BIXTZbQ0hdKFtDQEBIXTVbQ0gzXSlbQ0gyXVtDSDJdW0NAQEhdKFtDQEBIXTNbQ0hdPU8pW0NASF02W0NIMl1bQ0BdKFtDSDNdKShbQ0gyXVtDSDJdNClPW0NAQEhdMkMoT08xKShbQ0gzXSlbQ0gzXQ==

>  <s_epik_cmdline>  (290) 
J2VwaWtfcHl0aG9uJywgJy1waHQnLCAnMi4wJywgJy1waCcsICc3LjAnLCAnLXRuJywgJzgnLCAnLW1hJywgJzIwMCcsICctaW1hZScsICc8aW5maWxlLm1hZT4nLCAnLW9tYWUnLCAnPG91dGZpbGUubWFlPic=

>  <r_lp_tautomer_probability>  (290) 
1

>  <r_epik_Ionization_Penalty>  (290) 
9.9823e-07

>  <r_epik_Ionization_Penalty_Charging>  (290) 
0

>  <r_epik_Ionization_Penalty_Neutral>  (290) 
9.9823e-07

>  <r_epik_State_Penalty>  (290) 
-0

>  <r_epik_Charging_Adjusted_Penalty>  (290) 
0

>  <i_epik_Tot_Q>  (290) 
0

>  <i_epik_Tot_abs_Q>  (290) 
0

>  <s_lp_Force_Field>  (290) 
OPLS3e

>  <r_lp_Energy>  (290) 
162.83

>  <b_lp_Chiralities_Consistent>  (290) 
1

>  <s_lp_Variant>  (290) 
95:0-2

>  <s_i_glide_gridfile>  (290) 
pfpi4k_grid

>  <i_i_glide_lignum>  (290) 
11

>  <i_i_glide_rotatable_bonds>  (290) 
1

>  <r_i_docking_score>  (290) 
-2.27924

>  <r_i_glide_ligand_efficiency>  (290) 
-0.0759747

>  <r_i_glide_ligand_efficiency_sa>  (290) 
-0.236071

>  <r_i_glide_ligand_efficiency_ln>  (290) 
-0.517868

>  <r_i_glide_gscore>  (290) 
-2.27924

>  <r_i_glide_lipo>  (290) 
-0.00499646

>  <r_i_glide_hbond>  (290) 
-0.0804906

>  <r_i_glide_metal>  (290) 
-0

>  <r_i_glide_rewards>  (290) 
-0.582426

>  <r_i_glide_evdw>  (290) 
-21.6977

>  <r_i_glide_ecoul>  (290) 
-3.37037

>  <r_i_glide_erotb>  (290) 
0

>  <r_i_glide_esite>  (290) 
-0.020886

>  <r_i_glide_emodel>  (290) 
-28.0824

>  <r_i_glide_energy>  (290) 
-25.0681

>  <r_i_glide_einternal>  (290) 
1.02165

>  <r_i_glide_intrahb_reward>  (290) 
-0

>  <i_i_glide_confnum>  (290) 
1

>  <i_i_glide_posenum>  (290) 
33

>  <r_i_glide_eff_state_penalty>  (290) 
0

>  <ligand_id>  (290) 
95

>  <original_smiles>  (290) 
CC1CC=C2C(C)C3CCC4C(CC5(C)CCC2C2(OOC(C)(C)C2O5)C4C=O)C13

>  <smiles>  (290) 
[H]C(=O)C1([H])C2([H])C([H])([H])C([H])([H])C3([H])C([H])(C([H])([H])[H])C4=C([H])C([H])([H])C([H])(C([H])([H])[H])C3([H])C2([H])C([H])([H])C2(C([H])([H])[H])OC3([H])C(C([H])([H])[H])(C([H])([H])[H])OOC31C4([H])C([H])([H])C2([H])[H]

$$$$
95:1:1
     RDKit          3D

 68 73  0  0  1  0  0  0  0  0999 V2000
    3.2246   -3.5395    6.7129 C   0  0  0  0  0  0  0  0  0  0  0  0
    2.3114   -2.2993    6.7799 C   0  0  2  0  0  0  0  0  0  0  0  0
    0.8827   -2.6649    6.2977 C   0  0  0  0  0  0  0  0  0  0  0  0
    0.5002   -2.2877    4.8697 C   0  0  0  0  0  0  0  0  0  0  0  0
    1.0491   -1.2247    4.2395 C   0  0  0  0  0  0  0  0  0  0  0  0
    2.4750   -1.4315    3.6951 C   0  0  1  0  0  0  0  0  0  0  0  0
    2.7146   -1.1407    2.1975 C   0  0  0  0  0  0  0  0  0  0  0  0
    3.5808   -1.1355    4.7643 C   0  0  1  0  0  0  0  0  0  0  0  0
    4.6174   -0.0046    4.4849 C   0  0  0  0  0  0  0  0  0  0  0  0
    4.3825    1.2688    5.3311 C   0  0  0  0  0  0  0  0  0  0  0  0
    2.8736    1.5260    5.5336 C   0  0  2  0  0  0  0  0  0  0  0  0
    2.3337    0.3933    6.4673 C   0  0  1  0  0  0  0  0  0  0  0  0
    0.9867    0.5665    7.2735 C   0  0  0  0  0  0  0  0  0  0  0  0
   -0.4237    1.0629    6.7625 C   0  0  2  0  0  0  0  0  0  0  0  0
   -1.2008    1.4118    8.0580 C   0  0  0  0  0  0  0  0  0  0  0  0
   -1.3530    0.0698    6.0097 C   0  0  0  0  0  0  0  0  0  0  0  0
   -1.2284   -0.0834    4.4880 C   0  0  0  0  0  0  0  0  0  0  0  0
    0.1916    0.0427    3.9150 C   0  0  1  0  0  0  0  0  0  0  0  0
    0.7253    1.5464    4.0256 C   0  0  1  0  0  0  0  0  0  0  0  0
    0.3360    2.0484    2.7502 O   0  0  0  0  0  0  0  0  0  0  0  0
   -1.0758    2.5385    2.8843 O   0  0  0  0  0  0  0  0  0  0  0  0
   -1.0806    3.3406    4.0403 C   0  0  0  0  0  0  0  0  0  0  0  0
   -0.6798    4.7819    3.6730 C   0  0  0  0  0  0  0  0  0  0  0  0
   -2.4962    3.3336    4.6349 C   0  0  0  0  0  0  0  0  0  0  0  0
   -0.0051    2.6274    4.8901 C   0  0  1  0  0  0  0  0  0  0  0  0
   -0.4583    2.3560    6.2034 O   0  0  0  0  0  0  0  0  0  0  0  0
    2.2509    1.7354    4.1197 C   0  0  1  0  0  0  0  0  0  0  0  0
    2.7262    3.0644    3.4808 C   0  0  0  0  0  0  0  0  0  0  0  0
    2.9694    4.0658    4.1542 O   0  0  0  0  0  0  0  0  0  0  0  0
    2.9959   -1.0159    6.2043 C   0  0  1  0  0  0  0  0  0  0  0  0
    3.3193   -3.9212    5.6955 H   0  0  0  0  0  0  0  0  0  0  0  0
    2.8247   -4.3501    7.3249 H   0  0  0  0  0  0  0  0  0  0  0  0
    4.2258   -3.3240    7.0887 H   0  0  0  0  0  0  0  0  0  0  0  0
    2.2157   -2.1177    7.8520 H   0  0  0  0  0  0  0  0  0  0  0  0
    0.7080   -3.7360    6.4235 H   0  0  0  0  0  0  0  0  0  0  0  0
    0.1751   -2.2261    6.9880 H   0  0  0  0  0  0  0  0  0  0  0  0
    0.8686   -3.2114    4.4513 H   0  0  0  0  0  0  0  0  0  0  0  0
    2.5843   -2.5139    3.6534 H   0  0  0  0  0  0  0  0  0  0  0  0
    2.1521   -1.8462    1.5828 H   0  0  0  0  0  0  0  0  0  0  0  0
    3.7641   -1.2756    1.9359 H   0  0  0  0  0  0  0  0  0  0  0  0
    2.4071   -0.1510    1.8663 H   0  0  0  0  0  0  0  0  0  0  0  0
    4.2167   -2.0255    4.7557 H   0  0  0  0  0  0  0  0  0  0  0  0
    5.6218   -0.3693    4.7051 H   0  0  0  0  0  0  0  0  0  0  0  0
    4.6470    0.2511    3.4266 H   0  0  0  0  0  0  0  0  0  0  0  0
    4.8661    1.1501    6.3008 H   0  0  0  0  0  0  0  0  0  0  0  0
    4.8834    2.1225    4.8735 H   0  0  0  0  0  0  0  0  0  0  0  0
    2.7554    2.4477    6.0990 H   0  0  0  0  0  0  0  0  0  0  0  0
    2.9555    0.6394    7.3301 H   0  0  0  0  0  0  0  0  0  0  0  0
    0.8203   -0.3327    7.8587 H   0  0  0  0  0  0  0  0  0  0  0  0
    1.2480    1.2894    8.0465 H   0  0  0  0  0  0  0  0  0  0  0  0
   -1.3465    0.5431    8.6953 H   0  0  0  0  0  0  0  0  0  0  0  0
   -2.1846    1.8355    7.8357 H   0  0  0  0  0  0  0  0  0  0  0  0
   -0.6816    2.1646    8.6559 H   0  0  0  0  0  0  0  0  0  0  0  0
   -1.3016   -0.9039    6.4781 H   0  0  0  0  0  0  0  0  0  0  0  0
   -2.3902    0.3687    6.1651 H   0  0  0  0  0  0  0  0  0  0  0  0
   -1.6752   -1.0333    4.1972 H   0  0  0  0  0  0  0  0  0  0  0  0
   -1.8778    0.6331    3.9987 H   0  0  0  0  0  0  0  0  0  0  0  0
    0.0547   -0.1250    2.8467 H   0  0  0  0  0  0  0  0  0  0  0  0
   -0.6424    5.4138    4.5632 H   0  0  0  0  0  0  0  0  0  0  0  0
   -1.3888    5.2256    2.9756 H   0  0  0  0  0  0  0  0  0  0  0  0
    0.2996    4.8322    3.2024 H   0  0  0  0  0  0  0  0  0  0  0  0
   -2.5522    3.9449    5.5375 H   0  0  0  0  0  0  0  0  0  0  0  0
   -2.8264    2.3393    4.9053 H   0  0  0  0  0  0  0  0  0  0  0  0
   -3.2025    3.7239    3.9065 H   0  0  0  0  0  0  0  0  0  0  0  0
    0.7074    3.4152    5.1177 H   0  0  0  0  0  0  0  0  0  0  0  0
    2.6639    1.0212    3.4347 H   0  0  0  0  0  0  0  0  0  0  0  0
    2.8777    3.0201    2.4010 H   0  0  0  0  0  0  0  0  0  0  0  0
    3.9122   -0.9950    6.8024 H   0  0  0  0  0  0  0  0  0  0  0  0
  1  2  1  0
  1 31  1  0
  1 32  1  0
  1 33  1  0
  2 30  1  0
  2  3  1  0
  2 34  1  1
  3  4  1  0
  3 35  1  0
  3 36  1  0
  4  5  2  0
  4 37  1  0
  5 18  1  0
  5  6  1  0
  6  7  1  0
  6  8  1  0
  6 38  1  6
  7 39  1  0
  7 40  1  0
  7 41  1  0
  8 30  1  0
  8  9  1  0
  8 42  1  1
  9 10  1  0
  9 43  1  0
  9 44  1  0
 10 11  1  0
 10 45  1  0
 10 46  1  0
 11 27  1  0
 11 12  1  0
 11 47  1  1
 12 13  1  0
 12 30  1  0
 12 48  1  1
 13 14  1  0
 13 49  1  0
 13 50  1  0
 14 26  1  0
 14 15  1  1
 14 16  1  0
 15 51  1  0
 15 52  1  0
 15 53  1  0
 16 17  1  0
 16 54  1  0
 16 55  1  0
 17 18  1  0
 17 56  1  0
 17 57  1  0
 18 19  1  0
 18 58  1  6
 19 25  1  0
 19 20  1  6
 19 27  1  0
 20 21  1  0
 21 22  1  0
 22 23  1  0
 22 24  1  0
 22 25  1  0
 23 59  1  0
 23 60  1  0
 23 61  1  0
 24 62  1  0
 24 63  1  0
 24 64  1  0
 25 26  1  0
 25 65  1  1
 27 28  1  0
 27 66  1  6
 28 29  2  0
 28 67  1  0
 30 68  1  1
M  END
>  <i_m_ct_stereo_status>  (291) 
1

>  <s_m_source_file>  (291) 
/var/tmp/pbs.5076255.sched01/tmpajq2dbrl/12675ddggds.sdf

>  <i_m_source_file_index>  (291) 
11

>  <i_lp_mmshare_version>  (291) 
48012

>  <i_f3d_flags>  (291) 
0

>  <s_epik_input>  (291) 
W0NAXTEyM1tDQEhdNEM1PVtDSF1bQ0gyXVtDQEBIXShbQ0gzXSlbQ0BIXTZbQ0hdKFtDQEBIXTVbQ0gzXSlbQ0gyXVtDSDJdW0NAQEhdKFtDQEBIXTNbQ0hdPU8pW0NASF02W0NIMl1bQ0BdKFtDSDNdKShbQ0gyXVtDSDJdNClPW0NAQEhdMkMoT08xKShbQ0gzXSlbQ0gzXQ==

>  <s_epik_cmdline>  (291) 
J2VwaWtfcHl0aG9uJywgJy1waHQnLCAnMi4wJywgJy1waCcsICc3LjAnLCAnLXRuJywgJzgnLCAnLW1hJywgJzIwMCcsICctaW1hZScsICc8aW5maWxlLm1hZT4nLCAnLW9tYWUnLCAnPG91dGZpbGUubWFlPic=

>  <r_lp_tautomer_probability>  (291) 
1

>  <r_epik_Ionization_Penalty>  (291) 
9.9823e-07

>  <r_epik_Ionization_Penalty_Charging>  (291) 
0

>  <r_epik_Ionization_Penalty_Neutral>  (291) 
9.9823e-07

>  <r_epik_State_Penalty>  (291) 
-0

>  <r_epik_Charging_Adjusted_Penalty>  (291) 
0

>  <i_epik_Tot_Q>  (291) 
0

>  <i_epik_Tot_abs_Q>  (291) 
0

>  <s_lp_Force_Field>  (291) 
OPLS3e

>  <r_lp_Energy>  (291) 
162.83

>  <b_lp_Chiralities_Consistent>  (291) 
1

>  <s_lp_Variant>  (291) 
95:0-2

>  <s_i_glide_gridfile>  (291) 
pfpi4k_grid

>  <i_i_glide_lignum>  (291) 
11

>  <i_i_glide_rotatable_bonds>  (291) 
1

>  <r_i_docking_score>  (291) 
-1.74657

>  <r_i_glide_ligand_efficiency>  (291) 
-0.058219

>  <r_i_glide_ligand_efficiency_sa>  (291) 
-0.1809

>  <r_i_glide_ligand_efficiency_ln>  (291) 
-0.39684

>  <r_i_glide_gscore>  (291) 
-1.74657

>  <r_i_glide_lipo>  (291) 
-0.0650439

>  <r_i_glide_hbond>  (291) 
0

>  <r_i_glide_metal>  (291) 
-0

>  <r_i_glide_rewards>  (291) 
-0.582426

>  <r_i_glide_evdw>  (291) 
-24.0815

>  <r_i_glide_ecoul>  (291) 
0.878303

>  <r_i_glide_erotb>  (291) 
0

>  <r_i_glide_esite>  (291) 
-0.0267725

>  <r_i_glide_emodel>  (291) 
-25.988

>  <r_i_glide_energy>  (291) 
-23.2032

>  <r_i_glide_einternal>  (291) 
0.0437543

>  <r_i_glide_intrahb_reward>  (291) 
-0

>  <i_i_glide_confnum>  (291) 
1

>  <i_i_glide_posenum>  (291) 
4

>  <r_i_glide_eff_state_penalty>  (291) 
0

>  <ligand_id>  (291) 
95

>  <original_smiles>  (291) 
CC1CC=C2C(C)C3CCC4C(CC5(C)CCC2C2(OOC(C)(C)C2O5)C4C=O)C13

>  <smiles>  (291) 
[H]C(=O)C1([H])C2([H])C([H])([H])C([H])([H])C3([H])C([H])(C([H])([H])[H])C4=C([H])C([H])([H])C([H])(C([H])([H])[H])C3([H])C2([H])C([H])([H])C2(C([H])([H])[H])OC3([H])C(C([H])([H])[H])(C([H])([H])[H])OOC31C4([H])C([H])([H])C2([H])[H]

$$$$
95:1:2
     RDKit          3D

 68 73  0  0  1  0  0  0  0  0999 V2000
   -2.0845    2.4152    7.7301 C   0  0  0  0  0  0  0  0  0  0  0  0
   -0.9130    2.4062    6.7252 C   0  0  2  0  0  0  0  0  0  0  0  0
   -1.4589    2.2870    5.2779 C   0  0  0  0  0  0  0  0  0  0  0  0
   -1.4069    0.9173    4.6107 C   0  0  0  0  0  0  0  0  0  0  0  0
   -0.4729   -0.0053    4.9337 C   0  0  0  0  0  0  0  0  0  0  0  0
   -0.7022   -0.7566    6.2547 C   0  0  1  0  0  0  0  0  0  0  0  0
   -0.7324   -2.3029    6.2027 C   0  0  0  0  0  0  0  0  0  0  0  0
   -0.1275    0.0046    7.4971 C   0  0  1  0  0  0  0  0  0  0  0  0
    0.9704   -0.6924    8.3565 C   0  0  0  0  0  0  0  0  0  0  0  0
    2.3843   -0.0975    8.1555 C   0  0  0  0  0  0  0  0  0  0  0  0
    2.5849    0.3301    6.6805 C   0  0  2  0  0  0  0  0  0  0  0  0
    1.6525    1.5630    6.4305 C   0  0  1  0  0  0  0  0  0  0  0  0
    1.9022    2.5603    5.2337 C   0  0  0  0  0  0  0  0  0  0  0  0
    2.1856    2.2401    3.7159 C   0  0  2  0  0  0  0  0  0  0  0  0
    2.7280    3.5754    3.1477 C   0  0  0  0  0  0  0  0  0  0  0  0
    1.0058    1.8917    2.7666 C   0  0  0  0  0  0  0  0  0  0  0  0
    0.5415    0.4345    2.6332 C   0  0  0  0  0  0  0  0  0  0  0  0
    0.6296   -0.4147    3.9106 C   0  0  1  0  0  0  0  0  0  0  0  0
    2.1466   -0.7211    4.3066 C   0  0  1  0  0  0  0  0  0  0  0  0
    2.3395   -1.9726    3.6519 O   0  0  0  0  0  0  0  0  0  0  0  0
    2.7737   -1.6742    2.2479 O   0  0  0  0  0  0  0  0  0  0  0  0
    3.7922   -0.7110    2.3652 C   0  0  0  0  0  0  0  0  0  0  0  0
    5.1485   -1.4238    2.5457 C   0  0  0  0  0  0  0  0  0  0  0  0
    3.8173    0.1248    1.0737 C   0  0  0  0  0  0  0  0  0  0  0  0
    3.3418    0.0371    3.6430 C   0  0  1  0  0  0  0  0  0  0  0  0
    3.3328    1.4433    3.4853 O   0  0  0  0  0  0  0  0  0  0  0  0
    2.4332   -0.9513    5.8059 C   0  0  1  0  0  0  0  0  0  0  0  0
    3.6171   -1.9103    6.0686 C   0  0  0  0  0  0  0  0  0  0  0  0
    3.5036   -3.1215    5.9226 O   0  0  0  0  0  0  0  0  0  0  0  0
    0.2608    1.4732    7.1684 C   0  0  1  0  0  0  0  0  0  0  0  0
   -2.6709    1.4988    7.6819 H   0  0  0  0  0  0  0  0  0  0  0  0
   -2.7670    3.2416    7.5259 H   0  0  0  0  0  0  0  0  0  0  0  0
   -1.7362    2.5417    8.7562 H   0  0  0  0  0  0  0  0  0  0  0  0
   -0.5148    3.4202    6.7997 H   0  0  0  0  0  0  0  0  0  0  0  0
   -2.4866    2.6530    5.2305 H   0  0  0  0  0  0  0  0  0  0  0  0
   -0.9249    2.9975    4.6596 H   0  0  0  0  0  0  0  0  0  0  0  0
   -2.3764    0.6240    4.9749 H   0  0  0  0  0  0  0  0  0  0  0  0
   -1.7572   -0.5951    6.4544 H   0  0  0  0  0  0  0  0  0  0  0  0
   -1.5927   -2.6399    5.6259 H   0  0  0  0  0  0  0  0  0  0  0  0
   -0.8499   -2.7297    7.1993 H   0  0  0  0  0  0  0  0  0  0  0  0
    0.1363   -2.7677    5.7429 H   0  0  0  0  0  0  0  0  0  0  0  0
   -0.9513    0.0862    8.2081 H   0  0  0  0  0  0  0  0  0  0  0  0
    0.7215   -0.5958    9.4158 H   0  0  0  0  0  0  0  0  0  0  0  0
    0.9925   -1.7678    8.1823 H   0  0  0  0  0  0  0  0  0  0  0  0
    2.5074    0.7700    8.8055 H   0  0  0  0  0  0  0  0  0  0  0  0
    3.1410   -0.8115    8.4902 H   0  0  0  0  0  0  0  0  0  0  0  0
    3.6056    0.6950    6.5681 H   0  0  0  0  0  0  0  0  0  0  0  0
    2.1175    2.2253    7.1632 H   0  0  0  0  0  0  0  0  0  0  0  0
    1.1411    3.3337    5.2599 H   0  0  0  0  0  0  0  0  0  0  0  0
    2.7911    3.1096    5.5482 H   0  0  0  0  0  0  0  0  0  0  0  0
    1.9944    4.3836    3.1888 H   0  0  0  0  0  0  0  0  0  0  0  0
    3.0234    3.4678    2.1020 H   0  0  0  0  0  0  0  0  0  0  0  0
    3.6252    3.9053    3.6769 H   0  0  0  0  0  0  0  0  0  0  0  0
    0.1635    2.5403    2.9781 H   0  0  0  0  0  0  0  0  0  0  0  0
    1.2687    2.1842    1.7476 H   0  0  0  0  0  0  0  0  0  0  0  0
   -0.4758    0.4379    2.2418 H   0  0  0  0  0  0  0  0  0  0  0  0
    1.0893   -0.0545    1.8369 H   0  0  0  0  0  0  0  0  0  0  0  0
    0.2220   -1.3783    3.6094 H   0  0  0  0  0  0  0  0  0  0  0  0
    5.9547   -0.6963    2.6689 H   0  0  0  0  0  0  0  0  0  0  0  0
    5.3950   -2.0334    1.6762 H   0  0  0  0  0  0  0  0  0  0  0  0
    5.1582   -2.0746    3.4199 H   0  0  0  0  0  0  0  0  0  0  0  0
    4.6030    0.8771    1.0961 H   0  0  0  0  0  0  0  0  0  0  0  0
    2.8829    0.6478    0.8926 H   0  0  0  0  0  0  0  0  0  0  0  0
    4.0083   -0.5037    0.2056 H   0  0  0  0  0  0  0  0  0  0  0  0
    4.1966   -0.0553    4.3110 H   0  0  0  0  0  0  0  0  0  0  0  0
    1.6093   -1.5365    6.1654 H   0  0  0  0  0  0  0  0  0  0  0  0
    4.5310   -1.4339    6.4259 H   0  0  0  0  0  0  0  0  0  0  0  0
    0.4653    1.8674    8.1680 H   0  0  0  0  0  0  0  0  0  0  0  0
  1  2  1  0
  1 31  1  0
  1 32  1  0
  1 33  1  0
  2 30  1  0
  2  3  1  0
  2 34  1  6
  3  4  1  0
  3 35  1  0
  3 36  1  0
  4  5  2  0
  4 37  1  0
  5 18  1  0
  5  6  1  0
  6  7  1  0
  6  8  1  0
  6 38  1  1
  7 39  1  0
  7 40  1  0
  7 41  1  0
  8 30  1  0
  8  9  1  0
  8 42  1  1
  9 10  1  0
  9 43  1  0
  9 44  1  0
 10 11  1  0
 10 45  1  0
 10 46  1  0
 11 27  1  0
 11 12  1  0
 11 47  1  1
 12 13  1  0
 12 30  1  0
 12 48  1  1
 13 14  1  0
 13 49  1  0
 13 50  1  0
 14 26  1  0
 14 15  1  6
 14 16  1  0
 15 51  1  0
 15 52  1  0
 15 53  1  0
 16 17  1  0
 16 54  1  0
 16 55  1  0
 17 18  1  0
 17 56  1  0
 17 57  1  0
 18 19  1  0
 18 58  1  6
 19 25  1  0
 19 20  1  6
 19 27  1  0
 20 21  1  0
 21 22  1  0
 22 23  1  0
 22 24  1  0
 22 25  1  0
 23 59  1  0
 23 60  1  0
 23 61  1  0
 24 62  1  0
 24 63  1  0
 24 64  1  0
 25 26  1  0
 25 65  1  1
 27 28  1  0
 27 66  1  1
 28 29  2  0
 28 67  1  0
 30 68  1  1
M  END
>  <i_m_ct_stereo_status>  (292) 
1

>  <s_m_source_file>  (292) 
/var/tmp/pbs.5076255.sched01/tmpajq2dbrl/12675ddggds.sdf

>  <i_m_source_file_index>  (292) 
11

>  <i_lp_mmshare_version>  (292) 
48012

>  <i_f3d_flags>  (292) 
0

>  <s_epik_input>  (292) 
W0NAXTEyM1tDQEhdNEM1PVtDSF1bQ0gyXVtDQEBIXShbQ0gzXSlbQ0BIXTZbQ0hdKFtDQEBIXTVbQ0gzXSlbQ0gyXVtDSDJdW0NAQEhdKFtDQEBIXTNbQ0hdPU8pW0NASF02W0NIMl1bQ0BdKFtDSDNdKShbQ0gyXVtDSDJdNClPW0NAQEhdMkMoT08xKShbQ0gzXSlbQ0gzXQ==

>  <s_epik_cmdline>  (292) 
J2VwaWtfcHl0aG9uJywgJy1waHQnLCAnMi4wJywgJy1waCcsICc3LjAnLCAnLXRuJywgJzgnLCAnLW1hJywgJzIwMCcsICctaW1hZScsICc8aW5maWxlLm1hZT4nLCAnLW9tYWUnLCAnPG91dGZpbGUubWFlPic=

>  <r_lp_tautomer_probability>  (292) 
1

>  <r_epik_Ionization_Penalty>  (292) 
9.9823e-07

>  <r_epik_Ionization_Penalty_Charging>  (292) 
0

>  <r_epik_Ionization_Penalty_Neutral>  (292) 
9.9823e-07

>  <r_epik_State_Penalty>  (292) 
-0

>  <r_epik_Charging_Adjusted_Penalty>  (292) 
0

>  <i_epik_Tot_Q>  (292) 
0

>  <i_epik_Tot_abs_Q>  (292) 
0

>  <s_lp_Force_Field>  (292) 
OPLS3e

>  <r_lp_Energy>  (292) 
162.83

>  <b_lp_Chiralities_Consistent>  (292) 
1

>  <s_lp_Variant>  (292) 
95:0-2

>  <s_i_glide_gridfile>  (292) 
pfpi4k_grid

>  <i_i_glide_lignum>  (292) 
11

>  <i_i_glide_rotatable_bonds>  (292) 
1

>  <r_i_docking_score>  (292) 
-1.59966

>  <r_i_glide_ligand_efficiency>  (292) 
-0.0533219

>  <r_i_glide_ligand_efficiency_sa>  (292) 
-0.165684

>  <r_i_glide_ligand_efficiency_ln>  (292) 
-0.363459

>  <r_i_glide_gscore>  (292) 
-1.59966

>  <r_i_glide_lipo>  (292) 
-0.145647

>  <r_i_glide_hbond>  (292) 
0

>  <r_i_glide_metal>  (292) 
-0

>  <r_i_glide_rewards>  (292) 
-0.582426

>  <r_i_glide_evdw>  (292) 
-23.5446

>  <r_i_glide_ecoul>  (292) 
2.03765

>  <r_i_glide_erotb>  (292) 
0

>  <r_i_glide_esite>  (292) 
0

>  <r_i_glide_emodel>  (292) 
-23.8394

>  <r_i_glide_energy>  (292) 
-21.507

>  <r_i_glide_einternal>  (292) 
0.2853

>  <r_i_glide_intrahb_reward>  (292) 
-0

>  <i_i_glide_confnum>  (292) 
1

>  <i_i_glide_posenum>  (292) 
32

>  <r_i_glide_eff_state_penalty>  (292) 
0

>  <ligand_id>  (292) 
95

>  <original_smiles>  (292) 
CC1CC=C2C(C)C3CCC4C(CC5(C)CCC2C2(OOC(C)(C)C2O5)C4C=O)C13

>  <smiles>  (292) 
[H]C(=O)C1([H])C2([H])C([H])([H])C([H])([H])C3([H])C([H])(C([H])([H])[H])C4=C([H])C([H])([H])C([H])(C([H])([H])[H])C3([H])C2([H])C([H])([H])C2(C([H])([H])[H])OC3([H])C(C([H])([H])[H])(C([H])([H])[H])OOC31C4([H])C([H])([H])C2([H])[H]

$$$$
96:0:0
     RDKit          3D

 46 49  0  0  1  0  0  0  0  0999 V2000
    2.7062   -3.1968   -3.7992 C   0  0  0  0  0  0  0  0  0  0  0  0
    3.5874   -2.7900   -2.6125 C   0  0  2  0  0  0  0  0  0  0  0  0
    5.0817   -2.8973   -3.0113 C   0  0  0  0  0  0  0  0  0  0  0  0
    6.0442   -3.0675   -1.8114 C   0  0  0  0  0  0  0  0  0  0  0  0
    5.4575   -2.4166   -0.5509 C   0  0  2  0  0  0  0  0  0  0  0  0
    6.3788   -2.3598    0.6596 C   0  0  1  0  0  0  0  0  0  0  0  0
    7.2528   -1.1414    0.5839 C   0  0  0  0  0  0  0  0  0  0  0  0
    5.4991   -2.3514    1.9408 C   0  0  1  0  0  0  0  0  0  0  0  0
    4.2729   -1.4167    1.8100 C   0  0  0  0  0  0  0  0  0  0  0  0
    3.3978   -1.8514    0.6225 C   0  0  0  0  0  0  0  0  0  0  0  0
    4.1094   -3.0230   -0.1145 C   0  0  1  0  0  0  0  0  0  0  0  0
    3.3871   -3.6188   -1.3236 C   0  0  1  0  0  0  0  0  0  0  0  0
    1.9873   -4.0921   -0.9541 C   0  0  0  0  0  0  0  0  0  0  0  0
    2.0979   -5.1888    0.1399 C   0  0  0  0  0  0  0  0  0  0  0  0
    2.9762   -4.8155    1.3504 C   0  0  1  0  0  0  0  0  0  0  0  0
    3.2126   -6.0620    2.2121 C   0  0  0  0  0  0  0  0  0  0  0  0
    4.3122   -4.1728    0.9227 C   0  0  2  0  0  0  0  0  0  0  0  0
    4.9741   -3.6706    2.0877 O   0  0  0  0  0  0  0  0  0  0  0  0
    2.8425   -4.2506   -4.0664 H   0  0  0  0  0  0  0  0  0  0  0  0
    2.9515   -2.5996   -4.6808 H   0  0  0  0  0  0  0  0  0  0  0  0
    1.6443   -3.0469   -3.5970 H   0  0  0  0  0  0  0  0  0  0  0  0
    3.3404   -1.7430   -2.3881 H   0  0  0  0  0  0  0  0  0  0  0  0
    5.2344   -3.7135   -3.7362 H   0  0  0  0  0  0  0  0  0  0  0  0
    5.3226   -1.9871   -3.5237 H   0  0  0  0  0  0  0  0  0  0  0  0
    6.1846   -4.1231   -1.6060 H   0  0  0  0  0  0  0  0  0  0  0  0
    7.0330   -2.6735   -2.0684 H   0  0  0  0  0  0  0  0  0  0  0  0
    5.2636   -1.3930   -0.8590 H   0  0  0  0  0  0  0  0  0  0  0  0
    7.0261   -3.2374    0.7063 H   0  0  0  0  0  0  0  0  0  0  0  0
    6.6471   -0.2439    0.4923 H   0  0  0  0  0  0  0  0  0  0  0  0
    7.9568   -1.1884   -0.2395 H   0  0  0  0  0  0  0  0  0  0  0  0
    7.8383   -1.0477    1.4803 H   0  0  0  0  0  0  0  0  0  0  0  0
    6.0698   -2.1051    2.8170 H   0  0  0  0  0  0  0  0  0  0  0  0
    3.6905   -1.4474    2.7280 H   0  0  0  0  0  0  0  0  0  0  0  0
    4.5917   -0.3871    1.6862 H   0  0  0  0  0  0  0  0  0  0  0  0
    2.4141   -2.1346    0.9831 H   0  0  0  0  0  0  0  0  0  0  0  0
    3.2212   -1.0139   -0.0563 H   0  0  0  0  0  0  0  0  0  0  0  0
    3.9229   -4.5566   -1.5236 H   0  0  0  0  0  0  0  0  0  0  0  0
    1.4156   -3.2167   -0.6530 H   0  0  0  0  0  0  0  0  0  0  0  0
    1.4365   -4.5052   -1.8064 H   0  0  0  0  0  0  0  0  0  0  0  0
    1.1083   -5.4603    0.4953 H   0  0  0  0  0  0  0  0  0  0  0  0
    2.4972   -6.1156   -0.2889 H   0  0  0  0  0  0  0  0  0  0  0  0
    2.4205   -4.1069    1.9728 H   0  0  0  0  0  0  0  0  0  0  0  0
    3.7515   -6.8340    1.6540 H   0  0  0  0  0  0  0  0  0  0  0  0
    2.2722   -6.5041    2.5476 H   0  0  0  0  0  0  0  0  0  0  0  0
    3.8028   -5.8370    3.1036 H   0  0  0  0  0  0  0  0  0  0  0  0
    4.9500   -4.9493    0.4814 H   0  0  0  0  0  0  0  0  0  0  0  0
  1  2  1  0
  1 19  1  0
  1 20  1  0
  1 21  1  0
  2 12  1  0
  2  3  1  0
  2 22  1  1
  3  4  1  0
  3 23  1  0
  3 24  1  0
  4  5  1  0
  4 25  1  0
  4 26  1  0
  5 11  1  0
  5  6  1  0
  5 27  1  6
  6  7  1  0
  6  8  1  0
  6 28  1  1
  7 29  1  0
  7 30  1  0
  7 31  1  0
  8 18  1  0
  8  9  1  0
  8 32  1  1
  9 10  1  0
  9 33  1  0
  9 34  1  0
 11 10  1  1
 10 35  1  0
 10 36  1  0
 11 17  1  0
 11 12  1  0
 12 13  1  0
 12 37  1  6
 13 14  1  0
 13 38  1  0
 13 39  1  0
 14 15  1  0
 14 40  1  0
 14 41  1  0
 15 16  1  0
 15 17  1  0
 15 42  1  1
 16 43  1  0
 16 44  1  0
 16 45  1  0
 17 18  1  0
 17 46  1  6
M  END
>  <i_m_ct_stereo_status>  (293) 
1

>  <s_m_source_file>  (293) 
/var/tmp/pbs.5076255.sched01/tmpajq2dbrl/12675ddggds.sdf

>  <i_m_source_file_index>  (293) 
12

>  <i_lp_mmshare_version>  (293) 
48012

>  <i_f3d_flags>  (293) 
0

>  <s_epik_input>  (293) 
W0NAXTEyM1tDQEBIXTRbQ0gyXVtDSDJdW0NAQEhdKFtDSDNdKVtDQEBIXTJbQ0gyXVtDSDJdW0NAQEhdKFtDSDNdKVtDQEBIXTNPW0NAQEhdKFtDQEBIXTRbQ0gzXSlbQ0gyXVtDSDJdMQ==

>  <s_epik_cmdline>  (293) 
J2VwaWtfcHl0aG9uJywgJy1waHQnLCAnMi4wJywgJy1waCcsICc3LjAnLCAnLXRuJywgJzgnLCAnLW1hJywgJzIwMCcsICctaW1hZScsICc8aW5maWxlLm1hZT4nLCAnLW9tYWUnLCAnPG91dGZpbGUubWFlPic=

>  <r_lp_tautomer_probability>  (293) 
1

>  <r_epik_Ionization_Penalty>  (293) 
1.96095e-10

>  <r_epik_Ionization_Penalty_Charging>  (293) 
0

>  <r_epik_Ionization_Penalty_Neutral>  (293) 
1.96095e-10

>  <r_epik_State_Penalty>  (293) 
-0

>  <r_epik_Charging_Adjusted_Penalty>  (293) 
0

>  <i_epik_Tot_Q>  (293) 
0

>  <i_epik_Tot_abs_Q>  (293) 
0

>  <s_lp_Force_Field>  (293) 
OPLS3e

>  <r_lp_Energy>  (293) 
56.7983

>  <b_lp_Chiralities_Consistent>  (293) 
1

>  <s_lp_Variant>  (293) 
96:0-1

>  <s_i_glide_gridfile>  (293) 
pfpi4k_grid

>  <i_i_glide_lignum>  (293) 
12

>  <i_i_glide_rotatable_bonds>  (293) 
0

>  <r_i_docking_score>  (293) 
-3.05335

>  <r_i_glide_ligand_efficiency>  (293) 
-0.169631

>  <r_i_glide_ligand_efficiency_sa>  (293) 
-0.444559

>  <r_i_glide_ligand_efficiency_ln>  (293) 
-0.784849

>  <r_i_glide_gscore>  (293) 
-3.05335

>  <r_i_glide_lipo>  (293) 
-0.638996

>  <r_i_glide_hbond>  (293) 
0

>  <r_i_glide_metal>  (293) 
-0

>  <r_i_glide_rewards>  (293) 
-1.71543

>  <r_i_glide_evdw>  (293) 
-15.3573

>  <r_i_glide_ecoul>  (293) 
0.459568

>  <r_i_glide_erotb>  (293) 
0

>  <r_i_glide_esite>  (293) 
0

>  <r_i_glide_emodel>  (293) 
-16.4167

>  <r_i_glide_energy>  (293) 
-14.8977

>  <r_i_glide_einternal>  (293) 
0

>  <r_i_glide_intrahb_reward>  (293) 
-0

>  <i_i_glide_confnum>  (293) 
2

>  <i_i_glide_posenum>  (293) 
15

>  <r_i_glide_eff_state_penalty>  (293) 
0

>  <ligand_id>  (293) 
96

>  <original_smiles>  (293) 
CC1CCC2C(C)C3CCC24C1CCC(C)C4O3

>  <smiles>  (293) 
[H]C([H])([H])C1([H])C([H])([H])C([H])([H])C2([H])C([H])(C([H])([H])[H])C([H])([H])C([H])([H])C3([H])C([H])(C([H])([H])[H])C4([H])OC1([H])C23C([H])([H])C4([H])[H]

$$$$
96:0:1
     RDKit          3D

 46 49  0  0  1  0  0  0  0  0999 V2000
    3.0964   -2.9728   -3.4212 C   0  0  0  0  0  0  0  0  0  0  0  0
    3.6170   -2.5848   -2.0251 C   0  0  2  0  0  0  0  0  0  0  0  0
    5.1632   -2.4390   -2.0473 C   0  0  0  0  0  0  0  0  0  0  0  0
    5.8446   -2.6278   -0.6601 C   0  0  0  0  0  0  0  0  0  0  0  0
    4.8980   -2.1860    0.4646 C   0  0  2  0  0  0  0  0  0  0  0  0
    5.4760   -2.1132    1.8902 C   0  0  1  0  0  0  0  0  0  0  0  0
    6.1591   -0.7766    2.1421 C   0  0  0  0  0  0  0  0  0  0  0  0
    4.3425   -2.3747    2.9065 C   0  0  1  0  0  0  0  0  0  0  0  0
    3.0682   -1.5883    2.5484 C   0  0  0  0  0  0  0  0  0  0  0  0
    2.5939   -2.0106    1.1493 C   0  0  0  0  0  0  0  0  0  0  0  0
    3.5967   -3.0166    0.5085 C   0  0  1  0  0  0  0  0  0  0  0  0
    3.2510   -3.5809   -0.9022 C   0  0  1  0  0  0  0  0  0  0  0  0
    1.8680   -4.2466   -0.9001 C   0  0  0  0  0  0  0  0  0  0  0  0
    1.8639   -5.4256    0.1113 C   0  0  0  0  0  0  0  0  0  0  0  0
    2.4159   -5.0664    1.5227 C   0  0  1  0  0  0  0  0  0  0  0  0
    2.6264   -6.3488    2.3383 C   0  0  0  0  0  0  0  0  0  0  0  0
    3.7123   -4.2207    1.4821 C   0  0  2  0  0  0  0  0  0  0  0  0
    3.9980   -3.7611    2.8107 O   0  0  0  0  0  0  0  0  0  0  0  0
    3.4621   -3.9571   -3.7338 H   0  0  0  0  0  0  0  0  0  0  0  0
    3.4237   -2.2489   -4.1717 H   0  0  0  0  0  0  0  0  0  0  0  0
    2.0039   -2.9944   -3.4582 H   0  0  0  0  0  0  0  0  0  0  0  0
    3.1711   -1.6176   -1.7835 H   0  0  0  0  0  0  0  0  0  0  0  0
    5.6060   -3.1425   -2.7695 H   0  0  0  0  0  0  0  0  0  0  0  0
    5.3878   -1.4459   -2.4152 H   0  0  0  0  0  0  0  0  0  0  0  0
    6.0948   -3.6730   -0.5168 H   0  0  0  0  0  0  0  0  0  0  0  0
    6.7874   -2.0722   -0.6309 H   0  0  0  0  0  0  0  0  0  0  0  0
    4.6352   -1.1653    0.1853 H   0  0  0  0  0  0  0  0  0  0  0  0
    6.2201   -2.8934    2.0281 H   0  0  0  0  0  0  0  0  0  0  0  0
    5.4943    0.0734    1.9926 H   0  0  0  0  0  0  0  0  0  0  0  0
    6.9889   -0.6958    1.4409 H   0  0  0  0  0  0  0  0  0  0  0  0
    6.5759   -0.6774    3.1438 H   0  0  0  0  0  0  0  0  0  0  0  0
    4.6576   -2.1439    3.9163 H   0  0  0  0  0  0  0  0  0  0  0  0
    2.2870   -1.7790    3.2822 H   0  0  0  0  0  0  0  0  0  0  0  0
    3.2518   -0.5151    2.5686 H   0  0  0  0  0  0  0  0  0  0  0  0
    1.5979   -2.4196    1.2386 H   0  0  0  0  0  0  0  0  0  0  0  0
    2.5059   -1.1258    0.5244 H   0  0  0  0  0  0  0  0  0  0  0  0
    3.9247   -4.4274   -1.0891 H   0  0  0  0  0  0  0  0  0  0  0  0
    1.1382   -3.4701   -0.7284 H   0  0  0  0  0  0  0  0  0  0  0  0
    1.5770   -4.6469   -1.8801 H   0  0  0  0  0  0  0  0  0  0  0  0
    0.8776   -5.8599    0.1914 H   0  0  0  0  0  0  0  0  0  0  0  0
    2.4957   -6.2284   -0.2928 H   0  0  0  0  0  0  0  0  0  0  0  0
    1.6469   -4.4953    2.0540 H   0  0  0  0  0  0  0  0  0  0  0  0
    3.3882   -6.9838    1.8778 H   0  0  0  0  0  0  0  0  0  0  0  0
    1.7085   -6.9357    2.4131 H   0  0  0  0  0  0  0  0  0  0  0  0
    2.9583   -6.1269    3.3557 H   0  0  0  0  0  0  0  0  0  0  0  0
    4.5391   -4.8627    1.1614 H   0  0  0  0  0  0  0  0  0  0  0  0
  1  2  1  0
  1 19  1  0
  1 20  1  0
  1 21  1  0
  2 12  1  0
  2  3  1  0
  2 22  1  1
  3  4  1  0
  3 23  1  0
  3 24  1  0
  4  5  1  0
  4 25  1  0
  4 26  1  0
  5 11  1  0
  5  6  1  0
  5 27  1  6
  6  7  1  0
  6  8  1  0
  6 28  1  6
  7 29  1  0
  7 30  1  0
  7 31  1  0
  8 18  1  0
  8  9  1  0
  8 32  1  1
  9 10  1  0
  9 33  1  0
  9 34  1  0
 11 10  1  1
 10 35  1  0
 10 36  1  0
 11 17  1  0
 11 12  1  0
 12 13  1  0
 12 37  1  6
 13 14  1  0
 13 38  1  0
 13 39  1  0
 14 15  1  0
 14 40  1  0
 14 41  1  0
 15 16  1  0
 15 17  1  0
 15 42  1  1
 16 43  1  0
 16 44  1  0
 16 45  1  0
 17 18  1  0
 17 46  1  6
M  END
>  <i_m_ct_stereo_status>  (294) 
1

>  <s_m_source_file>  (294) 
/var/tmp/pbs.5076255.sched01/tmpajq2dbrl/12675ddggds.sdf

>  <i_m_source_file_index>  (294) 
12

>  <i_lp_mmshare_version>  (294) 
48012

>  <i_f3d_flags>  (294) 
0

>  <s_epik_input>  (294) 
W0NAXTEyM1tDQEBIXTRbQ0gyXVtDSDJdW0NAQEhdKFtDSDNdKVtDQEBIXTJbQ0gyXVtDSDJdW0NAQEhdKFtDSDNdKVtDQEBIXTNPW0NAQEhdKFtDQEBIXTRbQ0gzXSlbQ0gyXVtDSDJdMQ==

>  <s_epik_cmdline>  (294) 
J2VwaWtfcHl0aG9uJywgJy1waHQnLCAnMi4wJywgJy1waCcsICc3LjAnLCAnLXRuJywgJzgnLCAnLW1hJywgJzIwMCcsICctaW1hZScsICc8aW5maWxlLm1hZT4nLCAnLW9tYWUnLCAnPG91dGZpbGUubWFlPic=

>  <r_lp_tautomer_probability>  (294) 
1

>  <r_epik_Ionization_Penalty>  (294) 
1.96095e-10

>  <r_epik_Ionization_Penalty_Charging>  (294) 
0

>  <r_epik_Ionization_Penalty_Neutral>  (294) 
1.96095e-10

>  <r_epik_State_Penalty>  (294) 
-0

>  <r_epik_Charging_Adjusted_Penalty>  (294) 
0

>  <i_epik_Tot_Q>  (294) 
0

>  <i_epik_Tot_abs_Q>  (294) 
0

>  <s_lp_Force_Field>  (294) 
OPLS3e

>  <r_lp_Energy>  (294) 
56.7983

>  <b_lp_Chiralities_Consistent>  (294) 
1

>  <s_lp_Variant>  (294) 
96:0-1

>  <s_i_glide_gridfile>  (294) 
pfpi4k_grid

>  <i_i_glide_lignum>  (294) 
12

>  <i_i_glide_rotatable_bonds>  (294) 
0

>  <r_i_docking_score>  (294) 
-2.75619

>  <r_i_glide_ligand_efficiency>  (294) 
-0.153122

>  <r_i_glide_ligand_efficiency_sa>  (294) 
-0.401293

>  <r_i_glide_ligand_efficiency_ln>  (294) 
-0.708465

>  <r_i_glide_gscore>  (294) 
-2.75619

>  <r_i_glide_lipo>  (294) 
-0.397472

>  <r_i_glide_hbond>  (294) 
0

>  <r_i_glide_metal>  (294) 
-0

>  <r_i_glide_rewards>  (294) 
-1.71543

>  <r_i_glide_evdw>  (294) 
-13.2872

>  <r_i_glide_ecoul>  (294) 
0.140472

>  <r_i_glide_erotb>  (294) 
0

>  <r_i_glide_esite>  (294) 
0

>  <r_i_glide_emodel>  (294) 
-14.5351

>  <r_i_glide_energy>  (294) 
-13.1468

>  <r_i_glide_einternal>  (294) 
0

>  <r_i_glide_intrahb_reward>  (294) 
-0

>  <i_i_glide_confnum>  (294) 
1

>  <i_i_glide_posenum>  (294) 
22

>  <r_i_glide_eff_state_penalty>  (294) 
0

>  <ligand_id>  (294) 
96

>  <original_smiles>  (294) 
CC1CCC2C(C)C3CCC24C1CCC(C)C4O3

>  <smiles>  (294) 
[H]C([H])([H])C1([H])C([H])([H])C([H])([H])C2([H])C([H])(C([H])([H])[H])C([H])([H])C([H])([H])C3([H])C([H])(C([H])([H])[H])C4([H])OC1([H])C23C([H])([H])C4([H])[H]

$$$$
97:0:0
     RDKit          3D

 76 79  0  0  1  0  0  0  0  0999 V2000
    2.1382   -9.9443    6.2285 C   0  0  0  0  0  0  0  0  0  0  0  0
    0.9750   -9.2871    6.4261 C   0  0  0  0  0  0  0  0  0  0  0  0
    0.2001   -9.4803    7.7028 C   0  0  0  0  0  0  0  0  0  0  0  0
    0.0880   -8.2124    8.5648 C   0  0  0  0  0  0  0  0  0  0  0  0
    0.3158   -8.3595    5.4148 C   0  0  0  0  0  0  0  0  0  0  0  0
    1.1352   -8.1880    4.1127 C   0  0  0  0  0  0  0  0  0  0  0  0
    0.6704   -7.0931    3.1299 C   0  0  2  0  0  0  0  0  0  0  0  0
   -0.6240   -7.5212    2.4110 C   0  0  0  0  0  0  0  0  0  0  0  0
    1.8669   -6.6939    2.2153 C   0  0  2  0  0  0  0  0  0  0  0  0
    2.8454   -7.8606    1.8978 C   0  0  0  0  0  0  0  0  0  0  0  0
    4.2647   -7.2284    1.7535 C   0  0  0  0  0  0  0  0  0  0  0  0
    3.9986   -5.7235    1.7659 C   0  0  2  0  0  0  0  0  0  0  0  0
    5.1215   -4.7546    2.2104 C   0  0  1  0  0  0  0  0  0  0  0  0
    6.5047   -4.9898    1.5774 C   0  0  0  0  0  0  0  0  0  0  0  0
    6.7209   -4.2113    0.3013 C   0  0  0  0  0  0  0  0  0  0  0  0
    5.9936   -3.1456   -0.0804 C   0  0  0  0  0  0  0  0  0  0  0  0
    6.2612   -2.5017   -1.4373 C   0  0  0  0  0  0  0  0  0  0  0  0
    5.0111   -2.4830   -2.3146 C   0  0  1  0  0  0  0  0  0  0  0  0
    4.8378   -3.8333   -2.7186 O   0  0  0  0  0  0  0  0  0  0  0  0
    4.3110   -4.0009   -4.0222 C   0  0  0  0  0  0  0  0  0  0  0  0
    3.8015   -1.9283   -1.5302 C   0  0  1  0  0  0  0  0  0  0  0  0
    2.6320   -1.9169   -2.3450 O   0  0  0  0  0  0  0  0  0  0  0  0
    3.5682   -2.6183   -0.1668 C   0  0  0  0  0  0  0  0  0  0  0  0
    4.8313   -2.5583    0.7293 C   0  0  2  0  0  0  0  0  0  0  0  0
    5.1501   -1.0673    1.0716 C   0  0  0  0  0  0  0  0  0  0  0  0
    4.6457   -3.2666    2.1171 C   0  0  1  0  0  0  0  0  0  0  0  0
    3.2544   -3.0258    2.7843 C   0  0  0  0  0  0  0  0  0  0  0  0
    2.2002   -4.1221    2.4588 C   0  0  0  0  0  0  0  0  0  0  0  0
    2.7622   -5.5470    2.6867 C   0  0  1  0  0  0  0  0  0  0  0  0
    3.1186   -5.6988    4.2196 C   0  0  0  0  0  0  0  0  0  0  0  0
    2.5418  -10.5956    6.9888 H   0  0  0  0  0  0  0  0  0  0  0  0
    2.7346   -9.8597    5.3322 H   0  0  0  0  0  0  0  0  0  0  0  0
   -0.7885   -9.8530    7.4369 H   0  0  0  0  0  0  0  0  0  0  0  0
    0.6834  -10.2476    8.3002 H   0  0  0  0  0  0  0  0  0  0  0  0
   -0.4092   -8.4547    9.5093 H   0  0  0  0  0  0  0  0  0  0  0  0
   -0.4892   -7.4265    8.0782 H   0  0  0  0  0  0  0  0  0  0  0  0
    1.0725   -7.8070    8.8039 H   0  0  0  0  0  0  0  0  0  0  0  0
   -0.7146   -8.7136    5.2413 H   0  0  0  0  0  0  0  0  0  0  0  0
    0.1701   -7.3770    5.8714 H   0  0  0  0  0  0  0  0  0  0  0  0
    2.0905   -7.9335    4.3839 H   0  0  0  0  0  0  0  0  0  0  0  0
    1.1860   -9.1346    3.5613 H   0  0  0  0  0  0  0  0  0  0  0  0
    0.3688   -6.2217    3.7112 H   0  0  0  0  0  0  0  0  0  0  0  0
   -0.4595   -8.3461    1.7297 H   0  0  0  0  0  0  0  0  0  0  0  0
   -1.0364   -6.6896    1.8497 H   0  0  0  0  0  0  0  0  0  0  0  0
   -1.3893   -7.8285    3.1273 H   0  0  0  0  0  0  0  0  0  0  0  0
    1.4494   -6.3700    1.2742 H   0  0  0  0  0  0  0  0  0  0  0  0
    2.8332   -8.6739    2.6219 H   0  0  0  0  0  0  0  0  0  0  0  0
    2.5507   -8.3611    0.9712 H   0  0  0  0  0  0  0  0  0  0  0  0
    4.8319   -7.4979    2.6259 H   0  0  0  0  0  0  0  0  0  0  0  0
    4.8568   -7.5578    0.8811 H   0  0  0  0  0  0  0  0  0  0  0  0
    3.7378   -5.4595    0.7412 H   0  0  0  0  0  0  0  0  0  0  0  0
    5.3088   -4.9788    3.2629 H   0  0  0  0  0  0  0  0  0  0  0  0
    7.2784   -4.6731    2.2748 H   0  0  0  0  0  0  0  0  0  0  0  0
    6.6892   -6.0496    1.4124 H   0  0  0  0  0  0  0  0  0  0  0  0
    7.5425   -4.5652   -0.3057 H   0  0  0  0  0  0  0  0  0  0  0  0
    6.6014   -1.4885   -1.2551 H   0  0  0  0  0  0  0  0  0  0  0  0
    7.0589   -3.0333   -1.9621 H   0  0  0  0  0  0  0  0  0  0  0  0
    5.1975   -1.8334   -3.1721 H   0  0  0  0  0  0  0  0  0  0  0  0
    4.2691   -5.0587   -4.3055 H   0  0  0  0  0  0  0  0  0  0  0  0
    4.9673   -3.5003   -4.7262 H   0  0  0  0  0  0  0  0  0  0  0  0
    3.3095   -3.5802   -4.1059 H   0  0  0  0  0  0  0  0  0  0  0  0
    3.9445   -0.8608   -1.3621 H   0  0  0  0  0  0  0  0  0  0  0  0
    1.9352   -1.5506   -1.7943 H   0  0  0  0  0  0  0  0  0  0  0  0
    2.6977   -2.1510    0.2949 H   0  0  0  0  0  0  0  0  0  0  0  0
    3.2709   -3.6459   -0.3693 H   0  0  0  0  0  0  0  0  0  0  0  0
    4.3642   -0.5896    1.6753 H   0  0  0  0  0  0  0  0  0  0  0  0
    5.2923   -0.3969    0.2069 H   0  0  0  0  0  0  0  0  0  0  0  0
    6.0585   -0.9787    1.6912 H   0  0  0  0  0  0  0  0  0  0  0  0
    5.3521   -2.7948    2.8036 H   0  0  0  0  0  0  0  0  0  0  0  0
    3.3881   -2.9886    3.8603 H   0  0  0  0  0  0  0  0  0  0  0  0
    2.8533   -2.0364    2.5654 H   0  0  0  0  0  0  0  0  0  0  0  0
    1.2982   -3.9484    3.0517 H   0  0  0  0  0  0  0  0  0  0  0  0
    1.8605   -4.0061    1.4254 H   0  0  0  0  0  0  0  0  0  0  0  0
    3.8016   -4.9174    4.6170 H   0  0  0  0  0  0  0  0  0  0  0  0
    3.5709   -6.6489    4.4792 H   0  0  0  0  0  0  0  0  0  0  0  0
    2.2141   -5.6621    4.8499 H   0  0  0  0  0  0  0  0  0  0  0  0
  1  2  2  0
  1 31  1  0
  1 32  1  0
  2  3  1  0
  2  5  1  0
  3  4  1  0
  3 33  1  0
  3 34  1  0
  4 35  1  0
  4 36  1  0
  4 37  1  0
  5  6  1  0
  5 38  1  0
  5 39  1  0
  6  7  1  0
  6 40  1  0
  6 41  1  0
  7  8  1  0
  7  9  1  0
  7 42  1  1
  8 43  1  0
  8 44  1  0
  8 45  1  0
  9 29  1  0
  9 10  1  0
  9 46  1  6
 10 11  1  0
 10 47  1  0
 10 48  1  0
 11 12  1  0
 11 49  1  0
 11 50  1  0
 12 29  1  0
 12 13  1  0
 12 51  1  6
 13 26  1  0
 13 14  1  0
 13 52  1  1
 14 15  1  0
 14 53  1  0
 14 54  1  0
 15 16  2  0
 15 55  1  0
 16 24  1  0
 16 17  1  0
 17 18  1  0
 17 56  1  0
 17 57  1  0
 18 19  1  0
 18 21  1  0
 18 58  1  6
 19 20  1  0
 20 59  1  0
 20 60  1  0
 20 61  1  0
 21 22  1  0
 21 23  1  0
 21 62  1  1
 22 63  1  0
 23 24  1  0
 23 64  1  0
 23 65  1  0
 24 25  1  1
 24 26  1  0
 25 66  1  0
 25 67  1  0
 25 68  1  0
 26 27  1  0
 26 69  1  1
 27 28  1  0
 27 70  1  0
 27 71  1  0
 28 29  1  0
 28 72  1  0
 28 73  1  0
 29 30  1  1
 30 74  1  0
 30 75  1  0
 30 76  1  0
M  END
>  <i_m_ct_stereo_status>  (295) 
1

>  <s_m_source_file>  (295) 
/var/tmp/pbs.5076255.sched01/tmpajq2dbrl/12675ddggds.sdf

>  <i_m_source_file_index>  (295) 
13

>  <i_lp_mmshare_version>  (295) 
48012

>  <i_f3d_flags>  (295) 
0

>  <s_epik_input>  (295) 
W0NIM11bQ0gyXUMoPVtDSDJdKVtDSDJdW0NIMl1bQ0BIXShbQ0gzXSlbQ0BIXShbQ0gyXVtDSDJdMSlbQ0BdKFtDSDNdKShbQ0gyXVtDSDJdW0NAQEhdMjMpW0NASF0xW0NASF0yW0NIMl1bQ0hdPUMoW0NAXTM0W0NIM10pW0NIMl1bQ0BASF0oT1tDSDNdKVtDQEBIXShbT0hdKVtDSDJdNA==

>  <s_epik_cmdline>  (295) 
J2VwaWtfcHl0aG9uJywgJy1waHQnLCAnMi4wJywgJy1waCcsICc3LjAnLCAnLXRuJywgJzgnLCAnLW1hJywgJzIwMCcsICctaW1hZScsICc8aW5maWxlLm1hZT4nLCAnLW9tYWUnLCAnPG91dGZpbGUubWFlPic=

>  <r_lp_tautomer_probability>  (295) 
1

>  <r_epik_Ionization_Penalty>  (295) 
8.19392e-08

>  <r_epik_Ionization_Penalty_Charging>  (295) 
0

>  <r_epik_Ionization_Penalty_Neutral>  (295) 
8.19392e-08

>  <r_epik_State_Penalty>  (295) 
-0

>  <r_epik_Charging_Adjusted_Penalty>  (295) 
0

>  <i_epik_Tot_Q>  (295) 
0

>  <i_epik_Tot_abs_Q>  (295) 
0

>  <s_lp_Force_Field>  (295) 
OPLS3e

>  <r_lp_Energy>  (295) 
46.5092

>  <b_lp_Chiralities_Consistent>  (295) 
1

>  <s_lp_Variant>  (295) 
97:0-1

>  <s_i_glide_gridfile>  (295) 
pfpi4k_grid

>  <i_i_glide_lignum>  (295) 
13

>  <i_i_glide_rotatable_bonds>  (295) 
7

>  <r_i_docking_score>  (295) 
-2.14933

>  <r_i_glide_ligand_efficiency>  (295) 
-0.0716442

>  <r_i_glide_ligand_efficiency_sa>  (295) 
-0.222615

>  <r_i_glide_ligand_efficiency_ln>  (295) 
-0.48835

>  <r_i_glide_gscore>  (295) 
-2.14933

>  <r_i_glide_lipo>  (295) 
-0.613091

>  <r_i_glide_hbond>  (295) 
0

>  <r_i_glide_metal>  (295) 
-0

>  <r_i_glide_rewards>  (295) 
-0.581839

>  <r_i_glide_evdw>  (295) 
-25.1024

>  <r_i_glide_ecoul>  (295) 
-1.82189

>  <r_i_glide_erotb>  (295) 
0.574006

>  <r_i_glide_esite>  (295) 
0

>  <r_i_glide_emodel>  (295) 
-21.6469

>  <r_i_glide_energy>  (295) 
-26.9243

>  <r_i_glide_einternal>  (295) 
14.5953

>  <r_i_glide_intrahb_reward>  (295) 
-0

>  <i_i_glide_confnum>  (295) 
3

>  <i_i_glide_posenum>  (295) 
21

>  <r_i_glide_eff_state_penalty>  (295) 
0

>  <ligand_id>  (295) 
97

>  <original_smiles>  (295) 
C=C(CC)CCC(C)C1CCC2C3CC=C4CC(OC)C(O)CC4(C)C3CCC12C

>  <smiles>  (295) 
[H]OC1([H])C([H])([H])C2(C([H])([H])[H])C(=C([H])C([H])([H])C3([H])C2([H])C([H])([H])C([H])([H])C2(C([H])([H])[H])C([H])(C([H])(C([H])([H])[H])C([H])([H])C([H])([H])C(=C([H])[H])C([H])([H])C([H])([H])[H])C([H])([H])C([H])([H])C32[H])C([H])([H])C1([H])OC([H])([H])[H]

$$$$
97:0:1
     RDKit          3D

 76 79  0  0  1  0  0  0  0  0999 V2000
   -0.7869   -8.6810    6.0244 C   0  0  0  0  0  0  0  0  0  0  0  0
   -0.8384   -7.6354    5.1656 C   0  0  0  0  0  0  0  0  0  0  0  0
   -1.7928   -7.5189    3.9678 C   0  0  0  0  0  0  0  0  0  0  0  0
   -2.1851   -8.8563    3.3491 C   0  0  0  0  0  0  0  0  0  0  0  0
    0.1331   -6.5093    5.3823 C   0  0  0  0  0  0  0  0  0  0  0  0
    0.6760   -5.9076    4.0777 C   0  0  0  0  0  0  0  0  0  0  0  0
    1.8658   -4.9657    4.2707 C   0  0  2  0  0  0  0  0  0  0  0  0
    1.3522   -3.5751    4.7539 C   0  0  0  0  0  0  0  0  0  0  0  0
    2.7461   -4.9630    2.9846 C   0  0  2  0  0  0  0  0  0  0  0  0
    3.4741   -6.3198    2.6866 C   0  0  0  0  0  0  0  0  0  0  0  0
    4.8926   -5.9796    2.2014 C   0  0  0  0  0  0  0  0  0  0  0  0
    4.7874   -4.4799    1.8822 C   0  0  2  0  0  0  0  0  0  0  0  0
    6.0974   -3.6598    1.8806 C   0  0  1  0  0  0  0  0  0  0  0  0
    7.2762   -4.1891    1.0524 C   0  0  0  0  0  0  0  0  0  0  0  0
    7.2571   -3.6987   -0.3629 C   0  0  0  0  0  0  0  0  0  0  0  0
    6.5020   -2.6713   -0.7986 C   0  0  0  0  0  0  0  0  0  0  0  0
    6.4813   -2.3828   -2.2665 C   0  0  0  0  0  0  0  0  0  0  0  0
    5.0641   -2.2560   -2.8307 C   0  0  1  0  0  0  0  0  0  0  0  0
    4.6107   -3.5918   -2.8681 O   0  0  0  0  0  0  0  0  0  0  0  0
    4.1695   -3.9857   -4.1404 C   0  0  0  0  0  0  0  0  0  0  0  0
    4.1688   -1.3463   -1.9740 C   0  0  1  0  0  0  0  0  0  0  0  0
    2.8721   -1.3532   -2.5097 O   0  0  0  0  0  0  0  0  0  0  0  0
    4.2101   -1.7420   -0.4878 C   0  0  0  0  0  0  0  0  0  0  0  0
    5.6632   -1.7461    0.0942 C   0  0  2  0  0  0  0  0  0  0  0  0
    6.2294   -0.2987    0.0639 C   0  0  0  0  0  0  0  0  0  0  0  0
    5.7934   -2.1556    1.6032 C   0  0  1  0  0  0  0  0  0  0  0  0
    4.6605   -1.5684    2.4928 C   0  0  0  0  0  0  0  0  0  0  0  0
    3.4325   -2.4835    2.6118 C   0  0  0  0  0  0  0  0  0  0  0  0
    3.8830   -3.9219    3.0350 C   0  0  1  0  0  0  0  0  0  0  0  0
    4.5512   -3.9409    4.4905 C   0  0  0  0  0  0  0  0  0  0  0  0
   -1.5089   -9.4570    5.9487 H   0  0  0  0  0  0  0  0  0  0  0  0
   -0.0682   -8.7831    6.8209 H   0  0  0  0  0  0  0  0  0  0  0  0
   -2.6507   -6.9473    4.3080 H   0  0  0  0  0  0  0  0  0  0  0  0
   -1.3883   -6.9621    3.1128 H   0  0  0  0  0  0  0  0  0  0  0  0
   -2.7561   -8.7041    2.4272 H   0  0  0  0  0  0  0  0  0  0  0  0
   -2.7840   -9.4033    4.0726 H   0  0  0  0  0  0  0  0  0  0  0  0
   -1.3051   -9.4584    3.1036 H   0  0  0  0  0  0  0  0  0  0  0  0
   -0.3625   -5.7509    5.9803 H   0  0  0  0  0  0  0  0  0  0  0  0
    0.9599   -6.8785    5.9915 H   0  0  0  0  0  0  0  0  0  0  0  0
    0.9152   -6.7403    3.4069 H   0  0  0  0  0  0  0  0  0  0  0  0
   -0.1238   -5.3281    3.6232 H   0  0  0  0  0  0  0  0  0  0  0  0
    2.4513   -5.4257    5.0733 H   0  0  0  0  0  0  0  0  0  0  0  0
    0.7937   -3.1004    3.9308 H   0  0  0  0  0  0  0  0  0  0  0  0
    2.1959   -2.9837    5.0499 H   0  0  0  0  0  0  0  0  0  0  0  0
    0.6117   -3.7010    5.5736 H   0  0  0  0  0  0  0  0  0  0  0  0
    2.1023   -4.7761    2.1105 H   0  0  0  0  0  0  0  0  0  0  0  0
    3.5331   -6.9394    3.5768 H   0  0  0  0  0  0  0  0  0  0  0  0
    2.9564   -6.9172    1.9340 H   0  0  0  0  0  0  0  0  0  0  0  0
    5.6214   -6.1493    2.9947 H   0  0  0  0  0  0  0  0  0  0  0  0
    5.2378   -6.5898    1.3624 H   0  0  0  0  0  0  0  0  0  0  0  0
    4.2954   -4.4246    0.8803 H   0  0  0  0  0  0  0  0  0  0  0  0
    6.4974   -3.7423    2.8730 H   0  0  0  0  0  0  0  0  0  0  0  0
    8.2074   -3.8556    1.5159 H   0  0  0  0  0  0  0  0  0  0  0  0
    7.2972   -5.2835    1.0897 H   0  0  0  0  0  0  0  0  0  0  0  0
    7.9045   -4.2550   -1.0268 H   0  0  0  0  0  0  0  0  0  0  0  0
    7.0377   -1.4809   -2.3095 H   0  0  0  0  0  0  0  0  0  0  0  0
    7.0829   -3.1386   -2.7770 H   0  0  0  0  0  0  0  0  0  0  0  0
    5.1106   -1.8058   -3.8281 H   0  0  0  0  0  0  0  0  0  0  0  0
    4.0052   -5.0550   -4.1659 H   0  0  0  0  0  0  0  0  0  0  0  0
    4.9420   -3.8172   -4.8829 H   0  0  0  0  0  0  0  0  0  0  0  0
    3.2576   -3.4365   -4.3831 H   0  0  0  0  0  0  0  0  0  0  0  0
    4.4948   -0.3100   -2.0690 H   0  0  0  0  0  0  0  0  0  0  0  0
    2.2735   -1.0609   -1.8249 H   0  0  0  0  0  0  0  0  0  0  0  0
    3.5749   -1.0605    0.0764 H   0  0  0  0  0  0  0  0  0  0  0  0
    3.7784   -2.7364   -0.3849 H   0  0  0  0  0  0  0  0  0  0  0  0
    5.6462    0.4001    0.6826 H   0  0  0  0  0  0  0  0  0  0  0  0
    6.2071    0.0721   -0.9511 H   0  0  0  0  0  0  0  0  0  0  0  0
    7.2776   -0.2607    0.4064 H   0  0  0  0  0  0  0  0  0  0  0  0
    6.6864   -1.6638    1.9941 H   0  0  0  0  0  0  0  0  0  0  0  0
    5.0599   -1.4108    3.4899 H   0  0  0  0  0  0  0  0  0  0  0  0
    4.3537   -0.5614    2.1963 H   0  0  0  0  0  0  0  0  0  0  0  0
    2.7715   -2.0243    3.3486 H   0  0  0  0  0  0  0  0  0  0  0  0
    2.8822   -2.5025    1.6533 H   0  0  0  0  0  0  0  0  0  0  0  0
    5.4844   -3.3351    4.4880 H   0  0  0  0  0  0  0  0  0  0  0  0
    4.9327   -4.9608    4.7045 H   0  0  0  0  0  0  0  0  0  0  0  0
    3.8491   -3.6319    5.2618 H   0  0  0  0  0  0  0  0  0  0  0  0
  1  2  2  0
  1 31  1  0
  1 32  1  0
  2  3  1  0
  2  5  1  0
  3  4  1  0
  3 33  1  0
  3 34  1  0
  4 35  1  0
  4 36  1  0
  4 37  1  0
  5  6  1  0
  5 38  1  0
  5 39  1  0
  6  7  1  0
  6 40  1  0
  6 41  1  0
  7  8  1  0
  7  9  1  0
  7 42  1  1
  8 43  1  0
  8 44  1  0
  8 45  1  0
  9 29  1  0
  9 10  1  0
  9 46  1  6
 10 11  1  0
 10 47  1  0
 10 48  1  0
 11 12  1  0
 11 49  1  0
 11 50  1  0
 12 29  1  0
 12 13  1  0
 12 51  1  6
 13 26  1  0
 13 14  1  0
 13 52  1  1
 14 15  1  0
 14 53  1  0
 14 54  1  0
 15 16  2  0
 15 55  1  0
 16 24  1  0
 16 17  1  0
 17 18  1  0
 17 56  1  0
 17 57  1  0
 18 19  1  0
 18 21  1  0
 18 58  1  6
 19 20  1  0
 20 59  1  0
 20 60  1  0
 20 61  1  0
 21 22  1  0
 21 23  1  0
 21 62  1  1
 22 63  1  0
 23 24  1  0
 23 64  1  0
 23 65  1  0
 24 25  1  1
 24 26  1  0
 25 66  1  0
 25 67  1  0
 25 68  1  0
 26 27  1  0
 26 69  1  1
 27 28  1  0
 27 70  1  0
 27 71  1  0
 28 29  1  0
 28 72  1  0
 28 73  1  0
 29 30  1  1
 30 74  1  0
 30 75  1  0
 30 76  1  0
M  END
>  <i_m_ct_stereo_status>  (296) 
1

>  <s_m_source_file>  (296) 
/var/tmp/pbs.5076255.sched01/tmpajq2dbrl/12675ddggds.sdf

>  <i_m_source_file_index>  (296) 
13

>  <i_lp_mmshare_version>  (296) 
48012

>  <i_f3d_flags>  (296) 
0

>  <s_epik_input>  (296) 
W0NIM11bQ0gyXUMoPVtDSDJdKVtDSDJdW0NIMl1bQ0BIXShbQ0gzXSlbQ0BIXShbQ0gyXVtDSDJdMSlbQ0BdKFtDSDNdKShbQ0gyXVtDSDJdW0NAQEhdMjMpW0NASF0xW0NASF0yW0NIMl1bQ0hdPUMoW0NAXTM0W0NIM10pW0NIMl1bQ0BASF0oT1tDSDNdKVtDQEBIXShbT0hdKVtDSDJdNA==

>  <s_epik_cmdline>  (296) 
J2VwaWtfcHl0aG9uJywgJy1waHQnLCAnMi4wJywgJy1waCcsICc3LjAnLCAnLXRuJywgJzgnLCAnLW1hJywgJzIwMCcsICctaW1hZScsICc8aW5maWxlLm1hZT4nLCAnLW9tYWUnLCAnPG91dGZpbGUubWFlPic=

>  <r_lp_tautomer_probability>  (296) 
1

>  <r_epik_Ionization_Penalty>  (296) 
8.19392e-08

>  <r_epik_Ionization_Penalty_Charging>  (296) 
0

>  <r_epik_Ionization_Penalty_Neutral>  (296) 
8.19392e-08

>  <r_epik_State_Penalty>  (296) 
-0

>  <r_epik_Charging_Adjusted_Penalty>  (296) 
0

>  <i_epik_Tot_Q>  (296) 
0

>  <i_epik_Tot_abs_Q>  (296) 
0

>  <s_lp_Force_Field>  (296) 
OPLS3e

>  <r_lp_Energy>  (296) 
46.5092

>  <b_lp_Chiralities_Consistent>  (296) 
1

>  <s_lp_Variant>  (296) 
97:0-1

>  <s_i_glide_gridfile>  (296) 
pfpi4k_grid

>  <i_i_glide_lignum>  (296) 
13

>  <i_i_glide_rotatable_bonds>  (296) 
7

>  <r_i_docking_score>  (296) 
-0.642117

>  <r_i_glide_ligand_efficiency>  (296) 
-0.0214039

>  <r_i_glide_ligand_efficiency_sa>  (296) 
-0.0665069

>  <r_i_glide_ligand_efficiency_ln>  (296) 
-0.145896

>  <r_i_glide_gscore>  (296) 
-0.642117

>  <r_i_glide_lipo>  (296) 
-0.610162

>  <r_i_glide_hbond>  (296) 
0

>  <r_i_glide_metal>  (296) 
-0

>  <r_i_glide_rewards>  (296) 
-0.581839

>  <r_i_glide_evdw>  (296) 
-1.32923

>  <r_i_glide_ecoul>  (296) 
-0.875856

>  <r_i_glide_erotb>  (296) 
0.574006

>  <r_i_glide_esite>  (296) 
0

>  <r_i_glide_emodel>  (296) 
5.06658

>  <r_i_glide_energy>  (296) 
-2.20508

>  <r_i_glide_einternal>  (296) 
8.06796

>  <r_i_glide_intrahb_reward>  (296) 
-0

>  <i_i_glide_confnum>  (296) 
3

>  <i_i_glide_posenum>  (296) 
1

>  <r_i_glide_eff_state_penalty>  (296) 
0

>  <ligand_id>  (296) 
97

>  <original_smiles>  (296) 
C=C(CC)CCC(C)C1CCC2C3CC=C4CC(OC)C(O)CC4(C)C3CCC12C

>  <smiles>  (296) 
[H]OC1([H])C([H])([H])C2(C([H])([H])[H])C(=C([H])C([H])([H])C3([H])C2([H])C([H])([H])C([H])([H])C2(C([H])([H])[H])C([H])(C([H])(C([H])([H])[H])C([H])([H])C([H])([H])C(=C([H])[H])C([H])([H])C([H])([H])[H])C([H])([H])C([H])([H])C32[H])C([H])([H])C1([H])OC([H])([H])[H]

$$$$
98:0:0
     RDKit          3D

 29 31  0  0  1  0  0  0  0  0999 V2000
    6.4151   -4.0231    1.5501 C   0  0  0  0  0  0  0  0  0  0  0  0
    5.1883   -3.5610    0.7398 C   0  0  1  0  0  0  0  0  0  0  0  0
    4.3462   -4.7589    0.2979 C   0  0  0  0  0  0  0  0  0  0  0  0
    3.0578   -4.2244   -0.3274 C   0  0  1  0  0  0  0  0  0  0  0  0
    2.3231   -3.5768    0.6944 O   0  0  0  0  0  0  0  0  0  0  0  0
    2.9863   -2.7126    1.5047 C   0  0  0  0  0  0  0  0  0  0  0  0
    2.1991   -1.8826    2.1983 N   0  0  0  0  0  0  0  0  0  0  0  0
    4.3334   -2.7317    1.5933 N   0  0  0  0  0  0  0  0  0  0  0  0
    3.3360   -3.2666   -1.4760 C   0  0  0  0  0  0  0  0  0  0  0  0
    2.3599   -3.0689   -2.4748 C   0  0  0  0  0  0  0  0  0  0  0  0
    2.6151   -2.2135   -3.5597 C   0  0  0  0  0  0  0  0  0  0  0  0
    3.8341   -1.5170   -3.6408 C   0  0  0  0  0  0  0  0  0  0  0  0
    4.7942   -1.6891   -2.6270 C   0  0  0  0  0  0  0  0  0  0  0  0
    4.5611   -2.5608   -1.5451 C   0  0  0  0  0  0  0  0  0  0  0  0
    5.5972   -2.7206   -0.4890 C   0  0  0  0  0  0  0  0  0  0  0  0
    6.6987   -2.1710   -0.5281 O   0  0  0  0  0  0  0  0  0  0  0  0
    7.0851   -4.6513    0.9619 H   0  0  0  0  0  0  0  0  0  0  0  0
    6.1174   -4.5935    2.4315 H   0  0  0  0  0  0  0  0  0  0  0  0
    6.9970   -3.1711    1.9013 H   0  0  0  0  0  0  0  0  0  0  0  0
    4.8899   -5.3604   -0.4330 H   0  0  0  0  0  0  0  0  0  0  0  0
    4.1201   -5.4165    1.1403 H   0  0  0  0  0  0  0  0  0  0  0  0
    2.4573   -5.0556   -0.6985 H   0  0  0  0  0  0  0  0  0  0  0  0
    2.5711   -1.1672    2.8069 H   0  0  0  0  0  0  0  0  0  0  0  0
    4.8053   -2.0641    2.1856 H   0  0  0  0  0  0  0  0  0  0  0  0
    1.4161   -3.5928   -2.4177 H   0  0  0  0  0  0  0  0  0  0  0  0
    1.8609   -2.0793   -4.3206 H   0  0  0  0  0  0  0  0  0  0  0  0
    4.0249   -0.8486   -4.4690 H   0  0  0  0  0  0  0  0  0  0  0  0
    5.7181   -1.1458   -2.6746 H   0  0  0  0  0  0  0  0  0  0  0  0
    1.2081   -1.8878    2.0012 H   0  0  0  0  0  0  0  0  0  0  0  0
  2  1  1  1
  1 17  1  0
  1 18  1  0
  1 19  1  0
  2  8  1  0
  2 15  1  0
  2  3  1  0
  3  4  1  0
  3 20  1  0
  3 21  1  0
  4  5  1  0
  4  9  1  0
  4 22  1  6
  5  6  1  0
  6  7  1  0
  6  8  2  0
  7 23  1  0
  7 29  1  0
  8 24  1  0
  9 14  2  0
  9 10  1  0
 10 11  2  0
 10 25  1  0
 11 12  1  0
 11 26  1  0
 12 13  2  0
 12 27  1  0
 13 14  1  0
 13 28  1  0
 14 15  1  0
 15 16  2  0
M  CHG  1   8   1
M  END
>  <i_m_ct_stereo_status>  (297) 
1

>  <s_m_source_file>  (297) 
/var/tmp/pbs.5076255.sched01/tmpajq2dbrl/12675ddggds.sdf

>  <i_m_source_file_index>  (297) 
14

>  <i_lp_mmshare_version>  (297) 
48012

>  <i_f3d_flags>  (297) 
0

>  <s_epik_input>  (297) 
W0hdL049QyhbTkhdMSlcT1tDQEhdKFtDSDJdW0NAXTEyW0NIM10pYzNjKEMyPU8pW2NIXVtjSF1bY0hdW2NIXTM=

>  <s_epik_cmdline>  (297) 
J2VwaWtfcHl0aG9uJywgJy1waHQnLCAnMi4wJywgJy1waCcsICc3LjAnLCAnLXRuJywgJzgnLCAnLW1hJywgJzIwMCcsICctaW1hZScsICc8aW5maWxlLm1hZT4nLCAnLW9tYWUnLCAnPG91dGZpbGUubWFlPic=

>  <r_epik_Ionization_Penalty>  (297) 
0.381944

>  <r_epik_Ionization_Penalty_Charging>  (297) 
0.381944

>  <r_epik_Ionization_Penalty_Neutral>  (297) 
2.51276e-14

>  <r_epik_State_Penalty>  (297) 
0.386295

>  <r_epik_Charging_Adjusted_Penalty>  (297) 
0.768239

>  <i_epik_Tot_Q>  (297) 
1

>  <i_epik_Tot_abs_Q>  (297) 
1

>  <s_epik_Chemistry_Notes>  (297) 
This compound has an imine and may undergo hydrolysis.

>  <s_lp_Force_Field>  (297) 
OPLS3e

>  <r_lp_Energy>  (297) 
19.9024

>  <b_lp_Chiralities_Consistent>  (297) 
1

>  <s_lp_Variant>  (297) 
98:0-1

>  <s_i_glide_gridfile>  (297) 
pfpi4k_grid

>  <i_i_glide_lignum>  (297) 
14

>  <i_i_glide_rotatable_bonds>  (297) 
0

>  <r_i_docking_score>  (297) 
-4.25601

>  <r_i_glide_ligand_efficiency>  (297) 
-0.266001

>  <r_i_glide_ligand_efficiency_sa>  (297) 
-0.67028

>  <r_i_glide_ligand_efficiency_ln>  (297) 
-1.12814

>  <r_i_glide_gscore>  (297) 
-4.25601

>  <r_i_glide_lipo>  (297) 
-0.737322

>  <r_i_glide_hbond>  (297) 
-0.0880686

>  <r_i_glide_metal>  (297) 
-0

>  <r_i_glide_rewards>  (297) 
-1.92788

>  <r_i_glide_evdw>  (297) 
-16.3368

>  <r_i_glide_ecoul>  (297) 
-4.31265

>  <r_i_glide_erotb>  (297) 
0

>  <r_i_glide_esite>  (297) 
-0.0390013

>  <r_i_glide_emodel>  (297) 
-26.385

>  <r_i_glide_energy>  (297) 
-20.6494

>  <r_i_glide_einternal>  (297) 
0

>  <r_i_glide_intrahb_reward>  (297) 
-0

>  <i_i_glide_confnum>  (297) 
1

>  <i_i_glide_posenum>  (297) 
36

>  <r_i_glide_eff_state_penalty>  (297) 
0

>  <ligand_id>  (297) 
98

>  <original_smiles>  (297) 
CC12CC(OC(=N)N1)c1ccccc1C2=O

>  <smiles>  (297) 
[H]c1c([H])c([H])c2c(c1[H])C(=O)C1(C([H])([H])[H])[N+]([H])=C(N([H])[H])OC2([H])C1([H])[H]

$$$$
98:0:1
     RDKit          3D

 29 31  0  0  1  0  0  0  0  0999 V2000
    4.3214   -2.7732    2.8613 C   0  0  0  0  0  0  0  0  0  0  0  0
    4.6112   -2.6640    1.3482 C   0  0  1  0  0  0  0  0  0  0  0  0
    4.8863   -1.2151    0.9452 C   0  0  0  0  0  0  0  0  0  0  0  0
    5.3460   -1.2213   -0.5128 C   0  0  1  0  0  0  0  0  0  0  0  0
    6.5957   -1.8848   -0.5831 O   0  0  0  0  0  0  0  0  0  0  0  0
    6.7163   -3.0621    0.0801 C   0  0  0  0  0  0  0  0  0  0  0  0
    7.7697   -3.7993   -0.2884 N   0  0  0  0  0  0  0  0  0  0  0  0
    5.8265   -3.4229    1.0349 N   0  0  0  0  0  0  0  0  0  0  0  0
    4.3344   -1.8710   -1.4373 C   0  0  0  0  0  0  0  0  0  0  0  0
    4.3182   -1.5187   -2.8045 C   0  0  0  0  0  0  0  0  0  0  0  0
    3.3939   -2.1143   -3.6748 C   0  0  0  0  0  0  0  0  0  0  0  0
    2.4780   -3.0533   -3.1784 C   0  0  0  0  0  0  0  0  0  0  0  0
    2.4864   -3.4175   -1.8170 C   0  0  0  0  0  0  0  0  0  0  0  0
    3.4250   -2.8344   -0.9386 C   0  0  0  0  0  0  0  0  0  0  0  0
    3.4500   -3.2316    0.5002 C   0  0  0  0  0  0  0  0  0  0  0  0
    2.6450   -4.0171    1.0092 O   0  0  0  0  0  0  0  0  0  0  0  0
    3.4285   -2.2116    3.1420 H   0  0  0  0  0  0  0  0  0  0  0  0
    5.1509   -2.3813    3.4512 H   0  0  0  0  0  0  0  0  0  0  0  0
    4.1672   -3.8092    3.1729 H   0  0  0  0  0  0  0  0  0  0  0  0
    3.9835   -0.6092    1.0501 H   0  0  0  0  0  0  0  0  0  0  0  0
    5.6438   -0.7604    1.5888 H   0  0  0  0  0  0  0  0  0  0  0  0
    5.5025   -0.2094   -0.8501 H   0  0  0  0  0  0  0  0  0  0  0  0
    7.9268   -4.7173    0.1060 H   0  0  0  0  0  0  0  0  0  0  0  0
    5.9091   -4.3222    1.4849 H   0  0  0  0  0  0  0  0  0  0  0  0
    5.0052   -0.7805   -3.1891 H   0  0  0  0  0  0  0  0  0  0  0  0
    3.3644   -1.8390   -4.7186 H   0  0  0  0  0  0  0  0  0  0  0  0
    1.7558   -3.4910   -3.8534 H   0  0  0  0  0  0  0  0  0  0  0  0
    1.7774   -4.1509   -1.4593 H   0  0  0  0  0  0  0  0  0  0  0  0
    8.3548   -3.4767   -1.0502 H   0  0  0  0  0  0  0  0  0  0  0  0
  2  1  1  1
  1 17  1  0
  1 18  1  0
  1 19  1  0
  2  8  1  0
  2 15  1  0
  2  3  1  0
  3  4  1  0
  3 20  1  0
  3 21  1  0
  4  5  1  0
  4  9  1  0
  4 22  1  6
  5  6  1  0
  6  7  1  0
  6  8  2  0
  7 23  1  0
  7 29  1  0
  8 24  1  0
  9 14  2  0
  9 10  1  0
 10 11  2  0
 10 25  1  0
 11 12  1  0
 11 26  1  0
 12 13  2  0
 12 27  1  0
 13 14  1  0
 13 28  1  0
 14 15  1  0
 15 16  2  0
M  CHG  1   8   1
M  END
>  <i_m_ct_stereo_status>  (298) 
1

>  <s_m_source_file>  (298) 
/var/tmp/pbs.5076255.sched01/tmpajq2dbrl/12675ddggds.sdf

>  <i_m_source_file_index>  (298) 
14

>  <i_lp_mmshare_version>  (298) 
48012

>  <i_f3d_flags>  (298) 
0

>  <s_epik_input>  (298) 
W0hdL049QyhbTkhdMSlcT1tDQEhdKFtDSDJdW0NAXTEyW0NIM10pYzNjKEMyPU8pW2NIXVtjSF1bY0hdW2NIXTM=

>  <s_epik_cmdline>  (298) 
J2VwaWtfcHl0aG9uJywgJy1waHQnLCAnMi4wJywgJy1waCcsICc3LjAnLCAnLXRuJywgJzgnLCAnLW1hJywgJzIwMCcsICctaW1hZScsICc8aW5maWxlLm1hZT4nLCAnLW9tYWUnLCAnPG91dGZpbGUubWFlPic=

>  <r_epik_Ionization_Penalty>  (298) 
0.381944

>  <r_epik_Ionization_Penalty_Charging>  (298) 
0.381944

>  <r_epik_Ionization_Penalty_Neutral>  (298) 
2.51276e-14

>  <r_epik_State_Penalty>  (298) 
0.386295

>  <r_epik_Charging_Adjusted_Penalty>  (298) 
0.768239

>  <i_epik_Tot_Q>  (298) 
1

>  <i_epik_Tot_abs_Q>  (298) 
1

>  <s_epik_Chemistry_Notes>  (298) 
This compound has an imine and may undergo hydrolysis.

>  <s_lp_Force_Field>  (298) 
OPLS3e

>  <r_lp_Energy>  (298) 
19.9024

>  <b_lp_Chiralities_Consistent>  (298) 
1

>  <s_lp_Variant>  (298) 
98:0-1

>  <s_i_glide_gridfile>  (298) 
pfpi4k_grid

>  <i_i_glide_lignum>  (298) 
14

>  <i_i_glide_rotatable_bonds>  (298) 
0

>  <r_i_docking_score>  (298) 
-4.06318

>  <r_i_glide_ligand_efficiency>  (298) 
-0.253949

>  <r_i_glide_ligand_efficiency_sa>  (298) 
-0.639912

>  <r_i_glide_ligand_efficiency_ln>  (298) 
-1.07703

>  <r_i_glide_gscore>  (298) 
-4.06318

>  <r_i_glide_lipo>  (298) 
-0.609132

>  <r_i_glide_hbond>  (298) 
-0.150754

>  <r_i_glide_metal>  (298) 
-0

>  <r_i_glide_rewards>  (298) 
-2.05595

>  <r_i_glide_evdw>  (298) 
-18.8136

>  <r_i_glide_ecoul>  (298) 
-1.99164

>  <r_i_glide_erotb>  (298) 
0

>  <r_i_glide_esite>  (298) 
-0.00792158

>  <r_i_glide_emodel>  (298) 
-26.3021

>  <r_i_glide_energy>  (298) 
-20.8052

>  <r_i_glide_einternal>  (298) 
0

>  <r_i_glide_intrahb_reward>  (298) 
-0

>  <i_i_glide_confnum>  (298) 
2

>  <i_i_glide_posenum>  (298) 
8

>  <r_i_glide_eff_state_penalty>  (298) 
0

>  <ligand_id>  (298) 
98

>  <original_smiles>  (298) 
CC12CC(OC(=N)N1)c1ccccc1C2=O

>  <smiles>  (298) 
[H]c1c([H])c([H])c2c(c1[H])C(=O)C1(C([H])([H])[H])[N+]([H])=C(N([H])[H])OC2([H])C1([H])[H]

$$$$
98:0:2
     RDKit          3D

 29 31  0  0  1  0  0  0  0  0999 V2000
    5.7537   -1.0817    2.1851 C   0  0  0  0  0  0  0  0  0  0  0  0
    5.4249   -1.9948    0.9886 C   0  0  1  0  0  0  0  0  0  0  0  0
    6.6864   -2.3720    0.2111 C   0  0  0  0  0  0  0  0  0  0  0  0
    6.3023   -3.4075   -0.8458 C   0  0  1  0  0  0  0  0  0  0  0  0
    5.8742   -4.5815   -0.1690 O   0  0  0  0  0  0  0  0  0  0  0  0
    5.0167   -4.4375    0.8736 C   0  0  0  0  0  0  0  0  0  0  0  0
    4.3940   -5.5634    1.2459 N   0  0  0  0  0  0  0  0  0  0  0  0
    4.8404   -3.2425    1.4785 N   0  0  0  0  0  0  0  0  0  0  0  0
    5.2075   -2.8961   -1.7681 C   0  0  0  0  0  0  0  0  0  0  0  0
    5.0659   -3.4594   -3.0537 C   0  0  0  0  0  0  0  0  0  0  0  0
    4.0417   -3.0275   -3.9115 C   0  0  0  0  0  0  0  0  0  0  0  0
    3.1783   -1.9924   -3.5106 C   0  0  0  0  0  0  0  0  0  0  0  0
    3.3214   -1.4244   -2.2298 C   0  0  0  0  0  0  0  0  0  0  0  0
    4.3137   -1.8859   -1.3368 C   0  0  0  0  0  0  0  0  0  0  0  0
    4.4117   -1.3243    0.0442 C   0  0  0  0  0  0  0  0  0  0  0  0
    3.7117   -0.4077    0.4758 O   0  0  0  0  0  0  0  0  0  0  0  0
    6.2070   -0.1469    1.8576 H   0  0  0  0  0  0  0  0  0  0  0  0
    6.4532   -1.5615    2.8621 H   0  0  0  0  0  0  0  0  0  0  0  0
    4.8666   -0.8315    2.7735 H   0  0  0  0  0  0  0  0  0  0  0  0
    7.1108   -1.4906   -0.2714 H   0  0  0  0  0  0  0  0  0  0  0  0
    7.4565   -2.7663    0.8763 H   0  0  0  0  0  0  0  0  0  0  0  0
    7.1799   -3.6496   -1.4480 H   0  0  0  0  0  0  0  0  0  0  0  0
    3.7233   -5.5861    2.0025 H   0  0  0  0  0  0  0  0  0  0  0  0
    4.1661   -3.1465    2.2263 H   0  0  0  0  0  0  0  0  0  0  0  0
    5.7300   -4.2501   -3.3727 H   0  0  0  0  0  0  0  0  0  0  0  0
    3.9197   -3.4950   -4.8787 H   0  0  0  0  0  0  0  0  0  0  0  0
    2.3976   -1.6477   -4.1784 H   0  0  0  0  0  0  0  0  0  0  0  0
    2.6216   -0.6586   -1.9259 H   0  0  0  0  0  0  0  0  0  0  0  0
    4.5690   -6.4067    0.7149 H   0  0  0  0  0  0  0  0  0  0  0  0
  2  1  1  1
  1 17  1  0
  1 18  1  0
  1 19  1  0
  2  8  1  0
  2 15  1  0
  2  3  1  0
  3  4  1  0
  3 20  1  0
  3 21  1  0
  4  5  1  0
  4  9  1  0
  4 22  1  6
  5  6  1  0
  6  7  1  0
  6  8  2  0
  7 23  1  0
  7 29  1  0
  8 24  1  0
  9 14  2  0
  9 10  1  0
 10 11  2  0
 10 25  1  0
 11 12  1  0
 11 26  1  0
 12 13  2  0
 12 27  1  0
 13 14  1  0
 13 28  1  0
 14 15  1  0
 15 16  2  0
M  CHG  1   8   1
M  END
>  <i_m_ct_stereo_status>  (299) 
1

>  <s_m_source_file>  (299) 
/var/tmp/pbs.5076255.sched01/tmpajq2dbrl/12675ddggds.sdf

>  <i_m_source_file_index>  (299) 
14

>  <i_lp_mmshare_version>  (299) 
48012

>  <i_f3d_flags>  (299) 
0

>  <s_epik_input>  (299) 
W0hdL049QyhbTkhdMSlcT1tDQEhdKFtDSDJdW0NAXTEyW0NIM10pYzNjKEMyPU8pW2NIXVtjSF1bY0hdW2NIXTM=

>  <s_epik_cmdline>  (299) 
J2VwaWtfcHl0aG9uJywgJy1waHQnLCAnMi4wJywgJy1waCcsICc3LjAnLCAnLXRuJywgJzgnLCAnLW1hJywgJzIwMCcsICctaW1hZScsICc8aW5maWxlLm1hZT4nLCAnLW9tYWUnLCAnPG91dGZpbGUubWFlPic=

>  <r_epik_Ionization_Penalty>  (299) 
0.381944

>  <r_epik_Ionization_Penalty_Charging>  (299) 
0.381944

>  <r_epik_Ionization_Penalty_Neutral>  (299) 
2.51276e-14

>  <r_epik_State_Penalty>  (299) 
0.386295

>  <r_epik_Charging_Adjusted_Penalty>  (299) 
0.768239

>  <i_epik_Tot_Q>  (299) 
1

>  <i_epik_Tot_abs_Q>  (299) 
1

>  <s_epik_Chemistry_Notes>  (299) 
This compound has an imine and may undergo hydrolysis.

>  <s_lp_Force_Field>  (299) 
OPLS3e

>  <r_lp_Energy>  (299) 
19.9024

>  <b_lp_Chiralities_Consistent>  (299) 
1

>  <s_lp_Variant>  (299) 
98:0-1

>  <s_i_glide_gridfile>  (299) 
pfpi4k_grid

>  <i_i_glide_lignum>  (299) 
14

>  <i_i_glide_rotatable_bonds>  (299) 
0

>  <r_i_docking_score>  (299) 
-3.89878

>  <r_i_glide_ligand_efficiency>  (299) 
-0.243674

>  <r_i_glide_ligand_efficiency_sa>  (299) 
-0.61402

>  <r_i_glide_ligand_efficiency_ln>  (299) 
-1.03345

>  <r_i_glide_gscore>  (299) 
-3.89878

>  <r_i_glide_lipo>  (299) 
-0.874161

>  <r_i_glide_hbond>  (299) 
0

>  <r_i_glide_metal>  (299) 
-0

>  <r_i_glide_rewards>  (299) 
-1.98669

>  <r_i_glide_evdw>  (299) 
-19.773

>  <r_i_glide_ecoul>  (299) 
-0.190071

>  <r_i_glide_erotb>  (299) 
0

>  <r_i_glide_esite>  (299) 
-0.0207704

>  <r_i_glide_emodel>  (299) 
-25.2031

>  <r_i_glide_energy>  (299) 
-19.963

>  <r_i_glide_einternal>  (299) 
0

>  <r_i_glide_intrahb_reward>  (299) 
-0

>  <i_i_glide_confnum>  (299) 
1

>  <i_i_glide_posenum>  (299) 
5

>  <r_i_glide_eff_state_penalty>  (299) 
0

>  <ligand_id>  (299) 
98

>  <original_smiles>  (299) 
CC12CC(OC(=N)N1)c1ccccc1C2=O

>  <smiles>  (299) 
[H]c1c([H])c([H])c2c(c1[H])C(=O)C1(C([H])([H])[H])[N+]([H])=C(N([H])[H])OC2([H])C1([H])[H]

$$$$
98:1:0
     RDKit          3D

 28 30  0  0  1  0  0  0  0  0999 V2000
    6.8966   -3.6708    1.0327 C   0  0  0  0  0  0  0  0  0  0  0  0
    5.5149   -3.3641    0.4400 C   0  0  1  0  0  0  0  0  0  0  0  0
    4.7241   -4.6630    0.1965 C   0  0  0  0  0  0  0  0  0  0  0  0
    3.3041   -4.2235   -0.1834 C   0  0  1  0  0  0  0  0  0  0  0  0
    2.7342   -3.4877    0.9015 O   0  0  0  0  0  0  0  0  0  0  0  0
    3.5388   -2.5828    1.5631 C   0  0  0  0  0  0  0  0  0  0  0  0
    2.8165   -1.8129    2.4441 N   0  0  0  0  0  0  0  0  0  0  0  0
    4.8218   -2.4837    1.3900 N   0  0  0  0  0  0  0  0  0  0  0  0
    3.3147   -3.3933   -1.4617 C   0  0  0  0  0  0  0  0  0  0  0  0
    2.2021   -3.4154   -2.3260 C   0  0  0  0  0  0  0  0  0  0  0  0
    2.2160   -2.6641   -3.5214 C   0  0  0  0  0  0  0  0  0  0  0  0
    3.3356   -1.8809   -3.8461 C   0  0  0  0  0  0  0  0  0  0  0  0
    4.4364   -1.8423   -2.9733 C   0  0  0  0  0  0  0  0  0  0  0  0
    4.4395   -2.5948   -1.7827 C   0  0  0  0  0  0  0  0  0  0  0  0
    5.6135   -2.5332   -0.8677 C   0  0  0  0  0  0  0  0  0  0  0  0
    6.6161   -1.8559   -1.1015 O   0  0  0  0  0  0  0  0  0  0  0  0
    7.5121   -4.2854    0.3721 H   0  0  0  0  0  0  0  0  0  0  0  0
    6.7835   -4.1968    1.9841 H   0  0  0  0  0  0  0  0  0  0  0  0
    7.4347   -2.7462    1.2498 H   0  0  0  0  0  0  0  0  0  0  0  0
    5.1697   -5.2524   -0.6076 H   0  0  0  0  0  0  0  0  0  0  0  0
    4.7095   -5.2875    1.0949 H   0  0  0  0  0  0  0  0  0  0  0  0
    2.6910   -5.1106   -0.3356 H   0  0  0  0  0  0  0  0  0  0  0  0
    3.2379   -1.0657    2.9775 H   0  0  0  0  0  0  0  0  0  0  0  0
    1.3417   -4.0199   -2.0812 H   0  0  0  0  0  0  0  0  0  0  0  0
    1.3599   -2.6908   -4.1802 H   0  0  0  0  0  0  0  0  0  0  0  0
    3.3300   -1.2905   -4.7554 H   0  0  0  0  0  0  0  0  0  0  0  0
    5.2819   -1.2216   -3.1969 H   0  0  0  0  0  0  0  0  0  0  0  0
    1.8253   -1.9121    2.6040 H   0  0  0  0  0  0  0  0  0  0  0  0
  2  1  1  1
  1 17  1  0
  1 18  1  0
  1 19  1  0
  2  8  1  0
  2 15  1  0
  2  3  1  0
  3  4  1  0
  3 20  1  0
  3 21  1  0
  4  5  1  0
  4  9  1  0
  4 22  1  6
  5  6  1  0
  6  7  1  0
  6  8  2  0
  7 23  1  0
  7 28  1  0
  9 14  2  0
  9 10  1  0
 10 11  2  0
 10 24  1  0
 11 12  1  0
 11 25  1  0
 12 13  2  0
 12 26  1  0
 13 14  1  0
 13 27  1  0
 14 15  1  0
 15 16  2  0
M  END
>  <i_m_ct_stereo_status>  (300) 
1

>  <s_m_source_file>  (300) 
/var/tmp/pbs.5076255.sched01/tmpajq2dbrl/12675ddggds.sdf

>  <i_m_source_file_index>  (300) 
15

>  <i_lp_mmshare_version>  (300) 
48012

>  <i_f3d_flags>  (300) 
0

>  <s_epik_input>  (300) 
W0hdL049QyhbTkhdMSlcT1tDQEhdKFtDSDJdW0NAXTEyW0NIM10pYzNjKEMyPU8pW2NIXVtjSF1bY0hdW2NIXTM=

>  <s_epik_cmdline>  (300) 
J2VwaWtfcHl0aG9uJywgJy1waHQnLCAnMi4wJywgJy1waCcsICc3LjAnLCAnLXRuJywgJzgnLCAnLW1hJywgJzIwMCcsICctaW1hZScsICc8aW5maWxlLm1hZT4nLCAnLW9tYWUnLCAnPG91dGZpbGUubWFlPic=

>  <r_epik_Ionization_Penalty>  (300) 
0.472058

>  <r_epik_Ionization_Penalty_Charging>  (300) 
0

>  <r_epik_Ionization_Penalty_Neutral>  (300) 
0.472058

>  <r_epik_State_Penalty>  (300) 
0.511134

>  <r_epik_Charging_Adjusted_Penalty>  (300) 
0.511134

>  <i_epik_Tot_Q>  (300) 
0

>  <i_epik_Tot_abs_Q>  (300) 
0

>  <s_epik_Chemistry_Notes>  (300) 
This compound has an imine and may undergo hydrolysis.

>  <s_lp_Force_Field>  (300) 
OPLS3e

>  <r_lp_Energy>  (300) 
14.6125

>  <b_lp_Chiralities_Consistent>  (300) 
1

>  <s_lp_Variant>  (300) 
98:0-2

>  <s_i_glide_gridfile>  (300) 
pfpi4k_grid

>  <i_i_glide_lignum>  (300) 
15

>  <i_i_glide_rotatable_bonds>  (300) 
0

>  <r_i_docking_score>  (300) 
-4.49681

>  <r_i_glide_ligand_efficiency>  (300) 
-0.281051

>  <r_i_glide_ligand_efficiency_sa>  (300) 
-0.708203

>  <r_i_glide_ligand_efficiency_ln>  (300) 
-1.19197

>  <r_i_glide_gscore>  (300) 
-4.49681

>  <r_i_glide_lipo>  (300) 
-0.90593

>  <r_i_glide_hbond>  (300) 
-0.16

>  <r_i_glide_metal>  (300) 
-0

>  <r_i_glide_rewards>  (300) 
-1.93476

>  <r_i_glide_evdw>  (300) 
-19.613

>  <r_i_glide_ecoul>  (300) 
-3.26957

>  <r_i_glide_erotb>  (300) 
0

>  <r_i_glide_esite>  (300) 
-0.0250385

>  <r_i_glide_emodel>  (300) 
-29.8108

>  <r_i_glide_energy>  (300) 
-22.8826

>  <r_i_glide_einternal>  (300) 
0

>  <r_i_glide_intrahb_reward>  (300) 
-0

>  <i_i_glide_confnum>  (300) 
1

>  <i_i_glide_posenum>  (300) 
1

>  <r_i_glide_eff_state_penalty>  (300) 
0

>  <ligand_id>  (300) 
98

>  <original_smiles>  (300) 
CC12CC(OC(=N)N1)c1ccccc1C2=O

>  <smiles>  (300) 
[H]c1c([H])c([H])c2c(c1[H])C(=O)C1(C([H])([H])[H])N=C(N([H])[H])OC2([H])C1([H])[H]

$$$$
98:1:1
     RDKit          3D

 28 30  0  0  1  0  0  0  0  0999 V2000
    6.5358   -4.6577    1.4509 C   0  0  0  0  0  0  0  0  0  0  0  0
    5.3760   -3.9359    0.7440 C   0  0  1  0  0  0  0  0  0  0  0  0
    4.1715   -4.8793    0.5558 C   0  0  0  0  0  0  0  0  0  0  0  0
    3.0164   -3.9997    0.0511 C   0  0  1  0  0  0  0  0  0  0  0  0
    2.7268   -3.0116    1.0445 O   0  0  0  0  0  0  0  0  0  0  0  0
    3.7877   -2.3904    1.6715 C   0  0  0  0  0  0  0  0  0  0  0  0
    3.3757   -1.3225    2.4361 N   0  0  0  0  0  0  0  0  0  0  0  0
    5.0245   -2.7692    1.5672 N   0  0  0  0  0  0  0  0  0  0  0  0
    3.3598   -3.3564   -1.2871 C   0  0  0  0  0  0  0  0  0  0  0  0
    2.3363   -3.0630   -2.2142 C   0  0  0  0  0  0  0  0  0  0  0  0
    2.6531   -2.4812   -3.4614 C   0  0  0  0  0  0  0  0  0  0  0  0
    3.9944   -2.1963   -3.7752 C   0  0  0  0  0  0  0  0  0  0  0  0
    5.0130   -2.4973   -2.8540 C   0  0  0  0  0  0  0  0  0  0  0  0
    4.7098   -3.0625   -1.6011 C   0  0  0  0  0  0  0  0  0  0  0  0
    5.8046   -3.3378   -0.6202 C   0  0  0  0  0  0  0  0  0  0  0  0
    6.9888   -3.0889   -0.8477 O   0  0  0  0  0  0  0  0  0  0  0  0
    6.8968   -5.5164    0.8834 H   0  0  0  0  0  0  0  0  0  0  0  0
    6.2142   -5.0102    2.4338 H   0  0  0  0  0  0  0  0  0  0  0  0
    7.3772   -3.9791    1.6247 H   0  0  0  0  0  0  0  0  0  0  0  0
    4.3966   -5.6688   -0.1660 H   0  0  0  0  0  0  0  0  0  0  0  0
    3.9036   -5.3646    1.5006 H   0  0  0  0  0  0  0  0  0  0  0  0
    2.1352   -4.6239   -0.0777 H   0  0  0  0  0  0  0  0  0  0  0  0
    4.0281   -0.7361    2.9375 H   0  0  0  0  0  0  0  0  0  0  0  0
    1.3037   -3.2725   -1.9740 H   0  0  0  0  0  0  0  0  0  0  0  0
    1.8627   -2.2616   -4.1658 H   0  0  0  0  0  0  0  0  0  0  0  0
    4.2392   -1.7348   -4.7183 H   0  0  0  0  0  0  0  0  0  0  0  0
    6.0382   -2.2895   -3.1040 H   0  0  0  0  0  0  0  0  0  0  0  0
    2.4113   -1.0492    2.5504 H   0  0  0  0  0  0  0  0  0  0  0  0
  2  1  1  1
  1 17  1  0
  1 18  1  0
  1 19  1  0
  2  8  1  0
  2 15  1  0
  2  3  1  0
  3  4  1  0
  3 20  1  0
  3 21  1  0
  4  5  1  0
  4  9  1  0
  4 22  1  6
  5  6  1  0
  6  7  1  0
  6  8  2  0
  7 23  1  0
  7 28  1  0
  9 14  2  0
  9 10  1  0
 10 11  2  0
 10 24  1  0
 11 12  1  0
 11 25  1  0
 12 13  2  0
 12 26  1  0
 13 14  1  0
 13 27  1  0
 14 15  1  0
 15 16  2  0
M  END
>  <i_m_ct_stereo_status>  (301) 
1

>  <s_m_source_file>  (301) 
/var/tmp/pbs.5076255.sched01/tmpajq2dbrl/12675ddggds.sdf

>  <i_m_source_file_index>  (301) 
15

>  <i_lp_mmshare_version>  (301) 
48012

>  <i_f3d_flags>  (301) 
0

>  <s_epik_input>  (301) 
W0hdL049QyhbTkhdMSlcT1tDQEhdKFtDSDJdW0NAXTEyW0NIM10pYzNjKEMyPU8pW2NIXVtjSF1bY0hdW2NIXTM=

>  <s_epik_cmdline>  (301) 
J2VwaWtfcHl0aG9uJywgJy1waHQnLCAnMi4wJywgJy1waCcsICc3LjAnLCAnLXRuJywgJzgnLCAnLW1hJywgJzIwMCcsICctaW1hZScsICc8aW5maWxlLm1hZT4nLCAnLW9tYWUnLCAnPG91dGZpbGUubWFlPic=

>  <r_epik_Ionization_Penalty>  (301) 
0.472058

>  <r_epik_Ionization_Penalty_Charging>  (301) 
0

>  <r_epik_Ionization_Penalty_Neutral>  (301) 
0.472058

>  <r_epik_State_Penalty>  (301) 
0.511134

>  <r_epik_Charging_Adjusted_Penalty>  (301) 
0.511134

>  <i_epik_Tot_Q>  (301) 
0

>  <i_epik_Tot_abs_Q>  (301) 
0

>  <s_epik_Chemistry_Notes>  (301) 
This compound has an imine and may undergo hydrolysis.

>  <s_lp_Force_Field>  (301) 
OPLS3e

>  <r_lp_Energy>  (301) 
14.6125

>  <b_lp_Chiralities_Consistent>  (301) 
1

>  <s_lp_Variant>  (301) 
98:0-2

>  <s_i_glide_gridfile>  (301) 
pfpi4k_grid

>  <i_i_glide_lignum>  (301) 
15

>  <i_i_glide_rotatable_bonds>  (301) 
0

>  <r_i_docking_score>  (301) 
-3.89333

>  <r_i_glide_ligand_efficiency>  (301) 
-0.243333

>  <r_i_glide_ligand_efficiency_sa>  (301) 
-0.613162

>  <r_i_glide_ligand_efficiency_ln>  (301) 
-1.03201

>  <r_i_glide_gscore>  (301) 
-3.89333

>  <r_i_glide_lipo>  (301) 
-0.786535

>  <r_i_glide_hbond>  (301) 
0

>  <r_i_glide_metal>  (301) 
-0

>  <r_i_glide_rewards>  (301) 
-2.03843

>  <r_i_glide_evdw>  (301) 
-21.7216

>  <r_i_glide_ecoul>  (301) 
0.156417

>  <r_i_glide_erotb>  (301) 
0

>  <r_i_glide_esite>  (301) 
-0.0057538

>  <r_i_glide_emodel>  (301) 
-27.5477

>  <r_i_glide_energy>  (301) 
-21.5652

>  <r_i_glide_einternal>  (301) 
0

>  <r_i_glide_intrahb_reward>  (301) 
-0

>  <i_i_glide_confnum>  (301) 
2

>  <i_i_glide_posenum>  (301) 
34

>  <r_i_glide_eff_state_penalty>  (301) 
0

>  <ligand_id>  (301) 
98

>  <original_smiles>  (301) 
CC12CC(OC(=N)N1)c1ccccc1C2=O

>  <smiles>  (301) 
[H]c1c([H])c([H])c2c(c1[H])C(=O)C1(C([H])([H])[H])N=C(N([H])[H])OC2([H])C1([H])[H]

$$$$
98:1:2
     RDKit          3D

 28 30  0  0  1  0  0  0  0  0999 V2000
    3.1834   -3.4133    2.3892 C   0  0  0  0  0  0  0  0  0  0  0  0
    3.8171   -2.8992    1.0853 C   0  0  1  0  0  0  0  0  0  0  0  0
    3.8718   -1.3626    1.0673 C   0  0  0  0  0  0  0  0  0  0  0  0
    4.7175   -0.9780   -0.1530 C   0  0  1  0  0  0  0  0  0  0  0  0
    6.0321   -1.5205   -0.0115 O   0  0  0  0  0  0  0  0  0  0  0  0
    6.1419   -2.8039    0.4814 C   0  0  0  0  0  0  0  0  0  0  0  0
    7.4293   -3.2805    0.3822 N   0  0  0  0  0  0  0  0  0  0  0  0
    5.1609   -3.4786    1.0025 N   0  0  0  0  0  0  0  0  0  0  0  0
    4.0691   -1.4691   -1.4459 C   0  0  0  0  0  0  0  0  0  0  0  0
    4.2523   -0.7506   -2.6479 C   0  0  0  0  0  0  0  0  0  0  0  0
    3.6505   -1.1989   -3.8411 C   0  0  0  0  0  0  0  0  0  0  0  0
    2.8496   -2.3564   -3.8204 C   0  0  0  0  0  0  0  0  0  0  0  0
    2.6513   -3.0614   -2.6243 C   0  0  0  0  0  0  0  0  0  0  0  0
    3.2782   -2.6448   -1.4349 C   0  0  0  0  0  0  0  0  0  0  0  0
    3.0732   -3.4202   -0.1715 C   0  0  0  0  0  0  0  0  0  0  0  0
    2.3598   -4.4197   -0.0872 O   0  0  0  0  0  0  0  0  0  0  0  0
    2.1585   -3.0606    2.5106 H   0  0  0  0  0  0  0  0  0  0  0  0
    3.7622   -3.0737    3.2506 H   0  0  0  0  0  0  0  0  0  0  0  0
    3.1764   -4.5046    2.4261 H   0  0  0  0  0  0  0  0  0  0  0  0
    2.8703   -0.9335    0.9890 H   0  0  0  0  0  0  0  0  0  0  0  0
    4.3213   -0.9692    1.9830 H   0  0  0  0  0  0  0  0  0  0  0  0
    4.7894    0.1063   -0.1884 H   0  0  0  0  0  0  0  0  0  0  0  0
    7.6757   -4.2059    0.6946 H   0  0  0  0  0  0  0  0  0  0  0  0
    4.8559    0.1489   -2.6558 H   0  0  0  0  0  0  0  0  0  0  0  0
    3.7886   -0.6490   -4.7633 H   0  0  0  0  0  0  0  0  0  0  0  0
    2.3640   -2.7172   -4.7076 H   0  0  0  0  0  0  0  0  0  0  0  0
    2.0189   -3.9338   -2.6307 H   0  0  0  0  0  0  0  0  0  0  0  0
    8.2268   -2.7441    0.0681 H   0  0  0  0  0  0  0  0  0  0  0  0
  2  1  1  1
  1 17  1  0
  1 18  1  0
  1 19  1  0
  2  8  1  0
  2 15  1  0
  2  3  1  0
  3  4  1  0
  3 20  1  0
  3 21  1  0
  4  5  1  0
  4  9  1  0
  4 22  1  6
  5  6  1  0
  6  7  1  0
  6  8  2  0
  7 23  1  0
  7 28  1  0
  9 14  2  0
  9 10  1  0
 10 11  2  0
 10 24  1  0
 11 12  1  0
 11 25  1  0
 12 13  2  0
 12 26  1  0
 13 14  1  0
 13 27  1  0
 14 15  1  0
 15 16  2  0
M  END
>  <i_m_ct_stereo_status>  (302) 
1

>  <s_m_source_file>  (302) 
/var/tmp/pbs.5076255.sched01/tmpajq2dbrl/12675ddggds.sdf

>  <i_m_source_file_index>  (302) 
15

>  <i_lp_mmshare_version>  (302) 
48012

>  <i_f3d_flags>  (302) 
0

>  <s_epik_input>  (302) 
W0hdL049QyhbTkhdMSlcT1tDQEhdKFtDSDJdW0NAXTEyW0NIM10pYzNjKEMyPU8pW2NIXVtjSF1bY0hdW2NIXTM=

>  <s_epik_cmdline>  (302) 
J2VwaWtfcHl0aG9uJywgJy1waHQnLCAnMi4wJywgJy1waCcsICc3LjAnLCAnLXRuJywgJzgnLCAnLW1hJywgJzIwMCcsICctaW1hZScsICc8aW5maWxlLm1hZT4nLCAnLW9tYWUnLCAnPG91dGZpbGUubWFlPic=

>  <r_epik_Ionization_Penalty>  (302) 
0.472058

>  <r_epik_Ionization_Penalty_Charging>  (302) 
0

>  <r_epik_Ionization_Penalty_Neutral>  (302) 
0.472058

>  <r_epik_State_Penalty>  (302) 
0.511134

>  <r_epik_Charging_Adjusted_Penalty>  (302) 
0.511134

>  <i_epik_Tot_Q>  (302) 
0

>  <i_epik_Tot_abs_Q>  (302) 
0

>  <s_epik_Chemistry_Notes>  (302) 
This compound has an imine and may undergo hydrolysis.

>  <s_lp_Force_Field>  (302) 
OPLS3e

>  <r_lp_Energy>  (302) 
14.6125

>  <b_lp_Chiralities_Consistent>  (302) 
1

>  <s_lp_Variant>  (302) 
98:0-2

>  <s_i_glide_gridfile>  (302) 
pfpi4k_grid

>  <i_i_glide_lignum>  (302) 
15

>  <i_i_glide_rotatable_bonds>  (302) 
0

>  <r_i_docking_score>  (302) 
-3.81763

>  <r_i_glide_ligand_efficiency>  (302) 
-0.238602

>  <r_i_glide_ligand_efficiency_sa>  (302) 
-0.60124

>  <r_i_glide_ligand_efficiency_ln>  (302) 
-1.01194

>  <r_i_glide_gscore>  (302) 
-3.81763

>  <r_i_glide_lipo>  (302) 
-0.392022

>  <r_i_glide_hbond>  (302) 
0

>  <r_i_glide_metal>  (302) 
-0

>  <r_i_glide_rewards>  (302) 
-2.0465

>  <r_i_glide_evdw>  (302) 
-22.9996

>  <r_i_glide_ecoul>  (302) 
-1.52756

>  <r_i_glide_erotb>  (302) 
0

>  <r_i_glide_esite>  (302) 
0

>  <r_i_glide_emodel>  (302) 
-30.3828

>  <r_i_glide_energy>  (302) 
-24.5271

>  <r_i_glide_einternal>  (302) 
0

>  <r_i_glide_intrahb_reward>  (302) 
-0

>  <i_i_glide_confnum>  (302) 
1

>  <i_i_glide_posenum>  (302) 
2

>  <r_i_glide_eff_state_penalty>  (302) 
0

>  <ligand_id>  (302) 
98

>  <original_smiles>  (302) 
CC12CC(OC(=N)N1)c1ccccc1C2=O

>  <smiles>  (302) 
[H]c1c([H])c([H])c2c(c1[H])C(=O)C1(C([H])([H])[H])N=C(N([H])[H])OC2([H])C1([H])[H]

$$$$
98:2:0
     RDKit          3D

 28 30  0  0  1  0  0  0  0  0999 V2000
    5.1464   -4.2015    2.4284 C   0  0  0  0  0  0  0  0  0  0  0  0
    5.4437   -3.4842    1.0923 C   0  0  1  0  0  0  0  0  0  0  0  0
    5.5345   -1.9687    1.3065 C   0  0  0  0  0  0  0  0  0  0  0  0
    5.9810   -1.3815   -0.0425 C   0  0  1  0  0  0  0  0  0  0  0  0
    7.2807   -1.8794   -0.4175 O   0  0  0  0  0  0  0  0  0  0  0  0
    7.6028   -3.2104   -0.2098 C   0  0  0  0  0  0  0  0  0  0  0  0
    8.6623   -3.7034   -0.7395 N   0  0  0  0  0  0  0  0  0  0  0  0
    6.7484   -3.9347    0.6156 N   0  0  0  0  0  0  0  0  0  0  0  0
    4.9455   -1.6592   -1.1280 C   0  0  0  0  0  0  0  0  0  0  0  0
    4.7613   -0.7559   -2.1962 C   0  0  0  0  0  0  0  0  0  0  0  0
    3.8136   -1.0144   -3.2059 C   0  0  0  0  0  0  0  0  0  0  0  0
    3.0326   -2.1838   -3.1442 C   0  0  0  0  0  0  0  0  0  0  0  0
    3.2032   -3.0807   -2.0732 C   0  0  0  0  0  0  0  0  0  0  0  0
    4.1628   -2.8367   -1.0665 C   0  0  0  0  0  0  0  0  0  0  0  0
    4.3507   -3.8147    0.0462 C   0  0  0  0  0  0  0  0  0  0  0  0
    3.7098   -4.8635    0.1457 O   0  0  0  0  0  0  0  0  0  0  0  0
    4.1818   -3.9093    2.8480 H   0  0  0  0  0  0  0  0  0  0  0  0
    5.9071   -3.9696    3.1740 H   0  0  0  0  0  0  0  0  0  0  0  0
    5.1444   -5.2876    2.3115 H   0  0  0  0  0  0  0  0  0  0  0  0
    4.5758   -1.5473    1.6152 H   0  0  0  0  0  0  0  0  0  0  0  0
    6.2580   -1.7193    2.0862 H   0  0  0  0  0  0  0  0  0  0  0  0
    6.0733   -0.3004    0.0733 H   0  0  0  0  0  0  0  0  0  0  0  0
    9.1678   -3.0257   -1.3041 H   0  0  0  0  0  0  0  0  0  0  0  0
    6.8573   -4.9383    0.6830 H   0  0  0  0  0  0  0  0  0  0  0  0
    5.3543    0.1402   -2.2595 H   0  0  0  0  0  0  0  0  0  0  0  0
    3.6775   -0.3120   -4.0172 H   0  0  0  0  0  0  0  0  0  0  0  0
    2.2953   -2.3909   -3.9112 H   0  0  0  0  0  0  0  0  0  0  0  0
    2.5931   -3.9668   -2.0353 H   0  0  0  0  0  0  0  0  0  0  0  0
  2  1  1  1
  1 17  1  0
  1 18  1  0
  1 19  1  0
  2  8  1  0
  2 15  1  0
  2  3  1  0
  3  4  1  0
  3 20  1  0
  3 21  1  0
  4  5  1  0
  4  9  1  0
  4 22  1  1
  5  6  1  0
  6  7  2  3
  6  8  1  0
  7 23  1  0
  8 24  1  0
  9 14  2  0
  9 10  1  0
 10 11  2  0
 10 25  1  0
 11 12  1  0
 11 26  1  0
 12 13  2  0
 12 27  1  0
 13 14  1  0
 13 28  1  0
 14 15  1  0
 15 16  2  0
M  END
>  <i_m_ct_stereo_status>  (303) 
1

>  <s_m_source_file>  (303) 
/var/tmp/pbs.5076255.sched01/tmpajq2dbrl/12675ddggds.sdf

>  <i_m_source_file_index>  (303) 
16

>  <i_lp_mmshare_version>  (303) 
48012

>  <i_f3d_flags>  (303) 
0

>  <s_epik_input>  (303) 
W0hdL049QyhbTkhdMSlcT1tDQEhdKFtDSDJdW0NAXTEyW0NIM10pYzNjKEMyPU8pW2NIXVtjSF1bY0hdW2NIXTM=

>  <s_epik_cmdline>  (303) 
J2VwaWtfcHl0aG9uJywgJy1waHQnLCAnMi4wJywgJy1waCcsICc3LjAnLCAnLXRuJywgJzgnLCAnLW1hJywgJzIwMCcsICctaW1hZScsICc8aW5maWxlLm1hZT4nLCAnLW9tYWUnLCAnPG91dGZpbGUubWFlPic=

>  <r_epik_Ionization_Penalty>  (303) 
1.46101

>  <r_epik_Ionization_Penalty_Charging>  (303) 
0

>  <r_epik_Ionization_Penalty_Neutral>  (303) 
1.46101

>  <r_epik_State_Penalty>  (303) 
2.10831

>  <r_epik_Charging_Adjusted_Penalty>  (303) 
2.10831

>  <i_epik_Tot_Q>  (303) 
0

>  <i_epik_Tot_abs_Q>  (303) 
0

>  <s_epik_Chemistry_Notes>  (303) 
This compound has an imine and may undergo hydrolysis.

>  <s_lp_Force_Field>  (303) 
OPLS3e

>  <r_lp_Energy>  (303) 
21.4172

>  <b_lp_Chiralities_Consistent>  (303) 
1

>  <s_lp_Variant>  (303) 
98:0-3

>  <s_i_glide_gridfile>  (303) 
pfpi4k_grid

>  <i_i_glide_lignum>  (303) 
16

>  <i_i_glide_rotatable_bonds>  (303) 
0

>  <r_i_docking_score>  (303) 
-4.54983

>  <r_i_glide_ligand_efficiency>  (303) 
-0.284364

>  <r_i_glide_ligand_efficiency_sa>  (303) 
-0.716553

>  <r_i_glide_ligand_efficiency_ln>  (303) 
-1.20602

>  <r_i_glide_gscore>  (303) 
-4.54983

>  <r_i_glide_lipo>  (303) 
-0.350102

>  <r_i_glide_hbond>  (303) 
-0.264641

>  <r_i_glide_metal>  (303) 
-0

>  <r_i_glide_rewards>  (303) 
-2.18393

>  <r_i_glide_evdw>  (303) 
-22.5579

>  <r_i_glide_ecoul>  (303) 
-4.15514

>  <r_i_glide_erotb>  (303) 
0

>  <r_i_glide_esite>  (303) 
0

>  <r_i_glide_emodel>  (303) 
-34.5146

>  <r_i_glide_energy>  (303) 
-26.713

>  <r_i_glide_einternal>  (303) 
0

>  <r_i_glide_intrahb_reward>  (303) 
-0

>  <i_i_glide_confnum>  (303) 
1

>  <i_i_glide_posenum>  (303) 
5

>  <r_i_glide_eff_state_penalty>  (303) 
0

>  <ligand_id>  (303) 
98

>  <original_smiles>  (303) 
CC12CC(OC(=N)N1)c1ccccc1C2=O

>  <smiles>  (303) 
[H]N=C1OC2([H])c3c([H])c([H])c([H])c([H])c3C(=O)C(C([H])([H])[H])(N1[H])C2([H])[H]

$$$$
98:2:1
     RDKit          3D

 28 30  0  0  1  0  0  0  0  0999 V2000
    6.9077   -3.8417    0.9690 C   0  0  0  0  0  0  0  0  0  0  0  0
    5.5060   -3.4603    0.4478 C   0  0  1  0  0  0  0  0  0  0  0  0
    4.6874   -4.7221    0.1470 C   0  0  0  0  0  0  0  0  0  0  0  0
    3.2759   -4.2245   -0.2072 C   0  0  1  0  0  0  0  0  0  0  0  0
    2.6739   -3.5299    0.8999 O   0  0  0  0  0  0  0  0  0  0  0  0
    3.4296   -2.6566    1.6562 C   0  0  0  0  0  0  0  0  0  0  0  0
    2.8383   -1.8649    2.4724 N   0  0  0  0  0  0  0  0  0  0  0  0
    4.8115   -2.7285    1.5058 N   0  0  0  0  0  0  0  0  0  0  0  0
    3.3140   -3.3597   -1.4612 C   0  0  0  0  0  0  0  0  0  0  0  0
    2.2182   -3.3486   -2.3492 C   0  0  0  0  0  0  0  0  0  0  0  0
    2.2600   -2.5667   -3.5187 C   0  0  0  0  0  0  0  0  0  0  0  0
    3.3828   -1.7589   -3.7872 C   0  0  0  0  0  0  0  0  0  0  0  0
    4.4750   -1.7669   -2.9005 C   0  0  0  0  0  0  0  0  0  0  0  0
    4.4551   -2.5706   -1.7422 C   0  0  0  0  0  0  0  0  0  0  0  0
    5.6176   -2.5727   -0.8145 C   0  0  0  0  0  0  0  0  0  0  0  0
    6.6223   -1.8795   -0.9975 O   0  0  0  0  0  0  0  0  0  0  0  0
    7.4911   -4.3973    0.2310 H   0  0  0  0  0  0  0  0  0  0  0  0
    6.8273   -4.4593    1.8662 H   0  0  0  0  0  0  0  0  0  0  0  0
    7.4765   -2.9540    1.2522 H   0  0  0  0  0  0  0  0  0  0  0  0
    5.1189   -5.2961   -0.6752 H   0  0  0  0  0  0  0  0  0  0  0  0
    4.6509   -5.3832    1.0163 H   0  0  0  0  0  0  0  0  0  0  0  0
    2.6503   -5.0930   -0.4090 H   0  0  0  0  0  0  0  0  0  0  0  0
    1.8414   -1.9947    2.4159 H   0  0  0  0  0  0  0  0  0  0  0  0
    5.3911   -2.0196    1.9364 H   0  0  0  0  0  0  0  0  0  0  0  0
    1.3456   -3.9416   -2.1357 H   0  0  0  0  0  0  0  0  0  0  0  0
    1.4111   -2.5538   -4.1878 H   0  0  0  0  0  0  0  0  0  0  0  0
    3.3882   -1.1223   -4.6614 H   0  0  0  0  0  0  0  0  0  0  0  0
    5.3218   -1.1373   -3.1024 H   0  0  0  0  0  0  0  0  0  0  0  0
  2  1  1  1
  1 17  1  0
  1 18  1  0
  1 19  1  0
  2  8  1  0
  2 15  1  0
  2  3  1  0
  3  4  1  0
  3 20  1  0
  3 21  1  0
  4  5  1  0
  4  9  1  0
  4 22  1  6
  5  6  1  0
  6  7  2  3
  6  8  1  0
  7 23  1  0
  8 24  1  0
  9 14  2  0
  9 10  1  0
 10 11  2  0
 10 25  1  0
 11 12  1  0
 11 26  1  0
 12 13  2  0
 12 27  1  0
 13 14  1  0
 13 28  1  0
 14 15  1  0
 15 16  2  0
M  END
>  <i_m_ct_stereo_status>  (304) 
1

>  <s_m_source_file>  (304) 
/var/tmp/pbs.5076255.sched01/tmpajq2dbrl/12675ddggds.sdf

>  <i_m_source_file_index>  (304) 
16

>  <i_lp_mmshare_version>  (304) 
48012

>  <i_f3d_flags>  (304) 
0

>  <s_epik_input>  (304) 
W0hdL049QyhbTkhdMSlcT1tDQEhdKFtDSDJdW0NAXTEyW0NIM10pYzNjKEMyPU8pW2NIXVtjSF1bY0hdW2NIXTM=

>  <s_epik_cmdline>  (304) 
J2VwaWtfcHl0aG9uJywgJy1waHQnLCAnMi4wJywgJy1waCcsICc3LjAnLCAnLXRuJywgJzgnLCAnLW1hJywgJzIwMCcsICctaW1hZScsICc8aW5maWxlLm1hZT4nLCAnLW9tYWUnLCAnPG91dGZpbGUubWFlPic=

>  <r_epik_Ionization_Penalty>  (304) 
1.46101

>  <r_epik_Ionization_Penalty_Charging>  (304) 
0

>  <r_epik_Ionization_Penalty_Neutral>  (304) 
1.46101

>  <r_epik_State_Penalty>  (304) 
2.10831

>  <r_epik_Charging_Adjusted_Penalty>  (304) 
2.10831

>  <i_epik_Tot_Q>  (304) 
0

>  <i_epik_Tot_abs_Q>  (304) 
0

>  <s_epik_Chemistry_Notes>  (304) 
This compound has an imine and may undergo hydrolysis.

>  <s_lp_Force_Field>  (304) 
OPLS3e

>  <r_lp_Energy>  (304) 
21.4172

>  <b_lp_Chiralities_Consistent>  (304) 
1

>  <s_lp_Variant>  (304) 
98:0-3

>  <s_i_glide_gridfile>  (304) 
pfpi4k_grid

>  <i_i_glide_lignum>  (304) 
16

>  <i_i_glide_rotatable_bonds>  (304) 
0

>  <r_i_docking_score>  (304) 
-4.47196

>  <r_i_glide_ligand_efficiency>  (304) 
-0.279498

>  <r_i_glide_ligand_efficiency_sa>  (304) 
-0.70429

>  <r_i_glide_ligand_efficiency_ln>  (304) 
-1.18538

>  <r_i_glide_gscore>  (304) 
-4.47196

>  <r_i_glide_lipo>  (304) 
-0.932069

>  <r_i_glide_hbond>  (304) 
-0.16

>  <r_i_glide_metal>  (304) 
-0

>  <r_i_glide_rewards>  (304) 
-1.93476

>  <r_i_glide_evdw>  (304) 
-19.7834

>  <r_i_glide_ecoul>  (304) 
-2.93269

>  <r_i_glide_erotb>  (304) 
0

>  <r_i_glide_esite>  (304) 
-0.016068

>  <r_i_glide_emodel>  (304) 
-30.3986

>  <r_i_glide_energy>  (304) 
-22.7161

>  <r_i_glide_einternal>  (304) 
0

>  <r_i_glide_intrahb_reward>  (304) 
-0

>  <i_i_glide_confnum>  (304) 
1

>  <i_i_glide_posenum>  (304) 
2

>  <r_i_glide_eff_state_penalty>  (304) 
0

>  <ligand_id>  (304) 
98

>  <original_smiles>  (304) 
CC12CC(OC(=N)N1)c1ccccc1C2=O

>  <smiles>  (304) 
[H]N=C1OC2([H])c3c([H])c([H])c([H])c([H])c3C(=O)C(C([H])([H])[H])(N1[H])C2([H])[H]

$$$$
98:2:2
     RDKit          3D

 28 30  0  0  1  0  0  0  0  0999 V2000
    6.3510   -5.0453    1.5236 C   0  0  0  0  0  0  0  0  0  0  0  0
    5.2398   -4.2069    0.8526 C   0  0  1  0  0  0  0  0  0  0  0  0
    4.0295   -5.0909    0.5188 C   0  0  0  0  0  0  0  0  0  0  0  0
    2.9387   -4.1325    0.0087 C   0  0  1  0  0  0  0  0  0  0  0  0
    2.5703   -3.1882    1.0290 O   0  0  0  0  0  0  0  0  0  0  0  0
    3.5393   -2.6063    1.8216 C   0  0  0  0  0  0  0  0  0  0  0  0
    3.2332   -1.5941    2.5458 N   0  0  0  0  0  0  0  0  0  0  0  0
    4.7988   -3.1992    1.8090 N   0  0  0  0  0  0  0  0  0  0  0  0
    3.3860   -3.4308   -1.2638 C   0  0  0  0  0  0  0  0  0  0  0  0
    2.4422   -3.0599   -2.2505 C   0  0  0  0  0  0  0  0  0  0  0  0
    2.8581   -2.4079   -3.4252 C   0  0  0  0  0  0  0  0  0  0  0  0
    4.2232   -2.1220   -3.6177 C   0  0  0  0  0  0  0  0  0  0  0  0
    5.1664   -2.5023   -2.6414 C   0  0  0  0  0  0  0  0  0  0  0  0
    4.7591   -3.1505   -1.4610 C   0  0  0  0  0  0  0  0  0  0  0  0
    5.7696   -3.5202   -0.4278 C   0  0  0  0  0  0  0  0  0  0  0  0
    6.9687   -3.2634   -0.5346 O   0  0  0  0  0  0  0  0  0  0  0  0
    6.7347   -5.8284    0.8669 H   0  0  0  0  0  0  0  0  0  0  0  0
    5.9763   -5.5259    2.4309 H   0  0  0  0  0  0  0  0  0  0  0  0
    7.1934   -4.4179    1.8254 H   0  0  0  0  0  0  0  0  0  0  0  0
    4.2740   -5.8462   -0.2348 H   0  0  0  0  0  0  0  0  0  0  0  0
    3.6784   -5.6280    1.4058 H   0  0  0  0  0  0  0  0  0  0  0  0
    2.0559   -4.7239   -0.2281 H   0  0  0  0  0  0  0  0  0  0  0  0
    2.2652   -1.3474    2.4048 H   0  0  0  0  0  0  0  0  0  0  0  0
    5.5668   -2.7266    2.2648 H   0  0  0  0  0  0  0  0  0  0  0  0
    1.3898   -3.2671   -2.1021 H   0  0  0  0  0  0  0  0  0  0  0  0
    2.1306   -2.1261   -4.1767 H   0  0  0  0  0  0  0  0  0  0  0  0
    4.5434   -1.6082   -4.5116 H   0  0  0  0  0  0  0  0  0  0  0  0
    6.2115   -2.2831   -2.7834 H   0  0  0  0  0  0  0  0  0  0  0  0
  2  1  1  1
  1 17  1  0
  1 18  1  0
  1 19  1  0
  2  8  1  0
  2 15  1  0
  2  3  1  0
  3  4  1  0
  3 20  1  0
  3 21  1  0
  4  5  1  0
  4  9  1  0
  4 22  1  6
  5  6  1  0
  6  7  2  3
  6  8  1  0
  7 23  1  0
  8 24  1  0
  9 14  2  0
  9 10  1  0
 10 11  2  0
 10 25  1  0
 11 12  1  0
 11 26  1  0
 12 13  2  0
 12 27  1  0
 13 14  1  0
 13 28  1  0
 14 15  1  0
 15 16  2  0
M  END
>  <i_m_ct_stereo_status>  (305) 
1

>  <s_m_source_file>  (305) 
/var/tmp/pbs.5076255.sched01/tmpajq2dbrl/12675ddggds.sdf

>  <i_m_source_file_index>  (305) 
16

>  <i_lp_mmshare_version>  (305) 
48012

>  <i_f3d_flags>  (305) 
0

>  <s_epik_input>  (305) 
W0hdL049QyhbTkhdMSlcT1tDQEhdKFtDSDJdW0NAXTEyW0NIM10pYzNjKEMyPU8pW2NIXVtjSF1bY0hdW2NIXTM=

>  <s_epik_cmdline>  (305) 
J2VwaWtfcHl0aG9uJywgJy1waHQnLCAnMi4wJywgJy1waCcsICc3LjAnLCAnLXRuJywgJzgnLCAnLW1hJywgJzIwMCcsICctaW1hZScsICc8aW5maWxlLm1hZT4nLCAnLW9tYWUnLCAnPG91dGZpbGUubWFlPic=

>  <r_epik_Ionization_Penalty>  (305) 
1.46101

>  <r_epik_Ionization_Penalty_Charging>  (305) 
0

>  <r_epik_Ionization_Penalty_Neutral>  (305) 
1.46101

>  <r_epik_State_Penalty>  (305) 
2.10831

>  <r_epik_Charging_Adjusted_Penalty>  (305) 
2.10831

>  <i_epik_Tot_Q>  (305) 
0

>  <i_epik_Tot_abs_Q>  (305) 
0

>  <s_epik_Chemistry_Notes>  (305) 
This compound has an imine and may undergo hydrolysis.

>  <s_lp_Force_Field>  (305) 
OPLS3e

>  <r_lp_Energy>  (305) 
21.4172

>  <b_lp_Chiralities_Consistent>  (305) 
1

>  <s_lp_Variant>  (305) 
98:0-3

>  <s_i_glide_gridfile>  (305) 
pfpi4k_grid

>  <i_i_glide_lignum>  (305) 
16

>  <i_i_glide_rotatable_bonds>  (305) 
0

>  <r_i_docking_score>  (305) 
-3.90575

>  <r_i_glide_ligand_efficiency>  (305) 
-0.244109

>  <r_i_glide_ligand_efficiency_sa>  (305) 
-0.615117

>  <r_i_glide_ligand_efficiency_ln>  (305) 
-1.0353

>  <r_i_glide_gscore>  (305) 
-3.90575

>  <r_i_glide_lipo>  (305) 
-0.815926

>  <r_i_glide_hbond>  (305) 
0

>  <r_i_glide_metal>  (305) 
-0

>  <r_i_glide_rewards>  (305) 
-2.02695

>  <r_i_glide_evdw>  (305) 
-21.4011

>  <r_i_glide_ecoul>  (305) 
0.0703854

>  <r_i_glide_erotb>  (305) 
0

>  <r_i_glide_esite>  (305) 
-0.00337914

>  <r_i_glide_emodel>  (305) 
-28.031

>  <r_i_glide_energy>  (305) 
-21.3307

>  <r_i_glide_einternal>  (305) 
0

>  <r_i_glide_intrahb_reward>  (305) 
-0

>  <i_i_glide_confnum>  (305) 
2

>  <i_i_glide_posenum>  (305) 
20

>  <r_i_glide_eff_state_penalty>  (305) 
0

>  <ligand_id>  (305) 
98

>  <original_smiles>  (305) 
CC12CC(OC(=N)N1)c1ccccc1C2=O

>  <smiles>  (305) 
[H]N=C1OC2([H])c3c([H])c([H])c([H])c([H])c3C(=O)C(C([H])([H])[H])(N1[H])C2([H])[H]

$$$$
98:3:0
     RDKit          3D

 28 30  0  0  1  0  0  0  0  0999 V2000
    3.2341   -3.3480    2.3759 C   0  0  0  0  0  0  0  0  0  0  0  0
    3.9015   -2.8662    1.0664 C   0  0  1  0  0  0  0  0  0  0  0  0
    3.9728   -1.3373    1.0317 C   0  0  0  0  0  0  0  0  0  0  0  0
    4.7863   -0.9830   -0.2222 C   0  0  1  0  0  0  0  0  0  0  0  0
    6.1212   -1.5097   -0.1393 O   0  0  0  0  0  0  0  0  0  0  0  0
    6.3309   -2.7822    0.3657 C   0  0  0  0  0  0  0  0  0  0  0  0
    7.4833   -3.3225    0.2117 N   0  0  0  0  0  0  0  0  0  0  0  0
    5.2694   -3.3694    1.0533 N   0  0  0  0  0  0  0  0  0  0  0  0
    4.0881   -1.4650   -1.4825 C   0  0  0  0  0  0  0  0  0  0  0  0
    4.2235   -0.7476   -2.6909 C   0  0  0  0  0  0  0  0  0  0  0  0
    3.5844   -1.1987   -3.8636 C   0  0  0  0  0  0  0  0  0  0  0  0
    2.7928   -2.3639   -3.8168 C   0  0  0  0  0  0  0  0  0  0  0  0
    2.6343   -3.0600   -2.6068 C   0  0  0  0  0  0  0  0  0  0  0  0
    3.2936   -2.6367   -1.4374 C   0  0  0  0  0  0  0  0  0  0  0  0
    3.1313   -3.3987   -0.1658 C   0  0  0  0  0  0  0  0  0  0  0  0
    2.4464   -4.4189   -0.0604 O   0  0  0  0  0  0  0  0  0  0  0  0
    2.2005   -3.0063    2.4547 H   0  0  0  0  0  0  0  0  0  0  0  0
    3.7774   -2.9750    3.2469 H   0  0  0  0  0  0  0  0  0  0  0  0
    3.2321   -4.4380    2.4459 H   0  0  0  0  0  0  0  0  0  0  0  0
    2.9785   -0.8908    0.9856 H   0  0  0  0  0  0  0  0  0  0  0  0
    4.4626   -0.9432    1.9260 H   0  0  0  0  0  0  0  0  0  0  0  0
    4.8665    0.1023   -0.2637 H   0  0  0  0  0  0  0  0  0  0  0  0
    5.2976   -4.3445    1.3186 H   0  0  0  0  0  0  0  0  0  0  0  0
    4.8199    0.1512   -2.7131 H   0  0  0  0  0  0  0  0  0  0  0  0
    3.6873   -0.6486   -4.7902 H   0  0  0  0  0  0  0  0  0  0  0  0
    2.2899   -2.7254   -4.6998 H   0  0  0  0  0  0  0  0  0  0  0  0
    2.0082   -3.9374   -2.5943 H   0  0  0  0  0  0  0  0  0  0  0  0
    7.5159   -4.2271    0.6614 H   0  0  0  0  0  0  0  0  0  0  0  0
  2  1  1  1
  1 17  1  0
  1 18  1  0
  1 19  1  0
  2  8  1  0
  2 15  1  0
  2  3  1  0
  3  4  1  0
  3 20  1  0
  3 21  1  0
  4  5  1  0
  4  9  1  0
  4 22  1  6
  5  6  1  0
  6  7  2  3
  6  8  1  0
  7 28  1  0
  8 23  1  0
  9 14  2  0
  9 10  1  0
 10 11  2  0
 10 24  1  0
 11 12  1  0
 11 25  1  0
 12 13  2  0
 12 26  1  0
 13 14  1  0
 13 27  1  0
 14 15  1  0
 15 16  2  0
M  END
>  <i_m_ct_stereo_status>  (306) 
1

>  <s_m_source_file>  (306) 
/var/tmp/pbs.5076255.sched01/tmpajq2dbrl/12675ddggds.sdf

>  <i_m_source_file_index>  (306) 
17

>  <i_lp_mmshare_version>  (306) 
48012

>  <i_f3d_flags>  (306) 
0

>  <s_epik_input>  (306) 
W0hdL049QyhbTkhdMSlcT1tDQEhdKFtDSDJdW0NAXTEyW0NIM10pYzNjKEMyPU8pW2NIXVtjSF1bY0hdW2NIXTM=

>  <s_epik_cmdline>  (306) 
J2VwaWtfcHl0aG9uJywgJy1waHQnLCAnMi4wJywgJy1waCcsICc3LjAnLCAnLXRuJywgJzgnLCAnLW1hJywgJzIwMCcsICctaW1hZScsICc8aW5maWxlLm1hZT4nLCAnLW9tYWUnLCAnPG91dGZpbGUubWFlPic=

>  <r_epik_Ionization_Penalty>  (306) 
1.46101

>  <r_epik_Ionization_Penalty_Charging>  (306) 
0

>  <r_epik_Ionization_Penalty_Neutral>  (306) 
1.46101

>  <r_epik_State_Penalty>  (306) 
2.10831

>  <r_epik_Charging_Adjusted_Penalty>  (306) 
2.10831

>  <i_epik_Tot_Q>  (306) 
0

>  <i_epik_Tot_abs_Q>  (306) 
0

>  <s_epik_Chemistry_Notes>  (306) 
This compound has an imine and may undergo hydrolysis.

>  <s_lp_Force_Field>  (306) 
OPLS3e

>  <r_lp_Energy>  (306) 
22.3442

>  <b_lp_Chiralities_Consistent>  (306) 
1

>  <s_lp_Variant>  (306) 
98:0-4

>  <s_i_glide_gridfile>  (306) 
pfpi4k_grid

>  <i_i_glide_lignum>  (306) 
17

>  <i_i_glide_rotatable_bonds>  (306) 
0

>  <r_i_docking_score>  (306) 
-4.03422

>  <r_i_glide_ligand_efficiency>  (306) 
-0.252139

>  <r_i_glide_ligand_efficiency_sa>  (306) 
-0.63535

>  <r_i_glide_ligand_efficiency_ln>  (306) 
-1.06935

>  <r_i_glide_gscore>  (306) 
-4.03422

>  <r_i_glide_lipo>  (306) 
-0.407371

>  <r_i_glide_hbond>  (306) 
-0.00391351

>  <r_i_glide_metal>  (306) 
-0

>  <r_i_glide_rewards>  (306) 
-2.07271

>  <r_i_glide_evdw>  (306) 
-23.1145

>  <r_i_glide_ecoul>  (306) 
-2.63002

>  <r_i_glide_erotb>  (306) 
0

>  <r_i_glide_esite>  (306) 
0

>  <r_i_glide_emodel>  (306) 
-32.2628

>  <r_i_glide_energy>  (306) 
-25.7445

>  <r_i_glide_einternal>  (306) 
0

>  <r_i_glide_intrahb_reward>  (306) 
-0

>  <i_i_glide_confnum>  (306) 
1

>  <i_i_glide_posenum>  (306) 
1

>  <r_i_glide_eff_state_penalty>  (306) 
0

>  <ligand_id>  (306) 
98

>  <original_smiles>  (306) 
CC12CC(OC(=N)N1)c1ccccc1C2=O

>  <smiles>  (306) 
[H]N=C1OC2([H])c3c([H])c([H])c([H])c([H])c3C(=O)C(C([H])([H])[H])(N1[H])C2([H])[H]

$$$$
98:3:1
     RDKit          3D

 28 30  0  0  1  0  0  0  0  0999 V2000
    6.8423   -4.0826    1.2160 C   0  0  0  0  0  0  0  0  0  0  0  0
    5.4989   -3.6022    0.6227 C   0  0  1  0  0  0  0  0  0  0  0  0
    4.6860   -4.7975    0.1054 C   0  0  0  0  0  0  0  0  0  0  0  0
    3.3198   -4.2254   -0.3109 C   0  0  1  0  0  0  0  0  0  0  0  0
    2.6431   -3.6588    0.8184 O   0  0  0  0  0  0  0  0  0  0  0  0
    3.3413   -2.8973    1.7339 C   0  0  0  0  0  0  0  0  0  0  0  0
    2.6799   -2.2054    2.5881 N   0  0  0  0  0  0  0  0  0  0  0  0
    4.7358   -2.9809    1.6926 N   0  0  0  0  0  0  0  0  0  0  0  0
    3.4778   -3.2153   -1.4426 C   0  0  0  0  0  0  0  0  0  0  0  0
    2.4602   -3.0602   -2.4080 C   0  0  0  0  0  0  0  0  0  0  0  0
    2.6182   -2.1491   -3.4697 C   0  0  0  0  0  0  0  0  0  0  0  0
    3.7755   -1.3502   -3.5405 C   0  0  0  0  0  0  0  0  0  0  0  0
    4.7757   -1.4908   -2.5613 C   0  0  0  0  0  0  0  0  0  0  0  0
    4.6496   -2.4317   -1.5210 C   0  0  0  0  0  0  0  0  0  0  0  0
    5.7362   -2.5749   -0.5124 C   0  0  0  0  0  0  0  0  0  0  0  0
    6.7654   -1.9006   -0.5266 O   0  0  0  0  0  0  0  0  0  0  0  0
    7.4781   -4.5596    0.4711 H   0  0  0  0  0  0  0  0  0  0  0  0
    6.6725   -4.7983    2.0242 H   0  0  0  0  0  0  0  0  0  0  0  0
    7.3972   -3.2485    1.6491 H   0  0  0  0  0  0  0  0  0  0  0  0
    5.1822   -5.2846   -0.7363 H   0  0  0  0  0  0  0  0  0  0  0  0
    4.5623   -5.5547    0.8889 H   0  0  0  0  0  0  0  0  0  0  0  0
    2.6992   -5.0425   -0.6672 H   0  0  0  0  0  0  0  0  0  0  0  0
    5.3100   -2.3471    2.2343 H   0  0  0  0  0  0  0  0  0  0  0  0
    1.5579   -3.6541   -2.3389 H   0  0  0  0  0  0  0  0  0  0  0  0
    1.8301   -2.0360   -4.1987 H   0  0  0  0  0  0  0  0  0  0  0  0
    3.8817   -0.6214   -4.3320 H   0  0  0  0  0  0  0  0  0  0  0  0
    5.6428   -0.8605   -2.6008 H   0  0  0  0  0  0  0  0  0  0  0  0
    3.2962   -1.7248    3.2229 H   0  0  0  0  0  0  0  0  0  0  0  0
  2  1  1  1
  1 17  1  0
  1 18  1  0
  1 19  1  0
  2  8  1  0
  2 15  1  0
  2  3  1  0
  3  4  1  0
  3 20  1  0
  3 21  1  0
  4  5  1  0
  4  9  1  0
  4 22  1  6
  5  6  1  0
  6  7  2  3
  6  8  1  0
  7 28  1  0
  8 23  1  0
  9 14  2  0
  9 10  1  0
 10 11  2  0
 10 24  1  0
 11 12  1  0
 11 25  1  0
 12 13  2  0
 12 26  1  0
 13 14  1  0
 13 27  1  0
 14 15  1  0
 15 16  2  0
M  END
>  <i_m_ct_stereo_status>  (307) 
1

>  <s_m_source_file>  (307) 
/var/tmp/pbs.5076255.sched01/tmpajq2dbrl/12675ddggds.sdf

>  <i_m_source_file_index>  (307) 
17

>  <i_lp_mmshare_version>  (307) 
48012

>  <i_f3d_flags>  (307) 
0

>  <s_epik_input>  (307) 
W0hdL049QyhbTkhdMSlcT1tDQEhdKFtDSDJdW0NAXTEyW0NIM10pYzNjKEMyPU8pW2NIXVtjSF1bY0hdW2NIXTM=

>  <s_epik_cmdline>  (307) 
J2VwaWtfcHl0aG9uJywgJy1waHQnLCAnMi4wJywgJy1waCcsICc3LjAnLCAnLXRuJywgJzgnLCAnLW1hJywgJzIwMCcsICctaW1hZScsICc8aW5maWxlLm1hZT4nLCAnLW9tYWUnLCAnPG91dGZpbGUubWFlPic=

>  <r_epik_Ionization_Penalty>  (307) 
1.46101

>  <r_epik_Ionization_Penalty_Charging>  (307) 
0

>  <r_epik_Ionization_Penalty_Neutral>  (307) 
1.46101

>  <r_epik_State_Penalty>  (307) 
2.10831

>  <r_epik_Charging_Adjusted_Penalty>  (307) 
2.10831

>  <i_epik_Tot_Q>  (307) 
0

>  <i_epik_Tot_abs_Q>  (307) 
0

>  <s_epik_Chemistry_Notes>  (307) 
This compound has an imine and may undergo hydrolysis.

>  <s_lp_Force_Field>  (307) 
OPLS3e

>  <r_lp_Energy>  (307) 
22.3442

>  <b_lp_Chiralities_Consistent>  (307) 
1

>  <s_lp_Variant>  (307) 
98:0-4

>  <s_i_glide_gridfile>  (307) 
pfpi4k_grid

>  <i_i_glide_lignum>  (307) 
17

>  <i_i_glide_rotatable_bonds>  (307) 
0

>  <r_i_docking_score>  (307) 
-3.81868

>  <r_i_glide_ligand_efficiency>  (307) 
-0.238667

>  <r_i_glide_ligand_efficiency_sa>  (307) 
-0.601404

>  <r_i_glide_ligand_efficiency_ln>  (307) 
-1.01222

>  <r_i_glide_gscore>  (307) 
-3.81868

>  <r_i_glide_lipo>  (307) 
-0.633147

>  <r_i_glide_hbond>  (307) 
-0.16

>  <r_i_glide_metal>  (307) 
-0

>  <r_i_glide_rewards>  (307) 
-1.93476

>  <r_i_glide_evdw>  (307) 
-19.9544

>  <r_i_glide_ecoul>  (307) 
-0.548102

>  <r_i_glide_erotb>  (307) 
0

>  <r_i_glide_esite>  (307) 
-0.0108405

>  <r_i_glide_emodel>  (307) 
-26.6567

>  <r_i_glide_energy>  (307) 
-20.5025

>  <r_i_glide_einternal>  (307) 
0

>  <r_i_glide_intrahb_reward>  (307) 
-0

>  <i_i_glide_confnum>  (307) 
2

>  <i_i_glide_posenum>  (307) 
31

>  <r_i_glide_eff_state_penalty>  (307) 
0

>  <ligand_id>  (307) 
98

>  <original_smiles>  (307) 
CC12CC(OC(=N)N1)c1ccccc1C2=O

>  <smiles>  (307) 
[H]N=C1OC2([H])c3c([H])c([H])c([H])c([H])c3C(=O)C(C([H])([H])[H])(N1[H])C2([H])[H]

$$$$
98:3:2
     RDKit          3D

 28 30  0  0  1  0  0  0  0  0999 V2000
    6.9914   -2.5274    1.2302 C   0  0  0  0  0  0  0  0  0  0  0  0
    5.7116   -2.7893    0.4412 C   0  0  1  0  0  0  0  0  0  0  0  0
    5.9037   -3.9849   -0.4837 C   0  0  0  0  0  0  0  0  0  0  0  0
    4.5330   -4.2323   -1.1191 C   0  0  1  0  0  0  0  0  0  0  0  0
    3.5574   -4.5614   -0.1149 O   0  0  0  0  0  0  0  0  0  0  0  0
    3.5374   -3.8751    1.0845 C   0  0  0  0  0  0  0  0  0  0  0  0
    2.5300   -4.0128    1.8651 N   0  0  0  0  0  0  0  0  0  0  0  0
    4.6567   -3.1046    1.3841 N   0  0  0  0  0  0  0  0  0  0  0  0
    4.1018   -3.0451   -1.9661 C   0  0  0  0  0  0  0  0  0  0  0  0
    3.2889   -3.2325   -3.1055 C   0  0  0  0  0  0  0  0  0  0  0  0
    2.8805   -2.1315   -3.8736 C   0  0  0  0  0  0  0  0  0  0  0  0
    3.2931   -0.8357   -3.5165 C   0  0  0  0  0  0  0  0  0  0  0  0
    4.1085   -0.6522   -2.3883 C   0  0  0  0  0  0  0  0  0  0  0  0
    4.5099   -1.7448   -1.5953 C   0  0  0  0  0  0  0  0  0  0  0  0
    5.3305   -1.5325   -0.3621 C   0  0  0  0  0  0  0  0  0  0  0  0
    5.6942   -0.4353    0.0552 O   0  0  0  0  0  0  0  0  0  0  0  0
    7.8436   -2.2707    0.6003 H   0  0  0  0  0  0  0  0  0  0  0  0
    7.2528   -3.4251    1.7853 H   0  0  0  0  0  0  0  0  0  0  0  0
    6.8479   -1.7143    1.9463 H   0  0  0  0  0  0  0  0  0  0  0  0
    6.6584   -3.7842   -1.2486 H   0  0  0  0  0  0  0  0  0  0  0  0
    6.2338   -4.8651    0.0762 H   0  0  0  0  0  0  0  0  0  0  0  0
    4.6401   -5.0862   -1.7753 H   0  0  0  0  0  0  0  0  0  0  0  0
    4.6400   -2.4501    2.1558 H   0  0  0  0  0  0  0  0  0  0  0  0
    2.9535   -4.2123   -3.4016 H   0  0  0  0  0  0  0  0  0  0  0  0
    2.2287   -2.2893   -4.7110 H   0  0  0  0  0  0  0  0  0  0  0  0
    2.9574    0.0193   -4.0810 H   0  0  0  0  0  0  0  0  0  0  0  0
    4.3846    0.3479   -2.1127 H   0  0  0  0  0  0  0  0  0  0  0  0
    2.6724   -3.4796    2.7095 H   0  0  0  0  0  0  0  0  0  0  0  0
  2  1  1  1
  1 17  1  0
  1 18  1  0
  1 19  1  0
  2  8  1  0
  2 15  1  0
  2  3  1  0
  3  4  1  0
  3 20  1  0
  3 21  1  0
  4  5  1  0
  4  9  1  0
  4 22  1  6
  5  6  1  0
  6  7  2  3
  6  8  1  0
  7 28  1  0
  8 23  1  0
  9 14  2  0
  9 10  1  0
 10 11  2  0
 10 24  1  0
 11 12  1  0
 11 25  1  0
 12 13  2  0
 12 26  1  0
 13 14  1  0
 13 27  1  0
 14 15  1  0
 15 16  2  0
M  END
>  <i_m_ct_stereo_status>  (308) 
1

>  <s_m_source_file>  (308) 
/var/tmp/pbs.5076255.sched01/tmpajq2dbrl/12675ddggds.sdf

>  <i_m_source_file_index>  (308) 
17

>  <i_lp_mmshare_version>  (308) 
48012

>  <i_f3d_flags>  (308) 
0

>  <s_epik_input>  (308) 
W0hdL049QyhbTkhdMSlcT1tDQEhdKFtDSDJdW0NAXTEyW0NIM10pYzNjKEMyPU8pW2NIXVtjSF1bY0hdW2NIXTM=

>  <s_epik_cmdline>  (308) 
J2VwaWtfcHl0aG9uJywgJy1waHQnLCAnMi4wJywgJy1waCcsICc3LjAnLCAnLXRuJywgJzgnLCAnLW1hJywgJzIwMCcsICctaW1hZScsICc8aW5maWxlLm1hZT4nLCAnLW9tYWUnLCAnPG91dGZpbGUubWFlPic=

>  <r_epik_Ionization_Penalty>  (308) 
1.46101

>  <r_epik_Ionization_Penalty_Charging>  (308) 
0

>  <r_epik_Ionization_Penalty_Neutral>  (308) 
1.46101

>  <r_epik_State_Penalty>  (308) 
2.10831

>  <r_epik_Charging_Adjusted_Penalty>  (308) 
2.10831

>  <i_epik_Tot_Q>  (308) 
0

>  <i_epik_Tot_abs_Q>  (308) 
0

>  <s_epik_Chemistry_Notes>  (308) 
This compound has an imine and may undergo hydrolysis.

>  <s_lp_Force_Field>  (308) 
OPLS3e

>  <r_lp_Energy>  (308) 
22.3442

>  <b_lp_Chiralities_Consistent>  (308) 
1

>  <s_lp_Variant>  (308) 
98:0-4

>  <s_i_glide_gridfile>  (308) 
pfpi4k_grid

>  <i_i_glide_lignum>  (308) 
17

>  <i_i_glide_rotatable_bonds>  (308) 
0

>  <r_i_docking_score>  (308) 
-3.25216

>  <r_i_glide_ligand_efficiency>  (308) 
-0.20326

>  <r_i_glide_ligand_efficiency_sa>  (308) 
-0.512183

>  <r_i_glide_ligand_efficiency_ln>  (308) 
-0.86205

>  <r_i_glide_gscore>  (308) 
-3.25216

>  <r_i_glide_lipo>  (308) 
-0.582554

>  <r_i_glide_hbond>  (308) 
0

>  <r_i_glide_metal>  (308) 
-0

>  <r_i_glide_rewards>  (308) 
-1.93573

>  <r_i_glide_evdw>  (308) 
-12.8593

>  <r_i_glide_ecoul>  (308) 
-0.462533

>  <r_i_glide_erotb>  (308) 
0

>  <r_i_glide_esite>  (308) 
-0.0215346

>  <r_i_glide_emodel>  (308) 
-18.4753

>  <r_i_glide_energy>  (308) 
-13.3218

>  <r_i_glide_einternal>  (308) 
0

>  <r_i_glide_intrahb_reward>  (308) 
-0

>  <i_i_glide_confnum>  (308) 
2

>  <i_i_glide_posenum>  (308) 
24

>  <r_i_glide_eff_state_penalty>  (308) 
0

>  <ligand_id>  (308) 
98

>  <original_smiles>  (308) 
CC12CC(OC(=N)N1)c1ccccc1C2=O

>  <smiles>  (308) 
[H]N=C1OC2([H])c3c([H])c([H])c([H])c([H])c3C(=O)C(C([H])([H])[H])(N1[H])C2([H])[H]

$$$$
99:0:0
     RDKit          3D

 55 59  0  0  1  0  0  0  0  0999 V2000
    8.2741   -7.5526    3.2045 C   0  0  0  0  0  0  0  0  0  0  0  0
    7.2196   -6.5144    2.9437 C   0  0  0  0  0  0  0  0  0  0  0  0
    6.9662   -5.7078    3.8518 O   0  0  0  0  0  0  0  0  0  0  0  0
    6.6208   -6.6060    1.7408 O   0  0  0  0  0  0  0  0  0  0  0  0
    5.5819   -5.7285    1.2326 C   0  0  2  0  0  0  0  0  0  0  0  0
    5.9245   -4.2339    1.4349 C   0  0  1  0  0  0  0  0  0  0  0  0
    6.9242   -3.9181    0.4690 O   0  0  0  0  0  0  0  0  0  0  0  0
    6.7477   -2.6188    0.0683 C   0  0  1  0  0  0  0  0  0  0  0  0
    7.3543   -2.3457   -1.1540 O   0  0  0  0  0  0  0  0  0  0  0  0
    5.2288   -2.3490    0.0679 C   0  0  1  0  0  0  0  0  0  0  0  0
    5.0813   -0.8208    0.2760 C   0  0  0  0  0  0  0  0  0  0  0  0
    4.3616   -2.8381   -1.1407 C   0  0  1  0  0  0  0  0  0  0  0  0
    4.9823   -3.8349   -2.1343 C   0  0  0  0  0  0  0  0  0  0  0  0
    3.0798   -3.4323   -0.5077 C   0  0  0  0  0  0  0  0  0  0  0  0
    3.4191   -3.8590    0.9043 C   0  0  2  0  0  0  0  0  0  0  0  0
    3.1608   -5.2609    1.0812 O   0  0  0  0  0  0  0  0  0  0  0  0
    4.1530   -6.1021    1.7164 C   0  0  1  0  0  0  0  0  0  0  0  0
    3.8227   -7.5248    1.1783 C   0  0  0  0  0  0  0  0  0  0  0  0
    4.0376   -6.0834    3.2865 C   0  0  0  0  0  0  0  0  0  0  0  0
    3.1234   -4.9641    3.8369 C   0  0  0  0  0  0  0  0  0  0  0  0
    3.5720   -3.4932    3.6050 C   0  0  1  0  0  0  0  0  0  0  0  0
    4.8090   -3.0366    4.4282 C   0  0  0  0  0  0  0  0  0  0  0  0
    3.5379   -2.9759    2.1380 C   0  0  2  0  0  0  0  0  0  0  0  0
    2.7581   -1.6502    2.1165 C   0  0  0  0  0  0  0  0  0  0  0  0
    4.7673   -3.2490    1.2184 C   0  0  1  0  0  0  0  0  0  0  0  0
    7.8582   -8.5815    3.1143 H   0  0  0  0  0  0  0  0  0  0  0  0
    8.6301   -7.3695    4.2235 H   0  0  0  0  0  0  0  0  0  0  0  0
    9.0679   -7.3419    2.4751 H   0  0  0  0  0  0  0  0  0  0  0  0
    5.5553   -5.8687    0.1544 H   0  0  0  0  0  0  0  0  0  0  0  0
    6.3253   -4.0272    2.4116 H   0  0  0  0  0  0  0  0  0  0  0  0
    7.2412   -2.0091    0.8276 H   0  0  0  0  0  0  0  0  0  0  0  0
    6.9944   -2.9615   -1.7758 H   0  0  0  0  0  0  0  0  0  0  0  0
    4.0884   -0.4444    0.0625 H   0  0  0  0  0  0  0  0  0  0  0  0
    5.7166   -0.2879   -0.4239 H   0  0  0  0  0  0  0  0  0  0  0  0
    5.3711   -0.4927    1.2747 H   0  0  0  0  0  0  0  0  0  0  0  0
    4.0631   -1.9837   -1.7359 H   0  0  0  0  0  0  0  0  0  0  0  0
    5.4210   -4.6948   -1.6366 H   0  0  0  0  0  0  0  0  0  0  0  0
    5.7295   -3.3739   -2.7792 H   0  0  0  0  0  0  0  0  0  0  0  0
    4.2259   -4.2277   -2.8135 H   0  0  0  0  0  0  0  0  0  0  0  0
    2.2821   -2.6964   -0.4725 H   0  0  0  0  0  0  0  0  0  0  0  0
    2.6805   -4.2776   -1.0727 H   0  0  0  0  0  0  0  0  0  0  0  0
    4.4984   -8.2940    1.5628 H   0  0  0  0  0  0  0  0  0  0  0  0
    3.8872   -7.5675    0.0927 H   0  0  0  0  0  0  0  0  0  0  0  0
    2.8126   -7.8203    1.4574 H   0  0  0  0  0  0  0  0  0  0  0  0
    3.6517   -7.0785    3.6221 H   0  0  0  0  0  0  0  0  0  0  0  0
    4.9086   -5.9317    3.7712 H   0  0  0  0  0  0  0  0  0  0  0  0
    2.0814   -5.0997    3.4851 H   0  0  0  0  0  0  0  0  0  0  0  0
    3.1279   -5.1316    4.9129 H   0  0  0  0  0  0  0  0  0  0  0  0
    2.7720   -2.9622    4.1138 H   0  0  0  0  0  0  0  0  0  0  0  0
    5.6552   -3.7142    4.3712 H   0  0  0  0  0  0  0  0  0  0  0  0
    4.5637   -2.9749    5.4897 H   0  0  0  0  0  0  0  0  0  0  0  0
    5.1597   -2.0462    4.1243 H   0  0  0  0  0  0  0  0  0  0  0  0
    3.3207   -0.8494    2.5877 H   0  0  0  0  0  0  0  0  0  0  0  0
    1.8002   -1.7520    2.6172 H   0  0  0  0  0  0  0  0  0  0  0  0
    2.5126   -1.3334    1.1199 H   0  0  0  0  0  0  0  0  0  0  0  0
  1  2  1  0
  1 26  1  0
  1 27  1  0
  1 28  1  0
  2  3  2  0
  2  4  1  0
  4  5  1  0
  5 17  1  0
  5  6  1  0
  5 29  1  6
  6 25  1  0
  6  7  1  0
  6 30  1  1
  7  8  1  0
  8  9  1  0
  8 10  1  0
  8 31  1  1
  9 32  1  0
 10 25  1  0
 10 11  1  1
 10 12  1  0
 11 33  1  0
 11 34  1  0
 11 35  1  0
 12 13  1  0
 12 14  1  0
 12 36  1  6
 13 37  1  0
 13 38  1  0
 13 39  1  0
 15 14  1  6
 14 40  1  0
 14 41  1  0
 15 23  1  0
 25 15  1  6
 15 16  1  0
 16 17  1  0
 17 18  1  6
 17 19  1  0
 18 42  1  0
 18 43  1  0
 18 44  1  0
 19 20  1  0
 19 45  1  0
 19 46  1  0
 20 21  1  0
 20 47  1  0
 20 48  1  0
 21 22  1  0
 21 23  1  0
 21 49  1  1
 22 50  1  0
 22 51  1  0
 22 52  1  0
 23 24  1  1
 23 25  1  0
 24 53  1  0
 24 54  1  0
 24 55  1  0
M  END
>  <i_m_ct_stereo_status>  (309) 
1

>  <s_m_source_file>  (309) 
/var/tmp/pbs.5076255.sched01/tmpajq2dbrl/12675ddggds.sdf

>  <i_m_source_file_index>  (309) 
18

>  <i_lp_mmshare_version>  (309) 
48012

>  <i_f3d_flags>  (309) 
0

>  <s_epik_input>  (309) 
W0NIM11bQ0BAXTEyW0NASF0oW0NIM10pW0NIMl1bQ0gyXVtDQF0oTzMpKFtDSDNdKVtDQEhdKE9DKD1PKVtDSDNdKVtDQEhdKFtDQEBdMjRbQ0BdMTM1KU9bQ0BASF0oW09IXSlbQ0BAXTQoW0NIM10pW0NAQEhdKFtDSDNdKVtDSDJdNQ==

>  <s_epik_cmdline>  (309) 
J2VwaWtfcHl0aG9uJywgJy1waHQnLCAnMi4wJywgJy1waCcsICc3LjAnLCAnLXRuJywgJzgnLCAnLW1hJywgJzIwMCcsICctaW1hZScsICc8aW5maWxlLm1hZT4nLCAnLW9tYWUnLCAnPG91dGZpbGUubWFlPic=

>  <r_lp_tautomer_probability>  (309) 
1

>  <r_epik_Ionization_Penalty>  (309) 
1.28841e-07

>  <r_epik_Ionization_Penalty_Charging>  (309) 
0

>  <r_epik_Ionization_Penalty_Neutral>  (309) 
1.28841e-07

>  <r_epik_State_Penalty>  (309) 
-0

>  <r_epik_Charging_Adjusted_Penalty>  (309) 
0

>  <i_epik_Tot_Q>  (309) 
0

>  <i_epik_Tot_abs_Q>  (309) 
0

>  <s_epik_Chemistry_Notes>  (309) 
This compound has an ester and may undergo hydrolysis at high or low pH. This compound contains an acetal/aminal-like group ( X-CH(R)-Y where X, Y are N, S, or O) that may be acid/base labile, releasing an aldehyde.

>  <s_lp_Force_Field>  (309) 
OPLS3e

>  <r_lp_Energy>  (309) 
50.0693

>  <b_lp_Chiralities_Consistent>  (309) 
1

>  <s_lp_Variant>  (309) 
99:0-1

>  <s_i_glide_gridfile>  (309) 
pfpi4k_grid

>  <i_i_glide_lignum>  (309) 
18

>  <i_i_glide_rotatable_bonds>  (309) 
3

>  <r_i_docking_score>  (309) 
-3.16912

>  <r_i_glide_ligand_efficiency>  (309) 
-0.126765

>  <r_i_glide_ligand_efficiency_sa>  (309) 
-0.370662

>  <r_i_glide_ligand_efficiency_ln>  (309) 
-0.751176

>  <r_i_glide_gscore>  (309) 
-3.16912

>  <r_i_glide_lipo>  (309) 
-0.455868

>  <r_i_glide_hbond>  (309) 
0

>  <r_i_glide_metal>  (309) 
-0

>  <r_i_glide_rewards>  (309) 
-1.10327

>  <r_i_glide_evdw>  (309) 
-23.7505

>  <r_i_glide_ecoul>  (309) 
-3.85102

>  <r_i_glide_erotb>  (309) 
0.155201

>  <r_i_glide_esite>  (309) 
0

>  <r_i_glide_emodel>  (309) 
-23.5967

>  <r_i_glide_energy>  (309) 
-27.6015

>  <r_i_glide_einternal>  (309) 
16.4835

>  <r_i_glide_intrahb_reward>  (309) 
-0

>  <i_i_glide_confnum>  (309) 
2

>  <i_i_glide_posenum>  (309) 
1

>  <r_i_glide_eff_state_penalty>  (309) 
0

>  <ligand_id>  (309) 
99

>  <original_smiles>  (309) 
CC(=O)OC1C2OC(O)C3(C)C(C)CC45OC1(C)CCC(C)C4(C)C235

>  <smiles>  (309) 
[H]OC1([H])OC2([H])C([H])(OC(=O)C([H])([H])[H])C3(C([H])([H])[H])OC45C([H])([H])C([H])(C([H])([H])[H])C1(C([H])([H])[H])C24C5(C([H])([H])[H])C([H])(C([H])([H])[H])C([H])([H])C3([H])[H]

$$$$
99:0:1
     RDKit          3D

 55 59  0  0  1  0  0  0  0  0999 V2000
    5.8114   -9.0680    2.3973 C   0  0  0  0  0  0  0  0  0  0  0  0
    5.1276   -7.9800    1.5745 C   0  0  0  0  0  0  0  0  0  0  0  0
    4.6260   -8.2328    0.4789 O   0  0  0  0  0  0  0  0  0  0  0  0
    5.1245   -6.7712    2.1885 O   0  0  0  0  0  0  0  0  0  0  0  0
    4.5650   -5.6231    1.5480 C   0  0  2  0  0  0  0  0  0  0  0  0
    5.4928   -4.4295    1.8057 C   0  0  1  0  0  0  0  0  0  0  0  0
    6.5847   -4.5915    0.9068 O   0  0  0  0  0  0  0  0  0  0  0  0
    6.9934   -3.3590    0.4587 C   0  0  1  0  0  0  0  0  0  0  0  0
    7.7444   -3.3977   -0.7304 O   0  0  0  0  0  0  0  0  0  0  0  0
    5.7216   -2.4984    0.3809 C   0  0  1  0  0  0  0  0  0  0  0  0
    6.2103   -1.0425    0.5357 C   0  0  0  0  0  0  0  0  0  0  0  0
    4.8236   -2.6434   -0.8906 C   0  0  1  0  0  0  0  0  0  0  0  0
    5.0187   -3.8568   -1.8220 C   0  0  0  0  0  0  0  0  0  0  0  0
    3.3751   -2.6223   -0.3568 C   0  0  0  0  0  0  0  0  0  0  0  0
    3.4168   -3.0646    1.0957 C   0  0  2  0  0  0  0  0  0  0  0  0
    2.5902   -4.2116    1.3482 O   0  0  0  0  0  0  0  0  0  0  0  0
    3.1175   -5.3557    2.0187 C   0  0  1  0  0  0  0  0  0  0  0  0
    2.1887   -6.4885    1.5344 C   0  0  0  0  0  0  0  0  0  0  0  0
    3.0035   -5.1750    3.5483 C   0  0  0  0  0  0  0  0  0  0  0  0
    2.5603   -3.7829    4.0250 C   0  0  0  0  0  0  0  0  0  0  0  0
    3.5431   -2.6201    3.7887 C   0  0  1  0  0  0  0  0  0  0  0  0
    4.7984   -2.6672    4.6815 C   0  0  0  0  0  0  0  0  0  0  0  0
    3.8286   -2.2457    2.3180 C   0  0  2  0  0  0  0  0  0  0  0  0
    3.6631   -0.7226    2.2051 C   0  0  0  0  0  0  0  0  0  0  0  0
    4.8699   -3.0642    1.5002 C   0  0  1  0  0  0  0  0  0  0  0  0
    6.8752   -8.8551    2.5063 H   0  0  0  0  0  0  0  0  0  0  0  0
    5.7058  -10.0396    1.9119 H   0  0  0  0  0  0  0  0  0  0  0  0
    5.3660   -9.1379    3.3904 H   0  0  0  0  0  0  0  0  0  0  0  0
    4.5410   -5.7913    0.4757 H   0  0  0  0  0  0  0  0  0  0  0  0
    5.8731   -4.4130    2.8208 H   0  0  0  0  0  0  0  0  0  0  0  0
    7.6666   -2.9826    1.2316 H   0  0  0  0  0  0  0  0  0  0  0  0
    7.1743   -3.7234   -1.4104 H   0  0  0  0  0  0  0  0  0  0  0  0
    5.4701   -0.3024    0.2231 H   0  0  0  0  0  0  0  0  0  0  0  0
    7.0575   -0.8892   -0.1259 H   0  0  0  0  0  0  0  0  0  0  0  0
    6.5433   -0.8063    1.5467 H   0  0  0  0  0  0  0  0  0  0  0  0
    4.9550   -1.7699   -1.5306 H   0  0  0  0  0  0  0  0  0  0  0  0
    5.0431   -4.8007   -1.2799 H   0  0  0  0  0  0  0  0  0  0  0  0
    5.9258   -3.7850   -2.4223 H   0  0  0  0  0  0  0  0  0  0  0  0
    4.1986   -3.9219   -2.5379 H   0  0  0  0  0  0  0  0  0  0  0  0
    2.9787   -1.6139   -0.4230 H   0  0  0  0  0  0  0  0  0  0  0  0
    2.6936   -3.2549   -0.9268 H   0  0  0  0  0  0  0  0  0  0  0  0
    2.4346   -7.4419    2.0065 H   0  0  0  0  0  0  0  0  0  0  0  0
    2.2946   -6.6187    0.4564 H   0  0  0  0  0  0  0  0  0  0  0  0
    1.1371   -6.2841    1.7475 H   0  0  0  0  0  0  0  0  0  0  0  0
    2.2590   -5.8801    3.9170 H   0  0  0  0  0  0  0  0  0  0  0  0
    3.9212   -5.4767    4.0518 H   0  0  0  0  0  0  0  0  0  0  0  0
    1.5944   -3.5400    3.5804 H   0  0  0  0  0  0  0  0  0  0  0  0
    2.3776   -3.8487    5.0984 H   0  0  0  0  0  0  0  0  0  0  0  0
    2.9904   -1.7841    4.2152 H   0  0  0  0  0  0  0  0  0  0  0  0
    5.2765   -3.6417    4.6898 H   0  0  0  0  0  0  0  0  0  0  0  0
    4.5404   -2.4452    5.7156 H   0  0  0  0  0  0  0  0  0  0  0  0
    5.5348   -1.9292    4.3681 H   0  0  0  0  0  0  0  0  0  0  0  0
    4.4793   -0.2121    2.7151 H   0  0  0  0  0  0  0  0  0  0  0  0
    2.7202   -0.3880    2.6391 H   0  0  0  0  0  0  0  0  0  0  0  0
    3.6270   -0.3866    1.1756 H   0  0  0  0  0  0  0  0  0  0  0  0
  1  2  1  0
  1 26  1  0
  1 27  1  0
  1 28  1  0
  2  3  2  0
  2  4  1  0
  4  5  1  0
  5 17  1  0
  5  6  1  0
  5 29  1  6
  6 25  1  0
  6  7  1  0
  6 30  1  1
  7  8  1  0
  8  9  1  0
  8 10  1  0
  8 31  1  1
  9 32  1  0
 10 25  1  0
 10 11  1  1
 10 12  1  0
 11 33  1  0
 11 34  1  0
 11 35  1  0
 12 13  1  0
 12 14  1  0
 12 36  1  6
 13 37  1  0
 13 38  1  0
 13 39  1  0
 15 14  1  6
 14 40  1  0
 14 41  1  0
 15 23  1  0
 25 15  1  6
 15 16  1  0
 16 17  1  0
 17 18  1  6
 17 19  1  0
 18 42  1  0
 18 43  1  0
 18 44  1  0
 19 20  1  0
 19 45  1  0
 19 46  1  0
 20 21  1  0
 20 47  1  0
 20 48  1  0
 21 22  1  0
 21 23  1  0
 21 49  1  1
 22 50  1  0
 22 51  1  0
 22 52  1  0
 23 24  1  6
 23 25  1  0
 24 53  1  0
 24 54  1  0
 24 55  1  0
M  END
>  <i_m_ct_stereo_status>  (310) 
1

>  <s_m_source_file>  (310) 
/var/tmp/pbs.5076255.sched01/tmpajq2dbrl/12675ddggds.sdf

>  <i_m_source_file_index>  (310) 
18

>  <i_lp_mmshare_version>  (310) 
48012

>  <i_f3d_flags>  (310) 
0

>  <s_epik_input>  (310) 
W0NIM11bQ0BAXTEyW0NASF0oW0NIM10pW0NIMl1bQ0gyXVtDQF0oTzMpKFtDSDNdKVtDQEhdKE9DKD1PKVtDSDNdKVtDQEhdKFtDQEBdMjRbQ0BdMTM1KU9bQ0BASF0oW09IXSlbQ0BAXTQoW0NIM10pW0NAQEhdKFtDSDNdKVtDSDJdNQ==

>  <s_epik_cmdline>  (310) 
J2VwaWtfcHl0aG9uJywgJy1waHQnLCAnMi4wJywgJy1waCcsICc3LjAnLCAnLXRuJywgJzgnLCAnLW1hJywgJzIwMCcsICctaW1hZScsICc8aW5maWxlLm1hZT4nLCAnLW9tYWUnLCAnPG91dGZpbGUubWFlPic=

>  <r_lp_tautomer_probability>  (310) 
1

>  <r_epik_Ionization_Penalty>  (310) 
1.28841e-07

>  <r_epik_Ionization_Penalty_Charging>  (310) 
0

>  <r_epik_Ionization_Penalty_Neutral>  (310) 
1.28841e-07

>  <r_epik_State_Penalty>  (310) 
-0

>  <r_epik_Charging_Adjusted_Penalty>  (310) 
0

>  <i_epik_Tot_Q>  (310) 
0

>  <i_epik_Tot_abs_Q>  (310) 
0

>  <s_epik_Chemistry_Notes>  (310) 
This compound has an ester and may undergo hydrolysis at high or low pH. This compound contains an acetal/aminal-like group ( X-CH(R)-Y where X, Y are N, S, or O) that may be acid/base labile, releasing an aldehyde.

>  <s_lp_Force_Field>  (310) 
OPLS3e

>  <r_lp_Energy>  (310) 
50.0693

>  <b_lp_Chiralities_Consistent>  (310) 
1

>  <s_lp_Variant>  (310) 
99:0-1

>  <s_i_glide_gridfile>  (310) 
pfpi4k_grid

>  <i_i_glide_lignum>  (310) 
18

>  <i_i_glide_rotatable_bonds>  (310) 
3

>  <r_i_docking_score>  (310) 
-2.80615

>  <r_i_glide_ligand_efficiency>  (310) 
-0.112246

>  <r_i_glide_ligand_efficiency_sa>  (310) 
-0.32821

>  <r_i_glide_ligand_efficiency_ln>  (310) 
-0.665142

>  <r_i_glide_gscore>  (310) 
-2.80615

>  <r_i_glide_lipo>  (310) 
-0.282557

>  <r_i_glide_hbond>  (310) 
0

>  <r_i_glide_metal>  (310) 
-0

>  <r_i_glide_rewards>  (310) 
-1.27333

>  <r_i_glide_evdw>  (310) 
-26.0392

>  <r_i_glide_ecoul>  (310) 
-0.690018

>  <r_i_glide_erotb>  (310) 
0.155201

>  <r_i_glide_esite>  (310) 
0

>  <r_i_glide_emodel>  (310) 
-31.4883

>  <r_i_glide_energy>  (310) 
-26.7292

>  <r_i_glide_einternal>  (310) 
0.323754

>  <r_i_glide_intrahb_reward>  (310) 
-0

>  <i_i_glide_confnum>  (310) 
1

>  <i_i_glide_posenum>  (310) 
8

>  <r_i_glide_eff_state_penalty>  (310) 
0

>  <ligand_id>  (310) 
99

>  <original_smiles>  (310) 
CC(=O)OC1C2OC(O)C3(C)C(C)CC45OC1(C)CCC(C)C4(C)C235

>  <smiles>  (310) 
[H]OC1([H])OC2([H])C([H])(OC(=O)C([H])([H])[H])C3(C([H])([H])[H])OC45C([H])([H])C([H])(C([H])([H])[H])C1(C([H])([H])[H])C24C5(C([H])([H])[H])C([H])(C([H])([H])[H])C([H])([H])C3([H])[H]

$$$$
99:0:2
     RDKit          3D

 55 59  0  0  1  0  0  0  0  0999 V2000
    5.6453   -8.7302    2.9896 C   0  0  0  0  0  0  0  0  0  0  0  0
    5.3285   -7.2367    2.8624 C   0  0  0  0  0  0  0  0  0  0  0  0
    5.5587   -6.4853    3.7785 O   0  0  0  0  0  0  0  0  0  0  0  0
    4.8376   -6.9316    1.6341 O   0  0  0  0  0  0  0  0  0  0  0  0
    4.4217   -5.6112    1.2220 C   0  0  2  0  0  0  0  0  0  0  0  0
    5.4671   -4.5122    1.5391 C   0  0  1  0  0  0  0  0  0  0  0  0
    6.5337   -4.6811    0.6203 O   0  0  0  0  0  0  0  0  0  0  0  0
    7.0864   -3.4436    0.3617 C   0  0  1  0  0  0  0  0  0  0  0  0
    7.8556   -3.4130   -0.8124 O   0  0  0  0  0  0  0  0  0  0  0  0
    5.9218   -2.4467    0.3501 C   0  0  1  0  0  0  0  0  0  0  0  0
    6.5487   -1.0858    0.7218 C   0  0  0  0  0  0  0  0  0  0  0  0
    5.0204   -2.3439   -0.9339 C   0  0  1  0  0  0  0  0  0  0  0  0
    5.1287   -3.4450   -1.9989 C   0  0  0  0  0  0  0  0  0  0  0  0
    3.5640   -2.2391   -0.3937 C   0  0  0  0  0  0  0  0  0  0  0  0
    3.5329   -2.8681    0.9704 C   0  0  2  0  0  0  0  0  0  0  0  0
    2.5875   -3.9738    1.0024 O   0  0  0  0  0  0  0  0  0  0  0  0
    2.9683   -5.2355    1.6177 C   0  0  1  0  0  0  0  0  0  0  0  0
    2.0121   -6.2261    0.8893 C   0  0  0  0  0  0  0  0  0  0  0  0
    2.7151   -5.2546    3.1295 C   0  0  0  0  0  0  0  0  0  0  0  0
    2.4625   -3.8924    3.7462 C   0  0  0  0  0  0  0  0  0  0  0  0
    3.6230   -2.8384    3.6984 C   0  0  1  0  0  0  0  0  0  0  0  0
    4.8606   -3.1422    4.6006 C   0  0  0  0  0  0  0  0  0  0  0  0
    3.9898   -2.2739    2.2963 C   0  0  2  0  0  0  0  0  0  0  0  0
    3.9906   -0.7447    2.4064 C   0  0  0  0  0  0  0  0  0  0  0  0
    4.9805   -3.0598    1.3739 C   0  0  1  0  0  0  0  0  0  0  0  0
    4.7552   -9.3626    2.8108 H   0  0  0  0  0  0  0  0  0  0  0  0
    5.9700   -8.8716    4.0439 H   0  0  0  0  0  0  0  0  0  0  0  0
    6.4939   -8.9739    2.3179 H   0  0  0  0  0  0  0  0  0  0  0  0
    4.4266   -5.6487    0.1174 H   0  0  0  0  0  0  0  0  0  0  0  0
    5.8672   -4.5599    2.5442 H   0  0  0  0  0  0  0  0  0  0  0  0
    7.7755   -3.2474    1.1954 H   0  0  0  0  0  0  0  0  0  0  0  0
    7.2578   -3.5755   -1.5205 H   0  0  0  0  0  0  0  0  0  0  0  0
    5.8973   -0.2392    0.5143 H   0  0  0  0  0  0  0  0  0  0  0  0
    7.4197   -0.9237    0.1041 H   0  0  0  0  0  0  0  0  0  0  0  0
    6.8850   -1.0325    1.7579 H   0  0  0  0  0  0  0  0  0  0  0  0
    5.2582   -1.4050   -1.4300 H   0  0  0  0  0  0  0  0  0  0  0  0
    5.0444   -4.4439   -1.5805 H   0  0  0  0  0  0  0  0  0  0  0  0
    6.0547   -3.3743   -2.5714 H   0  0  0  0  0  0  0  0  0  0  0  0
    4.3333   -3.3326   -2.7238 H   0  0  0  0  0  0  0  0  0  0  0  0
    3.2557   -1.2024   -0.3174 H   0  0  0  0  0  0  0  0  0  0  0  0
    2.8476   -2.7193   -1.0600 H   0  0  0  0  0  0  0  0  0  0  0  0
    2.1788   -7.2528    1.2100 H   0  0  0  0  0  0  0  0  0  0  0  0
    2.1129   -6.2149   -0.2118 H   0  0  0  0  0  0  0  0  0  0  0  0
    0.9691   -6.0015    1.1116 H   0  0  0  0  0  0  0  0  0  0  0  0
    1.8602   -5.9039    3.3201 H   0  0  0  0  0  0  0  0  0  0  0  0
    3.5681   -5.6503    3.6838 H   0  0  0  0  0  0  0  0  0  0  0  0
    1.5300   -3.4071    3.3768 H   0  0  0  0  0  0  0  0  0  0  0  0
    2.3077   -4.0903    4.8194 H   0  0  0  0  0  0  0  0  0  0  0  0
    3.1826   -1.9965    4.2422 H   0  0  0  0  0  0  0  0  0  0  0  0
    5.2489   -4.1490    4.4994 H   0  0  0  0  0  0  0  0  0  0  0  0
    4.6036   -3.0403    5.6584 H   0  0  0  0  0  0  0  0  0  0  0  0
    5.6885   -2.4535    4.4128 H   0  0  0  0  0  0  0  0  0  0  0  0
    4.8467   -0.3927    2.9770 H   0  0  0  0  0  0  0  0  0  0  0  0
    3.0685   -0.3814    2.8631 H   0  0  0  0  0  0  0  0  0  0  0  0
    4.0212   -0.2815    1.4269 H   0  0  0  0  0  0  0  0  0  0  0  0
  1  2  1  0
  1 26  1  0
  1 27  1  0
  1 28  1  0
  2  3  2  0
  2  4  1  0
  4  5  1  0
  5 17  1  0
  5  6  1  0
  5 29  1  6
  6 25  1  0
  6  7  1  0
  6 30  1  1
  7  8  1  0
  8  9  1  0
  8 10  1  0
  8 31  1  1
  9 32  1  0
 10 25  1  0
 10 11  1  1
 10 12  1  0
 11 33  1  0
 11 34  1  0
 11 35  1  0
 12 13  1  0
 12 14  1  0
 12 36  1  6
 13 37  1  0
 13 38  1  0
 13 39  1  0
 15 14  1  6
 14 40  1  0
 14 41  1  0
 15 23  1  0
 25 15  1  6
 15 16  1  0
 16 17  1  0
 17 18  1  6
 17 19  1  0
 18 42  1  0
 18 43  1  0
 18 44  1  0
 19 20  1  0
 19 45  1  0
 19 46  1  0
 20 21  1  0
 20 47  1  0
 20 48  1  0
 21 22  1  0
 21 23  1  0
 21 49  1  1
 22 50  1  0
 22 51  1  0
 22 52  1  0
 23 24  1  1
 23 25  1  0
 24 53  1  0
 24 54  1  0
 24 55  1  0
M  END
>  <i_m_ct_stereo_status>  (311) 
1

>  <s_m_source_file>  (311) 
/var/tmp/pbs.5076255.sched01/tmpajq2dbrl/12675ddggds.sdf

>  <i_m_source_file_index>  (311) 
18

>  <i_lp_mmshare_version>  (311) 
48012

>  <i_f3d_flags>  (311) 
0

>  <s_epik_input>  (311) 
W0NIM11bQ0BAXTEyW0NASF0oW0NIM10pW0NIMl1bQ0gyXVtDQF0oTzMpKFtDSDNdKVtDQEhdKE9DKD1PKVtDSDNdKVtDQEhdKFtDQEBdMjRbQ0BdMTM1KU9bQ0BASF0oW09IXSlbQ0BAXTQoW0NIM10pW0NAQEhdKFtDSDNdKVtDSDJdNQ==

>  <s_epik_cmdline>  (311) 
J2VwaWtfcHl0aG9uJywgJy1waHQnLCAnMi4wJywgJy1waCcsICc3LjAnLCAnLXRuJywgJzgnLCAnLW1hJywgJzIwMCcsICctaW1hZScsICc8aW5maWxlLm1hZT4nLCAnLW9tYWUnLCAnPG91dGZpbGUubWFlPic=

>  <r_lp_tautomer_probability>  (311) 
1

>  <r_epik_Ionization_Penalty>  (311) 
1.28841e-07

>  <r_epik_Ionization_Penalty_Charging>  (311) 
0

>  <r_epik_Ionization_Penalty_Neutral>  (311) 
1.28841e-07

>  <r_epik_State_Penalty>  (311) 
-0

>  <r_epik_Charging_Adjusted_Penalty>  (311) 
0

>  <i_epik_Tot_Q>  (311) 
0

>  <i_epik_Tot_abs_Q>  (311) 
0

>  <s_epik_Chemistry_Notes>  (311) 
This compound has an ester and may undergo hydrolysis at high or low pH. This compound contains an acetal/aminal-like group ( X-CH(R)-Y where X, Y are N, S, or O) that may be acid/base labile, releasing an aldehyde.

>  <s_lp_Force_Field>  (311) 
OPLS3e

>  <r_lp_Energy>  (311) 
50.0693

>  <b_lp_Chiralities_Consistent>  (311) 
1

>  <s_lp_Variant>  (311) 
99:0-1

>  <s_i_glide_gridfile>  (311) 
pfpi4k_grid

>  <i_i_glide_lignum>  (311) 
18

>  <i_i_glide_rotatable_bonds>  (311) 
3

>  <r_i_docking_score>  (311) 
-2.69256

>  <r_i_glide_ligand_efficiency>  (311) 
-0.107702

>  <r_i_glide_ligand_efficiency_sa>  (311) 
-0.314923

>  <r_i_glide_ligand_efficiency_ln>  (311) 
-0.638217

>  <r_i_glide_gscore>  (311) 
-2.69256

>  <r_i_glide_lipo>  (311) 
-0.36371

>  <r_i_glide_hbond>  (311) 
0

>  <r_i_glide_metal>  (311) 
-0

>  <r_i_glide_rewards>  (311) 
-1.20971

>  <r_i_glide_evdw>  (311) 
-25.0925

>  <r_i_glide_ecoul>  (311) 
-0.131423

>  <r_i_glide_erotb>  (311) 
0.155201

>  <r_i_glide_esite>  (311) 
0

>  <r_i_glide_emodel>  (311) 
-21.3858

>  <r_i_glide_energy>  (311) 
-25.224

>  <r_i_glide_einternal>  (311) 
15.6286

>  <r_i_glide_intrahb_reward>  (311) 
-0

>  <i_i_glide_confnum>  (311) 
4

>  <i_i_glide_posenum>  (311) 
15

>  <r_i_glide_eff_state_penalty>  (311) 
0

>  <ligand_id>  (311) 
99

>  <original_smiles>  (311) 
CC(=O)OC1C2OC(O)C3(C)C(C)CC45OC1(C)CCC(C)C4(C)C235

>  <smiles>  (311) 
[H]OC1([H])OC2([H])C([H])(OC(=O)C([H])([H])[H])C3(C([H])([H])[H])OC45C([H])([H])C([H])(C([H])([H])[H])C1(C([H])([H])[H])C24C5(C([H])([H])[H])C([H])(C([H])([H])[H])C([H])([H])C3([H])[H]

$$$$
100:0:0
     RDKit          3D

 58 61  0  0  1  0  0  0  0  0999 V2000
    5.3926   -6.1622    6.3125 C   0  0  0  0  0  0  0  0  0  0  0  0
    4.4866   -6.4263    5.0947 C   0  0  0  0  0  0  0  0  0  0  0  0
    4.1103   -7.9363    5.1335 C   0  0  0  0  0  0  0  0  0  0  0  0
    3.1603   -5.6620    5.2824 C   0  0  0  0  0  0  0  0  0  0  0  0
    2.6477   -4.5808    4.6435 C   0  0  0  0  0  0  0  0  0  0  0  0
    3.3084   -3.7049    3.5731 C   0  0  2  0  0  0  0  0  0  0  0  0
    2.5697   -2.5131    3.3380 O   0  0  0  0  0  0  0  0  0  0  0  0
    2.8852   -1.6440    2.2456 C   0  0  0  0  0  0  0  0  0  0  0  0
    1.5172   -0.9714    2.0371 C   0  0  0  0  0  0  0  0  0  0  0  0
    3.9025   -0.6085    2.7501 C   0  0  0  0  0  0  0  0  0  0  0  0
    3.3384   -2.3742    0.9333 C   0  0  1  0  0  0  0  0  0  0  0  0
    3.7844   -1.3988   -0.1849 C   0  0  0  0  0  0  0  0  0  0  0  0
    4.1675   -2.0749   -1.5242 C   0  0  0  0  0  0  0  0  0  0  0  0
    2.9408   -2.7572   -2.1716 C   0  0  0  0  0  0  0  0  0  0  0  0
    4.6370   -0.9772   -2.5016 C   0  0  0  0  0  0  0  0  0  0  0  0
    5.2838   -3.1221   -1.2662 C   0  0  1  0  0  0  0  0  0  0  0  0
    6.5084   -2.4779   -0.9389 O   0  0  0  0  0  0  0  0  0  0  0  0
    4.8816   -4.1200   -0.1475 C   0  0  1  0  0  0  0  0  0  0  0  0
    5.9686   -4.9873    0.0796 O   0  0  0  0  0  0  0  0  0  0  0  0
    4.4316   -3.4319    1.1757 C   0  0  2  0  0  0  0  0  0  0  0  0
    3.9365   -4.3768    2.3116 C   0  0  2  0  0  0  0  0  0  0  0  0
    3.0940   -5.5459    1.7673 C   0  0  0  0  0  0  0  0  0  0  0  0
    5.0930   -4.7129    3.3081 C   0  0  0  0  0  0  0  0  0  0  0  0
    5.2382   -6.0185    3.7803 C   0  0  0  0  0  0  0  0  0  0  0  0
    5.5602   -7.0423    3.1360 O   0  0  0  0  0  0  0  0  0  0  0  0
    4.7293   -3.5194    4.0682 C   0  0  0  0  0  0  0  0  0  0  0  0
    5.3898   -2.7343    4.7489 O   0  0  0  0  0  0  0  0  0  0  0  0
    5.6566   -5.1078    6.4025 H   0  0  0  0  0  0  0  0  0  0  0  0
    6.3198   -6.7343    6.2452 H   0  0  0  0  0  0  0  0  0  0  0  0
    4.8958   -6.4558    7.2380 H   0  0  0  0  0  0  0  0  0  0  0  0
    3.4609   -8.2073    4.3025 H   0  0  0  0  0  0  0  0  0  0  0  0
    3.5929   -8.2029    6.0496 H   0  0  0  0  0  0  0  0  0  0  0  0
    4.9900   -8.5757    5.0796 H   0  0  0  0  0  0  0  0  0  0  0  0
    2.5438   -6.0886    6.0558 H   0  0  0  0  0  0  0  0  0  0  0  0
    1.6941   -4.2121    4.9747 H   0  0  0  0  0  0  0  0  0  0  0  0
    1.5418   -0.1886    1.2798 H   0  0  0  0  0  0  0  0  0  0  0  0
    1.1448   -0.5341    2.9625 H   0  0  0  0  0  0  0  0  0  0  0  0
    0.7782   -1.7023    1.7153 H   0  0  0  0  0  0  0  0  0  0  0  0
    3.8961    0.2888    2.1308 H   0  0  0  0  0  0  0  0  0  0  0  0
    4.9188   -1.0001    2.7487 H   0  0  0  0  0  0  0  0  0  0  0  0
    3.6661   -0.3130    3.7718 H   0  0  0  0  0  0  0  0  0  0  0  0
    2.4671   -2.9098    0.5660 H   0  0  0  0  0  0  0  0  0  0  0  0
    3.0089   -0.6589   -0.3706 H   0  0  0  0  0  0  0  0  0  0  0  0
    4.6464   -0.8352    0.1715 H   0  0  0  0  0  0  0  0  0  0  0  0
    3.1894   -3.2100   -3.1323 H   0  0  0  0  0  0  0  0  0  0  0  0
    2.1401   -2.0404   -2.3423 H   0  0  0  0  0  0  0  0  0  0  0  0
    2.5161   -3.5496   -1.5590 H   0  0  0  0  0  0  0  0  0  0  0  0
    4.9939   -1.4061   -3.4368 H   0  0  0  0  0  0  0  0  0  0  0  0
    5.4412   -0.3834   -2.0740 H   0  0  0  0  0  0  0  0  0  0  0  0
    3.8315   -0.2800   -2.7338 H   0  0  0  0  0  0  0  0  0  0  0  0
    5.4712   -3.6775   -2.1880 H   0  0  0  0  0  0  0  0  0  0  0  0
    7.1456   -3.1624   -0.7803 H   0  0  0  0  0  0  0  0  0  0  0  0
    4.0645   -4.7228   -0.5370 H   0  0  0  0  0  0  0  0  0  0  0  0
    5.9460   -5.6548   -0.5945 H   0  0  0  0  0  0  0  0  0  0  0  0
    5.3142   -2.8896    1.5171 H   0  0  0  0  0  0  0  0  0  0  0  0
    2.2319   -5.1545    1.2330 H   0  0  0  0  0  0  0  0  0  0  0  0
    2.6928   -6.1797    2.5569 H   0  0  0  0  0  0  0  0  0  0  0  0
    3.6429   -6.1965    1.0887 H   0  0  0  0  0  0  0  0  0  0  0  0
  1  2  1  0
  1 28  1  0
  1 29  1  0
  1 30  1  0
  2 24  1  0
  2  3  1  0
  2  4  1  0
  3 31  1  0
  3 32  1  0
  3 33  1  0
  4  5  2  0
  4 34  1  0
  5  6  1  0
  5 35  1  0
  6 21  1  0
  6 26  1  0
  6  7  1  6
  7  8  1  0
  8  9  1  0
  8 10  1  0
  8 11  1  0
  9 36  1  0
  9 37  1  0
  9 38  1  0
 10 39  1  0
 10 40  1  0
 10 41  1  0
 11 20  1  0
 11 12  1  0
 11 42  1  6
 12 13  1  0
 12 43  1  0
 12 44  1  0
 13 14  1  0
 13 15  1  0
 13 16  1  0
 14 45  1  0
 14 46  1  0
 14 47  1  0
 15 48  1  0
 15 49  1  0
 15 50  1  0
 16 17  1  0
 16 18  1  0
 16 51  1  6
 17 52  1  0
 18 19  1  0
 18 20  1  0
 18 53  1  6
 19 54  1  0
 20 21  1  0
 20 55  1  1
 21 22  1  6
 21 23  1  0
 22 56  1  0
 22 57  1  0
 22 58  1  0
 23 24  2  0
 23 26  1  0
 24 25  1  0
 26 27  2  0
M  CHG  1  25  -1
M  END
>  <i_m_ct_stereo_status>  (312) 
1

>  <s_m_source_file>  (312) 
/var/tmp/pbs.5076255.sched01/tmpajq2dbrl/12675ddggds.sdf

>  <i_m_source_file_index>  (312) 
19

>  <i_lp_mmshare_version>  (312) 
48012

>  <i_f3d_flags>  (312) 
0

>  <s_epik_input>  (312) 
W0NIXTE9W0NIXUMoW0NIM10pKFtDSDNdKUMoPU8pW0NASF0oQzI9TylbQ0BdKFtDQEBdMTIzKShbQ0gzXSlbQ0BASF00W0NAQEhdKEMoTzMpKFtDSDNdKVtDSDNdKVtDSDJdQyhbQ0gzXSkoW0NIM10pW0NAQEhdKFtPSF0pW0NASF00W09IXQ==

>  <s_epik_cmdline>  (312) 
J2VwaWtfcHl0aG9uJywgJy1waHQnLCAnMi4wJywgJy1waCcsICc3LjAnLCAnLXRuJywgJzgnLCAnLW1hJywgJzIwMCcsICctaW1hZScsICc8aW5maWxlLm1hZT4nLCAnLW9tYWUnLCAnPG91dGZpbGUubWFlPic=

>  <r_epik_Ionization_Penalty>  (312) 
0.00221454

>  <r_epik_Ionization_Penalty_Charging>  (312) 
0.00221256

>  <r_epik_Ionization_Penalty_Neutral>  (312) 
1.98307e-06

>  <r_epik_State_Penalty>  (312) 
0.00262055

>  <r_epik_Charging_Adjusted_Penalty>  (312) 
0.00483311

>  <i_epik_Tot_Q>  (312) 
-1

>  <i_epik_Tot_abs_Q>  (312) 
1

>  <s_lp_Force_Field>  (312) 
OPLS3e

>  <r_lp_Energy>  (312) 
93.3224

>  <b_lp_Chiralities_Consistent>  (312) 
1

>  <s_lp_Variant>  (312) 
100:0-1

>  <s_i_glide_gridfile>  (312) 
pfpi4k_grid

>  <i_i_glide_lignum>  (312) 
19

>  <i_i_glide_rotatable_bonds>  (312) 
2

>  <r_i_docking_score>  (312) 
-2.2308

>  <r_i_glide_ligand_efficiency>  (312) 
-0.0826222

>  <r_i_glide_ligand_efficiency_sa>  (312) 
-0.247866

>  <r_i_glide_ligand_efficiency_ln>  (312) 
-0.519293

>  <r_i_glide_gscore>  (312) 
-2.2308

>  <r_i_glide_lipo>  (312) 
-0.152816

>  <r_i_glide_hbond>  (312) 
0

>  <r_i_glide_metal>  (312) 
-0

>  <r_i_glide_rewards>  (312) 
-0.87903

>  <r_i_glide_evdw>  (312) 
-18.6451

>  <r_i_glide_ecoul>  (312) 
-1.778

>  <r_i_glide_erotb>  (312) 
0

>  <r_i_glide_esite>  (312) 
0

>  <r_i_glide_emodel>  (312) 
-22.4462

>  <r_i_glide_energy>  (312) 
-20.4231

>  <r_i_glide_einternal>  (312) 
0.819507

>  <r_i_glide_intrahb_reward>  (312) 
-0

>  <i_i_glide_confnum>  (312) 
2

>  <i_i_glide_posenum>  (312) 
6

>  <r_i_glide_eff_state_penalty>  (312) 
0

>  <ligand_id>  (312) 
100

>  <original_smiles>  (312) 
CC1(C)C=CC23OC(C)(C)C4CC(C)(C)C(O)C(O)C4C2(C)C(C1=O)C3=O

>  <smiles>  (312) 
[H]OC1([H])C([H])(O[H])C(C([H])([H])[H])(C([H])([H])[H])C([H])([H])C2([H])C1([H])C1(C([H])([H])[H])C3=C([O-])C(C([H])([H])[H])(C([H])([H])[H])C([H])=C([H])C1(OC2(C([H])([H])[H])C([H])([H])[H])C3=O

$$$$
100:0:1
     RDKit          3D

 58 61  0  0  1  0  0  0  0  0999 V2000
    5.6252   -5.7505    6.5475 C   0  0  0  0  0  0  0  0  0  0  0  0
    4.7572   -6.1224    5.3247 C   0  0  0  0  0  0  0  0  0  0  0  0
    4.4875   -7.6519    5.4204 C   0  0  0  0  0  0  0  0  0  0  0  0
    3.3766   -5.4519    5.4828 C   0  0  0  0  0  0  0  0  0  0  0  0
    2.7857   -4.4308    4.8028 C   0  0  0  0  0  0  0  0  0  0  0  0
    3.3926   -3.5404    3.7162 C   0  0  2  0  0  0  0  0  0  0  0  0
    2.5816   -2.4098    3.4331 O   0  0  0  0  0  0  0  0  0  0  0  0
    2.8520   -1.5637    2.3108 C   0  0  0  0  0  0  0  0  0  0  0  0
    1.4433   -0.9950    2.0695 C   0  0  0  0  0  0  0  0  0  0  0  0
    3.7834   -0.4377    2.7899 C   0  0  0  0  0  0  0  0  0  0  0  0
    3.3694   -2.3011    1.0303 C   0  0  1  0  0  0  0  0  0  0  0  0
    3.7548   -1.3336   -0.1160 C   0  0  0  0  0  0  0  0  0  0  0  0
    4.2086   -2.0277   -1.4244 C   0  0  0  0  0  0  0  0  0  0  0  0
    3.0416   -2.8157   -2.0692 C   0  0  0  0  0  0  0  0  0  0  0  0
    4.6164   -0.9354   -2.4383 C   0  0  0  0  0  0  0  0  0  0  0  0
    5.3903   -2.9912   -1.1176 C   0  0  1  0  0  0  0  0  0  0  0  0
    6.5602   -2.2589   -0.7842 O   0  0  0  0  0  0  0  0  0  0  0  0
    5.0384   -3.9777    0.0305 C   0  0  1  0  0  0  0  0  0  0  0  0
    6.1757   -4.7701    0.3159 O   0  0  0  0  0  0  0  0  0  0  0  0
    4.5274   -3.2740    1.3200 C   0  0  2  0  0  0  0  0  0  0  0  0
    4.0868   -4.2050    2.4835 C   0  0  2  0  0  0  0  0  0  0  0  0
    3.3447   -5.4557    1.9719 C   0  0  0  0  0  0  0  0  0  0  0  0
    5.2475   -4.4215    3.4979 C   0  0  0  0  0  0  0  0  0  0  0  0
    5.4846   -5.6941    4.0049 C   0  0  0  0  0  0  0  0  0  0  0  0
    5.8772   -6.7154    3.3816 O   0  0  0  0  0  0  0  0  0  0  0  0
    4.7836   -3.2387    4.2184 C   0  0  0  0  0  0  0  0  0  0  0  0
    5.3761   -2.3952    4.8779 O   0  0  0  0  0  0  0  0  0  0  0  0
    5.8106   -4.6772    6.6073 H   0  0  0  0  0  0  0  0  0  0  0  0
    6.5912   -6.2569    6.5128 H   0  0  0  0  0  0  0  0  0  0  0  0
    5.1354   -6.0494    7.4786 H   0  0  0  0  0  0  0  0  0  0  0  0
    3.8668   -7.9967    4.5940 H   0  0  0  0  0  0  0  0  0  0  0  0
    3.9778   -7.9194    6.3416 H   0  0  0  0  0  0  0  0  0  0  0  0
    5.4113   -8.2275    5.3984 H   0  0  0  0  0  0  0  0  0  0  0  0
    2.7857   -5.9005    6.2655 H   0  0  0  0  0  0  0  0  0  0  0  0
    1.8037   -4.1265    5.1152 H   0  0  0  0  0  0  0  0  0  0  0  0
    1.4242   -0.2391    1.2844 H   0  0  0  0  0  0  0  0  0  0  0  0
    1.0290   -0.5537    2.9764 H   0  0  0  0  0  0  0  0  0  0  0  0
    0.7665   -1.7933    1.7679 H   0  0  0  0  0  0  0  0  0  0  0  0
    3.7209    0.4327    2.1375 H   0  0  0  0  0  0  0  0  0  0  0  0
    4.8237   -0.7577    2.8138 H   0  0  0  0  0  0  0  0  0  0  0  0
    3.5101   -0.1264    3.7975 H   0  0  0  0  0  0  0  0  0  0  0  0
    2.5424   -2.9083    0.6731 H   0  0  0  0  0  0  0  0  0  0  0  0
    2.9371   -0.6553   -0.3354 H   0  0  0  0  0  0  0  0  0  0  0  0
    4.5745   -0.7025    0.2256 H   0  0  0  0  0  0  0  0  0  0  0  0
    3.3390   -3.2855   -3.0093 H   0  0  0  0  0  0  0  0  0  0  0  0
    2.1955   -2.1644   -2.2854 H   0  0  0  0  0  0  0  0  0  0  0  0
    2.6643   -3.6143   -1.4325 H   0  0  0  0  0  0  0  0  0  0  0  0
    5.0059   -1.3724   -3.3565 H   0  0  0  0  0  0  0  0  0  0  0  0
    5.3760   -0.2732   -2.0288 H   0  0  0  0  0  0  0  0  0  0  0  0
    3.7625   -0.3080   -2.7009 H   0  0  0  0  0  0  0  0  0  0  0  0
    5.6312   -3.5644   -2.0152 H   0  0  0  0  0  0  0  0  0  0  0  0
    7.2135   -2.9046   -0.5472 H   0  0  0  0  0  0  0  0  0  0  0  0
    4.2721   -4.6476   -0.3582 H   0  0  0  0  0  0  0  0  0  0  0  0
    5.9368   -5.4115    0.9773 H   0  0  0  0  0  0  0  0  0  0  0  0
    5.3660   -2.6630    1.6515 H   0  0  0  0  0  0  0  0  0  0  0  0
    2.4570   -5.1542    1.4105 H   0  0  0  0  0  0  0  0  0  0  0  0
    2.9808   -6.0927    2.7819 H   0  0  0  0  0  0  0  0  0  0  0  0
    3.9496   -6.0921    1.3221 H   0  0  0  0  0  0  0  0  0  0  0  0
  1  2  1  0
  1 28  1  0
  1 29  1  0
  1 30  1  0
  2 24  1  0
  2  3  1  0
  2  4  1  0
  3 31  1  0
  3 32  1  0
  3 33  1  0
  4  5  2  0
  4 34  1  0
  5  6  1  0
  5 35  1  0
  6 21  1  0
  6 26  1  0
  6  7  1  6
  7  8  1  0
  8  9  1  0
  8 10  1  0
  8 11  1  0
  9 36  1  0
  9 37  1  0
  9 38  1  0
 10 39  1  0
 10 40  1  0
 10 41  1  0
 11 20  1  0
 11 12  1  0
 11 42  1  6
 12 13  1  0
 12 43  1  0
 12 44  1  0
 13 14  1  0
 13 15  1  0
 13 16  1  0
 14 45  1  0
 14 46  1  0
 14 47  1  0
 15 48  1  0
 15 49  1  0
 15 50  1  0
 16 17  1  0
 16 18  1  0
 16 51  1  6
 17 52  1  0
 18 19  1  0
 18 20  1  0
 18 53  1  6
 19 54  1  0
 20 21  1  0
 20 55  1  1
 21 22  1  6
 21 23  1  0
 22 56  1  0
 22 57  1  0
 22 58  1  0
 23 24  2  0
 23 26  1  0
 24 25  1  0
 26 27  2  0
M  CHG  1  25  -1
M  END
>  <i_m_ct_stereo_status>  (313) 
1

>  <s_m_source_file>  (313) 
/var/tmp/pbs.5076255.sched01/tmpajq2dbrl/12675ddggds.sdf

>  <i_m_source_file_index>  (313) 
19

>  <i_lp_mmshare_version>  (313) 
48012

>  <i_f3d_flags>  (313) 
0

>  <s_epik_input>  (313) 
W0NIXTE9W0NIXUMoW0NIM10pKFtDSDNdKUMoPU8pW0NASF0oQzI9TylbQ0BdKFtDQEBdMTIzKShbQ0gzXSlbQ0BASF00W0NAQEhdKEMoTzMpKFtDSDNdKVtDSDNdKVtDSDJdQyhbQ0gzXSkoW0NIM10pW0NAQEhdKFtPSF0pW0NASF00W09IXQ==

>  <s_epik_cmdline>  (313) 
J2VwaWtfcHl0aG9uJywgJy1waHQnLCAnMi4wJywgJy1waCcsICc3LjAnLCAnLXRuJywgJzgnLCAnLW1hJywgJzIwMCcsICctaW1hZScsICc8aW5maWxlLm1hZT4nLCAnLW9tYWUnLCAnPG91dGZpbGUubWFlPic=

>  <r_epik_Ionization_Penalty>  (313) 
0.00221454

>  <r_epik_Ionization_Penalty_Charging>  (313) 
0.00221256

>  <r_epik_Ionization_Penalty_Neutral>  (313) 
1.98307e-06

>  <r_epik_State_Penalty>  (313) 
0.00262055

>  <r_epik_Charging_Adjusted_Penalty>  (313) 
0.00483311

>  <i_epik_Tot_Q>  (313) 
-1

>  <i_epik_Tot_abs_Q>  (313) 
1

>  <s_lp_Force_Field>  (313) 
OPLS3e

>  <r_lp_Energy>  (313) 
93.3224

>  <b_lp_Chiralities_Consistent>  (313) 
1

>  <s_lp_Variant>  (313) 
100:0-1

>  <s_i_glide_gridfile>  (313) 
pfpi4k_grid

>  <i_i_glide_lignum>  (313) 
19

>  <i_i_glide_rotatable_bonds>  (313) 
2

>  <r_i_docking_score>  (313) 
-2.22931

>  <r_i_glide_ligand_efficiency>  (313) 
-0.0825671

>  <r_i_glide_ligand_efficiency_sa>  (313) 
-0.247701

>  <r_i_glide_ligand_efficiency_ln>  (313) 
-0.518947

>  <r_i_glide_gscore>  (313) 
-2.22931

>  <r_i_glide_lipo>  (313) 
-0.138682

>  <r_i_glide_hbond>  (313) 
0

>  <r_i_glide_metal>  (313) 
-0

>  <r_i_glide_rewards>  (313) 
-0.886833

>  <r_i_glide_evdw>  (313) 
-17.9218

>  <r_i_glide_ecoul>  (313) 
-2.05137

>  <r_i_glide_erotb>  (313) 
0

>  <r_i_glide_esite>  (313) 
0

>  <r_i_glide_emodel>  (313) 
-22.1647

>  <r_i_glide_energy>  (313) 
-19.9732

>  <r_i_glide_einternal>  (313) 
0.694156

>  <r_i_glide_intrahb_reward>  (313) 
-0

>  <i_i_glide_confnum>  (313) 
2

>  <i_i_glide_posenum>  (313) 
13

>  <r_i_glide_eff_state_penalty>  (313) 
0

>  <ligand_id>  (313) 
100

>  <original_smiles>  (313) 
CC1(C)C=CC23OC(C)(C)C4CC(C)(C)C(O)C(O)C4C2(C)C(C1=O)C3=O

>  <smiles>  (313) 
[H]OC1([H])C([H])(O[H])C(C([H])([H])[H])(C([H])([H])[H])C([H])([H])C2([H])C1([H])C1(C([H])([H])[H])C3=C([O-])C(C([H])([H])[H])(C([H])([H])[H])C([H])=C([H])C1(OC2(C([H])([H])[H])C([H])([H])[H])C3=O

$$$$
100:0:2
     RDKit          3D

 58 61  0  0  1  0  0  0  0  0999 V2000
    4.9442   -6.3296    6.3127 C   0  0  0  0  0  0  0  0  0  0  0  0
    4.0099   -6.5184    5.1021 C   0  0  0  0  0  0  0  0  0  0  0  0
    3.5015   -7.9892    5.1490 C   0  0  0  0  0  0  0  0  0  0  0  0
    2.7576   -5.6370    5.2962 C   0  0  0  0  0  0  0  0  0  0  0  0
    2.3445   -4.5146    4.6567 C   0  0  0  0  0  0  0  0  0  0  0  0
    3.0836   -3.7040    3.5858 C   0  0  2  0  0  0  0  0  0  0  0  0
    2.4415   -2.4573    3.3429 O   0  0  0  0  0  0  0  0  0  0  0  0
    2.8167   -1.6219    2.2434 C   0  0  0  0  0  0  0  0  0  0  0  0
    1.5103   -0.8317    2.0386 C   0  0  0  0  0  0  0  0  0  0  0  0
    3.9260   -0.6788    2.7382 C   0  0  0  0  0  0  0  0  0  0  0  0
    3.1943   -2.3953    0.9319 C   0  0  1  0  0  0  0  0  0  0  0  0
    3.7177   -1.4653   -0.1925 C   0  0  0  0  0  0  0  0  0  0  0  0
    4.0325   -2.1790   -1.5319 C   0  0  0  0  0  0  0  0  0  0  0  0
    2.7468   -2.7560   -2.1714 C   0  0  0  0  0  0  0  0  0  0  0  0
    4.5928   -1.1285   -2.5169 C   0  0  0  0  0  0  0  0  0  0  0  0
    5.0571   -3.3144   -1.2751 C   0  0  1  0  0  0  0  0  0  0  0  0
    6.3273   -2.7595   -0.9580 O   0  0  0  0  0  0  0  0  0  0  0  0
    4.5686   -4.2734   -0.1535 C   0  0  1  0  0  0  0  0  0  0  0  0
    5.5596   -5.2496    0.0766 O   0  0  0  0  0  0  0  0  0  0  0  0
    4.1909   -3.5443    1.1727 C   0  0  2  0  0  0  0  0  0  0  0  0
    3.6263   -4.4370    2.3197 C   0  0  2  0  0  0  0  0  0  0  0  0
    2.6761   -5.5271    1.7817 C   0  0  0  0  0  0  0  0  0  0  0  0
    4.7601   -4.8768    3.3042 C   0  0  0  0  0  0  0  0  0  0  0  0
    4.7837   -6.1862    3.7811 C   0  0  0  0  0  0  0  0  0  0  0  0
    5.0108   -7.2327    3.1343 O   0  0  0  0  0  0  0  0  0  0  0  0
    4.5250   -3.6526    4.0585 C   0  0  0  0  0  0  0  0  0  0  0  0
    5.2718   -2.9257    4.7109 O   0  0  0  0  0  0  0  0  0  0  0  0
    5.2991   -5.3016    6.3978 H   0  0  0  0  0  0  0  0  0  0  0  0
    5.8165   -6.9815    6.2409 H   0  0  0  0  0  0  0  0  0  0  0  0
    4.4305   -6.5764    7.2421 H   0  0  0  0  0  0  0  0  0  0  0  0
    2.8244   -8.2022    4.3227 H   0  0  0  0  0  0  0  0  0  0  0  0
    2.9700   -8.2051    6.0697 H   0  0  0  0  0  0  0  0  0  0  0  0
    4.3208   -8.7046    5.0914 H   0  0  0  0  0  0  0  0  0  0  0  0
    2.1081   -6.0062    6.0728 H   0  0  0  0  0  0  0  0  0  0  0  0
    1.4240   -4.0657    4.9896 H   0  0  0  0  0  0  0  0  0  0  0  0
    1.6030   -0.0547    1.2803 H   0  0  0  0  0  0  0  0  0  0  0  0
    1.1853   -0.3608    2.9657 H   0  0  0  0  0  0  0  0  0  0  0  0
    0.7027   -1.4888    1.7191 H   0  0  0  0  0  0  0  0  0  0  0  0
    3.9974    0.2124    2.1140 H   0  0  0  0  0  0  0  0  0  0  0  0
    4.9030   -1.1601    2.7353 H   0  0  0  0  0  0  0  0  0  0  0  0
    3.7220   -0.3582    3.7599 H   0  0  0  0  0  0  0  0  0  0  0  0
    2.2756   -2.8519    0.5718 H   0  0  0  0  0  0  0  0  0  0  0  0
    3.0090   -0.6614   -0.3774 H   0  0  0  0  0  0  0  0  0  0  0  0
    4.6249   -0.9719    0.1563 H   0  0  0  0  0  0  0  0  0  0  0  0
    2.9497   -3.2300   -3.1330 H   0  0  0  0  0  0  0  0  0  0  0  0
    2.0113   -1.9738   -2.3482 H   0  0  0  0  0  0  0  0  0  0  0  0
    2.2542   -3.5040   -1.5521 H   0  0  0  0  0  0  0  0  0  0  0  0
    4.9021   -1.5877   -3.4554 H   0  0  0  0  0  0  0  0  0  0  0  0
    5.4513   -0.6054   -2.1003 H   0  0  0  0  0  0  0  0  0  0  0  0
    3.8501   -0.3629   -2.7469 H   0  0  0  0  0  0  0  0  0  0  0  0
    5.1909   -3.8837   -2.1971 H   0  0  0  0  0  0  0  0  0  0  0  0
    6.3063   -2.4528   -0.0619 H   0  0  0  0  0  0  0  0  0  0  0  0
    3.6971   -4.8008   -0.5360 H   0  0  0  0  0  0  0  0  0  0  0  0
    5.5774   -5.8314   -0.6710 H   0  0  0  0  0  0  0  0  0  0  0  0
    5.1191   -3.0818    1.5086 H   0  0  0  0  0  0  0  0  0  0  0  0
    1.8494   -5.0629    1.2485 H   0  0  0  0  0  0  0  0  0  0  0  0
    2.2290   -6.1235    2.5753 H   0  0  0  0  0  0  0  0  0  0  0  0
    3.1634   -6.2267    1.1033 H   0  0  0  0  0  0  0  0  0  0  0  0
  1  2  1  0
  1 28  1  0
  1 29  1  0
  1 30  1  0
  2 24  1  0
  2  3  1  0
  2  4  1  0
  3 31  1  0
  3 32  1  0
  3 33  1  0
  4  5  2  0
  4 34  1  0
  5  6  1  0
  5 35  1  0
  6 21  1  0
  6 26  1  0
  6  7  1  6
  7  8  1  0
  8  9  1  0
  8 10  1  0
  8 11  1  0
  9 36  1  0
  9 37  1  0
  9 38  1  0
 10 39  1  0
 10 40  1  0
 10 41  1  0
 11 20  1  0
 11 12  1  0
 11 42  1  6
 12 13  1  0
 12 43  1  0
 12 44  1  0
 13 14  1  0
 13 15  1  0
 13 16  1  0
 14 45  1  0
 14 46  1  0
 14 47  1  0
 15 48  1  0
 15 49  1  0
 15 50  1  0
 16 17  1  0
 16 18  1  0
 16 51  1  6
 17 52  1  0
 18 19  1  0
 18 20  1  0
 18 53  1  6
 19 54  1  0
 20 21  1  0
 20 55  1  1
 21 22  1  6
 21 23  1  0
 22 56  1  0
 22 57  1  0
 22 58  1  0
 23 24  2  0
 23 26  1  0
 24 25  1  0
 26 27  2  0
M  CHG  1  25  -1
M  END
>  <i_m_ct_stereo_status>  (314) 
1

>  <s_m_source_file>  (314) 
/var/tmp/pbs.5076255.sched01/tmpajq2dbrl/12675ddggds.sdf

>  <i_m_source_file_index>  (314) 
19

>  <i_lp_mmshare_version>  (314) 
48012

>  <i_f3d_flags>  (314) 
0

>  <s_epik_input>  (314) 
W0NIXTE9W0NIXUMoW0NIM10pKFtDSDNdKUMoPU8pW0NASF0oQzI9TylbQ0BdKFtDQEBdMTIzKShbQ0gzXSlbQ0BASF00W0NAQEhdKEMoTzMpKFtDSDNdKVtDSDNdKVtDSDJdQyhbQ0gzXSkoW0NIM10pW0NAQEhdKFtPSF0pW0NASF00W09IXQ==

>  <s_epik_cmdline>  (314) 
J2VwaWtfcHl0aG9uJywgJy1waHQnLCAnMi4wJywgJy1waCcsICc3LjAnLCAnLXRuJywgJzgnLCAnLW1hJywgJzIwMCcsICctaW1hZScsICc8aW5maWxlLm1hZT4nLCAnLW9tYWUnLCAnPG91dGZpbGUubWFlPic=

>  <r_epik_Ionization_Penalty>  (314) 
0.00221454

>  <r_epik_Ionization_Penalty_Charging>  (314) 
0.00221256

>  <r_epik_Ionization_Penalty_Neutral>  (314) 
1.98307e-06

>  <r_epik_State_Penalty>  (314) 
0.00262055

>  <r_epik_Charging_Adjusted_Penalty>  (314) 
0.00483311

>  <i_epik_Tot_Q>  (314) 
-1

>  <i_epik_Tot_abs_Q>  (314) 
1

>  <s_lp_Force_Field>  (314) 
OPLS3e

>  <r_lp_Energy>  (314) 
93.3224

>  <b_lp_Chiralities_Consistent>  (314) 
1

>  <s_lp_Variant>  (314) 
100:0-1

>  <s_i_glide_gridfile>  (314) 
pfpi4k_grid

>  <i_i_glide_lignum>  (314) 
19

>  <i_i_glide_rotatable_bonds>  (314) 
2

>  <r_i_docking_score>  (314) 
-2.1737

>  <r_i_glide_ligand_efficiency>  (314) 
-0.0805074

>  <r_i_glide_ligand_efficiency_sa>  (314) 
-0.241522

>  <r_i_glide_ligand_efficiency_ln>  (314) 
-0.506002

>  <r_i_glide_gscore>  (314) 
-2.1737

>  <r_i_glide_lipo>  (314) 
-0.12053

>  <r_i_glide_hbond>  (314) 
0

>  <r_i_glide_metal>  (314) 
-0

>  <r_i_glide_rewards>  (314) 
-0.866316

>  <r_i_glide_evdw>  (314) 
-19.1909

>  <r_i_glide_ecoul>  (314) 
-1.51538

>  <r_i_glide_erotb>  (314) 
0

>  <r_i_glide_esite>  (314) 
0

>  <r_i_glide_emodel>  (314) 
-22.8747

>  <r_i_glide_energy>  (314) 
-20.7063

>  <r_i_glide_einternal>  (314) 
0.478974

>  <r_i_glide_intrahb_reward>  (314) 
-0

>  <i_i_glide_confnum>  (314) 
1

>  <i_i_glide_posenum>  (314) 
10

>  <r_i_glide_eff_state_penalty>  (314) 
0

>  <ligand_id>  (314) 
100

>  <original_smiles>  (314) 
CC1(C)C=CC23OC(C)(C)C4CC(C)(C)C(O)C(O)C4C2(C)C(C1=O)C3=O

>  <smiles>  (314) 
[H]OC1([H])C([H])(O[H])C(C([H])([H])[H])(C([H])([H])[H])C([H])([H])C2([H])C1([H])C1(C([H])([H])[H])C3=C([O-])C(C([H])([H])[H])(C([H])([H])[H])C([H])=C([H])C1(OC2(C([H])([H])[H])C([H])([H])[H])C3=O

$$$$
101:0:0
     RDKit          3D

 89 94  0  0  1  0  0  0  0  0999 V2000
   -1.4661    1.3174    2.1215 C   0  0  0  0  0  0  0  0  0  0  0  0
   -1.1856    0.9180    3.5737 C   0  0  0  0  0  0  0  0  0  0  0  0
   -0.5933    1.9653    4.3414 O   0  0  0  0  0  0  0  0  0  0  0  0
    0.6962    2.4393    3.9442 C   0  0  2  0  0  0  0  0  0  0  0  0
    1.7834    1.6613    4.7562 C   0  0  2  0  0  0  0  0  0  0  0  0
    3.1502    1.6162    4.0371 C   0  0  0  0  0  0  0  0  0  0  0  0
    4.1451    0.5524    4.5506 C   0  0  1  0  0  0  0  0  0  0  0  0
    5.0314    1.1264    5.6685 C   0  0  0  0  0  0  0  0  0  0  0  0
    3.4509   -0.7563    4.9991 C   0  0  1  0  0  0  0  0  0  0  0  0
    2.1375   -0.4982    5.7221 C   0  0  1  0  0  0  0  0  0  0  0  0
    1.3301    0.3184    4.8884 O   0  0  0  0  0  0  0  0  0  0  0  0
    1.5705   -1.9105    5.8670 C   0  0  1  0  0  0  0  0  0  0  0  0
    0.1837   -1.8948    6.1601 O   0  0  0  0  0  0  0  0  0  0  0  0
    2.0411   -2.7764    4.6487 C   0  0  2  0  0  0  0  0  0  0  0  0
    0.8355   -3.1086    3.7339 C   0  0  0  0  0  0  0  0  0  0  0  0
    2.6948   -4.1051    5.2007 C   0  0  1  0  0  0  0  0  0  0  0  0
    1.8068   -4.9485    6.1600 C   0  0  0  0  0  0  0  0  0  0  0  0
    1.2624   -6.2373    5.5812 C   0  0  0  0  0  0  0  0  0  0  0  0
    1.5559   -6.7177    4.3592 C   0  0  0  0  0  0  0  0  0  0  0  0
    1.0270   -8.0310    3.8933 C   0  0  2  0  0  0  0  0  0  0  0  0
    1.5440   -8.5816    2.5903 C   0  0  2  0  0  0  0  0  0  0  0  0
    2.5238   -7.7396    1.7932 C   0  0  0  0  0  0  0  0  0  0  0  0
    3.2987   -6.9134    2.6523 O   0  0  0  0  0  0  0  0  0  0  0  0
    2.5333   -5.9982    3.4355 C   0  0  2  0  0  0  0  0  0  0  0  0
    3.4698   -4.9864    4.1599 C   0  0  2  0  0  0  0  0  0  0  0  0
    4.5655   -5.7855    4.9213 C   0  0  0  0  0  0  0  0  0  0  0  0
    4.1490   -4.0727    3.1041 C   0  0  0  0  0  0  0  0  0  0  0  0
    4.4396   -2.6580    3.6256 C   0  0  0  0  0  0  0  0  0  0  0  0
    3.1428   -1.8639    3.9413 C   0  0  2  0  0  0  0  0  0  0  0  0
    2.6458   -1.2478    2.5914 C   0  0  0  0  0  0  0  0  0  0  0  0
    0.0674   -8.2488    2.7370 C   0  0  0  0  0  0  0  0  0  0  0  0
   -0.9122   -9.4119    2.7913 C   0  0  0  0  0  0  0  0  0  0  0  0
   -0.5824   -7.0874    2.0229 C   0  0  0  0  0  0  0  0  0  0  0  0
    0.6544    3.9946    4.0926 C   0  0  0  0  0  0  0  0  0  0  0  0
    0.3454    4.4457    5.5320 C   0  0  0  0  0  0  0  0  0  0  0  0
    1.9085    4.7052    3.5649 C   0  0  0  0  0  0  0  0  0  0  0  0
   -0.4006    4.5005    3.2940 O   0  0  0  0  0  0  0  0  0  0  0  0
   -1.9706    0.5215    1.5902 H   0  0  0  0  0  0  0  0  0  0  0  0
   -0.5685    1.5443    1.5483 H   0  0  0  0  0  0  0  0  0  0  0  0
   -2.1235    2.1804    2.0860 H   0  0  0  0  0  0  0  0  0  0  0  0
   -2.1177    0.6651    4.0739 H   0  0  0  0  0  0  0  0  0  0  0  0
   -0.6079    0.0019    3.5975 H   0  0  0  0  0  0  0  0  0  0  0  0
    0.8648    2.2253    2.8879 H   0  0  0  0  0  0  0  0  0  0  0  0
    1.8829    2.0552    5.7675 H   0  0  0  0  0  0  0  0  0  0  0  0
    2.9998    1.4744    2.9668 H   0  0  0  0  0  0  0  0  0  0  0  0
    3.6591    2.5706    4.1140 H   0  0  0  0  0  0  0  0  0  0  0  0
    4.8327    0.3175    3.7346 H   0  0  0  0  0  0  0  0  0  0  0  0
    4.4589    1.4164    6.5502 H   0  0  0  0  0  0  0  0  0  0  0  0
    5.5564    2.0130    5.3198 H   0  0  0  0  0  0  0  0  0  0  0  0
    5.7964    0.4116    5.9723 H   0  0  0  0  0  0  0  0  0  0  0  0
    4.0993   -1.2202    5.7452 H   0  0  0  0  0  0  0  0  0  0  0  0
    2.2695   -0.0219    6.6942 H   0  0  0  0  0  0  0  0  0  0  0  0
    2.0430   -2.2934    6.7730 H   0  0  0  0  0  0  0  0  0  0  0  0
   -0.2464   -1.4956    5.4141 H   0  0  0  0  0  0  0  0  0  0  0  0
    1.1470   -3.4956    2.7699 H   0  0  0  0  0  0  0  0  0  0  0  0
    0.2214   -2.2333    3.5313 H   0  0  0  0  0  0  0  0  0  0  0  0
    0.1900   -3.8570    4.1868 H   0  0  0  0  0  0  0  0  0  0  0  0
    3.4693   -3.7265    5.8671 H   0  0  0  0  0  0  0  0  0  0  0  0
    2.4102   -5.2356    7.0222 H   0  0  0  0  0  0  0  0  0  0  0  0
    0.9678   -4.3775    6.5512 H   0  0  0  0  0  0  0  0  0  0  0  0
    0.6160   -6.8019    6.2407 H   0  0  0  0  0  0  0  0  0  0  0  0
    0.9125   -8.7213    4.7210 H   0  0  0  0  0  0  0  0  0  0  0  0
    1.8066   -9.6314    2.6125 H   0  0  0  0  0  0  0  0  0  0  0  0
    3.1877   -8.4013    1.2333 H   0  0  0  0  0  0  0  0  0  0  0  0
    1.9931   -7.1326    1.0591 H   0  0  0  0  0  0  0  0  0  0  0  0
    1.9212   -5.4451    2.7342 H   0  0  0  0  0  0  0  0  0  0  0  0
    5.1641   -6.4005    4.2491 H   0  0  0  0  0  0  0  0  0  0  0  0
    4.1272   -6.4683    5.6493 H   0  0  0  0  0  0  0  0  0  0  0  0
    5.2549   -5.1376    5.4613 H   0  0  0  0  0  0  0  0  0  0  0  0
    5.0862   -4.5204    2.7813 H   0  0  0  0  0  0  0  0  0  0  0  0
    3.5507   -4.0074    2.1942 H   0  0  0  0  0  0  0  0  0  0  0  0
    5.1014   -2.7246    4.4912 H   0  0  0  0  0  0  0  0  0  0  0  0
    5.0264   -2.1255    2.8782 H   0  0  0  0  0  0  0  0  0  0  0  0
    2.4635   -1.9968    1.8232 H   0  0  0  0  0  0  0  0  0  0  0  0
    3.3821   -0.5773    2.1551 H   0  0  0  0  0  0  0  0  0  0  0  0
    1.7264   -0.6786    2.6952 H   0  0  0  0  0  0  0  0  0  0  0  0
   -1.1858   -9.7365    1.7846 H   0  0  0  0  0  0  0  0  0  0  0  0
   -1.8214   -9.1323    3.3259 H   0  0  0  0  0  0  0  0  0  0  0  0
   -0.4636  -10.2575    3.3081 H   0  0  0  0  0  0  0  0  0  0  0  0
   -0.8195   -7.3728    0.9945 H   0  0  0  0  0  0  0  0  0  0  0  0
    0.0852   -6.2272    1.9919 H   0  0  0  0  0  0  0  0  0  0  0  0
   -1.4995   -6.7995    2.5420 H   0  0  0  0  0  0  0  0  0  0  0  0
    1.1392    4.1593    6.2183 H   0  0  0  0  0  0  0  0  0  0  0  0
   -0.5819    4.0103    5.8991 H   0  0  0  0  0  0  0  0  0  0  0  0
    0.2435    5.5282    5.5900 H   0  0  0  0  0  0  0  0  0  0  0  0
    2.7960    4.4477    4.1364 H   0  0  0  0  0  0  0  0  0  0  0  0
    1.8077    5.7892    3.6103 H   0  0  0  0  0  0  0  0  0  0  0  0
    2.0896    4.4461    2.5215 H   0  0  0  0  0  0  0  0  0  0  0  0
   -0.1829    4.4328    2.3372 H   0  0  0  0  0  0  0  0  0  0  0  0
  1  2  1  0
  1 38  1  0
  1 39  1  0
  1 40  1  0
  2  3  1  0
  2 41  1  0
  2 42  1  0
  3  4  1  0
  4  5  1  0
  4 34  1  0
  4 43  1  6
  5 11  1  0
  5  6  1  0
  5 44  1  1
  6  7  1  0
  6 45  1  0
  6 46  1  0
  7  8  1  0
  7  9  1  0
  7 47  1  6
  8 48  1  0
  8 49  1  0
  8 50  1  0
  9 29  1  0
  9 10  1  0
  9 51  1  1
 10 11  1  0
 10 12  1  0
 10 52  1  1
 12 13  1  0
 12 14  1  0
 12 53  1  1
 13 54  1  0
 14 29  1  0
 14 15  1  6
 14 16  1  0
 15 55  1  0
 15 56  1  0
 15 57  1  0
 16 25  1  0
 16 17  1  0
 16 58  1  1
 17 18  1  0
 17 59  1  0
 17 60  1  0
 18 19  2  0
 18 61  1  0
 19 24  1  0
 19 20  1  0
 20 31  1  0
 20 21  1  0
 20 62  1  1
 21 22  1  0
 21 31  1  0
 21 63  1  1
 22 23  1  0
 22 64  1  0
 22 65  1  0
 23 24  1  0
 24 25  1  0
 24 66  1  6
 25 26  1  1
 25 27  1  0
 26 67  1  0
 26 68  1  0
 26 69  1  0
 27 28  1  0
 27 70  1  0
 27 71  1  0
 28 29  1  0
 28 72  1  0
 28 73  1  0
 29 30  1  6
 30 74  1  0
 30 75  1  0
 30 76  1  0
 31 32  1  0
 31 33  1  0
 32 77  1  0
 32 78  1  0
 32 79  1  0
 33 80  1  0
 33 81  1  0
 33 82  1  0
 34 35  1  0
 34 36  1  0
 34 37  1  0
 35 83  1  0
 35 84  1  0
 35 85  1  0
 36 86  1  0
 36 87  1  0
 36 88  1  0
 37 89  1  0
M  END
>  <i_m_ct_stereo_status>  (315) 
1

>  <s_m_source_file>  (315) 
/var/tmp/pbs.5076255.sched01/tmpajq2dbrl/12675ddggds.sdf

>  <i_m_source_file_index>  (315) 
20

>  <i_lp_mmshare_version>  (315) 
48012

>  <i_f3d_flags>  (315) 
0

>  <s_epik_input>  (315) 
W0NIM11bQ0gyXU9bQ0BASF0oQyhbQ0gzXSkoW0NIM10pW09IXSlbQ0BIXShbQ0gyXVtDQEhdMVtDSDNdKU9bQ0BASF0oW0NASF0yW09IXSlbQ0BIXTFbQ0BAXTMoW0NIM10pW0NIMl1bQ0gyXVtDQEBdKFtDSDNdKShbQ0BIXTRbQ0BAXTIzW0NIM10pW0NAQEhdNUMoPVtDSF1bQ0gyXTQpW0NAQEhdNltDQEhdKFtDSDJdTzUpQzYoW0NIM10pW0NIM10=

>  <s_epik_cmdline>  (315) 
J2VwaWtfcHl0aG9uJywgJy1waHQnLCAnMi4wJywgJy1waCcsICc3LjAnLCAnLXRuJywgJzgnLCAnLW1hJywgJzIwMCcsICctaW1hZScsICc8aW5maWxlLm1hZT4nLCAnLW9tYWUnLCAnPG91dGZpbGUubWFlPic=

>  <r_lp_tautomer_probability>  (315) 
1

>  <r_epik_Ionization_Penalty>  (315) 
2.24864e-07

>  <r_epik_Ionization_Penalty_Charging>  (315) 
0

>  <r_epik_Ionization_Penalty_Neutral>  (315) 
2.24864e-07

>  <r_epik_State_Penalty>  (315) 
-0

>  <r_epik_Charging_Adjusted_Penalty>  (315) 
0

>  <i_epik_Tot_Q>  (315) 
0

>  <i_epik_Tot_abs_Q>  (315) 
0

>  <s_lp_Force_Field>  (315) 
OPLS3e

>  <r_lp_Energy>  (315) 
93.8358

>  <b_lp_Chiralities_Consistent>  (315) 
1

>  <s_lp_Variant>  (315) 
101:0-1

>  <s_i_glide_gridfile>  (315) 
pfpi4k_grid

>  <i_i_glide_lignum>  (315) 
20

>  <i_i_glide_rotatable_bonds>  (315) 
6

>  <r_i_docking_score>  (315) 
-2.27765

>  <r_i_glide_ligand_efficiency>  (315) 
-0.0615581

>  <r_i_glide_ligand_efficiency_sa>  (315) 
-0.205125

>  <r_i_glide_ligand_efficiency_ln>  (315) 
-0.493969

>  <r_i_glide_gscore>  (315) 
-2.27765

>  <r_i_glide_lipo>  (315) 
-0.120387

>  <r_i_glide_hbond>  (315) 
0

>  <r_i_glide_metal>  (315) 
-0

>  <r_i_glide_rewards>  (315) 
0

>  <r_i_glide_evdw>  (315) 
-23.5912

>  <r_i_glide_ecoul>  (315) 
-8.05549

>  <r_i_glide_erotb>  (315) 
0.230619

>  <r_i_glide_esite>  (315) 
0

>  <r_i_glide_emodel>  (315) 
-33.285

>  <r_i_glide_energy>  (315) 
-31.6467

>  <r_i_glide_einternal>  (315) 
5.66153

>  <r_i_glide_intrahb_reward>  (315) 
-0

>  <i_i_glide_confnum>  (315) 
4

>  <i_i_glide_posenum>  (315) 
8

>  <r_i_glide_eff_state_penalty>  (315) 
0

>  <ligand_id>  (315) 
101

>  <original_smiles>  (315) 
CCOC(C1CC(C)C2C(O1)C(O)C1(C)C3CC=C4C5C(COC4C3(C)CCC21C)C5(C)C)C(C)(C)O

>  <smiles>  (315) 
[H]OC1([H])C2([H])OC([H])(C([H])(OC([H])([H])C([H])([H])[H])C(O[H])(C([H])([H])[H])C([H])([H])[H])C([H])([H])C([H])(C([H])([H])[H])C2([H])C2(C([H])([H])[H])C([H])([H])C([H])([H])C3(C([H])([H])[H])C4([H])OC([H])([H])C5([H])C([H])(C4=C([H])C([H])([H])C3([H])C12C([H])([H])[H])C5(C([H])([H])[H])C([H])([H])[H]

$$$$
101:0:1
     RDKit          3D

 89 94  0  0  1  0  0  0  0  0999 V2000
   -0.7689   -8.2674    3.2185 C   0  0  0  0  0  0  0  0  0  0  0  0
    0.4908   -8.2168    2.3536 C   0  0  0  0  0  0  0  0  0  0  0  0
    1.4244   -9.2527    2.7011 O   0  0  0  0  0  0  0  0  0  0  0  0
    2.2088   -9.1192    3.9009 C   0  0  2  0  0  0  0  0  0  0  0  0
    3.4417   -8.2404    3.5041 C   0  0  2  0  0  0  0  0  0  0  0  0
    4.4408   -7.9797    4.6637 C   0  0  0  0  0  0  0  0  0  0  0  0
    5.4142   -6.7802    4.4874 C   0  0  1  0  0  0  0  0  0  0  0  0
    6.7347   -7.2831    3.8817 C   0  0  0  0  0  0  0  0  0  0  0  0
    4.8170   -5.6137    3.6595 C   0  0  1  0  0  0  0  0  0  0  0  0
    3.9285   -6.1223    2.5351 C   0  0  1  0  0  0  0  0  0  0  0  0
    2.9490   -6.9759    3.1029 O   0  0  0  0  0  0  0  0  0  0  0  0
    3.3141   -4.8195    2.0280 C   0  0  1  0  0  0  0  0  0  0  0  0
    2.1913   -5.0637    1.2031 O   0  0  0  0  0  0  0  0  0  0  0  0
    3.1455   -3.8239    3.2289 C   0  0  2  0  0  0  0  0  0  0  0  0
    1.6382   -3.6278    3.5652 C   0  0  0  0  0  0  0  0  0  0  0  0
    3.8149   -2.4447    2.8513 C   0  0  1  0  0  0  0  0  0  0  0  0
    3.3003   -1.7827    1.5409 C   0  0  0  0  0  0  0  0  0  0  0  0
    2.4396   -0.5561    1.7180 C   0  0  0  0  0  0  0  0  0  0  0  0
    2.1536    0.0144    2.9017 C   0  0  0  0  0  0  0  0  0  0  0  0
    1.3274    1.2558    2.9843 C   0  0  2  0  0  0  0  0  0  0  0  0
    1.2098    1.9411    4.3243 C   0  0  2  0  0  0  0  0  0  0  0  0
    1.8805    1.2835    5.5225 C   0  0  0  0  0  0  0  0  0  0  0  0
    3.0311    0.5425    5.1290 O   0  0  0  0  0  0  0  0  0  0  0  0
    2.7472   -0.5143    4.2065 C   0  0  2  0  0  0  0  0  0  0  0  0
    4.0040   -1.4129    4.0144 C   0  0  2  0  0  0  0  0  0  0  0  0
    5.2071   -0.4919    3.6572 C   0  0  0  0  0  0  0  0  0  0  0  0
    4.2943   -2.1582    5.3441 C   0  0  0  0  0  0  0  0  0  0  0  0
    4.9249   -3.5384    5.1312 C   0  0  0  0  0  0  0  0  0  0  0  0
    3.9656   -4.5264    4.4046 C   0  0  2  0  0  0  0  0  0  0  0  0
    3.0405   -5.1477    5.5096 C   0  0  0  0  0  0  0  0  0  0  0  0
   -0.0372    1.3939    3.6509 C   0  0  0  0  0  0  0  0  0  0  0  0
   -1.0373    2.3991    3.0950 C   0  0  0  0  0  0  0  0  0  0  0  0
   -0.7800    0.1750    4.1733 C   0  0  0  0  0  0  0  0  0  0  0  0
    2.4860  -10.5814    4.4415 C   0  0  0  0  0  0  0  0  0  0  0  0
    3.0295  -11.5044    3.3421 C   0  0  0  0  0  0  0  0  0  0  0  0
    3.3989  -10.6729    5.6966 C   0  0  0  0  0  0  0  0  0  0  0  0
    1.2619  -11.1037    4.8897 O   0  0  0  0  0  0  0  0  0  0  0  0
   -1.4155   -7.4220    2.9619 H   0  0  0  0  0  0  0  0  0  0  0  0
   -0.5293   -8.1686    4.2808 H   0  0  0  0  0  0  0  0  0  0  0  0
   -1.3188   -9.2008    3.0766 H   0  0  0  0  0  0  0  0  0  0  0  0
    0.2355   -8.3167    1.3008 H   0  0  0  0  0  0  0  0  0  0  0  0
    0.8896   -7.2085    2.4333 H   0  0  0  0  0  0  0  0  0  0  0  0
    1.6331   -8.5954    4.6620 H   0  0  0  0  0  0  0  0  0  0  0  0
    3.9631   -8.7080    2.6676 H   0  0  0  0  0  0  0  0  0  0  0  0
    3.8770   -7.8439    5.6010 H   0  0  0  0  0  0  0  0  0  0  0  0
    5.0640   -8.8232    4.7606 H   0  0  0  0  0  0  0  0  0  0  0  0
    5.6640   -6.4113    5.4787 H   0  0  0  0  0  0  0  0  0  0  0  0
    6.5958   -7.7159    2.8884 H   0  0  0  0  0  0  0  0  0  0  0  0
    7.1705   -8.0612    4.5065 H   0  0  0  0  0  0  0  0  0  0  0  0
    7.4838   -6.4884    3.8190 H   0  0  0  0  0  0  0  0  0  0  0  0
    5.6553   -5.0884    3.1875 H   0  0  0  0  0  0  0  0  0  0  0  0
    4.4852   -6.6285    1.7520 H   0  0  0  0  0  0  0  0  0  0  0  0
    4.0545   -4.4049    1.3449 H   0  0  0  0  0  0  0  0  0  0  0  0
    2.4899   -5.4994    0.4223 H   0  0  0  0  0  0  0  0  0  0  0  0
    1.4796   -3.1615    4.5321 H   0  0  0  0  0  0  0  0  0  0  0  0
    1.1018   -4.5772    3.5852 H   0  0  0  0  0  0  0  0  0  0  0  0
    1.1440   -3.0002    2.8268 H   0  0  0  0  0  0  0  0  0  0  0  0
    4.8307   -2.7475    2.5876 H   0  0  0  0  0  0  0  0  0  0  0  0
    4.1602   -1.4696    0.9527 H   0  0  0  0  0  0  0  0  0  0  0  0
    2.7584   -2.4856    0.9130 H   0  0  0  0  0  0  0  0  0  0  0  0
    2.0505   -0.1174    0.8121 H   0  0  0  0  0  0  0  0  0  0  0  0
    1.4570    1.8711    2.1055 H   0  0  0  0  0  0  0  0  0  0  0  0
    1.3468    3.0180    4.2909 H   0  0  0  0  0  0  0  0  0  0  0  0
    2.1801    2.0587    6.2284 H   0  0  0  0  0  0  0  0  0  0  0  0
    1.1629    0.6435    6.0324 H   0  0  0  0  0  0  0  0  0  0  0  0
    1.9679   -1.1101    4.6585 H   0  0  0  0  0  0  0  0  0  0  0  0
    5.4167    0.2328    4.4433 H   0  0  0  0  0  0  0  0  0  0  0  0
    5.0204    0.0843    2.7514 H   0  0  0  0  0  0  0  0  0  0  0  0
    6.1194   -1.0568    3.4837 H   0  0  0  0  0  0  0  0  0  0  0  0
    4.9622   -1.5686    5.9542 H   0  0  0  0  0  0  0  0  0  0  0  0
    3.3806   -2.2664    5.9524 H   0  0  0  0  0  0  0  0  0  0  0  0
    5.8701   -3.4313    4.5781 H   0  0  0  0  0  0  0  0  0  0  0  0
    5.2156   -3.9516    6.0881 H   0  0  0  0  0  0  0  0  0  0  0  0
    2.4797   -4.4005    6.0659 H   0  0  0  0  0  0  0  0  0  0  0  0
    3.6061   -5.6921    6.2641 H   0  0  0  0  0  0  0  0  0  0  0  0
    2.3032   -5.8474    5.1168 H   0  0  0  0  0  0  0  0  0  0  0  0
   -1.7254    2.7306    3.8691 H   0  0  0  0  0  0  0  0  0  0  0  0
   -1.6092    1.9689    2.2756 H   0  0  0  0  0  0  0  0  0  0  0  0
   -0.5229    3.2795    2.7161 H   0  0  0  0  0  0  0  0  0  0  0  0
   -1.4490    0.4633    4.9810 H   0  0  0  0  0  0  0  0  0  0  0  0
   -0.0918   -0.5701    4.5373 H   0  0  0  0  0  0  0  0  0  0  0  0
   -1.3617   -0.2544    3.3630 H   0  0  0  0  0  0  0  0  0  0  0  0
    3.9988  -11.1626    2.9684 H   0  0  0  0  0  0  0  0  0  0  0  0
    2.3618  -11.5623    2.4890 H   0  0  0  0  0  0  0  0  0  0  0  0
    3.1511  -12.5245    3.6995 H   0  0  0  0  0  0  0  0  0  0  0  0
    4.4012  -10.4010    5.5144 H   0  0  0  0  0  0  0  0  0  0  0  0
    3.4295  -11.7068    6.0763 H   0  0  0  0  0  0  0  0  0  0  0  0
    2.9742  -10.0622    6.5098 H   0  0  0  0  0  0  0  0  0  0  0  0
    1.3959  -11.5773    5.6971 H   0  0  0  0  0  0  0  0  0  0  0  0
  1  2  1  0
  1 38  1  0
  1 39  1  0
  1 40  1  0
  2  3  1  0
  2 41  1  0
  2 42  1  0
  3  4  1  0
  4  5  1  0
  4 34  1  0
  4 43  1  1
  5 11  1  0
  5  6  1  0
  5 44  1  6
  6  7  1  0
  6 45  1  0
  6 46  1  0
  7  8  1  0
  7  9  1  0
  7 47  1  1
  8 48  1  0
  8 49  1  0
  8 50  1  0
  9 29  1  0
  9 10  1  0
  9 51  1  6
 10 11  1  0
 10 12  1  0
 10 52  1  6
 12 13  1  0
 12 14  1  0
 12 53  1  6
 13 54  1  0
 14 29  1  0
 14 15  1  1
 14 16  1  0
 15 55  1  0
 15 56  1  0
 15 57  1  0
 16 25  1  0
 16 17  1  0
 16 58  1  6
 17 18  1  0
 17 59  1  0
 17 60  1  0
 18 19  2  0
 18 61  1  0
 19 24  1  0
 19 20  1  0
 20 31  1  0
 20 21  1  0
 20 62  1  6
 21 22  1  0
 21 31  1  0
 21 63  1  6
 22 23  1  0
 22 64  1  0
 22 65  1  0
 23 24  1  0
 24 25  1  0
 24 66  1  1
 25 26  1  6
 25 27  1  0
 26 67  1  0
 26 68  1  0
 26 69  1  0
 27 28  1  0
 27 70  1  0
 27 71  1  0
 28 29  1  0
 28 72  1  0
 28 73  1  0
 29 30  1  1
 30 74  1  0
 30 75  1  0
 30 76  1  0
 31 32  1  0
 31 33  1  0
 32 77  1  0
 32 78  1  0
 32 79  1  0
 33 80  1  0
 33 81  1  0
 33 82  1  0
 34 35  1  0
 34 36  1  0
 34 37  1  0
 35 83  1  0
 35 84  1  0
 35 85  1  0
 36 86  1  0
 36 87  1  0
 36 88  1  0
 37 89  1  0
M  END
>  <i_m_ct_stereo_status>  (316) 
1

>  <s_m_source_file>  (316) 
/var/tmp/pbs.5076255.sched01/tmpajq2dbrl/12675ddggds.sdf

>  <i_m_source_file_index>  (316) 
20

>  <i_lp_mmshare_version>  (316) 
48012

>  <i_f3d_flags>  (316) 
0

>  <s_epik_input>  (316) 
W0NIM11bQ0gyXU9bQ0BASF0oQyhbQ0gzXSkoW0NIM10pW09IXSlbQ0BIXShbQ0gyXVtDQEhdMVtDSDNdKU9bQ0BASF0oW0NASF0yW09IXSlbQ0BIXTFbQ0BAXTMoW0NIM10pW0NIMl1bQ0gyXVtDQEBdKFtDSDNdKShbQ0BIXTRbQ0BAXTIzW0NIM10pW0NAQEhdNUMoPVtDSF1bQ0gyXTQpW0NAQEhdNltDQEhdKFtDSDJdTzUpQzYoW0NIM10pW0NIM10=

>  <s_epik_cmdline>  (316) 
J2VwaWtfcHl0aG9uJywgJy1waHQnLCAnMi4wJywgJy1waCcsICc3LjAnLCAnLXRuJywgJzgnLCAnLW1hJywgJzIwMCcsICctaW1hZScsICc8aW5maWxlLm1hZT4nLCAnLW9tYWUnLCAnPG91dGZpbGUubWFlPic=

>  <r_lp_tautomer_probability>  (316) 
1

>  <r_epik_Ionization_Penalty>  (316) 
2.24864e-07

>  <r_epik_Ionization_Penalty_Charging>  (316) 
0

>  <r_epik_Ionization_Penalty_Neutral>  (316) 
2.24864e-07

>  <r_epik_State_Penalty>  (316) 
-0

>  <r_epik_Charging_Adjusted_Penalty>  (316) 
0

>  <i_epik_Tot_Q>  (316) 
0

>  <i_epik_Tot_abs_Q>  (316) 
0

>  <s_lp_Force_Field>  (316) 
OPLS3e

>  <r_lp_Energy>  (316) 
93.8358

>  <b_lp_Chiralities_Consistent>  (316) 
1

>  <s_lp_Variant>  (316) 
101:0-1

>  <s_i_glide_gridfile>  (316) 
pfpi4k_grid

>  <i_i_glide_lignum>  (316) 
20

>  <i_i_glide_rotatable_bonds>  (316) 
6

>  <r_i_docking_score>  (316) 
-1.37038

>  <r_i_glide_ligand_efficiency>  (316) 
-0.0370374

>  <r_i_glide_ligand_efficiency_sa>  (316) 
-0.123417

>  <r_i_glide_ligand_efficiency_ln>  (316) 
-0.297204

>  <r_i_glide_gscore>  (316) 
-1.37038

>  <r_i_glide_lipo>  (316) 
-0.160652

>  <r_i_glide_hbond>  (316) 
0

>  <r_i_glide_metal>  (316) 
-0

>  <r_i_glide_rewards>  (316) 
0

>  <r_i_glide_evdw>  (316) 
-22.6336

>  <r_i_glide_ecoul>  (316) 
-2.0578

>  <r_i_glide_erotb>  (316) 
0.230619

>  <r_i_glide_esite>  (316) 
0

>  <r_i_glide_emodel>  (316) 
-23.7562

>  <r_i_glide_energy>  (316) 
-24.6914

>  <r_i_glide_einternal>  (316) 
4.68568

>  <r_i_glide_intrahb_reward>  (316) 
-0

>  <i_i_glide_confnum>  (316) 
2

>  <i_i_glide_posenum>  (316) 
1

>  <r_i_glide_eff_state_penalty>  (316) 
0

>  <ligand_id>  (316) 
101

>  <original_smiles>  (316) 
CCOC(C1CC(C)C2C(O1)C(O)C1(C)C3CC=C4C5C(COC4C3(C)CCC21C)C5(C)C)C(C)(C)O

>  <smiles>  (316) 
[H]OC1([H])C2([H])OC([H])(C([H])(OC([H])([H])C([H])([H])[H])C(O[H])(C([H])([H])[H])C([H])([H])[H])C([H])([H])C([H])(C([H])([H])[H])C2([H])C2(C([H])([H])[H])C([H])([H])C([H])([H])C3(C([H])([H])[H])C4([H])OC([H])([H])C5([H])C([H])(C4=C([H])C([H])([H])C3([H])C12C([H])([H])[H])C5(C([H])([H])[H])C([H])([H])[H]

$$$$
101:0:2
     RDKit          3D

 89 94  0  0  1  0  0  0  0  0999 V2000
   -0.3539   -6.6783    1.2665 C   0  0  0  0  0  0  0  0  0  0  0  0
    1.0923   -6.4318    0.8226 C   0  0  0  0  0  0  0  0  0  0  0  0
    1.9605   -7.4502    1.3143 O   0  0  0  0  0  0  0  0  0  0  0  0
    2.1997   -7.4980    2.7398 C   0  0  2  0  0  0  0  0  0  0  0  0
    3.3924   -6.5306    3.0449 C   0  0  2  0  0  0  0  0  0  0  0  0
    3.8079   -6.5007    4.5329 C   0  0  0  0  0  0  0  0  0  0  0  0
    4.6474   -5.3204    5.0215 C   0  0  1  0  0  0  0  0  0  0  0  0
    6.1517   -5.6507    4.9243 C   0  0  0  0  0  0  0  0  0  0  0  0
    4.2905   -3.9960    4.3009 C   0  0  1  0  0  0  0  0  0  0  0  0
    3.9623   -4.2309    2.8282 C   0  0  1  0  0  0  0  0  0  0  0  0
    2.9384   -5.2050    2.7562 O   0  0  0  0  0  0  0  0  0  0  0  0
    3.4717   -2.8474    2.4146 C   0  0  1  0  0  0  0  0  0  0  0  0
    2.7628   -2.8812    1.1799 O   0  0  0  0  0  0  0  0  0  0  0  0
    2.7555   -2.1690    3.6338 C   0  0  2  0  0  0  0  0  0  0  0  0
    1.2271   -2.0750    3.3643 C   0  0  0  0  0  0  0  0  0  0  0  0
    3.3767   -0.7388    3.8525 C   0  0  1  0  0  0  0  0  0  0  0  0
    3.3405    0.2027    2.6179 C   0  0  0  0  0  0  0  0  0  0  0  0
    2.3591    1.3435    2.6699 C   0  0  0  0  0  0  0  0  0  0  0  0
    1.5754    1.6276    3.7424 C   0  0  0  0  0  0  0  0  0  0  0  0
    0.6650    2.7954    3.7515 C   0  0  2  0  0  0  0  0  0  0  0  0
   -0.0376    3.1500    5.0428 C   0  0  2  0  0  0  0  0  0  0  0  0
    0.1802    2.2406    6.2363 C   0  0  0  0  0  0  0  0  0  0  0  0
    1.4627    1.6191    6.1857 O   0  0  0  0  0  0  0  0  0  0  0  0
    1.6722    0.8088    5.0324 C   0  0  2  0  0  0  0  0  0  0  0  0
    2.9909   -0.0031    5.1831 C   0  0  2  0  0  0  0  0  0  0  0  0
    4.1351    0.9829    5.5412 C   0  0  0  0  0  0  0  0  0  0  0  0
    2.8155   -1.0431    6.3265 C   0  0  0  0  0  0  0  0  0  0  0  0
    3.6320   -2.3279    6.0986 C   0  0  0  0  0  0  0  0  0  0  0  0
    3.1153   -3.1228    4.8596 C   0  0  2  0  0  0  0  0  0  0  0  0
    1.9125   -4.0012    5.3341 C   0  0  0  0  0  0  0  0  0  0  0  0
   -0.8548    2.7754    3.8221 C   0  0  0  0  0  0  0  0  0  0  0  0
   -1.6578    3.8691    3.1452 C   0  0  0  0  0  0  0  0  0  0  0  0
   -1.6055    1.4521    3.7290 C   0  0  0  0  0  0  0  0  0  0  0  0
    2.3727   -9.0235    3.0922 C   0  0  0  0  0  0  0  0  0  0  0  0
    3.3736   -9.7209    2.1576 C   0  0  0  0  0  0  0  0  0  0  0  0
    2.6736   -9.3500    4.5809 C   0  0  0  0  0  0  0  0  0  0  0  0
    1.0965   -9.6340    2.8570 O   0  0  0  0  0  0  0  0  0  0  0  0
   -0.9735   -5.8918    0.8651 H   0  0  0  0  0  0  0  0  0  0  0  0
   -0.4779   -6.6710    2.3528 H   0  0  0  0  0  0  0  0  0  0  0  0
   -0.6944   -7.6512    0.8992 H   0  0  0  0  0  0  0  0  0  0  0  0
    1.1431   -6.4197   -0.2701 H   0  0  0  0  0  0  0  0  0  0  0  0
    1.4026   -5.4301    1.0971 H   0  0  0  0  0  0  0  0  0  0  0  0
    1.3493   -7.1512    3.3123 H   0  0  0  0  0  0  0  0  0  0  0  0
    4.2335   -6.7839    2.3984 H   0  0  0  0  0  0  0  0  0  0  0  0
    2.9330   -6.6244    5.1729 H   0  0  0  0  0  0  0  0  0  0  0  0
    4.4710   -7.3338    4.6861 H   0  0  0  0  0  0  0  0  0  0  0  0
    4.4491   -5.1990    6.0887 H   0  0  0  0  0  0  0  0  0  0  0  0
    6.4557   -5.8447    3.8944 H   0  0  0  0  0  0  0  0  0  0  0  0
    6.3866   -6.5535    5.4916 H   0  0  0  0  0  0  0  0  0  0  0  0
    6.7747   -4.8630    5.3400 H   0  0  0  0  0  0  0  0  0  0  0  0
    5.1898   -3.3813    4.3196 H   0  0  0  0  0  0  0  0  0  0  0  0
    4.8324   -4.5403    2.2424 H   0  0  0  0  0  0  0  0  0  0  0  0
    4.3838   -2.2954    2.1906 H   0  0  0  0  0  0  0  0  0  0  0  0
    2.5382   -2.0110    0.9272 H   0  0  0  0  0  0  0  0  0  0  0  0
    0.6554   -1.8525    4.2600 H   0  0  0  0  0  0  0  0  0  0  0  0
    0.8275   -3.0083    2.9671 H   0  0  0  0  0  0  0  0  0  0  0  0
    0.9964   -1.2984    2.6369 H   0  0  0  0  0  0  0  0  0  0  0  0
    4.4409   -0.9628    3.9652 H   0  0  0  0  0  0  0  0  0  0  0  0
    4.3290    0.6367    2.5075 H   0  0  0  0  0  0  0  0  0  0  0  0
    3.1752   -0.3334    1.6875 H   0  0  0  0  0  0  0  0  0  0  0  0
    2.3124    1.9833    1.7972 H   0  0  0  0  0  0  0  0  0  0  0  0
    1.0521    3.6140    3.1309 H   0  0  0  0  0  0  0  0  0  0  0  0
   -0.0089    4.2131    5.2981 H   0  0  0  0  0  0  0  0  0  0  0  0
    0.0995    2.8231    7.1520 H   0  0  0  0  0  0  0  0  0  0  0  0
   -0.6096    1.4876    6.2656 H   0  0  0  0  0  0  0  0  0  0  0  0
    0.8459    0.1158    5.0019 H   0  0  0  0  0  0  0  0  0  0  0  0
    3.9446    1.5084    6.4790 H   0  0  0  0  0  0  0  0  0  0  0  0
    4.2639    1.7545    4.7802 H   0  0  0  0  0  0  0  0  0  0  0  0
    5.0968    0.4782    5.6519 H   0  0  0  0  0  0  0  0  0  0  0  0
    3.1263   -0.5971    7.2720 H   0  0  0  0  0  0  0  0  0  0  0  0
    1.7646   -1.2978    6.4755 H   0  0  0  0  0  0  0  0  0  0  0  0
    4.6948   -2.0906    6.0170 H   0  0  0  0  0  0  0  0  0  0  0  0
    3.5588   -2.9566    6.9877 H   0  0  0  0  0  0  0  0  0  0  0  0
    1.1043   -3.4101    5.7639 H   0  0  0  0  0  0  0  0  0  0  0  0
    2.1921   -4.7028    6.1211 H   0  0  0  0  0  0  0  0  0  0  0  0
    1.4650   -4.5975    4.5383 H   0  0  0  0  0  0  0  0  0  0  0  0
   -2.6284    4.0079    3.6237 H   0  0  0  0  0  0  0  0  0  0  0  0
   -1.8223    3.6389    2.0911 H   0  0  0  0  0  0  0  0  0  0  0  0
   -1.1224    4.8244    3.1781 H   0  0  0  0  0  0  0  0  0  0  0  0
   -2.5659    1.5290    4.2383 H   0  0  0  0  0  0  0  0  0  0  0  0
   -1.0479    0.6463    4.1808 H   0  0  0  0  0  0  0  0  0  0  0  0
   -1.7766    1.1907    2.6837 H   0  0  0  0  0  0  0  0  0  0  0  0
    4.3757   -9.2985    2.2877 H   0  0  0  0  0  0  0  0  0  0  0  0
    3.1092   -9.6254    1.0943 H   0  0  0  0  0  0  0  0  0  0  0  0
    3.4228  -10.7917    2.3698 H   0  0  0  0  0  0  0  0  0  0  0  0
    3.6541   -9.0376    4.8693 H   0  0  0  0  0  0  0  0  0  0  0  0
    2.6822  -10.4249    4.7568 H   0  0  0  0  0  0  0  0  0  0  0  0
    1.9217   -8.8922    5.2262 H   0  0  0  0  0  0  0  0  0  0  0  0
    0.9364   -9.7126    1.9359 H   0  0  0  0  0  0  0  0  0  0  0  0
  1  2  1  0
  1 38  1  0
  1 39  1  0
  1 40  1  0
  2  3  1  0
  2 41  1  0
  2 42  1  0
  3  4  1  0
  4  5  1  0
  4 34  1  0
  4 43  1  1
  5 11  1  0
  5  6  1  0
  5 44  1  6
  6  7  1  0
  6 45  1  0
  6 46  1  0
  7  8  1  0
  7  9  1  0
  7 47  1  1
  8 48  1  0
  8 49  1  0
  8 50  1  0
  9 29  1  0
  9 10  1  0
  9 51  1  6
 10 11  1  0
 10 12  1  0
 10 52  1  6
 12 13  1  0
 12 14  1  0
 12 53  1  6
 13 54  1  0
 14 29  1  0
 14 15  1  6
 14 16  1  0
 15 55  1  0
 15 56  1  0
 15 57  1  0
 16 25  1  0
 16 17  1  0
 16 58  1  1
 17 18  1  0
 17 59  1  0
 17 60  1  0
 18 19  2  0
 18 61  1  0
 19 24  1  0
 19 20  1  0
 20 31  1  0
 20 21  1  0
 20 62  1  6
 21 22  1  0
 21 31  1  0
 21 63  1  1
 22 23  1  0
 22 64  1  0
 22 65  1  0
 23 24  1  0
 24 25  1  0
 24 66  1  6
 25 26  1  1
 25 27  1  0
 26 67  1  0
 26 68  1  0
 26 69  1  0
 27 28  1  0
 27 70  1  0
 27 71  1  0
 28 29  1  0
 28 72  1  0
 28 73  1  0
 29 30  1  1
 30 74  1  0
 30 75  1  0
 30 76  1  0
 31 32  1  0
 31 33  1  0
 32 77  1  0
 32 78  1  0
 32 79  1  0
 33 80  1  0
 33 81  1  0
 33 82  1  0
 34 35  1  0
 34 36  1  0
 34 37  1  0
 35 83  1  0
 35 84  1  0
 35 85  1  0
 36 86  1  0
 36 87  1  0
 36 88  1  0
 37 89  1  0
M  END
>  <i_m_ct_stereo_status>  (317) 
1

>  <s_m_source_file>  (317) 
/var/tmp/pbs.5076255.sched01/tmpajq2dbrl/12675ddggds.sdf

>  <i_m_source_file_index>  (317) 
20

>  <i_lp_mmshare_version>  (317) 
48012

>  <i_f3d_flags>  (317) 
0

>  <s_epik_input>  (317) 
W0NIM11bQ0gyXU9bQ0BASF0oQyhbQ0gzXSkoW0NIM10pW09IXSlbQ0BIXShbQ0gyXVtDQEhdMVtDSDNdKU9bQ0BASF0oW0NASF0yW09IXSlbQ0BIXTFbQ0BAXTMoW0NIM10pW0NIMl1bQ0gyXVtDQEBdKFtDSDNdKShbQ0BIXTRbQ0BAXTIzW0NIM10pW0NAQEhdNUMoPVtDSF1bQ0gyXTQpW0NAQEhdNltDQEhdKFtDSDJdTzUpQzYoW0NIM10pW0NIM10=

>  <s_epik_cmdline>  (317) 
J2VwaWtfcHl0aG9uJywgJy1waHQnLCAnMi4wJywgJy1waCcsICc3LjAnLCAnLXRuJywgJzgnLCAnLW1hJywgJzIwMCcsICctaW1hZScsICc8aW5maWxlLm1hZT4nLCAnLW9tYWUnLCAnPG91dGZpbGUubWFlPic=

>  <r_lp_tautomer_probability>  (317) 
1

>  <r_epik_Ionization_Penalty>  (317) 
2.24864e-07

>  <r_epik_Ionization_Penalty_Charging>  (317) 
0

>  <r_epik_Ionization_Penalty_Neutral>  (317) 
2.24864e-07

>  <r_epik_State_Penalty>  (317) 
-0

>  <r_epik_Charging_Adjusted_Penalty>  (317) 
0

>  <i_epik_Tot_Q>  (317) 
0

>  <i_epik_Tot_abs_Q>  (317) 
0

>  <s_lp_Force_Field>  (317) 
OPLS3e

>  <r_lp_Energy>  (317) 
93.8358

>  <b_lp_Chiralities_Consistent>  (317) 
1

>  <s_lp_Variant>  (317) 
101:0-1

>  <s_i_glide_gridfile>  (317) 
pfpi4k_grid

>  <i_i_glide_lignum>  (317) 
20

>  <i_i_glide_rotatable_bonds>  (317) 
6

>  <r_i_docking_score>  (317) 
-1.0231

>  <r_i_glide_ligand_efficiency>  (317) 
-0.0276513

>  <r_i_glide_ligand_efficiency_sa>  (317) 
-0.0921402

>  <r_i_glide_ligand_efficiency_ln>  (317) 
-0.221886

>  <r_i_glide_gscore>  (317) 
-1.0231

>  <r_i_glide_lipo>  (317) 
-0.0875373

>  <r_i_glide_hbond>  (317) 
0

>  <r_i_glide_metal>  (317) 
-0

>  <r_i_glide_rewards>  (317) 
0

>  <r_i_glide_evdw>  (317) 
-23.7268

>  <r_i_glide_ecoul>  (317) 
0.134408

>  <r_i_glide_erotb>  (317) 
0.230619

>  <r_i_glide_esite>  (317) 
0

>  <r_i_glide_emodel>  (317) 
-22.4715

>  <r_i_glide_energy>  (317) 
-23.5924

>  <r_i_glide_einternal>  (317) 
3.65709

>  <r_i_glide_intrahb_reward>  (317) 
-0

>  <i_i_glide_confnum>  (317) 
4

>  <i_i_glide_posenum>  (317) 
27

>  <r_i_glide_eff_state_penalty>  (317) 
0

>  <ligand_id>  (317) 
101

>  <original_smiles>  (317) 
CCOC(C1CC(C)C2C(O1)C(O)C1(C)C3CC=C4C5C(COC4C3(C)CCC21C)C5(C)C)C(C)(C)O

>  <smiles>  (317) 
[H]OC1([H])C2([H])OC([H])(C([H])(OC([H])([H])C([H])([H])[H])C(O[H])(C([H])([H])[H])C([H])([H])[H])C([H])([H])C([H])(C([H])([H])[H])C2([H])C2(C([H])([H])[H])C([H])([H])C([H])([H])C3(C([H])([H])[H])C4([H])OC([H])([H])C5([H])C([H])(C4=C([H])C([H])([H])C3([H])C12C([H])([H])[H])C5(C([H])([H])[H])C([H])([H])[H]

$$$$
102:0:0
     RDKit          3D

 84 89  0  0  1  0  0  0  0  0999 V2000
   -1.8926   -9.1114    2.4603 C   0  0  0  0  0  0  0  0  0  0  0  0
   -0.8476   -8.1200    2.9823 C   0  0  0  0  0  0  0  0  0  0  0  0
   -0.0306   -7.5128    1.8189 C   0  0  0  0  0  0  0  0  0  0  0  0
    0.0055   -8.7667    4.0880 C   0  0  0  0  0  0  0  0  0  0  0  0
    0.9484   -9.9011    3.6284 C   0  0  0  0  0  0  0  0  0  0  0  0
    1.8576  -10.3734    4.7826 C   0  0  0  0  0  0  0  0  0  0  0  0
    3.3421  -10.6418    4.3958 C   0  0  2  0  0  0  0  0  0  0  0  0
    3.5883  -12.1616    4.3147 C   0  0  0  0  0  0  0  0  0  0  0  0
    4.4282   -9.9291    5.2716 C   0  0  2  0  0  0  0  0  0  0  0  0
    4.4026  -10.3244    6.7558 C   0  0  0  0  0  0  0  0  0  0  0  0
    3.6587   -9.2064    7.4844 C   0  0  0  0  0  0  0  0  0  0  0  0
    3.9398   -7.9137    6.6860 C   0  0  2  0  0  0  0  0  0  0  0  0
    2.7258   -6.9366    6.6187 C   0  0  1  0  0  0  0  0  0  0  0  0
    2.3211   -6.4298    8.0132 C   0  0  0  0  0  0  0  0  0  0  0  0
    1.0917   -5.5083    7.9524 C   0  0  1  0  0  0  0  0  0  0  0  0
    0.7575   -5.0976    9.2514 O   0  0  0  0  0  0  0  0  0  0  0  0
    1.3562   -4.2852    7.0320 C   0  0  2  0  0  0  0  0  0  0  0  0
    0.1652   -3.2874    7.0290 C   0  0  0  0  0  0  0  0  0  0  0  0
    0.2312   -2.2384    5.9230 C   0  0  0  0  0  0  0  0  0  0  0  0
   -0.6526   -1.2164    6.0114 N   0  0  0  0  0  0  0  0  0  0  0  0
   -0.6264   -0.2907    5.0114 C   0  0  0  0  0  0  0  0  0  0  0  0
   -1.4864    0.8231    5.0731 C   0  0  0  0  0  0  0  0  0  0  0  0
   -1.5171    1.7651    4.0321 C   0  0  0  0  0  0  0  0  0  0  0  0
   -0.6920    1.6048    2.9204 C   0  0  0  0  0  0  0  0  0  0  0  0
    0.1915    0.5165    2.8532 C   0  0  0  0  0  0  0  0  0  0  0  0
    0.2464   -0.4292    3.9007 C   0  0  0  0  0  0  0  0  0  0  0  0
    1.1304   -1.4601    3.8302 N   0  0  0  0  0  0  0  0  0  0  0  0
    1.1301   -2.3444    4.8549 C   0  0  0  0  0  0  0  0  0  0  0  0
    2.1688   -3.4588    4.7897 C   0  0  0  0  0  0  0  0  0  0  0  0
    1.7623   -4.7290    5.5911 C   0  0  2  0  0  0  0  0  0  0  0  0
    0.5471   -5.3630    4.8928 C   0  0  0  0  0  0  0  0  0  0  0  0
    2.9924   -5.7186    5.6795 C   0  0  2  0  0  0  0  0  0  0  0  0
    3.6133   -6.1347    4.3088 C   0  0  0  0  0  0  0  0  0  0  0  0
    3.7799   -7.6522    4.1278 C   0  0  0  0  0  0  0  0  0  0  0  0
    4.5043   -8.3585    5.2975 C   0  0  2  0  0  0  0  0  0  0  0  0
    5.9969   -7.9495    5.2267 C   0  0  0  0  0  0  0  0  0  0  0  0
   -1.4123   -9.9846    2.0195 H   0  0  0  0  0  0  0  0  0  0  0  0
   -2.5212   -8.6569    1.6900 H   0  0  0  0  0  0  0  0  0  0  0  0
   -2.5467   -9.4537    3.2650 H   0  0  0  0  0  0  0  0  0  0  0  0
   -1.4047   -7.3153    3.4557 H   0  0  0  0  0  0  0  0  0  0  0  0
    0.5130   -8.2782    1.2752 H   0  0  0  0  0  0  0  0  0  0  0  0
    0.7011   -6.7740    2.1475 H   0  0  0  0  0  0  0  0  0  0  0  0
   -0.6788   -7.0381    1.0872 H   0  0  0  0  0  0  0  0  0  0  0  0
    0.6109   -7.9658    4.5157 H   0  0  0  0  0  0  0  0  0  0  0  0
   -0.6256   -9.1166    4.9124 H   0  0  0  0  0  0  0  0  0  0  0  0
    0.4188  -10.7579    3.1918 H   0  0  0  0  0  0  0  0  0  0  0  0
    1.5623   -9.4933    2.8287 H   0  0  0  0  0  0  0  0  0  0  0  0
    1.8348   -9.6135    5.5535 H   0  0  0  0  0  0  0  0  0  0  0  0
    1.4046  -11.2408    5.2692 H   0  0  0  0  0  0  0  0  0  0  0  0
    3.5179  -10.2866    3.3799 H   0  0  0  0  0  0  0  0  0  0  0  0
    3.4069  -12.6620    5.2685 H   0  0  0  0  0  0  0  0  0  0  0  0
    4.6098  -12.3874    4.0042 H   0  0  0  0  0  0  0  0  0  0  0  0
    2.9190  -12.6150    3.5844 H   0  0  0  0  0  0  0  0  0  0  0  0
    5.3698  -10.2980    4.8581 H   0  0  0  0  0  0  0  0  0  0  0  0
    3.9615  -11.3038    6.9466 H   0  0  0  0  0  0  0  0  0  0  0  0
    5.4273  -10.3583    7.1257 H   0  0  0  0  0  0  0  0  0  0  0  0
    2.5957   -9.4453    7.5251 H   0  0  0  0  0  0  0  0  0  0  0  0
    3.9824   -9.1232    8.5236 H   0  0  0  0  0  0  0  0  0  0  0  0
    4.7403   -7.3916    7.2153 H   0  0  0  0  0  0  0  0  0  0  0  0
    1.8780   -7.4991    6.2384 H   0  0  0  0  0  0  0  0  0  0  0  0
    2.1037   -7.2765    8.6647 H   0  0  0  0  0  0  0  0  0  0  0  0
    3.1607   -5.8954    8.4612 H   0  0  0  0  0  0  0  0  0  0  0  0
    0.2356   -6.0887    7.5971 H   0  0  0  0  0  0  0  0  0  0  0  0
    1.5333   -4.6682    9.6372 H   0  0  0  0  0  0  0  0  0  0  0  0
    2.2100   -3.7420    7.4483 H   0  0  0  0  0  0  0  0  0  0  0  0
   -0.7705   -3.8311    6.8863 H   0  0  0  0  0  0  0  0  0  0  0  0
    0.1024   -2.7907    7.9978 H   0  0  0  0  0  0  0  0  0  0  0  0
   -2.1326    0.9537    5.9273 H   0  0  0  0  0  0  0  0  0  0  0  0
   -2.2028    2.6099    4.0861 H   0  0  0  0  0  0  0  0  0  0  0  0
   -0.7239    2.3170    2.0944 H   0  0  0  0  0  0  0  0  0  0  0  0
    0.8182    0.3968    1.9814 H   0  0  0  0  0  0  0  0  0  0  0  0
    2.3665   -3.6918    3.7421 H   0  0  0  0  0  0  0  0  0  0  0  0
    3.0908   -3.0391    5.1945 H   0  0  0  0  0  0  0  0  0  0  0  0
    0.8594   -5.7362    3.9283 H   0  0  0  0  0  0  0  0  0  0  0  0
   -0.2534   -4.6439    4.7073 H   0  0  0  0  0  0  0  0  0  0  0  0
    0.1365   -6.2020    5.4528 H   0  0  0  0  0  0  0  0  0  0  0  0
    3.7956   -5.1590    6.1627 H   0  0  0  0  0  0  0  0  0  0  0  0
    3.0260   -5.7789    3.4657 H   0  0  0  0  0  0  0  0  0  0  0  0
    4.5833   -5.6458    4.1965 H   0  0  0  0  0  0  0  0  0  0  0  0
    2.7769   -8.0367    4.0313 H   0  0  0  0  0  0  0  0  0  0  0  0
    4.2769   -7.8694    3.1804 H   0  0  0  0  0  0  0  0  0  0  0  0
    6.1264   -6.8756    5.3755 H   0  0  0  0  0  0  0  0  0  0  0  0
    6.4341   -8.1999    4.2576 H   0  0  0  0  0  0  0  0  0  0  0  0
    6.5852   -8.4531    5.9967 H   0  0  0  0  0  0  0  0  0  0  0  0
  1  2  1  0
  1 37  1  0
  1 38  1  0
  1 39  1  0
  2  3  1  0
  2  4  1  0
  2 40  1  0
  3 41  1  0
  3 42  1  0
  3 43  1  0
  4  5  1  0
  4 44  1  0
  4 45  1  0
  5  6  1  0
  5 46  1  0
  5 47  1  0
  6  7  1  0
  6 48  1  0
  6 49  1  0
  7  8  1  0
  7  9  1  0
  7 50  1  6
  8 51  1  0
  8 52  1  0
  8 53  1  0
  9 35  1  0
  9 10  1  0
  9 54  1  6
 10 11  1  0
 10 55  1  0
 10 56  1  0
 11 12  1  0
 11 57  1  0
 11 58  1  0
 12 35  1  0
 12 13  1  0
 12 59  1  1
 13 32  1  0
 13 14  1  0
 13 60  1  6
 14 15  1  0
 14 61  1  0
 14 62  1  0
 15 16  1  0
 15 17  1  0
 15 63  1  6
 16 64  1  0
 17 30  1  0
 17 18  1  0
 17 65  1  1
 18 19  1  0
 18 66  1  0
 18 67  1  0
 19 28  2  0
 19 20  1  0
 20 21  2  0
 21 26  1  0
 21 22  1  0
 22 23  2  0
 22 68  1  0
 23 24  1  0
 23 69  1  0
 24 25  2  0
 24 70  1  0
 25 26  1  0
 25 71  1  0
 26 27  2  0
 27 28  1  0
 28 29  1  0
 29 30  1  0
 29 72  1  0
 29 73  1  0
 30 31  1  6
 30 32  1  0
 31 74  1  0
 31 75  1  0
 31 76  1  0
 32 33  1  0
 32 77  1  1
 33 34  1  0
 33 78  1  0
 33 79  1  0
 34 35  1  0
 34 80  1  0
 34 81  1  0
 35 36  1  1
 36 82  1  0
 36 83  1  0
 36 84  1  0
M  END
>  <i_m_ct_stereo_status>  (318) 
1

>  <s_m_source_file>  (318) 
/var/tmp/pbs.5076255.sched01/tmpajq2dbrl/12675ddggds.sdf

>  <i_m_source_file_index>  (318) 
21

>  <i_lp_mmshare_version>  (318) 
48012

>  <i_f3d_flags>  (318) 
0

>  <s_epik_input>  (318) 
W0NIM11bQ0hdKFtDSDNdKVtDSDJdW0NIMl1bQ0gyXVtDQEhdKFtDSDNdKVtDQEhdKFtDSDJdW0NIMl0xKVtDQEBdKFtDSDNdKShbQ0gyXVtDSDJdW0NASF0yMylbQ0BIXTFbQ0BIXTJbQ0gyXVtDQEBIXShbT0hdKVtDQEBIXShbQ0BdMzRbQ0gzXSlbQ0gyXWM1YyhbQ0gyXTQpbmM2YyhuNSlbY0hdW2NIXVtjSF1bY0hdNg==

>  <s_epik_cmdline>  (318) 
J2VwaWtfcHl0aG9uJywgJy1waHQnLCAnMi4wJywgJy1waCcsICc3LjAnLCAnLXRuJywgJzgnLCAnLW1hJywgJzIwMCcsICctaW1hZScsICc8aW5maWxlLm1hZT4nLCAnLW9tYWUnLCAnPG91dGZpbGUubWFlPic=

>  <r_lp_tautomer_probability>  (318) 
1

>  <r_epik_Ionization_Penalty>  (318) 
0.000146736

>  <r_epik_Ionization_Penalty_Charging>  (318) 
0

>  <r_epik_Ionization_Penalty_Neutral>  (318) 
0.000146736

>  <r_epik_State_Penalty>  (318) 
-0

>  <r_epik_Charging_Adjusted_Penalty>  (318) 
0

>  <i_epik_Tot_Q>  (318) 
0

>  <i_epik_Tot_abs_Q>  (318) 
0

>  <s_lp_Force_Field>  (318) 
OPLS3e

>  <r_lp_Energy>  (318) 
73.5963

>  <b_lp_Chiralities_Consistent>  (318) 
1

>  <s_lp_Variant>  (318) 
102:0-1

>  <s_i_glide_gridfile>  (318) 
pfpi4k_grid

>  <i_i_glide_lignum>  (318) 
21

>  <i_i_glide_rotatable_bonds>  (318) 
6

>  <r_i_docking_score>  (318) 
-1.50853

>  <r_i_glide_ligand_efficiency>  (318) 
-0.0419036

>  <r_i_glide_ligand_efficiency_sa>  (318) 
-0.138363

>  <r_i_glide_ligand_efficiency_ln>  (318) 
-0.32912

>  <r_i_glide_gscore>  (318) 
-1.50853

>  <r_i_glide_lipo>  (318) 
-0.269786

>  <r_i_glide_hbond>  (318) 
0

>  <r_i_glide_metal>  (318) 
-0

>  <r_i_glide_rewards>  (318) 
-0.0767249

>  <r_i_glide_evdw>  (318) 
-27.0727

>  <r_i_glide_ecoul>  (318) 
-0.993055

>  <r_i_glide_erotb>  (318) 
0.340575

>  <r_i_glide_esite>  (318) 
0

>  <r_i_glide_emodel>  (318) 
-26.8585

>  <r_i_glide_energy>  (318) 
-28.0658

>  <r_i_glide_einternal>  (318) 
6.2956

>  <r_i_glide_intrahb_reward>  (318) 
-0

>  <i_i_glide_confnum>  (318) 
5

>  <i_i_glide_posenum>  (318) 
2

>  <r_i_glide_eff_state_penalty>  (318) 
0

>  <ligand_id>  (318) 
102

>  <original_smiles>  (318) 
CC(C)CCCC(C)C1CCC2C3CC(O)C4Cc5nc6ccccc6nc5CC4(C)C3CCC12C

>  <smiles>  (318) 
[H]OC1([H])C([H])([H])C2([H])C([H])(C([H])([H])C([H])([H])C3(C([H])([H])[H])C([H])(C([H])(C([H])([H])[H])C([H])([H])C([H])([H])C([H])([H])C([H])(C([H])([H])[H])C([H])([H])[H])C([H])([H])C([H])([H])C23[H])C2(C([H])([H])[H])C([H])([H])c3nc4c([H])c([H])c([H])c([H])c4nc3C([H])([H])C12[H]

$$$$
102:0:1
     RDKit          3D

 84 89  0  0  1  0  0  0  0  0999 V2000
   -1.7174   -7.7750    3.5928 C   0  0  0  0  0  0  0  0  0  0  0  0
   -0.6449   -8.3584    2.6548 C   0  0  0  0  0  0  0  0  0  0  0  0
   -0.7755   -9.8857    2.6046 C   0  0  0  0  0  0  0  0  0  0  0  0
    0.7730   -7.9233    3.0794 C   0  0  0  0  0  0  0  0  0  0  0  0
    1.8773   -8.2981    2.0674 C   0  0  0  0  0  0  0  0  0  0  0  0
    3.2805   -7.8454    2.5216 C   0  0  0  0  0  0  0  0  0  0  0  0
    4.2957   -7.7072    1.3578 C   0  0  2  0  0  0  0  0  0  0  0  0
    4.7800   -9.1066    0.9151 C   0  0  0  0  0  0  0  0  0  0  0  0
    5.4948   -6.7445    1.6234 C   0  0  2  0  0  0  0  0  0  0  0  0
    6.3576   -7.1443    2.8264 C   0  0  0  0  0  0  0  0  0  0  0  0
    5.8630   -6.2826    3.9828 C   0  0  0  0  0  0  0  0  0  0  0  0
    5.3891   -4.9573    3.3627 C   0  0  2  0  0  0  0  0  0  0  0  0
    4.1645   -4.3284    4.0789 C   0  0  1  0  0  0  0  0  0  0  0  0
    4.4755   -3.9548    5.5414 C   0  0  0  0  0  0  0  0  0  0  0  0
    3.2374   -3.3980    6.2565 C   0  0  1  0  0  0  0  0  0  0  0  0
    3.5823   -3.0710    7.5880 O   0  0  0  0  0  0  0  0  0  0  0  0
    2.6777   -2.1587    5.5158 C   0  0  2  0  0  0  0  0  0  0  0  0
    1.5024   -1.4982    6.2824 C   0  0  0  0  0  0  0  0  0  0  0  0
    0.7372   -0.4639    5.4795 C   0  0  0  0  0  0  0  0  0  0  0  0
   -0.1582    0.2922    6.1546 N   0  0  0  0  0  0  0  0  0  0  0  0
   -0.8699    1.1988    5.4474 C   0  0  0  0  0  0  0  0  0  0  0  0
   -1.7863    2.0423    6.1085 C   0  0  0  0  0  0  0  0  0  0  0  0
   -2.5741    2.9556    5.3904 C   0  0  0  0  0  0  0  0  0  0  0  0
   -2.4570    3.0327    3.9890 C   0  0  0  0  0  0  0  0  0  0  0  0
   -1.5260    2.2154    3.3225 C   0  0  0  0  0  0  0  0  0  0  0  0
   -0.7242    1.3062    4.0313 C   0  0  0  0  0  0  0  0  0  0  0  0
    0.1785    0.5443    3.3710 N   0  0  0  0  0  0  0  0  0  0  0  0
    0.9168   -0.3224    4.0901 C   0  0  0  0  0  0  0  0  0  0  0  0
    1.9635   -1.1244    3.3332 C   0  0  0  0  0  0  0  0  0  0  0  0
    2.3450   -2.4697    4.0169 C   0  0  2  0  0  0  0  0  0  0  0  0
    1.1328   -3.4437    3.9115 C   0  0  0  0  0  0  0  0  0  0  0  0
    3.6217   -3.0795    3.3241 C   0  0  2  0  0  0  0  0  0  0  0  0
    3.4831   -3.3005    1.7875 C   0  0  0  0  0  0  0  0  0  0  0  0
    3.8325   -4.7220    1.3172 C   0  0  0  0  0  0  0  0  0  0  0  0
    5.2109   -5.2178    1.8352 C   0  0  2  0  0  0  0  0  0  0  0  0
    6.3091   -4.4241    1.0787 C   0  0  0  0  0  0  0  0  0  0  0  0
   -1.5648   -8.0977    4.6244 H   0  0  0  0  0  0  0  0  0  0  0  0
   -2.7088   -8.1168    3.2951 H   0  0  0  0  0  0  0  0  0  0  0  0
   -1.7266   -6.6839    3.5799 H   0  0  0  0  0  0  0  0  0  0  0  0
   -0.8419   -7.9686    1.6544 H   0  0  0  0  0  0  0  0  0  0  0  0
   -0.5932  -10.3154    3.5885 H   0  0  0  0  0  0  0  0  0  0  0  0
   -0.0694  -10.3488    1.9183 H   0  0  0  0  0  0  0  0  0  0  0  0
   -1.7722  -10.1802    2.2782 H   0  0  0  0  0  0  0  0  0  0  0  0
    0.7762   -6.8406    3.2117 H   0  0  0  0  0  0  0  0  0  0  0  0
    1.0088   -8.3416    4.0591 H   0  0  0  0  0  0  0  0  0  0  0  0
    1.9178   -9.3740    1.8981 H   0  0  0  0  0  0  0  0  0  0  0  0
    1.6120   -7.8540    1.1070 H   0  0  0  0  0  0  0  0  0  0  0  0
    3.1744   -6.9041    3.0458 H   0  0  0  0  0  0  0  0  0  0  0  0
    3.6609   -8.5374    3.2784 H   0  0  0  0  0  0  0  0  0  0  0  0
    3.7795   -7.2865    0.4947 H   0  0  0  0  0  0  0  0  0  0  0  0
    5.2687   -9.6522    1.7239 H   0  0  0  0  0  0  0  0  0  0  0  0
    5.4945   -9.0479    0.0950 H   0  0  0  0  0  0  0  0  0  0  0  0
    3.9473   -9.7275    0.5786 H   0  0  0  0  0  0  0  0  0  0  0  0
    6.1232   -6.8442    0.7382 H   0  0  0  0  0  0  0  0  0  0  0  0
    6.3268   -8.2087    3.0665 H   0  0  0  0  0  0  0  0  0  0  0  0
    7.3992   -6.8976    2.6181 H   0  0  0  0  0  0  0  0  0  0  0  0
    5.0373   -6.7925    4.4803 H   0  0  0  0  0  0  0  0  0  0  0  0
    6.6451   -6.1321    4.7293 H   0  0  0  0  0  0  0  0  0  0  0  0
    6.2041   -4.2481    3.4789 H   0  0  0  0  0  0  0  0  0  0  0  0
    3.3846   -5.0821    4.1127 H   0  0  0  0  0  0  0  0  0  0  0  0
    4.8367   -4.8298    6.0814 H   0  0  0  0  0  0  0  0  0  0  0  0
    5.2836   -3.2216    5.5665 H   0  0  0  0  0  0  0  0  0  0  0  0
    2.4761   -4.1765    6.3087 H   0  0  0  0  0  0  0  0  0  0  0  0
    4.2576   -2.4105    7.5735 H   0  0  0  0  0  0  0  0  0  0  0  0
    3.4727   -1.4119    5.5025 H   0  0  0  0  0  0  0  0  0  0  0  0
    0.7805   -2.2615    6.5726 H   0  0  0  0  0  0  0  0  0  0  0  0
    1.8654   -1.0393    7.2032 H   0  0  0  0  0  0  0  0  0  0  0  0
   -1.8735    1.9986    7.1797 H   0  0  0  0  0  0  0  0  0  0  0  0
   -3.2754    3.5795    5.9265 H   0  0  0  0  0  0  0  0  0  0  0  0
   -3.0670    3.7092    3.4059 H   0  0  0  0  0  0  0  0  0  0  0  0
   -1.4410    2.2720    2.2501 H   0  0  0  0  0  0  0  0  0  0  0  0
    1.6207   -1.2671    2.3051 H   0  0  0  0  0  0  0  0  0  0  0  0
    2.8446   -0.4840    3.2796 H   0  0  0  0  0  0  0  0  0  0  0  0
    0.9065   -3.6862    2.8754 H   0  0  0  0  0  0  0  0  0  0  0  0
    0.2210   -3.0167    4.3311 H   0  0  0  0  0  0  0  0  0  0  0  0
    1.3056   -4.3889    4.4204 H   0  0  0  0  0  0  0  0  0  0  0  0
    4.4011   -2.3225    3.4181 H   0  0  0  0  0  0  0  0  0  0  0  0
    2.4742   -3.0882    1.4354 H   0  0  0  0  0  0  0  0  0  0  0  0
    4.1132   -2.5728    1.2739 H   0  0  0  0  0  0  0  0  0  0  0  0
    3.0079   -5.3498    1.6484 H   0  0  0  0  0  0  0  0  0  0  0  0
    3.8102   -4.7670    0.2291 H   0  0  0  0  0  0  0  0  0  0  0  0
    6.2648   -3.3554    1.2994 H   0  0  0  0  0  0  0  0  0  0  0  0
    6.2102   -4.5384   -0.0022 H   0  0  0  0  0  0  0  0  0  0  0  0
    7.3131   -4.7588    1.3536 H   0  0  0  0  0  0  0  0  0  0  0  0
  1  2  1  0
  1 37  1  0
  1 38  1  0
  1 39  1  0
  2  3  1  0
  2  4  1  0
  2 40  1  0
  3 41  1  0
  3 42  1  0
  3 43  1  0
  4  5  1  0
  4 44  1  0
  4 45  1  0
  5  6  1  0
  5 46  1  0
  5 47  1  0
  6  7  1  0
  6 48  1  0
  6 49  1  0
  7  8  1  0
  7  9  1  0
  7 50  1  6
  8 51  1  0
  8 52  1  0
  8 53  1  0
  9 35  1  0
  9 10  1  0
  9 54  1  6
 10 11  1  0
 10 55  1  0
 10 56  1  0
 11 12  1  0
 11 57  1  0
 11 58  1  0
 12 35  1  0
 12 13  1  0
 12 59  1  6
 13 32  1  0
 13 14  1  0
 13 60  1  1
 14 15  1  0
 14 61  1  0
 14 62  1  0
 15 16  1  0
 15 17  1  0
 15 63  1  1
 16 64  1  0
 17 30  1  0
 17 18  1  0
 17 65  1  6
 18 19  1  0
 18 66  1  0
 18 67  1  0
 19 28  2  0
 19 20  1  0
 20 21  2  0
 21 26  1  0
 21 22  1  0
 22 23  2  0
 22 68  1  0
 23 24  1  0
 23 69  1  0
 24 25  2  0
 24 70  1  0
 25 26  1  0
 25 71  1  0
 26 27  2  0
 27 28  1  0
 28 29  1  0
 29 30  1  0
 29 72  1  0
 29 73  1  0
 30 31  1  1
 30 32  1  0
 31 74  1  0
 31 75  1  0
 31 76  1  0
 32 33  1  0
 32 77  1  6
 33 34  1  0
 33 78  1  0
 33 79  1  0
 34 35  1  0
 34 80  1  0
 34 81  1  0
 35 36  1  6
 36 82  1  0
 36 83  1  0
 36 84  1  0
M  END
>  <i_m_ct_stereo_status>  (319) 
1

>  <s_m_source_file>  (319) 
/var/tmp/pbs.5076255.sched01/tmpajq2dbrl/12675ddggds.sdf

>  <i_m_source_file_index>  (319) 
21

>  <i_lp_mmshare_version>  (319) 
48012

>  <i_f3d_flags>  (319) 
0

>  <s_epik_input>  (319) 
W0NIM11bQ0hdKFtDSDNdKVtDSDJdW0NIMl1bQ0gyXVtDQEhdKFtDSDNdKVtDQEhdKFtDSDJdW0NIMl0xKVtDQEBdKFtDSDNdKShbQ0gyXVtDSDJdW0NASF0yMylbQ0BIXTFbQ0BIXTJbQ0gyXVtDQEBIXShbT0hdKVtDQEBIXShbQ0BdMzRbQ0gzXSlbQ0gyXWM1YyhbQ0gyXTQpbmM2YyhuNSlbY0hdW2NIXVtjSF1bY0hdNg==

>  <s_epik_cmdline>  (319) 
J2VwaWtfcHl0aG9uJywgJy1waHQnLCAnMi4wJywgJy1waCcsICc3LjAnLCAnLXRuJywgJzgnLCAnLW1hJywgJzIwMCcsICctaW1hZScsICc8aW5maWxlLm1hZT4nLCAnLW9tYWUnLCAnPG91dGZpbGUubWFlPic=

>  <r_lp_tautomer_probability>  (319) 
1

>  <r_epik_Ionization_Penalty>  (319) 
0.000146736

>  <r_epik_Ionization_Penalty_Charging>  (319) 
0

>  <r_epik_Ionization_Penalty_Neutral>  (319) 
0.000146736

>  <r_epik_State_Penalty>  (319) 
-0

>  <r_epik_Charging_Adjusted_Penalty>  (319) 
0

>  <i_epik_Tot_Q>  (319) 
0

>  <i_epik_Tot_abs_Q>  (319) 
0

>  <s_lp_Force_Field>  (319) 
OPLS3e

>  <r_lp_Energy>  (319) 
73.5963

>  <b_lp_Chiralities_Consistent>  (319) 
1

>  <s_lp_Variant>  (319) 
102:0-1

>  <s_i_glide_gridfile>  (319) 
pfpi4k_grid

>  <i_i_glide_lignum>  (319) 
21

>  <i_i_glide_rotatable_bonds>  (319) 
6

>  <r_i_docking_score>  (319) 
-1.44899

>  <r_i_glide_ligand_efficiency>  (319) 
-0.0402497

>  <r_i_glide_ligand_efficiency_sa>  (319) 
-0.132901

>  <r_i_glide_ligand_efficiency_ln>  (319) 
-0.31613

>  <r_i_glide_gscore>  (319) 
-1.44899

>  <r_i_glide_lipo>  (319) 
-0.339446

>  <r_i_glide_hbond>  (319) 
0

>  <r_i_glide_metal>  (319) 
-0

>  <r_i_glide_rewards>  (319) 
-0.0767249

>  <r_i_glide_evdw>  (319) 
-28.158

>  <r_i_glide_ecoul>  (319) 
0.230053

>  <r_i_glide_erotb>  (319) 
0.340575

>  <r_i_glide_esite>  (319) 
0

>  <r_i_glide_emodel>  (319) 
-29.6196

>  <r_i_glide_energy>  (319) 
-27.9279

>  <r_i_glide_einternal>  (319) 
1.64722

>  <r_i_glide_intrahb_reward>  (319) 
-0

>  <i_i_glide_confnum>  (319) 
5

>  <i_i_glide_posenum>  (319) 
22

>  <r_i_glide_eff_state_penalty>  (319) 
0

>  <ligand_id>  (319) 
102

>  <original_smiles>  (319) 
CC(C)CCCC(C)C1CCC2C3CC(O)C4Cc5nc6ccccc6nc5CC4(C)C3CCC12C

>  <smiles>  (319) 
[H]OC1([H])C([H])([H])C2([H])C([H])(C([H])([H])C([H])([H])C3(C([H])([H])[H])C([H])(C([H])(C([H])([H])[H])C([H])([H])C([H])([H])C([H])([H])C([H])(C([H])([H])[H])C([H])([H])[H])C([H])([H])C([H])([H])C23[H])C2(C([H])([H])[H])C([H])([H])c3nc4c([H])c([H])c([H])c([H])c4nc3C([H])([H])C12[H]

$$$$
102:0:2
     RDKit          3D

 84 89  0  0  1  0  0  0  0  0999 V2000
   -0.9195   -8.2611    4.5216 C   0  0  0  0  0  0  0  0  0  0  0  0
    0.1596   -9.1372    5.1825 C   0  0  0  0  0  0  0  0  0  0  0  0
   -0.1149   -9.2689    6.6899 C   0  0  0  0  0  0  0  0  0  0  0  0
    1.5875   -8.6107    4.9284 C   0  0  0  0  0  0  0  0  0  0  0  0
    2.0370   -8.6682    3.4555 C   0  0  0  0  0  0  0  0  0  0  0  0
    3.3949   -7.9781    3.2288 C   0  0  0  0  0  0  0  0  0  0  0  0
    3.8843   -8.0062    1.7601 C   0  0  2  0  0  0  0  0  0  0  0  0
    4.2683   -9.4427    1.3494 C   0  0  0  0  0  0  0  0  0  0  0  0
    5.0445   -7.0086    1.4277 C   0  0  2  0  0  0  0  0  0  0  0  0
    6.2525   -7.1238    2.3640 C   0  0  0  0  0  0  0  0  0  0  0  0
    6.0786   -6.0069    3.3910 C   0  0  0  0  0  0  0  0  0  0  0  0
    5.3642   -4.8540    2.6614 C   0  0  2  0  0  0  0  0  0  0  0  0
    4.3571   -4.0775    3.5573 C   0  0  1  0  0  0  0  0  0  0  0  0
    5.0583   -3.3714    4.7314 C   0  0  0  0  0  0  0  0  0  0  0  0
    4.0544   -2.6522    5.6437 C   0  0  1  0  0  0  0  0  0  0  0  0
    4.7661   -2.0288    6.6928 O   0  0  0  0  0  0  0  0  0  0  0  0
    3.2159   -1.6197    4.8485 C   0  0  2  0  0  0  0  0  0  0  0  0
    2.2824   -0.7894    5.7654 C   0  0  0  0  0  0  0  0  0  0  0  0
    1.2478    0.0336    5.0184 C   0  0  0  0  0  0  0  0  0  0  0  0
    0.5505    0.9351    5.7438 N   0  0  0  0  0  0  0  0  0  0  0  0
   -0.4043    1.6499    5.1047 C   0  0  0  0  0  0  0  0  0  0  0  0
   -1.1456    2.6215    5.8068 C   0  0  0  0  0  0  0  0  0  0  0  0
   -2.1794    3.3330    5.1774 C   0  0  0  0  0  0  0  0  0  0  0  0
   -2.4837    3.0903    3.8263 C   0  0  0  0  0  0  0  0  0  0  0  0
   -1.7367    2.1414    3.1094 C   0  0  0  0  0  0  0  0  0  0  0  0
   -0.6935    1.4230    3.7239 C   0  0  0  0  0  0  0  0  0  0  0  0
    0.0231    0.5244    3.0071 N   0  0  0  0  0  0  0  0  0  0  0  0
    0.9956   -0.1574    3.6464 C   0  0  0  0  0  0  0  0  0  0  0  0
    1.8172   -1.1252    2.8105 C   0  0  0  0  0  0  0  0  0  0  0  0
    2.4734   -2.2731    3.6333 C   0  0  2  0  0  0  0  0  0  0  0  0
    1.3496   -3.2407    4.1196 C   0  0  0  0  0  0  0  0  0  0  0  0
    3.5272   -3.0374    2.7463 C   0  0  2  0  0  0  0  0  0  0  0  0
    2.9531   -3.6209    1.4256 C   0  0  0  0  0  0  0  0  0  0  0  0
    3.2459   -5.1143    1.2184 C   0  0  0  0  0  0  0  0  0  0  0  0
    4.7457   -5.4725    1.3686 C   0  0  2  0  0  0  0  0  0  0  0  0
    5.5021   -4.8873    0.1464 C   0  0  0  0  0  0  0  0  0  0  0  0
   -0.8707   -7.2307    4.8755 H   0  0  0  0  0  0  0  0  0  0  0  0
   -1.9120   -8.6503    4.7467 H   0  0  0  0  0  0  0  0  0  0  0  0
   -0.8286   -8.2537    3.4362 H   0  0  0  0  0  0  0  0  0  0  0  0
    0.0860  -10.1390    4.7572 H   0  0  0  0  0  0  0  0  0  0  0  0
   -0.0639   -8.3028    7.1924 H   0  0  0  0  0  0  0  0  0  0  0  0
    0.6073   -9.9334    7.1653 H   0  0  0  0  0  0  0  0  0  0  0  0
   -1.1035   -9.6892    6.8755 H   0  0  0  0  0  0  0  0  0  0  0  0
    1.6706   -7.5927    5.3106 H   0  0  0  0  0  0  0  0  0  0  0  0
    2.2894   -9.2098    5.5109 H   0  0  0  0  0  0  0  0  0  0  0  0
    2.0749   -9.7156    3.1550 H   0  0  0  0  0  0  0  0  0  0  0  0
    1.3063   -8.1893    2.8050 H   0  0  0  0  0  0  0  0  0  0  0  0
    3.2896   -6.9507    3.5620 H   0  0  0  0  0  0  0  0  0  0  0  0
    4.1490   -8.4226    3.8786 H   0  0  0  0  0  0  0  0  0  0  0  0
    3.0438   -7.7448    1.1167 H   0  0  0  0  0  0  0  0  0  0  0  0
    5.0678   -9.8488    1.9706 H   0  0  0  0  0  0  0  0  0  0  0  0
    4.5997   -9.4819    0.3126 H   0  0  0  0  0  0  0  0  0  0  0  0
    3.4182  -10.1212    1.4267 H   0  0  0  0  0  0  0  0  0  0  0  0
    5.3848   -7.3110    0.4400 H   0  0  0  0  0  0  0  0  0  0  0  0
    6.3581   -8.1072    2.8247 H   0  0  0  0  0  0  0  0  0  0  0  0
    7.1668   -6.9411    1.7985 H   0  0  0  0  0  0  0  0  0  0  0  0
    5.4735   -6.3725    4.2208 H   0  0  0  0  0  0  0  0  0  0  0  0
    7.0364   -5.6919    3.8087 H   0  0  0  0  0  0  0  0  0  0  0  0
    6.1375   -4.1419    2.3571 H   0  0  0  0  0  0  0  0  0  0  0  0
    3.6767   -4.8097    3.9849 H   0  0  0  0  0  0  0  0  0  0  0  0
    5.6235   -4.0936    5.3190 H   0  0  0  0  0  0  0  0  0  0  0  0
    5.7815   -2.6548    4.3405 H   0  0  0  0  0  0  0  0  0  0  0  0
    3.3973   -3.3922    6.1023 H   0  0  0  0  0  0  0  0  0  0  0  0
    5.3451   -1.3742    6.3254 H   0  0  0  0  0  0  0  0  0  0  0  0
    3.9193   -0.9010    4.4244 H   0  0  0  0  0  0  0  0  0  0  0  0
    1.7304   -1.4559    6.4265 H   0  0  0  0  0  0  0  0  0  0  0  0
    2.8693   -0.1292    6.4040 H   0  0  0  0  0  0  0  0  0  0  0  0
   -0.9113    2.8196    6.8388 H   0  0  0  0  0  0  0  0  0  0  0  0
   -2.7354    4.0512    5.7565 H   0  0  0  0  0  0  0  0  0  0  0  0
   -3.2825    3.6131    3.3180 H   0  0  0  0  0  0  0  0  0  0  0  0
   -1.9762    1.9467    2.0781 H   0  0  0  0  0  0  0  0  0  0  0  0
    1.1965   -1.5007    1.9957 H   0  0  0  0  0  0  0  0  0  0  0  0
    2.5970   -0.5200    2.3490 H   0  0  0  0  0  0  0  0  0  0  0  0
    0.8337   -3.7170    3.2855 H   0  0  0  0  0  0  0  0  0  0  0  0
    0.5850   -2.7194    4.6977 H   0  0  0  0  0  0  0  0  0  0  0  0
    1.7328   -4.0385    4.7541 H   0  0  0  0  0  0  0  0  0  0  0  0
    4.2446   -2.2840    2.4194 H   0  0  0  0  0  0  0  0  0  0  0  0
    1.8761   -3.4893    1.3622 H   0  0  0  0  0  0  0  0  0  0  0  0
    3.3469   -3.0461    0.5879 H   0  0  0  0  0  0  0  0  0  0  0  0
    2.6344   -5.6525    1.9392 H   0  0  0  0  0  0  0  0  0  0  0  0
    2.8906   -5.4240    0.2364 H   0  0  0  0  0  0  0  0  0  0  0  0
    5.4532   -3.7973    0.1214 H   0  0  0  0  0  0  0  0  0  0  0  0
    5.0891   -5.2550   -0.7944 H   0  0  0  0  0  0  0  0  0  0  0  0
    6.5608   -5.1533    0.1673 H   0  0  0  0  0  0  0  0  0  0  0  0
  1  2  1  0
  1 37  1  0
  1 38  1  0
  1 39  1  0
  2  3  1  0
  2  4  1  0
  2 40  1  0
  3 41  1  0
  3 42  1  0
  3 43  1  0
  4  5  1  0
  4 44  1  0
  4 45  1  0
  5  6  1  0
  5 46  1  0
  5 47  1  0
  6  7  1  0
  6 48  1  0
  6 49  1  0
  7  8  1  0
  7  9  1  0
  7 50  1  6
  8 51  1  0
  8 52  1  0
  8 53  1  0
  9 35  1  0
  9 10  1  0
  9 54  1  6
 10 11  1  0
 10 55  1  0
 10 56  1  0
 11 12  1  0
 11 57  1  0
 11 58  1  0
 12 35  1  0
 12 13  1  0
 12 59  1  6
 13 32  1  0
 13 14  1  0
 13 60  1  1
 14 15  1  0
 14 61  1  0
 14 62  1  0
 15 16  1  0
 15 17  1  0
 15 63  1  1
 16 64  1  0
 17 30  1  0
 17 18  1  0
 17 65  1  6
 18 19  1  0
 18 66  1  0
 18 67  1  0
 19 28  2  0
 19 20  1  0
 20 21  2  0
 21 26  1  0
 21 22  1  0
 22 23  2  0
 22 68  1  0
 23 24  1  0
 23 69  1  0
 24 25  2  0
 24 70  1  0
 25 26  1  0
 25 71  1  0
 26 27  2  0
 27 28  1  0
 28 29  1  0
 29 30  1  0
 29 72  1  0
 29 73  1  0
 30 31  1  1
 30 32  1  0
 31 74  1  0
 31 75  1  0
 31 76  1  0
 32 33  1  0
 32 77  1  6
 33 34  1  0
 33 78  1  0
 33 79  1  0
 34 35  1  0
 34 80  1  0
 34 81  1  0
 35 36  1  6
 36 82  1  0
 36 83  1  0
 36 84  1  0
M  END
>  <i_m_ct_stereo_status>  (320) 
1

>  <s_m_source_file>  (320) 
/var/tmp/pbs.5076255.sched01/tmpajq2dbrl/12675ddggds.sdf

>  <i_m_source_file_index>  (320) 
21

>  <i_lp_mmshare_version>  (320) 
48012

>  <i_f3d_flags>  (320) 
0

>  <s_epik_input>  (320) 
W0NIM11bQ0hdKFtDSDNdKVtDSDJdW0NIMl1bQ0gyXVtDQEhdKFtDSDNdKVtDQEhdKFtDSDJdW0NIMl0xKVtDQEBdKFtDSDNdKShbQ0gyXVtDSDJdW0NASF0yMylbQ0BIXTFbQ0BIXTJbQ0gyXVtDQEBIXShbT0hdKVtDQEBIXShbQ0BdMzRbQ0gzXSlbQ0gyXWM1YyhbQ0gyXTQpbmM2YyhuNSlbY0hdW2NIXVtjSF1bY0hdNg==

>  <s_epik_cmdline>  (320) 
J2VwaWtfcHl0aG9uJywgJy1waHQnLCAnMi4wJywgJy1waCcsICc3LjAnLCAnLXRuJywgJzgnLCAnLW1hJywgJzIwMCcsICctaW1hZScsICc8aW5maWxlLm1hZT4nLCAnLW9tYWUnLCAnPG91dGZpbGUubWFlPic=

>  <r_lp_tautomer_probability>  (320) 
1

>  <r_epik_Ionization_Penalty>  (320) 
0.000146736

>  <r_epik_Ionization_Penalty_Charging>  (320) 
0

>  <r_epik_Ionization_Penalty_Neutral>  (320) 
0.000146736

>  <r_epik_State_Penalty>  (320) 
-0

>  <r_epik_Charging_Adjusted_Penalty>  (320) 
0

>  <i_epik_Tot_Q>  (320) 
0

>  <i_epik_Tot_abs_Q>  (320) 
0

>  <s_lp_Force_Field>  (320) 
OPLS3e

>  <r_lp_Energy>  (320) 
73.5963

>  <b_lp_Chiralities_Consistent>  (320) 
1

>  <s_lp_Variant>  (320) 
102:0-1

>  <s_i_glide_gridfile>  (320) 
pfpi4k_grid

>  <i_i_glide_lignum>  (320) 
21

>  <i_i_glide_rotatable_bonds>  (320) 
6

>  <r_i_docking_score>  (320) 
-1.32099

>  <r_i_glide_ligand_efficiency>  (320) 
-0.0366943

>  <r_i_glide_ligand_efficiency_sa>  (320) 
-0.121162

>  <r_i_glide_ligand_efficiency_ln>  (320) 
-0.288205

>  <r_i_glide_gscore>  (320) 
-1.32099

>  <r_i_glide_lipo>  (320) 
-0.307944

>  <r_i_glide_hbond>  (320) 
0

>  <r_i_glide_metal>  (320) 
-0

>  <r_i_glide_rewards>  (320) 
-0.0767249

>  <r_i_glide_evdw>  (320) 
-26.7517

>  <r_i_glide_ecoul>  (320) 
0.404586

>  <r_i_glide_erotb>  (320) 
0.340575

>  <r_i_glide_esite>  (320) 
0

>  <r_i_glide_emodel>  (320) 
-28.4589

>  <r_i_glide_energy>  (320) 
-26.3472

>  <r_i_glide_einternal>  (320) 
0.475091

>  <r_i_glide_intrahb_reward>  (320) 
-0

>  <i_i_glide_confnum>  (320) 
5

>  <i_i_glide_posenum>  (320) 
14

>  <r_i_glide_eff_state_penalty>  (320) 
0

>  <ligand_id>  (320) 
102

>  <original_smiles>  (320) 
CC(C)CCCC(C)C1CCC2C3CC(O)C4Cc5nc6ccccc6nc5CC4(C)C3CCC12C

>  <smiles>  (320) 
[H]OC1([H])C([H])([H])C2([H])C([H])(C([H])([H])C([H])([H])C3(C([H])([H])[H])C([H])(C([H])(C([H])([H])[H])C([H])([H])C([H])([H])C([H])([H])C([H])(C([H])([H])[H])C([H])([H])[H])C([H])([H])C([H])([H])C23[H])C2(C([H])([H])[H])C([H])([H])c3nc4c([H])c([H])c([H])c([H])c4nc3C([H])([H])C12[H]

$$$$
103:0:0
     RDKit          3D

 72 78  0  0  1  0  0  0  0  0999 V2000
    5.9748   -8.3811    7.0686 C   0  0  0  0  0  0  0  0  0  0  0  0
    5.4917   -7.6269    6.0565 C   0  0  0  0  0  0  0  0  0  0  0  0
    5.5280   -6.1048    6.0905 C   0  0  2  0  0  0  0  0  0  0  0  0
    6.4994   -5.4743    7.1142 C   0  0  0  0  0  0  0  0  0  0  0  0
    6.6732   -3.9708    6.8219 C   0  0  0  0  0  0  0  0  0  0  0  0
    5.3510   -3.2675    6.5385 C   0  0  0  0  0  0  0  0  0  0  0  0
    5.4007   -1.7528    6.5001 C   0  0  0  0  0  0  0  0  0  0  0  0
    4.2120   -3.9560    6.3274 C   0  0  0  0  0  0  0  0  0  0  0  0
    4.1331   -5.4767    6.2985 C   0  0  1  0  0  0  0  0  0  0  0  0
    3.0543   -5.9372    5.4788 O   0  0  0  0  0  0  0  0  0  0  0  0
    3.1880   -6.4823    4.1552 C   0  0  2  0  0  0  0  0  0  0  0  0
    4.0652   -5.4913    3.3217 C   0  0  0  0  0  0  0  0  0  0  0  0
    1.7404   -6.3551    3.6278 C   0  0  2  0  0  0  0  0  0  0  0  0
    0.8526   -6.9254    4.5934 O   0  0  0  0  0  0  0  0  0  0  0  0
    0.8333   -8.3425    4.6041 C   0  0  1  0  0  0  0  0  0  0  0  0
   -0.1400   -8.6746    5.7742 C   0  0  0  0  0  0  0  0  0  0  0  0
    0.0613   -8.6445    3.2246 C   0  0  0  0  0  0  0  0  0  0  0  0
    0.1929  -10.0798    2.6859 C   0  0  0  0  0  0  0  0  0  0  0  0
   -1.4668   -8.3586    3.2485 C   0  0  0  0  0  0  0  0  0  0  0  0
    0.3226   -7.6759    2.2026 O   0  0  0  0  0  0  0  0  0  0  0  0
    1.5222   -6.9946    2.2025 C   0  0  1  0  0  0  0  0  0  0  0  0
    1.4582   -5.9860    1.2198 O   0  0  0  0  0  0  0  0  0  0  0  0
    2.5210   -8.0241    1.7344 C   0  0  1  0  0  0  0  0  0  0  0  0
    3.9154   -7.7175    1.6958 O   0  0  0  0  0  0  0  0  0  0  0  0
    3.4750   -8.5885    2.7405 C   0  0  2  0  0  0  0  0  0  0  0  0
    3.8093  -10.0572    2.5411 C   0  0  1  0  0  0  0  0  0  0  0  0
    5.1641  -10.2545    2.2032 O   0  0  0  0  0  0  0  0  0  0  0  0
    3.4177  -10.9887    3.6958 C   0  0  0  0  0  0  0  0  0  0  0  0
    2.5287  -10.4002    4.8160 C   0  0  0  0  0  0  0  0  0  0  0  0
    2.3603   -8.8419    4.9627 C   0  0  2  0  0  0  0  0  0  0  0  0
    2.5375   -8.6682    6.5088 C   0  0  0  0  0  0  0  0  0  0  0  0
    3.5331   -8.0362    4.1879 C   0  0  2  0  0  0  0  0  0  0  0  0
    5.0104   -8.2899    4.7536 C   0  0  1  0  0  0  0  0  0  0  0  0
    5.9912   -8.0386    3.7659 O   0  0  0  0  0  0  0  0  0  0  0  0
    5.9907   -9.4548    6.9953 H   0  0  0  0  0  0  0  0  0  0  0  0
    6.3597   -7.9521    7.9743 H   0  0  0  0  0  0  0  0  0  0  0  0
    5.9395   -5.8020    5.1349 H   0  0  0  0  0  0  0  0  0  0  0  0
    6.1191   -5.5959    8.1307 H   0  0  0  0  0  0  0  0  0  0  0  0
    7.4755   -5.9590    7.0833 H   0  0  0  0  0  0  0  0  0  0  0  0
    7.1925   -3.4833    7.6476 H   0  0  0  0  0  0  0  0  0  0  0  0
    7.3044   -3.8509    5.9427 H   0  0  0  0  0  0  0  0  0  0  0  0
    6.1055   -1.4133    5.7426 H   0  0  0  0  0  0  0  0  0  0  0  0
    5.7118   -1.3435    7.4621 H   0  0  0  0  0  0  0  0  0  0  0  0
    4.4239   -1.3384    6.2555 H   0  0  0  0  0  0  0  0  0  0  0  0
    3.2857   -3.4276    6.1587 H   0  0  0  0  0  0  0  0  0  0  0  0
    3.8076   -5.7364    7.3052 H   0  0  0  0  0  0  0  0  0  0  0  0
    3.7474   -5.3987    2.2872 H   0  0  0  0  0  0  0  0  0  0  0  0
    5.1133   -5.7657    3.2624 H   0  0  0  0  0  0  0  0  0  0  0  0
    4.0037   -4.4813    3.7200 H   0  0  0  0  0  0  0  0  0  0  0  0
    1.4555   -5.2998    3.5745 H   0  0  0  0  0  0  0  0  0  0  0  0
   -0.2397   -9.7497    5.9343 H   0  0  0  0  0  0  0  0  0  0  0  0
   -1.1317   -8.2788    5.6332 H   0  0  0  0  0  0  0  0  0  0  0  0
    0.1220   -8.1945    6.7148 H   0  0  0  0  0  0  0  0  0  0  0  0
   -0.1296  -10.8131    3.4234 H   0  0  0  0  0  0  0  0  0  0  0  0
    1.1981  -10.3263    2.3774 H   0  0  0  0  0  0  0  0  0  0  0  0
   -0.4377  -10.2344    1.8110 H   0  0  0  0  0  0  0  0  0  0  0  0
   -2.0262   -9.0702    3.8512 H   0  0  0  0  0  0  0  0  0  0  0  0
   -1.9008   -8.4211    2.2479 H   0  0  0  0  0  0  0  0  0  0  0  0
   -1.6822   -7.3583    3.6225 H   0  0  0  0  0  0  0  0  0  0  0  0
    2.3498   -5.7459    1.0083 H   0  0  0  0  0  0  0  0  0  0  0  0
    2.1994   -8.6394    0.8960 H   0  0  0  0  0  0  0  0  0  0  0  0
    3.2702  -10.3947    1.6619 H   0  0  0  0  0  0  0  0  0  0  0  0
    5.1744  -10.9799    1.5820 H   0  0  0  0  0  0  0  0  0  0  0  0
    2.9493  -11.8895    3.2876 H   0  0  0  0  0  0  0  0  0  0  0  0
    4.3315  -11.3628    4.1636 H   0  0  0  0  0  0  0  0  0  0  0  0
    1.5583  -10.8876    4.8041 H   0  0  0  0  0  0  0  0  0  0  0  0
    2.9685  -10.8234    5.7241 H   0  0  0  0  0  0  0  0  0  0  0  0
    3.5127   -8.9724    6.8613 H   0  0  0  0  0  0  0  0  0  0  0  0
    1.8867   -9.3411    7.0722 H   0  0  0  0  0  0  0  0  0  0  0  0
    2.3323   -7.6623    6.8686 H   0  0  0  0  0  0  0  0  0  0  0  0
    5.1053   -9.3570    4.9315 H   0  0  0  0  0  0  0  0  0  0  0  0
    5.8766   -8.6831    3.0718 H   0  0  0  0  0  0  0  0  0  0  0  0
  1  2  2  0
  1 35  1  0
  1 36  1  0
  2 33  1  0
  2  3  1  0
  3  9  1  0
  3  4  1  0
  3 37  1  6
  4  5  1  0
  4 38  1  0
  4 39  1  0
  5  6  1  0
  5 40  1  0
  5 41  1  0
  6  7  1  0
  6  8  2  0
  7 42  1  0
  7 43  1  0
  7 44  1  0
  8  9  1  0
  8 45  1  0
  9 10  1  0
  9 46  1  1
 10 11  1  0
 11 32  1  0
 11 12  1  6
 11 13  1  0
 12 47  1  0
 12 48  1  0
 12 49  1  0
 13 21  1  0
 13 14  1  0
 13 50  1  6
 14 15  1  0
 15 30  1  0
 15 16  1  1
 15 17  1  0
 16 51  1  0
 16 52  1  0
 16 53  1  0
 17 18  1  0
 17 19  1  0
 17 20  1  0
 18 54  1  0
 18 55  1  0
 18 56  1  0
 19 57  1  0
 19 58  1  0
 19 59  1  0
 20 21  1  0
 21 22  1  6
 21 23  1  0
 22 60  1  0
 23 25  1  0
 23 24  1  0
 23 61  1  6
 25 24  1  6
 25 32  1  0
 25 26  1  0
 26 27  1  0
 26 28  1  0
 26 62  1  6
 27 63  1  0
 28 29  1  0
 28 64  1  0
 28 65  1  0
 29 30  1  0
 29 66  1  0
 29 67  1  0
 30 31  1  1
 32 30  1  1
 31 68  1  0
 31 69  1  0
 31 70  1  0
 32 33  1  0
 33 34  1  0
 33 71  1  1
 34 72  1  0
M  END
>  <i_m_ct_stereo_status>  (321) 
1

>  <s_m_source_file>  (321) 
/var/tmp/pbs.5076255.sched01/tmpajq2dbrl/12675ddggds.sdf

>  <i_m_source_file_index>  (321) 
22

>  <i_lp_mmshare_version>  (321) 
48012

>  <i_f3d_flags>  (321) 
0

>  <s_epik_input>  (321) 
W0NIM11DKD1bQ0hdMSlbQ0gyXVtDSDJdW0NAQEhdKEMoPVtDSDJdKVtDQEBIXTJbT0hdKVtDQEBIXTFPW0NAQF0oW0NIM10pKFtDQEBdMjNbQ0BAXTQ1NilbQ0BIXTdbQ0BAXShbT0hdKShbQ0BIXTRPNSlPQyhbQ0gzXSkoW0NIM10pW0NAQF0oTzcpKFtDSDNdKVtDQEBdMyhbQ0gzXSlbQ0gyXVtDSDJdW0NAQEhdNltPSF0=

>  <s_epik_cmdline>  (321) 
J2VwaWtfcHl0aG9uJywgJy1waHQnLCAnMi4wJywgJy1waCcsICc3LjAnLCAnLXRuJywgJzgnLCAnLW1hJywgJzIwMCcsICctaW1hZScsICc8aW5maWxlLm1hZT4nLCAnLW9tYWUnLCAnPG91dGZpbGUubWFlPic=

>  <r_lp_tautomer_probability>  (321) 
1

>  <r_epik_Ionization_Penalty>  (321) 
2.97358e-05

>  <r_epik_Ionization_Penalty_Charging>  (321) 
0

>  <r_epik_Ionization_Penalty_Neutral>  (321) 
2.97358e-05

>  <r_epik_State_Penalty>  (321) 
-0

>  <r_epik_Charging_Adjusted_Penalty>  (321) 
0

>  <i_epik_Tot_Q>  (321) 
0

>  <i_epik_Tot_abs_Q>  (321) 
0

>  <s_lp_Force_Field>  (321) 
OPLS3e

>  <r_lp_Energy>  (321) 
107.644

>  <b_lp_Chiralities_Consistent>  (321) 
1

>  <s_lp_Variant>  (321) 
103:0-1

>  <s_i_glide_gridfile>  (321) 
pfpi4k_grid

>  <i_i_glide_lignum>  (321) 
22

>  <i_i_glide_rotatable_bonds>  (321) 
3

>  <r_i_docking_score>  (321) 
-2.96664

>  <r_i_glide_ligand_efficiency>  (321) 
-0.0872543

>  <r_i_glide_ligand_efficiency_sa>  (321) 
-0.28267

>  <r_i_glide_ligand_efficiency_ln>  (321) 
-0.655415

>  <r_i_glide_gscore>  (321) 
-2.96664

>  <r_i_glide_lipo>  (321) 
-0.115162

>  <r_i_glide_hbond>  (321) 
0

>  <r_i_glide_metal>  (321) 
-0

>  <r_i_glide_rewards>  (321) 
-0.673274

>  <r_i_glide_evdw>  (321) 
-24.7485

>  <r_i_glide_ecoul>  (321) 
-6.07219

>  <r_i_glide_erotb>  (321) 
0

>  <r_i_glide_esite>  (321) 
-0.0299568

>  <r_i_glide_emodel>  (321) 
-40.3738

>  <r_i_glide_energy>  (321) 
-30.8207

>  <r_i_glide_einternal>  (321) 
2.95882

>  <r_i_glide_intrahb_reward>  (321) 
-0.5

>  <i_i_glide_confnum>  (321) 
2

>  <i_i_glide_posenum>  (321) 
33

>  <r_i_glide_eff_state_penalty>  (321) 
0

>  <ligand_id>  (321) 
103

>  <original_smiles>  (321) 
C=C1C2CCC(C)=CC2OC2(C)C3OC4(C)C(C)(C)OC3(O)C3OC35C(O)CCC4(C)C25C1O

>  <smiles>  (321) 
[H]OC1([H])C(=C([H])[H])C2([H])C([H])(OC3(C([H])([H])[H])C4([H])OC5(C([H])([H])[H])C(C([H])([H])[H])(C([H])([H])[H])OC4(O[H])C4([H])OC46C([H])(O[H])C([H])([H])C([H])([H])C5(C([H])([H])[H])C136)C([H])=C(C([H])([H])[H])C([H])([H])C2([H])[H]

$$$$
103:0:1
     RDKit          3D

 72 78  0  0  1  0  0  0  0  0999 V2000
    5.5013   -7.8696    7.2174 C   0  0  0  0  0  0  0  0  0  0  0  0
    5.0657   -7.2533    6.0981 C   0  0  0  0  0  0  0  0  0  0  0  0
    5.0186   -5.7359    5.9728 C   0  0  2  0  0  0  0  0  0  0  0  0
    5.8680   -4.9478    6.9944 C   0  0  0  0  0  0  0  0  0  0  0  0
    5.9846   -3.4739    6.5577 C   0  0  0  0  0  0  0  0  0  0  0  0
    4.6549   -2.8838    6.1046 C   0  0  0  0  0  0  0  0  0  0  0  0
    4.6311   -1.3806    5.9119 C   0  0  0  0  0  0  0  0  0  0  0  0
    3.5753   -3.6568    5.8813 C   0  0  0  0  0  0  0  0  0  0  0  0
    3.5805   -5.1746    6.0078 C   0  0  1  0  0  0  0  0  0  0  0  0
    2.5987   -5.7796    5.1629 O   0  0  0  0  0  0  0  0  0  0  0  0
    2.8661   -6.4456    3.9181 C   0  0  2  0  0  0  0  0  0  0  0  0
    3.7549   -5.4948    3.0505 C   0  0  0  0  0  0  0  0  0  0  0  0
    1.4601   -6.4519    3.2765 C   0  0  2  0  0  0  0  0  0  0  0  0
    0.5312   -6.9802    4.2251 O   0  0  0  0  0  0  0  0  0  0  0  0
    0.5865   -8.3891    4.3783 C   0  0  1  0  0  0  0  0  0  0  0  0
   -0.4616   -8.6558    5.4958 C   0  0  0  0  0  0  0  0  0  0  0  0
   -0.0501   -8.8756    2.9872 C   0  0  0  0  0  0  0  0  0  0  0  0
    0.2138  -10.3426    2.6035 C   0  0  0  0  0  0  0  0  0  0  0  0
   -1.5889   -8.6929    2.8680 C   0  0  0  0  0  0  0  0  0  0  0  0
    0.2336   -7.9902    1.9016 O   0  0  0  0  0  0  0  0  0  0  0  0
    1.3926   -7.2427    1.9183 C   0  0  1  0  0  0  0  0  0  0  0  0
    1.3355   -6.3400    0.8365 O   0  0  0  0  0  0  0  0  0  0  0  0
    2.4847   -8.2512    1.6422 C   0  0  1  0  0  0  0  0  0  0  0  0
    3.8662   -7.8767    1.6720 O   0  0  0  0  0  0  0  0  0  0  0  0
    3.3840   -8.6647    2.7639 C   0  0  2  0  0  0  0  0  0  0  0  0
    3.8043  -10.1285    2.7374 C   0  0  1  0  0  0  0  0  0  0  0  0
    5.1932  -10.2821    2.5389 O   0  0  0  0  0  0  0  0  0  0  0  0
    3.3658  -10.9601    3.9519 C   0  0  0  0  0  0  0  0  0  0  0  0
    2.3598  -10.3126    4.9323 C   0  0  0  0  0  0  0  0  0  0  0  0
    2.1021   -8.7594    4.9030 C   0  0  2  0  0  0  0  0  0  0  0  0
    2.1449   -8.4213    6.4306 C   0  0  0  0  0  0  0  0  0  0  0  0
    3.2902   -7.9657    4.1412 C   0  0  2  0  0  0  0  0  0  0  0  0
    4.7273   -8.0728    4.8405 C   0  0  1  0  0  0  0  0  0  0  0  0
    5.7703   -7.8620    3.9088 O   0  0  0  0  0  0  0  0  0  0  0  0
    5.5782   -8.9420    7.2596 H   0  0  0  0  0  0  0  0  0  0  0  0
    5.7855   -7.3297    8.1002 H   0  0  0  0  0  0  0  0  0  0  0  0
    5.4892   -5.5077    5.0241 H   0  0  0  0  0  0  0  0  0  0  0  0
    5.4109   -4.9893    7.9857 H   0  0  0  0  0  0  0  0  0  0  0  0
    6.8668   -5.3736    7.0887 H   0  0  0  0  0  0  0  0  0  0  0  0
    6.4082   -2.8766    7.3653 H   0  0  0  0  0  0  0  0  0  0  0  0
    6.6742   -3.4015    5.7179 H   0  0  0  0  0  0  0  0  0  0  0  0
    5.3792   -1.0801    5.1795 H   0  0  0  0  0  0  0  0  0  0  0  0
    4.8409   -0.8589    6.8465 H   0  0  0  0  0  0  0  0  0  0  0  0
    3.6582   -1.0515    5.5509 H   0  0  0  0  0  0  0  0  0  0  0  0
    2.6387   -3.2056    5.5884 H   0  0  0  0  0  0  0  0  0  0  0  0
    3.1868   -5.3509    7.0085 H   0  0  0  0  0  0  0  0  0  0  0  0
    3.5128   -5.5297    1.9910 H   0  0  0  0  0  0  0  0  0  0  0  0
    4.8190   -5.7080    3.0978 H   0  0  0  0  0  0  0  0  0  0  0  0
    3.6077   -4.4554    3.3331 H   0  0  0  0  0  0  0  0  0  0  0  0
    1.1322   -5.4238    3.0921 H   0  0  0  0  0  0  0  0  0  0  0  0
   -0.5167   -9.7138    5.7614 H   0  0  0  0  0  0  0  0  0  0  0  0
   -1.4688   -8.3335    5.2573 H   0  0  0  0  0  0  0  0  0  0  0  0
   -0.2746   -8.0826    6.3969 H   0  0  0  0  0  0  0  0  0  0  0  0
   -0.1332  -11.0155    3.3867 H   0  0  0  0  0  0  0  0  0  0  0  0
    1.2522  -10.5580    2.4092 H   0  0  0  0  0  0  0  0  0  0  0  0
   -0.3284  -10.6288    1.7011 H   0  0  0  0  0  0  0  0  0  0  0  0
   -2.1480   -9.3915    3.4892 H   0  0  0  0  0  0  0  0  0  0  0  0
   -1.9312   -8.8743    1.8467 H   0  0  0  0  0  0  0  0  0  0  0  0
   -1.8956   -7.6780    3.1209 H   0  0  0  0  0  0  0  0  0  0  0  0
    1.7397   -6.7648    0.0936 H   0  0  0  0  0  0  0  0  0  0  0  0
    2.2555   -8.9816    0.8729 H   0  0  0  0  0  0  0  0  0  0  0  0
    3.3707  -10.5885    1.8508 H   0  0  0  0  0  0  0  0  0  0  0  0
    5.3029  -11.0187    1.9472 H   0  0  0  0  0  0  0  0  0  0  0  0
    2.9782  -11.9245    3.6078 H   0  0  0  0  0  0  0  0  0  0  0  0
    4.2567  -11.2272    4.5279 H   0  0  0  0  0  0  0  0  0  0  0  0
    1.4194  -10.8544    4.8976 H   0  0  0  0  0  0  0  0  0  0  0  0
    2.7444  -10.6153    5.9107 H   0  0  0  0  0  0  0  0  0  0  0  0
    3.1028   -8.6285    6.8846 H   0  0  0  0  0  0  0  0  0  0  0  0
    1.4875   -9.0750    7.0088 H   0  0  0  0  0  0  0  0  0  0  0  0
    1.8569   -7.3981    6.6649 H   0  0  0  0  0  0  0  0  0  0  0  0
    4.8643   -9.1099    5.1353 H   0  0  0  0  0  0  0  0  0  0  0  0
    5.7409   -8.5717    3.2727 H   0  0  0  0  0  0  0  0  0  0  0  0
  1  2  2  0
  1 35  1  0
  1 36  1  0
  2 33  1  0
  2  3  1  0
  3  9  1  0
  3  4  1  0
  3 37  1  6
  4  5  1  0
  4 38  1  0
  4 39  1  0
  5  6  1  0
  5 40  1  0
  5 41  1  0
  6  7  1  0
  6  8  2  0
  7 42  1  0
  7 43  1  0
  7 44  1  0
  8  9  1  0
  8 45  1  0
  9 10  1  0
  9 46  1  1
 10 11  1  0
 11 32  1  0
 11 12  1  6
 11 13  1  0
 12 47  1  0
 12 48  1  0
 12 49  1  0
 13 21  1  0
 13 14  1  0
 13 50  1  6
 14 15  1  0
 15 30  1  0
 15 16  1  1
 15 17  1  0
 16 51  1  0
 16 52  1  0
 16 53  1  0
 17 18  1  0
 17 19  1  0
 17 20  1  0
 18 54  1  0
 18 55  1  0
 18 56  1  0
 19 57  1  0
 19 58  1  0
 19 59  1  0
 20 21  1  0
 21 22  1  6
 21 23  1  0
 22 60  1  0
 23 25  1  0
 23 24  1  0
 23 61  1  6
 25 24  1  6
 25 32  1  0
 25 26  1  0
 26 27  1  0
 26 28  1  0
 26 62  1  6
 27 63  1  0
 28 29  1  0
 28 64  1  0
 28 65  1  0
 29 30  1  0
 29 66  1  0
 29 67  1  0
 30 31  1  1
 32 30  1  1
 31 68  1  0
 31 69  1  0
 31 70  1  0
 32 33  1  0
 33 34  1  0
 33 71  1  1
 34 72  1  0
M  END
>  <i_m_ct_stereo_status>  (322) 
1

>  <s_m_source_file>  (322) 
/var/tmp/pbs.5076255.sched01/tmpajq2dbrl/12675ddggds.sdf

>  <i_m_source_file_index>  (322) 
22

>  <i_lp_mmshare_version>  (322) 
48012

>  <i_f3d_flags>  (322) 
0

>  <s_epik_input>  (322) 
W0NIM11DKD1bQ0hdMSlbQ0gyXVtDSDJdW0NAQEhdKEMoPVtDSDJdKVtDQEBIXTJbT0hdKVtDQEBIXTFPW0NAQF0oW0NIM10pKFtDQEBdMjNbQ0BAXTQ1NilbQ0BIXTdbQ0BAXShbT0hdKShbQ0BIXTRPNSlPQyhbQ0gzXSkoW0NIM10pW0NAQF0oTzcpKFtDSDNdKVtDQEBdMyhbQ0gzXSlbQ0gyXVtDSDJdW0NAQEhdNltPSF0=

>  <s_epik_cmdline>  (322) 
J2VwaWtfcHl0aG9uJywgJy1waHQnLCAnMi4wJywgJy1waCcsICc3LjAnLCAnLXRuJywgJzgnLCAnLW1hJywgJzIwMCcsICctaW1hZScsICc8aW5maWxlLm1hZT4nLCAnLW9tYWUnLCAnPG91dGZpbGUubWFlPic=

>  <r_lp_tautomer_probability>  (322) 
1

>  <r_epik_Ionization_Penalty>  (322) 
2.97358e-05

>  <r_epik_Ionization_Penalty_Charging>  (322) 
0

>  <r_epik_Ionization_Penalty_Neutral>  (322) 
2.97358e-05

>  <r_epik_State_Penalty>  (322) 
-0

>  <r_epik_Charging_Adjusted_Penalty>  (322) 
0

>  <i_epik_Tot_Q>  (322) 
0

>  <i_epik_Tot_abs_Q>  (322) 
0

>  <s_lp_Force_Field>  (322) 
OPLS3e

>  <r_lp_Energy>  (322) 
107.644

>  <b_lp_Chiralities_Consistent>  (322) 
1

>  <s_lp_Variant>  (322) 
103:0-1

>  <s_i_glide_gridfile>  (322) 
pfpi4k_grid

>  <i_i_glide_lignum>  (322) 
22

>  <i_i_glide_rotatable_bonds>  (322) 
3

>  <r_i_docking_score>  (322) 
-2.797

>  <r_i_glide_ligand_efficiency>  (322) 
-0.0822646

>  <r_i_glide_ligand_efficiency_sa>  (322) 
-0.266505

>  <r_i_glide_ligand_efficiency_ln>  (322) 
-0.617935

>  <r_i_glide_gscore>  (322) 
-2.797

>  <r_i_glide_lipo>  (322) 
-0.213968

>  <r_i_glide_hbond>  (322) 
0

>  <r_i_glide_metal>  (322) 
-0

>  <r_i_glide_rewards>  (322) 
-0.673274

>  <r_i_glide_evdw>  (322) 
-25.7794

>  <r_i_glide_ecoul>  (322) 
-3.90162

>  <r_i_glide_erotb>  (322) 
0

>  <r_i_glide_esite>  (322) 
-0.0355419

>  <r_i_glide_emodel>  (322) 
-39.0485

>  <r_i_glide_energy>  (322) 
-29.681

>  <r_i_glide_einternal>  (322) 
1.88667

>  <r_i_glide_intrahb_reward>  (322) 
-0.5

>  <i_i_glide_confnum>  (322) 
2

>  <i_i_glide_posenum>  (322) 
1

>  <r_i_glide_eff_state_penalty>  (322) 
0

>  <ligand_id>  (322) 
103

>  <original_smiles>  (322) 
C=C1C2CCC(C)=CC2OC2(C)C3OC4(C)C(C)(C)OC3(O)C3OC35C(O)CCC4(C)C25C1O

>  <smiles>  (322) 
[H]OC1([H])C(=C([H])[H])C2([H])C([H])(OC3(C([H])([H])[H])C4([H])OC5(C([H])([H])[H])C(C([H])([H])[H])(C([H])([H])[H])OC4(O[H])C4([H])OC46C([H])(O[H])C([H])([H])C([H])([H])C5(C([H])([H])[H])C136)C([H])=C(C([H])([H])[H])C([H])([H])C2([H])[H]

$$$$
103:0:2
     RDKit          3D

 72 78  0  0  1  0  0  0  0  0999 V2000
    2.0943   -3.6126    7.5243 C   0  0  0  0  0  0  0  0  0  0  0  0
    2.5450   -4.0328    6.3220 C   0  0  0  0  0  0  0  0  0  0  0  0
    2.7189   -3.0810    5.1461 C   0  0  2  0  0  0  0  0  0  0  0  0
    2.7634   -1.5758    5.4920 C   0  0  0  0  0  0  0  0  0  0  0  0
    3.2640   -0.7660    4.2780 C   0  0  0  0  0  0  0  0  0  0  0  0
    2.6045   -1.1944    2.9737 C   0  0  0  0  0  0  0  0  0  0  0  0
    2.8376   -0.2860    1.7824 C   0  0  0  0  0  0  0  0  0  0  0  0
    1.8737   -2.3203    2.8877 C   0  0  0  0  0  0  0  0  0  0  0  0
    1.6606   -3.2915    4.0425 C   0  0  1  0  0  0  0  0  0  0  0  0
    1.4215   -4.6258    3.5798 O   0  0  0  0  0  0  0  0  0  0  0  0
    2.3781   -5.7015    3.5960 C   0  0  2  0  0  0  0  0  0  0  0  0
    3.6929   -5.1699    2.9357 C   0  0  0  0  0  0  0  0  0  0  0  0
    1.7428   -6.6905    2.5931 C   0  0  2  0  0  0  0  0  0  0  0  0
    0.3738   -6.8841    2.9665 O   0  0  0  0  0  0  0  0  0  0  0  0
    0.1849   -7.7398    4.0817 C   0  0  1  0  0  0  0  0  0  0  0  0
   -1.3691   -7.7193    4.2754 C   0  0  0  0  0  0  0  0  0  0  0  0
    0.5796   -9.1683    3.4553 C   0  0  0  0  0  0  0  0  0  0  0  0
    0.9104  -10.2994    4.4466 C   0  0  0  0  0  0  0  0  0  0  0  0
   -0.4906   -9.7656    2.5050 C   0  0  0  0  0  0  0  0  0  0  0  0
    1.5899   -9.0881    2.4476 O   0  0  0  0  0  0  0  0  0  0  0  0
    2.5166   -8.0640    2.4792 C   0  0  1  0  0  0  0  0  0  0  0  0
    3.2533   -8.1140    1.2811 O   0  0  0  0  0  0  0  0  0  0  0  0
    3.4508   -8.4446    3.6054 C   0  0  1  0  0  0  0  0  0  0  0  0
    4.4820   -7.5632    4.0581 O   0  0  0  0  0  0  0  0  0  0  0  0
    3.3335   -7.6900    4.8976 C   0  0  2  0  0  0  0  0  0  0  0  0
    3.5452   -8.5265    6.1562 C   0  0  1  0  0  0  0  0  0  0  0  0
    4.6729   -8.0932    6.8909 O   0  0  0  0  0  0  0  0  0  0  0  0
    2.3454   -8.5695    7.1144 C   0  0  0  0  0  0  0  0  0  0  0  0
    1.0041   -7.9777    6.6190 C   0  0  0  0  0  0  0  0  0  0  0  0
    0.9577   -7.0378    5.3570 C   0  0  2  0  0  0  0  0  0  0  0  0
    0.0289   -5.8836    5.8659 C   0  0  0  0  0  0  0  0  0  0  0  0
    2.4225   -6.4356    5.0096 C   0  0  2  0  0  0  0  0  0  0  0  0
    3.0410   -5.4783    6.1380 C   0  0  1  0  0  0  0  0  0  0  0  0
    4.4522   -5.4256    6.0522 O   0  0  0  0  0  0  0  0  0  0  0  0
    2.0378   -4.2904    8.3582 H   0  0  0  0  0  0  0  0  0  0  0  0
    1.7827   -2.6009    7.7025 H   0  0  0  0  0  0  0  0  0  0  0  0
    3.7110   -3.2777    4.7577 H   0  0  0  0  0  0  0  0  0  0  0  0
    1.7700   -1.2176    5.7713 H   0  0  0  0  0  0  0  0  0  0  0  0
    3.4184   -1.3848    6.3432 H   0  0  0  0  0  0  0  0  0  0  0  0
    3.1048    0.2988    4.4457 H   0  0  0  0  0  0  0  0  0  0  0  0
    4.3384   -0.9077    4.1631 H   0  0  0  0  0  0  0  0  0  0  0  0
    3.9031   -0.1871    1.5820 H   0  0  0  0  0  0  0  0  0  0  0  0
    2.4304    0.7100    1.9580 H   0  0  0  0  0  0  0  0  0  0  0  0
    2.3649   -0.6898    0.8877 H   0  0  0  0  0  0  0  0  0  0  0  0
    1.4123   -2.5780    1.9493 H   0  0  0  0  0  0  0  0  0  0  0  0
    0.6955   -2.9953    4.4541 H   0  0  0  0  0  0  0  0  0  0  0  0
    4.1976   -5.9188    2.3298 H   0  0  0  0  0  0  0  0  0  0  0  0
    4.4457   -4.8317    3.6411 H   0  0  0  0  0  0  0  0  0  0  0  0
    3.4865   -4.3525    2.2487 H   0  0  0  0  0  0  0  0  0  0  0  0
    1.7026   -6.2341    1.6003 H   0  0  0  0  0  0  0  0  0  0  0  0
   -1.6650   -8.3442    5.1182 H   0  0  0  0  0  0  0  0  0  0  0  0
   -1.9426   -8.0559    3.4166 H   0  0  0  0  0  0  0  0  0  0  0  0
   -1.7834   -6.7228    4.4052 H   0  0  0  0  0  0  0  0  0  0  0  0
    0.0917  -10.4697    5.1430 H   0  0  0  0  0  0  0  0  0  0  0  0
    1.8027  -10.1160    5.0252 H   0  0  0  0  0  0  0  0  0  0  0  0
    1.0772  -11.2465    3.9319 H   0  0  0  0  0  0  0  0  0  0  0  0
   -1.3792  -10.1090    3.0339 H   0  0  0  0  0  0  0  0  0  0  0  0
   -0.1067  -10.6438    1.9831 H   0  0  0  0  0  0  0  0  0  0  0  0
   -0.7960   -9.0529    1.7393 H   0  0  0  0  0  0  0  0  0  0  0  0
    3.7143   -8.9421    1.2606 H   0  0  0  0  0  0  0  0  0  0  0  0
    3.7568   -9.4887    3.6164 H   0  0  0  0  0  0  0  0  0  0  0  0
    3.7772   -9.5489    5.8529 H   0  0  0  0  0  0  0  0  0  0  0  0
    4.9096   -8.7777    7.5024 H   0  0  0  0  0  0  0  0  0  0  0  0
    2.1929   -9.5983    7.4553 H   0  0  0  0  0  0  0  0  0  0  0  0
    2.6164   -8.0319    8.0275 H   0  0  0  0  0  0  0  0  0  0  0  0
    0.2761   -8.7771    6.5225 H   0  0  0  0  0  0  0  0  0  0  0  0
    0.6372   -7.4423    7.4994 H   0  0  0  0  0  0  0  0  0  0  0  0
    0.4401   -5.3557    6.7138 H   0  0  0  0  0  0  0  0  0  0  0  0
   -0.9081   -6.2534    6.2821 H   0  0  0  0  0  0  0  0  0  0  0  0
   -0.2448   -5.1650    5.0987 H   0  0  0  0  0  0  0  0  0  0  0  0
    2.8675   -5.9584    7.0967 H   0  0  0  0  0  0  0  0  0  0  0  0
    4.7871   -6.3062    6.2034 H   0  0  0  0  0  0  0  0  0  0  0  0
  1  2  2  0
  1 35  1  0
  1 36  1  0
  2 33  1  0
  2  3  1  0
  3  9  1  0
  3  4  1  0
  3 37  1  6
  4  5  1  0
  4 38  1  0
  4 39  1  0
  5  6  1  0
  5 40  1  0
  5 41  1  0
  6  7  1  0
  6  8  2  0
  7 42  1  0
  7 43  1  0
  7 44  1  0
  8  9  1  0
  8 45  1  0
  9 10  1  0
  9 46  1  1
 10 11  1  0
 11 32  1  0
 11 12  1  6
 11 13  1  0
 12 47  1  0
 12 48  1  0
 12 49  1  0
 13 21  1  0
 13 14  1  0
 13 50  1  6
 14 15  1  0
 15 30  1  0
 15 16  1  1
 15 17  1  0
 16 51  1  0
 16 52  1  0
 16 53  1  0
 17 18  1  0
 17 19  1  0
 17 20  1  0
 18 54  1  0
 18 55  1  0
 18 56  1  0
 19 57  1  0
 19 58  1  0
 19 59  1  0
 20 21  1  0
 21 22  1  6
 21 23  1  0
 22 60  1  0
 23 25  1  0
 23 24  1  0
 23 61  1  1
 25 24  1  6
 25 32  1  0
 25 26  1  0
 26 27  1  0
 26 28  1  0
 26 62  1  6
 27 63  1  0
 28 29  1  0
 28 64  1  0
 28 65  1  0
 29 30  1  0
 29 66  1  0
 29 67  1  0
 30 31  1  1
 32 30  1  1
 31 68  1  0
 31 69  1  0
 31 70  1  0
 32 33  1  0
 33 34  1  0
 33 71  1  1
 34 72  1  0
M  END
>  <i_m_ct_stereo_status>  (323) 
1

>  <s_m_source_file>  (323) 
/var/tmp/pbs.5076255.sched01/tmpajq2dbrl/12675ddggds.sdf

>  <i_m_source_file_index>  (323) 
22

>  <i_lp_mmshare_version>  (323) 
48012

>  <i_f3d_flags>  (323) 
0

>  <s_epik_input>  (323) 
W0NIM11DKD1bQ0hdMSlbQ0gyXVtDSDJdW0NAQEhdKEMoPVtDSDJdKVtDQEBIXTJbT0hdKVtDQEBIXTFPW0NAQF0oW0NIM10pKFtDQEBdMjNbQ0BAXTQ1NilbQ0BIXTdbQ0BAXShbT0hdKShbQ0BIXTRPNSlPQyhbQ0gzXSkoW0NIM10pW0NAQF0oTzcpKFtDSDNdKVtDQEBdMyhbQ0gzXSlbQ0gyXVtDSDJdW0NAQEhdNltPSF0=

>  <s_epik_cmdline>  (323) 
J2VwaWtfcHl0aG9uJywgJy1waHQnLCAnMi4wJywgJy1waCcsICc3LjAnLCAnLXRuJywgJzgnLCAnLW1hJywgJzIwMCcsICctaW1hZScsICc8aW5maWxlLm1hZT4nLCAnLW9tYWUnLCAnPG91dGZpbGUubWFlPic=

>  <r_lp_tautomer_probability>  (323) 
1

>  <r_epik_Ionization_Penalty>  (323) 
2.97358e-05

>  <r_epik_Ionization_Penalty_Charging>  (323) 
0

>  <r_epik_Ionization_Penalty_Neutral>  (323) 
2.97358e-05

>  <r_epik_State_Penalty>  (323) 
-0

>  <r_epik_Charging_Adjusted_Penalty>  (323) 
0

>  <i_epik_Tot_Q>  (323) 
0

>  <i_epik_Tot_abs_Q>  (323) 
0

>  <s_lp_Force_Field>  (323) 
OPLS3e

>  <r_lp_Energy>  (323) 
107.644

>  <b_lp_Chiralities_Consistent>  (323) 
1

>  <s_lp_Variant>  (323) 
103:0-1

>  <s_i_glide_gridfile>  (323) 
pfpi4k_grid

>  <i_i_glide_lignum>  (323) 
22

>  <i_i_glide_rotatable_bonds>  (323) 
3

>  <r_i_docking_score>  (323) 
-2.28845

>  <r_i_glide_ligand_efficiency>  (323) 
-0.0673073

>  <r_i_glide_ligand_efficiency_sa>  (323) 
-0.21805

>  <r_i_glide_ligand_efficiency_ln>  (323) 
-0.505583

>  <r_i_glide_gscore>  (323) 
-2.28845

>  <r_i_glide_lipo>  (323) 
-0.0838656

>  <r_i_glide_hbond>  (323) 
0

>  <r_i_glide_metal>  (323) 
-0

>  <r_i_glide_rewards>  (323) 
-0.673274

>  <r_i_glide_evdw>  (323) 
-25.8079

>  <r_i_glide_ecoul>  (323) 
-1.54499

>  <r_i_glide_erotb>  (323) 
0

>  <r_i_glide_esite>  (323) 
-0.00916629

>  <r_i_glide_emodel>  (323) 
-36.6908

>  <r_i_glide_energy>  (323) 
-27.3529

>  <r_i_glide_einternal>  (323) 
0.900238

>  <r_i_glide_intrahb_reward>  (323) 
-0.5

>  <i_i_glide_confnum>  (323) 
2

>  <i_i_glide_posenum>  (323) 
7

>  <r_i_glide_eff_state_penalty>  (323) 
0

>  <ligand_id>  (323) 
103

>  <original_smiles>  (323) 
C=C1C2CCC(C)=CC2OC2(C)C3OC4(C)C(C)(C)OC3(O)C3OC35C(O)CCC4(C)C25C1O

>  <smiles>  (323) 
[H]OC1([H])C(=C([H])[H])C2([H])C([H])(OC3(C([H])([H])[H])C4([H])OC5(C([H])([H])[H])C(C([H])([H])[H])(C([H])([H])[H])OC4(O[H])C4([H])OC46C([H])(O[H])C([H])([H])C([H])([H])C5(C([H])([H])[H])C136)C([H])=C(C([H])([H])[H])C([H])([H])C2([H])[H]

$$$$
105:0:0
     RDKit          3D

 63 66  0  0  1  0  0  0  0  0999 V2000
    0.7305   -0.4821    3.6131 C   0  0  0  0  0  0  0  0  0  0  0  0
    1.5424   -1.5298    3.3869 C   0  0  0  0  0  0  0  0  0  0  0  0
    2.9194   -1.4510    2.7107 C   0  0  2  0  0  0  0  0  0  0  0  0
    3.0563   -2.0976    1.3041 C   0  0  2  0  0  0  0  0  0  0  0  0
    2.9267   -3.5648    1.7484 C   0  0  1  0  0  0  0  0  0  0  0  0
    2.7919   -4.5554    0.7402 O   0  0  0  0  0  0  0  0  0  0  0  0
    2.5140   -5.8620    1.2248 C   0  0  0  0  0  0  0  0  0  0  0  0
    4.1623   -3.6305    2.6537 C   0  0  1  0  0  0  0  0  0  0  0  0
    5.4173   -3.9164    1.7476 C   0  0  1  0  0  0  0  0  0  0  0  0
    5.8095   -5.4146    1.6181 C   0  0  0  0  0  0  0  0  0  0  0  0
    5.3903   -3.0550    0.4132 C   0  0  1  0  0  0  0  0  0  0  0  0
    6.7392   -2.6817    0.1704 O   0  0  0  0  0  0  0  0  0  0  0  0
    4.9748   -3.7783   -0.9064 C   0  0  0  0  0  0  0  0  0  0  0  0
    5.0199   -5.0090   -1.0411 O   0  0  0  0  0  0  0  0  0  0  0  0
    4.5927   -2.9187   -2.1285 C   0  0  0  0  0  0  0  0  0  0  0  0
    4.5850   -3.4319   -3.2582 O   0  0  0  0  0  0  0  0  0  0  0  0
    4.3040   -1.4894   -1.8916 C   0  0  0  0  0  0  0  0  0  0  0  0
    4.0400   -0.6519   -3.1247 C   0  0  0  0  0  0  0  0  0  0  0  0
    4.2864   -0.9911   -0.6315 C   0  0  0  0  0  0  0  0  0  0  0  0
    4.4991   -1.7632    0.6629 C   0  0  1  0  0  0  0  0  0  0  0  0
    5.2913   -0.8034    1.6169 C   0  0  0  0  0  0  0  0  0  0  0  0
    5.3137   -1.2734    3.0964 C   0  0  1  0  0  0  0  0  0  0  0  0
    5.5282   -0.0422    4.0084 C   0  0  0  0  0  0  0  0  0  0  0  0
    4.0967   -2.2102    3.4094 C   0  0  1  0  0  0  0  0  0  0  0  0
    3.8951   -2.4238    4.9403 C   0  0  0  0  0  0  0  0  0  0  0  0
    5.0845   -3.0782    5.6413 C   0  0  0  0  0  0  0  0  0  0  0  0
    5.7815   -2.6259    6.7074 C   0  0  0  0  0  0  0  0  0  0  0  0
    5.5062   -1.3307    7.4560 C   0  0  0  0  0  0  0  0  0  0  0  0
    6.9539   -3.4073    7.2678 C   0  0  0  0  0  0  0  0  0  0  0  0
    1.0014    0.5171    3.3175 H   0  0  0  0  0  0  0  0  0  0  0  0
   -0.2171   -0.6312    4.0972 H   0  0  0  0  0  0  0  0  0  0  0  0
    1.1931   -2.4916    3.7261 H   0  0  0  0  0  0  0  0  0  0  0  0
    3.0814   -0.3727    2.6575 H   0  0  0  0  0  0  0  0  0  0  0  0
    2.2313   -1.8075    0.6602 H   0  0  0  0  0  0  0  0  0  0  0  0
    2.0209   -3.7155    2.3262 H   0  0  0  0  0  0  0  0  0  0  0  0
    2.5840   -6.5555    0.3922 H   0  0  0  0  0  0  0  0  0  0  0  0
    1.5021   -5.9267    1.6340 H   0  0  0  0  0  0  0  0  0  0  0  0
    3.2667   -6.1788    1.9511 H   0  0  0  0  0  0  0  0  0  0  0  0
    4.0418   -4.4430    3.3706 H   0  0  0  0  0  0  0  0  0  0  0  0
    6.2842   -3.5925    2.3159 H   0  0  0  0  0  0  0  0  0  0  0  0
    5.0444   -6.0308    1.1437 H   0  0  0  0  0  0  0  0  0  0  0  0
    5.9793   -5.8524    2.5999 H   0  0  0  0  0  0  0  0  0  0  0  0
    6.7573   -5.5023    1.0720 H   0  0  0  0  0  0  0  0  0  0  0  0
    7.0719   -2.2867    0.9596 H   0  0  0  0  0  0  0  0  0  0  0  0
    4.8831   -0.6878   -3.8184 H   0  0  0  0  0  0  0  0  0  0  0  0
    3.8429    0.3901   -2.8783 H   0  0  0  0  0  0  0  0  0  0  0  0
    3.1668   -1.0392   -3.6583 H   0  0  0  0  0  0  0  0  0  0  0  0
    4.1364    0.0587   -0.4859 H   0  0  0  0  0  0  0  0  0  0  0  0
    6.3088   -0.6004    1.2721 H   0  0  0  0  0  0  0  0  0  0  0  0
    4.8347    0.1846    1.5781 H   0  0  0  0  0  0  0  0  0  0  0  0
    6.1949   -1.8664    3.2581 H   0  0  0  0  0  0  0  0  0  0  0  0
    4.6851    0.6388    4.0006 H   0  0  0  0  0  0  0  0  0  0  0  0
    6.4117    0.5138    3.6891 H   0  0  0  0  0  0  0  0  0  0  0  0
    5.7219   -0.3332    5.0319 H   0  0  0  0  0  0  0  0  0  0  0  0
    3.6089   -1.4867    5.4137 H   0  0  0  0  0  0  0  0  0  0  0  0
    3.0492   -3.0896    5.1005 H   0  0  0  0  0  0  0  0  0  0  0  0
    5.3891   -4.0213    5.2124 H   0  0  0  0  0  0  0  0  0  0  0  0
    5.4083   -1.5246    8.5248 H   0  0  0  0  0  0  0  0  0  0  0  0
    4.6010   -0.8208    7.1371 H   0  0  0  0  0  0  0  0  0  0  0  0
    6.3423   -0.6459    7.3199 H   0  0  0  0  0  0  0  0  0  0  0  0
    6.7737   -3.6665    8.3130 H   0  0  0  0  0  0  0  0  0  0  0  0
    7.8592   -2.8039    7.2270 H   0  0  0  0  0  0  0  0  0  0  0  0
    7.1326   -4.3312    6.7160 H   0  0  0  0  0  0  0  0  0  0  0  0
  1  2  2  0
  1 30  1  0
  1 31  1  0
  2  3  1  0
  2 32  1  0
  3 24  1  0
  3  4  1  0
  3 33  1  6
  4 20  1  0
  4  5  1  0
  4 34  1  6
  5  6  1  0
  5  8  1  0
  5 35  1  1
  6  7  1  0
  7 36  1  0
  7 37  1  0
  7 38  1  0
  8 24  1  0
  8  9  1  0
  8 39  1  1
  9 10  1  0
  9 11  1  0
  9 40  1  1
 10 41  1  0
 10 42  1  0
 10 43  1  0
 11 20  1  0
 11 12  1  6
 11 13  1  0
 12 44  1  0
 13 14  2  0
 13 15  1  0
 15 16  2  0
 15 17  1  0
 17 18  1  0
 17 19  2  0
 18 45  1  0
 18 46  1  0
 18 47  1  0
 19 20  1  0
 19 48  1  0
 20 21  1  1
 21 22  1  0
 21 49  1  0
 21 50  1  0
 22 23  1  0
 22 24  1  0
 22 51  1  6
 23 52  1  0
 23 53  1  0
 23 54  1  0
 24 25  1  1
 25 26  1  0
 25 55  1  0
 25 56  1  0
 26 27  2  3
 26 57  1  0
 27 28  1  0
 27 29  1  0
 28 58  1  0
 28 59  1  0
 28 60  1  0
 29 61  1  0
 29 62  1  0
 29 63  1  0
M  END
>  <i_m_ct_stereo_status>  (324) 
1

>  <s_m_source_file>  (324) 
/var/tmp/pbs.5076255.sched01/tmpajq2dbrl/12675ddggds.sdf

>  <i_m_source_file_index>  (324) 
24

>  <i_lp_mmshare_version>  (324) 
48012

>  <i_f3d_flags>  (324) 
0

>  <s_epik_input>  (324) 
W0NIM11DKFtDSDNdKT1bQ0hdW0NIMl1bQ0BdKFtDQEBIXShbQ0gyXTEpW0NIM10pKFtDQEBIXShbQ0BIXTJbQ0BAXTEzNClbQ0hdPVtDSDJdKVtDQEBIXShbQ0BASF0yT1tDSDNdKVtDQEBIXShbQ0gzXSlbQ0BAXTMoW09IXSlDKD1PKUMoPU8pQyhbQ0gzXSk9W0NIXTQ=

>  <s_epik_cmdline>  (324) 
J2VwaWtfcHl0aG9uJywgJy1waHQnLCAnMi4wJywgJy1waCcsICc3LjAnLCAnLXRuJywgJzgnLCAnLW1hJywgJzIwMCcsICctaW1hZScsICc8aW5maWxlLm1hZT4nLCAnLW9tYWUnLCAnPG91dGZpbGUubWFlPic=

>  <r_lp_tautomer_probability>  (324) 
1

>  <r_epik_Ionization_Penalty>  (324) 
6.28133e-05

>  <r_epik_Ionization_Penalty_Charging>  (324) 
0

>  <r_epik_Ionization_Penalty_Neutral>  (324) 
6.28133e-05

>  <r_epik_State_Penalty>  (324) 
-0

>  <r_epik_Charging_Adjusted_Penalty>  (324) 
0

>  <i_epik_Tot_Q>  (324) 
0

>  <i_epik_Tot_abs_Q>  (324) 
0

>  <s_lp_Force_Field>  (324) 
OPLS3e

>  <r_lp_Energy>  (324) 
81.4239

>  <b_lp_Chiralities_Consistent>  (324) 
1

>  <s_lp_Variant>  (324) 
105:0-1

>  <s_i_glide_gridfile>  (324) 
pfpi4k_grid

>  <i_i_glide_lignum>  (324) 
24

>  <i_i_glide_rotatable_bonds>  (324) 
5

>  <r_i_docking_score>  (324) 
-2.26724

>  <r_i_glide_ligand_efficiency>  (324) 
-0.0781806

>  <r_i_glide_ligand_efficiency_sa>  (324) 
-0.240195

>  <r_i_glide_ligand_efficiency_ln>  (324) 
-0.51914

>  <r_i_glide_gscore>  (324) 
-2.26724

>  <r_i_glide_lipo>  (324) 
-0.691158

>  <r_i_glide_hbond>  (324) 
0

>  <r_i_glide_metal>  (324) 
-0

>  <r_i_glide_rewards>  (324) 
-0.770771

>  <r_i_glide_evdw>  (324) 
-23.8254

>  <r_i_glide_ecoul>  (324) 
0.106856

>  <r_i_glide_erotb>  (324) 
0.369935

>  <r_i_glide_esite>  (324) 
0

>  <r_i_glide_emodel>  (324) 
-25.501

>  <r_i_glide_energy>  (324) 
-23.7185

>  <r_i_glide_einternal>  (324) 
0.66726

>  <r_i_glide_intrahb_reward>  (324) 
-0

>  <i_i_glide_confnum>  (324) 
5

>  <i_i_glide_posenum>  (324) 
32

>  <r_i_glide_eff_state_penalty>  (324) 
0

>  <ligand_id>  (324) 
105

>  <original_smiles>  (324) 
C=CC1C2C(OC)C3C(C)C4(O)C(=O)C(=O)C(C)=CC24CC(C)C13CC=C(C)C

>  <smiles>  (324) 
[H]OC12C(=O)C(=O)C(C([H])([H])[H])=C([H])C13C([H])([H])C([H])(C([H])([H])[H])C1(C([H])([H])C([H])=C(C([H])([H])[H])C([H])([H])[H])C([H])(C([H])=C([H])[H])C3([H])C([H])(OC([H])([H])[H])C1([H])C2([H])C([H])([H])[H]

$$$$
105:0:1
     RDKit          3D

 63 66  0  0  1  0  0  0  0  0999 V2000
    0.9273   -0.0282    3.5749 C   0  0  0  0  0  0  0  0  0  0  0  0
    1.6648   -1.1194    3.3106 C   0  0  0  0  0  0  0  0  0  0  0  0
    3.0669   -1.1195    2.6732 C   0  0  2  0  0  0  0  0  0  0  0  0
    3.2024   -1.8115    1.2908 C   0  0  2  0  0  0  0  0  0  0  0  0
    3.0166   -3.2731    1.7597 C   0  0  1  0  0  0  0  0  0  0  0  0
    2.8845   -4.2981    0.7830 O   0  0  0  0  0  0  0  0  0  0  0  0
    2.2659   -3.9033   -0.4178 C   0  0  0  0  0  0  0  0  0  0  0  0
    4.2377   -3.3502    2.6764 C   0  0  1  0  0  0  0  0  0  0  0  0
    5.4794   -3.7097    1.7874 C   0  0  1  0  0  0  0  0  0  0  0  0
    5.7513   -5.2340    1.7192 C   0  0  0  0  0  0  0  0  0  0  0  0
    5.5205   -2.9002    0.4290 C   0  0  1  0  0  0  0  0  0  0  0  0
    6.8974   -2.5982    0.2204 O   0  0  0  0  0  0  0  0  0  0  0  0
    5.1375   -3.6528   -0.8896 C   0  0  0  0  0  0  0  0  0  0  0  0
    5.1301   -4.8724   -0.9966 O   0  0  0  0  0  0  0  0  0  0  0  0
    4.7665   -2.8153   -2.1574 C   0  0  0  0  0  0  0  0  0  0  0  0
    4.7130   -3.3662   -3.2607 O   0  0  0  0  0  0  0  0  0  0  0  0
    4.4999   -1.3793   -1.9445 C   0  0  0  0  0  0  0  0  0  0  0  0
    4.1913   -0.5761   -3.2008 C   0  0  0  0  0  0  0  0  0  0  0  0
    4.5166   -0.8514   -0.7132 C   0  0  0  0  0  0  0  0  0  0  0  0
    4.6742   -1.5698    0.6325 C   0  0  1  0  0  0  0  0  0  0  0  0
    5.4732   -0.6089    1.5591 C   0  0  0  0  0  0  0  0  0  0  0  0
    5.4646   -1.0302    3.0548 C   0  0  1  0  0  0  0  0  0  0  0  0
    5.7393    0.2047    3.9484 C   0  0  0  0  0  0  0  0  0  0  0  0
    4.2046   -1.9100    3.4046 C   0  0  1  0  0  0  0  0  0  0  0  0
    4.0380   -2.0787    4.9558 C   0  0  0  0  0  0  0  0  0  0  0  0
    2.9829   -3.1051    5.3931 C   0  0  0  0  0  0  0  0  0  0  0  0
    3.1397   -4.2277    6.1229 C   0  0  0  0  0  0  0  0  0  0  0  0
    4.4477   -4.7140    6.7357 C   0  0  0  0  0  0  0  0  0  0  0  0
    1.9560   -5.1380    6.3901 C   0  0  0  0  0  0  0  0  0  0  0  0
    1.2431    0.9811    3.3309 H   0  0  0  0  0  0  0  0  0  0  0  0
   -0.0329   -0.1421    4.0613 H   0  0  0  0  0  0  0  0  0  0  0  0
    1.2246   -2.0607    3.5885 H   0  0  0  0  0  0  0  0  0  0  0  0
    3.2826   -0.0507    2.6063 H   0  0  0  0  0  0  0  0  0  0  0  0
    2.3870   -1.4639    0.6567 H   0  0  0  0  0  0  0  0  0  0  0  0
    2.1127   -3.3991    2.3520 H   0  0  0  0  0  0  0  0  0  0  0  0
    2.1686   -4.7391   -1.0962 H   0  0  0  0  0  0  0  0  0  0  0  0
    2.7958   -3.1299   -0.9076 H   0  0  0  0  0  0  0  0  0  0  0  0
    1.3450   -3.4108   -0.2981 H   0  0  0  0  0  0  0  0  0  0  0  0
    4.1034   -4.1650    3.3793 H   0  0  0  0  0  0  0  0  0  0  0  0
    6.3510   -3.4241    2.3512 H   0  0  0  0  0  0  0  0  0  0  0  0
    4.9085   -5.8040    1.3241 H   0  0  0  0  0  0  0  0  0  0  0  0
    5.9640   -5.6398    2.7089 H   0  0  0  0  0  0  0  0  0  0  0  0
    6.6239   -5.4541    1.0987 H   0  0  0  0  0  0  0  0  0  0  0  0
    7.3584   -3.4195    0.1318 H   0  0  0  0  0  0  0  0  0  0  0  0
    5.0074   -0.6454   -3.9132 H   0  0  0  0  0  0  0  0  0  0  0  0
    4.0106    0.4730   -2.9705 H   0  0  0  0  0  0  0  0  0  0  0  0
    3.2959   -0.9620   -3.6772 H   0  0  0  0  0  0  0  0  0  0  0  0
    4.2739    0.1829   -0.6114 H   0  0  0  0  0  0  0  0  0  0  0  0
    6.4888   -0.4478    1.2064 H   0  0  0  0  0  0  0  0  0  0  0  0
    5.0299    0.3823    1.4726 H   0  0  0  0  0  0  0  0  0  0  0  0
    6.3209   -1.6430    3.2227 H   0  0  0  0  0  0  0  0  0  0  0  0
    4.9291    0.9330    3.9171 H   0  0  0  0  0  0  0  0  0  0  0  0
    6.6402    0.7233    3.6241 H   0  0  0  0  0  0  0  0  0  0  0  0
    5.9247   -0.0578    4.9898 H   0  0  0  0  0  0  0  0  0  0  0  0
    5.0142   -2.3128    5.3826 H   0  0  0  0  0  0  0  0  0  0  0  0
    3.7561   -1.1210    5.3959 H   0  0  0  0  0  0  0  0  0  0  0  0
    1.9825   -2.9086    5.0734 H   0  0  0  0  0  0  0  0  0  0  0  0
    4.2991   -4.8871    7.8092 H   0  0  0  0  0  0  0  0  0  0  0  0
    5.2657   -3.9983    6.6297 H   0  0  0  0  0  0  0  0  0  0  0  0
    4.7536   -5.6580    6.2675 H   0  0  0  0  0  0  0  0  0  0  0  0
    1.7609   -5.2131    7.4591 H   0  0  0  0  0  0  0  0  0  0  0  0
    2.1418   -6.1382    5.9980 H   0  0  0  0  0  0  0  0  0  0  0  0
    1.0487   -4.7690    5.9133 H   0  0  0  0  0  0  0  0  0  0  0  0
  1  2  2  0
  1 30  1  0
  1 31  1  0
  2  3  1  0
  2 32  1  0
  3 24  1  0
  3  4  1  0
  3 33  1  6
  4 20  1  0
  4  5  1  0
  4 34  1  6
  5  6  1  0
  5  8  1  0
  5 35  1  1
  6  7  1  0
  7 36  1  0
  7 37  1  0
  7 38  1  0
  8 24  1  0
  8  9  1  0
  8 39  1  1
  9 10  1  0
  9 11  1  0
  9 40  1  1
 10 41  1  0
 10 42  1  0
 10 43  1  0
 11 20  1  0
 11 12  1  6
 11 13  1  0
 12 44  1  0
 13 14  2  0
 13 15  1  0
 15 16  2  0
 15 17  1  0
 17 18  1  0
 17 19  2  0
 18 45  1  0
 18 46  1  0
 18 47  1  0
 19 20  1  0
 19 48  1  0
 20 21  1  1
 21 22  1  0
 21 49  1  0
 21 50  1  0
 22 23  1  0
 22 24  1  0
 22 51  1  6
 23 52  1  0
 23 53  1  0
 23 54  1  0
 24 25  1  1
 25 26  1  0
 25 55  1  0
 25 56  1  0
 26 27  2  3
 26 57  1  0
 27 28  1  0
 27 29  1  0
 28 58  1  0
 28 59  1  0
 28 60  1  0
 29 61  1  0
 29 62  1  0
 29 63  1  0
M  END
>  <i_m_ct_stereo_status>  (325) 
1

>  <s_m_source_file>  (325) 
/var/tmp/pbs.5076255.sched01/tmpajq2dbrl/12675ddggds.sdf

>  <i_m_source_file_index>  (325) 
24

>  <i_lp_mmshare_version>  (325) 
48012

>  <i_f3d_flags>  (325) 
0

>  <s_epik_input>  (325) 
W0NIM11DKFtDSDNdKT1bQ0hdW0NIMl1bQ0BdKFtDQEBIXShbQ0gyXTEpW0NIM10pKFtDQEBIXShbQ0BIXTJbQ0BAXTEzNClbQ0hdPVtDSDJdKVtDQEBIXShbQ0BASF0yT1tDSDNdKVtDQEBIXShbQ0gzXSlbQ0BAXTMoW09IXSlDKD1PKUMoPU8pQyhbQ0gzXSk9W0NIXTQ=

>  <s_epik_cmdline>  (325) 
J2VwaWtfcHl0aG9uJywgJy1waHQnLCAnMi4wJywgJy1waCcsICc3LjAnLCAnLXRuJywgJzgnLCAnLW1hJywgJzIwMCcsICctaW1hZScsICc8aW5maWxlLm1hZT4nLCAnLW9tYWUnLCAnPG91dGZpbGUubWFlPic=

>  <r_lp_tautomer_probability>  (325) 
1

>  <r_epik_Ionization_Penalty>  (325) 
6.28133e-05

>  <r_epik_Ionization_Penalty_Charging>  (325) 
0

>  <r_epik_Ionization_Penalty_Neutral>  (325) 
6.28133e-05

>  <r_epik_State_Penalty>  (325) 
-0

>  <r_epik_Charging_Adjusted_Penalty>  (325) 
0

>  <i_epik_Tot_Q>  (325) 
0

>  <i_epik_Tot_abs_Q>  (325) 
0

>  <s_lp_Force_Field>  (325) 
OPLS3e

>  <r_lp_Energy>  (325) 
81.4239

>  <b_lp_Chiralities_Consistent>  (325) 
1

>  <s_lp_Variant>  (325) 
105:0-1

>  <s_i_glide_gridfile>  (325) 
pfpi4k_grid

>  <i_i_glide_lignum>  (325) 
24

>  <i_i_glide_rotatable_bonds>  (325) 
5

>  <r_i_docking_score>  (325) 
-2.13088

>  <r_i_glide_ligand_efficiency>  (325) 
-0.0734785

>  <r_i_glide_ligand_efficiency_sa>  (325) 
-0.225749

>  <r_i_glide_ligand_efficiency_ln>  (325) 
-0.487917

>  <r_i_glide_gscore>  (325) 
-2.13088

>  <r_i_glide_lipo>  (325) 
-0.654804

>  <r_i_glide_hbond>  (325) 
0

>  <r_i_glide_metal>  (325) 
-0

>  <r_i_glide_rewards>  (325) 
-0.839366

>  <r_i_glide_evdw>  (325) 
-17.0758

>  <r_i_glide_ecoul>  (325) 
-1.019

>  <r_i_glide_erotb>  (325) 
0.369935

>  <r_i_glide_esite>  (325) 
0

>  <r_i_glide_emodel>  (325) 
-14.8513

>  <r_i_glide_energy>  (325) 
-18.0948

>  <r_i_glide_einternal>  (325) 
6.80998

>  <r_i_glide_intrahb_reward>  (325) 
-0

>  <i_i_glide_confnum>  (325) 
5

>  <i_i_glide_posenum>  (325) 
6

>  <r_i_glide_eff_state_penalty>  (325) 
0

>  <ligand_id>  (325) 
105

>  <original_smiles>  (325) 
C=CC1C2C(OC)C3C(C)C4(O)C(=O)C(=O)C(C)=CC24CC(C)C13CC=C(C)C

>  <smiles>  (325) 
[H]OC12C(=O)C(=O)C(C([H])([H])[H])=C([H])C13C([H])([H])C([H])(C([H])([H])[H])C1(C([H])([H])C([H])=C(C([H])([H])[H])C([H])([H])[H])C([H])(C([H])=C([H])[H])C3([H])C([H])(OC([H])([H])[H])C1([H])C2([H])C([H])([H])[H]

$$$$
106:0:0
     RDKit          3D

 75 81  0  0  1  0  0  0  0  0999 V2000
   -0.0010    1.3572    9.1429 C   0  0  0  0  0  0  0  0  0  0  0  0
    0.7000    1.1256    8.0139 C   0  0  0  0  0  0  0  0  0  0  0  0
    0.7318   -0.3083    7.5417 C   0  0  0  0  0  0  0  0  0  0  0  0
    0.1312   -1.1593    8.1776 O   0  0  0  0  0  0  0  0  0  0  0  0
    1.2989   -0.7269    6.1419 C   0  0  2  0  0  0  0  0  0  0  0  0
    2.8292   -0.3242    5.9949 C   0  0  1  0  0  0  0  0  0  0  0  0
    3.4753    0.5467    7.1196 C   0  0  0  0  0  0  0  0  0  0  0  0
    3.0304    2.0049    7.2854 C   0  0  0  0  0  0  0  0  0  0  0  0
    1.5181    2.2586    7.3542 C   0  0  1  0  0  0  0  0  0  0  0  0
    0.7801    3.1829    6.2880 C   0  0  2  0  0  0  0  0  0  0  0  0
    0.0560    4.2543    7.1745 C   0  0  0  0  0  0  0  0  0  0  0  0
   -0.2866    2.4257    5.4975 C   0  0  1  0  0  0  0  0  0  0  0  0
   -1.1169    3.2889    4.7169 O   0  0  0  0  0  0  0  0  0  0  0  0
   -0.6792    4.3858    4.0461 C   0  0  0  0  0  0  0  0  0  0  0  0
   -1.4147    4.9959    3.2670 O   0  0  0  0  0  0  0  0  0  0  0  0
    0.6936    4.8466    4.4020 C   0  0  0  0  0  0  0  0  0  0  0  0
    1.0932    6.0937    4.0669 C   0  0  0  0  0  0  0  0  0  0  0  0
    1.6123    3.8938    5.1595 C   0  0  2  0  0  0  0  0  0  0  0  0
    2.2279    2.9798    4.0474 C   0  0  1  0  0  0  0  0  0  0  0  0
    3.5315    2.5316    4.3472 O   0  0  0  0  0  0  0  0  0  0  0  0
    1.3037    1.8305    3.5426 C   0  0  1  0  0  0  0  0  0  0  0  0
    2.0268    0.8258    2.8427 O   0  0  0  0  0  0  0  0  0  0  0  0
    1.4976    0.4051    1.6007 C   0  0  0  0  0  0  0  0  0  0  0  0
    0.2058    1.3071    4.5432 C   0  0  1  0  0  0  0  0  0  0  0  0
    0.1728   -0.1717    5.0926 C   0  0  1  0  0  0  0  0  0  0  0  0
    0.1902   -0.9561    3.9359 O   0  0  0  0  0  0  0  0  0  0  0  0
   -1.3223   -0.5804    5.4146 C   0  0  0  0  0  0  0  0  0  0  0  0
   -2.0498    0.1386    6.4062 O   0  0  0  0  0  0  0  0  0  0  0  0
    3.8929   -1.5305    5.7024 C   0  0  2  0  0  0  0  0  0  0  0  0
    3.7574   -2.3944    7.0374 C   0  0  0  0  0  0  0  0  0  0  0  0
    2.2704   -2.8840    7.2166 C   0  0  0  0  0  0  0  0  0  0  0  0
    1.4357   -2.3133    5.9965 C   0  0  2  0  0  0  0  0  0  0  0  0
    2.1966   -2.7918    4.6510 C   0  0  2  0  0  0  0  0  0  0  0  0
    1.5525   -3.9821    3.9181 C   0  0  0  0  0  0  0  0  0  0  0  0
    3.5952   -3.0172    5.0576 C   0  0  0  0  0  0  0  0  0  0  0  0
    2.6430   -1.7993    3.7236 O   0  0  0  0  0  0  0  0  0  0  0  0
    3.9448   -1.3489    4.1449 C   0  0  0  0  0  0  0  0  0  0  0  0
   -0.0392    2.3418    9.5937 H   0  0  0  0  0  0  0  0  0  0  0  0
   -0.5558    0.5882    9.6560 H   0  0  0  0  0  0  0  0  0  0  0  0
    2.7960    0.3819    5.1903 H   0  0  0  0  0  0  0  0  0  0  0  0
    3.3473    0.1048    8.1071 H   0  0  0  0  0  0  0  0  0  0  0  0
    4.5580    0.5845    6.9522 H   0  0  0  0  0  0  0  0  0  0  0  0
    3.4590    2.2969    8.2554 H   0  0  0  0  0  0  0  0  0  0  0  0
    3.5529    2.6993    6.6359 H   0  0  0  0  0  0  0  0  0  0  0  0
    1.5943    2.9338    8.2062 H   0  0  0  0  0  0  0  0  0  0  0  0
   -0.6148    4.9193    6.6363 H   0  0  0  0  0  0  0  0  0  0  0  0
    0.7587    4.8981    7.7012 H   0  0  0  0  0  0  0  0  0  0  0  0
   -0.5808    3.7779    7.9208 H   0  0  0  0  0  0  0  0  0  0  0  0
   -0.9665    2.0759    6.2608 H   0  0  0  0  0  0  0  0  0  0  0  0
    0.4219    6.7572    3.5348 H   0  0  0  0  0  0  0  0  0  0  0  0
    2.0770    6.4474    4.3135 H   0  0  0  0  0  0  0  0  0  0  0  0
    2.3977    4.4949    5.6175 H   0  0  0  0  0  0  0  0  0  0  0  0
    2.4354    3.6304    3.1874 H   0  0  0  0  0  0  0  0  0  0  0  0
    4.0148    2.4762    3.5299 H   0  0  0  0  0  0  0  0  0  0  0  0
    0.7516    2.3493    2.7605 H   0  0  0  0  0  0  0  0  0  0  0  0
    2.1215   -0.3910    1.2057 H   0  0  0  0  0  0  0  0  0  0  0  0
    1.5103    1.2261    0.8798 H   0  0  0  0  0  0  0  0  0  0  0  0
    0.4816    0.0339    1.6679 H   0  0  0  0  0  0  0  0  0  0  0  0
   -0.6283    1.2262    3.8478 H   0  0  0  0  0  0  0  0  0  0  0  0
    1.0343   -0.8232    3.5131 H   0  0  0  0  0  0  0  0  0  0  0  0
   -1.9342   -0.4691    4.5139 H   0  0  0  0  0  0  0  0  0  0  0  0
   -1.3793   -1.6502    5.6459 H   0  0  0  0  0  0  0  0  0  0  0  0
   -1.9781    1.0644    6.2221 H   0  0  0  0  0  0  0  0  0  0  0  0
    4.5154   -3.1755    7.1979 H   0  0  0  0  0  0  0  0  0  0  0  0
    3.9944   -1.7996    7.9232 H   0  0  0  0  0  0  0  0  0  0  0  0
    2.2160   -3.9732    7.1834 H   0  0  0  0  0  0  0  0  0  0  0  0
    1.9194   -2.6511    8.2145 H   0  0  0  0  0  0  0  0  0  0  0  0
    0.4488   -2.7690    6.0163 H   0  0  0  0  0  0  0  0  0  0  0  0
    1.3613   -4.8154    4.5910 H   0  0  0  0  0  0  0  0  0  0  0  0
    2.2013   -4.3445    3.1227 H   0  0  0  0  0  0  0  0  0  0  0  0
    0.6111   -3.6917    3.4603 H   0  0  0  0  0  0  0  0  0  0  0  0
    4.2428   -3.4816    4.2908 H   0  0  0  0  0  0  0  0  0  0  0  0
    3.6330   -3.9790    5.5858 H   0  0  0  0  0  0  0  0  0  0  0  0
    4.0795   -0.3142    3.8325 H   0  0  0  0  0  0  0  0  0  0  0  0
    4.8096   -1.7528    3.6078 H   0  0  0  0  0  0  0  0  0  0  0  0
  1  2  2  0
  1 38  1  0
  1 39  1  0
  2  9  1  0
  2  3  1  0
  3  4  2  0
  5  3  1  1
  5 25  1  0
  5 32  1  0
  5  6  1  0
  6  7  1  0
  6 29  1  0
  6 40  1  6
  7  8  1  0
  7 41  1  0
  7 42  1  0
  8  9  1  0
  8 43  1  0
  8 44  1  0
  9 10  1  0
  9 45  1  1
 10 18  1  0
 10 11  1  1
 10 12  1  0
 11 46  1  0
 11 47  1  0
 11 48  1  0
 12 24  1  0
 12 13  1  0
 12 49  1  1
 13 14  1  0
 14 15  2  0
 14 16  1  0
 16 17  2  0
 16 18  1  0
 17 50  1  0
 17 51  1  0
 18 19  1  0
 18 52  1  1
 19 20  1  0
 19 21  1  0
 19 53  1  6
 20 54  1  0
 21 22  1  0
 21 24  1  0
 21 55  1  6
 22 23  1  0
 23 56  1  0
 23 57  1  0
 23 58  1  0
 24 25  1  0
 24 59  1  6
 25 26  1  6
 25 27  1  0
 26 60  1  0
 27 28  1  0
 27 61  1  0
 27 62  1  0
 28 63  1  0
 29 35  1  0
 29 37  1  6
 29 30  1  0
 30 31  1  0
 30 64  1  0
 30 65  1  0
 31 32  1  0
 31 66  1  0
 31 67  1  0
 32 33  1  0
 32 68  1  6
 33 34  1  6
 33 35  1  0
 33 36  1  0
 34 69  1  0
 34 70  1  0
 34 71  1  0
 35 72  1  0
 35 73  1  0
 36 37  1  0
 37 74  1  0
 37 75  1  0
M  END
>  <i_m_ct_stereo_status>  (326) 
1

>  <s_m_source_file>  (326) 
/var/tmp/pbs.5076255.sched01/tmpajq2dbrl/12675ddggds.sdf

>  <i_m_source_file_index>  (326) 
25

>  <i_lp_mmshare_version>  (326) 
48012

>  <i_f3d_flags>  (326) 
2

>  <s_epik_input>  (326) 
TzFDKD1PKUMoPVtDSDJdKVtDQEBIXTJbQ0BASF0oW09IXSlbQ0BASF0oT1tDSDNdKVtDQEBIXShbQ0BdMyhbT0hdKVtDSDJdW09IXSlbQ0BIXTFbQ0BAXTIoW0NIM10pW0NIXShDKD1bQ0gyXSlDND1PKVtDSDJdW0NIMl1bQ0BIXShbQ0BdMzQ1KUM2N1tDSDJdW0NIMl1bQ0BASF01W0NAXShbQ0gzXSkoW0NIMl02KU9bQ0gyXTc=

>  <s_epik_cmdline>  (326) 
J2VwaWtfcHl0aG9uJywgJy1waHQnLCAnMi4wJywgJy1waCcsICc3LjAnLCAnLXRuJywgJzgnLCAnLW1hJywgJzIwMCcsICctaW1hZScsICc8aW5maWxlLm1hZT4nLCAnLW9tYWUnLCAnPG91dGZpbGUubWFlPic=

>  <r_lp_tautomer_probability>  (326) 
1

>  <r_epik_Ionization_Penalty>  (326) 
1.68825e-06

>  <r_epik_Ionization_Penalty_Charging>  (326) 
0

>  <r_epik_Ionization_Penalty_Neutral>  (326) 
1.68825e-06

>  <r_epik_State_Penalty>  (326) 
-0

>  <r_epik_Charging_Adjusted_Penalty>  (326) 
0

>  <i_epik_Tot_Q>  (326) 
0

>  <i_epik_Tot_abs_Q>  (326) 
0

>  <s_epik_Chemistry_Notes>  (326) 
This compound has an ester and may undergo hydrolysis at high or low pH.

>  <s_lp_Force_Field>  (326) 
OPLS3e

>  <r_lp_Energy>  (326) 
289.112

>  <b_lp_Chiralities_Consistent>  (326) 
0

>  <s_lp_Variant>  (326) 
106:0-1

>  <s_i_glide_gridfile>  (326) 
pfpi4k_grid

>  <i_i_glide_lignum>  (326) 
25

>  <i_i_glide_rotatable_bonds>  (326) 
5

>  <r_i_docking_score>  (326) 
-3.22413

>  <r_i_glide_ligand_efficiency>  (326) 
-0.0871386

>  <r_i_glide_ligand_efficiency_sa>  (326) 
-0.290365

>  <r_i_glide_ligand_efficiency_ln>  (326) 
-0.699238

>  <r_i_glide_gscore>  (326) 
-3.22413

>  <r_i_glide_lipo>  (326) 
-0.00221543

>  <r_i_glide_hbond>  (326) 
-0.202694

>  <r_i_glide_metal>  (326) 
-0

>  <r_i_glide_rewards>  (326) 
-0.5

>  <r_i_glide_evdw>  (326) 
-17.0154

>  <r_i_glide_ecoul>  (326) 
-10.9238

>  <r_i_glide_erotb>  (326) 
0.0774627

>  <r_i_glide_esite>  (326) 
-0.107342

>  <r_i_glide_emodel>  (326) 
-37.9996

>  <r_i_glide_energy>  (326) 
-27.9392

>  <r_i_glide_einternal>  (326) 
2.08267

>  <r_i_glide_intrahb_reward>  (326) 
-0.5

>  <i_i_glide_confnum>  (326) 
2

>  <i_i_glide_posenum>  (326) 
30

>  <r_i_glide_eff_state_penalty>  (326) 
0

>  <ligand_id>  (326) 
106

>  <original_smiles>  (326) 
C=C1C(=O)C23C(CCC1C1(C)C4OC(=O)C(=C)C1C(O)C(OC)C4C2(O)CO)C12CCC3C(C)(C1)OC2

>  <smiles>  (326) 
[H]OC([H])([H])C1(O[H])C2([H])C([H])(OC([H])([H])[H])C([H])(O[H])C3([H])C(=C([H])[H])C(=O)OC2([H])C3(C([H])([H])[H])C2([H])C(=C([H])[H])C(=O)C13C1([H])C([H])([H])C([H])([H])C4(C([H])([H])OC1(C([H])([H])[H])C4([H])[H])C3([H])C([H])([H])C2([H])[H]

$$$$
106:0:1
     RDKit          3D

 75 81  0  0  1  0  0  0  0  0999 V2000
    0.5657    1.3094    9.2496 C   0  0  0  0  0  0  0  0  0  0  0  0
    1.0974    1.0323    8.0410 C   0  0  0  0  0  0  0  0  0  0  0  0
    1.1712   -0.4202    7.6430 C   0  0  0  0  0  0  0  0  0  0  0  0
    0.7033   -1.2667    8.4079 O   0  0  0  0  0  0  0  0  0  0  0  0
    1.5954   -0.9270    6.2120 C   0  0  2  0  0  0  0  0  0  0  0  0
    3.0410   -0.3870    5.8175 C   0  0  1  0  0  0  0  0  0  0  0  0
    3.7378    0.6503    6.7511 C   0  0  0  0  0  0  0  0  0  0  0  0
    3.1656    2.0621    6.8678 C   0  0  0  0  0  0  0  0  0  0  0  0
    1.6669    2.1732    7.1711 C   0  0  1  0  0  0  0  0  0  0  0  0
    0.6583    2.8961    6.1753 C   0  0  2  0  0  0  0  0  0  0  0  0
   -0.0344    3.9855    7.0753 C   0  0  0  0  0  0  0  0  0  0  0  0
   -0.4290    1.9513    5.6230 C   0  0  1  0  0  0  0  0  0  0  0  0
   -1.4612    2.6765    4.9272 O   0  0  0  0  0  0  0  0  0  0  0  0
   -1.2552    3.7668    4.1230 C   0  0  0  0  0  0  0  0  0  0  0  0
   -2.1715    4.2482    3.4548 O   0  0  0  0  0  0  0  0  0  0  0  0
    0.1047    4.3717    4.1993 C   0  0  0  0  0  0  0  0  0  0  0  0
    0.3052    5.6003    3.6820 C   0  0  0  0  0  0  0  0  0  0  0  0
    1.2222    3.5819    4.8755 C   0  0  2  0  0  0  0  0  0  0  0  0
    1.7902    2.6585    3.7456 C   0  0  1  0  0  0  0  0  0  0  0  0
    3.1635    2.3702    3.8751 O   0  0  0  0  0  0  0  0  0  0  0  0
    0.9465    1.3849    3.4797 C   0  0  1  0  0  0  0  0  0  0  0  0
    1.6304    0.3693    2.7498 O   0  0  0  0  0  0  0  0  0  0  0  0
    1.9149    0.6866    1.3947 C   0  0  0  0  0  0  0  0  0  0  0  0
    0.0808    0.8417    4.6632 C   0  0  1  0  0  0  0  0  0  0  0  0
    0.2985   -0.6059    5.2628 C   0  0  1  0  0  0  0  0  0  0  0  0
    0.2261   -1.4558    4.1371 O   0  0  0  0  0  0  0  0  0  0  0  0
   -1.0377   -1.0887    5.9557 C   0  0  0  0  0  0  0  0  0  0  0  0
   -2.2185   -1.0162    5.1799 O   0  0  0  0  0  0  0  0  0  0  0  0
    4.1764   -1.5104    5.4610 C   0  0  2  0  0  0  0  0  0  0  0  0
    4.3283   -2.2428    6.8730 C   0  0  0  0  0  0  0  0  0  0  0  0
    2.9467   -2.8487    7.3279 C   0  0  0  0  0  0  0  0  0  0  0  0
    1.8795   -2.4970    6.2093 C   0  0  2  0  0  0  0  0  0  0  0  0
    2.4735   -3.0357    4.8103 C   0  0  2  0  0  0  0  0  0  0  0  0
    1.8607   -4.3481    4.2949 C   0  0  0  0  0  0  0  0  0  0  0  0
    3.9392   -3.0788    5.0008 C   0  0  0  0  0  0  0  0  0  0  0  0
    2.6666   -2.1100    3.7352 O   0  0  0  0  0  0  0  0  0  0  0  0
    3.9512   -1.4820    3.9050 C   0  0  0  0  0  0  0  0  0  0  0  0
    0.5041    2.3239    9.6199 H   0  0  0  0  0  0  0  0  0  0  0  0
    0.1728    0.5505    9.9105 H   0  0  0  0  0  0  0  0  0  0  0  0
    2.8052    0.2336    4.9716 H   0  0  0  0  0  0  0  0  0  0  0  0
    3.8197    0.2917    7.7760 H   0  0  0  0  0  0  0  0  0  0  0  0
    4.7651    0.7714    6.4019 H   0  0  0  0  0  0  0  0  0  0  0  0
    3.7079    2.4861    7.7181 H   0  0  0  0  0  0  0  0  0  0  0  0
    3.4983    2.7403    6.0968 H   0  0  0  0  0  0  0  0  0  0  0  0
    1.7951    2.9377    7.9370 H   0  0  0  0  0  0  0  0  0  0  0  0
   -0.8432    4.5370    6.6030 H   0  0  0  0  0  0  0  0  0  0  0  0
    0.6755    4.7449    7.4083 H   0  0  0  0  0  0  0  0  0  0  0  0
   -0.4871    3.5480    7.9651 H   0  0  0  0  0  0  0  0  0  0  0  0
   -0.9374    1.5010    6.4729 H   0  0  0  0  0  0  0  0  0  0  0  0
   -0.4847    6.1498    3.1865 H   0  0  0  0  0  0  0  0  0  0  0  0
    1.2728    6.0716    3.7287 H   0  0  0  0  0  0  0  0  0  0  0  0
    1.9900    4.3010    5.1603 H   0  0  0  0  0  0  0  0  0  0  0  0
    1.7792    3.2461    2.8228 H   0  0  0  0  0  0  0  0  0  0  0  0
    3.5966    2.5071    3.0400 H   0  0  0  0  0  0  0  0  0  0  0  0
    0.1917    1.7451    2.7783 H   0  0  0  0  0  0  0  0  0  0  0  0
    2.4006   -0.1630    0.9122 H   0  0  0  0  0  0  0  0  0  0  0  0
    2.5904    1.5378    1.3142 H   0  0  0  0  0  0  0  0  0  0  0  0
    0.9985    0.9150    0.8488 H   0  0  0  0  0  0  0  0  0  0  0  0
   -0.8251    0.6456    4.0918 H   0  0  0  0  0  0  0  0  0  0  0  0
    1.0199   -1.3263    3.6262 H   0  0  0  0  0  0  0  0  0  0  0  0
   -0.9661   -2.1303    6.2726 H   0  0  0  0  0  0  0  0  0  0  0  0
   -1.2654   -0.5132    6.8491 H   0  0  0  0  0  0  0  0  0  0  0  0
   -2.2292   -0.1918    4.7123 H   0  0  0  0  0  0  0  0  0  0  0  0
    5.1795   -2.9296    6.9719 H   0  0  0  0  0  0  0  0  0  0  0  0
    4.6329   -1.5472    7.6482 H   0  0  0  0  0  0  0  0  0  0  0  0
    3.0207   -3.9347    7.4062 H   0  0  0  0  0  0  0  0  0  0  0  0
    2.7067   -2.5398    8.3406 H   0  0  0  0  0  0  0  0  0  0  0  0
    0.9673   -3.0478    6.4324 H   0  0  0  0  0  0  0  0  0  0  0  0
    1.8683   -5.1252    5.0589 H   0  0  0  0  0  0  0  0  0  0  0  0
    2.4133   -4.7260    3.4345 H   0  0  0  0  0  0  0  0  0  0  0  0
    0.8289   -4.1952    3.9790 H   0  0  0  0  0  0  0  0  0  0  0  0
    4.5058   -3.5520    4.1819 H   0  0  0  0  0  0  0  0  0  0  0  0
    4.1709   -3.9745    5.5943 H   0  0  0  0  0  0  0  0  0  0  0  0
    3.9158   -0.4764    3.4901 H   0  0  0  0  0  0  0  0  0  0  0  0
    4.7571   -1.8528    3.2620 H   0  0  0  0  0  0  0  0  0  0  0  0
  1  2  2  0
  1 38  1  0
  1 39  1  0
  2  9  1  0
  2  3  1  0
  3  4  2  0
  5  3  1  1
  5 25  1  0
  5 32  1  0
  5  6  1  0
  6  7  1  0
  6 29  1  0
  6 40  1  6
  7  8  1  0
  7 41  1  0
  7 42  1  0
  8  9  1  0
  8 43  1  0
  8 44  1  0
  9 10  1  0
  9 45  1  1
 10 18  1  0
 10 11  1  1
 10 12  1  0
 11 46  1  0
 11 47  1  0
 11 48  1  0
 12 24  1  0
 12 13  1  0
 12 49  1  1
 13 14  1  0
 14 15  2  0
 14 16  1  0
 16 17  2  0
 16 18  1  0
 17 50  1  0
 17 51  1  0
 18 19  1  0
 18 52  1  1
 19 20  1  0
 19 21  1  0
 19 53  1  6
 20 54  1  0
 21 22  1  0
 21 24  1  0
 21 55  1  6
 22 23  1  0
 23 56  1  0
 23 57  1  0
 23 58  1  0
 24 25  1  0
 24 59  1  6
 25 26  1  6
 25 27  1  0
 26 60  1  0
 27 28  1  0
 27 61  1  0
 27 62  1  0
 28 63  1  0
 29 35  1  0
 29 37  1  6
 29 30  1  0
 30 31  1  0
 30 64  1  0
 30 65  1  0
 31 32  1  0
 31 66  1  0
 31 67  1  0
 32 33  1  0
 32 68  1  1
 33 34  1  6
 33 35  1  0
 33 36  1  0
 34 69  1  0
 34 70  1  0
 34 71  1  0
 35 72  1  0
 35 73  1  0
 36 37  1  0
 37 74  1  0
 37 75  1  0
M  END
>  <i_m_ct_stereo_status>  (327) 
1

>  <s_m_source_file>  (327) 
/var/tmp/pbs.5076255.sched01/tmpajq2dbrl/12675ddggds.sdf

>  <i_m_source_file_index>  (327) 
25

>  <i_lp_mmshare_version>  (327) 
48012

>  <i_f3d_flags>  (327) 
2

>  <s_epik_input>  (327) 
TzFDKD1PKUMoPVtDSDJdKVtDQEBIXTJbQ0BASF0oW09IXSlbQ0BASF0oT1tDSDNdKVtDQEBIXShbQ0BdMyhbT0hdKVtDSDJdW09IXSlbQ0BIXTFbQ0BAXTIoW0NIM10pW0NIXShDKD1bQ0gyXSlDND1PKVtDSDJdW0NIMl1bQ0BIXShbQ0BdMzQ1KUM2N1tDSDJdW0NIMl1bQ0BASF01W0NAXShbQ0gzXSkoW0NIMl02KU9bQ0gyXTc=

>  <s_epik_cmdline>  (327) 
J2VwaWtfcHl0aG9uJywgJy1waHQnLCAnMi4wJywgJy1waCcsICc3LjAnLCAnLXRuJywgJzgnLCAnLW1hJywgJzIwMCcsICctaW1hZScsICc8aW5maWxlLm1hZT4nLCAnLW9tYWUnLCAnPG91dGZpbGUubWFlPic=

>  <r_lp_tautomer_probability>  (327) 
1

>  <r_epik_Ionization_Penalty>  (327) 
1.68825e-06

>  <r_epik_Ionization_Penalty_Charging>  (327) 
0

>  <r_epik_Ionization_Penalty_Neutral>  (327) 
1.68825e-06

>  <r_epik_State_Penalty>  (327) 
-0

>  <r_epik_Charging_Adjusted_Penalty>  (327) 
0

>  <i_epik_Tot_Q>  (327) 
0

>  <i_epik_Tot_abs_Q>  (327) 
0

>  <s_epik_Chemistry_Notes>  (327) 
This compound has an ester and may undergo hydrolysis at high or low pH.

>  <s_lp_Force_Field>  (327) 
OPLS3e

>  <r_lp_Energy>  (327) 
289.112

>  <b_lp_Chiralities_Consistent>  (327) 
0

>  <s_lp_Variant>  (327) 
106:0-1

>  <s_i_glide_gridfile>  (327) 
pfpi4k_grid

>  <i_i_glide_lignum>  (327) 
25

>  <i_i_glide_rotatable_bonds>  (327) 
5

>  <r_i_docking_score>  (327) 
-2.85493

>  <r_i_glide_ligand_efficiency>  (327) 
-0.0771602

>  <r_i_glide_ligand_efficiency_sa>  (327) 
-0.257115

>  <r_i_glide_ligand_efficiency_ln>  (327) 
-0.619167

>  <r_i_glide_gscore>  (327) 
-2.85493

>  <r_i_glide_lipo>  (327) 
-0.00247649

>  <r_i_glide_hbond>  (327) 
-0.11806

>  <r_i_glide_metal>  (327) 
-0

>  <r_i_glide_rewards>  (327) 
-1

>  <r_i_glide_evdw>  (327) 
-22.1628

>  <r_i_glide_ecoul>  (327) 
-4.25604

>  <r_i_glide_erotb>  (327) 
0.0774627

>  <r_i_glide_esite>  (327) 
-0.065307

>  <r_i_glide_emodel>  (327) 
-41.0513

>  <r_i_glide_energy>  (327) 
-26.4188

>  <r_i_glide_einternal>  (327) 
2.27566

>  <r_i_glide_intrahb_reward>  (327) 
-1

>  <i_i_glide_confnum>  (327) 
3

>  <i_i_glide_posenum>  (327) 
36

>  <r_i_glide_eff_state_penalty>  (327) 
0

>  <ligand_id>  (327) 
106

>  <original_smiles>  (327) 
C=C1C(=O)C23C(CCC1C1(C)C4OC(=O)C(=C)C1C(O)C(OC)C4C2(O)CO)C12CCC3C(C)(C1)OC2

>  <smiles>  (327) 
[H]OC([H])([H])C1(O[H])C2([H])C([H])(OC([H])([H])[H])C([H])(O[H])C3([H])C(=C([H])[H])C(=O)OC2([H])C3(C([H])([H])[H])C2([H])C(=C([H])[H])C(=O)C13C1([H])C([H])([H])C([H])([H])C4(C([H])([H])OC1(C([H])([H])[H])C4([H])[H])C3([H])C([H])([H])C2([H])[H]

$$$$
106:0:2
     RDKit          3D

 75 81  0  0  1  0  0  0  0  0999 V2000
    0.0774    1.4020    9.1717 C   0  0  0  0  0  0  0  0  0  0  0  0
    0.7643    1.1500    8.0433 C   0  0  0  0  0  0  0  0  0  0  0  0
    0.7583   -0.2823    7.5505 C   0  0  0  0  0  0  0  0  0  0  0  0
    0.1408   -1.1209    8.1934 O   0  0  0  0  0  0  0  0  0  0  0  0
    1.3437   -0.7407    6.1680 C   0  0  2  0  0  0  0  0  0  0  0  0
    2.8865   -0.3274    6.0255 C   0  0  1  0  0  0  0  0  0  0  0  0
    3.5251    0.5574    7.1434 C   0  0  0  0  0  0  0  0  0  0  0  0
    3.0928    2.0161    7.2939 C   0  0  0  0  0  0  0  0  0  0  0  0
    1.5845    2.2729    7.3743 C   0  0  1  0  0  0  0  0  0  0  0  0
    0.8282    3.1666    6.2975 C   0  0  2  0  0  0  0  0  0  0  0  0
    0.1203    4.2673    7.1772 C   0  0  0  0  0  0  0  0  0  0  0  0
   -0.2438    2.3885    5.5095 C   0  0  1  0  0  0  0  0  0  0  0  0
   -1.0581    3.2739    4.7365 O   0  0  0  0  0  0  0  0  0  0  0  0
   -0.6402    4.3762    4.0744 C   0  0  0  0  0  0  0  0  0  0  0  0
   -1.3826    4.9903    3.3194 O   0  0  0  0  0  0  0  0  0  0  0  0
    0.7566    4.8307    4.4070 C   0  0  0  0  0  0  0  0  0  0  0  0
    1.1630    6.0632    4.0470 C   0  0  0  0  0  0  0  0  0  0  0  0
    1.6614    3.8732    5.1697 C   0  0  2  0  0  0  0  0  0  0  0  0
    2.2899    2.9594    4.0606 C   0  0  1  0  0  0  0  0  0  0  0  0
    3.5937    2.5199    4.3610 O   0  0  0  0  0  0  0  0  0  0  0  0
    1.3671    1.8131    3.5548 C   0  0  1  0  0  0  0  0  0  0  0  0
    2.1146    0.8368    2.8397 O   0  0  0  0  0  0  0  0  0  0  0  0
    1.5517    0.3782    1.6258 C   0  0  0  0  0  0  0  0  0  0  0  0
    0.2766    1.2728    4.5503 C   0  0  1  0  0  0  0  0  0  0  0  0
    0.2360   -0.2269    5.0911 C   0  0  1  0  0  0  0  0  0  0  0  0
    0.1797   -1.0525    3.9568 O   0  0  0  0  0  0  0  0  0  0  0  0
   -1.2848   -0.4833    5.4823 C   0  0  0  0  0  0  0  0  0  0  0  0
   -1.6270   -1.8414    5.6750 O   0  0  0  0  0  0  0  0  0  0  0  0
    3.9508   -1.5348    5.7466 C   0  0  2  0  0  0  0  0  0  0  0  0
    3.8226   -2.3822    7.0960 C   0  0  0  0  0  0  0  0  0  0  0  0
    2.3339   -2.8587    7.2863 C   0  0  0  0  0  0  0  0  0  0  0  0
    1.4962   -2.3268    6.0626 C   0  0  2  0  0  0  0  0  0  0  0  0
    2.2427   -2.8080    4.7150 C   0  0  2  0  0  0  0  0  0  0  0  0
    1.5848   -3.9966    3.9955 C   0  0  0  0  0  0  0  0  0  0  0  0
    3.6440   -3.0315    5.1188 C   0  0  0  0  0  0  0  0  0  0  0  0
    2.6964   -1.8333    3.7741 O   0  0  0  0  0  0  0  0  0  0  0  0
    3.9944   -1.3695    4.1859 C   0  0  0  0  0  0  0  0  0  0  0  0
    0.0527    2.3914    9.6148 H   0  0  0  0  0  0  0  0  0  0  0  0
   -0.4900    0.6487    9.6984 H   0  0  0  0  0  0  0  0  0  0  0  0
    2.8453    0.3743    5.2126 H   0  0  0  0  0  0  0  0  0  0  0  0
    3.4038    0.1252    8.1336 H   0  0  0  0  0  0  0  0  0  0  0  0
    4.6061    0.5888    6.9700 H   0  0  0  0  0  0  0  0  0  0  0  0
    3.5259    2.3162    8.2548 H   0  0  0  0  0  0  0  0  0  0  0  0
    3.6138    2.7037    6.6417 H   0  0  0  0  0  0  0  0  0  0  0  0
    1.6636    2.9658    8.2127 H   0  0  0  0  0  0  0  0  0  0  0  0
   -0.5400    4.9435    6.6349 H   0  0  0  0  0  0  0  0  0  0  0  0
    0.8409    4.9143    7.6802 H   0  0  0  0  0  0  0  0  0  0  0  0
   -0.5141    3.8230    7.9422 H   0  0  0  0  0  0  0  0  0  0  0  0
   -0.9259    1.9633    6.2397 H   0  0  0  0  0  0  0  0  0  0  0  0
    0.5069    6.7347    3.5072 H   0  0  0  0  0  0  0  0  0  0  0  0
    2.1513    6.4210    4.2825 H   0  0  0  0  0  0  0  0  0  0  0  0
    2.4472    4.4814    5.6232 H   0  0  0  0  0  0  0  0  0  0  0  0
    2.4955    3.6098    3.2055 H   0  0  0  0  0  0  0  0  0  0  0  0
    4.0714    2.4685    3.5441 H   0  0  0  0  0  0  0  0  0  0  0  0
    0.8031    2.3459    2.7856 H   0  0  0  0  0  0  0  0  0  0  0  0
    2.1730   -0.4347    1.2519 H   0  0  0  0  0  0  0  0  0  0  0  0
    1.5550    1.1794    0.8900 H   0  0  0  0  0  0  0  0  0  0  0  0
    0.5331    0.0204    1.7224 H   0  0  0  0  0  0  0  0  0  0  0  0
   -0.5549    1.2130    3.8497 H   0  0  0  0  0  0  0  0  0  0  0  0
   -0.0887   -0.5361    3.2208 H   0  0  0  0  0  0  0  0  0  0  0  0
   -1.6288    0.0657    6.3566 H   0  0  0  0  0  0  0  0  0  0  0  0
   -1.9341   -0.1542    4.6656 H   0  0  0  0  0  0  0  0  0  0  0  0
   -1.0817   -2.3270    5.0706 H   0  0  0  0  0  0  0  0  0  0  0  0
    4.5707   -3.1670    7.2588 H   0  0  0  0  0  0  0  0  0  0  0  0
    4.0606   -1.7760    7.9746 H   0  0  0  0  0  0  0  0  0  0  0  0
    2.2764   -3.9501    7.2750 H   0  0  0  0  0  0  0  0  0  0  0  0
    1.9666   -2.5982    8.2756 H   0  0  0  0  0  0  0  0  0  0  0  0
    0.5327   -2.8303    6.1193 H   0  0  0  0  0  0  0  0  0  0  0  0
    1.3864   -4.8202    4.6787 H   0  0  0  0  0  0  0  0  0  0  0  0
    2.2231   -4.3730    3.1961 H   0  0  0  0  0  0  0  0  0  0  0  0
    0.6390   -3.7017    3.5411 H   0  0  0  0  0  0  0  0  0  0  0  0
    4.2852   -3.5099    4.3537 H   0  0  0  0  0  0  0  0  0  0  0  0
    3.6756   -3.9842    5.6560 H   0  0  0  0  0  0  0  0  0  0  0  0
    4.1234   -0.3349    3.8585 H   0  0  0  0  0  0  0  0  0  0  0  0
    4.8567   -1.7798    3.6489 H   0  0  0  0  0  0  0  0  0  0  0  0
  1  2  2  0
  1 38  1  0
  1 39  1  0
  2  9  1  0
  2  3  1  0
  3  4  2  0
  5  3  1  1
  5 25  1  0
  5 32  1  0
  5  6  1  0
  6  7  1  0
  6 29  1  0
  6 40  1  6
  7  8  1  0
  7 41  1  0
  7 42  1  0
  8  9  1  0
  8 43  1  0
  8 44  1  0
  9 10  1  0
  9 45  1  1
 10 18  1  0
 10 11  1  1
 10 12  1  0
 11 46  1  0
 11 47  1  0
 11 48  1  0
 12 24  1  0
 12 13  1  0
 12 49  1  1
 13 14  1  0
 14 15  2  0
 14 16  1  0
 16 17  2  0
 16 18  1  0
 17 50  1  0
 17 51  1  0
 18 19  1  0
 18 52  1  1
 19 20  1  0
 19 21  1  0
 19 53  1  6
 20 54  1  0
 21 22  1  0
 21 24  1  0
 21 55  1  6
 22 23  1  0
 23 56  1  0
 23 57  1  0
 23 58  1  0
 24 25  1  0
 24 59  1  6
 25 26  1  6
 25 27  1  0
 26 60  1  0
 27 28  1  0
 27 61  1  0
 27 62  1  0
 28 63  1  0
 29 35  1  0
 29 37  1  6
 29 30  1  0
 30 31  1  0
 30 64  1  0
 30 65  1  0
 31 32  1  0
 31 66  1  0
 31 67  1  0
 32 33  1  0
 32 68  1  1
 33 34  1  6
 33 35  1  0
 33 36  1  0
 34 69  1  0
 34 70  1  0
 34 71  1  0
 35 72  1  0
 35 73  1  0
 36 37  1  0
 37 74  1  0
 37 75  1  0
M  END
>  <i_m_ct_stereo_status>  (328) 
1

>  <s_m_source_file>  (328) 
/var/tmp/pbs.5076255.sched01/tmpajq2dbrl/12675ddggds.sdf

>  <i_m_source_file_index>  (328) 
25

>  <i_lp_mmshare_version>  (328) 
48012

>  <i_f3d_flags>  (328) 
2

>  <s_epik_input>  (328) 
TzFDKD1PKUMoPVtDSDJdKVtDQEBIXTJbQ0BASF0oW09IXSlbQ0BASF0oT1tDSDNdKVtDQEBIXShbQ0BdMyhbT0hdKVtDSDJdW09IXSlbQ0BIXTFbQ0BAXTIoW0NIM10pW0NIXShDKD1bQ0gyXSlDND1PKVtDSDJdW0NIMl1bQ0BIXShbQ0BdMzQ1KUM2N1tDSDJdW0NIMl1bQ0BASF01W0NAXShbQ0gzXSkoW0NIMl02KU9bQ0gyXTc=

>  <s_epik_cmdline>  (328) 
J2VwaWtfcHl0aG9uJywgJy1waHQnLCAnMi4wJywgJy1waCcsICc3LjAnLCAnLXRuJywgJzgnLCAnLW1hJywgJzIwMCcsICctaW1hZScsICc8aW5maWxlLm1hZT4nLCAnLW9tYWUnLCAnPG91dGZpbGUubWFlPic=

>  <r_lp_tautomer_probability>  (328) 
1

>  <r_epik_Ionization_Penalty>  (328) 
1.68825e-06

>  <r_epik_Ionization_Penalty_Charging>  (328) 
0

>  <r_epik_Ionization_Penalty_Neutral>  (328) 
1.68825e-06

>  <r_epik_State_Penalty>  (328) 
-0

>  <r_epik_Charging_Adjusted_Penalty>  (328) 
0

>  <i_epik_Tot_Q>  (328) 
0

>  <i_epik_Tot_abs_Q>  (328) 
0

>  <s_epik_Chemistry_Notes>  (328) 
This compound has an ester and may undergo hydrolysis at high or low pH.

>  <s_lp_Force_Field>  (328) 
OPLS3e

>  <r_lp_Energy>  (328) 
289.112

>  <b_lp_Chiralities_Consistent>  (328) 
0

>  <s_lp_Variant>  (328) 
106:0-1

>  <s_i_glide_gridfile>  (328) 
pfpi4k_grid

>  <i_i_glide_lignum>  (328) 
25

>  <i_i_glide_rotatable_bonds>  (328) 
5

>  <r_i_docking_score>  (328) 
-2.52871

>  <r_i_glide_ligand_efficiency>  (328) 
-0.0683436

>  <r_i_glide_ligand_efficiency_sa>  (328) 
-0.227736

>  <r_i_glide_ligand_efficiency_ln>  (328) 
-0.548419

>  <r_i_glide_gscore>  (328) 
-2.52871

>  <r_i_glide_lipo>  (328) 
-0.00251321

>  <r_i_glide_hbond>  (328) 
-0.199103

>  <r_i_glide_metal>  (328) 
-0

>  <r_i_glide_rewards>  (328) 
0

>  <r_i_glide_evdw>  (328) 
-19.4193

>  <r_i_glide_ecoul>  (328) 
-8.87012

>  <r_i_glide_erotb>  (328) 
0.0774627

>  <r_i_glide_esite>  (328) 
-0.103078

>  <r_i_glide_emodel>  (328) 
-30.1764

>  <r_i_glide_energy>  (328) 
-28.2894

>  <r_i_glide_einternal>  (328) 
3.94269

>  <r_i_glide_intrahb_reward>  (328) 
-0

>  <i_i_glide_confnum>  (328) 
2

>  <i_i_glide_posenum>  (328) 
28

>  <r_i_glide_eff_state_penalty>  (328) 
0

>  <ligand_id>  (328) 
106

>  <original_smiles>  (328) 
C=C1C(=O)C23C(CCC1C1(C)C4OC(=O)C(=C)C1C(O)C(OC)C4C2(O)CO)C12CCC3C(C)(C1)OC2

>  <smiles>  (328) 
[H]OC([H])([H])C1(O[H])C2([H])C([H])(OC([H])([H])[H])C([H])(O[H])C3([H])C(=C([H])[H])C(=O)OC2([H])C3(C([H])([H])[H])C2([H])C(=C([H])[H])C(=O)C13C1([H])C([H])([H])C([H])([H])C4(C([H])([H])OC1(C([H])([H])[H])C4([H])[H])C3([H])C([H])([H])C2([H])[H]

$$$$
107:0:0
     RDKit          3D

 92 97  0  0  1  0  0  0  0  0999 V2000
    0.1615  -10.1482    2.8846 C   0  0  0  0  0  0  0  0  0  0  0  0
    0.1653   -8.7687    3.5771 C   0  0  2  0  0  0  0  0  0  0  0  0
    0.2101   -7.6183    2.5778 C   0  0  0  0  0  0  0  0  0  0  0  0
   -0.5967   -7.4479    1.6678 O   0  0  0  0  0  0  0  0  0  0  0  0
    1.3460   -6.6538    2.8708 C   0  0  1  0  0  0  0  0  0  0  0  0
    0.7640   -5.4730    3.3579 O   0  0  0  0  0  0  0  0  0  0  0  0
    2.2800   -7.4462    3.8319 C   0  0  1  0  0  0  0  0  0  0  0  0
    3.2067   -8.2647    2.8693 C   0  0  0  0  0  0  0  0  0  0  0  0
    3.2333   -6.6570    4.8313 C   0  0  1  0  0  0  0  0  0  0  0  0
    4.2938   -5.7365    4.2210 C   0  0  0  0  0  0  0  0  0  0  0  0
    3.7849   -4.3283    4.0208 C   0  0  0  0  0  0  0  0  0  0  0  0
    3.4072   -3.6032    5.3478 C   0  0  1  0  0  0  0  0  0  0  0  0
    3.0968   -2.0280    5.1370 C   0  0  2  0  0  0  0  0  0  0  0  0
    3.8325   -1.4859    3.8620 C   0  0  0  0  0  0  0  0  0  0  0  0
    3.7828   -1.2813    6.3184 C   0  0  0  0  0  0  0  0  0  0  0  0
    3.6192    0.2347    6.2916 C   0  0  0  0  0  0  0  0  0  0  0  0
    2.1461    0.6294    6.3376 C   0  0  2  0  0  0  0  0  0  0  0  0
    1.5610    0.5225    7.7615 C   0  0  0  0  0  0  0  0  0  0  0  0
    0.1265    1.0515    7.8389 C   0  0  0  0  0  0  0  0  0  0  0  0
   -0.7673    0.4320    6.7554 C   0  0  1  0  0  0  0  0  0  0  0  0
   -2.0602    0.9959    6.8777 O   0  0  0  0  0  0  0  0  0  0  0  0
   -0.1991    0.5518    5.3061 C   0  0  0  0  0  0  0  0  0  0  0  0
   -1.2098   -0.0985    4.3364 C   0  0  0  0  0  0  0  0  0  0  0  0
   -0.1605    2.0500    4.8796 C   0  0  0  0  0  0  0  0  0  0  0  0
    1.2794   -0.0571    5.2242 C   0  0  2  0  0  0  0  0  0  0  0  0
    1.5426   -1.6418    5.0397 C   0  0  1  0  0  0  0  0  0  0  0  0
    1.0165   -2.0684    3.6382 C   0  0  0  0  0  0  0  0  0  0  0  0
    0.7422   -2.4591    6.0720 C   0  0  0  0  0  0  0  0  0  0  0  0
    0.9998   -3.9692    6.0751 C   0  0  0  0  0  0  0  0  0  0  0  0
    0.0190   -4.7080    6.0435 O   0  0  0  0  0  0  0  0  0  0  0  0
    2.4527   -4.4644    6.3130 C   0  0  2  0  0  0  0  0  0  0  0  0
    2.6880   -4.0459    7.8078 C   0  0  0  0  0  0  0  0  0  0  0  0
    2.7504   -6.0878    6.2286 C   0  0  2  0  0  0  0  0  0  0  0  0
    3.9542   -6.4027    7.1988 C   0  0  0  0  0  0  0  0  0  0  0  0
    1.6326   -7.0383    6.7828 C   0  0  0  0  0  0  0  0  0  0  0  0
    0.6576   -7.6790    5.7727 C   0  0  0  0  0  0  0  0  0  0  0  0
    1.3125   -8.4298    4.5886 C   0  0  1  0  0  0  0  0  0  0  0  0
    2.0081   -9.7032    5.1483 C   0  0  0  0  0  0  0  0  0  0  0  0
   -0.7233  -10.2523    2.2585 H   0  0  0  0  0  0  0  0  0  0  0  0
    0.1169  -10.9587    3.6087 H   0  0  0  0  0  0  0  0  0  0  0  0
    1.0203  -10.3202    2.2437 H   0  0  0  0  0  0  0  0  0  0  0  0
   -0.7929   -8.6988    4.0940 H   0  0  0  0  0  0  0  0  0  0  0  0
    1.8607   -6.3984    1.9435 H   0  0  0  0  0  0  0  0  0  0  0  0
    1.4489   -4.8943    3.6492 H   0  0  0  0  0  0  0  0  0  0  0  0
    3.9703   -8.8386    3.3983 H   0  0  0  0  0  0  0  0  0  0  0  0
    3.7223   -7.6181    2.1579 H   0  0  0  0  0  0  0  0  0  0  0  0
    2.6590   -8.9703    2.2496 H   0  0  0  0  0  0  0  0  0  0  0  0
    3.8524   -7.5058    5.1139 H   0  0  0  0  0  0  0  0  0  0  0  0
    5.1664   -5.6963    4.8749 H   0  0  0  0  0  0  0  0  0  0  0  0
    4.6868   -6.1213    3.2860 H   0  0  0  0  0  0  0  0  0  0  0  0
    4.6242   -3.8271    3.5429 H   0  0  0  0  0  0  0  0  0  0  0  0
    2.9972   -4.3485    3.2804 H   0  0  0  0  0  0  0  0  0  0  0  0
    4.3713   -3.6210    5.8560 H   0  0  0  0  0  0  0  0  0  0  0  0
    3.6223   -0.4371    3.6605 H   0  0  0  0  0  0  0  0  0  0  0  0
    3.5456   -1.9951    2.9412 H   0  0  0  0  0  0  0  0  0  0  0  0
    4.9171   -1.5775    3.9575 H   0  0  0  0  0  0  0  0  0  0  0  0
    3.4074   -1.6210    7.2740 H   0  0  0  0  0  0  0  0  0  0  0  0
    4.8513   -1.5059    6.3357 H   0  0  0  0  0  0  0  0  0  0  0  0
    4.1444    0.6672    7.1436 H   0  0  0  0  0  0  0  0  0  0  0  0
    4.0973    0.6728    5.4166 H   0  0  0  0  0  0  0  0  0  0  0  0
    2.1760    1.6978    6.1250 H   0  0  0  0  0  0  0  0  0  0  0  0
    1.5967   -0.4971    8.1333 H   0  0  0  0  0  0  0  0  0  0  0  0
    2.1778    1.0998    8.4501 H   0  0  0  0  0  0  0  0  0  0  0  0
   -0.2823    0.8293    8.8259 H   0  0  0  0  0  0  0  0  0  0  0  0
    0.1338    2.1379    7.7630 H   0  0  0  0  0  0  0  0  0  0  0  0
   -0.8947   -0.6180    6.9933 H   0  0  0  0  0  0  0  0  0  0  0  0
   -1.9979    1.9143    6.6658 H   0  0  0  0  0  0  0  0  0  0  0  0
   -0.8250   -0.1230    3.3164 H   0  0  0  0  0  0  0  0  0  0  0  0
   -2.1443    0.4623    4.2953 H   0  0  0  0  0  0  0  0  0  0  0  0
   -1.4914   -1.1019    4.6446 H   0  0  0  0  0  0  0  0  0  0  0  0
    0.3301    2.1746    3.9119 H   0  0  0  0  0  0  0  0  0  0  0  0
    0.3616    2.6891    5.5903 H   0  0  0  0  0  0  0  0  0  0  0  0
   -1.1627    2.4697    4.7762 H   0  0  0  0  0  0  0  0  0  0  0  0
    1.6706    0.3646    4.2973 H   0  0  0  0  0  0  0  0  0  0  0  0
   -0.0422   -2.3120    3.6391 H   0  0  0  0  0  0  0  0  0  0  0  0
    1.4863   -2.9666    3.2693 H   0  0  0  0  0  0  0  0  0  0  0  0
    1.1866   -1.3048    2.8757 H   0  0  0  0  0  0  0  0  0  0  0  0
    0.8997   -2.0732    7.0690 H   0  0  0  0  0  0  0  0  0  0  0  0
   -0.3201   -2.3355    5.8936 H   0  0  0  0  0  0  0  0  0  0  0  0
    3.7453   -3.9525    8.0518 H   0  0  0  0  0  0  0  0  0  0  0  0
    2.2485   -4.7640    8.4982 H   0  0  0  0  0  0  0  0  0  0  0  0
    2.2423   -3.1094    8.1203 H   0  0  0  0  0  0  0  0  0  0  0  0
    3.6834   -6.3389    8.2524 H   0  0  0  0  0  0  0  0  0  0  0  0
    4.8038   -5.7400    7.0440 H   0  0  0  0  0  0  0  0  0  0  0  0
    4.3272   -7.4244    7.1079 H   0  0  0  0  0  0  0  0  0  0  0  0
    2.0879   -7.8801    7.3072 H   0  0  0  0  0  0  0  0  0  0  0  0
    1.0585   -6.5376    7.5591 H   0  0  0  0  0  0  0  0  0  0  0  0
    0.0134   -8.3709    6.3178 H   0  0  0  0  0  0  0  0  0  0  0  0
   -0.0379   -6.9434    5.3886 H   0  0  0  0  0  0  0  0  0  0  0  0
    2.8405   -9.4594    5.8078 H   0  0  0  0  0  0  0  0  0  0  0  0
    2.4109  -10.3405    4.3595 H   0  0  0  0  0  0  0  0  0  0  0  0
    1.3114  -10.3192    5.7227 H   0  0  0  0  0  0  0  0  0  0  0  0
  1  2  1  0
  1 39  1  0
  1 40  1  0
  1 41  1  0
  2 37  1  0
  2  3  1  0
  2 42  1  1
  3  4  2  0
  3  5  1  0
  5  6  1  0
  5  7  1  0
  5 43  1  6
  6 44  1  0
  7 37  1  0
  7  8  1  6
  7  9  1  0
  8 45  1  0
  8 46  1  0
  8 47  1  0
  9 33  1  0
  9 10  1  0
  9 48  1  1
 10 11  1  0
 10 49  1  0
 10 50  1  0
 11 12  1  0
 11 51  1  0
 11 52  1  0
 12 31  1  0
 12 13  1  0
 12 53  1  1
 13 26  1  0
 13 14  1  6
 13 15  1  0
 14 54  1  0
 14 55  1  0
 14 56  1  0
 15 16  1  0
 15 57  1  0
 15 58  1  0
 16 17  1  0
 16 59  1  0
 16 60  1  0
 17 25  1  0
 17 18  1  0
 17 61  1  6
 18 19  1  0
 18 62  1  0
 18 63  1  0
 19 20  1  0
 19 64  1  0
 19 65  1  0
 20 21  1  0
 20 22  1  0
 20 66  1  1
 21 67  1  0
 22 23  1  0
 22 24  1  0
 22 25  1  0
 23 68  1  0
 23 69  1  0
 23 70  1  0
 24 71  1  0
 24 72  1  0
 24 73  1  0
 25 26  1  0
 25 74  1  6
 26 27  1  6
 26 28  1  0
 27 75  1  0
 27 76  1  0
 27 77  1  0
 28 29  1  0
 28 78  1  0
 28 79  1  0
 29 30  2  0
 29 31  1  0
 31 32  1  1
 31 33  1  0
 32 80  1  0
 32 81  1  0
 32 82  1  0
 33 34  1  1
 33 35  1  0
 34 83  1  0
 34 84  1  0
 34 85  1  0
 35 36  1  0
 35 86  1  0
 35 87  1  0
 36 37  1  0
 36 88  1  0
 36 89  1  0
 37 38  1  1
 38 90  1  0
 38 91  1  0
 38 92  1  0
M  END
>  <i_m_ct_stereo_status>  (329) 
1

>  <s_m_source_file>  (329) 
/var/tmp/pbs.5076255.sched01/tmpajq2dbrl/12675ddggds.sdf

>  <i_m_source_file_index>  (329) 
26

>  <i_lp_mmshare_version>  (329) 
48012

>  <i_f3d_flags>  (329) 
0

>  <s_epik_input>  (329) 
W09IXVtDQEBIXTFDKD1PKVtDQEBIXShbQ0gzXSlbQ0BdMihbQ0gzXSlbQ0gyXVtDSDJdW0NAQF0oW0NIM10pKFtDQEhdM1tDQF0xMltDSDNdKVtDQEBdNChbQ0gzXSlbQ0BASF0oW0NIMl1bQ0gyXTMpW0NAQF01KFtDSDNdKVtDQEBdKFtDSDNdKShbQ0gyXUM0PU8pW0NAQEhdNltDQEhdKFtDSDJdW0NIMl01KVtDSDJdW0NIMl1bQ0BASF0oW09IXSlDNihbQ0gzXSlbQ0gzXQ==

>  <s_epik_cmdline>  (329) 
J2VwaWtfcHl0aG9uJywgJy1waHQnLCAnMi4wJywgJy1waCcsICc3LjAnLCAnLXRuJywgJzgnLCAnLW1hJywgJzIwMCcsICctaW1hZScsICc8aW5maWxlLm1hZT4nLCAnLW9tYWUnLCAnPG91dGZpbGUubWFlPic=

>  <r_lp_tautomer_probability>  (329) 
1

>  <r_epik_Ionization_Penalty>  (329) 
2.67414e-06

>  <r_epik_Ionization_Penalty_Charging>  (329) 
0

>  <r_epik_Ionization_Penalty_Neutral>  (329) 
2.67414e-06

>  <r_epik_State_Penalty>  (329) 
-0

>  <r_epik_Charging_Adjusted_Penalty>  (329) 
0

>  <i_epik_Tot_Q>  (329) 
0

>  <i_epik_Tot_abs_Q>  (329) 
0

>  <s_lp_Force_Field>  (329) 
OPLS3e

>  <r_lp_Energy>  (329) 
147.631

>  <b_lp_Chiralities_Consistent>  (329) 
1

>  <s_lp_Variant>  (329) 
107:0-1

>  <s_i_glide_gridfile>  (329) 
pfpi4k_grid

>  <i_i_glide_lignum>  (329) 
26

>  <i_i_glide_rotatable_bonds>  (329) 
2

>  <r_i_docking_score>  (329) 
-2.43084

>  <r_i_glide_ligand_efficiency>  (329) 
-0.0639696

>  <r_i_glide_ligand_efficiency_sa>  (329) 
-0.215064

>  <r_i_glide_ligand_efficiency_ln>  (329) 
-0.524161

>  <r_i_glide_gscore>  (329) 
-2.43084

>  <r_i_glide_lipo>  (329) 
-0.0657195

>  <r_i_glide_hbond>  (329) 
-0.16

>  <r_i_glide_metal>  (329) 
-0

>  <r_i_glide_rewards>  (329) 
0

>  <r_i_glide_evdw>  (329) 
-28.6279

>  <r_i_glide_ecoul>  (329) 
-4.81623

>  <r_i_glide_erotb>  (329) 
0

>  <r_i_glide_esite>  (329) 
-0.0512949

>  <r_i_glide_emodel>  (329) 
-39.0795

>  <r_i_glide_energy>  (329) 
-33.4441

>  <r_i_glide_einternal>  (329) 
0.020095

>  <r_i_glide_intrahb_reward>  (329) 
-0

>  <i_i_glide_confnum>  (329) 
2

>  <i_i_glide_posenum>  (329) 
1

>  <r_i_glide_eff_state_penalty>  (329) 
0

>  <ligand_id>  (329) 
107

>  <original_smiles>  (329) 
CC1C(=O)C(O)C2(C)C3CCC4C5(C)CCC6CCC(O)C(C)(C)C6C5(C)CC(=O)C4(C)C3(C)CCC12C

>  <smiles>  (329) 
[H]OC1([H])C(=O)C([H])(C([H])([H])[H])C2(C([H])([H])[H])C([H])([H])C([H])([H])C3(C([H])([H])[H])C([H])(C([H])([H])C([H])([H])C4([H])C3(C([H])([H])[H])C(=O)C([H])([H])C3(C([H])([H])[H])C5([H])C([H])(C([H])([H])C([H])([H])C([H])(O[H])C5(C([H])([H])[H])C([H])([H])[H])C([H])([H])C([H])([H])C43C([H])([H])[H])C12C([H])([H])[H]

$$$$
107:0:1
     RDKit          3D

 92 97  0  0  1  0  0  0  0  0999 V2000
    0.4936  -10.1598    2.8112 C   0  0  0  0  0  0  0  0  0  0  0  0
    0.6215   -8.7683    3.4593 C   0  0  2  0  0  0  0  0  0  0  0  0
    0.3033   -7.6474    2.4740 C   0  0  0  0  0  0  0  0  0  0  0  0
   -0.7377   -7.5632    1.8218 O   0  0  0  0  0  0  0  0  0  0  0  0
    1.4133   -6.6109    2.4128 C   0  0  1  0  0  0  0  0  0  0  0  0
    0.9320   -5.4522    3.0365 O   0  0  0  0  0  0  0  0  0  0  0  0
    2.6354   -7.3243    3.0588 C   0  0  1  0  0  0  0  0  0  0  0  0
    3.2859   -8.1074    1.8674 C   0  0  0  0  0  0  0  0  0  0  0  0
    3.7905   -6.4571    3.7278 C   0  0  1  0  0  0  0  0  0  0  0  0
    4.5628   -5.4912    2.8262 C   0  0  0  0  0  0  0  0  0  0  0  0
    3.9317   -4.1199    2.7812 C   0  0  0  0  0  0  0  0  0  0  0  0
    3.9186   -3.3876    4.1582 C   0  0  1  0  0  0  0  0  0  0  0  0
    3.4638   -1.8379    4.0418 C   0  0  2  0  0  0  0  0  0  0  0  0
    3.7541   -1.2830    2.6035 C   0  0  0  0  0  0  0  0  0  0  0  0
    4.4199   -1.0264    4.9639 C   0  0  0  0  0  0  0  0  0  0  0  0
    4.1608    0.4763    4.9813 C   0  0  0  0  0  0  0  0  0  0  0  0
    2.7436    0.7860    5.4597 C   0  0  2  0  0  0  0  0  0  0  0  0
    2.6086    0.6749    6.9933 C   0  0  0  0  0  0  0  0  0  0  0  0
    1.2301    1.1178    7.4899 C   0  0  0  0  0  0  0  0  0  0  0  0
    0.0906    0.4216    6.7270 C   0  0  1  0  0  0  0  0  0  0  0  0
   -1.1425    0.9304    7.2093 O   0  0  0  0  0  0  0  0  0  0  0  0
    0.2057    0.5442    5.1705 C   0  0  0  0  0  0  0  0  0  0  0  0
   -1.0040   -0.1817    4.5366 C   0  0  0  0  0  0  0  0  0  0  0  0
    0.0265    2.0336    4.7463 C   0  0  0  0  0  0  0  0  0  0  0  0
    1.6320    0.0245    4.6574 C   0  0  2  0  0  0  0  0  0  0  0  0
    1.9296   -1.5448    4.4116 C   0  0  1  0  0  0  0  0  0  0  0  0
    1.0428   -2.0307    3.2321 C   0  0  0  0  0  0  0  0  0  0  0  0
    1.5226   -2.3839    5.6367 C   0  0  0  0  0  0  0  0  0  0  0  0
    1.8587   -3.8785    5.5650 C   0  0  0  0  0  0  0  0  0  0  0  0
    0.9638   -4.6697    5.8176 O   0  0  0  0  0  0  0  0  0  0  0  0
    3.3480   -4.2796    5.3649 C   0  0  2  0  0  0  0  0  0  0  0  0
    3.9870   -3.8162    6.7207 C   0  0  0  0  0  0  0  0  0  0  0  0
    3.7068   -5.8850    5.2030 C   0  0  2  0  0  0  0  0  0  0  0  0
    5.1612   -6.1084    5.7737 C   0  0  0  0  0  0  0  0  0  0  0  0
    2.8649   -6.8863    6.0676 C   0  0  0  0  0  0  0  0  0  0  0  0
    1.6768   -7.6053    5.3949 C   0  0  0  0  0  0  0  0  0  0  0  0
    1.9960   -8.3435    4.0743 C   0  0  1  0  0  0  0  0  0  0  0  0
    2.9043   -9.5613    4.4039 C   0  0  0  0  0  0  0  0  0  0  0  0
   -0.5257  -10.3211    2.4640 H   0  0  0  0  0  0  0  0  0  0  0  0
    0.7168  -10.9682    3.5058 H   0  0  0  0  0  0  0  0  0  0  0  0
    1.1348  -10.2734    1.9434 H   0  0  0  0  0  0  0  0  0  0  0  0
   -0.1446   -8.7374    4.2338 H   0  0  0  0  0  0  0  0  0  0  0  0
    1.6147   -6.3510    1.3732 H   0  0  0  0  0  0  0  0  0  0  0  0
    1.6377   -4.8303    3.1213 H   0  0  0  0  0  0  0  0  0  0  0  0
    4.2051   -8.6246    2.1475 H   0  0  0  0  0  0  0  0  0  0  0  0
    3.5265   -7.4475    1.0323 H   0  0  0  0  0  0  0  0  0  0  0  0
    2.6238   -8.8564    1.4400 H   0  0  0  0  0  0  0  0  0  0  0  0
    4.5160   -7.2619    3.8174 H   0  0  0  0  0  0  0  0  0  0  0  0
    5.5854   -5.3868    3.1928 H   0  0  0  0  0  0  0  0  0  0  0  0
    4.6845   -5.8723    1.8180 H   0  0  0  0  0  0  0  0  0  0  0  0
    4.5577   -3.5814    2.0738 H   0  0  0  0  0  0  0  0  0  0  0  0
    2.9632   -4.2009    2.3083 H   0  0  0  0  0  0  0  0  0  0  0  0
    4.9897   -3.3398    4.3573 H   0  0  0  0  0  0  0  0  0  0  0  0
    3.4310   -0.2519    2.4695 H   0  0  0  0  0  0  0  0  0  0  0  0
    3.2392   -1.8279    1.8107 H   0  0  0  0  0  0  0  0  0  0  0  0
    4.8228   -1.3118    2.3745 H   0  0  0  0  0  0  0  0  0  0  0  0
    4.3647   -1.3660    5.9891 H   0  0  0  0  0  0  0  0  0  0  0  0
    5.4564   -1.1889    4.6637 H   0  0  0  0  0  0  0  0  0  0  0  0
    4.8864    0.9578    5.6379 H   0  0  0  0  0  0  0  0  0  0  0  0
    4.3321    0.9222    4.0014 H   0  0  0  0  0  0  0  0  0  0  0  0
    2.6444    1.8492    5.2428 H   0  0  0  0  0  0  0  0  0  0  0  0
    2.8187   -0.3323    7.3400 H   0  0  0  0  0  0  0  0  0  0  0  0
    3.3649    1.3014    7.4662 H   0  0  0  0  0  0  0  0  0  0  0  0
    1.1466    0.8957    8.5545 H   0  0  0  0  0  0  0  0  0  0  0  0
    1.1477    2.2000    7.4083 H   0  0  0  0  0  0  0  0  0  0  0  0
    0.0968   -0.6264    7.0100 H   0  0  0  0  0  0  0  0  0  0  0  0
   -1.1446    1.8654    7.0686 H   0  0  0  0  0  0  0  0  0  0  0  0
   -0.9304   -0.2058    3.4487 H   0  0  0  0  0  0  0  0  0  0  0  0
   -1.9426    0.3241    4.7661 H   0  0  0  0  0  0  0  0  0  0  0  0
   -1.1199   -1.1931    4.9194 H   0  0  0  0  0  0  0  0  0  0  0  0
    0.2017    2.1676    3.6760 H   0  0  0  0  0  0  0  0  0  0  0  0
    0.6964    2.7176    5.2658 H   0  0  0  0  0  0  0  0  0  0  0  0
   -0.9835    2.3956    4.9427 H   0  0  0  0  0  0  0  0  0  0  0  0
    1.7048    0.4484    3.6554 H   0  0  0  0  0  0  0  0  0  0  0  0
    0.0479   -2.3356    3.5454 H   0  0  0  0  0  0  0  0  0  0  0  0
    1.4369   -2.9093    2.7463 H   0  0  0  0  0  0  0  0  0  0  0  0
    0.9352   -1.2772    2.4490 H   0  0  0  0  0  0  0  0  0  0  0  0
    1.9396   -1.9685    6.5423 H   0  0  0  0  0  0  0  0  0  0  0  0
    0.4485   -2.3264    5.7780 H   0  0  0  0  0  0  0  0  0  0  0  0
    5.0616   -3.6544    6.6421 H   0  0  0  0  0  0  0  0  0  0  0  0
    3.8164   -4.5433    7.5126 H   0  0  0  0  0  0  0  0  0  0  0  0
    3.5963   -2.9015    7.1492 H   0  0  0  0  0  0  0  0  0  0  0  0
    5.2084   -6.0365    6.8601 H   0  0  0  0  0  0  0  0  0  0  0  0
    5.8847   -5.4020    5.3712 H   0  0  0  0  0  0  0  0  0  0  0  0
    5.5523   -7.1092    5.5812 H   0  0  0  0  0  0  0  0  0  0  0  0
    3.5058   -7.6866    6.4393 H   0  0  0  0  0  0  0  0  0  0  0  0
    2.5114   -6.4023    6.9756 H   0  0  0  0  0  0  0  0  0  0  0  0
    1.2653   -8.3200    6.1097 H   0  0  0  0  0  0  0  0  0  0  0  0
    0.8544   -6.9204    5.2308 H   0  0  0  0  0  0  0  0  0  0  0  0
    3.8770   -9.2533    4.7877 H   0  0  0  0  0  0  0  0  0  0  0  0
    3.0957  -10.1903    3.5327 H   0  0  0  0  0  0  0  0  0  0  0  0
    2.4465  -10.2039    5.1604 H   0  0  0  0  0  0  0  0  0  0  0  0
  1  2  1  0
  1 39  1  0
  1 40  1  0
  1 41  1  0
  2 37  1  0
  2  3  1  0
  2 42  1  1
  3  4  2  0
  3  5  1  0
  5  6  1  0
  5  7  1  0
  5 43  1  6
  6 44  1  0
  7 37  1  0
  7  8  1  6
  7  9  1  0
  8 45  1  0
  8 46  1  0
  8 47  1  0
  9 33  1  0
  9 10  1  0
  9 48  1  1
 10 11  1  0
 10 49  1  0
 10 50  1  0
 11 12  1  0
 11 51  1  0
 11 52  1  0
 12 31  1  0
 12 13  1  0
 12 53  1  1
 13 26  1  0
 13 14  1  6
 13 15  1  0
 14 54  1  0
 14 55  1  0
 14 56  1  0
 15 16  1  0
 15 57  1  0
 15 58  1  0
 16 17  1  0
 16 59  1  0
 16 60  1  0
 17 25  1  0
 17 18  1  0
 17 61  1  1
 18 19  1  0
 18 62  1  0
 18 63  1  0
 19 20  1  0
 19 64  1  0
 19 65  1  0
 20 21  1  0
 20 22  1  0
 20 66  1  6
 21 67  1  0
 22 23  1  0
 22 24  1  0
 22 25  1  0
 23 68  1  0
 23 69  1  0
 23 70  1  0
 24 71  1  0
 24 72  1  0
 24 73  1  0
 25 26  1  0
 25 74  1  6
 26 27  1  6
 26 28  1  0
 27 75  1  0
 27 76  1  0
 27 77  1  0
 28 29  1  0
 28 78  1  0
 28 79  1  0
 29 30  2  0
 29 31  1  0
 31 32  1  1
 31 33  1  0
 32 80  1  0
 32 81  1  0
 32 82  1  0
 33 34  1  1
 33 35  1  0
 34 83  1  0
 34 84  1  0
 34 85  1  0
 35 36  1  0
 35 86  1  0
 35 87  1  0
 36 37  1  0
 36 88  1  0
 36 89  1  0
 37 38  1  1
 38 90  1  0
 38 91  1  0
 38 92  1  0
M  END
>  <i_m_ct_stereo_status>  (330) 
1

>  <s_m_source_file>  (330) 
/var/tmp/pbs.5076255.sched01/tmpajq2dbrl/12675ddggds.sdf

>  <i_m_source_file_index>  (330) 
26

>  <i_lp_mmshare_version>  (330) 
48012

>  <i_f3d_flags>  (330) 
0

>  <s_epik_input>  (330) 
W09IXVtDQEBIXTFDKD1PKVtDQEBIXShbQ0gzXSlbQ0BdMihbQ0gzXSlbQ0gyXVtDSDJdW0NAQF0oW0NIM10pKFtDQEhdM1tDQF0xMltDSDNdKVtDQEBdNChbQ0gzXSlbQ0BASF0oW0NIMl1bQ0gyXTMpW0NAQF01KFtDSDNdKVtDQEBdKFtDSDNdKShbQ0gyXUM0PU8pW0NAQEhdNltDQEhdKFtDSDJdW0NIMl01KVtDSDJdW0NIMl1bQ0BASF0oW09IXSlDNihbQ0gzXSlbQ0gzXQ==

>  <s_epik_cmdline>  (330) 
J2VwaWtfcHl0aG9uJywgJy1waHQnLCAnMi4wJywgJy1waCcsICc3LjAnLCAnLXRuJywgJzgnLCAnLW1hJywgJzIwMCcsICctaW1hZScsICc8aW5maWxlLm1hZT4nLCAnLW9tYWUnLCAnPG91dGZpbGUubWFlPic=

>  <r_lp_tautomer_probability>  (330) 
1

>  <r_epik_Ionization_Penalty>  (330) 
2.67414e-06

>  <r_epik_Ionization_Penalty_Charging>  (330) 
0

>  <r_epik_Ionization_Penalty_Neutral>  (330) 
2.67414e-06

>  <r_epik_State_Penalty>  (330) 
-0

>  <r_epik_Charging_Adjusted_Penalty>  (330) 
0

>  <i_epik_Tot_Q>  (330) 
0

>  <i_epik_Tot_abs_Q>  (330) 
0

>  <s_lp_Force_Field>  (330) 
OPLS3e

>  <r_lp_Energy>  (330) 
147.631

>  <b_lp_Chiralities_Consistent>  (330) 
1

>  <s_lp_Variant>  (330) 
107:0-1

>  <s_i_glide_gridfile>  (330) 
pfpi4k_grid

>  <i_i_glide_lignum>  (330) 
26

>  <i_i_glide_rotatable_bonds>  (330) 
2

>  <r_i_docking_score>  (330) 
-2.31884

>  <r_i_glide_ligand_efficiency>  (330) 
-0.061022

>  <r_i_glide_ligand_efficiency_sa>  (330) 
-0.205154

>  <r_i_glide_ligand_efficiency_ln>  (330) 
-0.500009

>  <r_i_glide_gscore>  (330) 
-2.31884

>  <r_i_glide_lipo>  (330) 
-0.1343

>  <r_i_glide_hbond>  (330) 
-0.0859966

>  <r_i_glide_metal>  (330) 
-0

>  <r_i_glide_rewards>  (330) 
0

>  <r_i_glide_evdw>  (330) 
-28.5879

>  <r_i_glide_ecoul>  (330) 
-4.13158

>  <r_i_glide_erotb>  (330) 
0

>  <r_i_glide_esite>  (330) 
-0.0494085

>  <r_i_glide_emodel>  (330) 
-38.0874

>  <r_i_glide_energy>  (330) 
-32.7194

>  <r_i_glide_einternal>  (330) 
0.030683

>  <r_i_glide_intrahb_reward>  (330) 
-0

>  <i_i_glide_confnum>  (330) 
1

>  <i_i_glide_posenum>  (330) 
24

>  <r_i_glide_eff_state_penalty>  (330) 
0

>  <ligand_id>  (330) 
107

>  <original_smiles>  (330) 
CC1C(=O)C(O)C2(C)C3CCC4C5(C)CCC6CCC(O)C(C)(C)C6C5(C)CC(=O)C4(C)C3(C)CCC12C

>  <smiles>  (330) 
[H]OC1([H])C(=O)C([H])(C([H])([H])[H])C2(C([H])([H])[H])C([H])([H])C([H])([H])C3(C([H])([H])[H])C([H])(C([H])([H])C([H])([H])C4([H])C3(C([H])([H])[H])C(=O)C([H])([H])C3(C([H])([H])[H])C5([H])C([H])(C([H])([H])C([H])([H])C([H])(O[H])C5(C([H])([H])[H])C([H])([H])[H])C([H])([H])C([H])([H])C43C([H])([H])[H])C12C([H])([H])[H]

$$$$
107:0:2
     RDKit          3D

 92 97  0  0  1  0  0  0  0  0999 V2000
   -0.4918   -9.7228    2.5015 C   0  0  0  0  0  0  0  0  0  0  0  0
   -0.2521   -8.5624    3.4821 C   0  0  2  0  0  0  0  0  0  0  0  0
    0.1407   -7.2789    2.7598 C   0  0  0  0  0  0  0  0  0  0  0  0
   -0.5196   -6.7466    1.8607 O   0  0  0  0  0  0  0  0  0  0  0  0
    1.4263   -6.6922    3.3201 C   0  0  1  0  0  0  0  0  0  0  0  0
    1.0693   -5.5406    4.0389 O   0  0  0  0  0  0  0  0  0  0  0  0
    2.0697   -7.8693    4.1169 C   0  0  1  0  0  0  0  0  0  0  0  0
    2.8817   -8.6610    3.0355 C   0  0  0  0  0  0  0  0  0  0  0  0
    3.0758   -7.5604    5.3123 C   0  0  1  0  0  0  0  0  0  0  0  0
    4.3662   -6.8103    4.9745 C   0  0  0  0  0  0  0  0  0  0  0  0
    4.2020   -5.3131    5.0797 C   0  0  0  0  0  0  0  0  0  0  0  0
    3.8692   -4.8168    6.5199 C   0  0  1  0  0  0  0  0  0  0  0  0
    3.9371   -3.2053    6.6607 C   0  0  2  0  0  0  0  0  0  0  0  0
    4.8924   -2.5956    5.5765 C   0  0  0  0  0  0  0  0  0  0  0  0
    4.6552   -2.9102    8.0103 C   0  0  0  0  0  0  0  0  0  0  0  0
    4.8335   -1.4287    8.3247 C   0  0  0  0  0  0  0  0  0  0  0  0
    3.4857   -0.7159    8.3953 C   0  0  2  0  0  0  0  0  0  0  0  0
    2.7569   -0.9806    9.7303 C   0  0  0  0  0  0  0  0  0  0  0  0
    1.4748   -0.1569    9.8641 C   0  0  0  0  0  0  0  0  0  0  0  0
    0.5699   -0.2999    8.6298 C   0  0  1  0  0  0  0  0  0  0  0  0
   -0.5588    0.5387    8.8044 O   0  0  0  0  0  0  0  0  0  0  0  0
    1.2912   -0.0181    7.2709 C   0  0  0  0  0  0  0  0  0  0  0  0
    0.2602   -0.1874    6.1301 C   0  0  0  0  0  0  0  0  0  0  0  0
    1.7008    1.4842    7.2034 C   0  0  0  0  0  0  0  0  0  0  0  0
    2.6000   -0.9262    7.1177 C   0  0  2  0  0  0  0  0  0  0  0  0
    2.5220   -2.4519    6.5856 C   0  0  1  0  0  0  0  0  0  0  0  0
    2.0522   -2.4325    5.0999 C   0  0  0  0  0  0  0  0  0  0  0  0
    1.4680   -3.2560    7.3707 C   0  0  0  0  0  0  0  0  0  0  0  0
    1.3804   -4.7515    7.0385 C   0  0  0  0  0  0  0  0  0  0  0  0
    0.2752   -5.2125    6.8016 O   0  0  0  0  0  0  0  0  0  0  0  0
    2.6630   -5.6121    7.2212 C   0  0  2  0  0  0  0  0  0  0  0  0
    2.8417   -5.5875    8.7804 C   0  0  0  0  0  0  0  0  0  0  0  0
    2.6003   -7.2042    6.7812 C   0  0  2  0  0  0  0  0  0  0  0  0
    3.6084   -7.9933    7.7039 C   0  0  0  0  0  0  0  0  0  0  0  0
    1.2538   -7.9608    7.0550 C   0  0  0  0  0  0  0  0  0  0  0  0
    0.2631   -8.1241    5.8831 C   0  0  0  0  0  0  0  0  0  0  0  0
    0.8433   -8.7350    4.5875 C   0  0  1  0  0  0  0  0  0  0  0  0
    1.1864  -10.2261    4.8704 C   0  0  0  0  0  0  0  0  0  0  0  0
   -1.3146   -9.4957    1.8244 H   0  0  0  0  0  0  0  0  0  0  0  0
   -0.7544  -10.6299    3.0356 H   0  0  0  0  0  0  0  0  0  0  0  0
    0.3761   -9.9590    1.8953 H   0  0  0  0  0  0  0  0  0  0  0  0
   -1.2142   -8.3816    3.9617 H   0  0  0  0  0  0  0  0  0  0  0  0
    2.0724   -6.3731    2.5022 H   0  0  0  0  0  0  0  0  0  0  0  0
    1.8388   -5.1997    4.4641 H   0  0  0  0  0  0  0  0  0  0  0  0
    3.4449   -9.4977    3.4519 H   0  0  0  0  0  0  0  0  0  0  0  0
    3.5927   -8.0200    2.5133 H   0  0  0  0  0  0  0  0  0  0  0  0
    2.2544   -9.0696    2.2483 H   0  0  0  0  0  0  0  0  0  0  0  0
    3.4608   -8.5711    5.4194 H   0  0  0  0  0  0  0  0  0  0  0  0
    5.1597   -7.1180    5.6575 H   0  0  0  0  0  0  0  0  0  0  0  0
    4.7521   -7.0688    3.9938 H   0  0  0  0  0  0  0  0  0  0  0  0
    5.1718   -4.9338    4.7649 H   0  0  0  0  0  0  0  0  0  0  0  0
    3.5022   -4.9891    4.3222 H   0  0  0  0  0  0  0  0  0  0  0  0
    4.7534   -5.1706    7.0514 H   0  0  0  0  0  0  0  0  0  0  0  0
    4.9409   -1.5086    5.6125 H   0  0  0  0  0  0  0  0  0  0  0  0
    4.5894   -2.8148    4.5522 H   0  0  0  0  0  0  0  0  0  0  0  0
    5.9152   -2.9616    5.6961 H   0  0  0  0  0  0  0  0  0  0  0  0
    4.1254   -3.3455    8.8463 H   0  0  0  0  0  0  0  0  0  0  0  0
    5.6408   -3.3790    8.0219 H   0  0  0  0  0  0  0  0  0  0  0  0
    5.3576   -1.3232    9.2755 H   0  0  0  0  0  0  0  0  0  0  0  0
    5.4786   -0.9411    7.5943 H   0  0  0  0  0  0  0  0  0  0  0  0
    3.7711    0.3352    8.4346 H   0  0  0  0  0  0  0  0  0  0  0  0
    2.5328   -2.0346    9.8599 H   0  0  0  0  0  0  0  0  0  0  0  0
    3.4185   -0.7264   10.5589 H   0  0  0  0  0  0  0  0  0  0  0  0
    0.9327   -0.4804   10.7537 H   0  0  0  0  0  0  0  0  0  0  0  0
    1.7294    0.8871   10.0393 H   0  0  0  0  0  0  0  0  0  0  0  0
    0.1821   -1.3143    8.6270 H   0  0  0  0  0  0  0  0  0  0  0  0
   -0.2499    1.4152    8.9841 H   0  0  0  0  0  0  0  0  0  0  0  0
    0.7247   -0.0879    5.1483 H   0  0  0  0  0  0  0  0  0  0  0  0
   -0.5172    0.5759    6.1759 H   0  0  0  0  0  0  0  0  0  0  0  0
   -0.2649   -1.1377    6.1905 H   0  0  0  0  0  0  0  0  0  0  0  0
    2.2960    1.6953    6.3129 H   0  0  0  0  0  0  0  0  0  0  0  0
    2.2801    1.8158    8.0634 H   0  0  0  0  0  0  0  0  0  0  0  0
    0.8312    2.1414    7.1589 H   0  0  0  0  0  0  0  0  0  0  0  0
    3.1611   -0.4213    6.3312 H   0  0  0  0  0  0  0  0  0  0  0  0
    0.9707   -2.4110    4.9920 H   0  0  0  0  0  0  0  0  0  0  0  0
    2.3436   -3.3190    4.5584 H   0  0  0  0  0  0  0  0  0  0  0  0
    2.4608   -1.5885    4.5428 H   0  0  0  0  0  0  0  0  0  0  0  0
    1.6101   -3.1379    8.4348 H   0  0  0  0  0  0  0  0  0  0  0  0
    0.4806   -2.8497    7.1794 H   0  0  0  0  0  0  0  0  0  0  0  0
    3.8662   -5.7989    9.0860 H   0  0  0  0  0  0  0  0  0  0  0  0
    2.1926   -6.3120    9.2687 H   0  0  0  0  0  0  0  0  0  0  0  0
    2.5852   -4.6621    9.2803 H   0  0  0  0  0  0  0  0  0  0  0  0
    3.2592   -8.0919    8.7318 H   0  0  0  0  0  0  0  0  0  0  0  0
    4.5944   -7.5342    7.7410 H   0  0  0  0  0  0  0  0  0  0  0  0
    3.7521   -9.0314    7.3990 H   0  0  0  0  0  0  0  0  0  0  0  0
    1.4608   -8.9770    7.3942 H   0  0  0  0  0  0  0  0  0  0  0  0
    0.7314   -7.5138    7.8980 H   0  0  0  0  0  0  0  0  0  0  0  0
   -0.5643   -8.7489    6.2232 H   0  0  0  0  0  0  0  0  0  0  0  0
   -0.2143   -7.1804    5.6503 H   0  0  0  0  0  0  0  0  0  0  0  0
    1.9817  -10.3341    5.6077 H   0  0  0  0  0  0  0  0  0  0  0  0
    1.5137  -10.7609    3.9779 H   0  0  0  0  0  0  0  0  0  0  0  0
    0.3197  -10.7663    5.2587 H   0  0  0  0  0  0  0  0  0  0  0  0
  1  2  1  0
  1 39  1  0
  1 40  1  0
  1 41  1  0
  2 37  1  0
  2  3  1  0
  2 42  1  1
  3  4  2  0
  3  5  1  0
  5  6  1  0
  5  7  1  0
  5 43  1  6
  6 44  1  0
  7 37  1  0
  7  8  1  6
  7  9  1  0
  8 45  1  0
  8 46  1  0
  8 47  1  0
  9 33  1  0
  9 10  1  0
  9 48  1  1
 10 11  1  0
 10 49  1  0
 10 50  1  0
 11 12  1  0
 11 51  1  0
 11 52  1  0
 12 31  1  0
 12 13  1  0
 12 53  1  1
 13 26  1  0
 13 14  1  6
 13 15  1  0
 14 54  1  0
 14 55  1  0
 14 56  1  0
 15 16  1  0
 15 57  1  0
 15 58  1  0
 16 17  1  0
 16 59  1  0
 16 60  1  0
 17 25  1  0
 17 18  1  0
 17 61  1  1
 18 19  1  0
 18 62  1  0
 18 63  1  0
 19 20  1  0
 19 64  1  0
 19 65  1  0
 20 21  1  0
 20 22  1  0
 20 66  1  6
 21 67  1  0
 22 23  1  0
 22 24  1  0
 22 25  1  0
 23 68  1  0
 23 69  1  0
 23 70  1  0
 24 71  1  0
 24 72  1  0
 24 73  1  0
 25 26  1  0
 25 74  1  6
 26 27  1  6
 26 28  1  0
 27 75  1  0
 27 76  1  0
 27 77  1  0
 28 29  1  0
 28 78  1  0
 28 79  1  0
 29 30  2  0
 29 31  1  0
 31 32  1  1
 31 33  1  0
 32 80  1  0
 32 81  1  0
 32 82  1  0
 33 34  1  1
 33 35  1  0
 34 83  1  0
 34 84  1  0
 34 85  1  0
 35 36  1  0
 35 86  1  0
 35 87  1  0
 36 37  1  0
 36 88  1  0
 36 89  1  0
 37 38  1  1
 38 90  1  0
 38 91  1  0
 38 92  1  0
M  END
>  <i_m_ct_stereo_status>  (331) 
1

>  <s_m_source_file>  (331) 
/var/tmp/pbs.5076255.sched01/tmpajq2dbrl/12675ddggds.sdf

>  <i_m_source_file_index>  (331) 
26

>  <i_lp_mmshare_version>  (331) 
48012

>  <i_f3d_flags>  (331) 
0

>  <s_epik_input>  (331) 
W09IXVtDQEBIXTFDKD1PKVtDQEBIXShbQ0gzXSlbQ0BdMihbQ0gzXSlbQ0gyXVtDSDJdW0NAQF0oW0NIM10pKFtDQEhdM1tDQF0xMltDSDNdKVtDQEBdNChbQ0gzXSlbQ0BASF0oW0NIMl1bQ0gyXTMpW0NAQF01KFtDSDNdKVtDQEBdKFtDSDNdKShbQ0gyXUM0PU8pW0NAQEhdNltDQEhdKFtDSDJdW0NIMl01KVtDSDJdW0NIMl1bQ0BASF0oW09IXSlDNihbQ0gzXSlbQ0gzXQ==

>  <s_epik_cmdline>  (331) 
J2VwaWtfcHl0aG9uJywgJy1waHQnLCAnMi4wJywgJy1waCcsICc3LjAnLCAnLXRuJywgJzgnLCAnLW1hJywgJzIwMCcsICctaW1hZScsICc8aW5maWxlLm1hZT4nLCAnLW9tYWUnLCAnPG91dGZpbGUubWFlPic=

>  <r_lp_tautomer_probability>  (331) 
1

>  <r_epik_Ionization_Penalty>  (331) 
2.67414e-06

>  <r_epik_Ionization_Penalty_Charging>  (331) 
0

>  <r_epik_Ionization_Penalty_Neutral>  (331) 
2.67414e-06

>  <r_epik_State_Penalty>  (331) 
-0

>  <r_epik_Charging_Adjusted_Penalty>  (331) 
0

>  <i_epik_Tot_Q>  (331) 
0

>  <i_epik_Tot_abs_Q>  (331) 
0

>  <s_lp_Force_Field>  (331) 
OPLS3e

>  <r_lp_Energy>  (331) 
147.631

>  <b_lp_Chiralities_Consistent>  (331) 
1

>  <s_lp_Variant>  (331) 
107:0-1

>  <s_i_glide_gridfile>  (331) 
pfpi4k_grid

>  <i_i_glide_lignum>  (331) 
26

>  <i_i_glide_rotatable_bonds>  (331) 
2

>  <r_i_docking_score>  (331) 
-2.13273

>  <r_i_glide_ligand_efficiency>  (331) 
-0.0561246

>  <r_i_glide_ligand_efficiency_sa>  (331) 
-0.188689

>  <r_i_glide_ligand_efficiency_ln>  (331) 
-0.45988

>  <r_i_glide_gscore>  (331) 
-2.13273

>  <r_i_glide_lipo>  (331) 
-0.0862313

>  <r_i_glide_hbond>  (331) 
-0.168471

>  <r_i_glide_metal>  (331) 
-0

>  <r_i_glide_rewards>  (331) 
0

>  <r_i_glide_evdw>  (331) 
-22.0305

>  <r_i_glide_ecoul>  (331) 
-4.80268

>  <r_i_glide_erotb>  (331) 
0

>  <r_i_glide_esite>  (331) 
-0.0561048

>  <r_i_glide_emodel>  (331) 
-31.724

>  <r_i_glide_energy>  (331) 
-26.8332

>  <r_i_glide_einternal>  (331) 
0.0632763

>  <r_i_glide_intrahb_reward>  (331) 
-0

>  <i_i_glide_confnum>  (331) 
1

>  <i_i_glide_posenum>  (331) 
26

>  <r_i_glide_eff_state_penalty>  (331) 
0

>  <ligand_id>  (331) 
107

>  <original_smiles>  (331) 
CC1C(=O)C(O)C2(C)C3CCC4C5(C)CCC6CCC(O)C(C)(C)C6C5(C)CC(=O)C4(C)C3(C)CCC12C

>  <smiles>  (331) 
[H]OC1([H])C(=O)C([H])(C([H])([H])[H])C2(C([H])([H])[H])C([H])([H])C([H])([H])C3(C([H])([H])[H])C([H])(C([H])([H])C([H])([H])C4([H])C3(C([H])([H])[H])C(=O)C([H])([H])C3(C([H])([H])[H])C5([H])C([H])(C([H])([H])C([H])([H])C([H])(O[H])C5(C([H])([H])[H])C([H])([H])[H])C([H])([H])C([H])([H])C43C([H])([H])[H])C12C([H])([H])[H]

$$$$
108:0:0
     RDKit          3D

 38 43  0  0  1  0  0  0  0  0999 V2000
    2.0314   -4.2373   -0.8748 O   0  0  0  0  0  0  0  0  0  0  0  0
    2.6597   -3.0909   -1.4036 C   0  0  2  0  0  0  0  0  0  0  0  0
    4.0908   -3.2454   -1.8896 C   0  0  2  0  0  0  0  0  0  0  0  0
    5.0715   -4.1713   -0.9873 C   0  0  2  0  0  0  0  0  0  0  0  0
    4.8518   -5.0714    0.3263 C   0  0  2  0  0  0  0  0  0  0  0  0
    4.1512   -4.5640    1.6703 C   0  0  0  0  0  0  0  0  0  0  0  0
    5.0331   -3.6706    2.6815 C   0  0  0  0  0  0  0  0  0  0  0  0
    6.1710   -2.9093    2.1024 N   0  0  0  0  0  0  0  0  0  0  0  0
    6.1692   -1.3692    2.0137 C   0  0  0  0  0  0  0  0  0  0  0  0
    5.3841   -0.4403    0.8714 C   0  0  0  0  0  0  0  0  0  0  0  0
    5.2145   -1.1150   -0.4739 N   0  0  1  0  0  0  0  0  0  0  0  0
    4.1708   -1.6108   -1.5410 C   0  0  2  0  0  0  0  0  0  0  0  0
    3.2845   -2.0157   -0.4586 C   0  0  2  0  0  0  0  0  0  0  0  0
    4.6669   -2.2063    0.1633 C   0  0  1  0  0  0  0  0  0  0  0  0
    5.8204   -3.1602   -0.2500 C   0  0  1  0  0  0  0  0  0  0  0  0
    6.6544   -3.6450    0.8933 C   0  0  2  0  0  0  0  0  0  0  0  0
    6.3143   -5.1446    0.8227 C   0  0  0  0  0  0  0  0  0  0  0  0
    2.2507   -4.9615   -1.4738 H   0  0  0  0  0  0  0  0  0  0  0  0
    2.0323   -2.6612   -2.1935 H   0  0  0  0  0  0  0  0  0  0  0  0
    4.1633   -3.4119   -2.9727 H   0  0  0  0  0  0  0  0  0  0  0  0
    5.7509   -4.6616   -1.6757 H   0  0  0  0  0  0  0  0  0  0  0  0
    4.4505   -6.0491    0.0436 H   0  0  0  0  0  0  0  0  0  0  0  0
    3.1898   -4.0922    1.4735 H   0  0  0  0  0  0  0  0  0  0  0  0
    3.8874   -5.4551    2.2366 H   0  0  0  0  0  0  0  0  0  0  0  0
    4.4014   -3.0192    3.2976 H   0  0  0  0  0  0  0  0  0  0  0  0
    5.5162   -4.3539    3.3833 H   0  0  0  0  0  0  0  0  0  0  0  0
    5.8105   -1.0125    2.9834 H   0  0  0  0  0  0  0  0  0  0  0  0
    7.2242   -1.1011    1.9699 H   0  0  0  0  0  0  0  0  0  0  0  0
    4.4817    0.0652    1.2477 H   0  0  0  0  0  0  0  0  0  0  0  0
    6.0660    0.3707    0.6342 H   0  0  0  0  0  0  0  0  0  0  0  0
    3.7063   -0.8928   -2.2202 H   0  0  0  0  0  0  0  0  0  0  0  0
    2.6587   -1.1831   -0.0765 H   0  0  0  0  0  0  0  0  0  0  0  0
    4.1649   -2.2060    1.1307 H   0  0  0  0  0  0  0  0  0  0  0  0
    6.5394   -2.7854   -0.9893 H   0  0  0  0  0  0  0  0  0  0  0  0
    7.7037   -3.4337    0.7153 H   0  0  0  0  0  0  0  0  0  0  0  0
    6.4595   -5.6910    1.7532 H   0  0  0  0  0  0  0  0  0  0  0  0
    6.9417   -5.6300    0.0777 H   0  0  0  0  0  0  0  0  0  0  0  0
    6.1211   -1.3883   -0.7992 H   0  0  0  0  0  0  0  0  0  0  0  0
  1  2  1  0
  1 18  1  0
  2 13  1  0
  2  3  1  0
  2 19  1  6
  3 12  1  0
  3  4  1  0
  3 20  1  6
  4 15  1  0
  4  5  1  0
  4 21  1  6
  5 17  1  0
  5  6  1  0
  5 22  1  6
  6  7  1  0
  6 23  1  0
  6 24  1  0
  7  8  1  0
  7 25  1  0
  7 26  1  0
  8 16  1  0
  8  9  1  0
  9 10  1  0
  9 27  1  0
  9 28  1  0
 10 11  1  0
 10 29  1  0
 10 30  1  0
 11 14  1  0
 11 12  1  0
 11 38  1  6
 12 13  1  0
 12 31  1  6
 13 14  1  0
 13 32  1  1
 14 15  1  0
 14 33  1  1
 15 16  1  0
 15 34  1  6
 16 17  1  0
 16 35  1  6
 17 36  1  0
 17 37  1  0
M  CHG  1  11   1
M  END
>  <i_m_ct_stereo_status>  (332) 
1

>  <s_m_source_file>  (332) 
/var/tmp/pbs.5076255.sched01/tmpajq2dbrl/12675ddggds.sdf

>  <i_m_source_file_index>  (332) 
27

>  <i_lp_mmshare_version>  (332) 
48012

>  <i_f3d_flags>  (332) 
0

>  <s_epik_input>  (332) 
W09IXVtDQEhdMVtDQEBIXTJbQ0BIXTNOKFtDSDJdW0NIMl00KVtDQEBIXTJbQ0BIXTVbQ0BIXShbQ0gyXTYpTjRbQ0gyXVtDSDJdW0NASF02W0NASF01W0NAQEhdMTM=

>  <s_epik_cmdline>  (332) 
J2VwaWtfcHl0aG9uJywgJy1waHQnLCAnMi4wJywgJy1waCcsICc3LjAnLCAnLXRuJywgJzgnLCAnLW1hJywgJzIwMCcsICctaW1hZScsICc8aW5maWxlLm1hZT4nLCAnLW9tYWUnLCAnPG91dGZpbGUubWFlPic=

>  <r_epik_Ionization_Penalty>  (332) 
0.00669984

>  <r_epik_Ionization_Penalty_Charging>  (332) 
0.000150361

>  <r_epik_Ionization_Penalty_Neutral>  (332) 
0.00654948

>  <r_epik_State_Penalty>  (332) 
0.163191

>  <r_epik_Charging_Adjusted_Penalty>  (332) 
0.163341

>  <i_epik_Tot_Q>  (332) 
1

>  <i_epik_Tot_abs_Q>  (332) 
1

>  <s_lp_Force_Field>  (332) 
OPLS3e

>  <r_lp_Energy>  (332) 
272.76

>  <b_lp_Chiralities_Consistent>  (332) 
1

>  <s_lp_Variant>  (332) 
108:0-1

>  <s_i_glide_gridfile>  (332) 
pfpi4k_grid

>  <i_i_glide_lignum>  (332) 
27

>  <i_i_glide_rotatable_bonds>  (332) 
1

>  <r_i_docking_score>  (332) 
-4.23736

>  <r_i_glide_ligand_efficiency>  (332) 
-0.249257

>  <r_i_glide_ligand_efficiency_sa>  (332) 
-0.640909

>  <r_i_glide_ligand_efficiency_ln>  (332) 
-1.10543

>  <r_i_glide_gscore>  (332) 
-4.23736

>  <r_i_glide_lipo>  (332) 
-0.687558

>  <r_i_glide_hbond>  (332) 
-0.32

>  <r_i_glide_metal>  (332) 
-0

>  <r_i_glide_rewards>  (332) 
-1.81821

>  <r_i_glide_evdw>  (332) 
-10.6876

>  <r_i_glide_ecoul>  (332) 
-5.65161

>  <r_i_glide_erotb>  (332) 
0

>  <r_i_glide_esite>  (332) 
-0.0294717

>  <r_i_glide_emodel>  (332) 
-20.0679

>  <r_i_glide_energy>  (332) 
-16.3392

>  <r_i_glide_einternal>  (332) 
1.3503

>  <r_i_glide_intrahb_reward>  (332) 
-0

>  <i_i_glide_confnum>  (332) 
1

>  <i_i_glide_posenum>  (332) 
1

>  <r_i_glide_eff_state_penalty>  (332) 
0

>  <ligand_id>  (332) 
108

>  <original_smiles>  (332) 
OC1C2C3C4CCN5CCN6C2C1C6C3C5C4

>  <smiles>  (332) 
[H]OC1([H])C2([H])C3([H])C4([H])C([H])([H])C([H])([H])N5C([H])([H])C([H])([H])[N+]6([H])C2([H])C1([H])C6([H])C3([H])C5([H])C4([H])[H]

$$$$
108:0:1
     RDKit          3D

 38 43  0  0  1  0  0  0  0  0999 V2000
    1.9400   -3.7284   -1.8984 O   0  0  0  0  0  0  0  0  0  0  0  0
    3.0424   -2.9067   -2.2255 C   0  0  2  0  0  0  0  0  0  0  0  0
    4.4455   -3.4519   -1.9977 C   0  0  2  0  0  0  0  0  0  0  0  0
    4.7065   -4.3618   -0.6774 C   0  0  2  0  0  0  0  0  0  0  0  0
    3.7603   -4.9345    0.4895 C   0  0  2  0  0  0  0  0  0  0  0  0
    2.7393   -4.0541    1.3295 C   0  0  0  0  0  0  0  0  0  0  0  0
    3.3258   -3.1684    2.5381 C   0  0  0  0  0  0  0  0  0  0  0  0
    4.7667   -2.7758    2.4662 N   0  0  0  0  0  0  0  0  0  0  0  0
    5.1832   -1.3094    2.2453 C   0  0  0  0  0  0  0  0  0  0  0  0
    5.1643   -0.4663    0.8066 C   0  0  0  0  0  0  0  0  0  0  0  0
    5.3893   -1.3404   -0.4285 N   0  0  1  0  0  0  0  0  0  0  0  0
    4.7990   -1.8220   -1.7983 C   0  0  2  0  0  0  0  0  0  0  0  0
    3.4749   -1.8199   -1.2342 C   0  0  2  0  0  0  0  0  0  0  0  0
    4.3496   -2.1483   -0.0118 C   0  0  1  0  0  0  0  0  0  0  0  0
    5.3116   -3.3722    0.2100 C   0  0  1  0  0  0  0  0  0  0  0  0
    5.4756   -3.7858    1.6538 C   0  0  2  0  0  0  0  0  0  0  0  0
    4.8374   -5.1937    1.5685 C   0  0  0  0  0  0  0  0  0  0  0  0
    2.1652   -4.5963   -2.2221 H   0  0  0  0  0  0  0  0  0  0  0  0
    2.9549   -2.5324   -3.2410 H   0  0  0  0  0  0  0  0  0  0  0  0
    4.9258   -3.8184   -2.9136 H   0  0  0  0  0  0  0  0  0  0  0  0
    5.4304   -5.1336   -0.9241 H   0  0  0  0  0  0  0  0  0  0  0  0
    3.2808   -5.8516    0.1398 H   0  0  0  0  0  0  0  0  0  0  0  0
    2.1167   -3.4443    0.6756 H   0  0  0  0  0  0  0  0  0  0  0  0
    2.0474   -4.7539    1.7952 H   0  0  0  0  0  0  0  0  0  0  0  0
    2.6793   -2.3106    2.7409 H   0  0  0  0  0  0  0  0  0  0  0  0
    3.2859   -3.7813    3.4354 H   0  0  0  0  0  0  0  0  0  0  0  0
    4.5621   -0.7120    2.9128 H   0  0  0  0  0  0  0  0  0  0  0  0
    6.1972   -1.2338    2.6456 H   0  0  0  0  0  0  0  0  0  0  0  0
    4.3274    0.2371    0.6968 H   0  0  0  0  0  0  0  0  0  0  0  0
    6.0578    0.1576    0.8181 H   0  0  0  0  0  0  0  0  0  0  0  0
    4.8402   -1.1734   -2.6809 H   0  0  0  0  0  0  0  0  0  0  0  0
    3.0301   -0.8194   -1.3058 H   0  0  0  0  0  0  0  0  0  0  0  0
    3.5130   -1.8635    0.6376 H   0  0  0  0  0  0  0  0  0  0  0  0
    6.3563   -3.2929   -0.1448 H   0  0  0  0  0  0  0  0  0  0  0  0
    6.5307   -3.8214    1.9409 H   0  0  0  0  0  0  0  0  0  0  0  0
    4.4422   -5.5729    2.5152 H   0  0  0  0  0  0  0  0  0  0  0  0
    5.5705   -5.9134    1.1977 H   0  0  0  0  0  0  0  0  0  0  0  0
    6.2489   -1.8394   -0.2764 H   0  0  0  0  0  0  0  0  0  0  0  0
  1  2  1  0
  1 18  1  0
  2 13  1  0
  2  3  1  0
  2 19  1  6
  3 12  1  0
  3  4  1  0
  3 20  1  6
  4 15  1  0
  4  5  1  0
  4 21  1  6
  5 17  1  0
  5  6  1  0
  5 22  1  6
  6  7  1  0
  6 23  1  0
  6 24  1  0
  7  8  1  0
  7 25  1  0
  7 26  1  0
  8 16  1  0
  8  9  1  0
  9 10  1  0
  9 27  1  0
  9 28  1  0
 10 11  1  0
 10 29  1  0
 10 30  1  0
 11 14  1  0
 11 12  1  0
 11 38  1  1
 12 13  1  0
 12 31  1  6
 13 14  1  0
 13 32  1  1
 14 15  1  0
 14 33  1  1
 15 16  1  0
 15 34  1  6
 16 17  1  0
 16 35  1  1
 17 36  1  0
 17 37  1  0
M  CHG  1  11   1
M  END
>  <i_m_ct_stereo_status>  (333) 
1

>  <s_m_source_file>  (333) 
/var/tmp/pbs.5076255.sched01/tmpajq2dbrl/12675ddggds.sdf

>  <i_m_source_file_index>  (333) 
27

>  <i_lp_mmshare_version>  (333) 
48012

>  <i_f3d_flags>  (333) 
0

>  <s_epik_input>  (333) 
W09IXVtDQEhdMVtDQEBIXTJbQ0BIXTNOKFtDSDJdW0NIMl00KVtDQEBIXTJbQ0BIXTVbQ0BIXShbQ0gyXTYpTjRbQ0gyXVtDSDJdW0NASF02W0NASF01W0NAQEhdMTM=

>  <s_epik_cmdline>  (333) 
J2VwaWtfcHl0aG9uJywgJy1waHQnLCAnMi4wJywgJy1waCcsICc3LjAnLCAnLXRuJywgJzgnLCAnLW1hJywgJzIwMCcsICctaW1hZScsICc8aW5maWxlLm1hZT4nLCAnLW9tYWUnLCAnPG91dGZpbGUubWFlPic=

>  <r_epik_Ionization_Penalty>  (333) 
0.00669984

>  <r_epik_Ionization_Penalty_Charging>  (333) 
0.000150361

>  <r_epik_Ionization_Penalty_Neutral>  (333) 
0.00654948

>  <r_epik_State_Penalty>  (333) 
0.163191

>  <r_epik_Charging_Adjusted_Penalty>  (333) 
0.163341

>  <i_epik_Tot_Q>  (333) 
1

>  <i_epik_Tot_abs_Q>  (333) 
1

>  <s_lp_Force_Field>  (333) 
OPLS3e

>  <r_lp_Energy>  (333) 
272.76

>  <b_lp_Chiralities_Consistent>  (333) 
1

>  <s_lp_Variant>  (333) 
108:0-1

>  <s_i_glide_gridfile>  (333) 
pfpi4k_grid

>  <i_i_glide_lignum>  (333) 
27

>  <i_i_glide_rotatable_bonds>  (333) 
1

>  <r_i_docking_score>  (333) 
-4.18622

>  <r_i_glide_ligand_efficiency>  (333) 
-0.246248

>  <r_i_glide_ligand_efficiency_sa>  (333) 
-0.633174

>  <r_i_glide_ligand_efficiency_ln>  (333) 
-1.09209

>  <r_i_glide_gscore>  (333) 
-4.18622

>  <r_i_glide_lipo>  (333) 
-0.400174

>  <r_i_glide_hbond>  (333) 
-0.32

>  <r_i_glide_metal>  (333) 
-0

>  <r_i_glide_rewards>  (333) 
-1.81821

>  <r_i_glide_evdw>  (333) 
-18.0433

>  <r_i_glide_ecoul>  (333) 
-4.76783

>  <r_i_glide_erotb>  (333) 
0

>  <r_i_glide_esite>  (333) 
-0.0305

>  <r_i_glide_emodel>  (333) 
-26.6736

>  <r_i_glide_energy>  (333) 
-22.8111

>  <r_i_glide_einternal>  (333) 
1.36956

>  <r_i_glide_intrahb_reward>  (333) 
-0

>  <i_i_glide_confnum>  (333) 
1

>  <i_i_glide_posenum>  (333) 
33

>  <r_i_glide_eff_state_penalty>  (333) 
0

>  <ligand_id>  (333) 
108

>  <original_smiles>  (333) 
OC1C2C3C4CCN5CCN6C2C1C6C3C5C4

>  <smiles>  (333) 
[H]OC1([H])C2([H])C3([H])C4([H])C([H])([H])C([H])([H])N5C([H])([H])C([H])([H])[N+]6([H])C2([H])C1([H])C6([H])C3([H])C5([H])C4([H])[H]

$$$$
108:1:0
     RDKit          3D

 38 43  0  0  1  0  0  0  0  0999 V2000
    4.7075   -4.2408   -2.6359 O   0  0  0  0  0  0  0  0  0  0  0  0
    4.3143   -2.8938   -2.5045 C   0  0  2  0  0  0  0  0  0  0  0  0
    5.2211   -2.0170   -1.6710 C   0  0  2  0  0  0  0  0  0  0  0  0
    5.9993   -2.6595   -0.4574 C   0  0  2  0  0  0  0  0  0  0  0  0
    6.0327   -4.1173    0.2101 C   0  0  2  0  0  0  0  0  0  0  0  0
    4.7664   -4.9123    0.7471 C   0  0  0  0  0  0  0  0  0  0  0  0
    4.1133   -4.4122    2.1407 C   0  0  0  0  0  0  0  0  0  0  0  0
    4.4053   -3.0081    2.5821 N   0  0  0  0  0  0  0  0  0  0  0  0
    3.3310   -1.9288    2.6033 C   0  0  0  0  0  0  0  0  0  0  0  0
    3.2124   -0.7420    1.4702 C   0  0  0  0  0  0  0  0  0  0  0  0
    3.0264   -1.2225    0.0360 N   0  0  1  0  0  0  0  0  0  0  0  0
    3.8775   -1.1148   -1.2904 C   0  0  1  0  0  0  0  0  0  0  0  0
    3.2790   -2.5106   -1.4443 C   0  0  2  0  0  0  0  0  0  0  0  0
    3.6053   -2.4659    0.0573 C   0  0  1  0  0  0  0  0  0  0  0  0
    5.1507   -2.1457    0.5827 C   0  0  1  0  0  0  0  0  0  0  0  0
    5.6279   -2.5852    1.9356 C   0  0  2  0  0  0  0  0  0  0  0  0
    6.6322   -3.6949    1.5485 C   0  0  0  0  0  0  0  0  0  0  0  0
    3.9208   -4.7883   -2.7049 H   0  0  0  0  0  0  0  0  0  0  0  0
    4.1029   -2.4592   -3.4839 H   0  0  0  0  0  0  0  0  0  0  0  0
    5.8744   -1.4386   -2.3249 H   0  0  0  0  0  0  0  0  0  0  0  0
    6.9996   -2.2279   -0.4242 H   0  0  0  0  0  0  0  0  0  0  0  0
    6.7091   -4.7863   -0.3179 H   0  0  0  0  0  0  0  0  0  0  0  0
    4.0154   -5.0287   -0.0342 H   0  0  0  0  0  0  0  0  0  0  0  0
    5.0922   -5.9356    0.9345 H   0  0  0  0  0  0  0  0  0  0  0  0
    3.0413   -4.6113    2.1694 H   0  0  0  0  0  0  0  0  0  0  0  0
    4.5297   -5.0416    2.9312 H   0  0  0  0  0  0  0  0  0  0  0  0
    2.3641   -2.4253    2.7227 H   0  0  0  0  0  0  0  0  0  0  0  0
    3.4944   -1.4179    3.5511 H   0  0  0  0  0  0  0  0  0  0  0  0
    2.3228   -0.1709    1.7221 H   0  0  0  0  0  0  0  0  0  0  0  0
    4.0073    0.0022    1.5722 H   0  0  0  0  0  0  0  0  0  0  0  0
    3.5191   -0.4349   -2.0618 H   0  0  0  0  0  0  0  0  0  0  0  0
    2.2283   -2.5270   -1.7643 H   0  0  0  0  0  0  0  0  0  0  0  0
    2.9224   -3.1757    0.5237 H   0  0  0  0  0  0  0  0  0  0  0  0
    5.4435   -1.0906    0.5662 H   0  0  0  0  0  0  0  0  0  0  0  0
    6.1053   -1.7717    2.4862 H   0  0  0  0  0  0  0  0  0  0  0  0
    6.7323   -4.4967    2.2840 H   0  0  0  0  0  0  0  0  0  0  0  0
    7.6284   -3.2807    1.3900 H   0  0  0  0  0  0  0  0  0  0  0  0
    2.0243   -1.2222   -0.2449 H   0  0  0  0  0  0  0  0  0  0  0  0
  1  2  1  0
  1 18  1  0
  2 13  1  0
  2  3  1  0
  2 19  1  6
  3 12  1  0
  3  4  1  0
  3 20  1  6
  4 15  1  0
  4  5  1  0
  4 21  1  1
  5 17  1  0
  5  6  1  0
  5 22  1  6
  6  7  1  0
  6 23  1  0
  6 24  1  0
  7  8  1  0
  7 25  1  0
  7 26  1  0
  8 16  1  0
  8  9  1  0
  9 10  1  0
  9 27  1  0
  9 28  1  0
 10 11  1  0
 10 29  1  0
 10 30  1  0
 11 14  1  0
 11 12  1  0
 11 38  1  6
 12 13  1  0
 12 31  1  6
 13 14  1  0
 13 32  1  1
 14 15  1  0
 14 33  1  1
 15 16  1  0
 15 34  1  1
 16 17  1  0
 16 35  1  1
 17 36  1  0
 17 37  1  0
M  CHG  1  11   1
M  END
>  <i_m_ct_stereo_status>  (334) 
1

>  <s_m_source_file>  (334) 
/var/tmp/pbs.5076255.sched01/tmpajq2dbrl/12675ddggds.sdf

>  <i_m_source_file_index>  (334) 
28

>  <i_lp_mmshare_version>  (334) 
48012

>  <i_f3d_flags>  (334) 
0

>  <s_epik_input>  (334) 
W09IXVtDQEhdMVtDQEBIXTJbQ0BIXTNOKFtDSDJdW0NIMl00KVtDQEBIXTJbQ0BIXTVbQ0BIXShbQ0gyXTYpTjRbQ0gyXVtDSDJdW0NASF02W0NASF01W0NAQEhdMTM=

>  <s_epik_cmdline>  (334) 
J2VwaWtfcHl0aG9uJywgJy1waHQnLCAnMi4wJywgJy1waCcsICc3LjAnLCAnLXRuJywgJzgnLCAnLW1hJywgJzIwMCcsICctaW1hZScsICc8aW5maWxlLm1hZT4nLCAnLW9tYWUnLCAnPG91dGZpbGUubWFlPic=

>  <r_epik_Ionization_Penalty>  (334) 
0.00669984

>  <r_epik_Ionization_Penalty_Charging>  (334) 
0.000150361

>  <r_epik_Ionization_Penalty_Neutral>  (334) 
0.00654948

>  <r_epik_State_Penalty>  (334) 
0.163191

>  <r_epik_Charging_Adjusted_Penalty>  (334) 
0.163341

>  <i_epik_Tot_Q>  (334) 
1

>  <i_epik_Tot_abs_Q>  (334) 
1

>  <s_lp_Force_Field>  (334) 
OPLS3e

>  <r_lp_Energy>  (334) 
241.906

>  <b_lp_Chiralities_Consistent>  (334) 
1

>  <s_lp_Variant>  (334) 
108:0-2

>  <s_i_glide_gridfile>  (334) 
pfpi4k_grid

>  <i_i_glide_lignum>  (334) 
28

>  <i_i_glide_rotatable_bonds>  (334) 
1

>  <r_i_docking_score>  (334) 
-5.29635

>  <r_i_glide_ligand_efficiency>  (334) 
-0.31155

>  <r_i_glide_ligand_efficiency_sa>  (334) 
-0.801083

>  <r_i_glide_ligand_efficiency_ln>  (334) 
-1.3817

>  <r_i_glide_gscore>  (334) 
-5.29635

>  <r_i_glide_lipo>  (334) 
-0.301231

>  <r_i_glide_hbond>  (334) 
-0.470156

>  <r_i_glide_metal>  (334) 
-0

>  <r_i_glide_rewards>  (334) 
-1.81821

>  <r_i_glide_evdw>  (334) 
-12.2751

>  <r_i_glide_ecoul>  (334) 
-13.2867

>  <r_i_glide_erotb>  (334) 
0

>  <r_i_glide_esite>  (334) 
-0.1

>  <r_i_glide_emodel>  (334) 
-33.9419

>  <r_i_glide_energy>  (334) 
-25.5617

>  <r_i_glide_einternal>  (334) 
1.32468

>  <r_i_glide_intrahb_reward>  (334) 
-0

>  <i_i_glide_confnum>  (334) 
1

>  <i_i_glide_posenum>  (334) 
31

>  <r_i_glide_eff_state_penalty>  (334) 
0

>  <ligand_id>  (334) 
108

>  <original_smiles>  (334) 
OC1C2C3C4CCN5CCN6C2C1C6C3C5C4

>  <smiles>  (334) 
[H]OC1([H])C2([H])C3([H])C4([H])C([H])([H])C([H])([H])N5C([H])([H])C([H])([H])[N+]6([H])C2([H])C1([H])C6([H])C3([H])C5([H])C4([H])[H]

$$$$
108:1:1
     RDKit          3D

 38 43  0  0  1  0  0  0  0  0999 V2000
    4.6043   -1.6035   -4.1237 O   0  0  0  0  0  0  0  0  0  0  0  0
    3.4018   -2.0707   -3.5802 C   0  0  2  0  0  0  0  0  0  0  0  0
    3.0159   -1.5462   -2.2356 C   0  0  2  0  0  0  0  0  0  0  0  0
    4.1119   -1.1757   -1.1775 C   0  0  2  0  0  0  0  0  0  0  0  0
    5.6773   -1.2644   -1.1607 C   0  0  2  0  0  0  0  0  0  0  0  0
    6.5378   -2.5657   -1.4315 C   0  0  0  0  0  0  0  0  0  0  0  0
    6.5936   -3.6335   -0.2351 C   0  0  0  0  0  0  0  0  0  0  0  0
    5.5100   -3.5972    0.7957 N   0  0  0  0  0  0  0  0  0  0  0  0
    4.4569   -4.6964    0.8775 C   0  0  0  0  0  0  0  0  0  0  0  0
    2.9110   -4.5026    0.3700 C   0  0  0  0  0  0  0  0  0  0  0  0
    2.7796   -4.1929   -1.1238 N   0  0  1  0  0  0  0  0  0  0  0  0
    2.2344   -3.0007   -1.9692 C   0  0  1  0  0  0  0  0  0  0  0  0
    3.4109   -3.4038   -2.8318 C   0  0  2  0  0  0  0  0  0  0  0  0
    3.9559   -3.5831   -1.4020 C   0  0  1  0  0  0  0  0  0  0  0  0
    3.9753   -2.3228   -0.3384 C   0  0  1  0  0  0  0  0  0  0  0  0
    4.9387   -2.2682    0.8018 C   0  0  2  0  0  0  0  0  0  0  0  0
    5.8680   -1.1187    0.3560 C   0  0  0  0  0  0  0  0  0  0  0  0
    5.2291   -1.7149   -3.4113 H   0  0  0  0  0  0  0  0  0  0  0  0
    2.5680   -1.9810   -4.3002 H   0  0  0  0  0  0  0  0  0  0  0  0
    2.2737   -0.7739   -2.3749 H   0  0  0  0  0  0  0  0  0  0  0  0
    3.8171   -0.2673   -0.6618 H   0  0  0  0  0  0  0  0  0  0  0  0
    6.0157   -0.4200   -1.7274 H   0  0  0  0  0  0  0  0  0  0  0  0
    6.2898   -3.0265   -2.3895 H   0  0  0  0  0  0  0  0  0  0  0  0
    7.5723   -2.2590   -1.5813 H   0  0  0  0  0  0  0  0  0  0  0  0
    6.6768   -4.6333   -0.6374 H   0  0  0  0  0  0  0  0  0  0  0  0
    7.5153   -3.4628    0.3195 H   0  0  0  0  0  0  0  0  0  0  0  0
    4.8824   -5.6233    0.4757 H   0  0  0  0  0  0  0  0  0  0  0  0
    4.3780   -4.8956    1.9399 H   0  0  0  0  0  0  0  0  0  0  0  0
    2.4449   -5.4604    0.5096 H   0  0  0  0  0  0  0  0  0  0  0  0
    2.3214   -3.8593    1.0211 H   0  0  0  0  0  0  0  0  0  0  0  0
    1.2913   -3.1581   -2.4727 H   0  0  0  0  0  0  0  0  0  0  0  0
    3.1924   -4.2260   -3.5040 H   0  0  0  0  0  0  0  0  0  0  0  0
    4.7289   -4.3352   -1.5212 H   0  0  0  0  0  0  0  0  0  0  0  0
    3.0118   -2.0890    0.1378 H   0  0  0  0  0  0  0  0  0  0  0  0
    4.4308   -2.0587    1.7408 H   0  0  0  0  0  0  0  0  0  0  0  0
    6.9030   -1.2037    0.7056 H   0  0  0  0  0  0  0  0  0  0  0  0
    5.4885   -0.1578    0.7040 H   0  0  0  0  0  0  0  0  0  0  0  0
    2.7487   -5.0401   -1.6813 H   0  0  0  0  0  0  0  0  0  0  0  0
  1  2  1  0
  1 18  1  0
  2 13  1  0
  2  3  1  0
  2 19  1  6
  3 12  1  0
  3  4  1  0
  3 20  1  6
  4 15  1  0
  4  5  1  0
  4 21  1  1
  5 17  1  0
  5  6  1  0
  5 22  1  6
  6  7  1  0
  6 23  1  0
  6 24  1  0
  7  8  1  0
  7 25  1  0
  7 26  1  0
  8 16  1  0
  8  9  1  0
  9 10  1  0
  9 27  1  0
  9 28  1  0
 10 11  1  0
 10 29  1  0
 10 30  1  0
 11 14  1  0
 11 12  1  0
 11 38  1  6
 12 13  1  0
 12 31  1  6
 13 14  1  0
 13 32  1  6
 14 15  1  0
 14 33  1  6
 15 16  1  0
 15 34  1  1
 16 17  1  0
 16 35  1  1
 17 36  1  0
 17 37  1  0
M  CHG  1  11   1
M  END
>  <i_m_ct_stereo_status>  (335) 
1

>  <s_m_source_file>  (335) 
/var/tmp/pbs.5076255.sched01/tmpajq2dbrl/12675ddggds.sdf

>  <i_m_source_file_index>  (335) 
28

>  <i_lp_mmshare_version>  (335) 
48012

>  <i_f3d_flags>  (335) 
0

>  <s_epik_input>  (335) 
W09IXVtDQEhdMVtDQEBIXTJbQ0BIXTNOKFtDSDJdW0NIMl00KVtDQEBIXTJbQ0BIXTVbQ0BIXShbQ0gyXTYpTjRbQ0gyXVtDSDJdW0NASF02W0NASF01W0NAQEhdMTM=

>  <s_epik_cmdline>  (335) 
J2VwaWtfcHl0aG9uJywgJy1waHQnLCAnMi4wJywgJy1waCcsICc3LjAnLCAnLXRuJywgJzgnLCAnLW1hJywgJzIwMCcsICctaW1hZScsICc8aW5maWxlLm1hZT4nLCAnLW9tYWUnLCAnPG91dGZpbGUubWFlPic=

>  <r_epik_Ionization_Penalty>  (335) 
0.00669984

>  <r_epik_Ionization_Penalty_Charging>  (335) 
0.000150361

>  <r_epik_Ionization_Penalty_Neutral>  (335) 
0.00654948

>  <r_epik_State_Penalty>  (335) 
0.163191

>  <r_epik_Charging_Adjusted_Penalty>  (335) 
0.163341

>  <i_epik_Tot_Q>  (335) 
1

>  <i_epik_Tot_abs_Q>  (335) 
1

>  <s_lp_Force_Field>  (335) 
OPLS3e

>  <r_lp_Energy>  (335) 
241.906

>  <b_lp_Chiralities_Consistent>  (335) 
1

>  <s_lp_Variant>  (335) 
108:0-2

>  <s_i_glide_gridfile>  (335) 
pfpi4k_grid

>  <i_i_glide_lignum>  (335) 
28

>  <i_i_glide_rotatable_bonds>  (335) 
1

>  <r_i_docking_score>  (335) 
-4.83355

>  <r_i_glide_ligand_efficiency>  (335) 
-0.284326

>  <r_i_glide_ligand_efficiency_sa>  (335) 
-0.731083

>  <r_i_glide_ligand_efficiency_ln>  (335) 
-1.26097

>  <r_i_glide_gscore>  (335) 
-4.83355

>  <r_i_glide_lipo>  (335) 
-0.508224

>  <r_i_glide_hbond>  (335) 
-0.179518

>  <r_i_glide_metal>  (335) 
-0

>  <r_i_glide_rewards>  (335) 
-1.81821

>  <r_i_glide_evdw>  (335) 
-11.5921

>  <r_i_glide_ecoul>  (335) 
-11.4165

>  <r_i_glide_erotb>  (335) 
0

>  <r_i_glide_esite>  (335) 
-0.0355166

>  <r_i_glide_emodel>  (335) 
-30.9652

>  <r_i_glide_energy>  (335) 
-23.0086

>  <r_i_glide_einternal>  (335) 
0.00074143

>  <r_i_glide_intrahb_reward>  (335) 
-0

>  <i_i_glide_confnum>  (335) 
1

>  <i_i_glide_posenum>  (335) 
10

>  <r_i_glide_eff_state_penalty>  (335) 
0

>  <ligand_id>  (335) 
108

>  <original_smiles>  (335) 
OC1C2C3C4CCN5CCN6C2C1C6C3C5C4

>  <smiles>  (335) 
[H]OC1([H])C2([H])C3([H])C4([H])C([H])([H])C([H])([H])N5C([H])([H])C([H])([H])[N+]6([H])C2([H])C1([H])C6([H])C3([H])C5([H])C4([H])[H]

$$$$
108:1:2
     RDKit          3D

 38 43  0  0  1  0  0  0  0  0999 V2000
    5.2332   -3.8511   -3.1506 O   0  0  0  0  0  0  0  0  0  0  0  0
    4.4470   -2.7557   -2.7603 C   0  0  2  0  0  0  0  0  0  0  0  0
    5.1038   -1.7090   -1.8840 C   0  0  2  0  0  0  0  0  0  0  0  0
    6.2180   -2.1634   -0.8591 C   0  0  2  0  0  0  0  0  0  0  0  0
    6.8798   -3.5536   -0.4485 C   0  0  2  0  0  0  0  0  0  0  0  0
    6.0737   -4.8212    0.0820 C   0  0  0  0  0  0  0  0  0  0  0  0
    5.4978   -4.7685    1.5832 C   0  0  0  0  0  0  0  0  0  0  0  0
    5.3302   -3.4196    2.2143 N   0  0  0  0  0  0  0  0  0  0  0  0
    3.9543   -2.8369    2.5051 C   0  0  0  0  0  0  0  0  0  0  0  0
    3.2569   -1.6510    1.5947 C   0  0  0  0  0  0  0  0  0  0  0  0
    3.0514   -1.9985    0.1201 N   0  0  1  0  0  0  0  0  0  0  0  0
    3.5971   -1.4301   -1.2412 C   0  0  1  0  0  0  0  0  0  0  0  0
    3.5097   -2.9168   -1.5607 C   0  0  2  0  0  0  0  0  0  0  0  0
    4.0212   -2.9370   -0.1065 C   0  0  1  0  0  0  0  0  0  0  0  0
    5.4066   -2.1215    0.3186 C   0  0  1  0  0  0  0  0  0  0  0  0
    6.2091   -2.4942    1.5287 C   0  0  2  0  0  0  0  0  0  0  0  0
    7.4854   -3.0868    0.8750 C   0  0  0  0  0  0  0  0  0  0  0  0
    4.6995   -4.6334   -3.0452 H   0  0  0  0  0  0  0  0  0  0  0  0
    3.9565   -2.3206   -3.6338 H   0  0  0  0  0  0  0  0  0  0  0  0
    5.4019   -0.8428   -2.4779 H   0  0  0  0  0  0  0  0  0  0  0  0
    6.9939   -1.4104   -0.8267 H   0  0  0  0  0  0  0  0  0  0  0  0
    7.6478   -3.8420   -1.1644 H   0  0  0  0  0  0  0  0  0  0  0  0
    5.3110   -5.1223   -0.6388 H   0  0  0  0  0  0  0  0  0  0  0  0
    6.7723   -5.6584    0.0778 H   0  0  0  0  0  0  0  0  0  0  0  0
    4.5829   -5.3574    1.6735 H   0  0  0  0  0  0  0  0  0  0  0  0
    6.2198   -5.2824    2.2195 H   0  0  0  0  0  0  0  0  0  0  0  0
    3.2553   -3.6734    2.6277 H   0  0  0  0  0  0  0  0  0  0  0  0
    4.0551   -2.4157    3.5054 H   0  0  0  0  0  0  0  0  0  0  0  0
    2.2610   -1.4984    2.0131 H   0  0  0  0  0  0  0  0  0  0  0  0
    3.7356   -0.6805    1.7461 H   0  0  0  0  0  0  0  0  0  0  0  0
    2.9038   -0.8413   -1.8463 H   0  0  0  0  0  0  0  0  0  0  0  0
    2.4953   -3.2882   -1.7766 H   0  0  0  0  0  0  0  0  0  0  0  0
    3.7141   -3.8976    0.3000 H   0  0  0  0  0  0  0  0  0  0  0  0
    5.3021   -1.0355    0.4415 H   0  0  0  0  0  0  0  0  0  0  0  0
    6.4306   -1.6270    2.1576 H   0  0  0  0  0  0  0  0  0  0  0  0
    7.9710   -3.8686    1.4645 H   0  0  0  0  0  0  0  0  0  0  0  0
    8.2320   -2.3039    0.7168 H   0  0  0  0  0  0  0  0  0  0  0  0
    2.1088   -2.3379   -0.0513 H   0  0  0  0  0  0  0  0  0  0  0  0
  1  2  1  0
  1 18  1  0
  2 13  1  0
  2  3  1  0
  2 19  1  6
  3 12  1  0
  3  4  1  0
  3 20  1  6
  4 15  1  0
  4  5  1  0
  4 21  1  1
  5 17  1  0
  5  6  1  0
  5 22  1  6
  6  7  1  0
  6 23  1  0
  6 24  1  0
  7  8  1  0
  7 25  1  0
  7 26  1  0
  8 16  1  0
  8  9  1  0
  9 10  1  0
  9 27  1  0
  9 28  1  0
 10 11  1  0
 10 29  1  0
 10 30  1  0
 11 14  1  0
 11 12  1  0
 11 38  1  6
 12 13  1  0
 12 31  1  6
 13 14  1  0
 13 32  1  6
 14 15  1  0
 14 33  1  1
 15 16  1  0
 15 34  1  1
 16 17  1  0
 16 35  1  1
 17 36  1  0
 17 37  1  0
M  CHG  1  11   1
M  END
>  <i_m_ct_stereo_status>  (336) 
1

>  <s_m_source_file>  (336) 
/var/tmp/pbs.5076255.sched01/tmpajq2dbrl/12675ddggds.sdf

>  <i_m_source_file_index>  (336) 
28

>  <i_lp_mmshare_version>  (336) 
48012

>  <i_f3d_flags>  (336) 
0

>  <s_epik_input>  (336) 
W09IXVtDQEhdMVtDQEBIXTJbQ0BIXTNOKFtDSDJdW0NIMl00KVtDQEBIXTJbQ0BIXTVbQ0BIXShbQ0gyXTYpTjRbQ0gyXVtDSDJdW0NASF02W0NASF01W0NAQEhdMTM=

>  <s_epik_cmdline>  (336) 
J2VwaWtfcHl0aG9uJywgJy1waHQnLCAnMi4wJywgJy1waCcsICc3LjAnLCAnLXRuJywgJzgnLCAnLW1hJywgJzIwMCcsICctaW1hZScsICc8aW5maWxlLm1hZT4nLCAnLW9tYWUnLCAnPG91dGZpbGUubWFlPic=

>  <r_epik_Ionization_Penalty>  (336) 
0.00669984

>  <r_epik_Ionization_Penalty_Charging>  (336) 
0.000150361

>  <r_epik_Ionization_Penalty_Neutral>  (336) 
0.00654948

>  <r_epik_State_Penalty>  (336) 
0.163191

>  <r_epik_Charging_Adjusted_Penalty>  (336) 
0.163341

>  <i_epik_Tot_Q>  (336) 
1

>  <i_epik_Tot_abs_Q>  (336) 
1

>  <s_lp_Force_Field>  (336) 
OPLS3e

>  <r_lp_Energy>  (336) 
241.906

>  <b_lp_Chiralities_Consistent>  (336) 
1

>  <s_lp_Variant>  (336) 
108:0-2

>  <s_i_glide_gridfile>  (336) 
pfpi4k_grid

>  <i_i_glide_lignum>  (336) 
28

>  <i_i_glide_rotatable_bonds>  (336) 
1

>  <r_i_docking_score>  (336) 
-4.37458

>  <r_i_glide_ligand_efficiency>  (336) 
-0.257328

>  <r_i_glide_ligand_efficiency_sa>  (336) 
-0.661664

>  <r_i_glide_ligand_efficiency_ln>  (336) 
-1.14123

>  <r_i_glide_gscore>  (336) 
-4.37458

>  <r_i_glide_lipo>  (336) 
-0.567083

>  <r_i_glide_hbond>  (336) 
-0.177464

>  <r_i_glide_metal>  (336) 
-0

>  <r_i_glide_rewards>  (336) 
-1.81821

>  <r_i_glide_evdw>  (336) 
-17.3506

>  <r_i_glide_ecoul>  (336) 
-5.77633

>  <r_i_glide_erotb>  (336) 
0

>  <r_i_glide_esite>  (336) 
-0.0778486

>  <r_i_glide_emodel>  (336) 
-29.9146

>  <r_i_glide_energy>  (336) 
-23.1269

>  <r_i_glide_einternal>  (336) 
1.46182

>  <r_i_glide_intrahb_reward>  (336) 
-0

>  <i_i_glide_confnum>  (336) 
1

>  <i_i_glide_posenum>  (336) 
16

>  <r_i_glide_eff_state_penalty>  (336) 
0

>  <ligand_id>  (336) 
108

>  <original_smiles>  (336) 
OC1C2C3C4CCN5CCN6C2C1C6C3C5C4

>  <smiles>  (336) 
[H]OC1([H])C2([H])C3([H])C4([H])C([H])([H])C([H])([H])N5C([H])([H])C([H])([H])[N+]6([H])C2([H])C1([H])C6([H])C3([H])C5([H])C4([H])[H]

$$$$
108:2:0
     RDKit          3D

 38 43  0  0  1  0  0  0  0  0999 V2000
    1.9304   -3.7242   -1.7876 O   0  0  0  0  0  0  0  0  0  0  0  0
    3.0843   -3.0320   -2.2179 C   0  0  2  0  0  0  0  0  0  0  0  0
    4.4329   -3.6027   -1.8215 C   0  0  2  0  0  0  0  0  0  0  0  0
    4.5584   -4.3246   -0.4167 C   0  0  2  0  0  0  0  0  0  0  0  0
    3.5404   -4.6065    0.7957 C   0  0  2  0  0  0  0  0  0  0  0  0
    2.6777   -3.4856    1.5447 C   0  0  0  0  0  0  0  0  0  0  0  0
    3.4317   -2.5367    2.6092 C   0  0  0  0  0  0  0  0  0  0  0  0
    4.9419   -2.4326    2.4705 N   0  0  2  0  0  0  0  0  0  0  0  0
    5.5766   -1.0990    2.0097 C   0  0  0  0  0  0  0  0  0  0  0  0
    6.1645   -0.9268    0.4813 C   0  0  0  0  0  0  0  0  0  0  0  0
    5.2047   -1.0533   -0.6790 N   0  0  0  0  0  0  0  0  0  0  0  0
    4.9937   -2.0428   -1.8615 C   0  0  1  0  0  0  0  0  0  0  0  0
    3.5504   -1.8086   -1.4302 C   0  0  2  0  0  0  0  0  0  0  0  0
    4.2938   -1.9036   -0.0767 C   0  0  1  0  0  0  0  0  0  0  0  0
    5.2055   -3.2508    0.2988 C   0  0  1  0  0  0  0  0  0  0  0  0
    5.4364   -3.6023    1.7400 C   0  0  2  0  0  0  0  0  0  0  0  0
    4.5978   -4.8928    1.8774 C   0  0  0  0  0  0  0  0  0  0  0  0
    1.9696   -4.5721   -2.2190 H   0  0  0  0  0  0  0  0  0  0  0  0
    3.0209   -2.8368   -3.2856 H   0  0  0  0  0  0  0  0  0  0  0  0
    4.8780   -4.1740   -2.6408 H   0  0  0  0  0  0  0  0  0  0  0  0
    5.2162   -5.1888   -0.5354 H   0  0  0  0  0  0  0  0  0  0  0  0
    2.9247   -5.4815    0.5713 H   0  0  0  0  0  0  0  0  0  0  0  0
    2.1121   -2.8920    0.8228 H   0  0  0  0  0  0  0  0  0  0  0  0
    1.9055   -4.0117    2.1133 H   0  0  0  0  0  0  0  0  0  0  0  0
    2.9600   -1.5528    2.6631 H   0  0  0  0  0  0  0  0  0  0  0  0
    3.2698   -2.9753    3.5939 H   0  0  0  0  0  0  0  0  0  0  0  0
    4.9196   -0.2589    2.2614 H   0  0  0  0  0  0  0  0  0  0  0  0
    6.4489   -0.9745    2.6475 H   0  0  0  0  0  0  0  0  0  0  0  0
    6.5272    0.1015    0.4220 H   0  0  0  0  0  0  0  0  0  0  0  0
    7.0714   -1.5218    0.3271 H   0  0  0  0  0  0  0  0  0  0  0  0
    5.1925   -1.5978   -2.8363 H   0  0  0  0  0  0  0  0  0  0  0  0
    3.1208   -0.8404   -1.7360 H   0  0  0  0  0  0  0  0  0  0  0  0
    3.6872   -1.3362    0.6276 H   0  0  0  0  0  0  0  0  0  0  0  0
    6.2099   -3.2860   -0.1357 H   0  0  0  0  0  0  0  0  0  0  0  0
    6.4920   -3.7824    1.9559 H   0  0  0  0  0  0  0  0  0  0  0  0
    4.1917   -5.0673    2.8772 H   0  0  0  0  0  0  0  0  0  0  0  0
    5.1949   -5.7703    1.6130 H   0  0  0  0  0  0  0  0  0  0  0  0
    5.2657   -2.5498    3.4195 H   0  0  0  0  0  0  0  0  0  0  0  0
  1  2  1  0
  1 18  1  0
  2 13  1  0
  2  3  1  0
  2 19  1  6
  3 12  1  0
  3  4  1  0
  3 20  1  6
  4 15  1  0
  4  5  1  0
  4 21  1  6
  5 17  1  0
  5  6  1  0
  5 22  1  6
  6  7  1  0
  6 23  1  0
  6 24  1  0
  7  8  1  0
  7 25  1  0
  7 26  1  0
  8 16  1  0
  8  9  1  0
  8 38  1  1
  9 10  1  0
  9 27  1  0
  9 28  1  0
 10 11  1  0
 10 29  1  0
 10 30  1  0
 11 14  1  0
 11 12  1  0
 12 13  1  0
 12 31  1  6
 13 14  1  0
 13 32  1  6
 14 15  1  0
 14 33  1  1
 15 16  1  0
 15 34  1  6
 16 17  1  0
 16 35  1  6
 17 36  1  0
 17 37  1  0
M  CHG  1   8   1
M  END
>  <i_m_ct_stereo_status>  (337) 
1

>  <s_m_source_file>  (337) 
/var/tmp/pbs.5076255.sched01/tmpajq2dbrl/12675ddggds.sdf

>  <i_m_source_file_index>  (337) 
29

>  <i_lp_mmshare_version>  (337) 
48012

>  <i_f3d_flags>  (337) 
0

>  <s_epik_input>  (337) 
W09IXVtDQEhdMVtDQEBIXTJbQ0BIXTNOKFtDSDJdW0NIMl00KVtDQEBIXTJbQ0BIXTVbQ0BIXShbQ0gyXTYpTjRbQ0gyXVtDSDJdW0NASF02W0NASF01W0NAQEhdMTM=

>  <s_epik_cmdline>  (337) 
J2VwaWtfcHl0aG9uJywgJy1waHQnLCAnMi4wJywgJy1waCcsICc3LjAnLCAnLXRuJywgJzgnLCAnLW1hJywgJzIwMCcsICctaW1hZScsICc8aW5maWxlLm1hZT4nLCAnLW9tYWUnLCAnPG91dGZpbGUubWFlPic=

>  <r_epik_Ionization_Penalty>  (337) 
0.0547669

>  <r_epik_Ionization_Penalty_Charging>  (337) 
0.000441034

>  <r_epik_Ionization_Penalty_Neutral>  (337) 
0.0543259

>  <r_epik_State_Penalty>  (337) 
0.843679

>  <r_epik_Charging_Adjusted_Penalty>  (337) 
0.84412

>  <i_epik_Tot_Q>  (337) 
1

>  <i_epik_Tot_abs_Q>  (337) 
1

>  <s_lp_Force_Field>  (337) 
OPLS3e

>  <r_lp_Energy>  (337) 
234.749

>  <b_lp_Chiralities_Consistent>  (337) 
1

>  <s_lp_Variant>  (337) 
108:0-3

>  <s_i_glide_gridfile>  (337) 
pfpi4k_grid

>  <i_i_glide_lignum>  (337) 
29

>  <i_i_glide_rotatable_bonds>  (337) 
1

>  <r_i_docking_score>  (337) 
-4.0655

>  <r_i_glide_ligand_efficiency>  (337) 
-0.239147

>  <r_i_glide_ligand_efficiency_sa>  (337) 
-0.614914

>  <r_i_glide_ligand_efficiency_ln>  (337) 
-1.0606

>  <r_i_glide_gscore>  (337) 
-4.0655

>  <r_i_glide_lipo>  (337) 
-0.322786

>  <r_i_glide_hbond>  (337) 
-0.317189

>  <r_i_glide_metal>  (337) 
-0

>  <r_i_glide_rewards>  (337) 
-1.81821

>  <r_i_glide_evdw>  (337) 
-18.863

>  <r_i_glide_ecoul>  (337) 
-4.42777

>  <r_i_glide_erotb>  (337) 
0

>  <r_i_glide_esite>  (337) 
0

>  <r_i_glide_emodel>  (337) 
-28.1354

>  <r_i_glide_energy>  (337) 
-23.2908

>  <r_i_glide_einternal>  (337) 
1.1452

>  <r_i_glide_intrahb_reward>  (337) 
-0

>  <i_i_glide_confnum>  (337) 
1

>  <i_i_glide_posenum>  (337) 
23

>  <r_i_glide_eff_state_penalty>  (337) 
0

>  <ligand_id>  (337) 
108

>  <original_smiles>  (337) 
OC1C2C3C4CCN5CCN6C2C1C6C3C5C4

>  <smiles>  (337) 
[H]OC1([H])C2([H])C3([H])N4C([H])([H])C([H])([H])[N+]5([H])C([H])([H])C([H])([H])C6([H])C([H])([H])C5([H])C([H])(C42[H])C6([H])C13[H]

$$$$
108:2:1
     RDKit          3D

 38 43  0  0  1  0  0  0  0  0999 V2000
    2.7147   -2.9774   -2.4149 O   0  0  0  0  0  0  0  0  0  0  0  0
    4.1237   -3.0273   -2.4785 C   0  0  2  0  0  0  0  0  0  0  0  0
    4.8529   -3.9285   -1.5173 C   0  0  2  0  0  0  0  0  0  0  0  0
    4.3153   -4.1428   -0.0449 C   0  0  2  0  0  0  0  0  0  0  0  0
    3.0473   -3.5765    0.7505 C   0  0  2  0  0  0  0  0  0  0  0  0
    2.6944   -2.0350    0.9234 C   0  0  0  0  0  0  0  0  0  0  0  0
    3.5417   -1.1736    1.9753 C   0  0  0  0  0  0  0  0  0  0  0  0
    4.8731   -1.7375    2.3511 N   0  0  2  0  0  0  0  0  0  0  0  0
    6.1434   -1.0000    1.9008 C   0  0  0  0  0  0  0  0  0  0  0  0
    7.0844   -1.5973    0.7015 C   0  0  0  0  0  0  0  0  0  0  0  0
    6.4994   -1.7069   -0.6898 N   0  0  0  0  0  0  0  0  0  0  0  0
    6.0981   -2.8477   -1.6399 C   0  0  1  0  0  0  0  0  0  0  0  0
    4.9128   -1.9155   -1.8086 C   0  0  2  0  0  0  0  0  0  0  0  0
    5.1893   -1.8548   -0.2873 C   0  0  1  0  0  0  0  0  0  0  0  0
    5.2170   -3.2506    0.6330 C   0  0  1  0  0  0  0  0  0  0  0  0
    4.9078   -3.1751    2.1022 C   0  0  2  0  0  0  0  0  0  0  0  0
    3.5396   -3.8879    2.1660 C   0  0  0  0  0  0  0  0  0  0  0  0
    2.4940   -2.5068   -1.6279 H   0  0  0  0  0  0  0  0  0  0  0  0
    4.4548   -3.2096   -3.5016 H   0  0  0  0  0  0  0  0  0  0  0  0
    5.1437   -4.8452   -2.0161 H   0  0  0  0  0  0  0  0  0  0  0  0
    4.4873   -5.1823    0.2418 H   0  0  0  0  0  0  0  0  0  0  0  0
    2.1671   -4.1510    0.4687 H   0  0  0  0  0  0  0  0  0  0  0  0
    2.6752   -1.5269   -0.0316 H   0  0  0  0  0  0  0  0  0  0  0  0
    1.6674   -1.9721    1.2824 H   0  0  0  0  0  0  0  0  0  0  0  0
    3.6060   -0.1264    1.6707 H   0  0  0  0  0  0  0  0  0  0  0  0
    2.9611   -1.1429    2.8919 H   0  0  0  0  0  0  0  0  0  0  0  0
    5.9247    0.0570    1.7364 H   0  0  0  0  0  0  0  0  0  0  0  0
    6.7660   -0.9830    2.7831 H   0  0  0  0  0  0  0  0  0  0  0  0
    7.8972   -0.8896    0.6039 H   0  0  0  0  0  0  0  0  0  0  0  0
    7.6120   -2.5042    0.9811 H   0  0  0  0  0  0  0  0  0  0  0  0
    6.6905   -2.8556   -2.5543 H   0  0  0  0  0  0  0  0  0  0  0  0
    5.1442   -1.0373   -2.4178 H   0  0  0  0  0  0  0  0  0  0  0  0
    4.8067   -0.8820    0.0098 H   0  0  0  0  0  0  0  0  0  0  0  0
    6.1504   -3.8273    0.6022 H   0  0  0  0  0  0  0  0  0  0  0  0
    5.6577   -3.6815    2.7047 H   0  0  0  0  0  0  0  0  0  0  0  0
    2.8785   -3.5379    2.9611 H   0  0  0  0  0  0  0  0  0  0  0  0
    3.6864   -4.9592    2.2962 H   0  0  0  0  0  0  0  0  0  0  0  0
    4.8854   -1.6500    3.3662 H   0  0  0  0  0  0  0  0  0  0  0  0
  1  2  1  0
  1 18  1  0
  2 13  1  0
  2  3  1  0
  2 19  1  6
  3 12  1  0
  3  4  1  0
  3 20  1  6
  4 15  1  0
  4  5  1  0
  4 21  1  1
  5 17  1  0
  5  6  1  0
  5 22  1  6
  6  7  1  0
  6 23  1  0
  6 24  1  0
  7  8  1  0
  7 25  1  0
  7 26  1  0
  8 16  1  0
  8  9  1  0
  8 38  1  1
  9 10  1  0
  9 27  1  0
  9 28  1  0
 10 11  1  0
 10 29  1  0
 10 30  1  0
 11 14  1  0
 11 12  1  0
 12 13  1  0
 12 31  1  6
 13 14  1  0
 13 32  1  6
 14 15  1  0
 14 33  1  1
 15 16  1  0
 15 34  1  1
 16 17  1  0
 16 35  1  1
 17 36  1  0
 17 37  1  0
M  CHG  1   8   1
M  END
>  <i_m_ct_stereo_status>  (338) 
1

>  <s_m_source_file>  (338) 
/var/tmp/pbs.5076255.sched01/tmpajq2dbrl/12675ddggds.sdf

>  <i_m_source_file_index>  (338) 
29

>  <i_lp_mmshare_version>  (338) 
48012

>  <i_f3d_flags>  (338) 
0

>  <s_epik_input>  (338) 
W09IXVtDQEhdMVtDQEBIXTJbQ0BIXTNOKFtDSDJdW0NIMl00KVtDQEBIXTJbQ0BIXTVbQ0BIXShbQ0gyXTYpTjRbQ0gyXVtDSDJdW0NASF02W0NASF01W0NAQEhdMTM=

>  <s_epik_cmdline>  (338) 
J2VwaWtfcHl0aG9uJywgJy1waHQnLCAnMi4wJywgJy1waCcsICc3LjAnLCAnLXRuJywgJzgnLCAnLW1hJywgJzIwMCcsICctaW1hZScsICc8aW5maWxlLm1hZT4nLCAnLW9tYWUnLCAnPG91dGZpbGUubWFlPic=

>  <r_epik_Ionization_Penalty>  (338) 
0.0547669

>  <r_epik_Ionization_Penalty_Charging>  (338) 
0.000441034

>  <r_epik_Ionization_Penalty_Neutral>  (338) 
0.0543259

>  <r_epik_State_Penalty>  (338) 
0.843679

>  <r_epik_Charging_Adjusted_Penalty>  (338) 
0.84412

>  <i_epik_Tot_Q>  (338) 
1

>  <i_epik_Tot_abs_Q>  (338) 
1

>  <s_lp_Force_Field>  (338) 
OPLS3e

>  <r_lp_Energy>  (338) 
234.749

>  <b_lp_Chiralities_Consistent>  (338) 
1

>  <s_lp_Variant>  (338) 
108:0-3

>  <s_i_glide_gridfile>  (338) 
pfpi4k_grid

>  <i_i_glide_lignum>  (338) 
29

>  <i_i_glide_rotatable_bonds>  (338) 
1

>  <r_i_docking_score>  (338) 
-3.55146

>  <r_i_glide_ligand_efficiency>  (338) 
-0.208909

>  <r_i_glide_ligand_efficiency_sa>  (338) 
-0.537164

>  <r_i_glide_ligand_efficiency_ln>  (338) 
-0.926496

>  <r_i_glide_gscore>  (338) 
-3.55146

>  <r_i_glide_lipo>  (338) 
-0.19385

>  <r_i_glide_hbond>  (338) 
-0.143399

>  <r_i_glide_metal>  (338) 
-0

>  <r_i_glide_rewards>  (338) 
-1.81821

>  <r_i_glide_evdw>  (338) 
-16.7474

>  <r_i_glide_ecoul>  (338) 
-3.72417

>  <r_i_glide_erotb>  (338) 
0

>  <r_i_glide_esite>  (338) 
0

>  <r_i_glide_emodel>  (338) 
-24.8095

>  <r_i_glide_energy>  (338) 
-20.4716

>  <r_i_glide_einternal>  (338) 
0.484052

>  <r_i_glide_intrahb_reward>  (338) 
-0

>  <i_i_glide_confnum>  (338) 
2

>  <i_i_glide_posenum>  (338) 
1

>  <r_i_glide_eff_state_penalty>  (338) 
0

>  <ligand_id>  (338) 
108

>  <original_smiles>  (338) 
OC1C2C3C4CCN5CCN6C2C1C6C3C5C4

>  <smiles>  (338) 
[H]OC1([H])C2([H])C3([H])N4C([H])([H])C([H])([H])[N+]5([H])C([H])([H])C([H])([H])C6([H])C([H])([H])C5([H])C([H])(C42[H])C6([H])C13[H]

$$$$
108:2:2
     RDKit          3D

 38 43  0  0  1  0  0  0  0  0999 V2000
    5.5655   -1.3581    2.9387 O   0  0  0  0  0  0  0  0  0  0  0  0
    4.7303   -2.4905    2.9705 C   0  0  2  0  0  0  0  0  0  0  0  0
    5.1553   -3.7137    2.1850 C   0  0  2  0  0  0  0  0  0  0  0  0
    5.9547   -3.5079    0.8299 C   0  0  2  0  0  0  0  0  0  0  0  0
    6.4526   -2.2201    0.0140 C   0  0  2  0  0  0  0  0  0  0  0  0
    5.5081   -1.0198   -0.4392 C   0  0  0  0  0  0  0  0  0  0  0  0
    4.5545   -1.2453   -1.7245 C   0  0  0  0  0  0  0  0  0  0  0  0
    4.2403   -2.6820   -2.0845 N   0  0  2  0  0  0  0  0  0  0  0  0
    2.8056   -3.2134   -1.8792 C   0  0  0  0  0  0  0  0  0  0  0  0
    2.4379   -4.2031   -0.6162 C   0  0  0  0  0  0  0  0  0  0  0  0
    2.6104   -3.6813    0.7918 N   0  0  0  0  0  0  0  0  0  0  0  0
    3.5286   -4.0078    1.9932 C   0  0  1  0  0  0  0  0  0  0  0  0
    3.5224   -2.4876    2.0491 C   0  0  2  0  0  0  0  0  0  0  0  0
    3.6174   -2.7787    0.5266 C   0  0  1  0  0  0  0  0  0  0  0  0
    4.8530   -3.7238   -0.0793 C   0  0  1  0  0  0  0  0  0  0  0  0
    5.2716   -3.5511   -1.5141 C   0  0  2  0  0  0  0  0  0  0  0  0
    6.6712   -2.9130   -1.3431 C   0  0  0  0  0  0  0  0  0  0  0  0
    5.7643   -1.2048    2.0309 H   0  0  0  0  0  0  0  0  0  0  0  0
    4.4742   -2.7381    4.0029 H   0  0  0  0  0  0  0  0  0  0  0  0
    5.5937   -4.4716    2.8305 H   0  0  0  0  0  0  0  0  0  0  0  0
    6.7069   -4.2958    0.7516 H   0  0  0  0  0  0  0  0  0  0  0  0
    7.3835   -1.8400    0.4437 H   0  0  0  0  0  0  0  0  0  0  0  0
    4.9481   -0.5975    0.3975 H   0  0  0  0  0  0  0  0  0  0  0  0
    6.1847   -0.2162   -0.7088 H   0  0  0  0  0  0  0  0  0  0  0  0
    3.6343   -0.6593   -1.6536 H   0  0  0  0  0  0  0  0  0  0  0  0
    5.0730   -0.8348   -2.5931 H   0  0  0  0  0  0  0  0  0  0  0  0
    2.0890   -2.3896   -1.9492 H   0  0  0  0  0  0  0  0  0  0  0  0
    2.6067   -3.8155   -2.7663 H   0  0  0  0  0  0  0  0  0  0  0  0
    1.3821   -4.4303   -0.7249 H   0  0  0  0  0  0  0  0  0  0  0  0
    2.8982   -5.1860   -0.7126 H   0  0  0  0  0  0  0  0  0  0  0  0
    2.9960   -4.4489    2.8368 H   0  0  0  0  0  0  0  0  0  0  0  0
    2.6043   -2.0327    2.4416 H   0  0  0  0  0  0  0  0  0  0  0  0
    3.1847   -1.9080    0.0378 H   0  0  0  0  0  0  0  0  0  0  0  0
    4.7171   -4.8071    0.0100 H   0  0  0  0  0  0  0  0  0  0  0  0
    5.3153   -4.5020   -2.0526 H   0  0  0  0  0  0  0  0  0  0  0  0
    6.9681   -2.2552   -2.1591 H   0  0  0  0  0  0  0  0  0  0  0  0
    7.4428   -3.6829   -1.2587 H   0  0  0  0  0  0  0  0  0  0  0  0
    4.3692   -2.7152   -3.0826 H   0  0  0  0  0  0  0  0  0  0  0  0
  1  2  1  0
  1 18  1  0
  2 13  1  0
  2  3  1  0
  2 19  1  1
  3 12  1  0
  3  4  1  0
  3 20  1  1
  4 15  1  0
  4  5  1  0
  4 21  1  6
  5 17  1  0
  5  6  1  0
  5 22  1  1
  6  7  1  0
  6 23  1  0
  6 24  1  0
  7  8  1  0
  7 25  1  0
  7 26  1  0
  8 16  1  0
  8  9  1  0
  8 38  1  6
  9 10  1  0
  9 27  1  0
  9 28  1  0
 10 11  1  0
 10 29  1  0
 10 30  1  0
 11 14  1  0
 11 12  1  0
 12 13  1  0
 12 31  1  1
 13 14  1  0
 13 32  1  6
 14 15  1  0
 14 33  1  6
 15 16  1  0
 15 34  1  6
 16 17  1  0
 16 35  1  6
 17 36  1  0
 17 37  1  0
M  CHG  1   8   1
M  END
>  <i_m_ct_stereo_status>  (339) 
1

>  <s_m_source_file>  (339) 
/var/tmp/pbs.5076255.sched01/tmpajq2dbrl/12675ddggds.sdf

>  <i_m_source_file_index>  (339) 
29

>  <i_lp_mmshare_version>  (339) 
48012

>  <i_f3d_flags>  (339) 
0

>  <s_epik_input>  (339) 
W09IXVtDQEhdMVtDQEBIXTJbQ0BIXTNOKFtDSDJdW0NIMl00KVtDQEBIXTJbQ0BIXTVbQ0BIXShbQ0gyXTYpTjRbQ0gyXVtDSDJdW0NASF02W0NASF01W0NAQEhdMTM=

>  <s_epik_cmdline>  (339) 
J2VwaWtfcHl0aG9uJywgJy1waHQnLCAnMi4wJywgJy1waCcsICc3LjAnLCAnLXRuJywgJzgnLCAnLW1hJywgJzIwMCcsICctaW1hZScsICc8aW5maWxlLm1hZT4nLCAnLW9tYWUnLCAnPG91dGZpbGUubWFlPic=

>  <r_epik_Ionization_Penalty>  (339) 
0.0547669

>  <r_epik_Ionization_Penalty_Charging>  (339) 
0.000441034

>  <r_epik_Ionization_Penalty_Neutral>  (339) 
0.0543259

>  <r_epik_State_Penalty>  (339) 
0.843679

>  <r_epik_Charging_Adjusted_Penalty>  (339) 
0.84412

>  <i_epik_Tot_Q>  (339) 
1

>  <i_epik_Tot_abs_Q>  (339) 
1

>  <s_lp_Force_Field>  (339) 
OPLS3e

>  <r_lp_Energy>  (339) 
234.749

>  <b_lp_Chiralities_Consistent>  (339) 
1

>  <s_lp_Variant>  (339) 
108:0-3

>  <s_i_glide_gridfile>  (339) 
pfpi4k_grid

>  <i_i_glide_lignum>  (339) 
29

>  <i_i_glide_rotatable_bonds>  (339) 
1

>  <r_i_docking_score>  (339) 
-3.44469

>  <r_i_glide_ligand_efficiency>  (339) 
-0.202629

>  <r_i_glide_ligand_efficiency_sa>  (339) 
-0.521015

>  <r_i_glide_ligand_efficiency_ln>  (339) 
-0.898642

>  <r_i_glide_gscore>  (339) 
-3.44469

>  <r_i_glide_lipo>  (339) 
-0.316464

>  <r_i_glide_hbond>  (339) 
0

>  <r_i_glide_metal>  (339) 
-0

>  <r_i_glide_rewards>  (339) 
-1.81821

>  <r_i_glide_evdw>  (339) 
-16.4453

>  <r_i_glide_ecoul>  (339) 
-3.22709

>  <r_i_glide_erotb>  (339) 
0

>  <r_i_glide_esite>  (339) 
-0.00368374

>  <r_i_glide_emodel>  (339) 
-24.2404

>  <r_i_glide_energy>  (339) 
-19.6724

>  <r_i_glide_einternal>  (339) 
0.00765047

>  <r_i_glide_intrahb_reward>  (339) 
-0

>  <i_i_glide_confnum>  (339) 
1

>  <i_i_glide_posenum>  (339) 
7

>  <r_i_glide_eff_state_penalty>  (339) 
0

>  <ligand_id>  (339) 
108

>  <original_smiles>  (339) 
OC1C2C3C4CCN5CCN6C2C1C6C3C5C4

>  <smiles>  (339) 
[H]OC1([H])C2([H])C3([H])N4C([H])([H])C([H])([H])[N+]5([H])C([H])([H])C([H])([H])C6([H])C([H])([H])C5([H])C([H])(C42[H])C6([H])C13[H]

$$$$
109:0:0
     RDKit          3D

 67 71  0  0  1  0  0  0  0  0999 V2000
   -1.3590   -8.2098    1.8695 C   0  0  0  0  0  0  0  0  0  0  0  0
   -0.2658   -7.2972    1.2504 C   0  0  0  0  0  0  0  0  0  0  0  0
    0.0710   -6.2778    2.1970 O   0  0  0  0  0  0  0  0  0  0  0  0
    1.4193   -6.1746    2.6141 C   0  0  2  0  0  0  0  0  0  0  0  0
    1.5822   -4.8127    3.2857 C   0  0  0  0  0  0  0  0  0  0  0  0
    3.0837   -4.5762    3.1647 C   0  0  1  0  0  0  0  0  0  0  0  0
    3.4350   -3.0738    3.3113 C   0  0  0  0  0  0  0  0  0  0  0  0
    3.7109   -5.0503    4.3356 O   0  0  0  0  0  0  0  0  0  0  0  0
    3.4568   -5.3677    1.8299 C   0  0  1  0  0  0  0  0  0  0  0  0
    2.2684   -6.0827    1.5122 O   0  0  0  0  0  0  0  0  0  0  0  0
    3.7691   -4.4462    0.5924 C   0  0  1  0  0  0  0  0  0  0  0  0
    2.8154   -3.4194    0.4166 O   0  0  0  0  0  0  0  0  0  0  0  0
    5.1937   -3.8202    0.6002 C   0  0  0  0  0  0  0  0  0  0  0  0
    6.2934   -4.7722    1.0945 C   0  0  0  0  0  0  0  0  0  0  0  0
    7.4278   -4.7527    0.6161 O   0  0  0  0  0  0  0  0  0  0  0  0
    5.8785   -5.7360    2.2195 C   0  0  2  0  0  0  0  0  0  0  0  0
    6.9607   -6.6668    2.7863 C   0  0  0  0  0  0  0  0  0  0  0  0
    6.5071   -7.0463    4.0846 O   0  0  0  0  0  0  0  0  0  0  0  0
    5.2186   -7.6691    4.1876 C   0  0  0  0  0  0  0  0  0  0  0  0
    4.3723   -7.7132    2.8805 C   0  0  1  0  0  0  0  0  0  0  0  0
    2.9232   -8.2919    2.9913 C   0  0  2  0  0  0  0  0  0  0  0  0
    1.8796   -7.3386    3.5868 C   0  0  2  0  0  0  0  0  0  0  0  0
    0.8465   -8.2709    4.1715 C   0  0  0  0  0  0  0  0  0  0  0  0
   -0.2401   -7.8669    4.6306 O   0  0  0  0  0  0  0  0  0  0  0  0
    1.2886   -9.7294    4.1904 C   0  0  0  0  0  0  0  0  0  0  0  0
    1.0298  -10.3142    5.5968 C   0  0  0  0  0  0  0  0  0  0  0  0
    0.5191  -10.5977    3.1606 C   0  0  0  0  0  0  0  0  0  0  0  0
    2.7891   -9.5691    3.8586 C   0  0  1  0  0  0  0  0  0  0  0  0
    3.4350  -10.8221    3.2472 C   0  0  0  0  0  0  0  0  0  0  0  0
    4.5732   -6.4961    1.8819 C   0  0  1  0  0  0  0  0  0  0  0  0
    4.7319   -7.2147    0.4930 C   0  0  0  0  0  0  0  0  0  0  0  0
   -1.6911   -8.9785    1.1620 H   0  0  0  0  0  0  0  0  0  0  0  0
   -2.2714   -7.6525    2.0791 H   0  0  0  0  0  0  0  0  0  0  0  0
   -1.0765   -8.6405    2.8305 H   0  0  0  0  0  0  0  0  0  0  0  0
    0.5972   -7.8830    0.9677 H   0  0  0  0  0  0  0  0  0  0  0  0
   -0.5545   -6.8073    0.3313 H   0  0  0  0  0  0  0  0  0  0  0  0
    1.0411   -4.0656    2.7103 H   0  0  0  0  0  0  0  0  0  0  0  0
    1.1931   -4.8170    4.3041 H   0  0  0  0  0  0  0  0  0  0  0  0
    2.9456   -2.4270    2.5923 H   0  0  0  0  0  0  0  0  0  0  0  0
    4.5075   -2.9024    3.2550 H   0  0  0  0  0  0  0  0  0  0  0  0
    3.1193   -2.6979    4.2843 H   0  0  0  0  0  0  0  0  0  0  0  0
    3.5575   -5.9937    4.3890 H   0  0  0  0  0  0  0  0  0  0  0  0
    3.6608   -5.0205   -0.3319 H   0  0  0  0  0  0  0  0  0  0  0  0
    2.9908   -2.9680   -0.4074 H   0  0  0  0  0  0  0  0  0  0  0  0
    5.4540   -3.4647   -0.3971 H   0  0  0  0  0  0  0  0  0  0  0  0
    5.2283   -2.9395    1.2354 H   0  0  0  0  0  0  0  0  0  0  0  0
    5.6895   -5.0446    3.0352 H   0  0  0  0  0  0  0  0  0  0  0  0
    7.1403   -7.5427    2.1615 H   0  0  0  0  0  0  0  0  0  0  0  0
    7.9109   -6.1454    2.8957 H   0  0  0  0  0  0  0  0  0  0  0  0
    5.4196   -8.6906    4.4999 H   0  0  0  0  0  0  0  0  0  0  0  0
    4.6720   -7.2289    5.0227 H   0  0  0  0  0  0  0  0  0  0  0  0
    4.8848   -8.5569    2.4095 H   0  0  0  0  0  0  0  0  0  0  0  0
    2.5838   -8.5493    1.9867 H   0  0  0  0  0  0  0  0  0  0  0  0
    2.3004   -6.8749    4.4801 H   0  0  0  0  0  0  0  0  0  0  0  0
    1.4507  -11.3141    5.6812 H   0  0  0  0  0  0  0  0  0  0  0  0
   -0.0382  -10.4019    5.8080 H   0  0  0  0  0  0  0  0  0  0  0  0
    1.4551   -9.7057    6.3926 H   0  0  0  0  0  0  0  0  0  0  0  0
    0.8648  -11.6468    3.1907 H   0  0  0  0  0  0  0  0  0  0  0  0
    0.6701  -10.2414    2.1442 H   0  0  0  0  0  0  0  0  0  0  0  0
   -0.5515  -10.6226    3.3746 H   0  0  0  0  0  0  0  0  0  0  0  0
    3.2751   -9.3848    4.8155 H   0  0  0  0  0  0  0  0  0  0  0  0
    3.0652  -11.0282    2.2414 H   0  0  0  0  0  0  0  0  0  0  0  0
    3.2417  -11.7029    3.8637 H   0  0  0  0  0  0  0  0  0  0  0  0
    4.5148  -10.7001    3.1824 H   0  0  0  0  0  0  0  0  0  0  0  0
    5.4944   -7.9859    0.5092 H   0  0  0  0  0  0  0  0  0  0  0  0
    5.0049   -6.5811   -0.3464 H   0  0  0  0  0  0  0  0  0  0  0  0
    3.8114   -7.7258    0.2136 H   0  0  0  0  0  0  0  0  0  0  0  0
  1  2  1  0
  1 32  1  0
  1 33  1  0
  1 34  1  0
  2  3  1  0
  2 35  1  0
  2 36  1  0
  4  3  1  6
  4 10  1  0
  4 22  1  0
  4  5  1  0
  5  6  1  0
  5 37  1  0
  5 38  1  0
  6  7  1  0
  6  8  1  1
  6  9  1  0
  7 39  1  0
  7 40  1  0
  7 41  1  0
  8 42  1  0
  9 30  1  0
  9 10  1  6
  9 11  1  0
 11 12  1  0
 11 13  1  0
 11 43  1  6
 12 44  1  0
 13 14  1  0
 13 45  1  0
 13 46  1  0
 14 15  2  0
 14 16  1  0
 16 30  1  0
 16 17  1  0
 16 47  1  1
 17 18  1  0
 17 48  1  0
 17 49  1  0
 18 19  1  0
 19 20  1  0
 19 50  1  0
 19 51  1  0
 20 21  1  0
 20 30  1  0
 20 52  1  6
 21 28  1  0
 21 22  1  0
 21 53  1  6
 22 23  1  0
 22 54  1  1
 23 24  2  0
 23 25  1  0
 25 26  1  0
 25 27  1  0
 25 28  1  0
 26 55  1  0
 26 56  1  0
 26 57  1  0
 27 58  1  0
 27 59  1  0
 27 60  1  0
 28 29  1  0
 28 61  1  1
 29 62  1  0
 29 63  1  0
 29 64  1  0
 30 31  1  6
 31 65  1  0
 31 66  1  0
 31 67  1  0
M  END
>  <i_m_ct_stereo_status>  (340) 
1

>  <s_m_source_file>  (340) 
/var/tmp/pbs.5076255.sched01/tmpajq2dbrl/12675ddggds.sdf

>  <i_m_source_file_index>  (340) 
30

>  <i_lp_mmshare_version>  (340) 
48012

>  <i_f3d_flags>  (340) 
0

>  <s_epik_input>  (340) 
W0NIM11bQ0gyXU9bQ0BAXShPMSkoW0NIMl1bQ0BAXTIoW0NIM10pW09IXSlbQ0BASF0oQyg9TylDKFtDSDNdKShbQ0gzXSlbQ0BIXTNbQ0gzXSlbQ0BIXTNbQ0BASF00W0NIMl1PW0NIMl1bQ0BIXShbQ0BAXTQoW0NAQF0xMjUpW0NIM10pQyg9TylbQ0gyXVtDQEBIXTVbT0hd

>  <s_epik_cmdline>  (340) 
J2VwaWtfcHl0aG9uJywgJy1waHQnLCAnMi4wJywgJy1waCcsICc3LjAnLCAnLXRuJywgJzgnLCAnLW1hJywgJzIwMCcsICctaW1hZScsICc8aW5maWxlLm1hZT4nLCAnLW9tYWUnLCAnPG91dGZpbGUubWFlPic=

>  <r_lp_tautomer_probability>  (340) 
1

>  <r_epik_Ionization_Penalty>  (340) 
4.50789e-07

>  <r_epik_Ionization_Penalty_Charging>  (340) 
0

>  <r_epik_Ionization_Penalty_Neutral>  (340) 
4.50789e-07

>  <r_epik_State_Penalty>  (340) 
-0

>  <r_epik_Charging_Adjusted_Penalty>  (340) 
0

>  <i_epik_Tot_Q>  (340) 
0

>  <i_epik_Tot_abs_Q>  (340) 
0

>  <s_lp_Force_Field>  (340) 
OPLS3e

>  <r_lp_Energy>  (340) 
49.4137

>  <b_lp_Chiralities_Consistent>  (340) 
1

>  <s_lp_Variant>  (340) 
109:0-1

>  <s_i_glide_gridfile>  (340) 
pfpi4k_grid

>  <i_i_glide_lignum>  (340) 
30

>  <i_i_glide_rotatable_bonds>  (340) 
4

>  <r_i_docking_score>  (340) 
-2.91349

>  <r_i_glide_ligand_efficiency>  (340) 
-0.0939834

>  <r_i_glide_ligand_efficiency_sa>  (340) 
-0.295238

>  <r_i_glide_ligand_efficiency_ln>  (340) 
-0.65708

>  <r_i_glide_gscore>  (340) 
-2.91349

>  <r_i_glide_lipo>  (340) 
-0.270781

>  <r_i_glide_hbond>  (340) 
-0.222801

>  <r_i_glide_metal>  (340) 
-0

>  <r_i_glide_rewards>  (340) 
-0.561922

>  <r_i_glide_evdw>  (340) 
-23.2792

>  <r_i_glide_ecoul>  (340) 
-4.96569

>  <r_i_glide_erotb>  (340) 
0.104603

>  <r_i_glide_esite>  (340) 
-0.0537732

>  <r_i_glide_emodel>  (340) 
-29.8561

>  <r_i_glide_energy>  (340) 
-28.2448

>  <r_i_glide_einternal>  (340) 
2.97219

>  <r_i_glide_intrahb_reward>  (340) 
-0

>  <i_i_glide_confnum>  (340) 
3

>  <i_i_glide_posenum>  (340) 
13

>  <r_i_glide_eff_state_penalty>  (340) 
0

>  <ligand_id>  (340) 
109

>  <original_smiles>  (340) 
CCOC12CC(C)(O)C3(O1)C(O)CC(=O)C1COCC(C4C2C(=O)C(C)(C)C4C)C13C

>  <smiles>  (340) 
[H]OC1([H])C([H])([H])C(=O)C2([H])C([H])([H])OC([H])([H])C3([H])C4([H])C([H])(C(=O)C(C([H])([H])[H])(C([H])([H])[H])C4([H])C([H])([H])[H])C4(OC([H])([H])C([H])([H])[H])OC1(C(O[H])(C([H])([H])[H])C4([H])[H])C23C([H])([H])[H]

$$$$
109:0:1
     RDKit          3D

 67 71  0  0  1  0  0  0  0  0999 V2000
   -1.3207   -8.2194    1.8695 C   0  0  0  0  0  0  0  0  0  0  0  0
   -0.2066   -7.3522    1.2492 C   0  0  0  0  0  0  0  0  0  0  0  0
    0.1031   -6.3475    2.2106 O   0  0  0  0  0  0  0  0  0  0  0  0
    1.4456   -6.1434    2.5882 C   0  0  2  0  0  0  0  0  0  0  0  0
    1.5727   -4.7331    3.1719 C   0  0  0  0  0  0  0  0  0  0  0  0
    3.0671   -4.4696    3.0377 C   0  0  1  0  0  0  0  0  0  0  0  0
    3.4048   -2.9460    3.1034 C   0  0  0  0  0  0  0  0  0  0  0  0
    3.7040   -4.8753    4.2358 O   0  0  0  0  0  0  0  0  0  0  0  0
    3.4655   -5.3249    1.7586 C   0  0  1  0  0  0  0  0  0  0  0  0
    2.2899   -6.0860    1.4758 O   0  0  0  0  0  0  0  0  0  0  0  0
    3.7666   -4.4745    0.4724 C   0  0  1  0  0  0  0  0  0  0  0  0
    2.7969   -3.4701    0.2208 O   0  0  0  0  0  0  0  0  0  0  0  0
    5.1757   -3.8231    0.4359 C   0  0  0  0  0  0  0  0  0  0  0  0
    6.2938   -4.7239    0.9883 C   0  0  0  0  0  0  0  0  0  0  0  0
    7.4283   -4.7070    0.5101 O   0  0  0  0  0  0  0  0  0  0  0  0
    5.8992   -5.6242    2.1675 C   0  0  2  0  0  0  0  0  0  0  0  0
    6.9997   -6.5002    2.7856 C   0  0  0  0  0  0  0  0  0  0  0  0
    6.5570   -6.8159    4.1048 O   0  0  0  0  0  0  0  0  0  0  0  0
    5.2730   -7.4453    4.2458 C   0  0  0  0  0  0  0  0  0  0  0  0
    4.4335   -7.5886    2.9420 C   0  0  1  0  0  0  0  0  0  0  0  0
    2.9941   -8.1911    3.0870 C   0  0  2  0  0  0  0  0  0  0  0  0
    1.9393   -7.2250    3.6209 C   0  0  2  0  0  0  0  0  0  0  0  0
    0.8890   -8.1344    4.2455 C   0  0  0  0  0  0  0  0  0  0  0  0
   -0.1853   -7.7278    4.6829 O   0  0  0  0  0  0  0  0  0  0  0  0
    1.3837   -9.5766    4.3599 C   0  0  0  0  0  0  0  0  0  0  0  0
    1.1294  -10.0776    5.8006 C   0  0  0  0  0  0  0  0  0  0  0  0
    0.6218  -10.5147    3.3890 C   0  0  0  0  0  0  0  0  0  0  0  0
    2.8733   -9.4125    4.0231 C   0  0  1  0  0  0  0  0  0  0  0  0
    3.5517  -10.6883    3.4900 C   0  0  0  0  0  0  0  0  0  0  0  0
    4.6026   -6.4290    1.8741 C   0  0  1  0  0  0  0  0  0  0  0  0
    4.7619   -7.2320    0.5356 C   0  0  0  0  0  0  0  0  0  0  0  0
   -1.6199   -9.0431    1.2013 H   0  0  0  0  0  0  0  0  0  0  0  0
   -2.2373   -7.6550    2.0586 H   0  0  0  0  0  0  0  0  0  0  0  0
   -1.0278   -8.6108    2.8732 H   0  0  0  0  0  0  0  0  0  0  0  0
    0.6728   -7.9356    1.0026 H   0  0  0  0  0  0  0  0  0  0  0  0
   -0.5109   -6.8725    0.3279 H   0  0  0  0  0  0  0  0  0  0  0  0
    1.0084   -4.0322    2.5611 H   0  0  0  0  0  0  0  0  0  0  0  0
    1.1894   -4.6819    4.1930 H   0  0  0  0  0  0  0  0  0  0  0  0
    2.9057   -2.3519    2.3417 H   0  0  0  0  0  0  0  0  0  0  0  0
    4.4739   -2.7604    3.0322 H   0  0  0  0  0  0  0  0  0  0  0  0
    3.0809   -2.5112    4.0467 H   0  0  0  0  0  0  0  0  0  0  0  0
    3.3788   -4.3659    4.9520 H   0  0  0  0  0  0  0  0  0  0  0  0
    3.6657   -5.1035   -0.4195 H   0  0  0  0  0  0  0  0  0  0  0  0
    2.9328   -3.1149   -0.6322 H   0  0  0  0  0  0  0  0  0  0  0  0
    5.4311   -3.5232   -0.5799 H   0  0  0  0  0  0  0  0  0  0  0  0
    5.1943   -2.9036    1.0191 H   0  0  0  0  0  0  0  0  0  0  0  0
    5.6921   -4.8945    2.9445 H   0  0  0  0  0  0  0  0  0  0  0  0
    7.1943   -7.4075    2.2116 H   0  0  0  0  0  0  0  0  0  0  0  0
    7.9390   -5.9558    2.8616 H   0  0  0  0  0  0  0  0  0  0  0  0
    5.4887   -8.4388    4.6196 H   0  0  0  0  0  0  0  0  0  0  0  0
    4.7163   -6.9610    5.0500 H   0  0  0  0  0  0  0  0  0  0  0  0
    4.9634   -8.4475    2.5241 H   0  0  0  0  0  0  0  0  0  0  0  0
    2.6589   -8.5100    2.0920 H   0  0  0  0  0  0  0  0  0  0  0  0
    2.3535   -6.6987    4.4914 H   0  0  0  0  0  0  0  0  0  0  0  0
    1.5965  -11.0515    5.9255 H   0  0  0  0  0  0  0  0  0  0  0  0
    0.0664  -10.1941    6.0179 H   0  0  0  0  0  0  0  0  0  0  0  0
    1.5468   -9.4148    6.5547 H   0  0  0  0  0  0  0  0  0  0  0  0
    0.9760  -11.5590    3.4832 H   0  0  0  0  0  0  0  0  0  0  0  0
    0.7691  -10.2213    2.3530 H   0  0  0  0  0  0  0  0  0  0  0  0
   -0.4387  -10.5533    3.6054 H   0  0  0  0  0  0  0  0  0  0  0  0
    3.3569   -9.1626    4.9671 H   0  0  0  0  0  0  0  0  0  0  0  0
    3.1922  -10.9633    2.4961 H   0  0  0  0  0  0  0  0  0  0  0  0
    3.3746  -11.5315    4.1593 H   0  0  0  0  0  0  0  0  0  0  0  0
    4.6285  -10.5467    3.4227 H   0  0  0  0  0  0  0  0  0  0  0  0
    5.5517   -7.9715    0.5921 H   0  0  0  0  0  0  0  0  0  0  0  0
    5.0199   -6.6380   -0.3395 H   0  0  0  0  0  0  0  0  0  0  0  0
    3.8415   -7.7619    0.2922 H   0  0  0  0  0  0  0  0  0  0  0  0
  1  2  1  0
  1 32  1  0
  1 33  1  0
  1 34  1  0
  2  3  1  0
  2 35  1  0
  2 36  1  0
  4  3  1  6
  4 10  1  0
  4 22  1  0
  4  5  1  0
  5  6  1  0
  5 37  1  0
  5 38  1  0
  6  7  1  0
  6  8  1  1
  6  9  1  0
  7 39  1  0
  7 40  1  0
  7 41  1  0
  8 42  1  0
  9 30  1  0
  9 10  1  6
  9 11  1  0
 11 12  1  0
 11 13  1  0
 11 43  1  6
 12 44  1  0
 13 14  1  0
 13 45  1  0
 13 46  1  0
 14 15  2  0
 14 16  1  0
 16 30  1  0
 16 17  1  0
 16 47  1  1
 17 18  1  0
 17 48  1  0
 17 49  1  0
 18 19  1  0
 19 20  1  0
 19 50  1  0
 19 51  1  0
 20 21  1  0
 20 30  1  0
 20 52  1  6
 21 28  1  0
 21 22  1  0
 21 53  1  6
 22 23  1  0
 22 54  1  1
 23 24  2  0
 23 25  1  0
 25 26  1  0
 25 27  1  0
 25 28  1  0
 26 55  1  0
 26 56  1  0
 26 57  1  0
 27 58  1  0
 27 59  1  0
 27 60  1  0
 28 29  1  0
 28 61  1  1
 29 62  1  0
 29 63  1  0
 29 64  1  0
 30 31  1  6
 31 65  1  0
 31 66  1  0
 31 67  1  0
M  END
>  <i_m_ct_stereo_status>  (341) 
1

>  <s_m_source_file>  (341) 
/var/tmp/pbs.5076255.sched01/tmpajq2dbrl/12675ddggds.sdf

>  <i_m_source_file_index>  (341) 
30

>  <i_lp_mmshare_version>  (341) 
48012

>  <i_f3d_flags>  (341) 
0

>  <s_epik_input>  (341) 
W0NIM11bQ0gyXU9bQ0BAXShPMSkoW0NIMl1bQ0BAXTIoW0NIM10pW09IXSlbQ0BASF0oQyg9TylDKFtDSDNdKShbQ0gzXSlbQ0BIXTNbQ0gzXSlbQ0BIXTNbQ0BASF00W0NIMl1PW0NIMl1bQ0BIXShbQ0BAXTQoW0NAQF0xMjUpW0NIM10pQyg9TylbQ0gyXVtDQEBIXTVbT0hd

>  <s_epik_cmdline>  (341) 
J2VwaWtfcHl0aG9uJywgJy1waHQnLCAnMi4wJywgJy1waCcsICc3LjAnLCAnLXRuJywgJzgnLCAnLW1hJywgJzIwMCcsICctaW1hZScsICc8aW5maWxlLm1hZT4nLCAnLW9tYWUnLCAnPG91dGZpbGUubWFlPic=

>  <r_lp_tautomer_probability>  (341) 
1

>  <r_epik_Ionization_Penalty>  (341) 
4.50789e-07

>  <r_epik_Ionization_Penalty_Charging>  (341) 
0

>  <r_epik_Ionization_Penalty_Neutral>  (341) 
4.50789e-07

>  <r_epik_State_Penalty>  (341) 
-0

>  <r_epik_Charging_Adjusted_Penalty>  (341) 
0

>  <i_epik_Tot_Q>  (341) 
0

>  <i_epik_Tot_abs_Q>  (341) 
0

>  <s_lp_Force_Field>  (341) 
OPLS3e

>  <r_lp_Energy>  (341) 
49.4137

>  <b_lp_Chiralities_Consistent>  (341) 
1

>  <s_lp_Variant>  (341) 
109:0-1

>  <s_i_glide_gridfile>  (341) 
pfpi4k_grid

>  <i_i_glide_lignum>  (341) 
30

>  <i_i_glide_rotatable_bonds>  (341) 
4

>  <r_i_docking_score>  (341) 
-2.85321

>  <r_i_glide_ligand_efficiency>  (341) 
-0.0920391

>  <r_i_glide_ligand_efficiency_sa>  (341) 
-0.28913

>  <r_i_glide_ligand_efficiency_ln>  (341) 
-0.643487

>  <r_i_glide_gscore>  (341) 
-2.85321

>  <r_i_glide_lipo>  (341) 
-0.246977

>  <r_i_glide_hbond>  (341) 
-0.209648

>  <r_i_glide_metal>  (341) 
-0

>  <r_i_glide_rewards>  (341) 
-0.566305

>  <r_i_glide_evdw>  (341) 
-22.7713

>  <r_i_glide_ecoul>  (341) 
-4.95959

>  <r_i_glide_erotb>  (341) 
0.104603

>  <r_i_glide_esite>  (341) 
-0.0523848

>  <r_i_glide_emodel>  (341) 
-30.4809

>  <r_i_glide_energy>  (341) 
-27.7308

>  <r_i_glide_einternal>  (341) 
2.76402

>  <r_i_glide_intrahb_reward>  (341) 
-0

>  <i_i_glide_confnum>  (341) 
2

>  <i_i_glide_posenum>  (341) 
40

>  <r_i_glide_eff_state_penalty>  (341) 
0

>  <ligand_id>  (341) 
109

>  <original_smiles>  (341) 
CCOC12CC(C)(O)C3(O1)C(O)CC(=O)C1COCC(C4C2C(=O)C(C)(C)C4C)C13C

>  <smiles>  (341) 
[H]OC1([H])C([H])([H])C(=O)C2([H])C([H])([H])OC([H])([H])C3([H])C4([H])C([H])(C(=O)C(C([H])([H])[H])(C([H])([H])[H])C4([H])C([H])([H])[H])C4(OC([H])([H])C([H])([H])[H])OC1(C(O[H])(C([H])([H])[H])C4([H])[H])C23C([H])([H])[H]

$$$$
109:0:2
     RDKit          3D

 67 71  0  0  1  0  0  0  0  0999 V2000
   -0.0400   -7.4673    3.2062 C   0  0  0  0  0  0  0  0  0  0  0  0
    1.1873   -6.9138    2.4706 C   0  0  0  0  0  0  0  0  0  0  0  0
    1.3160   -5.5176    2.7801 O   0  0  0  0  0  0  0  0  0  0  0  0
    2.5183   -4.8782    2.4217 C   0  0  2  0  0  0  0  0  0  0  0  0
    2.2911   -3.3767    2.5362 C   0  0  0  0  0  0  0  0  0  0  0  0
    3.3875   -2.8233    1.6371 C   0  0  1  0  0  0  0  0  0  0  0  0
    3.0808   -1.3835    1.1733 C   0  0  0  0  0  0  0  0  0  0  0  0
    4.5096   -2.5376    2.4106 O   0  0  0  0  0  0  0  0  0  0  0  0
    3.5674   -3.9680    0.5591 C   0  0  1  0  0  0  0  0  0  0  0  0
    2.7841   -5.0402    1.0663 O   0  0  0  0  0  0  0  0  0  0  0  0
    3.0255   -3.6393   -0.8798 C   0  0  1  0  0  0  0  0  0  0  0  0
    1.7030   -3.1983   -0.9569 O   0  0  0  0  0  0  0  0  0  0  0  0
    3.8989   -2.7058   -1.7843 C   0  0  0  0  0  0  0  0  0  0  0  0
    5.3806   -3.0131   -1.6703 C   0  0  0  0  0  0  0  0  0  0  0  0
    6.1379   -2.9235   -2.6345 O   0  0  0  0  0  0  0  0  0  0  0  0
    5.8367   -3.4513   -0.2775 C   0  0  2  0  0  0  0  0  0  0  0  0
    7.3469   -3.6833   -0.1152 C   0  0  0  0  0  0  0  0  0  0  0  0
    7.5922   -3.5752    1.2708 O   0  0  0  0  0  0  0  0  0  0  0  0
    6.8277   -4.4351    2.1260 C   0  0  0  0  0  0  0  0  0  0  0  0
    5.7048   -5.2960    1.5538 C   0  0  1  0  0  0  0  0  0  0  0  0
    4.8175   -6.1196    2.5511 C   0  0  2  0  0  0  0  0  0  0  0  0
    3.7394   -5.3261    3.3141 C   0  0  2  0  0  0  0  0  0  0  0  0
    3.4656   -6.1736    4.5557 C   0  0  0  0  0  0  0  0  0  0  0  0
    2.5189   -5.9808    5.3329 O   0  0  0  0  0  0  0  0  0  0  0  0
    4.5444   -7.2513    4.7354 C   0  0  0  0  0  0  0  0  0  0  0  0
    5.0919   -7.1855    6.1790 C   0  0  0  0  0  0  0  0  0  0  0  0
    3.9137   -8.6483    4.5048 C   0  0  0  0  0  0  0  0  0  0  0  0
    5.5932   -6.8445    3.6743 C   0  0  1  0  0  0  0  0  0  0  0  0
    6.4880   -7.9895    3.1893 C   0  0  0  0  0  0  0  0  0  0  0  0
    4.9835   -4.6184    0.3241 C   0  0  1  0  0  0  0  0  0  0  0  0
    4.9552   -5.8342   -0.6526 C   0  0  0  0  0  0  0  0  0  0  0  0
   -0.1234   -8.5403    3.0515 H   0  0  0  0  0  0  0  0  0  0  0  0
   -0.9553   -6.9937    2.8591 H   0  0  0  0  0  0  0  0  0  0  0  0
    0.0482   -7.2979    4.2785 H   0  0  0  0  0  0  0  0  0  0  0  0
    2.0579   -7.4694    2.8131 H   0  0  0  0  0  0  0  0  0  0  0  0
    1.1183   -7.0805    1.3881 H   0  0  0  0  0  0  0  0  0  0  0  0
    1.3194   -3.1275    2.1164 H   0  0  0  0  0  0  0  0  0  0  0  0
    2.3233   -3.0389    3.5715 H   0  0  0  0  0  0  0  0  0  0  0  0
    2.1470   -1.3355    0.6338 H   0  0  0  0  0  0  0  0  0  0  0  0
    3.8523   -0.9521    0.5175 H   0  0  0  0  0  0  0  0  0  0  0  0
    2.9526   -0.6881    2.0235 H   0  0  0  0  0  0  0  0  0  0  0  0
    4.5567   -1.5987    2.5505 H   0  0  0  0  0  0  0  0  0  0  0  0
    2.8928   -4.5853   -1.3850 H   0  0  0  0  0  0  0  0  0  0  0  0
    1.6947   -2.2435   -0.8963 H   0  0  0  0  0  0  0  0  0  0  0  0
    3.5675   -2.8195   -2.8145 H   0  0  0  0  0  0  0  0  0  0  0  0
    3.7277   -1.6711   -1.5163 H   0  0  0  0  0  0  0  0  0  0  0  0
    5.6683   -2.5489    0.3055 H   0  0  0  0  0  0  0  0  0  0  0  0
    7.6945   -4.6550   -0.4477 H   0  0  0  0  0  0  0  0  0  0  0  0
    7.9358   -2.9242   -0.6493 H   0  0  0  0  0  0  0  0  0  0  0  0
    7.5549   -5.0723    2.6220 H   0  0  0  0  0  0  0  0  0  0  0  0
    6.3483   -3.8182    2.8664 H   0  0  0  0  0  0  0  0  0  0  0  0
    6.3716   -6.0945    1.2105 H   0  0  0  0  0  0  0  0  0  0  0  0
    4.3017   -6.8783    1.9669 H   0  0  0  0  0  0  0  0  0  0  0  0
    4.1899   -4.4242    3.7259 H   0  0  0  0  0  0  0  0  0  0  0  0
    5.9269   -7.8731    6.3168 H   0  0  0  0  0  0  0  0  0  0  0  0
    4.3277   -7.4565    6.9210 H   0  0  0  0  0  0  0  0  0  0  0  0
    5.4404   -6.1828    6.4387 H   0  0  0  0  0  0  0  0  0  0  0  0
    4.6283   -9.4447    4.7142 H   0  0  0  0  0  0  0  0  0  0  0  0
    3.5842   -8.7868    3.4772 H   0  0  0  0  0  0  0  0  0  0  0  0
    3.0473   -8.8244    5.1574 H   0  0  0  0  0  0  0  0  0  0  0  0
    6.2351   -6.1211    4.1617 H   0  0  0  0  0  0  0  0  0  0  0  0
    5.9381   -8.7255    2.5945 H   0  0  0  0  0  0  0  0  0  0  0  0
    6.9510   -8.5160    4.0283 H   0  0  0  0  0  0  0  0  0  0  0  0
    7.3030   -7.6136    2.5678 H   0  0  0  0  0  0  0  0  0  0  0  0
    5.9493   -6.2519   -0.6827 H   0  0  0  0  0  0  0  0  0  0  0  0
    4.7285   -5.5235   -1.6652 H   0  0  0  0  0  0  0  0  0  0  0  0
    4.2115   -6.5721   -0.3231 H   0  0  0  0  0  0  0  0  0  0  0  0
  1  2  1  0
  1 32  1  0
  1 33  1  0
  1 34  1  0
  2  3  1  0
  2 35  1  0
  2 36  1  0
  4  3  1  1
  4 10  1  0
  4 22  1  0
  4  5  1  0
  5  6  1  0
  5 37  1  0
  5 38  1  0
  6  7  1  0
  6  8  1  1
  6  9  1  0
  7 39  1  0
  7 40  1  0
  7 41  1  0
  8 42  1  0
  9 30  1  0
  9 10  1  1
  9 11  1  0
 11 12  1  0
 11 13  1  0
 11 43  1  6
 12 44  1  0
 13 14  1  0
 13 45  1  0
 13 46  1  0
 14 15  2  0
 14 16  1  0
 16 30  1  0
 16 17  1  0
 16 47  1  1
 17 18  1  0
 17 48  1  0
 17 49  1  0
 18 19  1  0
 19 20  1  0
 19 50  1  0
 19 51  1  0
 20 21  1  0
 20 30  1  0
 20 52  1  6
 21 28  1  0
 21 22  1  0
 21 53  1  6
 22 23  1  0
 22 54  1  1
 23 24  2  0
 23 25  1  0
 25 26  1  0
 25 27  1  0
 25 28  1  0
 26 55  1  0
 26 56  1  0
 26 57  1  0
 27 58  1  0
 27 59  1  0
 27 60  1  0
 28 29  1  0
 28 61  1  1
 29 62  1  0
 29 63  1  0
 29 64  1  0
 30 31  1  6
 31 65  1  0
 31 66  1  0
 31 67  1  0
M  END
>  <i_m_ct_stereo_status>  (342) 
1

>  <s_m_source_file>  (342) 
/var/tmp/pbs.5076255.sched01/tmpajq2dbrl/12675ddggds.sdf

>  <i_m_source_file_index>  (342) 
30

>  <i_lp_mmshare_version>  (342) 
48012

>  <i_f3d_flags>  (342) 
0

>  <s_epik_input>  (342) 
W0NIM11bQ0gyXU9bQ0BAXShPMSkoW0NIMl1bQ0BAXTIoW0NIM10pW09IXSlbQ0BASF0oQyg9TylDKFtDSDNdKShbQ0gzXSlbQ0BIXTNbQ0gzXSlbQ0BIXTNbQ0BASF00W0NIMl1PW0NIMl1bQ0BIXShbQ0BAXTQoW0NAQF0xMjUpW0NIM10pQyg9TylbQ0gyXVtDQEBIXTVbT0hd

>  <s_epik_cmdline>  (342) 
J2VwaWtfcHl0aG9uJywgJy1waHQnLCAnMi4wJywgJy1waCcsICc3LjAnLCAnLXRuJywgJzgnLCAnLW1hJywgJzIwMCcsICctaW1hZScsICc8aW5maWxlLm1hZT4nLCAnLW9tYWUnLCAnPG91dGZpbGUubWFlPic=

>  <r_lp_tautomer_probability>  (342) 
1

>  <r_epik_Ionization_Penalty>  (342) 
4.50789e-07

>  <r_epik_Ionization_Penalty_Charging>  (342) 
0

>  <r_epik_Ionization_Penalty_Neutral>  (342) 
4.50789e-07

>  <r_epik_State_Penalty>  (342) 
-0

>  <r_epik_Charging_Adjusted_Penalty>  (342) 
0

>  <i_epik_Tot_Q>  (342) 
0

>  <i_epik_Tot_abs_Q>  (342) 
0

>  <s_lp_Force_Field>  (342) 
OPLS3e

>  <r_lp_Energy>  (342) 
49.4137

>  <b_lp_Chiralities_Consistent>  (342) 
1

>  <s_lp_Variant>  (342) 
109:0-1

>  <s_i_glide_gridfile>  (342) 
pfpi4k_grid

>  <i_i_glide_lignum>  (342) 
30

>  <i_i_glide_rotatable_bonds>  (342) 
4

>  <r_i_docking_score>  (342) 
-1.66505

>  <r_i_glide_ligand_efficiency>  (342) 
-0.0537114

>  <r_i_glide_ligand_efficiency_sa>  (342) 
-0.168728

>  <r_i_glide_ligand_efficiency_ln>  (342) 
-0.37552

>  <r_i_glide_gscore>  (342) 
-1.66505

>  <r_i_glide_lipo>  (342) 
-0.38625

>  <r_i_glide_hbond>  (342) 
0

>  <r_i_glide_metal>  (342) 
-0

>  <r_i_glide_rewards>  (342) 
-0.503496

>  <r_i_glide_evdw>  (342) 
4.61062

>  <r_i_glide_ecoul>  (342) 
-7.34994

>  <r_i_glide_erotb>  (342) 
0.104603

>  <r_i_glide_esite>  (342) 
-0.0079481

>  <r_i_glide_emodel>  (342) 
-2.52945

>  <r_i_glide_energy>  (342) 
-2.73932

>  <r_i_glide_einternal>  (342) 
3.11643

>  <r_i_glide_intrahb_reward>  (342) 
-0

>  <i_i_glide_confnum>  (342) 
3

>  <i_i_glide_posenum>  (342) 
32

>  <r_i_glide_eff_state_penalty>  (342) 
0

>  <ligand_id>  (342) 
109

>  <original_smiles>  (342) 
CCOC12CC(C)(O)C3(O1)C(O)CC(=O)C1COCC(C4C2C(=O)C(C)(C)C4C)C13C

>  <smiles>  (342) 
[H]OC1([H])C([H])([H])C(=O)C2([H])C([H])([H])OC([H])([H])C3([H])C4([H])C([H])(C(=O)C(C([H])([H])[H])(C([H])([H])[H])C4([H])C([H])([H])[H])C4(OC([H])([H])C([H])([H])[H])OC1(C(O[H])(C([H])([H])[H])C4([H])[H])C23C([H])([H])[H]

$$$$
110:0:0
     RDKit          3D

 66 71  0  0  1  0  0  0  0  0999 V2000
    1.1010   -9.3938    5.8576 C   0  0  0  0  0  0  0  0  0  0  0  0
    2.0694   -8.6012    4.9392 C   0  0  1  0  0  0  0  0  0  0  0  0
    3.5395   -9.0462    5.2186 C   0  0  0  0  0  0  0  0  0  0  0  0
    3.8862  -10.4765    4.7631 C   0  0  0  0  0  0  0  0  0  0  0  0
    3.5577  -10.6659    3.2785 C   0  0  1  0  0  0  0  0  0  0  0  0
    3.8448  -11.9911    2.8900 O   0  0  0  0  0  0  0  0  0  0  0  0
    2.0845  -10.3417    3.0085 C   0  0  0  0  0  0  0  0  0  0  0  0
    1.7090   -8.9450    3.4824 C   0  0  0  0  0  0  0  0  0  0  0  0
    1.0975   -8.0854    2.6572 C   0  0  0  0  0  0  0  0  0  0  0  0
    0.6463   -6.6884    3.0170 C   0  0  0  0  0  0  0  0  0  0  0  0
    0.7295   -6.3809    4.5301 C   0  0  1  0  0  0  0  0  0  0  0  0
    1.9639   -7.0481    5.1925 C   0  0  1  0  0  0  0  0  0  0  0  0
    2.0241   -6.6653    6.6983 C   0  0  0  0  0  0  0  0  0  0  0  0
    2.0124   -5.1404    6.9418 C   0  0  1  0  0  0  0  0  0  0  0  0
    3.2700   -4.6352    6.5530 O   0  0  0  0  0  0  0  0  0  0  0  0
    0.7823   -4.4253    6.2826 C   0  0  1  0  0  0  0  0  0  0  0  0
   -0.4818   -4.7850    7.1043 C   0  0  0  0  0  0  0  0  0  0  0  0
    1.0048   -2.8774    6.1846 C   0  0  2  0  0  0  0  0  0  0  0  0
   -0.2665   -1.9997    6.2747 C   0  0  0  0  0  0  0  0  0  0  0  0
    0.0567   -0.4945    6.1612 C   0  0  2  0  0  0  0  0  0  0  0  0
   -1.1330    0.2140    5.8784 O   0  0  0  0  0  0  0  0  0  0  0  0
   -1.0341    1.0674    4.8873 C   0  0  0  0  0  0  0  0  0  0  0  0
   -1.9266    1.8104    4.4673 O   0  0  0  0  0  0  0  0  0  0  0  0
    0.3655    1.0446    4.3051 C   0  0  0  0  0  0  0  0  0  0  0  0
    1.0361   -0.1483    5.0053 C   0  0  1  0  0  0  0  0  0  0  0  0
    2.2633    0.2771    5.5517 O   0  0  0  0  0  0  0  0  0  0  0  0
    1.2650   -1.3558    4.0735 C   0  0  0  0  0  0  0  0  0  0  0  0
    1.7267   -2.6264    4.8351 C   0  0  2  0  0  0  0  0  0  0  0  0
    1.5710   -3.9311    4.0139 C   0  0  0  0  0  0  0  0  0  0  0  0
    0.6220   -4.8517    4.8062 C   0  0  1  0  0  0  0  0  0  0  0  0
    1.3738   -9.3163    6.9117 H   0  0  0  0  0  0  0  0  0  0  0  0
    1.0968  -10.4631    5.6339 H   0  0  0  0  0  0  0  0  0  0  0  0
    0.0699   -9.0486    5.7489 H   0  0  0  0  0  0  0  0  0  0  0  0
    4.2257   -8.3693    4.7102 H   0  0  0  0  0  0  0  0  0  0  0  0
    3.7712   -8.9597    6.2796 H   0  0  0  0  0  0  0  0  0  0  0  0
    4.9506  -10.6630    4.9301 H   0  0  0  0  0  0  0  0  0  0  0  0
    3.3528  -11.2078    5.3730 H   0  0  0  0  0  0  0  0  0  0  0  0
    4.1904  -10.0118    2.6819 H   0  0  0  0  0  0  0  0  0  0  0  0
    3.8180  -12.0370    1.9124 H   0  0  0  0  0  0  0  0  0  0  0  0
    1.8875  -10.4286    1.9393 H   0  0  0  0  0  0  0  0  0  0  0  0
    1.4402  -11.0781    3.4983 H   0  0  0  0  0  0  0  0  0  0  0  0
    0.8878   -8.3922    1.6360 H   0  0  0  0  0  0  0  0  0  0  0  0
    1.2626   -6.0060    2.4326 H   0  0  0  0  0  0  0  0  0  0  0  0
   -0.3813   -6.5644    2.6761 H   0  0  0  0  0  0  0  0  0  0  0  0
   -0.1493   -6.8450    4.9861 H   0  0  0  0  0  0  0  0  0  0  0  0
    2.8342   -6.5927    4.7105 H   0  0  0  0  0  0  0  0  0  0  0  0
    1.1781   -7.1041    7.2255 H   0  0  0  0  0  0  0  0  0  0  0  0
    2.9075   -7.0883    7.1649 H   0  0  0  0  0  0  0  0  0  0  0  0
    1.9678   -4.9732    8.0252 H   0  0  0  0  0  0  0  0  0  0  0  0
    3.3842   -4.8063    5.6238 H   0  0  0  0  0  0  0  0  0  0  0  0
   -1.3963   -4.3821    6.6685 H   0  0  0  0  0  0  0  0  0  0  0  0
   -0.4115   -4.4098    8.1278 H   0  0  0  0  0  0  0  0  0  0  0  0
   -0.6396   -5.8601    7.1740 H   0  0  0  0  0  0  0  0  0  0  0  0
    1.6518   -2.5531    7.0025 H   0  0  0  0  0  0  0  0  0  0  0  0
   -0.9651   -2.2882    5.4889 H   0  0  0  0  0  0  0  0  0  0  0  0
   -0.7702   -2.1593    7.2238 H   0  0  0  0  0  0  0  0  0  0  0  0
    0.4611   -0.1258    7.1053 H   0  0  0  0  0  0  0  0  0  0  0  0
    0.3441    0.9343    3.2123 H   0  0  0  0  0  0  0  0  0  0  0  0
    0.8590    1.9934    4.5441 H   0  0  0  0  0  0  0  0  0  0  0  0
    2.8553    0.5196    4.8498 H   0  0  0  0  0  0  0  0  0  0  0  0
    0.3520   -1.5633    3.5443 H   0  0  0  0  0  0  0  0  0  0  0  0
    1.9970   -1.1029    3.2977 H   0  0  0  0  0  0  0  0  0  0  0  0
    2.7834   -2.5031    5.0525 H   0  0  0  0  0  0  0  0  0  0  0  0
    1.1855   -3.7298    3.0127 H   0  0  0  0  0  0  0  0  0  0  0  0
    2.5504   -4.3990    3.8859 H   0  0  0  0  0  0  0  0  0  0  0  0
   -0.3834   -4.5480    4.4992 H   0  0  0  0  0  0  0  0  0  0  0  0
  2  1  1  1
  1 31  1  0
  1 32  1  0
  1 33  1  0
  2  8  1  0
  2 12  1  0
  2  3  1  0
  3  4  1  0
  3 34  1  0
  3 35  1  0
  4  5  1  0
  4 36  1  0
  4 37  1  0
  5  6  1  0
  5  7  1  0
  5 38  1  6
  6 39  1  0
  7  8  1  0
  7 40  1  0
  7 41  1  0
  8  9  2  0
  9 10  1  0
  9 42  1  0
 10 11  1  0
 10 43  1  0
 10 44  1  0
 11 30  1  0
 11 12  1  0
 11 45  1  1
 12 13  1  0
 12 46  1  6
 13 14  1  0
 13 47  1  0
 13 48  1  0
 14 15  1  0
 14 16  1  0
 14 49  1  1
 15 50  1  0
 16 30  1  0
 16 17  1  1
 16 18  1  0
 17 51  1  0
 17 52  1  0
 17 53  1  0
 18 28  1  0
 18 19  1  0
 18 54  1  1
 19 20  1  0
 19 55  1  0
 19 56  1  0
 20 25  1  0
 20 21  1  0
 20 57  1  1
 21 22  1  0
 22 23  2  0
 22 24  1  0
 24 25  1  0
 24 58  1  0
 24 59  1  0
 25 26  1  1
 25 27  1  0
 26 60  1  0
 27 28  1  0
 27 61  1  0
 27 62  1  0
 28 29  1  0
 28 63  1  1
 29 30  1  0
 29 64  1  0
 29 65  1  0
 30 66  1  6
M  END
>  <i_m_ct_stereo_status>  (343) 
1

>  <s_m_source_file>  (343) 
/var/tmp/pbs.5076255.sched01/tmpajq2dbrl/12675ddggds.sdf

>  <i_m_source_file_index>  (343) 
31

>  <i_lp_mmshare_version>  (343) 
48012

>  <i_f3d_flags>  (343) 
0

>  <s_epik_input>  (343) 
W0NIMl0xW0NIMl1bQ0BASF0oW09IXSlbQ0gyXUMoW0NAQF0xMltDSDNdKT1bQ0hdW0NIMl1bQ0BIXTNbQ0BIXTJbQ0gyXVtDQEBIXShbT0hdKVtDQEBdNChbQ0gzXSlbQ0BIXTVbQ0BASF0oW0NIMl1bQ0BASF0zNClbQ0gyXVtDQF02KFtPSF0pW0NASF0oW0NIMl01KU9DKD1PKVtDSDJdNg==

>  <s_epik_cmdline>  (343) 
J2VwaWtfcHl0aG9uJywgJy1waHQnLCAnMi4wJywgJy1waCcsICc3LjAnLCAnLXRuJywgJzgnLCAnLW1hJywgJzIwMCcsICctaW1hZScsICc8aW5maWxlLm1hZT4nLCAnLW9tYWUnLCAnPG91dGZpbGUubWFlPic=

>  <r_lp_tautomer_probability>  (343) 
1

>  <r_epik_Ionization_Penalty>  (343) 
3.31561e-06

>  <r_epik_Ionization_Penalty_Charging>  (343) 
0

>  <r_epik_Ionization_Penalty_Neutral>  (343) 
3.31561e-06

>  <r_epik_State_Penalty>  (343) 
-0

>  <r_epik_Charging_Adjusted_Penalty>  (343) 
0

>  <i_epik_Tot_Q>  (343) 
0

>  <i_epik_Tot_abs_Q>  (343) 
0

>  <s_epik_Chemistry_Notes>  (343) 
This compound has an ester and may undergo hydrolysis at high or low pH.

>  <s_lp_Force_Field>  (343) 
OPLS3e

>  <r_lp_Energy>  (343) 
38.2463

>  <b_lp_Chiralities_Consistent>  (343) 
1

>  <s_lp_Variant>  (343) 
110:0-1

>  <s_i_glide_gridfile>  (343) 
pfpi4k_grid

>  <i_i_glide_lignum>  (343) 
31

>  <i_i_glide_rotatable_bonds>  (343) 
3

>  <r_i_docking_score>  (343) 
-2.94887

>  <r_i_glide_ligand_efficiency>  (343) 
-0.0982956

>  <r_i_glide_ligand_efficiency_sa>  (343) 
-0.305427

>  <r_i_glide_ligand_efficiency_ln>  (343) 
-0.670015

>  <r_i_glide_gscore>  (343) 
-2.94887

>  <r_i_glide_lipo>  (343) 
-0.0720396

>  <r_i_glide_hbond>  (343) 
-0.16

>  <r_i_glide_metal>  (343) 
-0

>  <r_i_glide_rewards>  (343) 
-0.568975

>  <r_i_glide_evdw>  (343) 
-23.1501

>  <r_i_glide_ecoul>  (343) 
-6.46289

>  <r_i_glide_erotb>  (343) 
0

>  <r_i_glide_esite>  (343) 
-0.0209158

>  <r_i_glide_emodel>  (343) 
-35.5915

>  <r_i_glide_energy>  (343) 
-29.6129

>  <r_i_glide_einternal>  (343) 
0.410601

>  <r_i_glide_intrahb_reward>  (343) 
-0

>  <i_i_glide_confnum>  (343) 
1

>  <i_i_glide_posenum>  (343) 
39

>  <r_i_glide_eff_state_penalty>  (343) 
0

>  <ligand_id>  (343) 
110

>  <original_smiles>  (343) 
CC12CCC(O)CC1=CCC1C2CC(O)C2(C)C3CC4OC(=O)CC4(O)CC3CC12

>  <smiles>  (343) 
[H]OC1([H])C([H])([H])C2=C([H])C([H])([H])C3([H])C([H])(C([H])([H])C([H])(O[H])C4(C([H])([H])[H])C5([H])C([H])([H])C6([H])OC(=O)C([H])([H])C6(O[H])C([H])([H])C5([H])C([H])([H])C34[H])C2(C([H])([H])[H])C([H])([H])C1([H])[H]

$$$$
110:0:1
     RDKit          3D

 66 71  0  0  1  0  0  0  0  0999 V2000
    4.2209   -8.1066    4.7374 C   0  0  0  0  0  0  0  0  0  0  0  0
    4.5507   -7.3491    3.4245 C   0  0  1  0  0  0  0  0  0  0  0  0
    6.0796   -7.4557    3.1298 C   0  0  0  0  0  0  0  0  0  0  0  0
    6.5703   -8.8584    2.7287 C   0  0  0  0  0  0  0  0  0  0  0  0
    5.7711   -9.4021    1.5381 C   0  0  1  0  0  0  0  0  0  0  0  0
    6.2149  -10.7089    1.2360 O   0  0  0  0  0  0  0  0  0  0  0  0
    4.2698   -9.4089    1.8535 C   0  0  0  0  0  0  0  0  0  0  0  0
    3.7691   -8.0324    2.2882 C   0  0  0  0  0  0  0  0  0  0  0  0
    2.6994   -7.4762    1.6955 C   0  0  0  0  0  0  0  0  0  0  0  0
    2.0969   -6.1379    2.0564 C   0  0  0  0  0  0  0  0  0  0  0  0
    2.6585   -5.5320    3.3603 C   0  0  1  0  0  0  0  0  0  0  0  0
    4.1724   -5.8195    3.5338 C   0  0  1  0  0  0  0  0  0  0  0  0
    4.6913   -5.1454    4.8330 C   0  0  0  0  0  0  0  0  0  0  0  0
    4.3949   -3.6358    4.9022 C   0  0  1  0  0  0  0  0  0  0  0  0
    5.2469   -2.9989    3.9703 O   0  0  0  0  0  0  0  0  0  0  0  0
    2.8775   -3.2952    4.7230 C   0  0  1  0  0  0  0  0  0  0  0  0
    2.1388   -3.7128    6.0201 C   0  0  0  0  0  0  0  0  0  0  0  0
    2.6656   -1.7823    4.3807 C   0  0  2  0  0  0  0  0  0  0  0  0
    1.3464   -1.1489    4.8847 C   0  0  0  0  0  0  0  0  0  0  0  0
    1.2279    0.3341    4.4832 C   0  0  2  0  0  0  0  0  0  0  0  0
   -0.1191    0.7506    4.6367 O   0  0  0  0  0  0  0  0  0  0  0  0
   -0.6071    1.4075    3.5929 C   0  0  0  0  0  0  0  0  0  0  0  0
   -1.7346    1.8857    3.5005 O   0  0  0  0  0  0  0  0  0  0  0  0
    0.4402    1.5132    2.5047 C   0  0  0  0  0  0  0  0  0  0  0  0
    1.5819    0.6217    3.0069 C   0  0  1  0  0  0  0  0  0  0  0  0
    2.7834    1.3698    2.9692 O   0  0  0  0  0  0  0  0  0  0  0  0
    1.7439   -0.6820    2.1982 C   0  0  0  0  0  0  0  0  0  0  0  0
    2.7510   -1.6723    2.8346 C   0  0  2  0  0  0  0  0  0  0  0  0
    2.6226   -3.1104    2.2928 C   0  0  0  0  0  0  0  0  0  0  0  0
    2.2846   -4.0198    3.4934 C   0  0  1  0  0  0  0  0  0  0  0  0
    4.8348   -7.7725    5.5748 H   0  0  0  0  0  0  0  0  0  0  0  0
    4.3950   -9.1796    4.6487 H   0  0  0  0  0  0  0  0  0  0  0  0
    3.1730   -7.9824    5.0164 H   0  0  0  0  0  0  0  0  0  0  0  0
    6.3395   -6.7751    2.3184 H   0  0  0  0  0  0  0  0  0  0  0  0
    6.6587   -7.1231    3.9912 H   0  0  0  0  0  0  0  0  0  0  0  0
    7.6289   -8.8099    2.4733 H   0  0  0  0  0  0  0  0  0  0  0  0
    6.4953   -9.5400    3.5757 H   0  0  0  0  0  0  0  0  0  0  0  0
    5.9437   -8.7706    0.6658 H   0  0  0  0  0  0  0  0  0  0  0  0
    5.4763  -11.2128    0.8790 H   0  0  0  0  0  0  0  0  0  0  0  0
    3.7152   -9.7485    0.9772 H   0  0  0  0  0  0  0  0  0  0  0  0
    4.0558  -10.1301    2.6422 H   0  0  0  0  0  0  0  0  0  0  0  0
    2.2029   -8.0039    0.8957 H   0  0  0  0  0  0  0  0  0  0  0  0
    2.2716   -5.4870    1.2020 H   0  0  0  0  0  0  0  0  0  0  0  0
    1.0180   -6.2624    2.1496 H   0  0  0  0  0  0  0  0  0  0  0  0
    2.1550   -6.0462    4.1796 H   0  0  0  0  0  0  0  0  0  0  0  0
    4.6631   -5.3233    2.6974 H   0  0  0  0  0  0  0  0  0  0  0  0
    4.2373   -5.6185    5.7030 H   0  0  0  0  0  0  0  0  0  0  0  0
    5.7654   -5.3001    4.9441 H   0  0  0  0  0  0  0  0  0  0  0  0
    4.7181   -3.2706    5.8769 H   0  0  0  0  0  0  0  0  0  0  0  0
    4.9957   -3.2777    3.1050 H   0  0  0  0  0  0  0  0  0  0  0  0
    1.0606   -3.5763    5.9495 H   0  0  0  0  0  0  0  0  0  0  0  0
    2.4901   -3.1359    6.8757 H   0  0  0  0  0  0  0  0  0  0  0  0
    2.2886   -4.7630    6.2614 H   0  0  0  0  0  0  0  0  0  0  0  0
    3.4718   -1.1965    4.8266 H   0  0  0  0  0  0  0  0  0  0  0  0
    0.4962   -1.7067    4.4878 H   0  0  0  0  0  0  0  0  0  0  0  0
    1.2759   -1.2006    5.9700 H   0  0  0  0  0  0  0  0  0  0  0  0
    1.8486    0.9472    5.1406 H   0  0  0  0  0  0  0  0  0  0  0  0
    0.0388    1.1927    1.5406 H   0  0  0  0  0  0  0  0  0  0  0  0
    0.7351    2.5625    2.4227 H   0  0  0  0  0  0  0  0  0  0  0  0
    2.9488    1.6641    2.0853 H   0  0  0  0  0  0  0  0  0  0  0  0
    0.7678   -1.1602    2.1015 H   0  0  0  0  0  0  0  0  0  0  0  0
    2.0597   -0.4471    1.1841 H   0  0  0  0  0  0  0  0  0  0  0  0
    3.7497   -1.3116    2.5821 H   0  0  0  0  0  0  0  0  0  0  0  0
    1.8583   -3.1825    1.5175 H   0  0  0  0  0  0  0  0  0  0  0  0
    3.5637   -3.4135    1.8306 H   0  0  0  0  0  0  0  0  0  0  0  0
    1.1986   -3.9722    3.5920 H   0  0  0  0  0  0  0  0  0  0  0  0
  2  1  1  1
  1 31  1  0
  1 32  1  0
  1 33  1  0
  2  8  1  0
  2 12  1  0
  2  3  1  0
  3  4  1  0
  3 34  1  0
  3 35  1  0
  4  5  1  0
  4 36  1  0
  4 37  1  0
  5  6  1  0
  5  7  1  0
  5 38  1  6
  6 39  1  0
  7  8  1  0
  7 40  1  0
  7 41  1  0
  8  9  2  0
  9 10  1  0
  9 42  1  0
 10 11  1  0
 10 43  1  0
 10 44  1  0
 11 30  1  0
 11 12  1  0
 11 45  1  1
 12 13  1  0
 12 46  1  6
 13 14  1  0
 13 47  1  0
 13 48  1  0
 14 15  1  0
 14 16  1  0
 14 49  1  1
 15 50  1  0
 16 30  1  0
 16 17  1  1
 16 18  1  0
 17 51  1  0
 17 52  1  0
 17 53  1  0
 18 28  1  0
 18 19  1  0
 18 54  1  1
 19 20  1  0
 19 55  1  0
 19 56  1  0
 20 25  1  0
 20 21  1  0
 20 57  1  1
 21 22  1  0
 22 23  2  0
 22 24  1  0
 24 25  1  0
 24 58  1  0
 24 59  1  0
 25 26  1  1
 25 27  1  0
 26 60  1  0
 27 28  1  0
 27 61  1  0
 27 62  1  0
 28 29  1  0
 28 63  1  1
 29 30  1  0
 29 64  1  0
 29 65  1  0
 30 66  1  1
M  END
>  <i_m_ct_stereo_status>  (344) 
1

>  <s_m_source_file>  (344) 
/var/tmp/pbs.5076255.sched01/tmpajq2dbrl/12675ddggds.sdf

>  <i_m_source_file_index>  (344) 
31

>  <i_lp_mmshare_version>  (344) 
48012

>  <i_f3d_flags>  (344) 
0

>  <s_epik_input>  (344) 
W0NIMl0xW0NIMl1bQ0BASF0oW09IXSlbQ0gyXUMoW0NAQF0xMltDSDNdKT1bQ0hdW0NIMl1bQ0BIXTNbQ0BIXTJbQ0gyXVtDQEBIXShbT0hdKVtDQEBdNChbQ0gzXSlbQ0BIXTVbQ0BASF0oW0NIMl1bQ0BASF0zNClbQ0gyXVtDQF02KFtPSF0pW0NASF0oW0NIMl01KU9DKD1PKVtDSDJdNg==

>  <s_epik_cmdline>  (344) 
J2VwaWtfcHl0aG9uJywgJy1waHQnLCAnMi4wJywgJy1waCcsICc3LjAnLCAnLXRuJywgJzgnLCAnLW1hJywgJzIwMCcsICctaW1hZScsICc8aW5maWxlLm1hZT4nLCAnLW9tYWUnLCAnPG91dGZpbGUubWFlPic=

>  <r_lp_tautomer_probability>  (344) 
1

>  <r_epik_Ionization_Penalty>  (344) 
3.31561e-06

>  <r_epik_Ionization_Penalty_Charging>  (344) 
0

>  <r_epik_Ionization_Penalty_Neutral>  (344) 
3.31561e-06

>  <r_epik_State_Penalty>  (344) 
-0

>  <r_epik_Charging_Adjusted_Penalty>  (344) 
0

>  <i_epik_Tot_Q>  (344) 
0

>  <i_epik_Tot_abs_Q>  (344) 
0

>  <s_epik_Chemistry_Notes>  (344) 
This compound has an ester and may undergo hydrolysis at high or low pH.

>  <s_lp_Force_Field>  (344) 
OPLS3e

>  <r_lp_Energy>  (344) 
38.2463

>  <b_lp_Chiralities_Consistent>  (344) 
1

>  <s_lp_Variant>  (344) 
110:0-1

>  <s_i_glide_gridfile>  (344) 
pfpi4k_grid

>  <i_i_glide_lignum>  (344) 
31

>  <i_i_glide_rotatable_bonds>  (344) 
3

>  <r_i_docking_score>  (344) 
-2.93252

>  <r_i_glide_ligand_efficiency>  (344) 
-0.0977507

>  <r_i_glide_ligand_efficiency_sa>  (344) 
-0.303734

>  <r_i_glide_ligand_efficiency_ln>  (344) 
-0.666301

>  <r_i_glide_gscore>  (344) 
-2.93252

>  <r_i_glide_lipo>  (344) 
-0.0479299

>  <r_i_glide_hbond>  (344) 
-0.16

>  <r_i_glide_metal>  (344) 
-0

>  <r_i_glide_rewards>  (344) 
-0.568975

>  <r_i_glide_evdw>  (344) 
-24.5596

>  <r_i_glide_ecoul>  (344) 
-5.99242

>  <r_i_glide_erotb>  (344) 
0

>  <r_i_glide_esite>  (344) 
-0.0287721

>  <r_i_glide_emodel>  (344) 
-35.9995

>  <r_i_glide_energy>  (344) 
-30.552

>  <r_i_glide_einternal>  (344) 
1.15192

>  <r_i_glide_intrahb_reward>  (344) 
-0

>  <i_i_glide_confnum>  (344) 
2

>  <i_i_glide_posenum>  (344) 
35

>  <r_i_glide_eff_state_penalty>  (344) 
0

>  <ligand_id>  (344) 
110

>  <original_smiles>  (344) 
CC12CCC(O)CC1=CCC1C2CC(O)C2(C)C3CC4OC(=O)CC4(O)CC3CC12

>  <smiles>  (344) 
[H]OC1([H])C([H])([H])C2=C([H])C([H])([H])C3([H])C([H])(C([H])([H])C([H])(O[H])C4(C([H])([H])[H])C5([H])C([H])([H])C6([H])OC(=O)C([H])([H])C6(O[H])C([H])([H])C5([H])C([H])([H])C34[H])C2(C([H])([H])[H])C([H])([H])C1([H])[H]

$$$$
110:0:2
     RDKit          3D

 66 71  0  0  1  0  0  0  0  0999 V2000
    3.2827   -8.4770    5.0841 C   0  0  0  0  0  0  0  0  0  0  0  0
    3.9508   -7.7692    3.8745 C   0  0  1  0  0  0  0  0  0  0  0  0
    5.4949   -7.9919    3.9257 C   0  0  0  0  0  0  0  0  0  0  0  0
    5.9593   -9.4332    3.6452 C   0  0  0  0  0  0  0  0  0  0  0  0
    5.4074   -9.9306    2.3032 C   0  0  1  0  0  0  0  0  0  0  0  0
    5.8158  -11.2667    2.0797 O   0  0  0  0  0  0  0  0  0  0  0  0
    3.8746   -9.8315    2.2889 C   0  0  0  0  0  0  0  0  0  0  0  0
    3.3911   -8.4177    2.5967 C   0  0  0  0  0  0  0  0  0  0  0  0
    2.5197   -7.8006    1.7796 C   0  0  0  0  0  0  0  0  0  0  0  0
    1.9535   -6.4164    1.9908 C   0  0  0  0  0  0  0  0  0  0  0  0
    2.2565   -5.8264    3.3850 C   0  0  1  0  0  0  0  0  0  0  0  0
    3.6700   -6.2150    3.8922 C   0  0  1  0  0  0  0  0  0  0  0  0
    3.9361   -5.5559    5.2709 C   0  0  0  0  0  0  0  0  0  0  0  0
    3.7474   -4.0274    5.2656 C   0  0  1  0  0  0  0  0  0  0  0  0
    4.8317   -3.4760    4.5416 O   0  0  0  0  0  0  0  0  0  0  0  0
    2.3341   -3.5847    4.7542 C   0  0  1  0  0  0  0  0  0  0  0  0
    1.2977   -3.9231    5.8556 C   0  0  0  0  0  0  0  0  0  0  0  0
    2.3123   -2.0672    4.3708 C   0  0  2  0  0  0  0  0  0  0  0  0
    0.9632   -1.3325    4.5646 C   0  0  0  0  0  0  0  0  0  0  0  0
    1.0447    0.1477    4.1460 C   0  0  2  0  0  0  0  0  0  0  0  0
   -0.2670    0.6620    3.9911 O   0  0  0  0  0  0  0  0  0  0  0  0
   -0.4590    1.3273    2.8623 C   0  0  0  0  0  0  0  0  0  0  0  0
   -1.4994    1.8699    2.5084 O   0  0  0  0  0  0  0  0  0  0  0  0
    0.8085    1.3420    2.0378 C   0  0  0  0  0  0  0  0  0  0  0  0
    1.7428    0.3819    2.7865 C   0  0  1  0  0  0  0  0  0  0  0  0
    2.9747    1.0457    3.0102 O   0  0  0  0  0  0  0  0  0  0  0  0
    1.9800   -0.9466    2.0408 C   0  0  0  0  0  0  0  0  0  0  0  0
    2.7453   -1.9942    2.8826 C   0  0  2  0  0  0  0  0  0  0  0  0
    2.6361   -3.4299    2.3288 C   0  0  0  0  0  0  0  0  0  0  0  0
    1.9745   -4.2886    3.4269 C   0  0  1  0  0  0  0  0  0  0  0  0
    3.7192   -8.1707    6.0348 H   0  0  0  0  0  0  0  0  0  0  0  0
    3.3937   -9.5613    5.0377 H   0  0  0  0  0  0  0  0  0  0  0  0
    2.2103   -8.2737    5.1209 H   0  0  0  0  0  0  0  0  0  0  0  0
    5.9739   -7.3446    3.1896 H   0  0  0  0  0  0  0  0  0  0  0  0
    5.8897   -7.6835    4.8923 H   0  0  0  0  0  0  0  0  0  0  0  0
    7.0492   -9.4662    3.6317 H   0  0  0  0  0  0  0  0  0  0  0  0
    5.6456  -10.0921    4.4546 H   0  0  0  0  0  0  0  0  0  0  0  0
    5.8165   -9.3249    1.4930 H   0  0  0  0  0  0  0  0  0  0  0  0
    5.2204  -11.6476    1.4226 H   0  0  0  0  0  0  0  0  0  0  0  0
    3.4975  -10.1430    1.3135 H   0  0  0  0  0  0  0  0  0  0  0  0
    3.4434  -10.5239    3.0132 H   0  0  0  0  0  0  0  0  0  0  0  0
    2.1740   -8.3115    0.8925 H   0  0  0  0  0  0  0  0  0  0  0  0
    2.3627   -5.7973    1.1934 H   0  0  0  0  0  0  0  0  0  0  0  0
    0.8749   -6.4631    1.8401 H   0  0  0  0  0  0  0  0  0  0  0  0
    1.5470   -6.2877    4.0740 H   0  0  0  0  0  0  0  0  0  0  0  0
    4.3679   -5.7666    3.1838 H   0  0  0  0  0  0  0  0  0  0  0  0
    3.2650   -5.9759    6.0190 H   0  0  0  0  0  0  0  0  0  0  0  0
    4.9431   -5.7898    5.6195 H   0  0  0  0  0  0  0  0  0  0  0  0
    3.8686   -3.6673    6.2884 H   0  0  0  0  0  0  0  0  0  0  0  0
    5.6366   -3.7635    4.9462 H   0  0  0  0  0  0  0  0  0  0  0  0
    0.2745   -3.7122    5.5449 H   0  0  0  0  0  0  0  0  0  0  0  0
    1.4900   -3.3555    6.7663 H   0  0  0  0  0  0  0  0  0  0  0  0
    1.3112   -4.9767    6.1274 H   0  0  0  0  0  0  0  0  0  0  0  0
    3.0420   -1.5317    4.9815 H   0  0  0  0  0  0  0  0  0  0  0  0
    0.1837   -1.8374    3.9895 H   0  0  0  0  0  0  0  0  0  0  0  0
    0.6488   -1.3589    5.6078 H   0  0  0  0  0  0  0  0  0  0  0  0
    1.5504    0.7260    4.9231 H   0  0  0  0  0  0  0  0  0  0  0  0
    0.6031    1.0241    1.0137 H   0  0  0  0  0  0  0  0  0  0  0  0
    1.1839    2.3667    2.0206 H   0  0  0  0  0  0  0  0  0  0  0  0
    3.3236    1.3664    2.1903 H   0  0  0  0  0  0  0  0  0  0  0  0
    1.0192   -1.3572    1.7297 H   0  0  0  0  0  0  0  0  0  0  0  0
    2.5209   -0.7581    1.1149 H   0  0  0  0  0  0  0  0  0  0  0  0
    3.7983   -1.7140    2.8547 H   0  0  0  0  0  0  0  0  0  0  0  0
    2.0681   -3.4653    1.3989 H   0  0  0  0  0  0  0  0  0  0  0  0
    3.6365   -3.8051    2.1009 H   0  0  0  0  0  0  0  0  0  0  0  0
    0.9002   -4.1601    3.2840 H   0  0  0  0  0  0  0  0  0  0  0  0
  2  1  1  1
  1 31  1  0
  1 32  1  0
  1 33  1  0
  2  8  1  0
  2 12  1  0
  2  3  1  0
  3  4  1  0
  3 34  1  0
  3 35  1  0
  4  5  1  0
  4 36  1  0
  4 37  1  0
  5  6  1  0
  5  7  1  0
  5 38  1  6
  6 39  1  0
  7  8  1  0
  7 40  1  0
  7 41  1  0
  8  9  2  0
  9 10  1  0
  9 42  1  0
 10 11  1  0
 10 43  1  0
 10 44  1  0
 11 30  1  0
 11 12  1  0
 11 45  1  1
 12 13  1  0
 12 46  1  6
 13 14  1  0
 13 47  1  0
 13 48  1  0
 14 15  1  0
 14 16  1  0
 14 49  1  1
 15 50  1  0
 16 30  1  0
 16 17  1  1
 16 18  1  0
 17 51  1  0
 17 52  1  0
 17 53  1  0
 18 28  1  0
 18 19  1  0
 18 54  1  1
 19 20  1  0
 19 55  1  0
 19 56  1  0
 20 25  1  0
 20 21  1  0
 20 57  1  1
 21 22  1  0
 22 23  2  0
 22 24  1  0
 24 25  1  0
 24 58  1  0
 24 59  1  0
 25 26  1  1
 25 27  1  0
 26 60  1  0
 27 28  1  0
 27 61  1  0
 27 62  1  0
 28 29  1  0
 28 63  1  1
 29 30  1  0
 29 64  1  0
 29 65  1  0
 30 66  1  6
M  END
>  <i_m_ct_stereo_status>  (345) 
1

>  <s_m_source_file>  (345) 
/var/tmp/pbs.5076255.sched01/tmpajq2dbrl/12675ddggds.sdf

>  <i_m_source_file_index>  (345) 
31

>  <i_lp_mmshare_version>  (345) 
48012

>  <i_f3d_flags>  (345) 
0

>  <s_epik_input>  (345) 
W0NIMl0xW0NIMl1bQ0BASF0oW09IXSlbQ0gyXUMoW0NAQF0xMltDSDNdKT1bQ0hdW0NIMl1bQ0BIXTNbQ0BIXTJbQ0gyXVtDQEBIXShbT0hdKVtDQEBdNChbQ0gzXSlbQ0BIXTVbQ0BASF0oW0NIMl1bQ0BASF0zNClbQ0gyXVtDQF02KFtPSF0pW0NASF0oW0NIMl01KU9DKD1PKVtDSDJdNg==

>  <s_epik_cmdline>  (345) 
J2VwaWtfcHl0aG9uJywgJy1waHQnLCAnMi4wJywgJy1waCcsICc3LjAnLCAnLXRuJywgJzgnLCAnLW1hJywgJzIwMCcsICctaW1hZScsICc8aW5maWxlLm1hZT4nLCAnLW9tYWUnLCAnPG91dGZpbGUubWFlPic=

>  <r_lp_tautomer_probability>  (345) 
1

>  <r_epik_Ionization_Penalty>  (345) 
3.31561e-06

>  <r_epik_Ionization_Penalty_Charging>  (345) 
0

>  <r_epik_Ionization_Penalty_Neutral>  (345) 
3.31561e-06

>  <r_epik_State_Penalty>  (345) 
-0

>  <r_epik_Charging_Adjusted_Penalty>  (345) 
0

>  <i_epik_Tot_Q>  (345) 
0

>  <i_epik_Tot_abs_Q>  (345) 
0

>  <s_epik_Chemistry_Notes>  (345) 
This compound has an ester and may undergo hydrolysis at high or low pH.

>  <s_lp_Force_Field>  (345) 
OPLS3e

>  <r_lp_Energy>  (345) 
38.2463

>  <b_lp_Chiralities_Consistent>  (345) 
1

>  <s_lp_Variant>  (345) 
110:0-1

>  <s_i_glide_gridfile>  (345) 
pfpi4k_grid

>  <i_i_glide_lignum>  (345) 
31

>  <i_i_glide_rotatable_bonds>  (345) 
3

>  <r_i_docking_score>  (345) 
-2.84513

>  <r_i_glide_ligand_efficiency>  (345) 
-0.0948375

>  <r_i_glide_ligand_efficiency_sa>  (345) 
-0.294682

>  <r_i_glide_ligand_efficiency_ln>  (345) 
-0.646444

>  <r_i_glide_gscore>  (345) 
-2.84513

>  <r_i_glide_lipo>  (345) 
0

>  <r_i_glide_hbond>  (345) 
-0.16

>  <r_i_glide_metal>  (345) 
-0

>  <r_i_glide_rewards>  (345) 
-0.568975

>  <r_i_glide_evdw>  (345) 
-24.257

>  <r_i_glide_ecoul>  (345) 
-5.7056

>  <r_i_glide_erotb>  (345) 
0

>  <r_i_glide_esite>  (345) 
-0.0474586

>  <r_i_glide_emodel>  (345) 
-35.3256

>  <r_i_glide_energy>  (345) 
-29.9626

>  <r_i_glide_einternal>  (345) 
1.11176

>  <r_i_glide_intrahb_reward>  (345) 
-0

>  <i_i_glide_confnum>  (345) 
2

>  <i_i_glide_posenum>  (345) 
1

>  <r_i_glide_eff_state_penalty>  (345) 
0

>  <ligand_id>  (345) 
110

>  <original_smiles>  (345) 
CC12CCC(O)CC1=CCC1C2CC(O)C2(C)C3CC4OC(=O)CC4(O)CC3CC12

>  <smiles>  (345) 
[H]OC1([H])C([H])([H])C2=C([H])C([H])([H])C3([H])C([H])(C([H])([H])C([H])(O[H])C4(C([H])([H])[H])C5([H])C([H])([H])C6([H])OC(=O)C([H])([H])C6(O[H])C([H])([H])C5([H])C([H])([H])C34[H])C2(C([H])([H])[H])C([H])([H])C1([H])[H]

$$$$
111:0:0
     RDKit          3D

 46 51  0  0  1  0  0  0  0  0999 V2000
    1.7506   -4.3279    5.5916 C   0  0  0  0  0  0  0  0  0  0  0  0
    1.8165   -3.9734    4.2127 O   0  0  0  0  0  0  0  0  0  0  0  0
    2.9132   -4.5124    3.4769 C   0  0  2  0  0  0  0  0  0  0  0  0
    3.0500   -3.7585    2.1336 C   0  0  1  0  0  0  0  0  0  0  0  0
    3.6966   -2.4710    2.3494 O   0  0  0  0  0  0  0  0  0  0  0  0
    4.4232   -1.7934    1.3066 C   0  0  1  0  0  0  0  0  0  0  0  0
    5.8938   -2.3341    1.4905 C   0  0  1  0  0  0  0  0  0  0  0  0
    5.9481   -3.8996    1.4716 C   0  0  0  0  0  0  0  0  0  0  0  0
    4.9868   -4.4008    0.3449 C   0  0  1  0  0  0  0  0  0  0  0  0
    3.6642   -4.7928    1.0979 C   0  0  2  0  0  0  0  0  0  0  0  0
    2.7022   -4.9995    0.0828 O   0  0  0  0  0  0  0  0  0  0  0  0
    3.7844   -6.1111    1.9116 C   0  0  0  0  0  0  0  0  0  0  0  0
    2.8179   -6.0243    3.1306 C   0  0  1  0  0  0  0  0  0  0  0  0
    3.3581   -6.9272    4.2626 C   0  0  0  0  0  0  0  0  0  0  0  0
    1.4085   -6.4908    2.7385 C   0  0  0  0  0  0  0  0  0  0  0  0
    1.0520   -6.8062    1.4946 N   0  0  0  0  0  0  0  0  0  0  0  0
   -0.2649   -7.2310    1.3631 C   0  0  0  0  0  0  0  0  0  0  0  0
   -0.9575   -7.2195    2.5346 C   0  0  0  0  0  0  0  0  0  0  0  0
    0.0548   -6.7333    3.8663 S   0  0  0  0  0  0  0  0  0  0  0  0
    4.8671   -3.1807   -0.6415 C   0  0  1  0  0  0  0  0  0  0  0  0
    6.2216   -2.4966   -0.8611 C   0  0  0  0  0  0  0  0  0  0  0  0
    6.8324   -2.3369   -1.9114 O   0  0  0  0  0  0  0  0  0  0  0  0
    6.6394   -1.9825    0.3212 O   0  0  0  0  0  0  0  0  0  0  0  0
    4.0081   -2.8544   -1.8734 C   0  0  0  0  0  0  0  0  0  0  0  0
    3.7352   -3.3569   -2.9677 O   0  0  0  0  0  0  0  0  0  0  0  0
    3.7496   -1.6010   -1.3441 O   0  0  0  0  0  0  0  0  0  0  0  0
    3.8523   -2.2390   -0.0421 C   0  0  2  0  0  0  0  0  0  0  0  0
    1.0765   -3.6488    6.1122 H   0  0  0  0  0  0  0  0  0  0  0  0
    2.7178   -4.3154    6.0938 H   0  0  0  0  0  0  0  0  0  0  0  0
    1.3350   -5.3168    5.7428 H   0  0  0  0  0  0  0  0  0  0  0  0
    3.8437   -4.3357    4.0145 H   0  0  0  0  0  0  0  0  0  0  0  0
    2.0324   -3.5400    1.8076 H   0  0  0  0  0  0  0  0  0  0  0  0
    4.3757   -0.7127    1.4178 H   0  0  0  0  0  0  0  0  0  0  0  0
    6.3610   -1.9312    2.3852 H   0  0  0  0  0  0  0  0  0  0  0  0
    6.9662   -4.2431    1.2828 H   0  0  0  0  0  0  0  0  0  0  0  0
    5.6932   -4.2761    2.4554 H   0  0  0  0  0  0  0  0  0  0  0  0
    5.3992   -5.2768   -0.1729 H   0  0  0  0  0  0  0  0  0  0  0  0
    3.0684   -5.5395   -0.6139 H   0  0  0  0  0  0  0  0  0  0  0  0
    3.6439   -7.0055    1.3066 H   0  0  0  0  0  0  0  0  0  0  0  0
    4.7985   -6.2133    2.2959 H   0  0  0  0  0  0  0  0  0  0  0  0
    4.3223   -6.5883    4.6424 H   0  0  0  0  0  0  0  0  0  0  0  0
    3.4843   -7.9494    3.9129 H   0  0  0  0  0  0  0  0  0  0  0  0
    2.6863   -6.9784    5.1172 H   0  0  0  0  0  0  0  0  0  0  0  0
   -0.6138   -7.5061    0.3737 H   0  0  0  0  0  0  0  0  0  0  0  0
   -1.9845   -7.4952    2.7110 H   0  0  0  0  0  0  0  0  0  0  0  0
    2.8519   -2.6510    0.0922 H   0  0  0  0  0  0  0  0  0  0  0  0
  1  2  1  0
  1 28  1  0
  1 29  1  0
  1 30  1  0
  2  3  1  0
  3 13  1  0
  3  4  1  0
  3 31  1  1
  4 10  1  0
  4  5  1  0
  4 32  1  6
  5  6  1  0
  6 27  1  0
  6  7  1  0
  6 33  1  1
  7 23  1  0
  7  8  1  0
  7 34  1  1
  8  9  1  0
  8 35  1  0
  8 36  1  0
  9 10  1  0
  9 20  1  0
  9 37  1  6
 10 11  1  6
 10 12  1  0
 11 38  1  0
 12 13  1  0
 12 39  1  0
 12 40  1  0
 13 14  1  1
 13 15  1  0
 14 41  1  0
 14 42  1  0
 14 43  1  0
 15 19  1  0
 15 16  2  0
 16 17  1  0
 17 18  2  0
 17 44  1  0
 18 19  1  0
 18 45  1  0
 20 27  1  0
 20 21  1  0
 20 24  1  6
 21 22  2  0
 21 23  1  0
 24 25  2  0
 24 26  1  0
 26 27  1  0
 27 46  1  1
M  END
>  <i_m_ct_stereo_status>  (346) 
1

>  <s_m_source_file>  (346) 
/var/tmp/pbs.5076255.sched01/tmpajq2dbrl/12675ddggds.sdf

>  <i_m_source_file_index>  (346) 
32

>  <i_lp_mmshare_version>  (346) 
48012

>  <i_f3d_flags>  (346) 
0

>  <s_epik_input>  (346) 
czFbY0hdW2NIXW5jMVtDQF0oW0NIMl0yKShbQ0gzXSlbQ0BIXShPW0NIM10pW0NASF0oW0NAXTIoW0NASF0zW0NAQF00NTYpW09IXSlPW0NAQEhdKFtDQEBIXShbQ0gyXTMpT0M0PU8pW0NASF02T0M1PU8=

>  <s_epik_cmdline>  (346) 
J2VwaWtfcHl0aG9uJywgJy1waHQnLCAnMi4wJywgJy1waCcsICc3LjAnLCAnLXRuJywgJzgnLCAnLW1hJywgJzIwMCcsICctaW1hZScsICc8aW5maWxlLm1hZT4nLCAnLW9tYWUnLCAnPG91dGZpbGUubWFlPic=

>  <r_epik_Ionization_Penalty>  (346) 
0.000618578

>  <r_epik_Ionization_Penalty_Charging>  (346) 
0

>  <r_epik_Ionization_Penalty_Neutral>  (346) 
0.000618578

>  <r_epik_State_Penalty>  (346) 
0.000389928

>  <r_epik_Charging_Adjusted_Penalty>  (346) 
0.000389928

>  <i_epik_Tot_Q>  (346) 
0

>  <i_epik_Tot_abs_Q>  (346) 
0

>  <s_epik_Chemistry_Notes>  (346) 
This compound has an ester and may undergo hydrolysis at high or low pH.

>  <s_lp_Force_Field>  (346) 
OPLS3e

>  <r_lp_Energy>  (346) 
100.866

>  <b_lp_Chiralities_Consistent>  (346) 
1

>  <s_lp_Variant>  (346) 
111:0-1

>  <s_i_glide_gridfile>  (346) 
pfpi4k_grid

>  <i_i_glide_lignum>  (346) 
32

>  <i_i_glide_rotatable_bonds>  (346) 
3

>  <r_i_docking_score>  (346) 
-3.32087

>  <r_i_glide_ligand_efficiency>  (346) 
-0.122995

>  <r_i_glide_ligand_efficiency_sa>  (346) 
-0.368986

>  <r_i_glide_ligand_efficiency_ln>  (346) 
-0.773044

>  <r_i_glide_gscore>  (346) 
-3.32087

>  <r_i_glide_lipo>  (346) 
-0.292609

>  <r_i_glide_hbond>  (346) 
-0.440716

>  <r_i_glide_metal>  (346) 
-0

>  <r_i_glide_rewards>  (346) 
-0.726737

>  <r_i_glide_evdw>  (346) 
-26.0372

>  <r_i_glide_ecoul>  (346) 
-4.29124

>  <r_i_glide_erotb>  (346) 
0.126214

>  <r_i_glide_esite>  (346) 
-0.0414769

>  <r_i_glide_emodel>  (346) 
-34.6979

>  <r_i_glide_energy>  (346) 
-30.3285

>  <r_i_glide_einternal>  (346) 
3.69908

>  <r_i_glide_intrahb_reward>  (346) 
-0

>  <i_i_glide_confnum>  (346) 
4

>  <i_i_glide_posenum>  (346) 
18

>  <r_i_glide_eff_state_penalty>  (346) 
0

>  <ligand_id>  (346) 
111

>  <original_smiles>  (346) 
COC1C2OC3C4CC(C2(O)CC1(C)c1nccs1)C1(C(=O)O4)C(=O)OC31

>  <smiles>  (346) 
[H]OC12C([H])([H])C(c3nc([H])c([H])s3)(C([H])([H])[H])C([H])(OC([H])([H])[H])C1([H])OC1([H])C3([H])OC(=O)C4(C(=O)OC14[H])C2([H])C3([H])[H]

$$$$
111:0:1
     RDKit          3D

 46 51  0  0  1  0  0  0  0  0999 V2000
    3.1094   -3.7673    5.2923 C   0  0  0  0  0  0  0  0  0  0  0  0
    2.4909   -4.7247    4.4357 O   0  0  0  0  0  0  0  0  0  0  0  0
    3.3371   -5.2182    3.3968 C   0  0  2  0  0  0  0  0  0  0  0  0
    3.2744   -4.3038    2.1499 C   0  0  1  0  0  0  0  0  0  0  0  0
    4.1217   -3.1452    2.3831 O   0  0  0  0  0  0  0  0  0  0  0  0
    4.7232   -2.4057    1.3198 C   0  0  1  0  0  0  0  0  0  0  0  0
    6.1095   -3.1268    1.1447 C   0  0  1  0  0  0  0  0  0  0  0  0
    5.9485   -4.6671    0.9185 C   0  0  0  0  0  0  0  0  0  0  0  0
    4.7359   -4.8827   -0.0501 C   0  0  1  0  0  0  0  0  0  0  0  0
    3.5291   -5.2377    0.8914 C   0  0  2  0  0  0  0  0  0  0  0  0
    2.3632   -5.2477    0.0794 O   0  0  0  0  0  0  0  0  0  0  0  0
    3.6411   -6.6538    1.5123 C   0  0  0  0  0  0  0  0  0  0  0  0
    2.9538   -6.6386    2.9065 C   0  0  1  0  0  0  0  0  0  0  0  0
    3.5352   -7.7651    3.7889 C   0  0  0  0  0  0  0  0  0  0  0  0
    1.4462   -6.8462    2.7617 C   0  0  0  0  0  0  0  0  0  0  0  0
    0.8835   -7.3573    1.6644 N   0  0  0  0  0  0  0  0  0  0  0  0
   -0.4954   -7.5177    1.7560 C   0  0  0  0  0  0  0  0  0  0  0  0
   -0.9999   -7.1787    2.9759 C   0  0  0  0  0  0  0  0  0  0  0  0
    0.2570   -6.6493    4.0722 S   0  0  0  0  0  0  0  0  0  0  0  0
    4.6032   -3.5282   -0.8254 C   0  0  1  0  0  0  0  0  0  0  0  0
    5.9717   -2.9604   -1.2125 C   0  0  0  0  0  0  0  0  0  0  0  0
    6.4060   -2.7053   -2.3195 O   0  0  0  0  0  0  0  0  0  0  0  0
    6.6680   -2.6918   -0.0903 O   0  0  0  0  0  0  0  0  0  0  0  0
    3.5723   -2.9264   -1.8011 C   0  0  0  0  0  0  0  0  0  0  0  0
    3.0198   -3.2187   -2.8664 O   0  0  0  0  0  0  0  0  0  0  0  0
    3.6002   -1.7485   -1.0771 O   0  0  0  0  0  0  0  0  0  0  0  0
    3.8549   -2.5834    0.0776 C   0  0  2  0  0  0  0  0  0  0  0  0
    2.3511   -3.2287    5.8653 H   0  0  0  0  0  0  0  0  0  0  0  0
    3.6922   -3.0110    4.7616 H   0  0  0  0  0  0  0  0  0  0  0  0
    3.7807   -4.2597    6.0002 H   0  0  0  0  0  0  0  0  0  0  0  0
    4.3707   -5.2756    3.7441 H   0  0  0  0  0  0  0  0  0  0  0  0
    2.2471   -3.9412    2.0908 H   0  0  0  0  0  0  0  0  0  0  0  0
    4.8422   -1.3550    1.5806 H   0  0  0  0  0  0  0  0  0  0  0  0
    6.7886   -2.9203    1.9704 H   0  0  0  0  0  0  0  0  0  0  0  0
    6.8539   -5.0876    0.4837 H   0  0  0  0  0  0  0  0  0  0  0  0
    5.8378   -5.1553    1.8763 H   0  0  0  0  0  0  0  0  0  0  0  0
    4.9212   -5.7171   -0.7400 H   0  0  0  0  0  0  0  0  0  0  0  0
    2.5971   -5.5723   -0.7959 H   0  0  0  0  0  0  0  0  0  0  0  0
    3.2848   -7.4485    0.8568 H   0  0  0  0  0  0  0  0  0  0  0  0
    4.6860   -6.9202    1.6630 H   0  0  0  0  0  0  0  0  0  0  0  0
    4.5906   -7.6069    4.0033 H   0  0  0  0  0  0  0  0  0  0  0  0
    3.4531   -8.7323    3.2946 H   0  0  0  0  0  0  0  0  0  0  0  0
    3.0189   -7.8422    4.7441 H   0  0  0  0  0  0  0  0  0  0  0  0
   -1.0221   -7.8997    0.8767 H   0  0  0  0  0  0  0  0  0  0  0  0
   -2.0223   -7.2417    3.3208 H   0  0  0  0  0  0  0  0  0  0  0  0
    2.8535   -2.9104    0.3563 H   0  0  0  0  0  0  0  0  0  0  0  0
  1  2  1  0
  1 28  1  0
  1 29  1  0
  1 30  1  0
  2  3  1  0
  3 13  1  0
  3  4  1  0
  3 31  1  1
  4 10  1  0
  4  5  1  0
  4 32  1  6
  5  6  1  0
  6 27  1  0
  6  7  1  0
  6 33  1  1
  7 23  1  0
  7  8  1  0
  7 34  1  1
  8  9  1  0
  8 35  1  0
  8 36  1  0
  9 10  1  0
  9 20  1  0
  9 37  1  6
 10 11  1  6
 10 12  1  0
 11 38  1  0
 12 13  1  0
 12 39  1  0
 12 40  1  0
 13 14  1  1
 13 15  1  0
 14 41  1  0
 14 42  1  0
 14 43  1  0
 15 19  1  0
 15 16  2  0
 16 17  1  0
 17 18  2  0
 17 44  1  0
 18 19  1  0
 18 45  1  0
 20 27  1  0
 20 21  1  0
 20 24  1  6
 21 22  2  0
 21 23  1  0
 24 25  2  0
 24 26  1  0
 26 27  1  0
 27 46  1  1
M  END
>  <i_m_ct_stereo_status>  (347) 
1

>  <s_m_source_file>  (347) 
/var/tmp/pbs.5076255.sched01/tmpajq2dbrl/12675ddggds.sdf

>  <i_m_source_file_index>  (347) 
32

>  <i_lp_mmshare_version>  (347) 
48012

>  <i_f3d_flags>  (347) 
0

>  <s_epik_input>  (347) 
czFbY0hdW2NIXW5jMVtDQF0oW0NIMl0yKShbQ0gzXSlbQ0BIXShPW0NIM10pW0NASF0oW0NAXTIoW0NASF0zW0NAQF00NTYpW09IXSlPW0NAQEhdKFtDQEBIXShbQ0gyXTMpT0M0PU8pW0NASF02T0M1PU8=

>  <s_epik_cmdline>  (347) 
J2VwaWtfcHl0aG9uJywgJy1waHQnLCAnMi4wJywgJy1waCcsICc3LjAnLCAnLXRuJywgJzgnLCAnLW1hJywgJzIwMCcsICctaW1hZScsICc8aW5maWxlLm1hZT4nLCAnLW9tYWUnLCAnPG91dGZpbGUubWFlPic=

>  <r_epik_Ionization_Penalty>  (347) 
0.000618578

>  <r_epik_Ionization_Penalty_Charging>  (347) 
0

>  <r_epik_Ionization_Penalty_Neutral>  (347) 
0.000618578

>  <r_epik_State_Penalty>  (347) 
0.000389928

>  <r_epik_Charging_Adjusted_Penalty>  (347) 
0.000389928

>  <i_epik_Tot_Q>  (347) 
0

>  <i_epik_Tot_abs_Q>  (347) 
0

>  <s_epik_Chemistry_Notes>  (347) 
This compound has an ester and may undergo hydrolysis at high or low pH.

>  <s_lp_Force_Field>  (347) 
OPLS3e

>  <r_lp_Energy>  (347) 
100.866

>  <b_lp_Chiralities_Consistent>  (347) 
1

>  <s_lp_Variant>  (347) 
111:0-1

>  <s_i_glide_gridfile>  (347) 
pfpi4k_grid

>  <i_i_glide_lignum>  (347) 
32

>  <i_i_glide_rotatable_bonds>  (347) 
3

>  <r_i_docking_score>  (347) 
-3.2362

>  <r_i_glide_ligand_efficiency>  (347) 
-0.119859

>  <r_i_glide_ligand_efficiency_sa>  (347) 
-0.359578

>  <r_i_glide_ligand_efficiency_ln>  (347) 
-0.753335

>  <r_i_glide_gscore>  (347) 
-3.2362

>  <r_i_glide_lipo>  (347) 
-0.293343

>  <r_i_glide_hbond>  (347) 
-0.32

>  <r_i_glide_metal>  (347) 
-0

>  <r_i_glide_rewards>  (347) 
-0.774219

>  <r_i_glide_evdw>  (347) 
-26.5734

>  <r_i_glide_ecoul>  (347) 
-4.20049

>  <r_i_glide_erotb>  (347) 
0.126214

>  <r_i_glide_esite>  (347) 
-0.0161145

>  <r_i_glide_emodel>  (347) 
-34.9547

>  <r_i_glide_energy>  (347) 
-30.7739

>  <r_i_glide_einternal>  (347) 
3.89567

>  <r_i_glide_intrahb_reward>  (347) 
-0

>  <i_i_glide_confnum>  (347) 
1

>  <i_i_glide_posenum>  (347) 
9

>  <r_i_glide_eff_state_penalty>  (347) 
0

>  <ligand_id>  (347) 
111

>  <original_smiles>  (347) 
COC1C2OC3C4CC(C2(O)CC1(C)c1nccs1)C1(C(=O)O4)C(=O)OC31

>  <smiles>  (347) 
[H]OC12C([H])([H])C(c3nc([H])c([H])s3)(C([H])([H])[H])C([H])(OC([H])([H])[H])C1([H])OC1([H])C3([H])OC(=O)C4(C(=O)OC14[H])C2([H])C3([H])[H]

$$$$
111:0:2
     RDKit          3D

 46 51  0  0  1  0  0  0  0  0999 V2000
    8.1101   -6.7957    1.9526 C   0  0  0  0  0  0  0  0  0  0  0  0
    6.7618   -6.7074    2.4154 O   0  0  0  0  0  0  0  0  0  0  0  0
    5.8269   -6.3151    1.4170 C   0  0  2  0  0  0  0  0  0  0  0  0
    5.6663   -4.7761    1.3641 C   0  0  1  0  0  0  0  0  0  0  0  0
    6.7896   -4.2019    0.6389 O   0  0  0  0  0  0  0  0  0  0  0  0
    6.6877   -2.9403   -0.0436 C   0  0  1  0  0  0  0  0  0  0  0  0
    6.2271   -3.3634   -1.4896 C   0  0  1  0  0  0  0  0  0  0  0  0
    4.9264   -4.2352   -1.4496 C   0  0  0  0  0  0  0  0  0  0  0  0
    3.9539   -3.6184   -0.3834 C   0  0  1  0  0  0  0  0  0  0  0  0
    4.1650   -4.5020    0.9023 C   0  0  2  0  0  0  0  0  0  0  0  0
    3.4413   -3.8713    1.9435 O   0  0  0  0  0  0  0  0  0  0  0  0
    3.5337   -5.9124    0.7914 C   0  0  0  0  0  0  0  0  0  0  0  0
    4.3921   -6.8812    1.6308 C   0  0  1  0  0  0  0  0  0  0  0  0
    4.2741   -8.3172    1.0603 C   0  0  0  0  0  0  0  0  0  0  0  0
    3.9458   -6.8669    3.0859 C   0  0  0  0  0  0  0  0  0  0  0  0
    4.1807   -5.8573    3.9323 N   0  0  0  0  0  0  0  0  0  0  0  0
    3.6121   -6.0496    5.1917 C   0  0  0  0  0  0  0  0  0  0  0  0
    2.8748   -7.2019    5.2908 C   0  0  0  0  0  0  0  0  0  0  0  0
    2.8938   -8.1034    3.8000 S   0  0  0  0  0  0  0  0  0  0  0  0
    4.3964   -2.1125   -0.2783 C   0  0  1  0  0  0  0  0  0  0  0  0
    4.7384   -1.5206   -1.6545 C   0  0  0  0  0  0  0  0  0  0  0  0
    4.2243   -0.5759   -2.2456 O   0  0  0  0  0  0  0  0  0  0  0  0
    5.8004   -2.1887   -2.1728 O   0  0  0  0  0  0  0  0  0  0  0  0
    4.0501   -0.9391    0.6691 C   0  0  0  0  0  0  0  0  0  0  0  0
    3.0584   -0.3749    1.1229 O   0  0  0  0  0  0  0  0  0  0  0  0
    5.4001   -0.6791    0.8326 O   0  0  0  0  0  0  0  0  0  0  0  0
    5.5947   -2.1044    0.6431 C   0  0  2  0  0  0  0  0  0  0  0  0
    8.8085   -6.7973    2.7927 H   0  0  0  0  0  0  0  0  0  0  0  0
    8.3985   -5.9686    1.3021 H   0  0  0  0  0  0  0  0  0  0  0  0
    8.2553   -7.7218    1.3941 H   0  0  0  0  0  0  0  0  0  0  0  0
    6.1694   -6.6527    0.4424 H   0  0  0  0  0  0  0  0  0  0  0  0
    5.7745   -4.4072    2.3855 H   0  0  0  0  0  0  0  0  0  0  0  0
    7.6434   -2.4177   -0.0571 H   0  0  0  0  0  0  0  0  0  0  0  0
    7.0224   -3.8496   -2.0487 H   0  0  0  0  0  0  0  0  0  0  0  0
    4.4555   -4.2459   -2.4343 H   0  0  0  0  0  0  0  0  0  0  0  0
    5.1865   -5.2685   -1.2491 H   0  0  0  0  0  0  0  0  0  0  0  0
    2.9153   -3.6851   -0.7181 H   0  0  0  0  0  0  0  0  0  0  0  0
    3.5669   -4.3809    2.7362 H   0  0  0  0  0  0  0  0  0  0  0  0
    2.4792   -5.9430    1.0614 H   0  0  0  0  0  0  0  0  0  0  0  0
    3.5704   -6.2428   -0.2459 H   0  0  0  0  0  0  0  0  0  0  0  0
    4.6805   -8.4171    0.0533 H   0  0  0  0  0  0  0  0  0  0  0  0
    3.2297   -8.6268    0.9990 H   0  0  0  0  0  0  0  0  0  0  0  0
    4.7853   -9.0459    1.6900 H   0  0  0  0  0  0  0  0  0  0  0  0
    3.7777   -5.3075    5.9552 H   0  0  0  0  0  0  0  0  0  0  0  0
    2.3305   -7.5739    6.1397 H   0  0  0  0  0  0  0  0  0  0  0  0
    5.4183   -2.4956    1.6468 H   0  0  0  0  0  0  0  0  0  0  0  0
  1  2  1  0
  1 28  1  0
  1 29  1  0
  1 30  1  0
  2  3  1  0
  3 13  1  0
  3  4  1  0
  3 31  1  6
  4 10  1  0
  4  5  1  0
  4 32  1  1
  5  6  1  0
  6 27  1  0
  6  7  1  0
  6 33  1  6
  7 23  1  0
  7  8  1  0
  7 34  1  6
  8  9  1  0
  8 35  1  0
  8 36  1  0
  9 10  1  0
  9 20  1  0
  9 37  1  6
 10 11  1  1
 10 12  1  0
 11 38  1  0
 12 13  1  0
 12 39  1  0
 12 40  1  0
 13 14  1  6
 13 15  1  0
 14 41  1  0
 14 42  1  0
 14 43  1  0
 15 19  1  0
 15 16  2  0
 16 17  1  0
 17 18  2  0
 17 44  1  0
 18 19  1  0
 18 45  1  0
 20 27  1  0
 20 21  1  0
 20 24  1  1
 21 22  2  0
 21 23  1  0
 24 25  2  0
 24 26  1  0
 26 27  1  0
 27 46  1  1
M  END
>  <i_m_ct_stereo_status>  (348) 
1

>  <s_m_source_file>  (348) 
/var/tmp/pbs.5076255.sched01/tmpajq2dbrl/12675ddggds.sdf

>  <i_m_source_file_index>  (348) 
32

>  <i_lp_mmshare_version>  (348) 
48012

>  <i_f3d_flags>  (348) 
0

>  <s_epik_input>  (348) 
czFbY0hdW2NIXW5jMVtDQF0oW0NIMl0yKShbQ0gzXSlbQ0BIXShPW0NIM10pW0NASF0oW0NAXTIoW0NASF0zW0NAQF00NTYpW09IXSlPW0NAQEhdKFtDQEBIXShbQ0gyXTMpT0M0PU8pW0NASF02T0M1PU8=

>  <s_epik_cmdline>  (348) 
J2VwaWtfcHl0aG9uJywgJy1waHQnLCAnMi4wJywgJy1waCcsICc3LjAnLCAnLXRuJywgJzgnLCAnLW1hJywgJzIwMCcsICctaW1hZScsICc8aW5maWxlLm1hZT4nLCAnLW9tYWUnLCAnPG91dGZpbGUubWFlPic=

>  <r_epik_Ionization_Penalty>  (348) 
0.000618578

>  <r_epik_Ionization_Penalty_Charging>  (348) 
0

>  <r_epik_Ionization_Penalty_Neutral>  (348) 
0.000618578

>  <r_epik_State_Penalty>  (348) 
0.000389928

>  <r_epik_Charging_Adjusted_Penalty>  (348) 
0.000389928

>  <i_epik_Tot_Q>  (348) 
0

>  <i_epik_Tot_abs_Q>  (348) 
0

>  <s_epik_Chemistry_Notes>  (348) 
This compound has an ester and may undergo hydrolysis at high or low pH.

>  <s_lp_Force_Field>  (348) 
OPLS3e

>  <r_lp_Energy>  (348) 
100.866

>  <b_lp_Chiralities_Consistent>  (348) 
1

>  <s_lp_Variant>  (348) 
111:0-1

>  <s_i_glide_gridfile>  (348) 
pfpi4k_grid

>  <i_i_glide_lignum>  (348) 
32

>  <i_i_glide_rotatable_bonds>  (348) 
3

>  <r_i_docking_score>  (348) 
-3.01123

>  <r_i_glide_ligand_efficiency>  (348) 
-0.111527

>  <r_i_glide_ligand_efficiency_sa>  (348) 
-0.334581

>  <r_i_glide_ligand_efficiency_ln>  (348) 
-0.700964

>  <r_i_glide_gscore>  (348) 
-3.01123

>  <r_i_glide_lipo>  (348) 
-0.562473

>  <r_i_glide_hbond>  (348) 
0

>  <r_i_glide_metal>  (348) 
-0

>  <r_i_glide_rewards>  (348) 
-1.22674

>  <r_i_glide_evdw>  (348) 
-25.663

>  <r_i_glide_ecoul>  (348) 
-0.143295

>  <r_i_glide_erotb>  (348) 
0.126214

>  <r_i_glide_esite>  (348) 
-0.0435845

>  <r_i_glide_emodel>  (348) 
-35.4407

>  <r_i_glide_energy>  (348) 
-25.8063

>  <r_i_glide_einternal>  (348) 
2.36797

>  <r_i_glide_intrahb_reward>  (348) 
-0.5

>  <i_i_glide_confnum>  (348) 
2

>  <i_i_glide_posenum>  (348) 
19

>  <r_i_glide_eff_state_penalty>  (348) 
0

>  <ligand_id>  (348) 
111

>  <original_smiles>  (348) 
COC1C2OC3C4CC(C2(O)CC1(C)c1nccs1)C1(C(=O)O4)C(=O)OC31

>  <smiles>  (348) 
[H]OC12C([H])([H])C(c3nc([H])c([H])s3)(C([H])([H])[H])C([H])(OC([H])([H])[H])C1([H])OC1([H])C3([H])OC(=O)C4(C(=O)OC14[H])C2([H])C3([H])[H]

$$$$
113:0:0
     RDKit          3D

 38 41  0  0  1  0  0  0  0  0999 V2000
    2.8179   -2.4539   -3.7148 C   0  0  0  0  0  0  0  0  0  0  0  0
    3.9627   -2.1708   -2.8135 N   0  0  2  0  0  0  0  0  0  0  0  0
    4.8419   -3.3499   -2.6463 C   0  0  0  0  0  0  0  0  0  0  0  0
    6.0585   -2.9956   -1.7646 C   0  0  0  0  0  0  0  0  0  0  0  0
    5.6650   -2.4503   -0.3627 C   0  0  2  0  0  0  0  0  0  0  0  0
    5.1892   -3.5428    0.6066 C   0  0  0  0  0  0  0  0  0  0  0  0
    5.1126   -4.9290    0.3320 C   0  0  0  0  0  0  0  0  0  0  0  0
    4.7602   -5.8533    1.3354 C   0  0  0  0  0  0  0  0  0  0  0  0
    4.4973   -5.4155    2.6468 C   0  0  0  0  0  0  0  0  0  0  0  0
    4.5998   -4.0539    2.8872 C   0  0  0  0  0  0  0  0  0  0  0  0
    4.4083   -3.3270    4.0639 C   0  0  0  0  0  0  0  0  0  0  0  0
    4.5772   -2.0273    3.9295 N   0  0  0  0  0  0  0  0  0  0  0  0
    4.8873   -1.9355    2.5882 N   0  0  0  0  0  0  0  0  0  0  0  0
    4.9239   -3.1239    1.9383 C   0  0  0  0  0  0  0  0  0  0  0  0
    5.1038   -0.6680    1.9287 C   0  0  0  0  0  0  0  0  0  0  0  0
    4.2153   -0.5227    0.6860 C   0  0  0  0  0  0  0  0  0  0  0  0
    4.7110   -1.2484   -0.5848 C   0  0  2  0  0  0  0  0  0  0  0  0
    3.5228   -1.6241   -1.5043 C   0  0  0  0  0  0  0  0  0  0  0  0
    2.1652   -3.2214   -3.2926 H   0  0  0  0  0  0  0  0  0  0  0  0
    3.1588   -2.8027   -4.6919 H   0  0  0  0  0  0  0  0  0  0  0  0
    2.2220   -1.5539   -3.8780 H   0  0  0  0  0  0  0  0  0  0  0  0
    4.2673   -4.1731   -2.2244 H   0  0  0  0  0  0  0  0  0  0  0  0
    5.1862   -3.6890   -3.6239 H   0  0  0  0  0  0  0  0  0  0  0  0
    6.7258   -3.8546   -1.6821 H   0  0  0  0  0  0  0  0  0  0  0  0
    6.6417   -2.2381   -2.2970 H   0  0  0  0  0  0  0  0  0  0  0  0
    6.5928   -2.0709    0.0694 H   0  0  0  0  0  0  0  0  0  0  0  0
    5.3443   -5.3169   -0.6466 H   0  0  0  0  0  0  0  0  0  0  0  0
    4.7045   -6.9053    1.0945 H   0  0  0  0  0  0  0  0  0  0  0  0
    4.2300   -6.1218    3.4226 H   0  0  0  0  0  0  0  0  0  0  0  0
    4.1344   -3.7703    5.0126 H   0  0  0  0  0  0  0  0  0  0  0  0
    4.8268    0.1156    2.6358 H   0  0  0  0  0  0  0  0  0  0  0  0
    6.1668   -0.5379    1.7229 H   0  0  0  0  0  0  0  0  0  0  0  0
    3.1986   -0.8362    0.9314 H   0  0  0  0  0  0  0  0  0  0  0  0
    4.1374    0.5407    0.4619 H   0  0  0  0  0  0  0  0  0  0  0  0
    5.2991   -0.5090   -1.1329 H   0  0  0  0  0  0  0  0  0  0  0  0
    2.9274   -0.7347   -1.7045 H   0  0  0  0  0  0  0  0  0  0  0  0
    2.8758   -2.3496   -1.0092 H   0  0  0  0  0  0  0  0  0  0  0  0
    4.5084   -1.4532   -3.2635 H   0  0  0  0  0  0  0  0  0  0  0  0
  1  2  1  0
  1 19  1  0
  1 20  1  0
  1 21  1  0
  2 18  1  0
  2  3  1  0
  2 38  1  6
  3  4  1  0
  3 22  1  0
  3 23  1  0
  4  5  1  0
  4 24  1  0
  4 25  1  0
  5 17  1  0
  5  6  1  0
  5 26  1  1
  6 14  2  0
  6  7  1  0
  7  8  2  0
  7 27  1  0
  8  9  1  0
  8 28  1  0
  9 10  2  0
  9 29  1  0
 10 14  1  0
 10 11  1  0
 11 12  2  0
 11 30  1  0
 12 13  1  0
 13 14  1  0
 13 15  1  0
 15 16  1  0
 15 31  1  0
 15 32  1  0
 16 17  1  0
 16 33  1  0
 16 34  1  0
 17 18  1  0
 17 35  1  6
 18 36  1  0
 18 37  1  0
M  CHG  1   2   1
M  END
>  <i_m_ct_stereo_status>  (349) 
1

>  <s_m_source_file>  (349) 
/var/tmp/pbs.5076255.sched01/tmpajq2dbrl/12675ddggds.sdf

>  <i_m_source_file_index>  (349) 
34

>  <i_lp_mmshare_version>  (349) 
48012

>  <i_f3d_flags>  (349) 
0

>  <s_epik_input>  (349) 
W0NIMl0xW0NIMl1OKFtDSDNdKVtDSDJdW0NASF0yW0NIMl1bQ0gyXW4zbltjSF1jKFtjSF1bY0hdW2NIXTQpYzNjNFtDQEBIXTEy

>  <s_epik_cmdline>  (349) 
J2VwaWtfcHl0aG9uJywgJy1waHQnLCAnMi4wJywgJy1waCcsICc3LjAnLCAnLXRuJywgJzgnLCAnLW1hJywgJzIwMCcsICctaW1hZScsICc8aW5maWxlLm1hZT4nLCAnLW9tYWUnLCAnPG91dGZpbGUubWFlPic=

>  <r_lp_tautomer_probability>  (349) 
1

>  <r_epik_Ionization_Penalty>  (349) 
0.00198855

>  <r_epik_Ionization_Penalty_Charging>  (349) 
0.00198117

>  <r_epik_Ionization_Penalty_Neutral>  (349) 
7.37458e-06

>  <r_epik_State_Penalty>  (349) 
0.00135247

>  <r_epik_Charging_Adjusted_Penalty>  (349) 
0.00333364

>  <i_epik_Tot_Q>  (349) 
1

>  <i_epik_Tot_abs_Q>  (349) 
1

>  <s_lp_Force_Field>  (349) 
OPLS3e

>  <r_lp_Energy>  (349) 
38.2137

>  <b_lp_Chiralities_Consistent>  (349) 
1

>  <s_lp_Variant>  (349) 
113:0-1

>  <s_i_glide_gridfile>  (349) 
pfpi4k_grid

>  <i_i_glide_lignum>  (349) 
34

>  <i_i_glide_rotatable_bonds>  (349) 
0

>  <r_i_docking_score>  (349) 
-4.11154

>  <r_i_glide_ligand_efficiency>  (349) 
-0.228419

>  <r_i_glide_ligand_efficiency_sa>  (349) 
-0.598627

>  <r_i_glide_ligand_efficiency_ln>  (349) 
-1.05685

>  <r_i_glide_gscore>  (349) 
-4.11154

>  <r_i_glide_lipo>  (349) 
-0.913428

>  <r_i_glide_hbond>  (349) 
0

>  <r_i_glide_metal>  (349) 
-0

>  <r_i_glide_rewards>  (349) 
-1.8411

>  <r_i_glide_evdw>  (349) 
-19.1851

>  <r_i_glide_ecoul>  (349) 
-2.65172

>  <r_i_glide_erotb>  (349) 
0

>  <r_i_glide_esite>  (349) 
0

>  <r_i_glide_emodel>  (349) 
-28.1119

>  <r_i_glide_energy>  (349) 
-21.8368

>  <r_i_glide_einternal>  (349) 
0

>  <r_i_glide_intrahb_reward>  (349) 
-0

>  <i_i_glide_confnum>  (349) 
1

>  <i_i_glide_posenum>  (349) 
19

>  <r_i_glide_eff_state_penalty>  (349) 
0

>  <ligand_id>  (349) 
113

>  <original_smiles>  (349) 
CN1CCC2c3cccc4cnn(c34)CCC2C1

>  <smiles>  (349) 
[H]c1c([H])c2c3c(c([H])nn3C([H])([H])C([H])([H])C3([H])C2([H])C([H])([H])C([H])([H])[N+]([H])(C([H])([H])[H])C3([H])[H])c1[H]

$$$$
113:0:1
     RDKit          3D

 38 41  0  0  1  0  0  0  0  0999 V2000
    0.4484    1.3088    1.9543 C   0  0  0  0  0  0  0  0  0  0  0  0
    1.5607    0.5110    2.5323 N   0  0  2  0  0  0  0  0  0  0  0  0
    2.8694    0.8978    1.9761 C   0  0  0  0  0  0  0  0  0  0  0  0
    4.0038    0.1074    2.6578 C   0  0  0  0  0  0  0  0  0  0  0  0
    3.8423   -1.4299    2.5336 C   0  0  2  0  0  0  0  0  0  0  0  0
    4.1961   -1.9692    1.1382 C   0  0  0  0  0  0  0  0  0  0  0  0
    4.6610   -1.2083    0.0348 C   0  0  0  0  0  0  0  0  0  0  0  0
    5.0556   -1.8402   -1.1644 C   0  0  0  0  0  0  0  0  0  0  0  0
    5.0225   -3.2427   -1.2764 C   0  0  0  0  0  0  0  0  0  0  0  0
    4.5846   -3.9523   -0.1643 C   0  0  0  0  0  0  0  0  0  0  0  0
    4.4447   -5.3188    0.0248 C   0  0  0  0  0  0  0  0  0  0  0  0
    3.9697   -5.6678    1.2086 N   0  0  0  0  0  0  0  0  0  0  0  0
    3.8074   -4.4259    1.7878 N   0  0  0  0  0  0  0  0  0  0  0  0
    4.1736   -3.3842    1.0001 C   0  0  0  0  0  0  0  0  0  0  0  0
    3.2540   -4.2547    3.1107 C   0  0  0  0  0  0  0  0  0  0  0  0
    2.0723   -3.2834    3.1045 C   0  0  0  0  0  0  0  0  0  0  0  0
    2.4465   -1.7869    3.0918 C   0  0  2  0  0  0  0  0  0  0  0  0
    1.3338   -0.9487    2.4178 C   0  0  0  0  0  0  0  0  0  0  0  0
    0.3483    1.1341    0.8854 H   0  0  0  0  0  0  0  0  0  0  0  0
    0.6051    2.3805    2.1052 H   0  0  0  0  0  0  0  0  0  0  0  0
   -0.5012    1.0517    2.4287 H   0  0  0  0  0  0  0  0  0  0  0  0
    2.8628    0.7474    0.8989 H   0  0  0  0  0  0  0  0  0  0  0  0
    3.0192    1.9677    2.1337 H   0  0  0  0  0  0  0  0  0  0  0  0
    4.9609    0.4212    2.2625 H   0  0  0  0  0  0  0  0  0  0  0  0
    4.0214    0.3850    3.7122 H   0  0  0  0  0  0  0  0  0  0  0  0
    4.5929   -1.8536    3.2026 H   0  0  0  0  0  0  0  0  0  0  0  0
    4.7403   -0.1351    0.0874 H   0  0  0  0  0  0  0  0  0  0  0  0
    5.3841   -1.2389   -2.0036 H   0  0  0  0  0  0  0  0  0  0  0  0
    5.3113   -3.7464   -2.1870 H   0  0  0  0  0  0  0  0  0  0  0  0
    4.6748   -6.0433   -0.7448 H   0  0  0  0  0  0  0  0  0  0  0  0
    2.8842   -5.2345    3.4237 H   0  0  0  0  0  0  0  0  0  0  0  0
    4.0456   -3.9882    3.8077 H   0  0  0  0  0  0  0  0  0  0  0  0
    1.4197   -3.5203    2.2642 H   0  0  0  0  0  0  0  0  0  0  0  0
    1.4706   -3.4702    3.9931 H   0  0  0  0  0  0  0  0  0  0  0  0
    2.4665   -1.4830    4.1387 H   0  0  0  0  0  0  0  0  0  0  0  0
    0.3777   -1.1761    2.8889 H   0  0  0  0  0  0  0  0  0  0  0  0
    1.2560   -1.2173    1.3651 H   0  0  0  0  0  0  0  0  0  0  0  0
    1.5889    0.7444    3.5152 H   0  0  0  0  0  0  0  0  0  0  0  0
  1  2  1  0
  1 19  1  0
  1 20  1  0
  1 21  1  0
  2 18  1  0
  2  3  1  0
  2 38  1  1
  3  4  1  0
  3 22  1  0
  3 23  1  0
  4  5  1  0
  4 24  1  0
  4 25  1  0
  5 17  1  0
  5  6  1  0
  5 26  1  1
  6 14  2  0
  6  7  1  0
  7  8  2  0
  7 27  1  0
  8  9  1  0
  8 28  1  0
  9 10  2  0
  9 29  1  0
 10 14  1  0
 10 11  1  0
 11 12  2  0
 11 30  1  0
 12 13  1  0
 13 14  1  0
 13 15  1  0
 15 16  1  0
 15 31  1  0
 15 32  1  0
 16 17  1  0
 16 33  1  0
 16 34  1  0
 17 18  1  0
 17 35  1  1
 18 36  1  0
 18 37  1  0
M  CHG  1   2   1
M  END
>  <i_m_ct_stereo_status>  (350) 
1

>  <s_m_source_file>  (350) 
/var/tmp/pbs.5076255.sched01/tmpajq2dbrl/12675ddggds.sdf

>  <i_m_source_file_index>  (350) 
34

>  <i_lp_mmshare_version>  (350) 
48012

>  <i_f3d_flags>  (350) 
0

>  <s_epik_input>  (350) 
W0NIMl0xW0NIMl1OKFtDSDNdKVtDSDJdW0NASF0yW0NIMl1bQ0gyXW4zbltjSF1jKFtjSF1bY0hdW2NIXTQpYzNjNFtDQEBIXTEy

>  <s_epik_cmdline>  (350) 
J2VwaWtfcHl0aG9uJywgJy1waHQnLCAnMi4wJywgJy1waCcsICc3LjAnLCAnLXRuJywgJzgnLCAnLW1hJywgJzIwMCcsICctaW1hZScsICc8aW5maWxlLm1hZT4nLCAnLW9tYWUnLCAnPG91dGZpbGUubWFlPic=

>  <r_lp_tautomer_probability>  (350) 
1

>  <r_epik_Ionization_Penalty>  (350) 
0.00198855

>  <r_epik_Ionization_Penalty_Charging>  (350) 
0.00198117

>  <r_epik_Ionization_Penalty_Neutral>  (350) 
7.37458e-06

>  <r_epik_State_Penalty>  (350) 
0.00135247

>  <r_epik_Charging_Adjusted_Penalty>  (350) 
0.00333364

>  <i_epik_Tot_Q>  (350) 
1

>  <i_epik_Tot_abs_Q>  (350) 
1

>  <s_lp_Force_Field>  (350) 
OPLS3e

>  <r_lp_Energy>  (350) 
38.2137

>  <b_lp_Chiralities_Consistent>  (350) 
1

>  <s_lp_Variant>  (350) 
113:0-1

>  <s_i_glide_gridfile>  (350) 
pfpi4k_grid

>  <i_i_glide_lignum>  (350) 
34

>  <i_i_glide_rotatable_bonds>  (350) 
0

>  <r_i_docking_score>  (350) 
-3.50964

>  <r_i_glide_ligand_efficiency>  (350) 
-0.19498

>  <r_i_glide_ligand_efficiency_sa>  (350) 
-0.510992

>  <r_i_glide_ligand_efficiency_ln>  (350) 
-0.902135

>  <r_i_glide_gscore>  (350) 
-3.50964

>  <r_i_glide_lipo>  (350) 
-0.15276

>  <r_i_glide_hbond>  (350) 
0

>  <r_i_glide_metal>  (350) 
-0

>  <r_i_glide_rewards>  (350) 
-1.76674

>  <r_i_glide_evdw>  (350) 
-17.3871

>  <r_i_glide_ecoul>  (350) 
-4.63724

>  <r_i_glide_erotb>  (350) 
0

>  <r_i_glide_esite>  (350) 
-0.0252013

>  <r_i_glide_emodel>  (350) 
-27.3447

>  <r_i_glide_energy>  (350) 
-22.0243

>  <r_i_glide_einternal>  (350) 
0

>  <r_i_glide_intrahb_reward>  (350) 
-0

>  <i_i_glide_confnum>  (350) 
1

>  <i_i_glide_posenum>  (350) 
3

>  <r_i_glide_eff_state_penalty>  (350) 
0

>  <ligand_id>  (350) 
113

>  <original_smiles>  (350) 
CN1CCC2c3cccc4cnn(c34)CCC2C1

>  <smiles>  (350) 
[H]c1c([H])c2c3c(c([H])nn3C([H])([H])C([H])([H])C3([H])C2([H])C([H])([H])C([H])([H])[N+]([H])(C([H])([H])[H])C3([H])[H])c1[H]

$$$$
113:0:2
     RDKit          3D

 38 41  0  0  1  0  0  0  0  0999 V2000
    4.7930    0.2355    4.1901 C   0  0  0  0  0  0  0  0  0  0  0  0
    4.9699   -1.0393    3.4532 N   0  0  2  0  0  0  0  0  0  0  0  0
    6.0022   -0.9330    2.3972 C   0  0  0  0  0  0  0  0  0  0  0  0
    6.2136   -2.2931    1.7018 C   0  0  0  0  0  0  0  0  0  0  0  0
    4.9197   -2.8813    1.0904 C   0  0  2  0  0  0  0  0  0  0  0  0
    4.5252   -2.2087   -0.2304 C   0  0  0  0  0  0  0  0  0  0  0  0
    5.2094   -1.1637   -0.8782 C   0  0  0  0  0  0  0  0  0  0  0  0
    4.7899   -0.6917   -2.1380 C   0  0  0  0  0  0  0  0  0  0  0  0
    3.7018   -1.2782   -2.8075 C   0  0  0  0  0  0  0  0  0  0  0  0
    3.0640   -2.3118   -2.1430 C   0  0  0  0  0  0  0  0  0  0  0  0
    1.9392   -3.0523   -2.5006 C   0  0  0  0  0  0  0  0  0  0  0  0
    1.5068   -3.8600   -1.5503 N   0  0  0  0  0  0  0  0  0  0  0  0
    2.4907   -3.7116   -0.6052 N   0  0  0  0  0  0  0  0  0  0  0  0
    3.4128   -2.7730   -0.9066 C   0  0  0  0  0  0  0  0  0  0  0  0
    2.4822   -4.4600    0.6301 C   0  0  0  0  0  0  0  0  0  0  0  0
    2.4810   -3.5156    1.8345 C   0  0  0  0  0  0  0  0  0  0  0  0
    3.8532   -2.9298    2.2148 C   0  0  2  0  0  0  0  0  0  0  0  0
    3.6886   -1.5576    2.9084 C   0  0  0  0  0  0  0  0  0  0  0  0
    4.4235    1.0161    3.5263 H   0  0  0  0  0  0  0  0  0  0  0  0
    5.7352    0.5749    4.6264 H   0  0  0  0  0  0  0  0  0  0  0  0
    4.0735    0.1166    5.0014 H   0  0  0  0  0  0  0  0  0  0  0  0
    5.7202   -0.1582    1.6853 H   0  0  0  0  0  0  0  0  0  0  0  0
    6.9390   -0.6098    2.8520 H   0  0  0  0  0  0  0  0  0  0  0  0
    7.0117   -2.2215    0.9651 H   0  0  0  0  0  0  0  0  0  0  0  0
    6.5768   -2.9987    2.4486 H   0  0  0  0  0  0  0  0  0  0  0  0
    5.1688   -3.9071    0.8143 H   0  0  0  0  0  0  0  0  0  0  0  0
    6.0734   -0.7116   -0.4280 H   0  0  0  0  0  0  0  0  0  0  0  0
    5.3091    0.1350   -2.5893 H   0  0  0  0  0  0  0  0  0  0  0  0
    3.3556   -0.8946   -3.7573 H   0  0  0  0  0  0  0  0  0  0  0  0
    1.4100   -2.9219   -3.4337 H   0  0  0  0  0  0  0  0  0  0  0  0
    1.5664   -5.0548    0.6436 H   0  0  0  0  0  0  0  0  0  0  0  0
    3.2925   -5.1878    0.6325 H   0  0  0  0  0  0  0  0  0  0  0  0
    1.7727   -2.7045    1.6558 H   0  0  0  0  0  0  0  0  0  0  0  0
    2.0909   -4.0576    2.6954 H   0  0  0  0  0  0  0  0  0  0  0  0
    4.2622   -3.6108    2.9648 H   0  0  0  0  0  0  0  0  0  0  0  0
    2.9861   -1.6532    3.7368 H   0  0  0  0  0  0  0  0  0  0  0  0
    3.2740   -0.8301    2.2099 H   0  0  0  0  0  0  0  0  0  0  0  0
    5.3095   -1.7144    4.1241 H   0  0  0  0  0  0  0  0  0  0  0  0
  1  2  1  0
  1 19  1  0
  1 20  1  0
  1 21  1  0
  2 18  1  0
  2  3  1  0
  2 38  1  1
  3  4  1  0
  3 22  1  0
  3 23  1  0
  4  5  1  0
  4 24  1  0
  4 25  1  0
  5 17  1  0
  5  6  1  0
  5 26  1  6
  6 14  2  0
  6  7  1  0
  7  8  2  0
  7 27  1  0
  8  9  1  0
  8 28  1  0
  9 10  2  0
  9 29  1  0
 10 14  1  0
 10 11  1  0
 11 12  2  0
 11 30  1  0
 12 13  1  0
 13 14  1  0
 13 15  1  0
 15 16  1  0
 15 31  1  0
 15 32  1  0
 16 17  1  0
 16 33  1  0
 16 34  1  0
 17 18  1  0
 17 35  1  1
 18 36  1  0
 18 37  1  0
M  CHG  1   2   1
M  END
>  <i_m_ct_stereo_status>  (351) 
1

>  <s_m_source_file>  (351) 
/var/tmp/pbs.5076255.sched01/tmpajq2dbrl/12675ddggds.sdf

>  <i_m_source_file_index>  (351) 
34

>  <i_lp_mmshare_version>  (351) 
48012

>  <i_f3d_flags>  (351) 
0

>  <s_epik_input>  (351) 
W0NIMl0xW0NIMl1OKFtDSDNdKVtDSDJdW0NASF0yW0NIMl1bQ0gyXW4zbltjSF1jKFtjSF1bY0hdW2NIXTQpYzNjNFtDQEBIXTEy

>  <s_epik_cmdline>  (351) 
J2VwaWtfcHl0aG9uJywgJy1waHQnLCAnMi4wJywgJy1waCcsICc3LjAnLCAnLXRuJywgJzgnLCAnLW1hJywgJzIwMCcsICctaW1hZScsICc8aW5maWxlLm1hZT4nLCAnLW9tYWUnLCAnPG91dGZpbGUubWFlPic=

>  <r_lp_tautomer_probability>  (351) 
1

>  <r_epik_Ionization_Penalty>  (351) 
0.00198855

>  <r_epik_Ionization_Penalty_Charging>  (351) 
0.00198117

>  <r_epik_Ionization_Penalty_Neutral>  (351) 
7.37458e-06

>  <r_epik_State_Penalty>  (351) 
0.00135247

>  <r_epik_Charging_Adjusted_Penalty>  (351) 
0.00333364

>  <i_epik_Tot_Q>  (351) 
1

>  <i_epik_Tot_abs_Q>  (351) 
1

>  <s_lp_Force_Field>  (351) 
OPLS3e

>  <r_lp_Energy>  (351) 
38.2137

>  <b_lp_Chiralities_Consistent>  (351) 
1

>  <s_lp_Variant>  (351) 
113:0-1

>  <s_i_glide_gridfile>  (351) 
pfpi4k_grid

>  <i_i_glide_lignum>  (351) 
34

>  <i_i_glide_rotatable_bonds>  (351) 
0

>  <r_i_docking_score>  (351) 
-2.98397

>  <r_i_glide_ligand_efficiency>  (351) 
-0.165776

>  <r_i_glide_ligand_efficiency_sa>  (351) 
-0.434456

>  <r_i_glide_ligand_efficiency_ln>  (351) 
-0.767014

>  <r_i_glide_gscore>  (351) 
-2.98397

>  <r_i_glide_lipo>  (351) 
-0.341562

>  <r_i_glide_hbond>  (351) 
-0.00556634

>  <r_i_glide_metal>  (351) 
-0

>  <r_i_glide_rewards>  (351) 
-1.75678

>  <r_i_glide_evdw>  (351) 
-15.084

>  <r_i_glide_ecoul>  (351) 
-0.531248

>  <r_i_glide_erotb>  (351) 
0

>  <r_i_glide_esite>  (351) 
-0.046178

>  <r_i_glide_emodel>  (351) 
-20.1193

>  <r_i_glide_energy>  (351) 
-15.6152

>  <r_i_glide_einternal>  (351) 
0

>  <r_i_glide_intrahb_reward>  (351) 
-0

>  <i_i_glide_confnum>  (351) 
2

>  <i_i_glide_posenum>  (351) 
29

>  <r_i_glide_eff_state_penalty>  (351) 
0

>  <ligand_id>  (351) 
113

>  <original_smiles>  (351) 
CN1CCC2c3cccc4cnn(c34)CCC2C1

>  <smiles>  (351) 
[H]c1c([H])c2c3c(c([H])nn3C([H])([H])C([H])([H])C3([H])C2([H])C([H])([H])C([H])([H])[N+]([H])(C([H])([H])[H])C3([H])[H])c1[H]

$$$$
114:3:0
     RDKit          3D

 98103  0  0  1  0  0  0  0  0999 V2000
   -2.6360    3.6290    5.1324 C   0  0  0  0  0  0  0  0  0  0  0  0
   -1.7282    4.0492    3.9270 C   0  0  2  0  0  0  0  0  0  0  0  0
   -2.5491    4.7583    2.7935 C   0  0  0  0  0  0  0  0  0  0  0  0
   -3.6822    3.9742    2.1422 C   0  0  0  0  0  0  0  0  0  0  0  0
   -4.7445    4.4571    1.4478 C   0  0  0  0  0  0  0  0  0  0  0  0
   -5.1940    5.8739    1.0754 C   0  0  0  0  0  0  0  0  0  0  0  0
   -5.2379    6.0244   -0.4514 C   0  0  0  0  0  0  0  0  0  0  0  0
   -6.5721    6.1507    1.6984 C   0  0  0  0  0  0  0  0  0  0  0  0
   -4.3167    6.8789    1.5449 O   0  0  0  0  0  0  0  0  0  0  0  0
   -0.8084    2.9186    3.3625 C   0  0  2  0  0  0  0  0  0  0  0  0
   -1.6296    1.7215    2.8589 C   0  0  0  0  0  0  0  0  0  0  0  0
   -0.8641    0.4650    3.2139 C   0  0  0  0  0  0  0  0  0  0  0  0
    0.5700    0.8865    3.5495 C   0  0  2  0  0  0  0  0  0  0  0  0
    1.2971    1.0249    2.1735 C   0  0  0  0  0  0  0  0  0  0  0  0
    1.3539   -0.1521    4.4435 C   0  0  2  0  0  0  0  0  0  0  0  0
    1.3177   -1.6487    3.8794 C   0  0  1  0  0  0  0  0  0  0  0  0
    2.4815   -1.8440    3.0872 O   0  0  0  0  0  0  0  0  0  0  0  0
    1.1915   -2.8411    4.8884 C   0  0  1  0  0  0  0  0  0  0  0  0
    1.7715   -4.0475    4.4309 O   0  0  0  0  0  0  0  0  0  0  0  0
    1.6797   -2.4320    6.2843 C   0  0  1  0  0  0  0  0  0  0  0  0
    3.2303   -2.2461    6.1965 C   0  0  0  0  0  0  0  0  0  0  0  0
    0.7434   -1.2368    6.7097 C   0  0  2  0  0  0  0  0  0  0  0  0
   -0.7991   -1.2661    6.4768 C   0  0  0  0  0  0  0  0  0  0  0  0
    1.2905    0.0157    6.0182 C   0  0  2  0  0  0  0  0  0  0  0  0
    0.7844    1.3457    6.6150 C   0  0  1  0  0  0  0  0  0  0  0  0
    1.8468    2.1768    7.0403 O   0  0  0  0  0  0  0  0  0  0  0  0
   -0.1312    2.1054    5.6755 C   0  0  0  0  0  0  0  0  0  0  0  0
    0.3438    2.2846    4.2241 C   0  0  2  0  0  0  0  0  0  0  0  0
    1.6082    3.1694    4.1785 C   0  0  0  0  0  0  0  0  0  0  0  0
    1.1136   -1.6556    8.1356 C   0  0  1  0  0  0  0  0  0  0  0  0
    0.2830   -1.4926    9.4318 C   0  0  2  0  0  0  0  0  0  0  0  0
    1.0799   -1.6273   10.7376 C   0  0  0  0  0  0  0  0  0  0  0  0
    0.6839   -3.1001   10.6597 C   0  0  1  0  0  0  0  0  0  0  0  0
   -0.4212   -2.7426    9.7514 O   0  0  0  0  0  0  0  0  0  0  0  0
    1.6747   -4.1031   10.0355 C   0  0  0  0  0  0  0  0  0  0  0  0
    2.0676   -5.0522   10.7189 O   0  0  0  0  0  0  0  0  0  0  0  0
    2.2271   -3.8951    8.5686 C   0  0  1  0  0  0  0  0  0  0  0  0
    2.7037   -5.1513    7.9692 N   0  0  0  0  0  0  0  0  0  0  0  0
    2.0355   -6.3093    7.8272 C   0  0  0  0  0  0  0  0  0  0  0  0
    0.8814   -6.4764    8.2342 O   0  0  0  0  0  0  0  0  0  0  0  0
    2.7920   -7.4581    7.1491 C   0  0  0  0  0  0  0  0  0  0  0  0
    1.9016   -8.2599    6.3170 N   0  0  0  0  0  0  0  0  0  0  0  0
    1.2554   -3.1225    7.6146 C   0  0  2  0  0  0  0  0  0  0  0  0
    0.1052   -3.9344    7.4442 O   0  0  0  0  0  0  0  0  0  0  0  0
   -3.4757    3.0080    4.7779 H   0  0  0  0  0  0  0  0  0  0  0  0
   -3.0515    4.5137    5.5943 H   0  0  0  0  0  0  0  0  0  0  0  0
   -2.1590    3.1876    5.9955 H   0  0  0  0  0  0  0  0  0  0  0  0
   -1.0434    4.7999    4.3080 H   0  0  0  0  0  0  0  0  0  0  0  0
   -3.1501    5.5306    3.2149 H   0  0  0  0  0  0  0  0  0  0  0  0
   -1.8955    5.2454    2.0650 H   0  0  0  0  0  0  0  0  0  0  0  0
   -3.6553    2.8936    2.2528 H   0  0  0  0  0  0  0  0  0  0  0  0
   -5.3991    3.6926    1.0969 H   0  0  0  0  0  0  0  0  0  0  0  0
   -5.9143    5.2972   -0.9017 H   0  0  0  0  0  0  0  0  0  0  0  0
   -4.2451    5.8779   -0.8900 H   0  0  0  0  0  0  0  0  0  0  0  0
   -5.5895    7.0187   -0.7386 H   0  0  0  0  0  0  0  0  0  0  0  0
   -7.3117    5.4284    1.3557 H   0  0  0  0  0  0  0  0  0  0  0  0
   -6.9265    7.1498    1.4280 H   0  0  0  0  0  0  0  0  0  0  0  0
   -6.5416    6.0827    2.7886 H   0  0  0  0  0  0  0  0  0  0  0  0
   -3.5408    6.8606    0.9955 H   0  0  0  0  0  0  0  0  0  0  0  0
   -0.3129    3.3658    2.4850 H   0  0  0  0  0  0  0  0  0  0  0  0
   -2.5797    1.6585    3.3584 H   0  0  0  0  0  0  0  0  0  0  0  0
   -1.8015    1.7664    1.7786 H   0  0  0  0  0  0  0  0  0  0  0  0
   -1.3881    0.0111    4.0481 H   0  0  0  0  0  0  0  0  0  0  0  0
   -0.8764   -0.2342    2.3861 H   0  0  0  0  0  0  0  0  0  0  0  0
    2.3370    1.3270    2.2885 H   0  0  0  0  0  0  0  0  0  0  0  0
    0.8273    1.7548    1.5136 H   0  0  0  0  0  0  0  0  0  0  0  0
    1.2878    0.0905    1.6132 H   0  0  0  0  0  0  0  0  0  0  0  0
    2.3803    0.1757    4.2759 H   0  0  0  0  0  0  0  0  0  0  0  0
    0.4857   -1.7721    3.1878 H   0  0  0  0  0  0  0  0  0  0  0  0
    2.4537   -1.2189    2.3722 H   0  0  0  0  0  0  0  0  0  0  0  0
    0.1482   -3.0987    4.9530 H   0  0  0  0  0  0  0  0  0  0  0  0
    2.6820   -3.8688    4.2303 H   0  0  0  0  0  0  0  0  0  0  0  0
    3.6584   -1.7937    7.0874 H   0  0  0  0  0  0  0  0  0  0  0  0
    3.5361   -1.6132    5.3703 H   0  0  0  0  0  0  0  0  0  0  0  0
    3.7224   -3.2046    6.0597 H   0  0  0  0  0  0  0  0  0  0  0  0
   -1.2747   -0.3732    6.8719 H   0  0  0  0  0  0  0  0  0  0  0  0
   -1.2743   -2.0899    6.9784 H   0  0  0  0  0  0  0  0  0  0  0  0
   -1.0798   -1.4046    5.4421 H   0  0  0  0  0  0  0  0  0  0  0  0
    2.3281    0.0539    6.3117 H   0  0  0  0  0  0  0  0  0  0  0  0
    0.2239    1.1351    7.5273 H   0  0  0  0  0  0  0  0  0  0  0  0
    2.2634    2.5165    6.2565 H   0  0  0  0  0  0  0  0  0  0  0  0
   -1.0567    1.5456    5.6682 H   0  0  0  0  0  0  0  0  0  0  0  0
   -0.3391    3.0841    6.0990 H   0  0  0  0  0  0  0  0  0  0  0  0
    2.4871    2.5882    4.4473 H   0  0  0  0  0  0  0  0  0  0  0  0
    1.5153    4.0061    4.8667 H   0  0  0  0  0  0  0  0  0  0  0  0
    1.7887    3.5810    3.1855 H   0  0  0  0  0  0  0  0  0  0  0  0
    2.0687   -1.2016    8.3658 H   0  0  0  0  0  0  0  0  0  0  0  0
   -0.3817   -0.6260    9.4474 H   0  0  0  0  0  0  0  0  0  0  0  0
    2.1408   -1.4225   10.6533 H   0  0  0  0  0  0  0  0  0  0  0  0
    0.6040   -1.1160   11.5708 H   0  0  0  0  0  0  0  0  0  0  0  0
    0.2863   -3.4479   11.6177 H   0  0  0  0  0  0  0  0  0  0  0  0
    3.1321   -3.3012    8.7045 H   0  0  0  0  0  0  0  0  0  0  0  0
    3.6481   -5.1154    7.6147 H   0  0  0  0  0  0  0  0  0  0  0  0
    3.6144   -7.0649    6.5455 H   0  0  0  0  0  0  0  0  0  0  0  0
    3.2125   -8.0769    7.9420 H   0  0  0  0  0  0  0  0  0  0  0  0
    2.3941   -8.9833    5.8171 H   0  0  0  0  0  0  0  0  0  0  0  0
    1.2019   -8.7306    6.8777 H   0  0  0  0  0  0  0  0  0  0  0  0
   -0.0635   -4.3322    8.2909 H   0  0  0  0  0  0  0  0  0  0  0  0
  1  2  1  0
  1 45  1  0
  1 46  1  0
  1 47  1  0
  2  3  1  0
  2 10  1  0
  2 48  1  1
  3  4  1  0
  3 49  1  0
  3 50  1  0
  4  5  2  3
  4 51  1  0
  5  6  1  0
  5 52  1  0
  6  7  1  0
  6  8  1  0
  6  9  1  0
  7 53  1  0
  7 54  1  0
  7 55  1  0
  8 56  1  0
  8 57  1  0
  8 58  1  0
  9 59  1  0
 10 28  1  0
 10 11  1  0
 10 60  1  6
 11 12  1  0
 11 61  1  0
 11 62  1  0
 12 13  1  0
 12 63  1  0
 12 64  1  0
 13 28  1  0
 13 14  1  6
 13 15  1  0
 14 65  1  0
 14 66  1  0
 14 67  1  0
 15 24  1  0
 15 16  1  0
 15 68  1  6
 16 17  1  0
 16 18  1  0
 16 69  1  6
 17 70  1  0
 18 19  1  0
 18 20  1  0
 18 71  1  1
 19 72  1  0
 20 43  1  0
 20 21  1  6
 20 22  1  0
 21 73  1  0
 21 74  1  0
 21 75  1  0
 22 23  1  1
 22 24  1  0
 22 30  1  0
 23 76  1  0
 23 77  1  0
 23 78  1  0
 24 25  1  0
 24 79  1  1
 25 26  1  0
 25 27  1  0
 25 80  1  1
 26 81  1  0
 27 28  1  0
 27 82  1  0
 27 83  1  0
 28 29  1  1
 29 84  1  0
 29 85  1  0
 29 86  1  0
 30 43  1  0
 30 31  1  0
 30 87  1  1
 31 34  1  0
 31 32  1  0
 31 88  1  6
 32 33  1  0
 32 89  1  0
 32 90  1  0
 33 34  1  0
 33 35  1  0
 33 91  1  1
 35 36  2  0
 35 37  1  0
 37 38  1  0
 37 43  1  0
 37 92  1  1
 38 39  1  0
 38 93  1  0
 39 40  2  0
 39 41  1  0
 41 42  1  0
 41 94  1  0
 41 95  1  0
 42 96  1  0
 42 97  1  0
 43 44  1  6
 44 98  1  0
M  END
>  <i_m_ct_stereo_status>  (352) 
1

>  <s_m_source_file>  (352) 
/var/tmp/pbs.5076255.sched01/tmpajq2dbrl/12675ddggds.sdf

>  <i_m_source_file_index>  (352) 
38

>  <i_lp_mmshare_version>  (352) 
48012

>  <i_f3d_flags>  (352) 
0

>  <s_epik_input>  (352) 
W0NIM11DKFtDSDNdKShbT0hdKVxbQ0hdPVtDSF1cW0NIMl1bQ0BASF0oW0NIM10pW0NASF0oW0NIMl1bQ0gyXTEpW0NAQF0yKFtDSDNdKVtDSDJdW0NASF0oW09IXSlbQ0BIXShbQ0BASF0zW0NAQF0xMltDSDNdKVtDQEBdNChbQ0gzXSlbQ0BdKFtDSDNdKShbQ0BIXShbT0hdKVtDQEBIXTNbT0hdKVtDQF01KFtPSF0pW0NAQEhdNFtDQEBIXTZbQ0gyXVtDQEBIXShPNilDKD1PKVtDQEhdNVtOSF1DKD1PKVtDSDJdW05IMl0=

>  <s_epik_cmdline>  (352) 
J2VwaWtfcHl0aG9uJywgJy1waHQnLCAnMi4wJywgJy1waCcsICc3LjAnLCAnLXRuJywgJzgnLCAnLW1hJywgJzIwMCcsICctaW1hZScsICc8aW5maWxlLm1hZT4nLCAnLW9tYWUnLCAnPG91dGZpbGUubWFlPic=

>  <r_lp_tautomer_probability>  (352) 
1

>  <r_epik_Ionization_Penalty>  (352) 
0.883852

>  <r_epik_Ionization_Penalty_Charging>  (352) 
0

>  <r_epik_Ionization_Penalty_Neutral>  (352) 
0.883852

>  <r_epik_State_Penalty>  (352) 
0.9223

>  <r_epik_Charging_Adjusted_Penalty>  (352) 
0.9223

>  <i_epik_Tot_Q>  (352) 
0

>  <i_epik_Tot_abs_Q>  (352) 
0

>  <s_lp_Force_Field>  (352) 
OPLS3e

>  <r_lp_Energy>  (352) 
112.491

>  <b_lp_Chiralities_Consistent>  (352) 
1

>  <s_lp_Variant>  (352) 
114:0-4

>  <s_i_glide_gridfile>  (352) 
pfpi4k_grid

>  <i_i_glide_lignum>  (352) 
38

>  <i_i_glide_rotatable_bonds>  (352) 
12

>  <r_i_docking_score>  (352) 
-2.50348

>  <r_i_glide_ligand_efficiency>  (352) 
-0.0568972

>  <r_i_glide_ligand_efficiency_sa>  (352) 
-0.200867

>  <r_i_glide_ligand_efficiency_ln>  (352) 
-0.523281

>  <r_i_glide_gscore>  (352) 
-2.50348

>  <r_i_glide_lipo>  (352) 
-0.919672

>  <r_i_glide_hbond>  (352) 
-0.16

>  <r_i_glide_metal>  (352) 
-0

>  <r_i_glide_rewards>  (352) 
0

>  <r_i_glide_evdw>  (352) 
-16.0756

>  <r_i_glide_ecoul>  (352) 
-5.46425

>  <r_i_glide_erotb>  (352) 
0.199614

>  <r_i_glide_esite>  (352) 
0

>  <r_i_glide_emodel>  (352) 
-12.057

>  <r_i_glide_energy>  (352) 
-21.5399

>  <r_i_glide_einternal>  (352) 
17.6174

>  <r_i_glide_intrahb_reward>  (352) 
-0

>  <i_i_glide_confnum>  (352) 
2

>  <i_i_glide_posenum>  (352) 
1

>  <r_i_glide_eff_state_penalty>  (352) 
0

>  <ligand_id>  (352) 
114

>  <original_smiles>  (352) 
CC(CC=CC(C)(C)O)C1CCC2(C)C3C(O)C(O)C4(C)C(C)(C3C(O)CC12C)C1C2CC(O2)C(=O)C(NC(=O)CN)C14O

>  <smiles>  (352) 
[H]OC1([H])C([H])(O[H])C2(C([H])([H])[H])C3(O[H])C([H])(N([H])C(=O)C([H])([H])N([H])[H])C(=O)C4([H])OC([H])(C4([H])[H])C3([H])C2(C([H])([H])[H])C2([H])C([H])(O[H])C([H])([H])C3(C([H])([H])[H])C([H])(C([H])(C([H])([H])[H])C([H])([H])C([H])=C([H])C(O[H])(C([H])([H])[H])C([H])([H])[H])C([H])([H])C([H])([H])C3(C([H])([H])[H])C12[H]

$$$$
115:0:0
     RDKit          3D

 83 90  0  0  1  0  0  0  0  0999 V2000
    4.4039   -4.1989   -0.8018 C   0  0  0  0  0  0  0  0  0  0  0  0
    4.6842   -3.3791    0.2291 C   0  0  0  0  0  0  0  0  0  0  0  0
    4.6052   -1.8500    0.2297 C   0  0  0  0  0  0  0  0  0  0  0  0
    5.9590   -1.2314    0.6589 C   0  0  0  0  0  0  0  0  0  0  0  0
    4.2756   -1.3312   -1.1850 C   0  0  0  0  0  0  0  0  0  0  0  0
    3.4794   -1.3557    1.1721 C   0  0  0  0  0  0  0  0  0  0  0  0
    3.6026   -1.6803    2.7076 C   0  0  2  0  0  0  0  0  0  0  0  0
    3.6295   -3.0615    2.8864 O   0  0  0  0  0  0  0  0  0  0  0  0
    2.4095   -3.5833    3.0908 C   0  0  0  0  0  0  0  0  0  0  0  0
    2.0854   -4.7636    3.0821 O   0  0  0  0  0  0  0  0  0  0  0  0
    1.4400   -2.4514    3.3545 C   0  0  0  0  0  0  0  0  0  0  0  0
    2.3507   -1.2070    3.5632 C   0  0  2  0  0  0  0  0  0  0  0  0
    1.7556    0.1164    2.9502 C   0  0  2  0  0  0  0  0  0  0  0  0
    2.7195    1.2756    2.7261 C   0  0  0  0  0  0  0  0  0  0  0  0
    2.2554    1.8266    4.0660 C   0  0  2  0  0  0  0  0  0  0  0  0
    3.0624    1.5122    5.1810 O   0  0  0  0  0  0  0  0  0  0  0  0
    3.6504    0.2217    5.3648 C   0  0  1  0  0  0  0  0  0  0  0  0
    5.0899    0.2150    4.7643 C   0  0  0  0  0  0  0  0  0  0  0  0
    5.5040    0.6616    6.1394 C   0  0  1  0  0  0  0  0  0  0  0  0
    5.6825    2.0709    6.2985 O   0  0  0  0  0  0  0  0  0  0  0  0
    4.2807    0.1297    6.6864 O   0  0  0  0  0  0  0  0  0  0  0  0
    2.5788   -0.9093    5.1519 C   0  0  2  0  0  0  0  0  0  0  0  0
    3.0964   -2.1930    5.8821 C   0  0  0  0  0  0  0  0  0  0  0  0
    1.1316   -0.5666    5.7994 C   0  0  1  0  0  0  0  0  0  0  0  0
    1.1445   -0.2064    7.3454 C   0  0  1  0  0  0  0  0  0  0  0  0
    2.1352    0.6773    7.7576 O   0  0  0  0  0  0  0  0  0  0  0  0
    1.8597    2.0289    7.7802 C   0  0  0  0  0  0  0  0  0  0  0  0
    0.6362    2.4728    7.4782 C   0  0  0  0  0  0  0  0  0  0  0  0
   -0.4672    1.4834    7.2491 C   0  0  2  0  0  0  0  0  0  0  0  0
   -0.1268    0.1996    7.7706 O   0  0  0  0  0  0  0  0  0  0  0  0
   -0.8721    1.2291    5.7899 C   0  0  1  0  0  0  0  0  0  0  0  0
   -1.6209    2.3675    5.0141 C   0  0  1  0  0  0  0  0  0  0  0  0
   -2.3941    3.3553    5.9027 C   0  0  0  0  0  0  0  0  0  0  0  0
   -0.8115    3.0553    3.8983 C   0  0  1  0  0  0  0  0  0  0  0  0
    0.0801    4.2154    4.3857 C   0  0  0  0  0  0  0  0  0  0  0  0
   -0.0860    1.9956    3.0453 C   0  0  0  0  0  0  0  0  0  0  0  0
    0.9021    1.0936    3.8251 C   0  0  1  0  0  0  0  0  0  0  0  0
    0.1167    0.3247    4.9479 C   0  0  1  0  0  0  0  0  0  0  0  0
   -0.9011   -0.6416    4.2330 C   0  0  0  0  0  0  0  0  0  0  0  0
    4.1055   -3.8375   -1.7773 H   0  0  0  0  0  0  0  0  0  0  0  0
    4.4743   -5.2702   -0.6803 H   0  0  0  0  0  0  0  0  0  0  0  0
    4.9987   -3.8369    1.1588 H   0  0  0  0  0  0  0  0  0  0  0  0
    5.8933   -0.1437    0.7114 H   0  0  0  0  0  0  0  0  0  0  0  0
    6.7477   -1.4723   -0.0514 H   0  0  0  0  0  0  0  0  0  0  0  0
    6.2813   -1.5822    1.6383 H   0  0  0  0  0  0  0  0  0  0  0  0
    4.2414   -0.2456   -1.2189 H   0  0  0  0  0  0  0  0  0  0  0  0
    3.2945   -1.6751   -1.5111 H   0  0  0  0  0  0  0  0  0  0  0  0
    5.0146   -1.6474   -1.9190 H   0  0  0  0  0  0  0  0  0  0  0  0
    3.4829   -0.2579    1.0171 H   0  0  0  0  0  0  0  0  0  0  0  0
    2.5093   -1.6750    0.7657 H   0  0  0  0  0  0  0  0  0  0  0  0
    4.5232   -1.2504    3.0193 H   0  0  0  0  0  0  0  0  0  0  0  0
    0.8312   -2.3581    2.4601 H   0  0  0  0  0  0  0  0  0  0  0  0
    0.8089   -2.7294    4.1907 H   0  0  0  0  0  0  0  0  0  0  0  0
    1.2244   -0.0900    2.0237 H   0  0  0  0  0  0  0  0  0  0  0  0
    3.7732    1.0105    2.6388 H   0  0  0  0  0  0  0  0  0  0  0  0
    2.4450    1.8997    1.8835 H   0  0  0  0  0  0  0  0  0  0  0  0
    2.2164    2.9144    3.9846 H   0  0  0  0  0  0  0  0  0  0  0  0
    5.5300   -0.7594    4.5768 H   0  0  0  0  0  0  0  0  0  0  0  0
    5.3311    0.9368    3.9986 H   0  0  0  0  0  0  0  0  0  0  0  0
    6.4151    0.1350    6.4660 H   0  0  0  0  0  0  0  0  0  0  0  0
    4.8516    2.4614    6.0525 H   0  0  0  0  0  0  0  0  0  0  0  0
    3.2587   -2.0059    6.9393 H   0  0  0  0  0  0  0  0  0  0  0  0
    4.0492   -2.5217    5.4777 H   0  0  0  0  0  0  0  0  0  0  0  0
    2.4011   -3.0315    5.8415 H   0  0  0  0  0  0  0  0  0  0  0  0
    0.6355   -1.5288    5.8726 H   0  0  0  0  0  0  0  0  0  0  0  0
    1.3407   -1.1135    7.9150 H   0  0  0  0  0  0  0  0  0  0  0  0
    2.7225    2.6216    8.0135 H   0  0  0  0  0  0  0  0  0  0  0  0
    0.4137    3.5334    7.4554 H   0  0  0  0  0  0  0  0  0  0  0  0
   -1.3297    1.8191    7.8192 H   0  0  0  0  0  0  0  0  0  0  0  0
   -1.7199    0.5778    6.0226 H   0  0  0  0  0  0  0  0  0  0  0  0
   -2.4093    1.8624    4.4549 H   0  0  0  0  0  0  0  0  0  0  0  0
   -1.7279    3.9420    6.5360 H   0  0  0  0  0  0  0  0  0  0  0  0
   -3.1023    2.8362    6.5476 H   0  0  0  0  0  0  0  0  0  0  0  0
   -2.9618    4.0505    5.2880 H   0  0  0  0  0  0  0  0  0  0  0  0
   -1.5283    3.5258    3.2218 H   0  0  0  0  0  0  0  0  0  0  0  0
    0.7474    3.9106    5.1882 H   0  0  0  0  0  0  0  0  0  0  0  0
   -0.5203    5.0414    4.7611 H   0  0  0  0  0  0  0  0  0  0  0  0
    0.6850    4.6119    3.5676 H   0  0  0  0  0  0  0  0  0  0  0  0
   -0.8233    1.3966    2.5057 H   0  0  0  0  0  0  0  0  0  0  0  0
    0.4189    2.5318    2.2386 H   0  0  0  0  0  0  0  0  0  0  0  0
   -1.8333   -0.1559    3.9481 H   0  0  0  0  0  0  0  0  0  0  0  0
   -1.2005   -1.4784    4.8624 H   0  0  0  0  0  0  0  0  0  0  0  0
   -0.5393   -1.0288    3.2954 H   0  0  0  0  0  0  0  0  0  0  0  0
  1  2  2  0
  1 40  1  0
  1 41  1  0
  2  3  1  0
  2 42  1  0
  3  4  1  0
  3  5  1  0
  3  6  1  0
  4 43  1  0
  4 44  1  0
  4 45  1  0
  5 46  1  0
  5 47  1  0
  5 48  1  0
  6  7  1  0
  6 49  1  0
  6 50  1  0
  7 12  1  0
  7  8  1  0
  7 51  1  1
  8  9  1  0
  9 10  2  0
  9 11  1  0
 12 11  1  1
 11 52  1  0
 11 53  1  0
 12 22  1  0
 12 13  1  0
 13 37  1  0
 13 14  1  0
 13 54  1  6
 14 15  1  0
 14 55  1  0
 14 56  1  0
 15 37  1  0
 15 16  1  0
 15 57  1  6
 16 17  1  0
 17 21  1  1
 17 18  1  0
 17 22  1  0
 18 19  1  0
 18 58  1  0
 18 59  1  0
 19 20  1  0
 19 21  1  0
 19 60  1  1
 20 61  1  0
 22 23  1  1
 22 24  1  0
 23 62  1  0
 23 63  1  0
 23 64  1  0
 24 38  1  0
 24 25  1  0
 24 65  1  1
 25 30  1  0
 25 26  1  0
 25 66  1  1
 26 27  1  0
 27 28  2  0
 27 67  1  0
 28 29  1  0
 28 68  1  0
 29 30  1  0
 29 31  1  0
 29 69  1  1
 31 38  1  0
 31 32  1  0
 31 70  1  1
 32 33  1  0
 32 34  1  0
 32 71  1  6
 33 72  1  0
 33 73  1  0
 33 74  1  0
 34 35  1  0
 34 36  1  0
 34 75  1  6
 35 76  1  0
 35 77  1  0
 35 78  1  0
 37 36  1  6
 36 79  1  0
 36 80  1  0
 37 38  1  0
 38 39  1  6
 39 81  1  0
 39 82  1  0
 39 83  1  0
M  END
>  <i_m_ct_stereo_status>  (353) 
1

>  <s_m_source_file>  (353) 
/var/tmp/pbs.5076255.sched01/tmpajq2dbrl/12675ddggds.sdf

>  <i_m_source_file_index>  (353) 
39

>  <i_lp_mmshare_version>  (353) 
48012

>  <i_f3d_flags>  (353) 
0

>  <s_epik_input>  (353) 
W0NIMl09W0NIXUMoW0NIM10pKFtDSDNdKVtDSDJdW0NASF0oT0MoPU8pW0NIMl0xKVtDQEBdMTJbQ0BIXTNbQ0BAXTQ1W0NASF0oW0NIMl0zKU9bQ0BdNihbQ0gyXVtDQEhdKE82KVtPSF0pW0NAQF0yKFtDSDNdKVtDQEhdN1tDQEhdOE9bQ0hdPVtDSF1bQ0BIXShPOClbQ0BIXShbQ0BAXTU3W0NIM10pW0NAQEhdKFtDSDNdKVtDQEBIXShbQ0gzXSlbQ0gyXTQ=

>  <s_epik_cmdline>  (353) 
J2VwaWtfcHl0aG9uJywgJy1waHQnLCAnMi4wJywgJy1waCcsICc3LjAnLCAnLXRuJywgJzgnLCAnLW1hJywgJzIwMCcsICctaW1hZScsICc8aW5maWxlLm1hZT4nLCAnLW9tYWUnLCAnPG91dGZpbGUubWFlPic=

>  <r_lp_tautomer_probability>  (353) 
1

>  <r_epik_Ionization_Penalty>  (353) 
2.57902e-07

>  <r_epik_Ionization_Penalty_Charging>  (353) 
0

>  <r_epik_Ionization_Penalty_Neutral>  (353) 
2.57902e-07

>  <r_epik_State_Penalty>  (353) 
-0

>  <r_epik_Charging_Adjusted_Penalty>  (353) 
0

>  <i_epik_Tot_Q>  (353) 
0

>  <i_epik_Tot_abs_Q>  (353) 
0

>  <s_epik_Chemistry_Notes>  (353) 
This compound has an ester and may undergo hydrolysis at high or low pH. This compound contains an acetal/aminal-like group ( X-CH(R)-Y where X, Y are N, S, or O) that may be acid/base labile, releasing an aldehyde.

>  <s_lp_Force_Field>  (353) 
OPLS3e

>  <r_lp_Energy>  (353) 
125.26

>  <b_lp_Chiralities_Consistent>  (353) 
1

>  <s_lp_Variant>  (353) 
115:0-1

>  <s_i_glide_gridfile>  (353) 
pfpi4k_grid

>  <i_i_glide_lignum>  (353) 
39

>  <i_i_glide_rotatable_bonds>  (353) 
4

>  <r_i_docking_score>  (353) 
-2.30729

>  <r_i_glide_ligand_efficiency>  (353) 
-0.0591613

>  <r_i_glide_ligand_efficiency_sa>  (353) 
-0.200629

>  <r_i_glide_ligand_efficiency_ln>  (353) 
-0.494749

>  <r_i_glide_gscore>  (353) 
-2.30729

>  <r_i_glide_lipo>  (353) 
-0.312972

>  <r_i_glide_hbond>  (353) 
0

>  <r_i_glide_metal>  (353) 
-0

>  <r_i_glide_rewards>  (353) 
-0.554455

>  <r_i_glide_evdw>  (353) 
-24.4164

>  <r_i_glide_ecoul>  (353) 
-2.84976

>  <r_i_glide_erotb>  (353) 
0.212175

>  <r_i_glide_esite>  (353) 
-0.00375465

>  <r_i_glide_emodel>  (353) 
-35.7279

>  <r_i_glide_energy>  (353) 
-27.2662

>  <r_i_glide_einternal>  (353) 
0.658952

>  <r_i_glide_intrahb_reward>  (353) 
-0.5

>  <i_i_glide_confnum>  (353) 
3

>  <i_i_glide_posenum>  (353) 
37

>  <r_i_glide_eff_state_penalty>  (353) 
0

>  <ligand_id>  (353) 
115

>  <original_smiles>  (353) 
C=CC(C)(C)CC1OC(=O)CC12C1CC3OC4(CC(O)O4)C2(C)C2C4OC=CC(O4)C4C(C)C(C)CC31C42C

>  <smiles>  (353) 
[H]OC1([H])OC2(OC3([H])C([H])([H])C4([H])C5(C([H])([H])C(=O)OC5([H])C([H])([H])C(C([H])=C([H])[H])(C([H])([H])[H])C([H])([H])[H])C2(C([H])([H])[H])C2([H])C5([H])OC([H])=C([H])C([H])(O5)C5([H])C([H])(C([H])([H])[H])C([H])(C([H])([H])[H])C([H])([H])C34C52C([H])([H])[H])C1([H])[H]

$$$$
115:0:1
     RDKit          3D

 83 90  0  0  1  0  0  0  0  0999 V2000
    7.1424   -1.6997    0.6102 C   0  0  0  0  0  0  0  0  0  0  0  0
    5.9768   -1.0386    0.4811 C   0  0  0  0  0  0  0  0  0  0  0  0
    4.6246   -1.6422    0.0824 C   0  0  0  0  0  0  0  0  0  0  0  0
    4.2514   -1.1574   -1.3424 C   0  0  0  0  0  0  0  0  0  0  0  0
    4.7003   -3.1827    0.0318 C   0  0  0  0  0  0  0  0  0  0  0  0
    3.5115   -1.1547    1.0415 C   0  0  0  0  0  0  0  0  0  0  0  0
    3.6592   -1.5634    2.5423 C   0  0  2  0  0  0  0  0  0  0  0  0
    3.7246   -2.9705    2.6555 O   0  0  0  0  0  0  0  0  0  0  0  0
    2.5401   -3.5057    2.9009 C   0  0  0  0  0  0  0  0  0  0  0  0
    2.2119   -4.6877    2.8712 O   0  0  0  0  0  0  0  0  0  0  0  0
    1.5471   -2.4050    3.2427 C   0  0  0  0  0  0  0  0  0  0  0  0
    2.4567   -1.1442    3.4761 C   0  0  2  0  0  0  0  0  0  0  0  0
    1.8084    0.1868    2.9396 C   0  0  2  0  0  0  0  0  0  0  0  0
    2.7427    1.3912    2.7534 C   0  0  0  0  0  0  0  0  0  0  0  0
    2.2862    1.8761    4.1113 C   0  0  2  0  0  0  0  0  0  0  0  0
    3.1448    1.5222    5.1979 O   0  0  0  0  0  0  0  0  0  0  0  0
    3.7974    0.2502    5.2768 C   0  0  1  0  0  0  0  0  0  0  0  0
    5.2226    0.3913    4.6403 C   0  0  0  0  0  0  0  0  0  0  0  0
    5.7032   -0.2905    5.9038 C   0  0  1  0  0  0  0  0  0  0  0  0
    6.9045    0.2005    6.4589 O   0  0  0  0  0  0  0  0  0  0  0  0
    4.4765    0.0697    6.5577 O   0  0  0  0  0  0  0  0  0  0  0  0
    2.7240   -0.9139    5.0472 C   0  0  2  0  0  0  0  0  0  0  0  0
    3.2467   -2.2252    5.7051 C   0  0  0  0  0  0  0  0  0  0  0  0
    1.2858   -0.6173    5.7658 C   0  0  1  0  0  0  0  0  0  0  0  0
    1.3335   -0.3159    7.3224 C   0  0  1  0  0  0  0  0  0  0  0  0
    2.3130    0.5911    7.7385 O   0  0  0  0  0  0  0  0  0  0  0  0
    1.9985    1.9075    7.8229 C   0  0  0  0  0  0  0  0  0  0  0  0
    0.7542    2.3479    7.5841 C   0  0  0  0  0  0  0  0  0  0  0  0
   -0.3298    1.3174    7.3384 C   0  0  2  0  0  0  0  0  0  0  0  0
    0.0626    0.0342    7.8004 O   0  0  0  0  0  0  0  0  0  0  0  0
   -0.7762    1.1186    5.8915 C   0  0  1  0  0  0  0  0  0  0  0  0
   -1.5782    2.2621    5.1748 C   0  0  1  0  0  0  0  0  0  0  0  0
   -2.3559    3.1865    6.1283 C   0  0  0  0  0  0  0  0  0  0  0  0
   -0.8252    3.0176    4.0690 C   0  0  1  0  0  0  0  0  0  0  0  0
    0.0442    4.1828    4.5749 C   0  0  0  0  0  0  0  0  0  0  0  0
   -0.0951    2.0137    3.1532 C   0  0  0  0  0  0  0  0  0  0  0  0
    0.9424    1.1110    3.8778 C   0  0  1  0  0  0  0  0  0  0  0  0
    0.2118    0.2815    4.9804 C   0  0  1  0  0  0  0  0  0  0  0  0
   -0.7968   -0.6880    4.2596 C   0  0  0  0  0  0  0  0  0  0  0  0
    7.2118   -2.7645    0.4228 H   0  0  0  0  0  0  0  0  0  0  0  0
    8.0561   -1.1960    0.8989 H   0  0  0  0  0  0  0  0  0  0  0  0
    5.9902    0.0259    0.6758 H   0  0  0  0  0  0  0  0  0  0  0  0
    3.2384   -1.4898   -1.5949 H   0  0  0  0  0  0  0  0  0  0  0  0
    4.9314   -1.5587   -2.1024 H   0  0  0  0  0  0  0  0  0  0  0  0
    4.2566   -0.0714   -1.4255 H   0  0  0  0  0  0  0  0  0  0  0  0
    3.7199   -3.6038   -0.1869 H   0  0  0  0  0  0  0  0  0  0  0  0
    5.0280   -3.5894    0.9943 H   0  0  0  0  0  0  0  0  0  0  0  0
    5.3830   -3.5302   -0.7586 H   0  0  0  0  0  0  0  0  0  0  0  0
    3.5180   -0.0717    0.8984 H   0  0  0  0  0  0  0  0  0  0  0  0
    2.5370   -1.4546    0.6219 H   0  0  0  0  0  0  0  0  0  0  0  0
    4.6160   -1.2386    2.8754 H   0  0  0  0  0  0  0  0  0  0  0  0
    0.8993   -2.2844    2.3619 H   0  0  0  0  0  0  0  0  0  0  0  0
    0.9297   -2.7293    4.1002 H   0  0  0  0  0  0  0  0  0  0  0  0
    1.2448    0.0354    2.0106 H   0  0  0  0  0  0  0  0  0  0  0  0
    3.8038    1.1656    2.6658 H   0  0  0  0  0  0  0  0  0  0  0  0
    2.4376    2.0338    1.9280 H   0  0  0  0  0  0  0  0  0  0  0  0
    2.2140    2.9615    4.0610 H   0  0  0  0  0  0  0  0  0  0  0  0
    5.5890   -0.1194    3.7449 H   0  0  0  0  0  0  0  0  0  0  0  0
    5.5099    1.4376    4.6429 H   0  0  0  0  0  0  0  0  0  0  0  0
    5.7567   -1.3925    5.7575 H   0  0  0  0  0  0  0  0  0  0  0  0
    6.8598    1.1499    6.4934 H   0  0  0  0  0  0  0  0  0  0  0  0
    3.4761   -2.0741    6.7610 H   0  0  0  0  0  0  0  0  0  0  0  0
    4.1660   -2.5523    5.2311 H   0  0  0  0  0  0  0  0  0  0  0  0
    2.5300   -3.0512    5.6968 H   0  0  0  0  0  0  0  0  0  0  0  0
    0.8055   -1.5913    5.8151 H   0  0  0  0  0  0  0  0  0  0  0  0
    1.5732   -1.2361    7.8426 H   0  0  0  0  0  0  0  0  0  0  0  0
    2.8512    2.5359    8.0576 H   0  0  0  0  0  0  0  0  0  0  0  0
    0.4927    3.3911    7.6000 H   0  0  0  0  0  0  0  0  0  0  0  0
   -1.1808    1.6102    7.9460 H   0  0  0  0  0  0  0  0  0  0  0  0
   -1.5897    0.4268    6.1140 H   0  0  0  0  0  0  0  0  0  0  0  0
   -2.3661    1.7502    4.6211 H   0  0  0  0  0  0  0  0  0  0  0  0
   -1.6890    3.7689    6.7637 H   0  0  0  0  0  0  0  0  0  0  0  0
   -3.0253    2.6176    6.7727 H   0  0  0  0  0  0  0  0  0  0  0  0
   -2.9690    3.8856    5.5606 H   0  0  0  0  0  0  0  0  0  0  0  0
   -1.5765    3.4879    3.4327 H   0  0  0  0  0  0  0  0  0  0  0  0
    0.7468    3.8655    5.3429 H   0  0  0  0  0  0  0  0  0  0  0  0
   -0.5686    4.9699    5.0036 H   0  0  0  0  0  0  0  0  0  0  0  0
    0.6109    4.6302    3.7573 H   0  0  0  0  0  0  0  0  0  0  0  0
   -0.8283    1.4103    2.6118 H   0  0  0  0  0  0  0  0  0  0  0  0
    0.3739    2.5828    2.3498 H   0  0  0  0  0  0  0  0  0  0  0  0
   -1.7572   -0.2288    4.0204 H   0  0  0  0  0  0  0  0  0  0  0  0
   -1.0444   -1.5637    4.8603 H   0  0  0  0  0  0  0  0  0  0  0  0
   -0.4568   -1.0249    3.2884 H   0  0  0  0  0  0  0  0  0  0  0  0
  1  2  2  0
  1 40  1  0
  1 41  1  0
  2  3  1  0
  2 42  1  0
  3  4  1  0
  3  5  1  0
  3  6  1  0
  4 43  1  0
  4 44  1  0
  4 45  1  0
  5 46  1  0
  5 47  1  0
  5 48  1  0
  6  7  1  0
  6 49  1  0
  6 50  1  0
  7 12  1  0
  7  8  1  0
  7 51  1  1
  8  9  1  0
  9 10  2  0
  9 11  1  0
 12 11  1  1
 11 52  1  0
 11 53  1  0
 12 22  1  0
 12 13  1  0
 13 37  1  0
 13 14  1  0
 13 54  1  6
 14 15  1  0
 14 55  1  0
 14 56  1  0
 15 37  1  0
 15 16  1  0
 15 57  1  6
 16 17  1  0
 17 21  1  1
 17 18  1  0
 17 22  1  0
 18 19  1  0
 18 58  1  0
 18 59  1  0
 19 20  1  0
 19 21  1  0
 19 60  1  6
 20 61  1  0
 22 23  1  1
 22 24  1  0
 23 62  1  0
 23 63  1  0
 23 64  1  0
 24 38  1  0
 24 25  1  0
 24 65  1  1
 25 30  1  0
 25 26  1  0
 25 66  1  1
 26 27  1  0
 27 28  2  0
 27 67  1  0
 28 29  1  0
 28 68  1  0
 29 30  1  0
 29 31  1  0
 29 69  1  1
 31 38  1  0
 31 32  1  0
 31 70  1  1
 32 33  1  0
 32 34  1  0
 32 71  1  6
 33 72  1  0
 33 73  1  0
 33 74  1  0
 34 35  1  0
 34 36  1  0
 34 75  1  6
 35 76  1  0
 35 77  1  0
 35 78  1  0
 37 36  1  6
 36 79  1  0
 36 80  1  0
 37 38  1  0
 38 39  1  6
 39 81  1  0
 39 82  1  0
 39 83  1  0
M  END
>  <i_m_ct_stereo_status>  (354) 
1

>  <s_m_source_file>  (354) 
/var/tmp/pbs.5076255.sched01/tmpajq2dbrl/12675ddggds.sdf

>  <i_m_source_file_index>  (354) 
39

>  <i_lp_mmshare_version>  (354) 
48012

>  <i_f3d_flags>  (354) 
0

>  <s_epik_input>  (354) 
W0NIMl09W0NIXUMoW0NIM10pKFtDSDNdKVtDSDJdW0NASF0oT0MoPU8pW0NIMl0xKVtDQEBdMTJbQ0BIXTNbQ0BAXTQ1W0NASF0oW0NIMl0zKU9bQ0BdNihbQ0gyXVtDQEhdKE82KVtPSF0pW0NAQF0yKFtDSDNdKVtDQEhdN1tDQEhdOE9bQ0hdPVtDSF1bQ0BIXShPOClbQ0BIXShbQ0BAXTU3W0NIM10pW0NAQEhdKFtDSDNdKVtDQEBIXShbQ0gzXSlbQ0gyXTQ=

>  <s_epik_cmdline>  (354) 
J2VwaWtfcHl0aG9uJywgJy1waHQnLCAnMi4wJywgJy1waCcsICc3LjAnLCAnLXRuJywgJzgnLCAnLW1hJywgJzIwMCcsICctaW1hZScsICc8aW5maWxlLm1hZT4nLCAnLW9tYWUnLCAnPG91dGZpbGUubWFlPic=

>  <r_lp_tautomer_probability>  (354) 
1

>  <r_epik_Ionization_Penalty>  (354) 
2.57902e-07

>  <r_epik_Ionization_Penalty_Charging>  (354) 
0

>  <r_epik_Ionization_Penalty_Neutral>  (354) 
2.57902e-07

>  <r_epik_State_Penalty>  (354) 
-0

>  <r_epik_Charging_Adjusted_Penalty>  (354) 
0

>  <i_epik_Tot_Q>  (354) 
0

>  <i_epik_Tot_abs_Q>  (354) 
0

>  <s_epik_Chemistry_Notes>  (354) 
This compound has an ester and may undergo hydrolysis at high or low pH. This compound contains an acetal/aminal-like group ( X-CH(R)-Y where X, Y are N, S, or O) that may be acid/base labile, releasing an aldehyde.

>  <s_lp_Force_Field>  (354) 
OPLS3e

>  <r_lp_Energy>  (354) 
125.26

>  <b_lp_Chiralities_Consistent>  (354) 
1

>  <s_lp_Variant>  (354) 
115:0-1

>  <s_i_glide_gridfile>  (354) 
pfpi4k_grid

>  <i_i_glide_lignum>  (354) 
39

>  <i_i_glide_rotatable_bonds>  (354) 
4

>  <r_i_docking_score>  (354) 
-1.86207

>  <r_i_glide_ligand_efficiency>  (354) 
-0.0477454

>  <r_i_glide_ligand_efficiency_sa>  (354) 
-0.161915

>  <r_i_glide_ligand_efficiency_ln>  (354) 
-0.399281

>  <r_i_glide_gscore>  (354) 
-1.86207

>  <r_i_glide_lipo>  (354) 
-0.345081

>  <r_i_glide_hbond>  (354) 
0

>  <r_i_glide_metal>  (354) 
-0

>  <r_i_glide_rewards>  (354) 
-0.0520714

>  <r_i_glide_evdw>  (354) 
-24.2044

>  <r_i_glide_ecoul>  (354) 
-3.08662

>  <r_i_glide_erotb>  (354) 
0.212175

>  <r_i_glide_esite>  (354) 
-0.00388354

>  <r_i_glide_emodel>  (354) 
-28.2158

>  <r_i_glide_energy>  (354) 
-27.291

>  <r_i_glide_einternal>  (354) 
1.23637

>  <r_i_glide_intrahb_reward>  (354) 
-0

>  <i_i_glide_confnum>  (354) 
4

>  <i_i_glide_posenum>  (354) 
24

>  <r_i_glide_eff_state_penalty>  (354) 
0

>  <ligand_id>  (354) 
115

>  <original_smiles>  (354) 
C=CC(C)(C)CC1OC(=O)CC12C1CC3OC4(CC(O)O4)C2(C)C2C4OC=CC(O4)C4C(C)C(C)CC31C42C

>  <smiles>  (354) 
[H]OC1([H])OC2(OC3([H])C([H])([H])C4([H])C5(C([H])([H])C(=O)OC5([H])C([H])([H])C(C([H])=C([H])[H])(C([H])([H])[H])C([H])([H])[H])C2(C([H])([H])[H])C2([H])C5([H])OC([H])=C([H])C([H])(O5)C5([H])C([H])(C([H])([H])[H])C([H])(C([H])([H])[H])C([H])([H])C34C52C([H])([H])[H])C1([H])[H]

$$$$
115:0:2
     RDKit          3D

 83 90  0  0  1  0  0  0  0  0999 V2000
    4.4028   -1.6218   -2.2231 C   0  0  0  0  0  0  0  0  0  0  0  0
    4.5549   -1.0644   -1.0072 C   0  0  0  0  0  0  0  0  0  0  0  0
    4.6586   -1.7890    0.3368 C   0  0  0  0  0  0  0  0  0  0  0  0
    4.5993   -3.3218    0.1617 C   0  0  0  0  0  0  0  0  0  0  0  0
    6.0130   -1.4046    0.9591 C   0  0  0  0  0  0  0  0  0  0  0  0
    3.5100   -1.2734    1.2309 C   0  0  0  0  0  0  0  0  0  0  0  0
    3.5358   -1.7204    2.7328 C   0  0  2  0  0  0  0  0  0  0  0  0
    3.5144   -3.1139    2.8157 O   0  0  0  0  0  0  0  0  0  0  0  0
    2.2927   -3.5749    2.9850 C   0  0  0  0  0  0  0  0  0  0  0  0
    1.9151   -4.7441    2.9241 O   0  0  0  0  0  0  0  0  0  0  0  0
    1.3656   -2.4270    3.3115 C   0  0  0  0  0  0  0  0  0  0  0  0
    2.3267   -1.2274    3.6221 C   0  0  2  0  0  0  0  0  0  0  0  0
    1.8136    0.1455    3.0694 C   0  0  2  0  0  0  0  0  0  0  0  0
    2.8427    1.2766    2.9652 C   0  0  0  0  0  0  0  0  0  0  0  0
    2.3505    1.7776    4.3123 C   0  0  2  0  0  0  0  0  0  0  0  0
    3.1113    1.3400    5.4413 O   0  0  0  0  0  0  0  0  0  0  0  0
    3.6799    0.0367    5.5129 C   0  0  1  0  0  0  0  0  0  0  0  0
    5.1413    0.0984    4.9642 C   0  0  0  0  0  0  0  0  0  0  0  0
    5.5176   -0.6633    6.2165 C   0  0  1  0  0  0  0  0  0  0  0  0
    6.7105   -0.2855    6.8516 O   0  0  0  0  0  0  0  0  0  0  0  0
    4.2832   -0.2215    6.8255 O   0  0  0  0  0  0  0  0  0  0  0  0
    2.5523   -1.0557    5.2069 C   0  0  2  0  0  0  0  0  0  0  0  0
    2.9453   -2.4058    5.8707 C   0  0  0  0  0  0  0  0  0  0  0  0
    1.1040   -0.6676    5.8597 C   0  0  1  0  0  0  0  0  0  0  0  0
    1.0839   -0.4078    7.4215 C   0  0  1  0  0  0  0  0  0  0  0  0
    2.1029    0.4167    7.9118 O   0  0  0  0  0  0  0  0  0  0  0  0
    1.8628    1.7559    8.0072 C   0  0  0  0  0  0  0  0  0  0  0  0
    0.6816    2.2828    7.7131 C   0  0  0  0  0  0  0  0  0  0  0  0
   -0.4649    1.3429    7.3949 C   0  0  2  0  0  0  0  0  0  0  0  0
   -0.1762    0.0267    7.8516 O   0  0  0  0  0  0  0  0  0  0  0  0
   -0.8437    1.1997    5.9189 C   0  0  1  0  0  0  0  0  0  0  0  0
   -1.5299    2.4103    5.1928 C   0  0  1  0  0  0  0  0  0  0  0  0
   -2.2856    3.3723    6.1259 C   0  0  0  0  0  0  0  0  0  0  0  0
   -0.6683    3.1351    4.1446 C   0  0  1  0  0  0  0  0  0  0  0  0
    0.2561    4.2261    4.7201 C   0  0  0  0  0  0  0  0  0  0  0  0
    0.0417    2.1035    3.2387 C   0  0  0  0  0  0  0  0  0  0  0  0
    0.9754    1.1047    3.9838 C   0  0  1  0  0  0  0  0  0  0  0  0
    0.1353    0.3115    5.0349 C   0  0  1  0  0  0  0  0  0  0  0  0
   -0.9067   -0.5744    4.2492 C   0  0  0  0  0  0  0  0  0  0  0  0
    4.3317   -2.6921   -2.3641 H   0  0  0  0  0  0  0  0  0  0  0  0
    4.3405   -0.9955   -3.1106 H   0  0  0  0  0  0  0  0  0  0  0  0
    4.6173    0.0106   -0.9637 H   0  0  0  0  0  0  0  0  0  0  0  0
    4.6926   -3.8530    1.1135 H   0  0  0  0  0  0  0  0  0  0  0  0
    5.4077   -3.6810   -0.4836 H   0  0  0  0  0  0  0  0  0  0  0  0
    3.6548   -3.6236   -0.2895 H   0  0  0  0  0  0  0  0  0  0  0  0
    6.1728   -1.8757    1.9281 H   0  0  0  0  0  0  0  0  0  0  0  0
    6.1135   -0.3284    1.1039 H   0  0  0  0  0  0  0  0  0  0  0  0
    6.8455   -1.7190    0.3284 H   0  0  0  0  0  0  0  0  0  0  0  0
    3.5862   -0.1890    1.1648 H   0  0  0  0  0  0  0  0  0  0  0  0
    2.5526   -1.4818    0.7559 H   0  0  0  0  0  0  0  0  0  0  0  0
    4.4682   -1.4516    3.1412 H   0  0  0  0  0  0  0  0  0  0  0  0
    0.7683   -2.2495    2.4110 H   0  0  0  0  0  0  0  0  0  0  0  0
    0.6938   -2.7189    4.1289 H   0  0  0  0  0  0  0  0  0  0  0  0
    1.2928    0.0408    2.1180 H   0  0  0  0  0  0  0  0  0  0  0  0
    3.8881    0.9814    2.9166 H   0  0  0  0  0  0  0  0  0  0  0  0
    2.6401    1.9598    2.1422 H   0  0  0  0  0  0  0  0  0  0  0  0
    2.3619    2.8673    4.2935 H   0  0  0  0  0  0  0  0  0  0  0  0
    5.4968   -0.4096    4.1024 H   0  0  0  0  0  0  0  0  0  0  0  0
    5.5132    1.1197    4.9783 H   0  0  0  0  0  0  0  0  0  0  0  0
    5.4929   -1.7528    6.0492 H   0  0  0  0  0  0  0  0  0  0  0  0
    6.7058    0.6626    6.9696 H   0  0  0  0  0  0  0  0  0  0  0  0
    3.1249   -2.2922    6.9366 H   0  0  0  0  0  0  0  0  0  0  0  0
    3.8631   -2.7932    5.4396 H   0  0  0  0  0  0  0  0  0  0  0  0
    2.1793   -3.1789    5.8012 H   0  0  0  0  0  0  0  0  0  0  0  0
    0.5561   -1.6092    5.8644 H   0  0  0  0  0  0  0  0  0  0  0  0
    1.2301   -1.3484    7.9437 H   0  0  0  0  0  0  0  0  0  0  0  0
    2.7481    2.3150    8.3027 H   0  0  0  0  0  0  0  0  0  0  0  0
    0.4928    3.3452    7.7461 H   0  0  0  0  0  0  0  0  0  0  0  0
   -1.3255    1.6821    7.9671 H   0  0  0  0  0  0  0  0  0  0  0  0
   -1.7187    0.5661    6.0889 H   0  0  0  0  0  0  0  0  0  0  0  0
   -2.3240    1.9689    4.5891 H   0  0  0  0  0  0  0  0  0  0  0  0
   -1.6125    3.8928    6.8088 H   0  0  0  0  0  0  0  0  0  0  0  0
   -3.0277    2.8427    6.7229 H   0  0  0  0  0  0  0  0  0  0  0  0
   -2.8135    4.1294    5.5453 H   0  0  0  0  0  0  0  0  0  0  0  0
   -1.3520    3.6709    3.4798 H   0  0  0  0  0  0  0  0  0  0  0  0
    0.8909    3.8459    5.5175 H   0  0  0  0  0  0  0  0  0  0  0  0
   -0.3228    5.0495    5.1325 H   0  0  0  0  0  0  0  0  0  0  0  0
    0.8962    4.6477    3.9431 H   0  0  0  0  0  0  0  0  0  0  0  0
   -0.7016    1.5657    2.6512 H   0  0  0  0  0  0  0  0  0  0  0  0
    0.5892    2.6646    2.4844 H   0  0  0  0  0  0  0  0  0  0  0  0
   -1.8149   -0.0390    3.9713 H   0  0  0  0  0  0  0  0  0  0  0  0
   -1.2502   -1.4378    4.8209 H   0  0  0  0  0  0  0  0  0  0  0  0
   -0.5475   -0.9209    3.2895 H   0  0  0  0  0  0  0  0  0  0  0  0
  1  2  2  0
  1 40  1  0
  1 41  1  0
  2  3  1  0
  2 42  1  0
  3  4  1  0
  3  5  1  0
  3  6  1  0
  4 43  1  0
  4 44  1  0
  4 45  1  0
  5 46  1  0
  5 47  1  0
  5 48  1  0
  6  7  1  0
  6 49  1  0
  6 50  1  0
  7 12  1  0
  7  8  1  0
  7 51  1  1
  8  9  1  0
  9 10  2  0
  9 11  1  0
 12 11  1  1
 11 52  1  0
 11 53  1  0
 12 22  1  0
 12 13  1  0
 13 37  1  0
 13 14  1  0
 13 54  1  6
 14 15  1  0
 14 55  1  0
 14 56  1  0
 15 37  1  0
 15 16  1  0
 15 57  1  6
 16 17  1  0
 17 21  1  1
 17 18  1  0
 17 22  1  0
 18 19  1  0
 18 58  1  0
 18 59  1  0
 19 20  1  0
 19 21  1  0
 19 60  1  6
 20 61  1  0
 22 23  1  1
 22 24  1  0
 23 62  1  0
 23 63  1  0
 23 64  1  0
 24 38  1  0
 24 25  1  0
 24 65  1  1
 25 30  1  0
 25 26  1  0
 25 66  1  1
 26 27  1  0
 27 28  2  0
 27 67  1  0
 28 29  1  0
 28 68  1  0
 29 30  1  0
 29 31  1  0
 29 69  1  1
 31 38  1  0
 31 32  1  0
 31 70  1  1
 32 33  1  0
 32 34  1  0
 32 71  1  6
 33 72  1  0
 33 73  1  0
 33 74  1  0
 34 35  1  0
 34 36  1  0
 34 75  1  6
 35 76  1  0
 35 77  1  0
 35 78  1  0
 37 36  1  6
 36 79  1  0
 36 80  1  0
 37 38  1  0
 38 39  1  6
 39 81  1  0
 39 82  1  0
 39 83  1  0
M  END
>  <i_m_ct_stereo_status>  (355) 
1

>  <s_m_source_file>  (355) 
/var/tmp/pbs.5076255.sched01/tmpajq2dbrl/12675ddggds.sdf

>  <i_m_source_file_index>  (355) 
39

>  <i_lp_mmshare_version>  (355) 
48012

>  <i_f3d_flags>  (355) 
0

>  <s_epik_input>  (355) 
W0NIMl09W0NIXUMoW0NIM10pKFtDSDNdKVtDSDJdW0NASF0oT0MoPU8pW0NIMl0xKVtDQEBdMTJbQ0BIXTNbQ0BAXTQ1W0NASF0oW0NIMl0zKU9bQ0BdNihbQ0gyXVtDQEhdKE82KVtPSF0pW0NAQF0yKFtDSDNdKVtDQEhdN1tDQEhdOE9bQ0hdPVtDSF1bQ0BIXShPOClbQ0BIXShbQ0BAXTU3W0NIM10pW0NAQEhdKFtDSDNdKVtDQEBIXShbQ0gzXSlbQ0gyXTQ=

>  <s_epik_cmdline>  (355) 
J2VwaWtfcHl0aG9uJywgJy1waHQnLCAnMi4wJywgJy1waCcsICc3LjAnLCAnLXRuJywgJzgnLCAnLW1hJywgJzIwMCcsICctaW1hZScsICc8aW5maWxlLm1hZT4nLCAnLW9tYWUnLCAnPG91dGZpbGUubWFlPic=

>  <r_lp_tautomer_probability>  (355) 
1

>  <r_epik_Ionization_Penalty>  (355) 
2.57902e-07

>  <r_epik_Ionization_Penalty_Charging>  (355) 
0

>  <r_epik_Ionization_Penalty_Neutral>  (355) 
2.57902e-07

>  <r_epik_State_Penalty>  (355) 
-0

>  <r_epik_Charging_Adjusted_Penalty>  (355) 
0

>  <i_epik_Tot_Q>  (355) 
0

>  <i_epik_Tot_abs_Q>  (355) 
0

>  <s_epik_Chemistry_Notes>  (355) 
This compound has an ester and may undergo hydrolysis at high or low pH. This compound contains an acetal/aminal-like group ( X-CH(R)-Y where X, Y are N, S, or O) that may be acid/base labile, releasing an aldehyde.

>  <s_lp_Force_Field>  (355) 
OPLS3e

>  <r_lp_Energy>  (355) 
125.26

>  <b_lp_Chiralities_Consistent>  (355) 
1

>  <s_lp_Variant>  (355) 
115:0-1

>  <s_i_glide_gridfile>  (355) 
pfpi4k_grid

>  <i_i_glide_lignum>  (355) 
39

>  <i_i_glide_rotatable_bonds>  (355) 
4

>  <r_i_docking_score>  (355) 
-1.8497

>  <r_i_glide_ligand_efficiency>  (355) 
-0.0474281

>  <r_i_glide_ligand_efficiency_sa>  (355) 
-0.160839

>  <r_i_glide_ligand_efficiency_ln>  (355) 
-0.396627

>  <r_i_glide_gscore>  (355) 
-1.8497

>  <r_i_glide_lipo>  (355) 
-0.365229

>  <r_i_glide_hbond>  (355) 
0

>  <r_i_glide_metal>  (355) 
-0

>  <r_i_glide_rewards>  (355) 
-0.0316678

>  <r_i_glide_evdw>  (355) 
-23.8288

>  <r_i_glide_ecoul>  (355) 
-3.11212

>  <r_i_glide_erotb>  (355) 
0.212175

>  <r_i_glide_esite>  (355) 
-0.00671926

>  <r_i_glide_emodel>  (355) 
-28.1761

>  <r_i_glide_energy>  (355) 
-26.9409

>  <r_i_glide_einternal>  (355) 
0.272503

>  <r_i_glide_intrahb_reward>  (355) 
-0

>  <i_i_glide_confnum>  (355) 
2

>  <i_i_glide_posenum>  (355) 
10

>  <r_i_glide_eff_state_penalty>  (355) 
0

>  <ligand_id>  (355) 
115

>  <original_smiles>  (355) 
C=CC(C)(C)CC1OC(=O)CC12C1CC3OC4(CC(O)O4)C2(C)C2C4OC=CC(O4)C4C(C)C(C)CC31C42C

>  <smiles>  (355) 
[H]OC1([H])OC2(OC3([H])C([H])([H])C4([H])C5(C([H])([H])C(=O)OC5([H])C([H])([H])C(C([H])=C([H])[H])(C([H])([H])[H])C([H])([H])[H])C2(C([H])([H])[H])C2([H])C5([H])OC([H])=C([H])C([H])(O5)C5([H])C([H])(C([H])([H])[H])C([H])(C([H])([H])[H])C([H])([H])C34C52C([H])([H])[H])C1([H])[H]

$$$$
117:0:0
     RDKit          3D

 82 90  0  0  1  0  0  0  0  0999 V2000
    4.4650   -0.4054    3.9613 C   0  0  0  0  0  0  0  0  0  0  0  0
    4.5711   -1.7084    3.4156 O   0  0  0  0  0  0  0  0  0  0  0  0
    3.3822   -2.2378    2.8395 C   0  0  2  0  0  0  0  0  0  0  0  0
    2.5561   -3.1062    3.8558 C   0  0  1  0  0  0  0  0  0  0  0  0
    1.5249   -4.2303    3.4322 C   0  0  1  0  0  0  0  0  0  0  0  0
    1.7661   -5.1632    2.2469 C   0  0  0  0  0  0  0  0  0  0  0  0
    3.0150   -5.9755    2.6206 C   0  0  1  0  0  0  0  0  0  0  0  0
    2.7530   -7.4421    2.2154 C   0  0  0  0  0  0  0  0  0  0  0  0
    4.2716   -5.5241    1.7712 C   0  0  0  0  0  0  0  0  0  0  0  0
    4.7230   -4.0503    1.8015 C   0  0  2  0  0  0  0  0  0  0  0  0
    3.6862   -2.9706    1.5534 C   0  0  2  0  0  0  0  0  0  0  0  0
    4.9067   -3.0697    0.6656 C   0  0  0  0  0  0  0  0  0  0  0  0
    5.9873   -1.9995    0.7186 C   0  0  0  0  0  0  0  0  0  0  0  0
    4.7178   -3.5380   -0.7669 C   0  0  0  0  0  0  0  0  0  0  0  0
    3.0300   -5.9098    4.2089 C   0  0  1  0  0  0  0  0  0  0  0  0
    4.0096   -4.9707    4.9666 C   0  0  1  0  0  0  0  0  0  0  0  0
    5.3561   -4.8879    4.5727 O   0  0  0  0  0  0  0  0  0  0  0  0
    3.1993   -3.6804    5.1489 C   0  0  2  0  0  0  0  0  0  0  0  0
    1.9793   -4.2898    5.7498 C   0  0  1  0  0  0  0  0  0  0  0  0
    1.9623   -4.7468    7.1021 O   0  0  0  0  0  0  0  0  0  0  0  0
    0.9705   -3.7572    6.7163 C   0  0  1  0  0  0  0  0  0  0  0  0
    1.0743   -2.4147    7.4034 C   0  0  2  0  0  0  0  0  0  0  0  0
   -0.1261   -1.9878    8.0536 O   0  0  0  0  0  0  0  0  0  0  0  0
    0.2725   -1.2181    6.9059 C   0  0  2  0  0  0  0  0  0  0  0  0
   -0.5201   -1.2492    5.6032 C   0  0  2  0  0  0  0  0  0  0  0  0
    0.3472   -0.3330    4.7237 C   0  0  0  0  0  0  0  0  0  0  0  0
    0.1897    0.8245    5.6909 C   0  0  1  0  0  0  0  0  0  0  0  0
   -1.3609    0.9210    5.6619 C   0  0  0  0  0  0  0  0  0  0  0  0
   -2.0197    1.7250    6.7959 C   0  0  0  0  0  0  0  0  0  0  0  0
   -1.8649    1.6019    4.3485 C   0  0  0  0  0  0  0  0  0  0  0  0
   -1.7337   -0.4722    5.7323 O   0  0  0  0  0  0  0  0  0  0  0  0
    0.7981    0.2110    7.0462 C   0  0  0  0  0  0  0  0  0  0  0  0
    0.4212    0.9019    8.3685 C   0  0  0  0  0  0  0  0  0  0  0  0
    2.3277    0.2295    7.0567 C   0  0  0  0  0  0  0  0  0  0  0  0
    1.6727   -5.2234    4.6053 C   0  0  1  0  0  0  0  0  0  0  0  0
    0.4798   -6.1578    4.8660 C   0  0  0  0  0  0  0  0  0  0  0  0
    5.4243   -0.0756    4.3609 H   0  0  0  0  0  0  0  0  0  0  0  0
    3.7595   -0.4448    4.7656 H   0  0  0  0  0  0  0  0  0  0  0  0
    4.1229    0.3377    3.2400 H   0  0  0  0  0  0  0  0  0  0  0  0
    2.7394   -1.4109    2.5370 H   0  0  0  0  0  0  0  0  0  0  0  0
    1.9011   -2.3727    4.2859 H   0  0  0  0  0  0  0  0  0  0  0  0
    0.5310   -3.7836    3.3834 H   0  0  0  0  0  0  0  0  0  0  0  0
    0.8986   -5.8223    2.1817 H   0  0  0  0  0  0  0  0  0  0  0  0
    1.7976   -4.7336    1.2532 H   0  0  0  0  0  0  0  0  0  0  0  0
    3.6151   -8.0687    2.4546 H   0  0  0  0  0  0  0  0  0  0  0  0
    2.5560   -7.5253    1.1441 H   0  0  0  0  0  0  0  0  0  0  0  0
    1.8885   -7.8597    2.7379 H   0  0  0  0  0  0  0  0  0  0  0  0
    5.1299   -6.1214    2.0823 H   0  0  0  0  0  0  0  0  0  0  0  0
    4.0997   -5.7988    0.7310 H   0  0  0  0  0  0  0  0  0  0  0  0
    5.5271   -3.8698    2.4997 H   0  0  0  0  0  0  0  0  0  0  0  0
    2.8051   -3.0681    0.9350 H   0  0  0  0  0  0  0  0  0  0  0  0
    5.6517   -1.0983    0.2038 H   0  0  0  0  0  0  0  0  0  0  0  0
    6.9061   -2.3570    0.2563 H   0  0  0  0  0  0  0  0  0  0  0  0
    6.2315   -1.7277    1.7436 H   0  0  0  0  0  0  0  0  0  0  0  0
    4.5106   -2.6911   -1.4204 H   0  0  0  0  0  0  0  0  0  0  0  0
    3.8733   -4.2265   -0.8361 H   0  0  0  0  0  0  0  0  0  0  0  0
    5.6125   -4.0554   -1.1168 H   0  0  0  0  0  0  0  0  0  0  0  0
    3.1061   -6.9105    4.6467 H   0  0  0  0  0  0  0  0  0  0  0  0
    4.1270   -5.3969    5.9664 H   0  0  0  0  0  0  0  0  0  0  0  0
    5.3841   -4.5631    3.6840 H   0  0  0  0  0  0  0  0  0  0  0  0
    3.6477   -2.9355    5.8090 H   0  0  0  0  0  0  0  0  0  0  0  0
   -0.0391   -4.1524    6.6390 H   0  0  0  0  0  0  0  0  0  0  0  0
    1.9653   -2.2514    8.0136 H   0  0  0  0  0  0  0  0  0  0  0  0
   -0.6997   -2.2459    5.2152 H   0  0  0  0  0  0  0  0  0  0  0  0
    1.3935   -0.5533    4.5828 H   0  0  0  0  0  0  0  0  0  0  0  0
   -0.1061   -0.2633    3.7203 H   0  0  0  0  0  0  0  0  0  0  0  0
    0.7213    1.7033    5.3302 H   0  0  0  0  0  0  0  0  0  0  0  0
   -1.3943    2.6027    6.9867 H   0  0  0  0  0  0  0  0  0  0  0  0
   -2.1188    1.1494    7.7134 H   0  0  0  0  0  0  0  0  0  0  0  0
   -3.0039    2.1101    6.5250 H   0  0  0  0  0  0  0  0  0  0  0  0
   -1.5110    2.6355    4.3270 H   0  0  0  0  0  0  0  0  0  0  0  0
   -2.9492    1.6705    4.3101 H   0  0  0  0  0  0  0  0  0  0  0  0
   -1.5700    1.1301    3.4156 H   0  0  0  0  0  0  0  0  0  0  0  0
    0.3720    1.9767    8.2278 H   0  0  0  0  0  0  0  0  0  0  0  0
    1.1880    0.7532    9.1452 H   0  0  0  0  0  0  0  0  0  0  0  0
   -0.5046    0.5214    8.8010 H   0  0  0  0  0  0  0  0  0  0  0  0
    2.7205    1.2152    6.8074 H   0  0  0  0  0  0  0  0  0  0  0  0
    2.7399   -0.5356    6.4158 H   0  0  0  0  0  0  0  0  0  0  0  0
    2.7222   -0.0146    8.0557 H   0  0  0  0  0  0  0  0  0  0  0  0
    0.6558   -6.7204    5.7868 H   0  0  0  0  0  0  0  0  0  0  0  0
    0.3084   -6.8814    4.0674 H   0  0  0  0  0  0  0  0  0  0  0  0
   -0.4504   -5.5951    4.9960 H   0  0  0  0  0  0  0  0  0  0  0  0
  1  2  1  0
  1 37  1  0
  1 38  1  0
  1 39  1  0
  2  3  1  0
  3 11  1  0
  3  4  1  0
  3 40  1  6
  4 18  1  0
  4  5  1  0
  4 41  1  1
  5 35  1  0
  5  6  1  0
  5 42  1  6
  6  7  1  0
  6 43  1  0
  6 44  1  0
  7  8  1  1
  7  9  1  0
  7 15  1  0
  8 45  1  0
  8 46  1  0
  8 47  1  0
  9 10  1  0
  9 48  1  0
  9 49  1  0
 10 12  1  0
 10 11  1  0
 10 50  1  1
 11 12  1  0
 11 51  1  6
 12 13  1  0
 12 14  1  0
 13 52  1  0
 13 53  1  0
 13 54  1  0
 14 55  1  0
 14 56  1  0
 14 57  1  0
 15 35  1  0
 15 16  1  0
 15 58  1  1
 16 17  1  0
 16 18  1  0
 16 59  1  1
 17 60  1  0
 18 19  1  0
 18 61  1  1
 19 21  1  0
 19 20  1  1
 19 35  1  0
 20 21  1  0
 21 22  1  0
 21 62  1  6
 22 24  1  0
 22 23  1  0
 22 63  1  1
 24 23  1  1
 24 32  1  0
 24 25  1  0
 25 31  1  0
 25 26  1  0
 25 64  1  6
 26 27  1  0
 26 65  1  0
 26 66  1  0
 27 28  1  0
 27 32  1  0
 27 67  1  6
 28 29  1  0
 28 30  1  0
 28 31  1  0
 29 68  1  0
 29 69  1  0
 29 70  1  0
 30 71  1  0
 30 72  1  0
 30 73  1  0
 32 33  1  0
 32 34  1  0
 33 74  1  0
 33 75  1  0
 33 76  1  0
 34 77  1  0
 34 78  1  0
 34 79  1  0
 35 36  1  1
 36 80  1  0
 36 81  1  0
 36 82  1  0
M  END
>  <i_m_ct_stereo_status>  (356) 
1

>  <s_m_source_file>  (356) 
/var/tmp/pbs.5076255.sched01/tmpajq2dbrl/12675ddggds.sdf

>  <i_m_source_file_index>  (356) 
41

>  <i_lp_mmshare_version>  (356) 
48012

>  <i_f3d_flags>  (356) 
0

>  <s_epik_input>  (356) 
W0NIM11PW0NASF0xW0NAQEhdKEMyKFtDSDNdKVtDSDNdKVtDQEhdMltDSDJdW0NAQF0oW0NIMl0zKShbQ0gzXSlbQ0BASF0oW0NASF00W09IXSlbQ0BdNShbQ0gzXSlbQ0BIXTNbQ0BIXTFbQ0BIXTRbQ0BdNTZPW0NASF02W0NASF0oTzcpW0NAQF03OFtDQEBIXTlbQ0gyXVtDQEBIXShDKE85KShbQ0gzXSlbQ0gzXSlDOChbQ0gzXSlbQ0gzXQ==

>  <s_epik_cmdline>  (356) 
J2VwaWtfcHl0aG9uJywgJy1waHQnLCAnMi4wJywgJy1waCcsICc3LjAnLCAnLXRuJywgJzgnLCAnLW1hJywgJzIwMCcsICctaW1hZScsICc8aW5maWxlLm1hZT4nLCAnLW9tYWUnLCAnPG91dGZpbGUubWFlPic=

>  <r_lp_tautomer_probability>  (356) 
1

>  <r_epik_Ionization_Penalty>  (356) 
1.92089e-07

>  <r_epik_Ionization_Penalty_Charging>  (356) 
0

>  <r_epik_Ionization_Penalty_Neutral>  (356) 
1.92089e-07

>  <r_epik_State_Penalty>  (356) 
-0

>  <r_epik_Charging_Adjusted_Penalty>  (356) 
0

>  <i_epik_Tot_Q>  (356) 
0

>  <i_epik_Tot_abs_Q>  (356) 
0

>  <s_lp_Force_Field>  (356) 
OPLS3e

>  <r_lp_Energy>  (356) 
138.592

>  <b_lp_Chiralities_Consistent>  (356) 
1

>  <s_lp_Variant>  (356) 
117:0-1

>  <s_i_glide_gridfile>  (356) 
pfpi4k_grid

>  <i_i_glide_lignum>  (356) 
41

>  <i_i_glide_rotatable_bonds>  (356) 
3

>  <r_i_docking_score>  (356) 
-1.8758

>  <r_i_glide_ligand_efficiency>  (356) 
-0.0521057

>  <r_i_glide_ligand_efficiency_sa>  (356) 
-0.172049

>  <r_i_glide_ligand_efficiency_ln>  (356) 
-0.40925

>  <r_i_glide_gscore>  (356) 
-1.8758

>  <r_i_glide_lipo>  (356) 
-0.252011

>  <r_i_glide_hbond>  (356) 
-0.164616

>  <r_i_glide_metal>  (356) 
-0

>  <r_i_glide_rewards>  (356) 
-0.00890495

>  <r_i_glide_evdw>  (356) 
-17.1452

>  <r_i_glide_ecoul>  (356) 
-4.50047

>  <r_i_glide_erotb>  (356) 
0.0820592

>  <r_i_glide_esite>  (356) 
0

>  <r_i_glide_emodel>  (356) 
-22.39

>  <r_i_glide_energy>  (356) 
-21.6457

>  <r_i_glide_einternal>  (356) 
0.833871

>  <r_i_glide_intrahb_reward>  (356) 
-0

>  <i_i_glide_confnum>  (356) 
3

>  <i_i_glide_posenum>  (356) 
6

>  <r_i_glide_eff_state_penalty>  (356) 
0

>  <ligand_id>  (356) 
117

>  <original_smiles>  (356) 
COC1C2C3CC(C)(CC4C1C4(C)C)C1C(O)C2C2(OC2C2OC24C2CC(C(C)(C)O2)C4(C)C)C31C

>  <smiles>  (356) 
[H]OC1([H])C2([H])C3([H])C([H])(OC([H])([H])[H])C4([H])C([H])(C([H])([H])C5(C([H])([H])[H])C([H])([H])C3([H])C(C([H])([H])[H])(C15[H])C21OC1([H])C1([H])OC12C1([H])OC(C([H])([H])[H])(C([H])([H])[H])C([H])(C1([H])[H])C2(C([H])([H])[H])C([H])([H])[H])C4(C([H])([H])[H])C([H])([H])[H]

$$$$
117:0:1
     RDKit          3D

 82 90  0  0  1  0  0  0  0  0999 V2000
    4.7081   -2.0522    4.3935 C   0  0  0  0  0  0  0  0  0  0  0  0
    4.6974   -3.2489    3.6372 O   0  0  0  0  0  0  0  0  0  0  0  0
    3.4282   -3.6388    3.1137 C   0  0  2  0  0  0  0  0  0  0  0  0
    2.4113   -4.2040    4.1826 C   0  0  1  0  0  0  0  0  0  0  0  0
    1.2086   -5.1765    3.8077 C   0  0  1  0  0  0  0  0  0  0  0  0
    1.3125   -6.2678    2.7359 C   0  0  0  0  0  0  0  0  0  0  0  0
    2.3824   -7.2497    3.2539 C   0  0  1  0  0  0  0  0  0  0  0  0
    1.8799   -8.6840    2.9907 C   0  0  0  0  0  0  0  0  0  0  0  0
    3.7321   -7.1255    2.4316 C   0  0  0  0  0  0  0  0  0  0  0  0
    4.4424   -5.7664    2.3406 C   0  0  2  0  0  0  0  0  0  0  0  0
    3.6324   -4.5546    1.9253 C   0  0  2  0  0  0  0  0  0  0  0  0
    4.8408   -4.9633    1.1258 C   0  0  0  0  0  0  0  0  0  0  0  0
    6.0943   -4.1028    1.1135 C   0  0  0  0  0  0  0  0  0  0  0  0
    4.6187   -5.5421   -0.2533 C   0  0  0  0  0  0  0  0  0  0  0  0
    2.3557   -7.0188    4.8221 C   0  0  1  0  0  0  0  0  0  0  0  0
    3.4578   -6.1870    5.5382 C   0  0  1  0  0  0  0  0  0  0  0  0
    4.8100   -6.3889    5.2110 O   0  0  0  0  0  0  0  0  0  0  0  0
    2.8976   -4.7587    5.5596 C   0  0  2  0  0  0  0  0  0  0  0  0
    1.5890   -5.0820    6.1279 C   0  0  1  0  0  0  0  0  0  0  0  0
    1.4442   -5.3718    7.5326 O   0  0  0  0  0  0  0  0  0  0  0  0
    0.6431   -4.2675    7.0179 C   0  0  1  0  0  0  0  0  0  0  0  0
    0.9594   -2.8942    7.5344 C   0  0  2  0  0  0  0  0  0  0  0  0
   -0.1375   -2.2370    8.1681 O   0  0  0  0  0  0  0  0  0  0  0  0
    0.3246   -1.6585    6.9781 C   0  0  2  0  0  0  0  0  0  0  0  0
   -0.4979   -1.6857    5.6707 C   0  0  2  0  0  0  0  0  0  0  0  0
    0.4523   -1.0130    4.6811 C   0  0  0  0  0  0  0  0  0  0  0  0
    0.4922    0.2491    5.5301 C   0  0  1  0  0  0  0  0  0  0  0  0
   -1.0158    0.5933    5.5417 C   0  0  0  0  0  0  0  0  0  0  0  0
   -1.5232    1.5553    6.6296 C   0  0  0  0  0  0  0  0  0  0  0  0
   -1.4727    1.1858    4.1892 C   0  0  0  0  0  0  0  0  0  0  0  0
   -1.6166   -0.7312    5.7561 O   0  0  0  0  0  0  0  0  0  0  0  0
    1.0361   -0.3011    6.9546 C   0  0  0  0  0  0  0  0  0  0  0  0
    0.7927    0.5587    8.2061 C   0  0  0  0  0  0  0  0  0  0  0  0
    2.5645   -0.4955    6.8758 C   0  0  0  0  0  0  0  0  0  0  0  0
    1.1356   -6.0598    5.0802 C   0  0  1  0  0  0  0  0  0  0  0  0
   -0.2146   -6.7455    5.3683 C   0  0  0  0  0  0  0  0  0  0  0  0
    5.7286   -1.8083    4.7001 H   0  0  0  0  0  0  0  0  0  0  0  0
    4.1243   -2.2139    5.2641 H   0  0  0  0  0  0  0  0  0  0  0  0
    4.3266   -1.2106    3.8179 H   0  0  0  0  0  0  0  0  0  0  0  0
    2.9635   -2.7464    2.6938 H   0  0  0  0  0  0  0  0  0  0  0  0
    1.9116   -3.3075    4.4993 H   0  0  0  0  0  0  0  0  0  0  0  0
    0.3166   -4.5790    3.6733 H   0  0  0  0  0  0  0  0  0  0  0  0
    0.3467   -6.7786    2.6965 H   0  0  0  0  0  0  0  0  0  0  0  0
    1.4305   -5.9555    1.7070 H   0  0  0  0  0  0  0  0  0  0  0  0
    2.6077   -9.4181    3.3406 H   0  0  0  0  0  0  0  0  0  0  0  0
    1.7091   -8.8527    1.9247 H   0  0  0  0  0  0  0  0  0  0  0  0
    0.9402   -8.8837    3.5085 H   0  0  0  0  0  0  0  0  0  0  0  0
    4.4576   -7.8258    2.8496 H   0  0  0  0  0  0  0  0  0  0  0  0
    3.5481   -7.4849    1.4173 H   0  0  0  0  0  0  0  0  0  0  0  0
    5.2138   -5.6503    3.0805 H   0  0  0  0  0  0  0  0  0  0  0  0
    2.7671   -4.5633    1.2817 H   0  0  0  0  0  0  0  0  0  0  0  0
    5.9417   -3.2193    0.4905 H   0  0  0  0  0  0  0  0  0  0  0  0
    6.9482   -4.6692    0.7354 H   0  0  0  0  0  0  0  0  0  0  0  0
    6.3588   -3.7709    2.1125 H   0  0  0  0  0  0  0  0  0  0  0  0
    4.5947   -4.7483   -1.0065 H   0  0  0  0  0  0  0  0  0  0  0  0
    3.6707   -6.0692   -0.2820 H   0  0  0  0  0  0  0  0  0  0  0  0
    5.4207   -6.2433   -0.4892 H   0  0  0  0  0  0  0  0  0  0  0  0
    2.2409   -7.9605    5.3659 H   0  0  0  0  0  0  0  0  0  0  0  0
    3.4645   -6.5186    6.5807 H   0  0  0  0  0  0  0  0  0  0  0  0
    5.0092   -7.3085    5.2765 H   0  0  0  0  0  0  0  0  0  0  0  0
    3.4274   -4.0832    6.1937 H   0  0  0  0  0  0  0  0  0  0  0  0
   -0.4108   -4.5034    6.9308 H   0  0  0  0  0  0  0  0  0  0  0  0
    1.8946   -2.7994    8.1170 H   0  0  0  0  0  0  0  0  0  0  0  0
   -0.8665   -2.6692    5.3926 H   0  0  0  0  0  0  0  0  0  0  0  0
    1.4130   -1.4769    4.5424 H   0  0  0  0  0  0  0  0  0  0  0  0
   -0.0355   -0.9640    3.7164 H   0  0  0  0  0  0  0  0  0  0  0  0
    1.1344    1.0146    5.0969 H   0  0  0  0  0  0  0  0  0  0  0  0
   -0.8000    2.3451    6.7046 H   0  0  0  0  0  0  0  0  0  0  0  0
   -1.6204    1.0911    7.5933 H   0  0  0  0  0  0  0  0  0  0  0  0
   -2.4763    2.0421    6.3347 H   0  0  0  0  0  0  0  0  0  0  0  0
   -1.0227    2.1499    4.0452 H   0  0  0  0  0  0  0  0  0  0  0  0
   -2.5463    1.3458    4.2209 H   0  0  0  0  0  0  0  0  0  0  0  0
   -1.3059    0.5886    3.2882 H   0  0  0  0  0  0  0  0  0  0  0  0
    0.8956    1.6149    7.9599 H   0  0  0  0  0  0  0  0  0  0  0  0
    1.5631    0.3589    8.9571 H   0  0  0  0  0  0  0  0  0  0  0  0
   -0.1761    0.3879    8.6244 H   0  0  0  0  0  0  0  0  0  0  0  0
    3.0589    0.4345    6.5764 H   0  0  0  0  0  0  0  0  0  0  0  0
    2.7866   -1.2901    6.2115 H   0  0  0  0  0  0  0  0  0  0  0  0
    2.9482   -0.7382    7.8599 H   0  0  0  0  0  0  0  0  0  0  0  0
   -0.1605   -7.2184    6.3474 H   0  0  0  0  0  0  0  0  0  0  0  0
   -0.4756   -7.5086    4.6420 H   0  0  0  0  0  0  0  0  0  0  0  0
   -1.0219   -6.0153    5.3882 H   0  0  0  0  0  0  0  0  0  0  0  0
  1  2  1  0
  1 37  1  0
  1 38  1  0
  1 39  1  0
  2  3  1  0
  3 11  1  0
  3  4  1  0
  3 40  1  6
  4 18  1  0
  4  5  1  0
  4 41  1  1
  5 35  1  0
  5  6  1  0
  5 42  1  6
  6  7  1  0
  6 43  1  0
  6 44  1  0
  7  8  1  1
  7  9  1  0
  7 15  1  0
  8 45  1  0
  8 46  1  0
  8 47  1  0
  9 10  1  0
  9 48  1  0
  9 49  1  0
 10 12  1  0
 10 11  1  0
 10 50  1  1
 11 12  1  0
 11 51  1  6
 12 13  1  0
 12 14  1  0
 13 52  1  0
 13 53  1  0
 13 54  1  0
 14 55  1  0
 14 56  1  0
 14 57  1  0
 15 35  1  0
 15 16  1  0
 15 58  1  1
 16 17  1  0
 16 18  1  0
 16 59  1  1
 17 60  1  0
 18 19  1  0
 18 61  1  1
 19 21  1  0
 19 20  1  1
 19 35  1  0
 20 21  1  0
 21 22  1  0
 21 62  1  6
 22 24  1  0
 22 23  1  0
 22 63  1  1
 24 23  1  1
 24 32  1  0
 24 25  1  0
 25 31  1  0
 25 26  1  0
 25 64  1  6
 26 27  1  0
 26 65  1  0
 26 66  1  0
 27 28  1  0
 27 32  1  0
 27 67  1  6
 28 29  1  0
 28 30  1  0
 28 31  1  0
 29 68  1  0
 29 69  1  0
 29 70  1  0
 30 71  1  0
 30 72  1  0
 30 73  1  0
 32 33  1  0
 32 34  1  0
 33 74  1  0
 33 75  1  0
 33 76  1  0
 34 77  1  0
 34 78  1  0
 34 79  1  0
 35 36  1  1
 36 80  1  0
 36 81  1  0
 36 82  1  0
M  END
>  <i_m_ct_stereo_status>  (357) 
1

>  <s_m_source_file>  (357) 
/var/tmp/pbs.5076255.sched01/tmpajq2dbrl/12675ddggds.sdf

>  <i_m_source_file_index>  (357) 
41

>  <i_lp_mmshare_version>  (357) 
48012

>  <i_f3d_flags>  (357) 
0

>  <s_epik_input>  (357) 
W0NIM11PW0NASF0xW0NAQEhdKEMyKFtDSDNdKVtDSDNdKVtDQEhdMltDSDJdW0NAQF0oW0NIMl0zKShbQ0gzXSlbQ0BASF0oW0NASF00W09IXSlbQ0BdNShbQ0gzXSlbQ0BIXTNbQ0BIXTFbQ0BIXTRbQ0BdNTZPW0NASF02W0NASF0oTzcpW0NAQF03OFtDQEBIXTlbQ0gyXVtDQEBIXShDKE85KShbQ0gzXSlbQ0gzXSlDOChbQ0gzXSlbQ0gzXQ==

>  <s_epik_cmdline>  (357) 
J2VwaWtfcHl0aG9uJywgJy1waHQnLCAnMi4wJywgJy1waCcsICc3LjAnLCAnLXRuJywgJzgnLCAnLW1hJywgJzIwMCcsICctaW1hZScsICc8aW5maWxlLm1hZT4nLCAnLW9tYWUnLCAnPG91dGZpbGUubWFlPic=

>  <r_lp_tautomer_probability>  (357) 
1

>  <r_epik_Ionization_Penalty>  (357) 
1.92089e-07

>  <r_epik_Ionization_Penalty_Charging>  (357) 
0

>  <r_epik_Ionization_Penalty_Neutral>  (357) 
1.92089e-07

>  <r_epik_State_Penalty>  (357) 
-0

>  <r_epik_Charging_Adjusted_Penalty>  (357) 
0

>  <i_epik_Tot_Q>  (357) 
0

>  <i_epik_Tot_abs_Q>  (357) 
0

>  <s_lp_Force_Field>  (357) 
OPLS3e

>  <r_lp_Energy>  (357) 
138.592

>  <b_lp_Chiralities_Consistent>  (357) 
1

>  <s_lp_Variant>  (357) 
117:0-1

>  <s_i_glide_gridfile>  (357) 
pfpi4k_grid

>  <i_i_glide_lignum>  (357) 
41

>  <i_i_glide_rotatable_bonds>  (357) 
3

>  <r_i_docking_score>  (357) 
-1.82338

>  <r_i_glide_ligand_efficiency>  (357) 
-0.0506493

>  <r_i_glide_ligand_efficiency_sa>  (357) 
-0.16724

>  <r_i_glide_ligand_efficiency_ln>  (357) 
-0.397811

>  <r_i_glide_gscore>  (357) 
-1.82338

>  <r_i_glide_lipo>  (357) 
-0.165201

>  <r_i_glide_hbond>  (357) 
-0.168457

>  <r_i_glide_metal>  (357) 
-0

>  <r_i_glide_rewards>  (357) 
-0.00890495

>  <r_i_glide_evdw>  (357) 
-17.7746

>  <r_i_glide_ecoul>  (357) 
-4.49428

>  <r_i_glide_erotb>  (357) 
0.0820592

>  <r_i_glide_esite>  (357) 
0

>  <r_i_glide_emodel>  (357) 
-23.2225

>  <r_i_glide_energy>  (357) 
-22.2689

>  <r_i_glide_einternal>  (357) 
0.433917

>  <r_i_glide_intrahb_reward>  (357) 
-0

>  <i_i_glide_confnum>  (357) 
3

>  <i_i_glide_posenum>  (357) 
1

>  <r_i_glide_eff_state_penalty>  (357) 
0

>  <ligand_id>  (357) 
117

>  <original_smiles>  (357) 
COC1C2C3CC(C)(CC4C1C4(C)C)C1C(O)C2C2(OC2C2OC24C2CC(C(C)(C)O2)C4(C)C)C31C

>  <smiles>  (357) 
[H]OC1([H])C2([H])C3([H])C([H])(OC([H])([H])[H])C4([H])C([H])(C([H])([H])C5(C([H])([H])[H])C([H])([H])C3([H])C(C([H])([H])[H])(C15[H])C21OC1([H])C1([H])OC12C1([H])OC(C([H])([H])[H])(C([H])([H])[H])C([H])(C1([H])[H])C2(C([H])([H])[H])C([H])([H])[H])C4(C([H])([H])[H])C([H])([H])[H]

$$$$
117:0:2
     RDKit          3D

 82 90  0  0  1  0  0  0  0  0999 V2000
    4.8309   -0.0004    3.8068 C   0  0  0  0  0  0  0  0  0  0  0  0
    5.1277   -1.1224    3.0071 O   0  0  0  0  0  0  0  0  0  0  0  0
    4.0173   -1.7252    2.3320 C   0  0  2  0  0  0  0  0  0  0  0  0
    3.0021   -2.4947    3.2727 C   0  0  1  0  0  0  0  0  0  0  0  0
    2.0561   -3.6653    2.7337 C   0  0  1  0  0  0  0  0  0  0  0  0
    2.4775   -4.6697    1.6636 C   0  0  0  0  0  0  0  0  0  0  0  0
    3.6426   -5.4622    2.2869 C   0  0  1  0  0  0  0  0  0  0  0  0
    3.4426   -6.9516    1.9408 C   0  0  0  0  0  0  0  0  0  0  0  0
    5.0301   -5.0650    1.6387 C   0  0  0  0  0  0  0  0  0  0  0  0
    5.4820   -3.6032    1.6499 C   0  0  2  0  0  0  0  0  0  0  0  0
    4.5235   -2.5341    1.1702 C   0  0  2  0  0  0  0  0  0  0  0  0
    5.8743   -2.6936    0.5046 C   0  0  0  0  0  0  0  0  0  0  0  0
    6.9394   -1.6165    0.6675 C   0  0  0  0  0  0  0  0  0  0  0  0
    5.9262   -3.2423   -0.9016 C   0  0  0  0  0  0  0  0  0  0  0  0
    3.3862   -5.3112    3.8493 C   0  0  1  0  0  0  0  0  0  0  0  0
    4.2260   -4.3251    4.7140 C   0  0  1  0  0  0  0  0  0  0  0  0
    5.6240   -4.2725    4.5461 O   0  0  0  0  0  0  0  0  0  0  0  0
    3.4201   -3.0204    4.6781 C   0  0  2  0  0  0  0  0  0  0  0  0
    2.1063   -3.5973    5.0939 C   0  0  1  0  0  0  0  0  0  0  0  0
    1.8654   -3.9477    6.4444 O   0  0  0  0  0  0  0  0  0  0  0  0
    0.9657   -2.9859    5.8463 C   0  0  1  0  0  0  0  0  0  0  0  0
    0.9734   -1.6013    6.4372 C   0  0  2  0  0  0  0  0  0  0  0  0
   -0.3197   -1.1465    6.8940 O   0  0  0  0  0  0  0  0  0  0  0  0
    0.2329   -0.4383    5.7767 C   0  0  2  0  0  0  0  0  0  0  0  0
   -0.3637   -0.5622    4.3744 C   0  0  2  0  0  0  0  0  0  0  0  0
    0.6229    0.2972    3.5623 C   0  0  0  0  0  0  0  0  0  0  0  0
    0.3049    1.5162    4.4299 C   0  0  1  0  0  0  0  0  0  0  0  0
   -1.2306    1.5947    4.1793 C   0  0  0  0  0  0  0  0  0  0  0  0
   -2.0540    2.4293    5.1745 C   0  0  0  0  0  0  0  0  0  0  0  0
   -1.5823    2.1467    2.7790 C   0  0  0  0  0  0  0  0  0  0  0  0
   -1.6003    0.1888    4.2935 O   0  0  0  0  0  0  0  0  0  0  0  0
    0.6977    1.0014    5.8894 C   0  0  0  0  0  0  0  0  0  0  0  0
    0.1209    1.7573    7.1118 C   0  0  0  0  0  0  0  0  0  0  0  0
    2.2288    1.0495    6.0866 C   0  0  0  0  0  0  0  0  0  0  0  0
    2.0031   -4.5853    3.9671 C   0  0  1  0  0  0  0  0  0  0  0  0
    0.7598   -5.5207    4.0882 C   0  0  0  0  0  0  0  0  0  0  0  0
    5.7439    0.4198    4.2326 H   0  0  0  0  0  0  0  0  0  0  0  0
    4.2189   -0.3391    4.5866 H   0  0  0  0  0  0  0  0  0  0  0  0
    4.3356    0.7819    3.2381 H   0  0  0  0  0  0  0  0  0  0  0  0
    3.4462   -0.9153    1.8864 H   0  0  0  0  0  0  0  0  0  0  0  0
    2.3144   -1.7442    3.5201 H   0  0  0  0  0  0  0  0  0  0  0  0
    1.0930   -3.2212    2.4931 H   0  0  0  0  0  0  0  0  0  0  0  0
    1.6365   -5.3486    1.4909 H   0  0  0  0  0  0  0  0  0  0  0  0
    2.6514   -4.3016    0.6558 H   0  0  0  0  0  0  0  0  0  0  0  0
    4.2474   -7.5568    2.3650 H   0  0  0  0  0  0  0  0  0  0  0  0
    3.4319   -7.1031    0.8574 H   0  0  0  0  0  0  0  0  0  0  0  0
    2.5000   -7.3349    2.3349 H   0  0  0  0  0  0  0  0  0  0  0  0
    5.8179   -5.6366    2.1317 H   0  0  0  0  0  0  0  0  0  0  0  0
    5.0359   -5.4106    0.6002 H   0  0  0  0  0  0  0  0  0  0  0  0
    6.1287   -3.3735    2.4917 H   0  0  0  0  0  0  0  0  0  0  0  0
    3.7493   -2.6759    0.4133 H   0  0  0  0  0  0  0  0  0  0  0  0
    6.6915   -0.7480    0.0585 H   0  0  0  0  0  0  0  0  0  0  0  0
    7.9228   -2.0012    0.3867 H   0  0  0  0  0  0  0  0  0  0  0  0
    7.0220   -1.2788    1.6932 H   0  0  0  0  0  0  0  0  0  0  0  0
    5.8418   -2.4324   -1.6321 H   0  0  0  0  0  0  0  0  0  0  0  0
    5.0978   -3.9317   -1.0676 H   0  0  0  0  0  0  0  0  0  0  0  0
    6.8643   -3.7754   -1.0597 H   0  0  0  0  0  0  0  0  0  0  0  0
    3.3861   -6.2763    4.3541 H   0  0  0  0  0  0  0  0  0  0  0  0
    4.1644   -4.6908    5.7430 H   0  0  0  0  0  0  0  0  0  0  0  0
    5.9776   -3.7154    5.2163 H   0  0  0  0  0  0  0  0  0  0  0  0
    3.7338   -2.2822    5.4025 H   0  0  0  0  0  0  0  0  0  0  0  0
   -0.0225   -3.3932    5.6370 H   0  0  0  0  0  0  0  0  0  0  0  0
    1.7615   -1.3792    7.1622 H   0  0  0  0  0  0  0  0  0  0  0  0
   -0.4958   -1.5809    4.0361 H   0  0  0  0  0  0  0  0  0  0  0  0
    1.6521    0.0395    3.5737 H   0  0  0  0  0  0  0  0  0  0  0  0
    0.2900    0.3002    2.5282 H   0  0  0  0  0  0  0  0  0  0  0  0
    0.8654    2.3933    4.0981 H   0  0  0  0  0  0  0  0  0  0  0  0
   -1.4822    3.3237    5.3888 H   0  0  0  0  0  0  0  0  0  0  0  0
   -2.2409    1.9167    6.0953 H   0  0  0  0  0  0  0  0  0  0  0  0
   -3.0012    2.7775    4.7181 H   0  0  0  0  0  0  0  0  0  0  0  0
   -1.2569    3.1829    2.7079 H   0  0  0  0  0  0  0  0  0  0  0  0
   -2.6633    2.1465    2.6168 H   0  0  0  0  0  0  0  0  0  0  0  0
   -1.1538    1.6285    1.9110 H   0  0  0  0  0  0  0  0  0  0  0  0
    0.0799    2.8244    6.8997 H   0  0  0  0  0  0  0  0  0  0  0  0
    0.7856    1.6559    7.9758 H   0  0  0  0  0  0  0  0  0  0  0  0
   -0.8615    1.4127    7.3786 H   0  0  0  0  0  0  0  0  0  0  0  0
    2.6135    2.0523    5.8695 H   0  0  0  0  0  0  0  0  0  0  0  0
    2.6719    0.3146    5.4923 H   0  0  0  0  0  0  0  0  0  0  0  0
    2.4805    0.8520    7.1262 H   0  0  0  0  0  0  0  0  0  0  0  0
    0.7959   -6.0221    5.0510 H   0  0  0  0  0  0  0  0  0  0  0  0
    0.7240   -6.2783    3.3101 H   0  0  0  0  0  0  0  0  0  0  0  0
   -0.1611   -4.9448    4.0503 H   0  0  0  0  0  0  0  0  0  0  0  0
  1  2  1  0
  1 37  1  0
  1 38  1  0
  1 39  1  0
  2  3  1  0
  3 11  1  0
  3  4  1  0
  3 40  1  6
  4 18  1  0
  4  5  1  0
  4 41  1  1
  5 35  1  0
  5  6  1  0
  5 42  1  6
  6  7  1  0
  6 43  1  0
  6 44  1  0
  7  8  1  6
  7  9  1  0
  7 15  1  0
  8 45  1  0
  8 46  1  0
  8 47  1  0
  9 10  1  0
  9 48  1  0
  9 49  1  0
 10 12  1  0
 10 11  1  0
 10 50  1  1
 11 12  1  0
 11 51  1  6
 12 13  1  0
 12 14  1  0
 13 52  1  0
 13 53  1  0
 13 54  1  0
 14 55  1  0
 14 56  1  0
 14 57  1  0
 15 35  1  0
 15 16  1  0
 15 58  1  1
 16 17  1  0
 16 18  1  0
 16 59  1  1
 17 60  1  0
 18 19  1  0
 18 61  1  1
 19 21  1  0
 19 20  1  1
 19 35  1  0
 20 21  1  0
 21 22  1  0
 21 62  1  6
 22 24  1  0
 22 23  1  0
 22 63  1  1
 24 23  1  1
 24 32  1  0
 24 25  1  0
 25 31  1  0
 25 26  1  0
 25 64  1  6
 26 27  1  0
 26 65  1  0
 26 66  1  0
 27 28  1  0
 27 32  1  0
 27 67  1  6
 28 29  1  0
 28 30  1  0
 28 31  1  0
 29 68  1  0
 29 69  1  0
 29 70  1  0
 30 71  1  0
 30 72  1  0
 30 73  1  0
 32 33  1  0
 32 34  1  0
 33 74  1  0
 33 75  1  0
 33 76  1  0
 34 77  1  0
 34 78  1  0
 34 79  1  0
 35 36  1  1
 36 80  1  0
 36 81  1  0
 36 82  1  0
M  END
>  <i_m_ct_stereo_status>  (358) 
1

>  <s_m_source_file>  (358) 
/var/tmp/pbs.5076255.sched01/tmpajq2dbrl/12675ddggds.sdf

>  <i_m_source_file_index>  (358) 
41

>  <i_lp_mmshare_version>  (358) 
48012

>  <i_f3d_flags>  (358) 
0

>  <s_epik_input>  (358) 
W0NIM11PW0NASF0xW0NAQEhdKEMyKFtDSDNdKVtDSDNdKVtDQEhdMltDSDJdW0NAQF0oW0NIMl0zKShbQ0gzXSlbQ0BASF0oW0NASF00W09IXSlbQ0BdNShbQ0gzXSlbQ0BIXTNbQ0BIXTFbQ0BIXTRbQ0BdNTZPW0NASF02W0NASF0oTzcpW0NAQF03OFtDQEBIXTlbQ0gyXVtDQEBIXShDKE85KShbQ0gzXSlbQ0gzXSlDOChbQ0gzXSlbQ0gzXQ==

>  <s_epik_cmdline>  (358) 
J2VwaWtfcHl0aG9uJywgJy1waHQnLCAnMi4wJywgJy1waCcsICc3LjAnLCAnLXRuJywgJzgnLCAnLW1hJywgJzIwMCcsICctaW1hZScsICc8aW5maWxlLm1hZT4nLCAnLW9tYWUnLCAnPG91dGZpbGUubWFlPic=

>  <r_lp_tautomer_probability>  (358) 
1

>  <r_epik_Ionization_Penalty>  (358) 
1.92089e-07

>  <r_epik_Ionization_Penalty_Charging>  (358) 
0

>  <r_epik_Ionization_Penalty_Neutral>  (358) 
1.92089e-07

>  <r_epik_State_Penalty>  (358) 
-0

>  <r_epik_Charging_Adjusted_Penalty>  (358) 
0

>  <i_epik_Tot_Q>  (358) 
0

>  <i_epik_Tot_abs_Q>  (358) 
0

>  <s_lp_Force_Field>  (358) 
OPLS3e

>  <r_lp_Energy>  (358) 
138.592

>  <b_lp_Chiralities_Consistent>  (358) 
1

>  <s_lp_Variant>  (358) 
117:0-1

>  <s_i_glide_gridfile>  (358) 
pfpi4k_grid

>  <i_i_glide_lignum>  (358) 
41

>  <i_i_glide_rotatable_bonds>  (358) 
3

>  <r_i_docking_score>  (358) 
-1.68822

>  <r_i_glide_ligand_efficiency>  (358) 
-0.046895

>  <r_i_glide_ligand_efficiency_sa>  (358) 
-0.154844

>  <r_i_glide_ligand_efficiency_ln>  (358) 
-0.368324

>  <r_i_glide_gscore>  (358) 
-1.68822

>  <r_i_glide_lipo>  (358) 
-0.340965

>  <r_i_glide_hbond>  (358) 
0

>  <r_i_glide_metal>  (358) 
-0

>  <r_i_glide_rewards>  (358) 
-0.00890495

>  <r_i_glide_evdw>  (358) 
-20.7237

>  <r_i_glide_ecoul>  (358) 
-2.56149

>  <r_i_glide_erotb>  (358) 
0.0820592

>  <r_i_glide_esite>  (358) 
0

>  <r_i_glide_emodel>  (358) 
-23.8125

>  <r_i_glide_energy>  (358) 
-23.2852

>  <r_i_glide_einternal>  (358) 
0.575223

>  <r_i_glide_intrahb_reward>  (358) 
-0

>  <i_i_glide_confnum>  (358) 
3

>  <i_i_glide_posenum>  (358) 
10

>  <r_i_glide_eff_state_penalty>  (358) 
0

>  <ligand_id>  (358) 
117

>  <original_smiles>  (358) 
COC1C2C3CC(C)(CC4C1C4(C)C)C1C(O)C2C2(OC2C2OC24C2CC(C(C)(C)O2)C4(C)C)C31C

>  <smiles>  (358) 
[H]OC1([H])C2([H])C3([H])C([H])(OC([H])([H])[H])C4([H])C([H])(C([H])([H])C5(C([H])([H])[H])C([H])([H])C3([H])C(C([H])([H])[H])(C15[H])C21OC1([H])C1([H])OC12C1([H])OC(C([H])([H])[H])(C([H])([H])[H])C([H])(C1([H])[H])C2(C([H])([H])[H])C([H])([H])[H])C4(C([H])([H])[H])C([H])([H])[H]

$$$$
118:0:0
     RDKit          3D

 46 48  0  0  1  0  0  0  0  0999 V2000
   -1.0303   -8.2514    3.8879 C   0  0  0  0  0  0  0  0  0  0  0  0
    0.0348   -8.6965    2.8764 C   0  0  0  0  0  0  0  0  0  0  0  0
    0.6132  -10.0743    3.2087 C   0  0  0  0  0  0  0  0  0  0  0  0
    1.1126   -7.7862    2.8574 O   0  0  0  0  0  0  0  0  0  0  0  0
    1.0848   -6.6654    2.0985 C   0  0  0  0  0  0  0  0  0  0  0  0
    0.0949   -6.2612    1.4915 O   0  0  0  0  0  0  0  0  0  0  0  0
    2.3337   -6.0533    2.1467 N   0  0  0  0  0  0  0  0  0  0  0  0
    2.6353   -4.8928    1.4283 C   0  0  0  0  0  0  0  0  0  0  0  0
    2.6781   -4.7548    0.1185 C   0  0  0  0  0  0  0  0  0  0  0  0
    3.9042   -3.8321    0.2198 C   0  0  0  0  0  0  0  0  0  0  0  0
    5.1039   -4.0706   -0.7139 C   0  0  0  0  0  0  0  0  0  0  0  0
    5.6681   -2.6989   -1.1064 C   0  0  0  0  0  0  0  0  0  0  0  0
    4.8928   -1.6814   -0.2638 C   0  0  0  0  0  0  0  0  0  0  0  0
    3.5517   -2.3786   -0.0195 C   0  0  0  0  0  0  0  0  0  0  0  0
    4.0039   -4.3594    1.6963 C   0  0  2  0  0  0  0  0  0  0  0  0
    4.6929   -5.6144    2.2829 C   0  0  0  0  0  0  0  0  0  0  0  0
    5.3330   -6.6185    1.2759 C   0  0  0  0  0  0  0  0  0  0  0  0
    5.8068   -5.1557    3.2282 C   0  0  0  0  0  0  0  0  0  0  0  0
    3.5027   -6.4270    2.9473 C   0  0  1  0  0  0  0  0  0  0  0  0
    3.3012   -6.1629    4.4593 C   0  0  0  0  0  0  0  0  0  0  0  0
    3.7793   -7.0268    5.2257 O   0  0  0  0  0  0  0  0  0  0  0  0
    2.7279   -5.1074    4.8243 O   0  0  0  0  0  0  0  0  0  0  0  0
   -1.8555   -8.9639    3.9017 H   0  0  0  0  0  0  0  0  0  0  0  0
   -1.4431   -7.2731    3.6415 H   0  0  0  0  0  0  0  0  0  0  0  0
   -0.6202   -8.1984    4.8965 H   0  0  0  0  0  0  0  0  0  0  0  0
   -0.3911   -8.7384    1.8743 H   0  0  0  0  0  0  0  0  0  0  0  0
   -0.1857  -10.8145    3.2120 H   0  0  0  0  0  0  0  0  0  0  0  0
    1.0886  -10.0915    4.1917 H   0  0  0  0  0  0  0  0  0  0  0  0
    1.3540  -10.3771    2.4662 H   0  0  0  0  0  0  0  0  0  0  0  0
    2.2121   -5.2606   -0.7241 H   0  0  0  0  0  0  0  0  0  0  0  0
    5.9554   -4.5237   -0.1812 H   0  0  0  0  0  0  0  0  0  0  0  0
    4.8551   -4.6852   -1.5845 H   0  0  0  0  0  0  0  0  0  0  0  0
    6.7283   -2.6823   -0.8437 H   0  0  0  0  0  0  0  0  0  0  0  0
    5.5635   -2.5105   -2.1738 H   0  0  0  0  0  0  0  0  0  0  0  0
    5.3656   -1.5766    0.7205 H   0  0  0  0  0  0  0  0  0  0  0  0
    4.8189   -0.6843   -0.7209 H   0  0  0  0  0  0  0  0  0  0  0  0
    2.9398   -2.2828   -0.9204 H   0  0  0  0  0  0  0  0  0  0  0  0
    2.9903   -1.9213    0.8004 H   0  0  0  0  0  0  0  0  0  0  0  0
    4.0008   -3.5030    2.3852 H   0  0  0  0  0  0  0  0  0  0  0  0
    5.5502   -7.5670    1.7842 H   0  0  0  0  0  0  0  0  0  0  0  0
    6.2752   -6.2710    0.8397 H   0  0  0  0  0  0  0  0  0  0  0  0
    4.6444   -6.8505    0.4633 H   0  0  0  0  0  0  0  0  0  0  0  0
    6.2886   -5.9878    3.7414 H   0  0  0  0  0  0  0  0  0  0  0  0
    5.4630   -4.4352    3.9759 H   0  0  0  0  0  0  0  0  0  0  0  0
    6.5731   -4.6451    2.6411 H   0  0  0  0  0  0  0  0  0  0  0  0
    3.6435   -7.5051    2.8340 H   0  0  0  0  0  0  0  0  0  0  0  0
  1  2  1  0
  1 23  1  0
  1 24  1  0
  1 25  1  0
  2  3  1  0
  2  4  1  0
  2 26  1  0
  3 27  1  0
  3 28  1  0
  3 29  1  0
  4  5  1  0
  5  6  2  0
  5  7  1  0
  7 19  1  0
  7  8  1  0
  8 15  1  0
  8  9  2  0
  9 10  1  0
  9 30  1  0
 10 14  1  0
 10 11  1  0
 10 15  1  0
 11 12  1  0
 11 31  1  0
 11 32  1  0
 12 13  1  0
 12 33  1  0
 12 34  1  0
 13 14  1  0
 13 35  1  0
 13 36  1  0
 14 37  1  0
 14 38  1  0
 15 16  1  0
 15 39  1  1
 16 17  1  0
 16 18  1  0
 16 19  1  0
 17 40  1  0
 17 41  1  0
 17 42  1  0
 18 43  1  0
 18 44  1  0
 18 45  1  0
 19 20  1  0
 19 46  1  1
 20 21  2  0
 20 22  1  0
M  CHG  1  22  -1
M  END
>  <i_m_ct_stereo_status>  (359) 
1

>  <s_m_source_file>  (359) 
/var/tmp/pbs.5076255.sched01/tmpajq2dbrl/12675ddggds.sdf

>  <i_m_source_file_index>  (359) 
42

>  <i_lp_mmshare_version>  (359) 
48012

>  <i_f3d_flags>  (359) 
0

>  <s_epik_input>  (359) 
W0NIM11bQ0hdKFtDSDNdKU9DKD1PKU4oW0NAQEhdKEMxKFtDSDNdKVtDSDNdKUMoPU8pW09IXSlDKD1bQ0hdMilbQ0BASF0xQzIzW0NIMl1bQ0gyXVtDSDJdW0NIMl0z

>  <s_epik_cmdline>  (359) 
J2VwaWtfcHl0aG9uJywgJy1waHQnLCAnMi4wJywgJy1waCcsICc3LjAnLCAnLXRuJywgJzgnLCAnLW1hJywgJzIwMCcsICctaW1hZScsICc8aW5maWxlLm1hZT4nLCAnLW9tYWUnLCAnPG91dGZpbGUubWFlPic=

>  <r_lp_tautomer_probability>  (359) 
1

>  <r_epik_Ionization_Penalty>  (359) 
0.000282413

>  <r_epik_Ionization_Penalty_Charging>  (359) 
0.000278297

>  <r_epik_Ionization_Penalty_Neutral>  (359) 
4.11665e-06

>  <r_epik_State_Penalty>  (359) 
-0

>  <r_epik_Charging_Adjusted_Penalty>  (359) 
0.000278297

>  <i_epik_Tot_Q>  (359) 
-1

>  <i_epik_Tot_abs_Q>  (359) 
1

>  <s_epik_Chemistry_Notes>  (359) 
This compound has an ester and may undergo hydrolysis at high or low pH.

>  <s_lp_Force_Field>  (359) 
OPLS3e

>  <r_lp_Energy>  (359) 
53.0653

>  <b_lp_Chiralities_Consistent>  (359) 
1

>  <s_lp_Variant>  (359) 
118:0-1

>  <s_i_glide_gridfile>  (359) 
pfpi4k_grid

>  <i_i_glide_lignum>  (359) 
42

>  <i_i_glide_rotatable_bonds>  (359) 
4

>  <r_i_docking_score>  (359) 
-3.15533

>  <r_i_glide_ligand_efficiency>  (359) 
-0.143424

>  <r_i_glide_ligand_efficiency_sa>  (359) 
-0.40188

>  <r_i_glide_ligand_efficiency_ln>  (359) 
-0.771278

>  <r_i_glide_gscore>  (359) 
-3.15533

>  <r_i_glide_lipo>  (359) 
-0.184781

>  <r_i_glide_hbond>  (359) 
-0.276584

>  <r_i_glide_metal>  (359) 
-0

>  <r_i_glide_rewards>  (359) 
-1.32016

>  <r_i_glide_evdw>  (359) 
-23.1244

>  <r_i_glide_ecoul>  (359) 
-3.63922

>  <r_i_glide_erotb>  (359) 
0.39356

>  <r_i_glide_esite>  (359) 
-0.0652667

>  <r_i_glide_emodel>  (359) 
-32.9818

>  <r_i_glide_energy>  (359) 
-26.7636

>  <r_i_glide_einternal>  (359) 
0.643981

>  <r_i_glide_intrahb_reward>  (359) 
-0

>  <i_i_glide_confnum>  (359) 
3

>  <i_i_glide_posenum>  (359) 
37

>  <r_i_glide_eff_state_penalty>  (359) 
0

>  <ligand_id>  (359) 
118

>  <original_smiles>  (359) 
CC(C)OC(=O)N1C2=CC3(CCCC3)C2C(C)(C)C1C(=O)O

>  <smiles>  (359) 
[H]C1=C2N(C(=O)OC([H])(C([H])([H])[H])C([H])([H])[H])C([H])(C(=O)[O-])C(C([H])([H])[H])(C([H])([H])[H])C2([H])C12C([H])([H])C([H])([H])C([H])([H])C2([H])[H]

$$$$
118:0:1
     RDKit          3D

 46 48  0  0  1  0  0  0  0  0999 V2000
   -0.0501   -8.5473    5.2533 C   0  0  0  0  0  0  0  0  0  0  0  0
   -0.2255   -8.1316    3.7854 C   0  0  0  0  0  0  0  0  0  0  0  0
   -0.5015   -9.3354    2.8798 C   0  0  0  0  0  0  0  0  0  0  0  0
    0.9749   -7.5002    3.3785 O   0  0  0  0  0  0  0  0  0  0  0  0
    1.0058   -6.5723    2.4257 C   0  0  0  0  0  0  0  0  0  0  0  0
    0.0232   -6.2668    1.7327 O   0  0  0  0  0  0  0  0  0  0  0  0
    2.2789   -6.0165    2.3361 N   0  0  0  0  0  0  0  0  0  0  0  0
    2.6085   -4.9668    1.4893 C   0  0  0  0  0  0  0  0  0  0  0  0
    2.6513   -4.9844    0.1587 C   0  0  0  0  0  0  0  0  0  0  0  0
    3.9175   -4.0952    0.1673 C   0  0  0  0  0  0  0  0  0  0  0  0
    5.0672   -4.5323   -0.7487 C   0  0  0  0  0  0  0  0  0  0  0  0
    5.3420   -3.4286   -1.7664 C   0  0  0  0  0  0  0  0  0  0  0  0
    4.1115   -2.5404   -1.7327 C   0  0  0  0  0  0  0  0  0  0  0  0
    3.5917   -2.6750   -0.3011 C   0  0  0  0  0  0  0  0  0  0  0  0
    3.9838   -4.4318    1.6889 C   0  0  2  0  0  0  0  0  0  0  0  0
    4.6542   -5.6390    2.3967 C   0  0  0  0  0  0  0  0  0  0  0  0
    5.2314   -6.7395    1.4643 C   0  0  0  0  0  0  0  0  0  0  0  0
    5.8130   -5.1047    3.2519 C   0  0  0  0  0  0  0  0  0  0  0  0
    3.4578   -6.3236    3.1646 C   0  0  1  0  0  0  0  0  0  0  0  0
    3.2923   -5.8592    4.6320 C   0  0  0  0  0  0  0  0  0  0  0  0
    3.6356   -6.6852    5.5124 O   0  0  0  0  0  0  0  0  0  0  0  0
    2.8680   -4.7117    4.8600 O   0  0  0  0  0  0  0  0  0  0  0  0
   -0.9447   -9.0567    5.6199 H   0  0  0  0  0  0  0  0  0  0  0  0
    0.1349   -7.6768    5.8869 H   0  0  0  0  0  0  0  0  0  0  0  0
    0.7946   -9.2301    5.3718 H   0  0  0  0  0  0  0  0  0  0  0  0
   -1.0544   -7.4238    3.7229 H   0  0  0  0  0  0  0  0  0  0  0  0
   -1.4038   -9.8523    3.2013 H   0  0  0  0  0  0  0  0  0  0  0  0
    0.3239  -10.0487    2.8995 H   0  0  0  0  0  0  0  0  0  0  0  0
   -0.6482   -9.0174    1.8479 H   0  0  0  0  0  0  0  0  0  0  0  0
    2.1461   -5.5808   -0.6074 H   0  0  0  0  0  0  0  0  0  0  0  0
    5.9902   -4.5979   -0.1875 H   0  0  0  0  0  0  0  0  0  0  0  0
    4.8800   -5.4973   -1.2322 H   0  0  0  0  0  0  0  0  0  0  0  0
    6.1990   -2.8670   -1.4021 H   0  0  0  0  0  0  0  0  0  0  0  0
    5.5972   -3.8111   -2.7541 H   0  0  0  0  0  0  0  0  0  0  0  0
    4.3269   -1.5046   -1.9814 H   0  0  0  0  0  0  0  0  0  0  0  0
    3.3742   -2.9271   -2.4347 H   0  0  0  0  0  0  0  0  0  0  0  0
    2.5264   -2.4526   -0.2370 H   0  0  0  0  0  0  0  0  0  0  0  0
    4.1116   -1.9639    0.3359 H   0  0  0  0  0  0  0  0  0  0  0  0
    4.0222   -3.5095    2.2652 H   0  0  0  0  0  0  0  0  0  0  0  0
    5.5304   -7.6081    2.0547 H   0  0  0  0  0  0  0  0  0  0  0  0
    6.1275   -6.4383    0.9253 H   0  0  0  0  0  0  0  0  0  0  0  0
    4.4914   -7.0855    0.7402 H   0  0  0  0  0  0  0  0  0  0  0  0
    6.2690   -5.8868    3.8520 H   0  0  0  0  0  0  0  0  0  0  0  0
    5.5038   -4.2939    3.9111 H   0  0  0  0  0  0  0  0  0  0  0  0
    6.5783   -4.6903    2.5973 H   0  0  0  0  0  0  0  0  0  0  0  0
    3.5693   -7.4126    3.1834 H   0  0  0  0  0  0  0  0  0  0  0  0
  1  2  1  0
  1 23  1  0
  1 24  1  0
  1 25  1  0
  2  3  1  0
  2  4  1  0
  2 26  1  0
  3 27  1  0
  3 28  1  0
  3 29  1  0
  4  5  1  0
  5  6  2  0
  5  7  1  0
  7 19  1  0
  7  8  1  0
  8 15  1  0
  8  9  2  0
  9 10  1  0
  9 30  1  0
 10 14  1  0
 10 11  1  0
 10 15  1  0
 11 12  1  0
 11 31  1  0
 11 32  1  0
 12 13  1  0
 12 33  1  0
 12 34  1  0
 13 14  1  0
 13 35  1  0
 13 36  1  0
 14 37  1  0
 14 38  1  0
 15 16  1  0
 15 39  1  1
 16 17  1  0
 16 18  1  0
 16 19  1  0
 17 40  1  0
 17 41  1  0
 17 42  1  0
 18 43  1  0
 18 44  1  0
 18 45  1  0
 19 20  1  0
 19 46  1  1
 20 21  2  0
 20 22  1  0
M  CHG  1  22  -1
M  END
>  <i_m_ct_stereo_status>  (360) 
1

>  <s_m_source_file>  (360) 
/var/tmp/pbs.5076255.sched01/tmpajq2dbrl/12675ddggds.sdf

>  <i_m_source_file_index>  (360) 
42

>  <i_lp_mmshare_version>  (360) 
48012

>  <i_f3d_flags>  (360) 
0

>  <s_epik_input>  (360) 
W0NIM11bQ0hdKFtDSDNdKU9DKD1PKU4oW0NAQEhdKEMxKFtDSDNdKVtDSDNdKUMoPU8pW09IXSlDKD1bQ0hdMilbQ0BASF0xQzIzW0NIMl1bQ0gyXVtDSDJdW0NIMl0z

>  <s_epik_cmdline>  (360) 
J2VwaWtfcHl0aG9uJywgJy1waHQnLCAnMi4wJywgJy1waCcsICc3LjAnLCAnLXRuJywgJzgnLCAnLW1hJywgJzIwMCcsICctaW1hZScsICc8aW5maWxlLm1hZT4nLCAnLW9tYWUnLCAnPG91dGZpbGUubWFlPic=

>  <r_lp_tautomer_probability>  (360) 
1

>  <r_epik_Ionization_Penalty>  (360) 
0.000282413

>  <r_epik_Ionization_Penalty_Charging>  (360) 
0.000278297

>  <r_epik_Ionization_Penalty_Neutral>  (360) 
4.11665e-06

>  <r_epik_State_Penalty>  (360) 
-0

>  <r_epik_Charging_Adjusted_Penalty>  (360) 
0.000278297

>  <i_epik_Tot_Q>  (360) 
-1

>  <i_epik_Tot_abs_Q>  (360) 
1

>  <s_epik_Chemistry_Notes>  (360) 
This compound has an ester and may undergo hydrolysis at high or low pH.

>  <s_lp_Force_Field>  (360) 
OPLS3e

>  <r_lp_Energy>  (360) 
53.0653

>  <b_lp_Chiralities_Consistent>  (360) 
1

>  <s_lp_Variant>  (360) 
118:0-1

>  <s_i_glide_gridfile>  (360) 
pfpi4k_grid

>  <i_i_glide_lignum>  (360) 
42

>  <i_i_glide_rotatable_bonds>  (360) 
4

>  <r_i_docking_score>  (360) 
-3.07203

>  <r_i_glide_ligand_efficiency>  (360) 
-0.139638

>  <r_i_glide_ligand_efficiency_sa>  (360) 
-0.39127

>  <r_i_glide_ligand_efficiency_ln>  (360) 
-0.750915

>  <r_i_glide_gscore>  (360) 
-3.07203

>  <r_i_glide_lipo>  (360) 
-0.230665

>  <r_i_glide_hbond>  (360) 
-0.287593

>  <r_i_glide_metal>  (360) 
-0

>  <r_i_glide_rewards>  (360) 
-1.32016

>  <r_i_glide_evdw>  (360) 
-21.452

>  <r_i_glide_ecoul>  (360) 
-3.28999

>  <r_i_glide_erotb>  (360) 
0.39356

>  <r_i_glide_esite>  (360) 
-0.0610732

>  <r_i_glide_emodel>  (360) 
-31.2827

>  <r_i_glide_energy>  (360) 
-24.7419

>  <r_i_glide_einternal>  (360) 
0.462775

>  <r_i_glide_intrahb_reward>  (360) 
-0

>  <i_i_glide_confnum>  (360) 
1

>  <i_i_glide_posenum>  (360) 
39

>  <r_i_glide_eff_state_penalty>  (360) 
0

>  <ligand_id>  (360) 
118

>  <original_smiles>  (360) 
CC(C)OC(=O)N1C2=CC3(CCCC3)C2C(C)(C)C1C(=O)O

>  <smiles>  (360) 
[H]C1=C2N(C(=O)OC([H])(C([H])([H])[H])C([H])([H])[H])C([H])(C(=O)[O-])C(C([H])([H])[H])(C([H])([H])[H])C2([H])C12C([H])([H])C([H])([H])C([H])([H])C2([H])[H]

$$$$
118:0:2
     RDKit          3D

 46 48  0  0  1  0  0  0  0  0999 V2000
   -1.3955   -8.0049    3.2939 C   0  0  0  0  0  0  0  0  0  0  0  0
   -0.1315   -8.3041    2.4789 C   0  0  0  0  0  0  0  0  0  0  0  0
    0.5127   -9.6381    2.8786 C   0  0  0  0  0  0  0  0  0  0  0  0
    0.8199   -7.2853    2.7092 O   0  0  0  0  0  0  0  0  0  0  0  0
    1.1181   -6.3666    1.7761 C   0  0  0  0  0  0  0  0  0  0  0  0
    0.5800   -6.2826    0.6679 O   0  0  0  0  0  0  0  0  0  0  0  0
    2.0904   -5.4982    2.2677 N   0  0  0  0  0  0  0  0  0  0  0  0
    2.6592   -4.4834    1.5124 C   0  0  0  0  0  0  0  0  0  0  0  0
    3.4575   -4.6108    0.4526 C   0  0  0  0  0  0  0  0  0  0  0  0
    4.3191   -3.4227    0.9321 C   0  0  0  0  0  0  0  0  0  0  0  0
    5.8448   -3.6161    0.8943 C   0  0  0  0  0  0  0  0  0  0  0  0
    6.4526   -2.5668   -0.0324 C   0  0  0  0  0  0  0  0  0  0  0  0
    5.2908   -2.0374   -0.8559 C   0  0  0  0  0  0  0  0  0  0  0  0
    4.0768   -2.1832    0.0639 C   0  0  0  0  0  0  0  0  0  0  0  0
    3.5629   -3.5859    2.2859 C   0  0  2  0  0  0  0  0  0  0  0  0
    3.9042   -4.5062    3.4945 C   0  0  0  0  0  0  0  0  0  0  0  0
    5.0858   -5.4914    3.2835 C   0  0  0  0  0  0  0  0  0  0  0  0
    4.2614   -3.6077    4.6937 C   0  0  0  0  0  0  0  0  0  0  0  0
    2.6204   -5.4131    3.6399 C   0  0  1  0  0  0  0  0  0  0  0  0
    1.5763   -4.8973    4.6571 C   0  0  0  0  0  0  0  0  0  0  0  0
    1.6087   -5.4011    5.7907 O   0  0  0  0  0  0  0  0  0  0  0  0
    0.7739   -3.9993    4.2998 O   0  0  0  0  0  0  0  0  0  0  0  0
   -2.1382   -8.7912    3.1488 H   0  0  0  0  0  0  0  0  0  0  0  0
   -1.8432   -7.0583    2.9932 H   0  0  0  0  0  0  0  0  0  0  0  0
   -1.1731   -7.9501    4.3594 H   0  0  0  0  0  0  0  0  0  0  0  0
   -0.3984   -8.3597    1.4209 H   0  0  0  0  0  0  0  0  0  0  0  0
   -0.1872  -10.4615    2.7220 H   0  0  0  0  0  0  0  0  0  0  0  0
    0.8123   -9.6466    3.9317 H   0  0  0  0  0  0  0  0  0  0  0  0
    1.4005   -9.8362    2.2735 H   0  0  0  0  0  0  0  0  0  0  0  0
    3.5851   -5.3884   -0.3085 H   0  0  0  0  0  0  0  0  0  0  0  0
    6.2746   -3.3933    1.8610 H   0  0  0  0  0  0  0  0  0  0  0  0
    6.1316   -4.6347    0.6064 H   0  0  0  0  0  0  0  0  0  0  0  0
    6.8364   -1.7700    0.5980 H   0  0  0  0  0  0  0  0  0  0  0  0
    7.2843   -2.9507   -0.6204 H   0  0  0  0  0  0  0  0  0  0  0  0
    5.4242   -1.0061   -1.1714 H   0  0  0  0  0  0  0  0  0  0  0  0
    5.1648   -2.6646   -1.7383 H   0  0  0  0  0  0  0  0  0  0  0  0
    3.1415   -2.2420   -0.5003 H   0  0  0  0  0  0  0  0  0  0  0  0
    4.0112   -1.3080    0.7049 H   0  0  0  0  0  0  0  0  0  0  0  0
    3.1109   -2.6390    2.5748 H   0  0  0  0  0  0  0  0  0  0  0  0
    5.1359   -6.1925    4.1170 H   0  0  0  0  0  0  0  0  0  0  0  0
    6.0604   -5.0107    3.2485 H   0  0  0  0  0  0  0  0  0  0  0  0
    4.9571   -6.0836    2.3773 H   0  0  0  0  0  0  0  0  0  0  0  0
    4.4172   -4.1869    5.5977 H   0  0  0  0  0  0  0  0  0  0  0  0
    3.4965   -2.8567    4.8891 H   0  0  0  0  0  0  0  0  0  0  0  0
    5.1776   -3.0622    4.4799 H   0  0  0  0  0  0  0  0  0  0  0  0
    2.8898   -6.4251    3.9611 H   0  0  0  0  0  0  0  0  0  0  0  0
  1  2  1  0
  1 23  1  0
  1 24  1  0
  1 25  1  0
  2  3  1  0
  2  4  1  0
  2 26  1  0
  3 27  1  0
  3 28  1  0
  3 29  1  0
  4  5  1  0
  5  6  2  0
  5  7  1  0
  7 19  1  0
  7  8  1  0
  8 15  1  0
  8  9  2  0
  9 10  1  0
  9 30  1  0
 10 14  1  0
 10 11  1  0
 10 15  1  0
 11 12  1  0
 11 31  1  0
 11 32  1  0
 12 13  1  0
 12 33  1  0
 12 34  1  0
 13 14  1  0
 13 35  1  0
 13 36  1  0
 14 37  1  0
 14 38  1  0
 15 16  1  0
 15 39  1  1
 16 17  1  0
 16 18  1  0
 16 19  1  0
 17 40  1  0
 17 41  1  0
 17 42  1  0
 18 43  1  0
 18 44  1  0
 18 45  1  0
 19 20  1  0
 19 46  1  1
 20 21  2  0
 20 22  1  0
M  CHG  1  22  -1
M  END
>  <i_m_ct_stereo_status>  (361) 
1

>  <s_m_source_file>  (361) 
/var/tmp/pbs.5076255.sched01/tmpajq2dbrl/12675ddggds.sdf

>  <i_m_source_file_index>  (361) 
42

>  <i_lp_mmshare_version>  (361) 
48012

>  <i_f3d_flags>  (361) 
0

>  <s_epik_input>  (361) 
W0NIM11bQ0hdKFtDSDNdKU9DKD1PKU4oW0NAQEhdKEMxKFtDSDNdKVtDSDNdKUMoPU8pW09IXSlDKD1bQ0hdMilbQ0BASF0xQzIzW0NIMl1bQ0gyXVtDSDJdW0NIMl0z

>  <s_epik_cmdline>  (361) 
J2VwaWtfcHl0aG9uJywgJy1waHQnLCAnMi4wJywgJy1waCcsICc3LjAnLCAnLXRuJywgJzgnLCAnLW1hJywgJzIwMCcsICctaW1hZScsICc8aW5maWxlLm1hZT4nLCAnLW9tYWUnLCAnPG91dGZpbGUubWFlPic=

>  <r_lp_tautomer_probability>  (361) 
1

>  <r_epik_Ionization_Penalty>  (361) 
0.000282413

>  <r_epik_Ionization_Penalty_Charging>  (361) 
0.000278297

>  <r_epik_Ionization_Penalty_Neutral>  (361) 
4.11665e-06

>  <r_epik_State_Penalty>  (361) 
-0

>  <r_epik_Charging_Adjusted_Penalty>  (361) 
0.000278297

>  <i_epik_Tot_Q>  (361) 
-1

>  <i_epik_Tot_abs_Q>  (361) 
1

>  <s_epik_Chemistry_Notes>  (361) 
This compound has an ester and may undergo hydrolysis at high or low pH.

>  <s_lp_Force_Field>  (361) 
OPLS3e

>  <r_lp_Energy>  (361) 
53.0653

>  <b_lp_Chiralities_Consistent>  (361) 
1

>  <s_lp_Variant>  (361) 
118:0-1

>  <s_i_glide_gridfile>  (361) 
pfpi4k_grid

>  <i_i_glide_lignum>  (361) 
42

>  <i_i_glide_rotatable_bonds>  (361) 
4

>  <r_i_docking_score>  (361) 
-2.72285

>  <r_i_glide_ligand_efficiency>  (361) 
-0.123766

>  <r_i_glide_ligand_efficiency_sa>  (361) 
-0.346797

>  <r_i_glide_ligand_efficiency_ln>  (361) 
-0.665564

>  <r_i_glide_gscore>  (361) 
-2.72285

>  <r_i_glide_lipo>  (361) 
-0.120661

>  <r_i_glide_hbond>  (361) 
-0.16

>  <r_i_glide_metal>  (361) 
-0

>  <r_i_glide_rewards>  (361) 
-1.32016

>  <r_i_glide_evdw>  (361) 
-23.5322

>  <r_i_glide_ecoul>  (361) 
-1.67636

>  <r_i_glide_erotb>  (361) 
0.39356

>  <r_i_glide_esite>  (361) 
-0.0875287

>  <r_i_glide_emodel>  (361) 
-30.8281

>  <r_i_glide_energy>  (361) 
-25.2085

>  <r_i_glide_einternal>  (361) 
0.463994

>  <r_i_glide_intrahb_reward>  (361) 
-0

>  <i_i_glide_confnum>  (361) 
1

>  <i_i_glide_posenum>  (361) 
27

>  <r_i_glide_eff_state_penalty>  (361) 
0

>  <ligand_id>  (361) 
118

>  <original_smiles>  (361) 
CC(C)OC(=O)N1C2=CC3(CCCC3)C2C(C)(C)C1C(=O)O

>  <smiles>  (361) 
[H]C1=C2N(C(=O)OC([H])(C([H])([H])[H])C([H])([H])[H])C([H])(C(=O)[O-])C(C([H])([H])[H])(C([H])([H])[H])C2([H])C12C([H])([H])C([H])([H])C([H])([H])C2([H])[H]

$$$$
